data_POSCAR
  _audit_creation_date              2014-09-24
  _audit_creation_method            'ToBaCCo'
  _symmetry_space_group_name_H-M    'P1'
  _symmetry_Int_Tables_number       1
  _symmetry_cell_setting            triclinic
  loop_
  _symmetry_equiv_pos_as_xyz
 x,y,z
_cell_length_a 104.3747
_cell_length_b 103.4526
_cell_length_c 104.0884
_cell_angle_alpha 89.923300
_cell_angle_beta 89.986400
_cell_angle_gamma 89.944100
loop_
  _atom_site_label
  _atom_site_type_symbol
  _atom_site_fract_x
  _atom_site_fract_y
  _atom_site_fract_z
N1 N 0.31399 0.42989 0.90107
 N2 N 0.32289 0.43886 0.90169
 C3 C 0.32142 0.44704 0.89174
 C4 C 0.31103 0.44307 0.88442
 C5 C 0.30656 0.43211 0.89071
 H6 H 0.32747 0.45532 0.89000
 H7 H 0.29854 0.42613 0.88795
 Cu8 Cu 0.33571 0.43913 0.91536
 Cu9 Cu 0.31270 0.41594 0.91371
 Cu10 Cu 0.33592 0.41547 0.93732
 N11 N 0.34904 0.43810 0.92856
 N12 N 0.34895 0.42862 0.93693
 C13 C 0.35896 0.42978 0.94489
 C14 C 0.36589 0.44067 0.94150
 C15 C 0.35924 0.44575 0.93101
 H16 H 0.36084 0.42319 0.95271
 H17 H 0.36162 0.45429 0.92552
 N18 N 0.32214 0.40282 0.93646
 N19 N 0.31324 0.40270 0.92749
 C20 C 0.30543 0.39250 0.92965
 C21 C 0.30974 0.38595 0.94051
 C22 C 0.32028 0.39290 0.94452
 H23 H 0.29730 0.38999 0.92374
 H24 H 0.32621 0.39095 0.95278
 H25 H 0.32127 0.42591 0.92828
 H26 H 0.33188 0.41604 0.91761
 N27 N 0.42922 0.84995 0.43490
 N28 N 0.43743 0.84926 0.42535
 C29 C 0.44590 0.85903 0.42643
 C30 C 0.44292 0.86622 0.43732
 C31 C 0.43223 0.86005 0.44241
 H32 H 0.45372 0.86063 0.41983
 H33 H 0.42688 0.86268 0.45090
 Cu34 Cu 0.43606 0.83554 0.41263
 Cu35 Cu 0.41511 0.83780 0.43692
 Cu36 Cu 0.41260 0.81340 0.41420
 N37 N 0.43471 0.82182 0.39992
 N38 N 0.42552 0.81317 0.40062
 C39 C 0.42674 0.80478 0.39082
 C40 C 0.43727 0.80835 0.38349
 C41 C 0.44206 0.81924 0.38959
 H42 H 0.42045 0.79665 0.38923
 H43 H 0.45027 0.82490 0.38674
 N44 N 0.40049 0.81535 0.42866
 N45 N 0.40147 0.82462 0.43729
 C46 C 0.39180 0.82348 0.44578
 C47 C 0.38431 0.81298 0.44238
 C48 C 0.39016 0.80806 0.43145
 H49 H 0.39035 0.82982 0.45389
 H50 H 0.38706 0.79987 0.42584
 H51 H 0.42386 0.82242 0.42776
 H52 H 0.41339 0.83299 0.41771
 N53 N 0.92682 0.90065 0.81531
 N54 N 0.93579 0.90138 0.82415
 C55 C 0.94414 0.89158 0.82253
 C56 C 0.94027 0.88424 0.81209
 C57 C 0.92922 0.89035 0.80774
 H58 H 0.95243 0.88995 0.82852
 H59 H 0.92327 0.88749 0.79973
 Cu60 Cu 0.93539 0.91480 0.83724
 Cu61 Cu 0.91264 0.91316 0.81435
 Cu62 Cu 0.91362 0.93827 0.83648
 N63 N 0.93494 0.92797 0.85065
 N64 N 0.92597 0.93685 0.85039
 C65 C 0.92729 0.94468 0.86057
 C66 C 0.93778 0.94063 0.86773
 C67 C 0.94241 0.92992 0.86105
 H68 H 0.92116 0.95290 0.86235
 H69 H 0.95052 0.92394 0.86359
 N70 N 0.90000 0.93651 0.82360
 N71 N 0.89940 0.92703 0.81515
 C72 C 0.88881 0.92875 0.80786
 C73 C 0.88244 0.93981 0.81202
 C74 C 0.88990 0.94438 0.82200
 H75 H 0.88591 0.92241 0.80014
 H76 H 0.88818 0.95292 0.82770
 H77 H 0.92296 0.92772 0.82207
 H78 H 0.91270 0.91847 0.83348
 N79 N 0.42670 -0.09795 0.31447
 N80 N 0.43607 -0.09791 0.32291
 C81 C 0.44387 -0.10804 0.32047
 C82 C 0.43912 -0.11476 0.30992
 C83 C 0.42822 -0.10798 0.30643
 H84 H 0.45235 -0.11033 0.32597
 H85 H 0.42184 -0.11003 0.29853
 Cu86 Cu 0.43696 -0.08455 0.33625
 Cu87 Cu 0.41321 -0.08505 0.31409
 Cu88 Cu 0.41546 -0.06022 0.33603
 N89 N 0.43616 -0.07179 0.35020
 N90 N 0.42756 -0.06252 0.34992
 C91 C 0.42895 -0.05492 0.36025
 C92 C 0.43899 -0.05955 0.36760
 C93 C 0.44340 -0.07032 0.36088
 H94 H 0.42319 -0.04644 0.36207
 H95 H 0.45128 -0.07656 0.36353
 N96 N 0.40152 -0.06150 0.32349
 N97 N 0.40053 -0.07103 0.31518
 C98 C 0.38992 -0.06921 0.30804
 C99 C 0.38389 -0.05800 0.31211
 C100 C 0.39155 -0.05340 0.32195
 H101 H 0.38680 -0.07561 0.30047
 H102 H 0.39005 -0.04475 0.32756
 H103 H 0.42451 -0.07095 0.32152
 H104 H 0.41430 -0.07995 0.33329
 N105 N 0.81370 0.32384 0.34707
 N106 N 0.82224 0.31449 0.34722
 C107 C 0.81996 0.30687 0.35751
 C108 C 0.80943 0.31177 0.36414
 C109 C 0.80577 0.32252 0.35713
 H110 H 0.82556 0.29844 0.36002
 H111 H 0.79784 0.32892 0.35909
 Cu112 Cu 0.83537 0.31335 0.33375
 Cu113 Cu 0.81321 0.33729 0.33411
 Cu114 Cu 0.83649 0.33622 0.31074
 N115 N 0.84894 0.31348 0.32065
 N116 N 0.84896 0.32246 0.31171
 C117 C 0.85900 0.32072 0.30388
 C118 C 0.86588 0.31011 0.30803
 C119 C 0.85916 0.30565 0.31872
 H120 H 0.86105 0.32676 0.29568
 H121 H 0.86160 0.29745 0.32469
 N122 N 0.82318 0.34952 0.31119
 N123 N 0.81430 0.35006 0.32016
 C124 C 0.80688 0.36052 0.31807
 C125 C 0.81137 0.36689 0.30725
 C126 C 0.82168 0.35958 0.30315
 H127 H 0.79894 0.36338 0.32409
 H128 H 0.82769 0.36143 0.29491
 H129 H 0.82168 0.32650 0.31992
 H130 H 0.83250 0.33645 0.33030
 N131 N -0.17689 0.84878 0.81259
 N132 N -0.18634 0.84878 0.82094
 C133 C -0.19405 0.85898 0.81844
 C134 C -0.18912 0.86577 0.80795
 C135 C -0.17820 0.85889 0.80460
 H136 H -0.20256 0.86126 0.82390
 H137 H -0.17166 0.86090 0.79681
 Cu138 Cu -0.18746 0.83535 0.83427
 Cu139 Cu -0.16354 0.83568 0.81224
 Cu140 Cu -0.16466 0.81233 0.83579
 N141 N -0.18723 0.82238 0.84810
 N142 N -0.17826 0.81346 0.84830
 C143 C -0.17988 0.80580 0.85856
 C144 C -0.19039 0.81005 0.86540
 C145 C -0.19493 0.82060 0.85842
 H146 H -0.17381 0.79765 0.86082
 H147 H -0.20308 0.82661 0.86078
 N148 N -0.15151 0.81261 0.82242
 N149 N -0.15090 0.82159 0.81346
 C150 C -0.14055 0.81933 0.80604
 C151 C -0.13433 0.80840 0.81062
 C152 C -0.14163 0.80442 0.82098
 H153 H -0.13765 0.82531 0.79803
 H154 H -0.13988 0.79614 0.82706
 H155 H -0.17423 0.82140 0.82076
 H156 H -0.16451 0.83197 0.83161
 N157 N 0.93805 0.34776 0.42707
 N158 N 0.92959 0.34737 0.43639
 C159 C 0.93163 0.35756 0.44424
 C160 C 0.94191 0.36472 0.43942
 C161 C 0.94563 0.35806 0.42852
 H162 H 0.92600 0.35963 0.45270
 H163 H 0.95343 0.36032 0.42211
 Cu164 Cu 0.91683 0.33348 0.43694
 Cu165 Cu 0.93911 0.33507 0.41359
 Cu166 Cu 0.91639 0.31103 0.41323
 N167 N 0.90355 0.32016 0.43600
 N168 N 0.90362 0.31151 0.42676
 C169 C 0.89363 0.30351 0.42825
 C170 C 0.88675 0.30726 0.43898
 C171 C 0.89337 0.31790 0.44370
 H172 H 0.89163 0.29548 0.42195
 H173 H 0.89094 0.32361 0.45204
 N174 N 0.93015 0.31225 0.40037
 N175 N 0.93882 0.32148 0.40063
 C176 C 0.94685 0.31999 0.39067
 C177 C 0.94307 0.30931 0.38368
 C178 C 0.93243 0.30461 0.39015
 H179 H 0.95490 0.32622 0.38870
 H180 H 0.92668 0.29633 0.38756
 H181 H 0.91970 0.33055 0.41392
 H182 H 0.93059 0.31991 0.42360
 N183 N 0.43520 0.42904 0.84899
 N184 N 0.42589 0.43754 0.84810
 C185 C 0.42699 0.44611 0.85777
 C186 C 0.43759 0.44283 0.86515
 C187 C 0.44253 0.43190 0.85922
 H188 H 0.42058 0.45417 0.85927
 H189 H 0.45084 0.42638 0.86209
 Cu190 Cu 0.41328 0.43661 0.83434
 Cu191 Cu 0.43716 0.41487 0.83684
 Cu192 Cu 0.41452 0.41261 0.81259
 N193 N 0.40048 0.43503 0.82083
 N194 N 0.40103 0.42566 0.81234
 C195 C 0.39112 0.42682 0.80414
 C196 C 0.38389 0.43752 0.80764
 C197 C 0.39018 0.44246 0.81831
 H198 H 0.38937 0.42034 0.79621
 H199 H 0.38746 0.45083 0.82388
 N200 N 0.42888 0.40034 0.81445
 N201 N 0.43751 0.40120 0.82366
 C202 C 0.44598 0.39145 0.82238
 C203 C 0.44252 0.38401 0.81186
 C204 C 0.43162 0.39000 0.80709
 H205 H 0.45410 0.38991 0.82863
 H206 H 0.42600 0.38704 0.79890
 H207 H 0.42824 0.42386 0.82150
 H208 H 0.41797 0.41364 0.83210
 N209 N 0.81415 0.90180 0.92829
 N210 N 0.82321 0.90234 0.93706
 C211 C 0.82158 0.89259 0.94546
 C212 C 0.81094 0.88549 0.94180
 C213 C 0.80646 0.89168 0.93084
 H214 H 0.82768 0.89085 0.95366
 H215 H 0.79828 0.88903 0.92507
 Cu216 Cu 0.83639 0.91555 0.93648
 Cu217 Cu 0.81305 0.91423 0.91415
 Cu218 Cu 0.83655 0.93790 0.91341
 N219 N 0.84959 0.92877 0.93590
 N220 N 0.84943 0.93749 0.92673
 C221 C 0.85948 0.94543 0.92811
 C222 C 0.86646 0.94152 0.93871
 C223 C 0.85986 0.93088 0.94346
 H224 H 0.86150 0.95343 0.92176
 H225 H 0.86238 0.92505 0.95171
 N226 N 0.82280 0.93682 0.90071
 N227 N 0.81385 0.92783 0.90075
 C228 C 0.80614 0.92975 0.89051
 C229 C 0.81054 0.94044 0.88375
 C230 C 0.82106 0.94464 0.89059
 H231 H 0.79803 0.92374 0.88809
 H232 H 0.82702 0.95288 0.88843
 H233 H 0.83228 0.91824 0.91361
 H234 H 0.82201 0.92892 0.92373
 N235 N 0.31358 0.84787 0.32371
 N236 N 0.32227 0.84828 0.31457
 C237 C 0.31988 0.85861 0.30701
 C238 C 0.30910 0.86499 0.31170
 C239 C 0.30543 0.85781 0.32230
 H240 H 0.32555 0.86126 0.29873
 H241 H 0.29738 0.85958 0.32857
 Cu242 Cu 0.33572 0.83510 0.31355
 Cu243 Cu 0.31320 0.83471 0.33697
 Cu244 Cu 0.33716 0.81183 0.33611
 N245 N 0.34960 0.82230 0.31377
 N246 N 0.34976 0.81324 0.32262
 C247 C 0.35999 0.80561 0.32090
 C248 C 0.36684 0.81002 0.31042
 C249 C 0.35991 0.82067 0.30606
 H250 H 0.36218 0.79740 0.32691
 H251 H 0.36222 0.82680 0.29796
 N252 N 0.32366 0.81185 0.34912
 N253 N 0.31450 0.82060 0.34957
 C254 C 0.30696 0.81816 0.35980
 C255 C 0.31168 0.80735 0.36610
 C256 C 0.32223 0.80361 0.35900
 H257 H 0.29878 0.82393 0.36254
 H258 H 0.32842 0.79545 0.36084
 H259 H 0.33258 0.83139 0.33643
 H260 H 0.32221 0.82073 0.32631
 N261 N 0.81369 0.40155 0.42624
 N262 N 0.82212 0.40159 0.43563
 C263 C 0.81981 0.39137 0.44337
 C264 C 0.80935 0.38459 0.43855
 C265 C 0.80578 0.39143 0.42769
 H266 H 0.82534 0.38902 0.45183
 H267 H 0.79787 0.38937 0.42132
 Cu268 Cu 0.83531 0.41503 0.43667
 Cu269 Cu 0.81320 0.41457 0.41280
 Cu270 Cu 0.83494 0.43949 0.41530
 N271 N 0.84914 0.42786 0.43594
 N272 N 0.84880 0.43719 0.42738
 C273 C 0.85902 0.44488 0.42886
 C274 C 0.86636 0.44025 0.43893
 C275 C 0.85975 0.42938 0.44324
 H276 H 0.86074 0.45340 0.42312
 H277 H 0.86240 0.42311 0.45113
 N278 N 0.82248 0.43826 0.40132
 N279 N 0.81421 0.42872 0.40021
 C280 C 0.80713 0.43065 0.38954
 C281 C 0.81126 0.44191 0.38360
 C282 C 0.82101 0.44643 0.39139
 H283 H 0.79960 0.42428 0.38629
 H284 H 0.82661 0.45509 0.39000
 H285 H 0.83232 0.41971 0.41397
 H286 H 0.82052 0.42857 0.42426
 N287 N 0.92523 0.84923 -0.06258
 N288 N 0.93454 0.84973 -0.07104
 C289 C 0.94205 0.85996 -0.06843
 C290 C 0.93723 0.86623 -0.05771
 C291 C 0.92651 0.85910 -0.05427
 H292 H 0.95038 0.86263 -0.07399
 H293 H 0.92013 0.86086 -0.04629
 Cu294 Cu 0.93604 0.83706 -0.08471
 Cu295 Cu 0.91212 0.83588 -0.06304
 Cu296 Cu 0.91393 0.81355 -0.08776
 N297 N 0.93665 0.82471 -0.09871
 N298 N 0.92802 0.81556 -0.09988
 C299 C 0.93070 0.80848 -0.11037
 C300 C 0.94163 0.81344 -0.11615
 C301 C 0.94511 0.82377 -0.10843
 H302 H 0.92504 0.80035 -0.11353
 H303 H 0.95320 0.83013 -0.10976
 N304 N 0.90040 0.81317 -0.07452
 N305 N 0.89975 0.82168 -0.06513
 C306 C 0.88954 0.81894 -0.05771
 C307 C 0.88341 0.80815 -0.06263
 C308 C 0.89061 0.80477 -0.07332
 H309 H 0.88678 0.82447 -0.04937
 H310 H 0.88891 0.79675 -0.07973
 H311 H 0.92300 0.82196 -0.07229
 H312 H 0.91315 0.83284 -0.08269
 N313 N 0.31463 0.34941 0.82149
 N314 N 0.32390 0.34854 0.81300
 C315 C 0.32284 0.35836 0.80456
 C316 C 0.31230 0.36582 0.80793
 C317 C 0.30735 0.35978 0.81875
 H318 H 0.32923 0.35994 0.79655
 H319 H 0.29913 0.36273 0.82433
 Cu320 Cu 0.33649 0.33471 0.81409
 Cu321 Cu 0.31273 0.33714 0.83559
 Cu322 Cu 0.33531 0.31253 0.83759
 N323 N 0.34918 0.32098 0.81519
 N324 N 0.34867 0.31233 0.82443
 C325 C 0.35855 0.30405 0.82311
 C326 C 0.36570 0.30770 0.81247
 C327 C 0.35942 0.31851 0.80771
 H328 H 0.36033 0.29597 0.82945
 H329 H 0.36214 0.32426 0.79948
 N330 N 0.32105 0.31444 0.84993
 N331 N 0.31247 0.32379 0.84914
 C332 C 0.30403 0.32249 0.85884
 C333 C 0.30741 0.31181 0.86616
 C334 C 0.31828 0.30697 0.86017
 H335 H 0.29596 0.32884 0.86040
 H336 H 0.32381 0.29863 0.86304
 H337 H 0.33187 0.33218 0.83691
 H338 H 0.32156 0.32172 0.82665
 N339 N 0.15100 0.57239 0.56230
 N340 N 0.15082 0.56319 0.57099
 C341 C 0.14056 0.55555 0.56881
 C342 C 0.13398 0.56032 0.55818
 C343 C 0.14099 0.57098 0.55434
 H344 H 0.13797 0.54728 0.57461
 H345 H 0.13903 0.57726 0.54629
 Cu346 Cu 0.16406 0.56273 0.58427
 Cu347 Cu 0.16391 0.58584 0.56195
 Cu348 Cu 0.18733 0.58534 0.58560
 N349 N 0.17724 0.56228 0.59756
 N350 N 0.18627 0.57113 0.59810
 C351 C 0.19393 0.56861 0.60823
 C352 C 0.18948 0.55759 0.61445
 C353 C 0.17886 0.55389 0.60732
 H354 H 0.20210 0.57444 0.61090
 H355 H 0.17275 0.54565 0.60907
 N356 N 0.18654 0.59879 0.57195
 N357 N 0.17762 0.59871 0.56298
 C358 C 0.17935 0.60882 0.55509
 C359 C 0.18986 0.61581 0.55918
 C360 C 0.19424 0.60911 0.56993
 H361 H 0.17335 0.61088 0.54692
 H362 H 0.20235 0.61160 0.57587
 H363 H 0.17851 0.57558 0.57102
 H364 H 0.16814 0.58576 0.58153
 N365 N 0.59879 0.67977 0.06434
 N366 N 0.59789 0.68835 0.07359
 C367 C 0.60759 0.69686 0.07242
 C368 C 0.61497 0.69341 0.06186
 C369 C 0.60902 0.68249 0.05700
 H370 H 0.60914 0.70494 0.07879
 H371 H 0.61190 0.67684 0.04878
 Cu372 Cu 0.58418 0.68739 0.08625
 Cu373 Cu 0.58678 0.66557 0.06250
 Cu374 Cu 0.56226 0.66358 0.08483
 N375 N 0.57034 0.68612 0.09873
 N376 N 0.56179 0.67683 0.09810
 C377 C 0.55337 0.67820 0.10780
 C378 C 0.55680 0.68895 0.11497
 C379 C 0.56765 0.69371 0.10888
 H380 H 0.54533 0.67185 0.10943
 H381 H 0.57323 0.70204 0.11162
 N382 N 0.56440 0.65109 0.07069
 N383 N 0.57374 0.65189 0.06219
 C384 C 0.57268 0.64204 0.05383
 C385 C 0.56216 0.63462 0.05718
 C386 C 0.55715 0.64070 0.06795
 H387 H 0.57907 0.64045 0.04582
 H388 H 0.54888 0.63775 0.07345
 H389 H 0.57146 0.67474 0.07121
 H390 H 0.58178 0.66443 0.08171
 N391 N 0.67679 0.18717 0.65013
 N392 N 0.68586 0.17838 0.64986
 C393 C 0.69336 0.18054 0.63951
 C394 C 0.68868 0.19128 0.63296
 C395 C 0.67817 0.19519 0.64008
 H396 H 0.70150 0.17465 0.63688
 H397 H 0.67193 0.20330 0.63814
 Cu398 Cu 0.68642 0.16503 0.66311
 Cu399 Cu 0.66355 0.18749 0.66318
 Cu400 Cu 0.66419 0.16361 0.68665
 N401 N 0.68696 0.15162 0.67626
 N402 N 0.67829 0.15103 0.68542
 C403 C 0.68092 0.14081 0.69305
 C404 C 0.69181 0.13461 0.68839
 C405 C 0.69533 0.14183 0.67774
 H406 H 0.67526 0.13805 0.70130
 H407 H 0.70345 0.14015 0.67153
 N408 N 0.65083 0.17738 0.68597
 N409 N 0.65089 0.18642 0.67702
 C410 C 0.64088 0.19435 0.67879
 C411 C 0.63394 0.19020 0.68931
 C412 C 0.64060 0.17940 0.69371
 H413 H 0.63883 0.20263 0.67282
 H414 H 0.63809 0.17339 0.70183
 H415 H 0.67380 0.17829 0.67775
 H416 H 0.66363 0.16776 0.66743
 N417 N 1.09987 0.06989 0.18634
 N418 N 1.09920 0.06100 0.17739
 C419 C 1.10908 0.05278 0.17873
 C420 C 1.11638 0.05671 0.18911
 C421 C 1.11021 0.06763 0.19372
 H422 H 1.11076 0.04452 0.17263
 H423 H 1.11302 0.07357 0.20177
 Cu424 Cu 1.08559 0.06127 0.16483
 Cu425 Cu 1.08734 0.08376 0.18753
 Cu426 Cu 1.06331 0.08455 0.16423
 N427 N 1.07258 0.06165 0.15169
 N428 N 1.06382 0.07077 0.15129
 C429 C 1.05621 0.06874 0.14100
 C430 C 1.06054 0.05776 0.13463
 C431 C 1.07090 0.05357 0.14178
 H432 H 1.04824 0.07485 0.13833
 H433 H 1.07680 0.04520 0.13996
 N434 N 1.06473 0.09741 0.17826
 N435 N 1.07383 0.09697 0.18706
 C436 C 1.07232 0.10689 0.19523
 C437 C 1.06179 0.11405 0.19145
 C438 C 1.05719 0.10772 0.18064
 H439 H 1.07847 0.10871 0.20336
 H440 H 1.04901 0.11043 0.17487
 H441 H 1.07212 0.07437 0.17871
 H442 H 1.08263 0.08432 0.16813
 N443 N 0.07269 0.15044 1.06184
 N444 N 0.06368 0.15024 1.07063
 C445 C 0.05598 0.14001 1.06847
 C446 C 0.06046 0.13348 1.05771
 C447 C 0.07106 0.14047 1.05379
 H448 H 0.04783 0.13744 1.07434
 H449 H 0.07718 0.13852 1.04566
 Cu450 Cu 0.06345 0.16337 1.08400
 Cu451 Cu 0.08621 0.16324 1.06159
 Cu452 Cu 0.08619 0.18647 1.08563
 N453 N 0.06323 0.17638 1.09744
 N454 N 0.07210 0.18537 1.09815
 C455 C 0.06969 0.19288 1.10847
 C456 C 0.05872 0.18832 1.11457
 C457 C 0.05494 0.17784 1.10721
 H458 H 0.07555 0.20098 1.11133
 H459 H 0.04674 0.17170 1.10882
 N460 N 0.09946 0.18567 1.07190
 N461 N 0.09918 0.17683 1.06278
 C462 C 0.10926 0.17845 1.05495
 C463 C 0.11645 0.18875 1.05926
 C464 C 0.10990 0.19320 1.07003
 H465 H 0.11120 0.17253 1.04664
 H466 H 0.11263 0.20117 1.07614
 H467 H 0.08632 0.16718 1.08125
 H468 H 0.07633 0.17797 1.07096
 N469 N 0.15098 0.68875 0.67610
 N470 N 0.15038 0.68006 0.68530
 C471 C 0.14022 0.68267 0.69286
 C472 C 0.13407 0.69361 0.68818
 C473 C 0.14123 0.69717 0.67750
 H474 H 0.13747 0.67697 0.70112
 H475 H 0.13956 0.70531 0.67122
 Cu476 Cu 0.16286 0.66608 0.68636
 Cu477 Cu 0.16435 0.68846 0.66293
 Cu478 Cu 0.18683 0.66388 0.66492
 N479 N 0.17567 0.65241 0.68745
 N480 N 0.18499 0.65163 0.67900
 C481 C 0.19241 0.64138 0.68178
 C482 C 0.18754 0.63532 0.69261
 C483 C 0.17688 0.64263 0.69594
 H484 H 0.20068 0.63853 0.67623
 H485 H 0.17053 0.64102 0.70398
 N486 N 0.18715 0.67714 0.65135
 N487 N 0.17861 0.68650 0.65053
 C488 C 0.18138 0.69388 0.64021
 C489 C 0.19221 0.68892 0.63420
 C490 C 0.19556 0.67830 0.64160
 H491 H 0.17586 0.70221 0.63728
 H492 H 0.20356 0.67187 0.64005
 H493 H 0.16764 0.66878 0.66357
 H494 H 0.17787 0.67916 0.67403
 N495 N 1.17603 0.15096 0.18763
 N496 N 1.18544 0.15055 0.17925
 C497 C 1.19298 0.14031 0.18194
 C498 C 1.18806 0.13394 0.19260
 C499 C 1.17727 0.14104 0.19591
 H500 H 1.20141 0.13771 0.17650
 H501 H 1.17081 0.13922 0.20382
 Cu502 Cu 1.18694 0.16348 0.16567
 Cu503 Cu 1.16283 0.16429 0.18722
 Cu504 Cu 1.16474 0.18694 0.16281
 N505 N 1.18760 0.17613 0.15175
 N506 N 1.17888 0.18524 0.15075
 C507 C 1.18148 0.19262 0.14045
 C508 C 1.19247 0.18796 0.13456
 C509 C 1.19607 0.17744 0.14205
 H510 H 1.17573 0.20078 0.13749
 H511 H 1.20426 0.17122 0.14060
 N512 N 1.15110 0.18712 0.17591
 N513 N 1.15036 0.17850 0.18521
 C514 C 1.14002 0.18115 0.19251
 C515 C 1.13390 0.19199 0.18757
 C516 C 1.14126 0.19548 0.17704
 H517 H 1.13715 0.17553 0.20077
 H518 H 1.13962 0.20355 0.17065
 H519 H 1.16402 0.16756 0.16768
 H520 H 1.17376 0.17829 0.17828
 N521 N 0.65167 1.06434 0.57021
 N522 N 0.65225 1.07398 0.56202
 C523 C 0.64217 1.07327 0.55397
 C524 C 0.63488 1.06255 0.55725
 C525 C 0.64125 1.05716 0.56766
 H526 H 0.64044 1.07993 0.54616
 H527 H 0.63868 1.04855 0.57295
 Cu528 Cu 0.66637 1.08627 0.56233
 Cu529 Cu 0.66482 1.06133 0.58308
 Cu530 Cu 0.68761 1.08530 0.58674
 N531 N 0.67993 1.09905 0.56404
 N532 N 0.68811 1.09866 0.57362
 C533 C 0.69635 1.10859 0.57251
 C534 C 0.69317 1.11568 0.56166
 C535 C 0.68267 1.10929 0.55654
 H536 H 0.70413 1.11040 0.57911
 H537 H 0.67735 1.11190 0.54802
 N538 N 0.68561 1.07092 0.59895
 N539 N 0.67699 1.06173 0.59752
 C540 C 0.67809 1.05327 0.60730
 C541 C 0.68795 1.05728 0.61527
 C542 C 0.69247 1.06853 0.60964
 H543 H 0.67222 1.04476 0.60844
 H544 H 0.70018 1.07457 0.61306
 H545 H 0.66827 1.08082 0.58497
 H546 H 0.67995 1.07163 0.57488
 N547 N 0.57098 0.56561 0.14962
 N548 N 0.56242 0.57488 0.15063
 C549 C 0.55394 0.57381 0.14092
 C550 C 0.55734 0.56329 0.13338
 C551 C 0.56823 0.55834 0.13927
 H552 H 0.54589 0.58021 0.13948
 H553 H 0.57385 0.55012 0.13624
 Cu554 Cu 0.56345 0.58747 0.16449
 Cu555 Cu 0.58514 0.56369 0.16175
 Cu556 Cu 0.58697 0.58624 0.18638
 N557 N 0.56448 0.60016 0.17825
 N558 N 0.57374 0.59960 0.18678
 C559 C 0.57236 0.60940 0.19516
 C560 C 0.56164 0.61657 0.19173
 C561 C 0.55690 0.61036 0.18091
 H562 H 0.57872 0.61111 0.20316
 H563 H 0.54859 0.61306 0.17535
 N564 N 0.59941 0.57199 0.18432
 N565 N 0.59873 0.56341 0.17497
 C566 C 0.60854 0.55501 0.17618
 C567 C 0.61579 0.55842 0.18681
 C568 C 0.60967 0.56926 0.19170
 H569 H 0.61021 0.54695 0.16982
 H570 H 0.61249 0.57483 0.20000
 H571 H 0.57618 0.57236 0.17719
 H572 H 0.58627 0.58296 0.16683
 N573 N 0.65187 0.68072 0.18584
 N574 N 0.65261 0.68923 0.17650
 C575 C 0.64288 0.69772 0.17767
 C576 C 0.63564 0.69433 0.18835
 C577 C 0.64170 0.68347 0.19326
 H578 H 0.64121 0.70573 0.17121
 H579 H 0.63895 0.67789 0.20158
 Cu580 Cu 0.66622 0.68803 0.16376
 Cu581 Cu 0.66397 0.66656 0.18779
 Cu582 Cu 0.68821 0.66445 0.16508
 N583 N 0.67982 0.68682 0.15102
 N584 N 0.68839 0.67754 0.15167
 C585 C 0.69661 0.67869 0.14181
 C586 C 0.69304 0.68928 0.13447
 C587 C 0.68231 0.69421 0.14066
 H588 H 0.70460 0.67226 0.14015
 H589 H 0.67665 0.70247 0.13780
 N590 N 0.68635 0.65217 0.17938
 N591 N 0.67716 0.65298 0.18803
 C592 C 0.67849 0.64323 0.19649
 C593 C 0.68902 0.63589 0.19300
 C594 C 0.69376 0.64188 0.18209
 H595 H 0.67228 0.64166 0.20465
 H596 H 0.70195 0.63896 0.17646
 H597 H 0.67913 0.67556 0.17881
 H598 H 0.66872 0.66513 0.16859
 N599 N 0.15039 0.07167 1.06475
 N600 N 0.15137 0.06297 1.07391
 C601 C 0.14182 0.05433 1.07263
 C602 C 0.13442 0.05778 1.06208
 C603 C 0.14022 0.06886 1.05735
 H604 H 0.14038 0.04613 1.07891
 H605 H 0.13729 0.07456 1.04915
 Cu606 Cu 0.16491 0.06412 1.08672
 Cu607 Cu 0.16237 0.08600 1.06293
 Cu608 Cu 0.18824 0.08611 1.08378
 N609 N 0.17873 0.06523 1.09923
 N610 N 0.18774 0.07400 1.09804
 C611 C 0.19620 0.07268 1.10769
 C612 C 0.19234 0.06250 1.11543
 C613 C 0.18116 0.05801 1.10974
 H614 H 0.20464 0.07861 1.10879
 H615 H 0.17527 0.05005 1.11291
 N616 N 0.18554 0.09947 1.07063
 N617 N 0.17567 0.09952 1.06272
 C618 C 0.17659 0.10987 1.05491
 C619 C 0.18756 0.11672 1.05808
 C620 C 0.19294 0.10980 1.06813
 H621 H 0.16980 0.11218 1.04743
 H622 H 0.20163 0.11205 1.07329
 H623 H 0.17720 0.07582 1.07055
 H624 H 0.16854 0.08679 1.08186
 N625 N 0.60089 0.18741 0.57209
 N626 N 0.60133 0.17839 0.56325
 C627 C 0.61164 0.18048 0.55569
 C628 C 0.61801 0.19142 0.56009
 C629 C 0.61081 0.19552 0.57050
 H630 H 0.61438 0.17443 0.54769
 H631 H 0.61260 0.20382 0.57652
 Cu632 Cu 0.58831 0.16483 0.56290
 Cu633 Cu 0.58777 0.18790 0.58531
 Cu634 Cu 0.56455 0.16393 0.58495
 N635 N 0.57512 0.15150 0.56251
 N636 N 0.56587 0.15113 0.57109
 C637 C 0.55821 0.14096 0.56854
 C638 C 0.56290 0.13455 0.55778
 C639 C 0.57365 0.14160 0.55426
 H640 H 0.54988 0.13840 0.57417
 H641 H 0.57992 0.13973 0.54623
 N642 N 0.56504 0.17784 0.59809
 N643 N 0.57388 0.18695 0.59798
 C644 C 0.57197 0.19493 0.60796
 C645 C 0.56146 0.19073 0.61487
 C646 C 0.55724 0.17986 0.60827
 H647 H 0.57784 0.20325 0.61003
 H648 H 0.54920 0.17377 0.61079
 H649 H 0.58373 0.16816 0.58565
 H650 H 0.57352 0.17840 0.57501
 N651 N 0.09744 0.57274 0.68796
 N652 N 0.09764 0.56349 0.67931
 C653 C 0.10796 0.55591 0.68150
 C654 C 0.11453 0.56071 0.69209
 C655 C 0.10749 0.57139 0.69588
 H656 H 0.11049 0.54757 0.67580
 H657 H 0.10940 0.57771 0.70389
 Cu658 Cu 0.08423 0.56234 0.66621
 Cu659 Cu 0.08435 0.58604 0.68864
 Cu660 Cu 0.06093 0.58481 0.66540
 N661 N 0.07116 0.56245 0.65267
 N662 N 0.06208 0.57124 0.65280
 C663 C 0.05426 0.56949 0.64277
 C664 C 0.05858 0.55908 0.63574
 C665 C 0.06936 0.55473 0.64235
 H666 H 0.04595 0.57539 0.64082
 H667 H 0.07546 0.54669 0.63979
 N668 N 0.06125 0.59793 0.67882
 N669 N 0.07024 0.59860 0.68766
 C670 C 0.06799 0.60901 0.69512
 C671 C 0.05704 0.61516 0.69067
 C672 C 0.05304 0.60779 0.68037
 H673 H 0.07397 0.61197 0.70305
 H674 H 0.04475 0.60947 0.67441
 H675 H 0.07033 0.57510 0.68014
 H676 H 0.08045 0.58535 0.66931
 N677 N 0.65039 0.56319 0.07323
 N678 N 0.64987 0.57214 0.06430
 C679 C 0.63954 0.56990 0.05681
 C680 C 0.63326 0.55896 0.06137
 C681 C 0.64053 0.55501 0.07178
 H682 H 0.63674 0.57586 0.04875
 H683 H 0.63882 0.54676 0.07792
 Cu684 Cu 0.66282 0.58578 0.06371
 Cu685 Cu 0.66349 0.56289 0.08643
 Cu686 Cu 0.68647 0.58702 0.08593
 N687 N 0.67588 0.59927 0.06337
 N688 N 0.68507 0.59975 0.07201
 C689 C 0.69264 0.61000 0.06948
 C690 C 0.68798 0.61635 0.05867
 C691 C 0.67732 0.60918 0.05510
 H692 H 0.70091 0.61262 0.07515
 H693 H 0.67106 0.61099 0.04704
 N694 N 0.68611 0.57316 0.09915
 N695 N 0.67733 0.56399 0.09908
 C696 C 0.67929 0.55604 0.10909
 C697 C 0.68976 0.56031 0.11599
 C698 C 0.69392 0.57121 0.10934
 H699 H 0.67349 0.54766 0.11117
 H700 H 0.70192 0.57734 0.11184
 H701 H 0.66730 0.58268 0.08650
 H702 H 0.67767 0.57243 0.07602
 N703 N 0.07267 0.68597 0.59887
 N704 N 0.06385 0.67692 0.59894
 C705 C 0.05620 0.67881 0.60929
 C706 C 0.06063 0.68959 0.61598
 C707 C 0.07101 0.69382 0.60894
 H708 H 0.04815 0.67275 0.61183
 H709 H 0.07696 0.70210 0.61092
 Cu710 Cu 0.06372 0.66380 0.58525
 Cu711 Cu 0.08614 0.68707 0.58624
 Cu712 Cu 0.08725 0.66371 0.56274
 N713 N 0.06475 0.65034 0.57196
 N714 N 0.07394 0.65053 0.56331
 C715 C 0.07250 0.64047 0.55529
 C716 C 0.06183 0.63343 0.55900
 C717 C 0.05714 0.64004 0.56966
 H718 H 0.07875 0.63854 0.54726
 H719 H 0.04883 0.63753 0.57533
 N720 N 0.09985 0.67791 0.56385
 N721 N 0.09921 0.68685 0.57281
 C722 C 0.10901 0.69512 0.57136
 C723 C 0.11633 0.69125 0.56099
 C724 C 0.11018 0.68028 0.55640
 H725 H 0.11070 0.70336 0.57747
 H726 H 0.11307 0.67438 0.54836
 H727 H 0.07650 0.67778 0.57133
 H728 H 0.08657 0.66737 0.58204
 N729 N 0.56902 1.06395 0.65228
 N730 N 0.56070 1.07344 0.65299
 C731 C 0.55226 1.07233 0.64326
 C732 C 0.55543 1.06150 0.63602
 C733 C 0.56617 1.05646 0.64214
 H734 H 0.54440 1.07894 0.64164
 H735 H 0.57166 1.04803 0.63947
 Cu736 Cu 0.56185 1.08634 0.66653
 Cu737 Cu 0.58312 1.06202 0.66436
 Cu738 Cu 0.58530 1.08485 0.68858
 N739 N 0.56295 1.09884 0.68044
 N740 N 0.57227 1.09828 0.68890
 C741 C 0.57097 1.10805 0.69730
 C742 C 0.56018 1.11519 0.69403
 C743 C 0.55534 1.10897 0.68323
 H744 H 0.57739 1.10965 0.70527
 H745 H 0.54699 1.11161 0.67770
 N746 N 0.59756 1.07052 0.68667
 N747 N 0.59670 1.06178 0.67750
 C748 C 0.60640 1.05330 0.67878
 C749 C 0.61377 1.05685 0.68927
 C750 C 0.60783 1.06782 0.69402
 H751 H 0.60793 1.04508 0.67257
 H752 H 0.61080 1.07352 0.70219
 H753 H 0.57412 1.07111 0.67950
 H754 H 0.58454 1.08133 0.66903
 N755 N 0.43677 0.34894 0.92594
 N756 N 0.42830 0.34912 0.93529
 C757 C 0.43093 0.35924 0.94307
 C758 C 0.44160 0.36579 0.93827
 C759 C 0.44494 0.35885 0.92736
 H760 H 0.42542 0.36166 0.95152
 H761 H 0.45283 0.36067 0.92091
 Cu762 Cu 0.41468 0.33601 0.93610
 Cu763 Cu 0.43705 0.33593 0.91249
 Cu764 Cu 0.41369 0.31254 0.91370
 N765 N 0.40130 0.32258 0.93631
 N766 N 0.40132 0.31349 0.92751
 C767 C 0.39141 0.30551 0.92942
 C768 C 0.38453 0.30968 0.93998
 C769 C 0.39116 0.32059 0.94419
 H770 H 0.38942 0.29721 0.92349
 H771 H 0.38871 0.32667 0.95227
 N772 N 0.42689 0.31297 0.90035
 N773 N 0.43580 0.32195 0.89973
 C774 C 0.44319 0.31972 0.88933
 C775 C 0.43866 0.30879 0.88309
 C776 C 0.42833 0.30480 0.89042
 H777 H 0.45119 0.32568 0.88645
 H778 H 0.42230 0.29652 0.88870
 H779 H 0.41773 0.33219 0.91318
 H780 H 0.42841 0.32186 0.92339
 N781 N 0.93456 0.42795 0.35145
 N782 N 0.92511 0.43632 0.35075
 C783 C 0.92611 0.44471 0.36061
 C784 C 0.93683 0.44149 0.36794
 C785 C 0.94191 0.43075 0.36170
 H786 H 0.91953 0.45259 0.36226
 H787 H 0.95028 0.42523 0.36439
 Cu788 Cu 0.91251 0.43525 0.33686
 Cu789 Cu 0.93657 0.41381 0.33914
 Cu790 Cu 0.91411 0.41183 0.31462
 N791 N 0.89989 0.43417 0.32300
 N792 N 0.90064 0.42497 0.31434
 C793 C 0.89093 0.42629 0.30592
 C794 C 0.88359 0.43692 0.30941
 C795 C 0.88964 0.44167 0.32034
 H796 H 0.88940 0.41997 0.29781
 H797 H 0.88676 0.44993 0.32599
 N798 N 0.92843 0.39945 0.31650
 N799 N 0.93698 0.40020 0.32581
 C800 C 0.94543 0.39041 0.32450
 C801 C 0.94207 0.38310 0.31385
 C802 C 0.93122 0.38918 0.30905
 H803 H 0.95348 0.38878 0.33081
 H804 H 0.92567 0.38629 0.30078
 H805 H 0.92770 0.42289 0.32392
 H806 H 0.91748 0.41234 0.33420
 N807 N 0.31570 0.92774 0.40009
 N808 N 0.32463 0.93667 0.40030
 C809 C 0.32315 0.94457 0.39017
 C810 C 0.31273 0.94046 0.38307
 C811 C 0.30817 0.92972 0.38971
 H812 H 0.32920 0.95277 0.38816
 H813 H 0.30009 0.92372 0.38715
 Cu814 Cu 0.33752 0.93713 0.41362
 Cu815 Cu 0.31488 0.91421 0.41336
 Cu816 Cu 0.33864 0.91511 0.43695
 N817 N 0.35106 0.93744 0.42631
 N818 N 0.35141 0.92888 0.43561
 C819 C 0.36164 0.93128 0.44312
 C820 C 0.36813 0.94197 0.43823
 C821 C 0.36105 0.94554 0.42750
 H822 H 0.36413 0.92558 0.45146
 H823 H 0.36293 0.95347 0.42103
 N824 N 0.32491 0.90199 0.43660
 N825 N 0.31591 0.90154 0.42768
 C826 C 0.30819 0.89137 0.43014
 C827 C 0.31254 0.88509 0.44111
 C828 C 0.32314 0.89217 0.44490
 H829 H 0.30006 0.88868 0.42430
 H830 H 0.32914 0.89036 0.45316
 H831 H 0.32371 0.92454 0.42774
 H832 H 0.33419 0.91420 0.41754
 O833 O 0.21595 0.51668 0.74617
 O834 O 0.21839 0.51475 0.76868
 O835 O 0.25000 0.53454 0.73320
 O836 O 0.27295 0.52964 0.73580
 O837 O 0.23579 0.50164 0.71437
 O838 O 0.23748 0.47860 0.71859
 O839 O 0.28186 0.49926 0.76916
 O840 O 0.27857 0.52138 0.76626
 O841 O 0.24892 0.48258 0.78281
 O842 O 0.22563 0.48449 0.77687
 O843 O 0.26692 0.46669 0.75243
 O844 O 0.26709 0.47096 0.72865
 O845 O 0.28314 0.48368 0.75379
 O846 O 0.28079 0.48521 0.72977
 O847 O 0.24998 0.46631 0.76614
 O848 O 0.22648 0.47086 0.76262
 O849 O 0.26459 0.49777 0.78393
 O850 O 0.25989 0.52155 0.78039
 O851 O 0.21716 0.50090 0.73095
 O852 O 0.22210 0.47800 0.73203
 O853 O 0.25120 0.51714 0.71557
 O854 O 0.27367 0.51520 0.72176
 O855 O 0.23321 0.53428 0.74714
 O856 O 0.23484 0.52942 0.77062
 Zr857 Zr 0.23383 0.51572 0.75551
 O858 O 0.24407 0.50413 0.76865
 Zr859 Zr 0.25801 0.51590 0.73462
 O860 O 0.26936 0.50455 0.74698
 Zr861 Zr 0.23572 0.49308 0.73279
 O862 O 0.24616 0.48058 0.74490
 Zr863 Zr 0.26373 0.50744 0.76612
 O864 O 0.25348 0.52021 0.75391
 Zr865 Zr 0.24145 0.48456 0.76412
 O866 O 0.22993 0.49605 0.75193
 Zr867 Zr 0.26579 0.48490 0.74346
 O868 O 0.25546 0.49625 0.73002
 O869 O 0.23856 0.51251 0.73645
 O870 O 0.26096 0.48793 0.76252
 C871 C 0.21128 0.51019 0.73671
 C872 C 0.24015 0.53979 0.73850
 C873 C 0.24222 0.51112 0.70957
 C874 C 0.28757 0.48976 0.76362
 C875 C 0.25832 0.48813 0.78857
 C876 C 0.26014 0.46131 0.76126
 H877 H 0.24143 0.50612 0.77756
 H878 H 0.24435 0.47149 0.74264
 H879 H 0.23340 0.51800 0.73065
 H880 H 0.27849 0.50683 0.74581
 H881 H 0.27458 0.52977 0.76404
 H882 H 0.27109 0.53515 0.74333
 H883 H 0.22870 0.46480 0.75562
 H884 H 0.21721 0.47841 0.74018
 H885 H 0.26684 0.52100 0.78686
 H886 H 0.22799 0.53594 0.76931
 H887 H 0.25965 0.46511 0.72945
 H888 H 0.24632 0.47925 0.71519
 H889 H 0.21487 0.50590 0.76810
 H890 H 0.22679 0.49164 0.78305
 H891 H 0.27316 0.50677 0.71730
 H892 H 0.28624 0.49279 0.73164
 O893 O 0.25012 0.03297 0.23217
 O894 O 0.27193 0.02824 0.23290
 O895 O 0.23259 0.00007 0.21562
 O896 O 0.23175 -0.02243 0.22015
 O897 O 0.21711 0.01651 0.24991
 O898 O 0.22268 0.01561 0.27199
 O899 O 0.26683 -0.03536 0.24854
 O900 O 0.26290 -0.03184 0.22687
 O901 O 0.28423 -0.00421 0.26450
 O902 O 0.28122 0.01910 0.26418
 O903 O 0.25167 -0.01864 0.28217
 O904 O 0.22933 -0.01793 0.27870
 O905 O 0.25274 -0.03502 0.26522
 O906 O 0.22791 -0.03016 0.26297
 O907 O 0.26813 -0.00431 0.28174
 O908 O 0.26655 0.02038 0.27737
 O909 O 0.28322 -0.01950 0.24888
 O910 O 0.27860 -0.01435 0.22567
 O911 O 0.23524 0.03352 0.24819
 O912 O 0.23839 0.02866 0.27146
 O913 O 0.21586 0.00122 0.23428
 O914 O 0.21995 -0.02248 0.23590
 O915 O 0.24814 0.01545 0.21490
 O916 O 0.27171 0.01123 0.21884
 Zr917 Zr 0.25733 0.01406 0.23297
 O918 O 0.26971 0.00243 0.24403
 Zr919 Zr 0.23396 -0.00781 0.23414
 O920 O 0.24563 -0.02072 0.24444
 Zr921 Zr 0.23596 0.01488 0.25668
 O922 O 0.24701 0.00260 0.26846
 Zr923 Zr 0.26501 -0.01694 0.24062
 O924 O 0.25328 -0.00540 0.22864
 Zr925 Zr 0.26640 0.00517 0.26378
 O926 O 0.25540 0.01832 0.25271
 Zr927 Zr 0.24332 -0.01690 0.26404
 O928 O 0.23070 -0.00461 0.25382
 O929 O 0.23809 0.01150 0.23720
 O930 O 0.26260 -0.01413 0.26024
 C931 C 0.24126 0.03867 0.23863
 C932 C 0.23862 0.00928 0.20996
 C933 C 0.21113 0.01059 0.24088
 C934 C 0.26173 -0.04039 0.25859
 C935 C 0.28887 -0.01389 0.25832
 C936 C 0.26162 -0.01341 0.28713
 H937 H 0.27873 0.00418 0.24167
 H938 H 0.24524 0.00453 0.27759
 H939 H 0.23254 0.01718 0.23198
 H940 H 0.24342 -0.02974 0.24223
 H941 H 0.26060 -0.02761 0.21865
 H942 H 0.23990 -0.02281 0.21532
 H943 H 0.26048 0.01811 0.28431
 H944 H 0.24642 0.03336 0.26955
 H945 H 0.28432 -0.02201 0.22569
 H946 H 0.27063 0.01791 0.21208
 H947 H 0.22893 -0.00929 0.28275
 H948 H 0.21826 0.00715 0.27207
 H949 H 0.27254 0.03155 0.24180
 H950 H 0.28551 0.01893 0.25571
 H951 H 0.21519 -0.02074 0.24394
 H952 H 0.23082 -0.03775 0.25799
 O953 O 0.53372 0.73242 0.24940
 O954 O 0.52864 0.73355 0.27153
 O955 O 0.50028 0.71861 0.23135
 O956 O 0.47757 0.72543 0.23195
 O957 O 0.51899 0.75127 0.21612
 O958 O 0.51964 0.77370 0.22154
 O959 O 0.46753 0.75575 0.26527
 O960 O 0.46880 0.73346 0.26177
 O961 O 0.50035 0.76769 0.28360
 O962 O 0.52349 0.76463 0.28015
 O963 O 0.48687 0.78677 0.25230
 O964 O 0.48985 0.78362 0.22812
 O965 O 0.46929 0.77146 0.25005
 O966 O 0.47464 0.77103 0.22691
 O967 O 0.50198 0.78499 0.26790
 O968 O 0.52562 0.77842 0.26613
 O969 O 0.48305 0.75446 0.28217
 O970 O 0.48554 0.73052 0.27777
 O971 O 0.53568 0.74864 0.23468
 O972 O 0.53301 0.77203 0.23677
 O973 O 0.50253 0.73690 0.21482
 O974 O 0.47969 0.74041 0.21851
 O975 O 0.51512 0.71666 0.24724
 O976 O 0.51071 0.72059 0.27063
 Zr977 Zr 0.51500 0.73477 0.25653
 O978 O 0.50440 0.74683 0.26889
 Zr979 Zr 0.49365 0.73781 0.23300
 O980 O 0.48199 0.74976 0.24445
 Zr981 Zr 0.51798 0.75847 0.23498
 O982 O 0.50733 0.77149 0.24628
 Zr983 Zr 0.48493 0.74563 0.26399
 O984 O 0.49535 0.73234 0.25246
 Zr985 Zr 0.50935 0.76622 0.26565
 O986 O 0.52114 0.75407 0.25445
 Zr987 Zr 0.48774 0.76909 0.24231
 O988 O 0.49853 0.75730 0.22970
 O989 O 0.51294 0.73927 0.23723
 O990 O 0.48993 0.76489 0.26166
 C991 C 0.53997 0.73863 0.24069
 C992 C 0.50897 0.71225 0.23747
 C993 C 0.51242 0.74266 0.21012
 C994 C 0.46328 0.76572 0.25921
 C995 C 0.48989 0.76294 0.28805
 C996 C 0.49284 0.79105 0.26222
 H997 H 0.50578 0.74422 0.27793
 H998 H 0.51019 0.78045 0.24470
 H999 H 0.51822 0.73363 0.23170
 H1000 H 0.47291 0.74845 0.24210
 H1001 H 0.47211 0.72489 0.25920
 H1002 H 0.47830 0.71924 0.23916
 H1003 H 0.52421 0.78555 0.25994
 H1004 H 0.53700 0.77046 0.24526
 H1005 H 0.47802 0.73159 0.28350
 H1006 H 0.51700 0.71344 0.26982
 H1007 H 0.49681 0.78949 0.23087
 H1008 H 0.51107 0.77476 0.21762
 H1009 H 0.53325 0.74190 0.27166
 H1010 H 0.52175 0.75663 0.28506
 H1011 H 0.48150 0.74887 0.21445
 H1012 H 0.46875 0.76355 0.22724
 O1013 O 0.03319 0.73319 0.75066
 O1014 O 0.02851 0.73710 0.77278
 O1015 O 0.00113 0.71514 0.73519
 O1016 O -0.02242 0.72001 0.73564
 O1017 O 0.01655 0.74724 0.71615
 O1018 O 0.01512 0.77057 0.71966
 O1019 O -0.03446 0.75257 0.76581
 O1020 O -0.03184 0.73018 0.76352
 O1021 O -0.00352 0.76863 0.78238
 O1022 O 0.02033 0.76716 0.77868
 O1023 O -0.01809 0.78366 0.74896
 O1024 O -0.01514 0.77832 0.72554
 O1025 O -0.03419 0.76677 0.74910
 O1026 O -0.02895 0.76417 0.72563
 O1027 O -0.00350 0.78448 0.76512
 O1028 O 0.02050 0.78058 0.76404
 O1029 O -0.01868 0.75288 0.78239
 O1030 O -0.01458 0.72930 0.77939
 O1031 O 0.03365 0.74799 0.73443
 O1032 O 0.02935 0.77098 0.73441
 O1033 O 0.00086 0.73198 0.71660
 O1034 O -0.02147 0.73289 0.72038
 O1035 O 0.01582 0.71599 0.75131
 O1036 O 0.01204 0.72223 0.77396
 Zr1037 Zr 0.01451 0.73501 0.75820
 O1038 O 0.00275 0.74704 0.76945
 Zr1039 Zr -0.00733 0.73365 0.73489
 O1040 O -0.01995 0.74565 0.74507
 Zr1041 Zr 0.01519 0.75640 0.73429
 O1042 O 0.00353 0.76949 0.74461
 Zr1043 Zr -0.01649 0.74349 0.76478
 O1044 O -0.00484 0.73023 0.75465
 Zr1045 Zr 0.00584 0.76645 0.76448
 O1046 O 0.01872 0.75450 0.75413
 Zr1047 Zr -0.01579 0.76509 0.74107
 O1048 O -0.00414 0.75303 0.72954
 O1049 O 0.01182 0.73718 0.73856
 O1050 O -0.01330 0.76287 0.76071
 C1051 C 0.03878 0.73888 0.74116
 C1052 C 0.01010 0.71013 0.74208
 C1053 C 0.01021 0.73784 0.71109
 C1054 C -0.03950 0.76164 0.75901
 C1055 C -0.01306 0.76261 0.78749
 C1056 C -0.01289 0.78925 0.75867
 H1057 H 0.00437 0.74537 0.77866
 H1058 H 0.00560 0.77847 0.74217
 H1059 H 0.01741 0.73142 0.73346
 H1060 H -0.02891 0.74338 0.74296
 H1061 H -0.02800 0.72164 0.76168
 H1062 H -0.02055 0.71405 0.74283
 H1063 H 0.01883 0.78639 0.75668
 H1064 H 0.03273 0.77130 0.74329
 H1065 H -0.02223 0.72991 0.78502
 H1066 H 0.01917 0.71588 0.77392
 H1067 H -0.00809 0.78448 0.72717
 H1068 H 0.00677 0.76978 0.71522
 H1069 H 0.03258 0.74564 0.77148
 H1070 H 0.01880 0.75998 0.78477
 H1071 H -0.02146 0.74148 0.71618
 H1072 H -0.03489 0.75692 0.72734
 O1073 O 0.03273 0.01871 0.00115
 O1074 O 0.02888 0.01644 -0.02097
 O1075 O -0.00169 0.03329 0.01687
 O1076 O -0.02429 0.02648 0.01539
 O1077 O 0.01643 0.00210 0.03452
 O1078 O 0.01774 -0.02111 0.03037
 O1079 O -0.03261 -0.00507 -0.01675
 O1080 O -0.03136 0.01732 -0.01432
 O1081 O 0.00084 -0.01841 -0.03282
 O1082 O 0.02412 -0.01486 -0.02818
 O1083 O -0.01429 -0.03550 -0.00140
 O1084 O -0.01270 -0.03323 0.02068
 O1085 O -0.03175 -0.01985 -0.00056
 O1086 O -0.02633 -0.01778 0.02361
 O1087 O 0.00166 -0.03472 -0.01623
 O1088 O 0.02509 -0.02850 -0.01377
 O1089 O -0.01625 -0.00479 -0.03284
 O1090 O -0.01382 0.01927 -0.02962
 O1091 O 0.03403 0.00325 0.01672
 O1092 O 0.03138 -0.02020 0.01578
 O1093 O -0.00058 0.01585 0.03437
 O1094 O -0.02305 0.01232 0.02950
 O1095 O 0.01386 0.03449 0.00159
 O1096 O 0.01094 0.02931 -0.02182
 Zr1097 Zr 0.01440 0.01594 -0.00674
 O1098 O 0.00442 0.00331 -0.01901
 Zr1099 Zr -0.00819 0.01406 0.01580
 O1100 O -0.01927 0.00166 0.00436
 Zr1101 Zr 0.01631 -0.00654 0.01617
 O1102 O 0.00614 -0.02007 0.00501
 Zr1103 Zr -0.01524 0.00491 -0.01513
 O1104 O -0.00540 0.01867 -0.00375
 Zr1105 Zr 0.00910 -0.01592 -0.01455
 O1106 O 0.02037 -0.00324 -0.00336
 Zr1107 Zr -0.01359 -0.01748 0.00779
 O1108 O -0.00339 -0.00523 0.02044
 O1109 O 0.01134 0.01248 0.01264
 O1110 O -0.01047 -0.01422 -0.01159
 C1111 C 0.03861 0.01293 0.01040
 C1112 C 0.00725 0.03933 0.01086
 C1113 C 0.00924 0.01071 0.03980
 C1114 C -0.03726 -0.01458 -0.01029
 C1115 C -0.00935 -0.01371 -0.03796
 C1116 C -0.00790 -0.04031 -0.01080
 H1117 H 0.00627 0.00545 -0.02809
 H1118 H 0.00872 -0.02899 0.00729
 H1119 H 0.01634 0.01842 0.01811
 H1120 H -0.02845 0.00312 0.00625
 H1121 H -0.02810 0.02602 -0.01216
 H1122 H -0.02318 0.03233 0.00796
 H1123 H 0.02355 -0.03487 -0.00684
 H1124 H 0.03560 -0.01926 0.00731
 H1125 H -0.02109 0.01800 -0.03562
 H1126 H 0.01709 0.03656 -0.02096
 H1127 H -0.00499 -0.03187 0.02599
 H1128 H 0.01014 -0.02026 0.03599
 H1129 H 0.03326 0.00796 -0.02066
 H1130 H 0.02220 -0.00762 -0.03409
 H1131 H -0.02137 0.00428 0.03439
 H1132 H -0.03344 -0.01177 0.02163
 O1133 O 0.03349 0.51469 0.50314
 O1134 O 0.02897 0.51289 0.48074
 O1135 O 0.00059 0.53159 0.51943
 O1136 O -0.02193 0.52691 0.51921
 O1137 O 0.01669 0.49777 0.53621
 O1138 O 0.01587 0.47533 0.53148
 O1139 O -0.03394 0.49573 0.48576
 O1140 O -0.03104 0.51818 0.48868
 O1141 O -0.00186 0.48056 0.46903
 O1142 O 0.02075 0.48126 0.47256
 O1143 O -0.01709 0.46382 0.50207
 O1144 O -0.01550 0.46827 0.52518
 O1145 O -0.03359 0.48056 0.50161
 O1146 O -0.02895 0.48274 0.52542
 O1147 O -0.00253 0.46392 0.48584
 O1148 O 0.02205 0.46866 0.48790
 O1149 O -0.01802 0.49527 0.46940
 O1150 O -0.01361 0.51908 0.47305
 O1151 O 0.03390 0.49853 0.51804
 O1152 O 0.02936 0.47539 0.51636
 O1153 O 0.00140 0.51347 0.53677
 O1154 O -0.02192 0.51174 0.53231
 O1155 O 0.01606 0.53190 0.50404
 O1156 O 0.01208 0.52732 0.48062
 Zr1157 Zr 0.01485 0.51341 0.49534
 O1158 O 0.00357 0.50168 0.48316
 Zr1159 Zr -0.00721 0.51289 0.51839
 O1160 O -0.01961 0.50171 0.50699
 Zr1161 Zr 0.01549 0.49025 0.51759
 O1162 O 0.00390 0.47781 0.50671
 Zr1163 Zr -0.01588 0.50465 0.48735
 O1164 O -0.00469 0.51745 0.49876
 Zr1165 Zr 0.00669 0.48202 0.48719
 O1166 O 0.01931 0.49368 0.49806
 Zr1167 Zr -0.01546 0.48216 0.51023
 O1168 O -0.00385 0.49328 0.52256
 O1169 O 0.01202 0.50975 0.51470
 O1170 O -0.01259 0.48517 0.49071
 C1171 C 0.03906 0.50811 0.51207
 C1172 C 0.00982 0.53713 0.51339
 C1173 C 0.01066 0.50698 0.54186
 C1174 C -0.03893 0.48622 0.49199
 C1175 C -0.01175 0.48599 0.46404
 C1176 C -0.01169 0.45867 0.49227
 H1177 H 0.00541 0.50376 0.47406
 H1178 H 0.00599 0.46872 0.50875
 H1179 H 0.01755 0.51518 0.52019
 H1180 H -0.02862 0.50389 0.50900
 H1181 H -0.02710 0.52661 0.49079
 H1182 H -0.02155 0.53181 0.51106
 H1183 H 0.01950 0.46145 0.49360
 H1184 H 0.03386 0.47659 0.50807
 H1185 H -0.02104 0.51845 0.46715
 H1186 H 0.01889 0.53396 0.48138
 H1187 H -0.00779 0.46280 0.52412
 H1188 H 0.00736 0.47537 0.53566
 H1189 H 0.03311 0.50430 0.48127
 H1190 H 0.02109 0.48991 0.46853
 H1191 H -0.02054 0.50357 0.53707
 H1192 H -0.03524 0.48963 0.52349
 O1193 O 0.50138 0.03285 0.51847
 O1194 O 0.47947 0.02864 0.51651
 O1195 O 0.51744 -0.00037 0.53571
 O1196 O 0.51708 -0.02344 0.53098
 O1197 O 0.53481 0.01570 0.50275
 O1198 O 0.53034 0.01441 0.48005
 O1199 O 0.48389 -0.03499 0.50093
 O1200 O 0.48716 -0.03191 0.52281
 O1201 O 0.46773 -0.00352 0.48462
 O1202 O 0.47158 0.02022 0.48562
 O1203 O 0.50055 -0.01851 0.46825
 O1204 O 0.52306 -0.01783 0.47263
 O1205 O 0.49886 -0.03492 0.48503
 O1206 O 0.52346 -0.03065 0.48798
 O1207 O 0.48442 -0.00377 0.46814
 O1208 O 0.48619 0.02063 0.47234
 O1209 O 0.46786 -0.01867 0.50045
 O1210 O 0.47179 -0.01401 0.52373
 O1211 O 0.51695 0.03310 0.50311
 O1212 O 0.51526 0.02846 0.47992
 O1213 O 0.53499 -0.00013 0.51795
 O1214 O 0.53054 -0.02323 0.51647
 O1215 O 0.50210 0.01528 0.53575
 O1216 O 0.47873 0.01169 0.53079
 Zr1217 Zr 0.49376 0.01412 0.51728
 O1218 O 0.48161 0.00277 0.50572
 Zr1219 Zr 0.51661 -0.00840 0.51720
 O1220 O 0.50524 -0.02090 0.50615
 Zr1221 Zr 0.51631 0.01445 0.49468
 O1222 O 0.50532 0.00267 0.48231
 Zr1223 Zr 0.48582 -0.01672 0.50923
 O1224 O 0.49714 -0.00546 0.52178
 Zr1225 Zr 0.48576 0.00559 0.48615
 O1226 O 0.49675 0.01836 0.49766
 Zr1227 Zr 0.50842 -0.01696 0.48667
 O1228 O 0.52086 -0.00521 0.49769
 O1229 O 0.51311 0.01103 0.51399
 O1230 O 0.48906 -0.01381 0.48974
 C1231 C 0.51062 0.03838 0.51239
 C1232 C 0.51131 0.00895 0.54109
 C1233 C 0.54024 0.00932 0.51188
 C1234 C 0.48943 -0.04011 0.49116
 C1235 C 0.46265 -0.01301 0.49079
 C1236 C 0.49083 -0.01306 0.46299
 H1237 H 0.47255 0.00470 0.50775
 H1238 H 0.50747 0.00463 0.47327
 H1239 H 0.51854 0.01658 0.51945
 H1240 H 0.50716 -0.02999 0.50838
 H1241 H 0.48919 -0.02788 0.53118
 H1242 H 0.50935 -0.02246 0.53638
 H1243 H 0.49299 0.01857 0.46604
 H1244 H 0.50686 0.03281 0.48087
 H1245 H 0.46595 -0.02157 0.52350
 H1246 H 0.47956 0.01849 0.53745
 H1247 H 0.52335 -0.00930 0.46835
 H1248 H 0.53473 0.00595 0.48060
 H1249 H 0.47940 0.03194 0.50758
 H1250 H 0.46609 0.01915 0.49330
 H1251 H 0.53506 -0.02227 0.50817
 H1252 H 0.52048 -0.03789 0.49344
 O1253 O 0.46589 0.50031 -0.01765
 O1254 O 0.47026 0.52224 -0.01658
 O1255 O 0.49912 0.48359 -0.03457
 O1256 O 0.52119 0.48281 -0.02979
 O1257 O 0.48252 0.46651 -0.00103
 O1258 O 0.48323 0.47111 0.02112
 O1259 O 0.53304 0.51772 -0.00025
 O1260 O 0.52965 0.51497 -0.02200
 O1261 O 0.50058 0.53424 0.01583
 O1262 O 0.47803 0.53010 0.01567
 O1263 O 0.51662 0.50139 0.03272
 O1264 O 0.51631 0.47885 0.02887
 O1265 O 0.53297 0.50292 0.01592
 O1266 O 0.52851 0.47788 0.01302
 O1267 O 0.50208 0.51773 0.03252
 O1268 O 0.47744 0.51461 0.02826
 O1269 O 0.51682 0.53387 0.00129
 O1270 O 0.51203 0.53033 -0.02242
 O1271 O 0.46538 0.48478 -0.00211
 O1272 O 0.47019 0.48687 0.02143
 O1273 O 0.49772 0.46597 -0.01668
 O1274 O 0.52136 0.47054 -0.01409
 O1275 O 0.48336 0.49880 -0.03485
 O1276 O 0.48743 0.52251 -0.03030
 Zr1277 Zr 0.48450 0.50765 -0.01656
 O1278 O 0.49543 0.52002 -0.00488
 Zr1279 Zr 0.50656 0.48441 -0.01586
 O1280 O 0.51895 0.49626 -0.00508
 Zr1281 Zr 0.48382 0.48527 0.00648
 O1282 O 0.49562 0.49623 0.01878
 Zr1283 Zr 0.51480 0.51591 -0.00817
 O1284 O 0.50392 0.50411 -0.02070
 Zr1285 Zr 0.49251 0.51582 0.01469
 O1286 O 0.47996 0.50490 0.00304
 Zr1287 Zr 0.51511 0.49320 0.01443
 O1288 O 0.50331 0.48049 0.00370
 O1289 O 0.48732 0.48816 -0.01288
 O1290 O 0.51183 0.51268 0.01128
 C1291 C 0.46027 0.49119 -0.01145
 C1292 C 0.48978 0.48953 -0.04006
 C1293 C 0.48842 0.46085 -0.01029
 C1294 C 0.53815 0.51229 0.00958
 C1295 C 0.51045 0.53925 0.01043
 C1296 C 0.51131 0.51135 0.03777
 H1297 H 0.49343 0.52914 -0.00693
 H1298 H 0.49369 0.49415 0.02785
 H1299 H 0.48179 0.48268 -0.01832
 H1300 H 0.52796 0.49433 -0.00731
 H1301 H 0.52556 0.51275 -0.03028
 H1302 H 0.52220 0.49150 -0.03359
 H1303 H 0.48050 0.50942 0.03564
 H1304 H 0.46513 0.49478 0.01967
 H1305 H 0.51929 0.53647 -0.02177
 H1306 H 0.48097 0.52154 -0.03722
 H1307 H 0.50766 0.47798 0.03264
 H1308 H 0.49183 0.46707 0.02130
 H1309 H 0.46658 0.52241 -0.00782
 H1310 H 0.47783 0.53454 0.00725
 H1311 H 0.51932 0.46521 -0.00645
 H1312 H 0.53590 0.48100 0.00793
 O1313 O 0.76916 0.28312 0.50033
 O1314 O 0.76581 0.27799 0.52235
 O1315 O 0.78700 0.25113 0.48386
 O1316 O 0.78237 0.22736 0.48436
 O1317 O 0.75492 0.26681 0.46562
 O1318 O 0.73196 0.26544 0.46932
 O1319 O 0.75003 0.21485 0.51502
 O1320 O 0.77220 0.21727 0.51232
 O1321 O 0.73436 0.24576 0.53174
 O1322 O 0.73571 0.26980 0.52846
 O1323 O 0.71908 0.23177 0.49816
 O1324 O 0.72454 0.23465 0.47481
 O1325 O 0.73569 0.21537 0.49856
 O1326 O 0.73841 0.22053 0.47500
 O1327 O 0.71847 0.24623 0.51455
 O1328 O 0.72256 0.27043 0.51378
 O1329 O 0.75011 0.23057 0.53165
 O1330 O 0.77349 0.23460 0.52821
 O1331 O 0.75439 0.28382 0.48421
 O1332 O 0.73155 0.27942 0.48430
 O1333 O 0.76999 0.25090 0.46564
 O1334 O 0.76920 0.22824 0.46936
 O1335 O 0.78633 0.26573 0.50017
 O1336 O 0.78052 0.26126 0.52294
 Zr1337 Zr 0.76759 0.26415 0.50747
 O1338 O 0.75570 0.25224 0.51874
 Zr1339 Zr 0.76868 0.24246 0.48391
 O1340 O 0.75688 0.22962 0.49414
 Zr1341 Zr 0.74609 0.26520 0.48386
 O1342 O 0.73322 0.25333 0.49414
 Zr1343 Zr 0.75916 0.23288 0.51387
 O1344 O 0.77226 0.24467 0.50367
 Zr1345 Zr 0.73642 0.25547 0.51398
 O1346 O 0.74822 0.26853 0.50370
 Zr1347 Zr 0.73757 0.23387 0.49038
 O1348 O 0.74940 0.24576 0.47885
 O1349 O 0.76519 0.26173 0.48783
 O1350 O 0.73992 0.23620 0.51002
 C1351 C 0.76343 0.28889 0.49098
 C1352 C 0.79203 0.26015 0.49073
 C1353 C 0.76412 0.26043 0.46032
 C1354 C 0.74083 0.20993 0.50842
 C1355 C 0.74041 0.23616 0.53680
 C1356 C 0.71358 0.23698 0.50792
 H1357 H 0.75744 0.25379 0.52795
 H1358 H 0.72430 0.25547 0.49178
 H1359 H 0.77078 0.26746 0.48271
 H1360 H 0.75909 0.22059 0.49195
 H1361 H 0.78062 0.22106 0.51012
 H1362 H 0.78831 0.22922 0.49153
 H1363 H 0.71670 0.26884 0.50649
 H1364 H 0.73147 0.28292 0.49315
 H1365 H 0.77291 0.22689 0.53384
 H1366 H 0.78685 0.26841 0.52290
 H1367 H 0.71852 0.24187 0.47640
 H1368 H 0.73263 0.25705 0.46481
 H1369 H 0.75724 0.28198 0.52142
 H1370 H 0.74296 0.26825 0.53438
 H1371 H 0.76061 0.22826 0.46534
 H1372 H 0.74543 0.21436 0.47680
 O1373 O 0.76331 0.78654 -0.00222
 O1374 O 0.76094 0.78322 0.02014
 O1375 O 0.78283 0.75420 -0.01642
 O1376 O 0.77968 0.73096 -0.01512
 O1377 O 0.74888 0.76699 -0.03493
 O1378 O 0.72664 0.76475 -0.03082
 O1379 O 0.74937 0.71854 0.01835
 O1380 O 0.77109 0.72292 0.01560
 O1381 O 0.73120 0.75046 0.03267
 O1382 O 0.73048 0.77331 0.02776
 O1383 O 0.71650 0.73227 0.00047
 O1384 O 0.72137 0.73241 -0.02241
 O1385 O 0.73412 0.71697 0.00283
 O1386 O 0.73717 0.72034 -0.02173
 O1387 O 0.71517 0.74795 0.01567
 O1388 O 0.71809 0.77259 0.01245
 O1389 O 0.74710 0.73546 0.03355
 O1390 O 0.77048 0.74145 0.03002
 O1391 O 0.74799 0.78520 -0.01777
 O1392 O 0.72515 0.77898 -0.01622
 O1393 O 0.76559 0.75286 -0.03427
 O1394 O 0.76517 0.72955 -0.02886
 O1395 O 0.78156 0.77010 -0.00139
 O1396 O 0.77633 0.76737 0.02187
 Zr1397 Zr 0.76304 0.76821 0.00648
 O1398 O 0.75198 0.75671 0.01893
 Zr1399 Zr 0.76488 0.74493 -0.01551
 O1400 O 0.75442 0.73219 -0.00367
 Zr1401 Zr 0.74089 0.76611 -0.01647
 O1402 O 0.72913 0.75405 -0.00526
 Zr1403 Zr 0.75661 0.73725 0.01575
 O1404 O 0.76869 0.74880 0.00404
 Zr1405 Zr 0.73249 0.75826 0.01416
 O1406 O 0.74337 0.77121 0.00289
 Zr1407 Zr 0.73483 0.73465 -0.00739
 O1408 O 0.74532 0.74657 -0.02017
 O1409 O 0.76030 0.76417 -0.01283
 O1410 O 0.73717 0.73892 0.01191
 C1411 C 0.75695 0.79125 -0.01173
 C1412 C 0.78748 0.76397 -0.01036
 C1413 C 0.75868 0.76147 -0.03999
 C1414 C 0.74016 0.71257 0.01271
 C1415 C 0.73729 0.74129 0.03831
 C1416 C 0.71074 0.73800 0.00976
 H1417 H 0.75365 0.75917 0.02795
 H1418 H 0.72005 0.75535 -0.00764
 H1419 H 0.76551 0.76983 -0.01842
 H1420 H 0.75728 0.72319 -0.00511
 H1421 H 0.77916 0.72733 0.01323
 H1422 H 0.78457 0.73243 -0.00711
 H1423 H 0.71163 0.76946 0.00624
 H1424 H 0.72596 0.78418 -0.00828
 H1425 H 0.77019 0.73437 0.03644
 H1426 H 0.78241 0.77469 0.02098
 H1427 H 0.71592 0.74023 -0.02252
 H1428 H 0.72730 0.75591 -0.03439
 H1429 H 0.75210 0.78657 0.01923
 H1430 H 0.73861 0.77388 0.03259
 H1431 H 0.75702 0.73003 -0.03370
 H1432 H 0.74354 0.71398 -0.01861
 O1433 O 0.96462 0.24825 0.26470
 O1434 O 0.96876 0.22624 0.26173
 O1435 O 0.99699 0.26342 0.28350
 O1436 O 1.01980 0.26358 0.27946
 O1437 O 0.98223 0.28268 0.25064
 O1438 O 0.98357 0.27935 0.22820
 O1439 O 1.03220 0.23104 0.24822
 O1440 O 1.02839 0.23278 0.26995
 O1441 O 1.00031 0.21581 0.23040
 O1442 O 0.97771 0.22018 0.23011
 O1443 O 1.01722 0.24929 0.21596
 O1444 O 1.01644 0.27190 0.22115
 O1445 O 1.03286 0.24700 0.23318
 O1446 O 1.02839 0.27171 0.23716
 O1447 O 1.00241 0.23327 0.21477
 O1448 O 0.97772 0.23623 0.21825
 O1449 O 1.01577 0.21508 0.24577
 O1450 O 1.01056 0.21772 0.26946
 O1451 O 0.96480 0.26468 0.25009
 O1452 O 0.97023 0.26396 0.22668
 O1453 O 0.99685 0.28206 0.26684
 O1454 O 1.02015 0.27757 0.26513
 O1455 O 0.98160 0.24789 0.28235
 O1456 O 0.98521 0.22473 0.27636
 Zr1457 Zr 0.98315 0.24055 0.26354
 O1458 O 0.99453 0.22885 0.25165
 Zr1459 Zr 1.00541 0.26356 0.26517
 O1460 O 1.01810 0.25239 0.25402
 Zr1461 Zr 0.98349 0.26438 0.24202
 O1462 O 0.99559 0.25400 0.22946
 Zr1463 Zr 1.01378 0.23264 0.25585
 O1464 O 1.00242 0.24366 0.26866
 Zr1465 Zr 0.99227 0.23422 0.23230
 O1466 O 0.97936 0.24462 0.24404
 Zr1467 Zr 1.01494 0.25662 0.23458
 O1468 O 1.00290 0.26872 0.24576
 O1469 O 0.98628 0.26022 0.26125
 O1470 O 1.01147 0.23701 0.23652
 C1471 C 0.95933 0.25787 0.25895
 C1472 C 0.98763 0.25693 0.28829
 C1473 C 0.98787 0.28770 0.26042
 C1474 C 1.03773 0.23714 0.23902
 C1475 C 1.00975 0.21029 0.23609
 C1476 C 1.01196 0.23970 0.21022
 H1477 H 0.99242 0.21964 0.25312
 H1478 H 0.99396 0.25661 0.22047
 H1479 H 0.98064 0.26543 0.26684
 H1480 H 1.02704 0.25411 0.25665
 H1481 H 1.02421 0.23485 0.27822
 H1482 H 1.01921 0.25518 0.28396
 H1483 H 0.98096 0.24203 0.21142
 H1484 H 0.96529 0.25585 0.22761
 H1485 H 1.01777 0.21152 0.26875
 H1486 H 0.97825 0.22516 0.28284
 H1487 H 1.00821 0.27238 0.21648
 H1488 H 0.99229 0.28310 0.22838
 H1489 H 0.96516 0.22713 0.25298
 H1490 H 0.97732 0.21517 0.23820
 H1491 H 1.01891 0.28291 0.25733
 H1492 H 1.03535 0.26843 0.24273
 O1493 O 0.74852 1.03426 0.73469
 O1494 O 0.77088 1.02923 0.73745
 O1495 O 0.73193 1.00270 0.71660
 O1496 O 0.73211 0.97910 0.72049
 O1497 O 0.71510 1.01747 0.75032
 O1498 O 0.71976 1.01529 0.77303
 O1499 O 0.76436 0.96524 0.75149
 O1500 O 0.76078 0.96848 0.72925
 O1501 O 0.78155 0.99545 0.76744
 O1502 O 0.77867 1.01937 0.76693
 O1503 O 0.74831 0.98134 0.78347
 O1504 O 0.72502 0.98415 0.77874
 O1505 O 0.74832 0.96533 0.76631
 O1506 O 0.72486 0.97051 0.76448
 O1507 O 0.76470 0.99577 0.78399
 O1508 O 0.76437 1.02005 0.78037
 O1509 O 0.78094 0.98083 0.75119
 O1510 O 0.77665 0.98588 0.72799
 O1511 O 0.73353 1.03441 0.75062
 O1512 O 0.73479 1.02912 0.77327
 O1513 O 0.71445 1.00257 0.73426
 O1514 O 0.71795 0.97950 0.73469
 O1515 O 0.74825 1.01726 0.71709
 O1516 O 0.77115 1.01318 0.72201
 Zr1517 Zr 0.75614 1.01530 0.73560
 O1518 O 0.76784 1.00287 0.74662
 Zr1519 Zr 0.73255 0.99364 0.73475
 O1520 O 0.74325 0.98032 0.74564
 Zr1521 Zr 0.73359 1.01551 0.75819
 O1522 O 0.74425 1.00313 0.77017
 Zr1523 Zr 0.76287 0.98359 0.74279
 O1524 O 0.75216 0.99593 0.73053
 Zr1525 Zr 0.76389 1.00539 0.76621
 O1526 O 0.75324 1.01894 0.75530
 Zr1527 Zr 0.74018 0.98388 0.76523
 O1528 O 0.72828 0.99626 0.75436
 O1529 O 0.73670 1.01276 0.73875
 O1530 O 0.75971 0.98624 0.76230
 C1531 C 0.73955 1.03979 0.74123
 C1532 C 0.73868 1.01178 0.71154
 C1533 C 0.70948 1.01180 0.74088
 C1534 C 0.75801 0.96004 0.76077
 C1535 C 0.78637 0.98601 0.76098
 C1536 C 0.75809 0.98650 0.78888
 H1537 H 0.77696 1.00444 0.74457
 H1538 H 0.74223 1.00496 0.77926
 H1539 H 0.73141 1.01865 0.73348
 H1540 H 0.74097 0.97138 0.74319
 H1541 H 0.75843 0.97261 0.72101
 H1542 H 0.73944 0.98070 0.71468
 H1543 H 0.75715 1.01854 0.78634
 H1544 H 0.74350 1.03288 0.77283
 H1545 H 0.78227 0.97815 0.72810
 H1546 H 0.77081 1.02061 0.71598
 H1547 H 0.72667 0.99128 0.78484
 H1548 H 0.71503 1.00705 0.77216
 H1549 H 0.77000 1.03310 0.74610
 H1550 H 0.78381 1.01851 0.75901
 H1551 H 0.71391 0.97980 0.74328
 H1552 H 0.72627 0.96478 0.75701
 O1553 O 0.71726 0.52010 0.24839
 O1554 O 0.72023 0.51814 0.27054
 O1555 O 0.75188 0.53610 0.23418
 O1556 O 0.77448 0.53010 0.23600
 O1557 O 0.73537 0.50429 0.21574
 O1558 O 0.73515 0.48115 0.21972
 O1559 O 0.78265 0.49932 0.26943
 O1560 O 0.78047 0.52142 0.26672
 O1561 O 0.74912 0.48415 0.28360
 O1562 O 0.72592 0.48699 0.27809
 O1563 O 0.76581 0.46757 0.25277
 O1564 O 0.76623 0.47051 0.23064
 O1565 O 0.78301 0.48372 0.25405
 O1566 O 0.77933 0.48636 0.22918
 O1567 O 0.74921 0.46788 0.26688
 O1568 O 0.72595 0.47346 0.26363
 O1569 O 0.76550 0.49858 0.28448
 O1570 O 0.76207 0.52264 0.28103
 O1571 O 0.71716 0.50471 0.23273
 O1572 O 0.72096 0.48117 0.23399
 O1573 O 0.75172 0.51878 0.21650
 O1574 O 0.77432 0.51548 0.22225
 O1575 O 0.73558 0.53665 0.24870
 O1576 O 0.73761 0.53155 0.27217
 Zr1577 Zr 0.73535 0.51810 0.25697
 O1578 O 0.74520 0.50587 0.26974
 Zr1579 Zr 0.75891 0.51706 0.23536
 O1580 O 0.77003 0.50523 0.24749
 Zr1581 Zr 0.73530 0.49559 0.23407
 O1582 O 0.74563 0.48252 0.24570
 Zr1583 Zr 0.76490 0.50832 0.26674
 O1584 O 0.75511 0.52160 0.25477
 Zr1585 Zr 0.74149 0.48651 0.26506
 O1586 O 0.73022 0.49873 0.25337
 Zr1587 Zr 0.76544 0.48583 0.24400
 O1588 O 0.75515 0.49757 0.23077
 O1589 O 0.73935 0.51478 0.23775
 O1590 O 0.76114 0.48898 0.26314
 C1591 C 0.71194 0.51414 0.23894
 C1592 C 0.74247 0.54179 0.23982
 C1593 C 0.74225 0.51331 0.21075
 C1594 C 0.78789 0.48961 0.26382
 C1595 C 0.75884 0.48927 0.28920
 C1596 C 0.75902 0.46248 0.26175
 H1597 H 0.74284 0.50791 0.27871
 H1598 H 0.74350 0.47353 0.24331
 H1599 H 0.73433 0.52058 0.23213
 H1600 H 0.77923 0.50704 0.24611
 H1601 H 0.77693 0.52998 0.26435
 H1602 H 0.77329 0.53549 0.24375
 H1603 H 0.72780 0.46743 0.25650
 H1604 H 0.71597 0.48231 0.24200
 H1605 H 0.76900 0.52163 0.28746
 H1606 H 0.73128 0.53861 0.27101
 H1607 H 0.75819 0.47096 0.22566
 H1608 H 0.74314 0.48219 0.21469
 H1609 H 0.71637 0.50941 0.27031
 H1610 H 0.72742 0.49415 0.28420
 H1611 H 0.77285 0.50750 0.21722
 H1612 H 0.78638 0.49202 0.23208
 O1613 O 0.49816 0.21502 0.73337
 O1614 O 0.47630 0.22025 0.73525
 O1615 O 0.51560 0.24633 0.71478
 O1616 O 0.51613 0.26971 0.71840
 O1617 O 0.53221 0.23147 0.74889
 O1618 O 0.52762 0.23363 0.77121
 O1619 O 0.48325 0.28415 0.74832
 O1620 O 0.48638 0.28023 0.72656
 O1621 O 0.46602 0.25384 0.76567
 O1622 O 0.46877 0.23020 0.76560
 O1623 O 0.49925 0.26826 0.78145
 O1624 O 0.52197 0.26642 0.77692
 O1625 O 0.49817 0.28403 0.76425
 O1626 O 0.52254 0.27888 0.76124
 O1627 O 0.48276 0.25395 0.78209
 O1628 O 0.48351 0.22940 0.77865
 O1629 O 0.46661 0.26856 0.74946
 O1630 O 0.47051 0.26295 0.72609
 O1631 O 0.51365 0.21481 0.74881
 O1632 O 0.51197 0.22044 0.77183
 O1633 O 0.53309 0.24614 0.73261
 O1634 O 0.52961 0.26960 0.73305
 O1635 O 0.49929 0.23176 0.71537
 O1636 O 0.47628 0.23657 0.72016
 Zr1637 Zr 0.49120 0.23406 0.73379
 O1638 O 0.47953 0.24638 0.74481
 Zr1639 Zr 0.51504 0.25542 0.73290
 O1640 O 0.50415 0.26890 0.74344
 Zr1641 Zr 0.51369 0.23373 0.75649
 O1642 O 0.50323 0.24644 0.76830
 Zr1643 Zr 0.48452 0.26554 0.74061
 O1644 O 0.49541 0.25327 0.72852
 Zr1645 Zr 0.48363 0.24406 0.76444
 O1646 O 0.49405 0.23041 0.75352
 Zr1647 Zr 0.50713 0.26571 0.76311
 O1648 O 0.51908 0.25298 0.75259
 O1649 O 0.51068 0.23638 0.73701
 O1650 O 0.48766 0.26318 0.76016
 C1651 C 0.50722 0.20945 0.73968
 C1652 C 0.50888 0.23719 0.70978
 C1653 C 0.53795 0.23694 0.73941
 C1654 C 0.48889 0.28934 0.75799
 C1655 C 0.46125 0.26335 0.75931
 C1656 C 0.48942 0.26321 0.78690
 H1657 H 0.47039 0.24478 0.74285
 H1658 H 0.50530 0.24474 0.77741
 H1659 H 0.51592 0.23040 0.73181
 H1660 H 0.50643 0.27781 0.74085
 H1661 H 0.48874 0.27587 0.71844
 H1662 H 0.50839 0.26874 0.71301
 H1663 H 0.49032 0.23141 0.78494
 H1664 H 0.50360 0.21608 0.77076
 H1665 H 0.46478 0.27059 0.72627
 H1666 H 0.47668 0.22935 0.71391
 H1667 H 0.52144 0.25841 0.78208
 H1668 H 0.53212 0.24203 0.77065
 H1669 H 0.47644 0.21697 0.74419
 H1670 H 0.46362 0.23087 0.75765
 H1671 H 0.53398 0.26886 0.74146
 H1672 H 0.51975 0.28601 0.75554
 O1673 O 0.26529 0.78547 0.49695
 O1674 O 0.26351 0.78257 0.51938
 O1675 O 0.28371 0.75195 0.48325
 O1676 O 0.28019 0.72959 0.48374
 O1677 O 0.24950 0.76578 0.46494
 O1678 O 0.22738 0.76447 0.46958
 O1679 O 0.25068 0.71792 0.51857
 O1680 O 0.27239 0.72250 0.51582
 O1681 O 0.23261 0.75033 0.53296
 O1682 O 0.23208 0.77263 0.52834
 O1683 O 0.21731 0.73215 0.50089
 O1684 O 0.22165 0.73148 0.47856
 O1685 O 0.23492 0.71656 0.50354
 O1686 O 0.23772 0.71979 0.47866
 O1687 O 0.21633 0.74789 0.51605
 O1688 O 0.22012 0.77282 0.51233
 O1689 O 0.24802 0.73482 0.53367
 O1690 O 0.27135 0.74091 0.53041
 O1691 O 0.24963 0.78426 0.48174
 O1692 O 0.22654 0.77861 0.48424
 O1693 O 0.26588 0.75127 0.46554
 O1694 O 0.26473 0.72770 0.47160
 O1695 O 0.28308 0.76865 0.49743
 O1696 O 0.27822 0.76607 0.52111
 Zr1697 Zr 0.26470 0.76726 0.50595
 O1698 O 0.25349 0.75623 0.51879
 Zr1699 Zr 0.26545 0.74358 0.48435
 O1700 O 0.25513 0.73125 0.49664
 Zr1701 Zr 0.24200 0.76540 0.48358
 O1702 O 0.23022 0.75359 0.49504
 Zr1703 Zr 0.25771 0.73664 0.51593
 O1704 O 0.26981 0.74767 0.50375
 Zr1705 Zr 0.23391 0.75794 0.51436
 O1706 O 0.24497 0.77061 0.50285
 Zr1707 Zr 0.23560 0.73407 0.49306
 O1708 O 0.24590 0.74572 0.47995
 O1709 O 0.26144 0.76299 0.48679
 O1710 O 0.23824 0.73851 0.51228
 C1711 C 0.25886 0.79020 0.48748
 C1712 C 0.28870 0.76188 0.48869
 C1713 C 0.25907 0.75993 0.45982
 C1714 C 0.24127 0.71207 0.51318
 C1715 C 0.23836 0.74087 0.53850
 C1716 C 0.21168 0.73802 0.51013
 H1717 H 0.25527 0.75881 0.52776
 H1718 H 0.22114 0.75502 0.49276
 H1719 H 0.26670 0.76840 0.48101
 H1720 H 0.25783 0.72219 0.49525
 H1721 H 0.28047 0.72707 0.51381
 H1722 H 0.28378 0.72913 0.49251
 H1723 H 0.21310 0.76947 0.50689
 H1724 H 0.22805 0.78433 0.49171
 H1725 H 0.27113 0.73373 0.53672
 H1726 H 0.28471 0.77295 0.51984
 H1727 H 0.21705 0.73978 0.47761
 H1728 H 0.22770 0.75563 0.46598
 H1729 H 0.25484 0.78637 0.51848
 H1730 H 0.24081 0.77462 0.53145
 H1731 H 0.25711 0.72897 0.46609
 H1732 H 0.24348 0.71298 0.48203
 O1733 O 0.25162 0.26600 0.96611
 O1734 O 0.22920 0.26227 0.96952
 O1735 O 0.26481 0.28637 0.99778
 O1736 O 0.26287 0.28318 1.02162
 O1737 O 0.28459 0.25332 0.98587
 O1738 O 0.28104 0.23012 0.98904
 O1739 O 0.23148 0.25176 1.03390
 O1740 O 0.23436 0.27385 1.02984
 O1741 O 0.21741 0.23323 1.00355
 O1742 O 0.22248 0.23368 0.97933
 O1743 O 0.24975 0.21910 1.02041
 O1744 O 0.27284 0.22460 1.01967
 O1745 O 0.24746 0.23686 1.03553
 O1746 O 0.27158 0.23989 1.03228
 O1747 O 0.23479 0.21734 1.00466
 O1748 O 0.23642 0.21979 0.98115
 O1749 O 0.21621 0.25040 1.01710
 O1750 O 0.21981 0.27358 1.01131
 O1751 O 0.26750 0.25095 0.96775
 O1752 O 0.26735 0.22842 0.97395
 O1753 O 0.28326 0.26965 1.00044
 O1754 O 0.27804 0.27007 1.02259
 O1755 O 0.24974 0.28444 0.98210
 O1756 O 0.22702 0.27855 0.98458
 Zr1757 Zr 0.24276 0.26555 0.98430
 O1758 O 0.23062 0.25452 0.99614
 Zr1759 Zr 0.26450 0.26849 1.00759
 O1760 O 0.25333 0.25748 1.02036
 Zr1761 Zr 0.26647 0.24415 0.98685
 O1762 O 0.25524 0.23204 0.99866
 Zr1763 Zr 0.23399 0.25946 1.01539
 O1764 O 0.24502 0.27175 1.00351
 Zr1765 Zr 0.23565 0.23496 0.99474
 O1766 O 0.24700 0.24582 0.98177
 Zr1767 Zr 0.25739 0.23775 1.01791
 O1768 O 0.26983 0.24887 1.00623
 O1769 O 0.26210 0.26357 0.98849
 O1770 O 0.23806 0.23986 1.01386
 C1771 C 0.26128 0.25974 0.96155
 C1772 C 0.25853 0.29073 0.98803
 C1773 C 0.28927 0.26320 0.99178
 C1774 C 0.23740 0.24263 1.03985
 C1775 C 0.21164 0.24003 1.01217
 C1776 C 0.24068 0.21306 1.01462
 H1777 H 0.22157 0.25608 0.99377
 H1778 H 0.25778 0.22293 0.99736
 H1779 H 0.26755 0.26891 0.98282
 H1780 H 0.25480 0.26035 1.02930
 H1781 H 0.23644 0.28209 1.02550
 H1782 H 0.25581 0.28895 1.01890
 H1783 H 0.24460 0.21513 0.98245
 H1784 H 0.25890 0.22804 0.96965
 H1785 H 0.21366 0.27363 1.01857
 H1786 H 0.22754 0.28418 0.97687
 H1787 H 0.27253 0.21870 1.01221
 H1788 H 0.28507 0.23177 0.99749
 H1789 H 0.23090 0.25353 0.96605
 H1790 H 0.21565 0.24015 0.98078
 H1791 H 0.28190 0.26138 1.02361
 H1792 H 0.26878 0.24683 1.03818
 C1793 C 0.30974 0.39456 0.78531
 C1794 C 0.29778 0.40008 0.78871
 C1795 C 0.29077 0.39404 0.79872
 C1796 C 0.29557 0.38301 0.80494
 C1797 C 0.30739 0.37762 0.80140
 C1798 C 0.31440 0.38356 0.79155
 C1799 C 0.27893 0.39898 0.80249
 C1800 C 0.27369 0.40966 0.79639
 C1801 C 0.28012 0.41592 0.78620
 C1802 C 0.29250 0.41125 0.78249
 C1803 C 0.29920 0.41792 0.77272
 C1804 C 0.29395 0.42864 0.76666
 C1805 C 0.28178 0.43311 0.76993
 C1806 C 0.27463 0.42680 0.77968
 C1807 C 0.26225 0.43166 0.78246
 C1808 C 0.25744 0.44253 0.77615
 C1809 C 0.26469 0.44891 0.76676
 C1810 C 0.27682 0.44401 0.76360
 H1811 H 0.31572 0.39841 0.77780
 H1812 H 0.28993 0.37855 0.81246
 H1813 H 0.32359 0.37975 0.78858
 H1814 H 0.27360 0.39449 0.81025
 H1815 H 0.26457 0.41283 0.80004
 H1816 H 0.30864 0.41520 0.76958
 H1817 H 0.29949 0.43347 0.75926
 H1818 H 0.25598 0.42737 0.78948
 H1819 H 0.24805 0.44606 0.77885
 H1820 H 0.28259 0.44889 0.75641
 C1821 C 0.28571 -0.10711 0.30825
 C1822 C 0.28962 -0.10113 0.29668
 C1823 C 0.30033 -0.10649 0.29019
 C1824 C 0.30673 -0.11738 0.29515
 C1825 C 0.30263 -0.12326 0.30658
 C1826 C 0.29211 -0.11790 0.31306
 C1827 C 0.30459 -0.10101 0.27873
 C1828 C 0.29828 -0.09053 0.27333
 C1829 C 0.28737 -0.08502 0.27920
 C1830 C 0.28320 -0.09015 0.29128
 C1831 C 0.27280 -0.08408 0.29756
 C1832 C 0.26657 -0.07352 0.29220
 C1833 C 0.27025 -0.06867 0.28027
 C1834 C 0.28059 -0.07442 0.27351
 C1835 C 0.28367 -0.06934 0.26127
 C1836 C 0.27716 -0.05870 0.25629
 C1837 C 0.26727 -0.05274 0.26322
 C1838 C 0.26373 -0.05794 0.27515
 H1839 H 0.27764 -0.10383 0.31380
 H1840 H 0.31483 -0.12133 0.28997
 H1841 H 0.28863 -0.12204 0.32194
 H1842 H 0.31290 -0.10493 0.27382
 H1843 H 0.30236 -0.08685 0.26456
 H1844 H 0.26930 -0.08712 0.30681
 H1845 H 0.25872 -0.06913 0.29745
 H1846 H 0.29107 -0.07331 0.25525
 H1847 H 0.28014 -0.05496 0.24704
 H1848 H 0.25613 -0.05342 0.28065
 C1849 C 0.80788 0.89366 0.78530
 C1850 C 0.79607 0.89928 0.78887
 C1851 C 0.78928 0.89345 0.79916
 C1852 C 0.79426 0.88254 0.80557
 C1853 C 0.80597 0.87697 0.80182
 C1854 C 0.81267 0.88278 0.79161
 C1855 C 0.77748 0.89848 0.80297
 C1856 C 0.77206 0.90896 0.79661
 C1857 C 0.77832 0.91499 0.78616
 C1858 C 0.79071 0.91034 0.78250
 C1859 C 0.79738 0.91698 0.77268
 C1860 C 0.79207 0.92760 0.76648
 C1861 C 0.77983 0.93196 0.76960
 C1862 C 0.77270 0.92566 0.77939
 C1863 C 0.76020 0.93033 0.78195
 C1864 C 0.75532 0.94109 0.77550
 C1865 C 0.76258 0.94756 0.76616
 C1866 C 0.77478 0.94277 0.76312
 H1867 H 0.81364 0.89727 0.77750
 H1868 H 0.78879 0.87833 0.81336
 H1869 H 0.82176 0.87904 0.78830
 H1870 H 0.77228 0.89419 0.81092
 H1871 H 0.76299 0.91223 0.80029
 H1872 H 0.80690 0.91437 0.76966
 H1873 H 0.79762 0.93244 0.75910
 H1874 H 0.75392 0.92593 0.78889
 H1875 H 0.74584 0.94451 0.77807
 H1876 H 0.78057 0.94771 0.75599
 C1877 C 0.44279 0.85710 0.28679
 C1878 C 0.45461 0.85151 0.29046
 C1879 C 0.46117 0.85716 0.30099
 C1880 C 0.45607 0.86801 0.30737
 C1881 C 0.44442 0.87353 0.30347
 C1882 C 0.43785 0.86785 0.29317
 C1883 C 0.47281 0.85199 0.30508
 C1884 C 0.47829 0.84149 0.29883
 C1885 C 0.47231 0.83566 0.28813
 C1886 C 0.46016 0.84061 0.28401
 C1887 C 0.45397 0.83451 0.27358
 C1888 C 0.45946 0.82408 0.26728
 C1889 C 0.47136 0.81929 0.27101
 C1890 C 0.47801 0.82498 0.28145
 C1891 C 0.49010 0.81966 0.28476
 C1892 C 0.49508 0.80900 0.27821
 C1893 C 0.48834 0.80331 0.26805
 C1894 C 0.47653 0.80866 0.26442
 H1895 H 0.43709 0.85351 0.27897
 H1896 H 0.46131 0.87220 0.31532
 H1897 H 0.42880 0.87166 0.28986
 H1898 H 0.47781 0.85616 0.31320
 H1899 H 0.48725 0.83815 0.30271
 H1900 H 0.44476 0.83750 0.27001
 H1901 H 0.45428 0.81970 0.25937
 H1902 H 0.49593 0.82341 0.29242
 H1903 H 0.50420 0.80507 0.28130
 H1904 H 0.47110 0.80428 0.25668
 C1905 C -0.03699 0.85570 0.80873
 C1906 C -0.04065 0.85013 0.79687
 C1907 C -0.05098 0.85597 0.79017
 C1908 C -0.05723 0.86694 0.79519
 C1909 C -0.05336 0.87244 0.80688
 C1910 C -0.04322 0.86661 0.81357
 C1911 C -0.05502 0.85089 0.77846
 C1912 C -0.04889 0.84029 0.77304
 C1913 C -0.03839 0.83423 0.77916
 C1914 C -0.03436 0.83908 0.79140
 C1915 C -0.02419 0.83271 0.79777
 C1916 C -0.01803 0.82215 0.79233
 C1917 C -0.02164 0.81749 0.78032
 C1918 C -0.03184 0.82343 0.77351
 C1919 C -0.03502 0.81826 0.76131
 C1920 C -0.02858 0.80752 0.75635
 C1921 C -0.01865 0.80157 0.76323
 C1922 C -0.01516 0.80676 0.77518
 H1923 H -0.02928 0.85198 0.81451
 H1924 H -0.06502 0.87128 0.78983
 H1925 H -0.03999 0.87042 0.82268
 H1926 H -0.06300 0.85521 0.77335
 H1927 H -0.05271 0.83703 0.76401
 H1928 H -0.02074 0.83557 0.80708
 H1929 H -0.01030 0.81759 0.79762
 H1930 H -0.04250 0.82220 0.75535
 H1931 H -0.03158 0.80372 0.74714
 H1932 H -0.00760 0.80221 0.78072
 C1933 C -0.05903 -0.10553 -0.03477
 C1934 C -0.04713 -0.10012 -0.03850
 C1935 C -0.04060 -0.10598 -0.04892
 C1936 C -0.04579 -0.11678 -0.05518
 C1937 C -0.05751 -0.12211 -0.05126
 C1938 C -0.06407 -0.11630 -0.04105
 C1939 C -0.02886 -0.10110 -0.05305
 C1940 C -0.02322 -0.09069 -0.04687
 C1941 C -0.02913 -0.08466 -0.03625
 C1942 C -0.04143 -0.08926 -0.03218
 C1943 C -0.04763 -0.08283 -0.02196
 C1944 C -0.04197 -0.07247 -0.01574
 C1945 C -0.02987 -0.06811 -0.01935
 C1946 C -0.02322 -0.07411 -0.02962
 C1947 C -0.01092 -0.06926 -0.03278
 C1948 C -0.00574 -0.05866 -0.02633
 C1949 C -0.01251 -0.05262 -0.01639
 C1950 C -0.02451 -0.05756 -0.01285
 H1951 H -0.06468 -0.10180 -0.02696
 H1952 H -0.04051 -0.12110 -0.06303
 H1953 H -0.07317 -0.12005 -0.03778
 H1954 H -0.02390 -0.10543 -0.06113
 H1955 H -0.01419 -0.08755 -0.05077
 H1956 H -0.05700 -0.08548 -0.01853
 H1957 H -0.04714 -0.06781 -0.00798
 H1958 H -0.00505 -0.07332 -0.04026
 H1959 H 0.00351 -0.05503 -0.02935
 H1960 H -0.02995 -0.05290 -0.00527
 C1961 C -0.03635 0.39308 0.44221
 C1962 C -0.03972 0.39836 0.45423
 C1963 C -0.04971 0.39225 0.46120
 C1964 C -0.05599 0.38131 0.45621
 C1965 C -0.05233 0.37602 0.44433
 C1966 C -0.04250 0.38221 0.43742
 C1967 C -0.05332 0.39701 0.47319
 C1968 C -0.04702 0.40749 0.47859
 C1969 C -0.03684 0.41375 0.47215
 C1970 C -0.03340 0.40936 0.45959
 C1971 C -0.02381 0.41616 0.45278
 C1972 C -0.01761 0.42670 0.45810
 C1973 C -0.02055 0.43085 0.47046
 C1974 C -0.03010 0.42439 0.47775
 C1975 C -0.03248 0.42888 0.49036
 C1976 C -0.02609 0.43964 0.49520
 C1977 C -0.01701 0.44625 0.48776
 C1978 C -0.01412 0.44162 0.47547
 H1979 H -0.02883 0.39693 0.43626
 H1980 H -0.06352 0.37680 0.46179
 H1981 H -0.03936 0.37880 0.42815
 H1982 H -0.06105 0.39251 0.47852
 H1983 H -0.05052 0.41056 0.48783
 H1984 H -0.02093 0.41374 0.44316
 H1985 H -0.01040 0.43167 0.45245
 H1986 H -0.03923 0.42435 0.49676
 H1987 H -0.02848 0.44294 0.50478
 H1988 H -0.00717 0.44668 0.46957
 C1989 C 0.46610 -0.10642 0.44057
 C1990 C 0.46221 -0.10057 0.45223
 C1991 C 0.45166 -0.10615 0.45876
 C1992 C 0.44531 -0.11697 0.45373
 C1993 C 0.44928 -0.12275 0.44218
 C1994 C 0.45978 -0.11727 0.43570
 C1995 C 0.44747 -0.10097 0.47037
 C1996 C 0.45368 -0.09054 0.47589
 C1997 C 0.46439 -0.08473 0.46994
 C1998 C 0.46848 -0.08954 0.45771
 C1999 C 0.47859 -0.08310 0.45135
 C2000 C 0.48466 -0.07249 0.45682
 C2001 C 0.48109 -0.06799 0.46892
 C2002 C 0.47100 -0.07411 0.47573
 C2003 C 0.46799 -0.06936 0.48811
 C2004 C 0.47432 -0.05869 0.49321
 C2005 C 0.48399 -0.05239 0.48628
 C2006 C 0.48745 -0.05723 0.47417
 H2007 H 0.47411 -0.10298 0.43503
 H2008 H 0.43732 -0.12090 0.45907
 H2009 H 0.46324 -0.12129 0.42677
 H2010 H 0.43930 -0.10510 0.47534
 H2011 H 0.44967 -0.08714 0.48479
 H2012 H 0.48194 -0.08587 0.44196
 H2013 H 0.49228 -0.06779 0.45151
 H2014 H 0.46079 -0.07363 0.49418
 H2015 H 0.47142 -0.05524 0.50259
 H2016 H 0.49485 -0.05242 0.46865
 C2017 C 0.46469 0.39320 -0.05870
 C2018 C 0.46106 0.39904 -0.04699
 C2019 C 0.45063 0.39348 -0.04023
 C2020 C 0.44411 0.38263 -0.04516
 C2021 C 0.44788 0.37687 -0.05680
 C2022 C 0.45827 0.38241 -0.06344
 C2023 C 0.44676 0.39875 -0.02853
 C2024 C 0.45316 0.40924 -0.02322
 C2025 C 0.46371 0.41505 -0.02948
 C2026 C 0.46750 0.41009 -0.04174
 C2027 C 0.47748 0.41645 -0.04841
 C2028 C 0.48364 0.42715 -0.04327
 C2029 C 0.48031 0.43189 -0.03121
 C2030 C 0.47043 0.42582 -0.02403
 C2031 C 0.46771 0.43084 -0.01168
 C2032 C 0.47400 0.44179 -0.00705
 C2033 C 0.48333 0.44811 -0.01444
 C2034 C 0.48663 0.44289 -0.02642
 H2035 H 0.47259 0.39659 -0.06443
 H2036 H 0.43619 0.37863 -0.03974
 H2037 H 0.46162 0.37852 -0.07246
 H2038 H 0.43871 0.39467 -0.02335
 H2039 H 0.44941 0.41273 -0.01423
 H2040 H 0.48066 0.41356 -0.05781
 H2041 H 0.49112 0.43178 -0.04885
 H2042 H 0.46074 0.42658 -0.00533
 H2043 H 0.47129 0.44549 0.00230
 H2044 H 0.49381 0.44766 -0.03227
 C2045 C 0.78721 0.35566 0.44153
 C2046 C 0.79029 0.35055 0.45376
 C2047 C 0.80012 0.35678 0.46083
 C2048 C 0.80641 0.36773 0.45582
 C2049 C 0.80307 0.37277 0.44376
 C2050 C 0.79348 0.36651 0.43669
 C2051 C 0.80362 0.35209 0.47289
 C2052 C 0.79746 0.34148 0.47825
 C2053 C 0.78744 0.33505 0.47175
 C2054 C 0.78393 0.33954 0.45920
 C2055 C 0.77421 0.33286 0.45250
 C2056 C 0.76812 0.32222 0.45780
 C2057 C 0.77133 0.31780 0.47002
 C2058 C 0.78094 0.32417 0.47726
 C2059 C 0.78366 0.31926 0.48969
 C2060 C 0.77756 0.30819 0.49436
 C2061 C 0.76839 0.30171 0.48695
 C2062 C 0.76513 0.30679 0.47489
 H2063 H 0.77995 0.35160 0.43541
 H2064 H 0.81380 0.37239 0.46146
 H2065 H 0.79070 0.36993 0.42728
 H2066 H 0.81123 0.35670 0.47829
 H2067 H 0.80088 0.33850 0.48755
 H2068 H 0.77109 0.33551 0.44300
 H2069 H 0.76081 0.31735 0.45221
 H2070 H 0.79057 0.32362 0.49602
 H2071 H 0.78027 0.30454 0.50373
 H2072 H 0.75811 0.30186 0.46898
 C2073 C 0.80709 0.85737 -0.03512
 C2074 C 0.79512 0.85206 -0.03869
 C2075 C 0.78856 0.85791 -0.04912
 C2076 C 0.79378 0.86866 -0.05551
 C2077 C 0.80557 0.87390 -0.05170
 C2078 C 0.81216 0.86805 -0.04150
 C2079 C 0.77677 0.85305 -0.05313
 C2080 C 0.77115 0.84266 -0.04686
 C2081 C 0.77712 0.83662 -0.03626
 C2082 C 0.78943 0.84124 -0.03226
 C2083 C 0.79566 0.83487 -0.02201
 C2084 C 0.79011 0.82440 -0.01584
 C2085 C 0.77809 0.81990 -0.01949
 C2086 C 0.77132 0.82598 -0.02964
 C2087 C 0.75904 0.82104 -0.03277
 C2088 C 0.75411 0.81016 -0.02655
 C2089 C 0.76110 0.80393 -0.01687
 C2090 C 0.77296 0.80909 -0.01320
 H2091 H 0.81281 0.85361 -0.02737
 H2092 H 0.78852 0.87300 -0.06337
 H2093 H 0.82134 0.87168 -0.03835
 H2094 H 0.77179 0.85737 -0.06120
 H2095 H 0.76210 0.83951 -0.05069
 H2096 H 0.80498 0.83761 -0.01853
 H2097 H 0.79535 0.81974 -0.00811
 H2098 H 0.75303 0.82524 -0.04007
 H2099 H 0.74490 0.80643 -0.02956
 H2100 H 0.77855 0.80435 -0.00577
 C2101 C 0.78740 0.30944 0.39306
 C2102 C 0.79043 0.29720 0.39832
 C2103 C 0.80015 0.28989 0.39214
 C2104 C 0.80640 0.29468 0.38113
 C2105 C 0.80315 0.30677 0.37598
 C2106 C 0.79365 0.31408 0.38216
 C2107 C 0.80360 0.27781 0.39694
 C2108 C 0.79751 0.27266 0.40764
 C2109 C 0.78761 0.27941 0.41403
 C2110 C 0.78415 0.29198 0.40943
 C2111 C 0.77460 0.29894 0.41614
 C2112 C 0.76868 0.29388 0.42698
 C2113 C 0.77185 0.28161 0.43150
 C2114 C 0.78120 0.27409 0.42500
 C2115 C 0.78376 0.26156 0.42982
 C2116 C 0.77781 0.25704 0.44094
 C2117 C 0.76898 0.26471 0.44763
 C2118 C 0.76584 0.27691 0.44267
 H2119 H 0.78020 0.31571 0.39706
 H2120 H 0.81370 0.28887 0.37652
 H2121 H 0.79094 0.32353 0.37864
 H2122 H 0.81112 0.27223 0.39237
 H2123 H 0.80096 0.26336 0.41074
 H2124 H 0.77152 0.30848 0.41338
 H2125 H 0.76153 0.29966 0.43188
 H2126 H 0.79035 0.25497 0.42531
 H2127 H 0.78036 0.24751 0.44443
 H2128 H 0.75902 0.28296 0.44773
 C2129 C 0.80813 0.78940 -0.10461
 C2130 C 0.79538 0.79102 -0.10033
 C2131 C 0.78751 0.79985 -0.10720
 C2132 C 0.79221 0.80634 -0.11816
 C2133 C 0.80473 0.80417 -0.12251
 C2134 C 0.81265 0.79584 -0.11543
 C2135 C 0.77498 0.80209 -0.10317
 C2136 C 0.76993 0.79556 -0.09265
 C2137 C 0.77721 0.78636 -0.08573
 C2138 C 0.79021 0.78418 -0.08952
 C2139 C 0.79760 0.77521 -0.08242
 C2140 C 0.79258 0.76873 -0.07189
 C2141 C 0.77996 0.77072 -0.06806
 C2142 C 0.77199 0.77939 -0.07501
 C2143 C 0.75915 0.78075 -0.07086
 C2144 C 0.75472 0.77438 -0.05991
 C2145 C 0.76281 0.76630 -0.05275
 C2146 C 0.77535 0.76425 -0.05711
 H2147 H 0.81493 0.78318 -0.09989
 H2148 H 0.78599 0.81284 -0.12346
 H2149 H 0.82250 0.79420 -0.11821
 H2150 H 0.76897 0.80897 -0.10822
 H2151 H 0.76023 0.79805 -0.09014
 H2152 H 0.80741 0.77295 -0.08468
 H2153 H 0.79870 0.76208 -0.06667
 H2154 H 0.75228 0.78677 -0.07573
 H2155 H 0.74494 0.77610 -0.05685
 H2156 H 0.78174 0.75806 -0.05166
 C2157 C 0.30756 0.46569 0.85582
 C2158 C 0.29589 0.46170 0.85015
 C2159 C 0.28936 0.45119 0.85595
 C2160 C 0.29435 0.44509 0.86698
 C2161 C 0.30586 0.44929 0.87257
 C2162 C 0.31239 0.45959 0.86678
 C2163 C 0.27784 0.44681 0.85076
 C2164 C 0.27247 0.45275 0.84006
 C2165 C 0.27843 0.46341 0.83402
 C2166 C 0.29045 0.46782 0.83903
 C2167 C 0.29664 0.47819 0.83274
 C2168 C 0.29128 0.48415 0.82207
 C2169 C 0.27950 0.48014 0.81721
 C2170 C 0.27285 0.46975 0.82309
 C2171 C 0.26089 0.46616 0.81771
 C2172 C 0.25602 0.47240 0.80683
 C2173 C 0.26276 0.48252 0.80095
 C2174 C 0.27446 0.48641 0.80634
 H2175 H 0.31322 0.47355 0.85214
 H2176 H 0.28911 0.43716 0.87127
 H2177 H 0.32135 0.46307 0.87066
 H2178 H 0.27286 0.43869 0.85506
 H2179 H 0.26360 0.44867 0.83671
 H2180 H 0.30575 0.48196 0.83575
 H2181 H 0.29644 0.49204 0.81756
 H2182 H 0.25506 0.45852 0.82159
 H2183 H 0.24700 0.46910 0.80289
 H2184 H 0.27989 0.49412 0.80186
 C2185 C 0.31046 -0.03775 0.35387
 C2186 C 0.29834 -0.04081 0.34866
 C2187 C 0.29111 -0.05061 0.35487
 C2188 C 0.29584 -0.05683 0.36595
 C2189 C 0.30779 -0.05346 0.37110
 C2190 C 0.31504 -0.04397 0.36481
 C2191 C 0.27917 -0.05414 0.35004
 C2192 C 0.27409 -0.04804 0.33930
 C2193 C 0.28075 -0.03802 0.33291
 C2194 C 0.29316 -0.03447 0.33756
 C2195 C 0.29999 -0.02471 0.33095
 C2196 C 0.29493 -0.01862 0.32021
 C2197 C 0.28283 -0.02186 0.31562
 C2198 C 0.27548 -0.03150 0.32196
 C2199 C 0.26314 -0.03419 0.31702
 C2200 C 0.25859 -0.02796 0.30606
 C2201 C 0.26605 -0.01875 0.29959
 C2202 C 0.27811 -0.01560 0.30459
 H2203 H 0.31671 -0.03056 0.34980
 H2204 H 0.29009 -0.06416 0.37065
 H2205 H 0.32441 -0.04122 0.36828
 H2206 H 0.27365 -0.06173 0.35464
 H2207 H 0.26489 -0.05152 0.33620
 H2208 H 0.30937 -0.02150 0.33377
 H2209 H 0.30058 -0.01125 0.31544
 H2210 H 0.25673 -0.04109 0.32133
 H2211 H 0.24919 -0.03059 0.30252
 H2212 H 0.28401 -0.00851 0.29970
 C2213 C -0.05915 -0.03736 -0.10408
 C2214 C -0.04732 -0.04113 -0.09862
 C2215 C -0.04059 -0.05140 -0.10461
 C2216 C -0.04564 -0.05760 -0.11553
 C2217 C -0.05733 -0.05358 -0.12099
 C2218 C -0.06398 -0.04342 -0.11500
 C2219 C -0.02877 -0.05536 -0.09975
 C2220 C -0.02332 -0.04923 -0.08922
 C2221 C -0.02956 -0.03888 -0.08296
 C2222 C -0.04191 -0.03496 -0.08756
 C2223 C -0.04845 -0.02505 -0.08092
 C2224 C -0.04308 -0.01898 -0.07036
 C2225 C -0.03096 -0.02245 -0.06595
 C2226 C -0.02396 -0.03239 -0.07216
 C2227 C -0.01164 -0.03539 -0.06725
 C2228 C -0.00677 -0.02907 -0.05645
 C2229 C -0.01388 -0.01943 -0.05022
 C2230 C -0.02592 -0.01609 -0.05517
 H2231 H -0.06492 -0.02962 -0.10030
 H2232 H -0.04021 -0.06535 -0.11991
 H2233 H -0.07308 -0.04002 -0.11861
 H2234 H -0.02359 -0.06325 -0.10423
 H2235 H -0.01418 -0.05295 -0.08616
 H2236 H -0.05789 -0.02177 -0.08353
 H2237 H -0.04851 -0.01146 -0.06557
 H2238 H -0.00551 -0.04261 -0.07146
 H2239 H 0.00256 -0.03190 -0.05286
 H2240 H -0.03161 -0.00872 -0.05044
 C2241 C -0.06038 0.46432 0.39574
 C2242 C -0.04892 0.46021 0.40179
 C2243 C -0.04230 0.44967 0.39617
 C2244 C -0.04709 0.44351 0.38512
 C2245 C -0.05848 0.44767 0.37916
 C2246 C -0.06499 0.45820 0.38468
 C2247 C -0.03087 0.44528 0.40157
 C2248 C -0.02566 0.45125 0.41229
 C2249 C -0.03174 0.46190 0.41822
 C2250 C -0.04374 0.46624 0.41310
 C2251 C -0.05018 0.47637 0.41953
 C2252 C -0.04504 0.48218 0.43041
 C2253 C -0.03320 0.47831 0.43531
 C2254 C -0.02630 0.46821 0.42921
 C2255 C -0.01419 0.46489 0.43438
 C2256 C -0.00944 0.47096 0.44535
 C2257 C -0.01644 0.48067 0.45160
 C2258 C -0.02829 0.48441 0.44638
 H2259 H -0.06597 0.47234 0.39920
 H2260 H -0.04171 0.43551 0.38117
 H2261 H -0.07379 0.46184 0.38053
 H2262 H -0.02582 0.43714 0.39740
 H2263 H -0.01688 0.44710 0.41582
 H2264 H -0.05939 0.47994 0.41650
 H2265 H -0.05040 0.48986 0.43503
 H2266 H -0.00807 0.45765 0.43020
 H2267 H -0.00023 0.46784 0.44903
 H2268 H -0.03386 0.49188 0.45108
 C2269 C 0.44136 -0.03800 0.39694
 C2270 C 0.45364 -0.04088 0.40193
 C2271 C 0.46084 -0.05068 0.39567
 C2272 C 0.45599 -0.05695 0.38468
 C2273 C 0.44395 -0.05365 0.37966
 C2274 C 0.43667 -0.04426 0.38607
 C2275 C 0.47287 -0.05412 0.40037
 C2276 C 0.47806 -0.04795 0.41102
 C2277 C 0.47145 -0.03790 0.41741
 C2278 C 0.45898 -0.03439 0.41286
 C2279 C 0.45228 -0.02447 0.41936
 C2280 C 0.45747 -0.01827 0.42996
 C2281 C 0.46958 -0.02156 0.43453
 C2282 C 0.47683 -0.03132 0.42828
 C2283 C 0.48917 -0.03408 0.43323
 C2284 C 0.49381 -0.02779 0.44414
 C2285 C 0.48644 -0.01843 0.45050
 C2286 C 0.47440 -0.01522 0.44546
 H2287 H 0.43507 -0.03092 0.40113
 H2288 H 0.46174 -0.06423 0.37990
 H2289 H 0.42721 -0.04164 0.38273
 H2290 H 0.47837 -0.06169 0.39575
 H2291 H 0.48734 -0.05136 0.41401
 H2292 H 0.44292 -0.02118 0.41652
 H2293 H 0.45191 -0.01077 0.43464
 H2294 H 0.49549 -0.04112 0.42901
 H2295 H 0.50318 -0.03049 0.44773
 H2296 H 0.46854 -0.00804 0.45029
 C2297 C 0.44105 0.46684 -0.10745
 C2298 C 0.45262 0.46292 -0.10149
 C2299 C 0.45907 0.45209 -0.10676
 C2300 C 0.45409 0.44558 -0.11749
 C2301 C 0.44266 0.44963 -0.12332
 C2302 C 0.43620 0.46030 -0.11813
 C2303 C 0.47050 0.44775 -0.10134
 C2304 C 0.47589 0.45408 -0.09093
 C2305 C 0.47005 0.46509 -0.08546
 C2306 C 0.45804 0.46938 -0.09059
 C2307 C 0.45181 0.47989 -0.08457
 C2308 C 0.45709 0.48601 -0.07395
 C2309 C 0.46890 0.48212 -0.06901
 C2310 C 0.47568 0.47178 -0.07483
 C2311 C 0.48784 0.46856 -0.06971
 C2312 C 0.49261 0.47479 -0.05885
 C2313 C 0.48556 0.48454 -0.05272
 C2314 C 0.47383 0.48837 -0.05808
 H2315 H 0.43553 0.47501 -0.10422
 H2316 H 0.45928 0.43738 -0.12131
 H2317 H 0.42734 0.46372 -0.12230
 H2318 H 0.47537 0.43935 -0.10520
 H2319 H 0.48461 0.44991 -0.08726
 H2320 H 0.44266 0.48353 -0.08768
 H2321 H 0.45185 0.49390 -0.06955
 H2322 H 0.49393 0.46125 -0.07381
 H2323 H 0.50178 0.47169 -0.05507
 H2324 H 0.46826 0.49592 -0.05349
 C2325 C 0.43995 0.78607 0.35461
 C2326 C 0.45199 0.78945 0.34930
 C2327 C 0.45906 0.79931 0.35555
 C2328 C 0.45420 0.80544 0.36657
 C2329 C 0.44229 0.80193 0.37173
 C2330 C 0.43525 0.79220 0.36560
 C2331 C 0.47098 0.80304 0.35082
 C2332 C 0.47625 0.79705 0.34014
 C2333 C 0.46975 0.78703 0.33365
 C2334 C 0.45729 0.78336 0.33811
 C2335 C 0.45053 0.77378 0.33121
 C2336 C 0.45578 0.76789 0.32044
 C2337 C 0.46800 0.77115 0.31614
 C2338 C 0.47523 0.78066 0.32273
 C2339 C 0.48769 0.78339 0.31809
 C2340 C 0.49249 0.77730 0.30716
 C2341 C 0.48517 0.76818 0.30046
 C2342 C 0.47296 0.76503 0.30514
 H2343 H 0.43393 0.77866 0.35061
 H2344 H 0.45986 0.81286 0.37118
 H2345 H 0.42598 0.78927 0.36922
 H2346 H 0.47637 0.81067 0.35547
 H2347 H 0.48544 0.80067 0.33714
 H2348 H 0.44104 0.77068 0.33379
 H2349 H 0.45018 0.76065 0.31544
 H2350 H 0.49403 0.79019 0.32262
 H2351 H 0.50197 0.77996 0.30385
 H2352 H 0.46715 0.75802 0.30006
 C2353 C -0.03492 0.81075 0.85601
 C2354 C -0.03909 0.79943 0.84963
 C2355 C -0.04984 0.79288 0.85483
 C2356 C -0.05605 0.79752 0.86585
 C2357 C -0.05180 0.80872 0.87207
 C2358 C -0.04118 0.81527 0.86700
 C2359 C -0.05440 0.78167 0.84904
 C2360 C -0.04839 0.77658 0.83832
 C2361 C -0.03747 0.78251 0.83289
 C2362 C -0.03295 0.79434 0.83839
 C2363 C -0.02254 0.80068 0.83242
 C2364 C -0.01667 0.79562 0.82154
 C2365 C -0.02072 0.78393 0.81629
 C2366 C -0.03105 0.77711 0.82200
 C2367 C -0.03449 0.76507 0.81661
 C2368 C -0.02834 0.76034 0.80574
 C2369 C -0.01846 0.76732 0.79980
 C2370 C -0.01457 0.77906 0.80527
 H2371 H -0.02678 0.81631 0.85287
 H2372 H -0.06419 0.79225 0.86959
 H2373 H -0.03758 0.82395 0.87149
 H2374 H -0.06273 0.77673 0.85286
 H2375 H -0.05273 0.76802 0.83440
 H2376 H -0.01877 0.80974 0.83580
 H2377 H -0.00878 0.80089 0.81724
 H2378 H -0.04184 0.75895 0.82056
 H2379 H -0.03153 0.75117 0.80188
 H2380 H -0.00692 0.78456 0.80081
 C2381 C 0.39598 0.78839 0.30753
 C2382 C 0.40134 0.79200 0.29559
 C2383 C 0.39534 0.80222 0.28875
 C2384 C 0.38420 0.80821 0.29360
 C2385 C 0.37886 0.80422 0.30532
 C2386 C 0.38503 0.79439 0.31225
 C2387 C 0.40045 0.80639 0.27709
 C2388 C 0.41131 0.80056 0.27195
 C2389 C 0.41747 0.79015 0.27823
 C2390 C 0.41241 0.78582 0.29027
 C2391 C 0.41852 0.77538 0.29656
 C2392 C 0.42922 0.76943 0.29138
 C2393 C 0.43431 0.77355 0.27973
 C2394 C 0.42855 0.78393 0.27291
 C2395 C 0.43421 0.78763 0.26110
 C2396 C 0.44522 0.78149 0.25651
 C2397 C 0.45093 0.77137 0.26342
 C2398 C 0.44529 0.76737 0.27496
 H2399 H 0.39997 0.78097 0.31358
 H2400 H 0.37965 0.81587 0.28815
 H2401 H 0.38150 0.79117 0.32146
 H2402 H 0.39601 0.81428 0.27186
 H2403 H 0.41460 0.80447 0.26295
 H2404 H 0.41527 0.77144 0.30555
 H2405 H 0.43357 0.76148 0.29660
 H2406 H 0.43048 0.79530 0.25518
 H2407 H 0.44937 0.78483 0.24756
 H2408 H 0.44964 0.75963 0.28048
 C2409 C -0.10538 0.78644 0.80832
 C2410 C -0.10013 0.78964 0.79619
 C2411 C -0.10627 0.79953 0.78902
 C2412 C -0.11727 0.80573 0.79380
 C2413 C -0.12246 0.80223 0.80573
 C2414 C -0.11630 0.79263 0.81294
 C2415 C -0.10147 0.80316 0.77706
 C2416 C -0.09086 0.79700 0.77186
 C2417 C -0.08457 0.78687 0.77844
 C2418 C -0.08913 0.78330 0.79093
 C2419 C -0.08254 0.77351 0.79773
 C2420 C -0.07199 0.76730 0.79252
 C2421 C -0.06759 0.77048 0.78030
 C2422 C -0.07380 0.78025 0.77302
 C2423 C -0.06892 0.78295 0.76060
 C2424 C -0.05812 0.77656 0.75591
 C2425 C -0.05186 0.76716 0.76331
 C2426 C -0.05680 0.76404 0.77543
 H2427 H -0.10140 0.77913 0.81451
 H2428 H -0.12189 0.81313 0.78807
 H2429 H -0.11985 0.78979 0.82229
 H2430 H -0.10601 0.81083 0.77160
 H2431 H -0.08780 0.80050 0.76262
 H2432 H -0.08521 0.77040 0.80722
 H2433 H -0.06722 0.75990 0.79815
 H2434 H -0.07312 0.79000 0.75426
 H2435 H -0.05452 0.77922 0.74651
 H2436 H -0.05201 0.75685 0.78132
 C2437 C 0.85816 0.28489 0.44179
 C2438 C 0.85303 0.28793 0.45399
 C2439 C 0.85907 0.29792 0.46108
 C2440 C 0.86992 0.30433 0.45614
 C2441 C 0.87500 0.30096 0.44412
 C2442 C 0.86888 0.29128 0.43700
 C2443 C 0.85430 0.30144 0.47308
 C2444 C 0.84379 0.29514 0.47837
 C2445 C 0.83759 0.28494 0.47184
 C2446 C 0.84219 0.28140 0.45937
 C2447 C 0.83579 0.27144 0.45267
 C2448 C 0.82528 0.26517 0.45789
 C2449 C 0.82073 0.26843 0.47003
 C2450 C 0.82684 0.27825 0.47728
 C2451 C 0.82182 0.28099 0.48963
 C2452 C 0.81090 0.27469 0.49421
 C2453 C 0.80468 0.26532 0.48678
 C2454 C 0.80986 0.26205 0.47480
 H2455 H 0.85421 0.27757 0.43562
 H2456 H 0.87447 0.31181 0.46178
 H2457 H 0.87230 0.28851 0.42761
 H2458 H 0.85875 0.30918 0.47849
 H2459 H 0.84071 0.29859 0.48762
 H2460 H 0.83856 0.26823 0.44325
 H2461 H 0.82063 0.25768 0.45231
 H2462 H 0.82598 0.28806 0.49596
 H2463 H 0.80716 0.27743 0.50353
 H2464 H 0.80513 0.25487 0.46889
 C2465 C 0.85516 0.78520 -0.05927
 C2466 C 0.84954 0.78908 -0.04750
 C2467 C 0.85535 0.79950 -0.04087
 C2468 C 0.86627 0.80564 -0.04586
 C2469 C 0.87175 0.80165 -0.05750
 C2470 C 0.86603 0.79138 -0.06413
 C2471 C 0.85028 0.80379 -0.02925
 C2472 C 0.83961 0.79790 -0.02389
 C2473 C 0.83351 0.78737 -0.02997
 C2474 C 0.83844 0.78300 -0.04206
 C2475 C 0.83208 0.77275 -0.04833
 C2476 C 0.82132 0.76695 -0.04303
 C2477 C 0.81648 0.77101 -0.03123
 C2478 C 0.82253 0.78119 -0.02444
 C2479 C 0.81724 0.78478 -0.01242
 C2480 C 0.80617 0.77889 -0.00769
 C2481 C 0.80004 0.76910 -0.01463
 C2482 C 0.80542 0.76506 -0.02631
 H2483 H 0.85146 0.77739 -0.06499
 H2484 H 0.87050 0.81351 -0.04051
 H2485 H 0.86991 0.78804 -0.07317
 H2486 H 0.85462 0.81184 -0.02420
 H2487 H 0.83634 0.80195 -0.01496
 H2488 H 0.83508 0.76900 -0.05749
 H2489 H 0.81672 0.75918 -0.04826
 H2490 H 0.82132 0.79217 -0.00641
 H2491 H 0.80228 0.78220 0.00138
 H2492 H 0.80077 0.75753 -0.03184
 C2493 C -0.10494 -0.03622 -0.05834
 C2494 C -0.09914 -0.04033 -0.04676
 C2495 C -0.10484 -0.05085 -0.04014
 C2496 C -0.11594 -0.05680 -0.04493
 C2497 C -0.12165 -0.05246 -0.05632
 C2498 C -0.11594 -0.04218 -0.06298
 C2499 C -0.09947 -0.05537 -0.02873
 C2500 C -0.08868 -0.04956 -0.02357
 C2501 C -0.08276 -0.03890 -0.02963
 C2502 C -0.08797 -0.03433 -0.04153
 C2503 C -0.08185 -0.02391 -0.04780
 C2504 C -0.07110 -0.01807 -0.04264
 C2505 C -0.06601 -0.02228 -0.03102
 C2506 C -0.07175 -0.03270 -0.02427
 C2507 C -0.06619 -0.03643 -0.01242
 C2508 C -0.05524 -0.03033 -0.00777
 C2509 C -0.04950 -0.02022 -0.01464
 C2510 C -0.05506 -0.01617 -0.02620
 H2511 H -0.10134 -0.02838 -0.06409
 H2512 H -0.12016 -0.06475 -0.03965
 H2513 H -0.11992 -0.03858 -0.07187
 H2514 H -0.10370 -0.06350 -0.02370
 H2515 H -0.08519 -0.05375 -0.01477
 H2516 H -0.08505 -0.01997 -0.05681
 H2517 H -0.06672 -0.01012 -0.04783
 H2518 H -0.06998 -0.04405 -0.00649
 H2519 H -0.05116 -0.03369 0.00120
 H2520 H -0.05070 -0.00840 -0.03167
 C2521 C -0.10514 0.46273 0.44220
 C2522 C -0.09965 0.45903 0.45407
 C2523 C -0.10538 0.44852 0.46071
 C2524 C -0.11627 0.44226 0.45570
 C2525 C -0.12173 0.44627 0.44404
 C2526 C -0.11589 0.45646 0.43733
 C2527 C -0.10026 0.44436 0.47237
 C2528 C -0.08975 0.45053 0.47777
 C2529 C -0.08388 0.46124 0.47172
 C2530 C -0.08876 0.46541 0.45955
 C2531 C -0.08259 0.47581 0.45327
 C2532 C -0.07206 0.48194 0.45864
 C2533 C -0.06729 0.47813 0.47054
 C2534 C -0.07318 0.46783 0.47735
 C2535 C -0.06808 0.46459 0.48954
 C2536 C -0.05733 0.47091 0.49441
 C2537 C -0.05129 0.48079 0.48744
 C2538 C -0.05649 0.48448 0.47558
 H2539 H -0.10147 0.47051 0.43641
 H2540 H -0.12060 0.43439 0.46102
 H2541 H -0.11960 0.45975 0.42821
 H2542 H -0.10446 0.43623 0.47742
 H2543 H -0.08639 0.44654 0.48671
 H2544 H -0.08557 0.47947 0.44406
 H2545 H -0.06763 0.48982 0.45339
 H2546 H -0.07209 0.45717 0.49557
 H2547 H -0.05360 0.46783 0.50363
 H2548 H -0.05193 0.49208 0.47004
 C2549 C 0.39565 -0.03522 0.44141
 C2550 C 0.40154 -0.03935 0.45294
 C2551 C 0.39602 -0.05005 0.45941
 C2552 C 0.38512 -0.05628 0.45445
 C2553 C 0.37928 -0.05199 0.44305
 C2554 C 0.38479 -0.04139 0.43662
 C2555 C 0.40135 -0.05451 0.47086
 C2556 C 0.41188 -0.04842 0.47625
 C2557 C 0.41762 -0.03756 0.47035
 C2558 C 0.41260 -0.03318 0.45831
 C2559 C 0.41885 -0.02283 0.45203
 C2560 C 0.42949 -0.01685 0.45736
 C2561 C 0.43428 -0.02078 0.46923
 C2562 C 0.42835 -0.03108 0.47599
 C2563 C 0.43341 -0.03441 0.48817
 C2564 C 0.44419 -0.02821 0.49307
 C2565 C 0.45031 -0.01836 0.48614
 C2566 C 0.44514 -0.01455 0.47429
 H2567 H 0.39906 -0.02712 0.43589
 H2568 H 0.38117 -0.06438 0.45970
 H2569 H 0.38079 -0.03768 0.42779
 H2570 H 0.39727 -0.06278 0.47578
 H2571 H 0.41540 -0.05263 0.48503
 H2572 H 0.41588 -0.01918 0.44281
 H2573 H 0.43399 -0.00901 0.45212
 H2574 H 0.42929 -0.04177 0.49420
 H2575 H 0.44786 -0.03134 0.50229
 H2576 H 0.44975 -0.00695 0.46880
 C2577 C 0.39339 0.44298 -0.03578
 C2578 C 0.39903 0.45492 -0.03911
 C2579 C 0.39340 0.46200 -0.04933
 C2580 C 0.38262 0.45720 -0.05590
 C2581 C 0.37700 0.44538 -0.05234
 C2582 C 0.38266 0.43837 -0.04223
 C2583 C 0.39851 0.47391 -0.05292
 C2584 C 0.40889 0.47913 -0.04642
 C2585 C 0.41472 0.47256 -0.03603
 C2586 C 0.40995 0.46007 -0.03257
 C2587 C 0.41634 0.45311 -0.02278
 C2588 C 0.42694 0.45816 -0.01653
 C2589 C 0.43151 0.47042 -0.01956
 C2590 C 0.42536 0.47792 -0.02918
 C2591 C 0.43017 0.49047 -0.03156
 C2592 C 0.44108 0.49496 -0.02527
 C2593 C 0.44752 0.48723 -0.01628
 C2594 C 0.44245 0.47508 -0.01322
 H2595 H 0.39686 0.43697 -0.02808
 H2596 H 0.37852 0.46287 -0.06362
 H2597 H 0.37893 0.42915 -0.03911
 H2598 H 0.39438 0.47932 -0.06084
 H2599 H 0.41228 0.48829 -0.04996
 H2600 H 0.41358 0.44353 -0.01984
 H2601 H 0.43163 0.45235 -0.00922
 H2602 H 0.42581 0.49707 -0.03826
 H2603 H 0.44467 0.50447 -0.02775
 H2604 H 0.44734 0.46898 -0.00629
 C2605 C 0.35559 0.44086 0.78488
 C2606 C 0.34965 0.45244 0.78905
 C2607 C 0.35526 0.45896 0.79961
 C2608 C 0.36631 0.45405 0.80561
 C2609 C 0.37210 0.44260 0.80133
 C2610 C 0.36657 0.43608 0.79092
 C2611 C 0.34985 0.47038 0.80418
 C2612 C 0.33904 0.47564 0.79843
 C2613 C 0.33314 0.46967 0.78778
 C2614 C 0.33843 0.45779 0.78309
 C2615 C 0.33234 0.45166 0.77263
 C2616 C 0.32156 0.45695 0.76685
 C2617 C 0.31638 0.46857 0.77119
 C2618 C 0.32206 0.47515 0.78169
 C2619 C 0.31637 0.48693 0.78563
 C2620 C 0.30543 0.49176 0.77958
 C2621 C 0.29979 0.48514 0.76930
 C2622 C 0.30542 0.47357 0.76511
 H2623 H 0.35207 0.43524 0.77694
 H2624 H 0.37039 0.45930 0.81361
 H2625 H 0.37068 0.42720 0.78734
 H2626 H 0.35404 0.47537 0.81231
 H2627 H 0.33554 0.48444 0.80267
 H2628 H 0.33561 0.44265 0.76864
 H2629 H 0.31722 0.45186 0.75886
 H2630 H 0.32004 0.49269 0.79340
 H2631 H 0.30130 0.50069 0.78309
 H2632 H 0.30113 0.46826 0.75724
 C2633 C 0.35508 -0.03593 0.30862
 C2634 C 0.34973 -0.03985 0.29675
 C2635 C 0.35572 -0.05024 0.29022
 C2636 C 0.36670 -0.05621 0.29532
 C2637 C 0.37201 -0.05202 0.30696
 C2638 C 0.36600 -0.04191 0.31357
 C2639 C 0.35080 -0.05462 0.27857
 C2640 C 0.34017 -0.04877 0.27306
 C2641 C 0.33398 -0.03820 0.27899
 C2642 C 0.33874 -0.03377 0.29112
 C2643 C 0.33239 -0.02337 0.29720
 C2644 C 0.32185 -0.01744 0.29163
 C2645 C 0.31718 -0.02155 0.27980
 C2646 C 0.32314 -0.03195 0.27324
 C2647 C 0.31793 -0.03564 0.26122
 C2648 C 0.30710 -0.02951 0.25621
 C2649 C 0.30116 -0.01940 0.26288
 C2650 C 0.30640 -0.01537 0.27460
 H2651 H 0.35117 -0.02823 0.31435
 H2652 H 0.37120 -0.06400 0.29005
 H2653 H 0.36968 -0.03854 0.32268
 H2654 H 0.35527 -0.06265 0.27360
 H2655 H 0.33704 -0.05284 0.26408
 H2656 H 0.33528 -0.01953 0.30634
 H2657 H 0.31730 -0.00951 0.29669
 H2658 H 0.32188 -0.04329 0.25545
 H2659 H 0.30326 -0.03288 0.24715
 H2660 H 0.30186 -0.00762 0.27994
 C2661 C 0.14324 0.55809 0.71427
 C2662 C 0.14878 0.54611 0.71081
 C2663 C 0.14285 0.53906 0.70076
 C2664 C 0.13180 0.54384 0.69462
 C2665 C 0.12638 0.55568 0.69829
 C2666 C 0.13231 0.56273 0.70813
 C2667 C 0.14796 0.52724 0.69687
 C2668 C 0.15876 0.52214 0.70280
 C2669 C 0.16494 0.52867 0.71298
 C2670 C 0.15994 0.54092 0.71697
 C2671 C 0.16627 0.54759 0.72695
 C2672 C 0.17711 0.54256 0.73282
 C2673 C 0.18207 0.53065 0.72910
 C2674 C 0.17605 0.52344 0.71921
 C2675 C 0.18149 0.51133 0.71596
 C2676 C 0.19263 0.50689 0.72194
 C2677 C 0.19869 0.51423 0.73147
 C2678 C 0.19320 0.52602 0.73513
 H2679 H 0.14705 0.56419 0.72171
 H2680 H 0.12738 0.53823 0.68705
 H2681 H 0.12858 0.57197 0.71120
 H2682 H 0.14354 0.52184 0.68913
 H2683 H 0.16205 0.51303 0.69908
 H2684 H 0.16318 0.55685 0.73049
 H2685 H 0.18168 0.54811 0.74036
 H2686 H 0.17748 0.50505 0.70877
 H2687 H 0.19661 0.49771 0.71891
 H2688 H 0.19781 0.53186 0.74243
 C2689 C 0.14459 0.03395 0.19220
 C2690 C 0.14998 0.03747 0.20416
 C2691 C 0.14423 0.04785 0.21092
 C2692 C 0.13343 0.05420 0.20592
 C2693 C 0.12808 0.05038 0.19418
 C2694 C 0.13387 0.04030 0.18735
 C2695 C 0.14922 0.05184 0.22267
 C2696 C 0.15969 0.04560 0.22806
 C2697 C 0.16562 0.03502 0.22188
 C2698 C 0.16080 0.03101 0.20963
 C2699 C 0.16698 0.02071 0.20324
 C2700 C 0.17748 0.01453 0.20856
 C2701 C 0.18221 0.01823 0.22048
 C2702 C 0.17633 0.02842 0.22743
 C2703 C 0.18152 0.03160 0.23959
 C2704 C 0.19246 0.02538 0.24424
 C2705 C 0.19847 0.01568 0.23705
 C2706 C 0.19307 0.01195 0.22532
 H2707 H 0.14830 0.02628 0.18630
 H2708 H 0.12911 0.06199 0.21134
 H2709 H 0.13018 0.03719 0.17816
 H2710 H 0.14497 0.05989 0.22779
 H2711 H 0.16296 0.04942 0.23709
 H2712 H 0.16404 0.01717 0.19399
 H2713 H 0.18198 0.00676 0.20321
 H2714 H 0.17752 0.03894 0.24572
 H2715 H 0.19638 0.02844 0.25337
 H2716 H 0.19765 0.00449 0.21962
 C2717 C 0.60790 0.71780 0.19217
 C2718 C 0.60197 0.71350 0.20366
 C2719 C 0.60737 0.70259 0.20989
 C2720 C 0.61821 0.69641 0.20482
 C2721 C 0.62403 0.70085 0.19350
 C2722 C 0.61871 0.71158 0.18724
 C2723 C 0.60196 0.69786 0.22119
 C2724 C 0.59136 0.70379 0.22663
 C2725 C 0.58568 0.71480 0.22097
 C2726 C 0.59097 0.71964 0.20920
 C2727 C 0.58505 0.73042 0.20333
 C2728 C 0.57439 0.73629 0.20873
 C2729 C 0.56920 0.73176 0.22021
 C2730 C 0.57478 0.72102 0.22659
 C2731 C 0.56911 0.71696 0.23830
 C2732 C 0.55813 0.72297 0.24309
 C2733 C 0.55248 0.73333 0.23653
 C2734 C 0.55825 0.73781 0.22520
 H2735 H 0.60451 0.72598 0.18675
 H2736 H 0.62211 0.68814 0.20986
 H2737 H 0.62287 0.71527 0.17846
 H2738 H 0.60598 0.68944 0.22592
 H2739 H 0.58781 0.69939 0.23530
 H2740 H 0.58835 0.73457 0.19445
 H2741 H 0.57012 0.74447 0.20380
 H2742 H 0.57280 0.70909 0.24397
 H2743 H 0.55392 0.71930 0.25188
 H2744 H 0.55396 0.74577 0.21995
 C2745 C 0.10555 0.71627 0.69149
 C2746 C 0.10026 0.71273 0.70353
 C2747 C 0.10635 0.70259 0.71038
 C2748 C 0.11724 0.69637 0.70532
 C2749 C 0.12242 0.70007 0.69342
 C2750 C 0.11639 0.71005 0.68659
 C2751 C 0.10160 0.69870 0.72229
 C2752 C 0.09104 0.70476 0.72773
 C2753 C 0.08468 0.71502 0.72143
 C2754 C 0.08922 0.71892 0.70902
 C2755 C 0.08255 0.72882 0.70248
 C2756 C 0.07190 0.73478 0.70784
 C2757 C 0.06746 0.73124 0.71997
 C2758 C 0.07380 0.72140 0.72703
 C2759 C 0.06889 0.71833 0.73936
 C2760 C 0.05788 0.72437 0.74414
 C2761 C 0.05144 0.73381 0.73694
 C2762 C 0.05649 0.73735 0.72494
 H2763 H 0.10165 0.72386 0.68560
 H2764 H 0.12173 0.68872 0.71081
 H2765 H 0.12000 0.71314 0.67735
 H2766 H 0.10614 0.69086 0.72752
 H2767 H 0.08802 0.70103 0.73690
 H2768 H 0.08520 0.73216 0.69305
 H2769 H 0.06704 0.74225 0.70237
 H2770 H 0.07323 0.71123 0.74556
 H2771 H 0.05427 0.72142 0.75345
 H2772 H 0.05161 0.74457 0.71918
 C2773 C 0.64694 0.21343 0.55723
 C2774 C 0.65227 0.20998 0.54521
 C2775 C 0.64619 0.19992 0.53826
 C2776 C 0.63517 0.19379 0.54317
 C2777 C 0.62990 0.19753 0.55500
 C2778 C 0.63601 0.20732 0.56197
 C2779 C 0.65109 0.19605 0.52642
 C2780 C 0.66177 0.20205 0.52114
 C2781 C 0.66807 0.21228 0.52753
 C2782 C 0.66333 0.21620 0.53985
 C2783 C 0.66980 0.22622 0.54639
 C2784 C 0.68042 0.23227 0.54111
 C2785 C 0.68508 0.22868 0.52910
 C2786 C 0.67899 0.21868 0.52207
 C2787 C 0.68417 0.21552 0.50988
 C2788 C 0.69508 0.22175 0.50515
 C2789 C 0.70118 0.23145 0.51226
 C2790 C 0.69596 0.23496 0.52418
 H2791 H 0.65090 0.22086 0.56327
 H2792 H 0.63061 0.18623 0.53762
 H2793 H 0.63242 0.21038 0.57122
 H2794 H 0.64657 0.18828 0.52110
 H2795 H 0.66487 0.19838 0.51199
 H2796 H 0.66695 0.22966 0.55571
 H2797 H 0.68506 0.23988 0.54654
 H2798 H 0.68013 0.20820 0.50377
 H2799 H 0.69887 0.21876 0.49593
 H2800 H 0.70060 0.24237 0.52988
 C2801 C 0.64286 0.71674 0.05837
 C2802 C 0.64897 0.71238 0.04701
 C2803 C 0.64359 0.70153 0.04071
 C2804 C 0.63263 0.69544 0.04560
 C2805 C 0.62666 0.69990 0.05683
 C2806 C 0.63194 0.71059 0.06315
 C2807 C 0.64915 0.69677 0.02950
 C2808 C 0.65985 0.70263 0.02422
 C2809 C 0.66550 0.71359 0.02994
 C2810 C 0.66011 0.71843 0.04166
 C2811 C 0.66606 0.72910 0.04763
 C2812 C 0.67679 0.73495 0.04233
 C2813 C 0.68200 0.73051 0.03082
 C2814 C 0.67644 0.71982 0.02441
 C2815 C 0.68210 0.71582 0.01269
 C2816 C 0.69295 0.72196 0.00783
 C2817 C 0.69852 0.73237 0.01433
 C2818 C 0.69289 0.73667 0.02579
 H2819 H 0.64619 0.72491 0.06381
 H2820 H 0.62875 0.68721 0.04051
 H2821 H 0.62766 0.71431 0.07185
 H2822 H 0.64514 0.68839 0.02471
 H2823 H 0.66350 0.69820 0.01561
 H2824 H 0.66273 0.73318 0.05653
 H2825 H 0.68106 0.74308 0.04731
 H2826 H 0.67846 0.70795 0.00701
 H2827 H 0.69708 0.71838 -0.00103
 H2828 H 0.69715 0.74466 0.03100
 C2829 C 0.10652 0.03446 0.05874
 C2830 C 0.10067 0.03849 0.04712
 C2831 C 0.10627 0.04907 0.04054
 C2832 C 0.11718 0.05527 0.04546
 C2833 C 0.12285 0.05116 0.05698
 C2834 C 0.11738 0.04069 0.06353
 C2835 C 0.10100 0.05347 0.02905
 C2836 C 0.09033 0.04753 0.02377
 C2837 C 0.08441 0.03687 0.02982
 C2838 C 0.08955 0.03239 0.04180
 C2839 C 0.08334 0.02203 0.04808
 C2840 C 0.07258 0.01619 0.04287
 C2841 C 0.06757 0.02032 0.03115
 C2842 C 0.07343 0.03065 0.02438
 C2843 C 0.06796 0.03432 0.01245
 C2844 C 0.05694 0.02831 0.00777
 C2845 C 0.05104 0.01832 0.01468
 C2846 C 0.05656 0.01427 0.02629
 H2847 H 0.10303 0.02648 0.06439
 H2848 H 0.12124 0.06328 0.04017
 H2849 H 0.12144 0.03724 0.07246
 H2850 H 0.10519 0.06164 0.02403
 H2851 H 0.08690 0.05167 0.01492
 H2852 H 0.08648 0.01822 0.05717
 H2853 H 0.06809 0.00834 0.04811
 H2854 H 0.07186 0.04186 0.00649
 H2855 H 0.05293 0.03166 -0.00123
 H2856 H 0.05208 0.00661 0.03180
 C2857 C 0.10471 0.55820 0.53670
 C2858 C 0.09993 0.54567 0.53927
 C2859 C 0.10645 0.53815 0.54863
 C2860 C 0.11737 0.54300 0.55492
 C2861 C 0.12212 0.55533 0.55203
 C2862 C 0.11556 0.56288 0.54296
 C2863 C 0.10210 0.52579 0.55164
 C2864 C 0.09158 0.52054 0.54538
 C2865 C 0.08491 0.52747 0.53577
 C2866 C 0.08898 0.54035 0.53285
 C2867 C 0.08194 0.54750 0.52366
 C2868 C 0.07131 0.54229 0.51755
 C2869 C 0.06731 0.52972 0.52016
 C2870 C 0.07416 0.52203 0.52914
 C2871 C 0.06988 0.50920 0.53113
 C2872 C 0.05888 0.50456 0.52508
 C2873 C 0.05181 0.51241 0.51670
 C2874 C 0.05630 0.52490 0.51403
 H2875 H 0.10041 0.56466 0.52984
 H2876 H 0.12229 0.53702 0.56191
 H2877 H 0.11875 0.57253 0.54062
 H2878 H 0.10691 0.52006 0.55892
 H2879 H 0.08883 0.51100 0.54847
 H2880 H 0.08428 0.55727 0.52101
 H2881 H 0.06614 0.54822 0.51068
 H2882 H 0.07472 0.50248 0.53737
 H2883 H 0.05575 0.49482 0.52725
 H2884 H 0.05093 0.53111 0.50758
 C2885 C 0.60690 0.05942 0.53407
 C2886 C 0.60135 0.04746 0.53768
 C2887 C 0.60707 0.04069 0.54806
 C2888 C 0.61779 0.04574 0.55444
 C2889 C 0.62324 0.05753 0.55069
 C2890 C 0.61761 0.06432 0.54047
 C2891 C 0.60210 0.02887 0.55208
 C2892 C 0.59172 0.02338 0.54586
 C2893 C 0.58579 0.02953 0.53530
 C2894 C 0.59044 0.04195 0.53137
 C2895 C 0.58391 0.04848 0.52139
 C2896 C 0.57323 0.04312 0.51548
 C2897 C 0.56877 0.03092 0.51902
 C2898 C 0.57515 0.02382 0.52877
 C2899 C 0.57055 0.01127 0.53161
 C2900 C 0.55962 0.00641 0.52565
 C2901 C 0.55292 0.01374 0.51654
 C2902 C 0.55778 0.02589 0.51302
 H2903 H 0.60331 0.06519 0.52624
 H2904 H 0.62195 0.04029 0.56228
 H2905 H 0.62149 0.07347 0.53729
 H2906 H 0.60632 0.02376 0.56014
 H2907 H 0.58841 0.01435 0.54979
 H2908 H 0.58666 0.05793 0.51805
 H2909 H 0.56841 0.04860 0.50802
 H2910 H 0.57513 0.00492 0.53841
 H2911 H 0.55624 -0.00308 0.52846
 H2912 H 0.55273 0.03168 0.50595
 C2913 C 0.60464 0.53649 0.05883
 C2914 C 0.59904 0.54002 0.04695
 C2915 C 0.60486 0.55026 0.03999
 C2916 C 0.61587 0.55650 0.04475
 C2917 C 0.62139 0.55271 0.05644
 C2918 C 0.61555 0.54272 0.06343
 C2919 C 0.59972 0.55420 0.02828
 C2920 C 0.58910 0.54805 0.02310
 C2921 C 0.58312 0.53758 0.02946
 C2922 C 0.58800 0.53369 0.04172
 C2923 C 0.58166 0.52360 0.04834
 C2924 C 0.57106 0.51743 0.04315
 C2925 C 0.56635 0.52090 0.03110
 C2926 C 0.57235 0.53096 0.02403
 C2927 C 0.56729 0.53393 0.01176
 C2928 C 0.55656 0.52751 0.00700
 C2929 C 0.55045 0.51781 0.01417
 C2930 C 0.55554 0.51445 0.02618
 H2931 H 0.60093 0.52889 0.06482
 H2932 H 0.62021 0.56419 0.03920
 H2933 H 0.61936 0.53958 0.07257
 H2934 H 0.60400 0.56214 0.02298
 H2935 H 0.58576 0.55184 0.01407
 H2936 H 0.58458 0.52024 0.05767
 H2937 H 0.56650 0.50980 0.04864
 H2938 H 0.57133 0.54119 0.00555
 H2939 H 0.55290 0.53039 -0.00231
 H2940 H 0.55089 0.50705 0.03190
 C2941 C 0.05760 0.03509 0.10631
 C2942 C 0.04566 0.03848 0.10088
 C2943 C 0.03876 0.04878 0.10665
 C2944 C 0.04367 0.05521 0.11749
 C2945 C 0.05545 0.05152 0.12285
 C2946 C 0.06236 0.04151 0.11700
 C2947 C 0.02696 0.05256 0.10162
 C2948 C 0.02167 0.04617 0.09115
 C2949 C 0.02802 0.03567 0.08525
 C2950 C 0.04035 0.03195 0.09002
 C2951 C 0.04700 0.02188 0.08372
 C2952 C 0.04185 0.01564 0.07317
 C2953 C 0.02979 0.01899 0.06853
 C2954 C 0.02258 0.02890 0.07456
 C2955 C 0.01025 0.03161 0.06957
 C2956 C 0.00568 0.02526 0.05867
 C2957 C 0.01315 0.01590 0.05244
 C2958 C 0.02507 0.01260 0.05766
 H2959 H 0.06356 0.02743 0.10266
 H2960 H 0.03820 0.06295 0.12185
 H2961 H 0.07158 0.03846 0.12064
 H2962 H 0.02172 0.06055 0.10583
 H2963 H 0.01261 0.04985 0.08782
 H2964 H 0.05636 0.01862 0.08655
 H2965 H 0.04740 0.00809 0.06857
 H2966 H 0.00390 0.03865 0.07377
 H2967 H -0.00363 0.02796 0.05494
 H2968 H 0.03096 0.00537 0.05297
 C2969 C 0.03691 0.55677 0.60675
 C2970 C 0.03929 0.54418 0.60208
 C2971 C 0.04891 0.53678 0.60832
 C2972 C 0.05544 0.54171 0.61909
 C2973 C 0.05255 0.55402 0.62386
 C2974 C 0.04341 0.56154 0.61738
 C2975 C 0.05192 0.52446 0.60384
 C2976 C 0.04543 0.51917 0.59347
 C2977 C 0.03548 0.52596 0.58718
 C2978 C 0.03246 0.53875 0.59146
 C2979 C 0.02270 0.54567 0.58500
 C2980 C 0.01627 0.54043 0.57460
 C2981 C 0.01910 0.52804 0.57028
 C2982 C 0.02857 0.52050 0.57661
 C2983 C 0.03077 0.50783 0.57198
 C2984 C 0.02443 0.50325 0.56112
 C2985 C 0.01556 0.51100 0.55456
 C2986 C 0.01268 0.52327 0.55944
 H2987 H 0.03005 0.56326 0.60250
 H2988 H 0.06257 0.53582 0.62391
 H2989 H 0.04116 0.57125 0.62047
 H2990 H 0.05942 0.51883 0.60841
 H2991 H 0.04854 0.50969 0.59057
 H2992 H 0.01976 0.55526 0.58767
 H2993 H 0.00900 0.54621 0.56985
 H2994 H 0.03742 0.50124 0.57640
 H2995 H 0.02676 0.49366 0.55765
 H2996 H 0.00586 0.52938 0.55445
 C2997 C 0.53227 0.05816 0.60886
 C2998 C 0.53643 0.04664 0.60283
 C2999 C 0.54718 0.04023 0.60820
 C3000 C 0.55344 0.04525 0.61902
 C3001 C 0.54919 0.05666 0.62498
 C3002 C 0.53852 0.06302 0.61969
 C3003 C 0.55168 0.02879 0.60279
 C3004 C 0.54556 0.02330 0.59233
 C3005 C 0.53464 0.02910 0.58675
 C3006 C 0.53027 0.04120 0.59179
 C3007 C 0.52001 0.04751 0.58551
 C3008 C 0.51417 0.04217 0.57476
 C3009 C 0.51808 0.03021 0.56999
 C3010 C 0.52818 0.02337 0.57607
 C3011 C 0.53139 0.01103 0.57118
 C3012 C 0.52545 0.00616 0.56023
 C3013 C 0.51599 0.01329 0.55381
 C3014 C 0.51211 0.02518 0.55897
 H3015 H 0.52409 0.06358 0.60559
 H3016 H 0.56160 0.04003 0.62279
 H3017 H 0.53483 0.07184 0.62385
 H3018 H 0.56003 0.02396 0.60672
 H3019 H 0.54985 0.01459 0.58865
 H3020 H 0.51642 0.05679 0.58847
 H3021 H 0.50648 0.04747 0.57014
 H3022 H 0.53846 0.00485 0.57556
 H3023 H 0.52854 -0.00315 0.55661
 H3024 H 0.50475 0.03079 0.55416
 C3025 C 0.53425 0.56058 0.10522
 C3026 C 0.53806 0.54888 0.09927
 C3027 C 0.54848 0.54208 0.10483
 C3028 C 0.55471 0.54685 0.11581
 C3029 C 0.55078 0.55841 0.12164
 C3030 C 0.54050 0.56520 0.11617
 C3031 C 0.55269 0.53052 0.09944
 C3032 C 0.54663 0.52532 0.08879
 C3033 C 0.53603 0.53150 0.08300
 C3034 C 0.53186 0.54364 0.08812
 C3035 C 0.52169 0.55015 0.08188
 C3036 C 0.51570 0.54494 0.07114
 C3037 C 0.51943 0.53298 0.06623
 C3038 C 0.52956 0.52602 0.07215
 C3039 C 0.53275 0.51379 0.06697
 C3040 C 0.52650 0.50897 0.05617
 C3041 C 0.51675 0.51604 0.05010
 C3042 C 0.51316 0.52801 0.05532
 H3043 H 0.52640 0.56637 0.10175
 H3044 H 0.56258 0.54138 0.11986
 H3045 H 0.53719 0.57418 0.12031
 H3046 H 0.56076 0.52536 0.10355
 H3047 H 0.55066 0.51643 0.08524
 H3048 H 0.51817 0.55942 0.08497
 H3049 H 0.50801 0.55035 0.06664
 H3050 H 0.54004 0.50764 0.07099
 H3051 H 0.52952 0.49969 0.05245
 H3052 H 0.50568 0.53364 0.05072
 C3053 C 0.19315 0.53437 0.64255
 C3054 C 0.20499 0.53803 0.64807
 C3055 C 0.21158 0.54856 0.64236
 C3056 C 0.20648 0.55497 0.63154
 C3057 C 0.19480 0.55107 0.62609
 C3058 C 0.18821 0.54076 0.63182
 C3059 C 0.22327 0.55263 0.64743
 C3060 C 0.22873 0.54638 0.65792
 C3061 C 0.22269 0.53571 0.66386
 C3062 C 0.21051 0.53161 0.65899
 C3063 C 0.20424 0.52126 0.66522
 C3064 C 0.20961 0.51510 0.67578
 C3065 C 0.22150 0.51886 0.68055
 C3066 C 0.22831 0.52912 0.67464
 C3067 C 0.24043 0.53237 0.67987
 C3068 C 0.24519 0.52612 0.69080
 C3069 C 0.23819 0.51628 0.69685
 C3070 C 0.22645 0.51254 0.69145
 H3071 H 0.18742 0.52653 0.64619
 H3072 H 0.21175 0.56291 0.62731
 H3073 H 0.17912 0.53750 0.62805
 H3074 H 0.22829 0.56077 0.64322
 H3075 H 0.23770 0.55027 0.66122
 H3076 H 0.19502 0.51769 0.66228
 H3077 H 0.20433 0.50730 0.68030
 H3078 H 0.24644 0.53981 0.67586
 H3079 H 0.25429 0.52924 0.69469
 H3080 H 0.22084 0.50502 0.69604
 C3081 C 0.21637 0.05851 0.14252
 C3082 C 0.21227 0.04700 0.14862
 C3083 C 0.20125 0.04079 0.14359
 C3084 C 0.19475 0.04595 0.13294
 C3085 C 0.19901 0.05730 0.12695
 C3086 C 0.20985 0.06352 0.13192
 C3087 C 0.19675 0.02943 0.14917
 C3088 C 0.20306 0.02387 0.15951
 C3089 C 0.21422 0.02949 0.16476
 C3090 C 0.21873 0.04142 0.15944
 C3091 C 0.22944 0.04741 0.16519
 C3092 C 0.23553 0.04200 0.17577
 C3093 C 0.23139 0.03030 0.18093
 C3094 C 0.22084 0.02372 0.17536
 C3095 C 0.21737 0.01163 0.18068
 C3096 C 0.22355 0.00676 0.19151
 C3097 C 0.23353 0.01362 0.19739
 C3098 C 0.23760 0.02526 0.19182
 H3099 H 0.22466 0.06387 0.14557
 H3100 H 0.18642 0.04094 0.12927
 H3101 H 0.21342 0.07234 0.12765
 H3102 H 0.18823 0.02474 0.14548
 H3103 H 0.19876 0.01522 0.16331
 H3104 H 0.23330 0.05647 0.16190
 H3105 H 0.24359 0.04707 0.17997
 H3106 H 0.20987 0.00567 0.17678
 H3107 H 0.22026 -0.00235 0.19546
 H3108 H 0.24533 0.03067 0.19623
 C3109 C 0.69122 0.21325 0.60386
 C3110 C 0.70314 0.20971 0.59842
 C3111 C 0.71010 0.19962 0.60450
 C3112 C 0.70534 0.19358 0.61563
 C3113 C 0.69361 0.19738 0.62100
 C3114 C 0.68660 0.20719 0.61490
 C3115 C 0.72181 0.19561 0.59949
 C3116 C 0.72696 0.20151 0.58868
 C3117 C 0.72058 0.21179 0.58240
 C3118 C 0.70838 0.21584 0.58724
 C3119 C 0.70186 0.22590 0.58075
 C3120 C 0.70704 0.23183 0.56997
 C3121 C 0.71895 0.22810 0.56522
 C3122 C 0.72596 0.21810 0.57139
 C3123 C 0.73810 0.21487 0.56626
 C3124 C 0.74282 0.22101 0.55533
 C3125 C 0.73573 0.23068 0.54910
 C3126 C 0.72384 0.23428 0.55421
 H3127 H 0.68519 0.22069 0.59990
 H3128 H 0.71090 0.18601 0.62017
 H3129 H 0.67743 0.21031 0.61858
 H3130 H 0.72712 0.18781 0.60399
 H3131 H 0.73599 0.19767 0.58547
 H3132 H 0.69264 0.22946 0.58371
 H3133 H 0.70164 0.23947 0.56532
 H3134 H 0.74425 0.20761 0.57039
 H3135 H 0.75207 0.21800 0.55166
 H3136 H 0.71821 0.24170 0.54947
 C3137 C 0.71568 0.69217 0.10606
 C3138 C 0.71176 0.70389 0.10022
 C3139 C 0.70136 0.71061 0.10590
 C3140 C 0.69529 0.70578 0.11694
 C3141 C 0.69936 0.69422 0.12266
 C3142 C 0.70959 0.68747 0.11705
 C3143 C 0.69703 0.72218 0.10060
 C3144 C 0.70294 0.72745 0.08989
 C3145 C 0.71351 0.72133 0.08398
 C3146 C 0.71782 0.70920 0.08904
 C3147 C 0.72798 0.70279 0.08272
 C3148 C 0.73381 0.70804 0.07193
 C3149 C 0.72991 0.71996 0.06706
 C3150 C 0.71980 0.72686 0.07306
 C3151 C 0.71642 0.73904 0.06787
 C3152 C 0.72244 0.74384 0.05692
 C3153 C 0.73214 0.73679 0.05078
 C3154 C 0.73597 0.72493 0.05605
 H3155 H 0.72350 0.68641 0.10249
 H3156 H 0.68744 0.71118 0.12110
 H3157 H 0.71299 0.67848 0.12111
 H3158 H 0.68898 0.72727 0.10481
 H3159 H 0.69882 0.73632 0.08640
 H3160 H 0.73162 0.69355 0.08578
 H3161 H 0.74149 0.70270 0.06735
 H3162 H 0.70916 0.74517 0.07196
 H3163 H 0.71930 0.75307 0.05313
 H3164 H 0.74342 0.71934 0.05137
 C3165 C 0.53367 0.69276 0.14293
 C3166 C 0.53758 0.70459 0.14853
 C3167 C 0.54810 0.71109 0.14283
 C3168 C 0.55431 0.70592 0.13202
 C3169 C 0.55027 0.69425 0.12654
 C3170 C 0.53992 0.68773 0.13216
 C3171 C 0.55243 0.72274 0.14791
 C3172 C 0.54643 0.72830 0.15843
 C3173 C 0.53577 0.72239 0.16437
 C3174 C 0.53142 0.71021 0.15951
 C3175 C 0.52114 0.70402 0.16585
 C3176 C 0.51530 0.70949 0.17652
 C3177 C 0.51929 0.72142 0.18124
 C3178 C 0.52946 0.72815 0.17517
 C3179 C 0.53291 0.74037 0.18024
 C3180 C 0.52697 0.74528 0.19121
 C3181 C 0.51728 0.73834 0.19745
 C3182 C 0.51330 0.72652 0.19222
 H3183 H 0.52578 0.68715 0.14654
 H3184 H 0.56226 0.71116 0.12786
 H3185 H 0.53654 0.67866 0.12828
 H3186 H 0.56058 0.72766 0.14369
 H3187 H 0.55055 0.73722 0.16176
 H3188 H 0.51743 0.69478 0.16291
 H3189 H 0.50755 0.70428 0.18114
 H3190 H 0.54022 0.74638 0.17606
 H3191 H 0.53021 0.75447 0.19497
 H3192 H 0.50586 0.72099 0.19698
 C3193 C 0.05879 0.71134 0.64516
 C3194 C 0.04639 0.70898 0.65006
 C3195 C 0.03887 0.69943 0.64381
 C3196 C 0.04355 0.69290 0.63287
 C3197 C 0.05574 0.69571 0.62795
 C3198 C 0.06332 0.70482 0.63440
 C3199 C 0.02671 0.69648 0.64846
 C3200 C 0.02169 0.70291 0.65904
 C3201 C 0.02863 0.71275 0.66539
 C3202 C 0.04124 0.71573 0.66092
 C3203 C 0.04830 0.72538 0.66743
 C3204 C 0.04333 0.73174 0.67805
 C3205 C 0.03108 0.72897 0.68254
 C3206 C 0.02345 0.71958 0.67619
 C3207 C 0.01095 0.71742 0.68099
 C3208 C 0.00656 0.72379 0.69194
 C3209 C 0.01434 0.73265 0.69848
 C3210 C 0.02651 0.73540 0.69352
 H3211 H 0.06531 0.71819 0.64935
 H3212 H 0.03759 0.68582 0.62809
 H3213 H 0.07292 0.70704 0.63120
 H3214 H 0.02097 0.68907 0.64387
 H3215 H 0.01231 0.69984 0.66204
 H3216 H 0.05779 0.72827 0.66464
 H3217 H 0.04919 0.73894 0.68281
 H3218 H 0.00431 0.71081 0.67661
 H3219 H -0.00296 0.72153 0.69545
 H3220 H 0.03266 0.74221 0.69849
 C3221 C 0.55772 0.64441 0.21520
 C3222 C 0.54614 0.65029 0.21118
 C3223 C 0.53983 0.64488 0.20039
 C3224 C 0.54495 0.63402 0.19407
 C3225 C 0.55637 0.62823 0.19827
 C3226 C 0.56269 0.63362 0.20886
 C3227 C 0.52843 0.65029 0.19595
 C3228 C 0.52295 0.66085 0.20207
 C3229 C 0.52868 0.66650 0.21299
 C3230 C 0.54058 0.66126 0.21751
 C3231 C 0.54654 0.66718 0.22816
 C3232 C 0.54112 0.67778 0.23423
 C3233 C 0.52950 0.68292 0.23005
 C3234 C 0.52302 0.67734 0.21945
 C3235 C 0.51118 0.68295 0.21575
 C3236 C 0.50637 0.69390 0.22195
 C3237 C 0.51303 0.69958 0.23217
 C3238 C 0.52449 0.69383 0.23631
 H3239 H 0.56322 0.64781 0.22326
 H3240 H 0.53988 0.63007 0.18590
 H3241 H 0.57155 0.62953 0.21239
 H3242 H 0.52363 0.64628 0.18761
 H3243 H 0.51420 0.66441 0.19789
 H3244 H 0.55554 0.66394 0.23205
 H3245 H 0.54614 0.68205 0.24229
 H3246 H 0.50543 0.67923 0.20801
 H3247 H 0.49749 0.69810 0.21851
 H3248 H 0.52984 0.69814 0.24413
 C3249 C 0.03480 0.64387 0.69322
 C3250 C 0.03786 0.64907 0.70540
 C3251 C 0.04787 0.64309 0.71245
 C3252 C 0.05425 0.63220 0.70756
 C3253 C 0.05082 0.62700 0.69563
 C3254 C 0.04117 0.63307 0.68848
 C3255 C 0.05143 0.64794 0.72441
 C3256 C 0.04507 0.65842 0.72973
 C3257 C 0.03478 0.66449 0.72328
 C3258 C 0.03128 0.65989 0.71080
 C3259 C 0.02131 0.66625 0.70414
 C3260 C 0.01497 0.67672 0.70942
 C3261 C 0.01817 0.68124 0.72157
 C3262 C 0.02799 0.67515 0.72879
 C3263 C 0.03063 0.68009 0.74120
 C3264 C 0.02433 0.69104 0.74580
 C3265 C 0.01506 0.69732 0.73832
 C3266 C 0.01177 0.69210 0.72637
 H3267 H 0.02747 0.64778 0.68707
 H3268 H 0.06173 0.62766 0.71320
 H3269 H 0.03842 0.62954 0.67911
 H3270 H 0.05922 0.64354 0.72975
 H3271 H 0.04856 0.66159 0.73893
 H3272 H 0.01816 0.66350 0.69469
 H3273 H 0.00748 0.68138 0.70386
 H3274 H 0.03762 0.67587 0.74755
 H3275 H 0.02702 0.69481 0.75512
 H3276 H 0.00463 0.69687 0.72046
 C3277 C 0.05722 0.10477 0.03548
 C3278 C 0.04501 0.09977 0.03863
 C3279 C 0.03814 0.10586 0.04871
 C3280 C 0.04326 0.11668 0.05506
 C3281 C 0.05523 0.12170 0.05153
 C3282 C 0.06217 0.11549 0.04181
 C3283 C 0.02616 0.10120 0.05235
 C3284 C 0.02063 0.09080 0.04602
 C3285 C 0.02689 0.08462 0.03567
 C3286 C 0.03939 0.08903 0.03207
 C3287 C 0.04584 0.08260 0.02201
 C3288 C 0.04034 0.07227 0.01564
 C3289 C 0.02816 0.06793 0.01893
 C3290 C 0.02116 0.07405 0.02890
 C3291 C 0.00877 0.06920 0.03170
 C3292 C 0.00395 0.05836 0.02536
 C3293 C 0.01117 0.05211 0.01586
 C3294 C 0.02312 0.05721 0.01247
 H3295 H 0.06324 0.10074 0.02811
 H3296 H 0.03777 0.12129 0.06259
 H3297 H 0.07155 0.11886 0.03896
 H3298 H 0.02094 0.10567 0.06018
 H3299 H 0.01140 0.08781 0.04954
 H3300 H 0.05529 0.08521 0.01879
 H3301 H 0.04574 0.06757 0.00806
 H3302 H 0.00262 0.07340 0.03887
 H3303 H -0.00534 0.05464 0.02817
 H3304 H 0.02888 0.05244 0.00521
 C3305 C 0.05885 0.60465 0.53650
 C3306 C 0.04685 0.59924 0.53984
 C3307 C 0.03991 0.60527 0.54991
 C3308 C 0.04482 0.61627 0.55621
 C3309 C 0.05668 0.62158 0.55265
 C3310 C 0.06361 0.61554 0.54279
 C3311 C 0.02807 0.60032 0.55367
 C3312 C 0.02281 0.58964 0.54755
 C3313 C 0.02919 0.58340 0.53730
 C3314 C 0.04152 0.58815 0.53352
 C3315 C 0.04810 0.58161 0.52359
 C3316 C 0.04290 0.57086 0.51756
 C3317 C 0.03087 0.56618 0.52103
 C3318 C 0.02375 0.57245 0.53083
 C3319 C 0.01147 0.56743 0.53375
 C3320 C 0.00682 0.55637 0.52767
 C3321 C 0.01410 0.54991 0.51834
 C3322 C 0.02604 0.55508 0.51488
 H3323 H 0.06484 0.60077 0.52901
 H3324 H 0.03928 0.62075 0.56379
 H3325 H 0.07285 0.61917 0.53980
 H3326 H 0.02277 0.60476 0.56146
 H3327 H 0.01372 0.58643 0.55123
 H3328 H 0.05745 0.58446 0.52027
 H3329 H 0.04839 0.56613 0.51007
 H3330 H 0.00520 0.57174 0.54076
 H3331 H -0.00248 0.55271 0.53052
 H3332 H 0.03182 0.55020 0.50771
 C3333 C 0.55980 0.10584 0.53521
 C3334 C 0.54778 0.10049 0.53856
 C3335 C 0.54081 0.10662 0.54855
 C3336 C 0.54577 0.11759 0.55483
 C3337 C 0.55769 0.12280 0.55133
 C3338 C 0.56460 0.11674 0.54147
 C3339 C 0.52889 0.10180 0.55224
 C3340 C 0.52358 0.09115 0.54612
 C3341 C 0.53001 0.08477 0.53599
 C3342 C 0.54243 0.08935 0.53233
 C3343 C 0.54913 0.08258 0.52263
 C3344 C 0.54392 0.07179 0.51669
 C3345 C 0.53177 0.06732 0.51999
 C3346 C 0.52454 0.07381 0.52957
 C3347 C 0.51215 0.06898 0.53233
 C3348 C 0.50749 0.05787 0.52633
 C3349 C 0.51487 0.05120 0.51723
 C3350 C 0.52693 0.05619 0.51393
 H3351 H 0.56576 0.10194 0.52772
 H3352 H 0.54022 0.12212 0.56238
 H3353 H 0.57386 0.12035 0.53850
 H3354 H 0.52357 0.10634 0.55996
 H3355 H 0.51441 0.08806 0.54971
 H3356 H 0.55858 0.08526 0.51947
 H3357 H 0.54951 0.06686 0.50941
 H3358 H 0.50579 0.07347 0.53915
 H3359 H 0.49810 0.05433 0.52906
 H3360 H 0.53280 0.05113 0.50696
 C3361 C 0.55972 0.60612 0.03435
 C3362 C 0.54782 0.60051 0.03775
 C3363 C 0.54082 0.60638 0.04786
 C3364 C 0.54557 0.61735 0.05418
 C3365 C 0.55731 0.62285 0.05062
 C3366 C 0.56433 0.61706 0.04068
 C3367 C 0.52905 0.60132 0.05166
 C3368 C 0.52386 0.59071 0.04547
 C3369 C 0.53026 0.58464 0.03515
 C3370 C 0.54260 0.58939 0.03144
 C3371 C 0.54931 0.58283 0.02162
 C3372 C 0.54414 0.57209 0.01555
 C3373 C 0.53201 0.56754 0.01883
 C3374 C 0.52482 0.57383 0.02856
 C3375 C 0.51242 0.56903 0.03125
 C3376 C 0.50768 0.55817 0.02499
 C3377 C 0.51501 0.55170 0.01572
 C3378 C 0.52712 0.55659 0.01253
 H3379 H 0.56568 0.60241 0.02677
 H3380 H 0.53995 0.62167 0.06179
 H3381 H 0.57347 0.62094 0.03769
 H3382 H 0.52374 0.60567 0.05950
 H3383 H 0.51481 0.58740 0.04918
 H3384 H 0.55872 0.58564 0.01845
 H3385 H 0.54971 0.56730 0.00815
 H3386 H 0.50607 0.57339 0.03815
 H3387 H 0.49825 0.55469 0.02764
 H3388 H 0.53292 0.55166 0.00542
 C3389 C 0.71610 0.14398 0.55859
 C3390 C 0.71260 0.14954 0.54666
 C3391 C 0.70234 0.14376 0.53986
 C3392 C 0.69600 0.13287 0.54483
 C3393 C 0.69970 0.12740 0.55659
 C3394 C 0.70976 0.13314 0.56341
 C3395 C 0.69844 0.14879 0.52807
 C3396 C 0.70468 0.15930 0.52266
 C3397 C 0.71514 0.16528 0.52887
 C3398 C 0.71898 0.16051 0.54121
 C3399 C 0.72905 0.16688 0.54769
 C3400 C 0.73530 0.17737 0.54227
 C3401 C 0.73190 0.18192 0.53014
 C3402 C 0.72182 0.17595 0.52321
 C3403 C 0.71887 0.18096 0.51088
 C3404 C 0.72538 0.19164 0.50593
 C3405 C 0.73514 0.19764 0.51296
 C3406 C 0.73844 0.19259 0.52502
 H3407 H 0.72379 0.14764 0.56444
 H3408 H 0.68827 0.12862 0.53936
 H3409 H 0.71287 0.12928 0.57255
 H3410 H 0.69049 0.14451 0.52290
 H3411 H 0.70095 0.16256 0.51358
 H3412 H 0.73232 0.16408 0.55709
 H3413 H 0.74292 0.18198 0.54765
 H3414 H 0.71156 0.17695 0.50480
 H3415 H 0.72254 0.19534 0.49661
 H3416 H 0.74587 0.19721 0.53065
 C3417 C 0.69167 0.64444 0.03533
 C3418 C 0.70307 0.65053 0.03950
 C3419 C 0.70940 0.64513 0.05031
 C3420 C 0.70444 0.63412 0.05655
 C3421 C 0.69316 0.62815 0.05222
 C3422 C 0.68687 0.63351 0.04157
 C3423 C 0.72067 0.65073 0.05485
 C3424 C 0.72598 0.66144 0.04880
 C3425 C 0.72020 0.66710 0.03788
 C3426 C 0.70843 0.66168 0.03328
 C3427 C 0.70241 0.66761 0.02264
 C3428 C 0.70770 0.67832 0.01660
 C3429 C 0.71925 0.68357 0.02079
 C3430 C 0.72572 0.67805 0.03146
 C3431 C 0.73746 0.68380 0.03522
 C3432 C 0.74229 0.69467 0.02887
 C3433 C 0.73572 0.70020 0.01848
 C3434 C 0.72424 0.69446 0.01443
 H3435 H 0.68620 0.64778 0.02721
 H3436 H 0.70950 0.63019 0.06475
 H3437 H 0.67813 0.62930 0.03791
 H3438 H 0.72550 0.64674 0.06318
 H3439 H 0.73466 0.66510 0.05303
 H3440 H 0.69347 0.66429 0.01872
 H3441 H 0.70265 0.68255 0.00851
 H3442 H 0.74316 0.68021 0.04307
 H3443 H 0.75115 0.69887 0.03230
 H3444 H 0.71894 0.69869 0.00651
 C3445 C 0.19050 0.60666 0.71525
 C3446 C 0.20258 0.60137 0.71195
 C3447 C 0.20958 0.60755 0.70201
 C3448 C 0.20460 0.61848 0.69574
 C3449 C 0.19265 0.62363 0.69917
 C3450 C 0.18567 0.61756 0.70896
 C3451 C 0.22154 0.60283 0.69836
 C3452 C 0.22692 0.59224 0.70450
 C3453 C 0.22049 0.58582 0.71460
 C3454 C 0.20798 0.59028 0.71819
 C3455 C 0.20127 0.58343 0.72782
 C3456 C 0.20657 0.57270 0.73381
 C3457 C 0.21881 0.56840 0.73060
 C3458 C 0.22604 0.57494 0.72107
 C3459 C 0.23851 0.57025 0.71840
 C3460 C 0.24326 0.55920 0.72446
 C3461 C 0.23587 0.55250 0.73352
 C3462 C 0.22373 0.55736 0.73672
 H3463 H 0.18453 0.60273 0.72271
 H3464 H 0.21021 0.62303 0.68825
 H3465 H 0.17638 0.62119 0.71184
 H3466 H 0.22686 0.60743 0.69066
 H3467 H 0.23613 0.58922 0.70094
 H3468 H 0.19175 0.58599 0.73087
 H3469 H 0.20098 0.56769 0.74104
 H3470 H 0.24487 0.57479 0.71162
 H3471 H 0.25269 0.55573 0.72180
 H3472 H 0.21786 0.55228 0.74369
 C3473 C 0.19148 0.10565 0.21571
 C3474 C 0.20342 0.10020 0.21221
 C3475 C 0.21013 0.10605 0.20188
 C3476 C 0.20505 0.11688 0.19548
 C3477 C 0.19326 0.12225 0.19917
 C3478 C 0.18654 0.11644 0.20931
 C3479 C 0.22192 0.10109 0.19796
 C3480 C 0.22740 0.09061 0.20421
 C3481 C 0.22129 0.08457 0.21473
 C3482 C 0.20895 0.08924 0.21861
 C3483 C 0.20254 0.08273 0.22866
 C3484 C 0.20793 0.07207 0.23474
 C3485 C 0.22001 0.06755 0.23124
 C3486 C 0.22698 0.07383 0.22134
 C3487 C 0.23936 0.06904 0.21845
 C3488 C 0.24419 0.05805 0.22455
 C3489 C 0.23700 0.05150 0.23388
 C3490 C 0.22502 0.05654 0.23741
 H3491 H 0.18569 0.10193 0.22343
 H3492 H 0.21044 0.12118 0.18769
 H3493 H 0.17739 0.12019 0.21242
 H3494 H 0.22701 0.10540 0.18994
 H3495 H 0.23643 0.08735 0.20039
 H3496 H 0.19317 0.08549 0.23200
 H3497 H 0.20253 0.06730 0.24228
 H3498 H 0.24557 0.07346 0.21146
 H3499 H 0.25353 0.05449 0.22169
 H3500 H 0.21931 0.05157 0.24458
 C3501 C 0.71469 1.10613 0.69130
 C3502 C 0.71171 1.10089 0.70350
 C3503 C 0.70177 1.10693 0.71060
 C3504 C 0.69521 1.11774 0.70561
 C3505 C 0.69842 1.12291 0.69356
 C3506 C 0.70818 1.11689 0.68648
 C3507 C 0.69841 1.10217 0.72268
 C3508 C 0.70489 1.09176 0.72807
 C3509 C 0.71506 1.08556 0.72155
 C3510 C 0.71829 1.08996 0.70891
 C3511 C 0.72790 1.08323 0.70208
 C3512 C 0.73417 1.07263 0.70737
 C3513 C 0.73133 1.06838 0.71976
 C3514 C 0.72191 1.07491 0.72714
 C3515 C 0.71972 1.07043 0.73981
 C3516 C 0.72601 1.05950 0.74456
 C3517 C 0.73482 1.05268 0.73699
 C3518 C 0.73768 1.05742 0.72468
 H3519 H 0.72211 1.10227 0.68522
 H3520 H 0.68773 1.12223 0.71127
 H3521 H 0.71088 1.12044 0.67710
 H3522 H 0.69068 1.10660 0.72808
 H3523 H 0.70152 1.08867 0.73735
 H3524 H 0.73072 1.08575 0.69245
 H3525 H 0.74134 1.06767 0.70165
 H3526 H 0.71315 1.07507 0.74631
 H3527 H 0.72365 1.05618 0.75415
 H3528 H 0.74444 1.05226 0.71867
 C3529 C 0.69247 0.60778 0.21610
 C3530 C 0.70450 0.60249 0.21267
 C3531 C 0.71122 0.60837 0.20238
 C3532 C 0.70608 0.61911 0.19596
 C3533 C 0.69423 0.62432 0.19959
 C3534 C 0.68747 0.61848 0.20967
 C3535 C 0.72309 0.60358 0.19853
 C3536 C 0.72867 0.59321 0.20485
 C3537 C 0.72255 0.58715 0.21535
 C3538 C 0.71013 0.59168 0.21914
 C3539 C 0.70373 0.58521 0.22921
 C3540 C 0.70925 0.57477 0.23545
 C3541 C 0.72139 0.57040 0.23203
 C3542 C 0.72832 0.57656 0.22204
 C3543 C 0.74071 0.57177 0.21915
 C3544 C 0.74560 0.56089 0.22540
 C3545 C 0.73843 0.55455 0.23486
 C3546 C 0.72648 0.55961 0.23836
 H3547 H 0.68666 0.60402 0.22378
 H3548 H 0.71151 0.62348 0.18823
 H3549 H 0.67824 0.62214 0.21267
 H3550 H 0.72818 0.60794 0.19054
 H3551 H 0.73778 0.59009 0.20113
 H3552 H 0.69430 0.58783 0.23247
 H3553 H 0.70389 0.57002 0.24304
 H3554 H 0.74685 0.57606 0.21202
 H3555 H 0.75489 0.55723 0.22252
 H3556 H 0.72078 0.55479 0.24564
 C3557 C 0.55674 0.14248 0.71719
 C3558 C 0.54501 0.14818 0.71340
 C3559 C 0.53843 0.14253 0.70291
 C3560 C 0.54357 0.13180 0.69645
 C3561 C 0.55520 0.12618 0.70034
 C3562 C 0.56168 0.13172 0.71080
 C3563 C 0.52670 0.14755 0.69891
 C3564 C 0.52112 0.15787 0.70530
 C3565 C 0.52716 0.16376 0.71592
 C3566 C 0.53953 0.15915 0.71973
 C3567 C 0.54607 0.16578 0.72960
 C3568 C 0.54069 0.17643 0.73565
 C3569 C 0.52848 0.18075 0.73235
 C3570 C 0.52141 0.17435 0.72262
 C3571 C 0.50888 0.17888 0.71998
 C3572 C 0.50402 0.18983 0.72609
 C3573 C 0.51135 0.19654 0.73516
 C3574 C 0.52345 0.19170 0.73850
 H3575 H 0.56228 0.14593 0.72520
 H3576 H 0.53823 0.12777 0.68849
 H3577 H 0.57069 0.12785 0.71421
 H3578 H 0.52170 0.14339 0.69078
 H3579 H 0.51213 0.16122 0.70144
 H3580 H 0.55558 0.16321 0.73269
 H3581 H 0.54618 0.18135 0.74301
 H3582 H 0.50259 0.17426 0.71320
 H3583 H 0.49458 0.19325 0.72340
 H3584 H 0.52926 0.19680 0.74548
 C3585 C 1.05860 0.14255 0.21409
 C3586 C 1.04695 0.14833 0.21017
 C3587 C 1.04034 0.14259 0.19973
 C3588 C 1.04522 0.13153 0.19363
 C3589 C 1.05672 0.12588 0.19773
 C3590 C 1.06334 0.13157 0.20798
 C3591 C 1.02885 0.14788 0.19540
 C3592 C 1.02358 0.15863 0.20133
 C3593 C 1.02963 0.16459 0.21192
 C3594 C 1.04163 0.15951 0.21626
 C3595 C 1.04793 0.16579 0.22652
 C3596 C 1.04268 0.17659 0.23240
 C3597 C 1.03092 0.18153 0.22843
 C3598 C 1.02414 0.17557 0.21821
 C3599 C 1.01214 0.18089 0.21474
 C3600 C 1.00737 0.19187 0.22083
 C3601 C 1.01428 0.19790 0.23068
 C3602 C 1.02599 0.19254 0.23455
 H3603 H 1.06430 0.14616 0.22191
 H3604 H 1.03993 0.12730 0.18574
 H3605 H 1.07229 0.12761 0.21141
 H3606 H 1.02382 0.14362 0.18734
 H3607 H 1.01475 0.16208 0.19725
 H3608 H 1.05704 0.16270 0.23024
 H3609 H 1.04792 0.18113 0.24018
 H3610 H 1.00614 0.17689 0.20734
 H3611 H 0.99826 0.19574 0.21764
 H3612 H 1.03147 0.19714 0.24212
 C3613 C 0.19300 0.64451 0.53673
 C3614 C 0.20468 0.65025 0.54052
 C3615 C 0.21132 0.64457 0.55100
 C3616 C 0.20647 0.63346 0.55718
 C3617 C 0.19497 0.62778 0.55309
 C3618 C 0.18830 0.63357 0.54289
 C3619 C 0.22280 0.64996 0.55523
 C3620 C 0.22800 0.66073 0.54917
 C3621 C 0.22192 0.66658 0.53851
 C3622 C 0.20997 0.66135 0.53422
 C3623 C 0.20371 0.66737 0.52376
 C3624 C 0.20891 0.67802 0.51763
 C3625 C 0.22058 0.68315 0.52157
 C3626 C 0.22732 0.67754 0.53203
 C3627 C 0.23917 0.68319 0.53553
 C3628 C 0.24385 0.69408 0.52914
 C3629 C 0.23701 0.69969 0.51896
 C3630 C 0.22544 0.69403 0.51515
 H3631 H 0.18719 0.64814 0.52898
 H3632 H 0.21176 0.62921 0.56507
 H3633 H 0.17931 0.62971 0.53949
 H3634 H 0.22788 0.64578 0.56332
 H3635 H 0.23686 0.66424 0.55314
 H3636 H 0.19467 0.66413 0.51999
 H3637 H 0.20371 0.68231 0.50967
 H3638 H 0.24504 0.67954 0.54321
 H3639 H 0.25281 0.69825 0.53236
 H3640 H 0.21996 0.69831 0.50738
 C3641 C 0.19125 0.14534 1.03549
 C3642 C 0.20283 0.15108 1.03971
 C3643 C 0.20911 0.14533 1.05035
 C3644 C 0.20403 0.13430 1.05632
 C3645 C 0.19265 0.12863 1.05192
 C3646 C 0.18631 0.13435 1.04149
 C3647 C 0.22049 0.15056 1.05501
 C3648 C 0.22596 0.16131 1.04926
 C3649 C 0.22025 0.16733 1.03852
 C3650 C 0.20842 0.16221 1.03373
 C3651 C 0.20259 0.16837 1.02312
 C3652 C 0.20809 0.17908 1.01733
 C3653 C 0.21962 0.18412 1.02181
 C3654 C 0.22592 0.17836 1.03244
 C3655 C 0.23763 0.18396 1.03653
 C3656 C 0.24259 0.19494 1.03052
 C3657 C 0.23619 0.20067 1.02015
 C3658 C 0.22477 0.19507 1.01577
 H3659 H 0.18576 0.14902 1.02754
 H3660 H 0.20910 0.13014 1.06439
 H3661 H 0.17748 0.13032 1.03782
 H3662 H 0.22528 0.14625 1.06321
 H3663 H 0.23472 0.16466 1.05356
 H3664 H 0.19368 0.16519 1.01900
 H3665 H 0.20323 0.18349 1.00922
 H3666 H 0.24318 0.18020 1.04440
 H3667 H 0.25141 0.19906 1.03416
 H3668 H 0.21962 0.19944 1.00783
 C3669 C 0.21552 0.69185 0.60622
 C3670 C 0.21162 0.70346 0.60015
 C3671 C 0.20104 0.71013 0.60555
 C3672 C 0.19476 0.70533 0.61652
 C3673 C 0.19880 0.69386 0.62247
 C3674 C 0.20923 0.68719 0.61714
 C3675 C 0.19673 0.72160 0.60003
 C3676 C 0.20281 0.72683 0.58938
 C3677 C 0.21356 0.72077 0.58375
 C3678 C 0.21786 0.70873 0.58902
 C3679 C 0.22820 0.70235 0.58294
 C3680 C 0.23422 0.70758 0.57222
 C3681 C 0.23036 0.71945 0.56717
 C3682 C 0.22006 0.72629 0.57291
 C3683 C 0.21671 0.73841 0.56756
 C3684 C 0.22299 0.74324 0.55675
 C3685 C 0.23292 0.73629 0.55088
 C3686 C 0.23666 0.72444 0.55627
 H3687 H 0.22348 0.68614 0.60287
 H3688 H 0.18676 0.71069 0.62044
 H3689 H 0.21264 0.67828 0.62136
 H3690 H 0.18854 0.72666 0.60401
 H3691 H 0.19870 0.73564 0.58573
 H3692 H 0.23184 0.69316 0.58616
 H3693 H 0.24205 0.70226 0.56784
 H3694 H 0.20927 0.74447 0.57143
 H3695 H 0.21984 0.75243 0.55286
 H3696 H 0.24426 0.71889 0.55180
 C3697 C 0.21582 0.19209 1.10677
 C3698 C 0.21149 0.20362 1.10080
 C3699 C 0.20061 0.20977 1.10619
 C3700 C 0.19448 0.20458 1.11704
 C3701 C 0.19894 0.19322 1.12291
 C3702 C 0.20965 0.18703 1.11759
 C3703 C 0.19586 0.22112 1.10078
 C3704 C 0.20179 0.22674 1.09024
 C3705 C 0.21280 0.22119 1.08460
 C3706 C 0.21760 0.20930 1.08981
 C3707 C 0.22830 0.20349 1.08383
 C3708 C 0.23424 0.20914 1.07329
 C3709 C 0.22985 0.22084 1.06828
 C3710 C 0.21910 0.22708 1.07384
 C3711 C 0.21513 0.23898 1.06836
 C3712 C 0.22133 0.24418 1.05766
 C3713 C 0.23181 0.23785 1.05207
 C3714 C 0.23609 0.22622 1.05756
 H3715 H 0.22402 0.18674 1.10340
 H3716 H 0.18625 0.20958 1.12094
 H3717 H 0.21337 0.17823 1.12178
 H3718 H 0.18746 0.22579 1.10478
 H3719 H 0.19739 0.23545 1.08670
 H3720 H 0.23234 0.19446 1.08701
 H3721 H 0.24239 0.20428 1.06901
 H3722 H 0.20721 0.24454 1.07202
 H3723 H 0.21774 0.25313 1.05362
 H3724 H 0.24409 0.22111 1.05328
 C3725 C 0.69257 0.53873 0.14528
 C3726 C 0.70499 0.54143 0.14998
 C3727 C 0.71220 0.55108 0.14351
 C3728 C 0.70720 0.55741 0.13259
 C3729 C 0.69500 0.55428 0.12787
 C3730 C 0.68774 0.54502 0.13449
 C3731 C 0.72440 0.55430 0.14793
 C3732 C 0.72973 0.54805 0.15849
 C3733 C 0.72309 0.53816 0.16509
 C3734 C 0.71046 0.53488 0.16082
 C3735 C 0.70371 0.52512 0.16750
 C3736 C 0.70901 0.51884 0.17799
 C3737 C 0.72127 0.52190 0.18227
 C3738 C 0.72857 0.53151 0.17589
 C3739 C 0.74102 0.53408 0.18070
 C3740 C 0.74568 0.52778 0.19165
 C3741 C 0.73822 0.51857 0.19810
 C3742 C 0.72611 0.51551 0.19314
 H3743 H 0.68626 0.53178 0.14964
 H3744 H 0.71292 0.56459 0.12766
 H3745 H 0.67816 0.54254 0.13142
 H3746 H 0.72991 0.56177 0.14315
 H3747 H 0.73914 0.55125 0.16125
 H3748 H 0.69422 0.52204 0.16492
 H3749 H 0.70338 0.51151 0.18285
 H3750 H 0.74737 0.54103 0.17636
 H3751 H 0.75507 0.53037 0.19523
 H3752 H 0.72016 0.50848 0.19805
 C3753 C 0.69055 1.03447 0.64374
 C3754 C 0.70233 1.03811 0.64944
 C3755 C 0.70920 1.04840 0.64363
 C3756 C 0.70443 1.05463 0.63264
 C3757 C 0.69280 1.05082 0.62707
 C3758 C 0.68592 1.04072 0.63279
 C3759 C 0.72085 1.05243 0.64878
 C3760 C 0.72603 1.04635 0.65946
 C3761 C 0.71972 1.03593 0.66552
 C3762 C 0.70755 1.03190 0.66058
 C3763 C 0.70098 1.02185 0.66699
 C3764 C 0.70609 1.01589 0.67778
 C3765 C 0.71800 1.01956 0.68258
 C3766 C 0.72508 1.02952 0.67648
 C3767 C 0.73723 1.03265 0.68168
 C3768 C 0.74181 1.02655 0.69273
 C3769 C 0.73456 1.01701 0.69894
 C3770 C 0.72275 1.01342 0.69364
 H3771 H 0.68466 1.02677 0.64742
 H3772 H 0.70996 1.06235 0.62834
 H3773 H 0.67686 1.03758 0.62884
 H3774 H 0.72607 1.06038 0.64446
 H3775 H 0.73499 1.05022 0.66282
 H3776 H 0.69173 1.01839 0.66402
 H3777 H 0.70062 1.00831 0.68244
 H3778 H 0.74347 1.03980 0.67752
 H3779 H 0.75099 1.02953 0.69655
 H3780 H 0.71699 1.00609 0.69835
 C3781 C 0.55866 0.21226 0.64416
 C3782 C 0.54628 0.20946 0.64894
 C3783 C 0.53909 0.19982 0.64247
 C3784 C 0.54407 0.19357 0.63152
 C3785 C 0.55624 0.19676 0.62675
 C3786 C 0.56348 0.20604 0.63334
 C3787 C 0.52693 0.19650 0.64693
 C3788 C 0.52161 0.20266 0.65753
 C3789 C 0.52824 0.21253 0.66414
 C3790 C 0.54085 0.21589 0.65984
 C3791 C 0.54759 0.22560 0.66657
 C3792 C 0.54231 0.23177 0.67712
 C3793 C 0.53007 0.22864 0.68143
 C3794 C 0.52277 0.21907 0.67499
 C3795 C 0.51033 0.21645 0.67978
 C3796 C 0.50566 0.22266 0.69075
 C3797 C 0.51310 0.23184 0.69725
 C3798 C 0.52522 0.23494 0.69233
 H3799 H 0.56495 0.21924 0.64850
 H3800 H 0.53835 0.18638 0.62660
 H3801 H 0.57302 0.20859 0.63021
 H3802 H 0.52142 0.18904 0.64215
 H3803 H 0.51223 0.19939 0.66033
 H3804 H 0.55707 0.22871 0.66398
 H3805 H 0.54793 0.23908 0.68201
 H3806 H 0.50397 0.20956 0.67540
 H3807 H 0.49624 0.22008 0.69428
 H3808 H 0.53114 0.24196 0.69727
 C3809 C 1.03559 0.19136 0.14260
 C3810 C 1.03949 0.20296 0.14864
 C3811 C 1.05009 0.20961 0.14326
 C3812 C 1.05638 0.20480 0.13228
 C3813 C 1.05230 0.19335 0.12635
 C3814 C 1.04188 0.18671 0.13172
 C3815 C 1.05437 0.22106 0.14884
 C3816 C 1.04825 0.22624 0.15951
 C3817 C 1.03750 0.22015 0.16512
 C3818 C 1.03318 0.20819 0.15973
 C3819 C 1.02272 0.20185 0.16561
 C3820 C 1.01657 0.20703 0.17625
 C3821 C 1.02049 0.21877 0.18146
 C3822 C 1.03097 0.22555 0.17599
 C3823 C 1.03444 0.23748 0.18169
 C3824 C 1.02799 0.24220 0.19246
 C3825 C 1.01779 0.23533 0.19795
 C3826 C 1.01403 0.22365 0.19227
 H3827 H 1.02766 0.18563 0.14593
 H3828 H 1.06440 0.21011 0.12832
 H3829 H 1.03844 0.17780 0.12757
 H3830 H 1.06255 0.22614 0.14487
 H3831 H 1.05227 0.23507 0.16317
 H3832 H 1.01901 0.19275 0.16230
 H3833 H 1.00863 0.20176 0.18044
 H3834 H 1.04214 0.24341 0.17814
 H3835 H 1.03120 0.25122 0.19663
 H3836 H 1.00625 0.21814 0.19647
 C3837 C 0.60481 0.21196 0.69148
 C3838 C 0.59974 0.20918 0.70376
 C3839 C 0.60594 0.19946 0.71113
 C3840 C 0.61696 0.19312 0.70640
 C3841 C 0.62201 0.19630 0.69431
 C3842 C 0.61565 0.20564 0.68690
 C3843 C 0.60114 0.19614 0.72319
 C3844 C 0.59043 0.20233 0.72821
 C3845 C 0.58405 0.21225 0.72138
 C3846 C 0.58875 0.21568 0.70891
 C3847 C 0.58235 0.22553 0.70201
 C3848 C 0.57166 0.23171 0.70697
 C3849 C 0.56692 0.22848 0.71905
 C3850 C 0.57305 0.21879 0.72652
 C3851 C 0.56781 0.21604 0.73877
 C3852 C 0.55675 0.22228 0.74311
 C3853 C 0.55056 0.23158 0.73551
 C3854 C 0.55588 0.23478 0.72357
 H3855 H 0.60067 0.21897 0.68505
 H3856 H 0.62167 0.18587 0.71224
 H3857 H 0.61896 0.20819 0.67740
 H3858 H 0.60573 0.18863 0.72884
 H3859 H 0.58736 0.19905 0.73753
 H3860 H 0.58530 0.22877 0.69265
 H3861 H 0.56703 0.23913 0.70124
 H3862 H 0.57190 0.20902 0.74522
 H3863 H 0.55290 0.21960 0.75241
 H3864 H 0.55118 0.24190 0.71753
 C3865 C 1.10561 0.21504 0.19043
 C3866 C 1.09970 0.21109 0.20204
 C3867 C 1.10530 0.20056 0.20873
 C3868 C 1.11631 0.19437 0.20395
 C3869 C 1.12211 0.19846 0.19249
 C3870 C 1.11658 0.20883 0.18580
 C3871 C 1.09994 0.19622 0.22020
 C3872 C 1.08925 0.20223 0.22540
 C3873 C 1.08339 0.21292 0.21929
 C3874 C 1.08852 0.21725 0.20727
 C3875 C 1.08227 0.22754 0.20087
 C3876 C 1.07149 0.23347 0.20604
 C3877 C 1.06654 0.22955 0.21786
 C3878 C 1.07247 0.21930 0.22473
 C3879 C 1.06718 0.21589 0.23679
 C3880 C 1.05627 0.22204 0.24151
 C3881 C 1.05021 0.23190 0.23453
 C3882 C 1.05554 0.23573 0.22276
 H3883 H 1.10211 0.22296 0.18471
 H3884 H 1.12040 0.18641 0.20932
 H3885 H 1.12068 0.21227 0.17689
 H3886 H 1.10409 0.18808 0.22529
 H3887 H 1.08573 0.19811 0.23421
 H3888 H 1.08538 0.23120 0.19171
 H3889 H 1.06698 0.24125 0.20071
 H3890 H 1.07119 0.20849 0.24286
 H3891 H 1.05245 0.21884 0.25066
 H3892 H 1.05093 0.24328 0.21719
 C3893 C 0.14467 0.71402 0.55851
 C3894 C 0.15043 0.71044 0.54674
 C3895 C 0.14482 0.70005 0.53986
 C3896 C 0.13385 0.69374 0.54457
 C3897 C 0.12816 0.69758 0.55614
 C3898 C 0.13381 0.70770 0.56308
 C3899 C 0.15016 0.69601 0.52827
 C3900 C 0.16077 0.70222 0.52315
 C3901 C 0.16654 0.71283 0.52944
 C3902 C 0.16144 0.71684 0.54156
 C3903 C 0.16754 0.72710 0.54810
 C3904 C 0.17817 0.73329 0.54299
 C3905 C 0.18311 0.72965 0.53111
 C3906 C 0.17732 0.71947 0.52408
 C3907 C 0.18260 0.71638 0.51195
 C3908 C 0.19340 0.72275 0.50732
 C3909 C 0.19933 0.73253 0.51450
 C3910 C 0.19398 0.73607 0.52631
 H3911 H 0.14823 0.72172 0.56446
 H3912 H 0.12968 0.68592 0.53907
 H3913 H 0.12988 0.71087 0.57215
 H3914 H 0.14605 0.68795 0.52305
 H3915 H 0.16429 0.69833 0.51424
 H3916 H 0.16442 0.73059 0.55732
 H3917 H 0.18257 0.74104 0.54843
 H3918 H 0.17869 0.70905 0.50575
 H3919 H 0.19725 0.71982 0.49810
 H3920 H 0.19849 0.74357 0.53200
 C3921 C 0.14601 0.19037 1.03819
 C3922 C 0.15091 0.20285 1.04065
 C3923 C 0.14447 0.21048 1.04996
 C3924 C 0.13342 0.20582 1.05623
 C3925 C 0.12851 0.19356 1.05334
 C3926 C 0.13508 0.18587 1.04441
 C3927 C 0.14902 0.22277 1.05294
 C3928 C 0.15967 0.22782 1.04671
 C3929 C 0.16622 0.22079 1.03709
 C3930 C 0.16191 0.20800 1.03416
 C3931 C 0.16870 0.20082 1.02482
 C3932 C 0.17934 0.20588 1.01860
 C3933 C 0.18362 0.21834 1.02125
 C3934 C 0.17704 0.22605 1.03040
 C3935 C 0.18159 0.23875 1.03245
 C3936 C 0.19245 0.24331 1.02613
 C3937 C 0.19921 0.23550 1.01745
 C3938 C 0.19457 0.22306 1.01488
 H3939 H 0.15031 0.18378 1.03145
 H3940 H 0.12851 0.21187 1.06314
 H3941 H 0.13183 0.17622 1.04214
 H3942 H 0.14428 0.22859 1.06018
 H3943 H 0.16255 0.23731 1.04976
 H3944 H 0.16610 0.19116 1.02206
 H3945 H 0.18427 0.19994 1.01157
 H3946 H 0.17705 0.24545 1.03892
 H3947 H 0.19570 0.25301 1.02831
 H3948 H 0.19968 0.21689 1.00820
 C3949 C 0.64436 0.53575 0.18977
 C3950 C 0.64980 0.53932 0.20172
 C3951 C 0.64373 0.54941 0.20863
 C3952 C 0.63276 0.55556 0.20373
 C3953 C 0.62748 0.55190 0.19189
 C3954 C 0.63343 0.54193 0.18500
 C3955 C 0.64860 0.55336 0.22045
 C3956 C 0.65930 0.54744 0.22572
 C3957 C 0.66567 0.53724 0.21935
 C3958 C 0.66098 0.53325 0.20704
 C3959 C 0.66770 0.52342 0.20044
 C3960 C 0.67857 0.51769 0.20563
 C3961 C 0.68317 0.52135 0.21766
 C3962 C 0.67671 0.53105 0.22479
 C3963 C 0.68163 0.53417 0.23708
 C3964 C 0.69275 0.52835 0.24174
 C3965 C 0.69936 0.51910 0.23447
 C3966 C 0.69434 0.51548 0.22251
 H3967 H 0.64824 0.52816 0.18385
 H3968 H 0.62831 0.56318 0.20929
 H3969 H 0.62971 0.53885 0.17580
 H3970 H 0.64407 0.56116 0.22572
 H3971 H 0.66243 0.55127 0.23480
 H3972 H 0.66489 0.51999 0.19110
 H3973 H 0.68346 0.51028 0.20013
 H3974 H 0.67718 0.54109 0.24337
 H3975 H 0.69630 0.53130 0.25107
 H3976 H 0.69933 0.50835 0.21675
 C3977 C 0.64230 1.03427 0.69204
 C3978 C 0.64764 1.03767 0.70408
 C3979 C 0.64152 1.04764 0.71112
 C3980 C 0.63059 1.05385 0.70623
 C3981 C 0.62541 1.05032 0.69432
 C3982 C 0.63142 1.04049 0.68730
 C3983 C 0.64629 1.05141 0.72303
 C3984 C 0.65695 1.04541 0.72829
 C3985 C 0.66336 1.03532 0.72179
 C3986 C 0.65876 1.03153 0.70938
 C3987 C 0.66548 1.02179 0.70266
 C3988 C 0.67627 1.01594 0.70783
 C3989 C 0.68077 1.01942 0.71994
 C3990 C 0.67435 1.02904 0.72718
 C3991 C 0.67929 1.03202 0.73951
 C3992 C 0.69040 1.02609 0.74411
 C3993 C 0.69688 1.01688 0.73672
 C3994 C 0.69185 1.01343 0.72472
 H3995 H 0.64622 1.02680 0.68602
 H3996 H 0.62607 1.06136 0.71187
 H3997 H 0.62778 1.03756 0.67803
 H3998 H 0.64172 1.05912 0.72839
 H3999 H 0.65999 1.04904 0.73747
 H4000 H 0.66275 1.01851 0.69325
 H4001 H 0.68118 1.00862 0.70224
 H4002 H 0.67491 1.03894 0.74585
 H4003 H 0.69403 1.02892 0.75344
 H4004 H 0.69680 1.00637 0.71884
 C4005 C 0.85551 0.44013 0.28624
 C4006 C 0.84958 0.45181 0.29015
 C4007 C 0.85514 0.45846 0.30067
 C4008 C 0.86611 0.45358 0.30688
 C4009 C 0.87189 0.44202 0.30286
 C4010 C 0.86641 0.43539 0.29248
 C4011 C 0.84977 0.47000 0.30497
 C4012 C 0.83907 0.47525 0.29901
 C4013 C 0.83321 0.46915 0.28838
 C4014 C 0.83843 0.45713 0.28399
 C4015 C 0.83229 0.45083 0.27364
 C4016 C 0.82154 0.45610 0.26771
 C4017 C 0.81645 0.46788 0.27174
 C4018 C 0.82224 0.47463 0.28208
 C4019 C 0.81679 0.48663 0.28566
 C4020 C 0.80594 0.49148 0.27950
 C4021 C 0.80008 0.48470 0.26944
 C4022 C 0.80550 0.47291 0.26554
 H4023 H 0.85202 0.43441 0.27835
 H4024 H 0.87016 0.45892 0.31484
 H4025 H 0.87051 0.42642 0.28908
 H4026 H 0.85390 0.47508 0.31307
 H4027 H 0.83558 0.48413 0.30309
 H4028 H 0.83551 0.44170 0.26988
 H4029 H 0.81717 0.45087 0.25983
 H4030 H 0.82061 0.49258 0.29321
 H4031 H 0.80206 0.50061 0.28279
 H4032 H 0.80106 0.46748 0.25783
 C4033 C 0.85349 0.96187 0.80947
 C4034 C 0.84801 0.95846 0.79752
 C4035 C 0.85389 0.94827 0.79056
 C4036 C 0.86496 0.94205 0.79534
 C4037 C 0.87041 0.94581 0.80708
 C4038 C 0.86441 0.95567 0.81410
 C4039 C 0.84874 0.94436 0.77884
 C4040 C 0.83799 0.95043 0.77373
 C4041 C 0.83191 0.96080 0.78014
 C4042 C 0.83696 0.96483 0.79228
 C4043 C 0.83083 0.97513 0.79875
 C4044 C 0.82016 0.98126 0.79364
 C4045 C 0.81512 0.97749 0.78185
 C4046 C 0.82091 0.96726 0.77486
 C4047 C 0.81540 0.96395 0.76288
 C4048 C 0.80449 0.97029 0.75829
 C4049 C 0.79867 0.98023 0.76536
 C4050 C 0.80418 0.98386 0.77709
 H4051 H 0.84963 0.96932 0.81556
 H4052 H 0.86942 0.93443 0.78978
 H4053 H 0.86808 0.95870 0.82331
 H4054 H 0.85309 0.93650 0.77350
 H4055 H 0.83467 0.94669 0.76468
 H4056 H 0.83402 0.97877 0.80788
 H4057 H 0.81580 0.98908 0.79902
 H4058 H 0.81918 0.95645 0.75680
 H4059 H 0.80049 0.96721 0.74919
 H4060 H 0.79979 0.99148 0.78273
 C4061 C 0.39447 0.28540 0.80921
 C4062 C 0.39994 0.28928 0.79736
 C4063 C 0.39388 0.29952 0.79064
 C4064 C 0.38283 0.30547 0.79561
 C4065 C 0.37749 0.30145 0.80732
 C4066 C 0.38348 0.29138 0.81404
 C4067 C 0.39881 0.30378 0.77894
 C4068 C 0.40957 0.29802 0.77359
 C4069 C 0.41591 0.28767 0.77976
 C4070 C 0.41112 0.28333 0.79193
 C4071 C 0.41766 0.27320 0.79827
 C4072 C 0.42837 0.26739 0.79289
 C4073 C 0.43304 0.27136 0.78098
 C4074 C 0.42692 0.28154 0.77420
 C4075 C 0.43213 0.28512 0.76213
 C4076 C 0.44302 0.27902 0.75721
 C4077 C 0.44908 0.26906 0.76403
 C4078 C 0.44393 0.26524 0.77589
 H4079 H 0.39837 0.27773 0.81502
 H4080 H 0.37836 0.31319 0.79019
 H4081 H 0.37973 0.28803 0.82314
 H4082 H 0.39427 0.31168 0.77380
 H4083 H 0.41268 0.30199 0.76456
 H4084 H 0.41480 0.26950 0.80749
 H4085 H 0.43306 0.25966 0.79814
 H4086 H 0.42810 0.29263 0.75622
 H4087 H 0.44678 0.28226 0.74806
 H4088 H 0.44856 0.25763 0.78137
 C4089 C 0.89502 0.30799 0.28648
 C4090 C 0.89953 0.29527 0.28852
 C4091 C 0.89308 0.28765 0.29785
 C4092 C 0.88232 0.29254 0.30446
 C4093 C 0.87774 0.30503 0.30192
 C4094 C 0.88441 0.31272 0.29306
 C4095 C 0.89735 0.27515 0.30047
 C4096 C 0.90768 0.26990 0.29385
 C4097 C 0.91417 0.27692 0.28418
 C4098 C 0.91015 0.28991 0.28162
 C4099 C 0.91688 0.29709 0.27223
 C4100 C 0.92724 0.29189 0.26567
 C4101 C 0.93125 0.27927 0.26801
 C4102 C 0.92468 0.27150 0.27712
 C4103 C 0.92900 0.25864 0.27881
 C4104 C 0.93980 0.25405 0.27234
 C4105 C 0.94662 0.26200 0.26383
 C4106 C 0.94204 0.27450 0.26145
 H4107 H 0.89939 0.31462 0.27983
 H4108 H 0.87736 0.28650 0.31137
 H4109 H 0.88146 0.32254 0.29107
 H4110 H 0.89263 0.26933 0.30773
 H4111 H 0.91040 0.26026 0.29665
 H4112 H 0.91448 0.30687 0.26969
 H4113 H 0.93219 0.29786 0.25869
 H4114 H 0.92438 0.25188 0.28517
 H4115 H 0.94302 0.24429 0.27432
 H4116 H 0.94723 0.28079 0.25492
 C4117 C 0.35579 0.81085 0.46498
 C4118 C 0.35033 0.79874 0.46183
 C4119 C 0.35635 0.79143 0.45202
 C4120 C 0.36731 0.79613 0.44571
 C4121 C 0.37262 0.80812 0.44898
 C4122 C 0.36671 0.81540 0.45866
 C4123 C 0.35145 0.77942 0.44851
 C4124 C 0.34083 0.77431 0.45469
 C4125 C 0.33459 0.78103 0.46470
 C4126 C 0.33920 0.79360 0.46812
 C4127 C 0.33248 0.80062 0.47761
 C4128 C 0.32170 0.79556 0.48362
 C4129 C 0.31725 0.78324 0.48060
 C4130 C 0.32372 0.77570 0.47124
 C4131 C 0.31903 0.76311 0.46884
 C4132 C 0.30804 0.75854 0.47494
 C4133 C 0.30133 0.76622 0.48376
 C4134 C 0.30618 0.77850 0.48674
 H4135 H 0.35197 0.81705 0.47234
 H4136 H 0.37176 0.79029 0.43833
 H4137 H 0.37045 0.82474 0.46141
 H4138 H 0.35591 0.77387 0.44089
 H4139 H 0.33764 0.76507 0.45119
 H4140 H 0.33517 0.81022 0.48053
 H4141 H 0.31680 0.80138 0.49075
 H4142 H 0.32356 0.75649 0.46229
 H4143 H 0.30464 0.74896 0.47248
 H4144 H 0.30112 0.78458 0.49354
 C4145 C 0.35595 0.28726 0.94300
 C4146 C 0.35071 0.29046 0.95510
 C4147 C 0.35660 0.30066 0.96204
 C4148 C 0.36748 0.30707 0.95709
 C4149 C 0.37272 0.30350 0.94519
 C4150 C 0.36666 0.29365 0.93820
 C4151 C 0.35161 0.30440 0.97389
 C4152 C 0.34107 0.29812 0.97917
 C4153 C 0.33505 0.28769 0.97281
 C4154 C 0.33986 0.28390 0.96050
 C4155 C 0.33366 0.27369 0.95398
 C4156 C 0.32309 0.26747 0.95918
 C4157 C 0.31828 0.27101 0.97115
 C4158 C 0.32427 0.28104 0.97825
 C4159 C 0.31911 0.28399 0.99048
 C4160 C 0.30814 0.27777 0.99505
 C4161 C 0.30197 0.26825 0.98774
 C4162 C 0.30732 0.26471 0.97591
 H4163 H 0.35207 0.27984 0.93691
 H4164 H 0.37194 0.31471 0.96261
 H4165 H 0.37011 0.29074 0.92886
 H4166 H 0.35592 0.31230 0.97918
 H4167 H 0.33781 0.30179 0.98827
 H4168 H 0.33666 0.27022 0.94471
 H4169 H 0.31858 0.25980 0.95371
 H4170 H 0.32321 0.29116 0.99674
 H4171 H 0.30432 0.28066 1.00429
 H4172 H 0.30265 0.25740 0.97011
 C4173 C 0.80849 0.46424 0.35489
 C4174 C 0.79652 0.46080 0.34951
 C4175 C 0.78968 0.45054 0.35539
 C4176 C 0.79459 0.44426 0.36632
 C4177 C 0.80631 0.44804 0.37170
 C4178 C 0.81323 0.45798 0.36575
 C4179 C 0.77790 0.44665 0.35043
 C4180 C 0.77255 0.45289 0.33990
 C4181 C 0.77880 0.46338 0.33386
 C4182 C 0.79109 0.46726 0.33861
 C4183 C 0.79752 0.47748 0.33234
 C4184 C 0.79214 0.48381 0.32191
 C4185 C 0.78012 0.48030 0.31731
 C4186 C 0.77321 0.47008 0.32318
 C4187 C 0.76101 0.46703 0.31806
 C4188 C 0.75616 0.47358 0.30737
 C4189 C 0.76319 0.48348 0.30147
 C4190 C 0.77510 0.48689 0.30666
 H4191 H 0.81445 0.47180 0.35107
 H4192 H 0.78910 0.43659 0.37078
 H4193 H 0.82243 0.46101 0.36944
 H4194 H 0.77269 0.43871 0.35478
 H4195 H 0.76347 0.44919 0.33671
 H4196 H 0.80683 0.48089 0.33519
 H4197 H 0.79749 0.49156 0.31739
 H4198 H 0.75496 0.45958 0.32197
 H4199 H 0.74694 0.47067 0.30357
 H4200 H 0.78072 0.49445 0.30215
 C4201 C 0.80786 0.96182 0.85437
 C4202 C 0.79557 0.95884 0.84953
 C4203 C 0.78843 0.94912 0.85596
 C4204 C 0.79336 0.94299 0.86698
 C4205 C 0.80542 0.94636 0.87182
 C4206 C 0.81264 0.95569 0.86526
 C4207 C 0.77637 0.94561 0.85142
 C4208 C 0.77109 0.95166 0.84075
 C4209 C 0.77766 0.96161 0.83418
 C4210 C 0.79016 0.96518 0.83858
 C4211 C 0.79681 0.97504 0.83195
 C4212 C 0.79151 0.98119 0.82140
 C4213 C 0.77937 0.97785 0.81700
 C4214 C 0.77221 0.96807 0.82330
 C4215 C 0.75989 0.96518 0.81837
 C4216 C 0.75517 0.97146 0.80749
 C4217 C 0.76244 0.98092 0.80120
 C4218 C 0.77447 0.98419 0.80616
 H4219 H 0.81412 0.96885 0.85006
 H4220 H 0.78767 0.93575 0.87188
 H4221 H 0.82212 0.95838 0.86846
 H4222 H 0.77091 0.93809 0.85620
 H4223 H 0.76177 0.94826 0.83791
 H4224 H 0.80620 0.97834 0.83464
 H4225 H 0.79702 0.98866 0.81660
 H4226 H 0.75367 0.95804 0.82257
 H4227 H 0.74583 0.96871 0.80387
 H4228 H 0.78026 0.99142 0.80135
 C4229 C 0.30920 0.78527 0.39498
 C4230 C 0.29679 0.78794 0.39974
 C4231 C 0.28950 0.79758 0.39335
 C4232 C 0.29445 0.80403 0.38257
 C4233 C 0.30665 0.80102 0.37783
 C4234 C 0.31399 0.79169 0.38425
 C4235 C 0.27725 0.80069 0.39768
 C4236 C 0.27186 0.79419 0.40800
 C4237 C 0.27854 0.78425 0.41448
 C4238 C 0.29136 0.78133 0.41052
 C4239 C 0.29833 0.77195 0.41750
 C4240 C 0.29301 0.76561 0.42794
 C4241 C 0.28049 0.76816 0.43176
 C4242 C 0.27296 0.77733 0.42498
 C4243 C 0.26016 0.77921 0.42907
 C4244 C 0.25544 0.77296 0.43995
 C4245 C 0.26319 0.76447 0.44702
 C4246 C 0.27558 0.76182 0.44261
 H4247 H 0.31548 0.77817 0.39917
 H4248 H 0.28864 0.81123 0.37775
 H4249 H 0.32354 0.78926 0.38103
 H4250 H 0.27173 0.80822 0.39299
 H4251 H 0.26243 0.79735 0.41078
 H4252 H 0.30807 0.76936 0.41530
 H4253 H 0.29882 0.75864 0.43312
 H4254 H 0.25356 0.78553 0.42420
 H4255 H 0.24576 0.77510 0.44305
 H4256 H 0.28170 0.75528 0.44799
 C4257 C 0.28386 0.30836 0.89381
 C4258 C 0.28765 0.29659 0.89965
 C4259 C 0.29828 0.29001 0.89426
 C4260 C 0.30470 0.29503 0.88348
 C4261 C 0.30075 0.30664 0.87773
 C4262 C 0.29030 0.31324 0.88309
 C4263 C 0.30249 0.27840 0.89961
 C4264 C 0.29628 0.27300 0.91010
 C4265 C 0.28552 0.27902 0.91576
 C4266 C 0.28126 0.29113 0.91059
 C4267 C 0.27082 0.29740 0.91657
 C4268 C 0.26474 0.29209 0.92718
 C4269 C 0.26866 0.28026 0.93224
 C4270 C 0.27900 0.27345 0.92655
 C4271 C 0.28240 0.26136 0.93201
 C4272 C 0.27624 0.25667 0.94297
 C4273 C 0.26637 0.26370 0.94883
 C4274 C 0.26245 0.27537 0.94319
 H4275 H 0.27591 0.31405 0.89718
 H4276 H 0.31274 0.28974 0.87953
 H4277 H 0.28697 0.32226 0.87903
 H4278 H 0.31070 0.27340 0.89561
 H4279 H 0.30030 0.26410 0.91364
 H4280 H 0.26714 0.30659 0.91339
 H4281 H 0.25686 0.29737 0.93152
 H4282 H 0.28986 0.25531 0.92815
 H4283 H 0.27947 0.24759 0.94705
 H4284 H 0.25486 0.28098 0.94763
 C4285 C 0.44116 0.28665 0.85422
 C4286 C 0.45303 0.29017 0.84868
 C4287 C 0.46001 0.30027 0.85463
 C4288 C 0.45528 0.30639 0.86573
 C4289 C 0.44358 0.30262 0.87118
 C4290 C 0.43657 0.29276 0.86521
 C4291 C 0.47172 0.30422 0.84953
 C4292 C 0.47681 0.29825 0.83874
 C4293 C 0.47038 0.28798 0.83256
 C4294 C 0.45821 0.28398 0.83752
 C4295 C 0.45162 0.27392 0.83116
 C4296 C 0.45671 0.26792 0.82042
 C4297 C 0.46859 0.27159 0.81556
 C4298 C 0.47566 0.28162 0.82154
 C4299 C 0.48771 0.28485 0.81617
 C4300 C 0.49230 0.27861 0.80521
 C4301 C 0.48514 0.26886 0.79925
 C4302 C 0.47334 0.26532 0.80461
 H4303 H 0.43512 0.27916 0.85038
 H4304 H 0.46085 0.31399 0.87018
 H4305 H 0.42742 0.28968 0.86897
 H4306 H 0.47705 0.31202 0.85396
 H4307 H 0.48586 0.30199 0.83547
 H4308 H 0.44240 0.27041 0.83418
 H4309 H 0.45126 0.26027 0.81587
 H4310 H 0.49386 0.29219 0.82011
 H4311 H 0.50145 0.28160 0.80130
 H4312 H 0.46763 0.25786 0.80006
 C4313 C 0.96493 0.30646 0.35480
 C4314 C 0.96170 0.29422 0.34972
 C4315 C 0.95185 0.28715 0.35596
 C4316 C 0.94572 0.29215 0.36689
 C4317 C 0.94922 0.30419 0.37190
 C4318 C 0.95879 0.31131 0.36565
 C4319 C 0.94816 0.27510 0.35131
 C4320 C 0.95417 0.26973 0.34070
 C4321 C 0.96421 0.27621 0.33428
 C4322 C 0.96791 0.28876 0.33874
 C4323 C 0.97767 0.29543 0.33208
 C4324 C 0.98362 0.29009 0.32144
 C4325 C 0.98020 0.27788 0.31704
 C4326 C 0.97055 0.27066 0.32341
 C4327 C 0.96763 0.25823 0.31853
 C4328 C 0.97355 0.25355 0.30745
 C4329 C 0.98275 0.26095 0.30100
 C4330 C 0.98623 0.27299 0.30605
 H4331 H 0.97219 0.31259 0.35073
 H4332 H 0.93834 0.28650 0.37157
 H4333 H 0.96164 0.32074 0.36907
 H4334 H 0.94054 0.26973 0.35594
 H4335 H 0.95060 0.26045 0.33773
 H4336 H 0.98094 0.30491 0.33473
 H4337 H 0.99098 0.29564 0.31657
 H4338 H 0.96070 0.25190 0.32290
 H4339 H 0.97071 0.24418 0.30379
 H4340 H 0.99328 0.27887 0.30111
 C4341 C 0.46556 0.35569 0.80860
 C4342 C 0.46186 0.35006 0.79677
 C4343 C 0.45148 0.35585 0.79010
 C4344 C 0.44521 0.36675 0.79511
 C4345 C 0.44907 0.37229 0.80677
 C4346 C 0.45928 0.36657 0.81345
 C4347 C 0.44739 0.35079 0.77841
 C4348 C 0.45356 0.34029 0.77293
 C4349 C 0.46414 0.33432 0.77896
 C4350 C 0.46813 0.33903 0.79126
 C4351 C 0.47820 0.33251 0.79765
 C4352 C 0.48427 0.32191 0.79218
 C4353 C 0.48076 0.31745 0.78005
 C4354 C 0.47074 0.32365 0.77319
 C4355 C 0.46777 0.31891 0.76079
 C4356 C 0.47407 0.30818 0.75573
 C4357 C 0.48365 0.30180 0.76272
 C4358 C 0.48709 0.30664 0.77482
 H4359 H 0.47336 0.35203 0.81430
 H4360 H 0.43738 0.37099 0.78974
 H4361 H 0.46251 0.37048 0.82252
 H4362 H 0.43933 0.35505 0.77337
 H4363 H 0.44963 0.33698 0.76396
 H4364 H 0.48154 0.33526 0.80704
 H4365 H 0.49186 0.31716 0.79751
 H4366 H 0.46061 0.32322 0.75470
 H4367 H 0.47117 0.30471 0.74636
 H4368 H 0.49442 0.30177 0.78040
 C4369 C 0.96486 0.35453 0.31072
 C4370 C 0.96148 0.34916 0.29867
 C4371 C 0.95143 0.35525 0.29177
 C4372 C 0.94515 0.36617 0.29677
 C4373 C 0.94866 0.37141 0.30869
 C4374 C 0.95857 0.36541 0.31558
 C4375 C 0.94766 0.35044 0.27986
 C4376 C 0.95378 0.33986 0.27445
 C4377 C 0.96400 0.33354 0.28077
 C4378 C 0.96772 0.33807 0.29322
 C4379 C 0.97747 0.33128 0.29983
 C4380 C 0.98341 0.32052 0.29449
 C4381 C 0.98008 0.31615 0.28227
 C4382 C 0.97047 0.32270 0.27514
 C4383 C 0.96774 0.31808 0.26264
 C4384 C 0.97380 0.30710 0.25777
 C4385 C 0.98290 0.30033 0.26506
 C4386 C 0.98617 0.30510 0.27724
 H4387 H 0.97240 0.35063 0.31663
 H4388 H 0.93758 0.37064 0.29122
 H4389 H 0.96153 0.36908 0.32484
 H4390 H 0.93987 0.35495 0.27460
 H4391 H 0.95008 0.33675 0.26531
 H4392 H 0.98066 0.33393 0.30930
 H4393 H 0.99073 0.31557 0.30001
 H4394 H 0.96095 0.32267 0.25633
 H4395 H 0.97111 0.30377 0.24829
 H4396 H 0.99319 0.29999 0.28302
 C4397 C 0.30894 0.85650 0.46376
 C4398 C 0.29686 0.85132 0.46037
 C4399 C 0.29009 0.85742 0.45021
 C4400 C 0.29525 0.86829 0.44390
 C4401 C 0.30717 0.87339 0.44751
 C4402 C 0.31394 0.86729 0.45745
 C4403 C 0.27818 0.85269 0.44642
 C4404 C 0.27268 0.84214 0.45258
 C4405 C 0.27889 0.83581 0.46287
 C4406 C 0.29128 0.84036 0.46671
 C4407 C 0.29769 0.83379 0.47673
 C4408 C 0.29225 0.82321 0.48283
 C4409 C 0.28017 0.81875 0.47932
 C4410 C 0.27323 0.82498 0.46937
 C4411 C 0.26094 0.82002 0.46633
 C4412 C 0.25608 0.80908 0.47254
 C4413 C 0.26316 0.80278 0.48212
 C4414 C 0.27512 0.80786 0.48559
 H4415 H 0.31482 0.85255 0.47129
 H4416 H 0.28984 0.87284 0.43625
 H4417 H 0.32322 0.87077 0.46045
 H4418 H 0.27300 0.85722 0.43858
 H4419 H 0.26351 0.83913 0.44893
 H4420 H 0.30706 0.83649 0.48011
 H4421 H 0.29760 0.81845 0.49041
 H4422 H 0.25485 0.82426 0.45912
 H4423 H 0.24680 0.80541 0.46964
 H4424 H 0.28080 0.80306 0.49290
 C4425 C 0.30661 0.35766 0.96335
 C4426 C 0.29468 0.35220 0.96000
 C4427 C 0.28791 0.35784 0.94958
 C4428 C 0.29284 0.36873 0.94311
 C4429 C 0.30456 0.37417 0.94682
 C4430 C 0.31140 0.36836 0.95688
 C4431 C 0.27623 0.35263 0.94570
 C4432 C 0.27098 0.34206 0.95203
 C4433 C 0.27719 0.33628 0.96266
 C4434 C 0.28930 0.34137 0.96663
 C4435 C 0.29563 0.33550 0.97712
 C4436 C 0.29044 0.32497 0.98346
 C4437 C 0.27869 0.31989 0.97974
 C4438 C 0.27179 0.32549 0.96938
 C4439 C 0.25981 0.31994 0.96617
 C4440 C 0.25528 0.30901 0.97260
 C4441 C 0.26238 0.30333 0.98254
 C4442 C 0.27396 0.30902 0.98622
 H4443 H 0.31258 0.35397 0.97094
 H4444 H 0.28745 0.37301 0.93530
 H4445 H 0.32061 0.37198 0.95993
 H4446 H 0.27107 0.35676 0.93764
 H4447 H 0.26201 0.33861 0.94828
 H4448 H 0.30472 0.33873 0.98076
 H4449 H 0.29574 0.32073 0.99138
 H4450 H 0.25376 0.32366 0.95866
 H4451 H 0.24626 0.30484 0.96954
 H4452 H 0.27961 0.30468 0.99383
 C4453 C 0.80875 0.39626 0.28571
 C4454 C 0.79665 0.40144 0.28901
 C4455 C 0.78963 0.39517 0.29889
 C4456 C 0.79452 0.38405 0.30492
 C4457 C 0.80640 0.37890 0.30128
 C4458 C 0.81348 0.38523 0.29174
 C4459 C 0.77773 0.39993 0.30265
 C4460 C 0.77241 0.41064 0.29663
 C4461 C 0.77881 0.41704 0.28650
 C4462 C 0.79124 0.41251 0.28279
 C4463 C 0.79784 0.41916 0.27295
 C4464 C 0.79248 0.42976 0.26684
 C4465 C 0.78033 0.43415 0.27018
 C4466 C 0.77325 0.42788 0.28000
 C4467 C 0.76089 0.43278 0.28288
 C4468 C 0.75608 0.44367 0.27659
 C4469 C 0.76330 0.44997 0.26713
 C4470 C 0.77534 0.44499 0.26384
 H4471 H 0.81485 0.40038 0.27846
 H4472 H 0.78890 0.37932 0.31229
 H4473 H 0.82280 0.38171 0.28884
 H4474 H 0.77240 0.39529 0.31032
 H4475 H 0.76322 0.41367 0.30023
 H4476 H 0.80726 0.41650 0.26970
 H4477 H 0.79794 0.43457 0.25937
 H4478 H 0.75470 0.42854 0.29000
 H4479 H 0.74675 0.44731 0.27937
 H4480 H 0.78110 0.44981 0.25661
   
