data_POSCAR
  _audit_creation_date              2014-09-24
  _audit_creation_method            'ToBaCCo'
  _symmetry_space_group_name_H-M    'P1'
  _symmetry_Int_Tables_number       1
  _symmetry_cell_setting            triclinic
  loop_
  _symmetry_equiv_pos_as_xyz
 x,y,z
_cell_length_a 61.2034
_cell_length_b 62.3710
_cell_length_c 63.8069
_cell_angle_alpha 89.951700
_cell_angle_beta 90.172800
_cell_angle_gamma 90.120800
loop_
  _atom_site_label
  _atom_site_type_symbol
  _atom_site_fract_x
  _atom_site_fract_y
  _atom_site_fract_z
C1 C 0.30081 0.32939 0.00717
 C2 C 0.29916 0.32718 -0.01493
 C3 C 0.31141 0.31100 -0.02484
 C4 C 0.32646 0.29806 -0.01375
 C5 C 0.32764 0.30033 0.00845
 C6 C 0.31484 0.31588 0.01839
 H7 H 0.31524 0.31700 0.03536
 H8 H 0.31101 0.31020 -0.04180
 C9 C 0.70498 0.67804 0.00947
 C10 C 0.70390 0.67631 -0.01263
 C11 C 0.68965 0.68967 -0.02387
 C12 C 0.67644 0.70504 -0.01387
 C13 C 0.67790 0.70688 0.00833
 C14 C 0.69228 0.69362 0.01955
 H15 H 0.69253 0.69455 0.03652
 H16 H 0.68960 0.68856 -0.04082
 C17 C 0.71436 0.31534 0.99251
 C18 C 0.71151 0.31776 1.01455
 C19 C 0.69568 0.30486 1.02454
 C20 C 0.68276 0.29016 1.01340
 C21 C 0.68575 0.28797 0.99159
 C22 C 0.70183 0.30017 0.98152
 H23 H 0.70342 0.29904 0.96462
 H24 H 0.69372 0.30568 1.04140
 C25 C 0.28764 0.68253 0.99053
 C26 C 0.28871 0.68149 1.01279
 C27 C 0.30353 0.69514 1.02325
 C28 C 0.31705 0.70983 1.01260
 C29 C 0.31582 0.71061 0.99033
 C30 C 0.30093 0.69724 0.97982
 H31 H 0.30079 0.69722 0.96282
 H32 H 0.30336 0.69544 1.04023
 C33 C 0.00985 0.29397 0.32181
 C34 C -0.01313 0.29574 0.32278
 C35 C -0.02384 0.31013 0.30934
 C36 C -0.01216 0.32290 0.29507
 C37 C 0.01088 0.32078 0.29390
 C38 C 0.02151 0.30620 0.30722
 H39 H 0.03915 0.30474 0.30662
 H40 H -0.04145 0.31168 0.31027
 C41 C 0.00683 0.70444 0.67677
 C42 C -0.01640 0.70378 0.67579
 C43 C -0.02754 0.68943 0.68912
 C44 C -0.01660 0.67634 0.70379
 C45 C 0.00664 0.67717 0.70453
 C46 C 0.01782 0.69133 0.69122
 H47 H 0.03555 0.69120 0.69122
 H48 H -0.04524 0.68977 0.68930
 C49 C 0.99231 0.70536 0.32356
 C50 C 1.01535 0.70355 0.32442
 C51 C 1.02592 0.68898 0.31115
 C52 C 1.01432 0.67626 0.29660
 C53 C 0.99118 0.67844 0.29568
 C54 C 0.98065 0.69305 0.30892
 H55 H 0.96295 0.69388 0.30866
 H56 H 1.04362 0.68833 0.31160
 C57 C 0.98811 0.30111 0.67050
 C58 C 1.01138 0.29996 0.66993
 C59 C 1.02334 0.31280 0.68413
 C60 C 1.01307 0.32687 0.69812
 C61 C 0.99001 0.32818 0.69829
 C62 C 0.97794 0.31520 0.68456
 H63 H 0.96024 0.31600 0.68487
 H64 H 1.04104 0.31263 0.68384
 C65 C 0.32541 0.00803 0.29971
 C66 C 0.32522 -0.01479 0.29969
 C67 C 0.31216 -0.02547 0.31464
 C68 C 0.29928 -0.01441 0.32942
 C69 C 0.29922 0.00841 0.32873
 C70 C 0.31225 0.01910 0.31400
 H71 H 0.31236 0.03649 0.31385
 H72 H 0.31223 -0.04282 0.31488
 C73 C 0.67619 0.00889 0.70195
 C74 C 0.67577 -0.01384 0.70110
 C75 C 0.68899 -0.02449 0.68650
 C76 C 0.70260 -0.01315 0.67274
 C77 C 0.70316 0.00947 0.67377
 C78 C 0.69022 0.02018 0.68847
 H79 H 0.69031 0.03757 0.68870
 H80 H 0.68883 -0.04187 0.68595
 C81 C 0.31564 0.99264 0.71017
 C82 C 0.31804 1.01523 0.70833
 C83 C 0.30501 1.02604 0.69347
 C84 C 0.28972 1.01531 0.68059
 C85 C 0.28788 0.99261 0.68244
 C86 C 0.30047 0.98183 0.69753
 H87 H 0.29972 0.96447 0.69834
 H88 H 0.30565 1.04339 0.69299
 C89 C 0.68592 0.98848 0.28796
 C90 C 0.68313 1.01096 0.28929
 C91 C 0.69573 1.02269 0.30372
 C92 C 0.71099 1.01273 0.31715
 C93 C 0.71345 0.99008 0.31580
 C94 C 0.70121 0.97845 0.30108
 H95 H 0.70297 0.96116 0.30044
 H96 H 0.69371 1.03994 0.30419
 O97 O 0.84665 0.87635 0.51728
 O98 O 0.87818 0.84606 0.47818
 O99 O 0.84859 0.87612 0.47638
 O100 O 0.87615 0.84640 0.51881
 O101 O 0.85062 0.82144 0.51714
 O102 O 0.82205 0.85211 0.47618
 O103 O 0.85162 0.82214 0.47621
 O104 O 0.82106 0.85141 0.51667
 Cu105 Cu 0.86499 0.86372 0.49774
 Cu106 Cu 0.83378 0.83426 0.49644
 C107 C 0.82850 0.86901 0.52374
 C108 C 0.87022 0.82898 0.47044
 C109 C 0.83044 0.86934 0.46926
 C110 C 0.86817 0.82873 0.52513
 O111 O 0.15130 0.12417 0.51938
 O112 O 0.12307 0.15337 0.47698
 O113 O 0.15272 0.12360 0.47845
 O114 O 0.12157 0.15423 0.51769
 O115 O 0.14800 0.17833 0.51900
 O116 O 0.17815 0.14870 0.47859
 O117 O 0.14833 0.17864 0.47837
 O118 O 0.17746 0.14855 0.51933
 Cu119 Cu 0.13460 0.13632 0.49810
 Cu120 Cu 0.16560 0.16600 0.49882
 C121 C 0.16930 0.13132 0.52653
 C122 C 0.13074 0.17117 0.47067
 C123 C 0.17073 0.13101 0.47170
 C124 C 0.12952 0.17149 0.52508
 O125 O 0.12404 0.84383 0.52241
 O126 O 0.15636 0.87399 0.48362
 O127 O 0.12656 0.84412 0.48170
 O128 O 0.15373 0.87417 0.52401
 O129 O 0.17963 0.84962 0.52557
 O130 O 0.15186 0.81907 0.48379
 O131 O 0.18175 0.84892 0.48470
 O132 O 0.15023 0.81964 0.52460
 Cu133 Cu 0.13755 0.86146 0.50281
 Cu134 Cu 0.16845 0.83184 0.50480
 C135 C 0.13168 0.82664 0.53021
 C136 C 0.17459 0.86658 0.47753
 C137 C 0.13448 0.82641 0.47556
 C138 C 0.17143 0.86716 0.53186
 O139 O 0.84424 0.12624 0.47899
 O140 O 0.87250 0.15624 0.52077
 O141 O 0.84323 0.12601 0.51988
 O142 O 0.87353 0.15655 0.47995
 O143 O 0.84761 0.18107 0.47970
 O144 O 0.81677 0.14998 0.51876
 O145 O 0.84619 0.18035 0.52039
 O146 O 0.81836 0.15077 0.47817
 Cu147 Cu 0.86099 0.13881 0.49995
 Cu148 Cu 0.82962 0.16799 0.49922
 C149 C 0.82648 0.13339 0.47139
 C150 C 0.86417 0.17345 0.52773
 C151 C 0.82474 0.13271 0.52603
 C152 C 0.86580 0.17410 0.47306
 O153 O 0.47570 0.87638 0.84563
 O154 O 0.51889 0.84693 0.87380
 O155 O 0.51840 0.87604 0.84457
 O156 O 0.47660 0.84719 0.87502
 O157 O 0.47461 0.82252 0.85029
 O158 O 0.51783 0.85034 0.82085
 O159 O 0.51718 0.82122 0.85013
 O160 O 0.47559 0.85160 0.82095
 Cu161 Cu 0.49747 0.86422 0.86215
 Cu162 Cu 0.49619 0.83386 0.83316
 C163 C 0.46850 0.86916 0.82831
 C164 C 0.52526 0.82890 0.86690
 C165 C 0.52537 0.86806 0.82754
 C166 C 0.46846 0.82993 0.86784
 O167 O 0.51886 0.15117 0.12340
 O168 O 0.47716 0.12177 0.15358
 O169 O 0.47619 0.15125 0.12433
 O170 O 0.51928 0.12159 0.15243
 O171 O 0.52037 0.14694 0.17653
 O172 O 0.47719 0.17642 0.14858
 O173 O 0.47777 0.14713 0.17769
 O174 O 0.51949 0.17638 0.14762
 Cu175 Cu 0.49776 0.13397 0.13594
 Cu176 Cu 0.49878 0.16422 0.16505
 C177 C 0.52626 0.16886 0.13034
 C178 C 0.47052 0.12935 0.17089
 C179 C 0.46940 0.16899 0.13159
 C180 C 0.52708 0.12914 0.16936
 O181 O 0.52294 0.12261 0.84613
 O182 O 0.48271 0.15326 0.87657
 O183 O 0.48065 0.12421 0.84716
 O184 O 0.52522 0.15170 0.87546
 O185 O 0.52427 0.17791 0.85222
 O186 O 0.48191 0.14899 0.82250
 O187 O 0.48180 0.17793 0.85176
 O188 O 0.52444 0.14878 0.82286
 Cu189 Cu 0.50286 0.13541 0.86377
 Cu190 Cu 0.50317 0.16595 0.83492
 C191 C 0.53064 0.13050 0.82934
 C192 C 0.47519 0.17071 0.86925
 C193 C 0.47388 0.13173 0.82980
 C194 C 0.53209 0.16971 0.86885
 O195 O 0.47847 0.85085 0.12189
 O196 O 0.52264 0.87884 0.15024
 O197 O 0.52109 0.84984 0.12091
 O198 O 0.47996 0.87936 0.15180
 O199 O 0.48070 0.85376 0.17564
 O200 O 0.52068 0.82390 0.14447
 O201 O 0.52316 0.85295 0.17380
 O202 O 0.47854 0.82542 0.14593
 Cu203 Cu 0.50051 0.86733 0.13384
 Cu204 Cu 0.50084 0.83649 0.16238
 C205 C 0.47097 0.83332 0.12905
 C206 C 0.53051 0.87064 0.16684
 C207 C 0.52768 0.83167 0.12736
 C208 C 0.47332 0.87155 0.16906
 O209 O 0.87622 0.51987 0.84729
 O210 O 0.84949 0.47605 0.87646
 O211 O 0.87838 0.47838 0.84635
 O212 O 0.84749 0.51793 0.87723
 O213 O 0.82129 0.51751 0.85341
 O214 O 0.85127 0.47670 0.82352
 O215 O 0.82242 0.47606 0.85353
 O216 O 0.85005 0.51845 0.82349
 Cu217 Cu 0.86554 0.49808 0.86423
 Cu218 Cu 0.83363 0.49706 0.83612
 C219 C 0.86779 0.52653 0.83027
 C220 C 0.83119 0.46881 0.87014
 C221 C 0.87010 0.47081 0.82963
 C222 C 0.82915 0.52460 0.87051
 O223 O 0.12082 0.51868 0.15317
 O224 O 0.15135 0.47882 0.12210
 O225 O 0.12193 0.47686 0.15162
 O226 O 0.14959 0.52054 0.12317
 O227 O 0.17582 0.52068 0.14694
 O228 O 0.14827 0.47701 0.17528
 O229 O 0.17760 0.47919 0.14585
 O230 O 0.14717 0.51858 0.17682
 Cu231 Cu 0.13325 0.49869 0.13515
 Cu232 Cu 0.16483 0.49885 0.16360
 C233 C 0.12883 0.52544 0.17035
 C234 C 0.16983 0.47233 0.12865
 C235 C 0.13034 0.46950 0.16837
 C236 C 0.16748 0.52806 0.13017
 O237 O 0.84554 0.52255 0.12599
 O238 O 0.87639 0.48287 0.15674
 O239 O 0.84712 0.48098 0.12691
 O240 O 0.87455 0.52451 0.15601
 O241 O 0.84916 0.52256 0.18044
 O242 O 0.82021 0.48140 0.14982
 O243 O 0.84936 0.48099 0.17950
 O244 O 0.82008 0.52323 0.15042
 Cu245 Cu 0.86354 0.50280 0.13904
 Cu246 Cu 0.83204 0.50202 0.16739
 C247 C 0.82763 0.52980 0.13302
 C248 C 0.86807 0.47499 0.17326
 C249 C 0.82879 0.47395 0.13326
 C250 C 0.86675 0.53063 0.17345
 O251 O 0.15306 0.52124 0.87352
 O252 O 0.12598 0.47936 0.84225
 O253 O 0.15543 0.47963 0.87145
 O254 O 0.12355 0.52087 0.84349
 O255 O 0.14963 0.52349 0.81978
 O256 O 0.18182 0.48301 0.84815
 O257 O 0.15205 0.48178 0.81856
 O258 O 0.17861 0.52450 0.84937
 Cu259 Cu 0.13690 0.50010 0.86008
 Cu260 Cu 0.16812 0.50339 0.83156
 C261 C 0.17044 0.53001 0.86683
 C262 C 0.13439 0.47334 0.82508
 C263 C 0.17415 0.47440 0.86462
 C264 C 0.13111 0.52912 0.82677
 C265 C 0.26027 0.37202 0.04321
 C266 C 0.25084 0.35801 0.02845
 C267 C 0.26394 0.34411 0.01679
 C268 C 0.28674 0.34417 0.01942
 C269 C 0.29616 0.35810 0.03417
 C270 C 0.28308 0.37187 0.04593
 C271 C 0.24649 0.38662 0.05583
 N272 N 0.25527 0.39788 0.07200
 N273 N 0.24299 0.41098 0.08343
 C274 C 0.22139 0.41345 0.07918
 N275 N 0.21257 0.40220 0.06298
 N276 N 0.22486 0.38903 0.05157
 C277 C 0.20787 0.42816 0.09194
 C278 C 0.18635 0.43324 0.08597
 C279 C 0.17389 0.44750 0.09790
 C280 C 0.18265 0.45686 0.11612
 C281 C 0.20406 0.45159 0.12219
 C282 C 0.21653 0.43747 0.11022
 H283 H 0.23333 0.35762 0.02605
 H284 H 0.25629 0.33325 0.00573
 H285 H 0.31370 0.35842 0.03645
 H286 H 0.29091 0.38246 0.05711
 H287 H 0.17918 0.42637 0.07196
 H288 H 0.15743 0.45123 0.09283
 H289 H 0.21133 0.45852 0.13612
 H290 H 0.23300 0.43388 0.11535
 C291 C 0.74215 0.63414 0.04762
 C292 C 0.74337 0.65632 0.05123
 C293 C 0.73146 0.67058 0.03872
 C294 C 0.71787 0.66289 0.02259
 C295 C 0.71616 0.64065 0.01947
 C296 C 0.72846 0.62645 0.03160
 C297 C 0.75508 0.61903 0.06044
 N298 N 0.76150 0.59993 0.05237
 N299 N 0.77317 0.58625 0.06385
 C300 C 0.77869 0.59102 0.08394
 N301 N 0.77219 0.61009 0.09206
 N302 N 0.76071 0.62388 0.08050
 C303 C 0.79149 0.57570 0.09664
 C304 C 0.78933 0.57512 0.11855
 C305 C 0.80097 0.56010 0.13043
 C306 C 0.81538 0.54579 0.12064
 C307 C 0.81783 0.54665 0.09878
 C308 C 0.80581 0.56129 0.08688
 H309 H 0.75383 0.66267 0.06347
 H310 H 0.73298 0.68764 0.04153
 H311 H 0.70525 0.63422 0.00763
 H312 H 0.72697 0.60940 0.02870
 H313 H 0.77832 0.58599 0.12646
 H314 H 0.79885 0.55979 0.14727
 H315 H 0.82876 0.53573 0.09084
 H316 H 0.80786 0.56146 0.07002
 C317 C 0.75078 0.36050 0.95549
 C318 C 0.73255 0.36714 0.96713
 C319 C 0.72090 0.35246 0.97929
 C320 C 0.72709 0.33083 0.97984
 C321 C 0.74503 0.32403 0.96797
 C322 C 0.75700 0.33882 0.95611
 C323 C 0.76300 0.37614 0.94262
 N324 N 0.78435 0.37291 0.93779
 N325 N 0.79531 0.38718 0.92632
 C326 C 0.78528 0.40513 0.91903
 N327 N 0.76392 0.40828 0.92378
 N328 N 0.75304 0.39414 0.93541
 C329 C 0.79727 0.42099 0.90621
 C330 C 0.78586 0.43444 0.89233
 C331 C 0.79699 0.44967 0.88036
 C332 C 0.81972 0.45210 0.88232
 C333 C 0.83118 0.43870 0.89623
 C334 C 0.82007 0.42311 0.90790
 H335 H 0.72742 0.38374 0.96699
 H336 H 0.70695 0.35792 0.98822
 H337 H 0.74992 0.30735 0.96813
 H338 H 0.77088 0.33324 0.94717
 H339 H 0.76830 0.43309 0.89062
 H340 H 0.78773 0.45984 0.86984
 H341 H 0.84872 0.44021 0.89799
 H342 H 0.82927 0.41301 0.91853
 C343 C 0.25146 0.63722 0.95301
 C344 C 0.26527 0.63004 0.96917
 C345 C 0.27729 0.64469 0.98111
 C346 C 0.27515 0.66684 0.97762
 C347 C 0.26148 0.67399 0.96135
 C348 C 0.24985 0.65932 0.94907
 C349 C 0.23888 0.62171 0.94029
 N350 N 0.23296 0.62647 0.92029
 N351 N 0.22182 0.61238 0.90876
 C352 C 0.21594 0.59306 0.91684
 N353 N 0.22173 0.58837 0.93689
 N354 N 0.23307 0.60237 0.94835
 C355 C 0.20378 0.57733 0.90400
 C356 C 0.19028 0.56195 0.91356
 C357 C 0.17903 0.54687 0.90142
 C358 C 0.18147 0.54659 0.87955
 C359 C 0.19498 0.56195 0.86998
 C360 C 0.20582 0.57734 0.88208
 H361 H 0.26704 0.61307 0.97235
 H362 H 0.28818 0.63874 0.99319
 H363 H 0.25967 0.69098 0.95828
 H364 H 0.23931 0.66528 0.93672
 H365 H 0.18833 0.56165 0.93042
 H366 H 0.16879 0.53513 0.90918
 H367 H 0.19708 0.56211 0.85313
 H368 H 0.21619 0.58897 0.87431
 C369 C 0.04628 0.25607 0.36582
 C370 C 0.04556 0.25028 0.34454
 C371 C 0.03385 0.26272 0.33015
 C372 C 0.02226 0.28077 0.33693
 C373 C 0.02275 0.28647 0.35817
 C374 C 0.03480 0.27432 0.37248
 C375 C 0.05910 0.24331 0.38100
 N376 N 0.06683 0.25245 0.39886
 N377 N 0.07847 0.24104 0.41254
 C378 C 0.08268 0.21999 0.40901
 N379 N 0.07487 0.21081 0.39120
 N380 N 0.06340 0.22228 0.37741
 C381 C 0.09539 0.20735 0.42437
 C382 C 0.09273 0.18501 0.42572
 C383 C 0.10422 0.17321 0.44078
 C384 C 0.11892 0.18347 0.45444
 C385 C 0.12191 0.20574 0.45279
 C386 C 0.11009 0.21759 0.43805
 H387 H 0.05435 0.23636 0.33897
 H388 H 0.03363 0.25817 0.31377
 H389 H 0.01393 0.30043 0.36360
 H390 H 0.03498 0.27909 0.38880
 H391 H 0.08145 0.17671 0.41542
 H392 H 0.10166 0.15604 0.44169
 H393 H 0.13307 0.21407 0.46319
 H394 H 0.11255 0.23477 0.43728
 C395 C 0.04556 0.74050 0.63270
 C396 C 0.02876 0.72692 0.62560
 C397 C 0.01656 0.71480 0.63982
 C398 C 0.02041 0.71659 0.66148
 C399 C 0.03743 0.72991 0.66855
 C400 C 0.04998 0.74164 0.65429
 C401 C 0.05831 0.75349 0.61768
 N402 N 0.07905 0.75972 0.62227
 N403 N 0.09054 0.77141 0.60871
 C404 C 0.08166 0.77755 0.59012
 N405 N 0.06087 0.77142 0.58558
 N406 N 0.04946 0.75954 0.59905
 C407 C 0.09444 0.79046 0.57505
 C408 C 0.08386 0.80389 0.56055
 C409 C 0.09598 0.81602 0.54624
 C410 C 0.11887 0.81452 0.54584
 C411 C 0.12944 0.80102 0.56028
 C412 C 0.11735 0.78930 0.57490
 H413 H 0.02520 0.72551 0.60902
 H414 H 0.00390 0.70423 0.63394
 H415 H 0.04079 0.73146 0.68516
 H416 H 0.06283 0.75198 0.66019
 H417 H 0.06622 0.80517 0.56039
 H418 H 0.08744 0.82624 0.53522
 H419 H 0.14708 0.79964 0.56035
 H420 H 0.12592 0.77901 0.58584
 C421 C 0.95561 0.74382 0.36710
 C422 C 0.95116 0.74482 0.34551
 C423 C 0.96325 0.73253 0.33138
 C424 C 0.97979 0.71877 0.33859
 C425 C 0.98382 0.71737 0.36025
 C426 C 0.97212 0.73003 0.37432
 C427 C 0.94300 0.75691 0.38207
 N428 N 0.95191 0.76287 0.40070
 N429 N 0.94052 0.77456 0.41427
 C430 C 0.91970 0.78059 0.40985
 N431 N 0.91077 0.77457 0.39125
 N432 N 0.92223 0.76305 0.37758
 C433 C 0.90699 0.79325 0.42509
 C434 C 0.88407 0.79192 0.42546
 C435 C 0.87211 0.80343 0.44029
 C436 C 0.88281 0.81688 0.45469
 C437 C 0.90569 0.81851 0.45408
 C438 C 0.91768 0.80662 0.43958
 H439 H 0.93855 0.75535 0.33953
 H440 H 0.95976 0.73384 0.31478
 H441 H 0.99599 0.70640 0.36631
 H442 H 0.97568 0.72871 0.39091
 H443 H 0.87543 0.78166 0.41453
 H444 H 0.85447 0.80195 0.44039
 H445 H 0.91434 0.82871 0.46507
 H446 H 0.93532 0.80802 0.43958
 C447 C 0.94710 0.26070 0.63230
 C448 C 0.94421 0.28306 0.63250
 C449 C 0.95736 0.29606 0.64512
 C450 C 0.97364 0.28700 0.65784
 C451 C 0.97610 0.26462 0.65825
 C452 C 0.96307 0.25160 0.64546
 C453 C 0.93388 0.24711 0.61803
 N454 N 0.93897 0.22617 0.61493
 N455 N 0.92754 0.21423 0.60148
 C456 C 0.91049 0.22271 0.59062
 N457 N 0.90530 0.24360 0.59386
 N458 N 0.91676 0.25555 0.60725
 C459 C 0.89818 0.20970 0.57513
 C460 C 0.87920 0.21787 0.56560
 C461 C 0.86800 0.20597 0.55044
 C462 C 0.87559 0.18567 0.54436
 C463 C 0.89442 0.17737 0.55404
 C464 C 0.90555 0.18922 0.56931
 H465 H 0.93208 0.29061 0.62258
 H466 H 0.95515 0.31328 0.64462
 H467 H 0.98835 0.25729 0.66822
 H468 H 0.96560 0.23443 0.64581
 H469 H 0.87301 0.23355 0.56976
 H470 H 0.85354 0.21282 0.54329
 H471 H 0.90065 0.16175 0.54974
 H472 H 0.92012 0.18245 0.57631
 C473 C 0.36889 0.04559 0.26135
 C474 C 0.37705 0.02871 0.27366
 C475 C 0.36306 0.01680 0.28646
 C476 C 0.34052 0.02105 0.28662
 C477 C 0.33241 0.03809 0.27448
 C478 C 0.34648 0.05034 0.26208
 C479 C 0.38365 0.05811 0.24772
 N480 N 0.37886 0.07869 0.24248
 N481 N 0.39217 0.08996 0.23018
 C482 C 0.41066 0.08101 0.22242
 N483 N 0.41540 0.06040 0.22757
 N484 N 0.40220 0.04921 0.24005
 C485 C 0.42546 0.09348 0.20878
 C486 C 0.43893 0.08301 0.19426
 C487 C 0.45316 0.09475 0.18155
 C488 C 0.45455 0.11714 0.18347
 C489 C 0.44109 0.12763 0.19799
 C490 C 0.42649 0.11593 0.21035
 H491 H 0.39430 0.02489 0.27359
 H492 H 0.36977 0.00408 0.29607
 H493 H 0.31512 0.04174 0.27443
 H494 H 0.33976 0.06324 0.25272
 H495 H 0.43838 0.06573 0.19264
 H496 H 0.46345 0.08626 0.17056
 H497 H 0.44183 0.14489 0.19974
 H498 H 0.41634 0.12440 0.22148
 C499 C 0.63330 0.04561 0.74147
 C500 C 0.62496 0.02898 0.72894
 C501 C 0.63880 0.01723 0.71593
 C502 C 0.66137 0.02140 0.71571
 C503 C 0.66970 0.03808 0.72820
 C504 C 0.65577 0.05017 0.74085
 C505 C 0.61857 0.05822 0.75498
 N506 N 0.62362 0.07870 0.76039
 N507 N 0.61016 0.09013 0.77235
 C508 C 0.59124 0.08145 0.77954
 N509 N 0.58627 0.06093 0.77423
 N510 N 0.59961 0.04958 0.76211
 C511 C 0.57621 0.09411 0.79270
 C512 C 0.56185 0.08377 0.80657
 C513 C 0.54739 0.09567 0.81881
 C514 C 0.54666 0.11811 0.81707
 C515 C 0.56099 0.12847 0.80319
 C516 C 0.57581 0.11659 0.79129
 H517 H 0.60766 0.02531 0.72888
 H518 H 0.63185 0.00492 0.70597
 H519 H 0.68702 0.04167 0.72824
 H520 H 0.66263 0.06288 0.75038
 H521 H 0.56189 0.06647 0.80805
 H522 H 0.53645 0.08727 0.82931
 H523 H 0.56079 0.14576 0.80160
 H524 H 0.58664 0.12497 0.78066
 C525 C 0.36057 0.95431 0.74591
 C526 C 0.36790 0.96650 0.72878
 C527 C 0.35328 0.97901 0.71725
 C528 C 0.33104 0.97930 0.72245
 C529 C 0.32354 0.96675 0.73922
 C530 C 0.33826 0.95458 0.75107
 C531 C 0.37617 0.94137 0.75827
 N532 N 0.37222 0.93669 0.77871
 N533 N 0.38649 0.92525 0.78988
 C534 C 0.40515 0.91787 0.78098
 N535 N 0.40901 0.92245 0.76051
 N536 N 0.39487 0.93406 0.74942
 C537 C 0.42101 0.90515 0.79326
 C538 C 0.43496 0.89065 0.78313
 C539 C 0.45011 0.87871 0.79461
 C540 C 0.45196 0.88137 0.81640
 C541 C 0.43810 0.89595 0.82655
 C542 C 0.42258 0.90755 0.81511
 H543 H 0.38501 0.96662 0.72450
 H544 H 0.35928 0.98848 0.70423
 H545 H 0.30639 0.96673 0.74334
 H546 H 0.33216 0.94520 0.76409
 H547 H 0.43403 0.88840 0.76632
 H548 H 0.46066 0.86765 0.78638
 H549 H 0.43916 0.89825 0.84335
 H550 H 0.41208 0.91870 0.82329
 C551 C 0.64419 0.94994 0.24864
 C552 C 0.64651 0.94543 0.27012
 C553 C 0.66037 0.95776 0.28266
 C554 C 0.67231 0.97482 0.27403
 C555 C 0.67061 0.97897 0.25245
 C556 C 0.65655 0.96674 0.23989
 C557 C 0.62851 0.93747 0.23572
 N558 N 0.62342 0.94364 0.21587
 N559 N 0.60869 0.93281 0.20464
 C560 C 0.59845 0.91534 0.21278
 N561 N 0.60368 0.90910 0.23256
 N562 N 0.61835 0.91994 0.24378
 C563 C 0.58155 0.90359 0.20063
 C564 C 0.57231 0.88462 0.20860
 C565 C 0.55591 0.87385 0.19754
 C566 C 0.54828 0.88182 0.17827
 C567 C 0.55764 0.90068 0.17017
 C568 C 0.57413 0.91142 0.18121
 H569 H 0.63726 0.93264 0.27741
 H570 H 0.66138 0.95429 0.29928
 H571 H 0.67990 0.99189 0.24542
 H572 H 0.65526 0.97054 0.22337
 H573 H 0.57765 0.87809 0.22348
 H574 H 0.54906 0.85935 0.20421
 H575 H 0.55217 0.90722 0.15534
 H576 H 0.58087 0.92600 0.17461
 C577 C 0.36940 0.25808 0.95133
 C578 C 0.34764 0.26087 0.94492
 C579 C 0.33348 0.27382 0.95649
 C580 C 0.34073 0.28448 0.97476
 C581 C 0.36285 0.28204 0.98064
 C582 C 0.37683 0.26876 0.96932
 C583 C 0.38442 0.24437 0.93918
 N584 N 0.40231 0.23561 0.94843
 N585 N 0.41604 0.22349 0.93746
 C586 C 0.41255 0.21981 0.91675
 N587 N 0.39467 0.22859 0.90748
 N588 N 0.38082 0.24055 0.91850
 C589 C 0.42813 0.20681 0.90449
 C590 C 0.42978 0.20946 0.88268
 C591 C 0.44511 0.19775 0.87123
 C592 C 0.45876 0.18285 0.88129
 C593 C 0.45681 0.17989 0.90303
 C594 C 0.44180 0.19191 0.91455
 H595 H 0.34144 0.25276 0.93113
 H596 H 0.31663 0.27490 0.95138
 H597 H 0.36975 0.29102 0.99356
 H598 H 0.39368 0.26734 0.97434
 H599 H 0.41953 0.22089 0.87453
 H600 H 0.44621 0.20029 0.85447
 H601 H 0.46718 0.16856 0.91120
 H602 H 0.44082 0.18946 0.93132
 C603 C 0.63364 0.74334 0.94905
 C604 C 0.63720 0.72169 0.94415
 C605 C 0.65138 0.70923 0.95623
 C606 C 0.66233 0.71797 0.97375
 C607 C 0.65912 0.73989 0.97821
 C608 C 0.64488 0.75233 0.96614
 C609 C 0.61821 0.75640 0.93645
 N610 N 0.61346 0.77688 0.94200
 N611 N 0.59933 0.78847 0.93084
 C612 C 0.58936 0.78007 0.91364
 N613 N 0.59418 0.75962 0.90806
 N614 N 0.60829 0.74803 0.91922
 C615 C 0.57334 0.79281 0.90141
 C616 C 0.56380 0.78436 0.88311
 C617 C 0.54836 0.79615 0.87181
 C618 C 0.54205 0.81666 0.87857
 C619 C 0.55170 0.82519 0.89676
 C620 C 0.56719 0.81342 0.90803
 H621 H 0.62881 0.71421 0.93109
 H622 H 0.65301 0.69243 0.95227
 H623 H 0.66820 0.74776 0.99057
 H624 H 0.64286 0.76907 0.97013
 H625 H 0.56818 0.76856 0.87752
 H626 H 0.54124 0.78911 0.85786
 H627 H 0.54721 0.84096 0.90237
 H628 H 0.57420 0.82043 0.92205
 C629 C 0.35972 0.74943 0.04861
 C630 C 0.35583 0.72802 0.05431
 C631 C 0.34172 0.71518 0.04255
 C632 C 0.33108 0.72328 0.02458
 C633 C 0.33459 0.74498 0.01925
 C634 C 0.34884 0.75781 0.03101
 C635 C 0.37525 0.76269 0.06093
 N636 N 0.38107 0.78267 0.05448
 N637 N 0.39546 0.79425 0.06540
 C638 C 0.40459 0.78635 0.08325
 N639 N 0.39866 0.76643 0.08972
 N640 N 0.38433 0.75487 0.07880
 C641 C 0.42102 0.79886 0.09523
 C642 C 0.42966 0.79071 0.11406
 C643 C 0.44565 0.80204 0.12511
 C644 C 0.45346 0.82179 0.11760
 C645 C 0.44467 0.83012 0.09892
 C646 C 0.42860 0.81878 0.08786
 H647 H 0.36396 0.72097 0.06774
 H648 H 0.33991 0.69855 0.04715
 H649 H 0.32594 0.75228 0.00627
 H650 H 0.35122 0.77435 0.02636
 H651 H 0.42418 0.77546 0.12025
 H652 H 0.45204 0.79517 0.13946
 H653 H 0.45032 0.84531 0.09274
 H654 H 0.42231 0.82553 0.07342
 C655 C 0.63522 0.25307 0.04763
 C656 C 0.65005 0.24291 0.03410
 C657 C 0.66550 0.25490 0.02302
 C658 C 0.66626 0.27731 0.02499
 C659 C 0.65144 0.28749 0.03844
 C660 C 0.63611 0.27551 0.04966
 C661 C 0.61909 0.24039 0.05975
 N662 N 0.60717 0.24973 0.07515
 N663 N 0.59280 0.23837 0.08620
 C664 C 0.58967 0.21719 0.08229
 N665 N 0.60154 0.20784 0.06685
 N666 N 0.61598 0.21919 0.05584
 C667 C 0.57364 0.20462 0.09465
 C668 C 0.56780 0.18367 0.08869
 C669 C 0.55245 0.17201 0.10026
 C670 C 0.54274 0.18098 0.11815
 C671 C 0.54873 0.20184 0.12421
 C672 C 0.56393 0.21354 0.11257
 H673 H 0.64992 0.22565 0.03228
 H674 H 0.67704 0.24664 0.01306
 H675 H 0.65168 0.30476 0.04018
 H676 H 0.62491 0.28388 0.05987
 H677 H 0.57494 0.17632 0.07495
 H678 H 0.54819 0.15596 0.09520
 H679 H 0.54153 0.20924 0.13789
 H680 H 0.56809 0.22959 0.11767
 C681 C 0.25146 0.05155 0.63742
 C682 C 0.24214 0.03429 0.64839
 C683 C 0.25452 0.02258 0.66286
 C684 C 0.27670 0.02757 0.66654
 C685 C 0.28570 0.04533 0.65590
 C686 C 0.27331 0.05706 0.64154
 C687 C 0.23868 0.06363 0.62156
 N688 N 0.24739 0.08116 0.61207
 N689 N 0.23621 0.09183 0.59751
 C690 C 0.21584 0.08543 0.59174
 N691 N 0.20708 0.06793 0.60126
 N692 N 0.21826 0.05726 0.61587
 C693 C 0.20366 0.09722 0.57525
 C694 C 0.18322 0.08988 0.56807
 C695 C 0.17201 0.10092 0.55226
 C696 C 0.18097 0.11957 0.54334
 C697 C 0.20133 0.12695 0.55061
 C698 C 0.21254 0.11591 0.56633
 H699 H 0.22523 0.02982 0.64587
 H700 H 0.24650 0.00984 0.67146
 H701 H 0.30273 0.04968 0.65788
 H702 H 0.28106 0.07025 0.63338
 H703 H 0.17591 0.07553 0.57457
 H704 H 0.15634 0.09483 0.54703
 H705 H 0.20871 0.14127 0.54408
 H706 H 0.22822 0.12207 0.57147
 C707 C 0.74693 0.05056 0.36089
 C708 C 0.72504 0.05535 0.35620
 C709 C 0.71336 0.04308 0.34167
 C710 C 0.72315 0.02549 0.33148
 C711 C 0.74534 0.02124 0.33578
 C712 C 0.75699 0.03347 0.35037
 C713 C 0.75910 0.06320 0.37677
 N714 N 0.77960 0.05747 0.38274
 N715 N 0.79036 0.06863 0.39728
 C716 C 0.78110 0.08600 0.40646
 N717 N 0.76063 0.09177 0.40044
 N718 N 0.74986 0.08060 0.38593
 C719 C 0.79292 0.09828 0.42286
 C720 C 0.78376 0.11699 0.43138
 C721 C 0.79472 0.12842 0.44703
 C722 C 0.81507 0.12139 0.45460
 C723 C 0.82429 0.10274 0.44605
 C724 C 0.81335 0.09133 0.43033
 H725 H 0.71675 0.06840 0.36400
 H726 H 0.69629 0.04689 0.33918
 H727 H 0.75405 0.00888 0.32740
 H728 H 0.77397 0.02959 0.35328
 H729 H 0.76807 0.12283 0.42598
 H730 H 0.78716 0.14273 0.45328
 H731 H 0.83995 0.09691 0.45152
 H732 H 0.82088 0.07698 0.42415
 C733 C 0.74106 0.95136 0.62829
 C734 C 0.75104 0.96639 0.64169
 C735 C 0.73862 0.97782 0.65622
 C736 C 0.71594 0.97467 0.65747
 C737 C 0.70596 0.95961 0.64420
 C738 C 0.71837 0.94806 0.62977
 C739 C 0.75419 0.93911 0.61293
 N740 N 0.74509 0.92280 0.60182
 N741 N 0.75685 0.91177 0.58803
 C742 C 0.77822 0.91659 0.58471
 N743 N 0.78732 0.93293 0.59580
 N744 N 0.77557 0.94393 0.60964
 C745 C 0.79123 0.90433 0.56927
 C746 C 0.81247 0.91093 0.56386
 C747 C 0.82459 0.89947 0.54911
 C748 C 0.81581 0.88108 0.53953
 C749 C 0.79465 0.87439 0.54504
 C750 C 0.78249 0.88592 0.55969
 H751 H 0.76848 0.96922 0.64109
 H752 H 0.74674 0.98903 0.66660
 H753 H 0.68848 0.95692 0.64490
 H754 H 0.71013 0.93664 0.61969
 H755 H 0.81970 0.92506 0.57091
 H756 H 0.84086 0.90502 0.54522
 H757 H 0.78739 0.86031 0.53793
 H758 H 0.76622 0.88033 0.56351
 C759 C 0.26342 0.94938 0.37442
 C760 C 0.26556 0.94205 0.35375
 C761 C 0.27729 0.95397 0.33902
 C762 C 0.28740 0.97355 0.34455
 C763 C 0.28581 0.98034 0.36560
 C764 C 0.27370 0.96861 0.38020
 C765 C 0.25049 0.93702 0.38982
 N766 N 0.24154 0.94685 0.40672
 N767 N 0.22959 0.93578 0.42041
 C768 C 0.22627 0.91440 0.41786
 N769 N 0.23534 0.90454 0.40103
 N770 N 0.24712 0.91565 0.38724
 C771 C 0.21298 0.90212 0.43304
 C772 C 0.21584 0.87988 0.43531
 C773 C 0.20346 0.86834 0.44986
 C774 C 0.18765 0.87872 0.46209
 C775 C 0.18460 0.90090 0.45964
 C776 C 0.19730 0.91252 0.44542
 H777 H 0.25771 0.92731 0.34881
 H778 H 0.27763 0.94814 0.32305
 H779 H 0.29448 0.99439 0.37108
 H780 H 0.27275 0.97440 0.39617
 H781 H 0.22787 0.87146 0.42604
 H782 H 0.20610 0.85124 0.45140
 H783 H 0.17261 0.90933 0.46895
 H784 H 0.19466 0.92962 0.44393
 C785 C 0.05291 0.36693 0.73778
 C786 C 0.03693 0.35342 0.74658
 C787 C 0.02421 0.34009 0.73380
 C788 C 0.02704 0.34023 0.71198
 C789 C 0.04323 0.35340 0.70321
 C790 C 0.05604 0.36660 0.71596
 C791 C 0.06594 0.38162 0.75114
 N792 N 0.08269 0.39318 0.74293
 N793 N 0.09403 0.40685 0.75476
 C794 C 0.08908 0.40959 0.77531
 N795 N 0.07239 0.39795 0.78356
 N796 N 0.06108 0.38424 0.77174
 C797 C 0.10121 0.42534 0.78829
 C798 C 0.09417 0.43022 0.80868
 C799 C 0.10507 0.44566 0.82065
 C800 C 0.12335 0.45651 0.81256
 C801 C 0.13064 0.45141 0.79232
 C802 C 0.11965 0.43604 0.78029
 H803 H 0.03418 0.35317 0.76333
 H804 H 0.01201 0.32981 0.74090
 H805 H 0.04567 0.35377 0.68641
 H806 H 0.06816 0.37679 0.70864
 H807 H 0.08004 0.42231 0.81535
 H808 H 0.09908 0.44916 0.83622
 H809 H 0.14467 0.45949 0.78565
 H810 H 0.12556 0.43264 0.76467
 C811 C 0.04922 0.63269 0.25777
 C812 C 0.05557 0.63614 0.27867
 C813 C 0.04425 0.65060 0.29130
 C814 C 0.02605 0.66197 0.28348
 C815 C 0.02022 0.65891 0.26228
 C816 C 0.03151 0.64437 0.24968
 C817 C 0.06101 0.61699 0.24454
 N818 N 0.05386 0.61219 0.22491
 N819 N 0.06438 0.59792 0.21315
 C820 C 0.08251 0.58786 0.22051
 N821 N 0.08967 0.59270 0.24012
 N822 N 0.07914 0.60693 0.25188
 C823 C 0.09427 0.57193 0.20753
 C824 C 0.11389 0.56284 0.21476
 C825 C 0.12505 0.54781 0.20266
 C826 C 0.11685 0.54141 0.18304
 C827 C 0.09722 0.55045 0.17577
 C828 C 0.08607 0.56558 0.18787
 H829 H 0.06916 0.62743 0.28544
 H830 H 0.04928 0.65215 0.30751
 H831 H 0.00740 0.66828 0.25508
 H832 H 0.02645 0.64246 0.23352
 H833 H 0.12073 0.56735 0.22980
 H834 H 0.14012 0.54116 0.20875
 H835 H 0.09048 0.54587 0.16071
 H836 H 0.07098 0.57223 0.18182
 C837 C 0.95171 0.36863 0.25815
 C838 C 0.94524 0.34701 0.25888
 C839 C 0.95711 0.33220 0.27074
 C840 C 0.97551 0.33874 0.28229
 C841 C 0.98165 0.36045 0.28198
 C842 C 0.97007 0.37519 0.26977
 C843 C 0.93930 0.38424 0.24540
 N844 N 0.94897 0.40248 0.23835
 N845 N 0.93781 0.41651 0.22679
 C846 C 0.91648 0.41296 0.22197
 N847 N 0.90678 0.39477 0.22909
 N848 N 0.91800 0.38064 0.24049
 C849 C 0.90405 0.42863 0.20931
 C850 C 0.88117 0.42969 0.21076
 C851 C 0.86947 0.44483 0.19911
 C852 C 0.88038 0.45888 0.18546
 C853 C 0.90322 0.45760 0.18376
 C854 C 0.91496 0.44277 0.19573
 H855 H 0.93119 0.34149 0.25004
 H856 H 0.95201 0.31556 0.27079
 H857 H 0.99540 0.36602 0.29122
 H858 H 0.97526 0.39180 0.26971
 H859 H 0.87234 0.41905 0.22116
 H860 H 0.85186 0.44543 0.20067
 H861 H 0.91205 0.46831 0.17342
 H862 H 0.93257 0.44225 0.19422
 C863 C 0.94612 0.63588 0.74394
 C864 C 0.93985 0.63914 0.72299
 C865 C 0.95192 0.65268 0.70996
 C866 C 0.97079 0.66326 0.71742
 C867 C 0.97648 0.66059 0.73870
 C868 C 0.96444 0.64696 0.75171
 C869 C 0.93384 0.62070 0.75740
 N870 N 0.94102 0.61577 0.77699
 N871 N 0.93031 0.60160 0.78878
 C872 C 0.91196 0.59179 0.78151
 N873 N 0.90473 0.59682 0.76197
 N874 N 0.91544 0.61095 0.75018
 C875 C 0.90033 0.57557 0.79435
 C876 C 0.88089 0.56612 0.78700
 C877 C 0.87023 0.55038 0.79876
 C878 C 0.87878 0.54366 0.81814
 C879 C 0.89809 0.55324 0.82561
 C880 C 0.90873 0.56904 0.81387
 H881 H 0.92582 0.63090 0.71646
 H882 H 0.94695 0.65400 0.69370
 H883 H 0.99005 0.66933 0.74550
 H884 H 0.96950 0.64513 0.76788
 H885 H 0.87391 0.57078 0.77206
 H886 H 0.85538 0.54334 0.79255
 H887 H 0.90508 0.54845 0.84050
 H888 H 0.92366 0.57597 0.82001
 C889 C 0.74278 0.63127 0.95248
 C890 C 0.75274 0.64522 0.96697
 C891 C 0.74021 0.65998 0.97823
 C892 C 0.71746 0.66088 0.97540
 C893 C 0.70753 0.64702 0.96089
 C894 C 0.72002 0.63241 0.94955
 C895 C 0.75591 0.61565 0.94038
 N896 N 0.74662 0.60418 0.92460
 N897 N 0.75828 0.59011 0.91369
 C898 C 0.77974 0.58684 0.91809
 N899 N 0.78905 0.59829 0.93389
 N900 N 0.77739 0.61243 0.94478
 C901 C 0.79259 0.57107 0.90589
 C902 C 0.81395 0.56552 0.91196
 C903 C 0.82586 0.55043 0.90051
 C904 C 0.81671 0.54067 0.88266
 C905 C 0.79542 0.54633 0.87654
 C906 C 0.78349 0.56128 0.88804
 H907 H 0.77023 0.64486 0.96953
 H908 H 0.74826 0.67071 0.98913
 H909 H 0.69000 0.64738 0.95850
 H910 H 0.71178 0.62189 0.93857
 H911 H 0.82145 0.57272 0.92565
 H912 H 0.84224 0.54643 0.90562
 H913 H 0.78788 0.53909 0.86289
 H914 H 0.76711 0.56520 0.88286
 C915 C 0.26241 0.37016 0.94731
 C916 C 0.26163 0.34801 0.94351
 C917 C 0.27404 0.33389 0.95570
 C918 C 0.28684 0.34151 0.97254
 C919 C 0.28761 0.36380 0.97613
 C920 C 0.27568 0.37793 0.96358
 C921 C 0.24949 0.38515 0.93437
 N922 N 0.25677 0.40541 0.93081
 N923 N 0.24505 0.41903 0.91930
 C924 C 0.22548 0.41303 0.91111
 N925 N 0.21815 0.39279 0.91473
 N926 N 0.22999 0.37907 0.92603
 C927 C 0.21232 0.42834 0.89876
 C928 C 0.18940 0.42720 0.89893
 C929 C 0.17695 0.44225 0.88790
 C930 C 0.18723 0.45834 0.87606
 C931 C 0.21014 0.45919 0.87551
 C932 C 0.22258 0.44449 0.88699
 H933 H 0.25163 0.34164 0.93094
 H934 H 0.27295 0.31688 0.95243
 H935 H 0.29803 0.37046 0.98824
 H936 H 0.27668 0.39496 0.96674
 H937 H 0.18110 0.41495 0.90797
 H938 H 0.15929 0.44123 0.88850
 H939 H 0.21844 0.47150 0.86657
 H940 H 0.24023 0.44566 0.88653
 C941 C 0.24977 0.63893 0.04926
 C942 C 0.27156 0.64325 0.05475
 C943 C 0.28417 0.65734 0.04285
 C944 C 0.27545 0.66753 0.02495
 C945 C 0.25335 0.66362 0.01987
 C946 C 0.24074 0.64939 0.03176
 C947 C 0.23677 0.62340 0.06168
 N948 N 0.21642 0.61734 0.05548
 N949 N 0.20508 0.60295 0.06647
 C950 C 0.21362 0.59405 0.08413
 N951 N 0.23391 0.60021 0.09036
 N952 N 0.24523 0.61455 0.07937
 C953 C 0.20137 0.57764 0.09617
 C954 C 0.21017 0.56915 0.11479
 C955 C 0.19905 0.55324 0.12589
 C956 C 0.17886 0.54538 0.11865
 C957 C 0.16991 0.55401 0.10017
 C958 C 0.18104 0.56999 0.08906
 H959 H 0.27910 0.63546 0.06810
 H960 H 0.30114 0.65949 0.04727
 H961 H 0.24555 0.67191 0.00696
 H962 H 0.22388 0.64669 0.02729
 H963 H 0.22576 0.57468 0.12077
 H964 H 0.20639 0.54696 0.14008
 H965 H 0.15437 0.54832 0.09419
 H966 H 0.17378 0.57617 0.07479
 C967 C 0.74788 0.36278 0.05090
 C968 C 0.72582 0.35858 0.05532
 C969 C 0.71400 0.34371 0.04349
 C970 C 0.72380 0.33263 0.02670
 C971 C 0.74612 0.33655 0.02270
 C972 C 0.75792 0.35150 0.03452
 C973 C 0.76025 0.37886 0.06331
 N974 N 0.78106 0.38431 0.05813
 N975 N 0.79202 0.39894 0.06918
 C976 C 0.78265 0.40874 0.08591
 N977 N 0.76187 0.40324 0.09110
 N978 N 0.75091 0.38864 0.08004
 C979 C 0.79469 0.42519 0.09814
 C980 C 0.78529 0.43430 0.11612
 C981 C 0.79642 0.45000 0.12755
 C982 C 0.81723 0.45704 0.12126
 C983 C 0.82670 0.44789 0.10334
 C984 C 0.81558 0.43212 0.09193
 H985 H 0.71752 0.36699 0.06781
 H986 H 0.69683 0.34162 0.04704
 H987 H 0.75481 0.32754 0.01091
 H988 H 0.77500 0.35405 0.03091
 H989 H 0.76926 0.42935 0.12141
 H990 H 0.78865 0.45671 0.14128
 H991 H 0.84272 0.45295 0.09809
 H992 H 0.82331 0.42546 0.07816
 C993 C 0.94679 0.74326 0.63425
 C994 C 0.94046 0.72199 0.63822
 C995 C 0.95237 0.70920 0.65209
 C996 C 0.97115 0.71721 0.66231
 C997 C 0.97692 0.73884 0.65888
 C998 C 0.96502 0.75161 0.64493
 C999 C 0.93462 0.75646 0.61882
 N1000 N 0.94163 0.77644 0.61359
 N1001 N 0.93098 0.78803 0.59930
 C1002 C 0.91285 0.78014 0.58964
 N1003 N 0.90580 0.76021 0.59495
 N1004 N 0.91646 0.74862 0.60921
 C1005 C 0.90121 0.79281 0.57342
 C1006 C 0.88206 0.78480 0.56400
 C1007 C 0.87129 0.79651 0.54843
 C1008 C 0.87942 0.81649 0.54186
 C1009 C 0.89849 0.82458 0.55134
 C1010 C 0.90924 0.81288 0.56696
 H1011 H 0.92648 0.71501 0.63030
 H1012 H 0.94736 0.69265 0.65401
 H1013 H 0.99042 0.74610 0.66727
 H1014 H 0.97013 0.76806 0.64255
 H1015 H 0.87538 0.76942 0.56859
 H1016 H 0.85664 0.78982 0.54145
 H1017 H 0.90516 0.83994 0.54666
 H1018 H 0.92394 0.81954 0.57386
 C1019 C 0.94934 0.25878 0.36700
 C1020 C 0.94693 0.28117 0.36579
 C1021 C 0.95903 0.29312 0.35135
 C1022 C 0.97374 0.28294 0.33780
 C1023 C 0.97586 0.26055 0.33869
 C1024 C 0.96391 0.24860 0.35323
 C1025 C 0.93680 0.24614 0.38256
 N1026 N 0.94135 0.22510 0.38590
 N1027 N 0.93021 0.21378 0.40000
 C1028 C 0.91399 0.22300 0.41133
 N1029 N 0.90940 0.24402 0.40795
 N1030 N 0.92060 0.25536 0.39389
 C1031 C 0.90161 0.21043 0.42706
 C1032 C 0.88292 0.21906 0.43660
 C1033 C 0.87125 0.20723 0.45145
 C1034 C 0.87809 0.18655 0.45722
 C1035 C 0.89680 0.17792 0.44773
 C1036 C 0.90838 0.18969 0.43276
 H1037 H 0.93587 0.28953 0.37616
 H1038 H 0.95714 0.31038 0.35094
 H1039 H 0.98677 0.25230 0.32809
 H1040 H 0.96603 0.23138 0.35360
 H1041 H 0.87721 0.23496 0.43255
 H1042 H 0.85692 0.21435 0.45849
 H1043 H 0.90247 0.16201 0.45181
 H1044 H 0.92273 0.18257 0.42577
 C1045 C 0.04646 0.26097 0.62682
 C1046 C 0.05406 0.26385 0.64739
 C1047 C 0.04251 0.27661 0.66149
 C1048 C 0.02299 0.28698 0.65543
 C1049 C 0.01591 0.28454 0.63449
 C1050 C 0.02728 0.27145 0.62051
 C1051 C 0.05863 0.24725 0.61201
 N1052 N 0.04853 0.23854 0.59504
 N1053 N 0.05953 0.22617 0.58174
 C1054 C 0.08112 0.22214 0.58479
 N1055 N 0.09121 0.23090 0.60173
 N1056 N 0.08018 0.24312 0.61512
 C1057 C 0.09348 0.20876 0.56983
 C1058 C 0.11630 0.21076 0.56837
 C1059 C 0.12798 0.19861 0.55385
 C1060 C 0.11714 0.18392 0.54076
 C1061 C 0.09438 0.18160 0.54247
 C1062 C 0.08263 0.19407 0.55673
 H1063 H 0.06877 0.25590 0.65274
 H1064 H 0.04854 0.27763 0.67743
 H1065 H 0.00196 0.29328 0.62856
 H1066 H 0.02130 0.26993 0.60459
 H1067 H 0.12510 0.22200 0.57821
 H1068 H 0.14552 0.20067 0.55291
 H1069 H 0.08561 0.17045 0.53250
 H1070 H 0.06507 0.19212 0.55758
 C1071 C 0.05395 0.74162 0.36709
 C1072 C 0.05656 0.71924 0.36614
 C1073 C 0.04418 0.70699 0.35213
 C1074 C 0.02894 0.71682 0.33877
 C1075 C 0.02668 0.73921 0.33930
 C1076 C 0.03894 0.75148 0.35341
 C1077 C 0.06657 0.75451 0.38247
 N1078 N 0.06203 0.77559 0.38550
 N1079 N 0.07305 0.78702 0.39966
 C1080 C 0.08912 0.77789 0.41137
 N1081 N 0.09373 0.75684 0.40825
 N1082 N 0.08267 0.74539 0.39413
 C1083 C 0.10108 0.79050 0.42744
 C1084 C 0.11917 0.78170 0.43799
 C1085 C 0.13016 0.79343 0.45345
 C1086 C 0.12323 0.81417 0.45880
 C1087 C 0.10524 0.82303 0.44816
 C1088 C 0.09434 0.81136 0.43262
 H1089 H 0.06795 0.71111 0.37643
 H1090 H 0.04620 0.68974 0.35200
 H1091 H 0.01527 0.74717 0.32889
 H1092 H 0.03663 0.76868 0.35361
 H1093 H 0.12485 0.76570 0.43436
 H1094 H 0.14396 0.78614 0.46135
 H1095 H 0.09952 0.83899 0.45188
 H1096 H 0.08046 0.81863 0.42484
 C1097 C 0.63363 0.94866 0.74085
 C1098 C 0.63380 0.94550 0.71903
 C1099 C 0.64763 0.95758 0.70626
 C1100 C 0.66164 0.97303 0.71499
 C1101 C 0.66190 0.97589 0.73682
 C1102 C 0.64790 0.96394 0.74962
 C1103 C 0.61841 0.93622 0.75422
 N1104 N 0.61542 0.94140 0.77469
 N1105 N 0.60133 0.93046 0.78649
 C1106 C 0.58971 0.91384 0.77834
 N1107 N 0.59281 0.90861 0.75791
 N1108 N 0.60682 0.91958 0.74610
 C1109 C 0.57370 0.90186 0.79126
 C1110 C 0.56370 0.88319 0.78342
 C1111 C 0.54821 0.87213 0.79530
 C1112 C 0.54225 0.87952 0.81527
 C1113 C 0.55234 0.89810 0.82321
 C1114 C 0.56795 0.90911 0.81136
 H1115 H 0.62301 0.93392 0.71173
 H1116 H 0.64712 0.95512 0.68946
 H1117 H 0.67282 0.98750 0.74393
 H1118 H 0.64829 0.96665 0.76638
 H1119 H 0.56778 0.87711 0.76804
 H1120 H 0.54075 0.85788 0.78872
 H1121 H 0.54813 0.90418 0.83856
 H1122 H 0.57531 0.92344 0.81787
 C1123 C 0.36494 0.94907 0.25798
 C1124 C 0.36203 0.94254 0.27886
 C1125 C 0.34863 0.95416 0.29236
 C1126 C 0.33780 0.97283 0.28547
 C1127 C 0.33999 0.97874 0.26422
 C1128 C 0.35352 0.96715 0.25074
 C1129 C 0.38018 0.93729 0.24412
 N1130 N 0.38512 0.94474 0.22467
 N1131 N 0.39937 0.93442 0.21257
 C1132 C 0.40927 0.91622 0.21941
 N1133 N 0.40422 0.90875 0.23880
 N1134 N 0.39003 0.91906 0.25089
 C1135 C 0.42546 0.90482 0.20625
 C1136 C 0.43475 0.88550 0.21327
 C1137 C 0.45021 0.87478 0.20116
 C1138 C 0.45686 0.88310 0.18172
 C1139 C 0.44758 0.90239 0.17462
 C1140 C 0.43202 0.91313 0.18674
 H1141 H 0.37053 0.92867 0.28501
 H1142 H 0.34776 0.94905 0.30856
 H1143 H 0.33104 0.99222 0.25787
 H1144 H 0.35506 0.97240 0.23463
 H1145 H 0.43011 0.87859 0.22818
 H1146 H 0.45701 0.85995 0.20711
 H1147 H 0.45233 0.90920 0.15969
 H1148 H 0.42522 0.92798 0.18087
 C1149 C 0.63639 0.04600 0.25213
 C1150 C 0.62976 0.02795 0.26370
 C1151 C 0.64483 0.01665 0.27594
 C1152 C 0.66693 0.02278 0.27632
 C1153 C 0.67353 0.04080 0.26472
 C1154 C 0.65840 0.05238 0.25286
 C1155 C 0.62042 0.05828 0.23954
 N1156 N 0.62398 0.07929 0.23506
 N1157 N 0.60954 0.09044 0.22385
 C1158 C 0.59105 0.08097 0.21650
 N1159 N 0.58753 0.05993 0.22089
 N1160 N 0.60188 0.04883 0.23226
 C1161 C 0.57499 0.09336 0.20412
 C1162 C 0.56077 0.08292 0.19011
 C1163 C 0.54551 0.09463 0.17849
 C1164 C 0.54385 0.11694 0.18099
 C1165 C 0.55801 0.12738 0.19504
 C1166 C 0.57359 0.11573 0.20632
 H1167 H 0.61284 0.02283 0.26362
 H1168 H 0.63921 0.00317 0.28518
 H1169 H 0.69047 0.04586 0.26480
 H1170 H 0.66398 0.06618 0.24405
 H1171 H 0.56155 0.06571 0.18803
 H1172 H 0.53471 0.08617 0.16785
 H1173 H 0.55710 0.14458 0.19722
 H1174 H 0.58429 0.12419 0.21706
 C1175 C 0.36264 0.05128 0.74580
 C1176 C 0.35091 0.03409 0.75450
 C1177 C 0.33610 0.02237 0.74233
 C1178 C 0.33279 0.02726 0.72096
 C1179 C 0.34428 0.04488 0.71249
 C1180 C 0.35902 0.05662 0.72469
 C1181 C 0.37859 0.06355 0.75862
 N1182 N 0.38881 0.08109 0.75064
 N1183 N 0.40332 0.09199 0.76203
 C1184 C 0.40828 0.08581 0.78190
 N1185 N 0.39804 0.06829 0.78990
 N1186 N 0.38350 0.05740 0.77852
 C1187 C 0.42470 0.09780 0.79442
 C1188 C 0.43117 0.09046 0.81434
 C1189 C 0.44702 0.10153 0.82590
 C1190 C 0.45671 0.12024 0.81784
 C1191 C 0.45008 0.12770 0.79803
 C1192 C 0.43430 0.11660 0.78645
 H1193 H 0.35297 0.02977 0.77083
 H1194 H 0.32667 0.00997 0.74998
 H1195 H 0.34259 0.04916 0.69611
 H1196 H 0.36779 0.06977 0.71745
 H1197 H 0.42413 0.07604 0.82097
 H1198 H 0.45175 0.09537 0.84112
 H1199 H 0.45722 0.14206 0.79136
 H1200 H 0.42969 0.12276 0.77120
 C1201 C 0.63298 0.74508 0.04392
 C1202 C 0.62544 0.72767 0.03191
 C1203 C 0.64006 0.71533 0.02029
 C1204 C 0.66248 0.71999 0.02071
 C1205 C 0.67014 0.73704 0.03305
 C1206 C 0.65547 0.74969 0.04433
 C1207 C 0.61743 0.75820 0.05607
 N1208 N 0.62206 0.77893 0.06091
 N1209 N 0.60798 0.79071 0.07184
 C1210 C 0.58880 0.78214 0.07854
 N1211 N 0.58422 0.76140 0.07375
 N1212 N 0.59820 0.74970 0.06265
 C1213 C 0.57328 0.79499 0.09100
 C1214 C 0.55883 0.78480 0.10488
 C1215 C 0.54423 0.79680 0.11683
 C1216 C 0.54343 0.81921 0.11483
 C1217 C 0.55769 0.82943 0.10078
 C1218 C 0.57268 0.81744 0.08915
 H1219 H 0.60820 0.72378 0.03128
 H1220 H 0.63391 0.70210 0.01096
 H1221 H 0.68743 0.74075 0.03360
 H1222 H 0.66173 0.76290 0.05359
 H1223 H 0.55900 0.76753 0.10669
 H1224 H 0.53334 0.78850 0.12747
 H1225 H 0.55743 0.84670 0.09900
 H1226 H 0.58358 0.82569 0.07850
 C1227 C 0.36625 0.25881 0.04785
 C1228 C 0.36747 0.28122 0.04995
 C1229 C 0.35484 0.29457 0.03724
 C1230 C 0.34064 0.28585 0.02217
 C1231 C 0.33897 0.26346 0.02035
 C1232 C 0.35179 0.25006 0.03295
 C1233 C 0.38026 0.24480 0.06098
 N1234 N 0.38242 0.22358 0.05664
 N1235 N 0.39555 0.21122 0.06816
 C1236 C 0.40700 0.21956 0.08453
 N1237 N 0.40470 0.24073 0.08892
 N1238 N 0.39165 0.25308 0.07739
 C1239 C 0.42214 0.20609 0.09704
 C1240 C 0.43185 0.21427 0.11536
 C1241 C 0.44684 0.20205 0.12675
 C1242 C 0.45261 0.18138 0.12004
 C1243 C 0.44267 0.17302 0.10190
 C1244 C 0.42754 0.18522 0.09056
 H1245 H 0.37845 0.28852 0.06122
 H1246 H 0.35643 0.31178 0.03891
 H1247 H 0.32787 0.25638 0.00904
 H1248 H 0.35035 0.23287 0.03103
 H1249 H 0.42800 0.23023 0.12088
 H1250 H 0.45418 0.20897 0.14065
 H1251 H 0.44674 0.15712 0.09635
 H1252 H 0.42037 0.17843 0.07651
 C1253 C 0.64109 0.25132 0.95382
 C1254 C 0.63404 0.26972 0.96452
 C1255 C 0.64858 0.28145 0.97692
 C1256 C 0.67050 0.27520 0.97860
 C1257 C 0.67773 0.25702 0.96776
 C1258 C 0.66306 0.24499 0.95565
 C1259 C 0.62555 0.23900 0.94072
 N1260 N 0.62889 0.21789 0.93661
 N1261 N 0.61463 0.20681 0.92504
 C1262 C 0.59659 0.21647 0.91696
 N1263 N 0.59335 0.23760 0.92098
 N1264 N 0.60749 0.24861 0.93269
 C1265 C 0.58061 0.20429 0.90422
 C1266 C 0.56687 0.21503 0.89002
 C1267 C 0.55143 0.20370 0.87825
 C1268 C 0.54909 0.18144 0.88073
 C1269 C 0.56282 0.17066 0.89491
 C1270 C 0.57860 0.18195 0.90639
 H1271 H 0.61720 0.27493 0.96349
 H1272 H 0.64279 0.29552 0.98514
 H1273 H 0.69464 0.25204 0.96889
 H1274 H 0.66896 0.23094 0.94749
 H1275 H 0.56812 0.23223 0.88793
 H1276 H 0.54101 0.21244 0.86749
 H1277 H 0.56141 0.15348 0.89708
 H1278 H 0.58892 0.17326 0.91728
 C1279 C 0.36132 0.74637 0.95247
 C1280 C 0.36888 0.73310 0.96872
 C1281 C 0.35418 0.72119 0.98075
 C1282 C 0.33157 0.72291 0.97725
 C1283 C 0.32402 0.73601 0.96085
 C1284 C 0.33877 0.74752 0.94848
 C1285 C 0.37690 0.75901 0.93982
 N1286 N 0.37202 0.76466 0.91978
 N1287 N 0.38614 0.77598 0.90838
 C1288 C 0.40559 0.78231 0.91665
 N1289 N 0.41040 0.77676 0.93672
 N1290 N 0.39638 0.76525 0.94804
 C1291 C 0.42128 0.79488 0.90406
 C1292 C 0.43629 0.80866 0.91393
 C1293 C 0.45131 0.82040 0.90209
 C1294 C 0.45193 0.81821 0.88019
 C1295 C 0.43697 0.80440 0.87031
 C1296 C 0.42160 0.79303 0.88212
 H1297 H 0.38621 0.73170 0.97195
 H1298 H 0.36044 0.71075 0.99293
 H1299 H 0.30668 0.73748 0.95776
 H1300 H 0.33251 0.75765 0.93606
 H1301 H 0.43633 0.81046 0.93081
 H1302 H 0.46273 0.83087 0.91010
 H1303 H 0.43708 0.80248 0.85345
 H1304 H 0.41026 0.78246 0.87413
 C1305 C 0.74942 0.95369 0.36147
 C1306 C 0.73115 0.96583 0.36744
 C1307 C 0.71959 0.97777 0.35259
 C1308 C 0.72592 0.97755 0.33149
 C1309 C 0.74388 0.96513 0.32538
 C1310 C 0.75574 0.95352 0.34031
 C1311 C 0.76166 0.94116 0.37726
 N1312 N 0.78305 0.93625 0.37432
 N1313 N 0.79405 0.92502 0.38865
 C1314 C 0.78402 0.91809 0.40638
 N1315 N 0.76262 0.92293 0.40926
 N1316 N 0.75169 0.93432 0.39504
 C1317 C 0.79607 0.90547 0.42224
 C1318 C 0.78478 0.89143 0.43562
 C1319 C 0.79604 0.87948 0.45067
 C1320 C 0.81876 0.88166 0.45295
 C1321 C 0.83008 0.89580 0.43968
 C1322 C 0.81885 0.90742 0.42430
 H1323 H 0.72595 0.96630 0.38364
 H1324 H 0.70564 0.98714 0.35752
 H1325 H 0.74887 0.96471 0.30911
 H1326 H 0.76966 0.94418 0.33526
 H1327 H 0.76723 0.88953 0.43432
 H1328 H 0.78690 0.86876 0.46075
 H1329 H 0.84761 0.89772 0.44109
 H1330 H 0.82795 0.91819 0.41424
 C1331 C 0.25249 0.95377 0.63790
 C1332 C 0.25021 0.95014 0.65951
 C1333 C 0.26156 0.96285 0.67397
 C1334 C 0.27563 0.97920 0.66706
 C1335 C 0.27847 0.98230 0.64542
 C1336 C 0.26672 0.96998 0.63099
 C1337 C 0.24009 0.94080 0.62257
 N1338 N 0.23448 0.94916 0.60365
 N1339 N 0.22327 0.93755 0.58980
 C1340 C 0.21741 0.91703 0.59420
 N1341 N 0.22310 0.90861 0.61309
 N1342 N 0.23411 0.92032 0.62705
 C1343 C 0.20522 0.90412 0.57866
 C1344 C 0.20746 0.88172 0.57809
 C1345 C 0.19652 0.86966 0.56283
 C1346 C 0.18273 0.87974 0.54823
 C1347 C 0.18013 0.90208 0.54910
 C1348 C 0.19147 0.91419 0.56400
 H1349 H 0.23933 0.93775 0.66524
 H1350 H 0.25921 0.96005 0.69056
 H1351 H 0.28969 0.99437 0.63967
 H1352 H 0.26901 0.97291 0.61441
 H1353 H 0.21803 0.87358 0.58916
 H1354 H 0.19874 0.85243 0.56251
 H1355 H 0.16967 0.91026 0.53795
 H1356 H 0.18938 0.93143 0.56416
 C1357 C 0.25870 0.04707 0.36879
 C1358 C 0.28135 0.05068 0.36756
 C1359 C 0.29435 0.03823 0.35442
 C1360 C 0.28503 0.02190 0.34219
 C1361 C 0.26234 0.01856 0.34294
 C1362 C 0.24931 0.03093 0.35625
 C1363 C 0.24513 0.05993 0.38331
 N1364 N 0.22390 0.05473 0.38695
 N1365 N 0.21195 0.06607 0.40038
 C1366 C 0.22071 0.08310 0.41071
 N1367 N 0.24189 0.08834 0.40699
 N1368 N 0.25384 0.07698 0.39361
 C1369 C 0.20763 0.09556 0.42597
 C1370 C 0.21619 0.11435 0.43501
 C1371 C 0.20413 0.12591 0.44970
 C1372 C 0.18325 0.11892 0.45580
 C1373 C 0.17461 0.10021 0.44670
 C1374 C 0.18664 0.08868 0.43190
 H1375 H 0.28914 0.06295 0.37699
 H1376 H 0.31181 0.04108 0.35407
 H1377 H 0.25479 0.00623 0.33341
 H1378 H 0.23191 0.02782 0.35670
 H1379 H 0.23226 0.12016 0.43078
 H1380 H 0.21127 0.14026 0.45641
 H1381 H 0.15855 0.09442 0.45103
 H1382 H 0.17956 0.07428 0.42528
 C1383 C 0.74003 0.04682 0.62974
 C1384 C 0.74601 0.04643 0.65103
 C1385 C 0.73383 0.03450 0.66542
 C1386 C 0.71584 0.02237 0.65865
 C1387 C 0.70990 0.02260 0.63742
 C1388 C 0.72178 0.03487 0.62310
 C1389 C 0.75267 0.05967 0.61453
 N1390 N 0.74318 0.06683 0.59658
 N1391 N 0.75451 0.07848 0.58289
 C1392 C 0.77585 0.08329 0.58649
 N1393 N 0.78537 0.07605 0.60440
 N1394 N 0.77397 0.06456 0.61819
 C1395 C 0.78842 0.09609 0.57119
 C1396 C 0.81126 0.09424 0.57008
 C1397 C 0.82308 0.10603 0.55529
 C1398 C 0.81232 0.12025 0.54167
 C1399 C 0.78952 0.12233 0.54300
 C1400 C 0.77766 0.11020 0.55747
 H1401 H 0.75992 0.05558 0.65659
 H1402 H 0.73857 0.03447 0.68179
 H1403 H 0.69599 0.01335 0.63200
 H1404 H 0.71687 0.03480 0.60678
 H1405 H 0.81997 0.08341 0.58041
 H1406 H 0.84065 0.10418 0.55463
 H1407 H 0.78081 0.13312 0.53262
 H1408 H 0.76008 0.11203 0.55805
 C1409 C 0.95118 0.63542 0.25955
 C1410 C 0.96392 0.62769 0.27628
 C1411 C 0.97690 0.64170 0.28802
 C1412 C 0.97711 0.66369 0.28343
 C1413 C 0.96393 0.67157 0.26714
 C1414 C 0.95131 0.65749 0.25508
 C1415 C 0.93799 0.62046 0.24675
 N1416 N 0.93308 0.62508 0.22647
 N1417 N 0.92156 0.61136 0.21484
 C1418 C 0.91431 0.59258 0.22310
 N1419 N 0.91909 0.58804 0.24341
 N1420 N 0.93079 0.60165 0.25498
 C1421 C 0.90167 0.57722 0.21023
 C1422 C 0.88720 0.56274 0.21979
 C1423 C 0.87551 0.54793 0.20774
 C1424 C 0.87842 0.54699 0.18594
 C1425 C 0.89290 0.56145 0.17634
 C1426 C 0.90423 0.57661 0.18836
 H1427 H 0.96417 0.61076 0.28003
 H1428 H 0.98686 0.63542 0.30067
 H1429 H 0.96385 0.68853 0.26349
 H1430 H 0.94151 0.66388 0.24238
 H1431 H 0.88482 0.56292 0.23660
 H1432 H 0.86452 0.53690 0.21555
 H1433 H 0.89540 0.56110 0.15955
 H1434 H 0.91536 0.58754 0.18059
 C1435 C 0.95446 0.37080 0.73889
 C1436 C 0.94895 0.34896 0.73768
 C1437 C 0.96067 0.33518 0.72465
 C1438 C 0.97793 0.34299 0.71234
 C1439 C 0.98314 0.36493 0.71321
 C1440 C 0.97174 0.37864 0.72660
 C1441 C 0.94207 0.38532 0.75276
 N1442 N 0.95128 0.40364 0.76018
 N1443 N 0.94009 0.41669 0.77269
 C1444 C 0.91916 0.41203 0.77813
 N1445 N 0.90993 0.39375 0.77064
 N1446 N 0.92119 0.38061 0.75829
 C1447 C 0.90659 0.42669 0.79171
 C1448 C 0.88366 0.42702 0.79076
 C1449 C 0.87178 0.44135 0.80311
 C1450 C 0.88259 0.45527 0.81699
 C1451 C 0.90550 0.45464 0.81827
 C1452 C 0.91740 0.44064 0.80559
 H1453 H 0.93576 0.34246 0.74702
 H1454 H 0.95632 0.31835 0.72426
 H1455 H 0.99600 0.37147 0.70348
 H1456 H 0.97617 0.39545 0.72703
 H1457 H 0.87490 0.41651 0.78015
 H1458 H 0.85413 0.44148 0.80185
 H1459 H 0.91424 0.46528 0.82877
 H1460 H 0.93506 0.44065 0.80673
 C1461 C 0.04485 0.63307 0.74152
 C1462 C 0.04944 0.65515 0.74191
 C1463 C 0.03705 0.66942 0.72988
 C1464 C 0.02002 0.66187 0.71704
 C1465 C 0.01599 0.63970 0.71606
 C1466 C 0.02803 0.62548 0.72846
 C1467 C 0.05752 0.61803 0.75470
 N1468 N 0.04867 0.59911 0.76099
 N1469 N 0.06007 0.58558 0.77291
 C1470 C 0.08084 0.59034 0.77886
 N1471 N 0.08971 0.60924 0.77253
 N1472 N 0.07824 0.62286 0.76078
 C1473 C 0.09367 0.57509 0.79166
 C1474 C 0.11659 0.57504 0.79057
 C1475 C 0.12873 0.56010 0.80203
 C1476 C 0.11823 0.54525 0.81517
 C1477 C 0.09535 0.54562 0.81665
 C1478 C 0.08316 0.56025 0.80481
 H1479 H 0.06231 0.66144 0.75185
 H1480 H 0.04055 0.68642 0.73082
 H1481 H 0.00331 0.63342 0.70589
 H1482 H 0.02434 0.60851 0.72763
 H1483 H 0.12512 0.58624 0.78051
 H1484 H 0.14637 0.56021 0.80066
 H1485 H 0.08685 0.53428 0.82660
 H1486 H 0.06552 0.56001 0.80603
 C1487 C 0.04952 0.36096 0.25342
 C1488 C 0.03229 0.34862 0.24509
 C1489 C 0.01998 0.33516 0.25808
 C1490 C 0.02446 0.33405 0.27965
 C1491 C 0.04189 0.34605 0.28788
 C1492 C 0.05430 0.35932 0.27493
 C1493 C 0.06221 0.37584 0.23999
 N1494 N 0.08024 0.38589 0.24765
 N1495 N 0.09134 0.39978 0.23593
 C1496 C 0.08487 0.40429 0.21604
 N1497 N 0.06689 0.39417 0.20831
 N1498 N 0.05581 0.38021 0.22004
 C1499 C 0.09689 0.42035 0.20335
 C1500 C 0.08880 0.42713 0.18380
 C1501 C 0.09975 0.44295 0.17232
 C1502 C 0.11908 0.45224 0.18010
 C1503 C 0.12735 0.44519 0.19947
 C1504 C 0.11638 0.42947 0.21097
 H1505 H 0.02827 0.34940 0.22858
 H1506 H 0.00678 0.32581 0.25135
 H1507 H 0.04561 0.34549 0.30448
 H1508 H 0.06741 0.36860 0.28189
 H1509 H 0.07383 0.42045 0.17746
 H1510 H 0.09297 0.44800 0.15742
 H1511 H 0.14221 0.45201 0.20591
 H1512 H 0.12314 0.42459 0.22592
   
