data_POSCAR
  _audit_creation_date              2014-09-24
  _audit_creation_method            'ToBaCCo'
  _symmetry_space_group_name_H-M    'P1'
  _symmetry_Int_Tables_number       1
  _symmetry_cell_setting            triclinic
  loop_
  _symmetry_equiv_pos_as_xyz
 x,y,z
_cell_length_a 84.8821
_cell_length_b 85.0529
_cell_length_c 81.4686
_cell_angle_alpha 89.968900
_cell_angle_beta 89.812300
_cell_angle_gamma 90.301900
loop_
  _atom_site_label
  _atom_site_type_symbol
  _atom_site_fract_x
  _atom_site_fract_y
  _atom_site_fract_z
N1 N 0.36643 0.31761 0.32023
 N2 N 0.36361 0.32746 0.30819
 C3 C 0.37526 0.32673 0.29707
 C4 C 0.38604 0.31572 0.30227
 C5 C 0.38002 0.31003 0.31701
 H6 H 0.37583 0.33374 0.28600
 H7 H 0.38530 0.30133 0.32493
 Cu8 Cu 0.34546 0.34086 0.30836
 Cu9 Cu 0.35220 0.31609 0.33917
 Cu10 Cu 0.31989 0.34151 0.33948
 N11 N 0.33221 0.35878 0.31212
 N12 N 0.32172 0.35915 0.32400
 C13 C 0.31376 0.37284 0.32303
 C14 C 0.32001 0.38151 0.31006
 C15 C 0.33165 0.37217 0.30349
 H16 H 0.30433 0.37630 0.33121
 H17 H 0.33897 0.37475 0.29292
 N18 N 0.32383 0.32575 0.35695
 N19 N 0.33627 0.31644 0.35697
 C20 C 0.33570 0.30725 0.37040
 C21 C 0.32230 0.31084 0.37932
 C22 C 0.31503 0.32262 0.37039
 H23 H 0.34422 0.29828 0.37327
 H24 H 0.30417 0.32853 0.37349
 H25 H 0.33190 0.32333 0.32786
 H26 H 0.34372 0.33900 0.33797
 N27 N 0.36608 0.82073 -0.16093
 N28 N 0.36662 0.82901 -0.17453
 C29 C 0.37965 0.82520 -0.18305
 C30 C 0.38791 0.81393 -0.17428
 C31 C 0.37890 0.81150 -0.16020
 H32 H 0.38288 0.83041 -0.19468
 H33 H 0.38111 0.80323 -0.15041
 Cu34 Cu 0.35032 0.84398 -0.18006
 Cu35 Cu 0.34820 0.82177 -0.14587
 Cu36 Cu 0.32104 0.85116 -0.15322
 N37 N 0.33692 0.86230 -0.18213
 N38 N 0.32516 0.86476 -0.17197
 C39 C 0.31731 0.87766 -0.17676
 C40 C 0.32461 0.88378 -0.19067
 C41 C 0.33713 0.87368 -0.19361
 H42 H 0.30714 0.88226 -0.17040
 H43 H 0.34552 0.87421 -0.20360
 N44 N 0.31902 0.83617 -0.13489
 N45 N 0.32922 0.82480 -0.13219
 C46 C 0.32426 0.81626 -0.11921
 C47 C 0.31037 0.82268 -0.11337
 C48 C 0.30744 0.83529 -0.12361
 H49 H 0.33032 0.80615 -0.11430
 H50 H 0.29738 0.84302 -0.12310
 H51 H 0.33165 0.83081 -0.16176
 H52 H 0.34459 0.84527 -0.15087
 N53 N 0.86745 0.32524 -0.17518
 N54 N 0.86827 0.33678 -0.18590
 C55 C 0.88177 0.33568 -0.19444
 C56 C 0.88988 0.32267 -0.18897
 C57 C 0.88041 0.31623 -0.17675
 H58 H 0.88529 0.34355 -0.20423
 H59 H 0.88284 0.30591 -0.16945
 Cu60 Cu 0.85140 0.35182 -0.18795
 Cu61 Cu 0.84983 0.32338 -0.15962
 Cu62 Cu 0.82096 0.35239 -0.16228
 N63 N 0.83611 0.36858 -0.18899
 N64 N 0.82375 0.36838 -0.17927
 C65 C 0.81455 0.38075 -0.18284
 C66 C 0.82163 0.38933 -0.19541
 C67 C 0.83539 0.38121 -0.19888
 H68 H 0.80366 0.38337 -0.17651
 H69 H 0.84405 0.38396 -0.20820
 N70 N 0.82036 0.33524 -0.14600
 N71 N 0.83104 0.32401 -0.14508
 C72 C 0.82732 0.31445 -0.13238
 C73 C 0.81383 0.32012 -0.12490
 C74 C 0.80976 0.33323 -0.13389
 H75 H 0.83424 0.30451 -0.12843
 H76 H 0.79984 0.34084 -0.13162
 H77 H 0.83312 0.33439 -0.17357
 H78 H 0.84468 0.34707 -0.15938
 N79 N 0.86075 0.82346 0.32394
 N80 N 0.86018 0.83532 0.31359
 C81 C 0.87263 0.83470 0.30341
 C82 C 0.88152 0.82168 0.30744
 C83 C 0.87355 0.81470 0.32047
 H84 H 0.87495 0.84307 0.29369
 H85 H 0.87701 0.80433 0.32721
 Cu86 Cu 0.84319 0.85048 0.31399
 Cu87 Cu 0.84497 0.82116 0.34145
 Cu88 Cu 0.82906 0.85747 0.35141
 N89 N 0.82929 0.86810 0.31805
 N90 N 0.82411 0.87103 0.33292
 C91 C 0.81529 0.88410 0.33266
 C92 C 0.81465 0.88965 0.31661
 C93 C 0.82379 0.87909 0.30770
 H94 H 0.80956 0.88888 0.34340
 H95 H 0.82642 0.87936 0.29471
 N96 N 0.82856 0.83924 0.36632
 N97 N 0.83375 0.82514 0.36234
 C98 C 0.82978 0.81494 0.37438
 C99 C 0.82170 0.82309 0.38651
 C100 C 0.82122 0.83844 0.38092
 H101 H 0.83233 0.80250 0.37416
 H102 H 0.81510 0.84817 0.38654
 H103 H 0.82790 0.83842 0.33612
 H104 H 0.84805 0.84435 0.34284
 N105 N 0.63226 0.67208 0.32687
 N106 N 0.63441 0.65988 0.31722
 C107 C 0.62286 0.65957 0.30589
 C108 C 0.61303 0.67232 0.30853
 C109 C 0.61942 0.67995 0.32197
 H110 H 0.62184 0.65090 0.29624
 H111 H 0.61502 0.69046 0.32783
 Cu112 Cu 0.65228 0.64582 0.32029
 Cu113 Cu 0.64635 0.67714 0.34491
 Cu114 Cu 0.67741 0.65184 0.35164
 N115 N 0.66963 0.63144 0.32471
 N116 N 0.67910 0.63374 0.33722
 C117 C 0.68982 0.62218 0.33770
 C118 C 0.68706 0.61206 0.32473
 C119 C 0.67416 0.61833 0.31668
 H120 H 0.69920 0.62140 0.34660
 H121 H 0.66848 0.61363 0.30588
 N122 N 0.67382 0.67077 0.36495
 N123 N 0.66185 0.68032 0.36255
 C124 C 0.66263 0.69213 0.37352
 C125 C 0.67579 0.68999 0.38323
 C126 C 0.68260 0.67633 0.37742
 H127 H 0.65444 0.70180 0.37417
 H128 H 0.69316 0.67082 0.38201
 H129 H 0.66617 0.66655 0.33522
 H130 H 0.65335 0.65424 0.34887
 N131 N 0.63972 0.17730 -0.17339
 N132 N 0.63929 0.16520 -0.18343
 C133 C 0.62669 0.16647 -0.19329
 C134 C 0.61879 0.18017 -0.18934
 C135 C 0.62748 0.18683 -0.17671
 H136 H 0.62359 0.15806 -0.20271
 H137 H 0.62488 0.19754 -0.17012
 Cu138 Cu 0.65533 0.14896 -0.18298
 Cu139 Cu 0.65593 0.17910 -0.15640
 Cu140 Cu 0.66999 0.14228 -0.14580
 N141 N 0.66899 0.13107 -0.17893
 N142 N 0.67430 0.12828 -0.16411
 C143 C 0.68309 0.11520 -0.16432
 C144 C 0.68366 0.10948 -0.18030
 C145 C 0.67443 0.11994 -0.18922
 H146 H 0.68898 0.11063 -0.15361
 H147 H 0.67186 0.11959 -0.20220
 N148 N 0.67176 0.16080 -0.13145
 N149 N 0.66726 0.17504 -0.13571
 C150 C 0.67217 0.18534 -0.12420
 C151 C 0.68022 0.17713 -0.11212
 C152 C 0.67962 0.16160 -0.11720
 H153 H 0.67038 0.19790 -0.12485
 H154 H 0.68538 0.15167 -0.11158
 H155 H 0.67179 0.16074 -0.16175
 H156 H 0.65152 0.15617 -0.15419
 N157 N 0.12956 0.67633 -0.16547
 N158 N 0.13249 0.67125 -0.18037
 C159 C 0.12129 0.67661 -0.19060
 C160 C 0.11070 0.68550 -0.18153
 C161 C 0.11637 0.68497 -0.16560
 H162 H 0.12082 0.67402 -0.20358
 H163 H 0.11149 0.69058 -0.15484
 Cu164 Cu 0.15035 0.65764 -0.18451
 Cu165 Cu 0.14299 0.67122 -0.14699
 Cu166 Cu 0.17951 0.65570 -0.15677
 N167 N 0.16551 0.64064 -0.18474
 N168 N 0.17727 0.63996 -0.17429
 C169 C 0.18591 0.62705 -0.17760
 C170 C 0.17895 0.61913 -0.19063
 C171 C 0.16608 0.62818 -0.19483
 H172 H 0.19618 0.62347 -0.17075
 H173 H 0.15774 0.62595 -0.20457
 N174 N 0.17529 0.66674 -0.13582
 N175 N 0.16106 0.67173 -0.13196
 C176 C 0.16156 0.67897 -0.11735
 C177 C 0.17686 0.67868 -0.11157
 C178 C 0.18530 0.67079 -0.12366
 H179 H 0.15165 0.68494 -0.11188
 H180 H 0.19781 0.66845 -0.12378
 H181 H 0.16216 0.67262 -0.16213
 H182 H 0.15626 0.65240 -0.15564
 N183 N 0.13299 0.17705 0.32588
 N184 N 0.13566 0.16580 0.31518
 C185 C 0.12400 0.16557 0.30404
 C186 C 0.11348 0.17742 0.30782
 C187 C 0.11960 0.18451 0.32175
 H188 H 0.12339 0.15756 0.29376
 H189 H 0.11460 0.19425 0.32848
 Cu190 Cu 0.15434 0.15281 0.31637
 Cu191 Cu 0.14709 0.18088 0.34440
 Cu192 Cu 0.17739 0.15417 0.34978
 N193 N 0.16953 0.13642 0.32091
 N194 N 0.17836 0.13680 0.33413
 C195 C 0.18762 0.12399 0.33430
 C196 C 0.18448 0.11515 0.32037
 C197 C 0.17293 0.12344 0.31217
 H198 H 0.19620 0.12144 0.34370
 H199 H 0.16728 0.12019 0.30078
 N200 N 0.17436 0.17258 0.36421
 N201 N 0.16267 0.18260 0.36231
 C202 C 0.16367 0.19371 0.37405
 C203 C 0.17668 0.19065 0.38373
 C204 C 0.18319 0.17717 0.37709
 H205 H 0.15571 0.20352 0.37527
 H206 H 0.19353 0.17110 0.38142
 H207 H 0.16748 0.17116 0.33491
 H208 H 0.15360 0.15752 0.34577
 N209 N 0.64295 0.32065 0.66984
 N210 N 0.64067 0.33183 0.68072
 C211 C 0.62731 0.32872 0.68914
 C212 C 0.62084 0.31496 0.68299
 C213 C 0.63111 0.31014 0.67082
 H214 H 0.62237 0.33621 0.69855
 H215 H 0.62999 0.29984 0.66311
 Cu216 Cu 0.65486 0.34988 0.68196
 Cu217 Cu 0.66077 0.32096 0.65470
 Cu218 Cu 0.67113 0.35918 0.64558
 N219 N 0.66622 0.36961 0.67877
 N220 N 0.67199 0.37329 0.66428
 C221 C 0.67878 0.38754 0.66499
 C222 C 0.67743 0.39313 0.68087
 C223 C 0.66939 0.38140 0.68935
 H224 H 0.68479 0.39310 0.65479
 H225 H 0.66607 0.38144 0.70218
 N226 N 0.67598 0.34135 0.63108
 N227 N 0.67275 0.32662 0.63496
 C228 C 0.67884 0.31710 0.62343
 C229 C 0.68637 0.32629 0.61168
 C230 C 0.68424 0.34162 0.61698
 H231 H 0.67790 0.30442 0.62371
 H232 H 0.68891 0.35221 0.61143
 H233 H 0.67403 0.34115 0.66153
 H234 H 0.65386 0.34336 0.65278
 N235 N 0.63064 0.82332 1.17414
 N236 N 0.63230 0.83411 1.18554
 C237 C 0.62015 0.83310 1.19614
 C238 C 0.61040 0.82090 1.19118
 C239 C 0.61745 0.81497 1.17715
 H240 H 0.61882 0.84035 1.20695
 H241 H 0.61345 0.80513 1.16984
 Cu242 Cu 0.65061 0.84783 1.18591
 Cu243 Cu 0.64648 0.82020 1.15722
 Cu244 Cu 0.67867 0.84551 1.15672
 N245 N 0.66539 0.86488 1.18197
 N246 N 0.67673 0.86378 1.17101
 C247 C 0.68578 0.87683 1.17171
 C248 C 0.67954 0.88672 1.18354
 C249 C 0.66660 0.87875 1.18976
 H250 H 0.69603 0.87900 1.16410
 H251 H 0.65892 0.88256 1.19959
 N252 N 0.67498 0.82926 1.13977
 N253 N 0.66233 0.82016 1.13961
 C254 C 0.66272 0.81104 1.12614
 C255 C 0.67631 0.81443 1.11746
 C256 C 0.68387 0.82600 1.12647
 H257 H 0.65393 0.80230 1.12302
 H258 H 0.69486 0.83180 1.12341
 H259 H 0.66583 0.82892 1.16940
 H260 H 0.65466 0.84337 1.15688
 N261 N 0.13547 0.31939 1.17017
 N262 N 0.13649 0.32977 1.18204
 C263 C 0.12369 0.32868 1.19171
 C264 C 0.11411 0.31684 1.18569
 C265 C 0.12199 0.31111 1.17202
 H266 H 0.12163 0.33581 1.20248
 H267 H 0.11814 0.30175 1.16398
 Cu268 Cu 0.15441 0.34369 1.18392
 Cu269 Cu 0.15180 0.31769 1.15331
 Cu270 Cu 0.18415 0.34294 1.15699
 N271 N 0.16863 0.36134 1.18154
 N272 N 0.18064 0.36101 1.17134
 C273 C 0.18913 0.37434 1.17316
 C274 C 0.18182 0.38357 1.18497
 C275 C 0.16884 0.37490 1.18996
 H276 H 0.19982 0.37707 1.16644
 H277 H 0.16048 0.37792 1.19947
 N278 N 0.18220 0.32703 1.13940
 N279 N 0.16968 0.31787 1.13774
 C280 C 0.17151 0.30894 1.12425
 C281 C 0.18586 0.31258 1.11706
 C282 C 0.19236 0.32407 1.12703
 H283 H 0.16310 0.30027 1.12004
 H284 H 0.20347 0.33009 1.12519
 H285 H 0.17019 0.32533 1.16740
 H286 H 0.16025 0.34069 1.15497
 N287 N 0.12500 0.82999 0.66147
 N288 N 0.12719 0.83480 0.67660
 C289 C 0.11539 0.82931 0.68612
 C290 C 0.10520 0.82060 0.67634
 C291 C 0.11169 0.82142 0.66074
 H292 H 0.11440 0.83143 0.69916
 H293 H 0.10746 0.81575 0.64972
 Cu294 Cu 0.14532 0.84775 0.68215
 Cu295 Cu 0.13992 0.83466 0.64402
 Cu296 Cu 0.17649 0.84813 0.65666
 N297 N 0.16185 0.86351 0.68405
 N298 N 0.17420 0.86358 0.67428
 C299 C 0.18379 0.87556 0.67855
 C300 C 0.17696 0.88352 0.69161
 C301 C 0.16305 0.87546 0.69476
 H302 H 0.19475 0.87837 0.67239
 H303 H 0.15444 0.87795 0.70420
 N304 N 0.17316 0.83757 0.63540
 N305 N 0.15901 0.83328 0.63040
 C306 C 0.16031 0.82569 0.61605
 C307 C 0.17608 0.82499 0.61167
 C308 C 0.18390 0.83279 0.62427
 H309 H 0.15049 0.82013 0.60993
 H310 H 0.19648 0.83430 0.62564
 H311 H 0.15774 0.83216 0.66062
 H312 H 0.15367 0.85270 0.65385
 N313 N 0.36690 0.68085 0.67534
 N314 N 0.36560 0.66972 0.68644
 C315 C 0.37790 0.67059 0.69676
 C316 C 0.38731 0.68311 0.69197
 C317 C 0.37996 0.68939 0.67835
 H318 H 0.37968 0.66294 0.70719
 H319 H 0.38392 0.69930 0.67109
 Cu320 Cu 0.34756 0.65578 0.68665
 Cu321 Cu 0.35173 0.68304 0.65768
 Cu322 Cu 0.32147 0.65527 0.65560
 N323 N 0.33288 0.63861 0.68388
 N324 N 0.32216 0.63853 0.67226
 C325 C 0.31340 0.62529 0.67374
 C326 C 0.31922 0.61662 0.68682
 C327 C 0.33154 0.62548 0.69290
 H328 H 0.30380 0.62204 0.66572
 H329 H 0.33889 0.62268 0.70331
 N330 N 0.32352 0.67319 0.64001
 N331 N 0.33533 0.68336 0.64076
 C332 C 0.33417 0.69361 0.62831
 C333 C 0.32103 0.68989 0.61919
 C334 C 0.31441 0.67693 0.62700
 H335 H 0.34224 0.70324 0.62607
 H336 H 0.30400 0.67051 0.62324
 H337 H 0.33208 0.67282 0.66886
 H338 H 0.34525 0.65932 0.65721
 N339 N 0.36597 0.17560 1.17071
 N340 N 0.36571 0.16428 1.18169
 C341 C 0.37932 0.16435 1.19005
 C342 C 0.38867 0.17650 1.18417
 C343 C 0.37977 0.18347 1.17190
 H344 H 0.38195 0.15650 1.20010
 H345 H 0.38300 0.19353 1.16448
 Cu346 Cu 0.34723 0.15123 1.18502
 Cu347 Cu 0.34799 0.17926 1.15624
 Cu348 Cu 0.32045 0.14871 1.15510
 N349 N 0.33199 0.13425 1.18448
 N350 N 0.32126 0.13339 1.17294
 C351 C 0.31211 0.12064 1.17564
 C352 C 0.31762 0.11301 1.18950
 C353 C 0.33026 0.12198 1.19476
 H354 H 0.30241 0.11700 1.16794
 H355 H 0.33759 0.11981 1.20535
 N356 N 0.32161 0.16547 1.13836
 N357 N 0.33169 0.17734 1.13902
 C358 C 0.32920 0.18687 1.12606
 C359 C 0.31706 0.18062 1.11675
 C360 C 0.31256 0.16708 1.12495
 H361 H 0.33594 0.19740 1.12339
 H362 H 0.30319 0.15910 1.12150
 H363 H 0.32968 0.16726 1.16788
 H364 H 0.34407 0.15554 1.15580
 N365 N 0.85743 0.67996 1.16942
 N366 N 0.86062 0.66839 1.17960
 C367 C 0.87431 0.67165 1.18732
 C368 C 0.88000 0.68590 1.18139
 C369 C 0.86893 0.69082 1.17015
 H370 H 0.88001 0.66398 1.19604
 H371 H 0.86932 0.70142 1.16281
 Cu372 Cu 0.84687 0.64985 1.18072
 Cu373 Cu 0.83906 0.67983 1.15521
 Cu374 Cu 0.82835 0.64201 1.14524
 N375 N 0.83429 0.63068 1.17793
 N376 N 0.82762 0.62765 1.16373
 C377 C 0.81967 0.61403 1.16468
 C378 C 0.82113 0.60810 1.18042
 C379 C 0.83056 0.61903 1.18855
 H380 H 0.81267 0.60931 1.15477
 H381 H 0.83421 0.61867 1.20124
 N382 N 0.82304 0.66026 1.13158
 N383 N 0.82636 0.67483 1.13586
 C384 C 0.81987 0.68474 1.12497
 C385 C 0.81194 0.67595 1.11323
 C386 C 0.81428 0.66045 1.11786
 H387 H 0.82076 0.69740 1.12575
 H388 H 0.80950 0.65002 1.11213
 H389 H 0.82654 0.65935 1.16209
 H390 H 0.84616 0.65766 1.15182
 N391 N 0.86897 0.17553 0.67066
 N392 N 0.86671 0.16352 0.68054
 C393 C 0.87795 0.16368 0.69220
 C394 C 0.88764 0.17660 0.68950
 C395 C 0.88157 0.18382 0.67572
 H396 H 0.87883 0.15526 0.70209
 H397 H 0.88604 0.19429 0.66975
 Cu398 Cu 0.84897 0.14920 0.67738
 Cu399 Cu 0.85544 0.17983 0.65204
 Cu400 Cu 0.82432 0.15418 0.64551
 N401 N 0.83164 0.13463 0.67324
 N402 N 0.82226 0.13657 0.66062
 C403 C 0.81147 0.12494 0.66043
 C404 C 0.81415 0.11518 0.67372
 C405 C 0.82704 0.12172 0.68162
 H406 H 0.80217 0.12385 0.65148
 H407 H 0.83269 0.11732 0.69256
 N408 N 0.82841 0.17269 0.63157
 N409 N 0.84048 0.18225 0.63388
 C410 C 0.84018 0.19364 0.62241
 C411 C 0.82724 0.19121 0.61248
 C412 C 0.82001 0.17784 0.61866
 H413 H 0.84852 0.20326 0.62159
 H414 H 0.80945 0.17226 0.61403
 H415 H 0.83536 0.16936 0.66163
 H416 H 0.84831 0.15678 0.64855
 N417 N 0.32066 0.36369 0.67790
 N418 N 0.33167 0.36267 0.68913
 C419 C 0.33114 0.37544 0.69883
 C420 C 0.31899 0.38495 0.69353
 C421 C 0.31254 0.37709 0.68022
 H422 H 0.33883 0.37748 0.70918
 H423 H 0.30275 0.38085 0.67275
 Cu424 Cu 0.34536 0.34459 0.69015
 Cu425 Cu 0.31780 0.34725 0.66148
 Cu426 Cu 0.34577 0.31730 0.66049
 N427 N 0.36315 0.33079 0.68723
 N428 N 0.36339 0.31975 0.67593
 C429 C 0.37705 0.31174 0.67722
 C430 C 0.38585 0.31843 0.68980
 C431 C 0.37662 0.33045 0.69579
 H432 H 0.38042 0.30200 0.66946
 H433 H 0.37939 0.33827 0.70585
 N434 N 0.32912 0.31976 0.64351
 N435 N 0.31886 0.33140 0.64384
 C436 C 0.30966 0.33052 0.63048
 C437 C 0.31414 0.31768 0.62125
 C438 C 0.32647 0.31102 0.62992
 H439 H 0.30025 0.33860 0.62768
 H440 H 0.33324 0.30083 0.62637
 H441 H 0.32794 0.32819 0.67297
 H442 H 0.34147 0.34106 0.66099
 N443 N 0.31727 0.86130 0.17454
 N444 N 0.32842 0.86195 0.18569
 C445 C 0.32717 0.87546 0.19411
 C446 C 0.31442 0.88370 0.18813
 C447 C 0.30831 0.87431 0.17575
 H448 H 0.33478 0.87887 0.20414
 H449 H 0.29826 0.87683 0.16808
 Cu450 Cu 0.34314 0.84488 0.18888
 Cu451 Cu 0.31558 0.84354 0.15938
 Cu452 Cu 0.34726 0.81774 0.15975
 N453 N 0.36153 0.83142 0.18816
 N454 N 0.36311 0.82065 0.17673
 C455 C 0.37637 0.81247 0.17954
 C456 C 0.38356 0.81855 0.19342
 C457 C 0.37381 0.83062 0.19853
 H458 H 0.38040 0.80274 0.17212
 H459 H 0.37526 0.83794 0.20927
 N460 N 0.33155 0.81815 0.14200
 N461 N 0.31915 0.82747 0.14213
 C462 C 0.31042 0.82452 0.12865
 C463 C 0.31783 0.81294 0.11955
 C464 C 0.33117 0.80923 0.12838
 H465 H 0.29966 0.83055 0.12550
 H466 H 0.33982 0.80044 0.12523
 H467 H 0.32781 0.82650 0.17174
 H468 H 0.33960 0.84098 0.15971
 N469 N 0.82674 0.37062 0.16294
 N470 N 0.83216 0.36778 0.17771
 C471 C 0.82659 0.37875 0.18813
 C472 C 0.81717 0.38907 0.17933
 C473 C 0.81767 0.38350 0.16335
 H474 H 0.82922 0.37915 0.20110
 H475 H 0.81163 0.38816 0.15276
 Cu476 Cu 0.84613 0.35008 0.18149
 Cu477 Cu 0.83169 0.35730 0.14430
 Cu478 Cu 0.84670 0.32065 0.15401
 N479 N 0.86240 0.33406 0.18192
 N480 N 0.86243 0.32225 0.17151
 C481 C 0.87470 0.31280 0.17493
 C482 C 0.88293 0.31921 0.18803
 C483 C 0.87472 0.33269 0.19213
 H484 H 0.87762 0.30230 0.16811
 H485 H 0.87741 0.34085 0.20191
 N486 N 0.83586 0.32506 0.13309
 N487 N 0.83101 0.33930 0.12922
 C488 C 0.82397 0.33885 0.11451
 C489 C 0.82429 0.32358 0.10868
 C490 C 0.83197 0.31511 0.12083
 H491 H 0.81818 0.34880 0.10895
 H492 H 0.83433 0.30263 0.12089
 H493 H 0.83027 0.33840 0.15964
 H494 H 0.85052 0.34378 0.15259
 N495 N 0.82006 0.86505 0.66064
 N496 N 0.82911 0.86668 0.67360
 C497 C 0.82491 0.87985 0.68170
 C498 C 0.81268 0.88688 0.67324
 C499 C 0.80994 0.87714 0.65995
 H500 H 0.83040 0.88410 0.69280
 H501 H 0.80101 0.87857 0.65065
 Cu502 Cu 0.84561 0.85148 0.67848
 Cu503 Cu 0.82161 0.84720 0.64579
 Cu504 Cu 0.85124 0.82051 0.65352
 N505 N 0.86264 0.83656 0.68216
 N506 N 0.86454 0.82442 0.67239
 C507 C 0.87669 0.81577 0.67769
 C508 C 0.88289 0.82282 0.69153
 C509 C 0.87371 0.83607 0.69400
 H510 H 0.88082 0.80517 0.67180
 H511 H 0.87486 0.84453 0.70383
 N512 N 0.83666 0.81841 0.63500
 N513 N 0.82512 0.82837 0.63218
 C514 C 0.81691 0.82338 0.61902
 C515 C 0.82373 0.80970 0.61323
 C516 C 0.83621 0.80694 0.62366
 H517 H 0.80678 0.82928 0.61394
 H518 H 0.84415 0.79705 0.62323
 H519 H 0.83137 0.83185 0.66239
 H520 H 0.84530 0.84385 0.64965
 N521 N 0.67408 0.63565 0.67312
 N522 N 0.66452 0.63920 0.68525
 C523 C 0.66567 0.62833 0.69711
 C524 C 0.67662 0.61732 0.69225
 C525 C 0.68184 0.62235 0.67696
 H526 H 0.65897 0.62840 0.70842
 H527 H 0.69026 0.61655 0.66905
 Cu528 Cu 0.65086 0.65716 0.68431
 Cu529 Cu 0.67443 0.64815 0.65297
 Cu530 Cu 0.65472 0.68409 0.65476
 N531 N 0.63423 0.67183 0.67960
 N532 N 0.63587 0.68313 0.66872
 C533 C 0.62301 0.69241 0.66934
 C534 C 0.61273 0.68621 0.68098
 C535 C 0.62028 0.67319 0.68718
 H536 H 0.62123 0.70274 0.66182
 H537 H 0.61617 0.66558 0.69696
 N538 N 0.66995 0.67868 0.63725
 N539 N 0.67694 0.66486 0.63630
 C540 C 0.68608 0.66457 0.62279
 C541 C 0.68482 0.67887 0.61480
 C542 C 0.67453 0.68756 0.62436
 H543 H 0.69339 0.65478 0.61920
 H544 H 0.67043 0.69935 0.62197
 H545 H 0.67071 0.66842 0.66577
 H546 H 0.65321 0.66045 0.65477
 N547 N 0.68349 0.13615 0.15846
 N548 N 0.67435 0.13426 0.17138
 C549 C 0.67882 0.12118 0.17946
 C550 C 0.69133 0.11450 0.17103
 C551 C 0.69393 0.12435 0.15779
 H552 H 0.67338 0.11680 0.19059
 H553 H 0.70304 0.12326 0.14856
 Cu554 Cu 0.65757 0.14917 0.17627
 Cu555 Cu 0.68182 0.15405 0.14379
 Cu556 Cu 0.65169 0.18026 0.15138
 N557 N 0.64021 0.16375 0.17984
 N558 N 0.63814 0.17588 0.17009
 C559 C 0.62572 0.18423 0.17537
 C560 C 0.61957 0.17699 0.18919
 C561 C 0.62904 0.16395 0.19164
 H562 H 0.62145 0.19477 0.16951
 H563 H 0.62803 0.15545 0.20146
 N564 N 0.66662 0.18274 0.13305
 N565 N 0.67827 0.17287 0.13031
 C566 C 0.68680 0.17806 0.11743
 C567 C 0.68016 0.19183 0.11173
 C568 C 0.66736 0.19441 0.12190
 H569 H 0.69710 0.17227 0.11254
 H570 H 0.65944 0.20431 0.12148
 H571 H 0.67151 0.16926 0.16040
 H572 H 0.65793 0.15709 0.14752
 N573 N 0.17520 0.63148 0.17488
 N574 N 0.16536 0.63390 0.18708
 C575 C 0.16725 0.62261 0.19845
 C576 C 0.17900 0.61261 0.19313
 C577 C 0.18384 0.61862 0.17813
 H578 H 0.16052 0.62169 0.20970
 H579 H 0.19262 0.61374 0.16996
 Cu580 Cu 0.15059 0.65114 0.18667
 Cu581 Cu 0.17491 0.64450 0.15526
 Cu582 Cu 0.15415 0.67962 0.15840
 N583 N 0.13386 0.66603 0.18279
 N584 N 0.13533 0.67773 0.17233
 C585 C 0.12241 0.68689 0.17340
 C586 C 0.11224 0.68027 0.18492
 C587 C 0.11995 0.66709 0.19056
 H588 H 0.12052 0.69744 0.16628
 H589 H 0.11597 0.65910 0.20006
 N590 N 0.16984 0.67548 0.14087
 N591 N 0.17726 0.66194 0.13957
 C592 C 0.18697 0.66245 0.12654
 C593 C 0.18566 0.67700 0.11909
 C594 C 0.17468 0.68501 0.12856
 H595 H 0.19477 0.65303 0.12306
 H596 H 0.17045 0.69683 0.12661
 H597 H 0.17028 0.66397 0.16908
 H598 H 0.15319 0.65604 0.15732
 N599 N 0.17843 0.13091 0.67169
 N600 N 0.16876 0.13343 0.68401
 C601 C 0.17029 0.12193 0.69517
 C602 C 0.18159 0.11156 0.68962
 C603 C 0.18661 0.11766 0.67467
 H604 H 0.16361 0.12115 0.70647
 H605 H 0.19522 0.11264 0.66641
 Cu606 Cu 0.15452 0.15098 0.68414
 Cu607 Cu 0.17850 0.14463 0.65243
 Cu608 Cu 0.15702 0.17941 0.65596
 N609 N 0.13724 0.16512 0.68029
 N610 N 0.13825 0.17689 0.66988
 C611 C 0.12499 0.18555 0.67105
 C612 C 0.11512 0.17848 0.68257
 C613 C 0.12334 0.16559 0.68811
 H614 H 0.12270 0.19611 0.66406
 H615 H 0.11975 0.15746 0.69764
 N616 N 0.17276 0.17572 0.63838
 N617 N 0.18050 0.16235 0.63686
 C618 C 0.19001 0.16327 0.62366
 C619 C 0.18822 0.17787 0.61643
 C620 C 0.17720 0.18549 0.62615
 H621 H 0.19794 0.15406 0.61982
 H622 H 0.17258 0.19718 0.62433
 H623 H 0.17376 0.16412 0.66626
 H624 H 0.15670 0.15580 0.65480
 N625 N 0.32613 0.62757 0.33981
 N626 N 0.33239 0.63043 0.32533
 C627 C 0.32858 0.61859 0.31506
 C628 C 0.31953 0.60770 0.32369
 C629 C 0.31831 0.61384 0.33936
 H630 H 0.33213 0.61796 0.30232
 H631 H 0.31176 0.60902 0.34961
 Cu632 Cu 0.34512 0.64925 0.32171
 Cu633 Cu 0.32793 0.64193 0.35819
 Cu634 Cu 0.34193 0.67892 0.34866
 N635 N 0.36056 0.66631 0.32232
 N636 N 0.35941 0.67768 0.33320
 C637 C 0.37191 0.68733 0.33176
 C638 C 0.38139 0.68178 0.31925
 C639 C 0.37380 0.66848 0.31340
 H640 H 0.37401 0.69755 0.33935
 H641 H 0.37790 0.66066 0.30385
 N642 N 0.32938 0.67464 0.36840
 N643 N 0.32465 0.66035 0.37236
 C644 C 0.31625 0.66102 0.38635
 C645 C 0.31564 0.67653 0.39152
 C646 C 0.32418 0.68483 0.37979
 H647 H 0.31045 0.65099 0.39189
 H648 H 0.32636 0.69736 0.37940
 H649 H 0.32692 0.66003 0.34201
 H650 H 0.34678 0.65596 0.35083
 N651 N 0.32646 0.13314 0.82578
 N652 N 0.33642 0.13553 0.81364
 C653 C 0.33533 0.12368 0.80284
 C654 C 0.32404 0.11319 0.80841
 C655 C 0.31855 0.11960 0.82301
 H656 H 0.34231 0.12275 0.79176
 H657 H 0.30979 0.11460 0.83118
 Cu658 Cu 0.35043 0.15341 0.81320
 Cu659 Cu 0.32573 0.14744 0.84456
 Cu660 Cu 0.34713 0.18240 0.84053
 N661 N 0.36744 0.16813 0.81687
 N662 N 0.36608 0.18003 0.82702
 C663 C 0.37914 0.18909 0.82587
 C664 C 0.38928 0.18219 0.81459
 C665 C 0.38141 0.16893 0.80919
 H666 H 0.38109 0.19983 0.83269
 H667 H 0.38527 0.16079 0.79983
 N668 N 0.33125 0.17884 0.85793
 N669 N 0.32340 0.16549 0.85968
 C670 C 0.31385 0.16662 0.87284
 C671 C 0.31579 0.18137 0.87981
 C672 C 0.32692 0.18879 0.86997
 H673 H 0.30593 0.15743 0.87692
 H674 H 0.33175 0.20047 0.87160
 H675 H 0.33073 0.16656 0.83031
 H676 H 0.34758 0.15875 0.84237
 N677 N 0.81865 0.63906 0.83589
 N678 N 0.82963 0.63695 0.82467
 C679 C 0.82639 0.62366 0.81628
 C680 C 0.81281 0.61706 0.82285
 C681 C 0.80821 0.62717 0.83520
 H682 H 0.83368 0.61885 0.80662
 H683 H 0.79811 0.62589 0.84324
 Cu684 Cu 0.84766 0.65124 0.82309
 Cu685 Cu 0.81903 0.65673 0.85104
 Cu686 Cu 0.85732 0.66729 0.85936
 N687 N 0.86732 0.66291 0.82594
 N688 N 0.87112 0.66851 0.84043
 C689 C 0.88510 0.67583 0.83947
 C690 C 0.89042 0.67507 0.82345
 C691 C 0.87879 0.66675 0.81511
 H692 H 0.89053 0.68200 0.84960
 H693 H 0.87859 0.66388 0.80218
 N694 N 0.83964 0.67214 0.87411
 N695 N 0.82486 0.66886 0.87054
 C696 C 0.81542 0.67535 0.88194
 C697 C 0.82477 0.68324 0.89324
 C698 C 0.84007 0.68086 0.88785
 H699 H 0.80271 0.67462 0.88174
 H700 H 0.85073 0.68583 0.89292
 H701 H 0.83898 0.67006 0.84375
 H702 H 0.84150 0.64989 0.85242
 N703 N 0.82873 0.12704 0.33628
 N704 N 0.83511 0.13042 0.32199
 C705 C 0.83088 0.11927 0.31107
 C706 C 0.82136 0.10830 0.31905
 C707 C 0.82038 0.11367 0.33506
 H708 H 0.83434 0.11928 0.29829
 H709 H 0.81364 0.10865 0.34506
 Cu710 Cu 0.84817 0.14917 0.31934
 Cu711 Cu 0.83090 0.14048 0.35537
 Cu712 Cu 0.84454 0.17793 0.34726
 N713 N 0.86326 0.16651 0.32039
 N714 N 0.86190 0.17755 0.33160
 C715 C 0.87402 0.18769 0.33018
 C716 C 0.88348 0.18280 0.31735
 C717 C 0.87626 0.16936 0.31130
 H718 H 0.87579 0.19787 0.33793
 H719 H 0.88040 0.16199 0.30139
 N720 N 0.83214 0.17276 0.36689
 N721 N 0.82764 0.15828 0.37035
 C722 C 0.81920 0.15837 0.38433
 C723 C 0.81830 0.17370 0.38999
 C724 C 0.82673 0.18251 0.37860
 H725 H 0.81343 0.14812 0.38947
 H726 H 0.82862 0.19508 0.37863
 H727 H 0.82979 0.15916 0.33989
 H728 H 0.84966 0.15504 0.34866
 N729 N 0.68075 0.35930 0.33244
 N730 N 0.66946 0.36237 0.32191
 C731 C 0.67288 0.37600 0.31414
 C732 C 0.68696 0.38179 0.32038
 C733 C 0.69162 0.37081 0.33187
 H734 H 0.66544 0.38155 0.30510
 H735 H 0.70206 0.37123 0.33943
 Cu736 Cu 0.65107 0.34847 0.32027
 Cu737 Cu 0.68030 0.34094 0.34673
 Cu738 Cu 0.64210 0.33026 0.35573
 N739 N 0.63162 0.33623 0.32276
 N740 N 0.62805 0.32983 0.33700
 C741 C 0.61414 0.32238 0.33589
 C742 C 0.60866 0.32387 0.32001
 C743 C 0.62010 0.33274 0.31193
 H744 H 0.60883 0.31567 0.34576
 H745 H 0.62009 0.33628 0.29918
 N746 N 0.66005 0.32473 0.36977
 N747 N 0.67476 0.32810 0.36588
 C748 C 0.68441 0.32136 0.37687
 C749 C 0.67530 0.31320 0.38825
 C750 C 0.65989 0.31569 0.38331
 H751 H 0.69711 0.32217 0.37635
 H752 H 0.64930 0.31077 0.38867
 H753 H 0.66001 0.32832 0.33939
 H754 H 0.65797 0.34796 0.34941
 N755 N 0.67702 0.87002 0.82818
 N756 N 0.66571 0.86705 0.81764
 C757 C 0.66559 0.87840 0.80613
 C758 C 0.67761 0.88893 0.80954
 C759 C 0.68464 0.88323 0.82361
 H760 H 0.65767 0.87873 0.79576
 H761 H 0.69454 0.88833 0.83004
 Cu762 Cu 0.65278 0.84821 0.81920
 Cu763 Cu 0.68103 0.85649 0.84692
 Cu764 Cu 0.65574 0.82489 0.85254
 N765 N 0.63759 0.83164 0.82378
 N766 N 0.63868 0.82265 0.83683
 C767 C 0.62670 0.81221 0.83684
 C768 C 0.61764 0.81476 0.82299
 C769 C 0.62493 0.82721 0.81500
 H770 H 0.62491 0.80324 0.84608
 H771 H 0.62124 0.83270 0.80369
 N772 N 0.67373 0.82922 0.86709
 N773 N 0.68316 0.84147 0.86512
 C774 C 0.69413 0.84136 0.87702
 C775 C 0.69156 0.82835 0.88687
 C776 C 0.67856 0.82090 0.88019
 H777 H 0.70354 0.84989 0.87821
 H778 H 0.67299 0.81024 0.88461
 H779 H 0.67194 0.83583 0.83734
 H780 H 0.65784 0.84883 0.84856
 N781 N 0.17934 0.36296 0.82674
 N782 N 0.16708 0.36215 0.81694
 C783 C 0.16693 0.37486 0.80714
 C784 C 0.17984 0.38419 0.81089
 C785 C 0.18754 0.37619 0.82334
 H786 H 0.15814 0.37702 0.79784
 H787 H 0.19812 0.37983 0.82969
 Cu788 Cu 0.15251 0.34447 0.81750
 Cu789 Cu 0.18314 0.34682 0.84341
 Cu790 Cu 0.14814 0.32858 0.85465
 N791 N 0.13577 0.32938 0.82198
 N792 N 0.13402 0.32341 0.83673
 C793 C 0.12145 0.31377 0.83690
 C794 C 0.11494 0.31352 0.82132
 C795 C 0.12440 0.32362 0.81214
 H796 H 0.11759 0.30723 0.84758
 H797 H 0.12304 0.32670 0.79935
 N798 N 0.16701 0.32877 0.86857
 N799 N 0.18067 0.33491 0.86408
 C800 C 0.19153 0.33146 0.87559
 C801 C 0.18426 0.32272 0.88791
 C802 C 0.16875 0.32130 0.88295
 H803 H 0.20379 0.33490 0.87493
 H804 H 0.15952 0.31457 0.88888
 H805 H 0.16634 0.32909 0.83824
 H806 H 0.15986 0.34859 0.84616
 N807 N 0.17862 0.85767 0.32847
 N808 N 0.16710 0.85913 0.31781
 C809 C 0.16936 0.87246 0.30911
 C810 C 0.18290 0.87978 0.31486
 C811 C 0.18847 0.87000 0.32706
 H812 H 0.16146 0.87681 0.29979
 H813 H 0.19883 0.87180 0.33454
 Cu814 Cu 0.14986 0.84380 0.31721
 Cu815 Cu 0.17972 0.84021 0.34391
 Cu816 Cu 0.14258 0.82649 0.35350
 N817 N 0.13126 0.83050 0.32053
 N818 N 0.12849 0.82414 0.33496
 C819 C 0.11500 0.81587 0.33440
 C820 C 0.10889 0.81689 0.31871
 C821 C 0.11958 0.82631 0.31018
 H822 H 0.11033 0.80921 0.34464
 H823 H 0.11891 0.82987 0.29745
 N824 N 0.16092 0.82343 0.36782
 N825 N 0.17530 0.82795 0.36382
 C826 C 0.18539 0.82298 0.37541
 C827 C 0.17691 0.81483 0.38731
 C828 C 0.16142 0.81541 0.38202
 H829 H 0.19795 0.82511 0.37510
 H830 H 0.15127 0.80988 0.38766
 H831 H 0.16066 0.82545 0.33729
 H832 H 0.15680 0.84525 0.34628
 C833 C 0.25234 0.96566 0.23610
 C834 C 0.24192 0.95743 0.24636
 C835 C 0.23158 0.96526 0.25697
 C836 C 0.23124 0.98193 0.25700
 C837 C 0.24161 0.99045 0.24657
 C838 C 0.25193 0.98231 0.23583
 C839 C 0.26162 0.99105 0.22512
 C840 C 0.26211 1.00738 0.22587
 C841 C 0.25284 1.01563 0.23725
 C842 C 0.24207 1.00716 0.24729
 C843 C 0.22082 0.99029 0.26718
 C844 C 0.22129 1.00666 0.26791
 C845 C 0.23217 1.01531 0.25844
 C846 C 0.23337 1.03189 0.25974
 C847 C 0.24411 1.04004 0.24975
 C848 C 0.25404 1.03216 0.23882
 H849 H 0.26896 0.98532 0.21607
 H850 H 0.26987 1.01349 0.21741
 H851 H 0.21221 0.98424 0.27473
 H852 H 0.21303 1.01247 0.27599
 H853 H 0.24270 0.94472 0.24703
 H854 H 0.24549 1.05264 0.25130
 C855 C 0.25914 0.46859 0.74139
 C856 C 0.24749 0.46071 0.75040
 C857 C 0.23572 0.46885 0.75889
 C858 C 0.23579 0.48552 0.75873
 C859 C 0.24725 0.49370 0.74923
 C860 C 0.25880 0.48519 0.74032
 C861 C 0.26949 0.49348 0.73032
 C862 C 0.26935 0.50982 0.72966
 C863 C 0.25865 0.51856 0.73915
 C864 C 0.24722 0.51042 0.74871
 C865 C 0.22498 0.49423 0.76810
 C866 C 0.22501 0.51060 0.76766
 C867 C 0.23581 0.51895 0.75778
 C868 C 0.23574 0.53560 0.75701
 C869 C 0.24737 0.54343 0.74787
 C870 C 0.25891 0.53522 0.73913
 H871 H 0.27797 0.48740 0.72272
 H872 H 0.27768 0.51550 0.72149
 H873 H 0.21653 0.48848 0.77608
 H874 H 0.21658 0.51665 0.77534
 H875 H 0.24763 0.44797 0.75087
 H876 H 0.24746 0.55618 0.74761
 C877 C 0.76290 -0.03278 0.25158
 C878 C 0.75235 -0.04035 0.24103
 C879 C 0.74339 -0.03191 0.22965
 C880 C 0.74551 -0.01543 0.22825
 C881 C 0.75615 -0.00759 0.23887
 C882 C 0.76500 -0.01630 0.25044
 C883 C 0.77580 -0.00831 0.26051
 C884 C 0.77696 0.00800 0.26016
 C885 C 0.76744 0.01696 0.24965
 C886 C 0.75757 0.00906 0.23829
 C887 C 0.73722 -0.00658 0.21656
 C888 C 0.73878 0.00970 0.21583
 C889 C 0.74882 0.01780 0.22667
 C890 C 0.75006 0.03441 0.22648
 C891 C 0.75915 0.04205 0.23840
 C892 C 0.76757 0.03360 0.25018
 H893 H 0.78341 -0.01458 0.26886
 H894 H 0.78547 0.01352 0.26820
 H895 H 0.72940 -0.01218 0.20785
 H896 H 0.73176 0.01590 0.20688
 H897 H 0.75031 -0.05288 0.24245
 H898 H 0.75942 0.05480 0.23868
 C899 C 0.75786 0.47000 0.75894
 C900 C 0.74643 0.46260 0.74929
 C901 C 0.73447 0.47116 0.74166
 C902 C 0.73352 0.48761 0.74429
 C903 C 0.74502 0.49525 0.75411
 C904 C 0.75719 0.48641 0.76152
 C905 C 0.76836 0.49420 0.77135
 C906 C 0.76773 0.51040 0.77366
 C907 C 0.75589 0.51943 0.76627
 C908 C 0.74447 0.51180 0.75634
 C909 C 0.72136 0.49661 0.73741
 C910 C 0.72106 0.51286 0.73923
 C911 C 0.73254 0.52071 0.74859
 C912 C 0.73246 0.53724 0.75032
 C913 C 0.74384 0.54461 0.76004
 C914 C 0.75526 0.53593 0.76836
 H915 H 0.77770 0.48783 0.77739
 H916 H 0.77677 0.51581 0.78114
 H917 H 0.71192 0.49121 0.73051
 H918 H 0.71169 0.51918 0.73320
 H919 H 0.74740 0.45009 0.74695
 H920 H 0.74337 0.55725 0.76171
 C921 C 0.26432 0.46397 0.25586
 C922 C 0.25285 0.45632 0.24646
 C923 C 0.24146 0.46472 0.23776
 C924 C 0.24172 0.48138 0.23813
 C925 C 0.25289 0.48930 0.24812
 C926 C 0.26421 0.48058 0.25704
 C927 C 0.27493 0.48870 0.26710
 C928 C 0.27466 0.50500 0.26827
 C929 C 0.26331 0.51386 0.25986
 C930 C 0.25256 0.50596 0.24939
 C931 C 0.23123 0.49034 0.22867
 C932 C 0.23096 0.50665 0.22986
 C933 C 0.24125 0.51467 0.24047
 C934 C 0.24058 0.53119 0.24231
 C935 C 0.25128 0.53881 0.25266
 C936 C 0.26240 0.53040 0.26170
 H937 H 0.28355 0.48257 0.27440
 H938 H 0.28347 0.51056 0.27590
 H939 H 0.22315 0.48484 0.22016
 H940 H 0.22260 0.51294 0.22234
 H941 H 0.25272 0.44357 0.24602
 H942 H 0.25027 0.55140 0.25448
 C943 C 0.73462 0.96771 0.74943
 C944 C 0.74450 0.95984 0.73845
 C945 C 0.75500 0.96803 0.72827
 C946 C 0.75588 0.98465 0.72924
 C947 C 0.74625 0.99274 0.74071
 C948 C 0.73569 0.98423 0.75094
 C949 C 0.72653 0.99244 0.76246
 C950 C 0.72762 1.00871 0.76385
 C951 C 0.73790 1.01743 0.75374
 C952 C 0.74705 1.00940 0.74183
 C953 C 0.76626 0.99337 0.71926
 C954 C 0.76665 1.00972 0.71998
 C955 C 0.75693 1.01799 0.73096
 C956 C 0.75698 1.03463 0.73153
 C957 C 0.74834 1.04235 0.74374
 C958 C 0.73910 1.03400 0.75505
 H959 H 0.71850 0.98633 0.77064
 H960 H 0.72011 1.01440 0.77278
 H961 H 0.77420 0.98764 0.71078
 H962 H 0.77488 1.01582 0.71201
 H963 H 0.74346 0.94717 0.73726
 H964 H 0.74876 1.05508 0.74440
 C965 C 0.76124 0.46545 0.24403
 C966 C 0.75163 0.45750 0.25531
 C967 C 0.74312 0.46557 0.26737
 C968 C 0.74382 0.48222 0.26793
 C969 C 0.75375 0.49044 0.25677
 C970 C 0.76278 0.48200 0.24508
 C971 C 0.77337 0.49031 0.23495
 C972 C 0.77420 0.50662 0.23542
 C973 C 0.76438 0.51533 0.24592
 C974 C 0.75455 0.50714 0.25719
 C975 C 0.73464 0.49088 0.27907
 C976 C 0.73544 0.50724 0.27949
 C977 C 0.74542 0.51562 0.26876
 C978 C 0.74624 0.53226 0.26899
 C979 C 0.75543 0.54017 0.25727
 C980 C 0.76430 0.53200 0.24558
 H981 H 0.78123 0.48427 0.22663
 H982 H 0.78273 0.51233 0.22749
 H983 H 0.72654 0.48511 0.28743
 H984 H 0.72792 0.51327 0.28817
 H985 H 0.75076 0.44478 0.25468
 H986 H 0.75552 0.55293 0.25715
 C987 C 0.26626 -0.03629 0.75557
 C988 C 0.25369 -0.04433 0.74831
 C989 C 0.24120 -0.03631 0.74100
 C990 C 0.24141 -0.01966 0.74058
 C991 C 0.25389 -0.01133 0.74830
 C992 C 0.26631 -0.01967 0.75591
 C993 C 0.27826 -0.01121 0.76395
 C994 C 0.27817 0.00515 0.76429
 C995 C 0.26625 0.01369 0.75638
 C996 C 0.25391 0.00537 0.74843
 C997 C 0.22967 -0.01114 0.73240
 C998 C 0.22975 0.00521 0.73242
 C999 C 0.24157 0.01371 0.74066
 C1000 C 0.24154 0.03034 0.74108
 C1001 C 0.25382 0.03836 0.74887
 C1002 C 0.26616 0.03034 0.75645
 H1003 H 0.28771 -0.01718 0.77025
 H1004 H 0.28751 0.01101 0.77094
 H1005 H 0.22036 -0.01703 0.72572
 H1006 H 0.22048 0.01113 0.72579
 H1007 H 0.25359 -0.05709 0.74847
 H1008 H 0.25376 0.05112 0.74905
 C1009 C 0.26899 0.24595 0.96363
 C1010 C 0.25891 0.25652 0.95573
 C1011 C 0.25004 0.26749 0.96460
 C1012 C 0.25180 0.26840 0.98187
 C1013 C 0.26173 0.25761 0.99008
 C1014 C 0.27067 0.24664 0.98093
 C1015 C 0.28102 0.23662 0.98934
 C1016 C 0.28152 0.23643 1.00644
 C1017 C 0.27162 0.24618 1.01579
 C1018 C 0.26214 0.25733 1.00753
 C1019 C 0.24376 0.27974 0.99120
 C1020 C 0.24399 0.27931 1.00826
 C1021 C 0.25247 0.26769 1.01665
 C1022 C 0.25139 0.26609 1.03391
 C1023 C 0.26091 0.25512 1.04192
 C1024 C 0.27087 0.24504 1.03315
 H1025 H 0.28878 0.22875 0.98278
 H1026 H 0.28964 0.22842 1.01225
 H1027 H 0.23702 0.28895 0.98539
 H1028 H 0.23733 0.28813 1.01484
 H1029 H 0.25704 0.25540 0.94262
 H1030 H 0.25961 0.25354 1.05507
 C1031 C 0.25953 0.74077 0.46892
 C1032 C 0.24886 0.75001 0.46014
 C1033 C 0.23932 0.76107 0.46803
 C1034 C 0.24082 0.76337 0.48517
 C1035 C 0.25153 0.75406 0.49425
 C1036 C 0.26114 0.74295 0.48607
 C1037 C 0.27209 0.73430 0.49528
 C1038 C 0.27298 0.73592 0.51225
 C1039 C 0.26315 0.74647 0.52069
 C1040 C 0.25233 0.75560 0.51160
 C1041 C 0.23199 0.77483 0.49348
 C1042 C 0.23252 0.77607 0.51048
 C1043 C 0.24205 0.76602 0.51984
 C1044 C 0.24158 0.76619 0.53722
 C1045 C 0.25262 0.75744 0.54605
 C1046 C 0.26366 0.74793 0.53802
 H1047 H 0.28009 0.72614 0.48947
 H1048 H 0.28126 0.72854 0.51867
 H1049 H 0.22449 0.78293 0.48693
 H1050 H 0.22541 0.78506 0.51622
 H1051 H 0.24729 0.74791 0.44711
 H1052 H 0.25252 0.75786 0.55935
 C1053 C 0.23445 0.74015 -0.03246
 C1054 C 0.24302 0.75151 -0.04122
 C1055 C 0.25297 0.76220 -0.03326
 C1056 C 0.25483 0.76136 -0.01602
 C1057 C 0.24651 0.74973 -0.00696
 C1058 C 0.23636 0.73903 -0.01519
 C1059 C 0.22847 0.72745 -0.00593
 C1060 C 0.22989 0.72684 0.01106
 C1061 C 0.23988 0.73729 0.01949
 C1062 C 0.24830 0.74884 0.01039
 C1063 C 0.26485 0.77181 -0.00762
 C1064 C 0.26657 0.77096 0.00934
 C1065 C 0.25856 0.75945 0.01858
 C1066 C 0.26041 0.75838 0.03583
 C1067 C 0.25165 0.74721 0.04465
 C1068 C 0.24161 0.73656 0.03677
 H1069 H 0.22110 0.71866 -0.01169
 H1070 H 0.22303 0.71802 0.01749
 H1071 H 0.27152 0.78076 -0.01409
 H1072 H 0.27419 0.77953 0.01514
 H1073 H 0.24133 0.75258 -0.05437
 H1074 H 0.25332 0.74625 0.05782
 C1075 C 0.23872 0.24410 0.46530
 C1076 C 0.25021 0.25277 0.45683
 C1077 C 0.26203 0.26110 0.46513
 C1078 C 0.26200 0.26130 0.48254
 C1079 C 0.25093 0.25192 0.49129
 C1080 C 0.23943 0.24307 0.48263
 C1081 C 0.22908 0.23329 0.49153
 C1082 C 0.23004 0.23217 0.50855
 C1083 C 0.24123 0.24097 0.51740
 C1084 C 0.25138 0.25137 0.50874
 C1085 C 0.27262 0.27071 0.49145
 C1086 C 0.27259 0.27070 0.50855
 C1087 C 0.26199 0.26120 0.51747
 C1088 C 0.26180 0.26115 0.53489
 C1089 C 0.25235 0.25014 0.54319
 C1090 C 0.24242 0.23977 0.53471
 H1091 H 0.22032 0.22616 0.48538
 H1092 H 0.22169 0.22454 0.51473
 H1093 H 0.28092 0.27841 0.48528
 H1094 H 0.28119 0.27801 0.51470
 H1095 H 0.24997 0.25299 0.44352
 H1096 H 0.25269 0.24967 0.55648
 C1097 C 0.76755 0.74875 0.96837
 C1098 C 0.75929 0.76037 0.95990
 C1099 C 0.74829 0.76987 0.96787
 C1100 C 0.74511 0.76757 0.98476
 C1101 C 0.75311 0.75557 0.99342
 C1102 C 0.76438 0.74613 0.98522
 C1103 C 0.77202 0.73418 0.99401
 C1104 C 0.76894 0.73177 1.01058
 C1105 C 0.75774 0.74090 1.01895
 C1106 C 0.74980 0.75297 1.01031
 C1107 C 0.73402 0.77681 0.99315
 C1108 C 0.73090 0.77438 1.00974
 C1109 C 0.73853 0.76241 1.01852
 C1110 C 0.73535 0.75973 1.03535
 C1111 C 0.74346 0.74796 1.04376
 C1112 C 0.75438 0.73839 1.03577
 H1113 H 0.78045 0.72648 0.98819
 H1114 H 0.77549 0.72265 1.01675
 H1115 H 0.72760 0.78603 0.98696
 H1116 H 0.72245 0.78204 1.01561
 H1117 H 0.76179 0.76234 0.94699
 H1118 H 0.74081 0.74584 1.05662
 C1119 C 0.75710 0.23419 0.46629
 C1120 C 0.74526 0.24207 0.45772
 C1121 C 0.73571 0.25319 0.46545
 C1122 C 0.73818 0.25686 0.48220
 C1123 C 0.75037 0.24924 0.49094
 C1124 C 0.75992 0.23792 0.48296
 C1125 C 0.77219 0.23081 0.49178
 C1126 C 0.77472 0.23435 0.50823
 C1127 C 0.76527 0.24538 0.51642
 C1128 C 0.75306 0.25298 0.50770
 C1129 C 0.72891 0.26808 0.49037
 C1130 C 0.73136 0.27153 0.50685
 C1131 C 0.74350 0.26428 0.51572
 C1132 C 0.74621 0.26783 0.53246
 C1133 C 0.75804 0.25991 0.54098
 C1134 C 0.76765 0.24892 0.53317
 H1135 H 0.78006 0.22248 0.48606
 H1136 H 0.78418 0.22833 0.51445
 H1137 H 0.71963 0.27434 0.48412
 H1138 H 0.72354 0.27993 0.51255
 H1139 H 0.74313 0.23915 0.44496
 H1140 H 0.76010 0.26265 0.55380
 C1141 C 0.76271 0.25998 -0.03993
 C1142 C 0.75281 0.24884 -0.04729
 C1143 C 0.74311 0.23895 -0.03783
 C1144 C 0.74267 0.24092 -0.02053
 C1145 C 0.75334 0.25149 -0.01291
 C1146 C 0.76382 0.26056 -0.02262
 C1147 C 0.77519 0.26998 -0.01481
 C1148 C 0.77566 0.27115 0.00222
 C1149 C 0.76436 0.26348 0.01208
 C1150 C 0.75330 0.25329 0.00444
 C1151 C 0.73160 0.23289 -0.01069
 C1152 C 0.73130 0.23493 0.00625
 C1153 C 0.74199 0.24513 0.01405
 C1154 C 0.74159 0.24744 0.03122
 C1155 C 0.75265 0.25736 0.03865
 C1156 C 0.76390 0.26559 0.02936
 H1157 H 0.78400 0.27636 -0.02182
 H1158 H 0.78494 0.27824 0.00752
 H1159 H 0.72279 0.22523 -0.01599
 H1160 H 0.72258 0.22836 0.01319
 H1161 H 0.75245 0.24804 -0.06057
 H1162 H 0.75194 0.25932 0.05178
 C1163 C 0.76042 0.76329 0.46422
 C1164 C 0.74851 0.75574 0.45531
 C1165 C 0.73768 0.74565 0.46296
 C1166 C 0.73885 0.74268 0.47999
 C1167 C 0.75106 0.74992 0.48915
 C1168 C 0.76196 0.76015 0.48124
 C1169 C 0.77421 0.76685 0.49053
 C1170 C 0.77529 0.76421 0.50733
 C1171 C 0.76445 0.75436 0.51546
 C1172 C 0.75232 0.74700 0.50628
 C1173 C 0.72818 0.73258 0.48809
 C1174 C 0.72937 0.72979 0.50488
 C1175 C 0.74142 0.73677 0.51421
 C1176 C 0.74275 0.73401 0.53131
 C1177 C 0.75449 0.74179 0.54024
 C1178 C 0.76537 0.75176 0.53256
 H1179 H 0.78317 0.77418 0.48492
 H1180 H 0.78474 0.77001 0.51387
 H1181 H 0.71878 0.72673 0.48151
 H1182 H 0.72063 0.72219 0.51050
 H1183 H 0.74723 0.75826 0.44233
 H1184 H 0.75554 0.73962 0.55332
 C1185 C 0.96444 0.25657 0.23651
 C1186 C 0.95655 0.24586 0.24671
 C1187 C 0.96474 0.23468 0.25590
 C1188 C 0.98131 0.23356 0.25430
 C1189 C 0.98950 0.24427 0.24398
 C1190 C 0.98106 0.25578 0.23500
 C1191 C 0.98945 0.26613 0.22470
 C1192 C 1.00583 0.26586 0.22403
 C1193 C 1.01447 0.25508 0.23345
 C1194 C 1.00622 0.24376 0.24300
 C1195 C 0.98988 0.22207 0.26283
 C1196 C 1.00623 0.22138 0.26162
 C1197 C 1.01466 0.23215 0.25183
 C1198 C 1.03133 0.23188 0.25092
 C1199 C 1.03928 0.24353 0.24198
 C1200 C 1.03115 0.25525 0.23349
 H1201 H 0.98344 0.27459 0.21707
 H1202 H 1.01167 0.27413 0.21593
 H1203 H 0.98400 0.21346 0.27052
 H1204 H 1.01222 0.21246 0.26870
 H1205 H 0.94392 0.24695 0.24840
 H1206 H 1.05206 0.24362 0.24185
 C1207 C 0.47049 0.26483 0.74309
 C1208 C 0.46247 0.25386 0.75290
 C1209 C 0.47055 0.24303 0.76267
 C1210 C 0.48722 0.24352 0.76318
 C1211 C 0.49556 0.25401 0.75275
 C1212 C 0.48721 0.26464 0.74258
 C1213 C 0.49579 0.27455 0.73196
 C1214 C 0.51218 0.27417 0.73148
 C1215 C 0.52067 0.26366 0.74137
 C1216 C 0.51231 0.25366 0.75230
 C1217 C 0.49576 0.23389 0.77397
 C1218 C 0.51213 0.23365 0.77363
 C1219 C 0.52064 0.24303 0.76248
 C1220 C 0.53727 0.24214 0.76135
 C1221 C 0.54534 0.25231 0.75073
 C1222 C 0.53731 0.26285 0.74059
 H1223 H 0.48994 0.28254 0.72369
 H1224 H 0.51814 0.28220 0.72320
 H1225 H 0.48986 0.22648 0.78290
 H1226 H 0.51807 0.22603 0.78224
 H1227 H 0.44970 0.25365 0.75283
 H1228 H 0.55803 0.25130 0.74952
 C1229 C 0.03525 0.23520 0.74007
 C1230 C 0.04389 0.24510 0.75047
 C1231 C 0.03642 0.25560 0.76114
 C1232 C 0.01981 0.25691 0.76086
 C1233 C 0.01085 0.24680 0.75065
 C1234 C 0.01855 0.23593 0.74018
 C1235 C 0.00933 0.22623 0.72999
 C1236 C -0.00703 0.22625 0.73107
 C1237 C -0.01486 0.23652 0.74182
 C1238 C -0.00588 0.24741 0.75109
 C1239 C 0.01192 0.26806 0.77057
 C1240 C -0.00444 0.26895 0.77065
 C1241 C -0.01359 0.25879 0.76093
 C1242 C -0.03027 0.25957 0.76092
 C1243 C -0.03892 0.24813 0.75244
 C1244 C -0.03146 0.23641 0.74328
 H1245 H 0.01463 0.21843 0.72110
 H1246 H -0.01353 0.21835 0.72314
 H1247 H 0.01833 0.27633 0.77815
 H1248 H -0.00982 0.27750 0.77869
 H1249 H 0.05660 0.24397 0.75096
 H1250 H -0.05169 0.24836 0.75294
 C1251 C 0.53808 0.23696 0.24146
 C1252 C 0.54496 0.24862 0.25125
 C1253 C 0.53589 0.26037 0.25864
 C1254 C 0.51946 0.26086 0.25561
 C1255 C 0.51228 0.24902 0.24585
 C1256 C 0.52163 0.23709 0.23865
 C1257 C 0.51431 0.22577 0.22862
 C1258 C 0.49805 0.22568 0.22638
 C1259 C 0.48844 0.23689 0.23412
 C1260 C 0.49569 0.24900 0.24348
 C1261 C 0.51002 0.27295 0.26201
 C1262 C 0.49379 0.27289 0.25977
 C1263 C 0.48637 0.26098 0.25064
 C1264 C 0.46983 0.26064 0.24864
 C1265 C 0.46282 0.24840 0.23984
 C1266 C 0.47179 0.23650 0.23258
 H1267 H 0.52111 0.21685 0.22236
 H1268 H 0.49312 0.21678 0.21842
 H1269 H 0.51507 0.28264 0.26883
 H1270 H 0.48713 0.28226 0.26543
 H1271 H 0.55748 0.24808 0.25379
 H1272 H 0.45009 0.24806 0.23878
 C1273 C 1.03033 0.73828 0.75632
 C1274 C 1.03771 0.74837 0.74507
 C1275 C 1.02895 0.75822 0.73480
 C1276 C 1.01234 0.75872 0.73650
 C1277 C 1.00469 0.74800 0.74724
 C1278 C 1.01369 0.73724 0.75654
 C1279 C 1.00583 0.72566 0.76578
 C1280 C 0.98949 0.72542 0.76689
 C1281 C 0.98040 0.73714 0.75932
 C1282 C 0.98804 0.74827 0.74901
 C1283 C 1.00320 0.76987 0.72810
 C1284 C 0.98692 0.77045 0.73022
 C1285 C 0.97912 0.75988 0.74078
 C1286 C 0.96264 0.76060 0.74334
 C1287 C 0.95525 0.74951 0.75352
 C1288 C 0.96388 0.73796 0.76172
 H1289 H 1.01228 0.71654 0.77210
 H1290 H 0.98410 0.71601 0.77388
 H1291 H 1.00858 0.77855 0.72012
 H1292 H 0.98051 0.77928 0.72344
 H1293 H 1.05047 0.74877 0.74451
 H1294 H 0.94269 0.75044 0.75579
 C1295 C 0.53124 0.73027 0.25481
 C1296 C 0.53914 0.74265 0.24693
 C1297 C 0.53096 0.75508 0.23972
 C1298 C 0.51430 0.75491 0.23975
 C1299 C 0.50610 0.74280 0.24821
 C1300 C 0.51458 0.73049 0.25590
 C1301 C 0.50619 0.71899 0.26479
 C1302 C 0.48985 0.71960 0.26617
 C1303 C 0.48124 0.73172 0.25869
 C1304 C 0.48939 0.74320 0.24928
 C1305 C 0.50565 0.76646 0.23142
 C1306 C 0.48927 0.76658 0.23204
 C1307 C 0.48092 0.75532 0.24129
 C1308 C 0.46430 0.75582 0.24269
 C1309 C 0.45644 0.74443 0.25206
 C1310 C 0.46468 0.73270 0.26043
 H1311 H 0.51220 0.70954 0.27103
 H1312 H 0.48399 0.71041 0.27312
 H1313 H 0.51147 0.77546 0.22417
 H1314 H 0.48324 0.77565 0.22525
 H1315 H 0.55192 0.74274 0.24666
 H1316 H 0.44379 0.74533 0.25373
 C1317 C -0.03651 0.74370 0.23243
 C1318 C -0.04447 0.75428 0.24258
 C1319 C -0.03635 0.76471 0.25282
 C1320 C -0.01968 0.76407 0.25356
 C1321 C -0.01142 0.75320 0.24356
 C1322 C -0.01984 0.74312 0.23280
 C1323 C -0.01139 0.73269 0.22276
 C1324 C 0.00498 0.73213 0.22328
 C1325 C 0.01358 0.74158 0.23427
 C1326 C 0.00532 0.75241 0.24432
 C1327 C -0.01108 0.77394 0.26410
 C1328 C 0.00527 0.77326 0.26474
 C1329 C 0.01371 0.76233 0.25526
 C1330 C 0.03033 0.76110 0.25640
 C1331 C 0.03830 0.75046 0.24627
 C1332 C 0.03022 0.74054 0.23544
 H1333 H -0.01735 0.72479 0.21440
 H1334 H 0.01081 0.72416 0.21493
 H1335 H -0.01691 0.78224 0.27210
 H1336 H 0.01122 0.78146 0.27278
 H1337 H -0.05721 0.75498 0.24185
 H1338 H 0.05095 0.74923 0.24757
 C1339 C 0.53463 0.74507 0.73858
 C1340 C 0.54334 0.75394 0.74986
 C1341 C 0.53593 0.76330 0.76170
 C1342 C 0.51929 0.76431 0.76202
 C1343 C 0.51030 0.75543 0.75067
 C1344 C 0.51797 0.74606 0.73869
 C1345 C 0.50875 0.73787 0.72717
 C1346 C 0.49242 0.73757 0.72843
 C1347 C 0.48466 0.74587 0.74093
 C1348 C 0.49359 0.75547 0.75167
 C1349 C 0.51139 0.77396 0.77338
 C1350 C 0.49500 0.77412 0.77424
 C1351 C 0.48588 0.76462 0.76380
 C1352 C 0.46925 0.76398 0.76512
 C1353 C 0.46066 0.75416 0.75464
 C1354 C 0.46817 0.74477 0.74296
 H1355 H 0.51407 0.73147 0.71714
 H1356 H 0.48590 0.73080 0.71945
 H1357 H 0.51782 0.78148 0.78174
 H1358 H 0.48953 0.78169 0.78326
 H1359 H 0.55605 0.75271 0.75017
 H1360 H 0.44802 0.75302 0.75636
 C1361 C 0.42014 0.29207 0.28580
 C1362 C 0.42702 0.30293 0.27546
 C1363 C 0.42146 0.31817 0.27380
 C1364 C 0.40815 0.32234 0.28302
 C1365 C 0.40072 0.31132 0.29367
 C1366 C 0.40699 0.29602 0.29525
 O1367 O 0.42685 0.27802 0.28499
 C1368 C 0.43818 0.28008 0.27390
 C1369 C 0.43881 0.29513 0.26772
 C1370 C 0.44941 0.29971 0.25554
 C1371 C 0.45980 0.28830 0.24948
 C1372 C 0.45938 0.27274 0.25570
 C1373 C 0.44839 0.26858 0.26806
 H1374 H 0.42701 0.32648 0.26551
 H1375 H 0.40361 0.33414 0.28176
 H1376 H 0.40145 0.28729 0.30307
 H1377 H 0.44954 0.31158 0.25073
 H1378 H 0.46805 0.29146 0.23984
 H1379 H 0.44772 0.25669 0.27278
 C1380 C 0.42134 0.79954 0.80033
 C1381 C 0.42899 0.79021 0.81149
 C1382 C 0.42377 0.78837 0.82757
 C1383 C 0.41007 0.79642 0.83231
 C1384 C 0.40192 0.80627 0.82104
 C1385 C 0.40793 0.80790 0.80483
 O1386 O 0.42752 0.79887 0.78537
 C1387 C 0.43938 0.78892 0.78712
 C1388 C 0.44088 0.78336 0.80290
 C1389 C 0.45213 0.77228 0.80728
 C1390 C 0.46203 0.76654 0.79483
 C1391 C 0.46044 0.77188 0.77843
 C1392 C 0.44903 0.78332 0.77457
 H1393 H 0.42985 0.78077 0.83609
 H1394 H 0.40598 0.79495 0.84479
 H1395 H 0.40208 0.81488 0.79562
 H1396 H 0.45297 0.76792 0.81973
 H1397 H 0.47055 0.75754 0.79777
 H1398 H 0.44736 0.78726 0.76205
 C1399 C -0.07766 0.29542 0.79717
 C1400 C -0.06808 0.30586 0.78888
 C1401 C -0.07111 0.32187 0.78813
 C1402 C -0.08472 0.32733 0.79601
 C1403 C -0.09502 0.31680 0.80437
 C1404 C -0.09122 0.30063 0.80521
 O1405 O -0.07308 0.28059 0.79559
 C1406 C -0.06040 0.28171 0.78606
 C1407 C -0.05685 0.29693 0.78161
 C1408 C -0.04468 0.30073 0.77084
 C1409 C -0.03580 0.28833 0.76435
 C1410 C -0.03907 0.27254 0.76889
 C1411 C -0.05158 0.26921 0.77991
 H1412 H -0.06345 0.32983 0.78143
 H1413 H -0.08730 0.33976 0.79538
 H1414 H -0.09896 0.29225 0.81122
 H1415 H -0.04236 0.31278 0.76723
 H1416 H -0.02656 0.29096 0.75556
 H1417 H -0.05457 0.25724 0.78326
 C1418 C -0.08548 0.79652 0.29068
 C1419 C -0.07657 0.80776 0.28273
 C1420 C -0.08044 0.82360 0.28277
 C1421 C -0.09413 0.82805 0.29121
 C1422 C -0.10363 0.81671 0.29944
 C1423 C -0.09908 0.80072 0.29933
 O1424 O -0.08014 0.78202 0.28843
 C1425 C -0.06760 0.78419 0.27886
 C1426 C -0.06489 0.79973 0.27506
 C1427 C -0.05283 0.80461 0.26462
 C1428 C -0.04320 0.79298 0.25772
 C1429 C -0.04570 0.77687 0.26146
 C1430 C -0.05811 0.77243 0.27219
 H1431 H -0.07331 0.83221 0.27631
 H1432 H -0.09731 0.84036 0.29128
 H1433 H -0.10619 0.79175 0.30526
 H1434 H -0.05110 0.81690 0.26161
 H1435 H -0.03400 0.79644 0.24918
 H1436 H -0.06049 0.76018 0.27491
 C1437 C 0.58032 0.69698 0.29074
 C1438 C 0.57297 0.68627 0.28066
 C1439 C 0.57810 0.67082 0.27913
 C1440 C 0.59129 0.66626 0.28836
 C1441 C 0.59904 0.67711 0.29890
 C1442 C 0.59334 0.69270 0.30006
 O1443 O 0.57400 0.71120 0.29011
 C1444 C 0.56238 0.70946 0.27941
 C1445 C 0.56118 0.69443 0.27326
 C1446 C 0.55004 0.69022 0.26153
 C1447 C 0.53985 0.70200 0.25582
 C1448 C 0.54098 0.71758 0.26196
 C1449 C 0.55239 0.72129 0.27395
 H1450 H 0.57222 0.66259 0.27105
 H1451 H 0.59538 0.65427 0.28734
 H1452 H 0.59903 0.70141 0.30771
 H1453 H 0.54937 0.67837 0.25674
 H1454 H 0.53133 0.69915 0.24641
 H1455 H 0.55364 0.73315 0.27863
 C1456 C 0.58672 0.20732 0.79554
 C1457 C 0.57687 0.19668 0.78799
 C1458 C 0.57989 0.18065 0.78761
 C1459 C 0.59367 0.17534 0.79525
 C1460 C 0.60408 0.18604 0.80314
 C1461 C 0.60042 0.20228 0.80340
 O1462 O 0.58201 0.22211 0.79385
 C1463 C 0.56892 0.22075 0.78505
 C1464 C 0.56524 0.20542 0.78121
 C1465 C 0.55236 0.20132 0.77158
 C1466 C 0.54295 0.21352 0.76556
 C1467 C 0.54647 0.22945 0.76931
 C1468 C 0.55967 0.23309 0.77921
 H1469 H 0.57202 0.17252 0.78149
 H1470 H 0.59615 0.16288 0.79505
 H1471 H 0.60819 0.21077 0.80910
 H1472 H 0.54985 0.18918 0.76852
 H1473 H 0.53314 0.21064 0.75762
 H1474 H 0.56282 0.24516 0.78193
 C1475 C 1.08018 0.70396 0.79066
 C1476 C 1.07016 0.71030 0.80213
 C1477 C 1.07252 0.70885 0.81891
 C1478 C 1.08580 0.70052 0.82413
 C1479 C 1.09649 0.69390 0.81260
 C1480 C 1.09351 0.69564 0.79557
 O1481 O 1.07583 0.70689 0.77530
 C1482 C 1.06278 0.71528 0.77716
 C1483 C 1.05884 0.71769 0.79336
 C1484 C 1.04588 0.72646 0.79820
 C1485 C 1.03655 0.73302 0.78583
 C1486 C 1.04016 0.73054 0.76900
 C1487 C 1.05357 0.72162 0.76462
 H1488 H 1.06444 0.71397 0.82769
 H1489 H 1.08762 0.69927 0.83718
 H1490 H 1.10139 0.69091 0.78638
 H1491 H 1.04316 0.72836 0.81103
 H1492 H 1.02659 0.74019 0.78933
 H1493 H 1.05674 0.71976 0.75189
 C1494 C 1.08005 0.20097 0.28974
 C1495 C 1.07283 0.18973 0.28018
 C1496 C 1.07812 0.17431 0.27933
 C1497 C 1.09142 0.17033 0.28864
 C1498 C 1.09909 0.18170 0.29862
 C1499 C 1.09317 0.19722 0.29925
 O1500 O 1.07365 0.21510 0.28823
 C1501 C 1.06213 0.21273 0.27751
 C1502 C 1.06107 0.19740 0.27224
 C1503 C 1.05015 0.19247 0.26058
 C1504 C 1.04002 0.20384 0.25399
 C1505 C 1.04099 0.21974 0.25914
 C1506 C 1.05219 0.22421 0.27111
 H1507 H 1.07235 0.16569 0.27161
 H1508 H 1.09570 0.15838 0.28806
 H1509 H 1.09889 0.20625 0.30648
 H1510 H 1.04965 0.18037 0.25649
 H1511 H 1.03167 0.20041 0.24461
 H1512 H 1.05334 0.23633 0.27501
 C1513 C 0.58682 0.29947 0.70825
 C1514 C 0.57833 0.29169 0.69637
 C1515 C 0.58291 0.29133 0.67999
 C1516 C 0.59689 0.29920 0.67569
 C1517 C 0.60585 0.30733 0.68770
 C1518 C 0.60059 0.30764 0.70419
 O1519 O 0.58098 0.29748 0.72325
 C1520 C 0.56853 0.28827 0.72078
 C1521 C 0.56634 0.28447 0.70452
 C1522 C 0.55447 0.27436 0.69924
 C1523 C 0.54455 0.26777 0.71123
 C1524 C 0.54667 0.27138 0.72807
 C1525 C 0.55880 0.28183 0.73289
 H1526 H 0.57613 0.28497 0.67090
 H1527 H 0.60073 0.29895 0.66301
 H1528 H 0.60735 0.31350 0.71365
 H1529 H 0.55313 0.27137 0.68641
 H1530 H 0.53549 0.25950 0.70751
 H1531 H 0.56087 0.28445 0.74572
 C1532 C 0.57840 0.79334 0.20600
 C1533 C 0.57048 0.80288 0.21683
 C1534 C 0.57480 0.81844 0.21962
 C1535 C 0.58787 0.82438 0.21095
 C1536 C 0.59626 0.81474 0.19973
 C1537 C 0.59131 0.79902 0.19717
 O1538 O 0.57285 0.77874 0.20562
 C1539 C 0.56115 0.77904 0.21644
 C1540 C 0.55917 0.79355 0.22362
 C1541 C 0.54792 0.79634 0.23571
 C1542 C 0.53840 0.78363 0.24064
 C1543 C 0.54026 0.76858 0.23342
 C1544 C 0.55181 0.76628 0.22115
 H1545 H 0.56846 0.82570 0.22829
 H1546 H 0.59143 0.83645 0.21301
 H1547 H 0.59757 0.79124 0.18896
 H1548 H 0.54669 0.80779 0.24133
 H1549 H 0.52977 0.78539 0.25028
 H1550 H 0.55363 0.75483 0.21567
 C1551 C 1.08035 0.29063 0.19898
 C1552 C 1.07168 0.30102 0.20822
 C1553 C 1.07594 0.31670 0.21014
 C1554 C 1.08979 0.32187 0.20234
 C1555 C 1.09902 0.31138 0.19282
 C1556 C 1.09407 0.29557 0.19094
 O1557 O 1.07475 0.27603 0.19953
 C1558 C 1.06229 0.27724 0.20934
 C1559 C 1.05988 0.29230 0.21494
 C1560 C 1.04799 0.29609 0.22602
 C1561 C 1.03827 0.28383 0.23165
 C1562 C 1.04053 0.26820 0.22609
 C1563 C 1.05271 0.26489 0.21474
 H1564 H 1.06902 0.32461 0.21763
 H1565 H 1.09334 0.33402 0.20383
 H1566 H 1.10101 0.28721 0.18403
 H1567 H 1.04651 0.30798 0.23046
 H1568 H 1.02923 0.28639 0.24065
 H1569 H 1.05491 0.25299 0.21061
 C1570 C 1.07507 0.79927 0.70257
 C1571 C 1.06548 0.79297 0.69067
 C1572 C 1.06789 0.79562 0.67403
 C1573 C 1.08079 0.80504 0.66945
 C1574 C 1.09106 0.81151 0.68147
 C1575 C 1.08797 0.80865 0.69831
 O1576 O 1.07100 0.79496 0.71766
 C1577 C 1.05859 0.78571 0.71522
 C1578 C 1.05473 0.78409 0.69892
 C1579 C 1.04251 0.77443 0.69357
 C1580 C 1.03394 0.76610 0.70552
 C1581 C 1.03759 0.76772 0.72242
 C1582 C 1.05014 0.77766 0.72730
 H1583 H 1.06020 0.79050 0.66488
 H1584 H 1.08276 0.80714 0.65652
 H1585 H 1.09557 0.81318 0.70785
 H1586 H 1.03985 0.77316 0.68065
 H1587 H 1.02458 0.75824 0.70167
 H1588 H 1.05332 0.77890 0.74010
 C1589 C 0.41914 0.71000 0.70797
 C1590 C 0.42862 0.69936 0.71587
 C1591 C 0.42534 0.68333 0.71633
 C1592 C 0.41169 0.67805 0.70833
 C1593 C 0.40180 0.68878 0.69997
 C1594 C 0.40568 0.70497 0.69969
 O1595 O 0.42390 0.72479 0.70973
 C1596 C 0.43671 0.72346 0.71891
 C1597 C 0.44015 0.70813 0.72291
 C1598 C 0.45281 0.70404 0.73277
 C1599 C 0.46224 0.71627 0.73887
 C1600 C 0.45882 0.73217 0.73508
 C1601 C 0.44587 0.73582 0.72495
 H1602 H 0.43289 0.67522 0.72280
 H1603 H 0.40886 0.66563 0.70860
 H1604 H 0.39819 0.71346 0.69368
 H1605 H 0.45520 0.69191 0.73586
 H1606 H 0.47200 0.71345 0.74686
 H1607 H 0.44291 0.74789 0.72213
 C1608 C 0.42352 0.20169 0.19658
 C1609 C 0.43195 0.19109 0.20576
 C1610 C 0.42730 0.17551 0.20768
 C1611 C 0.41331 0.17070 0.20002
 C1612 C 0.40419 0.18147 0.19073
 C1613 C 0.40959 0.19714 0.18877
 O1614 O 0.42942 0.21616 0.19720
 C1615 C 0.44178 0.21467 0.20701
 C1616 C 0.44386 0.19956 0.21259
 C1617 C 0.45535 0.19561 0.22400
 C1618 C 0.46496 0.20777 0.23005
 C1619 C 0.46308 0.22346 0.22447
 C1620 C 0.45137 0.22687 0.21266
 H1621 H 0.43403 0.16742 0.21510
 H1622 H 0.40950 0.15863 0.20155
 H1623 H 0.40281 0.20575 0.18208
 H1624 H 0.45649 0.18371 0.22853
 H1625 H 0.47349 0.20510 0.23949
 H1626 H 0.44936 0.23880 0.20855
 C1627 C -0.08547 0.70341 0.20428
 C1628 C -0.07794 0.71122 0.19167
 C1629 C -0.08322 0.71078 0.17556
 C1630 C -0.09694 0.70209 0.17232
 C1631 C -0.10497 0.69393 0.18507
 C1632 C -0.09898 0.69439 0.20125
 O1633 O -0.07911 0.70627 0.21886
 C1634 C -0.06732 0.71607 0.21536
 C1635 C -0.06606 0.71940 0.19888
 C1636 C -0.05502 0.72997 0.19257
 C1637 C -0.04495 0.73751 0.20372
 C1638 C -0.04608 0.73436 0.22077
 C1639 C -0.05742 0.72346 0.22666
 H1640 H -0.07723 0.71721 0.16590
 H1641 H -0.10137 0.70180 0.15987
 H1642 H -0.10506 0.68854 0.21126
 H1643 H -0.05443 0.73257 0.17957
 H1644 H -0.03653 0.74610 0.19919
 H1645 H -0.05873 0.72117 0.23967
 C1646 C -0.08090 0.20247 0.70804
 C1647 C -0.07283 0.19178 0.71743
 C1648 C -0.07716 0.17600 0.71839
 C1649 C -0.09029 0.17106 0.70922
 C1650 C -0.09868 0.18186 0.69930
 C1651 C -0.09384 0.19781 0.69877
 O1652 O -0.07519 0.21698 0.70912
 C1653 C -0.06321 0.21543 0.71939
 C1654 C -0.06120 0.20023 0.72479
 C1655 C -0.04942 0.19605 0.73577
 C1656 C -0.03941 0.20804 0.74149
 C1657 C -0.04137 0.22379 0.73616
 C1658 C -0.05345 0.22751 0.72496
 H1659 H -0.07071 0.16780 0.72595
 H1660 H -0.09378 0.15881 0.70973
 H1661 H -0.10009 0.20644 0.69157
 H1662 H -0.04809 0.18404 0.73992
 H1663 H -0.03031 0.20517 0.75027
 H1664 H -0.05527 0.23948 0.72088
 C1665 C 0.29537 0.41532 0.29482
 C1666 C 0.30678 0.42401 0.28684
 C1667 C 0.32263 0.42013 0.28711
 C1668 C 0.32688 0.40648 0.29560
 C1669 C 0.31534 0.39700 0.30355
 C1670 C 0.29938 0.40172 0.30351
 O1671 O 0.28090 0.42062 0.29219
 C1672 C 0.28327 0.43285 0.28230
 C1673 C 0.29890 0.43538 0.27864
 C1674 C 0.30400 0.44689 0.26767
 C1675 C 0.29250 0.45627 0.26026
 C1676 C 0.27632 0.45416 0.26412
 C1677 C 0.27165 0.44218 0.27521
 H1678 H 0.33136 0.42710 0.28064
 H1679 H 0.33916 0.40310 0.29562
 H1680 H 0.29028 0.39456 0.30917
 H1681 H 0.31635 0.44838 0.26470
 H1682 H 0.29612 0.46513 0.25146
 H1683 H 0.25934 0.44010 0.27804
 C1684 C 0.30083 -0.08315 0.79304
 C1685 C 0.31057 -0.07770 0.78078
 C1686 C 0.32516 -0.08434 0.77747
 C1687 C 0.32985 -0.09716 0.78713
 C1688 C 0.32003 -0.10305 0.80000
 C1689 C 0.30534 -0.09566 0.80298
 O1690 O 0.28706 -0.07585 0.79360
 C1691 C 0.28815 -0.06553 0.78144
 C1692 C 0.30235 -0.06608 0.77325
 C1693 C 0.30574 -0.05661 0.75974
 C1694 C 0.29395 -0.04630 0.75436
 C1695 C 0.27916 -0.04580 0.76246
 C1696 C 0.27627 -0.05547 0.77625
 H1697 H 0.33257 -0.07997 0.76762
 H1698 H 0.34118 -0.10234 0.78451
 H1699 H 0.29723 -0.09978 0.81232
 H1700 H 0.31693 -0.05734 0.75338
 H1701 H 0.29610 -0.03904 0.74365
 H1702 H 0.26495 -0.05544 0.78242
 C1703 C 0.79495 0.42136 0.79115
 C1704 C 0.80462 0.42928 0.78037
 C1705 C 0.82002 0.42475 0.77724
 C1706 C 0.82567 0.41144 0.78547
 C1707 C 0.81597 0.40296 0.79676
 C1708 C 0.80038 0.40828 0.79969
 O1709 O 0.78046 0.42713 0.79180
 C1710 C 0.78102 0.43898 0.78121
 C1711 C 0.79556 0.44086 0.77394
 C1712 C 0.79865 0.45232 0.76215
 C1713 C 0.78619 0.46218 0.75762
 C1714 C 0.77108 0.46034 0.76485
 C1715 C 0.76846 0.44858 0.77681
 H1716 H 0.82738 0.43111 0.76860
 H1717 H 0.83767 0.40794 0.78300
 H1718 H 0.79238 0.40219 0.80790
 H1719 H 0.81015 0.45348 0.75649
 H1720 H 0.78816 0.47106 0.74829
 H1721 H 0.75693 0.44684 0.78228
 C1722 C 0.79717 -0.08083 0.28829
 C1723 C 0.78936 -0.07146 0.29932
 C1724 C 0.78957 -0.07417 0.31611
 C1725 C 0.79813 -0.08713 0.32180
 C1726 C 0.80636 -0.09716 0.31072
 C1727 C 0.80585 -0.09373 0.29364
 O1728 O 0.79518 -0.07640 0.27280
 C1729 C 0.78590 -0.06394 0.27411
 C1730 C 0.78202 -0.06041 0.29010
 C1731 C 0.77220 -0.04801 0.29429
 C1732 C 0.76612 -0.03886 0.28148
 C1733 C 0.77003 -0.04220 0.26490
 C1734 C 0.77998 -0.05500 0.26117
 H1735 H 0.78328 -0.06663 0.32456
 H1736 H 0.79824 -0.08917 0.33489
 H1737 H 0.81174 -0.10094 0.28462
 H1738 H 0.76921 -0.04554 0.30696
 H1739 H 0.75826 -0.02926 0.28439
 H1740 H 0.78293 -0.05790 0.24859
 C1741 C 0.29292 0.58335 0.70139
 C1742 C 0.30375 0.57437 0.70968
 C1743 C 0.31970 0.57800 0.71006
 C1744 C 0.32469 0.59163 0.70186
 C1745 C 0.31376 0.60136 0.69353
 C1746 C 0.29767 0.59694 0.69299
 O1747 O 0.27821 0.57825 0.70338
 C1748 C 0.27983 0.56585 0.71316
 C1749 C 0.29523 0.56301 0.71737
 C1750 C 0.29955 0.55127 0.72833
 C1751 C 0.28750 0.54204 0.73524
 C1752 C 0.27153 0.54453 0.73091
 C1753 C 0.26766 0.55667 0.71974
 H1754 H 0.32796 0.57081 0.71677
 H1755 H 0.33707 0.59472 0.70225
 H1756 H 0.28902 0.60427 0.68700
 H1757 H 0.31173 0.54951 0.73173
 H1758 H 0.29054 0.53311 0.74414
 H1759 H 0.25553 0.55907 0.71656
 C1760 C 0.29004 1.08099 0.20436
 C1761 C 0.30044 1.07147 0.21256
 C1762 C 0.31647 1.07472 0.21348
 C1763 C 0.32202 1.08839 0.20569
 C1764 C 0.31157 1.09840 0.19708
 C1765 C 0.29535 1.09452 0.19628
 O1766 O 0.27516 1.07622 0.20572
 C1767 C 0.27621 1.06339 0.21496
 C1768 C 0.29144 1.05994 0.21939
 C1769 C 0.29523 1.04733 0.22947
 C1770 C 0.28279 1.03796 0.23535
 C1771 C 0.26698 1.04133 0.23109
 C1772 C 0.26365 1.05424 0.22073
 H1773 H 0.32439 1.06714 0.22017
 H1774 H 0.33447 1.09115 0.20634
 H1775 H 0.28705 1.10207 0.19005
 H1776 H 0.30729 1.04496 0.23292
 H1777 H 0.28539 1.02829 0.24355
 H1778 H 0.25165 1.05722 0.21758
 C1779 C 0.80235 0.57851 0.20952
 C1780 C 0.79510 0.56872 0.19840
 C1781 C 0.79661 0.57057 0.18156
 C1782 C 0.80572 0.58321 0.17587
 C1783 C 0.81296 0.59392 0.18698
 C1784 C 0.81144 0.59130 0.20411
 O1785 O 0.79916 0.57469 0.22501
 C1786 C 0.78965 0.56229 0.22357
 C1787 C 0.78674 0.55827 0.20752
 C1788 C 0.77654 0.54617 0.20309
 C1789 C 0.76914 0.53774 0.21575
 C1790 C 0.77235 0.54121 0.23245
 C1791 C 0.78261 0.55384 0.23640
 H1792 H 0.79085 0.56262 0.17308
 H1793 H 0.80692 0.58465 0.16275
 H1794 H 0.81669 0.59921 0.21297
 H1795 H 0.77418 0.54348 0.19035
 H1796 H 0.76090 0.52846 0.21258
 H1797 H 0.78500 0.55697 0.24903
 C1798 C 0.79534 1.08291 0.69911
 C1799 C 0.78654 1.07534 0.68734
 C1800 C 0.78646 1.07998 0.67099
 C1801 C 0.79574 1.09302 0.66659
 C1802 C 0.80491 1.10109 0.67849
 C1803 C 0.80478 1.09581 0.69498
 O1804 O 0.79328 1.07700 0.71406
 C1805 C 0.78297 1.06544 0.71166
 C1806 C 0.77851 1.06391 0.69551
 C1807 C 0.76746 1.05287 0.69032
 C1808 C 0.76069 1.04304 0.70228
 C1809 C 0.76510 1.04439 0.71900
 C1810 C 0.77639 1.05578 0.72374
 H1811 H 0.77936 1.07389 0.66196
 H1812 H 0.79577 1.09678 0.65390
 H1813 H 0.81143 1.10182 0.70442
 H1814 H 0.76400 1.05201 0.67758
 H1815 H 0.75182 1.03455 0.69862
 H1816 H 0.77975 1.05720 0.73647
 C1817 C 0.70657 0.57980 0.30016
 C1818 C 0.71522 0.57254 0.31220
 C1819 C 0.71491 0.57734 0.32850
 C1820 C 0.70538 0.59022 0.33253
 C1821 C 0.69637 0.59799 0.32033
 C1822 C 0.69688 0.59253 0.30392
 O1823 O 0.70903 0.57381 0.28533
 C1824 C 0.71945 0.56253 0.28808
 C1825 C 0.72360 0.56123 0.30434
 C1826 C 0.73469 0.55048 0.30987
 C1827 C 0.74185 0.54071 0.29815
 C1828 C 0.73779 0.54188 0.28133
 C1829 C 0.72644 0.55296 0.27624
 H1830 H 0.72191 0.57152 0.33775
 H1831 H 0.70506 0.59412 0.34517
 H1832 H 0.69036 0.59832 0.29427
 H1833 H 0.73789 0.54979 0.32270
 H1834 H 0.75072 0.53243 0.30207
 H1835 H 0.72334 0.55421 0.26342
 C1836 C 0.70206 1.08026 0.79157
 C1837 C 0.71019 1.07125 0.80265
 C1838 C 0.70978 1.07404 0.81942
 C1839 C 0.70072 1.08670 0.82503
 C1840 C 0.69222 1.09641 0.81389
 C1841 C 0.69288 1.09287 0.79685
 O1842 O 0.70438 1.07587 0.77611
 C1843 C 0.71420 1.06384 0.77750
 C1844 C 0.71811 1.06053 0.79350
 C1845 C 0.72855 1.04866 0.79775
 C1846 C 0.73524 1.03985 0.78497
 C1847 C 0.73132 1.04297 0.76838
 C1848 C 0.72069 1.05519 0.76460
 H1849 H 0.71632 1.06680 0.82791
 H1850 H 0.70049 1.08880 0.83810
 H1851 H 0.68679 1.09984 0.78779
 H1852 H 0.73157 1.04639 0.81042
 H1853 H 0.74359 1.03070 0.78792
 H1854 H 0.71769 1.05794 0.75202
 C1855 C 0.20380 0.58552 0.79349
 C1856 C 0.19261 0.57703 0.78505
 C1857 C 0.17687 0.58136 0.78448
 C1858 C 0.17249 0.59508 0.79283
 C1859 C 0.18379 0.60420 0.80151
 C1860 C 0.19967 0.59917 0.80200
 O1861 O 0.21822 0.57972 0.79184
 C1862 C 0.21606 0.56733 0.78216
 C1863 C 0.20060 0.56516 0.77767
 C1864 C 0.19579 0.55333 0.76699
 C1865 C 0.20742 0.54338 0.76058
 C1866 C 0.22345 0.54533 0.76503
 C1867 C 0.22780 0.55750 0.77600
 H1868 H 0.16831 0.57455 0.77767
 H1869 H 0.16026 0.59858 0.79246
 H1870 H 0.20862 0.60595 0.80830
 H1871 H 0.18358 0.55203 0.76344
 H1872 H 0.20404 0.53435 0.75188
 H1873 H 0.24000 0.55945 0.77931
 C1874 C 0.19971 1.08200 0.29390
 C1875 C 0.20662 1.07258 0.30554
 C1876 C 0.20667 1.07635 0.32215
 C1877 C 0.19930 1.09038 0.32696
 C1878 C 0.19200 1.10027 0.31520
 C1879 C 0.19218 1.09589 0.29843
 O1880 O 0.20161 1.07673 0.27869
 C1881 C 0.20988 1.06368 0.28075
 C1882 C 0.21320 1.06055 0.29695
 C1883 C 0.22224 1.04778 0.30180
 C1884 C 0.22827 1.03796 0.28944
 C1885 C 0.22514 1.04105 0.27265
 C1886 C 0.21573 1.05407 0.26829
 H1887 H 0.21232 1.06884 0.33108
 H1888 H 0.19922 1.09347 0.33984
 H1889 H 0.18700 1.10326 0.28908
 H1890 H 0.22489 1.04566 0.31459
 H1891 H 0.23580 1.02826 0.29286
 H1892 H 0.21350 1.05689 0.25555
 C1893 C 0.69542 0.42367 0.70902
 C1894 C 0.69925 0.43515 0.69778
 C1895 C 0.69563 0.43398 0.68123
 C1896 C 0.68793 0.42030 0.67596
 C1897 C 0.68413 0.40805 0.68717
 C1898 C 0.68770 0.40992 0.70404
 O1899 O 0.70063 0.42684 0.72403
 C1900 C 0.70796 0.44058 0.72215
 C1901 C 0.70747 0.44612 0.70630
 C1902 C 0.71524 0.45973 0.70130
 C1903 C 0.72391 0.46799 0.71312
 C1904 C 0.72435 0.46276 0.72966
 C1905 C 0.71630 0.44878 0.73420
 H1906 H 0.69887 0.44315 0.67263
 H1907 H 0.68514 0.41923 0.66306
 H1908 H 0.68522 0.40072 0.71287
 H1909 H 0.71499 0.46361 0.68865
 H1910 H 0.73048 0.47834 0.70938
 H1911 H 0.71683 0.44429 0.74662
 C1912 C 0.70737 -0.08057 0.19557
 C1913 C 0.69693 -0.06994 0.20211
 C1914 C 0.68075 -0.07251 0.20241
 C1915 C 0.67511 -0.08671 0.19586
 C1916 C 0.68563 -0.09792 0.18913
 C1917 C 0.70199 -0.09465 0.18875
 O1918 O 0.72233 -0.07638 0.19759
 C1919 C 0.72130 -0.06282 0.20558
 C1920 C 0.70601 -0.05834 0.20859
 C1921 C 0.70221 -0.04503 0.21765
 C1922 C 0.71468 -0.03606 0.22400
 C1923 C 0.73055 -0.04047 0.22113
 C1924 C 0.73388 -0.05403 0.21173
 H1925 H 0.67278 -0.06408 0.20784
 H1926 H 0.66256 -0.08902 0.19618
 H1927 H 0.71033 -0.10313 0.18404
 H1928 H 0.69008 -0.04192 0.22014
 H1929 H 0.71202 -0.02595 0.23159
 H1930 H 0.74589 -0.05788 0.20978
 C1931 C 0.20776 0.41679 0.19994
 C1932 C 0.19683 0.42578 0.20812
 C1933 C 0.18088 0.42211 0.20842
 C1934 C 0.17600 0.40847 0.20020
 C1935 C 0.18706 0.39876 0.19196
 C1936 C 0.20316 0.40320 0.19158
 O1937 O 0.22244 0.42190 0.20195
 C1938 C 0.22072 0.43433 0.21165
 C1939 C 0.20528 0.43718 0.21579
 C1940 C 0.20086 0.44895 0.22668
 C1941 C 0.21287 0.45815 0.23363
 C1942 C 0.22888 0.45561 0.22938
 C1943 C 0.23283 0.44348 0.21824
 H1944 H 0.17252 0.42931 0.21505
 H1945 H 0.16362 0.40539 0.20048
 H1946 H 0.21194 0.39592 0.18569
 H1947 H 0.18865 0.45072 0.23005
 H1948 H 0.20976 0.46706 0.24254
 H1949 H 0.24498 0.44103 0.21512
 C1950 C 0.20434 -0.08464 0.70727
 C1951 C 0.19438 -0.07655 0.71754
 C1952 C 0.17867 -0.08072 0.71972
 C1953 C 0.17301 -0.09379 0.71101
 C1954 C 0.18306 -0.10245 0.70038
 C1955 C 0.19897 -0.09765 0.69846
 O1956 O 0.21896 -0.07902 0.70729
 C1957 C 0.21820 -0.06714 0.71781
 C1958 C 0.20341 -0.06511 0.72442
 C1959 C 0.20011 -0.05367 0.73613
 C1960 C 0.21259 -0.04399 0.74128
 C1961 C 0.22792 -0.04582 0.73457
 C1962 C 0.23073 -0.05758 0.72267
 H1963 H 0.17106 -0.07421 0.72792
 H1964 H 0.16078 -0.09708 0.71260
 H1965 H 0.20705 -0.10401 0.69065
 H1966 H 0.18843 -0.05243 0.74131
 H1967 H 0.21044 -0.03524 0.75066
 H1968 H 0.24239 -0.05938 0.71759
 C1969 C 0.29608 0.29552 0.41360
 C1970 C 0.30687 0.28734 0.42277
 C1971 C 0.32277 0.28674 0.41872
 C1972 C 0.32775 0.29478 0.40457
 C1973 C 0.31686 0.30319 0.39473
 C1974 C 0.30079 0.30369 0.39949
 O1975 O 0.28144 0.29409 0.41924
 C1976 C 0.28304 0.28480 0.43225
 C1977 C 0.29837 0.28035 0.43494
 C1978 C 0.30264 0.27012 0.44746
 C1979 C 0.29060 0.26415 0.45757
 C1980 C 0.27469 0.26860 0.45514
 C1981 C 0.27089 0.27909 0.44225
 H1982 H 0.33102 0.28015 0.42608
 H1983 H 0.34010 0.29438 0.40131
 H1984 H 0.29212 0.30979 0.39220
 H1985 H 0.31476 0.26660 0.44917
 H1986 H 0.29358 0.25581 0.46711
 H1987 H 0.25881 0.28243 0.43990
 C1988 C 0.29083 0.79635 -0.08184
 C1989 C 0.28120 0.80695 -0.07402
 C1990 C 0.28067 0.82276 -0.07831
 C1991 C 0.29043 0.82784 -0.09123
 C1992 C 0.30051 0.81716 -0.09949
 C1993 C 0.30076 0.80119 -0.09459
 O1994 O 0.28920 0.78178 -0.07621
 C1995 C 0.27832 0.78322 -0.06456
 C1996 C 0.27308 0.79840 -0.06269
 C1997 C 0.26156 0.80252 -0.05132
 C1998 C 0.25514 0.79050 -0.04152
 C1999 C 0.26035 0.77478 -0.04326
 C2000 C 0.27207 0.77107 -0.05498
 H2001 H 0.27293 0.83087 -0.07203
 H2002 H 0.29016 0.84012 -0.09471
 H2003 H 0.30814 0.79269 -0.10077
 H2004 H 0.25758 0.81454 -0.05011
 H2005 H 0.24604 0.79333 -0.03268
 H2006 H 0.27609 0.75911 -0.05660
 C2007 C 0.79732 0.29333 -0.09190
 C2008 C 0.78955 0.30415 -0.08234
 C2009 C 0.78953 0.32013 -0.08576
 C2010 C 0.79776 0.32522 -0.09972
 C2011 C 0.80586 0.31436 -0.10989
 C2012 C 0.80580 0.29818 -0.10578
 O2013 O 0.79533 0.27863 -0.08670
 C2014 C 0.78610 0.28025 -0.07360
 C2015 C 0.78229 0.29566 -0.07042
 C2016 C 0.77248 0.30012 -0.05759
 C2017 C 0.76633 0.28820 -0.04756
 C2018 C 0.77009 0.27220 -0.05046
 C2019 C 0.78006 0.26815 -0.06375
 H2020 H 0.78327 0.32838 -0.07805
 H2021 H 0.79783 0.33765 -0.10256
 H2022 H 0.81172 0.28960 -0.11340
 H2023 H 0.76953 0.31232 -0.05549
 H2024 H 0.75845 0.29136 -0.03762
 H2025 H 0.78291 0.25601 -0.06635
 C2026 C 0.80089 0.79586 0.41648
 C2027 C 0.79640 0.80647 0.42831
 C2028 C 0.80044 0.82229 0.42765
 C2029 C 0.80925 0.82748 0.41410
 C2030 C 0.81375 0.81691 0.40144
 C2031 C 0.80970 0.80077 0.40285
 O2032 O 0.79542 0.78143 0.41927
 C2033 C 0.78728 0.78301 0.43313
 C2034 C 0.78748 0.79813 0.43912
 C2035 C 0.77916 0.80261 0.45307
 C2036 C 0.77033 0.79102 0.46125
 C2037 C 0.77021 0.77524 0.45558
 C2038 C 0.77871 0.77124 0.44120
 H2039 H 0.79676 0.83041 0.43713
 H2040 H 0.81240 0.83980 0.41346
 H2041 H 0.81275 0.79240 0.39337
 H2042 H 0.77927 0.81466 0.45735
 H2043 H 0.76351 0.79429 0.47196
 H2044 H 0.77853 0.75936 0.43642
 C2045 C 0.70814 0.30036 0.58157
 C2046 C 0.71330 0.31132 0.57034
 C2047 C 0.70993 0.32723 0.57175
 C2048 C 0.70090 0.33203 0.58529
 C2049 C 0.69549 0.32097 0.59716
 C2050 C 0.69919 0.30486 0.59513
 O2051 O 0.71277 0.28586 0.57811
 C2052 C 0.72104 0.28771 0.56439
 C2053 C 0.72176 0.30307 0.55912
 C2054 C 0.73011 0.30766 0.54517
 C2055 C 0.73803 0.29593 0.53633
 C2056 C 0.73728 0.28000 0.54146
 C2057 C 0.72873 0.27588 0.55575
 H2058 H 0.71415 0.33566 0.56277
 H2059 H 0.69817 0.34438 0.58643
 H2060 H 0.69547 0.29605 0.60392
 H2061 H 0.73063 0.31984 0.54133
 H2062 H 0.74484 0.29919 0.52558
 H2063 H 0.72821 0.26383 0.56003
 C2064 C 0.70251 0.79697 1.08483
 C2065 C 0.69142 0.79063 1.07444
 C2066 C 0.67532 0.79206 1.07715
 C2067 C 0.67046 0.80021 1.09123
 C2068 C 0.68167 0.80679 1.10218
 C2069 C 0.69794 0.80531 1.09877
 O2070 O 0.71719 0.79360 1.08048
 C2071 C 0.71533 0.78497 1.06706
 C2072 C 0.69979 0.78284 1.06280
 C2073 C 0.69514 0.77371 1.04949
 C2074 C 0.70701 0.76642 1.04024
 C2075 C 0.72309 0.76842 1.04446
 C2076 C 0.72729 0.77781 1.05806
 H2077 H 0.66682 0.78684 1.06888
 H2078 H 0.65796 0.80132 1.09361
 H2079 H 0.70678 0.80994 1.10704
 H2080 H 0.68283 0.77205 1.04650
 H2081 H 0.70374 0.75900 1.02998
 H2082 H 0.73949 0.77925 1.06166
 C2083 C 0.21471 0.29799 1.08504
 C2084 C 0.20446 0.29153 1.07385
 C2085 C 0.18821 0.29180 1.07586
 C2086 C 0.18224 0.29894 1.09006
 C2087 C 0.19250 0.30567 1.10189
 C2088 C 0.20900 0.30531 1.09921
 O2089 O 0.22975 0.29590 1.08104
 C2090 C 0.22895 0.28796 1.06702
 C2091 C 0.21372 0.28504 1.06210
 C2092 C 0.21008 0.27647 1.04809
 C2093 C 0.22264 0.27061 1.03878
 C2094 C 0.23849 0.27350 1.04348
 C2095 C 0.24167 0.28226 1.05788
 H2096 H 0.18040 0.28654 1.06691
 H2097 H 0.16960 0.29923 1.09178
 H2098 H 0.21716 0.31014 1.10809
 H2099 H 0.19799 0.27416 1.04461
 H2100 H 0.22007 0.26355 1.02805
 H2101 H 0.25364 0.28434 1.06192
 C2102 C 0.20513 0.80473 0.58329
 C2103 C 0.19489 0.79700 0.57302
 C2104 C 0.17867 0.79847 0.57415
 C2105 C 0.17268 0.80812 0.58657
 C2106 C 0.18288 0.81595 0.59776
 C2107 C 0.19942 0.81435 0.59586
 O2108 O 0.22016 0.80162 0.58004
 C2109 C 0.21931 0.79165 0.56751
 C2110 C 0.20408 0.78840 0.56285
 C2111 C 0.20033 0.77789 0.55041
 C2112 C 0.21282 0.77053 0.54227
 C2113 C 0.22869 0.77405 0.54638
 C2114 C 0.23197 0.78461 0.55939
 H2115 H 0.17087 0.79231 0.56583
 H2116 H 0.16004 0.80921 0.58745
 H2117 H 0.20763 0.82010 0.60405
 H2118 H 0.18822 0.77534 0.54719
 H2119 H 0.21018 0.76212 0.53267
 H2120 H 0.24396 0.78730 0.56295
 C2121 C 0.29528 0.70880 0.58698
 C2122 C 0.30655 0.71666 0.57794
 C2123 C 0.32255 0.71560 0.58118
 C2124 C 0.32713 0.70629 0.59450
 C2125 C 0.31577 0.69828 0.60430
 C2126 C 0.29960 0.69933 0.60026
 O2127 O 0.28069 0.71187 0.58210
 C2128 C 0.28286 0.72189 0.56976
 C2129 C 0.29848 0.72520 0.56675
 C2130 C 0.30346 0.73580 0.55479
 C2131 C 0.29185 0.74324 0.54543
 C2132 C 0.27567 0.73985 0.54807
 C2133 C 0.27110 0.72912 0.56052
 H2134 H 0.33118 0.72192 0.57389
 H2135 H 0.33957 0.70547 0.59724
 H2136 H 0.29066 0.69353 0.60763
 H2137 H 0.31583 0.73834 0.55283
 H2138 H 0.29540 0.75164 0.53612
 H2139 H 0.25880 0.72652 0.56289
 C2140 C 0.30345 0.20858 1.08359
 C2141 C 0.29585 0.19827 1.07325
 C2142 C 0.29506 0.18220 1.07621
 C2143 C 0.30231 0.17650 1.09045
 C2144 C 0.31019 0.18686 1.10140
 C2145 C 0.31090 0.20314 1.09776
 O2146 O 0.30216 0.22349 1.07892
 C2147 C 0.29355 0.22255 1.06535
 C2148 C 0.28943 0.20737 1.06134
 C2149 C 0.27987 0.20371 1.04804
 C2150 C 0.27422 0.21622 1.03855
 C2151 C 0.27831 0.23199 1.04237
 C2152 C 0.28812 0.23518 1.05600
 H2153 H 0.28888 0.17434 1.06796
 H2154 H 0.30175 0.16401 1.09291
 H2155 H 0.31658 0.21139 1.10597
 H2156 H 0.27658 0.19169 1.04530
 H2157 H 0.26634 0.21369 1.02845
 H2158 H 0.29109 0.24713 1.05942
 C2159 C 0.79087 0.70325 1.08400
 C2160 C 0.78350 0.69260 1.07388
 C2161 C 0.78510 0.67646 1.07574
 C2162 C 0.79462 0.67107 1.08861
 C2163 C 0.80229 0.68181 1.09936
 C2164 C 0.80036 0.69818 1.09685
 O2165 O 0.78779 0.71809 1.08019
 C2166 C 0.77826 0.71677 1.06739
 C2167 C 0.77523 0.70142 1.06304
 C2168 C 0.76542 0.69736 1.05005
 C2169 C 0.75852 0.70966 1.04115
 C2170 C 0.76168 0.72555 1.04529
 C2171 C 0.77156 0.72915 1.05870
 H2172 H 0.77921 0.66829 1.06760
 H2173 H 0.79587 0.65852 1.09013
 H2174 H 0.80593 0.70681 1.10468
 H2175 H 0.76314 0.68520 1.04691
 H2176 H 0.75078 0.70687 1.03100
 H2177 H 0.77401 0.74121 1.06214
 C2178 C 0.80130 0.21121 0.58138
 C2179 C 0.81216 0.22045 0.57326
 C2180 C 0.82808 0.22056 0.57723
 C2181 C 0.83298 0.21081 0.59013
 C2182 C 0.82199 0.20114 0.59867
 C2183 C 0.80593 0.20132 0.59410
 O2184 O 0.78670 0.21312 0.57603
 C2185 C 0.78837 0.22377 0.56424
 C2186 C 0.80373 0.22861 0.56201
 C2187 C 0.80807 0.23985 0.55039
 C2188 C 0.79608 0.24635 0.54073
 C2189 C 0.78021 0.24155 0.54293
 C2190 C 0.77629 0.23013 0.55485
 H2191 H 0.83641 0.22797 0.57071
 H2192 H 0.84533 0.21075 0.59338
 H2193 H 0.79719 0.19429 0.60049
 H2194 H 0.82022 0.24352 0.54888
 H2195 H 0.79906 0.25519 0.53164
 H2196 H 0.76420 0.22641 0.55677
 C2197 C 0.70262 0.70967 0.41399
 C2198 C 0.69222 0.71953 0.42179
 C2199 C 0.67638 0.72034 0.41759
 C2200 C 0.67105 0.71058 0.40483
 C2201 C 0.68154 0.70022 0.39665
 C2202 C 0.69756 0.69980 0.40139
 O2203 O 0.71723 0.71086 0.41962
 C2204 C 0.71603 0.72168 0.43127
 C2205 C 0.70097 0.72734 0.43315
 C2206 C 0.69712 0.73880 0.44466
 C2207 C 0.70930 0.74465 0.45460
 C2208 C 0.72489 0.73899 0.45281
 C2209 C 0.72831 0.72740 0.44095
 H2210 H 0.66841 0.72822 0.42387
 H2211 H 0.65874 0.71101 0.40147
 H2212 H 0.70595 0.69222 0.39531
 H2213 H 0.68520 0.74310 0.44589
 H2214 H 0.70668 0.75363 0.46361
 H2215 H 0.74016 0.72301 0.43933
 C2216 C 0.70197 0.20484 -0.08349
 C2217 C 0.70805 0.19427 -0.07247
 C2218 C 0.70490 0.17826 -0.07320
 C2219 C 0.69531 0.17285 -0.08599
 C2220 C 0.68917 0.18340 -0.09790
 C2221 C 0.69241 0.19972 -0.09639
 O2222 O 0.70662 0.21954 -0.08068
 C2223 C 0.71590 0.21815 -0.06765
 C2224 C 0.71721 0.20290 -0.06222
 C2225 C 0.72682 0.19864 -0.04919
 C2226 C 0.73536 0.21061 -0.04134
 C2227 C 0.73387 0.22652 -0.04635
 C2228 C 0.72410 0.23029 -0.05984
 H2229 H 0.70977 0.17018 -0.06431
 H2230 H 0.69285 0.16039 -0.08661
 H2231 H 0.68806 0.20814 -0.10521
 H2232 H 0.72787 0.18651 -0.04534
 H2233 H 0.74313 0.20754 -0.03134
 H2234 H 0.72294 0.24229 -0.06410
 C2235 C 0.20330 0.69965 -0.08101
 C2236 C 0.19224 0.70456 -0.06979
 C2237 C 0.17639 0.70067 -0.07096
 C2238 C 0.17165 0.69157 -0.08440
 C2239 C 0.18266 0.68674 -0.09657
 C2240 C 0.19882 0.69064 -0.09462
 O2241 O 0.21772 0.70492 -0.07768
 C2242 C 0.21564 0.71336 -0.06411
 C2243 C 0.20023 0.71357 -0.05886
 C2244 C 0.19522 0.72227 -0.04540
 C2245 C 0.20659 0.73101 -0.03687
 C2246 C 0.22268 0.73059 -0.04162
 C2247 C 0.22721 0.72180 -0.05562
 H2248 H 0.16792 0.70465 -0.06192
 H2249 H 0.15931 0.68848 -0.08534
 H2250 H 0.20753 0.68729 -0.10367
 H2251 H 0.18295 0.72252 -0.04176
 H2252 H 0.20290 0.73814 -0.02655
 H2253 H 0.23934 0.72162 -0.05978
 C2254 C 0.20351 0.20846 0.41586
 C2255 C 0.19304 0.21771 0.42435
 C2256 C 0.17717 0.21861 0.42026
 C2257 C 0.17189 0.20962 0.40688
 C2258 C 0.18243 0.19990 0.39795
 C2259 C 0.19848 0.19929 0.40263
 O2260 O 0.21818 0.20968 0.42137
 C2261 C 0.21694 0.21989 0.43362
 C2262 C 0.20179 0.22512 0.43601
 C2263 C 0.19789 0.23608 0.44801
 C2264 C 0.21011 0.24196 0.45788
 C2265 C 0.22584 0.23682 0.45559
 C2266 C 0.22927 0.22563 0.44326
 H2267 H 0.16916 0.22605 0.42705
 H2268 H 0.15957 0.21017 0.40358
 H2269 H 0.20690 0.19220 0.39598
 H2270 H 0.18590 0.24011 0.44958
 H2271 H 0.20744 0.25072 0.46711
 H2272 H 0.24122 0.22169 0.44113
 C2273 C 0.29336 0.41863 0.70750
 C2274 C 0.30404 0.42730 0.71644
 C2275 C 0.31973 0.42299 0.71806
 C2276 C 0.32459 0.40912 0.71025
 C2277 C 0.31381 0.39993 0.70097
 C2278 C 0.29799 0.40491 0.69946
 O2279 O 0.27885 0.42433 0.70820
 C2280 C 0.28040 0.43687 0.71777
 C2281 C 0.29559 0.43925 0.72310
 C2282 C 0.29972 0.45133 0.73378
 C2283 C 0.28768 0.46128 0.73931
 C2284 C 0.27191 0.45901 0.73407
 C2285 C 0.26826 0.44664 0.72310
 H2286 H 0.32789 0.42992 0.72528
 H2287 H 0.33675 0.40556 0.71146
 H2288 H 0.28940 0.39804 0.69275
 H2289 H 0.31172 0.45283 0.73799
 H2290 H 0.29051 0.47051 0.74799
 H2291 H 0.25626 0.44449 0.71918
 C2292 C 0.28727 0.91656 0.20125
 C2293 C 0.29792 0.92656 0.20857
 C2294 C 0.31399 0.92358 0.20900
 C2295 C 0.31930 0.90961 0.20179
 C2296 C 0.30858 0.89895 0.19431
 C2297 C 0.29233 0.90265 0.19379
 O2298 O 0.27243 0.92118 0.20308
 C2299 C 0.27377 0.93434 0.21176
 C2300 C 0.28914 0.93814 0.21540
 C2301 C 0.29324 0.95090 0.22517
 C2302 C 0.28101 0.96010 0.23153
 C2303 C 0.26504 0.95656 0.22789
 C2304 C 0.26139 0.94344 0.21786
 H2305 H 0.32211 0.93156 0.21498
 H2306 H 0.33176 0.90703 0.20220
 H2307 H 0.28384 0.89463 0.18846
 H2308 H 0.30541 0.95344 0.22814
 H2309 H 0.28393 0.96978 0.23961
 H2310 H 0.24929 0.94023 0.21526
 C2311 C 0.79752 0.41827 0.20788
 C2312 C 0.79012 0.42781 0.19670
 C2313 C 0.79131 0.42558 0.17987
 C2314 C 0.80042 0.41295 0.17430
 C2315 C 0.80809 0.40274 0.18553
 C2316 C 0.80663 0.40560 0.20262
 O2317 O 0.79472 0.42235 0.22335
 C2318 C 0.78534 0.43472 0.22188
 C2319 C 0.78215 0.43851 0.20582
 C2320 C 0.77229 0.45082 0.20144
 C2321 C 0.76549 0.45963 0.21415
 C2322 C 0.76882 0.45614 0.23081
 C2323 C 0.77878 0.44339 0.23471
 H2324 H 0.78539 0.43327 0.17131
 H2325 H 0.80140 0.41121 0.16120
 H2326 H 0.81217 0.39810 0.21161
 H2327 H 0.76982 0.45347 0.18871
 H2328 H 0.75760 0.46915 0.21108
 H2329 H 0.78132 0.44036 0.24734
 C2330 C 0.79403 0.91972 0.69768
 C2331 C 0.78653 0.92786 0.68541
 C2332 C 0.78735 0.92344 0.66901
 C2333 C 0.79618 0.91003 0.66511
 C2334 C 0.80402 0.90139 0.67754
 C2335 C 0.80303 0.90646 0.69405
 O2336 O 0.79114 0.92542 0.71255
 C2337 C 0.78162 0.93742 0.70960
 C2338 C 0.77847 0.93946 0.69318
 C2339 C 0.76829 0.95098 0.68742
 C2340 C 0.76097 0.96070 0.69907
 C2341 C 0.76399 0.95877 0.71606
 C2342 C 0.77448 0.94696 0.72137
 H2343 H 0.78123 0.92994 0.65958
 H2344 H 0.79688 0.90641 0.65240
 H2345 H 0.80863 0.90000 0.70387
 H2346 H 0.76583 0.95223 0.67446
 H2347 H 0.75269 0.96949 0.69495
 H2348 H 0.77670 0.94505 0.73430
 C2349 C 0.70075 0.58460 0.71056
 C2350 C 0.68982 0.57795 0.72101
 C2351 C 0.67439 0.58320 0.72217
 C2352 C 0.67011 0.59598 0.71232
 C2353 C 0.68118 0.60316 0.70153
 C2354 C 0.69666 0.59720 0.70046
 O2355 O 0.71495 0.57829 0.71193
 C2356 C 0.71292 0.56744 0.72348
 C2357 C 0.69774 0.56673 0.72941
 C2358 C 0.69312 0.55657 0.74194
 C2359 C 0.70464 0.54671 0.74864
 C2360 C 0.72034 0.54723 0.74269
 C2361 C 0.72456 0.55777 0.72999
 H2362 H 0.66604 0.57784 0.73056
 H2363 H 0.65817 0.60033 0.71317
 H2364 H 0.70542 0.60260 0.69254
 H2365 H 0.68113 0.55636 0.74652
 H2366 H 0.70145 0.53878 0.75852
 H2367 H 0.73655 0.55848 0.72546
 C2368 C 0.71082 0.08230 0.19556
 C2369 C 0.71929 0.07487 0.18344
 C2370 C 0.71879 0.07949 0.16709
 C2371 C 0.70929 0.09238 0.16309
 C2372 C 0.70052 0.10036 0.17539
 C2373 C 0.70119 0.09506 0.19185
 O2374 O 0.71339 0.07642 0.21041
 C2375 C 0.72371 0.06505 0.20758
 C2376 C 0.72769 0.06359 0.19127
 C2377 C 0.73866 0.05273 0.18566
 C2378 C 0.74584 0.04300 0.19735
 C2379 C 0.74187 0.04426 0.21421
 C2380 C 0.73067 0.05548 0.21938
 H2381 H 0.72561 0.07351 0.15777
 H2382 H 0.70883 0.09614 0.15041
 H2383 H 0.69486 0.10100 0.20157
 H2384 H 0.74173 0.05191 0.17278
 H2385 H 0.75460 0.03459 0.19336
 H2386 H 0.72763 0.05679 0.23223
 C2387 C 0.20545 0.58016 0.20818
 C2388 C 0.19509 0.57180 0.21789
 C2389 C 0.17942 0.57607 0.21993
 C2390 C 0.17422 0.58955 0.21166
 C2391 C 0.18464 0.59831 0.20147
 C2392 C 0.20045 0.59343 0.19961
 O2393 O 0.22001 0.57457 0.20857
 C2394 C 0.21881 0.56239 0.21870
 C2395 C 0.20377 0.56012 0.22465
 C2396 C 0.19993 0.54828 0.23577
 C2397 C 0.21212 0.53846 0.24108
 C2398 C 0.22773 0.54069 0.23527
 C2399 C 0.23112 0.55281 0.22390
 H2400 H 0.17153 0.56939 0.22777
 H2401 H 0.16207 0.59309 0.21313
 H2402 H 0.20873 0.60003 0.19214
 H2403 H 0.18804 0.54682 0.24038
 H2404 H 0.20954 0.52935 0.25000
 H2405 H 0.24302 0.55488 0.21954
 C2406 C 0.20690 0.07824 0.70484
 C2407 C 0.19659 0.07094 0.71550
 C2408 C 0.18122 0.07601 0.71786
 C2409 C 0.17632 0.08924 0.70899
 C2410 C 0.18675 0.09707 0.69799
 C2411 C 0.20221 0.09130 0.69573
 O2412 O 0.22122 0.07204 0.70505
 C2413 C 0.21990 0.06060 0.71608
 C2414 C 0.20505 0.05940 0.72280
 C2415 C 0.20125 0.04864 0.73509
 C2416 C 0.21328 0.03879 0.74075
 C2417 C 0.22867 0.03985 0.73403
 C2418 C 0.23201 0.05091 0.72151
 H2419 H 0.17337 0.07017 0.72642
 H2420 H 0.16441 0.09339 0.71077
 H2421 H 0.21051 0.09716 0.68764
 H2422 H 0.18953 0.04807 0.74034
 H2423 H 0.21075 0.03055 0.75056
 H2424 H 0.24376 0.05212 0.71643
 C2425 C 0.30092 0.57743 0.29568
 C2426 C 0.29535 0.56683 0.30708
 C2427 C 0.29786 0.56850 0.32381
 C2428 C 0.30629 0.58176 0.32907
 C2429 C 0.31190 0.59313 0.31763
 C2430 C 0.30936 0.59074 0.30063
 O2431 O 0.29675 0.57386 0.28042
 C2432 C 0.28834 0.56077 0.28228
 C2433 C 0.28710 0.55602 0.29837
 C2434 C 0.27816 0.54309 0.30326
 C2435 C 0.27019 0.53467 0.29103
 C2436 C 0.27155 0.53908 0.27428
 C2437 C 0.28067 0.55242 0.26988
 H2438 H 0.29332 0.56000 0.33254
 H2439 H 0.30828 0.58317 0.34209
 H2440 H 0.31328 0.59923 0.29158
 H2441 H 0.27711 0.53980 0.31605
 H2442 H 0.26283 0.52479 0.29457
 H2443 H 0.28156 0.55626 0.25723
 C2444 C 0.29960 0.07887 0.79341
 C2445 C 0.31022 0.07172 0.78306
 C2446 C 0.32554 0.07717 0.78093
 C2447 C 0.33006 0.09064 0.78967
 C2448 C 0.31930 0.09836 0.80032
 C2449 C 0.30391 0.09220 0.80239
 O2450 O 0.28538 0.07233 0.79295
 C2451 C 0.28707 0.06083 0.78208
 C2452 C 0.30206 0.05993 0.77569
 C2453 C 0.30621 0.04928 0.76347
 C2454 C 0.29438 0.03921 0.75753
 C2455 C 0.27885 0.03993 0.76392
 C2456 C 0.27518 0.05088 0.77640
 H2457 H 0.33364 0.07143 0.77261
 H2458 H 0.34193 0.09509 0.78804
 H2459 H 0.29535 0.09796 0.81018
 H2460 H 0.31802 0.04899 0.75843
 H2461 H 0.29717 0.03110 0.74770
 H2462 H 0.26331 0.05189 0.78120
 C2463 C 0.79557 0.58368 0.79822
 C2464 C 0.78906 0.57468 0.81057
 C2465 C 0.79020 0.57871 0.82706
 C2466 C 0.79827 0.59263 0.83097
 C2467 C 0.80517 0.60206 0.81846
 C2468 C 0.80399 0.59738 0.80187
 O2469 O 0.79206 0.57845 0.78332
 C2470 C 0.78317 0.56588 0.78634
 C2471 C 0.78108 0.56300 0.80282
 C2472 C 0.77152 0.55090 0.80874
 C2473 C 0.76364 0.54153 0.79718
 C2474 C 0.76539 0.54447 0.78014
 C2475 C 0.77538 0.55675 0.77465
 H2476 H 0.78473 0.57160 0.83654
 H2477 H 0.79910 0.59611 0.84372
 H2478 H 0.80883 0.60457 0.79208
 H2479 H 0.76987 0.54902 0.82177
 H2480 H 0.75574 0.53236 0.80146
 H2481 H 0.77657 0.55944 0.76171
 C2482 C 0.80361 0.07936 0.28885
 C2483 C 0.79561 0.06956 0.29944
 C2484 C 0.79602 0.07135 0.31636
 C2485 C 0.80488 0.08388 0.32266
 C2486 C 0.81301 0.09448 0.31205
 C2487 C 0.81247 0.09198 0.29485
 O2488 O 0.80141 0.07568 0.27317
 C2489 C 0.79178 0.06334 0.27393
 C2490 C 0.78784 0.05919 0.28975
 C2491 C 0.77741 0.04704 0.29344
 C2492 C 0.77083 0.03874 0.28028
 C2493 C 0.77500 0.04246 0.26384
 C2494 C 0.78552 0.05508 0.26063
 H2495 H 0.78964 0.06344 0.32443
 H2496 H 0.80522 0.08529 0.33583
 H2497 H 0.81840 0.09979 0.28633
 H2498 H 0.77428 0.04421 0.30599
 H2499 H 0.76242 0.02943 0.28285
 H2500 H 0.78864 0.05837 0.24820
 C2501 C 0.70374 0.41661 0.29718
 C2502 C 0.71236 0.42373 0.30940
 C2503 C 0.71279 0.41803 0.32537
 C2504 C 0.70410 0.40437 0.32888
 C2505 C 0.69514 0.39673 0.31650
 C2506 C 0.69477 0.40312 0.30046
 O2507 O 0.70578 0.42334 0.28260
 C2508 C 0.71589 0.43493 0.28572
 C2509 C 0.72023 0.43572 0.30195
 C2510 C 0.73132 0.44644 0.30776
 C2511 C 0.73836 0.45667 0.29633
 C2512 C 0.73419 0.45602 0.27951
 C2513 C 0.72272 0.44503 0.27416
 H2514 H 0.71982 0.42372 0.33473
 H2515 H 0.70442 0.39970 0.34123
 H2516 H 0.68829 0.39739 0.29071
 H2517 H 0.73473 0.44665 0.32055
 H2518 H 0.74739 0.46479 0.30045
 H2519 H 0.71961 0.44406 0.26132
 C2520 C 0.70249 0.92049 0.78964
 C2521 C 0.69132 0.92825 0.78056
 C2522 C 0.67551 0.92386 0.78052
 C2523 C 0.67106 0.91091 0.79021
 C2524 C 0.68236 0.90279 0.79978
 C2525 C 0.69828 0.90777 0.79954
 O2526 O 0.71697 0.92605 0.78737
 C2527 C 0.71490 0.93759 0.77665
 C2528 C 0.69941 0.93949 0.77215
 C2529 C 0.69465 0.95070 0.76078
 C2530 C 0.70636 0.96025 0.75369
 C2531 C 0.72240 0.95837 0.75803
 C2532 C 0.72673 0.94689 0.76967
 H2533 H 0.66696 0.93003 0.77314
 H2534 H 0.65882 0.90725 0.79031
 H2535 H 0.70723 0.90164 0.80644
 H2536 H 0.68241 0.95190 0.75734
 H2537 H 0.70304 0.96891 0.74460
 H2538 H 0.73895 0.94513 0.77296
 C2539 C 0.20395 0.41879 0.79557
 C2540 C 0.19271 0.42694 0.78696
 C2541 C 0.17712 0.42200 0.78602
 C2542 C 0.17295 0.40805 0.79419
 C2543 C 0.18434 0.39931 0.80306
 C2544 C 0.20005 0.40493 0.80387
 O2545 O 0.21826 0.42505 0.79422
 C2546 C 0.21600 0.43739 0.78454
 C2547 C 0.20057 0.43910 0.77978
 C2548 C 0.19575 0.45076 0.76892
 C2549 C 0.20735 0.46092 0.76256
 C2550 C 0.22335 0.45935 0.76724
 C2551 C 0.22767 0.44746 0.77849
 H2552 H 0.16850 0.42853 0.77906
 H2553 H 0.16084 0.40408 0.79353
 H2554 H 0.20910 0.39847 0.81027
 H2555 H 0.18359 0.45170 0.76513
 H2556 H 0.20399 0.46971 0.75362
 H2557 H 0.23985 0.44578 0.78197
 C2558 C 0.19669 0.91439 0.28934
 C2559 C 0.20409 0.92325 0.30119
 C2560 C 0.20466 0.91877 0.31758
 C2561 C 0.19741 0.90451 0.32193
 C2562 C 0.18967 0.89513 0.30999
 C2563 C 0.18912 0.90028 0.29347
 O2564 O 0.19845 0.92027 0.27433
 C2565 C 0.20714 0.93310 0.27678
 C2566 C 0.21082 0.93548 0.29302
 C2567 C 0.22045 0.94774 0.29830
 C2568 C 0.22670 0.95787 0.28632
 C2569 C 0.22319 0.95563 0.26947
 C2570 C 0.21321 0.94307 0.26465
 H2571 H 0.21076 0.92582 0.32663
 H2572 H 0.19786 0.90077 0.33463
 H2573 H 0.18357 0.89321 0.28406
 H2574 H 0.22339 0.94920 0.31113
 H2575 H 0.23467 0.96717 0.29008
 H2576 H 0.21071 0.94087 0.25183
 C2577 C 0.42048 0.29444 0.70462
 C2578 C 0.42949 0.30611 0.71165
 C2579 C 0.42539 0.32188 0.71109
 C2580 C 0.41127 0.32579 0.70325
 C2581 C 0.40154 0.31399 0.69615
 C2582 C 0.40642 0.29810 0.69654
 O2583 O 0.42604 0.28012 0.70746
 C2584 C 0.43879 0.28284 0.71650
 C2585 C 0.44141 0.29856 0.71940
 C2586 C 0.45348 0.30403 0.72945
 C2587 C 0.46323 0.29282 0.73687
 C2588 C 0.46090 0.27653 0.73399
 C2589 C 0.44847 0.27150 0.72362
 H2590 H 0.43259 0.33083 0.71685
 H2591 H 0.40778 0.33801 0.70297
 H2592 H 0.39910 0.28881 0.69154
 H2593 H 0.45507 0.31645 0.73183
 H2594 H 0.47239 0.29678 0.74514
 H2595 H 0.44619 0.25913 0.72154
 C2596 C 0.41596 0.79190 0.20848
 C2597 C 0.42418 0.80203 0.21849
 C2598 C 0.41996 0.81769 0.22056
 C2599 C 0.40667 0.82308 0.21207
 C2600 C 0.39796 0.81286 0.20168
 C2601 C 0.40283 0.79706 0.19977
 O2602 O 0.42148 0.77733 0.20876
 C2603 C 0.43346 0.77828 0.21916
 C2604 C 0.43565 0.79316 0.22542
 C2605 C 0.44722 0.79667 0.23693
 C2606 C 0.45687 0.78432 0.24224
 C2607 C 0.45482 0.76890 0.23598
 C2608 C 0.44291 0.76584 0.22429
 H2609 H 0.42653 0.82542 0.22860
 H2610 H 0.40318 0.83521 0.21361
 H2611 H 0.39632 0.78887 0.19219
 H2612 H 0.44860 0.80842 0.24183
 H2613 H 0.46577 0.78666 0.25144
 H2614 H 0.44094 0.75410 0.21958
 C2615 C 0.91500 0.29202 0.20310
 C2616 C 0.92433 0.30248 0.21157
 C2617 C 0.92094 0.31841 0.21266
 C2618 C 0.90734 0.32379 0.20474
 C2619 C 0.89746 0.31328 0.19589
 C2620 C 0.90148 0.29716 0.19498
 O2621 O 0.92001 0.27728 0.20412
 C2622 C 0.93278 0.27848 0.21344
 C2623 C 0.93596 0.29366 0.21827
 C2624 C 0.94848 0.29753 0.22851
 C2625 C 0.95806 0.28524 0.23407
 C2626 C 0.95504 0.26948 0.22926
 C2627 C 0.94219 0.26607 0.21881
 H2628 H 0.92841 0.32639 0.21950
 H2629 H 0.90459 0.33618 0.20547
 H2630 H 0.89411 0.28878 0.18854
 H2631 H 0.95062 0.30954 0.23231
 H2632 H 0.96763 0.28790 0.24239
 H2633 H 0.93945 0.25410 0.21526
 C2634 C 0.91344 0.79600 0.70985
 C2635 C 0.92193 0.80640 0.71929
 C2636 C 0.91813 0.82227 0.72043
 C2637 C 0.90511 0.82762 0.71141
 C2638 C 0.89631 0.81712 0.70141
 C2639 C 0.90060 0.80107 0.70072
 O2640 O 0.91875 0.78138 0.71061
 C2641 C 0.93090 0.78254 0.72072
 C2642 C 0.93341 0.79760 0.72635
 C2643 C 0.94552 0.80139 0.73716
 C2644 C 0.95533 0.78914 0.74241
 C2645 C 0.95288 0.77353 0.73680
 C2646 C 0.94046 0.77020 0.72584
 H2647 H 0.92494 0.83024 0.72799
 H2648 H 0.90206 0.83994 0.71203
 H2649 H 0.89405 0.79266 0.69345
 H2650 H 0.94725 0.81329 0.74149
 H2651 H 0.96471 0.79170 0.75101
 H2652 H 0.93826 0.75834 0.72156
 C2653 C 0.58027 0.30298 0.29153
 C2654 C 0.56874 0.29865 0.30257
 C2655 C 0.56907 0.30300 0.31898
 C2656 C 0.58198 0.31191 0.32435
 C2657 C 0.59432 0.31621 0.31339
 C2658 C 0.59325 0.31194 0.29661
 O2659 O 0.57794 0.29704 0.27663
 C2660 C 0.56471 0.28876 0.27838
 C2661 C 0.55867 0.28934 0.29405
 C2662 C 0.54543 0.28083 0.29892
 C2663 C 0.53803 0.27139 0.28712
 C2664 C 0.54372 0.27088 0.27073
 C2665 C 0.55737 0.27960 0.26636
 H2666 H 0.55987 0.29940 0.32743
 H2667 H 0.58244 0.31522 0.33717
 H2668 H 0.60256 0.31480 0.28799
 H2669 H 0.54114 0.28121 0.31144
 H2670 H 0.52792 0.26436 0.29074
 H2671 H 0.56219 0.27910 0.25405
 C2672 C 0.58559 0.79753 0.79635
 C2673 C 0.57733 0.78875 0.80767
 C2674 C 0.58153 0.78803 0.82414
 C2675 C 0.59479 0.79670 0.82912
 C2676 C 0.60352 0.80589 0.81767
 C2677 C 0.59873 0.80630 0.80104
 O2678 O 0.57994 0.79629 0.78123
 C2679 C 0.56783 0.78652 0.78305
 C2680 C 0.56570 0.78158 0.79900
 C2681 C 0.55390 0.77104 0.80359
 C2682 C 0.54395 0.76532 0.79121
 C2683 C 0.54590 0.77028 0.77469
 C2684 C 0.55806 0.78099 0.77056
 H2685 H 0.57489 0.78097 0.83282
 H2686 H 0.59817 0.79631 0.84191
 H2687 H 0.60520 0.81296 0.79190
 H2688 H 0.55254 0.76720 0.81618
 H2689 H 0.53486 0.75685 0.79438
 H2690 H 0.55994 0.78473 0.75800
 C2691 C 0.08488 0.29307 0.79434
 C2692 C 0.07561 0.28592 0.80606
 C2693 C 0.07830 0.28753 0.82277
 C2694 C 0.09116 0.29680 0.82765
 C2695 C 0.10109 0.30423 0.81584
 C2696 C 0.09775 0.30237 0.79891
 O2697 O 0.08036 0.28985 0.77911
 C2698 C 0.06797 0.28046 0.78129
 C2699 C 0.06461 0.27769 0.79757
 C2700 C 0.05236 0.26793 0.80271
 C2701 C 0.04314 0.26078 0.79055
 C2702 C 0.04617 0.26365 0.77367
 C2703 C 0.05889 0.27351 0.76898
 H2704 H 0.07080 0.28180 0.83176
 H2705 H 0.09327 0.29814 0.84065
 H2706 H 0.10506 0.30772 0.78953
 H2707 H 0.05008 0.26579 0.81560
 H2708 H 0.03366 0.25296 0.79422
 H2709 H 0.06159 0.27566 0.75617
 C2710 C 0.07846 0.79824 0.29068
 C2711 C 0.06830 0.79196 0.30214
 C2712 C 0.07032 0.79391 0.31890
 C2713 C 0.08349 0.80252 0.32414
 C2714 C 0.09445 0.80889 0.31266
 C2715 C 0.09171 0.80687 0.29562
 O2716 O 0.07448 0.79469 0.27535
 C2717 C 0.06156 0.78596 0.27723
 C2718 C 0.05734 0.78391 0.29340
 C2719 C 0.04461 0.77466 0.29828
 C2720 C 0.03579 0.76726 0.28596
 C2721 C 0.03960 0.76948 0.26914
 C2722 C 0.05281 0.77885 0.26474
 H2723 H 0.06212 0.78886 0.32767
 H2724 H 0.08509 0.80408 0.33719
 H2725 H 0.09984 0.81142 0.28651
 H2726 H 0.04173 0.77299 0.31112
 H2727 H 0.02601 0.75973 0.28947
 H2728 H 0.05618 0.78042 0.25201
 C2729 C 0.58108 0.71320 0.69702
 C2730 C 0.57043 0.70222 0.70274
 C2731 C 0.57231 0.68616 0.70050
 C2732 C 0.58596 0.68115 0.69241
 C2733 C 0.59740 0.69214 0.68680
 C2734 C 0.59472 0.70845 0.68873
 O2735 O 0.57751 0.72779 0.70148
 C2736 C 0.56439 0.72592 0.71026
 C2737 C 0.55964 0.71047 0.71141
 C2738 C 0.54701 0.70560 0.72106
 C2739 C 0.53884 0.71714 0.72983
 C2740 C 0.54315 0.73325 0.72854
 C2741 C 0.55624 0.73766 0.71869
 H2742 H 0.56384 0.67777 0.70528
 H2743 H 0.58784 0.66864 0.69096
 H2744 H 0.60345 0.71706 0.68495
 H2745 H 0.54382 0.69331 0.72215
 H2746 H 0.52924 0.71355 0.73781
 H2747 H 0.56009 0.74980 0.71792
 C2748 C 0.58820 0.20291 0.20766
 C2749 C 0.58035 0.19239 0.21761
 C2750 C 0.58480 0.17672 0.21897
 C2751 C 0.59782 0.17170 0.20965
 C2752 C 0.60601 0.18233 0.19918
 C2753 C 0.60106 0.19818 0.19827
 O2754 O 0.58232 0.21732 0.20825
 C2755 C 0.57045 0.21589 0.21877
 C2756 C 0.56868 0.20087 0.22484
 C2757 C 0.55697 0.19683 0.23610
 C2758 C 0.54674 0.20877 0.24133
 C2759 C 0.54840 0.22432 0.23523
 C2760 C 0.56046 0.22791 0.22384
 H2761 H 0.57848 0.16864 0.22691
 H2762 H 0.60135 0.15952 0.21046
 H2763 H 0.60711 0.20671 0.19063
 H2764 H 0.55582 0.18496 0.24076
 H2765 H 0.53763 0.20602 0.25023
 H2766 H 0.56203 0.23974 0.21916
 C2767 C 0.07948 0.70710 0.19912
 C2768 C 0.06922 0.69620 0.20569
 C2769 C 0.07188 0.68012 0.20501
 C2770 C 0.08584 0.67505 0.19754
 C2771 C 0.09684 0.68601 0.19094
 C2772 C 0.09343 0.70229 0.19144
 O2773 O 0.07507 0.72184 0.20190
 C2774 C 0.06179 0.72016 0.21044
 C2775 C 0.05773 0.70469 0.21310
 C2776 C 0.04485 0.70018 0.22260
 C2777 C 0.03574 0.71210 0.22967
 C2778 C 0.03945 0.72818 0.22691
 C2779 C 0.05275 0.73223 0.21721
 H2780 H 0.06368 0.67179 0.21038
 H2781 H 0.08817 0.66256 0.19713
 H2782 H 0.10171 0.71095 0.18680
 H2783 H 0.04214 0.68791 0.22483
 H2784 H 0.02592 0.70887 0.23751
 H2785 H 0.05611 0.74440 0.21531
 C2786 C 0.08236 0.20408 0.69883
 C2787 C 0.07268 0.19275 0.70557
 C2788 C 0.07555 0.17677 0.70406
 C2789 C 0.08919 0.17226 0.69562
 C2790 C 0.09970 0.18367 0.68899
 C2791 C 0.09599 0.19984 0.69025
 O2792 O 0.07792 0.21861 0.70258
 C2793 C 0.06525 0.21634 0.71194
 C2794 C 0.06160 0.20072 0.71418
 C2795 C 0.04960 0.19559 0.72455
 C2796 C 0.04090 0.20706 0.73291
 C2797 C 0.04410 0.22329 0.73049
 C2798 C 0.05656 0.22797 0.71993
 H2799 H 0.06781 0.16809 0.70957
 H2800 H 0.09176 0.15984 0.69465
 H2801 H 0.10393 0.20881 0.68562
 H2802 H 0.04727 0.18320 0.72648
 H2803 H 0.03180 0.20334 0.74143
 H2804 H 0.05956 0.24026 0.71828
 C2805 C 0.41504 0.69629 0.29287
 C2806 C 0.42490 0.70231 0.30471
 C2807 C 0.42135 0.70174 0.32137
 C2808 C 0.40703 0.69474 0.32602
 C2809 C 0.39671 0.68834 0.31407
 C2810 C 0.40089 0.68894 0.29726
 O2811 O 0.42003 0.69919 0.27769
 C2812 C 0.43332 0.70718 0.28002
 C2813 C 0.43688 0.70929 0.29634
 C2814 C 0.44981 0.71800 0.30160
 C2815 C 0.45935 0.72502 0.28954
 C2816 C 0.45579 0.72325 0.27265
 C2817 C 0.44263 0.71411 0.26782
 H2818 H 0.42915 0.70684 0.33043
 H2819 H 0.40393 0.69435 0.33892
 H2820 H 0.39304 0.68447 0.28788
 H2821 H 0.45222 0.71969 0.31452
 H2822 H 0.46918 0.73233 0.29333
 H2823 H 0.43945 0.71295 0.25502
 C2824 C 0.42193 0.20913 0.79988
 C2825 C 0.43187 0.19831 0.79284
 C2826 C 0.42911 0.18223 0.79345
 C2827 C 0.41534 0.17706 0.80133
 C2828 C 0.40461 0.18795 0.80832
 C2829 C 0.40817 0.20423 0.80790
 O2830 O 0.42638 0.22390 0.79715
 C2831 C 0.43936 0.22233 0.78814
 C2832 C 0.44318 0.20690 0.78515
 C2833 C 0.45568 0.20252 0.77512
 C2834 C 0.46467 0.21454 0.76791
 C2835 C 0.46124 0.23057 0.77107
 C2836 C 0.44831 0.23450 0.78128
 H2837 H 0.43708 0.17397 0.78774
 H2838 H 0.41292 0.16456 0.80170
 H2839 H 0.40010 0.21284 0.81284
 H2840 H 0.45820 0.19028 0.77264
 H2841 H 0.47422 0.21142 0.75970
 H2842 H 0.44520 0.24664 0.78356
 C2843 C 0.91891 0.69612 0.79503
 C2844 C 0.93004 0.70098 0.80619
 C2845 C 0.92948 0.69691 0.82267
 C2846 C 0.91673 0.68773 0.82799
 C2847 C 0.90470 0.68298 0.81692
 C2848 C 0.90603 0.68698 0.80008
 O2849 O 0.92153 0.70170 0.78001
 C2850 C 0.93453 0.71030 0.78182
 C2851 C 0.94012 0.71029 0.79764
 C2852 C 0.95305 0.71916 0.80257
 C2853 C 0.96067 0.72833 0.79063
 C2854 C 0.95554 0.72813 0.77407
 C2855 C 0.94212 0.71914 0.76966
 H2856 H 0.93843 0.70086 0.83118
 H2857 H 0.91616 0.68458 0.84084
 H2858 H 0.89703 0.68371 0.79133
 H2859 H 0.95698 0.71923 0.81519
 H2860 H 0.97060 0.73557 0.79424
 H2861 H 0.93774 0.71910 0.75719
 C2862 C 0.91617 0.19832 0.29024
 C2863 C 0.92557 0.20554 0.30175
 C2864 C 0.92203 0.20553 0.31842
 C2865 C 0.90818 0.19782 0.32343
 C2866 C 0.89832 0.19021 0.31182
 C2867 C 0.90250 0.19031 0.29500
 O2868 O 0.92111 0.20064 0.27494
 C2869 C 0.93392 0.20949 0.27685
 C2870 C 0.93721 0.21272 0.29303
 C2871 C 0.94968 0.22231 0.29783
 C2872 C 0.95906 0.22898 0.28543
 C2873 C 0.95581 0.22598 0.26866
 C2874 C 0.94307 0.21606 0.26431
 H2875 H 0.92949 0.21150 0.32721
 H2876 H 0.90514 0.19780 0.33634
 H2877 H 0.89502 0.18486 0.28586
 H2878 H 0.95188 0.22486 0.31064
 H2879 H 0.96858 0.23685 0.28882
 H2880 H 0.94015 0.21392 0.25157
 C2881 C 0.29840 0.29240 0.58659
 C2882 C 0.29143 0.30373 0.57704
 C2883 C 0.29197 0.31963 0.58088
 C2884 C 0.29987 0.32405 0.59526
 C2885 C 0.30704 0.31264 0.60550
 C2886 C 0.30650 0.29657 0.60092
 O2887 O 0.29576 0.27789 0.58114
 C2888 C 0.28694 0.28015 0.56789
 C2889 C 0.28399 0.29577 0.56485
 C2890 C 0.27440 0.30081 0.55211
 C2891 C 0.26749 0.28929 0.54210
 C2892 C 0.27037 0.27308 0.54485
 C2893 C 0.28025 0.26848 0.55799
 H2894 H 0.28627 0.32830 0.57325
 H2895 H 0.30028 0.33639 0.59845
 H2896 H 0.31161 0.28756 0.60860
 H2897 H 0.27204 0.31316 0.55016
 H2898 H 0.25961 0.29294 0.53240
 H2899 H 0.28237 0.25619 0.56060
 C2900 C 0.29212 0.79617 0.08596
 C2901 C 0.30341 0.79004 0.07567
 C2902 C 0.31945 0.79141 0.07873
 C2903 C 0.32406 0.79930 0.09307
 C2904 C 0.31267 0.80567 0.10397
 C2905 C 0.29646 0.80426 0.10019
 O2906 O 0.27752 0.79277 0.08128
 C2907 C 0.27965 0.78431 0.06776
 C2908 C 0.29527 0.78235 0.06376
 C2909 C 0.30021 0.77329 0.05052
 C2910 C 0.28856 0.76584 0.04108
 C2911 C 0.27237 0.76764 0.04495
 C2912 C 0.26787 0.77703 0.05850
 H2913 H 0.32810 0.78632 0.07055
 H2914 H 0.33651 0.80035 0.09571
 H2915 H 0.28749 0.80871 0.10841
 H2916 H 0.31259 0.77172 0.04778
 H2917 H 0.29212 0.75835 0.03099
 H2918 H 0.25560 0.77828 0.06193
 C2919 C 0.80437 0.29702 0.07758
 C2920 C 0.79969 0.30796 0.06619
 C2921 C 0.80335 0.32383 0.06749
 C2922 C 0.81197 0.32870 0.08123
 C2923 C 0.81660 0.31777 0.09350
 C2924 C 0.81294 0.30161 0.09143
 O2925 O 0.79922 0.28259 0.07422
 C2926 C 0.79107 0.28454 0.06047
 C2927 C 0.79095 0.29987 0.05511
 C2928 C 0.78239 0.30475 0.04153
 C2929 C 0.77362 0.29334 0.03307
 C2930 C 0.77387 0.27734 0.03803
 C2931 C 0.78266 0.27293 0.05204
 H2932 H 0.79954 0.33222 0.05834
 H2933 H 0.81483 0.34106 0.08233
 H2934 H 0.81611 0.29296 0.10056
 H2935 H 0.78217 0.31696 0.03780
 H2936 H 0.76648 0.29696 0.02275
 H2937 H 0.78271 0.26089 0.05637
 C2938 C 0.79833 0.78991 0.58128
 C2939 C 0.80916 0.78017 0.57395
 C2940 C 0.82487 0.77973 0.57863
 C2941 C 0.82960 0.78965 0.59147
 C2942 C 0.81865 0.79979 0.59929
 C2943 C 0.80280 0.79997 0.59397
 O2944 O 0.78390 0.78821 0.57532
 C2945 C 0.78565 0.77718 0.56395
 C2946 C 0.80089 0.77188 0.56259
 C2947 C 0.80530 0.76015 0.55161
 C2948 C 0.79350 0.75365 0.54163
 C2949 C 0.77774 0.75897 0.54283
 C2950 C 0.77376 0.77085 0.55419
 H2951 H 0.83317 0.77193 0.57271
 H2952 H 0.84180 0.78944 0.59527
 H2953 H 0.79410 0.80738 0.59980
 H2954 H 0.81734 0.75611 0.55083
 H2955 H 0.79653 0.74444 0.53302
 H2956 H 0.76175 0.77495 0.55539
 C2957 C 0.29616 0.70473 0.42114
 C2958 C 0.28937 0.69435 0.43203
 C2959 C 0.29099 0.67817 0.43066
 C2960 C 0.29989 0.67243 0.41745
 C2961 C 0.30689 0.68285 0.40584
 C2962 C 0.30503 0.69929 0.40790
 O2963 O 0.29297 0.71965 0.42452
 C2964 C 0.28395 0.71865 0.43782
 C2965 C 0.28137 0.70342 0.44290
 C2966 C 0.27189 0.69962 0.45629
 C2967 C 0.26483 0.71205 0.46483
 C2968 C 0.26754 0.72788 0.46002
 C2969 C 0.27713 0.73120 0.44622
 H2970 H 0.28553 0.67023 0.43940
 H2971 H 0.30122 0.65984 0.41633
 H2972 H 0.31003 0.70766 0.39933
 H2973 H 0.26986 0.68753 0.45990
 H2974 H 0.25717 0.70941 0.47514
 H2975 H 0.27913 0.74316 0.44213
 C2976 C 0.30012 0.20951 0.91192
 C2977 C 0.29250 0.19921 0.92229
 C2978 C 0.29207 0.18309 0.91957
 C2979 C 0.29984 0.17733 0.90559
 C2980 C 0.30781 0.18768 0.89462
 C2981 C 0.30794 0.20404 0.89796
 O2982 O 0.29882 0.22443 0.91656
 C2983 C 0.29019 0.22350 0.93016
 C2984 C 0.28604 0.20832 0.93420
 C2985 C 0.27671 0.20466 0.94775
 C2986 C 0.27142 0.21716 0.95751
 C2987 C 0.27563 0.23292 0.95370
 C2988 C 0.28509 0.23612 0.93975
 H2989 H 0.28594 0.17522 0.92788
 H2990 H 0.29968 0.16478 0.90345
 H2991 H 0.31371 0.21234 0.88983
 H2992 H 0.27344 0.19264 0.95057
 H2993 H 0.26384 0.21463 0.96792
 H2994 H 0.28820 0.24806 0.93639
 C2995 C 0.79925 0.70735 0.92174
 C2996 C 0.81043 0.71346 0.93213
 C2997 C 0.82632 0.70983 0.93084
 C2998 C 0.83089 0.69962 0.91819
 C2999 C 0.81962 0.69331 0.90709
 C3000 C 0.80351 0.69720 0.90908
 O3001 O 0.78479 0.71235 0.92500
 C3002 C 0.78692 0.72184 0.93773
 C3003 C 0.80240 0.72296 0.94255
 C3004 C 0.80730 0.73247 0.95548
 C3005 C 0.79572 0.74106 0.96385
 C3006 C 0.77965 0.73982 0.95929
 C3007 C 0.77523 0.73021 0.94592
 H3008 H 0.83491 0.71475 0.93921
 H3009 H 0.84324 0.69676 0.91711
 H3010 H 0.79454 0.69276 0.90089
 H3011 H 0.81957 0.73326 0.95896
 H3012 H 0.79917 0.74859 0.97394
 H3013 H 0.76304 0.72922 0.94214
 C3014 C 0.79636 0.20048 0.41907
 C3015 C 0.79073 0.18977 0.43033
 C3016 C 0.79400 0.17381 0.42938
 C3017 C 0.80333 0.16865 0.41621
 C3018 C 0.80916 0.17944 0.40429
 C3019 C 0.80568 0.19563 0.40591
 O3020 O 0.79169 0.21507 0.42202
 C3021 C 0.78290 0.21354 0.43542
 C3022 C 0.78192 0.19829 0.44101
 C3023 C 0.77302 0.19400 0.45468
 C3024 C 0.76487 0.20594 0.46296
 C3025 C 0.76590 0.22176 0.45755
 C3026 C 0.77494 0.22558 0.44350
 H3027 H 0.78944 0.16559 0.43839
 H3028 H 0.80593 0.15625 0.41535
 H3029 H 0.80972 0.20422 0.39703
 H3030 H 0.77229 0.18190 0.45874
 H3031 H 0.75774 0.20293 0.47357
 H3032 H 0.77574 0.23755 0.43903
 C3033 C 0.70186 0.29093 0.41727
 C3034 C 0.69092 0.28342 0.42700
 C3035 C 0.67480 0.28534 0.42499
 C3036 C 0.66976 0.29531 0.41234
 C3037 C 0.68081 0.30312 0.40195
 C3038 C 0.69714 0.30088 0.40463
 O3039 O 0.71662 0.28755 0.42122
 C3040 C 0.71494 0.27768 0.43373
 C3041 C 0.69944 0.27474 0.43775
 C3042 C 0.69501 0.26467 0.45044
 C3043 C 0.70707 0.25748 0.45945
 C3044 C 0.72311 0.26058 0.45568
 C3045 C 0.72708 0.27067 0.44251
 H3046 H 0.66639 0.27935 0.43285
 H3047 H 0.65723 0.29681 0.41070
 H3048 H 0.70599 0.30655 0.39709
 H3049 H 0.68274 0.26247 0.45332
 H3050 H 0.70400 0.24961 0.46943
 H3051 H 0.73926 0.27310 0.43937
 C3052 C 0.71090 0.80281 0.91881
 C3053 C 0.71944 0.81385 0.92738
 C3054 C 0.71928 0.82977 0.92346
 C3055 C 0.70997 0.83446 0.91013
 C3056 C 0.70101 0.82329 0.90112
 C3057 C 0.70144 0.80724 0.90566
 O3058 O 0.71308 0.78825 0.92414
 C3059 C 0.72321 0.79013 0.93635
 C3060 C 0.72744 0.80558 0.93890
 C3061 C 0.73814 0.81014 0.95093
 C3062 C 0.74477 0.79827 0.96066
 C3063 C 0.74061 0.78230 0.95815
 C3064 C 0.72970 0.77817 0.94583
 H3065 H 0.72617 0.83823 0.93031
 H3066 H 0.70970 0.84681 0.90690
 H3067 H 0.69495 0.79838 0.89892
 H3068 H 0.74136 0.82235 0.95266
 H3069 H 0.75327 0.80143 0.97001
 H3070 H 0.72652 0.76601 0.94362
 C3071 C 0.21369 0.30444 0.91713
 C3072 C 0.20361 0.29877 0.92900
 C3073 C 0.18747 0.30117 0.92863
 C3074 C 0.18136 0.30955 0.91531
 C3075 C 0.19136 0.31521 0.90255
 C3076 C 0.20785 0.31281 0.90368
 O3077 O 0.22863 0.30051 0.91974
 C3078 C 0.22788 0.29215 0.93353
 C3079 C 0.21281 0.29070 0.93960
 C3080 C 0.20912 0.28186 0.95343
 C3081 C 0.22150 0.27427 0.96146
 C3082 C 0.23728 0.27595 0.95585
 C3083 C 0.24047 0.28487 0.94151
 H3084 H 0.17981 0.29662 0.93817
 H3085 H 0.16878 0.31145 0.91495
 H3086 H 0.21583 0.31682 0.89415
 H3087 H 0.19710 0.28062 0.95774
 H3088 H 0.21883 0.26702 0.97206
 H3089 H 0.25234 0.28601 0.93672
 C3090 C 0.20456 0.79593 0.41789
 C3091 C 0.19390 0.78979 0.42893
 C3092 C 0.17775 0.79171 0.42737
 C3093 C 0.17231 0.80021 0.41379
 C3094 C 0.18300 0.80652 0.40200
 C3095 C 0.19941 0.80440 0.40425
 O3096 O 0.21940 0.79260 0.42158
 C3097 C 0.21806 0.78415 0.43523
 C3098 C 0.20269 0.78206 0.44021
 C3099 C 0.19852 0.77326 0.45394
 C3100 C 0.21071 0.76639 0.46298
 C3101 C 0.22669 0.76865 0.45834
 C3102 C 0.23040 0.77751 0.44413
 H3103 H 0.16960 0.78679 0.43626
 H3104 H 0.15974 0.80177 0.41255
 H3105 H 0.20796 0.80891 0.39556
 H3106 H 0.18632 0.77161 0.45747
 H3107 H 0.20775 0.75929 0.47360
 H3108 H 0.24248 0.77917 0.44018
 C3109 C 0.70383 0.70381 0.58169
 C3110 C 0.70907 0.69235 0.57112
 C3111 C 0.70659 0.67641 0.57396
 C3112 C 0.69844 0.67211 0.58831
 C3113 C 0.69291 0.68370 0.59945
 C3114 C 0.69556 0.69981 0.59594
 O3115 O 0.70807 0.71822 0.57713
 C3116 C 0.71615 0.71579 0.56338
 C3117 C 0.71707 0.70017 0.55913
 C3118 C 0.72552 0.69495 0.54554
 C3119 C 0.73350 0.70629 0.53606
 C3120 C 0.73280 0.72245 0.54026
 C3121 C 0.72393 0.72725 0.55410
 H3122 H 0.71094 0.66759 0.56554
 H3123 H 0.69644 0.65974 0.59069
 H3124 H 0.69174 0.70894 0.60428
 H3125 H 0.72626 0.68258 0.54256
 H3126 H 0.74056 0.70249 0.52571
 H3127 H 0.72351 0.73947 0.55776
 C3128 C 0.70682 0.21120 0.08047
 C3129 C 0.69643 0.22118 0.07288
 C3130 C 0.68063 0.22209 0.07732
 C3131 C 0.67534 0.21234 0.09014
 C3132 C 0.68582 0.20189 0.09812
 C3133 C 0.70179 0.20132 0.09310
 O3134 O 0.72140 0.21236 0.07466
 C3135 C 0.72019 0.22329 0.06312
 C3136 C 0.70514 0.22904 0.06150
 C3137 C 0.70125 0.24063 0.05018
 C3138 C 0.71338 0.24652 0.04014
 C3139 C 0.72895 0.24077 0.04164
 C3140 C 0.73243 0.22905 0.05333
 H3141 H 0.67268 0.23008 0.07120
 H3142 H 0.66307 0.21288 0.09372
 H3143 H 0.71016 0.19366 0.09905
 H3144 H 0.68935 0.24500 0.04916
 H3145 H 0.71074 0.25560 0.03125
 H3146 H 0.74428 0.22459 0.05472
 C3147 C 0.20484 0.70346 0.08720
 C3148 C 0.21266 0.69249 0.07788
 C3149 C 0.21180 0.67647 0.08103
 C3150 C 0.20263 0.67153 0.09442
 C3151 C 0.19459 0.68258 0.10448
 C3152 C 0.19562 0.69881 0.10063
 O3153 O 0.20745 0.71813 0.08220
 C3154 C 0.21712 0.71633 0.06949
 C3155 C 0.22070 0.70086 0.06637
 C3156 C 0.23095 0.69629 0.05393
 C3157 C 0.23774 0.70816 0.04422
 C3158 C 0.23401 0.72418 0.04694
 C3159 C 0.22367 0.72833 0.05989
 H3160 H 0.21804 0.66807 0.07348
 H3161 H 0.20186 0.65906 0.09687
 H3162 H 0.18978 0.70759 0.10803
 H3163 H 0.23373 0.68405 0.05187
 H3164 H 0.24594 0.70494 0.03460
 H3165 H 0.22089 0.74050 0.06241
 C3166 C 0.20637 0.20528 0.58480
 C3167 C 0.21319 0.19457 0.57437
 C3168 C 0.21204 0.17843 0.57675
 C3169 C 0.20362 0.17309 0.59053
 C3170 C 0.19653 0.18386 0.60162
 C3171 C 0.19784 0.20023 0.59855
 O3172 O 0.20926 0.22010 0.58052
 C3173 C 0.21809 0.21869 0.56710
 C3174 C 0.22082 0.20329 0.56283
 C3175 C 0.23016 0.19907 0.54950
 C3176 C 0.23698 0.21122 0.54019
 C3177 C 0.23427 0.22721 0.54423
 C3178 C 0.22473 0.23097 0.55796
 H3179 H 0.21753 0.17024 0.56837
 H3180 H 0.20263 0.16055 0.59246
 H3181 H 0.19276 0.20878 0.60681
 H3182 H 0.23230 0.18687 0.54652
 H3183 H 0.24456 0.20822 0.52995
 H3184 H 0.22269 0.24307 0.56147
   
