data_POSCAR
  _audit_creation_date              2014-09-24
  _audit_creation_method            'ToBaCCo'
  _symmetry_space_group_name_H-M    'P1'
  _symmetry_Int_Tables_number       1
  _symmetry_cell_setting            triclinic
  loop_
  _symmetry_equiv_pos_as_xyz
 x,y,z
_cell_length_a 47.1758
_cell_length_b 47.4715
_cell_length_c 49.1102
_cell_angle_alpha 90.677200
_cell_angle_beta 91.624600
_cell_angle_gamma 90.318600
loop_
  _atom_site_label
  _atom_site_type_symbol
  _atom_site_fract_x
  _atom_site_fract_y
  _atom_site_fract_z
C1 C 0.43330 -0.02860 0.28083
 H2 H 0.43645 -0.03915 0.26151
 C3 C 0.45362 -0.03107 0.30190
 H4 H 0.47219 -0.04381 0.29861
 C5 C 0.40525 0.00085 0.30840
 H6 H 0.38648 0.01358 0.31064
 C7 C 0.42480 -0.00136 0.33013
 H8 H 0.42087 0.00965 0.34908
 N9 N 0.41022 -0.01200 0.28412
 C10 C 0.43166 0.00634 0.22268
 H11 H 0.44196 0.01017 0.24230
 C12 C 0.44502 0.01529 0.19941
 H13 H 0.46592 0.02478 0.20144
 C14 C 0.39099 -0.00789 0.19651
 H15 H 0.36921 -0.01513 0.19570
 C16 C 0.40393 0.00038 0.17247
 H17 H 0.39231 -0.00138 0.15317
 Zn18 Zn 0.38524 -0.00442 0.25427
 N19 N 0.40496 -0.00467 0.22105
 C20 C 0.39425 0.05241 0.26225
 N21 N 0.37308 0.03321 0.25774
 C22 C 0.34587 0.04140 0.25254
 C23 C 0.33934 0.07007 0.25110
 C24 C 0.38879 0.08108 0.26044
 C25 C 0.33585 -0.02531 0.27559
 C26 C 0.31385 -0.04420 0.28019
 C27 C 0.33039 -0.07332 0.24330
 C28 C 0.35199 -0.05352 0.23922
 N29 N 0.35432 -0.03009 0.25538
 H30 H 0.41570 0.04539 0.26624
 H31 H 0.32952 0.02582 0.24818
 H32 H 0.31785 0.07646 0.24597
 H33 H 0.40609 0.09603 0.26323
 H34 H 0.33857 -0.00691 0.28862
 H35 H 0.29995 -0.03924 0.29665
 H36 H 0.32945 -0.09207 0.23050
 H37 H 0.36748 -0.05744 0.22384
 C38 C 0.43084 0.01311 0.17402
 C39 C 0.44977 -0.01675 0.32673
 C40 C 0.31104 -0.06916 0.26437
 C41 C 0.36120 0.09010 0.25417
 C42 C 0.08717 0.00894 0.71213
 H43 H 0.08695 0.02987 0.72107
 C44 C 0.07224 0.00335 0.68742
 H45 H 0.06036 0.01997 0.67749
 C46 C 0.10280 -0.03831 0.71372
 H47 H 0.11540 -0.05457 0.72302
 C48 C 0.08778 -0.04488 0.68973
 H49 H 0.08865 -0.06613 0.68150
 N50 N 0.10146 -0.01209 0.72521
 C51 C 0.10553 0.00067 0.81407
 H52 H 0.12723 -0.00574 0.81796
 C53 C 0.08784 0.00598 0.83588
 H54 H 0.09610 0.00394 0.85656
 C55 C 0.06829 0.01063 0.78231
 H56 H 0.06056 0.01185 0.76146
 C57 C 0.05003 0.01664 0.80350
 H58 H 0.02838 0.02253 0.79858
 Zn59 Zn 0.12076 -0.00685 0.75998
 N60 N 0.09555 0.00305 0.78792
 C61 C 0.14951 0.04466 0.77364
 N62 N 0.14927 0.02142 0.75708
 C63 C 0.16829 0.01860 0.73700
 C64 C 0.18882 0.03938 0.73318
 C65 C 0.16958 0.06614 0.77037
 C66 C 0.11584 -0.06193 0.77560
 C67 C 0.12151 -0.09058 0.77299
 C68 C 0.16966 -0.07888 0.76172
 C69 C 0.16288 -0.05027 0.76389
 N70 N 0.13589 -0.04249 0.76938
 H71 H 0.13386 0.04683 0.78916
 H72 H 0.16719 0.00036 0.72359
 H73 H 0.20328 0.03663 0.71670
 H74 H 0.16929 0.08457 0.78356
 H75 H 0.09446 -0.05520 0.77953
 H76 H 0.10465 -0.10576 0.77576
 H77 H 0.19060 -0.08495 0.75541
 H78 H 0.17848 -0.03455 0.75896
 C79 C 0.05978 0.01430 0.83070
 C80 C 0.07188 -0.02413 0.67652
 C81 C 0.14828 -0.09919 0.76468
 C82 C 0.18967 0.06364 0.74997
 C83 C 0.56570 0.52381 0.21303
 H84 H 0.56374 0.53532 0.23201
 C85 C 0.54613 0.52825 0.19178
 H86 H 0.52933 0.54339 0.19450
 C87 C 0.58982 0.48984 0.18673
 H88 H 0.60657 0.47454 0.18504
 C89 C 0.57098 0.49413 0.16462
 H90 H 0.57338 0.48209 0.14597
 N91 N 0.58674 0.50458 0.21040
 C92 C 0.59678 0.49085 0.29716
 H93 H 0.61848 0.49735 0.30148
 C94 C 0.57817 0.48733 0.31854
 H95 H 0.58579 0.49098 0.33930
 C96 C 0.56012 0.47983 0.26478
 H97 H 0.55308 0.47698 0.24380
 C98 C 0.54090 0.47595 0.28545
 H99 H 0.51933 0.47003 0.27988
 Zn100 Zn 0.61034 0.50037 0.24201
 N101 N 0.58714 0.48837 0.27084
 C102 C 0.60991 0.55240 0.26888
 N103 N 0.62471 0.53712 0.25057
 C104 C 0.64589 0.54927 0.23641
 C105 C 0.65270 0.57783 0.24042
 C106 C 0.61601 0.58075 0.27354
 C107 C 0.64191 0.45113 0.25359
 C108 C 0.66229 0.43035 0.24937
 C109 C 0.67808 0.45619 0.21054
 C110 C 0.65737 0.47640 0.21545
 N111 N 0.63968 0.47356 0.23663
 H112 H 0.59229 0.54305 0.27908
 H113 H 0.65700 0.53721 0.22140
 H114 H 0.66925 0.58728 0.22866
 H115 H 0.60362 0.59201 0.28823
 H116 H 0.62757 0.44897 0.27019
 H117 H 0.66335 0.41247 0.26284
 H118 H 0.69146 0.45901 0.19329
 H119 H 0.65486 0.49388 0.20173
 C120 C 0.54954 0.48090 0.31271
 C121 C 0.54854 0.51319 0.16726
 C122 C 0.68057 0.43254 0.22745
 C123 C 0.63727 0.59406 0.25884
 C124 C 0.93462 0.51971 0.77409
 H125 H 0.93877 0.53045 0.75538
 C126 C 0.95464 0.52145 0.79547
 H127 H 0.97356 0.53389 0.79261
 C128 C 0.90499 0.49072 0.80002
 H129 H 0.88591 0.47834 0.80175
 C130 C 0.92390 0.49288 0.82241
 H131 H 0.91889 0.48212 0.84102
 N132 N 0.91044 0.50428 0.77645
 C133 C 0.88948 0.50156 0.68956
 H134 H 0.86735 0.50744 0.68930
 C135 C 0.90504 0.50389 0.66585
 H136 H 0.89473 0.51123 0.64729
 C137 C 0.93055 0.48748 0.71465
 H138 H 0.94055 0.48144 0.73374
 C139 C 0.94699 0.49024 0.69166
 H140 H 0.96958 0.48640 0.69327
 Zn141 Zn 0.88385 0.50375 0.74627
 N142 N 0.90274 0.49487 0.71360
 C143 C 0.88937 0.55875 0.73083
 N144 N 0.87027 0.54117 0.74212
 C145 C 0.84435 0.55071 0.74952
 C146 C 0.83715 0.57910 0.74589
 C147 C 0.88298 0.58687 0.72658
 C148 C 0.85199 0.45379 0.73595
 C149 C 0.83279 0.43234 0.74206
 C150 C 0.81777 0.46019 0.78042
 C151 C 0.83728 0.48096 0.77369
 N152 N 0.85431 0.47726 0.75209
 H153 H 0.90957 0.55081 0.72452
 H154 H 0.82915 0.53651 0.75806
 H155 H 0.81644 0.58649 0.75159
 H156 H 0.89871 0.60027 0.71754
 H157 H 0.86583 0.45115 0.71895
 H158 H 0.83199 0.41338 0.72958
 H159 H 0.80502 0.46366 0.79807
 H160 H 0.83978 0.49949 0.78656
 C161 C 0.93441 0.49974 0.66728
 C162 C 0.94935 0.50813 0.82025
 C163 C 0.81587 0.43506 0.76498
 C164 C 0.85656 0.59736 0.73396
 C165 C 0.20621 0.38589 0.97015
 H166 H 0.22031 0.38047 0.95394
 C167 C 0.18550 0.40613 0.96580
 H168 H 0.18338 0.41544 0.94585
 C169 C 0.19270 0.38051 1.01593
 H170 H 0.19589 0.37074 1.03551
 C171 C 0.17139 0.40081 1.01237
 H172 H 0.15827 0.40654 1.02928
 N173 N 0.21020 0.37431 0.99511
 C174 C 0.30198 0.37163 0.99008
 H175 H 0.30663 0.34955 0.98700
 C176 C 0.32420 0.39143 0.99218
 H177 H 0.34594 0.38451 0.99065
 C178 C 0.26833 0.40742 0.99814
 H179 H 0.24679 0.41371 1.00163
 C180 C 0.28973 0.42762 1.00073
 H181 H 0.28418 0.44919 1.00552
 Zn182 Zn 0.24440 0.35355 0.99706
 N183 N 0.27465 0.37990 0.99335
 C184 C 0.25726 0.32810 0.94542
 N185 N 0.24171 0.32640 0.96826
 C186 C 0.22159 0.30601 0.97079
 C187 C 0.21672 0.28597 0.95010
 C188 C 0.25267 0.30876 0.92395
 C189 C 0.24942 0.34940 1.05493
 C190 C 0.25790 0.33651 1.07935
 C191 C 0.27075 0.29520 1.05344
 C192 C 0.26145 0.30853 1.02972
 N193 N 0.25109 0.33519 1.03077
 H194 H 0.27266 0.34485 0.94352
 H195 H 0.20913 0.30549 0.98893
 H196 H 0.20041 0.27016 0.95252
 H197 H 0.26493 0.31060 0.90574
 H198 H 0.24238 0.37104 1.05521
 H199 H 0.25679 0.34809 1.09842
 H200 H 0.27931 0.27413 1.05204
 H201 H 0.26373 0.29795 1.01033
 C202 C 0.31809 0.41963 0.99846
 C203 C 0.16848 0.41466 0.98732
 C204 C 0.26930 0.30931 1.07860
 C205 C 0.23222 0.28732 0.92619
 C206 C 0.79551 0.09474 1.00401
 H207 H 0.78106 0.08027 1.01341
 C208 C 0.82467 0.08876 1.00372
 H209 H 0.83225 0.06927 1.01247
 C210 C 0.80339 0.13827 0.98241
 H211 H 0.79530 0.15808 0.97502
 C212 C 0.83233 0.13328 0.98177
 H213 H 0.84537 0.14939 0.97305
 N214 N 0.78554 0.11925 0.99339
 C215 C 0.69704 0.10573 0.98077
 H216 H 0.69891 0.11657 0.96169
 C217 C 0.67084 0.09408 0.98745
 H218 H 0.65299 0.09553 0.97318
 C219 C 0.71679 0.09345 1.02391
 H220 H 0.73429 0.09469 1.03859
 C221 C 0.69085 0.08225 1.03163
 H222 H 0.68889 0.07408 1.05199
 Zn223 Zn 0.74834 0.13340 0.99748
 N224 N 0.71903 0.10612 0.99937
 C225 C 0.74150 0.15092 0.94233
 N226 N 0.74084 0.15942 0.96888
 C227 C 0.73793 0.18711 0.97562
 C228 C 0.73590 0.20743 0.95555
 C229 C 0.73972 0.17075 0.92144
 C230 C 0.77194 0.15746 1.04632
 C231 C 0.77174 0.17557 1.06891
 C232 C 0.72189 0.18398 1.05955
 C233 C 0.72282 0.16511 1.03771
 N234 N 0.74789 0.15344 1.03076
 H235 H 0.74446 0.12887 0.93741
 H236 H 0.73841 0.19394 0.99660
 H237 H 0.73380 0.22920 0.96183
 H238 H 0.74110 0.16377 0.90045
 H239 H 0.79152 0.14758 1.04063
 H240 H 0.79118 0.17970 1.08058
 H241 H 0.70221 0.19452 1.06398
 H242 H 0.70398 0.16117 1.02514
 C243 C 0.66720 0.08366 1.01371
 C244 C 0.84368 0.10837 0.99275
 C245 C 0.74674 0.18980 1.07488
 C246 C 0.73751 0.19951 0.92805
 C247 C 0.27032 0.58104 0.48322
 H248 H 0.24865 0.57557 0.47758
 C249 C 0.29205 0.56227 0.47736
 H250 H 0.28679 0.54226 0.46763
 C251 C 0.30364 0.61447 0.50102
 H252 H 0.30803 0.63531 0.50929
 C253 C 0.32606 0.59601 0.49601
 H254 H 0.34768 0.60270 0.50057
 N255 N 0.27644 0.60682 0.49431
 C256 C 0.19073 0.62274 0.47284
 H257 H 0.19623 0.63578 0.45592
 C258 C 0.16228 0.61552 0.47634
 H259 H 0.14622 0.62241 0.46173
 C260 C 0.20400 0.60027 0.51413
 H261 H 0.22023 0.59549 0.52936
 C262 C 0.17583 0.59336 0.51877
 H263 H 0.17045 0.58266 0.53731
 Zn264 Zn 0.24666 0.63354 0.49539
 N265 N 0.21078 0.61564 0.49203
 C266 C 0.24786 0.65156 0.44055
 N267 N 0.25124 0.65988 0.46705
 C268 C 0.25671 0.68725 0.47382
 C269 C 0.25680 0.70781 0.45383
 C270 C 0.24760 0.67153 0.41980
 C271 C 0.25954 0.64878 0.55235
 C272 C 0.25195 0.66231 0.57667
 C273 C 0.21330 0.68465 0.55209
 C274 C 0.22149 0.67084 0.52857
 N275 N 0.24408 0.65323 0.52898
 H276 H 0.24417 0.62955 0.43562
 H277 H 0.26049 0.69336 0.49487
 H278 H 0.26058 0.72942 0.46011
 H279 H 0.24384 0.66468 0.39890
 H280 H 0.27698 0.63410 0.55239
 H281 H 0.26400 0.65830 0.59530
 H282 H 0.19525 0.69852 0.55074
 H283 H 0.20928 0.67361 0.50982
 C284 C 0.15466 0.60178 0.50012
 C285 C 0.32038 0.56992 0.48321
 C286 C 0.22817 0.68010 0.57676
 C287 C 0.25140 0.70020 0.42642
 C288 C 0.73593 0.92857 0.49337
 H289 H 0.75632 0.93244 0.48463
 C290 C 0.71500 0.94925 0.49170
 H291 H 0.72011 0.96914 0.48247
 C292 C 0.70400 0.89723 0.51403
 H293 H 0.69960 0.87649 0.52183
 C294 C 0.68247 0.91732 0.51282
 H295 H 0.66163 0.91190 0.51992
 N296 N 0.73009 0.90310 0.50434
 C297 C 0.80947 0.86339 0.48277
 H298 H 0.79963 0.84423 0.47493
 C299 C 0.83879 0.86661 0.48168
 H300 H 0.85127 0.85015 0.47249
 C301 C 0.80552 0.90704 0.50627
 H302 H 0.79272 0.92187 0.51732
 C303 C 0.83479 0.91151 0.50487
 H304 H 0.84428 0.93016 0.51430
 Zn305 Zn 0.75557 0.87249 0.50173
 N306 N 0.79345 0.88333 0.49508
 C307 C 0.74688 0.86132 0.44654
 N308 N 0.74236 0.85028 0.47152
 C309 C 0.72850 0.82532 0.47415
 C310 C 0.71855 0.81049 0.45093
 C311 C 0.73784 0.84694 0.42285
 C312 C 0.75104 0.86470 0.55902
 C313 C 0.76012 0.85302 0.58386
 C314 C 0.78297 0.81597 0.55869
 C315 C 0.77322 0.82809 0.53447
 N316 N 0.75815 0.85239 0.53496
 H317 H 0.75772 0.88136 0.44505
 H318 H 0.72490 0.81708 0.49420
 H319 H 0.70762 0.79062 0.45341
 H320 H 0.74175 0.85601 0.40316
 H321 H 0.74001 0.88459 0.55905
 H322 H 0.75536 0.86366 0.60280
 H323 H 0.79564 0.79707 0.55768
 H324 H 0.77914 0.81899 0.51517
 C325 C 0.85175 0.89074 0.49311
 C326 C 0.68761 0.94349 0.50093
 C327 C 0.77727 0.82899 0.58379
 C328 C 0.72322 0.82134 0.42485
 C329 C 0.04204 0.27493 0.41101
 H330 H 0.05432 0.25575 0.41135
 C331 C 0.05033 0.29770 0.42749
 H332 H 0.06929 0.29578 0.44019
 C333 C 0.00190 0.29987 0.39425
 H334 H -0.01710 0.30037 0.38143
 C335 C 0.00939 0.32319 0.41051
 H336 H -0.00400 0.34164 0.41007
 N337 N 0.01801 0.27625 0.39517
 C338 C -0.00212 0.22305 0.42918
 H339 H -0.00568 0.24513 0.43330
 C340 C -0.00816 0.20353 0.44913
 H341 H -0.01587 0.21124 0.46833
 C342 C 0.01199 0.18687 0.39896
 H343 H 0.01916 0.18037 0.37921
 C344 C 0.00685 0.16656 0.41865
 H345 H 0.01045 0.14460 0.41367
 Zn346 Zn 0.00680 0.24266 0.37724
 N347 N 0.00685 0.21450 0.40434
 C348 C 0.02937 0.21149 0.33261
 N349 N 0.03264 0.23468 0.34898
 C350 C 0.05481 0.25276 0.34590
 C351 C 0.07529 0.24732 0.32664
 C352 C 0.04930 0.20536 0.31283
 C353 C -0.05067 0.24927 0.38396
 C354 C -0.07950 0.24611 0.37807
 C355 C -0.06868 0.23738 0.33095
 C356 C -0.03976 0.24014 0.33790
 N357 N -0.03135 0.24523 0.36426
 H358 H 0.01135 0.19764 0.33495
 H359 H 0.05690 0.27146 0.35849
 H360 H 0.09292 0.26183 0.32486
 H361 H 0.04650 0.18652 0.30043
 H362 H -0.04371 0.25405 0.40459
 H363 H -0.09440 0.24857 0.39429
 H364 H -0.07523 0.23243 0.31012
 H365 H -0.02412 0.23720 0.32247
 C366 C -0.00436 0.17469 0.44383
 C367 C 0.03359 0.32205 0.42780
 C368 C -0.08873 0.23932 0.35147
 C369 C 0.07282 0.22331 0.30989
 C370 C -0.02133 0.69814 0.08748
 H371 H -0.00951 0.71180 0.07447
 C372 C -0.02842 0.67089 0.07840
 H373 H -0.02144 0.66366 0.05871
 C374 C -0.04532 0.69084 0.12845
 H375 H -0.05180 0.69821 0.14812
 C376 C -0.05322 0.66375 0.12002
 H377 H -0.06535 0.65097 0.13361
 N378 N -0.02899 0.70733 0.11260
 C379 C -0.01140 0.79832 0.10847
 H380 H 0.00218 0.80134 0.12641
 C381 C -0.01661 0.82084 0.09085
 H382 H -0.00700 0.84118 0.09541
 C383 C -0.04059 0.76813 0.08092
 H384 H -0.05023 0.74768 0.07726
 C385 C -0.04638 0.78997 0.06286
 H386 H -0.06001 0.78555 0.04526
 Zn387 Zn -0.01586 0.74270 0.12771
 N388 N -0.02327 0.77257 0.10316
 C389 C 0.04013 0.72761 0.11630
 N390 N 0.02407 0.74051 0.13526
 C391 C 0.03616 0.75055 0.15899
 C392 C 0.06498 0.74599 0.16502
 C393 C 0.06881 0.72255 0.12147
 C394 C -0.02828 0.73519 0.18327
 C395 C -0.04690 0.73271 0.20472
 C396 C -0.08178 0.75857 0.17832
 C397 C -0.06227 0.76087 0.15754
 N398 N -0.03633 0.74872 0.16007
 H399 H 0.03074 0.72074 0.09716
 H400 H 0.02347 0.76185 0.17342
 H401 H 0.07408 0.75359 0.18424
 H402 H 0.08062 0.71176 0.10602
 H403 H -0.00825 0.72427 0.18436
 H404 H -0.03980 0.72088 0.22226
 H405 H -0.10267 0.76753 0.17512
 H406 H -0.06861 0.77069 0.13858
 C407 C -0.03439 0.81685 0.06769
 C408 C -0.04417 0.65317 0.09498
 C409 C -0.07472 0.74337 0.20204
 C410 C 0.08154 0.73118 0.14638
 C411 C 0.48805 0.20938 0.58386
 H412 H 0.50625 0.22042 0.57622
 C413 C 0.48129 0.18220 0.57414
 H414 H 0.49412 0.17266 0.55863
 C415 C 0.45063 0.20740 0.61495
 H416 H 0.43960 0.21651 0.63185
 C417 C 0.44301 0.18053 0.60569
 H418 H 0.42573 0.17001 0.61544
 N419 N 0.47304 0.22114 0.60431
 C420 C 0.48087 0.30118 0.58813
 H421 H 0.45835 0.29784 0.58885
 C422 C 0.49092 0.32603 0.57678
 H423 H 0.47591 0.34134 0.56900
 C424 C 0.52778 0.28632 0.59805
 H425 H 0.54224 0.27082 0.60625
 C426 C 0.53872 0.31108 0.58733
 H427 H 0.56145 0.31427 0.58746
 Zn428 Zn 0.48643 0.25372 0.62354
 N429 N 0.49925 0.28245 0.59967
 C430 C 0.53335 0.26324 0.65973
 N431 N 0.51798 0.24308 0.64585
 C432 C 0.52751 0.21618 0.64378
 C433 C 0.55479 0.20950 0.65300
 C434 C 0.56080 0.25738 0.66948
 C435 C 0.43191 0.27381 0.63147
 C436 C 0.40901 0.28456 0.64535
 C437 C 0.43647 0.28121 0.68745
 C438 C 0.45931 0.27116 0.67256
 N439 N 0.45670 0.26796 0.64499
 H440 H 0.52531 0.28450 0.66106
 H441 H 0.51480 0.20023 0.63336
 H442 H 0.56258 0.18835 0.64977
 H443 H 0.57365 0.27412 0.67866
 H444 H 0.42958 0.26931 0.60991
 H445 H 0.38943 0.28915 0.63425
 H446 H 0.43852 0.28357 0.70938
 H447 H 0.47890 0.26568 0.68307
 C448 C 0.52010 0.33179 0.57756
 C449 C 0.45887 0.16717 0.58554
 C450 C 0.41125 0.28840 0.67358
 C451 C 0.57226 0.23064 0.66470
 C452 C 0.52788 0.77404 0.92386
 H453 H 0.54295 0.75696 0.92346
 C454 C 0.52858 0.79327 0.94556
 H455 H 0.54423 0.79057 0.96182
 C456 C 0.49072 0.79928 0.90191
 H457 H 0.47670 0.80210 0.88439
 C458 C 0.49097 0.81926 0.92304
 H459 H 0.47668 0.83700 0.92187
 N460 N 0.50907 0.77726 0.90268
 C461 C 0.51604 0.69719 0.85890
 H462 H 0.51811 0.70593 0.83880
 C463 C 0.51797 0.66822 0.86246
 H464 H 0.52121 0.65481 0.84487
 C465 C 0.50909 0.70447 0.90607
 H466 H 0.50553 0.71872 0.92294
 C467 C 0.51059 0.67544 0.91054
 H468 H 0.50844 0.66752 0.93097
 Zn469 Zn 0.51280 0.75336 0.87205
 N470 N 0.51244 0.71471 0.88061
 C471 C 0.56921 0.74362 0.85594
 N472 N 0.54767 0.76255 0.85643
 C473 C 0.54978 0.78794 0.84409
 C474 C 0.57251 0.79351 0.82743
 C475 C 0.59284 0.74877 0.84027
 C476 C 0.45575 0.75662 0.85427
 C477 C 0.43326 0.76086 0.83568
 C478 C 0.46726 0.76875 0.80064
 C479 C 0.48899 0.76404 0.81975
 N480 N 0.48299 0.75899 0.84619
 H481 H 0.56759 0.72402 0.86677
 H482 H 0.53264 0.80289 0.84545
 H483 H 0.57296 0.81285 0.81595
 H484 H 0.60918 0.73293 0.83877
 H485 H 0.45155 0.75175 0.87524
 H486 H 0.41166 0.75939 0.84246
 H487 H 0.47259 0.77280 0.77975
 H488 H 0.51061 0.76402 0.81320
 C489 C 0.51571 0.65704 0.88862
 C490 C 0.51016 0.81644 0.94515
 C491 C 0.43900 0.76755 0.80863
 C492 C 0.59380 0.77330 0.82479
 C493 C -0.24236 0.68383 0.97657
 H494 H -0.24334 0.69179 0.99721
 C495 C -0.24278 0.70280 0.95511
 H496 H -0.24336 0.72513 0.95975
 C497 C -0.24190 0.64532 0.94553
 H498 H -0.24279 0.62282 0.94185
 C499 C -0.24222 0.66369 0.92332
 H500 H -0.24304 0.65519 0.90276
 N501 N -0.24258 0.65560 0.97159
 C502 C -0.21600 0.66269 1.03866
 H503 H -0.20079 0.65946 1.02285
 C504 C -0.20812 0.67785 1.06214
 H505 H -0.18664 0.68580 1.06364
 C506 C -0.26204 0.65508 1.05508
 H507 H -0.28301 0.64603 1.05217
 C508 C -0.25487 0.66987 1.07934
 H509 H -0.27064 0.67217 1.09480
 Zn510 Zn -0.24834 0.63124 1.00202
 N511 N -0.24260 0.65193 1.03530
 C512 C -0.20150 0.59760 0.98370
 N513 N -0.22131 0.60167 1.00298
 C514 C -0.22215 0.58495 1.02521
 C515 C -0.20357 0.56247 1.02822
 C516 C -0.18218 0.57540 0.98606
 C517 C -0.29509 0.59535 1.01623
 C518 C -0.31917 0.57892 1.00965
 C519 C -0.32441 0.60430 0.96757
 C520 C -0.30071 0.62047 0.97512
 N521 N -0.28552 0.61479 0.99836
 H522 H -0.20028 0.61168 0.96669
 H523 H -0.23682 0.58949 1.04110
 H524 H -0.20465 0.54990 1.04639
 H525 H -0.16646 0.57247 0.97064
 H526 H -0.28353 0.59164 1.03509
 H527 H -0.32569 0.56251 1.02331
 H528 H -0.33528 0.60822 0.94828
 H529 H -0.29383 0.63668 0.96160
 C530 C -0.22760 0.68185 1.08309
 C531 C -0.24369 0.69282 0.92803
 C532 C -0.33318 0.58250 0.98442
 C533 C -0.18329 0.55733 1.00843
 C534 C -0.24612 0.31104 0.52568
 H535 H -0.24218 0.30370 0.50523
 C536 C -0.24305 0.29324 0.54634
 H537 H -0.23661 0.27195 0.54180
 C538 C -0.25844 0.34914 0.55499
 H539 H -0.26378 0.37093 0.55841
 C540 C -0.25516 0.33019 0.57861
 H541 H -0.25890 0.33860 0.59879
 N542 N -0.25422 0.33979 0.53038
 C543 C -0.25331 0.34898 0.44414
 H544 H -0.23886 0.36668 0.44313
 C545 C -0.25835 0.33197 0.42115
 H546 H -0.24751 0.33656 0.40256
 C547 C -0.28446 0.32113 0.46981
 H548 H -0.29453 0.31708 0.48890
 C549 C -0.28979 0.30331 0.44742
 H550 H -0.30410 0.28560 0.44944
 Zn551 Zn -0.25446 0.36385 0.49956
 N552 N -0.26561 0.34276 0.46807
 C553 C -0.19855 0.35390 0.48930
 N554 N -0.21644 0.37543 0.49489
 C555 C -0.20696 0.40255 0.49651
 C556 C -0.17830 0.40868 0.49247
 C557 C -0.17007 0.35909 0.48470
 C558 C -0.27559 0.41472 0.52287
 C559 C -0.29544 0.43612 0.52636
 C560 C -0.32362 0.41606 0.48911
 C561 C -0.30319 0.39515 0.48632
 N562 N -0.27995 0.39450 0.50336
 H563 H -0.20655 0.33258 0.48786
 H564 H -0.22152 0.41943 0.50068
 H565 H -0.17094 0.43033 0.49358
 H566 H -0.15636 0.34154 0.48017
 H567 H -0.25682 0.41410 0.53600
 H568 H -0.29131 0.45152 0.54237
 H569 H -0.34219 0.41557 0.47561
 H570 H -0.30633 0.37905 0.47079
 C571 C -0.27599 0.30825 0.42295
 C572 C -0.24779 0.30308 0.57473
 C573 C -0.32030 0.43671 0.50968
 C574 C -0.15966 0.38676 0.48611
 C575 C 0.25768 -0.19284 0.02437
 H576 H 0.25921 -0.20064 0.00375
 C577 C 0.26082 -0.21076 0.04488
 H578 H 0.26539 -0.23248 0.04002
 C579 C 0.24851 -0.15416 0.05424
 H580 H 0.24309 -0.13230 0.05758
 C581 C 0.25197 -0.17323 0.07769
 H582 H 0.24920 -0.16473 0.09801
 N583 N 0.25155 -0.16369 0.02953
 C584 C 0.28329 -0.16753 -0.03322
 H585 H 0.29749 -0.16134 -0.01650
 C586 C 0.29372 -0.18244 -0.05527
 H587 H 0.31608 -0.18737 -0.05538
 C588 C 0.23695 -0.16776 -0.05324
 H589 H 0.21491 -0.16177 -0.05228
 C590 C 0.24661 -0.18254 -0.07598
 H591 H 0.23182 -0.18808 -0.09246
 Zn592 Zn 0.24547 -0.14029 -0.00099
 N593 N 0.25534 -0.16086 -0.03238
 C594 C 0.29213 -0.10744 0.01888
 N595 N 0.27074 -0.10937 -0.00027
 C596 C 0.27185 -0.09515 -0.02406
 C597 C 0.29648 -0.08075 -0.03069
 C598 C 0.31707 -0.09285 0.01321
 C599 C 0.18852 -0.15178 0.00204
 C600 C 0.15962 -0.14686 0.00449
 C601 C 0.16816 -0.09754 -0.00388
 C602 C 0.19719 -0.10336 -0.00548
 N603 N 0.20672 -0.13015 -0.00230
 H604 H 0.29126 -0.11958 0.03729
 H605 H 0.25490 -0.09770 -0.03921
 H606 H 0.29783 -0.07138 -0.05061
 H607 H 0.33484 -0.09338 0.02765
 H608 H 0.19666 -0.17290 0.00437
 H609 H 0.14603 -0.16471 0.00826
 H610 H 0.16105 -0.07601 -0.00604
 H611 H 0.21209 -0.08643 -0.00876
 C612 C 0.27529 -0.19031 -0.07696
 C613 C 0.25762 -0.20072 0.07341
 C614 C 0.14895 -0.11932 0.00202
 C615 C 0.31999 -0.08089 -0.01252
 C616 C 0.27179 1.16674 0.45622
 H617 H 0.29289 1.16914 0.46519
 C618 C 0.26465 1.18037 0.43173
 H619 H 0.28035 1.19308 0.42181
 C620 C 0.22509 1.14855 0.45852
 H621 H 0.20943 1.13613 0.46853
 C622 C 0.21700 1.16217 0.43469
 H623 H 0.19536 1.16003 0.42695
 N624 N 0.25178 1.15179 0.46949
 C625 C 0.26979 1.15864 0.55747
 H626 H 0.26850 1.13674 0.56293
 C627 C 0.27146 1.17915 0.57801
 H628 H 0.27204 1.17262 0.59908
 C629 C 0.26855 1.19372 0.52358
 H630 H 0.26617 1.19937 0.50241
 C631 C 0.27036 1.21501 0.54356
 H632 H 0.26978 1.23678 0.53734
 Zn633 Zn 0.25778 1.13704 0.50536
 N634 N 0.26781 1.16613 0.53086
 C635 C 0.28336 1.08968 0.52806
 N636 N 0.28490 1.10744 0.50663
 C637 C 0.30486 1.10382 0.48741
 C638 C 0.32450 1.08181 0.48965
 C639 C 0.30222 1.06738 0.53090
 C640 C 0.20350 1.14307 0.52417
 C641 C 0.17469 1.13678 0.52475
 C642 C 0.18514 1.08891 0.51119
 C643 C 0.21382 1.09626 0.51034
 N644 N 0.22224 1.12320 0.51609
 H645 H 0.26718 1.09263 0.54294
 H646 H 0.30573 1.11807 0.47046
 H647 H 0.34045 1.07935 0.47439
 H648 H 0.30052 1.05401 0.54845
 H649 H 0.21059 1.16449 0.52793
 H650 H 0.15984 1.15328 0.52961
 H651 H 0.17839 1.06790 0.50497
 H652 H 0.22892 1.08110 0.50303
 C653 C 0.27112 1.20776 0.57124
 C654 C 0.23663 1.17886 0.42138
 C655 C 0.16521 1.10973 0.51714
 C656 C 0.32323 1.06315 0.51159
 C657 C 0.15083 0.45394 0.26366
 H658 H 0.15597 0.46945 0.27938
 C659 C 0.15890 0.42600 0.26722
 H660 H 0.17067 0.42009 0.28552
 C661 C 0.12629 0.44199 0.22226
 H662 H 0.11205 0.44780 0.20572
 C663 C 0.13437 0.41380 0.22482
 H664 H 0.12677 0.39829 0.20996
 N665 N 0.13398 0.46122 0.24197
 C666 C 0.13215 0.55324 0.25300
 H667 H 0.11054 0.55637 0.25912
 C668 C 0.15023 0.57649 0.25020
 H669 H 0.14244 0.59750 0.25419
 C670 C 0.16811 0.52218 0.23871
 H671 H 0.17479 0.50106 0.23364
 C672 C 0.18665 0.54477 0.23522
 H673 H 0.20766 0.54070 0.22784
 Zn674 Zn 0.11526 0.49618 0.24609
 N675 N 0.14125 0.52679 0.24695
 C676 C 0.10040 0.50713 0.30246
 N677 N 0.09612 0.49182 0.27908
 C678 C 0.07889 0.46881 0.27823
 C679 C 0.06530 0.46005 0.30136
 C680 C 0.08706 0.49902 0.32637
 C681 C 0.09628 0.49970 0.19094
 C682 C 0.07595 0.50005 0.16964
 C683 C 0.03971 0.50644 0.20290
 C684 C 0.06068 0.50571 0.22343
 N685 N 0.08822 0.50139 0.21726
 H686 H 0.11470 0.52502 0.30282
 H687 H 0.07614 0.45684 0.25944
 H688 H 0.05164 0.44173 0.29972
 H689 H 0.09090 0.51099 0.34503
 H690 H 0.11844 0.49693 0.18653
 H691 H 0.08297 0.49769 0.14892
 H692 H 0.01811 0.50932 0.20904
 H693 H 0.05477 0.50813 0.24441
 C694 C 0.17756 0.57240 0.24040
 C695 C 0.14989 0.40557 0.24806
 C696 C 0.04696 0.50274 0.17539
 C697 C 0.06969 0.47483 0.32605
 C698 C -0.16703 1.02731 0.26280
 H699 H -0.17102 1.00675 0.27103
 C700 C -0.18591 1.04915 0.26790
 H701 H -0.20451 1.04485 0.27960
 C702 C -0.13719 1.05826 0.23908
 H703 H -0.11748 1.06203 0.22899
 C704 C -0.15574 1.08071 0.24347
 H705 H -0.15030 1.10152 0.23640
 N706 N -0.14284 1.03228 0.24919
 C707 C -0.14266 0.95522 0.27236
 H708 H -0.14643 0.96771 0.29044
 C709 C -0.15029 0.92655 0.27162
 H710 H -0.16007 0.91716 0.28903
 C711 C -0.12464 0.95154 0.22798
 H712 H -0.11505 0.96099 0.21064
 C713 C -0.13146 0.92308 0.22656
 H714 H -0.12694 0.91132 0.20818
 Zn715 Zn -0.11390 1.00451 0.25115
 N716 N -0.12934 0.96699 0.25092
 C717 C -0.08092 1.03875 0.28565
 N718 N -0.09187 1.01226 0.28346
 C719 C -0.08716 0.99308 0.30347
 C720 C -0.07133 1.00058 0.32704
 C721 C -0.06494 1.04707 0.30872
 C722 C -0.06474 0.99159 0.22551
 C723 C -0.04869 0.98289 0.20363
 C724 C -0.08190 1.00610 0.17317
 C725 C -0.09773 1.01394 0.19578
 N726 N -0.08923 1.00598 0.22126
 H727 H -0.08469 1.05356 0.26943
 H728 H -0.09543 0.97192 0.30120
 H729 H -0.06780 0.98509 0.34277
 H730 H -0.05691 1.06843 0.30990
 H731 H -0.05878 0.98491 0.24585
 H732 H -0.02987 0.97069 0.20801
 H733 H -0.08968 1.01160 0.15297
 H734 H -0.11784 1.02442 0.19270
 C735 C -0.14376 0.91005 0.24877
 C736 C -0.17987 1.07647 0.25898
 C737 C -0.05773 0.98910 0.17679
 C738 C -0.05995 1.02789 0.32987
 C739 C 0.36019 0.53949 -0.23809
 H740 H 0.35884 0.52441 -0.22183
 C741 C 0.35601 0.56796 -0.23255
 H742 H 0.35108 0.57470 -0.21208
 C743 C 0.37001 0.54937 -0.28408
 H744 H 0.37672 0.54244 -0.30381
 C745 C 0.36508 0.57808 -0.27959
 H746 H 0.36759 0.59286 -0.29600
 N747 N 0.36765 0.53072 -0.26335
 C748 C 0.35382 0.43782 -0.26939
 H749 H 0.37463 0.43118 -0.27549
 C750 C 0.33298 0.41881 -0.26706
 H751 H 0.33723 0.39681 -0.27127
 C752 C 0.32383 0.47593 -0.25705
 H753 H 0.32039 0.49803 -0.25296
 C754 C 0.30043 0.45569 -0.25353
 H755 H 0.28034 0.46391 -0.24712
 Zn756 Zn 0.37967 0.49257 -0.26485
 N757 N 0.34877 0.46713 -0.26379
 C758 C 0.39815 0.47074 -0.21267
 N759 N 0.40333 0.48869 -0.23340
 C760 C 0.42598 0.50650 -0.23238
 C761 C 0.44530 0.50592 -0.21052
 C762 C 0.41675 0.46996 -0.18990
 C763 C 0.39361 0.49194 -0.32157
 C764 C 0.41295 0.49059 -0.34269
 C765 C 0.44745 0.47112 -0.31107
 C766 C 0.42771 0.47314 -0.29069
 N767 N 0.40192 0.48490 -0.29578
 H768 H 0.37964 0.45719 -0.21374
 H769 H 0.42917 0.52097 -0.24889
 H770 H 0.46336 0.52012 -0.21028
 H771 H 0.41270 0.45557 -0.17349
 H772 H 0.37242 0.49973 -0.32557
 H773 H 0.40659 0.49771 -0.36281
 H774 H 0.46797 0.46234 -0.30597
 H775 H 0.43342 0.46586 -0.27055
 C776 C 0.30469 0.42790 -0.25778
 C777 C 0.35889 0.58757 -0.25336
 C778 C 0.44068 0.48114 -0.33721
 C779 C 0.44090 0.48737 -0.18904
 C780 C 0.65794 -0.02116 -0.21267
 H781 H 0.65344 -0.00484 -0.19794
 C782 C 0.67546 -0.04186 -0.20571
 H783 H 0.68584 -0.04092 -0.18581
 C784 C 0.64854 -0.04088 -0.25695
 H785 H 0.63616 -0.04191 -0.27576
 C786 C 0.66850 -0.06398 -0.25037
 H787 H 0.67102 -0.08079 -0.26520
 N788 N 0.64334 -0.02158 -0.23870
 C789 C 0.60950 0.05620 -0.26119
 H790 H 0.59076 0.04793 -0.27160
 C791 C 0.62039 0.08192 -0.26928
 H792 H 0.60945 0.09279 -0.28567
 C793 C 0.64557 0.05216 -0.22707
 H794 H 0.65591 0.04023 -0.21116
 C795 C 0.65670 0.07855 -0.23391
 H796 H 0.67543 0.08649 -0.22301
 Zn797 Zn 0.61157 0.00236 -0.23985
 N798 N 0.62305 0.04098 -0.24156
 C799 C 0.58713 0.01119 -0.18685
 N800 N 0.59225 -0.00673 -0.20793
 C801 C 0.58581 -0.03461 -0.20662
 C802 C 0.57346 -0.04561 -0.18367
 C803 C 0.57473 0.00096 -0.16324
 C804 C 0.59746 -0.00287 -0.29626
 C805 C 0.57875 -0.00234 -0.31886
 C806 C 0.53978 -0.00842 -0.28860
 C807 C 0.55915 -0.00883 -0.26665
 N808 N 0.58735 -0.00543 -0.27070
 H809 H 0.59301 0.03317 -0.18817
 H810 H 0.59071 -0.04844 -0.22349
 H811 H 0.56900 -0.06796 -0.18328
 H812 H 0.57067 0.01534 -0.14654
 H813 H 0.61988 0.00063 -0.29895
 H814 H 0.58705 0.00093 -0.33892
 H815 H 0.51745 -0.01048 -0.28462
 H816 H 0.55137 -0.01019 -0.24623
 C817 C 0.64514 0.09293 -0.25646
 C818 C 0.68004 -0.06562 -0.22501
 C819 C 0.54944 -0.00417 -0.31503
 C820 C 0.56766 -0.02781 -0.16155
 C821 C 0.04298 0.24925 0.83506
 H822 H 0.04008 0.27156 0.83849
 C823 C 0.06579 0.23998 0.81981
 H824 H 0.08024 0.25536 0.81170
 C825 C 0.02878 0.20218 0.84276
 H826 H 0.01480 0.18742 0.85225
 C827 C 0.05131 0.19201 0.82772
 H828 H 0.05393 0.16948 0.82557
 N829 N 0.02588 0.23032 0.84732
 C830 C -0.05437 0.24569 0.88718
 H831 H -0.04641 0.24425 0.90799
 C832 C -0.08291 0.25151 0.88199
 H833 H -0.09688 0.25387 0.89896
 C834 C -0.04533 0.24536 0.83994
 H835 H -0.03032 0.24374 0.82375
 C836 C -0.07396 0.25080 0.83377
 H837 H -0.08096 0.25312 0.81273
 Zn838 Zn 0.00288 0.24222 0.87652
 N839 N -0.03609 0.24360 0.86635
 C840 C -0.00515 0.29924 0.89201
 N841 N 0.01476 0.27893 0.88871
 C842 C 0.04283 0.28472 0.89332
 C843 C 0.05174 0.31185 0.90122
 C844 C 0.00275 0.32632 0.90061
 C845 C -0.00677 0.19092 0.90299
 C846 C -0.00214 0.16987 0.92223
 C847 C 0.03082 0.20098 0.94633
 C848 C 0.02561 0.22139 0.92660
 N849 N 0.00750 0.21588 0.90514
 H850 H -0.02728 0.29466 0.88795
 H851 H 0.05836 0.26834 0.89051
 H852 H 0.07411 0.31616 0.90471
 H853 H -0.01344 0.34213 0.90324
 H854 H -0.02142 0.18715 0.88598
 H855 H -0.01329 0.14997 0.91981
 H856 H 0.04582 0.20585 0.96277
 H857 H 0.03655 0.24138 0.92821
 C858 C -0.09286 0.25489 0.85504
 C859 C 0.07103 0.21102 0.81724
 C860 C 0.01720 0.17458 0.94406
 C861 C 0.03147 0.33294 0.90502
 C862 C 0.47659 0.27609 0.17254
 H863 H 0.49369 0.29088 0.16948
 C864 C 0.45753 0.28104 0.19317
 H865 H 0.46062 0.29948 0.20607
 C866 C 0.45048 0.23581 0.15731
 H867 H 0.44723 0.21897 0.14251
 C868 C 0.43061 0.24022 0.17753
 H869 H 0.41244 0.22625 0.17854
 N870 N 0.47260 0.25403 0.15493
 C871 C 0.55081 0.25579 0.10947
 H872 H 0.54170 0.25502 0.08900
 C873 C 0.57994 0.25970 0.11348
 H874 H 0.59321 0.26148 0.09596
 C875 C 0.54427 0.25479 0.15712
 H876 H 0.53027 0.25300 0.17404
 C877 C 0.57337 0.25822 0.16207
 H878 H 0.58155 0.25922 0.18289
 Zn879 Zn 0.49418 0.25521 0.12325
 N880 N 0.53354 0.25472 0.13114
 C881 C 0.50435 0.30915 0.10039
 N882 N 0.48438 0.28980 0.10698
 C883 C 0.45622 0.29556 0.10444
 C884 C 0.44718 0.32183 0.09533
 C885 C 0.49623 0.33539 0.09058
 C886 C 0.49243 0.19830 0.10618
 C887 C 0.48951 0.17624 0.08714
 C888 C 0.47225 0.20971 0.05400
 C889 C 0.47554 0.23102 0.07357
 N890 N 0.48564 0.22507 0.09901
 H891 H 0.52659 0.30469 0.10326
 H892 H 0.44080 0.27992 0.11016
 H893 H 0.42470 0.32620 0.09370
 H894 H 0.51236 0.35067 0.08563
 H895 H 0.50087 0.19425 0.12646
 H896 H 0.49540 0.15511 0.09302
 H897 H 0.46469 0.21540 0.03386
 H898 H 0.47084 0.25249 0.06807
 C899 C 0.59138 0.26172 0.14009
 C900 C 0.43371 0.26345 0.19538
 C901 C 0.47959 0.18188 0.06054
 C902 C 0.46739 0.34209 0.08846
 C903 C -0.01047 0.77720 0.66101
 H904 H 0.01086 0.78566 0.66069
 C905 C -0.02801 0.78544 0.68030
 H906 H -0.02039 0.80077 0.69524
 C907 C -0.04497 0.74606 0.64040
 H908 H -0.05108 0.73013 0.62547
 C909 C -0.06526 0.75474 0.66117
 H910 H -0.08621 0.74525 0.66053
 N911 N -0.01956 0.75687 0.64071
 C912 C 0.06509 0.74513 0.63910
 H913 H 0.06937 0.76141 0.62457
 C914 C 0.08617 0.73743 0.65807
 H915 H 0.10672 0.74767 0.65766
 C916 C 0.03282 0.71293 0.65813
 H917 H 0.01169 0.70396 0.65831
 C918 C 0.05324 0.70457 0.67742
 H919 H 0.04753 0.68899 0.69220
 Zn920 Zn 0.00860 0.74510 0.61698
 N921 N 0.03902 0.73285 0.63951
 C922 C 0.03910 0.77025 0.57566
 N923 N 0.01940 0.77520 0.59476
 C924 C 0.00620 0.80051 0.59664
 C925 C 0.01287 0.82218 0.57896
 C926 C 0.04642 0.79134 0.55754
 C927 C 0.00770 0.69008 0.59451
 C928 C -0.00160 0.66879 0.57661
 C929 C -0.03616 0.70087 0.55738
 C930 C -0.02619 0.72157 0.57571
 N931 N -0.00479 0.71579 0.59387
 H932 H 0.04888 0.74973 0.57433
 H933 H -0.00994 0.80381 0.61148
 H934 H 0.00199 0.84212 0.58069
 H935 H 0.06212 0.78676 0.54252
 H936 H 0.02514 0.68612 0.60863
 H937 H 0.00871 0.64847 0.57739
 H938 H -0.05323 0.70599 0.54318
 H939 H -0.03541 0.74239 0.57543
 C940 C 0.08028 0.71709 0.67772
 C941 C -0.05721 0.77345 0.68080
 C942 C -0.02373 0.67405 0.55767
 C943 C 0.03310 0.81772 0.55899
 C944 C 0.52322 0.78745 0.33379
 H945 H 0.50890 0.80353 0.34081
 C946 C 0.54343 0.79409 0.31468
 H947 H 0.54426 0.81530 0.30689
 C948 C 0.54090 0.74094 0.33729
 H949 H 0.54044 0.72059 0.34691
 C950 C 0.56187 0.74687 0.31861
 H951 H 0.57709 0.73079 0.31350
 N952 N 0.52226 0.76125 0.34461
 C953 C 0.44117 0.76188 0.38512
 H954 H 0.44816 0.75450 0.40495
 C955 C 0.41266 0.76806 0.38023
 H956 H 0.39776 0.76558 0.39642
 C957 C 0.45195 0.77276 0.33957
 H958 H 0.46721 0.77404 0.32365
 C959 C 0.42340 0.77832 0.33355
 H960 H 0.41690 0.78429 0.31310
 Zn961 Zn 0.49844 0.75616 0.37445
 N962 N 0.46033 0.76521 0.36519
 C963 C 0.49571 0.79984 0.41434
 N964 N 0.51304 0.78112 0.40198
 C965 C 0.54174 0.78445 0.40347
 C966 C 0.55385 0.80861 0.41568
 C967 C 0.50694 0.82384 0.42730
 C968 C 0.48641 0.70096 0.36445
 C969 C 0.47975 0.67303 0.36971
 C970 C 0.49698 0.68007 0.41612
 C971 C 0.50329 0.70817 0.40994
 N972 N 0.49748 0.71801 0.38449
 H973 H 0.47303 0.79756 0.41255
 H974 H 0.55511 0.76959 0.39309
 H975 H 0.57657 0.81172 0.41522
 H976 H 0.49258 0.83917 0.43571
 H977 H 0.48178 0.70948 0.34449
 H978 H 0.47073 0.66012 0.35334
 H979 H 0.50091 0.67256 0.43661
 H980 H 0.51168 0.72234 0.42563
 C981 C 0.40358 0.77648 0.35419
 C982 C 0.56336 0.77378 0.30723
 C983 C 0.48430 0.66239 0.39600
 C984 C 0.53617 0.82918 0.42681
 Zr985 Zr 0.00967 -0.03916 1.03468
 O986 O 0.04008 -0.04047 1.06722
 O987 O -0.00877 -0.07955 1.03730
 O988 O -0.00919 -0.04100 1.07301
 O989 O 0.06041 -0.05287 0.98634
 O990 O -0.04223 -0.00599 1.07261
 O991 O 0.04288 -0.06728 1.02684
 O992 O -0.04212 -0.07956 1.00280
 O993 O -0.03323 -0.03174 1.02559
 O994 O 0.00393 -0.04894 0.99329
 O995 O 0.00326 0.00360 1.04439
 O996 O 0.03892 -0.01360 1.01425
 Zr997 Zr -0.01786 0.02815 0.97155
 Zr998 Zr -0.03929 0.01137 1.03335
 Zr999 Zr 0.03112 -0.02218 0.97260
 Zr1000 Zr -0.03821 -0.04009 0.98387
 O1001 O 0.07303 -0.00802 0.96641
 O1002 O -0.08116 -0.04486 0.99466
 O1003 O -0.01134 -0.01452 0.96107
 O1004 O -0.04664 0.00238 0.99187
 O1005 O -0.01212 0.03844 1.01281
 O1006 O 0.02486 0.02055 0.98075
 C1007 C -0.02901 -0.09121 1.02305
 C1008 C 0.06066 -0.06876 1.00745
 C1009 C -0.02820 -0.02583 1.08442
 O1010 O -0.08163 -0.00220 1.03797
 O1011 O -0.06692 0.04417 1.02090
 O1012 O -0.04950 0.05749 0.98008
 C1013 C -0.06681 0.05991 0.99969
 O1014 O 0.05942 0.01850 1.05412
 Zr1015 Zr 0.03019 0.02907 1.02216
 O1016 O -0.00054 0.06907 0.97009
 O1017 O -0.03698 0.04392 1.06314
 O1018 O 0.02364 0.05754 1.05497
 O1019 O 0.07207 0.03739 1.00972
 O1020 O 0.03036 0.07027 1.00663
 C1021 C 0.01736 0.08180 0.98628
 O1022 O -0.04906 0.02972 0.93972
 O1023 O 0.02963 -0.05572 0.94382
 O1024 O -0.00038 0.02968 0.93282
 O1025 O 0.03232 -0.00560 0.93269
 O1026 O -0.03175 -0.07163 0.95376
 O1027 O -0.06333 -0.03154 0.94834
 C1028 C 0.01835 0.01452 0.92114
 H1029 H 0.00797 -0.06891 0.98894
 H1030 H -0.06646 0.00636 0.98604
 H1031 H 0.03777 0.03229 0.97002
 H1032 H 0.00732 0.00762 1.06393
 H1033 H -0.08803 -0.06313 0.98694
 H1034 H -0.08958 0.00970 1.05257
 H1035 H -0.05595 0.04510 1.07122
 H1036 H 0.03946 0.07137 1.05534
 H1037 H -0.04826 -0.08464 0.95387
 H1038 H 0.04850 -0.05636 0.93547
 H1039 H 0.08048 -0.01963 0.95134
 H1040 H 0.07820 0.05549 1.01833
 H1041 H -0.07729 -0.04696 0.94512
 H1042 H -0.04799 0.04869 0.93150
 H1043 H 0.03873 -0.05938 1.07553
 H1044 H 0.07057 0.03542 1.05976
 Zr1045 Zr 0.52777 0.48925 0.52761
 O1046 O 0.55211 0.51464 0.55542
 O1047 O 0.53438 0.44916 0.54415
 O1048 O 0.51105 0.48923 0.56668
 O1049 O 0.57914 0.47989 0.47921
 O1050 O 0.46456 0.50111 0.56034
 O1051 O 0.57149 0.48294 0.52484
 O1052 O 0.50294 0.42162 0.51962
 O1053 O 0.48659 0.47289 0.52367
 O1054 O 0.52777 0.46256 0.49346
 O1055 O 0.50130 0.52455 0.52413
 O1056 O 0.54108 0.51457 0.49534
 Zr1057 Zr 0.47100 0.50679 0.45121
 Zr1058 Zr 0.46031 0.50798 0.51793
 Zr1059 Zr 0.53867 0.48783 0.46093
 Zr1060 Zr 0.48628 0.44782 0.48868
 O1061 O 0.56893 0.51517 0.44412
 O1062 O 0.45146 0.42916 0.50808
 O1063 O 0.49749 0.47125 0.45453
 O1064 O 0.45818 0.48148 0.48342
 O1065 O 0.47101 0.53367 0.48522
 O1066 O 0.51234 0.52264 0.45543
 C1067 C 0.52194 0.42551 0.53862
 C1068 C 0.58761 0.47963 0.50442
 C1069 C 0.48602 0.49374 0.57537
 O1070 O 0.42637 0.48192 0.52974
 O1071 O 0.42181 0.52289 0.50055
 O1072 O 0.42843 0.51916 0.45481
 C1073 C 0.41323 0.52484 0.47552
 O1074 O 0.54233 0.56499 0.51954
 Zr1075 Zr 0.51266 0.54817 0.49021
 O1076 O 0.46755 0.54649 0.43309
 O1077 O 0.44946 0.54542 0.53888
 O1078 O 0.49109 0.58058 0.51110
 O1079 O 0.54659 0.56828 0.47056
 O1080 O 0.49533 0.57524 0.46030
 C1081 C 0.47852 0.57060 0.43963
 O1082 O 0.44229 0.48333 0.42574
 O1083 O 0.55332 0.44915 0.44492
 O1084 O 0.48580 0.49920 0.41186
 O1085 O 0.53207 0.48631 0.41820
 O1086 O 0.50661 0.41444 0.46812
 O1087 O 0.45792 0.42696 0.46081
 C1088 C 0.50989 0.49106 0.40307
 H1089 H 0.54141 0.44686 0.49509
 H1090 H 0.43871 0.47412 0.47997
 H1091 H 0.51836 0.53329 0.43936
 H1092 H 0.50261 0.53633 0.54090
 H1093 H 0.45413 0.40847 0.50727
 H1094 H 0.41475 0.49331 0.54220
 H1095 H 0.43172 0.54137 0.54846
 H1096 H 0.49819 0.59881 0.50432
 H1097 H 0.49879 0.39666 0.47527
 H1098 H 0.57076 0.45346 0.43495
 H1099 H 0.58142 0.50327 0.43297
 H1100 H 0.54361 0.58889 0.47204
 H1101 H 0.46231 0.43385 0.44245
 H1102 H 0.43480 0.49615 0.41145
 H1103 H 0.56077 0.50198 0.56925
 H1104 H 0.54233 0.58581 0.51856
 Zr1105 Zr 0.47213 1.00720 0.53993
 O1106 O 0.44763 0.98192 0.56577
 O1107 O 0.46258 1.04757 0.55453
 O1108 O 0.48694 1.00889 0.58069
 O1109 O 0.42254 1.01084 0.48621
 O1110 O 0.53421 0.99914 0.57887
 O1111 O 0.42826 1.01149 0.53258
 O1112 O 0.49086 1.07670 0.53041
 O1113 O 0.51182 1.02700 0.53879
 O1114 O 0.47128 1.03109 0.50448
 O1115 O 0.50184 0.97439 0.54040
 O1116 O 0.46224 0.97849 0.50795
 Zr1117 Zr 0.53302 0.98941 0.46934
 Zr1118 Zr 0.54142 0.99415 0.53682
 Zr1119 Zr 0.46385 1.00263 0.47239
 Zr1120 Zr 0.51112 1.04951 0.50252
 O1121 O 0.43535 0.97175 0.45626
 O1122 O 0.54352 1.07209 0.52434
 O1123 O 0.50338 1.02262 0.46855
 O1124 O 0.54218 1.01824 0.50135
 O1125 O 0.53424 0.96531 0.50474
 O1126 O 0.49329 0.96996 0.47125
 C1127 C 0.47218 1.07204 0.54848
 C1128 C 0.41305 1.01306 0.51050
 C1129 C 0.51151 1.00457 0.59188
 O1130 O 0.57040 1.02486 0.55242
 O1131 O 0.58242 0.98456 0.52276
 O1132 O 0.57672 0.98413 0.47641
 C1133 C 0.59196 0.98256 0.49846
 O1134 O 0.46368 0.93066 0.53405
 Zr1135 Zr 0.49383 0.94744 0.50718
 O1136 O 0.54367 0.94856 0.45604
 O1137 O 0.55677 0.95852 0.55795
 O1138 O 0.51610 0.91861 0.53243
 O1139 O 0.46361 0.92240 0.48495
 O1140 O 0.51608 0.92005 0.48157
 C1141 C 0.53465 0.92421 0.46338
 O1142 O 0.55756 1.01507 0.44388
 O1143 O 0.44832 1.03842 0.45164
 O1144 O 0.51853 0.98786 0.42842
 O1145 O 0.47146 0.99850 0.43035
 O1146 O 0.48835 1.08001 0.47965
 O1147 O 0.53748 1.06749 0.47285
 C1148 C 0.49389 0.99208 0.41732
 H1149 H 0.45654 1.04583 0.50416
 H1150 H 0.56084 1.02749 0.49929
 H1151 H 0.48903 0.95689 0.45581
 H1152 H 0.50088 0.96338 0.55735
 H1153 H 0.53895 1.09239 0.52307
 H1154 H 0.58316 1.01514 0.56559
 H1155 H 0.57345 0.96492 0.56913
 H1156 H 0.51088 0.89936 0.52599
 H1157 H 0.49448 1.09885 0.48655
 H1158 H 0.43166 1.03204 0.44042
 H1159 H 0.42299 0.98133 0.44264
 H1160 H 0.46853 0.90239 0.48801
 H1161 H 0.54047 1.08775 0.47707
 H1162 H 0.56779 1.00243 0.43131
 H1163 H 0.43758 0.99475 0.57830
 H1164 H 0.46500 0.90985 0.53403
 Zr1165 Zr -0.03452 0.49835 1.03468
 O1166 O -0.05850 0.47006 1.05800
 O1167 O -0.04379 0.53671 1.05377
 O1168 O -0.01934 0.49702 1.07527
 O1169 O -0.08419 0.50888 0.98227
 O1170 O 0.02815 0.48916 1.07221
 O1171 O -0.07834 0.50338 1.02824
 O1172 O -0.01456 0.56812 1.03348
 O1173 O 0.00549 0.51753 1.03555
 O1174 O -0.03496 0.52665 1.00243
 O1175 O -0.00559 0.46514 1.03130
 O1176 O -0.04508 0.47408 0.99960
 Zr1177 Zr 0.02583 0.48896 0.96252
 Zr1178 Zr 0.03433 0.48464 1.02991
 Zr1179 Zr -0.04306 0.50259 0.96729
 Zr1180 Zr 0.00532 0.54458 1.00252
 O1181 O -0.07164 0.47428 0.94716
 O1182 O 0.03814 0.56354 1.02688
 O1183 O -0.00317 0.52239 0.96581
 O1184 O 0.03589 0.51313 0.99765
 O1185 O 0.02635 0.46039 0.99460
 O1186 O -0.01423 0.46995 0.96190
 C1187 C -0.03340 0.56154 1.05084
 C1188 C -0.09358 0.50784 1.00662
 C1189 C 0.00570 0.49393 1.08584
 O1190 O 0.06641 0.51185 1.04611
 O1191 O 0.07379 0.47181 1.01453
 O1192 O 0.06883 0.47959 0.96887
 C1193 C 0.08327 0.47229 0.99018
 O1194 O -0.04441 0.42290 1.01959
 Zr1195 Zr -0.01418 0.44284 0.99486
 O1196 O 0.03457 0.45038 0.94310
 O1197 O 0.04685 0.44715 1.04968
 O1198 O 0.00794 0.41070 1.01606
 O1199 O -0.04500 0.42135 0.97001
 O1200 O 0.00744 0.41882 0.96570
 C1201 C 0.02556 0.42529 0.94768
 O1202 O 0.05263 0.51680 0.94155
 O1203 O -0.05861 0.54103 0.95160
 O1204 O 0.01196 0.49625 0.92218
 O1205 O -0.03544 0.50490 0.92522
 O1206 O -0.01657 0.57845 0.98379
 O1207 O 0.03201 0.56568 0.97509
 C1208 C -0.01256 0.50229 0.91175
 H1209 H -0.04950 0.54149 1.00391
 H1210 H 0.05494 0.52183 0.99649
 H1211 H -0.01865 0.45947 0.94474
 H1212 H -0.00673 0.45243 1.04708
 H1213 H 0.03402 0.58395 1.02807
 H1214 H 0.07845 0.50042 1.05855
 H1215 H 0.06393 0.45187 1.06107
 H1216 H 0.00247 0.39249 1.00728
 H1217 H -0.00986 0.59608 0.99294
 H1218 H -0.07552 0.53632 0.93997
 H1219 H -0.08411 0.48579 0.93519
 H1220 H -0.04036 0.40102 0.97043
 H1221 H 0.03583 0.58509 0.98190
 H1222 H 0.06226 0.50567 0.92732
 H1223 H -0.06843 0.48139 1.07188
 H1224 H -0.04325 0.40222 1.01706
 Zr1225 Zr -0.01382 0.46233 0.46231
 O1226 O -0.04112 0.46081 0.42731
 O1227 O 0.00508 0.42236 0.46081
 O1228 O 0.00921 0.45840 0.42660
 O1229 O -0.06806 0.44867 0.50619
 O1230 O 0.04091 0.49490 0.42847
 O1231 O -0.04779 0.43424 0.46677
 O1232 O 0.03778 0.42410 0.49589
 O1233 O 0.02826 0.47093 0.47402
 O1234 O -0.01049 0.45263 0.50359
 O1235 O -0.00752 0.50505 0.45329
 O1236 O -0.04461 0.48732 0.48127
 Zr1237 Zr 0.00916 0.53045 0.52782
 Zr1238 Zr 0.03409 0.51392 0.46687
 Zr1239 Zr -0.03925 0.47889 0.52293
 Zr1240 Zr 0.03096 0.46283 0.51566
 O1241 O -0.08127 0.49294 0.52810
 O1242 O 0.07490 0.45932 0.50832
 O1243 O 0.00238 0.48771 0.53704
 O1244 O 0.03930 0.50530 0.50852
 O1245 O 0.00562 0.54059 0.48653
 O1246 O -0.03295 0.52179 0.51617
 C1247 C 0.02562 0.41195 0.47515
 C1248 C -0.06725 0.43314 0.48454
 C1249 C 0.02935 0.47313 0.41675
 O1250 O 0.07726 0.50245 0.46480
 O1251 O 0.06013 0.54757 0.48084
 O1252 O 0.04202 0.55974 0.52192
 C1253 C 0.06007 0.56238 0.50293
 O1254 O -0.06275 0.51917 0.44056
 Zr1255 Zr -0.03600 0.53013 0.47466
 O1256 O -0.00933 0.57051 0.52912
 O1257 O 0.03241 0.54546 0.43682
 O1258 O -0.02739 0.55915 0.44340
 O1259 O -0.07897 0.53663 0.48453
 O1260 O -0.03876 0.57105 0.49148
 C1261 C -0.02700 0.58266 0.51275
 O1262 O 0.03830 0.53423 0.56135
 O1263 O -0.03985 0.44461 0.55009
 O1264 O -0.00964 0.52979 0.56619
 O1265 O -0.04197 0.49382 0.56341
 O1266 O 0.02276 0.43079 0.54417
 O1267 O 0.05296 0.47257 0.55298
 C1268 C -0.02821 0.51339 0.57656
 H1269 H -0.01472 0.43257 0.50712
 H1270 H 0.05876 0.50970 0.51542
 H1271 H -0.04659 0.53305 0.52664
 H1272 H -0.01009 0.50844 0.43352
 H1273 H 0.08159 0.44157 0.51670
 H1274 H 0.08562 0.51404 0.45037
 H1275 H 0.05184 0.54729 0.42985
 H1276 H -0.04335 0.57261 0.44241
 H1277 H 0.03958 0.41838 0.54494
 H1278 H -0.05938 0.44333 0.55690
 H1279 H -0.08971 0.48064 0.54191
 H1280 H -0.08509 0.55449 0.47598
 H1281 H 0.06632 0.45720 0.55751
 H1282 H 0.03574 0.55314 0.56979
 H1283 H -0.03921 0.44186 0.41882
 H1284 H -0.07350 0.53595 0.43455
 Zr1285 Zr 0.48044 -0.03474 -0.02876
 O1286 O 0.45794 -0.03403 -0.06673
 O1287 O 0.49032 -0.07801 -0.02681
 O1288 O 0.50583 -0.04389 -0.06222
 O1289 O 0.41989 -0.03488 0.01024
 O1290 O 0.54289 -0.01287 -0.05822
 O1291 O 0.43955 -0.05257 -0.02829
 O1292 O 0.51786 -0.08083 0.01195
 O1293 O 0.52210 -0.03360 -0.01311
 O1294 O 0.47737 -0.04278 0.01278
 O1295 O 0.49582 0.00566 -0.03783
 O1296 O 0.45354 -0.00337 -0.01325
 Zr1297 Zr 0.50944 0.03172 0.03706
 Zr1298 Zr 0.53683 0.00738 -0.02037
 Zr1299 Zr 0.45279 -0.01050 0.02885
 Zr1300 Zr 0.51866 -0.03988 0.02870
 O1301 O 0.41403 0.01167 0.03003
 O1302 O 0.56126 -0.05287 0.02439
 O1303 O 0.49376 -0.00867 0.04661
 O1304 O 0.53574 0.00001 0.02160
 O1305 O 0.51224 0.04010 -0.00450
 O1306 O 0.46779 0.03010 0.02148
 C1307 C 0.50572 -0.09171 -0.00948
 C1308 C 0.41870 -0.04914 -0.01224
 C1309 C 0.52858 -0.03237 -0.07088
 O1310 O 0.57661 -0.01295 -0.01837
 O1311 O 0.56793 0.03571 -0.00459
 O1312 O 0.54873 0.05281 0.03437
 C1313 C 0.56890 0.05089 0.01730
 O1314 O 0.44569 0.02884 -0.05618
 Zr1315 Zr 0.47072 0.03662 -0.02017
 O1316 O 0.49877 0.07485 0.03546
 O1317 O 0.54487 0.03784 -0.05033
 O1318 O 0.48803 0.06177 -0.05108
 O1319 O 0.42892 0.05165 -0.01508
 O1320 O 0.47396 0.07801 -0.00489
 C1321 C 0.48502 0.08879 0.01708
 O1322 O 0.53445 0.03142 0.07361
 O1323 O 0.44271 -0.04298 0.05617
 O1324 O 0.48608 0.03791 0.07246
 O1325 O 0.44970 0.00605 0.06875
 O1326 O 0.50117 -0.06670 0.05819
 O1327 O 0.53995 -0.03319 0.06698
 C1328 C 0.46449 0.02492 0.08186
 H1329 H 0.46856 -0.06132 0.01628
 H1330 H 0.55493 0.00076 0.03026
 H1331 H 0.45544 0.04424 0.03009
 H1332 H 0.49579 0.00875 -0.05772
 H1333 H 0.56346 -0.07123 0.03360
 H1334 H 0.58860 -0.00386 -0.03203
 H1335 H 0.56483 0.03535 -0.05563
 H1336 H 0.47516 0.07794 -0.05401
 H1337 H 0.51439 -0.08264 0.06088
 H1338 H 0.42277 -0.04007 0.06131
 H1339 H 0.40230 0.00221 0.04367
 H1340 H 0.42725 0.06974 -0.02486
 H1341 H 0.54935 -0.05082 0.07277
 H1342 H 0.53491 0.05092 0.08117
 H1343 H 0.45687 -0.05367 -0.07392
 H1344 H 0.43963 0.04698 -0.06413
 Zr1345 Zr 0.52203 0.50494 -0.04733
 O1346 O 0.54971 0.47792 -0.06843
 O1347 O 0.52435 0.54182 -0.07025
 O1348 O 0.50682 0.49640 -0.08706
 O1349 O 0.57176 0.52611 0.00251
 O1350 O 0.46044 0.48389 -0.08238
 O1351 O 0.56442 0.51829 -0.04312
 O1352 O 0.49406 0.57179 -0.04917
 O1353 O 0.48024 0.51939 -0.04788
 O1354 O 0.52034 0.53560 -0.01663
 O1355 O 0.49692 0.46901 -0.04124
 O1356 O 0.53622 0.48464 -0.01157
 Zr1357 Zr 0.46536 0.49480 0.02718
 Zr1358 Zr 0.45528 0.48400 -0.03966
 Zr1359 Zr 0.53230 0.51527 0.01929
 Zr1360 Zr 0.47852 0.54882 -0.01611
 O1361 O 0.56490 0.49172 0.03857
 O1362 O 0.44290 0.56238 -0.03966
 O1363 O 0.49069 0.53080 0.02137
 O1364 O 0.45168 0.51468 -0.00882
 O1365 O 0.46670 0.46378 -0.00338
 O1366 O 0.50707 0.48016 0.02725
 C1367 C 0.51160 0.56555 -0.06789
 C1368 C 0.57989 0.52608 -0.02235
 C1369 C 0.48226 0.48906 -0.09678
 O1370 O 0.42104 0.50652 -0.05742
 O1371 O 0.41724 0.46977 -0.02233
 O1372 O 0.42319 0.48077 0.02288
 C1373 C 0.40852 0.47116 0.00230
 O1374 O 0.54037 0.43215 -0.02845
 Zr1375 Zr 0.50873 0.45064 -0.00412
 O1376 O 0.46037 0.45723 0.04835
 O1377 O 0.44551 0.44342 -0.05571
 O1378 O 0.49003 0.41462 -0.02339
 O1379 O 0.54172 0.43446 0.02131
 O1380 O 0.48936 0.42667 0.02633
 C1381 C 0.47101 0.43274 0.04439
 O1382 O 0.43736 0.52178 0.04792
 O1383 O 0.54358 0.55618 0.03350
 O1384 O 0.48031 0.50510 0.06690
 O1385 O 0.52651 0.51821 0.06168
 O1386 O 0.49746 0.58645 -0.00038
 O1387 O 0.45107 0.56870 0.01169
 C1388 C 0.50476 0.51345 0.07625
 H1389 H 0.53277 0.55208 -0.01960
 H1390 H 0.43193 0.52139 -0.00751
 H1391 H 0.51301 0.47119 0.04457
 H1392 H 0.49901 0.45510 -0.05622
 H1393 H 0.44474 0.58303 -0.04178
 H1394 H 0.40970 0.49274 -0.06851
 H1395 H 0.42770 0.44522 -0.06673
 H1396 H 0.49742 0.39784 -0.01376
 H1397 H 0.48830 0.60242 -0.00994
 H1398 H 0.56131 0.55425 0.04460
 H1399 H 0.57640 0.50522 0.04983
 H1400 H 0.53883 0.41380 0.02229
 H1401 H 0.44496 0.58710 0.00434
 H1402 H 0.42921 0.51087 0.06297
 H1403 H 0.55767 0.48880 -0.08359
 H1404 H 0.54186 0.41183 -0.02436
 Zr1405 Zr 0.02435 1.03224 0.47222
 O1406 O 0.05431 1.03394 0.44097
 O1407 O 0.00762 1.07284 0.47124
 O1408 O 0.00412 1.03833 0.43405
 O1409 O 0.07499 1.04321 0.52360
 O1410 O -0.02960 1.00369 0.43088
 O1411 O 0.05787 1.05983 0.48290
 O1412 O -0.02504 1.07268 0.50464
 O1413 O -0.01867 1.02518 0.47883
 O1414 O 0.01878 1.04008 0.51367
 O1415 O 0.01688 0.99035 0.45977
 O1416 O 0.05310 1.00549 0.49286
 Zr1417 Zr -0.00466 0.96216 0.53055
 Zr1418 Zr -0.02566 0.98272 0.46852
 Zr1419 Zr 0.04529 1.01212 0.53434
 Zr1420 Zr -0.02354 1.03145 0.52055
 O1421 O 0.08672 0.99678 0.54219
 O1422 O -0.06586 1.03803 0.50652
 O1423 O 0.00272 1.00426 0.54333
 O1424 O -0.03279 0.98948 0.51002
 O1425 O 0.00080 0.95408 0.48908
 O1426 O 0.03817 0.96994 0.52384
 C1427 C -0.01123 1.08473 0.48570
 C1428 C 0.07544 1.06025 0.50341
 C1429 C -0.01618 1.02497 0.42137
 O1430 O -0.06817 0.99592 0.46285
 O1431 O -0.05355 0.94955 0.47765
 O1432 O -0.03696 0.93336 0.51869
 C1433 C -0.05415 0.93262 0.49787
 O1434 O 0.07223 0.97507 0.45195
 Zr1435 Zr 0.04329 0.96345 0.48230
 O1436 O 0.01266 0.92142 0.53130
 O1437 O -0.02380 0.95254 0.43661
 O1438 O 0.03531 0.93620 0.44838
 O1439 O 0.08536 0.95469 0.49589
 O1440 O 0.04385 0.92182 0.49665
 C1441 C 0.03097 0.90959 0.51601
 O1442 O -0.03595 0.95883 0.56045
 O1443 O 0.04513 1.04439 0.56446
 O1444 O 0.01299 0.95908 0.57028
 O1445 O 0.04555 0.99481 0.57371
 O1446 O -0.01637 1.06014 0.55349
 O1447 O -0.05001 1.02141 0.55342
 C1448 C 0.03161 0.97413 0.58364
 H1449 H 0.02346 1.05965 0.51943
 H1450 H -0.05271 0.98539 0.51452
 H1451 H 0.05098 0.95777 0.53478
 H1452 H 0.02043 0.98767 0.44014
 H1453 H -0.07226 1.05603 0.51464
 H1454 H -0.07612 0.98533 0.44685
 H1455 H -0.04289 0.95187 0.42766
 H1456 H 0.05080 0.92219 0.44811
 H1457 H -0.03218 1.07381 0.55316
 H1458 H 0.06424 1.04470 0.57337
 H1459 H 0.09464 1.00780 0.55792
 H1460 H 0.09131 0.93715 0.48658
 H1461 H -0.06358 1.03694 0.55629
 H1462 H -0.03477 0.93954 0.56797
 H1463 H 0.05371 1.05325 0.43347
 H1464 H 0.08233 0.95813 0.44551
 Zr1465 Zr 0.74385 0.28148 0.20879
 O1466 O 0.77117 0.30683 0.18572
 O1467 O 0.70597 0.28315 0.18544
 O1468 O 0.74906 0.26437 0.16990
 O1469 O 0.72680 0.33345 0.25576
 O1470 O 0.76156 0.21868 0.17737
 O1471 O 0.73321 0.32426 0.21063
 O1472 O 0.67682 0.25275 0.20717
 O1473 O 0.72881 0.24010 0.21066
 O1474 O 0.71374 0.28137 0.23912
 O1475 O 0.77986 0.25667 0.21648
 O1476 O 0.76548 0.29682 0.24407
 Zr1477 Zr 0.75593 0.22810 0.28643
 Zr1478 Zr 0.76427 0.21552 0.22031
 Zr1479 Zr 0.73542 0.29434 0.27473
 Zr1480 Zr 0.70010 0.23980 0.24202
 O1481 O 0.75999 0.32627 0.29460
 O1482 O 0.68484 0.20314 0.22120
 O1483 O 0.71976 0.25308 0.27883
 O1484 O 0.73438 0.21336 0.25104
 O1485 O 0.78623 0.22810 0.25617
 O1486 O 0.77071 0.26962 0.28449
 C1487 C 0.68256 0.26946 0.18763
 C1488 C 0.72744 0.34083 0.23058
 C1489 C 0.75488 0.23936 0.16171
 O1490 O 0.74070 0.18081 0.20416
 O1491 O 0.77775 0.17793 0.23921
 O1492 O 0.77004 0.18615 0.28426
 C1493 C 0.77760 0.17034 0.26428
 O1494 O 0.81779 0.29993 0.22706
 Zr1495 Zr 0.79961 0.26988 0.25325
 O1496 O 0.79393 0.22668 0.30964
 O1497 O 0.80448 0.20542 0.20502
 O1498 O 0.83499 0.25010 0.23564
 O1499 O 0.81689 0.30405 0.27660
 O1500 O 0.82463 0.25307 0.28533
 C1501 C 0.81856 0.23731 0.30549
 O1502 O 0.73059 0.19964 0.30828
 O1503 O 0.69457 0.30743 0.28610
 O1504 O 0.74377 0.24351 0.32458
 O1505 O 0.73079 0.28912 0.31706
 O1506 O 0.66312 0.26008 0.25579
 O1507 O 0.68054 0.21438 0.27155
 C1508 C 0.73445 0.26758 0.33246
 H1509 H 0.69752 0.29393 0.23506
 H1510 H 0.72738 0.19386 0.25338
 H1511 H 0.77972 0.27637 0.30183
 H1512 H 0.79325 0.25800 0.20138
 H1513 H 0.66400 0.20497 0.21895
 H1514 H 0.75392 0.16932 0.19338
 H1515 H 0.80202 0.18758 0.19453
 H1516 H 0.85230 0.25797 0.24486
 H1517 H 0.64663 0.25086 0.24637
 H1518 H 0.69720 0.32510 0.29685
 H1519 H 0.74656 0.33834 0.30451
 H1520 H 0.83775 0.30162 0.27763
 H1521 H 0.66126 0.20889 0.26488
 H1522 H 0.74217 0.19281 0.32404
 H1523 H 0.75983 0.31430 0.17010
 H1524 H 0.83846 0.30132 0.23101
 Zr1525 Zr 0.79834 0.75278 0.72197
 O1526 O 0.78994 0.72908 0.68575
 O1527 O 0.84176 0.76219 0.71833
 O1528 O 0.80339 0.77689 0.68691
 O1529 O 0.80450 0.69305 0.76190
 O1530 O 0.77493 0.81509 0.69259
 O1531 O 0.81772 0.71341 0.72229
 O1532 O 0.85171 0.78992 0.75561
 O1533 O 0.80161 0.79418 0.73649
 O1534 O 0.81265 0.74949 0.76241
 O1535 O 0.75743 0.76939 0.71656
 O1536 O 0.76848 0.72675 0.74100
 Zr1537 Zr 0.74463 0.78376 0.79332
 Zr1538 Zr 0.76042 0.81032 0.73284
 Zr1539 Zr 0.78212 0.72560 0.78212
 Zr1540 Zr 0.81422 0.79056 0.77747
 O1541 O 0.75875 0.68761 0.78455
 O1542 O 0.82800 0.83274 0.77243
 O1543 O 0.78531 0.76643 0.79916
 O1544 O 0.77438 0.80908 0.77384
 O1545 O 0.72982 0.78694 0.75295
 O1546 O 0.74121 0.74237 0.77875
 C1547 C 0.85849 0.77779 0.73326
 C1548 C 0.81709 0.69273 0.73887
 C1549 C 0.79177 0.79975 0.67851
 O1550 O 0.78253 0.84912 0.73159
 O1551 O 0.73527 0.84169 0.75114
 O1552 O 0.72507 0.82328 0.79254
 C1553 C 0.72430 0.84304 0.77485
 O1554 O 0.73038 0.71819 0.70366
 Zr1555 Zr 0.72831 0.74562 0.73806
 O1556 O 0.70094 0.77649 0.79630
 O1557 O 0.72563 0.81914 0.70624
 O1558 O 0.70042 0.76087 0.70702
 O1559 O 0.70939 0.70666 0.74829
 O1560 O 0.68924 0.75614 0.75520
 C1561 C 0.68289 0.76743 0.77815
 O1562 O 0.75271 0.80825 0.82913
 O1563 O 0.81746 0.71478 0.80726
 O1564 O 0.74215 0.76087 0.82941
 O1565 O 0.76965 0.72203 0.82327
 O1566 O 0.84618 0.77263 0.80297
 O1567 O 0.81355 0.81058 0.81639
 C1568 C 0.75400 0.73814 0.83790
 H1569 H 0.83154 0.74059 0.76417
 H1570 H 0.77578 0.82816 0.78214
 H1571 H 0.72749 0.73116 0.78907
 H1572 H 0.75139 0.76921 0.69710
 H1573 H 0.84768 0.83422 0.77995
 H1574 H 0.77158 0.86126 0.71889
 H1575 H 0.72806 0.83885 0.70026
 H1576 H 0.68331 0.74865 0.70652
 H1577 H 0.86233 0.78607 0.80399
 H1578 H 0.81455 0.69496 0.81271
 H1579 H 0.76961 0.67532 0.79717
 H1580 H 0.68977 0.70672 0.74053
 H1581 H 0.83227 0.81935 0.82066
 H1582 H 0.73464 0.80996 0.83889
 H1583 H 0.80797 0.72751 0.67591
 H1584 H 0.71124 0.71059 0.69901
 Zr1585 Zr 0.23123 0.21419 0.77965
 O1586 O 0.25421 0.18776 0.80666
 O1587 O 0.18914 0.20347 0.78798
 O1588 O 0.22509 0.22587 0.82091
 O1589 O 0.23916 0.17014 0.72395
 O1590 O 0.23470 0.27309 0.82242
 O1591 O 0.22662 0.17105 0.76854
 O1592 O 0.16294 0.23411 0.76230
 O1593 O 0.21099 0.25332 0.77773
 O1594 O 0.21169 0.21606 0.74098
 O1595 O 0.26359 0.24454 0.78621
 O1596 O 0.26412 0.20846 0.75174
 Zr1597 Zr 0.25605 0.28182 0.71595
 Zr1598 Zr 0.24339 0.28356 0.78216
 Zr1599 Zr 0.24421 0.21259 0.71325
 Zr1600 Zr 0.19281 0.25542 0.73857
 O1601 O 0.27771 0.18781 0.69836
 O1602 O 0.16715 0.28618 0.75735
 O1603 O 0.22372 0.25146 0.70865
 O1604 O 0.22342 0.28724 0.74380
 O1605 O 0.27610 0.28038 0.75443
 O1606 O 0.27619 0.24278 0.71818
 C1607 C 0.16548 0.21424 0.77978
 C1608 C 0.23165 0.15808 0.74596
 C1609 C 0.22809 0.24974 0.83361
 O1610 O 0.20983 0.30925 0.79538
 O1611 O 0.25197 0.32575 0.77236
 O1612 O 0.26318 0.32432 0.72745
 C1613 C 0.25974 0.33737 0.75023
 O1614 O 0.31039 0.21019 0.78478
 Zr1615 Zr 0.29473 0.24069 0.75690
 O1616 O 0.29787 0.29342 0.70820
 O1617 O 0.27638 0.29865 0.80863
 O1618 O 0.32009 0.26244 0.78675
 O1619 O 0.32175 0.21206 0.73686
 O1620 O 0.32464 0.26506 0.73582
 C1621 C 0.32172 0.28451 0.71790
 O1622 O 0.23261 0.30904 0.69007
 O1623 O 0.21086 0.19622 0.68794
 O1624 O 0.26097 0.27111 0.67448
 O1625 O 0.25128 0.22390 0.67265
 O1626 O 0.16527 0.23289 0.71112
 O1627 O 0.17782 0.28267 0.70737
 C1628 C 0.25799 0.24739 0.66162
 H1629 H 0.19736 0.20101 0.73769
 H1630 H 0.21421 0.30579 0.74153
 H1631 H 0.29073 0.24011 0.70426
 H1632 H 0.27279 0.24257 0.80445
 H1633 H 0.14709 0.28137 0.75277
 H1634 H 0.21775 0.32159 0.81018
 H1635 H 0.26829 0.31400 0.81980
 H1636 H 0.34020 0.25879 0.78268
 H1637 H 0.14556 0.23791 0.71563
 H1638 H 0.21906 0.18085 0.67691
 H1639 H 0.26964 0.17594 0.68329
 H1640 H 0.34157 0.21750 0.74178
 H1641 H 0.15693 0.28414 0.70802
 H1642 H 0.24652 0.32026 0.67989
 H1643 H 0.24010 0.17677 0.81681
 H1644 H 0.33127 0.21204 0.78675
 Zr1645 Zr 0.24916 0.78341 0.28797
 O1646 O 0.22177 0.80887 0.31109
 O1647 O 0.28759 0.78869 0.30996
 O1648 O 0.24544 0.76819 0.32759
 O1649 O 0.26384 0.83298 0.23862
 O1650 O 0.23531 0.72140 0.32187
 O1651 O 0.25800 0.82661 0.28415
 O1652 O 0.31762 0.75894 0.28825
 O1653 O 0.26587 0.74273 0.28705
 O1654 O 0.27833 0.78293 0.25677
 O1655 O 0.21406 0.75635 0.28206
 O1656 O 0.22599 0.79553 0.25276
 Zr1657 Zr 0.23702 0.72503 0.21241
 Zr1658 Zr 0.23122 0.71579 0.27908
 Zr1659 Zr 0.25523 0.79266 0.22132
 Zr1660 Zr 0.29364 0.74204 0.25489
 O1661 O 0.22900 0.82275 0.20180
 O1662 O 0.31070 0.70771 0.27707
 O1663 O 0.27243 0.75204 0.21811
 O1664 O 0.26024 0.71344 0.24758
 O1665 O 0.20764 0.72520 0.24349
 O1666 O 0.22068 0.76584 0.21354
 C1667 C 0.31168 0.77657 0.30734
 C1668 C 0.26339 0.84196 0.26347
 C1669 C 0.24100 0.74336 0.33677
 O1670 O 0.25662 0.68310 0.29537
 O1671 O 0.21865 0.67649 0.26157
 O1672 O 0.22500 0.68258 0.21611
 C1673 C 0.21865 0.66751 0.23670
 O1674 O 0.17392 0.79653 0.27171
 Zr1675 Zr 0.19270 0.76645 0.24549
 O1676 O 0.19848 0.72034 0.19027
 O1677 O 0.19206 0.70464 0.29603
 O1678 O 0.15884 0.74501 0.26394
 O1679 O 0.17325 0.79896 0.22249
 O1680 O 0.16773 0.74782 0.21367
 C1681 C 0.17381 0.73091 0.19404
 O1682 O 0.26331 0.69702 0.19077
 O1683 O 0.29519 0.80619 0.20777
 O1684 O 0.24625 0.73896 0.17331
 O1685 O 0.25778 0.78551 0.17888
 O1686 O 0.32920 0.76302 0.23890
 O1687 O 0.31363 0.71550 0.22614
 C1688 C 0.25387 0.76305 0.16424
 H1689 H 0.29418 0.79646 0.25985
 H1690 H 0.26797 0.69420 0.24564
 H1691 H 0.21086 0.77132 0.19635
 H1692 H 0.20106 0.75785 0.29749
 H1693 H 0.33146 0.71078 0.27896
 H1694 H 0.24433 0.67179 0.30715
 H1695 H 0.19558 0.68749 0.30689
 H1696 H 0.14100 0.75144 0.25494
 H1697 H 0.34638 0.75542 0.24822
 H1698 H 0.29174 0.82314 0.19659
 H1699 H 0.24165 0.83491 0.19119
 H1700 H 0.15249 0.79556 0.22233
 H1701 H 0.33312 0.71120 0.23280
 H1702 H 0.25174 0.68857 0.17554
 H1703 H 0.23339 0.81779 0.32604
 H1704 H 0.15304 0.79573 0.26911
 Zr1705 Zr 0.22080 0.75896 0.71904
 O1706 O 0.21852 0.78781 0.68651
 O1707 O 0.18005 0.74128 0.71692
 O1708 O 0.21475 0.73781 0.68147
 O1709 O 0.21099 0.81052 0.76829
 O1710 O 0.24999 0.70502 0.68043
 O1711 O 0.19362 0.79291 0.72763
 O1712 O 0.18147 0.70777 0.74983
 O1713 O 0.22832 0.71650 0.72738
 O1714 O 0.21298 0.75410 0.76034
 O1715 O 0.26298 0.75168 0.70826
 O1716 O 0.24800 0.78808 0.73953
 Zr1717 Zr 0.29162 0.73211 0.78075
 Zr1718 Zr 0.27102 0.70970 0.71876
 Zr1719 Zr 0.24153 0.78106 0.78103
 Zr1720 Zr 0.22196 0.71232 0.76898
 O1721 O 0.25691 0.82252 0.78837
 O1722 O 0.21648 0.66929 0.75784
 O1723 O 0.24936 0.73915 0.79190
 O1724 O 0.26415 0.70341 0.76023
 O1725 O 0.29979 0.73672 0.73940
 O1726 O 0.28392 0.77435 0.77216
 C1727 C 0.16908 0.72092 0.73008
 C1728 C 0.19390 0.81097 0.74746
 C1729 C 0.22839 0.71777 0.66987
 O1730 O 0.25757 0.66730 0.71393
 O1731 O 0.30456 0.68251 0.73016
 O1732 O 0.31983 0.69954 0.77172
 C1733 C 0.32089 0.68201 0.75163
 O1734 O 0.27810 0.80686 0.69923
 Zr1735 Zr 0.29023 0.77861 0.73067
 O1736 O 0.33286 0.74912 0.78182
 O1737 O 0.30144 0.71143 0.68801
 O1738 O 0.31700 0.77080 0.69747
 O1739 O 0.29973 0.82051 0.74350
 O1740 O 0.33241 0.77899 0.74578
 C1741 C 0.34485 0.76653 0.76585
 O1742 O 0.29456 0.70214 0.81233
 O1743 O 0.20905 0.78082 0.80990
 O1744 O 0.29582 0.75094 0.81963
 O1745 O 0.25955 0.78250 0.82075
 O1746 O 0.19169 0.72012 0.79924
 O1747 O 0.23206 0.68821 0.80410
 C1748 C 0.28072 0.76949 0.83174
 H1749 H 0.19320 0.75857 0.76493
 H1750 H 0.26822 0.68380 0.76565
 H1751 H 0.29638 0.78739 0.78295
 H1752 H 0.26559 0.75489 0.68861
 H1753 H 0.19854 0.66272 0.76574
 H1754 H 0.26825 0.65923 0.69863
 H1755 H 0.30215 0.69233 0.67970
 H1756 H 0.33110 0.78635 0.69716
 H1757 H 0.17823 0.70401 0.79881
 H1758 H 0.20875 0.79990 0.81829
 H1759 H 0.24607 0.83038 0.80366
 H1760 H 0.31740 0.82625 0.73458
 H1761 H 0.21621 0.67511 0.80764
 H1762 H 0.31405 0.70332 0.82043
 H1763 H 0.19899 0.78665 0.67851
 H1764 H 0.29496 0.81743 0.69334
 Zr1765 Zr 0.28626 0.23319 0.21983
 O1766 O 0.28644 0.20501 0.18607
 O1767 O 0.32793 0.24902 0.22002
 O1768 O 0.29111 0.25463 0.18306
 O1769 O 0.29755 0.18038 0.26674
 O1770 O 0.25639 0.28793 0.18267
 O1771 O 0.31307 0.19884 0.22705
 O1772 O 0.32895 0.28057 0.25542
 O1773 O 0.28023 0.27564 0.22979
 O1774 O 0.29566 0.23679 0.26153
 O1775 O 0.24373 0.24133 0.20882
 O1776 O 0.25925 0.20407 0.23859
 Zr1777 Zr 0.21842 0.26000 0.28158
 Zr1778 Zr 0.23721 0.28325 0.22080
 Zr1779 Zr 0.26761 0.20985 0.28051
 Zr1780 Zr 0.28807 0.27854 0.27179
 O1781 O 0.25150 0.16860 0.28553
 O1782 O 0.29506 0.32106 0.26094
 O1783 O 0.26102 0.25174 0.29300
 O1784 O 0.24576 0.28850 0.26270
 O1785 O 0.20851 0.25645 0.23990
 O1786 O 0.22496 0.21776 0.27142
 C1787 C 0.34057 0.26730 0.23567
 C1788 C 0.31368 0.18041 0.24602
 C1789 C 0.27704 0.27470 0.17174
 O1790 O 0.25152 0.32538 0.21786
 O1791 O 0.20483 0.31096 0.23267
 O1792 O 0.19073 0.29358 0.27331
 C1793 C 0.18932 0.31147 0.25383
 O1794 O 0.22640 0.18716 0.19671
 Zr1795 Zr 0.21673 0.21452 0.22970
 O1796 O 0.17683 0.24367 0.28157
 O1797 O 0.20536 0.28289 0.18960
 O1798 O 0.18811 0.22403 0.19707
 O1799 O 0.20778 0.17225 0.24020
 O1800 O 0.17538 0.21361 0.24498
 C1801 C 0.16398 0.22599 0.26536
 O1802 O 0.21711 0.28933 0.31438
 O1803 O 0.30119 0.20851 0.30999
 O1804 O 0.21598 0.24047 0.31973
 O1805 O 0.25159 0.20806 0.32009
 O1806 O 0.31798 0.26995 0.30364
 O1807 O 0.27965 0.30340 0.30690
 C1808 C 0.23122 0.22136 0.33133
 H1809 H 0.31541 0.23165 0.26657
 H1810 H 0.24239 0.30810 0.26882
 H1811 H 0.21277 0.20472 0.28154
 H1812 H 0.24015 0.23853 0.18901
 H1813 H 0.31353 0.32701 0.26931
 H1814 H 0.24038 0.33400 0.20274
 H1815 H 0.20480 0.30214 0.18201
 H1816 H 0.17366 0.20879 0.19593
 H1817 H 0.33193 0.28564 0.30439
 H1818 H 0.30155 0.18911 0.31724
 H1819 H 0.26308 0.15995 0.30031
 H1820 H 0.18952 0.16687 0.23104
 H1821 H 0.29555 0.31676 0.31049
 H1822 H 0.19790 0.28818 0.32205
 H1823 H 0.30567 0.20576 0.17841
 H1824 H 0.20893 0.17729 0.19012
 Zr1825 Zr 0.71050 0.74104 0.28319
 O1826 O 0.71000 0.71401 0.31721
 O1827 O 0.66870 0.75628 0.28228
 O1828 O 0.70469 0.76327 0.31982
 O1829 O 0.70028 0.68575 0.23708
 O1830 O 0.73864 0.79770 0.32046
 O1831 O 0.68440 0.70588 0.27621
 O1832 O 0.66828 0.78706 0.24698
 O1833 O 0.71597 0.78321 0.27271
 O1834 O 0.70175 0.74256 0.24132
 O1835 O 0.75267 0.75070 0.29487
 O1836 O 0.73829 0.71179 0.26539
 Zr1837 Zr 0.77858 0.76698 0.22230
 Zr1838 Zr 0.75860 0.79238 0.28252
 Zr1839 Zr 0.73048 0.71530 0.22321
 Zr1840 Zr 0.70894 0.78410 0.23051
 O1841 O 0.74715 0.67418 0.21974
 O1842 O 0.70166 0.82726 0.23930
 O1843 O 0.73651 0.75691 0.21010
 O1844 O 0.75083 0.79573 0.24036
 O1845 O 0.78776 0.76548 0.26414
 O1846 O 0.77290 0.72495 0.23301
 C1847 C 0.65645 0.77447 0.26678
 C1848 C 0.68404 0.68645 0.25780
 C1849 C 0.71818 0.78404 0.33130
 O1850 O 0.74353 0.83421 0.28414
 O1851 O 0.79169 0.81976 0.27112
 O1852 O 0.80641 0.80070 0.23102
 C1853 C 0.80809 0.81895 0.25059
 O1854 O 0.77005 0.69644 0.30704
 Zr1855 Zr 0.78051 0.72381 0.27484
 O1856 O 0.82065 0.75301 0.22335
 O1857 O 0.78958 0.79434 0.31450
 O1858 O 0.80729 0.73461 0.30883
 O1859 O 0.79225 0.68208 0.26442
 O1860 O 0.82275 0.72600 0.26142
 C1861 C 0.83415 0.73812 0.24105
 O1862 O 0.77950 0.79508 0.18917
 O1863 O 0.69770 0.71203 0.19301
 O1864 O 0.78283 0.74548 0.18495
 O1865 O 0.74824 0.71160 0.18411
 O1866 O 0.67871 0.77345 0.19922
 O1867 O 0.71799 0.80661 0.19459
 C1868 C 0.76888 0.72501 0.17331
 H1869 H 0.68207 0.73689 0.23623
 H1870 H 0.75427 0.81513 0.23399
 H1871 H 0.78584 0.71205 0.22349
 H1872 H 0.75587 0.74866 0.31475
 H1873 H 0.68338 0.83238 0.23029
 H1874 H 0.75414 0.84375 0.29935
 H1875 H 0.78945 0.81386 0.32186
 H1876 H 0.82213 0.71998 0.31030
 H1877 H 0.66503 0.78919 0.19785
 H1878 H 0.69774 0.69231 0.18617
 H1879 H 0.73604 0.66452 0.20493
 H1880 H 0.81047 0.67819 0.27415
 H1881 H 0.70197 0.81924 0.18995
 H1882 H 0.79887 0.79431 0.18183
 H1883 H 0.69063 0.71454 0.32459
 H1884 H 0.78743 0.68703 0.31401
 Zr1885 Zr 0.75371 0.28323 0.79091
 O1886 O 0.73052 0.31107 0.81582
 O1887 O 0.79312 0.28282 0.81194
 O1888 O 0.74807 0.26743 0.83006
 O1889 O 0.77050 0.33354 0.74289
 O1890 O 0.73260 0.22222 0.82315
 O1891 O 0.76703 0.32532 0.78840
 O1892 O 0.81884 0.25066 0.78834
 O1893 O 0.76574 0.24102 0.78820
 O1894 O 0.78156 0.28090 0.75869
 O1895 O 0.71565 0.26052 0.78504
 O1896 O 0.73094 0.29920 0.75693
 Zr1897 Zr 0.73306 0.22958 0.71391
 Zr1898 Zr 0.72809 0.21841 0.78034
 Zr1899 Zr 0.75855 0.29454 0.72434
 Zr1900 Zr 0.79215 0.23854 0.75495
 O1901 O 0.73520 0.32767 0.70622
 O1902 O 0.80602 0.20138 0.77468
 O1903 O 0.77126 0.25244 0.71924
 O1904 O 0.75561 0.21383 0.74781
 O1905 O 0.70509 0.23205 0.74599
 O1906 O 0.72107 0.27178 0.71667
 C1907 C 0.81547 0.26796 0.80833
 C1908 C 0.77201 0.34136 0.76814
 C1909 C 0.74022 0.24320 0.83858
 O1910 O 0.75037 0.18254 0.79419
 O1911 O 0.70885 0.18237 0.76172
 O1912 O 0.71324 0.19008 0.71626
 C1913 C 0.70445 0.17572 0.73643
 O1914 O 0.68061 0.30644 0.77654
 Zr1915 Zr 0.69445 0.27432 0.74959
 O1916 O 0.69376 0.22905 0.69316
 O1917 O 0.68867 0.21069 0.79848
 O1918 O 0.65899 0.25796 0.76991
 O1919 O 0.67793 0.30825 0.72649
 O1920 O 0.66607 0.25662 0.71979
 C1921 C 0.66981 0.23961 0.69958
 O1922 O 0.75552 0.19904 0.69146
 O1923 O 0.79936 0.30477 0.71054
 O1924 O 0.74240 0.24365 0.67489
 O1925 O 0.75892 0.28862 0.68147
 O1926 O 0.82953 0.25629 0.73916
 O1927 O 0.80780 0.21155 0.72407
 C1928 C 0.75217 0.26714 0.66625
 H1929 H 0.79880 0.29262 0.76185
 H1930 H 0.76068 0.19384 0.74480
 H1931 H 0.71119 0.27849 0.69994
 H1932 H 0.70328 0.26298 0.80083
 H1933 H 0.82702 0.20198 0.77570
 H1934 H 0.73716 0.17188 0.80561
 H1935 H 0.69047 0.19258 0.80820
 H1936 H 0.64180 0.26669 0.76168
 H1937 H 0.84585 0.24596 0.74723
 H1938 H 0.79730 0.32235 0.70001
 H1939 H 0.74871 0.33865 0.69541
 H1940 H 0.65698 0.30662 0.72649
 H1941 H 0.82689 0.20478 0.72963
 H1942 H 0.74271 0.19229 0.67635
 H1943 H 0.74350 0.31796 0.83075
 H1944 H 0.66009 0.30971 0.77329
 C1945 C 0.47164 0.98289 0.34893
 C1946 C 0.49976 0.97581 0.34589
 C1947 C 0.51217 0.97903 0.37114
 C1948 C 0.49076 0.98785 0.38771
 O1949 O 0.46621 0.99027 0.37432
 H1950 H 0.51017 0.96937 0.32751
 H1951 H 0.53411 0.97509 0.37687
 C1952 C -0.03125 0.50987 0.84249
 C1953 C -0.00336 0.51907 0.84140
 C1954 C 0.00756 0.51666 0.86722
 C1955 C -0.01445 0.50674 0.88229
 O1956 O -0.03792 0.50246 0.86745
 H1957 H 0.00812 0.52605 0.82394
 H1958 H 0.02888 0.52195 0.87434
 C1959 C 0.04096 0.02067 0.85357
 C1960 C 0.01823 0.03881 0.85190
 C1961 C 0.00706 0.03902 0.87711
 C1962 C 0.02365 0.02092 0.89241
 O1963 O 0.04436 0.00979 0.87823
 H1964 H 0.01088 0.05082 0.83453
 H1965 H -0.01115 0.05087 0.88357
 C1966 C 0.52870 0.48151 0.33476
 C1967 C 0.49957 0.48201 0.33067
 C1968 C 0.48873 0.48551 0.35583
 C1969 C 0.51190 0.48682 0.37352
 O1970 O 0.53618 0.48441 0.36088
 H1971 H 0.48745 0.48097 0.31166
 H1972 H 0.46657 0.48724 0.36069
 C1973 C 0.52725 0.51669 0.14493
 C1974 C 0.49896 0.52250 0.14869
 C1975 C 0.48666 0.52227 0.12325
 C1976 C 0.50842 0.51676 0.10587
 O1977 O 0.53304 0.51318 0.11891
 H1978 H 0.48837 0.52565 0.16774
 H1979 H 0.46450 0.52552 0.11798
 C1980 C 0.05447 0.96796 0.65212
 C1981 C 0.03861 0.94347 0.65011
 C1982 C 0.02743 0.94289 0.62428
 C1983 C 0.03753 0.96691 0.61228
 O1984 O 0.05387 0.98233 0.62916
 H1985 H 0.03580 0.92777 0.66562
 H1986 H 0.01401 0.92661 0.61509
 C1987 C -0.04768 0.50889 0.64489
 C1988 C -0.02365 0.52525 0.64892
 C1989 C -0.01402 0.53023 0.62359
 C1990 C -0.03274 0.51634 0.60594
 O1991 O -0.05337 0.50344 0.61878
 H1992 H -0.01445 0.53284 0.66808
 H1993 H 0.00490 0.54187 0.61861
 C1994 C 0.44355 0.02581 0.14986
 C1995 C 0.46042 0.04970 0.15095
 C1996 C 0.46933 0.05329 0.12515
 C1997 C 0.45721 0.03142 0.11012
 O1998 O 0.44133 0.01477 0.12499
 H1999 H 0.46596 0.06270 0.16857
 H2000 H 0.48373 0.06937 0.11827
 C2001 C 0.34081 0.44010 0.00592
 C2002 C 0.33884 0.45901 0.02734
 C2003 C 0.36404 0.47294 0.02865
 C2004 C 0.37950 0.46184 0.00774
 O2005 O 0.36559 0.44169 -0.00609
 H2006 H 0.32132 0.46179 0.04086
 H2007 H 0.37045 0.48930 0.04312
 C2008 C -0.11710 0.89331 0.49468
 C2009 C -0.09894 0.87138 0.50071
 C2010 C -0.07257 0.88326 0.50285
 C2011 C -0.07666 0.91136 0.49743
 O2012 O -0.10359 0.91762 0.49265
 H2013 H -0.10442 0.84956 0.50412
 H2014 H -0.05278 0.87281 0.50778
 C2015 C -0.12684 0.10321 0.99272
 C2016 C -0.10674 0.12123 0.98217
 C2017 C -0.08163 0.10762 0.98469
 C2018 C -0.08777 0.08249 0.99688
 O2019 O -0.11510 0.07961 1.00188
 H2020 H -0.10955 0.14160 0.97295
 H2021 H -0.06128 0.11479 0.97774
 C2022 C 0.34377 0.55203 0.47353
 C2023 C 0.34252 0.53722 0.44915
 C2024 C 0.36853 0.52543 0.44668
 C2025 C 0.38374 0.53352 0.46985
 O2026 O 0.36887 0.54984 0.48621
 H2027 H 0.32497 0.53587 0.43451
 H2028 H 0.37560 0.51236 0.43001
 C2029 C 0.12475 0.59853 0.50695
 C2030 C 0.11328 0.60997 0.53006
 C2031 C 0.08639 0.59949 0.53056
 C2032 C 0.08360 0.58227 0.50779
 O2033 O 0.10686 0.58172 0.49334
 H2034 H 0.12373 0.62347 0.54521
 H2035 H 0.07122 0.60270 0.54642
 C2036 C 0.63847 0.07767 0.02350
 C2037 C 0.62977 0.08471 0.04929
 C2038 C 0.60200 0.07692 0.04982
 C2039 C 0.59575 0.06553 0.02438
 O2040 O 0.61781 0.06608 0.00825
 H2041 H 0.64216 0.09459 0.06568
 H2042 H 0.58819 0.07851 0.06700
 C2043 C 0.66382 0.96332 0.49606
 C2044 C 0.66406 0.98474 0.47723
 C2045 C 0.63726 0.99511 0.47641
 C2046 C 0.62261 0.97964 0.49497
 O2047 O 0.63852 0.96024 0.50692
 H2048 H 0.68116 0.99119 0.46445
 H2049 H 0.62907 1.01152 0.46331
 C2050 C 0.14863 0.43844 0.98348
 C2051 C 0.15210 0.45921 0.96435
 C2052 C 0.12859 0.47541 0.96557
 C2053 C 0.11257 0.46372 0.98558
 O2054 O 0.12465 0.44131 0.99668
 H2055 H 0.16943 0.46196 0.95064
 H2056 H 0.12323 0.49313 0.95278
 C2057 C 0.04025 0.34577 0.44669
 C2058 C 0.06199 0.34637 0.46621
 C2059 C 0.05931 0.37140 0.47961
 C2060 C 0.03623 0.38421 0.46733
 O2061 O 0.02464 0.36881 0.44740
 H2062 H 0.07778 0.33053 0.47061
 H2063 H 0.07256 0.37936 0.49637
 C2064 C 0.51199 -0.16153 -0.03331
 C2065 C 0.52460 -0.16502 -0.00785
 C2066 C 0.52336 -0.13934 0.00460
 C2067 C 0.51003 -0.12203 -0.01407
 O2068 O 0.50296 -0.13542 -0.03706
 H2069 H 0.53382 -0.18389 0.00068
 H2070 H 0.53154 -0.13378 0.02478
 C2071 C -0.04044 -0.15941 1.04888
 C2072 C -0.06109 -0.15992 1.02831
 C2073 C -0.05941 -0.13446 1.01607
 C2074 C -0.03799 -0.12003 1.02995
 O2075 O -0.02643 -0.13504 1.04996
 H2076 H -0.07590 -0.17662 1.02278
 H2077 H -0.07234 -0.12723 0.99901
 C2078 C 0.53051 0.35997 0.56996
 C2079 C 0.55533 0.37237 0.57997
 C2080 C 0.55528 0.39900 0.56989
 C2081 C 0.53057 0.40080 0.55438
 O2082 O 0.51548 0.37726 0.55442
 H2083 H 0.57116 0.36343 0.59363
 H2084 H 0.57134 0.41512 0.57330
 C2085 C 0.45350 1.13716 0.57798
 C2086 C 0.43131 1.12104 0.58730
 C2087 C 0.43562 1.09459 0.57751
 C2088 C 0.45995 1.09630 0.56277
 O2089 O 0.47084 1.12208 0.56285
 H2090 H 0.41404 1.12739 0.59994
 H2091 H 0.42250 1.07619 0.58067
 C2092 C -0.04967 0.62349 1.08683
 C2093 C -0.06927 0.60592 1.09852
 C2094 C -0.06577 0.58028 1.08646
 C2095 C -0.04441 0.58404 1.06826
 O2096 O -0.03468 0.61020 1.06831
 H2097 H -0.08426 0.61094 1.11408
 H2098 H -0.07729 0.56108 1.09055
 C2099 C 0.51911 0.62651 -0.10677
 C2100 C 0.53295 0.60814 -0.12389
 C2101 C 0.53204 0.58265 -0.11151
 C2102 C 0.51764 0.58730 -0.08787
 O2103 O 0.50985 0.61384 -0.08487
 H2104 H 0.54307 0.61277 -0.14283
 H2105 H 0.54083 0.56304 -0.11880
 C2106 C -0.01193 1.15415 0.46270
 C2107 C -0.02678 1.15871 0.48634
 C2108 C -0.02963 1.13285 0.49780
 C2109 C -0.01618 1.11457 0.48054
 O2110 O -0.00558 1.12730 0.45934
 H2111 H -0.03494 1.17825 0.49437
 H2112 H -0.03962 1.12803 0.51677
 C2113 C 0.75093 0.71270 0.90536
 C2114 C 0.73571 0.73721 0.90852
 C2115 C 0.73458 0.74918 0.88364
 C2116 C 0.74919 0.73131 0.86675
 O2117 O 0.75908 0.70888 0.87983
 H2118 H 0.72610 0.74529 0.92675
 H2119 H 0.72446 0.76888 0.87843
 C2120 C 0.22695 0.19571 0.39789
 C2121 C 0.20140 0.20975 0.39681
 C2122 C 0.19992 0.22177 0.37182
 C2123 C 0.22453 0.21394 0.35938
 O2124 O 0.24113 0.19823 0.37517
 H2125 H 0.18570 0.21100 0.41242
 H2126 H 0.18273 0.23429 0.36345
 C2127 C 0.72190 0.28797 0.39994
 C2128 C 0.71611 0.25958 0.40250
 C2129 C 0.71991 0.24816 0.37732
 C2130 C 0.72743 0.27042 0.36123
 O2131 O 0.72873 0.29458 0.37484
 H2132 H 0.71105 0.24827 0.42075
 H2133 H 0.71782 0.22618 0.37144
 C2134 C 0.28585 0.79366 0.89945
 C2135 C 0.31045 0.77793 0.89958
 C2136 C 0.31187 0.76668 0.87404
 C2137 C 0.28815 0.77642 0.86021
 O2138 O 0.27227 0.79268 0.87554
 H2139 H 0.32539 0.77460 0.91633
 H2140 H 0.32817 0.75297 0.86642
 C2141 C 0.25943 0.78043 0.09526
 C2142 C 0.26293 0.75154 0.09272
 C2143 C 0.26174 0.74142 0.11840
 C2144 C 0.25792 0.76468 0.13485
 O2145 O 0.25656 0.78837 0.12102
 H2146 H 0.26528 0.73885 0.07454
 H2147 H 0.26310 0.71960 0.12441
 C2148 C 0.75510 0.28454 0.59683
 C2149 C 0.75977 0.25583 0.59445
 C2150 C 0.75972 0.24588 0.62025
 C2151 C 0.75546 0.26905 0.63668
 O2152 O 0.75261 0.29257 0.62267
 H2153 H 0.76210 0.24309 0.57629
 H2154 H 0.76213 0.22418 0.62638
 C2155 C 0.26963 0.22920 0.59335
 C2156 C 0.27352 0.25794 0.59081
 C2157 C 0.26960 0.26904 0.61625
 C2158 C 0.26344 0.24630 0.63231
 O2159 O 0.26354 0.22226 0.61852
 H2160 H 0.27877 0.26949 0.57276
 H2161 H 0.27110 0.29099 0.62236
 C2162 C 0.77997 0.69749 0.10699
 C2163 C 0.80503 0.71265 0.11079
 C2164 C 0.80372 0.72481 0.13584
 C2165 C 0.77822 0.71630 0.14600
 O2166 O 0.76361 0.69975 0.12859
 H2167 H 0.82228 0.71535 0.09703
 H2168 H 0.81962 0.73832 0.14564
 C2169 C 0.19542 0.59673 0.23298
 C2170 C 0.21303 0.59643 0.21100
 C2171 C 0.22370 0.62298 0.20959
 C2172 C 0.21216 0.63761 0.23095
 O2173 O 0.19482 0.62182 0.24523
 H2174 H 0.21692 0.57914 0.19708
 H2175 H 0.23824 0.63082 0.19476
 C2176 C 0.65872 0.11678 0.73311
 C2177 C 0.65425 0.12659 0.70689
 C2178 C 0.67223 0.14869 0.70454
 C2179 C 0.68610 0.15140 0.72948
 O2180 O 0.67818 0.13194 0.74692
 H2181 H 0.64030 0.11826 0.69086
 H2182 H 0.67441 0.16185 0.68690
 C2183 C 0.80301 0.10073 0.26809
 C2184 C 0.78921 0.10163 0.29252
 C2185 C 0.77822 0.12797 0.29433
 C2186 C 0.78584 0.14127 0.27082
 O2187 O 0.80102 0.12487 0.25483
 H2188 H 0.78805 0.08535 0.30769
 H2189 H 0.76603 0.13649 0.31082
 C2190 C 0.35688 0.61780 0.75295
 C2191 C 0.37135 0.63067 0.77450
 C2192 C 0.36117 0.65738 0.77551
 C2193 C 0.34109 0.65877 0.75458
 O2194 O 0.33852 0.63477 0.74070
 H2195 H 0.38666 0.62128 0.78844
 H2196 H 0.36653 0.67343 0.79066
 C2197 C 0.28381 0.40749 0.74741
 C2198 C 0.25872 0.41231 0.76076
 C2199 C 0.24647 0.38651 0.76348
 C2200 C 0.26445 0.36790 0.75117
 O2201 O 0.28709 0.38038 0.74146
 H2202 H 0.25060 0.43191 0.76870
 H2203 H 0.22684 0.38174 0.77340
 C2204 C 0.85117 0.87931 0.24772
 C2205 C 0.86852 0.86076 0.23425
 C2206 C 0.85507 0.83547 0.23479
 C2207 C 0.83056 0.84026 0.24868
 O2208 O 0.82812 0.86685 0.25681
 H2209 H 0.88823 0.86535 0.22442
 H2210 H 0.86181 0.81597 0.22538
 C2211 C 0.69410 0.90997 0.78380
 C2212 C 0.70038 0.90400 0.81085
 C2213 C 0.71158 0.87780 0.81074
 C2214 C 0.71180 0.86964 0.78377
 O2215 O 0.70124 0.88901 0.76725
 H2216 H 0.69646 0.91651 0.82887
 H2217 H 0.71914 0.86612 0.82827
 C2218 C 0.15304 0.37564 0.25459
 C2219 C 0.13913 0.36306 0.27557
 C2220 C 0.14982 0.33656 0.27704
 C2221 C 0.16957 0.33501 0.25688
 O2222 O 0.17157 0.35875 0.24314
 H2223 H 0.12373 0.37251 0.28876
 H2224 H 0.14476 0.32067 0.29179
 C2225 C 0.09833 0.20116 0.80636
 C2226 C 0.11003 0.17496 0.81120
 C2227 C 0.13676 0.17626 0.80149
 C2228 C 0.13939 0.20297 0.79121
 O2229 O 0.11621 0.21814 0.79411
 H2230 H 0.10090 0.15742 0.82182
 H2231 H 0.15265 0.15990 0.80228
 C2232 C 0.58664 0.78099 0.28903
 C2233 C 0.58563 0.80204 0.26986
 C2234 C 0.61169 0.80216 0.25862
 C2235 C 0.62673 0.78133 0.27187
 O2236 O 0.61158 0.76835 0.29023
 H2237 H 0.56804 0.81566 0.26464
 H2238 H 0.61898 0.81598 0.24288
 C2239 C 0.62167 0.26824 0.14532
 C2240 C 0.63925 0.28180 0.12755
 C2241 C 0.66465 0.28473 0.14128
 C2242 C 0.66063 0.27264 0.16626
 O2243 O 0.63467 0.26271 0.16878
 H2244 H 0.63410 0.28918 0.10726
 H2245 H 0.68382 0.29426 0.13393
 C2246 C 0.10222 0.71006 0.69868
 C2247 C 0.10010 0.68948 0.71827
 C2248 C 0.12499 0.69083 0.73309
 C2249 C 0.14036 0.71209 0.72150
 O2250 O 0.12669 0.72370 0.70071
 H2251 H 0.08274 0.67504 0.72148
 H2252 H 0.13126 0.67780 0.75014
 C2253 C 0.92411 0.78097 0.70137
 C2254 C 0.93052 0.79904 0.72307
 C2255 C 0.90673 0.79995 0.73797
 C2256 C 0.88749 0.78252 0.72441
 O2257 O 0.89786 0.77098 0.70225
 H2258 H 0.95003 0.81026 0.72791
 H2259 H 0.90371 0.81201 0.75649
 C2260 C 0.41103 0.27051 0.21451
 C2261 C 0.41374 0.28928 0.23620
 C2262 C 0.38751 0.29075 0.24699
 C2263 C 0.37071 0.27283 0.23116
 O2264 O 0.38489 0.26043 0.21155
 H2265 H 0.43249 0.30062 0.24341
 H2266 H 0.38138 0.30331 0.26437
 C2267 C 0.37344 0.78230 0.34827
 C2268 C 0.35523 0.79473 0.36629
 C2269 C 0.32955 0.79528 0.35287
 C2270 C 0.33404 0.78286 0.32784
 O2271 O 0.36063 0.77507 0.32494
 H2272 H 0.36008 0.80234 0.38675
 H2273 H 0.30976 0.80297 0.36065
 C2274 C 0.87763 0.26394 0.84925
 C2275 C 0.86168 0.27974 0.86694
 C2276 C 0.83640 0.28399 0.85361
 C2277 C 0.83868 0.27041 0.82882
 O2278 O 0.86368 0.25831 0.82603
 H2279 H 0.86782 0.28757 0.88704
 H2280 H 0.81831 0.29526 0.86120
 C2281 C 0.52923 1.00001 0.66173
 C2282 C 0.50078 1.00617 0.66410
 C2283 C 0.49052 1.00928 0.63816
 C2284 C 0.51337 1.00488 0.62180
 O2285 O 0.53690 0.99934 0.63598
 H2286 H 0.48882 1.00856 0.68243
 H2287 H 0.46889 1.01398 0.63189
 C2288 C 0.02701 0.50136 1.15497
 C2289 C -0.00210 0.50363 1.15799
 C2290 C -0.01379 0.50074 1.13249
 C2291 C 0.00869 0.49681 1.11562
 O2292 O 0.03340 0.49721 1.12906
 H2293 H -0.01389 0.50705 1.17627
 H2294 H -0.03611 0.50162 1.12681
 C2295 C -0.04387 -0.02237 1.15412
 C2296 C -0.02334 -0.04315 1.15537
 C2297 C -0.01610 -0.04822 1.12920
 C2298 C -0.03244 -0.03022 1.11366
 O2299 O -0.04942 -0.01459 1.12863
 H2300 H -0.01458 -0.05379 1.17301
 H2301 H -0.00007 -0.06268 1.12233
 C2302 C 0.46259 0.48266 0.64179
 C2303 C 0.49124 0.47816 0.64666
 C2304 C 0.50369 0.48228 0.62247
 C2305 C 0.48193 0.48915 0.60451
 O2306 O 0.45694 0.48948 0.61610
 H2307 H 0.50213 0.47278 0.66553
 H2308 H 0.52602 0.48032 0.61833
 C2309 C 0.46177 0.48644 -0.16616
 C2310 C 0.49054 0.49005 -0.16922
 C2311 C 0.50198 0.49045 -0.14357
 C2312 C 0.47940 0.48708 -0.12663
 O2313 O 0.45487 0.48445 -0.14027
 H2314 H 0.50175 0.49265 -0.18796
 H2315 H 0.52409 0.49364 -0.13781
 C2316 C -0.04290 1.03607 0.35463
 C2317 C -0.02597 1.05991 0.35712
 C2318 C -0.01390 1.05895 0.38258
 C2319 C -0.02428 1.03470 0.39390
 O2320 O -0.04183 1.02072 0.37703
 H2321 H -0.02229 1.07594 0.34215
 H2322 H 0.00088 1.07405 0.39176
 C2323 C 0.05639 0.46468 0.35115
 C2324 C 0.04506 0.43796 0.35399
 C2325 C 0.03393 0.43768 0.37914
 C2326 C 0.03943 0.46406 0.39006
 O2327 O 0.05323 0.48053 0.37327
 H2328 H 0.04478 0.42056 0.33959
 H2329 H 0.02292 0.42033 0.38841
 C2330 C 0.55413 -0.03913 -0.13703
 C2331 C 0.54020 -0.06483 -0.13596
 C2332 C 0.52960 -0.06611 -0.11054
 C2333 C 0.53796 -0.04131 -0.09782
 O2334 O 0.55276 -0.02484 -0.11378
 H2335 H 0.53709 -0.08045 -0.15198
 H2336 H 0.51665 -0.08278 -0.10246
 C2337 C 0.64474 0.56249 -0.02563
 C2338 C 0.64297 0.55284 -0.05222
 C2339 C 0.61925 0.53654 -0.05389
 C2340 C 0.60816 0.53738 -0.02820
 O2341 O 0.62371 0.55302 -0.01083
 H2342 H 0.65705 0.55762 -0.06859
 H2343 H 0.61041 0.52620 -0.07200
 C2344 C 0.13484 1.10432 0.51168
 C2345 C 0.11670 1.12362 0.49975
 C2346 C 0.09199 1.10937 0.49474
 C2347 C 0.09682 1.08261 0.50430
 O2348 O 0.12280 1.07934 0.51449
 H2349 H 0.12135 1.14513 0.49427
 H2350 H 0.07274 1.11743 0.48527
 C2351 C 0.12012 -0.11341 1.00633
 C2352 C 0.10100 -0.13184 1.01773
 C2353 C 0.07648 -0.11720 1.01992
 C2354 C 0.08198 -0.09113 1.00929
 O2355 O 0.10838 -0.08860 1.00107
 H2356 H 0.10442 -0.15309 1.02472
 H2357 H 0.05681 -0.12466 1.02817
 C2358 C 0.65788 0.45635 0.51391
 C2359 C 0.65769 0.47646 0.53461
 C2360 C 0.63161 0.48847 0.53288
 C2361 C 0.61782 0.47536 0.51111
 O2362 O 0.63360 0.45595 0.49948
 H2363 H 0.67389 0.48129 0.54998
 H2364 H 0.62325 0.50435 0.54641
 C2365 C -0.12973 0.39267 0.48013
 C2366 C -0.11378 0.37665 0.46265
 C2367 C -0.08810 0.38972 0.46212
 C2368 C -0.09014 0.41257 0.47951
 O2369 O -0.11540 0.41456 0.49040
 H2370 H -0.12029 0.35805 0.45110
 H2371 H -0.07005 0.38346 0.45038
 C2372 C 0.34832 -0.07266 -0.02180
 C2373 C 0.35704 -0.07666 -0.04817
 C2374 C 0.38492 -0.06930 -0.04772
 C2375 C 0.39120 -0.06119 -0.02117
 O2376 O 0.36908 -0.06330 -0.00529
 H2377 H 0.34476 -0.08476 -0.06552
 H2378 H 0.39893 -0.06939 -0.06480
 C2379 C 0.34429 1.04020 0.51499
 C2380 C 0.34154 1.01783 0.53255
 C2381 C 0.36663 1.00392 0.53199
 C2382 C 0.38275 1.01833 0.51380
 O2383 O 0.36937 1.04037 0.50340
 H2384 H 0.32379 1.01259 0.54503
 H2385 H 0.37288 0.98596 0.54408
 C2386 C -0.16226 0.53451 1.01201
 C2387 C -0.16445 0.51276 1.03036
 C2388 C -0.13928 0.49900 1.02966
 C2389 C -0.12375 0.51293 1.01065
 O2390 O -0.13755 0.53444 0.99983
 H2391 H -0.18184 0.50792 1.04342
 H2392 H -0.13261 0.48149 1.04217
 C2393 C -0.03288 0.65143 0.53838
 C2394 C -0.05283 0.65376 0.51733
 C2395 C -0.05358 0.62798 0.50472
 C2396 C -0.03413 0.61194 0.51903
 O2397 O -0.02163 0.62604 0.53933
 H2398 H -0.06517 0.67196 0.51152
 H2399 H -0.06656 0.62169 0.48715
 C2400 C 0.47755 0.15896 0.03976
 C2401 C 0.46641 0.16196 0.01359
 C2402 C 0.46839 0.13615 0.00166
 C2403 C 0.48060 0.11915 0.02123
 O2404 O 0.48620 0.13285 0.04440
 H2405 H 0.45749 0.18047 0.00412
 H2406 H 0.46138 0.13029 -0.01882
 C2407 C 0.02340 0.15167 0.96365
 C2408 C 0.04130 0.15399 0.98638
 C2409 C 0.04141 0.12802 0.99782
 C2410 C 0.02361 0.11168 0.98138
 O2411 O 0.01261 0.12592 0.96067
 H2412 H 0.05304 0.17222 0.99392
 H2413 H 0.05306 0.12174 1.01603
 C2414 C 0.47506 0.63337 0.40243
 C2415 C 0.45516 0.61798 0.38719
 C2416 C 0.45338 0.59261 0.39956
 C2417 C 0.47215 0.59428 0.42152
 O2418 O 0.48526 0.61901 0.42346
 H2419 H 0.44322 0.62436 0.36920
 H2420 H 0.44022 0.57485 0.39316
 C2421 C 0.54692 0.85733 0.43539
 C2422 C 0.57131 0.87009 0.42638
 C2423 C 0.57032 0.89729 0.43579
 C2424 C 0.54558 0.89894 0.44996
 O2425 O 0.53146 0.87486 0.44975
 H2426 H 0.58716 0.86118 0.41338
 H2427 H 0.58550 0.91397 0.43239
 C2428 C 0.03960 0.36177 0.91375
 C2429 C 0.06414 0.37568 0.90695
 C2430 C 0.06200 0.40202 0.91823
 C2431 C 0.03651 0.40196 0.93130
 O2432 O 0.02290 0.37767 0.92856
 H2433 H 0.08125 0.36777 0.89484
 H2434 H 0.07733 0.41902 0.91744
 C2435 C 0.45897 0.37039 0.07959
 C2436 C 0.43495 0.38440 0.08755
 C2437 C 0.43650 0.41022 0.07580
 C2438 C 0.46120 0.40981 0.06144
 O2439 O 0.47487 0.38577 0.06372
 H2440 H 0.41861 0.37695 0.10076
 H2441 H 0.42133 0.42716 0.07723
 C2442 C 0.03953 0.84062 0.53986
 C2443 C 0.05819 0.83894 0.51868
 C2444 C 0.05731 0.86466 0.50669
 C2445 C 0.03821 0.88011 0.52135
 O2446 O 0.02741 0.86565 0.54141
 H2447 H 0.07099 0.82129 0.51253
 H2448 H 0.06925 0.87139 0.48941
 C2449 C 0.28074 0.29598 0.10359
 C2450 C 0.30405 0.27854 0.10418
 C2451 C 0.30651 0.26940 0.13025
 C2452 C 0.28450 0.28185 0.14374
 O2453 O 0.26887 0.29818 0.12766
 H2454 H 0.31742 0.27284 0.08746
 H2455 H 0.32193 0.25462 0.13827
 C2456 C 0.79081 0.81855 0.60935
 C2457 C 0.81650 0.80473 0.61031
 C2458 C 0.82084 0.79750 0.63675
 C2459 C 0.79766 0.80753 0.65025
 O2460 O 0.77938 0.82054 0.63371
 H2461 H 0.83031 0.80010 0.59364
 H2462 H 0.83836 0.78542 0.64510
 C2463 C 0.21858 0.69358 0.60230
 C2464 C 0.19261 0.70660 0.60517
 C2465 C 0.19280 0.71694 0.63106
 C2466 C 0.21866 0.70937 0.64231
 O2467 O 0.23435 0.69506 0.62505
 H2468 H 0.17537 0.70849 0.59034
 H2469 H 0.17612 0.72875 0.64060
 C2470 C 0.74701 0.21239 0.09539
 C2471 C 0.73688 0.23903 0.09035
 C2472 C 0.74016 0.25321 0.11440
 C2473 C 0.75183 0.23401 0.13235
 O2474 O 0.75616 0.20916 0.12083
 H2475 H 0.72789 0.24697 0.07144
 H2476 H 0.73371 0.27461 0.11868
 C2477 C 0.73850 0.22115 0.90660
 C2478 C 0.74323 0.24959 0.91149
 C2479 C 0.74425 0.26150 0.88656
 C2480 C 0.74002 0.23963 0.86820
 O2481 O 0.73659 0.21508 0.88020
 H2482 H 0.74643 0.26051 0.93078
 H2483 H 0.74796 0.28350 0.88225
 C2484 C 0.24917 0.72181 0.40487
 C2485 C 0.25166 0.75058 0.40927
 C2486 C 0.24819 0.76237 0.38434
 C2487 C 0.24369 0.74011 0.36645
 O2488 O 0.24427 0.71547 0.37877
 H2489 H 0.25569 0.76194 0.42819
 H2490 H 0.24926 0.78457 0.37968
 C2491 C 0.71287 0.80632 0.39981
 C2492 C 0.68993 0.78813 0.39868
 C2493 C 0.68821 0.77845 0.37249
 C2494 C 0.71020 0.79136 0.35939
 O2495 O 0.72516 0.80844 0.37590
 H2496 H 0.67616 0.78244 0.41501
 H2497 H 0.67316 0.76315 0.36410
 C2498 C 0.22655 0.26738 0.90317
 C2499 C 0.21440 0.24090 0.90500
 C2500 C 0.21334 0.23024 0.87898
 C2501 C 0.22465 0.25109 0.86325
 O2502 O 0.23274 0.27348 0.87784
 H2503 H 0.20745 0.23042 0.92310
 H2504 H 0.20522 0.20987 0.87229
 C2505 C 0.79802 0.41108 0.77367
 C2506 C 0.78532 0.40951 0.79866
 C2507 C 0.77366 0.38334 0.79948
 C2508 C 0.77980 0.37072 0.77496
 O2509 O 0.79457 0.38743 0.75918
 H2510 H 0.78530 0.42500 0.81497
 H2511 H 0.76235 0.37431 0.81618
 C2512 C 0.29143 0.91077 0.26986
 C2513 C 0.27235 0.91194 0.29091
 C2514 C 0.25885 0.88657 0.29055
 C2515 C 0.27002 0.87175 0.26921
 O2516 O 0.28962 0.88627 0.25649
 H2517 H 0.26892 0.92859 0.30561
 H2518 H 0.24314 0.87943 0.30460
 C2519 C 0.15276 0.87147 0.75576
 C2520 C 0.13327 0.85598 0.74020
 C2521 C 0.14647 0.83130 0.73425
 C2522 C 0.17284 0.83349 0.74689
 O2523 O 0.17683 0.85786 0.75983
 H2524 H 0.11225 0.86229 0.73342
 H2525 H 0.13782 0.81367 0.72250
 C2526 C 0.70086 0.40949 0.22168
 C2527 C 0.71815 0.40841 0.19941
 C2528 C 0.73094 0.38285 0.20048
 C2529 C 0.72090 0.37015 0.22339
 O2530 O 0.70267 0.38620 0.23637
 H2531 H 0.72066 0.42379 0.18360
 H2532 H 0.74542 0.37417 0.18592
 C2533 C 0.64282 0.62471 0.26231
 C2534 C 0.62556 0.64294 0.27637
 C2535 C 0.63862 0.66839 0.27574
 C2536 C 0.66276 0.66417 0.26114
 O2537 O 0.66542 0.63772 0.25276
 H2538 H 0.60582 0.63853 0.28616
 H2539 H 0.63156 0.68779 0.28510
 C2540 C 0.21045 0.08672 0.74547
 C2541 C 0.23377 0.08430 0.72918
 C2542 C 0.24526 0.11057 0.72830
 C2543 C 0.22856 0.12720 0.74439
 O2544 O 0.20741 0.11285 0.75496
 H2545 H 0.24131 0.06585 0.71857
 H2546 H 0.26328 0.11708 0.71670
 C2547 C 0.35583 0.11996 0.24843
 C2548 C 0.37426 0.13699 0.23464
 C2549 C 0.36058 0.16193 0.23162
 C2550 C 0.33504 0.15834 0.24411
 O2551 O 0.33195 0.13288 0.25424
 H2552 H 0.39483 0.13155 0.22698
 H2553 H 0.36829 0.18056 0.22164
 C2554 C 0.84928 0.62686 0.72779
 C2555 C 0.85971 0.64093 0.70574
 C2556 C 0.84885 0.66719 0.70726
 C2557 C 0.83254 0.66747 0.73016
 O2558 O 0.83255 0.64289 0.74270
 H2559 H 0.87342 0.63292 0.69018
 H2560 H 0.85245 0.68423 0.69330
 C2561 C 0.90515 0.73791 0.22051
 C2562 C 0.90891 0.72267 0.24432
 C2563 C 0.88274 0.72076 0.25527
 C2564 C 0.86485 0.73490 0.23762
 O2565 O 0.87829 0.74547 0.21674
 H2566 H 0.92807 0.71357 0.25287
 H2567 H 0.87733 0.71014 0.27381
 C2568 C 0.38656 0.29880 0.68805
 C2569 C 0.37350 0.32396 0.68204
 C2570 C 0.34799 0.32275 0.69424
 C2571 C 0.34735 0.29684 0.70665
 O2572 O 0.37074 0.28223 0.70295
 H2573 H 0.38092 0.34032 0.66878
 H2574 H 0.33114 0.33811 0.69287
 C2575 C 0.41556 0.77293 0.78894
 C2576 C 0.41788 0.78838 0.76542
 C2577 C 0.39142 0.78827 0.75367
 C2578 C 0.37500 0.77271 0.77081
 O2579 O 0.38949 0.76346 0.79226
 H2580 H 0.43647 0.79882 0.75788
 H2581 H 0.38489 0.79822 0.73481
 C2582 C 0.88099 0.23339 0.34559
 C2583 C 0.86308 0.22065 0.36357
 C2584 C 0.83726 0.21959 0.35052
 C2585 C 0.84131 0.23191 0.32565
 O2586 O 0.86784 0.24018 0.32250
 H2587 H 0.86825 0.21303 0.38377
 H2588 H 0.81770 0.21141 0.35839
 C2589 C 0.09516 0.21726 0.29004
 C2590 C 0.09280 0.19824 0.26857
 C2591 C 0.11824 0.19929 0.25611
 C2592 C 0.13430 0.21881 0.27086
 O2593 O 0.12036 0.22978 0.29138
 H2594 H 0.07478 0.18520 0.26253
 H2595 H 0.12446 0.18710 0.23852
 C2596 C 0.61511 0.77608 0.80382
 C2597 C 0.60865 0.78298 0.77717
 C2598 C 0.63328 0.77972 0.76376
 C2599 C 0.65289 0.77147 0.78337
 O2600 O 0.64199 0.76912 0.80771
 H2601 H 0.58820 0.78874 0.76845
 H2602 H 0.63672 0.78330 0.74238
 C2603 C 0.60289 0.22574 0.66910
 C2604 C 0.61844 0.20730 0.65358
 C2605 C 0.64576 0.21075 0.66249
 C2606 C 0.64492 0.23086 0.68293
 O2607 O 0.61897 0.24021 0.68689
 H2608 H 0.61092 0.19357 0.63715
 H2609 H 0.66412 0.19987 0.65501
 C2610 C 0.11168 0.72466 0.15308
 C2611 C 0.12896 0.70774 0.13757
 C2612 C 0.15451 0.70743 0.15115
 C2613 C 0.15107 0.72405 0.17397
 O2614 O 0.12518 0.73452 0.17524
 H2615 H 0.12386 0.69682 0.11862
 H2616 H 0.17349 0.69665 0.14498
   
