data_POSCAR
  _audit_creation_date              2014-09-24
  _audit_creation_method            'ToBaCCo'
  _symmetry_space_group_name_H-M    'P1'
  _symmetry_Int_Tables_number       1
  _symmetry_cell_setting            triclinic
  loop_
  _symmetry_equiv_pos_as_xyz
 x,y,z
_cell_length_a 48.5117
_cell_length_b 47.3659
_cell_length_c 47.2627
_cell_angle_alpha 92.855400
_cell_angle_beta 89.505700
_cell_angle_gamma 84.692200
loop_
  _atom_site_label
  _atom_site_type_symbol
  _atom_site_fract_x
  _atom_site_fract_y
  _atom_site_fract_z
C1 C 0.72672 0.64188 1.04437
 C2 C 0.75060 0.38364 0.51811
 C3 C 0.21994 -0.12642 -0.02178
 C4 C 0.27013 0.11598 0.49880
 C5 C 0.13619 0.48618 0.26070
 C6 C -0.11004 0.00181 0.26059
 C7 C 0.38647 0.50155 0.75280
 C8 C 0.63901 0.98946 0.76149
 C9 C 0.00279 0.26974 -0.13373
 C10 C 0.51075 0.23658 0.10766
 C11 C 0.98819 0.74335 0.61962
 C12 C 0.48718 0.76173 0.37181
 C13 C 0.38713 -0.03023 0.25986
 H14 H 0.37450 -0.01496 0.27308
 C15 C 0.40146 -0.05272 0.27265
 H16 H 0.39804 -0.05467 0.29509
 C17 C 0.40611 -0.04625 0.21504
 H18 H 0.40786 -0.04366 0.19256
 C19 C 0.42168 -0.06891 0.22727
 H20 H 0.43542 -0.08333 0.21399
 N21 N 0.38894 -0.02759 0.23142
 C22 C 0.37284 0.05350 0.19147
 H23 H 0.35054 0.05429 0.18991
 C24 C 0.38669 0.07608 0.18263
 H25 H 0.37505 0.09411 0.17381
 C26 C 0.41511 0.02900 0.20516
 H27 H 0.42594 0.01079 0.21440
 C28 C 0.42987 0.05096 0.19613
 H29 H 0.45216 0.04948 0.19827
 Zn30 Zn 0.36577 0.00312 0.21686
 N31 N 0.38709 0.03082 0.20288
 C32 C 0.35037 0.04545 0.25897
 N33 N 0.34339 0.02019 0.24761
 C34 C 0.32494 0.00521 0.26104
 C35 C 0.31385 0.01496 0.28757
 C36 C 0.33972 0.05597 0.28521
 C37 C 0.35762 -0.01923 0.16211
 C38 C 0.34300 -0.02869 0.13871
 C39 C 0.30050 -0.01753 0.16562
 C40 C 0.31593 -0.00808 0.18843
 N41 N 0.34404 -0.00969 0.18653
 H42 H 0.36575 0.05664 0.24874
 H43 H 0.32048 -0.01536 0.25224
 H44 H 0.29999 0.00236 0.29846
 H45 H 0.34680 0.07537 0.29440
 H46 H 0.37985 -0.01925 0.16067
 H47 H 0.35424 -0.03680 0.11968
 H48 H 0.27816 -0.01635 0.16757
 H49 H 0.30532 0.00066 0.20749
 C50 C 0.41554 0.07500 0.18505
 C51 C 0.41933 -0.07243 0.25657
 C52 C 0.31409 -0.02823 0.14044
 C53 C 0.32174 0.04037 0.30020
 C54 C 0.06163 1.03895 0.74555
 H55 H 0.05489 1.01970 0.75342
 C56 C 0.04784 1.06515 0.75468
 H57 H 0.03074 1.06581 0.76965
 C58 C 0.09369 1.06201 0.71894
 H59 H 0.11226 1.06107 0.70608
 C60 C 0.08053 1.08846 0.72740
 H61 H 0.08897 1.10745 0.72062
 N62 N 0.08466 1.03788 0.72867
 C63 C 0.09323 0.95989 0.68335
 H64 H 0.10807 0.96740 0.66915
 C65 C 0.08026 0.93591 0.67500
 H66 H 0.08500 0.92572 0.65427
 C67 C 0.07072 0.96226 0.72819
 H68 H 0.06795 0.97197 0.74931
 C69 C 0.05741 0.93805 0.72075
 H70 H 0.04369 0.92983 0.73587
 Zn71 Zn 0.10812 1.00370 0.72142
 N72 N 0.08799 0.97291 0.70939
 C73 C 0.14226 0.96812 0.75396
 N74 N 0.12589 0.99301 0.75518
 C75 C 0.12034 1.00802 0.78021
 C76 C 0.13050 0.99736 0.80554
 C77 C 0.15319 0.95693 0.77864
 C78 C 0.12469 1.01761 0.66726
 C79 C 0.14275 1.02350 0.64569
 C80 C 0.18095 1.01483 0.67754
 C81 C 0.16215 1.00865 0.69844
 N82 N 0.13456 1.01014 0.69298
 H83 H 0.14620 0.95656 0.73378
 H84 H 0.10718 1.02773 0.78073
 H85 H 0.12476 1.00895 0.82535
 H86 H 0.16614 0.93703 0.77706
 H87 H 0.10262 1.01931 0.66366
 H88 H 0.13445 1.02989 0.62555
 H89 H 0.20280 1.01400 0.68226
 H90 H 0.16957 1.00328 0.71916
 C91 C 0.06206 0.92475 0.69375
 C92 C 0.05804 1.09028 0.74640
 C93 C 0.17123 1.02236 0.65079
 C94 C 0.14670 0.97114 0.80503
 C95 C 0.56290 0.51468 0.30541
 H96 H 0.57082 0.49926 0.32015
 C97 C 0.54610 0.53868 0.31529
 H98 H 0.54134 0.54177 0.33773
 C99 C 0.56148 0.53080 0.25870
 H100 H 0.56849 0.52809 0.23687
 C101 C 0.54446 0.55507 0.26766
 H102 H 0.53869 0.57113 0.25271
 N103 N 0.57129 0.51193 0.27783
 C104 C 0.60696 0.43321 0.23635
 H105 H 0.62823 0.43805 0.23433
 C106 C 0.59870 0.40839 0.22345
 H107 H 0.61354 0.39421 0.21111
 C108 C 0.56149 0.44613 0.25438
 H109 H 0.54715 0.46110 0.26636
 C110 C 0.55241 0.42118 0.24216
 H111 H 0.53092 0.41709 0.24431
 Zn112 Zn 0.60127 0.48520 0.26701
 N113 N 0.58832 0.45169 0.25105
 C114 C 0.62968 0.44832 0.30429
 N115 N 0.62281 0.47613 0.29940
 C116 C 0.63015 0.49710 0.31784
 C117 C 0.64530 0.49038 0.34205
 C118 C 0.64497 0.44071 0.32798
 C119 C 0.61863 0.49534 0.21148
 C120 C 0.63281 0.50838 0.19066
 C121 C 0.65526 0.53445 0.22762
 C122 C 0.64079 0.52077 0.24775
 N123 N 0.62286 0.50161 0.23945
 H124 H 0.62324 0.43183 0.28997
 H125 H 0.62382 0.51906 0.31405
 H126 H 0.65112 0.50726 0.35645
 H127 H 0.65010 0.41842 0.33148
 H128 H 0.60360 0.48085 0.20522
 H129 H 0.62866 0.50360 0.16855
 H130 H 0.66934 0.54975 0.23463
 H131 H 0.64364 0.52585 0.26996
 C132 C 0.57114 0.40233 0.22619
 C133 C 0.53785 0.55982 0.29652
 C134 C 0.65118 0.52845 0.19865
 C135 C 0.65307 0.46184 0.34715
 C136 C 0.87746 0.49386 0.80889
 H137 H 0.86649 0.50730 0.82519
 C138 C 0.89346 0.46961 0.81650
 H139 H 0.89340 0.46441 0.83852
 C140 C 0.88988 0.48417 0.76060
 H141 H 0.88810 0.48995 0.73879
 C142 C 0.90687 0.45999 0.76740
 H143 H 0.91848 0.44766 0.75064
 N144 N 0.87546 0.50041 0.78129
 C145 C 0.85828 0.58554 0.75102
 H146 H 0.83588 0.58785 0.75155
 C147 C 0.87274 0.60676 0.74005
 H148 H 0.86142 0.62544 0.73211
 C149 C 0.90031 0.55764 0.75934
 H150 H 0.91095 0.53838 0.76670
 C151 C 0.91556 0.57809 0.74801
 H152 H 0.93792 0.57447 0.74664
 Zn153 Zn 0.85124 0.53202 0.77157
 N154 N 0.87216 0.56147 0.76018
 C155 C 0.83000 0.57152 0.81547
 N156 N 0.82870 0.54472 0.80399
 C157 C 0.81413 0.52579 0.81722
 C158 C 0.80068 0.53334 0.84312
 C159 C 0.81661 0.58000 0.84119
 C160 C 0.83839 0.52700 0.71379
 C161 C 0.82647 0.51560 0.68952
 C162 C 0.79699 0.49120 0.71949
 C163 C 0.80954 0.50297 0.74319
 N164 N 0.83009 0.52029 0.74004
 H165 H 0.84225 0.58611 0.80537
 H166 H 0.81446 0.50418 0.80878
 H167 H 0.78984 0.51787 0.85384
 H168 H 0.81819 0.60120 0.85037
 H169 H 0.85532 0.54002 0.71150
 H170 H 0.83435 0.52016 0.66890
 H171 H 0.78098 0.47710 0.72249
 H172 H 0.80336 0.49741 0.76396
 C173 C 0.90168 0.60283 0.73798
 C174 C 0.90864 0.45222 0.79572
 C175 C 0.80590 0.49693 0.69219
 C176 C 0.80215 0.56061 0.85535
 C177 C 0.28075 0.41709 -0.03316
 H178 H 0.28157 0.42472 -0.01129
 C179 C 0.29078 0.43290 -0.05455
 H180 H 0.29942 0.45270 -0.04905
 C181 C 0.26923 0.38170 -0.06717
 H182 H 0.26126 0.36143 -0.07186
 C183 C 0.27850 0.39705 -0.08918
 H184 H 0.27782 0.38844 -0.11080
 N185 N 0.27045 0.39188 -0.03982
 C186 C 0.21870 0.39538 0.02804
 H187 H 0.20390 0.38759 0.01342
 C188 C 0.20920 0.40815 0.05385
 H189 H 0.18718 0.41021 0.05853
 C190 C 0.26512 0.40139 0.04029
 H191 H 0.28697 0.39795 0.03509
 C192 C 0.25642 0.41430 0.06665
 H193 H 0.27163 0.42074 0.08169
 Zn194 Zn 0.25755 0.36930 -0.01157
 N195 N 0.24627 0.39167 0.02187
 C196 C 0.28571 0.33025 0.02329
 N197 N 0.28622 0.34137 -0.00265
 C198 C 0.30834 0.33530 -0.02059
 C199 C 0.33178 0.31862 -0.01202
 C200 C 0.30883 0.31383 0.03283
 C201 C 0.20842 0.36947 -0.04085
 C202 C 0.18447 0.35934 -0.05168
 C203 C 0.19766 0.31423 -0.03147
 C204 C 0.22167 0.32522 -0.02117
 N205 N 0.22650 0.35241 -0.02605
 H206 H 0.26796 0.33551 0.03719
 H207 H 0.30841 0.34450 -0.04105
 H208 H 0.34985 0.31531 -0.02582
 H209 H 0.30882 0.30653 0.05419
 H210 H 0.21252 0.39117 -0.04395
 H211 H 0.17026 0.37331 -0.06329
 H212 H 0.19398 0.29253 -0.02767
 H213 H 0.23628 0.31218 -0.00912
 C214 C 0.22814 0.41697 0.07390
 C215 C 0.28966 0.42283 -0.08292
 C216 C 0.17889 0.33141 -0.04710
 C217 C 0.33249 0.30859 0.01537
 C218 C 0.82127 0.10080 1.03577
 H219 H 0.83644 0.10743 1.02133
 C220 C 0.83009 0.08937 1.06110
 H221 H 0.85200 0.08727 1.06571
 C222 C 0.77449 0.09617 1.04789
 H223 H 0.75277 0.09928 1.04275
 C224 C 0.78243 0.08487 1.07373
 H225 H 0.76681 0.07876 1.08813
 N226 N 0.79390 0.10380 1.02946
 C227 C 0.78062 0.09699 0.93988
 H228 H 0.79355 0.11331 0.93436
 C229 C 0.76979 0.08024 0.91831
 H230 H 0.77482 0.08364 0.89645
 C231 C 0.75586 0.07480 0.97464
 H232 H 0.74983 0.07342 0.99654
 C233 C 0.74430 0.05787 0.95371
 H234 H 0.72966 0.04323 0.95972
 Zn235 Zn 0.78251 0.12155 0.99569
 N236 N 0.77324 0.09429 0.96740
 C237 C 0.83422 0.12750 0.97001
 N238 N 0.81144 0.14212 0.98244
 C239 C 0.80954 0.17087 0.98612
 C240 C 0.83112 0.18603 0.97723
 C241 C 0.85609 0.14183 0.96040
 C242 C 0.72767 0.14486 0.98722
 C243 C 0.70214 0.15901 0.99559
 C244 C 0.72362 0.17692 1.03791
 C245 C 0.74872 0.16242 1.02875
 N246 N 0.75010 0.14614 1.00419
 H247 H 0.83531 0.10460 0.96742
 H248 H 0.79140 0.18211 0.99623
 H249 H 0.82932 0.20886 0.98092
 H250 H 0.87358 0.12973 0.94985
 H251 H 0.72920 0.13189 0.96771
 H252 H 0.68420 0.15642 0.98257
 H253 H 0.72267 0.18899 1.05802
 H254 H 0.76683 0.16302 1.04189
 C255 C 0.75076 0.06099 0.92510
 C256 C 0.81060 0.08119 1.08044
 C257 C 0.69969 0.17451 1.02169
 C258 C 0.85477 0.17155 0.96393
 C259 C 0.29667 0.59706 0.53268
 H260 H 0.30927 0.59736 0.51372
 C261 C 0.30753 0.58373 0.55632
 H262 H 0.32875 0.57439 0.55532
 C263 C 0.25423 0.61027 0.55704
 H264 H 0.23332 0.62031 0.55710
 C265 C 0.26403 0.59654 0.58099
 H266 H 0.25038 0.59613 0.59917
 N267 N 0.27083 0.61085 0.53374
 C268 C 0.26537 0.60251 0.44587
 H269 H 0.28096 0.61662 0.44158
 C270 C 0.25668 0.58462 0.42391
 H271 H 0.26521 0.58574 0.40279
 C272 C 0.23457 0.58452 0.47812
 H273 H 0.22567 0.58499 0.49923
 C274 C 0.22539 0.56627 0.45691
 H275 H 0.20960 0.55252 0.46197
 Zn276 Zn 0.25889 0.63072 0.50146
 N277 N 0.25326 0.60310 0.47202
 C278 C 0.28300 0.66845 0.46625
 N279 N 0.28579 0.65535 0.49114
 C280 C 0.30753 0.65949 0.50840
 C281 C 0.32866 0.67538 0.49978
 C282 C 0.30384 0.68420 0.45659
 C283 C 0.20198 0.64926 0.49400
 C284 C 0.17619 0.66266 0.50267
 C285 C 0.19833 0.68483 0.54243
 C286 C 0.22371 0.67126 0.53286
 N287 N 0.22488 0.65287 0.50976
 H288 H 0.26504 0.66574 0.45333
 H289 H 0.30872 0.65035 0.52887
 H290 H 0.34586 0.67809 0.51378
 H291 H 0.30185 0.69291 0.43590
 H292 H 0.20343 0.63524 0.47521
 H293 H 0.15792 0.65836 0.49078
 H294 H 0.19751 0.69828 0.56169
 H295 H 0.24230 0.67412 0.54474
 C296 C 0.23562 0.56701 0.42910
 C297 C 0.29123 0.58341 0.58106
 C298 C 0.17406 0.67986 0.52775
 C299 C 0.32744 0.68733 0.47316
 C300 C 0.76455 0.91822 0.46312
 H301 H 0.76153 0.92719 0.48450
 C302 C 0.77615 0.93392 0.44258
 H303 H 0.78223 0.95487 0.44827
 C304 C 0.76124 0.87976 0.42959
 H305 H 0.75568 0.85846 0.42484
 C306 C 0.77209 0.89499 0.40827
 H307 H 0.77515 0.88530 0.38710
 N308 N 0.75763 0.89154 0.45638
 C309 C 0.70599 0.89847 0.52430
 H310 H 0.69038 0.89221 0.50970
 C311 C 0.69794 0.91140 0.55054
 H312 H 0.67611 0.91501 0.55599
 C313 C 0.75334 0.90047 0.53555
 H314 H 0.77491 0.89532 0.52977
 C315 C 0.74615 0.91367 0.56209
 H316 H 0.76222 0.91862 0.57679
 Zn317 Zn 0.74294 0.86969 0.48441
 N318 N 0.73329 0.89261 0.51759
 C319 C 0.76600 0.82836 0.51954
 N320 N 0.77002 0.84054 0.49456
 C321 C 0.79422 0.83489 0.47964
 C322 C 0.81601 0.81735 0.49047
 C323 C 0.78721 0.81089 0.53115
 C324 C 0.69745 0.86603 0.44817
 C325 C 0.67300 0.85609 0.43819
 C326 C 0.67507 0.82276 0.47533
 C327 C 0.69973 0.83313 0.48443
 N328 N 0.71055 0.85423 0.47066
 H329 H 0.74699 0.83381 0.53148
 H330 H 0.79729 0.84514 0.46012
 H331 H 0.83571 0.81444 0.47926
 H332 H 0.78416 0.80264 0.55181
 H333 H 0.70562 0.88358 0.43823
 H334 H 0.66286 0.86575 0.42027
 H335 H 0.66684 0.80578 0.48630
 H336 H 0.71005 0.82441 0.50260
 C337 C 0.71814 0.91846 0.57004
 C338 C 0.77994 0.92224 0.41484
 C339 C 0.66157 0.83417 0.45180
 C340 C 0.81289 0.80600 0.51703
 C341 C -0.01806 0.28706 0.43188
 H342 H 0.00146 0.29635 0.43333
 C343 C -0.04090 0.29905 0.44794
 H344 H -0.03881 0.31756 0.46187
 C345 C -0.04477 0.25216 0.41127
 H346 H -0.04650 0.23441 0.39637
 C347 C -0.06803 0.26331 0.42712
 H348 H -0.08744 0.25400 0.42418
 N349 N -0.02041 0.26414 0.41386
 C350 C 0.06269 0.22501 0.39711
 H351 H 0.06170 0.22455 0.37424
 C352 C 0.08649 0.21380 0.41014
 H353 H 0.10382 0.20459 0.39709
 C354 C 0.04114 0.23775 0.44175
 H355 H 0.02325 0.24699 0.45385
 C356 C 0.06477 0.22658 0.45579
 H357 H 0.06489 0.22690 0.47872
 Zn358 Zn 0.01054 0.25051 0.39073
 N359 N 0.04061 0.23661 0.41289
 C360 C 0.04566 0.29192 0.37969
 N361 N 0.02203 0.28129 0.37049
 C362 C 0.00712 0.29343 0.34922
 C363 C 0.01685 0.31618 0.33532
 C364 C 0.05594 0.31446 0.36664
 C365 C -0.00325 0.19595 0.38144
 C366 C -0.01193 0.17185 0.36744
 C367 C -0.00884 0.19466 0.32310
 C368 C -0.00019 0.21860 0.33810
 N369 N 0.00156 0.21908 0.36690
 H370 H 0.05656 0.28321 0.39754
 H371 H -0.01216 0.28538 0.34290
 H372 H 0.00527 0.32514 0.31791
 H373 H 0.07477 0.32245 0.37454
 H374 H -0.00120 0.19665 0.40423
 H375 H -0.01663 0.15408 0.37962
 H376 H -0.01144 0.19492 0.30038
 H377 H 0.00440 0.23689 0.32678
 C378 C 0.08762 0.21405 0.43981
 C379 C -0.06636 0.28728 0.44545
 C380 C -0.01557 0.17126 0.33801
 C381 C 0.04190 0.32657 0.34375
 C382 C 1.02059 0.76738 0.07626
 H383 H 0.99992 0.77785 0.07853
 C384 C 1.03998 0.77918 0.05961
 H385 H 1.03348 0.79791 0.04828
 C386 C 1.05450 0.73156 0.08975
 H387 H 1.06046 0.71367 0.10234
 C388 C 1.07471 0.74294 0.07365
 H389 H 1.09588 0.73350 0.07412
 N390 N 1.02802 0.74400 0.09098
 C391 C 0.95952 0.69622 0.10792
 H392 H 0.97096 0.68385 0.12321
 C393 C 0.93376 0.68831 0.09954
 H394 H 0.92648 0.66938 0.10780
 C395 C 0.95452 0.73607 0.07954
 H396 H 0.96212 0.75519 0.07238
 C397 C 0.92825 0.72917 0.07099
 H398 H 0.91620 0.74311 0.05734
 Zn399 Zn 1.00168 0.73233 0.11700
 N400 N 0.96927 0.72014 0.09849
 C401 C 0.96437 0.77594 0.14144
 N402 N 0.99102 0.76443 0.14204
 C403 C 1.00989 0.77654 0.15879
 C404 C 1.00189 0.80074 0.17640
 C405 C 0.95582 0.80051 0.15769
 C406 C 1.02696 0.67699 0.12249
 C407 C 1.03784 0.65318 0.13639
 C408 C 1.02979 0.67989 0.18102
 C409 C 1.01890 0.70316 0.16628
 N410 N 1.01790 0.70143 0.13749
 H411 H 0.94960 0.76647 0.12794
 H412 H 1.03113 0.76728 0.15862
 H413 H 1.01707 0.80943 0.19012
 H414 H 0.93476 0.80964 0.15529
 H415 H 1.02551 0.67597 0.09964
 H416 H 1.04526 0.63408 0.12404
 H417 H 1.03029 0.68162 0.20394
 H418 H 1.01089 0.72240 0.17793
 C419 C 0.91717 0.70548 0.08180
 C420 C 1.06769 0.76744 0.05873
 C421 C 1.03945 0.65448 0.16604
 C422 C 0.97437 0.81312 0.17611
 C423 C 0.53922 0.27438 0.57639
 H424 H 0.51855 0.28512 0.57814
 C425 C 0.56026 0.28739 0.56331
 H426 H 0.55570 0.30812 0.55484
 C427 C 0.57094 0.23555 0.58762
 H428 H 0.57535 0.21603 0.59825
 C429 C 0.59252 0.24758 0.57426
 H430 H 0.61335 0.23716 0.57464
 N431 N 0.54501 0.24933 0.58892
 C432 C 0.46857 0.21261 0.60839
 H433 H 0.47265 0.20987 0.63060
 C434 C 0.44503 0.20264 0.59636
 H435 H 0.43112 0.19195 0.60932
 C436 C 0.48189 0.22977 0.56449
 H437 H 0.49644 0.24031 0.55225
 C438 C 0.45815 0.22044 0.55161
 H439 H 0.45463 0.22346 0.52933
 Zn440 Zn 0.51710 0.23782 0.61289
 N441 N 0.48656 0.22565 0.59243
 C442 C 0.47841 0.28209 0.63195
 N443 N 0.50438 0.27008 0.63662
 C444 C 0.52104 0.28211 0.65593
 C445 C 0.51106 0.30634 0.67255
 C446 C 0.46794 0.30648 0.64746
 C447 C 0.53911 0.18185 0.61988
 C448 C 0.54867 0.15791 0.63434
 C449 C 0.54059 0.18549 0.67847
 C450 C 0.53116 0.20889 0.66317
 N451 N 0.53099 0.20682 0.63436
 H452 H 0.46585 0.27315 0.61568
 H453 H 0.54200 0.27276 0.65859
 H454 H 0.52428 0.31505 0.68843
 H455 H 0.44744 0.31584 0.64255
 H456 H 0.53819 0.18057 0.59700
 H457 H 0.55563 0.13844 0.62236
 H458 H 0.54047 0.18753 0.70140
 H459 H 0.52365 0.22851 0.67442
 C460 C 0.43964 0.20642 0.56766
 C461 C 0.58740 0.27426 0.56281
 C462 C 0.54966 0.15959 0.66405
 C463 C 0.48395 0.31867 0.66865
 C464 C 0.45907 0.77442 0.92279
 H465 H 0.47586 0.77114 0.93749
 C466 C 0.43237 0.78369 0.93301
 H467 H 0.42903 0.78811 0.95553
 C468 C 0.44300 0.77309 0.87559
 H469 H 0.44732 0.76876 0.85323
 C470 C 0.41612 0.78188 0.88484
 H471 H 0.39987 0.78398 0.86932
 N472 N 0.46387 0.76979 0.89445
 C473 C 0.53906 0.72182 0.90512
 H474 H 0.53450 0.70601 0.88905
 C475 C 0.55890 0.71475 0.92527
 H476 H 0.56909 0.69338 0.92470
 C477 C 0.53257 0.76908 0.92459
 H478 H 0.52224 0.79028 0.92398
 C479 C 0.55266 0.76294 0.94508
 H480 H 0.55760 0.77937 0.96047
 Zn481 Zn 0.49866 0.75694 0.87775
 N482 N 0.52579 0.74841 0.90551
 C483 C 0.53475 0.77983 0.84017
 N484 N 0.51123 0.78569 0.85600
 C485 C 0.49874 0.81259 0.85935
 C486 C 0.51045 0.83507 0.84726
 C487 C 0.54695 0.80162 0.82737
 C488 C 0.48297 0.70300 0.87087
 C489 C 0.47473 0.67847 0.85746
 C490 C 0.48593 0.69653 0.81228
 C491 C 0.49450 0.72079 0.82674
 N492 N 0.49251 0.72364 0.85554
 H493 H 0.54452 0.75833 0.83826
 H494 H 0.48046 0.81691 0.87265
 H495 H 0.50091 0.85646 0.85147
 H496 H 0.56577 0.79645 0.81497
 H497 H 0.48124 0.70597 0.89368
 H498 H 0.46710 0.66245 0.87028
 H499 H 0.48638 0.69502 0.78935
 H500 H 0.50155 0.73776 0.81490
 C501 C 0.56567 0.73529 0.94580
 C502 C 0.41051 0.78781 0.91385
 C503 C 0.47520 0.67534 0.82776
 C504 C 0.53524 0.82986 0.83149
 C505 C 0.46288 -0.16746 0.31884
 C506 C 0.46809 -0.19455 0.30544
 C507 C 0.47652 -0.21782 0.32180
 C508 C 0.47769 -0.21439 0.35173
 C509 C 0.47181 -0.18671 0.36440
 C510 C 0.46525 -0.16333 0.34822
 C511 C 0.45449 -0.14288 0.30191
 C512 C 0.45048 -0.11576 0.31541
 C513 C 0.44166 -0.09261 0.29960
 C514 C 0.43450 -0.09647 0.27089
 C515 C 0.43960 -0.12376 0.25732
 C516 C 0.45002 -0.14702 0.27276
 C517 C 0.46108 -0.13586 0.36097
 C518 C 0.45424 -0.11237 0.34475
 C519 C 0.46462 -0.19774 0.27595
 C520 C 0.45529 -0.17448 0.25998
 H521 H 0.46318 -0.13247 0.38367
 H522 H 0.45111 -0.09149 0.35537
 H523 H 0.46854 -0.21849 0.26522
 H524 H 0.45214 -0.17805 0.23747
 H525 H 0.48225 -0.23810 0.31092
 H526 H 0.47289 -0.18342 0.38722
 H527 H 0.43927 -0.07167 0.31012
 H528 H 0.43441 -0.12718 0.23526
 C529 C 0.96603 0.34866 0.83255
 C530 C 0.97440 0.34777 0.86077
 C531 C 0.98549 0.32210 0.87090
 C532 C 0.98966 0.29711 0.85297
 C533 C 0.98195 0.29879 0.82421
 C534 C 0.96946 0.32435 0.81417
 C535 C 0.95298 0.37551 0.82226
 C536 C 0.94299 0.37622 0.79452
 C537 C 0.92900 0.40147 0.78550
 C538 C 0.92561 0.42606 0.80390
 C539 C 0.93733 0.42512 0.83108
 C540 C 0.95024 0.39983 0.84062
 C541 C 0.96000 0.32609 0.78620
 C542 C 0.94670 0.35148 0.77665
 C543 C 0.97136 0.37255 0.87852
 C544 C 0.95979 0.39826 0.86850
 H545 H 0.96243 0.30755 0.77171
 H546 H 0.93923 0.35171 0.75512
 H547 H 0.97799 0.37206 0.90034
 H548 H 0.95774 0.41691 0.88286
 H549 H 0.99094 0.32139 0.89307
 H550 H 0.98520 0.28056 0.80955
 H551 H 0.92005 0.40161 0.76460
 H552 H 0.93598 0.44394 0.84519
 C553 C 0.02608 1.19556 0.80902
 C554 C 0.04680 1.20959 0.82257
 C555 C 0.03946 1.23359 0.84021
 C556 C 0.01147 1.24503 0.84394
 C557 C -0.00905 1.23057 0.82946
 C558 C -0.00189 1.20572 0.81235
 C559 C 0.03385 1.16905 0.79197
 C560 C 0.01312 1.15384 0.77962
 C561 C 0.02078 1.12795 0.76436
 C562 C 0.04897 1.11786 0.76118
 C563 C 0.06932 1.13363 0.77350
 C564 C 0.06193 1.15900 0.78908
 C565 C -0.02210 1.19029 0.79917
 C566 C -0.01474 1.16475 0.78320
 C567 C 0.07467 1.19890 0.81905
 C568 C 0.08213 1.17412 0.80239
 H569 H -0.04382 1.19778 0.80157
 H570 H -0.03100 1.15335 0.77376
 H571 H 0.09087 1.20968 0.82943
 H572 H 0.10384 1.16648 0.80031
 H573 H 0.05613 1.24213 0.85172
 H574 H -0.03070 1.23815 0.83243
 H575 H 0.00506 1.11573 0.75500
 H576 H 0.09097 1.12562 0.77167
 C577 C 0.50823 0.67498 0.33723
 C578 C 0.52629 0.68762 0.35580
 C579 C 0.52000 0.71568 0.36556
 C580 C 0.49568 0.73202 0.35711
 C581 C 0.47711 0.71820 0.33933
 C582 C 0.48369 0.69002 0.32869
 C583 C 0.51491 0.64514 0.32719
 C584 C 0.49723 0.63232 0.30810
 C585 C 0.50431 0.60404 0.29804
 C586 C 0.52836 0.58873 0.30785
 C587 C 0.54536 0.60183 0.32741
 C588 C 0.53895 0.63002 0.33691
 C589 C 0.46618 0.67636 0.30997
 C590 C 0.47300 0.64814 0.29958
 C591 C 0.55018 0.67181 0.36496
 C592 C 0.55637 0.64343 0.35572
 H593 H 0.44714 0.68764 0.30313
 H594 H 0.45908 0.63858 0.28494
 H595 H 0.56418 0.68143 0.37949
 H596 H 0.57499 0.63193 0.36329
 H597 H 0.53380 0.72397 0.38105
 H598 H 0.45740 0.72929 0.33414
 H599 H 0.49130 0.59397 0.28280
 H600 H 0.56417 0.59026 0.33452
 C601 C 0.53784 0.30631 0.16089
 C602 C 0.52883 0.28299 0.17441
 C603 C 0.52088 0.25960 0.15787
 C604 C 0.52074 0.26015 0.12794
 C605 C 0.53070 0.28372 0.11517
 C606 C 0.53920 0.30660 0.13133
 C607 C 0.54602 0.33097 0.17795
 C608 C 0.55552 0.35391 0.16418
 C609 C 0.56354 0.37715 0.18034
 C610 C 0.56171 0.37781 0.21000
 C611 C 0.55182 0.35496 0.22369
 C612 C 0.54421 0.33117 0.20764
 C613 C 0.54872 0.32993 0.11831
 C614 C 0.55688 0.35318 0.13450
 C615 C 0.52770 0.28375 0.20419
 C616 C 0.53508 0.30750 0.22052
 H617 H 0.54986 0.33023 0.09542
 H618 H 0.56418 0.37078 0.12370
 H619 H 0.52079 0.26597 0.21499
 H620 H 0.53371 0.30730 0.24339
 H621 H 0.51486 0.24137 0.16842
 H622 H 0.53118 0.28440 0.09228
 H623 H 0.57113 0.39487 0.16994
 H624 H 0.55065 0.35552 0.24663
 C625 C 0.01757 0.82193 0.65427
 C626 C 0.00789 0.82000 0.62649
 C627 C -0.00125 0.79455 0.61601
 C628 C -0.00189 0.77096 0.63317
 C629 C 0.00917 0.77295 0.66074
 C630 C 0.01851 0.79856 0.67151
 C631 C 0.02763 0.84873 0.66518
 C632 C 0.03803 0.85064 0.69277
 C633 C 0.04838 0.87602 0.70265
 C634 C 0.04860 0.89904 0.68488
 C635 C 0.03752 0.89687 0.65756
 C636 C 0.02719 0.87176 0.64753
 C637 C 0.02895 0.80129 0.69908
 C638 C 0.03849 0.82691 0.70954
 C639 C 0.00760 0.84353 0.60954
 C640 C 0.01703 0.86905 0.61992
 H641 H 0.02982 0.78347 0.71265
 H642 H 0.04651 0.82805 0.73085
 H643 H 0.00009 0.84218 0.58803
 H644 H 0.01665 0.88668 0.60614
 H645 H -0.00817 0.79311 0.59429
 H646 H 0.01086 0.75469 0.67370
 H647 H 0.05716 0.87752 0.72362
 H648 H 0.03738 0.91465 0.64394
 C649 C 0.95569 0.68271 0.67462
 C650 C 0.95174 0.71176 0.68246
 C651 C 0.96330 0.73126 0.66553
 C652 C 0.97879 0.72204 0.64069
 C653 C 0.98137 0.69264 0.63284
 C654 C 0.97062 0.67297 0.64999
 C655 C 0.94297 0.66216 0.69187
 C656 C 0.94676 0.63311 0.68376
 C657 C 0.93408 0.61373 0.69978
 C658 C 0.91704 0.62331 0.72317
 C659 C 0.91340 0.65247 0.73109
 C660 C 0.92656 0.67203 0.71559
 C661 C 0.97401 0.64375 0.64259
 C662 C 0.96248 0.62412 0.65934
 C663 C 0.93571 0.72079 0.70672
 C664 C 0.92323 0.70127 0.72294
 H665 H 0.98558 0.63599 0.62362
 H666 H 0.96547 0.60177 0.65284
 H667 H 0.93244 0.74317 0.71299
 H668 H 0.91070 0.70917 0.74123
 H669 H 0.95956 0.75366 0.67140
 H670 H 0.99138 0.68496 0.61300
 H671 H 0.93652 0.59131 0.69343
 H672 H 0.90021 0.65983 0.74910
 C673 C 0.47195 0.16692 0.14443
 C674 C 0.46271 0.19506 0.15281
 C675 C 0.47589 0.21735 0.14165
 C676 C 0.49840 0.21183 0.12225
 C677 C 0.50626 0.18309 0.11338
 C678 C 0.49374 0.16079 0.12485
 C679 C 0.45793 0.14338 0.15557
 C680 C 0.46715 0.11525 0.14688
 C681 C 0.45358 0.09296 0.15720
 C682 C 0.43057 0.09866 0.17554
 C683 C 0.42148 0.12698 0.18401
 C684 C 0.43523 0.14947 0.17419
 C685 C 0.50234 0.13240 0.11660
 C686 C 0.48941 0.10999 0.12761
 C687 C 0.44015 0.20031 0.17182
 C688 C 0.42662 0.17791 0.18228
 H689 H 0.51923 0.12745 0.10149
 H690 H 0.49667 0.08841 0.12071
 H691 H 0.43274 0.22192 0.17847
 H692 H 0.40917 0.18290 0.19670
 H693 H 0.46834 0.23908 0.14766
 H694 H 0.52166 0.17763 0.09687
 H695 H 0.46036 0.07122 0.15034
 H696 H 0.40379 0.13141 0.19825
 C697 C 0.34169 0.47257 -0.17537
 C698 C 0.36981 0.47676 -0.17345
 C699 C 0.38339 0.48602 -0.19687
 C700 C 0.36911 0.49240 -0.22210
 C701 C 0.34067 0.48805 -0.22359
 C702 C 0.32697 0.47793 -0.20031
 C703 C 0.32768 0.46142 -0.15107
 C704 C 0.29992 0.45561 -0.15341
 C705 C 0.28717 0.44359 -0.13071
 C706 C 0.30198 0.43787 -0.10580
 C707 C 0.32951 0.44459 -0.10353
 C708 C 0.34260 0.45599 -0.12625
 C709 C 0.29899 0.47249 -0.20159
 C710 C 0.28574 0.46139 -0.17860
 C711 C 0.38401 0.47128 -0.14825
 C712 C 0.37056 0.46125 -0.12494
 H713 H 0.28733 0.47649 -0.22065
 H714 H 0.26427 0.45710 -0.18064
 H715 H 0.40574 0.47466 -0.14657
 H716 H 0.38228 0.45710 -0.10594
 H717 H 0.40536 0.48850 -0.19559
 H718 H 0.32940 0.49137 -0.24297
 H719 H 0.26593 0.43840 -0.13243
 H720 H 0.34105 0.43977 -0.08455
 C721 C 0.83908 0.97376 0.32851
 C722 C 0.82632 0.97985 0.30267
 C723 C 0.84184 0.99029 0.28086
 C724 C 0.87026 0.99402 0.28455
 C725 C 0.88250 0.98697 0.31069
 C726 C 0.86704 0.97758 0.33276
 C727 C 0.82323 0.96201 0.35117
 C728 C 0.83619 0.95586 0.37692
 C729 C 0.82135 0.94398 0.39811
 C730 C 0.79409 0.93737 0.39333
 C731 C 0.78128 0.94360 0.36747
 C732 C 0.79573 0.95625 0.34634
 C733 C 0.87927 0.97135 0.35882
 C734 C 0.86401 0.96091 0.38065
 C735 C 0.79852 0.97450 0.29890
 C736 C 0.78354 0.96275 0.32029
 H737 H 0.90086 0.97440 0.36231
 H738 H 0.87423 0.95620 0.40039
 H739 H 0.78838 0.97898 0.27907
 H740 H 0.76231 0.95852 0.31632
 H741 H 0.83210 0.99374 0.26069
 H742 H 0.90443 0.98874 0.31364
 H743 H 0.83128 0.93878 0.41790
 H744 H 0.76025 0.93840 0.36385
 C745 C 0.85291 0.03458 1.18338
 C746 C 0.87583 0.01433 1.18158
 C747 C 0.88725 0.00390 1.20638
 C748 C 0.87564 0.01262 1.23344
 C749 C 0.85327 0.03414 1.23473
 C750 C 0.84151 0.04474 1.20976
 C751 C 0.84118 0.04591 1.15709
 C752 C 0.81847 0.06660 1.15867
 C753 C 0.80779 0.07765 1.13347
 C754 C 0.82011 0.06837 1.10706
 C755 C 0.84264 0.04740 1.10601
 C756 C 0.85329 0.03618 1.13088
 C757 C 0.81874 0.06546 1.21053
 C758 C 0.80736 0.07611 1.18544
 C759 C 0.88727 0.00501 1.15496
 C760 C 0.87615 0.01572 1.13001
 H761 H 0.80964 0.07352 1.23068
 H762 H 0.78988 0.09211 1.18703
 H763 H 0.90505 -0.01065 1.15340
 H764 H 0.88567 0.00808 1.10991
 H765 H 0.90571 -0.01073 1.20423
 H766 H 0.84506 0.04256 1.25513
 H767 H 0.79058 0.09399 1.13442
 H768 H 0.85200 0.03996 1.08576
 C769 C 0.34163 0.53390 0.67946
 C770 C 0.33425 0.54542 0.70669
 C771 C 0.34797 0.53416 0.73031
 C772 C 0.36937 0.51171 0.72696
 C773 C 0.37690 0.50145 0.69895
 C774 C 0.36272 0.51179 0.67548
 C775 C 0.32771 0.54584 0.65450
 C776 C 0.33526 0.53421 0.62734
 C777 C 0.32241 0.54585 0.60365
 C778 C 0.30283 0.56975 0.60670
 C779 C 0.29535 0.58106 0.63424
 C780 C 0.30762 0.56904 0.65822
 C781 C 0.36970 0.50069 0.64796
 C782 C 0.35600 0.51153 0.62430
 C783 C 0.31365 0.56833 0.70964
 C784 C 0.30069 0.58004 0.68582
 H785 H 0.38593 0.48349 0.64466
 H786 H 0.36206 0.50242 0.60344
 H787 H 0.30776 0.57754 0.73051
 H788 H 0.28522 0.59796 0.68905
 H789 H 0.34234 0.54319 0.75129
 H790 H 0.39430 0.48577 0.69484
 H791 H 0.32794 0.53638 0.58279
 H792 H 0.28062 0.59964 0.63704
 C793 C 0.18094 0.51567 0.33460
 C794 C 0.15196 0.51814 0.33439
 C795 C 0.13843 0.50791 0.31063
 C796 C 0.15333 0.49563 0.28647
 C797 C 0.18261 0.49188 0.28781
 C798 C 0.19646 0.50241 0.31162
 C799 C 0.19525 0.52753 0.35927
 C800 C 0.22430 0.52576 0.35939
 C801 C 0.23772 0.53815 0.38252
 C802 C 0.22215 0.55201 0.40538
 C803 C 0.19305 0.55306 0.40495
 C804 C 0.17952 0.54099 0.38201
 C805 C 0.22554 0.50038 0.31281
 C806 C 0.23921 0.51196 0.33620
 C807 C 0.13694 0.53136 0.35772
 C808 C 0.15051 0.54261 0.38115
 H809 H 0.23786 0.49012 0.29533
 H810 H 0.26164 0.51029 0.33603
 H811 H 0.11451 0.53330 0.35774
 H812 H 0.13817 0.55292 0.39860
 H813 H 0.11598 0.51029 0.31040
 H814 H 0.19477 0.48094 0.27067
 H815 H 0.26013 0.53712 0.38272
 H816 H 0.18084 0.56416 0.42209
 C817 C 0.68871 0.01543 0.83320
 C818 C 0.70252 0.00288 0.80888
 C819 C 0.68700 -0.00631 0.78576
 C820 C 0.65770 -0.00179 0.78631
 C821 C 0.64449 0.01010 0.81158
 C822 C 0.65974 0.01878 0.83485
 C823 C 0.70485 0.02554 0.85736
 C824 C 0.69088 0.03807 0.88163
 C825 C 0.70622 0.04848 0.90416
 C826 C 0.73530 0.04694 0.90237
 C827 C 0.74906 0.03400 0.87802
 C828 C 0.73389 0.02308 0.85547
 C829 C 0.64650 0.03113 0.85960
 C830 C 0.66182 0.04056 0.88265
 C831 C 0.73164 0.00007 0.80807
 C832 C 0.74704 0.01016 0.83088
 H833 H 0.62410 0.03374 0.86109
 H834 H 0.65082 0.05019 0.90127
 H835 H 0.74263 -0.00960 0.78946
 H836 H 0.76943 0.00799 0.82917
 H837 H 0.69798 -0.01694 0.76771
 H838 H 0.62207 0.01309 0.81276
 H839 H 0.69549 0.05885 0.92262
 H840 H 0.77146 0.03273 0.87658
 C841 C 0.67915 0.95589 0.68205
 C842 C 0.68592 0.98194 0.69417
 C843 C 0.67380 0.99202 0.72034
 C844 C 0.65532 0.97605 0.73486
 C845 C 0.64888 0.94991 0.72166
 C846 C 0.66078 0.93977 0.69571
 C847 C 0.69047 0.94586 0.65388
 C848 C 0.68251 0.92041 0.64137
 C849 C 0.69221 0.91154 0.61417
 C850 C 0.70971 0.92787 0.59936
 C851 C 0.71823 0.95298 0.61236
 C852 C 0.70830 0.96230 0.63964
 C853 C 0.65379 0.91411 0.68273
 C854 C 0.66450 0.90458 0.65600
 C855 C 0.70410 0.99768 0.67948
 C856 C 0.71519 0.98798 0.65274
 H857 H 0.63962 0.90146 0.69315
 H858 H 0.65831 0.88487 0.64654
 H859 H 0.70960 1.01781 0.68859
 H860 H 0.72890 1.00092 0.64205
 H861 H 0.67814 1.01267 0.72918
 H862 H 0.63346 0.93770 0.73045
 H863 H 0.68598 0.89199 0.60433
 H864 H 0.73174 0.96556 0.60092
 C865 C 0.18092 0.45427 0.18304
 C866 C 0.16120 0.43831 0.19473
 C867 C 0.14737 0.44837 0.21972
 C868 C 0.15363 0.47385 0.23437
 C869 C 0.17317 0.48995 0.22161
 C870 C 0.18702 0.48013 0.19616
 C871 C 0.19450 0.44422 0.15585
 C872 C 0.21353 0.46060 0.14332
 C873 C 0.22553 0.45133 0.11680
 C874 C 0.21807 0.42615 0.10291
 C875 C 0.19951 0.40978 0.11626
 C876 C 0.18752 0.41876 0.14250
 C877 C 0.20645 0.49582 0.18322
 C878 C 0.21950 0.48622 0.15730
 C879 C 0.15503 0.41278 0.18087
 C880 C 0.16808 0.40310 0.15524
 H881 H 0.21143 0.51583 0.19306
 H882 H 0.23411 0.49914 0.14795
 H883 H 0.13983 0.40027 0.18981
 H884 H 0.16257 0.38342 0.14509
 H885 H 0.13090 0.43647 0.22685
 H886 H 0.17720 0.51034 0.23132
 H887 H 0.23977 0.46405 0.10655
 H888 H 0.19403 0.39017 0.10588
 C889 C -0.16829 0.34165 0.49350
 C890 C -0.18745 0.32542 0.50603
 C891 C -0.21338 0.33865 0.51528
 C892 C -0.22077 0.36764 0.51054
 C893 C -0.20030 0.38361 0.49937
 C894 C -0.17439 0.37081 0.49058
 C895 C -0.14146 0.32782 0.48282
 C896 C -0.12252 0.34419 0.47013
 C897 C -0.09756 0.33085 0.45895
 C898 C -0.09160 0.30128 0.45995
 C899 C -0.11061 0.28517 0.47318
 C900 C -0.13558 0.29842 0.48480
 C901 C -0.15474 0.38659 0.47827
 C902 C -0.12920 0.37350 0.46822
 C903 C -0.18042 0.29618 0.50850
 C904 C -0.15503 0.28288 0.49789
 H905 H -0.15928 0.40920 0.47602
 H906 H -0.11474 0.38635 0.45852
 H907 H -0.19490 0.28334 0.51818
 H908 H -0.15069 0.26020 0.49974
 H909 H -0.22752 0.32626 0.52595
 H910 H -0.20506 0.40612 0.49664
 H911 H -0.08325 0.34331 0.44846
 H912 H -0.10604 0.26241 0.47418
 C913 C 0.29988 0.83203 0.94871
 C914 C 0.28865 0.82462 0.97446
 C915 C 0.26219 0.83689 0.98318
 C916 C 0.24658 0.85615 0.96612
 C917 C 0.25883 0.86307 0.94025
 C918 C 0.28507 0.85111 0.93152
 C919 C 0.32817 0.82050 0.94005
 C920 C 0.33959 0.82891 0.91477
 C921 C 0.36653 0.81840 0.90677
 C922 C 0.38216 0.79917 0.92351
 C923 C 0.37046 0.79103 0.94900
 C924 C 0.34344 0.80178 0.95742
 C925 C 0.29712 0.85880 0.90623
 C926 C 0.32394 0.84789 0.89800
 C927 C 0.30449 0.80572 0.99129
 C928 C 0.33134 0.79439 0.98286
 H929 H 0.28582 0.87362 0.89281
 H930 H 0.33255 0.85450 0.87843
 H931 H 0.29614 0.79975 1.01124
 H932 H 0.34283 0.77996 0.99651
 H933 H 0.25405 0.83226 1.00369
 H934 H 0.24898 0.87908 0.92723
 H935 H 0.37545 0.82551 0.88758
 H936 H 0.38219 0.77618 0.96204
 C937 C 1.15379 0.82624 0.00926
 C938 C 1.15150 0.85596 0.01145
 C939 C 1.17283 0.87035 0.00079
 C940 C 1.19720 0.85555 -0.01123
 C941 C 1.19854 0.82554 -0.01431
 C942 C 1.17701 0.81084 -0.00378
 C943 C 1.13144 0.81102 0.02098
 C944 C 1.13356 0.78123 0.01890
 C945 C 1.11241 0.76690 0.03068
 C946 C 1.08942 0.78224 0.04462
 C947 C 1.08776 0.81214 0.04627
 C948 C 1.10854 0.82659 0.03441
 C949 C 1.17823 0.78102 -0.00581
 C950 C 1.15691 0.76648 0.00534
 C951 C 1.12808 0.87082 0.02464
 C952 C 1.10701 0.85637 0.03605
 H953 H 1.19594 0.76879 -0.01589
 H954 H 1.15882 0.74349 0.00351
 H955 H 1.12617 0.89382 0.02643
 H956 H 1.08940 0.86861 0.04633
 H957 H 1.17101 0.89337 0.00257
 H958 H 1.21593 0.81350 -0.02501
 H959 H 1.11387 0.74391 0.02903
 H960 H 1.07066 0.82427 0.05749
 C961 C 0.68052 0.33548 0.53639
 C962 C 0.68364 0.36108 0.55160
 C963 C 0.70662 0.37573 0.54611
 C964 C 0.72714 0.36509 0.52575
 C965 C 0.72245 0.34013 0.50938
 C966 C 0.69975 0.32478 0.51528
 C967 C 0.65630 0.31993 0.54234
 C968 C 0.65328 0.29396 0.52756
 C969 C 0.63055 0.27887 0.53403
 C970 C 0.61071 0.29020 0.55449
 C971 C 0.61379 0.31655 0.56855
 C972 C 0.63666 0.33136 0.56280
 C973 C 0.69573 0.29902 0.50046
 C974 C 0.67308 0.28372 0.50670
 C975 C 0.66354 0.37184 0.57188
 C976 C 0.64039 0.35725 0.57735
 H977 H 0.71038 0.29044 0.48409
 H978 H 0.67096 0.26380 0.49500
 H979 H 0.66571 0.39172 0.58365
 H980 H 0.62537 0.36625 0.59319
 H981 H 0.70793 0.39601 0.55737
 H982 H 0.73637 0.33273 0.49198
 H983 H 0.62817 0.25854 0.52321
 H984 H 0.59873 0.32508 0.58458
 C985 C 0.34285 0.15703 0.52648
 C986 C 0.32097 0.17401 0.51481
 C987 C 0.29683 0.16158 0.50622
 C988 C 0.29444 0.13237 0.50974
 C989 C 0.31748 0.11584 0.52045
 C990 C 0.34121 0.12797 0.52933
 C991 C 0.36817 0.16976 0.53562
 C992 C 0.38972 0.15259 0.54760
 C993 C 0.41328 0.16482 0.55719
 C994 C 0.41563 0.19393 0.55471
 C995 C 0.39429 0.21085 0.54185
 C996 C 0.37026 0.19882 0.53246
 C997 C 0.36339 0.11141 0.54095
 C998 C 0.38719 0.12356 0.55011
 C999 C 0.32390 0.20299 0.51176
 C1000 C 0.34808 0.21517 0.52044
 H1001 H 0.36224 0.08889 0.54320
 H1002 H 0.40372 0.11013 0.55926
 H1003 H 0.30732 0.21642 0.50269
 H1004 H 0.34934 0.23762 0.51786
 H1005 H 0.28064 0.17447 0.49604
 H1006 H 0.31680 0.09314 0.52189
 H1007 H 0.42977 0.15179 0.56695
 H1008 H 0.39603 0.23335 0.54011
 C1009 C 0.80504 0.67799 0.06288
 C1010 C 0.79305 0.68106 0.03623
 C1011 C 0.76682 0.67148 0.03131
 C1012 C 0.75258 0.65794 0.05250
 C1013 C 0.76545 0.65568 0.07930
 C1014 C 0.79116 0.66584 0.08461
 C1015 C 0.83326 0.68637 0.06779
 C1016 C 0.84531 0.68263 0.09438
 C1017 C 0.87236 0.68964 0.09877
 C1018 C 0.88790 0.69963 0.07664
 C1019 C 0.87532 0.70377 0.05014
 C1020 C 0.84793 0.69713 0.04562
 C1021 C 0.80377 0.66291 0.11110
 C1022 C 0.83030 0.67135 0.11596
 C1023 C 0.80806 0.69260 0.01470
 C1024 C 0.83504 0.70042 0.01929
 H1025 H 0.79318 0.65365 0.12813
 H1026 H 0.83939 0.66842 0.13659
 H1027 H 0.79910 0.69510 -0.00604
 H1028 H 0.84600 0.70878 0.00198
 H1029 H 0.75815 0.67302 0.01032
 H1030 H 0.75677 0.64474 0.09616
 H1031 H 0.88135 0.68716 0.11951
 H1032 H 0.88700 0.71141 0.03292
 C1033 C 0.65262 0.69152 1.01708
 C1034 C 0.65086 0.66458 1.02742
 C1035 C 0.67440 0.65016 1.03837
 C1036 C 0.70021 0.66214 1.03934
 C1037 C 0.70080 0.69042 1.03097
 C1038 C 0.67726 0.70483 1.01911
 C1039 C 0.62884 0.70501 1.00191
 C1040 C 0.63116 0.73100 0.98942
 C1041 C 0.60949 0.74218 0.97244
 C1042 C 0.58609 0.72710 0.96769
 C1043 C 0.58354 0.70195 0.98168
 C1044 C 0.60492 0.69064 0.99851
 C1045 C 0.67830 0.73157 1.00763
 C1046 C 0.65570 0.74437 0.99296
 C1047 C 0.62612 0.65151 1.02478
 C1048 C 0.60346 0.66439 1.01064
 H1049 H 0.69710 0.74222 1.00907
 H1050 H 0.65776 0.76450 0.98361
 H1051 H 0.62457 0.63070 1.03289
 H1052 H 0.58505 0.65322 1.00826
 H1053 H 0.67307 0.62841 1.04388
 H1054 H 0.71963 0.70084 1.03194
 H1055 H 0.61154 0.76152 0.96158
 H1056 H 0.56542 0.69048 0.97827
 C1057 C 0.18918 0.15839 0.47916
 C1058 C 0.19899 0.13259 0.46540
 C1059 C 0.22498 0.12016 0.47193
 C1060 C 0.24220 0.13292 0.49201
 C1061 C 0.23111 0.15807 0.50715
 C1062 C 0.20488 0.17137 0.50008
 C1063 C 0.16196 0.17200 0.47125
 C1064 C 0.15212 0.19840 0.48410
 C1065 C 0.12687 0.21201 0.47494
 C1066 C 0.11196 0.19910 0.45309
 C1067 C 0.12156 0.17198 0.44175
 C1068 C 0.14659 0.15855 0.45036
 C1069 C 0.19396 0.19740 0.51321
 C1070 C 0.16819 0.21078 0.50520
 C1071 C 0.18277 0.11953 0.44506
 C1072 C 0.15692 0.13228 0.43771
 H1073 H 0.20565 0.20777 0.52945
 H1074 H 0.16088 0.23109 0.51547
 H1075 H 0.19027 0.09941 0.43450
 H1076 H 0.14516 0.12175 0.42163
 H1077 H 0.23178 0.10007 0.46100
 H1078 H 0.24261 0.16720 0.52428
 H1079 H 0.11947 0.23291 0.48381
 H1080 H 0.10988 0.16172 0.42538
 C1081 C 0.59570 0.06320 0.72369
 C1082 C 0.61422 0.06750 0.74569
 C1083 C 0.62724 0.04402 0.75870
 C1084 C 0.62164 0.01588 0.75048
 C1085 C 0.60278 0.01231 0.72810
 C1086 C 0.58978 0.03576 0.71477
 C1087 C 0.58315 0.08788 0.70893
 C1088 C 0.56537 0.08356 0.68617
 C1089 C 0.55414 0.10708 0.67171
 C1090 C 0.56066 0.13473 0.67989
 C1091 C 0.57837 0.13857 0.70294
 C1092 C 0.58975 0.11525 0.71744
 C1093 C 0.57156 0.03229 0.69215
 C1094 C 0.55954 0.05578 0.67812
 C1095 C 0.62013 0.09524 0.75377
 C1096 C 0.60803 0.11872 0.73994
 H1097 H 0.56678 0.01123 0.68502
 H1098 H 0.54581 0.05213 0.66062
 H1099 H 0.63444 0.09884 0.77077
 H1100 H 0.61331 0.13972 0.74670
 H1101 H 0.64272 0.04817 0.77426
 H1102 H 0.59893 -0.00891 0.72049
 H1103 H 0.54033 0.10391 0.65417
 H1104 H 0.58389 0.15964 0.70913
 C1105 C 1.09041 0.55880 0.22341
 C1106 C 1.10990 0.56353 0.24436
 C1107 C 1.12389 0.54034 0.25690
 C1108 C 1.11812 0.51204 0.24959
 C1109 C 1.09845 0.50794 0.22812
 C1110 C 1.08454 0.53116 0.21508
 C1111 C 1.07670 0.58326 0.20916
 C1112 C 1.05797 0.57858 0.18734
 C1113 C 1.04558 0.60193 0.17337
 C1114 C 1.05180 0.62975 0.18123
 C1115 C 1.07050 0.63396 0.20332
 C1116 C 1.08312 0.61082 0.21722
 C1117 C 1.06537 0.52733 0.19340
 C1118 C 1.05232 0.55062 0.17977
 C1119 C 1.11570 0.59143 0.25192
 C1120 C 1.10243 0.61468 0.23868
 H1121 H 1.06060 0.50614 0.18670
 H1122 H 1.03786 0.54667 0.16301
 H1123 H 1.13074 0.59532 0.26813
 H1124 H 1.10758 0.63583 0.24505
 H1125 H 1.14012 0.54478 0.27151
 H1126 H 1.09457 0.48657 0.22106
 H1127 H 1.03108 0.59851 0.15651
 H1128 H 1.07577 0.65520 0.20918
 C1129 C 0.93041 0.91826 0.23360
 C1130 C 0.94760 0.93951 0.24166
 C1131 C 0.93550 0.96626 0.25267
 C1132 C 0.90630 0.97246 0.25290
 C1133 C 0.88998 0.95033 0.24409
 C1134 C 0.90165 0.92335 0.23568
 C1135 C 0.94255 0.89045 0.22162
 C1136 C 0.92506 0.86925 0.21459
 C1137 C 0.93628 0.84333 0.20226
 C1138 C 0.96449 0.83901 0.19428
 C1139 C 0.98207 0.86029 0.20229
 C1140 C 0.97116 0.88593 0.21646
 C1141 C 0.88481 0.90157 0.22861
 C1142 C 0.89638 0.87474 0.21879
 C1143 C 0.97641 0.93365 0.23766
 C1144 C 0.98791 0.90758 0.22481
 H1145 H 0.86248 0.90535 0.23055
 H1146 H 0.88269 0.85852 0.21337
 H1147 H 0.99011 0.94968 0.24363
 H1148 H 1.01010 0.90442 0.22125
 H1149 H 0.94888 0.98193 0.26012
 H1150 H 0.86769 0.95432 0.24326
 H1151 H 0.92258 0.82689 0.19797
 H1152 H 1.00387 0.85748 0.19667
 C1153 C 0.43200 0.42083 0.72496
 C1154 C 0.44758 0.44323 0.73359
 C1155 C 0.43376 0.46921 0.74437
 C1156 C 0.40444 0.47343 0.74428
 C1157 C 0.38968 0.44996 0.73588
 C1158 C 0.40310 0.42388 0.72680
 C1159 C 0.44604 0.39386 0.71299
 C1160 C 0.43015 0.37158 0.70489
 C1161 C 0.44320 0.34652 0.69239
 C1162 C 0.47180 0.34393 0.68618
 C1163 C 0.48774 0.36614 0.69533
 C1164 C 0.47488 0.39115 0.70904
 C1165 C 0.38794 0.40099 0.71886
 C1166 C 0.40128 0.37511 0.70841
 C1167 C 0.47660 0.43926 0.73057
 C1168 C 0.48997 0.41386 0.71817
 H1169 H 0.36554 0.40318 0.72051
 H1170 H 0.38884 0.35803 0.70223
 H1171 H 0.48905 0.45622 0.73712
 H1172 H 0.51227 0.41207 0.71551
 H1173 H 0.44599 0.48568 0.75236
 H1174 H 0.36725 0.45236 0.73576
 H1175 H 0.43078 0.32929 0.68667
 H1176 H 0.50979 0.36450 0.69088
 C1177 C 0.42475 0.57811 0.78123
 C1178 C 0.40082 0.57073 0.79458
 C1179 C 0.38930 0.54621 0.78525
 C1180 C 0.40156 0.52778 0.76304
 C1181 C 0.42438 0.53706 0.74826
 C1182 C 0.43665 0.56166 0.75796
 C1183 C 0.43724 0.60383 0.79172
 C1184 C 0.46151 0.61136 0.77886
 C1185 C 0.47391 0.63530 0.78999
 C1186 C 0.46191 0.65137 0.81374
 C1187 C 0.43686 0.64405 0.82525
 C1188 C 0.42468 0.62027 0.81467
 C1189 C 0.46057 0.57026 0.74506
 C1190 C 0.47290 0.59450 0.75546
 C1191 C 0.38860 0.58801 0.81713
 C1192 C 0.40033 0.61242 0.82701
 H1193 H 0.47007 0.55793 0.72704
 H1194 H 0.49154 0.60004 0.74514
 H1195 H 0.36993 0.58249 0.82742
 H1196 H 0.39044 0.62505 0.84466
 H1197 H 0.37011 0.54202 0.79535
 H1198 H 0.43249 0.52532 0.72929
 H1199 H 0.49308 0.64092 0.78081
 H1200 H 0.42695 0.65675 0.84286
 C1201 C -0.06852 0.07575 0.29118
 C1202 C -0.09303 0.06928 0.30406
 C1203 C -0.10578 0.04576 0.29387
 C1204 C -0.09381 0.02694 0.27179
 C1205 C -0.06999 0.03509 0.25782
 C1206 C -0.05695 0.05912 0.26786
 C1207 C -0.05517 0.10085 0.30205
 C1208 C -0.03077 0.10794 0.28907
 C1209 C -0.01790 0.13162 0.30013
 C1210 C -0.02932 0.14759 0.32417
 C1211 C -0.05413 0.14042 0.33627
 C1212 C -0.06712 0.11722 0.32537
 C1213 C -0.03267 0.06708 0.25512
 C1214 C -0.01979 0.09096 0.26558
 C1215 C -0.10463 0.08653 0.32697
 C1216 C -0.09180 0.11001 0.33756
 H1217 H -0.02342 0.05464 0.23704
 H1218 H -0.00101 0.09611 0.25523
 H1219 H -0.12367 0.08165 0.33700
 H1220 H -0.10124 0.12259 0.35548
 H1221 H -0.12562 0.04270 0.30326
 H1222 H -0.06190 0.02316 0.23895
 H1223 H 0.00119 0.13712 0.29069
 H1224 H -0.06325 0.15292 0.35442
 C1225 C 0.09326 0.41794 0.29476
 C1226 C 0.07728 0.44278 0.28770
 C1227 C 0.09053 0.46534 0.27692
 C1228 C 0.11965 0.46289 0.27286
 C1229 C 0.13510 0.43806 0.28157
 C1230 C 0.12215 0.41550 0.29183
 C1231 C 0.07961 0.39413 0.30589
 C1232 C 0.09584 0.36944 0.31290
 C1233 C 0.08301 0.34714 0.32401
 C1234 C 0.05420 0.34944 0.32891
 C1235 C 0.03802 0.37412 0.32120
 C1236 C 0.05073 0.39664 0.30970
 C1237 C 0.13765 0.39042 0.29900
 C1238 C 0.12469 0.36770 0.30924
 C1239 C 0.04837 0.44447 0.29162
 C1240 C 0.03535 0.42185 0.30247
 H1241 H 0.16000 0.38832 0.29664
 H1242 H 0.13739 0.34874 0.31462
 H1243 H 0.03569 0.46347 0.28632
 H1244 H 0.01305 0.42416 0.30532
 H1245 H 0.07812 0.48461 0.27217
 H1246 H 0.15748 0.43607 0.27941
 H1247 H 0.09558 0.32805 0.32934
 H1248 H 0.01585 0.37614 0.32501
 C1249 C 0.59279 0.92319 0.79464
 C1250 C 0.57778 0.94775 0.78546
 C1251 C 0.59214 0.97007 0.77597
 C1252 C 0.62145 0.96734 0.77434
 C1253 C 0.63585 0.94281 0.78507
 C1254 C 0.62177 0.92077 0.79494
 C1255 C 0.57793 0.89940 0.80394
 C1256 C 0.59309 0.87497 0.81321
 C1257 C 0.57897 0.85240 0.82199
 C1258 C 0.54983 0.85381 0.82124
 C1259 C 0.53493 0.87855 0.81178
 C1260 C 0.54891 0.90148 0.80327
 C1261 C 0.63623 0.89608 0.80454
 C1262 C 0.62211 0.87359 0.81362
 C1263 C 0.54869 0.94925 0.78552
 C1264 C 0.53451 0.92647 0.79413
 H1265 H 0.65865 0.89406 0.80489
 H1266 H 0.63403 0.85487 0.82080
 H1267 H 0.53678 0.96805 0.77852
 H1268 H 0.51210 0.92844 0.79360
 H1269 H 0.58028 0.98911 0.76969
 H1270 H 0.65829 0.94048 0.78459
 H1271 H 0.59073 0.83394 0.82991
 H1272 H 0.51254 0.87991 0.81089
 C1273 C 0.69874 0.59135 0.11227
 C1274 C 0.70957 0.57713 0.08729
 C1275 C 0.71958 0.59286 0.06560
 C1276 C 0.71894 0.62286 0.06868
 C1277 C 0.70744 0.63645 0.09410
 C1278 C 0.69771 0.62095 0.11589
 C1279 C 0.68749 0.57502 0.13477
 C1280 C 0.67633 0.58940 0.15958
 C1281 C 0.66512 0.57391 0.18064
 C1282 C 0.66467 0.54427 0.17692
 C1283 C 0.67607 0.53014 0.15195
 C1284 C 0.68756 0.54544 0.13080
 C1285 C 0.68655 0.63459 0.14106
 C1286 C 0.67611 0.61906 0.16258
 C1287 C 0.70961 0.54744 0.08424
 C1288 C 0.69878 0.53188 0.10560
 H1289 H 0.68572 0.65748 0.14408
 H1290 H 0.66752 0.63041 0.18160
 H1291 H 0.71787 0.53614 0.06507
 H1292 H 0.69900 0.50906 0.10226
 H1293 H 0.72686 0.58147 0.04622
 H1294 H 0.70602 0.65942 0.09671
 H1295 H 0.65599 0.58500 0.19956
 H1296 H 0.67594 0.50731 0.14901
 C1297 C 0.23632 1.06731 0.56461
 C1298 C 0.25166 1.09008 0.57206
 C1299 C 0.26358 1.10450 0.55073
 C1300 C 0.26160 1.09587 0.52166
 C1301 C 0.24617 1.07251 0.51484
 C1302 C 0.23344 1.05833 0.53614
 C1303 C 0.22148 1.05387 0.58696
 C1304 C 0.20429 1.03253 0.57938
 C1305 C 0.18860 1.02137 0.60053
 C1306 C 0.19021 1.03137 0.62901
 C1307 C 0.20828 1.05204 0.63632
 C1308 C 0.22364 1.06368 0.61534
 C1309 C 0.21683 1.03618 0.52947
 C1310 C 0.20244 1.02356 0.55071
 C1311 C 0.25377 1.09895 0.60072
 C1312 C 0.24017 1.08581 0.62203
 H1313 H 0.21440 1.02900 0.50759
 H1314 H 0.18936 1.00702 0.54457
 H1315 H 0.26570 1.11650 0.60670
 H1316 H 0.24199 1.09358 0.64382
 H1317 H 0.27334 1.12345 0.55700
 H1318 H 0.24273 1.06615 0.49298
 H1319 H 0.17470 1.00541 0.59484
 H1320 H 0.20922 1.06013 0.65813
 C1321 C 0.18281 0.91764 0.90708
 C1322 C 0.18460 0.88798 0.90739
 C1323 C 0.19559 0.87469 0.93100
 C1324 C 0.20529 0.89053 0.95448
 C1325 C 0.20137 0.92054 0.95456
 C1326 C 0.19083 0.93412 0.93057
 C1327 C 0.17280 0.93160 0.88141
 C1328 C 0.17177 0.96126 0.88058
 C1329 C 0.16321 0.97429 0.85562
 C1330 C 0.15554 0.95779 0.83175
 C1331 C 0.15605 0.92812 0.83345
 C1332 C 0.16493 0.91493 0.85801
 C1333 C 0.18880 0.96384 0.92924
 C1334 C 0.17959 0.97716 0.90463
 C1335 C 0.17614 0.87203 0.88372
 C1336 C 0.16635 0.88530 0.85946
 H1337 H 0.19486 0.97690 0.94719
 H1338 H 0.17876 1.00008 0.90438
 H1339 H 0.17739 0.84908 0.88384
 H1340 H 0.16023 0.87224 0.84155
 H1341 H 0.19786 0.85169 0.93071
 H1342 H 0.20682 0.93351 0.97273
 H1343 H 0.16303 0.99711 0.85464
 H1344 H 0.14945 0.91520 0.81566
 C1345 C 0.71268 0.42275 0.44455
 C1346 C 0.70424 0.43339 0.47180
 C1347 C 0.71716 0.42149 0.49552
 C1348 C 0.73896 0.39946 0.49225
 C1349 C 0.74631 0.38877 0.46437
 C1350 C 0.73368 0.40051 0.44070
 C1351 C 0.69838 0.43415 0.41957
 C1352 C 0.70621 0.42256 0.39244
 C1353 C 0.69184 0.43250 0.36887
 C1354 C 0.66958 0.45369 0.37218
 C1355 C 0.66234 0.46563 0.39945
 C1356 C 0.67659 0.45572 0.42332
 C1357 C 0.74122 0.38978 0.41320
 C1358 C 0.72776 0.40069 0.38945
 C1359 C 0.68258 0.45526 0.47474
 C1360 C 0.66905 0.46629 0.45092
 H1361 H 0.75748 0.37259 0.41001
 H1362 H 0.73398 0.39162 0.36861
 H1363 H 0.67585 0.46373 0.49563
 H1364 H 0.65227 0.48292 0.45416
 H1365 H 0.70986 0.42893 0.51654
 H1366 H 0.76125 0.37049 0.46082
 H1367 H 0.69767 0.42344 0.34791
 H1368 H 0.64502 0.48176 0.40215
 C1369 C 0.77214 0.43435 0.59277
 C1370 C 0.77005 0.40516 0.59416
 C1371 C 0.76314 0.38958 0.56985
 C1372 C 0.75735 0.40282 0.54409
 C1373 C 0.76052 0.43215 0.54293
 C1374 C 0.76760 0.44803 0.56731
 C1375 C 0.77986 0.45075 0.61837
 C1376 C 0.78268 0.47988 0.61697
 C1377 C 0.79061 0.49521 0.64131
 C1378 C 0.79572 0.48149 0.66683
 C1379 C 0.79259 0.45229 0.66776
 C1380 C 0.78475 0.43683 0.64363
 C1381 C 0.77048 0.47727 0.56676
 C1382 C 0.77785 0.49292 0.59116
 C1383 C 0.77503 0.39199 0.61983
 C1384 C 0.78220 0.40758 0.64419
 H1385 H 0.76706 0.48814 0.54729
 H1386 H 0.77993 0.51539 0.58976
 H1387 H 0.77340 0.36942 0.62108
 H1388 H 0.78595 0.39662 0.66356
 H1389 H 0.76200 0.36690 0.57088
 H1390 H 0.75815 0.44262 0.52316
 H1391 H 0.79289 0.51769 0.64041
 H1392 H 0.79709 0.44137 0.68703
 C1393 C 0.25616 -0.07911 0.04815
 C1394 C 0.23705 -0.09846 0.05415
 C1395 C 0.22484 -0.11297 0.03182
 C1396 C 0.23057 -0.10777 0.00311
 C1397 C 0.25023 -0.08824 -0.00221
 C1398 C 0.26295 -0.07387 0.02011
 C1399 C 0.27023 -0.06503 0.07173
 C1400 C 0.29037 -0.04662 0.06581
 C1401 C 0.30441 -0.03414 0.08835
 C1402 C 0.29831 -0.03998 0.11659
 C1403 C 0.27777 -0.05818 0.12207
 C1404 C 0.26384 -0.07092 0.09975
 C1405 C 0.28288 -0.05492 0.01499
 C1406 C 0.29636 -0.04153 0.03745
 C1407 C 0.23105 -0.10366 0.08246
 C1408 C 0.24411 -0.09000 0.10489
 H1409 H 0.28834 -0.05066 -0.00655
 H1410 H 0.31180 -0.02732 0.03255
 H1411 H 0.21626 -0.11858 0.08732
 H1412 H 0.23903 -0.09474 0.12640
 H1413 H 0.21183 -0.12922 0.03735
 H1414 H 0.25617 -0.08485 -0.02385
 H1415 H 0.32010 -0.02001 0.08400
 H1416 H 0.27330 -0.06316 0.14368
 C1417 C 0.29629 0.08137 0.41492
 C1418 C 0.29066 0.11062 0.42045
 C1419 C 0.28446 0.12089 0.44804
 C1420 C 0.28224 0.10233 0.47036
 C1421 C 0.29003 0.07304 0.46484
 C1422 C 0.29661 0.06242 0.43691
 C1423 C 0.30172 0.07047 0.38545
 C1424 C 0.30763 0.04119 0.37963
 C1425 C 0.31318 0.03108 0.35146
 C1426 C 0.31283 0.05019 0.32943
 C1427 C 0.30616 0.07935 0.33575
 C1428 C 0.30090 0.08963 0.36365
 C1429 C 0.30281 0.03322 0.43029
 C1430 C 0.30827 0.02281 0.40216
 C1431 C 0.29033 0.12915 0.39816
 C1432 C 0.29526 0.11880 0.37017
 H1433 H 0.30322 0.01827 0.44693
 H1434 H 0.31292 0.00016 0.39802
 H1435 H 0.28587 0.15183 0.40234
 H1436 H 0.29469 0.13376 0.35352
 H1437 H 0.27942 0.14352 0.45193
 H1438 H 0.29047 0.05850 0.48179
 H1439 H 0.31865 0.00862 0.34684
 H1440 H 0.30549 0.09413 0.31892
 C1441 C 0.75503 0.59896 0.96377
 C1442 C 0.72965 0.61562 0.96488
 C1443 C 0.71960 0.62788 0.99088
 C1444 C 0.73474 0.62411 1.01628
 C1445 C 0.75993 0.60629 1.01453
 C1446 C 0.77017 0.59387 0.98844
 C1447 C 0.76649 0.58766 0.93603
 C1448 C 0.79239 0.57170 0.93471
 C1449 C 0.80369 0.56207 0.90812
 C1450 C 0.78935 0.56874 0.88322
 C1451 C 0.76335 0.58439 0.88486
 C1452 C 0.75176 0.59391 0.91126
 C1453 C 0.79576 0.57729 0.98634
 C1454 C 0.80666 0.56636 0.95994
 C1455 C 0.71517 0.62077 0.93973
 C1456 C 0.72606 0.61012 0.91337
 H1457 H 0.80768 0.57312 1.00520
 H1458 H 0.82663 0.55403 0.95924
 H1459 H 0.69547 0.63361 0.94038
 H1460 H 0.71447 0.61500 0.89445
 H1461 H 0.70051 0.64143 0.99039
 H1462 H 0.77209 0.60316 1.03344
 H1463 H 0.82385 0.55008 0.90666
 H1464 H 0.75246 0.58949 0.86555
 C1465 C 0.06660 0.71405 0.57747
 C1466 C 0.06200 0.70865 0.60589
 C1467 C 0.03618 0.71707 0.61832
 C1468 C 0.01434 0.73065 0.60281
 C1469 C 0.01982 0.73673 0.57436
 C1470 C 0.04571 0.72793 0.56147
 C1471 C 0.09415 0.70576 0.56455
 C1472 C 0.09900 0.71113 0.53607
 C1473 C 0.12526 0.70282 0.52386
 C1474 C 0.14656 0.68986 0.54028
 C1475 C 0.14131 0.68504 0.56886
 C1476 C 0.11517 0.69277 0.58105
 C1477 C 0.05141 0.73321 0.53307
 C1478 C 0.07750 0.72475 0.52053
 C1479 C 0.08349 0.69547 0.62166
 C1480 C 0.10966 0.68766 0.60944
 H1481 H 0.03555 0.74392 0.52040
 H1482 H 0.08092 0.72912 0.49856
 H1483 H 0.08011 0.69128 0.64369
 H1484 H 0.12572 0.67759 0.62233
 H1485 H 0.03330 0.71378 0.64064
 H1486 H 0.00456 0.74916 0.56249
 H1487 H 0.12923 0.70659 0.50183
 H1488 H 0.15746 0.67463 0.58144
 C1489 C 0.59093 0.20950 1.06803
 C1490 C 0.58561 0.20451 1.09640
 C1491 C 0.55942 0.21268 1.10790
 C1492 C 0.53790 0.22563 1.09154
 C1493 C 0.54375 0.23077 1.06294
 C1494 C 0.57025 0.22250 1.05108
 C1495 C 0.61888 0.20133 1.05606
 C1496 C 0.62453 0.20629 1.02766
 C1497 C 0.65118 0.19804 1.01637
 C1498 C 0.67199 0.18517 1.03349
 C1499 C 0.66585 0.18069 1.06197
 C1500 C 0.63943 0.18866 1.07334
 C1501 C 0.57674 0.22732 1.02276
 C1502 C 0.60335 0.21927 1.01123
 C1503 C 0.60667 0.19178 1.11300
 C1504 C 0.63315 0.18393 1.10164
 H1505 H 0.56112 0.23738 1.00936
 H1506 H 0.60739 0.22329 0.98928
 H1507 H 0.60265 0.18789 1.13499
 H1508 H 0.64884 0.17412 1.11513
 H1509 H 0.55564 0.20932 1.13009
 H1510 H 0.52837 0.24197 1.05020
 H1511 H 0.65574 0.20161 0.99442
 H1512 H 0.68145 0.17022 1.07514
 C1513 C 0.94077 0.23130 0.91558
 C1514 C 0.93342 0.25712 0.90322
 C1515 C 0.95357 0.27035 0.88890
 C1516 C 0.98143 0.25813 0.88646
 C1517 C 0.98825 0.23214 0.89955
 C1518 C 0.96812 0.21876 0.91414
 C1519 C 0.91910 0.21653 0.92918
 C1520 C 0.92619 0.19026 0.94091
 C1521 C 0.90526 0.17589 0.95299
 C1522 C 0.87733 0.18742 0.95283
 C1523 C 0.87080 0.21392 0.94104
 C1524 C 0.89154 0.22857 0.92934
 C1525 C 0.97454 0.19262 0.92652
 C1526 C 0.95396 0.17867 0.93979
 C1527 C 0.90571 0.26882 0.90439
 C1528 C 0.88511 0.25476 0.91719
 H1529 H 0.99558 0.18268 0.92564
 H1530 H 0.95977 0.15841 0.94879
 H1531 H 0.89980 0.28881 0.89489
 H1532 H 0.86393 0.26430 0.91725
 H1533 H 0.94658 0.28946 0.87855
 H1534 H 1.00913 0.22185 0.89742
 H1535 H 0.91072 0.15573 0.96231
 H1536 H 0.84946 0.22282 0.94013
 C1537 C 0.41908 0.73764 0.42345
 C1538 C 0.44627 0.72647 0.42857
 C1539 C 0.46827 0.73620 0.41346
 C1540 C 0.46343 0.75654 0.39263
 C1541 C 0.43565 0.76766 0.38838
 C1542 C 0.41366 0.75854 0.40380
 C1543 C 0.39570 0.72612 0.43777
 C1544 C 0.36847 0.73673 0.43191
 C1545 C 0.34628 0.72483 0.44450
 C1546 C 0.35106 0.70185 0.46222
 C1547 C 0.37863 0.69178 0.46819
 C1548 C 0.40099 0.70390 0.45609
 C1549 C 0.38614 0.76904 0.39891
 C1550 C 0.36395 0.75846 0.41287
 C1551 C 0.45079 0.70484 0.44777
 C1552 C 0.42854 0.69367 0.46122
 H1553 H 0.38169 0.78527 0.38380
 H1554 H 0.34304 0.76685 0.40816
 H1555 H 0.47168 0.69599 0.45195
 H1556 H 0.43294 0.67659 0.47540
 H1557 H 0.48914 0.72683 0.41679
 H1558 H 0.43044 0.78231 0.37202
 H1559 H 0.32530 0.73320 0.44010
 H1560 H 0.38275 0.67383 0.48135
 C1561 C 0.56150 0.79327 0.40816
 C1562 C 0.53924 0.79000 0.42655
 C1563 C 0.51480 0.78023 0.41544
 C1564 C 0.51290 0.77309 0.38613
 C1565 C 0.53552 0.77741 0.36819
 C1566 C 0.55970 0.78720 0.37898
 C1567 C 0.58720 0.80343 0.41958
 C1568 C 0.60923 0.80693 0.40097
 C1569 C 0.63349 0.81681 0.41180
 C1570 C 0.63593 0.82309 0.44100
 C1571 C 0.61381 0.81920 0.45950
 C1572 C 0.58922 0.80953 0.44882
 C1573 C 0.58218 0.79085 0.36104
 C1574 C 0.60656 0.80058 0.37187
 C1575 C 0.54196 0.79654 0.45569
 C1576 C 0.56654 0.80605 0.46664
 H1577 H 0.58092 0.78615 0.33844
 H1578 H 0.62343 0.80316 0.35733
 H1579 H 0.52499 0.79419 0.47017
 H1580 H 0.56777 0.81079 0.48923
 H1581 H 0.49754 0.77847 0.42964
 H1582 H 0.53426 0.77253 0.34560
 H1583 H 0.65059 0.81948 0.39754
 H1584 H 0.61556 0.82423 0.48200
 C1585 C 0.07818 0.29601 -0.09441
 C1586 C 0.05959 0.28293 -0.07757
 C1587 C 0.03474 0.27500 -0.08939
 C1588 C 0.02888 0.27919 -0.11829
 C1589 C 0.04773 0.29345 -0.13423
 C1590 C 0.07224 0.30159 -0.12262
 C1591 C 0.10439 0.30411 -0.08232
 C1592 C 0.12270 0.31744 -0.09928
 C1593 C 0.14731 0.32556 -0.08768
 C1594 C 0.15376 0.32054 -0.05932
 C1595 C 0.13550 0.30666 -0.04263
 C1596 C 0.11057 0.29856 -0.05405
 C1597 C 0.09109 0.31488 -0.13895
 C1598 C 0.11593 0.32271 -0.12745
 C1599 C 0.06640 0.27787 -0.04928
 C1600 C 0.09148 0.28546 -0.03775
 H1601 H 0.08662 0.31923 -0.16082
 H1602 H 0.12992 0.33299 -0.14070
 H1603 H 0.05230 0.26780 -0.03597
 H1604 H 0.09592 0.28112 -0.01588
 H1605 H 0.02041 0.26562 -0.07591
 H1606 H 0.04360 0.29723 -0.15630
 H1607 H 0.16145 0.33600 -0.10064
 H1608 H 0.14032 0.30299 -0.02069
 C1609 C 0.43666 0.26911 0.06355
 C1610 C 0.45215 0.24458 0.05222
 C1611 C 0.47688 0.23466 0.06556
 C1612 C 0.48662 0.24964 0.08961
 C1613 C 0.47010 0.27425 0.10034
 C1614 C 0.44557 0.28400 0.08753
 C1615 C 0.41001 0.27888 0.05082
 C1616 C 0.39416 0.30271 0.06322
 C1617 C 0.36869 0.31166 0.05159
 C1618 C 0.35902 0.29733 0.02747
 C1619 C 0.37520 0.27366 0.01487
 C1620 C 0.40069 0.26405 0.02683
 C1621 C 0.42932 0.30797 0.09905
 C1622 C 0.40400 0.31716 0.08711
 C1623 C 0.44213 0.23018 0.02822
 C1624 C 0.41699 0.23987 0.01562
 H1625 H 0.43609 0.31958 0.11767
 H1626 H 0.39197 0.33562 0.09675
 H1627 H 0.45378 0.21123 0.01912
 H1628 H 0.41009 0.22813 -0.00284
 H1629 H 0.48810 0.21490 0.05782
 H1630 H 0.47521 0.28540 0.11984
 H1631 H 0.35648 0.33016 0.06100
 H1632 H 0.36778 0.26267 -0.00381
 C1633 C 0.91130 0.76591 0.57531
 C1634 C 0.93012 0.74442 0.56290
 C1635 C 0.95486 0.73628 0.57712
 C1636 C 0.96158 0.75092 0.60263
 C1637 C 0.94142 0.77157 0.61495
 C1638 C 0.91665 0.77919 0.60152
 C1639 C 0.88550 0.77487 0.56063
 C1640 C 0.86674 0.79613 0.57351
 C1641 C 0.84266 0.80518 0.55934
 C1642 C 0.83735 0.79365 0.53218
 C1643 C 0.85624 0.77221 0.51942
 C1644 C 0.88032 0.76247 0.53383
 C1645 C 0.89727 0.80016 0.61385
 C1646 C 0.87266 0.80844 0.60010
 C1647 C 0.92383 0.73183 0.53642
 C1648 C 0.89951 0.74088 0.52202
 H1649 H 0.90127 0.81042 0.63422
 H1650 H 0.85831 0.82486 0.61020
 H1651 H 0.93805 0.71519 0.52651
 H1652 H 0.89575 0.73094 0.50146
 H1653 H 0.96876 0.71882 0.56825
 H1654 H 0.94513 0.78220 0.63518
 H1655 H 0.82847 0.82203 0.56901
 H1656 H 0.85220 0.76332 0.49846
   
