data_POSCAR
  _audit_creation_date              2014-09-24
  _audit_creation_method            'ToBaCCo'
  _symmetry_space_group_name_H-M    'P1'
  _symmetry_Int_Tables_number       1
  _symmetry_cell_setting            triclinic
  loop_
  _symmetry_equiv_pos_as_xyz
 x,y,z
_cell_length_a 56.3168
_cell_length_b 56.3167
_cell_length_c 42.7713
_cell_angle_alpha 89.939700
_cell_angle_beta 90.030000
_cell_angle_gamma 90.008100
loop_
  _atom_site_label
  _atom_site_type_symbol
  _atom_site_fract_x
  _atom_site_fract_y
  _atom_site_fract_z
C1 C 0.31273 -0.03193 0.24968
 C2 C 0.32480 -0.01121 0.24073
 C3 C 0.33952 -0.01147 0.21432
 C4 C 0.34247 -0.03236 0.19712
 C5 C 0.33021 -0.05291 0.20576
 C6 C 0.31532 -0.05274 0.23201
 C7 C 0.32487 0.00986 0.26095
 C8 C 0.33967 0.01010 0.28730
 C9 C 0.34283 0.03104 0.30440
 C10 C 0.33065 0.05165 0.29567
 C11 C 0.31570 0.05146 0.26949
 C12 C 0.31292 0.03064 0.25195
 H13 H 0.30190 -0.03193 0.27064
 H14 H 0.34962 0.00425 0.20817
 H15 H 0.34967 -0.00571 0.29342
 H16 H 0.30204 0.03072 0.23103
 H17 H 0.33290 -0.06920 0.19266
 H18 H 0.33340 0.06802 0.30855
 C19 C 0.18680 -0.03095 0.75014
 C20 C 0.17475 -0.01028 0.75929
 C21 C 0.16017 -0.01068 0.78582
 C22 C 0.15733 -0.03165 0.80295
 C23 C 0.16957 -0.05214 0.79411
 C24 C 0.18432 -0.05182 0.76775
 C25 C 0.17456 0.01087 0.73915
 C26 C 0.15975 0.01113 0.71281
 C27 C 0.15649 0.03212 0.69579
 C28 C 0.16857 0.05276 0.70458
 C29 C 0.18355 0.05254 0.73074
 C30 C 0.18643 0.03167 0.74821
 H31 H 0.19753 -0.03092 0.72911
 H32 H 0.15007 0.00501 0.79212
 H33 H 0.14982 -0.00471 0.70664
 H34 H 0.19733 0.03172 0.76911
 H35 H 0.16700 -0.06851 0.80707
 H36 H 0.16576 0.06916 0.69176
 C37 C 0.68823 0.46857 0.25050
 C38 C 0.67614 0.48927 0.25944
 C39 C 0.66135 0.48892 0.28578
 C40 C 0.65836 0.46797 0.30291
 C41 C 0.67064 0.44746 0.29426
 C42 C 0.68558 0.44773 0.26810
 C43 C 0.67611 0.51038 0.23923
 C44 C 0.66125 0.51073 0.21294
 C45 C 0.65821 0.53168 0.19583
 C46 C 0.67050 0.55220 0.20445
 C47 C 0.68552 0.55193 0.23057
 C48 C 0.68822 0.53108 0.24815
 H49 H 0.69911 0.46857 0.22960
 H50 H 0.65123 0.50463 0.29191
 H51 H 0.65112 0.49502 0.20683
 H52 H 0.69915 0.53109 0.26902
 H53 H 0.66795 0.43110 0.30722
 H54 H 0.66777 0.56856 0.19152
 C55 C 0.81298 0.46866 0.74998
 C56 C 0.82511 0.48928 0.74074
 C57 C 0.83976 0.48878 0.71428
 C58 C 0.84259 0.46776 0.69731
 C59 C 0.83028 0.44732 0.70625
 C60 C 0.81547 0.44775 0.73255
 C61 C 0.82524 0.51048 0.76070
 C62 C 0.83999 0.51085 0.78710
 C63 C 0.84309 0.53188 0.80404
 C64 C 0.83093 0.55243 0.79510
 C65 C 0.81602 0.55210 0.76887
 C66 C 0.81329 0.53120 0.75149
 H67 H 0.80219 0.46878 0.77095
 H68 H 0.84990 0.50443 0.70791
 H69 H 0.84997 0.49507 0.79340
 H70 H 0.80242 0.53116 0.73056
 H71 H 0.83283 0.43091 0.69342
 H72 H 0.83362 0.56886 0.80786
 C73 C 0.24409 0.41012 1.04225
 C74 C 0.25527 0.42173 1.01721
 C75 C 0.27759 0.43212 1.02156
 C76 C 0.28876 0.43098 1.05071
 C77 C 0.27778 0.41914 1.07561
 C78 C 0.25547 0.40853 1.07133
 C79 C 0.24427 0.42177 0.98602
 C80 C 0.22191 0.43210 0.98167
 C81 C 0.21083 0.43111 0.95245
 C82 C 0.22192 0.41947 0.92751
 C83 C 0.24424 0.40894 0.93181
 C84 C 0.25553 0.41036 0.96092
 H85 H 0.22715 0.40138 1.03858
 H86 H 0.28640 0.44078 1.00209
 H87 H 0.21304 0.44062 1.00117
 H88 H 0.27249 0.40165 0.96449
 H89 H 0.28698 0.41744 1.09781
 H90 H 0.21284 0.41785 0.90524
 C91 C 0.75607 0.08981 1.04217
 C92 C 0.74464 0.07831 1.01725
 C93 C 0.72233 0.06798 1.02189
 C94 C 0.71143 0.06905 1.05120
 C95 C 0.72265 0.08078 1.07598
 C96 C 0.74496 0.09134 1.07141
 C97 C 0.75537 0.07827 0.98592
 C98 C 0.77768 0.06793 0.98131
 C99 C 0.78851 0.06888 0.95194
 C100 C 0.77722 0.08049 0.92709
 C101 C 0.75494 0.09104 0.93164
 C102 C 0.74390 0.08965 0.96091
 H103 H 0.77301 0.09850 1.03829
 H104 H 0.71333 0.05939 1.00252
 H105 H 0.78672 0.05943 1.00073
 H106 H 0.72697 0.09838 0.96467
 H107 H 0.71366 0.08243 1.09830
 H108 H 0.78610 0.08208 0.90469
 C109 C 0.25617 0.58924 0.54063
 C110 C 0.24477 0.57778 0.51566
 C111 C 0.22248 0.56739 0.52025
 C112 C 0.21158 0.56837 0.54958
 C113 C 0.22280 0.58006 0.57440
 C114 C 0.24507 0.59065 0.56985
 C115 C 0.25552 0.57787 0.48434
 C116 C 0.27782 0.56753 0.47968
 C117 C 0.28871 0.56866 0.45036
 C118 C 0.27747 0.58044 0.42560
 C119 C 0.25519 0.59098 0.43021
 C120 C 0.24409 0.58942 0.45943
 H121 H 0.27308 0.59801 0.53686
 H122 H 0.21349 0.55884 0.50086
 H123 H 0.28682 0.55890 0.49903
 H124 H 0.22717 0.59814 0.46324
 H125 H 0.21386 0.58169 0.59675
 H126 H 0.28640 0.58218 0.40326
 C127 C 0.74461 0.91108 0.54015
 C128 C 0.75593 0.92252 0.51510
 C129 C 0.77829 0.93282 0.51951
 C130 C 0.78936 0.93174 0.54878
 C131 C 0.77819 0.92005 0.57368
 C132 C 0.75586 0.90956 0.56929
 C133 C 0.74502 0.92251 0.48385
 C134 C 0.72265 0.93278 0.47941
 C135 C 0.71158 0.93167 0.45018
 C136 C 0.72271 0.91997 0.42532
 C137 C 0.74506 0.90950 0.42971
 C138 C 0.75633 0.91105 0.45883
 H139 H 0.72766 0.90238 0.53652
 H140 H 0.78717 0.94136 0.49998
 H141 H 0.71373 0.94133 0.49885
 H142 H 0.77330 0.90238 0.46248
 H143 H 0.78719 0.91832 0.59601
 H144 H 0.71365 0.91825 0.40305
 C145 C -0.02994 0.23983 0.37394
 C146 C -0.00773 0.23862 0.38885
 C147 C -0.00062 0.21731 0.40329
 C148 C -0.01574 0.19748 0.40315
 C149 C -0.03776 0.19880 0.38786
 C150 C -0.04485 0.21988 0.37309
 C151 C 0.00813 0.25956 0.38892
 C152 C 0.00098 0.28083 0.40335
 C153 C 0.01606 0.30067 0.40329
 C154 C 0.03810 0.29942 0.38812
 C155 C 0.04524 0.27840 0.37337
 C156 C 0.03038 0.25842 0.37412
 H157 H -0.03539 0.25620 0.36264
 H158 H 0.01646 0.21636 0.41495
 H159 H -0.01611 0.28180 0.41494
 H160 H 0.03592 0.24213 0.36278
 H161 H -0.04942 0.18344 0.38754
 H162 H 0.04971 0.31479 0.38786
 C163 C -0.03072 0.75865 0.12614
 C164 C -0.00849 0.75973 0.11130
 C165 C -0.00126 0.78098 0.09682
 C166 C -0.01626 0.80086 0.09687
 C167 C -0.03829 0.79970 0.11207
 C168 C -0.04551 0.77869 0.12689
 C169 C 0.00731 0.73875 0.11139
 C170 C 0.00014 0.71747 0.09698
 C171 C 0.01523 0.69763 0.09712
 C172 C 0.03727 0.69891 0.11236
 C173 C 0.04439 0.71995 0.12708
 C174 C 0.02953 0.73991 0.12625
 H175 H -0.03626 0.74233 0.13750
 H176 H 0.01582 0.78189 0.08521
 H177 H -0.01695 0.71656 0.08535
 H178 H 0.03508 0.75623 0.13754
 H179 H -0.04980 0.81516 0.11228
 H180 H 0.04894 0.68358 0.11272
 C181 C 0.46905 0.25927 0.62615
 C182 C 0.49127 0.26026 0.61128
 C183 C 0.49854 0.28146 0.59671
 C184 C 0.48358 0.30137 0.59672
 C185 C 0.46156 0.30028 0.61196
 C186 C 0.45432 0.27933 0.62684
 C187 C 0.50700 0.23924 0.61144
 C188 C 0.49981 0.21798 0.59703
 C189 C 0.51482 0.19810 0.59727
 C190 C 0.53681 0.19930 0.61260
 C191 C 0.54397 0.22032 0.62733
 C192 C 0.52919 0.24033 0.62640
 H193 H 0.46343 0.24302 0.63759
 H194 H 0.51561 0.28231 0.58508
 H195 H 0.48276 0.21705 0.58530
 H196 H 0.53476 0.25664 0.63770
 H197 H 0.45005 0.31572 0.61217
 H198 H 0.54837 0.18390 0.61297
 C199 C 0.47024 0.74040 0.87403
 C200 C 0.49246 0.73921 0.88892
 C201 C 0.49959 0.71790 0.90335
 C202 C 0.48447 0.69806 0.90320
 C203 C 0.46245 0.69939 0.88792
 C204 C 0.45537 0.72046 0.87318
 C205 C 0.50831 0.76016 0.88897
 C206 C 0.50115 0.78142 0.90342
 C207 C 0.51621 0.80127 0.90331
 C208 C 0.53823 0.80004 0.88808
 C209 C 0.54536 0.77903 0.87331
 C210 C 0.53053 0.75904 0.87410
 H211 H 0.46473 0.75674 0.86271
 H212 H 0.51668 0.71694 0.91499
 H213 H 0.48408 0.78237 0.91505
 H214 H 0.53606 0.74276 0.86275
 H215 H 0.45076 0.68406 0.88755
 H216 H 0.54982 0.81542 0.88778
 C217 C -0.28245 0.56340 0.99985
 C218 C -0.26165 0.57530 1.00886
 C219 C -0.26183 0.58997 1.03530
 C220 C -0.28272 0.59304 1.05249
 C221 C -0.30335 0.58095 1.04380
 C222 C -0.30326 0.56610 1.01750
 C223 C -0.24055 0.57524 0.98866
 C224 C -0.24017 0.59005 0.96232
 C225 C -0.21918 0.59305 0.94525
 C226 C -0.19869 0.58070 0.95398
 C227 C -0.19902 0.56572 0.98014
 C228 C -0.21988 0.56310 0.99767
 H229 H -0.28250 0.55260 0.97886
 H230 H -0.24604 0.59994 1.04149
 H231 H -0.25589 0.60018 0.95619
 H232 H -0.21991 0.55221 1.01859
 H233 H -0.31963 0.58372 1.05688
 H234 H -0.18228 0.58333 0.94113
 C235 C -0.28190 0.43746 0.49861
 C236 C -0.26107 0.42549 0.48993
 C237 C -0.26115 0.41066 0.46364
 C238 C -0.28196 0.40750 0.44629
 C239 C -0.30262 0.41966 0.45466
 C240 C -0.30263 0.43467 0.48079
 C241 C -0.24009 0.42563 0.51036
 C242 C -0.23994 0.41104 0.53692
 C243 C -0.21909 0.40810 0.55427
 C244 C -0.19849 0.42027 0.54564
 C245 C -0.19858 0.43503 0.51926
 C246 C -0.21931 0.43760 0.50143
 H247 H -0.28205 0.44838 0.51949
 H248 H -0.24534 0.40064 0.45770
 H249 H -0.25570 0.40099 0.54305
 H250 H -0.21915 0.44832 0.48036
 H251 H -0.31884 0.41681 0.44146
 H252 H -0.18221 0.41761 0.55876
 C253 C 0.21887 -0.06360 -0.00214
 C254 C 0.23958 -0.07569 -0.01103
 C255 C 0.23928 -0.09048 -0.03737
 C256 C 0.21833 -0.09350 -0.05455
 C257 C 0.19780 -0.08120 -0.04592
 C258 C 0.19805 -0.06625 -0.01977
 C259 C 0.26064 -0.07571 0.00924
 C260 C 0.26085 -0.09041 0.03570
 C261 C 0.28175 -0.09343 0.05297
 C262 C 0.30234 -0.08123 0.04429
 C263 C 0.30218 -0.06637 0.01800
 C264 C 0.28140 -0.06372 0.00029
 H265 H 0.21883 -0.05273 0.01876
 H266 H 0.25504 -0.10056 -0.04342
 H267 H 0.24504 -0.10041 0.04181
 H268 H 0.28150 -0.05290 -0.02068
 H269 H 0.18142 -0.08384 -0.05886
 H270 H 0.31868 -0.08385 0.05732
 C271 C 0.21862 1.06329 0.50079
 C272 C 0.23928 1.07541 0.50986
 C273 C 0.23885 1.09023 0.53615
 C274 C 0.21785 1.09323 0.55312
 C275 C 0.19736 1.08093 0.54435
 C276 C 0.19772 1.06595 0.51823
 C277 C 0.26046 1.07542 0.48982
 C278 C 0.26090 1.09027 0.46352
 C279 C 0.28192 1.09329 0.44652
 C280 C 0.30239 1.08093 0.45531
 C281 C 0.30200 1.06592 0.48145
 C282 C 0.28110 1.06327 0.49888
 H283 H 0.21868 1.05238 0.47993
 H284 H 0.25453 1.10035 0.54239
 H285 H 0.24517 1.10038 0.45733
 H286 H 0.28102 1.05233 0.51975
 H287 H 0.18097 1.08361 0.55719
 H288 H 0.31882 1.08356 0.44250
 C289 C 0.16048 0.49414 0.20980
 C290 C 0.17208 0.50548 0.23471
 C291 C 0.18236 0.52783 0.23012
 C292 C 0.18112 0.53885 0.20086
 C293 C 0.16929 0.52769 0.17611
 C294 C 0.15881 0.50536 0.18065
 C295 C 0.17222 0.49461 0.26597
 C296 C 0.18261 0.47230 0.27043
 C297 C 0.18162 0.46126 0.29969
 C298 C 0.16993 0.47237 0.32458
 C299 C 0.15934 0.49466 0.32017
 C300 C 0.16076 0.50590 0.29102
 H301 H 0.15180 0.47719 0.21356
 H302 H 0.19101 0.53677 0.24948
 H303 H 0.19115 0.46340 0.25097
 H304 H 0.15199 0.52281 0.28736
 H305 H 0.16747 0.53671 0.15383
 H306 H 0.16829 0.46332 0.34688
 C307 C -0.16011 1.00552 0.20862
 C308 C -0.17177 0.99435 0.23364
 C309 C -0.18212 0.97201 0.22932
 C310 C -0.18090 0.96080 0.20020
 C311 C -0.16901 0.97179 0.17532
 C312 C -0.15844 0.99412 0.17960
 C313 C -0.17185 1.00537 0.26479
 C314 C -0.18209 1.02777 0.26901
 C315 C -0.18106 1.03891 0.29821
 C316 C -0.16947 1.02777 0.32324
 C317 C -0.15903 1.00540 0.31903
 C318 C -0.16050 0.99409 0.28997
 H319 H -0.15140 1.02247 0.21228
 H320 H -0.19081 0.96327 0.24883
 H321 H -0.19056 1.03661 0.24939
 H322 H -0.15184 0.97710 0.28648
 H323 H -0.16722 0.96263 0.15312
 H324 H -0.16779 1.03681 0.34552
 C325 C 0.34044 0.50638 -0.29233
 C326 C 0.32876 0.49529 -0.26728
 C327 C 0.31829 0.47300 -0.27157
 C328 C 0.31941 0.46179 -0.30067
 C329 C 0.33131 0.47268 -0.32558
 C330 C 0.34201 0.49496 -0.32135
 C331 C 0.32872 0.50634 -0.23615
 C332 C 0.31842 0.52872 -0.23194
 C333 C 0.31939 0.53985 -0.20274
 C334 C 0.33099 0.52874 -0.17769
 C335 C 0.34148 0.50639 -0.18189
 C336 C 0.34007 0.49508 -0.21096
 H337 H 0.34923 0.52330 -0.28871
 H338 H 0.30958 0.46426 -0.25209
 H339 H 0.30993 0.53753 -0.25157
 H340 H 0.34875 0.47810 -0.21443
 H341 H 0.33298 0.46346 -0.34773
 H342 H 0.33261 0.53777 -0.15539
 C343 C 0.65961 -0.00588 -0.29116
 C344 C 0.67118 0.00544 -0.26621
 C345 C 0.68147 0.02778 -0.27073
 C346 C 0.68028 0.03883 -0.29997
 C347 C 0.66849 0.02772 -0.32478
 C348 C 0.65798 0.00538 -0.32033
 C349 C 0.67133 -0.00545 -0.23495
 C350 C 0.68175 -0.02775 -0.23051
 C351 C 0.68092 -0.03872 -0.20120
 C352 C 0.66934 -0.02757 -0.17625
 C353 C 0.65872 -0.00530 -0.18064
 C354 C 0.65999 0.00588 -0.20985
 H355 H 0.65095 -0.02285 -0.28737
 H356 H 0.69010 0.03670 -0.25134
 H357 H 0.69023 -0.03667 -0.25000
 H358 H 0.65120 0.02279 -0.21348
 H359 H 0.66676 0.03682 -0.34704
 H360 H 0.66785 -0.03656 -0.15390
 C361 C -0.01009 0.21994 0.87725
 C362 C -0.01126 0.24221 0.86246
 C363 C -0.03257 0.24941 0.84812
 C364 C -0.05241 0.23435 0.84827
 C365 C -0.05114 0.21229 0.86342
 C366 C -0.03007 0.20511 0.87808
 C367 C 0.00970 0.25803 0.86240
 C368 C 0.03094 0.25088 0.84787
 C369 C 0.05077 0.26596 0.84789
 C370 C 0.04957 0.28797 0.86311
 C371 C 0.02858 0.29509 0.87796
 C372 C 0.00860 0.28025 0.87726
 H373 H 0.00625 0.21437 0.88850
 H374 H -0.03356 0.26651 0.83654
 H375 H 0.03188 0.23382 0.83623
 H376 H -0.00767 0.28578 0.88865
 H377 H -0.06651 0.20069 0.86373
 H378 H 0.06493 0.29958 0.86332
 C379 C 0.51010 0.22005 0.12406
 C380 C 0.51130 0.24230 0.13883
 C381 C 0.53263 0.24946 0.15316
 C382 C 0.55245 0.23436 0.15304
 C383 C 0.55113 0.21232 0.13790
 C384 C 0.53006 0.20519 0.12324
 C385 C 0.49034 0.25813 0.13887
 C386 C 0.46908 0.25094 0.15331
 C387 C 0.44922 0.26598 0.15319
 C388 C 0.45043 0.28801 0.13795
 C389 C 0.47145 0.29518 0.12318
 C390 C 0.49145 0.28037 0.12399
 H391 H 0.49376 0.21450 0.11281
 H392 H 0.53364 0.26654 0.16473
 H393 H 0.46813 0.23385 0.16494
 H394 H 0.50774 0.28593 0.11264
 H395 H 0.56649 0.20069 0.13760
 H396 H 0.43505 0.29959 0.13764
 C397 C 0.00887 0.71947 0.62433
 C398 C 0.01002 0.74174 0.63906
 C399 C 0.03133 0.74896 0.65338
 C400 C 0.05119 0.73392 0.65327
 C401 C 0.04993 0.71186 0.63818
 C402 C 0.02887 0.70466 0.62354
 C403 C -0.01095 0.75756 0.63900
 C404 C -0.03226 0.75039 0.65337
 C405 C -0.05211 0.76548 0.65321
 C406 C -0.05080 0.78753 0.63800
 C407 C -0.02974 0.79467 0.62332
 C408 C -0.00978 0.77982 0.62418
 H409 H -0.00745 0.71387 0.61308
 H410 H 0.03231 0.76607 0.66490
 H411 H -0.03320 0.73328 0.66497
 H412 H 0.00655 0.78537 0.61291
 H413 H 0.06532 0.70029 0.63788
 H414 H -0.06614 0.79920 0.63762
 C415 C 0.49075 0.71979 0.37520
 C416 C 0.48965 0.74207 0.36043
 C417 C 0.46836 0.74934 0.34608
 C418 C 0.44848 0.73433 0.34621
 C419 C 0.44968 0.71227 0.36135
 C420 C 0.47072 0.70502 0.37601
 C421 C 0.51064 0.75785 0.36049
 C422 C 0.53190 0.75070 0.34604
 C423 C 0.55177 0.76574 0.34624
 C424 C 0.55056 0.78770 0.36157
 C425 C 0.52955 0.79482 0.37634
 C426 C 0.50954 0.78003 0.37545
 H427 H 0.50706 0.71417 0.38647
 H428 H 0.46742 0.76646 0.33453
 H429 H 0.53284 0.73366 0.33433
 H430 H 0.49324 0.78556 0.38680
 H431 H 0.43427 0.70071 0.36165
 H432 H 0.56596 0.79928 0.36193
 B433 B -0.02359 0.01433 1.01098
 B434 B -0.03111 0.00720 0.97449
 B435 B -0.01190 0.02914 0.98099
 B436 B 0.00530 0.02206 1.01199
 B437 B -0.00381 -0.00543 1.02441
 B438 B -0.02678 -0.01439 1.00101
 B439 B 0.01236 -0.00965 0.96462
 B440 B 0.01997 -0.00251 1.00108
 B441 B 0.00068 -0.02443 0.99460
 B442 B -0.01648 -0.01733 0.96361
 B443 B -0.00733 0.01012 0.95115
 B444 B 0.01561 0.01912 0.97452
 B445 B 0.47668 0.51451 0.50960
 B446 B 0.46919 0.50730 0.47313
 B447 B 0.48841 0.52924 0.47957
 B448 B 0.50558 0.52222 0.51063
 B449 B 0.49643 0.49477 0.52316
 B450 B 0.47347 0.48577 0.49975
 B451 B 0.51266 0.49038 0.46341
 B452 B 0.52023 0.49762 0.49985
 B453 B 0.50093 0.47569 0.49343
 B454 B 0.48381 0.48273 0.46238
 B455 B 0.49299 0.51014 0.44982
 B456 B 0.51592 0.51918 0.47319
 B457 B 0.52349 0.98484 0.51065
 B458 B 0.53084 0.99213 0.47415
 B459 B 0.51174 0.97010 0.48068
 B460 B 0.49463 0.97701 0.51180
 B461 B 0.50370 1.00449 0.52426
 B462 B 0.52654 1.01361 0.50076
 B463 B 0.48727 1.00886 0.46457
 B464 B 0.47984 1.00156 0.50105
 B465 B 0.49902 1.02357 0.49453
 B466 B 0.51608 1.01664 0.46343
 B467 B 0.50698 0.98920 0.45093
 B468 B 0.48416 0.98005 0.47440
 B469 B 0.02274 0.48546 1.01134
 B470 B 0.03035 0.49276 0.97493
 B471 B 0.01108 0.47084 0.98120
 B472 B -0.00618 0.47780 1.01215
 B473 B 0.00297 0.50520 1.02479
 B474 B 0.02602 0.51422 1.00156
 B475 B -0.01306 0.50977 0.96494
 B476 B -0.02076 0.50246 1.00131
 B477 B -0.00141 0.52437 0.99507
 B478 B 0.01581 0.51738 0.96413
 B479 B 0.00662 0.49001 0.95145
 B480 B -0.01639 0.48096 0.97465
 B481 B 0.02369 0.51427 0.48996
 B482 B 0.03117 0.50690 0.52640
 B483 B 0.01192 0.52883 0.52006
 B484 B -0.00522 0.52192 0.48894
 B485 B 0.00398 0.49454 0.47628
 B486 B 0.02693 0.48548 0.49966
 B487 B -0.01228 0.48985 0.53599
 B488 B -0.01984 0.49724 0.49958
 B489 B -0.00051 0.47532 0.50590
 B490 B 0.01658 0.48225 0.53700
 B491 B 0.00735 0.50959 0.54970
 B492 B -0.01558 0.51868 0.52635
 B493 B 0.52380 0.01479 -0.01000
 B494 B 0.53114 0.00752 0.02652
 B495 B 0.51191 0.02942 0.01995
 B496 B 0.49489 0.02243 -0.01124
 B497 B 0.50415 -0.00498 -0.02372
 B498 B 0.52702 -0.01397 -0.00015
 B499 B 0.48767 -0.00952 0.03590
 B500 B 0.48024 -0.00224 -0.00059
 B501 B 0.49956 -0.02413 0.00596
 B502 B 0.51653 -0.01711 0.03714
 B503 B 0.50724 0.01026 0.04965
 B504 B 0.48439 0.01928 0.02612
 B505 B 0.47634 0.48560 -0.01095
 B506 B 0.46900 0.49277 0.02557
 B507 B 0.48824 0.47088 0.01898
 B508 B 0.50525 0.47796 -0.01219
 B509 B 0.49598 0.50540 -0.02462
 B510 B 0.47312 0.51433 -0.00105
 B511 B 0.51249 0.50978 0.03502
 B512 B 0.51990 0.50259 -0.00148
 B513 B 0.50060 0.52447 0.00510
 B514 B 0.48363 0.51737 0.03625
 B515 B 0.49292 0.48997 0.04872
 B516 B 0.51576 0.48100 0.02518
 B517 B -0.02394 0.98518 0.48968
 B518 B -0.03132 0.99248 0.52614
 B519 B -0.01211 0.97054 0.51972
 B520 B 0.00496 0.97749 0.48857
 B521 B -0.00424 1.00490 0.47596
 B522 B -0.02712 1.01395 0.49941
 B523 B 0.01219 1.00944 0.53562
 B524 B 0.01964 1.00212 0.49918
 B525 B 0.00036 1.02406 0.50558
 B526 B -0.01667 1.01709 0.53673
 B527 B -0.00744 0.98971 0.54937
 B528 B 0.01541 0.98063 0.52595
 B529 B 0.76612 0.22599 0.23965
 B530 B 0.75879 0.21853 0.27609
 B531 B 0.78077 0.23772 0.26972
 B532 B 0.77387 0.25487 0.23860
 B533 B 0.74644 0.24575 0.22596
 B534 B 0.73734 0.22283 0.24937
 B535 B 0.74190 0.26204 0.28565
 B536 B 0.74925 0.26957 0.24923
 B537 B 0.72728 0.25031 0.25559
 B538 B 0.73420 0.23319 0.28670
 B539 B 0.76159 0.24235 0.29938
 B540 B 0.77072 0.26525 0.27600
 B541 B 0.73551 0.77369 0.73895
 B542 B 0.74281 0.78105 0.77544
 B543 B 0.72085 0.76186 0.76896
 B544 B 0.72780 0.74480 0.73782
 B545 B 0.75523 0.75399 0.72528
 B546 B 0.76428 0.77685 0.74877
 B547 B 0.75973 0.73754 0.78496
 B548 B 0.75242 0.73011 0.74849
 B549 B 0.77437 0.74937 0.75496
 B550 B 0.76740 0.76639 0.78609
 B551 B 0.74000 0.75717 0.79865
 B552 B 0.73092 0.73433 0.77520
 B553 B 0.26406 0.27425 0.76077
 B554 B 0.25682 0.28176 0.72429
 B555 B 0.27872 0.26250 0.73075
 B556 B 0.27171 0.24533 0.76181
 B557 B 0.24429 0.25454 0.77433
 B558 B 0.23531 0.27751 0.75091
 B559 B 0.23980 0.23832 0.71459
 B560 B 0.24706 0.23073 0.75103
 B561 B 0.22517 0.25006 0.74460
 B562 B 0.23221 0.26718 0.71355
 B563 B 0.25959 0.25795 0.70100
 B564 B 0.26860 0.23501 0.72438
 B565 B 0.23483 0.72683 0.26048
 B566 B 0.24206 0.71945 0.22399
 B567 B 0.22009 0.73861 0.23049
 B568 B 0.22708 0.75572 0.26158
 B569 B 0.25454 0.74658 0.27407
 B570 B 0.26358 0.72371 0.25060
 B571 B 0.25891 0.76298 0.21436
 B572 B 0.25166 0.77044 0.25083
 B573 B 0.27361 0.75120 0.24434
 B574 B 0.26660 0.73414 0.21326
 B575 B 0.23918 0.74331 0.20074
 B576 B 0.23011 0.76616 0.22417
 B577 B 0.26510 0.72654 0.73910
 B578 B 0.25783 0.71904 0.77555
 B579 B 0.27973 0.73832 0.76915
 B580 B 0.27273 0.75546 0.73806
 B581 B 0.24532 0.74623 0.72546
 B582 B 0.23635 0.72326 0.74887
 B583 B 0.24078 0.76247 0.78518
 B584 B 0.24806 0.77005 0.74875
 B585 B 0.22617 0.75069 0.75513
 B586 B 0.23320 0.73359 0.78622
 B587 B 0.26057 0.74285 0.79885
 B588 B 0.26958 0.76580 0.77547
 B589 B 0.23566 0.27337 0.23969
 B590 B 0.24295 0.28080 0.27615
 B591 B 0.22102 0.26156 0.26974
 B592 B 0.22799 0.24446 0.23864
 B593 B 0.25540 0.25367 0.22607
 B594 B 0.26442 0.27659 0.24948
 B595 B 0.25996 0.23733 0.28579
 B596 B 0.25264 0.22982 0.24935
 B597 B 0.27456 0.24914 0.25574
 B598 B 0.26757 0.26620 0.28683
 B599 B 0.24020 0.25695 0.29944
 B600 B 0.23114 0.23406 0.27606
 B601 B 0.76536 0.77396 0.25993
 B602 B 0.75809 0.78151 0.22348
 B603 B 0.78001 0.76225 0.22986
 B604 B 0.77303 0.74505 0.26090
 B605 B 0.74562 0.75421 0.27348
 B606 B 0.73661 0.77721 0.25012
 B607 B 0.74109 0.73807 0.21371
 B608 B 0.74838 0.73044 0.25013
 B609 B 0.72648 0.74977 0.24377
 B610 B 0.73347 0.76693 0.21274
 B611 B 0.76085 0.75773 0.20012
 B612 B 0.76989 0.73476 0.22345
 B613 B 0.73411 0.22644 0.76153
 B614 B 0.74138 0.21922 0.72500
 B615 B 0.71941 0.23835 0.73160
 B616 B 0.72636 0.25531 0.76284
 B617 B 0.75381 0.24613 0.77530
 B618 B 0.76287 0.22336 0.75168
 B619 B 0.75823 0.26279 0.71573
 B620 B 0.75095 0.27008 0.75224
 B621 B 0.77291 0.25088 0.74565
 B622 B 0.76594 0.23396 0.71442
 B623 B 0.73852 0.24317 0.70192
 B624 B 0.72942 0.26592 0.72551
 C625 C 0.39555 1.03070 0.36781
 C626 C 0.39959 1.00554 0.38039
 C627 C 0.41861 1.00376 0.39979
 C628 C 0.43178 1.02732 0.40482
 C629 C 0.41273 1.04470 0.41649
 C630 C 0.39360 1.04647 0.39699
 C631 C 0.41918 1.03775 0.35245
 C632 C 0.43824 1.03596 0.37192
 C633 C 0.37539 1.03192 0.34626
 C634 C 0.35963 1.03185 0.32722
 C635 C 0.45220 1.02429 0.42557
 C636 C 0.46843 1.01924 0.44261
 H637 H 0.38842 0.99044 0.37468
 H638 H 0.42374 0.98710 0.41067
 H639 H 0.41418 1.05476 0.43803
 H640 H 0.37859 1.05797 0.40189
 H641 H 0.42078 1.04373 0.32840
 H642 H 0.45616 1.04041 0.36461
 C643 C -0.10438 0.53174 0.86772
 C644 C -0.08134 0.52436 0.85122
 C645 C -0.06236 0.52260 0.87072
 C646 C -0.06822 0.52839 0.90485
 C647 C -0.08879 0.51171 0.91342
 C648 C -0.10780 0.51349 0.89393
 C649 C -0.09832 0.55511 0.88449
 C650 C -0.07923 0.55333 0.90410
 C651 C -0.12449 0.53293 0.84608
 C652 C -0.14019 0.53278 0.82696
 C653 C -0.04784 0.52536 0.92566
 C654 C -0.03170 0.52027 0.94280
 H655 H -0.08003 0.52089 0.82631
 H656 H -0.04479 0.51764 0.86255
 H657 H -0.08846 0.49959 0.93317
 H658 H -0.12378 0.50296 0.89702
 H659 H -0.10818 0.57149 0.88137
 H660 H -0.07270 0.56820 0.91776
 C661 C 0.10389 -0.03155 0.86783
 C662 C 0.08090 -0.02410 0.85120
 C663 C 0.06188 -0.02232 0.87060
 C664 C 0.06766 -0.02815 0.90477
 C665 C 0.08824 -0.01151 0.91342
 C666 C 0.10729 -0.01331 0.89403
 C667 C 0.09775 -0.05491 0.88461
 C668 C 0.07862 -0.05311 0.90411
 C669 C 0.12404 -0.03276 0.84630
 C670 C 0.13976 -0.03264 0.82724
 C671 C 0.04724 -0.02510 0.92547
 C672 C 0.03106 -0.02004 0.94254
 H673 H 0.07965 -0.02061 0.82628
 H674 H 0.04434 -0.01731 0.86233
 H675 H 0.08788 0.00061 0.93313
 H676 H 0.12328 -0.00281 0.89718
 H677 H 0.10758 -0.07131 0.88156
 H678 H 0.07202 -0.06797 0.91776
 C679 C 0.60453 0.46824 0.36727
 C680 C 0.58162 0.47565 0.35042
 C681 C 0.56251 0.47749 0.36967
 C682 C 0.56813 0.47174 0.40390
 C683 C 0.58868 0.48838 0.41265
 C684 C 0.60782 0.48653 0.39342
 C685 C 0.59831 0.44492 0.38409
 C686 C 0.57909 0.44677 0.40343
 C687 C 0.62479 0.46697 0.34591
 C688 C 0.64063 0.46703 0.32701
 C689 C 0.54763 0.47484 0.42445
 C690 C 0.53140 0.47994 0.44142
 H691 H 0.58049 0.47909 0.32548
 H692 H 0.54501 0.48248 0.36124
 H693 H 0.58824 0.50055 0.43231
 H694 H 0.62380 0.49704 0.39665
 H695 H 0.60815 0.42850 0.38119
 H696 H 0.57242 0.43194 0.41708
 C697 C 0.60435 0.53157 0.13145
 C698 C 0.60622 0.54741 0.10228
 C699 C 0.58702 0.54568 0.08287
 C700 C 0.56801 0.52827 0.09462
 C701 C 0.56164 0.53684 0.12756
 C702 C 0.58076 0.53858 0.14694
 C703 C 0.60027 0.50644 0.11885
 C704 C 0.58119 0.50471 0.09955
 C705 C 0.62458 0.53275 0.15288
 C706 C 0.64043 0.53263 0.17178
 C707 C 0.54754 0.52527 0.07395
 C708 C 0.53130 0.52022 0.05695
 H709 H 0.62121 0.55893 0.09733
 H710 H 0.58551 0.55581 0.06137
 H711 H 0.54375 0.54126 0.13496
 H712 H 0.57923 0.54451 0.17101
 H713 H 0.61144 0.49133 0.12450
 H714 H 0.57602 0.48807 0.08868
 C715 C 0.10379 1.03167 0.63235
 C716 C 0.10583 1.04724 0.60295
 C717 C 0.08671 1.04541 0.58343
 C718 C 0.06759 1.02816 0.59531
 C719 C 0.06112 1.03704 0.62807
 C720 C 0.08016 1.03890 0.64756
 C721 C 0.09967 1.00645 0.62011
 C722 C 0.08068 1.00460 0.60069
 C723 C 0.12393 1.03296 0.65392
 C724 C 0.13969 1.03292 0.67296
 C725 C 0.04719 1.02506 0.57455
 C726 C 0.03098 1.01994 0.55753
 H727 H 0.12089 1.05866 0.59793
 H728 H 0.08533 1.05533 0.56174
 H729 H 0.04321 1.04158 0.63528
 H730 H 0.07855 1.04503 0.67152
 H731 H 0.11078 0.99135 0.62606
 H732 H 0.07551 0.98789 0.59003
 C733 C -0.10392 0.46772 0.63250
 C734 C -0.08091 0.47504 0.64916
 C735 C -0.06188 0.47683 0.62978
 C736 C -0.06766 0.47111 0.59560
 C737 C -0.08818 0.48783 0.58696
 C738 C -0.10725 0.48604 0.60633
 C739 C -0.09785 0.44439 0.61567
 C740 C -0.07870 0.44618 0.59619
 C741 C -0.12409 0.46652 0.65401
 C742 C -0.13982 0.46668 0.67305
 C743 C -0.04721 0.47417 0.57493
 C744 C -0.03101 0.47930 0.55793
 H745 H -0.07967 0.47846 0.67409
 H746 H -0.04433 0.48175 0.63808
 H747 H -0.08778 0.49999 0.56725
 H748 H -0.12321 0.49658 0.60317
 H749 H -0.10774 0.42800 0.61867
 H750 H -0.07215 0.43134 0.58250
 C751 C 0.39604 -0.03190 0.13242
 C752 C 0.40008 -0.00668 0.12006
 C753 C 0.41909 -0.00481 0.10069
 C754 C 0.43226 -0.02833 0.09548
 C755 C 0.41321 -0.04566 0.08364
 C756 C 0.39408 -0.04753 0.10311
 C757 C 0.41968 -0.03902 0.14775
 C758 C 0.43873 -0.03714 0.12831
 C759 C 0.37588 -0.03322 0.15394
 C760 C 0.36012 -0.03322 0.17294
 C761 C 0.45267 -0.02520 0.07477
 C762 C 0.46888 -0.02005 0.05778
 H763 H 0.38892 0.00839 0.12589
 H764 H 0.42422 0.01191 0.08995
 H765 H 0.41465 -0.05561 0.06201
 H766 H 0.37906 -0.05900 0.09810
 H767 H 0.42128 -0.04511 0.17176
 H768 H 0.45665 -0.04161 0.13560
 C769 C 0.35657 0.45706 0.05225
 C770 C 0.36117 0.47062 0.02171
 C771 C 0.38379 0.47876 0.01893
 C772 C 0.39963 0.47254 0.04695
 C773 C 0.39798 0.44545 0.05011
 C774 C 0.37533 0.43730 0.05291
 C775 C 0.36384 0.47427 0.07840
 C776 C 0.38657 0.48244 0.07560
 C777 C 0.33223 0.44812 0.05429
 C778 C 0.31230 0.44044 0.05382
 C779 C 0.42396 0.48095 0.04289
 C780 C 0.44394 0.48694 0.03701
 H781 H 0.34781 0.47357 0.00380
 H782 H 0.38983 0.48870 -0.00134
 H783 H 0.41326 0.43369 0.05012
 H784 H 0.37118 0.41856 0.05538
 H785 H 0.35220 0.47954 0.09740
 H786 H 0.39444 0.49472 0.09219
 C787 C -0.14400 0.95712 0.55123
 C788 C -0.13744 0.96580 0.51835
 C789 C -0.11478 0.97389 0.51602
 C790 C -0.10085 0.97251 0.54679
 C791 C -0.10253 0.94642 0.55698
 C792 C -0.12525 0.93832 0.55933
 C793 C -0.13864 0.97818 0.57292
 C794 C -0.11587 0.98630 0.57058
 C795 C -0.16838 0.94824 0.55278
 C796 C -0.18833 0.94061 0.55191
 C797 C -0.07646 0.98084 0.54315
 C798 C -0.05642 0.98675 0.53748
 H799 H -0.14956 0.96567 0.49859
 H800 H -0.10750 0.98074 0.49431
 H801 H -0.08723 0.93533 0.56205
 H802 H -0.12943 0.92027 0.56638
 H803 H -0.15155 0.98598 0.58871
 H804 H -0.10923 1.00106 0.58433
 C805 C -0.14372 0.04279 0.94932
 C806 C -0.13831 0.02193 0.92734
 C807 C -0.11556 0.01375 0.92976
 C808 C -0.10063 0.02729 0.95391
 C809 C -0.11470 0.02563 0.98452
 C810 C -0.13733 0.03378 0.98212
 C811 C -0.12490 0.06163 0.94171
 C812 C -0.10221 0.05347 0.94413
 C813 C -0.16807 0.05173 0.94769
 C814 C -0.18799 0.05942 0.94848
 C815 C -0.07627 0.01890 0.95761
 C816 C -0.05624 0.01296 0.96327
 H817 H -0.15116 0.01430 0.91130
 H818 H -0.10888 -0.00089 0.91582
 H819 H -0.10752 0.01856 1.00619
 H820 H -0.14954 0.03374 1.00177
 H821 H -0.12902 0.07975 0.93492
 H822 H -0.08687 0.06458 0.93939
 C823 C 0.35653 0.54271 0.44776
 C824 C 0.36303 0.53403 0.48069
 C825 C 0.38567 0.52594 0.48312
 C826 C 0.39966 0.52730 0.45242
 C827 C 0.39802 0.55338 0.44220
 C828 C 0.37532 0.56149 0.43974
 C829 C 0.36191 0.52163 0.42612
 C830 C 0.38467 0.51350 0.42858
 C831 C 0.33217 0.55160 0.44610
 C832 C 0.31223 0.55925 0.44689
 C833 C 0.42403 0.51896 0.45617
 C834 C 0.44407 0.51305 0.46186
 H835 H 0.35087 0.53418 0.50039
 H836 H 0.39291 0.51909 0.50488
 H837 H 0.41334 0.56446 0.43719
 H838 H 0.37116 0.57954 0.43265
 H839 H 0.34903 0.51383 0.41028
 H840 H 0.39134 0.49873 0.41486
 C841 C 0.14378 0.54233 0.55201
 C842 C 0.12497 0.56112 0.55987
 C843 C 0.10228 0.55299 0.55737
 C844 C 0.10067 0.52690 0.54726
 C845 C 0.11560 0.51313 0.57122
 C846 C 0.13836 0.52128 0.57373
 C847 C 0.13736 0.53362 0.51910
 C848 C 0.11472 0.52551 0.51661
 C849 C 0.16814 0.55124 0.55373
 C850 C 0.18807 0.55892 0.55299
 C851 C 0.07630 0.51855 0.54346
 C852 C 0.05628 0.51264 0.53773
 H853 H 0.12911 0.57917 0.56689
 H854 H 0.08695 0.56407 0.56226
 H855 H 0.10891 0.49837 0.58498
 H856 H 0.15121 0.51350 0.58965
 H857 H 0.14956 0.53376 0.49944
 H858 H 0.10753 0.51864 0.49486
 C859 C 0.64360 0.04308 0.05320
 C860 C 0.63898 0.02946 0.02275
 C861 C 0.61635 0.02135 0.01999
 C862 C 0.60052 0.02765 0.04794
 C863 C 0.60221 0.05475 0.05092
 C864 C 0.62488 0.06287 0.05371
 C865 C 0.63632 0.02594 0.07946
 C866 C 0.61357 0.01780 0.07669
 C867 C 0.66795 0.05199 0.05518
 C868 C 0.68789 0.05964 0.05457
 C869 C 0.57619 0.01927 0.04389
 C870 C 0.55620 0.01332 0.03799
 H871 H 0.65233 0.02645 0.00487
 H872 H 0.61030 0.01137 -0.00022
 H873 H 0.58695 0.06653 0.05083
 H874 H 0.62905 0.08161 0.05605
 H875 H 0.64794 0.02070 0.09851
 H876 H 0.60568 0.00557 0.09334
 C877 C 0.64362 0.95733 0.44818
 C878 C 0.62490 0.93787 0.44335
 C879 C 0.60216 0.94584 0.44598
 C880 C 0.60042 0.97248 0.45313
 C881 C 0.61451 0.98479 0.42701
 C882 C 0.63731 0.97680 0.42440
 C883 C 0.63794 0.96810 0.48025
 C884 C 0.61525 0.97607 0.48284
 C885 C 0.66802 0.94856 0.44633
 C886 C 0.68800 0.94100 0.44694
 C887 C 0.57601 0.98069 0.45702
 C888 C 0.55597 0.98649 0.46279
 H889 H 0.62912 0.91946 0.43830
 H890 H 0.58689 0.93427 0.44320
 H891 H 0.60724 0.99852 0.41195
 H892 H 0.64962 0.98366 0.40709
 H893 H 0.65064 0.96940 0.49928
 H894 H 0.60853 0.98425 0.50405
 C895 C 0.14302 0.45718 0.95015
 C896 C 0.12419 0.43823 0.94307
 C897 C 0.10150 0.44638 0.94545
 C898 C 0.09992 0.47267 0.95464
 C899 C 0.11472 0.48595 0.93010
 C900 C 0.13747 0.47778 0.92773
 C901 C 0.13675 0.46655 0.98278
 C902 C 0.11411 0.47469 0.98513
 C903 C 0.16737 0.44824 0.94852
 C904 C 0.18729 0.44056 0.94923
 C905 C 0.07555 0.48105 0.95827
 C906 C 0.05551 0.48699 0.96383
 H907 H 0.12830 0.42004 0.93667
 H908 H 0.08615 0.43519 0.94105
 H909 H 0.10796 0.50042 0.91587
 H910 H 0.15024 0.48524 0.91145
 H911 H 0.14904 0.46683 1.00235
 H912 H 0.10702 0.48200 1.00668
 C913 C 0.00126 0.36406 0.44717
 C914 C -0.02439 0.37340 0.44620
 C915 C -0.02715 0.39513 0.45996
 C916 C -0.00398 0.40535 0.47333
 C917 C 0.01346 0.40533 0.44576
 C918 C 0.01620 0.38373 0.43207
 C919 C 0.00815 0.36448 0.48193
 C920 C 0.00541 0.38616 0.49566
 C921 C 0.00498 0.34089 0.43200
 C922 C 0.00938 0.32233 0.41905
 C923 C -0.00594 0.42908 0.48746
 C924 C -0.00524 0.44919 0.49718
 H925 H -0.03908 0.36378 0.43572
 H926 H -0.04417 0.40410 0.46128
 H927 H 0.02285 0.42100 0.43762
 H928 H 0.02792 0.38094 0.41226
 H929 H 0.01454 0.34906 0.49467
 H930 H 0.00943 0.38930 0.52014
 C931 C 0.50136 -0.13538 -0.05273
 C932 C 0.51033 -0.13440 -0.01883
 C933 C 0.50757 -0.11273 -0.00508
 C934 C 0.49611 -0.09411 -0.02653
 C935 C 0.47262 -0.10532 -0.03729
 C936 C 0.47538 -0.12705 -0.05107
 C937 C 0.51454 -0.11527 -0.06957
 C938 C 0.51179 -0.09368 -0.05587
 C939 C 0.50510 -0.15853 -0.06793
 C940 C 0.50953 -0.17708 -0.08090
 C941 C 0.49415 -0.07038 -0.01240
 C942 C 0.49485 -0.05027 -0.00270
 H943 H 0.51807 -0.14944 -0.00664
 H944 H 0.51294 -0.10923 0.01886
 H945 H 0.45539 -0.09700 -0.03426
 H946 H 0.46050 -0.13733 -0.05986
 H947 H 0.52511 -0.11777 -0.09054
 H948 H 0.52002 -0.07772 -0.06515
 C949 C -0.00120 -0.13579 1.05292
 C950 C 0.02444 -0.12646 1.05410
 C951 C 0.02726 -0.10471 1.04034
 C952 C 0.00416 -0.09449 1.02678
 C953 C -0.01341 -0.09454 1.05421
 C954 C -0.01622 -0.11615 1.06788
 C955 C -0.00793 -0.13534 1.01810
 C956 C -0.00512 -0.11364 1.00438
 C957 C -0.00500 -0.15896 1.06809
 C958 C -0.00949 -0.17750 1.08106
 C959 C 0.00617 -0.07073 1.01269
 C960 C 0.00546 -0.05059 1.00307
 H961 H 0.03907 -0.13609 1.06471
 H962 H 0.04430 -0.09573 1.03916
 H963 H -0.02284 -0.07888 1.06226
 H964 H -0.02803 -0.11897 1.08759
 H965 H -0.01426 -0.15075 1.00533
 H966 H -0.00902 -0.11047 0.97986
 C967 C 0.49877 0.36455 0.55242
 C968 C 0.52445 0.37379 0.55349
 C969 C 0.52733 0.39548 0.53959
 C970 C 0.50425 0.40575 0.52602
 C971 C 0.48671 0.40585 0.55348
 C972 C 0.48385 0.38430 0.56729
 C973 C 0.49199 0.36490 0.51762
 C974 C 0.49487 0.38655 0.50375
 C975 C 0.49490 0.34145 0.56774
 C976 C 0.49037 0.32296 0.58081
 C977 C 0.50633 0.42944 0.51178
 C978 C 0.50568 0.44955 0.50204
 H979 H 0.53906 0.36414 0.56412
 H980 H 0.54440 0.40439 0.53831
 H981 H 0.47735 0.42158 0.56145
 H982 H 0.47204 0.38160 0.58705
 H983 H 0.48559 0.34948 0.50495
 H984 H 0.49095 0.38964 0.47923
 C985 C 0.50013 1.13476 0.55322
 C986 C 0.51371 1.11479 0.56978
 C987 C 0.51108 1.09320 0.55604
 C988 C 0.49510 1.09350 0.52696
 C989 C 0.50613 1.11229 0.50539
 C990 C 0.50878 1.13397 0.51917
 C991 C 0.47424 1.12614 0.55194
 C992 C 0.47159 1.10441 0.53812
 C993 C 0.50377 1.15792 0.56845
 C994 C 0.50815 1.17646 0.58145
 C995 C 0.49327 1.06978 0.51280
 C996 C 0.49412 1.04968 0.50311
 H997 H 0.52446 1.11737 0.59059
 H998 H 0.51958 1.07731 0.56513
 H999 H 0.51130 1.10891 0.48135
 H1000 H 0.51622 1.14913 0.50692
 H1001 H 0.45933 1.13622 0.56101
 H1002 H 0.45442 1.09589 0.53534
 C1003 C 0.00059 0.63551 1.05389
 C1004 C 0.01560 0.61581 1.06879
 C1005 C 0.01278 0.59425 1.05503
 C1006 C -0.00479 0.59431 1.02759
 C1007 C 0.00449 0.61354 1.00527
 C1008 C 0.00731 0.63519 1.01908
 C1009 C -0.02506 0.62618 1.05502
 C1010 C -0.02789 0.60449 1.04118
 C1011 C 0.00441 0.65863 1.06915
 C1012 C 0.00891 0.67714 1.08217
 C1013 C -0.00682 0.57061 1.01340
 C1014 C -0.00615 0.55050 1.00368
 H1015 H 0.02742 0.61855 1.08853
 H1016 H 0.02221 0.57855 1.06303
 H1017 H 0.00838 0.61047 0.98075
 H1018 H 0.01364 0.65064 1.00637
 H1019 H -0.03968 0.63578 1.06565
 H1020 H -0.04493 0.59552 1.03994
 C1021 C 0.49892 0.63581 -0.05362
 C1022 C 0.48987 0.63478 -0.01977
 C1023 C 0.49259 0.61309 -0.00599
 C1024 C 0.50412 0.59450 -0.02738
 C1025 C 0.52764 0.60574 -0.03799
 C1026 C 0.52490 0.62749 -0.05180
 C1027 C 0.48580 0.61572 -0.07053
 C1028 C 0.48851 0.59411 -0.05681
 C1029 C 0.49520 0.65898 -0.06885
 C1030 C 0.49075 0.67753 -0.08185
 C1031 C 0.50605 0.57076 -0.01322
 C1032 C 0.50532 0.55063 -0.00352
 H1033 H 0.48209 0.64981 -0.00764
 H1034 H 0.48716 0.60956 0.01791
 H1035 H 0.54486 0.59742 -0.03486
 H1036 H 0.53980 0.63778 -0.06051
 H1037 H 0.47528 0.61825 -0.09157
 H1038 H 0.48031 0.57816 -0.06613
 C1039 C -0.00129 1.13527 0.44646
 C1040 C -0.01438 1.11515 0.42957
 C1041 C -0.01165 1.09356 0.44336
 C1042 C 0.00392 1.09401 0.47282
 C1043 C -0.00766 1.11262 0.49413
 C1044 C -0.01040 1.13428 0.48029
 C1045 C 0.02469 1.12699 0.44836
 C1046 C 0.02743 1.10527 0.46223
 C1047 C -0.00502 1.15842 0.43117
 C1048 C -0.00947 1.17696 0.41813
 C1049 C 0.00585 1.07030 0.48705
 C1050 C 0.00512 1.05019 0.49684
 H1051 H -0.02486 1.11763 0.40850
 H1052 H -0.01982 1.07759 0.43406
 H1053 H -0.01313 1.10912 0.51803
 H1054 H -0.01821 1.14932 0.49237
 H1055 H 0.03959 1.13728 0.43966
 H1056 H 0.04467 1.09697 0.46542
 C1057 C 0.78101 0.64582 0.88185
 C1058 C 0.78817 0.66940 0.89723
 C1059 C 0.78656 0.68847 0.87773
 C1060 C 0.77798 0.68206 0.84479
 C1061 C 0.75433 0.66904 0.84973
 C1062 C 0.75592 0.65002 0.86915
 C1063 C 0.79685 0.64376 0.85275
 C1064 C 0.79527 0.66290 0.83322
 C1065 C 0.78203 0.62564 0.90342
 C1066 C 0.78179 0.60987 0.92244
 C1067 C 0.77513 0.70249 0.82401
 C1068 C 0.77015 0.71872 0.80693
 H1069 H 0.79408 0.67096 0.92131
 H1070 H 0.79110 0.70636 0.88504
 H1071 H 0.73773 0.67429 0.83878
 H1072 H 0.74072 0.63896 0.87482
 H1073 H 0.80828 0.62868 0.84792
 H1074 H 0.80542 0.66429 0.81174
 C1075 C 0.28189 0.14590 0.38293
 C1076 C 0.28912 0.16954 0.39811
 C1077 C 0.28736 0.18855 0.37854
 C1078 C 0.27857 0.18204 0.34574
 C1079 C 0.25497 0.16900 0.35100
 C1080 C 0.25672 0.15004 0.37049
 C1081 C 0.29755 0.14378 0.35365
 C1082 C 0.29581 0.16287 0.33405
 C1083 C 0.28306 0.12579 0.40458
 C1084 C 0.28289 0.11006 0.42367
 C1085 C 0.27555 0.20241 0.32489
 C1086 C 0.27046 0.21858 0.30778
 H1087 H 0.29520 0.17117 0.42211
 H1088 H 0.29193 0.20647 0.38571
 H1089 H 0.23829 0.17419 0.34020
 H1090 H 0.24157 0.13896 0.37638
 H1091 H 0.30896 0.12870 0.34877
 H1092 H 0.30581 0.16421 0.31244
 C1093 C 0.71905 0.35371 0.38192
 C1094 C 0.71192 0.33007 0.39726
 C1095 C 0.71396 0.31099 0.37791
 C1096 C 0.72290 0.31743 0.34515
 C1097 C 0.74636 0.33068 0.35055
 C1098 C 0.74433 0.34972 0.36983
 C1099 C 0.70356 0.35556 0.35243
 C1100 C 0.70557 0.33640 0.33306
 C1101 C 0.71754 0.37391 0.40333
 C1102 C 0.71739 0.38974 0.42223
 C1103 C 0.72618 0.29700 0.32452
 C1104 C 0.73138 0.28080 0.30756
 H1105 H 0.70572 0.32849 0.42121
 H1106 H 0.70950 0.29307 0.38522
 H1107 H 0.76314 0.32559 0.34002
 H1108 H 0.75935 0.36095 0.37578
 H1109 H 0.69206 0.37053 0.34725
 H1110 H 0.69572 0.33489 0.31135
 C1111 C 0.21863 0.85389 0.88200
 C1112 C 0.21137 0.83026 0.89723
 C1113 C 0.21319 0.81123 0.87774
 C1114 C 0.22207 0.81773 0.84496
 C1115 C 0.24565 0.83079 0.85030
 C1116 C 0.24384 0.84977 0.86972
 C1117 C 0.20304 0.85598 0.85263
 C1118 C 0.20484 0.83689 0.83311
 C1119 C 0.21738 0.87401 0.90357
 C1120 C 0.21748 0.88974 0.92262
 C1121 C 0.22514 0.79735 0.82420
 C1122 C 0.23026 0.78118 0.80715
 H1123 H 0.20524 0.82863 0.92120
 H1124 H 0.20863 0.79332 0.88495
 H1125 H 0.26235 0.82562 0.83961
 H1126 H 0.25896 0.86085 0.87564
 H1127 H 0.19164 0.87106 0.84762
 H1128 H 0.19491 0.83554 0.81143
 C1129 C 0.28118 0.85424 0.11697
 C1130 C 0.28837 0.83053 0.10197
 C1131 C 0.28647 0.81159 0.12163
 C1132 C 0.27759 0.81823 0.15434
 C1133 C 0.25406 0.83134 0.14885
 C1134 C 0.25595 0.85024 0.12925
 C1135 C 0.29675 0.85640 0.14635
 C1136 C 0.29487 0.83738 0.16604
 C1137 C 0.28251 0.87427 0.09521
 C1138 C 0.28250 0.88991 0.07599
 C1139 C 0.27446 0.79792 0.17525
 C1140 C 0.26934 0.78176 0.19237
 H1141 H 0.29451 0.82880 0.07802
 H1142 H 0.29099 0.79364 0.11458
 H1143 H 0.23734 0.82625 0.15957
 H1144 H 0.24087 0.86135 0.12321
 H1145 H 0.30818 0.87147 0.15124
 H1146 H 0.30477 0.83609 0.18775
 C1147 C 0.78037 0.35458 0.61916
 C1148 C 0.78738 0.33093 0.60383
 C1149 C 0.78552 0.31187 0.62330
 C1150 C 0.77686 0.31834 0.65616
 C1151 C 0.75335 0.33157 0.65104
 C1152 C 0.75520 0.35059 0.63165
 C1153 C 0.79612 0.35648 0.64841
 C1154 C 0.79428 0.33734 0.66790
 C1155 C 0.78169 0.37474 0.59761
 C1156 C 0.78170 0.39048 0.57856
 C1157 C 0.77376 0.29791 0.67689
 C1158 C 0.76866 0.28167 0.69388
 H1159 H 0.79338 0.32933 0.57980
 H1160 H 0.78992 0.29395 0.61600
 H1161 H 0.73666 0.32647 0.66185
 H1162 H 0.74013 0.36179 0.62587
 H1163 H 0.80765 0.37146 0.65335
 H1164 H 0.80432 0.33585 0.68948
 C1165 C 0.21789 0.14688 0.61769
 C1166 C 0.21078 0.17051 0.60234
 C1167 C 0.21255 0.18955 0.62182
 C1168 C 0.22122 0.18307 0.65470
 C1169 C 0.24480 0.16995 0.64963
 C1170 C 0.24304 0.15095 0.63024
 C1171 C 0.20214 0.14485 0.64690
 C1172 C 0.20388 0.16397 0.66640
 C1173 C 0.21670 0.12672 0.59617
 C1174 C 0.21683 0.11094 0.57722
 C1175 C 0.22424 0.20345 0.67547
 C1176 C 0.22932 0.21961 0.69256
 H1177 H 0.20479 0.17213 0.57830
 H1178 H 0.20807 0.20747 0.61452
 H1179 H 0.26146 0.17511 0.66047
 H1180 H 0.25817 0.13983 0.62448
 H1181 H 0.19066 0.12982 0.65181
 H1182 H 0.19382 0.16538 0.68794
 C1183 C 0.71815 0.64656 0.11724
 C1184 C 0.73649 0.64304 0.14332
 C1185 C 0.73854 0.66209 0.16266
 C1186 C 0.72202 0.68279 0.15408
 C1187 C 0.69697 0.67202 0.15362
 C1188 C 0.69492 0.65288 0.13417
 C1189 C 0.72568 0.66947 0.10051
 C1190 C 0.72772 0.68850 0.11986
 C1191 C 0.71666 0.62639 0.09575
 C1192 C 0.71654 0.61065 0.07673
 C1193 C 0.72532 0.70321 0.17471
 C1194 C 0.73055 0.71938 0.19171
 H1195 H 0.74687 0.62696 0.14644
 H1196 H 0.75075 0.66236 0.18231
 H1197 H 0.68224 0.67873 0.16736
 H1198 H 0.67843 0.64317 0.13126
 H1199 H 0.72906 0.67067 0.07556
 H1200 H 0.73282 0.70599 0.11152
 C1201 C 0.20688 0.60676 0.19844
 C1202 C 0.22792 0.61226 0.17674
 C1203 C 0.23599 0.63504 0.17924
 C1204 C 0.22219 0.64992 0.20316
 C1205 C 0.22363 0.63586 0.23382
 C1206 C 0.21559 0.61319 0.23136
 C1207 C 0.18804 0.62551 0.19052
 C1208 C 0.19610 0.64823 0.19301
 C1209 C 0.19805 0.58237 0.19674
 C1210 C 0.19046 0.56241 0.19747
 C1211 C 0.23048 0.67431 0.20694
 C1212 C 0.23635 0.69434 0.21266
 H1213 H 0.23573 0.59944 0.16085
 H1214 H 0.25073 0.64178 0.16549
 H1215 H 0.23049 0.64306 0.25558
 H1216 H 0.21550 0.60098 0.25103
 H1217 H 0.17000 0.62132 0.18348
 H1218 H 0.18498 0.66354 0.18808
 C1219 C 0.70612 0.10671 0.69820
 C1220 C 0.72333 0.11403 0.67205
 C1221 C 0.73142 0.13679 0.67483
 C1222 C 0.72145 0.14982 0.70347
 C1223 C 0.72770 0.13401 0.73151
 C1224 C 0.71964 0.11136 0.72874
 C1225 C 0.68630 0.12540 0.69751
 C1226 C 0.69437 0.14808 0.70030
 C1227 C 0.69727 0.08235 0.69620
 C1228 C 0.68965 0.06240 0.69676
 C1229 C 0.72977 0.17417 0.70754
 C1230 C 0.73567 0.19417 0.71346
 H1231 H 0.72864 0.10242 0.65306
 H1232 H 0.74368 0.14471 0.65825
 H1233 H 0.73761 0.14008 0.75178
 H1234 H 0.72262 0.09802 0.74667
 H1235 H 0.66758 0.12119 0.69503
 H1236 H 0.68256 0.16333 0.70026
 C1237 C 0.79377 0.10563 0.30055
 C1238 C 0.77657 0.11259 0.32686
 C1239 C 0.76855 0.13541 0.32464
 C1240 C 0.77857 0.14886 0.29633
 C1241 C 0.77229 0.13350 0.26791
 C1242 C 0.78028 0.11079 0.27012
 C1243 C 0.81365 0.12425 0.30172
 C1244 C 0.80565 0.14699 0.29948
 C1245 C 0.80255 0.08121 0.30202
 C1246 C 0.81011 0.06124 0.30119
 C1247 C 0.77033 0.17329 0.29285
 C1248 C 0.76447 0.19338 0.28733
 H1249 H 0.77121 0.10069 0.34555
 H1250 H 0.75631 0.14310 0.34140
 H1251 H 0.76241 0.13992 0.24778
 H1252 H 0.77728 0.09774 0.25186
 H1253 H 0.83235 0.11995 0.30411
 H1254 H 0.81750 0.16220 0.29991
 C1255 C 0.29373 0.60639 0.79972
 C1256 C 0.27665 0.61323 0.82622
 C1257 C 0.26842 0.63598 0.82405
 C1258 C 0.27814 0.64949 0.79561
 C1259 C 0.27180 0.63406 0.76729
 C1260 C 0.27999 0.61141 0.76943
 C1261 C 0.31346 0.62517 0.80062
 C1262 C 0.30526 0.64785 0.79845
 C1263 C 0.30272 0.58205 0.80113
 C1264 C 0.31043 0.56213 0.80027
 C1265 C 0.26968 0.67385 0.79220
 C1266 C 0.26367 0.69390 0.78674
 H1267 H 0.27151 0.60130 0.84499
 H1268 H 0.25623 0.64358 0.84095
 H1269 H 0.26173 0.64037 0.74727
 H1270 H 0.27697 0.59832 0.75123
 H1271 H 0.33221 0.62103 0.80278
 H1272 H 0.31698 0.66315 0.79869
 C1273 C 0.29295 0.39412 0.69784
 C1274 C 0.28482 0.38774 0.73104
 C1275 C 0.27655 0.36517 0.73379
 C1276 C 0.27721 0.35114 0.70309
 C1277 C 0.30310 0.35252 0.69209
 C1278 C 0.31139 0.37514 0.68932
 C1279 C 0.27142 0.38891 0.67685
 C1280 C 0.26312 0.36623 0.67962
 C1281 C 0.30203 0.41840 0.69582
 C1282 C 0.30983 0.43829 0.69627
 C1283 C 0.26868 0.32684 0.70713
 C1284 C 0.26265 0.30686 0.71297
 H1285 H 0.28545 0.39992 0.75069
 H1286 H 0.27005 0.35802 0.75577
 H1287 H 0.31394 0.33708 0.68681
 H1288 H 0.32934 0.37912 0.68168
 H1289 H 0.26346 0.40184 0.66121
 H1290 H 0.24803 0.35969 0.66637
 C1291 C 0.79362 0.89419 0.19821
 C1292 C 0.78006 0.88930 0.22866
 C1293 C 0.77195 0.86665 0.23112
 C1294 C 0.77819 0.85106 0.20291
 C1295 C 0.80528 0.85278 0.19983
 C1296 C 0.81340 0.87547 0.19734
 C1297 C 0.77641 0.88713 0.17192
 C1298 C 0.76827 0.86437 0.17440
 C1299 C 0.80252 0.91855 0.19650
 C1300 C 0.81019 0.93849 0.19722
 C1301 C 0.76982 0.82669 0.20664
 C1302 C 0.76387 0.80665 0.21227
 H1303 H 0.77710 0.90250 0.24674
 H1304 H 0.76201 0.86042 0.25128
 H1305 H 0.81705 0.83751 0.19964
 H1306 H 0.83213 0.87965 0.19497
 H1307 H 0.77114 0.89892 0.15307
 H1308 H 0.75601 0.85662 0.15769
 C1309 C 0.70717 0.89356 0.80105
 C1310 C 0.71658 0.88337 0.83199
 C1311 C 0.72478 0.86063 0.82947
 C1312 C 0.72270 0.85050 0.79627
 C1313 C 0.73588 0.86821 0.77526
 C1314 C 0.72771 0.89086 0.77776
 C1315 C 0.68825 0.87584 0.79003
 C1316 C 0.69642 0.85321 0.78751
 C1317 C 0.69819 0.91789 0.80279
 C1318 C 0.69045 0.93779 0.80210
 C1319 C 0.73112 0.82616 0.79248
 C1320 C 0.73707 0.80615 0.78677
 H1321 H 0.71679 0.89312 0.85387
 H1322 H 0.73202 0.85086 0.84917
 H1323 H 0.75030 0.86338 0.75966
 H1324 H 0.73515 0.90545 0.76434
 H1325 H 0.67003 0.88065 0.78463
 H1326 H 0.68522 0.83861 0.77989
 C1327 C 0.20758 0.39342 0.30179
 C1328 C 0.18772 0.37477 0.30158
 C1329 C 0.19580 0.35209 0.29901
 C1330 C 0.22294 0.35030 0.29695
 C1331 C 0.23227 0.36323 0.32604
 C1332 C 0.22417 0.38600 0.32860
 C1333 C 0.22178 0.38883 0.27179
 C1334 C 0.22986 0.36617 0.26925
 C1335 C 0.19871 0.41779 0.30359
 C1336 C 0.19106 0.43773 0.30295
 C1337 C 0.23127 0.32593 0.29314
 C1338 C 0.23718 0.30590 0.28744
 H1339 H 0.16895 0.37901 0.30329
 H1340 H 0.18396 0.33687 0.29848
 H1341 H 0.24413 0.35525 0.34308
 H1342 H 0.22907 0.39755 0.34785
 H1343 H 0.22519 0.40222 0.25406
 H1344 H 0.24020 0.36013 0.24936
 C1345 C 0.11402 0.25135 0.80357
 C1346 C 0.13408 0.26470 0.82025
 C1347 C 0.15565 0.26207 0.80644
 C1348 C 0.15524 0.24631 0.77718
 C1349 C 0.13649 0.25760 0.75577
 C1350 C 0.11484 0.26024 0.76962
 C1351 C 0.12252 0.22542 0.80200
 C1352 C 0.14422 0.22277 0.78811
 C1353 C 0.09090 0.25497 0.81890
 C1354 C 0.07238 0.25932 0.83197
 C1355 C 0.17894 0.24448 0.76295
 C1356 C 0.19904 0.24528 0.75321
 H1357 H 0.13157 0.27531 0.84118
 H1358 H 0.17158 0.27043 0.81558
 H1359 H 0.13988 0.26294 0.73178
 H1360 H 0.09971 0.26785 0.75749
 H1361 H 0.11237 0.21049 0.81093
 H1362 H 0.15266 0.20559 0.78512
 C1363 C 0.61516 0.75112 0.30228
 C1364 C 0.61553 0.75789 0.26748
 C1365 C 0.63723 0.75524 0.25375
 C1366 C 0.65647 0.74606 0.27613
 C1367 C 0.64641 0.72287 0.28967
 C1368 C 0.62466 0.72553 0.30343
 C1369 C 0.63473 0.76624 0.31726
 C1370 C 0.65634 0.76360 0.30358
 C1371 C 0.59199 0.75474 0.31747
 C1372 C 0.57343 0.75910 0.33043
 C1373 C 0.68022 0.74420 0.26203
 C1374 C 0.70034 0.74498 0.25237
 H1375 H 0.60007 0.76413 0.25471
 H1376 H 0.64034 0.75919 0.22924
 H1377 H 0.65550 0.70590 0.28845
 H1378 H 0.61514 0.71082 0.31401
 H1379 H 0.63186 0.77801 0.33699
 H1380 H 0.67196 0.77312 0.31164
 C1381 C 0.61595 0.24902 0.19687
 C1382 C 0.63600 0.23594 0.17984
 C1383 C 0.65763 0.23859 0.19352
 C1384 C 0.65729 0.25408 0.22304
 C1385 C 0.63871 0.24247 0.24440
 C1386 C 0.61701 0.23982 0.23067
 C1387 C 0.62429 0.27498 0.19880
 C1388 C 0.64606 0.27764 0.21257
 C1389 C 0.59275 0.24538 0.18170
 C1390 C 0.57416 0.24101 0.16877
 C1391 C 0.68104 0.25593 0.23716
 C1392 C 0.70116 0.25513 0.24688
 H1393 H 0.63345 0.22552 0.15876
 H1394 H 0.67357 0.23042 0.18412
 H1395 H 0.64226 0.23694 0.26828
 H1396 H 0.60199 0.23200 0.24280
 H1397 H 0.61401 0.28992 0.19019
 H1398 H 0.65440 0.29485 0.21576
 C1399 C 0.11472 0.74888 0.69685
 C1400 C 0.12297 0.77488 0.69865
 C1401 C 0.14476 0.77765 0.71232
 C1402 C 0.15610 0.75415 0.72282
 C1403 C 0.15644 0.73860 0.69337
 C1404 C 0.13478 0.73585 0.67978
 C1405 C 0.11589 0.73976 0.73067
 C1406 C 0.13762 0.74252 0.74431
 C1407 C 0.09150 0.74513 0.68178
 C1408 C 0.07290 0.74067 0.66893
 C1409 C 0.17988 0.75611 0.73685
 C1410 C 0.20002 0.75541 0.74649
 H1411 H 0.11262 0.78977 0.69003
 H1412 H 0.15305 0.79489 0.71542
 H1413 H 0.17238 0.73047 0.68393
 H1414 H 0.13222 0.72537 0.65874
 H1415 H 0.10093 0.73191 0.74289
 H1416 H 0.14124 0.73705 0.76819
 C1417 C 0.88564 0.75097 0.69626
 C1418 C 0.88462 0.76006 0.73008
 C1419 C 0.86293 0.75733 0.74383
 C1420 C 0.84434 0.74577 0.72245
 C1421 C 0.85559 0.72225 0.71190
 C1422 C 0.87733 0.72498 0.69812
 C1423 C 0.86555 0.76407 0.67928
 C1424 C 0.84394 0.76135 0.69298
 C1425 C 0.90881 0.75469 0.68107
 C1426 C 0.92737 0.75916 0.66811
 C1427 C 0.82061 0.74385 0.73658
 C1428 C 0.80050 0.74459 0.74630
 H1429 H 0.89964 0.76786 0.74222
 H1430 H 0.85941 0.76279 0.76772
 H1431 H 0.84727 0.70502 0.71505
 H1432 H 0.88762 0.71008 0.68946
 H1433 H 0.86806 0.77456 0.65822
 H1434 H 0.82798 0.76953 0.68361
 C1435 C 0.38584 0.25103 0.19712
 C1436 C 0.37913 0.27128 0.21941
 C1437 C 0.35750 0.26849 0.23311
 C1438 C 0.34455 0.24571 0.22328
 C1439 C 0.36199 0.22550 0.23070
 C1440 C 0.38375 0.22830 0.21693
 C1441 C 0.36524 0.24962 0.17372
 C1442 C 0.34360 0.24683 0.18743
 C1443 C 0.40901 0.25481 0.18193
 C1444 C 0.42756 0.25926 0.16897
 C1445 C 0.32082 0.24371 0.23739
 C1446 C 0.30070 0.24441 0.24708
 H1447 H 0.39044 0.28648 0.22410
 H1448 H 0.35032 0.28131 0.24953
 H1449 H 0.35765 0.21037 0.24538
 H1450 H 0.39804 0.21556 0.21984
 H1451 H 0.36745 0.25063 0.14854
 H1452 H 0.32731 0.24544 0.17395
 C1453 C 0.38502 0.74942 0.30256
 C1454 C 0.38385 0.74030 0.26876
 C1455 C 0.36213 0.74310 0.25511
 C1456 C 0.34366 0.75475 0.27655
 C1457 C 0.35503 0.77824 0.28700
 C1458 C 0.37681 0.77544 0.30069
 C1459 C 0.36493 0.73642 0.31966
 C1460 C 0.34329 0.73921 0.30605
 C1461 C 0.40822 0.74563 0.31765
 C1462 C 0.42679 0.74113 0.33053
 C1463 C 0.31989 0.75673 0.26253
 C1464 C 0.29975 0.75600 0.25290
 H1465 H 0.39880 0.73243 0.25657
 H1466 H 0.35850 0.73763 0.23124
 H1467 H 0.34677 0.79549 0.28385
 H1468 H 0.38719 0.79031 0.30928
 H1469 H 0.36748 0.72594 0.34072
 H1470 H 0.32733 0.73110 0.31551
 C1471 C 0.88416 0.24924 0.80441
 C1472 C 0.88316 0.24030 0.77051
 C1473 C 0.86148 0.24305 0.75675
 C1474 C 0.84287 0.25449 0.77819
 C1475 C 0.85408 0.27798 0.78893
 C1476 C 0.87582 0.27522 0.80273
 C1477 C 0.86409 0.23604 0.82126
 C1478 C 0.84248 0.23878 0.80755
 C1479 C 0.90733 0.24550 0.81960
 C1480 C 0.92590 0.24106 0.83254
 C1481 C 0.81914 0.25643 0.76404
 C1482 C 0.79903 0.25568 0.75432
 H1483 H 0.89820 0.23257 0.75835
 H1484 H 0.85797 0.23769 0.73282
 H1485 H 0.84574 0.29520 0.78589
 H1486 H 0.88609 0.29010 0.81152
 H1487 H 0.86662 0.22546 0.84224
 H1488 H 0.82653 0.23053 0.81683
 C1489 C 0.61129 0.98388 0.61454
 C1490 C 0.60385 1.00602 0.59619
 C1491 C 0.58631 1.00193 0.57515
 C1492 C 0.57776 0.97607 0.57436
 C1493 C 0.57062 0.97037 0.60814
 C1494 C 0.58826 0.97447 0.62928
 C1495 C 0.61798 0.96547 0.58950
 C1496 C 0.60026 0.96135 0.56827
 C1497 C 0.62970 0.98952 0.63759
 C1498 C 0.64361 0.99623 0.65710
 C1499 C 0.55845 0.97345 0.55172
 C1500 C 0.54246 0.97554 0.53326
 H1501 H 0.61179 1.02343 0.59930
 H1502 H 0.57925 1.01588 0.56025
 H1503 H 0.55333 0.96353 0.61485
 H1504 H 0.58607 0.97115 0.65412
 H1505 H 0.63503 0.95653 0.58852
 H1506 H 0.60211 0.94888 0.54909
 C1507 C 0.11088 0.48365 1.11469
 C1508 C 0.10527 0.50519 1.09410
 C1509 C 0.08756 0.50128 1.07324
 C1510 C 0.07703 0.47617 1.07487
 C1511 C 0.06933 0.47298 1.10899
 C1512 C 0.08713 0.47691 1.12993
 C1513 C 0.11623 0.46340 1.09162
 C1514 C 0.09834 0.45946 1.07057
 C1515 C 0.12948 0.48911 1.13753
 C1516 C 0.14356 0.49569 1.15690
 C1517 C 0.05757 0.47375 1.05242
 C1518 C 0.04156 0.47599 1.03402
 H1519 H 0.11455 0.52206 1.09559
 H1520 H 0.08170 0.51482 1.05686
 H1521 H 0.05153 0.46791 1.11608
 H1522 H 0.08456 0.47520 1.15499
 H1523 H 0.13256 0.45317 1.09177
 H1524 H 0.09933 0.44586 1.05265
 C1525 C -0.11150 0.01536 1.11462
 C1526 C -0.10613 -0.00598 1.09363
 C1527 C -0.08851 -0.00192 1.07268
 C1528 C -0.07784 0.02311 1.07464
 C1529 C -0.06993 0.02587 1.10875
 C1530 C -0.08763 0.02180 1.12977
 C1531 C -0.11687 0.03590 1.09195
 C1532 C -0.09908 0.03999 1.07081
 C1533 C -0.13000 0.00977 1.13756
 C1534 C -0.14398 0.00314 1.15703
 C1535 C -0.05846 0.02570 1.05211
 C1536 C -0.04247 0.02361 1.03367
 H1537 H -0.11549 -0.02281 1.09492
 H1538 H -0.08282 -0.01530 1.05602
 H1539 H -0.05207 0.03077 1.11578
 H1540 H -0.08491 0.02321 1.15484
 H1541 H -0.13314 0.04622 1.09240
 H1542 H -0.10009 0.05379 1.05313
 C1543 C 0.38889 0.51595 0.61345
 C1544 C 0.39412 0.49457 0.59245
 C1545 C 0.41171 0.49854 0.57143
 C1546 C 0.42249 0.52353 0.57332
 C1547 C 0.43049 0.52628 0.60739
 C1548 C 0.41282 0.52230 0.62849
 C1549 C 0.38355 0.53649 0.59077
 C1550 C 0.40131 0.54049 0.56955
 C1551 C 0.37043 0.51045 0.63648
 C1552 C 0.35646 0.50389 0.65601
 C1553 C 0.44183 0.52602 0.55071
 C1554 C 0.45780 0.52387 0.53225
 H1555 H 0.38469 0.47778 0.59381
 H1556 H 0.41731 0.48512 0.55477
 H1557 H 0.44839 0.53110 0.61434
 H1558 H 0.41561 0.52371 0.65354
 H1559 H 0.36732 0.54688 0.59128
 H1560 H 0.40031 0.55429 0.55186
 C1561 C 0.38866 0.48451 -0.11499
 C1562 C 0.41067 0.47243 -0.12902
 C1563 C 0.42829 0.46836 -0.10780
 C1564 C 0.42213 0.47675 -0.07469
 C1565 C 0.39867 0.46427 -0.06650
 C1566 C 0.38099 0.46837 -0.08779
 C1567 C 0.39806 0.50711 -0.09943
 C1568 C 0.41556 0.50305 -0.07833
 C1569 C 0.37029 0.49010 -0.13814
 C1570 C 0.35644 0.49672 -0.15778
 C1571 C 0.44142 0.47415 -0.05200
 C1572 C 0.45739 0.47625 -0.03353
 H1573 H 0.41221 0.46738 -0.15342
 H1574 H 0.44491 0.45981 -0.11399
 H1575 H 0.39619 0.45322 -0.04595
 H1576 H 0.36334 0.46084 -0.08547
 H1577 H 0.39144 0.52483 -0.10443
 H1578 H 0.42392 0.51733 -0.06528
 C1579 C -0.11172 0.98363 0.38580
 C1580 C -0.08778 0.97724 0.37084
 C1581 C -0.07015 0.97326 0.39199
 C1582 C -0.07817 0.97604 0.42604
 C1583 C -0.09938 0.95911 0.42976
 C1584 C -0.11711 0.96311 0.40849
 C1585 C -0.10648 1.00501 0.40678
 C1586 C -0.08893 1.00104 0.42786
 C1587 C -0.13014 0.98915 0.36270
 C1588 C -0.14403 0.99574 0.34309
 C1589 C -0.05885 0.97356 0.44869
 C1590 C -0.04286 0.97576 0.46713
 H1591 H -0.08497 0.97581 0.34580
 H1592 H -0.05224 0.96841 0.38511
 H1593 H -0.10041 0.94532 0.44747
 H1594 H -0.13335 0.95274 0.40794
 H1595 H -0.11589 1.02181 0.40539
 H1596 H -0.08333 1.01447 0.44454
 C1597 C 0.11169 0.51622 0.38652
 C1598 C 0.08781 0.52266 0.37138
 C1599 C 0.07009 0.52655 0.39241
 C1600 C 0.07798 0.52364 0.42651
 C1601 C 0.09917 0.54057 0.43048
 C1602 C 0.11699 0.53665 0.40933
 C1603 C 0.10637 0.49475 0.40738
 C1604 C 0.08873 0.49864 0.42832
 C1605 C 0.13021 0.51079 0.36356
 C1606 C 0.14420 0.50426 0.34409
 C1607 C 0.05858 0.52604 0.44903
 C1608 C 0.04257 0.52377 0.46741
 H1609 H 0.08510 0.52419 0.34633
 H1610 H 0.05221 0.53143 0.38539
 H1611 H 0.10013 0.55428 0.44825
 H1612 H 0.13323 0.54703 0.40897
 H1613 H 0.11579 0.47796 0.40599
 H1614 H 0.08307 0.48515 0.44489
 C1615 C 0.61150 0.01642 -0.11386
 C1616 C 0.61919 0.03229 -0.08642
 C1617 C 0.60150 0.03627 -0.06516
 C1618 C 0.57800 0.02397 -0.07360
 C1619 C 0.58446 -0.00233 -0.07755
 C1620 C 0.60198 -0.00627 -0.09862
 C1621 C 0.58957 0.02872 -0.12783
 C1622 C 0.57193 0.03268 -0.10664
 C1623 C 0.62989 0.01094 -0.13698
 C1624 C 0.64375 0.00437 -0.15659
 C1625 C 0.55870 0.02644 -0.05095
 C1626 C 0.54273 0.02424 -0.03252
 H1627 H 0.63687 0.03973 -0.08395
 H1628 H 0.60399 0.04714 -0.04447
 H1629 H 0.57603 -0.01669 -0.06471
 H1630 H 0.60854 -0.02397 -0.10381
 H1631 H 0.58809 0.03399 -0.15217
 H1632 H 0.55536 0.04135 -0.11278
 C1633 C 0.63314 0.53801 -0.00353
 C1634 C 0.62933 0.52535 -0.03499
 C1635 C 0.60667 0.51720 -0.03915
 C1636 C 0.59025 0.52258 -0.01141
 C1637 C 0.59175 0.54954 -0.00680
 C1638 C 0.61427 0.55765 -0.00265
 C1639 C 0.62532 0.52004 0.02136
 C1640 C 0.60282 0.51191 0.01719
 C1641 C 0.65710 0.54714 0.00199
 C1642 C 0.67611 0.55559 0.00851
 C1643 C 0.56575 0.51427 -0.01401
 C1644 C 0.54531 0.50838 -0.01168
 H1645 H 0.64316 0.52302 -0.05239
 H1646 H 0.60104 0.50789 -0.06008
 H1647 H 0.57643 0.56126 -0.00677
 H1648 H 0.61825 0.57631 0.00095
 H1649 H 0.63648 0.51418 0.04059
 H1650 H 0.59475 0.49901 0.03277
 C1651 C 0.13299 1.03720 0.49682
 C1652 C 0.12916 1.02426 0.46557
 C1653 C 0.10647 1.01616 0.46152
 C1654 C 0.09005 1.02189 0.48915
 C1655 C 0.09166 1.04888 0.49330
 C1656 C 0.11421 1.05693 0.49734
 C1657 C 0.12508 1.01951 0.52200
 C1658 C 0.10255 1.01144 0.51794
 C1659 C 0.15699 1.04628 0.50222
 C1660 C 0.17602 1.05472 0.50865
 C1661 C 0.06553 1.01364 0.48663
 C1662 C 0.04507 1.00782 0.48900
 H1663 H 0.14299 1.02169 0.44824
 H1664 H 0.10082 1.00667 0.44074
 H1665 H 0.07639 1.06067 0.49311
 H1666 H 0.11828 1.07561 0.50062
 H1667 H 0.13619 1.01381 0.54136
 H1668 H 0.09439 0.99875 0.53374
 C1669 C 0.13333 -0.03759 1.00190
 C1670 C 0.11466 -0.05125 0.98301
 C1671 C 0.09218 -0.04328 0.98742
 C1672 C 0.09044 -0.02233 1.01020
 C1673 C 0.10738 -0.00346 0.99699
 C1674 C 0.12994 -0.01149 0.99260
 C1675 C 0.12489 -0.03916 1.03604
 C1676 C 0.10225 -0.03111 1.04041
 C1677 C 0.15730 -0.04664 0.99622
 C1678 C 0.17632 -0.05505 0.98973
 C1679 C 0.06594 -0.01409 1.01307
 C1680 C 0.04546 -0.00824 1.01100
 H1681 H 0.11874 -0.06597 0.96753
 H1682 H 0.07698 -0.05127 0.97588
 H1683 H 0.10210 0.01463 0.99160
 H1684 H 0.14401 -0.00031 0.98341
 H1685 H 0.13574 -0.04593 1.05504
 H1686 H 0.09366 -0.03097 1.06312
 C1687 C 0.63366 0.46265 0.50142
 C1688 C 0.61508 0.44892 0.48247
 C1689 C 0.59257 0.45687 0.48670
 C1690 C 0.59072 0.47786 0.50938
 C1691 C 0.60768 0.49673 0.49621
 C1692 C 0.63027 0.48872 0.49200
 C1693 C 0.62510 0.46115 0.53551
 C1694 C 0.60242 0.46918 0.53971
 C1695 C 0.65766 0.45361 0.49593
 C1696 C 0.67670 0.44519 0.48954
 C1697 C 0.56619 0.48608 0.51207
 C1698 C 0.54572 0.49190 0.50987
 H1699 H 0.61924 0.43417 0.46708
 H1700 H 0.57742 0.44883 0.47509
 H1701 H 0.60240 0.51480 0.49072
 H1702 H 0.64436 0.49990 0.48286
 H1703 H 0.63589 0.45444 0.55461
 H1704 H 0.59375 0.46936 0.56236
 C1705 C -0.13353 0.46308 0.49789
 C1706 C -0.12495 0.46151 0.46382
 C1707 C -0.10219 0.46932 0.45965
 C1708 C -0.09043 0.47788 0.48997
 C1709 C -0.09251 0.45689 0.51269
 C1710 C -0.11511 0.44916 0.51690
 C1711 C -0.12989 0.48911 0.50727
 C1712 C -0.10721 0.49690 0.50308
 C1713 C -0.15762 0.45428 0.50337
 C1714 C -0.17674 0.44605 0.50977
 C1715 C -0.06583 0.48588 0.48731
 C1716 C -0.04532 0.49158 0.48952
 H1717 H -0.13578 0.45490 0.44471
 H1718 H -0.09350 0.46942 0.43701
 H1719 H -0.07746 0.44871 0.52436
 H1720 H -0.11942 0.43444 0.53232
 H1721 H -0.14388 0.50042 0.51637
 H1722 H -0.10176 0.51491 0.50857
 C1723 C 0.36699 -0.03764 -0.00313
 C1724 C 0.38582 -0.05731 -0.00242
 C1725 C 0.40836 -0.04920 -0.00643
 C1726 C 0.40989 -0.02221 -0.01074
 C1727 C 0.39732 -0.01175 0.01794
 C1728 C 0.37481 -0.01987 0.02198
 C1729 C 0.37082 -0.02474 -0.03444
 C1730 C 0.39350 -0.01659 -0.03846
 C1731 C 0.34300 -0.04676 0.00222
 C1732 C 0.32395 -0.05520 0.00857
 C1733 C 0.43440 -0.01389 -0.01322
 C1734 C 0.45483 -0.00800 -0.01083
 H1735 H 0.38181 -0.07599 0.00097
 H1736 H 0.42366 -0.06094 -0.00648
 H1737 H 0.40542 0.00101 0.03370
 H1738 H 0.36366 -0.01416 0.04126
 H1739 H 0.35701 -0.02224 -0.05184
 H1740 H 0.39915 -0.00712 -0.05927
 C1741 C 0.36660 1.03691 0.50301
 C1742 C 0.37037 1.02416 0.53444
 C1743 C 0.39302 1.01596 0.53859
 C1744 C 0.40945 1.02140 0.51087
 C1745 C 0.40800 1.04837 0.50632
 C1746 C 0.38550 1.05652 0.50218
 C1747 C 0.37439 1.01900 0.47808
 C1748 C 0.39688 1.01083 0.48225
 C1749 C 0.34265 1.04610 0.49751
 C1750 C 0.32367 1.05462 0.49104
 C1751 C 0.43394 1.01306 0.51348
 C1752 C 0.45439 1.00720 0.51118
 H1753 H 0.35654 1.02179 0.55182
 H1754 H 0.39862 1.00658 0.55950
 H1755 H 0.42334 1.06007 0.50632
 H1756 H 0.38155 1.07520 0.49862
 H1757 H 0.36323 1.01323 0.45882
 H1758 H 0.40494 0.99797 0.46663
 C1759 C -0.13427 0.53717 1.00199
 C1760 C -0.11568 0.55094 0.98310
 C1761 C -0.09315 0.54306 0.98750
 C1762 C -0.09131 0.52209 1.01028
 C1763 C -0.10817 0.50316 0.99708
 C1764 C -0.13078 0.51110 0.99269
 C1765 C -0.12581 0.53872 1.03613
 C1766 C -0.10313 0.53076 1.04050
 C1767 C -0.15828 0.54614 0.99630
 C1768 C -0.17731 0.55452 0.98976
 C1769 C -0.06676 0.51394 1.01317
 C1770 C -0.04628 0.50816 1.01114
 H1771 H -0.11982 0.56567 0.96762
 H1772 H -0.07800 0.55113 0.97595
 H1773 H -0.10282 0.48510 0.99168
 H1774 H -0.14481 0.49987 0.98351
 H1775 H -0.13668 0.54542 1.05513
 H1776 H -0.09452 0.53063 1.06321
 C1777 C 0.02555 0.63968 0.57932
 C1778 C 0.01805 0.61974 0.60168
 C1779 C 0.01654 0.59806 0.58779
 C1780 C 0.02265 0.59831 0.55280
 C1781 C 0.04753 0.60938 0.55098
 C1782 C 0.04905 0.63114 0.56493
 C1783 C 0.00751 0.63869 0.55241
 C1784 C 0.00599 0.61697 0.53848
 C1785 C 0.02694 0.66302 0.59469
 C1786 C 0.02783 0.68203 0.60773
 C1787 C 0.02049 0.57467 0.53853
 C1788 C 0.01756 0.55477 0.52876
 H1789 H 0.01430 0.62241 0.62633
 H1790 H 0.01148 0.58217 0.60057
 H1791 H 0.06257 0.60093 0.53969
 H1792 H 0.06543 0.64129 0.56559
 H1793 H -0.00309 0.65375 0.54490
 H1794 H -0.00591 0.61344 0.51906
 C1795 C 0.52629 0.14023 0.07905
 C1796 C 0.50154 0.12903 0.08169
 C1797 C 0.49981 0.10735 0.06782
 C1798 C 0.52299 0.09889 0.05257
 C1799 C 0.54158 0.09991 0.07882
 C1800 C 0.54331 0.12162 0.09272
 C1801 C 0.53170 0.14060 0.04383
 C1802 C 0.52997 0.11885 0.02990
 C1803 C 0.52789 0.16356 0.09441
 C1804 C 0.52892 0.18257 0.10744
 C1805 C 0.52063 0.07525 0.03832
 C1806 C 0.51758 0.05537 0.02859
 H1807 H 0.48665 0.13740 0.09343
 H1808 H 0.48342 0.09719 0.06768
 H1809 H 0.55246 0.08490 0.08583
 H1810 H 0.55568 0.12519 0.11162
 H1811 H 0.53651 0.15652 0.03098
 H1812 H 0.53330 0.11614 0.00516
 C1813 C -0.02640 0.14009 0.92226
 C1814 C -0.04967 0.13157 0.93734
 C1815 C -0.04795 0.10979 0.95124
 C1816 C -0.02313 0.09869 0.94869
 C1817 C -0.00619 0.11729 0.96250
 C1818 C -0.00791 0.13903 0.94863
 C1819 C -0.01933 0.12017 0.89968
 C1820 C -0.01762 0.09847 0.91353
 C1821 C -0.02798 0.16345 0.90693
 C1822 C -0.02897 0.18247 0.89389
 C1823 C -0.02076 0.07502 0.96288
 C1824 C -0.01767 0.05510 0.97252
 H1825 H -0.06603 0.14176 0.93716
 H1826 H -0.06281 0.10134 0.96297
 H1827 H 0.00603 0.11371 0.98158
 H1828 H 0.00285 0.15406 0.95582
 H1829 H -0.01600 0.12287 0.87493
 H1830 H -0.01283 0.08259 0.90060
 C1831 C 0.47418 0.64006 0.42036
 C1832 C 0.48160 0.62015 0.39798
 C1833 C 0.48325 0.59847 0.41192
 C1834 C 0.47733 0.59871 0.44696
 C1835 C 0.45243 0.60970 0.44898
 C1836 C 0.45077 0.63146 0.43499
 C1837 C 0.49237 0.63913 0.44710
 C1838 C 0.49402 0.61741 0.46107
 C1839 C 0.47267 0.66339 0.40494
 C1840 C 0.47174 0.68240 0.39185
 C1841 C 0.47963 0.57507 0.46126
 C1842 C 0.48268 0.55518 0.47099
 H1843 H 0.48521 0.62282 0.37329
 H1844 H 0.48827 0.58260 0.39913
 H1845 H 0.43747 0.60121 0.46043
 H1846 H 0.43437 0.64157 0.43444
 H1847 H 0.50297 0.65422 0.45447
 H1848 H 0.50603 0.61392 0.48039
 C1849 C 0.52607 0.85954 0.42109
 C1850 C 0.50092 0.86997 0.42070
 C1851 C 0.49926 0.89159 0.43474
 C1852 C 0.52292 0.90077 0.44789
 C1853 C 0.54011 0.90030 0.42004
 C1854 C 0.54176 0.87866 0.40597
 C1855 C 0.53333 0.85935 0.45576
 C1856 C 0.53167 0.88104 0.46985
 C1857 C 0.52759 0.83628 0.40555
 C1858 C 0.52853 0.81735 0.39235
 C1859 C 0.52061 0.92434 0.46229
 C1860 C 0.51754 0.94419 0.47207
 H1861 H 0.48570 0.86113 0.41032
 H1862 H 0.48262 0.90123 0.43638
 H1863 H 0.55014 0.91563 0.41211
 H1864 H 0.55322 0.87546 0.38601
 H1865 H 0.53928 0.84358 0.46811
 H1866 H 0.53620 0.88386 0.49424
 C1867 C 0.02516 0.36001 0.92224
 C1868 C 0.01841 0.38005 0.89962
 C1869 C 0.01679 0.40173 0.91349
 C1870 C 0.02207 0.40136 0.94872
 C1871 C 0.04678 0.39004 0.95156
 C1872 C 0.04840 0.36828 0.93764
 C1873 C 0.00651 0.36115 0.94837
 C1874 C 0.00488 0.38287 0.96228
 C1875 C 0.02664 0.33668 0.90688
 C1876 C 0.02756 0.31768 0.89381
 C1877 C 0.01981 0.42500 0.96295
 C1878 C 0.01679 0.44489 0.97264
 H1879 H 0.01522 0.37745 0.87482
 H1880 H 0.01222 0.41768 0.90054
 H1881 H 0.06163 0.39833 0.96350
 H1882 H 0.06468 0.35796 0.93764
 H1883 H -0.00443 0.34619 0.95539
 H1884 H -0.00743 0.38649 0.98120
 C1885 C 0.47470 0.36006 0.07855
 C1886 C 0.49931 0.37154 0.08120
 C1887 C 0.50082 0.39320 0.06719
 C1888 C 0.47757 0.40138 0.05180
 C1889 C 0.45897 0.40021 0.07799
 C1890 C 0.45745 0.37852 0.09203
 C1891 C 0.46933 0.35956 0.04330
 C1892 C 0.47084 0.38130 0.02924
 C1893 C 0.47332 0.33675 0.09405
 C1894 C 0.47245 0.31777 0.10722
 C1895 C 0.47971 0.42501 0.03742
 C1896 C 0.48262 0.44491 0.02762
 H1897 H 0.51428 0.36335 0.09304
 H1898 H 0.51710 0.40354 0.06704
 H1899 H 0.44791 0.41511 0.08486
 H1900 H 0.44510 0.37485 0.11090
 H1901 H 0.46472 0.34355 0.03054
 H1902 H 0.46752 0.38391 0.00447
 C1903 C -0.02618 0.85965 0.57900
 C1904 C -0.00810 0.86060 0.55216
 C1905 C -0.00647 0.88234 0.53822
 C1906 C -0.02308 0.90104 0.55246
 C1907 C -0.01702 0.90123 0.58747
 C1908 C -0.01864 0.87954 0.60137
 C1909 C -0.04963 0.86830 0.56450
 C1910 C -0.04800 0.89007 0.55055
 C1911 C -0.02768 0.83630 0.59438
 C1912 C -0.02864 0.81729 0.60746
 C1913 C -0.02082 0.92469 0.53817
 C1914 C -0.01781 0.94459 0.52842
 H1915 H 0.00246 0.84551 0.54470
 H1916 H 0.00547 0.88584 0.51884
 H1917 H -0.01193 0.91708 0.60026
 H1918 H -0.01494 0.87684 0.62604
 H1919 H -0.06604 0.85821 0.56511
 H1920 H -0.06299 0.89859 0.53919
 C1921 C 0.23432 0.36154 0.13634
 C1922 C 0.25697 0.35183 0.15147
 C1923 C 0.25296 0.33418 0.17236
 C1924 C 0.22664 0.32778 0.17626
 C1925 C 0.21791 0.32198 0.14317
 C1926 C 0.22193 0.33975 0.12216
 C1927 C 0.21848 0.36909 0.16387
 C1928 C 0.21443 0.35126 0.18495
 C1929 C 0.23987 0.38009 0.11342
 C1930 C 0.24647 0.39408 0.09394
 C1931 C 0.22409 0.30835 0.19874
 C1932 C 0.22624 0.29230 0.21711
 H1933 H 0.27470 0.35836 0.14632
 H1934 H 0.26729 0.32559 0.18509
 H1935 H 0.20917 0.30548 0.13685
 H1936 H 0.21665 0.33847 0.09780
 H1937 H 0.21111 0.38678 0.16654
 H1938 H 0.20357 0.35364 0.20568
 C1939 C 0.73409 0.86189 0.63561
 C1940 C 0.75629 0.84737 0.64350
 C1941 C 0.75231 0.82971 0.66437
 C1942 C 0.72647 0.82811 0.67552
 C1943 C 0.71170 0.82573 0.64554
 C1944 C 0.71570 0.84355 0.62451
 C1945 C 0.72476 0.87076 0.66728
 C1946 C 0.72074 0.85294 0.68833
 C1947 C 0.73960 0.88044 0.61269
 C1948 C 0.74618 0.89444 0.59322
 C1949 C 0.72395 0.80868 0.69802
 C1950 C 0.72612 0.79265 0.71641
 H1951 H 0.77372 0.85071 0.63356
 H1952 H 0.76637 0.81792 0.67227
 H1953 H 0.69913 0.81148 0.64131
 H1954 H 0.70655 0.84455 0.60220
 H1955 H 0.72148 0.88931 0.67262
 H1956 H 0.71397 0.85620 0.71170
 C1957 C 0.26684 0.63836 0.63600
 C1958 C 0.24427 0.64710 0.65229
 C1959 C 0.24820 0.66479 0.67313
 C1960 C 0.27435 0.67217 0.67582
 C1961 C 0.28190 0.67849 0.64239
 C1962 C 0.27796 0.66069 0.62143
 C1963 C 0.28373 0.63127 0.66269
 C1964 C 0.28769 0.64914 0.68373
 C1965 C 0.26136 0.61980 0.61313
 C1966 C 0.25478 0.60579 0.59370
 C1967 C 0.27679 0.69163 0.69823
 C1968 C 0.27457 0.70767 0.71655
 H1969 H 0.22668 0.63992 0.64796
 H1970 H 0.23393 0.67272 0.68664
 H1971 H 0.28981 0.69534 0.63580
 H1972 H 0.28249 0.66232 0.59685
 H1973 H 0.29182 0.61386 0.66487
 H1974 H 0.29918 0.64705 0.70393
 C1975 C 0.76676 0.13802 0.13631
 C1976 C 0.78369 0.13069 0.16286
 C1977 C 0.78792 0.14845 0.18395
 C1978 C 0.77479 0.17165 0.17623
 C1979 C 0.74856 0.16455 0.17369
 C1980 C 0.74436 0.14696 0.15279
 C1981 C 0.77807 0.16027 0.12177
 C1982 C 0.78228 0.17797 0.14277
 C1983 C 0.76100 0.11957 0.11340
 C1984 C 0.75420 0.10567 0.09395
 C1985 C 0.77752 0.19102 0.19872
 C1986 C 0.77547 0.20705 0.21709
 H1987 H 0.79161 0.11318 0.16490
 H1988 H 0.79948 0.14619 0.20406
 H1989 H 0.73443 0.17260 0.18733
 H1990 H 0.72667 0.13997 0.14855
 H1991 H 0.78252 0.16191 0.09717
 H1992 H 0.79035 0.19475 0.13621
 C1993 C 0.73288 0.13841 0.86511
 C1994 C 0.72078 0.16037 0.87922
 C1995 C 0.71674 0.17806 0.85809
 C1996 C 0.72518 0.17201 0.82496
 C1997 C 0.71271 0.14858 0.81662
 C1998 C 0.71677 0.13083 0.83783
 C1999 C 0.75550 0.14786 0.84963
 C2000 C 0.75147 0.16543 0.82862
 C2001 C 0.73845 0.11996 0.88816
 C2002 C 0.74513 0.10606 0.90770
 C2003 C 0.72263 0.19137 0.80237
 C2004 C 0.72476 0.20741 0.78399
 H2005 H 0.71568 0.16183 0.90362
 H2006 H 0.70818 0.19466 0.86435
 H2007 H 0.70169 0.14617 0.79604
 H2008 H 0.70924 0.11319 0.83542
 H2009 H 0.77321 0.14122 0.85463
 H2010 H 0.76578 0.17382 0.81563
 C2011 C 0.23331 0.63873 0.36402
 C2012 C 0.22693 0.66260 0.37915
 C2013 C 0.22297 0.68033 0.35811
 C2014 C 0.22576 0.67245 0.32401
 C2015 C 0.20882 0.65127 0.32014
 C2016 C 0.21280 0.63344 0.34129
 C2017 C 0.25471 0.64405 0.34307
 C2018 C 0.25075 0.66170 0.32211
 C2019 C 0.23882 0.62019 0.38697
 C2020 C 0.24544 0.60617 0.40641
 C2021 C 0.22329 0.69186 0.30147
 C2022 C 0.22547 0.70789 0.28307
 H2023 H 0.22548 0.66530 0.40420
 H2024 H 0.21812 0.69821 0.36512
 H2025 H 0.19504 0.65032 0.30242
 H2026 H 0.20242 0.61721 0.34173
 H2027 H 0.27150 0.63463 0.34441
 H2028 H 0.26419 0.66736 0.30548
 C2029 C 0.76683 0.86190 0.36342
 C2030 C 0.77838 0.83972 0.37782
 C2031 C 0.78238 0.82199 0.35679
 C2032 C 0.77443 0.82821 0.32347
 C2033 C 0.78739 0.85143 0.31540
 C2034 C 0.78338 0.86923 0.33650
 C2035 C 0.74424 0.85285 0.34746
 C2036 C 0.74821 0.83523 0.32655
 C2037 C 0.76131 0.88041 0.38636
 C2038 C 0.75472 0.89438 0.40582
 C2039 C 0.77694 0.80882 0.30096
 C2040 C 0.77478 0.79282 0.28256
 H2041 H 0.78316 0.83815 0.40233
 H2042 H 0.79057 0.80524 0.36325
 H2043 H 0.79869 0.85368 0.29505
 H2044 H 0.79123 0.88675 0.33423
 H2045 H 0.72659 0.85978 0.35206
 H2046 H 0.73393 0.82709 0.31325
 C2047 C 0.26586 0.36168 0.86503
 C2048 C 0.27191 0.33761 0.87991
 C2049 C 0.27582 0.32003 0.85869
 C2050 C 0.27332 0.32824 0.82466
 C2051 C 0.29049 0.34929 0.82127
 C2052 C 0.28656 0.36696 0.84261
 C2053 C 0.24454 0.35676 0.84376
 C2054 C 0.24844 0.33927 0.82262
 C2055 C 0.26041 0.38005 0.88818
 C2056 C 0.25387 0.39392 0.90779
 C2057 C 0.27573 0.30899 0.80194
 C2058 C 0.27350 0.29308 0.78342
 H2059 H 0.27318 0.33466 0.90495
 H2060 H 0.28045 0.30205 0.86552
 H2061 H 0.30438 0.35026 0.80373
 H2062 H 0.29710 0.38309 0.84338
 H2063 H 0.22783 0.36634 0.84503
 H2064 H 0.23505 0.33389 0.80576
 C2065 C 0.78644 0.38322 0.75438
 C2066 C 0.77369 0.37948 0.78580
 C2067 C 0.76547 0.35684 0.78997
 C2068 C 0.77089 0.34039 0.76229
 C2069 C 0.79786 0.34182 0.75779
 C2070 C 0.80603 0.36431 0.75363
 C2071 C 0.76852 0.37543 0.72943
 C2072 C 0.76033 0.35296 0.73363
 C2073 C 0.79565 0.40715 0.74883
 C2074 C 0.80417 0.42611 0.74227
 C2075 C 0.76252 0.31591 0.76490
 C2076 C 0.75664 0.29548 0.76253
 H2077 H 0.77133 0.39333 0.80315
 H2078 H 0.75608 0.35126 0.81088
 H2079 H 0.80954 0.32647 0.75784
 H2080 H 0.82472 0.36825 0.75009
 H2081 H 0.76274 0.38658 0.71015
 H2082 H 0.74745 0.34489 0.71800
 C2083 C 0.28700 0.88372 0.25287
 C2084 C 0.27403 0.87996 0.28413
 C2085 C 0.26586 0.85729 0.28822
 C2086 C 0.27154 0.84083 0.26064
 C2087 C 0.29855 0.84235 0.25649
 C2088 C 0.30667 0.86488 0.25240
 C2089 C 0.26930 0.87584 0.22770
 C2090 C 0.26116 0.85334 0.23181
 C2091 C 0.29617 0.90769 0.24743
 C2092 C 0.30469 0.92667 0.24097
 C2093 C 0.26323 0.81633 0.26322
 C2094 C 0.25736 0.79589 0.26093
 H2095 H 0.27149 0.89381 0.30143
 H2096 H 0.25634 0.85169 0.30902
 H2097 H 0.31028 0.82705 0.25670
 H2098 H 0.32536 0.86888 0.24910
 H2099 H 0.26364 0.88695 0.20831
 H2100 H 0.24845 0.84520 0.21601
 C2101 C 0.21297 0.88343 0.74638
 C2102 C 0.19322 0.86466 0.74694
 C2103 C 0.20125 0.84210 0.74294
 C2104 C 0.22824 0.84048 0.73879
 C2105 C 0.23869 0.85297 0.76755
 C2106 C 0.23064 0.87551 0.77157
 C2107 C 0.22592 0.87959 0.71514
 C2108 C 0.23399 0.85690 0.71113
 C2109 C 0.20391 0.90744 0.75174
 C2110 C 0.19550 0.92647 0.75814
 C2111 C 0.23648 0.81595 0.73630
 C2112 C 0.24231 0.79549 0.73864
 H2113 H 0.17454 0.86874 0.75023
 H2114 H 0.18945 0.82684 0.74279
 H2115 H 0.25137 0.84480 0.78338
 H2116 H 0.23635 0.88661 0.79091
 H2117 H 0.22850 0.89342 0.69777
 H2118 H 0.24348 0.85124 0.69036
 C2119 C 0.71427 0.38296 0.24686
 C2120 C 0.73193 0.37501 0.27207
 C2121 C 0.73998 0.35248 0.26802
 C2122 C 0.72956 0.34002 0.23922
 C2123 C 0.73533 0.35646 0.21160
 C2124 C 0.72725 0.37915 0.21564
 C2125 C 0.69453 0.36419 0.24736
 C2126 C 0.70256 0.34163 0.24333
 C2127 C 0.70520 0.40696 0.25224
 C2128 C 0.69678 0.42599 0.25862
 C2129 C 0.73779 0.31549 0.23672
 C2130 C 0.74360 0.29503 0.23908
 H2131 H 0.73762 0.38610 0.29143
 H2132 H 0.75267 0.34431 0.28383
 H2133 H 0.74484 0.35083 0.19083
 H2134 H 0.72985 0.39300 0.19830
 H2135 H 0.67585 0.36825 0.25062
 H2136 H 0.69077 0.32637 0.24313
 C2137 C 0.71393 0.61682 0.25185
 C2138 C 0.70004 0.63529 0.23287
 C2139 C 0.70786 0.65786 0.23704
 C2140 C 0.72888 0.65987 0.25969
 C2141 C 0.74783 0.64302 0.24654
 C2142 C 0.73996 0.62037 0.24239
 C2143 C 0.71243 0.62540 0.28592
 C2144 C 0.72032 0.64813 0.29005
 C2145 C 0.70503 0.59276 0.24642
 C2146 C 0.69669 0.57369 0.24004
 C2147 C 0.73696 0.68445 0.26233
 C2148 C 0.74270 0.70494 0.26012
 H2149 H 0.68530 0.63103 0.21749
 H2150 H 0.69971 0.67294 0.22538
 H2151 H 0.76585 0.64842 0.24100
 H2152 H 0.75121 0.60635 0.23327
 H2153 H 0.70582 0.61459 0.30505
 H2154 H 0.72048 0.65683 0.31269
 C2155 C 0.21196 0.11737 0.75247
 C2156 C 0.22983 0.12537 0.72758
 C2157 C 0.23787 0.14789 0.73186
 C2158 C 0.22723 0.16028 0.76055
 C2159 C 0.23275 0.14377 0.78818
 C2160 C 0.22469 0.12109 0.78392
 C2161 C 0.19224 0.13616 0.75175
 C2162 C 0.20026 0.15869 0.75601
 C2163 C 0.20293 0.09338 0.74686
 C2164 C 0.19459 0.07433 0.74034
 C2165 C 0.23546 0.18480 0.76328
 C2166 C 0.24131 0.20526 0.76107
 H2167 H 0.23567 0.11433 0.70826
 H2168 H 0.25069 0.15609 0.71629
 H2169 H 0.24210 0.14934 0.80912
 H2170 H 0.22713 0.10720 0.80123
 H2171 H 0.17358 0.13211 0.74818
 H2172 H 0.18848 0.17396 0.75610
 C2173 C 0.28736 0.11636 0.24785
 C2174 C 0.26957 0.12438 0.27280
 C2175 C 0.26161 0.14694 0.26855
 C2176 C 0.27226 0.15934 0.23982
 C2177 C 0.26662 0.14289 0.21220
 C2178 C 0.27460 0.12017 0.21644
 C2179 C 0.30716 0.13506 0.24852
 C2180 C 0.29922 0.15764 0.24429
 C2181 C 0.29632 0.09233 0.25342
 C2182 C 0.30463 0.07326 0.25992
 C2183 C 0.26412 0.18389 0.23710
 C2184 C 0.25834 0.20437 0.23930
 H2185 H 0.26372 0.11333 0.29214
 H2186 H 0.24886 0.15517 0.28417
 H2187 H 0.25726 0.14853 0.19129
 H2188 H 0.27207 0.10632 0.19914
 H2189 H 0.32580 0.13094 0.25205
 H2190 H 0.31106 0.17287 0.24419
 C2191 C 0.78745 0.61681 0.74688
 C2192 C 0.76949 0.62472 0.77170
 C2193 C 0.76144 0.64723 0.76741
 C2194 C 0.77215 0.65971 0.73879
 C2195 C 0.76673 0.64326 0.71110
 C2196 C 0.77481 0.62058 0.71538
 C2197 C 0.80714 0.63562 0.74773
 C2198 C 0.79911 0.65815 0.74347
 C2199 C 0.79651 0.59283 0.75253
 C2200 C 0.80490 0.57382 0.75913
 C2201 C 0.76392 0.68422 0.73608
 C2202 C 0.75810 0.70468 0.73834
 H2203 H 0.76360 0.61362 0.79096
 H2204 H 0.74856 0.65538 0.78293
 H2205 H 0.75743 0.64887 0.69013
 H2206 H 0.77243 0.60673 0.69803
 H2207 H 0.82579 0.63159 0.75139
 H2208 H 0.81087 0.67344 0.74346
 C2209 C 0.89082 0.77564 0.17051
 C2210 C 0.87258 0.79334 0.15746
 C2211 C 0.85087 0.79189 0.17145
 C2212 C 0.84949 0.77289 0.19715
 C2213 C 0.86967 0.77899 0.21989
 C2214 C 0.89142 0.78044 0.20588
 C2215 C 0.87902 0.75123 0.16722
 C2216 C 0.85736 0.74978 0.18118
 C2217 C 0.91413 0.77696 0.15506
 C2218 C 0.93311 0.77778 0.14193
 C2219 C 0.82585 0.77081 0.21148
 C2220 C 0.80596 0.76790 0.22124
 H2221 H 0.87639 0.80594 0.13891
 H2222 H 0.83611 0.80324 0.16486
 H2223 H 0.86712 0.78196 0.24474
 H2224 H 0.90749 0.78465 0.21876
 H2225 H 0.88701 0.73634 0.15501
 H2226 H 0.84681 0.73364 0.18092
 C2227 C 0.38948 0.27622 0.67138
 C2228 C 0.38089 0.29976 0.68561
 C2229 C 0.35916 0.29822 0.69964
 C2230 C 0.34818 0.27330 0.69806
 C2231 C 0.36690 0.25676 0.71244
 C2232 C 0.38860 0.25830 0.69843
 C2233 C 0.36953 0.26857 0.64914
 C2234 C 0.34788 0.26704 0.66312
 C2235 C 0.41278 0.27761 0.65591
 C2236 C 0.43175 0.27843 0.64277
 C2237 C 0.32456 0.27112 0.71240
 C2238 C 0.30467 0.26816 0.72216
 H2239 H 0.39099 0.31617 0.68477
 H2240 H 0.35067 0.31328 0.71084
 H2241 H 0.36344 0.24493 0.73198
 H2242 H 0.40370 0.24777 0.70597
 H2243 H 0.37217 0.26472 0.62452
 H2244 H 0.33199 0.26189 0.65043
 C2245 C 0.39050 0.72414 0.82863
 C2246 C 0.39103 0.71928 0.79327
 C2247 C 0.36929 0.72095 0.77924
 C2248 C 0.34919 0.72733 0.80196
 C2249 C 0.35733 0.75037 0.81786
 C2250 C 0.37899 0.74870 0.83184
 C2251 C 0.37205 0.70668 0.84172
 C2252 C 0.35036 0.70836 0.82772
 C2253 C 0.41381 0.72259 0.84410
 C2254 C 0.43278 0.72159 0.85725
 C2255 C 0.32556 0.72963 0.78760
 C2256 C 0.30568 0.73265 0.77782
 H2257 H 0.40704 0.71487 0.78042
 H2258 H 0.36669 0.71797 0.75441
 H2259 H 0.34697 0.76664 0.81807
 H2260 H 0.38715 0.76351 0.84401
 H2261 H 0.37572 0.69407 0.86032
 H2262 H 0.33547 0.69719 0.83434
 C2263 C 0.89149 0.22349 0.32937
 C2264 C 0.89206 0.21875 0.29398
 C2265 C 0.87033 0.22041 0.27994
 C2266 C 0.85019 0.22665 0.30266
 C2267 C 0.85825 0.24966 0.31871
 C2268 C 0.87991 0.24800 0.33271
 C2269 C 0.87309 0.20593 0.34233
 C2270 C 0.85140 0.20759 0.32831
 C2271 C 0.91480 0.22195 0.34486
 C2272 C 0.93378 0.22096 0.35802
 C2273 C 0.82657 0.22894 0.28828
 C2274 C 0.80670 0.23198 0.27846
 H2275 H 0.90809 0.21443 0.28112
 H2276 H 0.86775 0.21750 0.25508
 H2277 H 0.84785 0.26589 0.31901
 H2278 H 0.88802 0.26280 0.34498
 H2279 H 0.87679 0.19326 0.36086
 H2280 H 0.83654 0.19635 0.33485
 C2281 C 0.11017 0.27512 0.32900
 C2282 C 0.12214 0.25084 0.33300
 C2283 C 0.14382 0.24934 0.31908
 C2284 C 0.15153 0.27225 0.30244
 C2285 C 0.15000 0.29163 0.32758
 C2286 C 0.12829 0.29314 0.34152
 C2287 C 0.10954 0.27937 0.29349
 C2288 C 0.13129 0.27786 0.27952
 C2289 C 0.08683 0.27650 0.34440
 C2290 C 0.06784 0.27737 0.35749
 C2291 C 0.17517 0.27012 0.28815
 C2292 C 0.19507 0.26720 0.27839
 H2293 H 0.11426 0.23609 0.34565
 H2294 H 0.15448 0.23328 0.31983
 H2295 H 0.16469 0.30319 0.33384
 H2296 H 0.12439 0.30600 0.35971
 H2297 H 0.09344 0.28326 0.28049
 H2298 H 0.13383 0.28046 0.25460
 C2299 C 0.61018 0.77568 0.82866
 C2300 C 0.60885 0.77102 0.79330
 C2301 C 0.63055 0.76945 0.77922
 C2302 C 0.65144 0.77270 0.80187
 C2303 C 0.64742 0.75410 0.82762
 C2304 C 0.62580 0.75566 0.84165
 C2305 C 0.62528 0.79827 0.83189
 C2306 C 0.64697 0.79670 0.81783
 C2307 C 0.58689 0.77711 0.84418
 C2308 C 0.56793 0.77802 0.85735
 C2309 C 0.67504 0.77051 0.78746
 C2310 C 0.69491 0.76754 0.77764
 H2311 H 0.59233 0.76916 0.78045
 H2312 H 0.63260 0.76627 0.75434
 H2313 H 0.66047 0.74082 0.83425
 H2314 H 0.62035 0.74373 0.86027
 H2315 H 0.61945 0.81411 0.84412
 H2316 H 0.65969 0.81119 0.81802
 C2317 C 0.60876 0.22391 0.67199
 C2318 C 0.61991 0.24869 0.66958
 C2319 C 0.64155 0.25040 0.68360
 C2320 C 0.65003 0.22717 0.69874
 C2321 C 0.64912 0.20871 0.67236
 C2322 C 0.62745 0.20700 0.65832
 C2323 C 0.60833 0.21831 0.70718
 C2324 C 0.63004 0.22003 0.72125
 C2325 C 0.58549 0.22233 0.65648
 C2326 C 0.56653 0.22135 0.64330
 C2327 C 0.67363 0.22952 0.71312
 C2328 C 0.69349 0.23260 0.72293
 H2329 H 0.61152 0.26363 0.65791
 H2330 H 0.65166 0.26682 0.68392
 H2331 H 0.66417 0.19791 0.66537
 H2332 H 0.62395 0.19471 0.63932
 H2333 H 0.59238 0.21340 0.71990
 H2334 H 0.63270 0.21658 0.74598
 C2335 C 0.10931 0.72378 0.17141
 C2336 C 0.11019 0.74212 0.19794
 C2337 C 0.13190 0.74393 0.21187
 C2338 C 0.15065 0.72722 0.19795
 C2339 C 0.15088 0.73294 0.16284
 C2340 C 0.12921 0.73114 0.14893
 C2341 C 0.11798 0.70049 0.18632
 C2342 C 0.13973 0.70230 0.20028
 C2343 C 0.08599 0.72211 0.15602
 C2344 C 0.06699 0.72107 0.14294
 C2345 C 0.17428 0.72967 0.21221
 C2346 C 0.19416 0.73282 0.22192
 H2347 H 0.09507 0.75272 0.20519
 H2348 H 0.13536 0.75606 0.23105
 H2349 H 0.16673 0.73793 0.14998
 H2350 H 0.12653 0.73460 0.12420
 H2351 H 0.10792 0.68405 0.18598
 H2352 H 0.14827 0.68743 0.21190
   
