data_POSCAR
  _audit_creation_date              2014-09-24
  _audit_creation_method            'ToBaCCo'
  _symmetry_space_group_name_H-M    'P1'
  _symmetry_Int_Tables_number       1
  _symmetry_cell_setting            triclinic
  loop_
  _symmetry_equiv_pos_as_xyz
 x,y,z
_cell_length_a 53.8191
_cell_length_b 52.8670
_cell_length_c 53.0049
_cell_angle_alpha 89.466000
_cell_angle_beta 90.394700
_cell_angle_gamma 89.553500
loop_
  _atom_site_label
  _atom_site_type_symbol
  _atom_site_fract_x
  _atom_site_fract_y
  _atom_site_fract_z
C1 C 0.13093 -0.04202 0.25613
 C2 C 0.12228 -0.01766 0.26164
 C3 C 0.11216 -0.01269 0.28536
 C4 C 0.11033 -0.03200 0.30349
 C5 C 0.11841 -0.05651 0.29763
 C6 C 0.12919 -0.06178 0.27407
 C7 C 0.12395 0.00281 0.24270
 C8 C 0.11187 0.00072 0.21929
 C9 C 0.11121 0.02127 0.20208
 C10 C 0.12386 0.04359 0.20866
 C11 C 0.13711 0.04518 0.23146
 C12 C 0.13680 0.02489 0.24854
 H13 H 0.13857 -0.04553 0.23761
 H14 H 0.10585 0.00628 0.28976
 H15 H 0.10157 -0.01635 0.21545
 H16 H 0.14651 0.02632 0.26646
 H17 H 0.11734 -0.07110 0.31205
 H18 H 0.12478 0.05934 0.19550
 C19 C 0.35207 -0.02892 0.73210
 C20 C 0.36435 -0.00597 0.72775
 C21 C 0.37331 -0.00036 0.70362
 C22 C 0.37017 -0.01747 0.68381
 C23 C 0.35707 -0.03990 0.68811
 C24 C 0.34805 -0.04577 0.71222
 C25 C 0.36790 0.01225 0.74834
 C26 C 0.37949 0.00462 0.77091
 C27 C 0.38250 0.02168 0.79095
 C28 C 0.37349 0.04667 0.78778
 C29 C 0.36242 0.05468 0.76498
 C30 C 0.35975 0.03732 0.74532
 H31 H 0.34502 -0.03330 0.75073
 H32 H 0.38318 0.01716 0.70039
 H33 H 0.38548 -0.01491 0.77294
 H34 H 0.35116 0.04323 0.72766
 H35 H 0.35476 -0.05333 0.67297
 H36 H 0.37574 0.06031 0.80271
 C37 C 0.86413 0.46828 0.24731
 C38 C 0.86905 0.49328 0.24000
 C39 C 0.87736 0.49833 0.21543
 C40 C 0.88135 0.47858 0.19854
 C41 C 0.87651 0.45363 0.20605
 C42 C 0.86751 0.44837 0.23030
 C43 C 0.86622 0.51419 0.25806
 C44 C 0.87635 0.51222 0.28252
 C45 C 0.87639 0.53323 0.29877
 C46 C 0.86534 0.55598 0.29010
 C47 C 0.85417 0.55760 0.26621
 C48 C 0.85468 0.53676 0.25027
 H49 H 0.85741 0.46436 0.26617
 H50 H 0.88182 0.51752 0.20978
 H51 H 0.88584 0.49487 0.28800
 H52 H 0.84636 0.53826 0.23162
 H53 H 0.87924 0.43843 0.19275
 H54 H 0.86408 0.57222 0.30234
 C55 C 0.63732 0.46599 0.75984
 C56 C 0.62746 0.49032 0.76293
 C57 C 0.61627 0.49680 0.78575
 C58 C 0.61457 0.47893 0.80536
 C59 C 0.62450 0.45456 0.80213
 C60 C 0.63594 0.44807 0.77939
 C61 C 0.62774 0.50854 0.74183
 C62 C 0.61680 0.50217 0.71878
 C63 C 0.61623 0.51953 0.69866
 C64 C 0.62769 0.54313 0.70137
 C65 C 0.63839 0.54974 0.72462
 C66 C 0.63813 0.53249 0.74485
 H67 H 0.64588 0.46094 0.74211
 H68 H 0.60840 0.51557 0.78803
 H69 H 0.60800 0.48391 0.71674
 H70 H 0.64641 0.53756 0.76280
 H71 H 0.62311 0.44061 0.81716
 H72 H 0.62721 0.55672 0.68594
 C73 C 0.23088 0.13643 1.03807
 C74 C 0.22944 0.12214 1.01609
 C75 C 0.20857 0.10733 1.01138
 C76 C 0.18830 0.10729 1.02807
 C77 C 0.18948 0.12290 1.04957
 C78 C 0.21094 0.13692 1.05492
 C79 C 0.24947 0.12316 0.99751
 C80 C 0.27120 0.10896 1.00131
 C81 C 0.29066 0.10979 0.98363
 C82 C 0.28750 0.12514 0.96183
 C83 C 0.26549 0.13908 0.95783
 C84 C 0.24662 0.13814 0.97582
 H85 H 0.24729 0.14759 1.04178
 H86 H 0.20789 0.09666 0.99403
 H87 H 0.27308 0.09804 1.01863
 H88 H 0.22959 0.14887 0.97284
 H89 H 0.17451 0.12295 1.06313
 H90 H 0.30169 0.12574 0.94745
 C91 C 0.76489 0.36277 1.03144
 C92 C 0.76893 0.37764 1.00992
 C93 C 0.79084 0.39140 1.00770
 C94 C 0.80857 0.39080 1.02714
 C95 C 0.80423 0.37633 1.04905
 C96 C 0.78233 0.36194 1.05142
 C97 C 0.74911 0.38057 0.99086
 C98 C 0.72686 0.39250 0.99746
 C99 C 0.70719 0.39556 0.97994
 C100 C 0.71052 0.38559 0.95544
 C101 C 0.73279 0.37323 0.94879
 C102 C 0.75212 0.37112 0.96658
 H103 H 0.74732 0.35303 1.03302
 H104 H 0.79385 0.40304 0.99106
 H105 H 0.72490 0.39849 1.01682
 H106 H 0.76941 0.36180 0.96166
 H107 H 0.81823 0.37595 1.06383
 H108 H 0.69616 0.38767 0.94118
 C109 C 0.25713 0.87271 0.53192
 C110 C 0.26163 0.88229 0.50768
 C111 C 0.28483 0.89252 0.50210
 C112 C 0.30405 0.89306 0.52026
 C113 C 0.29966 0.88197 0.54419
 C114 C 0.27607 0.87230 0.55033
 C115 C 0.24204 0.88233 0.48804
 C116 C 0.21949 0.89497 0.49217
 C117 C 0.20152 0.89660 0.47298
 C118 C 0.20601 0.88534 0.44960
 C119 C 0.22858 0.87274 0.44510
 C120 C 0.24652 0.87127 0.46447
 H121 H 0.23905 0.86496 0.53621
 H122 H 0.28786 0.89974 0.48317
 H123 H 0.21615 0.90403 0.51012
 H124 H 0.26416 0.86190 0.46111
 H125 H 0.31390 0.88240 0.55871
 H126 H 0.19199 0.88665 0.43485
 C127 C 0.73334 0.64186 0.52384
 C128 C 0.72944 0.62854 0.50151
 C129 C 0.70595 0.61848 0.49622
 C130 C 0.68626 0.62186 0.51324
 C131 C 0.69030 0.63585 0.53528
 C132 C 0.71382 0.64579 0.54072
 C133 C 0.74977 0.62680 0.48318
 C134 C 0.77038 0.61106 0.48803
 C135 C 0.79145 0.61173 0.47227
 C136 C 0.79095 0.62841 0.45125
 C137 C 0.77024 0.64404 0.44627
 C138 C 0.74975 0.64314 0.46233
 H139 H 0.75144 0.64991 0.52764
 H140 H 0.70300 0.60818 0.47889
 H141 H 0.77035 0.59950 0.50500
 H142 H 0.73388 0.65548 0.45884
 H143 H 0.67536 0.63829 0.54866
 H144 H 0.80639 0.62905 0.43826
 C145 C -0.03636 0.24710 0.12795
 C146 C -0.01203 0.24982 0.11934
 C147 C -0.00502 0.27231 0.10727
 C148 C -0.02164 0.29293 0.10487
 C149 C -0.04566 0.29042 0.11520
 C150 C -0.05323 0.26738 0.12610
 C151 C 0.00690 0.23018 0.12482
 C152 C 0.00458 0.20565 0.11527
 C153 C 0.02388 0.18758 0.11866
 C154 C 0.04511 0.19471 0.13270
 C155 C 0.04688 0.21884 0.14318
 C156 C 0.02788 0.23652 0.13906
 H157 H -0.04177 0.22969 0.13730
 H158 H 0.01402 0.27404 0.10099
 H159 H -0.01155 0.20148 0.10376
 H160 H 0.02952 0.25535 0.14683
 H161 H -0.05904 0.30578 0.11366
 H162 H 0.05990 0.18125 0.13675
 C163 C -0.02945 0.75205 0.36637
 C164 C -0.00620 0.74523 0.37668
 C165 C -0.00328 0.72177 0.38892
 C166 C -0.02329 0.70513 0.39088
 C167 C -0.04635 0.71193 0.38036
 C168 C -0.04964 0.73543 0.36820
 C169 C 0.01490 0.76291 0.37603
 C170 C 0.01234 0.78714 0.38625
 C171 C 0.03302 0.80291 0.38861
 C172 C 0.05621 0.79457 0.37980
 C173 C 0.05895 0.77067 0.36861
 C174 C 0.03814 0.75484 0.36711
 H175 H -0.03185 0.77030 0.35716
 H176 H 0.01450 0.71662 0.39732
 H177 H -0.00544 0.79310 0.39375
 H178 H 0.03981 0.73630 0.35872
 H179 H -0.06181 0.69900 0.38188
 H180 H 0.07219 0.80671 0.38194
 C181 C 0.46824 0.24842 0.85599
 C182 C 0.49007 0.24495 0.87011
 C183 C 0.49342 0.22280 0.88455
 C184 C 0.47542 0.20358 0.88467
 C185 C 0.45369 0.20731 0.87000
 C186 C 0.44993 0.22971 0.85595
 C187 C 0.50965 0.26436 0.87016
 C188 C 0.50411 0.28941 0.87687
 C189 C 0.52337 0.30675 0.88119
 C190 C 0.54809 0.29901 0.87673
 C191 C 0.55363 0.27465 0.86790
 C192 C 0.53431 0.25726 0.86530
 H193 H 0.46546 0.26568 0.84510
 H194 H 0.51064 0.22036 0.89501
 H195 H 0.48505 0.29456 0.88105
 H196 H 0.53828 0.23823 0.85897
 H197 H 0.43911 0.19329 0.87009
 H198 H 0.56311 0.31229 0.87941
 C199 C 0.46991 0.74997 0.63429
 C200 C 0.49347 0.75543 0.62450
 C201 C 0.49808 0.77950 0.61420
 C202 C 0.47901 0.79774 0.61305
 C203 C 0.45570 0.79224 0.62335
 C204 C 0.45104 0.76843 0.63415
 C205 C 0.51264 0.73534 0.62385
 C206 C 0.50789 0.71299 0.61066
 C207 C 0.52523 0.69303 0.61090
 C208 C 0.54721 0.69537 0.62504
 C209 C 0.55236 0.71778 0.63803
 C210 C 0.53517 0.73791 0.63704
 H211 H 0.46639 0.73142 0.64233
 H212 H 0.51595 0.78349 0.60580
 H213 H 0.49058 0.71110 0.60028
 H214 H 0.53886 0.75513 0.64731
 H215 H 0.44092 0.80627 0.62226
 H216 H 0.56069 0.68003 0.62535
 C217 C 0.86339 1.03120 0.75915
 C218 C 0.87716 1.00874 0.76070
 C219 C 0.89092 1.00299 0.78246
 C220 C 0.89065 1.01913 0.80340
 C221 C 0.87617 1.04157 0.80177
 C222 C 0.86272 1.04791 0.77959
 C223 C 0.87572 0.99005 0.74041
 C224 C 0.88499 0.99560 0.71636
 C225 C 0.88393 0.97748 0.69702
 C226 C 0.87331 0.95377 0.70255
 C227 C 0.86455 0.94797 0.72673
 C228 C 0.86561 0.96626 0.74554
 H229 H 0.85237 1.03504 0.74235
 H230 H 0.90070 0.98501 0.78335
 H231 H 0.89254 1.01422 0.71280
 H232 H 0.85894 0.96188 0.76432
 H233 H 0.87626 1.05477 0.81726
 H234 H 0.87287 0.93910 0.68845
 C235 C 0.36016 0.52261 0.25780
 C236 C 0.37458 0.50087 0.26221
 C237 C 0.38779 0.49806 0.28480
 C238 C 0.38709 0.51703 0.30306
 C239 C 0.37250 0.53887 0.29868
 C240 C 0.35894 0.54171 0.27597
 C241 C 0.37704 0.48155 0.24270
 C242 C 0.39067 0.48682 0.22102
 C243 C 0.39408 0.46826 0.20270
 C244 C 0.38306 0.44440 0.20586
 C245 C 0.36945 0.43878 0.22785
 C246 C 0.36696 0.45753 0.24635
 H247 H 0.35026 0.52484 0.24003
 H248 H 0.39902 0.48119 0.28798
 H249 H 0.39894 0.50531 0.21856
 H250 H 0.35732 0.45354 0.26380
 H251 H 0.37198 0.55367 0.31267
 H252 H 0.38530 0.43032 0.19132
 C253 C 0.63016 1.04131 0.23292
 C254 C 0.61971 1.01757 0.22855
 C255 C 0.61177 1.01137 0.20416
 C256 C 0.61335 1.02899 0.18417
 C257 C 0.62402 1.05277 0.18891
 C258 C 0.63282 1.05890 0.21315
 C259 C 0.61784 0.99892 0.24939
 C260 C 0.60616 1.00540 0.27206
 C261 C 0.60552 0.98821 0.29259
 C262 C 0.61697 0.96426 0.28965
 C263 C 0.62835 0.95746 0.26691
 C264 C 0.62853 0.97489 0.24683
 H265 H 0.63652 1.04595 0.25176
 H266 H 0.60425 0.99273 0.20088
 H267 H 0.59843 1.02427 0.27379
 H268 H 0.63733 0.96991 0.22920
 H269 H 0.62553 1.06654 0.17377
 H270 H 0.61657 0.95042 0.30480
 C271 C 0.12919 0.53860 0.73812
 C272 C 0.11679 0.51553 0.73715
 C273 C 0.10291 0.50926 0.71575
 C274 C 0.10142 0.52599 0.69510
 C275 C 0.11439 0.54900 0.69596
 C276 C 0.12837 0.55546 0.71751
 C277 C 0.11895 0.49768 0.75838
 C278 C 0.10588 0.50203 0.78064
 C279 C 0.10814 0.48516 0.80113
 C280 C 0.12385 0.46384 0.79910
 C281 C 0.13713 0.45948 0.77673
 C282 C 0.13452 0.47652 0.75646
 H283 H 0.13950 0.54334 0.75505
 H284 H 0.09344 0.49125 0.71514
 H285 H 0.09407 0.51865 0.78203
 H286 H 0.14445 0.47324 0.73905
 H287 H 0.11352 0.56184 0.67993
 H288 H 0.12562 0.45063 0.81477
 C289 C 0.73310 0.86217 -0.04409
 C290 C 0.73017 0.87671 -0.02245
 C291 C 0.70860 0.89101 -0.01913
 C292 C 0.68982 0.89107 -0.03748
 C293 C 0.69286 0.87665 -0.05945
 C294 C 0.71467 0.86205 -0.06304
 C295 C 0.74955 0.87655 -0.00292
 C296 C 0.77245 0.88787 -0.00762
 C297 C 0.79135 0.88786 0.01095
 C298 C 0.78658 0.87570 0.03429
 C299 C 0.76353 0.86432 0.03898
 C300 C 0.74507 0.86496 0.02031
 H301 H 0.74961 0.85047 -0.04560
 H302 H 0.70635 0.90193 -0.00206
 H303 H 0.77551 0.89599 -0.02616
 H304 H 0.72716 0.85642 0.02381
 H305 H 0.67845 0.87736 -0.07378
 H306 H 0.80034 0.87563 0.04928
 C307 C 0.23980 0.37001 0.46742
 C308 C 0.23506 0.38001 0.49133
 C309 C 0.21236 0.39212 0.49595
 C310 C 0.19430 0.39439 0.47687
 C311 C 0.19894 0.38379 0.45313
 C312 C 0.22170 0.37154 0.44817
 C313 C 0.25395 0.37833 0.51154
 C314 C 0.27654 0.39092 0.50891
 C315 C 0.29418 0.39061 0.52855
 C316 C 0.28913 0.37699 0.55090
 C317 C 0.26648 0.36403 0.55362
 C318 C 0.24897 0.36501 0.53387
 H319 H 0.25760 0.36103 0.46390
 H320 H 0.20886 0.39997 0.51443
 H321 H 0.28025 0.40126 0.49160
 H322 H 0.23131 0.35549 0.53589
 H323 H 0.18483 0.38519 0.43850
 H324 H 0.30269 0.37654 0.56610
 C325 C 0.26340 0.64148 -0.02861
 C326 C 0.26772 0.62632 -0.00720
 C327 C 0.28970 0.61227 -0.00503
 C328 C 0.30741 0.61287 -0.02427
 C329 C 0.30306 0.62816 -0.04581
 C330 C 0.28096 0.64257 -0.04803
 C331 C 0.24843 0.62355 0.01210
 C332 C 0.22627 0.61144 0.00594
 C333 C 0.20749 0.60808 0.02398
 C334 C 0.21140 0.61790 0.04844
 C335 C 0.23389 0.62973 0.05500
 C336 C 0.25244 0.63217 0.03662
 H337 H 0.24608 0.65197 -0.03041
 H338 H 0.29281 0.60042 0.01152
 H339 H 0.22364 0.60523 -0.01331
 H340 H 0.27008 0.64076 0.04128
 H341 H 0.31658 0.62857 -0.06085
 H342 H 0.19736 0.61565 0.06277
 C343 C 0.75700 0.13803 0.47503
 C344 C 0.76283 0.12548 0.49765
 C345 C 0.78731 0.11748 0.50244
 C346 C 0.80627 0.12128 0.48445
 C347 C 0.79980 0.13411 0.46175
 C348 C 0.77539 0.14260 0.45709
 C349 C 0.74317 0.12104 0.51639
 C350 C 0.72166 0.10798 0.50955
 C351 C 0.70231 0.10474 0.52680
 C352 C 0.70442 0.11515 0.55105
 C353 C 0.72608 0.12816 0.55830
 C354 C 0.74550 0.13061 0.54083
 H355 H 0.73807 0.14432 0.47142
 H356 H 0.79134 0.10878 0.52057
 H357 H 0.71993 0.10045 0.49066
 H358 H 0.76241 0.14030 0.54603
 H359 H 0.81338 0.13699 0.44708
 H360 H 0.68920 0.11313 0.56416
 C361 C 1.03642 0.75207 0.85984
 C362 C 1.01288 0.75721 0.86998
 C363 C 1.00786 0.78125 0.87993
 C364 C 1.02599 0.80048 0.87999
 C365 C 1.04941 0.79477 0.86934
 C366 C 1.05485 0.77074 0.85943
 C367 C 0.99331 0.73750 0.87022
 C368 C 0.99828 0.71338 0.88061
 C369 C 0.97987 0.69444 0.88103
 C370 C 0.95626 0.70050 0.87064
 C371 C 0.95078 0.72469 0.86071
 C372 C 0.96951 0.74303 0.86049
 H373 H 1.04039 0.73348 0.85235
 H374 H 0.98940 0.78491 0.88704
 H375 H 1.01679 0.70940 0.88780
 H376 H 0.96554 0.76173 0.85289
 H377 H 1.06405 0.80867 0.86948
 H378 H 0.94152 0.68672 0.87109
 C379 C 0.53252 0.25350 0.35022
 C380 C 0.51052 0.25875 0.36309
 C381 C 0.50697 0.28240 0.37414
 C382 C 0.52566 0.30079 0.37322
 C383 C 0.54786 0.29527 0.36033
 C384 C 0.55120 0.27174 0.34854
 C385 C 0.49123 0.23937 0.36526
 C386 C 0.49550 0.21769 0.38002
 C387 C 0.47703 0.19927 0.38255
 C388 C 0.45417 0.20265 0.36979
 C389 C 0.44983 0.22442 0.35482
 C390 C 0.46844 0.24275 0.35286
 H391 H 0.53513 0.23516 0.34161
 H392 H 0.48960 0.28633 0.38360
 H393 H 0.51323 0.21519 0.38958
 H394 H 0.46523 0.25975 0.34167
 H395 H 0.56255 0.30915 0.35949
 H396 H 0.43988 0.18842 0.37148
 C397 C 1.03301 0.24849 0.63718
 C398 C 1.00902 0.24444 0.62809
 C399 C 1.00364 0.22247 0.61473
 C400 C 1.02211 0.20395 0.61043
 C401 C 1.04614 0.20796 0.62072
 C402 C 1.05171 0.23019 0.63406
 C403 C 0.98942 0.26337 0.63253
 C404 C 0.99138 0.28760 0.62201
 C405 C 0.97238 0.30592 0.62503
 C406 C 0.95171 0.29923 0.64003
 C407 C 0.95009 0.27505 0.65114
 C408 C 0.96884 0.25716 0.64715
 H409 H 1.03697 0.26595 0.64690
 H410 H 0.98469 0.21971 0.60840
 H411 H 1.00822 0.29198 0.61189
 H412 H 0.96739 0.23837 0.65536
 H413 H 1.06083 0.19423 0.61786
 H414 H 0.93628 0.31220 0.64246
 C415 C 0.54169 0.74974 0.13750
 C416 C 0.51764 0.74500 0.12868
 C417 C 0.51277 0.72276 0.11552
 C418 C 0.53174 0.70503 0.11134
 C419 C 0.55571 0.70943 0.12109
 C420 C 0.56091 0.73193 0.13421
 C421 C 0.49763 0.76359 0.13276
 C422 C 0.49929 0.78788 0.12222
 C423 C 0.47968 0.80536 0.12462
 C424 C 0.45858 0.79837 0.13850
 C425 C 0.45707 0.77422 0.14972
 C426 C 0.47660 0.75687 0.14663
 H427 H 0.54530 0.76742 0.14696
 H428 H 0.49419 0.71934 0.10835
 H429 H 0.51579 0.79295 0.11177
 H430 H 0.47533 0.73803 0.15475
 H431 H 0.57020 0.69543 0.11831
 H432 H 0.44319 0.81153 0.14035
 O433 O 0.03907 1.04813 1.00459
 O434 O 0.01449 1.05374 0.96791
 O435 O -0.01240 1.03691 1.06381
 O436 O -0.04236 1.00998 1.07424
 O437 O 0.05033 0.98437 1.05456
 O438 O 0.05824 0.95059 1.02617
 O439 O -0.07506 0.96789 0.99808
 O440 O -0.08014 1.00461 1.01979
 O441 O -0.02873 0.98357 0.93690
 O442 O 0.01182 1.00079 0.93134
 O443 O -0.01398 0.91989 0.98468
 O444 O 0.00484 0.91393 1.02570
 O445 O -0.05237 0.93359 1.01095
 O446 O -0.02314 0.92538 1.04715
 O447 O -0.00207 0.94261 0.95033
 O448 O 0.03319 0.97214 0.94296
 O449 O -0.06243 0.99449 0.96009
 O450 O -0.06558 1.03205 0.98674
 O451 O 0.06257 1.01344 1.01493
 O452 O 0.06763 0.97260 0.99465
 O453 O 0.01690 0.99777 1.07708
 O454 O -0.02337 0.97471 1.08035
 O455 O 0.00083 1.05980 1.02992
 O456 O -0.02174 1.06281 0.98898
 Zr457 Zr 0.00317 1.03354 1.00052
 O458 O -0.01909 1.01181 0.97648
 Zr459 Zr -0.01251 0.99936 1.05078
 O460 O -0.03601 0.97670 1.02884
 Zr461 Zr 0.03702 0.98327 1.01708
 O462 O 0.01566 0.95931 0.99408
 Zr463 Zr -0.04881 0.99693 0.99708
 O464 O -0.02797 1.02084 1.02084
 Zr465 Zr 0.00053 0.98007 0.96357
 O466 O 0.02414 1.00359 0.98522
 Zr467 Zr -0.01551 0.94643 1.01396
 O468 O 0.00775 0.96768 1.03817
 O469 O 0.01757 1.01386 1.03146
 O470 O -0.03009 0.96554 0.98252
 C471 C 0.05982 1.03731 1.01040
 C472 C -0.00593 1.05768 1.05301
 C473 C 0.03978 0.99104 1.07516
 C474 C -0.07297 0.94451 1.00468
 C475 C -0.05173 0.99013 0.93901
 C476 C -0.00780 0.92170 0.96137
 H477 H -0.02501 1.02286 0.96250
 H478 H 0.02626 0.94516 0.98839
 H479 H 0.02789 1.02464 1.04244
 H480 H -0.05001 0.97091 1.03933
 H481 H -0.07600 1.01970 1.02988
 H482 H -0.05780 1.00482 1.06558
 H483 H 0.04168 0.95757 0.95121
 H484 H 0.06674 0.98316 0.97914
 H485 H -0.08282 1.02880 0.98094
 H486 H -0.01370 1.07934 0.99200
 H487 H 0.02064 0.91373 1.01628
 H488 H 0.04800 0.94037 1.03782
 H489 H 0.02713 1.04318 0.95941
 H490 H 0.00381 1.01766 0.93213
 H491 H -0.01099 0.96077 1.08110
 H492 H -0.03779 0.93315 1.05527
 O493 O 0.47270 0.48334 0.43438
 O494 O 0.51058 0.50023 0.42682
 O495 O 0.49039 0.41894 0.48338
 O496 O 0.50645 0.41207 0.52124
 O497 O 0.42889 0.47018 0.50171
 O498 O 0.42744 0.51143 0.51932
 O499 O 0.55983 0.48655 0.54544
 O500 O 0.56175 0.44844 0.52355
 O501 O 0.54745 0.54489 0.49658
 O502 O 0.51760 0.55369 0.46157
 O503 O 0.50263 0.53691 0.55955
 O504 O 0.46640 0.51087 0.57022
 O505 O 0.52739 0.49785 0.57034
 O506 O 0.48558 0.47910 0.57893
 O507 O 0.51138 0.55949 0.52409
 O508 O 0.48894 0.56471 0.48293
 O509 O 0.56948 0.50913 0.50593
 O510 O 0.56849 0.46867 0.48293
 O511 O 0.44097 0.49689 0.45913
 O512 O 0.43607 0.53148 0.48686
 O513 O 0.45110 0.43489 0.51215
 O514 O 0.48162 0.42869 0.54684
 O515 O 0.49901 0.44105 0.44758
 O516 O 0.53544 0.46812 0.44010
 Zr517 Zr 0.50270 0.47872 0.45968
 O518 O 0.52824 0.50151 0.47918
 Zr519 Zr 0.48840 0.44650 0.51163
 O520 O 0.51391 0.46742 0.53318
 Zr521 Zr 0.45615 0.49803 0.49580
 O522 O 0.47984 0.52138 0.51706
 Zr523 Zr 0.54253 0.48108 0.51024
 O524 O 0.51884 0.45725 0.48934
 Zr525 Zr 0.51009 0.53282 0.49490
 O526 O 0.48493 0.51165 0.47286
 Zr527 Zr 0.49611 0.50008 0.54656
 O528 O 0.46980 0.47770 0.52728
 O529 O 0.47288 0.46587 0.48100
 O530 O 0.52574 0.51318 0.52524
 C531 C 0.45037 0.49157 0.43756
 C532 C 0.49524 0.42027 0.45968
 C533 C 0.43046 0.44682 0.50861
 C534 C 0.55054 0.49311 0.56671
 C535 C 0.56797 0.53285 0.50078
 C536 C 0.50833 0.55752 0.54804
 H537 H 0.54163 0.50663 0.46756
 H538 H 0.47028 0.53599 0.52342
 H539 H 0.46127 0.45538 0.47107
 H540 H 0.52076 0.45678 0.54705
 H541 H 0.55749 0.43459 0.51188
 H542 H 0.52316 0.41650 0.52756
 H543 H 0.47569 0.56753 0.49547
 H544 H 0.44630 0.54104 0.47466
 H545 H 0.58535 0.46951 0.49054
 H546 H 0.53074 0.46009 0.42391
 H547 H 0.45777 0.52544 0.56215
 H548 H 0.42974 0.50281 0.53584
 H549 H 0.50453 0.51764 0.42993
 H550 H 0.53124 0.54497 0.45264
 H551 H 0.46855 0.43872 0.55529
 H552 H 0.49713 0.46454 0.58076
 O553 O 0.45933 -0.06098 0.49818
 O554 O 0.48343 -0.06655 0.46100
 O555 O 0.51038 -0.04793 0.55673
 O556 O 0.54266 -0.02191 0.56389
 O557 O 0.44842 0.00269 0.54554
 O558 O 0.44001 0.03691 0.51658
 O559 O 0.57280 0.02125 0.48968
 O560 O 0.57835 -0.01602 0.51050
 O561 O 0.52501 0.00485 0.42742
 O562 O 0.48528 -0.01537 0.42285
 O563 O 0.50861 0.06785 0.47233
 O564 O 0.49068 0.07291 0.51510
 O565 O 0.54900 0.05560 0.49905
 O566 O 0.52183 0.06536 0.53360
 O567 O 0.49730 0.04349 0.43923
 O568 O 0.46291 0.01284 0.43343
 O569 O 0.55959 -0.00447 0.45064
 O570 O 0.56402 -0.04270 0.47742
 O571 O 0.43587 -0.02596 0.50648
 O572 O 0.42958 0.01439 0.48609
 O573 O 0.48321 -0.00673 0.56846
 O574 O 0.52341 0.01373 0.57086
 O575 O 0.49884 -0.07163 0.52311
 O576 O 0.52011 -0.07512 0.48223
 Zr577 Zr 0.49516 -0.04592 0.49296
 O578 O 0.51687 -0.02427 0.46806
 Zr579 Zr 0.51156 -0.01068 0.54178
 O580 O 0.53382 0.01234 0.51883
 Zr581 Zr 0.46110 0.00422 0.50807
 O582 O 0.48129 0.02794 0.48373
 Zr583 Zr 0.54667 -0.00813 0.48778
 O584 O 0.52663 -0.03225 0.51237
 Zr585 Zr 0.49622 0.00663 0.45413
 O586 O 0.47340 -0.01661 0.47688
 Zr587 Zr 0.51253 0.04199 0.50278
 O588 O 0.49064 0.02057 0.52823
 O589 O 0.48119 -0.02588 0.52336
 O590 O 0.52693 0.02249 0.47210
 C591 C 0.43854 -0.04989 0.50304
 C592 C 0.50472 -0.06914 0.54646
 C593 C 0.45996 -0.00140 0.56652
 C594 C 0.57011 0.04483 0.49501
 C595 C 0.54837 -0.00008 0.42957
 C596 C 0.50192 0.06499 0.44917
 H597 H 0.52294 -0.03523 0.45436
 H598 H 0.47011 0.04159 0.47757
 H599 H 0.47112 -0.03639 0.53488
 H600 H 0.54778 0.01864 0.52915
 H601 H 0.57441 -0.03123 0.52072
 H602 H 0.55752 -0.01447 0.55595
 H603 H 0.45428 0.02756 0.44086
 H604 H 0.43035 0.00417 0.47055
 H605 H 0.58096 -0.03889 0.47127
 H606 H 0.51219 -0.09169 0.48561
 H607 H 0.47573 0.07397 0.50418
 H608 H 0.45008 0.04681 0.52862
 H609 H 0.47028 -0.05637 0.45247
 H610 H 0.49443 -0.03164 0.42390
 H611 H 0.51255 0.02892 0.56999
 H612 H 0.53482 0.05649 0.54365
 O613 O -0.03825 0.44318 1.00174
 O614 O -0.01420 0.44025 0.96424
 O615 O 0.01207 0.44960 1.06157
 O616 O 0.04764 0.47245 1.06862
 O617 O -0.04667 0.50120 1.05646
 O618 O -0.05451 0.53900 1.03100
 O619 O 0.07683 0.52343 0.99903
 O620 O 0.08211 0.48425 1.01715
 O621 O 0.02786 0.51208 0.93677
 O622 O -0.01433 0.49384 0.93262
 O623 O 0.01529 0.57201 0.98785
 O624 O -0.00347 0.57423 1.03030
 O625 O 0.05393 0.55665 1.01328
 O626 O 0.02664 0.56305 1.04931
 O627 O 0.00240 0.55154 0.95270
 O628 O -0.03270 0.52438 0.94378
 O629 O 0.06276 0.50117 0.95874
 O630 O 0.06693 0.46083 0.98179
 O631 O -0.06069 0.47734 1.01476
 O632 O -0.06652 0.51951 0.99856
 O633 O -0.01136 0.48880 1.07706
 O634 O 0.02890 0.50844 1.08086
 O635 O 0.00113 0.42879 1.02578
 O636 O 0.02225 0.42887 0.98446
 Zr637 Zr -0.00197 0.45748 0.99801
 O638 O 0.01980 0.48098 0.97489
 Zr639 Zr 0.01609 0.48749 1.04955
 O640 O 0.03845 0.51221 1.02863
 Zr641 Zr -0.03476 0.50671 1.01873
 O642 O -0.01444 0.53207 0.99611
 Zr643 Zr 0.05029 0.49452 0.99555
 O644 O 0.03016 0.46845 1.01804
 Zr645 Zr -0.00040 0.51347 0.96427
 O646 O -0.02337 0.48878 0.98536
 Zr647 Zr 0.01737 0.54351 1.01591
 O648 O -0.00446 0.52031 1.03974
 O649 O -0.01495 0.47495 1.03028
 O650 O 0.03089 0.52676 0.98323
 C651 C -0.05870 0.45394 1.00847
 C652 C 0.00588 0.42952 1.04956
 C653 C -0.03468 0.49390 1.07642
 C654 C 0.07461 0.54627 1.00703
 C655 C 0.05122 0.50669 0.93813
 C656 C 0.00872 0.57166 0.96448
 H657 H 0.02533 0.47112 0.96016
 H658 H -0.02519 0.54659 0.99131
 H659 H -0.02534 0.46366 1.04070
 H660 H 0.05270 0.51725 1.03926
 H661 H 0.07814 0.46815 1.02587
 H662 H 0.06222 0.48220 1.06300
 H663 H -0.04195 0.53672 0.95409
 H664 H -0.06580 0.51146 0.98179
 H665 H 0.08393 0.46489 0.97597
 H666 H 0.01398 0.41225 0.98641
 H667 H -0.01857 0.57633 1.01974
 H668 H -0.04391 0.54716 1.04386
 H669 H -0.02738 0.45131 0.95693
 H670 H -0.00369 0.47874 0.93017
 H671 H 0.01834 0.52381 1.08179
 H672 H 0.04043 0.55370 1.05770
 O673 O -0.00028 0.42685 0.51607
 O674 O -0.02181 0.42273 0.47840
 O675 O 0.05968 0.47639 0.49836
 O676 O 0.06461 0.51532 0.48306
 O677 O 0.01465 0.49093 0.56487
 O678 O -0.02574 0.50738 0.57088
 O679 O -0.01078 0.54542 0.43776
 O680 O 0.02487 0.52146 0.43056
 O681 O -0.06850 0.49374 0.45022
 O682 O -0.07445 0.45768 0.47901
 O683 O -0.05702 0.55473 0.49764
 O684 O -0.02951 0.56160 0.53544
 O685 O -0.01958 0.56770 0.47318
 O686 O 0.00035 0.57209 0.51532
 O687 O -0.07992 0.51997 0.48863
 O688 O -0.08286 0.47744 0.51006
 O689 O -0.03648 0.50925 0.42706
 O690 O 0.00225 0.48335 0.42164
 O691 O -0.01166 0.44859 0.55111
 O692 O -0.04597 0.47599 0.56052
 O693 O 0.04724 0.50254 0.54047
 O694 O 0.05113 0.53910 0.51203
 O695 O 0.03730 0.44174 0.48788
 O696 O 0.00811 0.43768 0.45216
 Zr697 Zr 0.00018 0.45450 0.48747
 O698 O -0.02443 0.47625 0.46496
 Zr699 Zr 0.03276 0.50488 0.50368
 O700 O 0.01000 0.52876 0.48137
 Zr701 Zr -0.01486 0.48664 0.53885
 O702 O -0.03987 0.51014 0.51834
 Zr703 Zr -0.00582 0.50839 0.45162
 O704 O 0.01970 0.48526 0.47196
 Zr705 Zr -0.05354 0.49042 0.48699
 O706 O -0.03054 0.46613 0.50900
 Zr707 Zr -0.02055 0.54086 0.50269
 O708 O 0.00373 0.51912 0.52598
 O709 O 0.01520 0.47325 0.51836
 O710 O -0.03581 0.52201 0.47214
 C711 C -0.00611 0.42800 0.53952
 C712 C 0.05796 0.45308 0.49187
 C713 C 0.03734 0.49788 0.56196
 C714 C -0.01591 0.56607 0.44930
 C715 C -0.05910 0.50228 0.42965
 C716 C -0.07760 0.54385 0.49214
 H717 H -0.03061 0.46587 0.45084
 H718 H -0.05345 0.51585 0.52942
 H719 H 0.02661 0.46250 0.52865
 H720 H 0.01998 0.54304 0.47495
 H721 H 0.03834 0.50877 0.43296
 H722 H 0.05860 0.52361 0.46736
 H723 H -0.08498 0.48955 0.52401
 H724 H -0.05584 0.46441 0.54993
 H725 H -0.00056 0.49268 0.40554
 H726 H 0.01602 0.42088 0.45514
 H727 H -0.04472 0.55428 0.54280
 H728 H -0.01928 0.52470 0.56839
 H729 H -0.03743 0.42432 0.48802
 H730 H -0.06637 0.44896 0.46477
 H731 H 0.04229 0.54681 0.52640
 H732 H 0.01446 0.57428 0.50365
 O733 O 0.49126 1.04673 -0.06390
 O734 O 0.52719 1.02218 -0.07062
 O735 O 0.43226 0.99738 -0.05319
 O736 O 0.42382 0.96293 -0.02971
 O737 O 0.44458 1.05638 -0.00192
 O738 O 0.47156 1.06133 0.03393
 O739 O 0.49886 0.92635 0.01175
 O740 O 0.47677 0.92344 -0.02501
 O741 O 0.55891 0.97393 -0.00141
 O742 O 0.56529 1.01480 -0.01673
 O743 O 0.51264 0.98653 0.06229
 O744 O 0.47341 1.00391 0.06943
 O745 O 0.48769 0.94750 0.04712
 O746 O 0.45084 0.97723 0.05556
 O747 O 0.54640 0.99917 0.04021
 O748 O 0.55294 1.03697 0.01106
 O749 O 0.53580 0.94036 -0.01364
 O750 O 0.50899 0.93964 -0.05164
 O751 O 0.48374 1.06903 -0.02810
 O752 O 0.50353 1.07131 0.01352
 O753 O 0.42106 1.02222 -0.01181
 O754 O 0.41802 0.97932 0.00729
 O755 O 0.46623 1.00708 -0.07670
 O756 O 0.50711 0.98562 -0.08041
 Zr757 Zr 0.49571 1.00942 -0.05053
 O758 O 0.51967 0.98557 -0.02963
 Zr759 Zr 0.44670 0.99241 -0.01654
 O760 O 0.46850 0.96676 0.00477
 Zr761 Zr 0.48085 1.04145 0.00084
 O762 O 0.50337 1.01808 0.02405
 Zr763 Zr 0.49939 0.95472 -0.01598
 O764 O 0.47555 0.97744 -0.03878
 Zr765 Zr 0.53298 1.00367 0.00281
 O766 O 0.51164 1.02903 -0.02000
 Zr767 Zr 0.48376 0.98577 0.03566
 O768 O 0.45996 1.01119 0.01561
 O769 O 0.46589 1.02339 -0.03018
 O770 O 0.51431 0.97187 0.01604
 C771 C 0.48696 1.06744 -0.05210
 C772 C 0.44290 1.00281 -0.07416
 C773 C 0.42370 1.04578 -0.00677
 C774 C 0.49355 0.92713 0.03532
 C775 C 0.55664 0.95084 -0.00851
 C776 C 0.53556 0.99282 0.06086
 H777 H 0.53333 0.98003 -0.04075
 H778 H 0.50916 1.02812 0.03856
 H779 H 0.45506 1.03467 -0.04049
 H780 H 0.45824 0.95223 0.01003
 H781 H 0.46658 0.92861 -0.03983
 H782 H 0.43180 0.94684 -0.02435
 H783 H 0.54633 1.04390 0.02696
 H784 H 0.51841 1.07142 0.00265
 H785 H 0.51495 0.92200 -0.04902
 H786 H 0.50341 0.99430 -0.09671
 H787 H 0.47941 1.02151 0.06826
 H788 H 0.45889 1.05111 0.04275
 H789 H 0.53595 1.03428 -0.05959
 H790 H 0.56296 1.00991 -0.03455
 H791 H 0.41771 0.99053 0.02215
 H792 H 0.44416 0.96125 0.04883
 O793 O 0.43722 0.52421 0.00800
 O794 O 0.43394 0.48506 -0.01104
 O795 O 0.48193 0.50563 0.07485
 O796 O 0.51973 0.49160 0.08369
 O797 O 0.50103 0.57179 0.02709
 O798 O 0.51997 0.57517 -0.01384
 O799 O 0.55262 0.44279 0.00804
 O800 O 0.52932 0.43824 0.04650
 O801 O 0.50656 0.45269 -0.05056
 O802 O 0.47039 0.48144 -0.06037
 O803 O 0.56499 0.50236 -0.03827
 O804 O 0.57030 0.54057 -0.01036
 O805 O 0.57585 0.47792 0.00073
 O806 O 0.58031 0.51936 0.02016
 O807 O 0.53175 0.49204 -0.06269
 O808 O 0.49064 0.51158 -0.07032
 O809 O 0.51618 0.43057 -0.01479
 O810 O 0.49109 0.42852 0.02376
 O811 O 0.46083 0.55834 -0.00195
 O812 O 0.48893 0.56619 -0.03462
 O813 O 0.50917 0.54830 0.06230
 O814 O 0.54416 0.51970 0.07019
 O815 O 0.44874 0.49713 0.04972
 O816 O 0.44534 0.46043 0.02245
 Zr817 Zr 0.46361 0.49480 0.01341
 O818 O 0.48594 0.47030 -0.00808
 Zr819 Zr 0.51159 0.51096 0.04951
 O820 O 0.53611 0.48753 0.02928
 Zr821 Zr 0.49757 0.54471 -0.00184
 O822 O 0.52091 0.52245 -0.02465
 Zr823 Zr 0.51641 0.45744 0.01365
 O824 O 0.49237 0.47927 0.03627
 Zr825 Zr 0.50171 0.49053 -0.03793
 O826 O 0.47756 0.51469 -0.01785
 Zr827 Zr 0.54983 0.50750 -0.00212
 O828 O 0.52787 0.53194 0.02006
 O829 O 0.48195 0.52579 0.02865
 O830 O 0.53156 0.47642 -0.01704
 C831 C 0.43976 0.54757 0.00136
 C832 C 0.45891 0.50000 0.07144
 C833 C 0.50631 0.56958 0.05076
 C834 C 0.57329 0.45394 0.00316
 C835 C 0.51256 0.43211 -0.03865
 C836 C 0.55492 0.49656 -0.05946
 H837 H 0.47581 0.45598 -0.01405
 H838 H 0.52727 0.53298 -0.03866
 H839 H 0.47093 0.53672 0.03883
 H840 H 0.54964 0.48119 0.04042
 H841 H 0.51651 0.44081 0.05957
 H842 H 0.52888 0.47601 0.07922
 H843 H 0.50121 0.52678 -0.07126
 H844 H 0.47882 0.55515 -0.04555
 H845 H 0.50009 0.41209 0.02334
 H846 H 0.42832 0.46429 0.02851
 H847 H 0.56443 0.54734 -0.02683
 H848 H 0.53549 0.57416 -0.00374
 H849 H 0.43691 0.49369 -0.02737
 H850 H 0.46246 0.46639 -0.05279
 H851 H 0.55284 0.53313 0.06064
 H852 H 0.58079 0.50872 0.03561
 O853 O -0.06883 0.02115 0.51763
 O854 O -0.07438 -0.01771 0.49900
 O855 O -0.01292 0.00847 0.57404
 O856 O 0.02527 -0.00900 0.57541
 O857 O -0.00540 0.07190 0.52412
 O858 O 0.00595 0.07674 0.48113
 O859 O 0.04729 -0.05546 0.49910
 O860 O 0.02815 -0.06174 0.53773
 O861 O -0.00853 -0.04562 0.44483
 O862 O -0.04701 -0.01901 0.44252
 O863 O 0.04892 0.00426 0.44742
 O864 O 0.05912 0.04190 0.47324
 O865 O 0.06704 -0.02024 0.48487
 O866 O 0.07334 0.02265 0.50278
 O867 O 0.01194 -0.00530 0.42899
 O868 O -0.03054 0.01263 0.43017
 O869 O 0.00935 -0.06771 0.47726
 O870 O -0.01138 -0.07221 0.51921
 O871 O -0.04957 0.05637 0.50263
 O872 O -0.02707 0.06551 0.46481
 O873 O 0.01169 0.04881 0.55627
 O874 O 0.04731 0.02064 0.55831
 O875 O -0.04898 -0.00404 0.55560
 O876 O -0.05541 -0.04198 0.52939
 Zr877 Zr -0.04098 -0.00674 0.51705
 O878 O -0.02243 -0.02996 0.49108
 Zr879 Zr 0.01187 0.01144 0.54359
 O880 O 0.03277 -0.01128 0.51908
 Zr881 Zr -0.01250 0.04479 0.49592
 O882 O 0.00755 0.02364 0.46919
 Zr883 Zr 0.01147 -0.04199 0.50700
 O884 O -0.00835 -0.02108 0.53422
 Zr885 Zr -0.01273 -0.00865 0.45918
 O886 O -0.03390 0.01399 0.48382
 Zr887 Zr 0.04035 0.00912 0.48582
 O888 O 0.02176 0.03296 0.51162
 O889 O -0.02141 0.02506 0.52855
 O890 O 0.02066 -0.02235 0.47416
 C891 C -0.06887 0.04448 0.51057
 C892 C -0.03585 0.00188 0.57495
 C893 C 0.00500 0.06987 0.54602
 C894 C 0.06647 -0.04395 0.49058
 C895 C 0.00111 -0.06586 0.45453
 C896 C 0.03531 -0.00090 0.42815
 H897 H -0.03292 -0.04458 0.48668
 H898 H 0.01105 0.03450 0.45437
 H899 H -0.03068 0.03586 0.54047
 H900 H 0.04808 -0.01711 0.52782
 H901 H 0.01730 -0.05899 0.55248
 H902 H 0.03473 -0.02367 0.56899
 H903 H -0.02058 0.02800 0.42714
 H904 H -0.03981 0.05470 0.45689
 H905 H -0.00226 -0.08827 0.51621
 H906 H -0.07085 -0.03886 0.53904
 H907 H 0.04908 0.04976 0.45952
 H908 H 0.02349 0.07517 0.48669
 H909 H -0.07457 -0.00950 0.48215
 H910 H -0.05289 -0.03449 0.45117
 H911 H 0.05414 0.03403 0.54725
 H912 H 0.07764 0.01119 0.51704
 O913 O 0.73869 0.17750 0.25680
 O914 O 0.77780 0.17616 0.23851
 O915 O 0.74914 0.22527 0.32131
 O916 O 0.76123 0.26453 0.32897
 O917 O 0.68600 0.23975 0.27026
 O918 O 0.68259 0.25719 0.22897
 O919 O 0.80877 0.30022 0.25920
 O920 O 0.81493 0.27408 0.29443
 O921 O 0.80474 0.25143 0.19674
 O922 O 0.78015 0.21276 0.18758
 O923 O 0.75448 0.30822 0.20590
 O924 O 0.71384 0.31190 0.22982
 O925 O 0.77312 0.32088 0.24763
 O926 O 0.73017 0.32268 0.26216
 O927 O 0.76548 0.27422 0.18242
 O928 O 0.74913 0.23099 0.17620
 O929 O 0.82396 0.26612 0.23193
 O930 O 0.82826 0.23829 0.27021
 O931 O 0.70390 0.19876 0.24369
 O932 O 0.69559 0.22654 0.20912
 O933 O 0.70698 0.25005 0.30596
 O934 O 0.73203 0.28736 0.31390
 O935 O 0.76276 0.19194 0.29834
 O936 O 0.80008 0.19033 0.27210
 Zr937 Zr 0.76519 0.20627 0.26133
 O938 O 0.78811 0.23009 0.23958
 Zr939 Zr 0.74388 0.25455 0.29461
 O940 O 0.76579 0.28034 0.27443
 Zr941 Zr 0.71409 0.23714 0.24266
 O942 O 0.73484 0.26212 0.21990
 Zr943 Zr 0.79762 0.26212 0.26065
 O944 O 0.77711 0.23686 0.28353
 Zr945 Zr 0.76798 0.24436 0.20857
 O946 O 0.74577 0.21846 0.22878
 Zr947 Zr 0.74661 0.29271 0.24181
 O948 O 0.72336 0.26921 0.26376
 O949 O 0.73265 0.22315 0.27443
 O950 O 0.77903 0.27594 0.22880
 C951 C 0.71596 0.17826 0.24903
 C952 C 0.75700 0.20234 0.31932
 C953 C 0.68683 0.24563 0.29378
 C954 C 0.79614 0.32043 0.25411
 C955 C 0.82359 0.26073 0.20837
 C956 C 0.76118 0.29793 0.18511
 H957 H 0.80316 0.22075 0.23430
 H958 H 0.72471 0.26777 0.20526
 H959 H 0.72234 0.21155 0.28466
 H960 H 0.77017 0.29441 0.28575
 H961 H 0.81235 0.26047 0.30709
 H962 H 0.77628 0.27415 0.32457
 H963 H 0.73387 0.24132 0.17388
 H964 H 0.70745 0.21593 0.19961
 H965 H 0.84354 0.24861 0.26935
 H966 H 0.79746 0.17301 0.27891
 H967 H 0.70935 0.30582 0.21281
 H968 H 0.68337 0.27423 0.23650
 H969 H 0.76963 0.17825 0.22183
 H970 H 0.79504 0.20557 0.19611
 H971 H 0.71819 0.29491 0.30391
 H972 H 0.73923 0.32400 0.27839
 O973 O 0.76274 0.69800 0.68874
 O974 O 0.80037 0.69411 0.71157
 O975 O 0.70660 0.69251 0.74455
 O976 O 0.69707 0.71168 0.78096
 O977 O 0.70297 0.75391 0.69028
 O978 O 0.72545 0.79215 0.68477
 O979 O 0.76608 0.76263 0.81469
 O980 O 0.75141 0.72190 0.81618
 O981 O 0.82381 0.76295 0.76129
 O982 O 0.82741 0.75047 0.71723
 O983 O 0.76755 0.81893 0.75863
 O984 O 0.72468 0.82030 0.74213
 O985 O 0.74636 0.79668 0.79674
 O986 O 0.70880 0.80348 0.77141
 O987 O 0.80293 0.80287 0.74186
 O988 O 0.81133 0.78093 0.70174
 O989 O 0.80632 0.74481 0.79579
 O990 O 0.78643 0.70278 0.79597
 O991 O 0.74378 0.73275 0.67128
 O992 O 0.75797 0.77620 0.67005
 O993 O 0.68568 0.73347 0.72369
 O994 O 0.68319 0.74821 0.76774
 O995 O 0.74185 0.67689 0.72690
 O996 O 0.78332 0.67704 0.74750
 Zr997 Zr 0.76657 0.70744 0.72703
 O998 O 0.78878 0.72951 0.75096
 Zr999 Zr 0.71445 0.73092 0.75079
 O1000 O 0.73458 0.75364 0.77595
 Zr1001 Zr 0.74036 0.75863 0.70105
 O1002 O 0.76129 0.78281 0.72403
 Zr1003 Zr 0.76947 0.73740 0.78429
 O1004 O 0.74796 0.71281 0.76152
 Zr1005 Zr 0.79492 0.76497 0.73434
 O1006 O 0.77515 0.74186 0.70891
 Zr1007 Zr 0.74281 0.78830 0.75831
 O1008 O 0.72024 0.76663 0.73396
 O1009 O 0.73255 0.72382 0.71727
 O1010 O 0.77725 0.77265 0.76832
 C1011 C 0.75290 0.71021 0.67003
 C1012 C 0.71937 0.67460 0.73450
 C1013 C 0.68452 0.74353 0.70152
 C1014 C 0.75567 0.78459 0.81569
 C1015 C 0.82497 0.75421 0.78399
 C1016 C 0.79005 0.82108 0.75103
 H1017 H 0.80446 0.72025 0.75458
 H1018 H 0.76400 0.79893 0.71491
 H1019 H 0.72241 0.71320 0.70597
 H1020 H 0.72471 0.75588 0.79144
 H1021 H 0.74356 0.70601 0.81056
 H1022 H 0.70519 0.71734 0.79668
 H1023 H 0.80024 0.79462 0.69543
 H1024 H 0.77462 0.76827 0.66869
 H1025 H 0.79335 0.70506 0.81319
 H1026 H 0.78223 0.66150 0.73721
 H1027 H 0.73401 0.82542 0.72694
 H1028 H 0.71378 0.79920 0.69727
 H1029 H 0.80646 0.70752 0.70006
 H1030 H 0.83138 0.73400 0.72536
 H1031 H 0.67963 0.76396 0.75808
 H1032 H 0.70237 0.79181 0.78449
 O1033 O 0.29831 0.20413 0.74759
 O1034 O 0.30304 0.23149 0.71275
 O1035 O 0.29363 0.25304 0.81094
 O1036 O 0.27113 0.28725 0.82180
 O1037 O 0.24158 0.19423 0.80158
 O1038 O 0.20378 0.19080 0.77664
 O1039 O 0.22383 0.32561 0.75192
 O1040 O 0.26204 0.32774 0.77080
 O1041 O 0.23389 0.27988 0.68723
 O1042 O 0.24925 0.23788 0.67964
 O1043 O 0.17405 0.26489 0.73794
 O1044 O 0.17130 0.24460 0.77949
 O1045 O 0.19024 0.30286 0.76411
 O1046 O 0.18303 0.27382 0.79932
 O1047 O 0.19388 0.25448 0.70181
 O1048 O 0.22091 0.21753 0.69151
 O1049 O 0.24667 0.31296 0.71093
 O1050 O 0.28555 0.31338 0.73545
 O1051 O 0.26323 0.18251 0.75772
 O1052 O 0.22154 0.18009 0.74367
 O1053 O 0.25392 0.22766 0.82511
 O1054 O 0.23551 0.26962 0.83099
 O1055 O 0.31383 0.24233 0.77498
 O1056 O 0.31488 0.26636 0.73490
 Zr1057 Zr 0.28589 0.24217 0.74694
 O1058 O 0.26381 0.26721 0.72507
 Zr1059 Zr 0.25644 0.25795 0.79941
 O1060 O 0.23347 0.28379 0.77966
 Zr1061 Zr 0.23615 0.21005 0.76518
 O1062 O 0.21221 0.23369 0.74393
 Zr1063 Zr 0.25143 0.29742 0.74734
 O1064 O 0.27584 0.27379 0.76884
 Zr1065 Zr 0.23122 0.24936 0.71305
 O1066 O 0.25449 0.22326 0.73272
 Zr1067 Zr 0.20210 0.26502 0.76567
 O1068 O 0.22365 0.23967 0.78812
 O1069 O 0.26813 0.22727 0.77832
 O1070 O 0.21911 0.28038 0.73380
 C1071 C 0.28618 0.18353 0.75134
 C1072 C 0.31334 0.24696 0.79874
 C1073 C 0.24815 0.20430 0.82260
 C1074 C 0.20104 0.32386 0.75904
 C1075 C 0.24083 0.30298 0.68971
 C1076 C 0.17418 0.25980 0.71430
 H1077 H 0.27387 0.27332 0.71075
 H1078 H 0.19767 0.22373 0.73858
 H1079 H 0.27900 0.21540 0.78792
 H1080 H 0.22891 0.29781 0.79097
 H1081 H 0.27738 0.32222 0.77976
 H1082 H 0.26379 0.30333 0.81551
 H1083 H 0.20625 0.20979 0.69957
 H1084 H 0.22856 0.18189 0.72655
 H1085 H 0.28242 0.33125 0.73041
 H1086 H 0.33096 0.25717 0.73663
 H1087 H 0.16943 0.22934 0.76901
 H1088 H 0.19666 0.20054 0.79076
 H1089 H 0.29135 0.22016 0.70393
 H1090 H 0.26560 0.24629 0.67915
 H1091 H 0.22031 0.25920 0.83131
 H1092 H 0.19270 0.28681 0.80831
 O1093 O 0.19999 0.79643 0.24729
 O1094 O 0.19438 0.77149 0.21128
 O1095 O 0.20685 0.74270 0.30781
 O1096 O 0.22948 0.70631 0.31378
 O1097 O 0.25786 0.80189 0.30297
 O1098 O 0.29454 0.80929 0.27810
 O1099 O 0.27669 0.67697 0.24229
 O1100 O 0.23875 0.67201 0.25990
 O1101 O 0.26560 0.72977 0.18172
 O1102 O 0.24699 0.77205 0.17823
 O1103 O 0.32516 0.74046 0.23183
 O1104 O 0.32822 0.75644 0.27570
 O1105 O 0.31039 0.69916 0.25534
 O1106 O 0.31837 0.72440 0.29232
 O1107 O 0.30333 0.75415 0.19753
 O1108 O 0.27579 0.79148 0.19106
 O1109 O 0.25402 0.69364 0.20177
 O1110 O 0.21492 0.68959 0.22573
 O1111 O 0.23442 0.81800 0.25981
 O1112 O 0.27597 0.82302 0.24649
 O1113 O 0.24757 0.76550 0.32350
 O1114 O 0.26529 0.72330 0.32529
 O1115 O 0.18620 0.75777 0.27308
 O1116 O 0.18411 0.73479 0.23231
 Zr1117 Zr 0.21301 0.75897 0.24449
 O1118 O 0.23499 0.73710 0.22017
 Zr1119 Zr 0.24384 0.73845 0.29502
 O1120 O 0.26711 0.71567 0.27274
 Zr1121 Zr 0.26244 0.79046 0.26514
 O1122 O 0.28640 0.76993 0.24163
 Zr1123 Zr 0.24867 0.70500 0.23949
 O1124 O 0.22414 0.72541 0.26333
 Zr1125 Zr 0.26668 0.75733 0.20989
 O1126 O 0.24343 0.78042 0.23193
 Zr1127 Zr 0.29787 0.73653 0.26014
 O1128 O 0.27607 0.75858 0.28502
 O1129 O 0.23128 0.77109 0.27684
 O1130 O 0.28015 0.72442 0.22737
 C1131 C 0.21152 0.81688 0.25282
 C1132 C 0.18728 0.75138 0.29650
 C1133 C 0.25279 0.78915 0.32310
 C1134 C 0.29961 0.67844 0.24931
 C1135 C 0.26003 0.70620 0.18185
 C1136 C 0.32370 0.74791 0.20867
 H1137 H 0.22486 0.73225 0.20538
 H1138 H 0.30054 0.78078 0.23697
 H1139 H 0.22082 0.78208 0.28748
 H1140 H 0.27223 0.70066 0.28279
 H1141 H 0.22338 0.67622 0.26919
 H1142 H 0.23765 0.69128 0.30648
 H1143 H 0.29054 0.79865 0.19953
 H1144 H 0.26880 0.82288 0.22925
 H1145 H 0.21856 0.67257 0.21887
 H1146 H 0.16795 0.74352 0.23488
 H1147 H 0.33012 0.77230 0.26587
 H1148 H 0.30262 0.79791 0.29068
 H1149 H 0.20552 0.78367 0.20280
 H1150 H 0.23216 0.76146 0.17554
 H1151 H 0.28086 0.73313 0.32598
 H1152 H 0.30891 0.71072 0.30062
 O1153 O 0.18159 0.73490 0.75983
 O1154 O 0.18076 0.75352 0.71989
 O1155 O 0.23659 0.67538 0.75235
 O1156 O 0.27647 0.67240 0.74126
 O1157 O 0.24133 0.72579 0.81696
 O1158 O 0.25298 0.76932 0.82125
 O1159 O 0.30581 0.74683 0.69602
 O1160 O 0.28522 0.70837 0.68903
 O1161 O 0.25135 0.80339 0.69693
 O1162 O 0.21015 0.80748 0.71929
 O1163 O 0.30284 0.80015 0.75524
 O1164 O 0.30836 0.77294 0.79362
 O1165 O 0.32143 0.76380 0.73209
 O1166 O 0.32427 0.74375 0.77514
 O1167 O 0.26884 0.81902 0.73748
 O1168 O 0.22503 0.82074 0.75178
 O1169 O 0.27070 0.76991 0.67868
 O1170 O 0.24827 0.72913 0.67277
 O1171 O 0.19881 0.74877 0.79648
 O1172 O 0.22101 0.78544 0.80685
 O1173 O 0.25698 0.69198 0.79605
 O1174 O 0.29534 0.68878 0.77330
 O1175 O 0.20208 0.69528 0.73687
 O1176 O 0.19974 0.72161 0.69863
 Zr1177 Zr 0.21193 0.73356 0.73477
 O1178 O 0.23396 0.75804 0.71274
 Zr1179 Zr 0.26188 0.70489 0.75905
 O1180 O 0.28605 0.72837 0.73855
 Zr1181 Zr 0.23678 0.75397 0.78839
 O1182 O 0.25939 0.77990 0.76867
 Zr1183 Zr 0.26833 0.74059 0.70528
 O1184 O 0.24509 0.71484 0.72447
 Zr1185 Zr 0.24286 0.79004 0.73380
 O1186 O 0.21885 0.76675 0.75510
 Zr1187 Zr 0.29273 0.76178 0.75874
 O1188 O 0.27116 0.73669 0.78078
 O1189 O 0.22813 0.72141 0.76869
 O1190 O 0.27669 0.77342 0.72484
 C1191 C 0.18004 0.74204 0.78297
 C1192 C 0.21428 0.67529 0.74340
 C1193 C 0.25000 0.70298 0.81629
 C1194 C 0.32330 0.75718 0.70889
 C1195 C 0.26322 0.79299 0.67863
 C1196 C 0.29124 0.81944 0.74587
 H1197 H 0.22520 0.76260 0.69686
 H1198 H 0.26240 0.79483 0.77932
 H1199 H 0.21744 0.70984 0.77853
 H1200 H 0.30159 0.71911 0.73477
 H1201 H 0.27321 0.69437 0.69074
 H1202 H 0.28809 0.67833 0.72815
 H1203 H 0.23387 0.82376 0.76788
 H1204 H 0.21125 0.79487 0.79391
 H1205 H 0.25933 0.73110 0.65800
 H1206 H 0.18345 0.71311 0.70034
 H1207 H 0.29849 0.78743 0.79987
 H1208 H 0.26992 0.76197 0.82266
 H1209 H 0.18037 0.77023 0.72815
 H1210 H 0.20597 0.79936 0.70309
 H1211 H 0.30173 0.70049 0.78624
 H1212 H 0.32934 0.72977 0.76397
 O1213 O 0.24846 0.19281 0.20499
 O1214 O 0.28350 0.18514 0.22974
 O1215 O 0.18892 0.20006 0.25763
 O1216 O 0.18000 0.22335 0.29146
 O1217 O 0.19721 0.25403 0.19812
 O1218 O 0.22318 0.29037 0.19262
 O1219 O 0.25445 0.26481 0.32627
 O1220 O 0.23415 0.22720 0.32923
 O1221 O 0.31393 0.25442 0.27676
 O1222 O 0.31906 0.23937 0.23476
 O1223 O 0.26546 0.31734 0.26594
 O1224 O 0.22566 0.32440 0.25015
 O1225 O 0.24158 0.30054 0.30567
 O1226 O 0.20398 0.30915 0.27684
 O1227 O 0.29945 0.29601 0.25220
 O1228 O 0.30630 0.26863 0.21460
 O1229 O 0.29235 0.24081 0.31089
 O1230 O 0.26702 0.20198 0.31206
 O1231 O 0.23586 0.22853 0.18393
 O1232 O 0.25544 0.27018 0.18139
 O1233 O 0.17526 0.24100 0.23226
 O1234 O 0.17278 0.26037 0.27508
 O1235 O 0.22276 0.17779 0.24456
 O1236 O 0.26391 0.17412 0.26608
 Zr1237 Zr 0.25155 0.20458 0.24270
 O1238 O 0.27543 0.22532 0.26610
 Zr1239 Zr 0.20188 0.23715 0.26144
 O1240 O 0.22370 0.25828 0.28655
 Zr1241 Zr 0.23384 0.25671 0.21178
 O1242 O 0.25636 0.27966 0.23456
 Zr1243 Zr 0.25561 0.23784 0.29758
 O1244 O 0.23194 0.21512 0.27532
 Zr1245 Zr 0.28705 0.25854 0.24786
 O1246 O 0.26570 0.23611 0.22298
 Zr1247 Zr 0.23737 0.29010 0.26746
 O1248 O 0.21341 0.27024 0.24270
 O1249 O 0.22063 0.22468 0.22985
 O1250 O 0.26894 0.27068 0.28028
 C1251 C 0.24189 0.20492 0.18482
 C1252 C 0.19972 0.17954 0.25068
 C1253 C 0.17694 0.24732 0.20884
 C1254 C 0.24805 0.28829 0.32582
 C1255 C 0.31266 0.24680 0.29984
 C1256 C 0.28823 0.31639 0.25891
 H1257 H 0.28959 0.21433 0.27118
 H1258 H 0.26137 0.29458 0.22450
 H1259 H 0.20999 0.21432 0.21878
 H1260 H 0.21361 0.26293 0.30134
 H1261 H 0.22434 0.21231 0.32408
 H1262 H 0.18856 0.22800 0.30728
 H1263 H 0.29802 0.28379 0.20726
 H1264 H 0.27048 0.25931 0.18078
 H1265 H 0.27340 0.20432 0.32948
 H1266 H 0.26043 0.15797 0.25739
 H1267 H 0.23098 0.32377 0.23235
 H1268 H 0.21053 0.29871 0.20323
 H1269 H 0.29259 0.19710 0.21876
 H1270 H 0.31920 0.22226 0.24245
 H1271 H 0.17135 0.27510 0.26348
 H1272 H 0.19769 0.30162 0.29269
 O1273 O 0.81200 0.71643 0.23857
 O1274 O 0.81449 0.74102 0.20195
 O1275 O 0.80930 0.76744 0.29923
 O1276 O 0.78617 0.80061 0.31132
 O1277 O 0.75690 0.70718 0.29384
 O1278 O 0.71901 0.70196 0.27112
 O1279 O 0.73743 0.83663 0.23938
 O1280 O 0.77582 0.83978 0.25751
 O1281 O 0.74252 0.78868 0.17820
 O1282 O 0.75777 0.74776 0.17010
 O1283 O 0.68616 0.77538 0.23188
 O1284 O 0.68445 0.75889 0.27342
 O1285 O 0.70394 0.81549 0.25443
 O1286 O 0.69969 0.78693 0.29308
 O1287 O 0.70436 0.76292 0.19550
 O1288 O 0.73218 0.72557 0.18583
 O1289 O 0.75778 0.82239 0.19938
 O1290 O 0.79815 0.82342 0.22206
 O1291 O 0.77785 0.69452 0.25099
 O1292 O 0.73485 0.69177 0.23678
 O1293 O 0.77024 0.74100 0.31626
 O1294 O 0.75129 0.78381 0.32123
 O1295 O 0.82784 0.75633 0.26245
 O1296 O 0.82648 0.77764 0.22090
 Zr1297 Zr 0.79865 0.75378 0.23609
 O1298 O 0.77545 0.77743 0.21416
 Zr1299 Zr 0.77136 0.77093 0.28956
 O1300 O 0.74781 0.79634 0.26972
 Zr1301 Zr 0.75014 0.72193 0.25756
 O1302 O 0.72484 0.74488 0.23727
 Zr1303 Zr 0.76443 0.80830 0.23601
 O1304 O 0.78951 0.78581 0.25760
 Zr1305 Zr 0.74229 0.75903 0.20485
 O1306 O 0.76697 0.73395 0.22394
 Zr1307 Zr 0.71569 0.77732 0.25803
 O1308 O 0.73823 0.75226 0.28006
 O1309 O 0.78244 0.73987 0.26882
 O1310 O 0.73141 0.79096 0.22483
 C1311 C 0.80074 0.69584 0.24431
 C1312 C 0.82851 0.76188 0.28599
 C1313 C 0.76441 0.71752 0.31431
 C1314 C 0.71488 0.83582 0.24705
 C1315 C 0.74980 0.81175 0.17924
 C1316 C 0.68521 0.76874 0.20863
 H1317 H 0.78465 0.78297 0.19902
 H1318 H 0.71009 0.73461 0.23323
 H1319 H 0.79391 0.72871 0.27854
 H1320 H 0.74386 0.81097 0.28049
 H1321 H 0.79150 0.83473 0.26611
 H1322 H 0.78068 0.81661 0.30318
 H1323 H 0.71751 0.71846 0.19444
 H1324 H 0.74348 0.69152 0.22035
 H1325 H 0.79484 0.84097 0.21610
 H1326 H 0.84283 0.76894 0.22246
 H1327 H 0.68418 0.74163 0.26641
 H1328 H 0.71163 0.71243 0.28457
 H1329 H 0.80233 0.72951 0.19409
 H1330 H 0.77499 0.75412 0.16961
 H1331 H 0.73669 0.77268 0.32302
 H1332 H 0.70777 0.80249 0.29914
 O1333 O 0.70225 0.24731 0.81028
 O1334 O 0.72238 0.20715 0.81337
 O1335 O 0.75887 0.30140 0.80645
 O1336 O 0.79440 0.30670 0.78440
 O1337 O 0.70114 0.30339 0.75121
 O1338 O 0.69218 0.27879 0.71411
 O1339 O 0.82036 0.23518 0.73490
 O1340 O 0.82518 0.25126 0.77453
 O1341 O 0.76619 0.17714 0.74270
 O1342 O 0.72319 0.17649 0.76008
 O1343 O 0.75896 0.23114 0.68375
 O1344 O 0.74483 0.27592 0.68177
 O1345 O 0.79948 0.25062 0.70053
 O1346 O 0.77681 0.29020 0.69354
 O1347 O 0.74302 0.19647 0.70309
 O1348 O 0.70681 0.19009 0.72879
 O1349 O 0.80217 0.19536 0.75582
 O1350 O 0.80609 0.21693 0.79665
 O1351 O 0.68310 0.26442 0.77552
 O1352 O 0.67714 0.24758 0.73382
 O1353 O 0.73716 0.32079 0.76523
 O1354 O 0.77862 0.32066 0.74828
 O1355 O 0.74432 0.26609 0.82617
 O1356 O 0.76001 0.22227 0.82639
 Zr1357 Zr 0.73867 0.23980 0.79718
 O1358 O 0.75966 0.21516 0.77445
 Zr1359 Zr 0.76222 0.29039 0.76844
 O1360 O 0.78390 0.26777 0.74466
 Zr1361 Zr 0.71002 0.26475 0.74708
 O1362 O 0.72944 0.24087 0.72240
 Zr1363 Zr 0.79228 0.23315 0.76246
 O1364 O 0.77275 0.25694 0.78764
 Zr1365 Zr 0.74009 0.20724 0.74114
 O1366 O 0.71779 0.22990 0.76502
 Zr1367 Zr 0.76314 0.25785 0.71257
 O1368 O 0.74233 0.28319 0.73491
 O1369 O 0.72929 0.27394 0.77967
 O1370 O 0.77330 0.22349 0.72943
 C1371 C 0.68343 0.25753 0.79884
 C1372 C 0.75193 0.28907 0.82622
 C1373 C 0.71434 0.32230 0.75818
 C1374 C 0.81935 0.24276 0.71172
 C1375 C 0.78930 0.17628 0.74899
 C1376 C 0.75055 0.20847 0.68341
 H1377 H 0.76363 0.19963 0.78427
 H1378 H 0.71886 0.23761 0.70749
 H1379 H 0.71978 0.28549 0.79064
 H1380 H 0.79918 0.27701 0.74025
 H1381 H 0.82112 0.25996 0.79047
 H1382 H 0.80894 0.29879 0.77624
 H1383 H 0.69818 0.20228 0.71743
 H1384 H 0.67583 0.23116 0.74282
 H1385 H 0.82267 0.20941 0.79333
 H1386 H 0.75141 0.22484 0.84269
 H1387 H 0.72925 0.26670 0.67843
 H1388 H 0.70385 0.29079 0.70615
 H1389 H 0.70931 0.20146 0.80154
 H1390 H 0.73320 0.17260 0.77537
 H1391 H 0.76933 0.32248 0.73218
 H1392 H 0.79104 0.29668 0.70340
 C1393 C 0.08616 1.04137 1.16840
 C1394 C 0.09791 1.01973 1.17899
 C1395 C 0.09588 0.99656 1.16606
 C1396 C 0.08263 0.99513 1.14321
 C1397 C 0.07030 1.01684 1.13351
 C1398 C 0.07226 1.03984 1.14617
 C1399 C 0.05622 1.01521 1.11127
 C1400 C 0.05508 0.99239 1.09808
 C1401 C 0.06816 0.97112 1.10714
 C1402 C 0.08160 0.97237 1.12978
 H1403 H 0.10545 0.97980 1.17309
 H1404 H 0.06297 1.05668 1.13891
 H1405 H 0.04636 1.03174 1.10400
 H1406 H 0.09116 0.95559 1.13677
 H1407 H 0.08657 1.05940 1.17789
 H1408 H 0.06742 0.95342 1.09704
 C1409 C 0.57637 0.50699 0.67898
 C1410 C 0.60137 0.51368 0.67603
 C1411 C 0.61184 0.51421 0.65183
 C1412 C 0.59734 0.50780 0.63069
 C1413 C 0.57210 0.50137 0.63397
 C1414 C 0.56181 0.50100 0.65813
 C1415 C 0.55734 0.49571 0.61302
 C1416 C 0.56729 0.49630 0.58861
 C1417 C 0.59256 0.50195 0.58545
 C1418 C 0.60747 0.50775 0.60635
 H1419 H 0.63120 0.51921 0.64957
 H1420 H 0.54250 0.49611 0.66091
 H1421 H 0.53792 0.49118 0.61573
 H1422 H 0.62679 0.51251 0.60345
 H1423 H 0.56805 0.50662 0.69754
 H1424 H 0.60058 0.50271 0.56678
 C1425 C 0.36977 -0.01726 0.63645
 C1426 C 0.38234 -0.01289 0.65929
 C1427 C 0.40730 -0.00546 0.65885
 C1428 C 0.41985 -0.00306 0.63596
 C1429 C 0.40720 -0.00768 0.61301
 C1430 C 0.38206 -0.01448 0.61344
 C1431 C 0.42012 -0.00615 0.59015
 C1432 C 0.44565 -0.00073 0.59010
 C1433 C 0.45790 0.00413 0.61303
 C1434 C 0.44507 0.00316 0.63575
 H1435 H 0.41726 -0.00251 0.67643
 H1436 H 0.37206 -0.01813 0.59605
 H1437 H 0.41058 -0.01014 0.57256
 H1438 H 0.45500 0.00677 0.65318
 H1439 H 0.35047 -0.02291 0.63643
 H1440 H 0.47752 0.00853 0.61342
 C1441 C -0.11858 0.50039 1.15631
 C1442 C -0.10736 0.48374 1.17384
 C1443 C -0.08447 0.47251 1.16832
 C1444 C -0.07256 0.47803 1.14564
 C1445 C -0.08395 0.49445 1.12767
 C1446 C -0.10709 0.50548 1.13319
 C1447 C -0.07182 0.49969 1.10477
 C1448 C -0.04817 0.48927 1.10020
 C1449 C -0.03702 0.47341 1.11863
 C1450 C -0.04918 0.46763 1.14092
 H1451 H -0.07565 0.45998 1.18208
 H1452 H -0.11611 0.51822 1.11981
 H1453 H -0.08052 0.51205 1.09082
 H1454 H -0.04017 0.45517 1.15458
 H1455 H -0.13626 0.50928 1.16049
 H1456 H -0.01883 0.46509 1.11576
 C1457 C -0.10045 0.55312 0.33328
 C1458 C -0.11224 0.53178 0.32291
 C1459 C -0.11218 0.50902 0.33710
 C1460 C -0.10058 0.50763 0.36087
 C1461 C -0.08804 0.52895 0.37033
 C1462 C -0.08826 0.55160 0.35653
 C1463 C -0.07513 0.52716 0.39328
 C1464 C -0.07505 0.50452 0.40723
 C1465 C -0.08857 0.48377 0.39851
 C1466 C -0.10110 0.48522 0.37531
 H1467 H -0.12186 0.49256 0.33015
 H1468 H -0.07874 0.56812 0.36359
 H1469 H -0.06491 0.54328 0.40024
 H1470 H -0.11085 0.46875 0.36850
 H1471 H -0.09937 0.57079 0.32290
 H1472 H -0.08857 0.46616 0.40912
 C1473 C 0.41468 0.99672 -0.18686
 C1474 C 0.39462 1.01409 -0.18645
 C1475 C 0.38732 1.02410 -0.16303
 C1476 C 0.39999 1.01738 -0.14076
 C1477 C 0.42089 1.00109 -0.14178
 C1478 C 0.42788 0.99064 -0.16484
 C1479 C 0.43464 0.99585 -0.11977
 C1480 C 0.42717 1.00597 -0.09666
 C1481 C 0.40563 1.02101 -0.09551
 C1482 C 0.39226 1.02691 -0.11746
 H1483 H 0.37129 1.03656 -0.16190
 H1484 H 0.44376 0.97798 -0.16593
 H1485 H 0.45122 0.98409 -0.12059
 H1486 H 0.37612 1.03922 -0.11629
 H1487 H 0.42125 0.98889 -0.20441
 H1488 H 0.39979 1.02910 -0.07778
 C1489 C 0.57717 0.49576 -0.17306
 C1490 C 0.60118 0.48533 -0.17139
 C1491 C 0.61199 0.48057 -0.14759
 C1492 C 0.59871 0.48593 -0.12558
 C1493 C 0.57426 0.49579 -0.12753
 C1494 C 0.56376 0.50086 -0.15129
 C1495 C 0.56048 0.49994 -0.10572
 C1496 C 0.57074 0.49456 -0.08185
 C1497 C 0.59534 0.48569 -0.07989
 C1498 C 0.60922 0.48128 -0.10165
 H1499 H 0.63063 0.47273 -0.14630
 H1500 H 0.54507 0.50849 -0.15305
 H1501 H 0.54156 0.50704 -0.10732
 H1502 H 0.62797 0.47384 -0.09979
 H1503 H 0.56855 0.49940 -0.19128
 H1504 H 0.60349 0.48130 -0.06160
 C1505 C 0.11380 -0.03387 0.35051
 C1506 C 0.10044 -0.02649 0.32877
 C1507 C 0.07747 -0.01406 0.33123
 C1508 C 0.06761 -0.00957 0.35518
 C1509 C 0.08119 -0.01700 0.37702
 C1510 C 0.10435 -0.02898 0.37447
 C1511 C 0.07106 -0.01296 0.40097
 C1512 C 0.04717 -0.00244 0.40329
 C1513 C 0.03385 0.00491 0.38152
 C1514 C 0.04410 0.00166 0.35766
 H1515 H 0.06702 -0.00855 0.31447
 H1516 H 0.11498 -0.03487 0.39097
 H1517 H 0.08124 -0.01902 0.41773
 H1518 H 0.03343 0.00740 0.34114
 H1519 H 0.13165 -0.04330 0.34891
 H1520 H 0.01539 0.01306 0.38298
 C1521 C 0.17050 1.06800 1.01172
 C1522 C 0.16751 1.09178 1.02331
 C1523 C 0.14332 1.09973 1.02977
 C1524 C 0.12270 1.08460 1.02429
 C1525 C 0.12618 1.06054 1.01338
 C1526 C 0.15016 1.05243 1.00722
 C1527 C 0.10561 1.04504 1.00875
 C1528 C 0.08152 1.05379 1.01389
 C1529 C 0.07817 1.07817 1.02372
 C1530 C 0.09859 1.09330 1.02924
 H1531 H 0.14027 1.11823 1.03788
 H1532 H 0.15319 1.03407 0.99882
 H1533 H 0.10830 1.02635 1.00093
 H1534 H 0.09550 1.11180 1.03733
 H1535 H 0.18876 1.06076 1.00706
 H1536 H 0.05973 1.08530 1.02778
 C1537 C 0.63961 0.62340 0.51270
 C1538 C 0.66182 0.60986 0.50881
 C1539 C 0.66067 0.58421 0.50233
 C1540 C 0.63770 0.57196 0.50067
 C1541 C 0.61542 0.58562 0.50490
 C1542 C 0.61660 0.61145 0.51058
 C1543 C 0.59248 0.57305 0.50409
 C1544 C 0.59166 0.54686 0.49973
 C1545 C 0.61397 0.53362 0.49530
 C1546 C 0.63671 0.54606 0.49558
 H1547 H 0.67771 0.57352 0.49966
 H1548 H 0.59977 0.62226 0.51389
 H1549 H 0.57544 0.58342 0.50772
 H1550 H 0.65359 0.53530 0.49229
 H1551 H 0.64010 0.64324 0.51759
 H1552 H 0.61386 0.51349 0.49169
 C1553 C 0.68477 0.42617 0.00655
 C1554 C 0.68477 0.40793 -0.01286
 C1555 C 0.66178 0.40223 -0.02447
 C1556 C 0.63966 0.41402 -0.01671
 C1557 C 0.64021 0.43197 0.00286
 C1558 C 0.66285 0.43792 0.01429
 C1559 C 0.61817 0.44413 0.01027
 C1560 C 0.59557 0.43851 -0.00166
 C1561 C 0.59525 0.42089 -0.02125
 C1562 C 0.61700 0.40845 -0.02851
 H1563 H 0.66064 0.38791 -0.03888
 H1564 H 0.66368 0.45193 0.02906
 H1565 H 0.61864 0.45837 0.02486
 H1566 H 0.61621 0.39513 -0.04390
 H1567 H 0.70183 0.43235 0.01535
 H1568 H 0.57850 0.41795 -0.03202
 C1569 C 0.17954 -0.06278 0.48104
 C1570 C 0.17846 -0.08891 0.47695
 C1571 C 0.15540 -0.10106 0.47637
 C1572 C 0.13345 -0.08715 0.48006
 C1573 C 0.13461 -0.06070 0.48363
 C1574 C 0.15775 -0.04870 0.48412
 C1575 C 0.11266 -0.04671 0.48681
 C1576 C 0.08952 -0.05885 0.48717
 C1577 C 0.08863 -0.08523 0.48429
 C1578 C 0.11036 -0.09923 0.48044
 H1579 H 0.15466 -0.12130 0.47337
 H1580 H 0.15898 -0.02848 0.48697
 H1581 H 0.11363 -0.02642 0.48939
 H1582 H 0.10913 -0.11950 0.47794
 H1583 H 0.19728 -0.05324 0.48146
 H1584 H 0.07108 -0.09504 0.48476
 C1585 C 0.32667 -0.07316 0.49855
 C1586 C 0.32671 -0.09470 0.51454
 C1587 C 0.34971 -0.10344 0.52445
 C1588 C 0.37201 -0.09128 0.51799
 C1589 C 0.37128 -0.06939 0.50248
 C1590 C 0.34858 -0.06054 0.49289
 C1591 C 0.39324 -0.05644 0.49704
 C1592 C 0.41617 -0.06543 0.50625
 C1593 C 0.41702 -0.08784 0.52068
 C1594 C 0.39507 -0.10056 0.52672
 H1595 H 0.35049 -0.12028 0.53624
 H1596 H 0.34771 -0.04374 0.48103
 H1597 H 0.39252 -0.03918 0.48582
 H1598 H 0.39611 -0.11744 0.53845
 H1599 H 0.30950 -0.06511 0.49122
 H1600 H 0.43454 -0.09488 0.52819
 C1601 C -0.17068 0.43234 1.02176
 C1602 C -0.16872 0.40599 1.02454
 C1603 C -0.14530 0.39420 1.02330
 C1604 C -0.12395 0.40868 1.01891
 C1605 C -0.12609 0.43527 1.01636
 C1606 C -0.14951 0.44691 1.01793
 C1607 C -0.10480 0.44982 1.01233
 C1608 C -0.08127 0.43823 1.01057
 C1609 C -0.07939 0.41173 1.01258
 C1610 C -0.10053 0.39710 1.01681
 H1611 H -0.14386 0.37379 1.02512
 H1612 H -0.15148 0.46725 1.01595
 H1613 H -0.10657 0.47021 1.01072
 H1614 H -0.09854 0.37675 1.01861
 H1615 H -0.18868 0.44161 1.02255
 H1616 H -0.06148 0.40233 1.01153
 C1617 C -0.18953 0.57263 0.48962
 C1618 C -0.18727 0.59654 0.47776
 C1619 C -0.16316 0.60505 0.47178
 C1620 C -0.14206 0.59027 0.47758
 C1621 C -0.14482 0.56610 0.48872
 C1622 C -0.16863 0.55750 0.49469
 C1623 C -0.12372 0.55096 0.49370
 C1624 C -0.09983 0.56008 0.48840
 C1625 C -0.09727 0.58451 0.47811
 C1626 C -0.11819 0.59937 0.47253
 H1627 H -0.16053 0.62372 0.46368
 H1628 H -0.17111 0.53902 0.50329
 H1629 H -0.12584 0.53220 0.50179
 H1630 H -0.11569 0.61795 0.46415
 H1631 H -0.20757 0.56492 0.49405
 H1632 H -0.07905 0.59183 0.47365
 C1633 C 0.31205 1.07189 0.00028
 C1634 C 0.31271 1.09556 -0.01227
 C1635 C 0.33591 1.10473 -0.02041
 C1636 C 0.35780 1.09078 -0.01593
 C1637 C 0.35658 1.06679 -0.00407
 C1638 C 0.33366 1.05756 0.00400
 C1639 C 0.37828 1.05232 -0.00064
 C1640 C 0.40133 1.06188 -0.00821
 C1641 C 0.40257 1.08618 -0.01901
 C1642 C 0.38093 1.10045 -0.02306
 H1643 H 0.33723 1.12323 -0.02925
 H1644 H 0.33241 1.03920 0.01315
 H1645 H 0.37728 1.03361 0.00785
 H1646 H 0.38227 1.11890 -0.03199
 H1647 H 0.29466 1.06372 0.00627
 H1648 H 0.42019 1.09374 -0.02519
 C1649 C 0.04404 1.15019 1.10020
 C1650 C 0.02233 1.16319 1.10782
 C1651 C -0.00086 1.15133 1.10400
 C1652 C -0.00228 1.12744 1.09274
 C1653 C 0.01967 1.11526 1.08462
 C1654 C 0.04268 1.12668 1.08860
 C1655 C 0.01822 1.09203 1.07227
 C1656 C -0.00484 1.08062 1.06820
 C1657 C -0.02654 1.09215 1.07714
 C1658 C -0.02529 1.11553 1.08926
 H1659 H -0.01784 1.16019 1.11046
 H1660 H 0.05966 1.11757 1.08241
 H1661 H 0.03498 1.08283 1.06562
 H1662 H -0.04232 1.12446 1.09555
 H1663 H 0.06221 1.15864 1.10189
 H1664 H -0.04445 1.08346 1.07402
 C1665 C 0.51334 0.67211 0.57053
 C1666 C 0.52060 0.66999 0.59598
 C1667 C 0.52375 0.64585 0.60692
 C1668 C 0.51966 0.62404 0.59259
 C1669 C 0.51278 0.62640 0.56687
 C1670 C 0.50961 0.65052 0.55606
 C1671 C 0.50916 0.60463 0.55241
 C1672 C 0.51185 0.58045 0.56340
 C1673 C 0.51829 0.57832 0.58909
 C1674 C 0.52232 0.59991 0.60352
 H1675 H 0.52912 0.64409 0.62661
 H1676 H 0.50427 0.65268 0.53640
 H1677 H 0.50401 0.60651 0.53266
 H1678 H 0.52752 0.59774 0.62321
 H1679 H 0.51099 0.69056 0.56173
 H1680 H 0.52063 0.55990 0.59796
 C1681 C -0.01236 0.68130 0.43012
 C1682 C -0.02033 0.68109 0.40487
 C1683 C -0.02560 0.65800 0.39320
 C1684 C -0.02279 0.63518 0.40668
 C1685 C -0.01526 0.63563 0.43229
 C1686 C -0.01004 0.65875 0.44381
 C1687 C -0.01305 0.61296 0.44599
 C1688 C -0.01771 0.58969 0.43437
 C1689 C -0.02451 0.58931 0.40874
 C1690 C -0.02728 0.61191 0.39505
 H1691 H -0.03157 0.65785 0.37362
 H1692 H -0.00414 0.65940 0.46338
 H1693 H -0.00747 0.61342 0.46568
 H1694 H -0.03292 0.61119 0.37541
 H1695 H -0.00832 0.69902 0.43933
 H1696 H -0.02813 0.57158 0.39941
 C1697 C 0.49247 1.18167 -0.07778
 C1698 C 0.47924 1.18116 -0.10089
 C1699 C 0.47030 1.15766 -0.10940
 C1700 C 0.47493 1.13534 -0.09555
 C1701 C 0.48769 1.13639 -0.07219
 C1702 C 0.49631 1.15965 -0.06348
 C1703 C 0.49170 1.11415 -0.05800
 C1704 C 0.48392 1.09073 -0.06734
 C1705 C 0.47195 1.08975 -0.09095
 C1706 C 0.46725 1.11189 -0.10481
 H1707 H 0.46085 1.15639 -0.12746
 H1708 H 0.50611 1.16083 -0.04561
 H1709 H 0.50107 1.11499 -0.03985
 H1710 H 0.45759 1.11066 -0.12276
 H1711 H 0.49905 1.19928 -0.07004
 H1712 H 0.46557 1.07188 -0.09835
 C1713 C 0.49763 0.34548 -0.11623
 C1714 C 0.51833 0.33075 -0.10847
 C1715 C 0.53364 0.33991 -0.08908
 C1716 C 0.52808 0.36271 -0.07715
 C1717 C 0.50825 0.37818 -0.08598
 C1718 C 0.49316 0.36936 -0.10570
 C1719 C 0.50351 0.40163 -0.07429
 C1720 C 0.51713 0.40843 -0.05264
 C1721 C 0.53530 0.39160 -0.04304
 C1722 C 0.54144 0.36959 -0.05568
 H1723 H 0.54894 0.32839 -0.08191
 H1724 H 0.47758 0.38062 -0.11254
 H1725 H 0.48873 0.41393 -0.08125
 H1726 H 0.55609 0.35748 -0.04810
 H1727 H 0.48546 0.33902 -0.13116
 H1728 H 0.54490 0.39544 -0.02553
 C1729 C 0.04758 -0.16728 0.42164
 C1730 C 0.03081 -0.17276 0.40207
 C1731 C 0.01160 -0.15542 0.39616
 C1732 C 0.00911 -0.13289 0.40985
 C1733 C 0.02576 -0.12800 0.42991
 C1734 C 0.04502 -0.14516 0.43552
 C1735 C 0.02284 -0.10610 0.44422
 C1736 C 0.00379 -0.08856 0.43865
 C1737 C -0.01225 -0.09308 0.41819
 C1738 C -0.00975 -0.11521 0.40403
 H1739 H -0.00129 -0.15947 0.38094
 H1740 H 0.05800 -0.14157 0.45078
 H1741 H 0.03553 -0.10265 0.45971
 H1742 H -0.02260 -0.11854 0.38861
 H1743 H 0.06234 -0.18049 0.42662
 H1744 H -0.02702 -0.07977 0.41351
 C1745 C 0.46855 -0.17585 0.57564
 C1746 C 0.48212 -0.17881 0.59816
 C1747 C 0.49801 -0.15943 0.60618
 C1748 C 0.50000 -0.13701 0.59178
 C1749 C 0.48645 -0.13448 0.56894
 C1750 C 0.47083 -0.15397 0.56104
 C1751 C 0.48851 -0.11243 0.55436
 C1752 C 0.50350 -0.09231 0.56234
 C1753 C 0.51657 -0.09466 0.58530
 C1754 C 0.51503 -0.11694 0.59980
 H1755 H 0.50834 -0.16167 0.62369
 H1756 H 0.46022 -0.15222 0.54364
 H1757 H 0.47804 -0.11082 0.53687
 H1758 H 0.52545 -0.11842 0.61732
 H1759 H 0.45626 -0.19067 0.56929
 H1760 H 0.52819 -0.07940 0.59188
 C1761 C 0.00238 0.31459 1.07197
 C1762 C -0.01407 0.31551 1.09262
 C1763 C -0.02236 0.33943 1.10085
 C1764 C -0.01405 0.36174 1.08911
 C1765 C 0.00170 0.36031 1.06792
 C1766 C 0.00979 0.33666 1.05955
 C1767 C 0.00890 0.38257 1.05534
 C1768 C 0.00136 0.40628 1.06432
 C1769 C -0.01334 0.40757 1.08606
 C1770 C -0.02120 0.38550 1.09822
 H1771 H -0.03431 0.34087 1.11716
 H1772 H 0.02190 0.33518 1.04337
 H1773 H 0.02018 0.38150 1.03850
 H1774 H -0.03311 0.38703 1.11454
 H1775 H 0.00875 0.29669 1.06454
 H1776 H -0.01978 0.42566 1.09291
 C1777 C 0.76410 0.32461 0.07170
 C1778 C 0.77734 0.34750 0.07342
 C1779 C 0.78454 0.35595 0.09759
 C1780 C 0.77787 0.34234 0.11941
 C1781 C 0.76502 0.31926 0.11710
 C1782 C 0.75836 0.31053 0.09320
 C1783 C 0.75908 0.30519 0.13873
 C1784 C 0.76512 0.31419 0.16280
 C1785 C 0.77699 0.33762 0.16510
 C1786 C 0.78355 0.35149 0.14355
 H1787 H 0.79408 0.37380 0.09964
 H1788 H 0.74856 0.29284 0.09112
 H1789 H 0.74981 0.28715 0.13687
 H1790 H 0.79320 0.36925 0.14576
 H1791 H 0.75885 0.31696 0.05357
 H1792 H 0.78205 0.34471 0.18354
 C1793 C 0.24882 0.86782 0.58848
 C1794 C 0.27101 0.86177 0.57591
 C1795 C 0.28788 0.84480 0.58745
 C1796 C 0.28230 0.83332 0.61073
 C1797 C 0.25979 0.83926 0.62311
 C1798 C 0.24334 0.85683 0.61192
 C1799 C 0.25385 0.82697 0.64600
 C1800 C 0.26983 0.80824 0.65611
 C1801 C 0.29232 0.80290 0.64377
 C1802 C 0.29858 0.81542 0.62147
 H1803 H 0.30492 0.83979 0.57784
 H1804 H 0.22603 0.86170 0.62104
 H1805 H 0.23645 0.83115 0.65532
 H1806 H 0.31593 0.81068 0.61233
 H1807 H 0.23565 0.88107 0.58011
 H1808 H 0.30510 0.78879 0.65137
 C1809 C 0.70150 0.67994 0.57051
 C1810 C 0.71803 0.66046 0.56393
 C1811 C 0.73878 0.65522 0.57942
 C1812 C 0.74289 0.66919 0.60138
 C1813 C 0.72630 0.68897 0.60767
 C1814 C 0.70568 0.69420 0.59213
 C1815 C 0.73033 0.70290 0.62964
 C1816 C 0.75034 0.69691 0.64584
 C1817 C 0.76666 0.67712 0.63955
 C1818 C 0.76311 0.66353 0.61734
 H1819 H 0.75144 0.64000 0.57456
 H1820 H 0.69273 0.70924 0.59675
 H1821 H 0.71735 0.71782 0.63458
 H1822 H 0.77595 0.64837 0.61284
 H1823 H 0.68553 0.68436 0.55868
 H1824 H 0.78213 0.67214 0.65184
 C1825 C 0.19497 0.17002 0.08424
 C1826 C 0.21296 0.15167 0.07839
 C1827 C 0.23322 0.14764 0.09483
 C1828 C 0.23554 0.16180 0.11696
 C1829 C 0.21770 0.18072 0.12240
 C1830 C 0.19744 0.18462 0.10597
 C1831 C 0.22031 0.19521 0.14429
 C1832 C 0.24004 0.19047 0.16124
 C1833 C 0.25733 0.17125 0.15598
 C1834 C 0.25529 0.15724 0.13385
 H1835 H 0.24698 0.13326 0.09049
 H1836 H 0.18349 0.19891 0.10996
 H1837 H 0.20664 0.20971 0.14852
 H1838 H 0.26902 0.14269 0.13005
 H1839 H 0.17928 0.17336 0.07172
 H1840 H 0.27258 0.16728 0.16890
 C1841 C 0.25685 0.18052 0.93673
 C1842 C 0.26196 0.15457 0.93476
 C1843 C 0.26280 0.14336 0.91085
 C1844 C 0.25836 0.15801 0.88901
 C1845 C 0.25364 0.18425 0.89119
 C1846 C 0.25293 0.19531 0.91511
 C1847 C 0.24980 0.19904 0.86943
 C1848 C 0.25031 0.18803 0.84538
 C1849 C 0.25432 0.16183 0.84340
 C1850 C 0.25846 0.14696 0.86504
 H1851 H 0.26643 0.12323 0.90935
 H1852 H 0.24925 0.21537 0.91709
 H1853 H 0.24651 0.21920 0.87124
 H1854 H 0.26191 0.12686 0.86301
 H1855 H 0.25607 0.18936 0.95507
 H1856 H 0.25495 0.15294 0.82509
 C1857 C 0.76481 0.68732 0.42755
 C1858 C 0.76992 0.66146 0.42431
 C1859 C 0.77384 0.65214 0.39996
 C1860 C 0.77207 0.66837 0.37892
 C1861 C 0.76703 0.69443 0.38232
 C1862 C 0.76362 0.70373 0.40675
 C1863 C 0.76504 0.71061 0.36121
 C1864 C 0.76729 0.70091 0.33673
 C1865 C 0.77219 0.67496 0.33362
 C1866 C 0.77477 0.65888 0.35451
 H1867 H 0.77750 0.63213 0.39739
 H1868 H 0.75967 0.72361 0.40973
 H1869 H 0.76111 0.73057 0.36378
 H1870 H 0.77860 0.63898 0.35156
 H1871 H 0.76180 0.69479 0.44625
 H1872 H 0.77425 0.66709 0.31494
 C1873 C 0.22806 0.87499 0.39780
 C1874 C 0.23346 0.86139 0.42012
 C1875 C 0.24310 0.83670 0.41849
 C1876 C 0.24673 0.82548 0.39490
 C1877 C 0.24119 0.83927 0.37253
 C1878 C 0.23204 0.86410 0.37421
 C1879 C 0.24427 0.82776 0.34893
 C1880 C 0.25208 0.80238 0.34752
 C1881 C 0.25768 0.78896 0.36989
 C1882 C 0.25526 0.80046 0.39334
 H1883 H 0.24706 0.82598 0.43561
 H1884 H 0.22766 0.87497 0.35731
 H1885 H 0.23961 0.83815 0.33179
 H1886 H 0.25958 0.78960 0.41027
 H1887 H 0.22085 0.89414 0.39863
 H1888 H 0.26381 0.76941 0.36923
 C1889 C 0.72993 0.37533 0.90145
 C1890 C 0.73575 0.36166 0.92359
 C1891 C 0.74453 0.33666 0.92173
 C1892 C 0.74733 0.32532 0.89811
 C1893 C 0.74173 0.33926 0.87586
 C1894 C 0.73307 0.36429 0.87775
 C1895 C 0.74435 0.32772 0.85221
 C1896 C 0.75171 0.30219 0.85067
 C1897 C 0.75713 0.28856 0.87293
 C1898 C 0.75524 0.30009 0.89642
 H1899 H 0.74872 0.32587 0.93875
 H1900 H 0.72857 0.37525 0.86094
 H1901 H 0.73974 0.33822 0.83512
 H1902 H 0.75954 0.28912 0.91329
 H1903 H 0.72325 0.39467 0.90249
 H1904 H 0.76278 0.26887 0.87213
 C1905 C 0.87473 0.40138 0.23073
 C1906 C 0.85998 0.42239 0.23715
 C1907 C 0.83688 0.41852 0.24855
 C1908 C 0.82796 0.39404 0.25235
 C1909 C 0.84257 0.37293 0.24530
 C1910 C 0.86618 0.37680 0.23497
 C1911 C 0.83280 0.34847 0.24755
 C1912 C 0.80830 0.34515 0.25576
 C1913 C 0.79428 0.36621 0.26343
 C1914 C 0.80412 0.39043 0.26200
 H1915 H 0.82521 0.43462 0.25318
 H1916 H 0.87766 0.36089 0.22945
 H1917 H 0.84362 0.33230 0.24154
 H1918 H 0.79273 0.40640 0.26756
 H1919 H 0.89272 0.40400 0.22210
 H1920 H 0.77542 0.36395 0.27004
 C1921 C 0.31428 0.92454 0.70060
 C1922 C 0.33441 0.93045 0.71638
 C1923 C 0.34182 0.91331 0.73548
 C1924 C 0.32943 0.89019 0.73847
 C1925 C 0.30905 0.88457 0.72258
 C1926 C 0.30157 0.90188 0.70379
 C1927 C 0.29661 0.86161 0.72548
 C1928 C 0.30444 0.84377 0.74376
 C1929 C 0.32495 0.84926 0.75924
 C1930 C 0.33723 0.87240 0.75677
 H1931 H 0.35756 0.91771 0.74750
 H1932 H 0.28604 0.89778 0.69141
 H1933 H 0.28109 0.85743 0.71309
 H1934 H 0.35290 0.87631 0.76902
 H1935 H 0.30833 0.93759 0.68584
 H1936 H 0.33134 0.83576 0.77340
 C1937 C 0.12799 0.89201 0.27898
 C1938 C 0.13918 0.91402 0.26916
 C1939 C 0.16146 0.91151 0.25554
 C1940 C 0.17309 0.88787 0.25322
 C1941 C 0.16153 0.86601 0.26301
 C1942 C 0.13877 0.86822 0.27544
 C1943 C 0.17349 0.84246 0.26123
 C1944 C 0.19761 0.84085 0.25154
 C1945 C 0.20905 0.86265 0.24197
 C1946 C 0.19667 0.88592 0.24231
 H1947 H 0.17094 0.92813 0.24852
 H1948 H 0.12969 0.85165 0.28312
 H1949 H 0.16457 0.82567 0.26850
 H1950 H 0.20588 0.90251 0.23486
 H1951 H 0.11053 0.89304 0.28896
 H1952 H 0.22763 0.86165 0.23429
 C1953 C 0.63192 0.40102 0.77948
 C1954 C 0.64652 0.42261 0.77585
 C1955 C 0.67133 0.41997 0.76840
 C1956 C 0.68166 0.39593 0.76482
 C1957 C 0.66678 0.37420 0.76806
 C1958 C 0.64191 0.37695 0.77536
 C1959 C 0.67722 0.35013 0.76450
 C1960 C 0.70258 0.34750 0.75900
 C1961 C 0.71717 0.36922 0.75586
 C1962 C 0.70672 0.39325 0.75843
 H1963 H 0.68266 0.43666 0.76583
 H1964 H 0.63030 0.36051 0.77811
 H1965 H 0.66584 0.33350 0.76688
 H1966 H 0.71836 0.40970 0.75592
 H1967 H 0.61269 0.40286 0.78512
 H1968 H 0.73674 0.36759 0.75148
 C1969 C 0.64016 0.59112 0.74654
 C1970 C 0.64961 0.57473 0.72821
 C1971 C 0.67073 0.58154 0.71451
 C1972 C 0.68277 0.60439 0.71952
 C1973 C 0.67311 0.62094 0.73792
 C1974 C 0.65167 0.61421 0.75119
 C1975 C 0.68517 0.64380 0.74290
 C1976 C 0.70706 0.65013 0.73008
 C1977 C 0.71664 0.63336 0.71206
 C1978 C 0.70453 0.61078 0.70672
 H1979 H 0.67817 0.56868 0.70060
 H1980 H 0.64404 0.62660 0.76539
 H1981 H 0.67762 0.65653 0.75687
 H1982 H 0.71223 0.59830 0.69262
 H1983 H 0.62391 0.58594 0.75731
 H1984 H 0.73332 0.63790 0.70169
 C1985 C 0.17718 0.06535 0.24334
 C1986 C 0.15188 0.06783 0.23711
 C1987 C 0.14091 0.09196 0.23580
 C1988 C 0.15514 0.11352 0.24050
 C1989 C 0.18079 0.11092 0.24609
 C1990 C 0.19159 0.08674 0.24763
 C1991 C 0.19524 0.13253 0.24978
 C1992 C 0.18431 0.15672 0.24839
 C1993 C 0.15867 0.15907 0.24358
 C1994 C 0.14423 0.13765 0.23951
 H1995 H 0.12131 0.09387 0.23123
 H1996 H 0.21117 0.08439 0.25200
 H1997 H 0.21497 0.13054 0.25367
 H1998 H 0.12460 0.13998 0.23536
 H1999 H 0.18590 0.04682 0.24433
 H2000 H 0.14988 0.17754 0.24224
 C2001 C 0.36701 0.10164 0.77046
 C2002 C 0.35302 0.08099 0.76193
 C2003 C 0.32954 0.08546 0.75103
 C2004 C 0.31980 0.11005 0.74927
 C2005 C 0.33380 0.13072 0.75820
 C2006 C 0.35753 0.12631 0.76850
 C2007 C 0.32341 0.15523 0.75747
 C2008 C 0.29897 0.15898 0.74867
 C2009 C 0.28553 0.13835 0.73935
 C2010 C 0.29591 0.11415 0.73944
 H2011 H 0.31845 0.06966 0.74472
 H2012 H 0.36857 0.14186 0.77542
 H2013 H 0.33375 0.17104 0.76495
 H2014 H 0.28498 0.09853 0.73247
 H2015 H 0.38530 0.09867 0.77865
 H2016 H 0.26670 0.14091 0.73238
 C2017 C 0.81649 0.58055 0.25062
 C2018 C 0.84152 0.58108 0.25815
 C2019 C 0.85414 0.60416 0.25894
 C2020 C 0.84161 0.62676 0.25302
 C2021 C 0.81609 0.62620 0.24651
 C2022 C 0.80380 0.60300 0.24495
 C2023 C 0.80309 0.64890 0.24249
 C2024 C 0.81525 0.67216 0.24482
 C2025 C 0.84087 0.67252 0.25000
 C2026 C 0.85396 0.64996 0.25417
 H2027 H 0.87356 0.60447 0.26451
 H2028 H 0.78429 0.60226 0.23984
 H2029 H 0.78336 0.64848 0.23825
 H2030 H 0.87355 0.65069 0.25896
 H2031 H 0.80659 0.56280 0.24995
 H2032 H 0.85056 0.69029 0.25197
 C2033 C 0.90606 0.24504 0.12867
 C2034 C 0.92162 0.26462 0.13675
 C2035 C 0.91385 0.28043 0.15631
 C2036 C 0.89110 0.27618 0.16837
 C2037 C 0.87546 0.25643 0.16018
 C2038 C 0.88300 0.24118 0.14006
 C2039 C 0.85295 0.25184 0.17272
 C2040 C 0.84640 0.26616 0.19391
 C2041 C 0.86217 0.28567 0.20184
 C2042 C 0.88413 0.29084 0.18903
 H2043 H 0.92601 0.29531 0.16282
 H2044 H 0.87137 0.22590 0.13356
 H2045 H 0.84102 0.23663 0.16658
 H2046 H 0.89590 0.30598 0.19563
 H2047 H 0.91188 0.23264 0.11364
 H2048 H 0.85749 0.29700 0.21803
 C2049 C 0.41343 0.74100 0.63823
 C2050 C 0.42643 0.76285 0.64510
 C2051 C 0.41598 0.77937 0.66275
 C2052 C 0.39296 0.77400 0.67373
 C2053 C 0.37979 0.75212 0.66652
 C2054 C 0.39018 0.73579 0.64866
 C2055 C 0.35668 0.74683 0.67758
 C2056 C 0.34708 0.76271 0.69633
 C2057 C 0.36047 0.78428 0.70341
 C2058 C 0.38306 0.79000 0.69207
 H2059 H 0.42607 0.79611 0.66833
 H2060 H 0.38045 0.71890 0.64295
 H2061 H 0.34652 0.73010 0.67211
 H2062 H 0.39291 0.80681 0.69783
 H2063 H 0.42118 0.72810 0.62455
 H2064 H 0.35328 0.79693 0.71763
 C2065 C 0.42719 0.23997 0.81584
 C2066 C 0.42658 0.23381 0.84164
 C2067 C 0.40361 0.23188 0.85387
 C2068 C 0.38138 0.23615 0.84047
 C2069 C 0.38211 0.24187 0.81437
 C2070 C 0.40511 0.24376 0.80224
 C2071 C 0.35985 0.24557 0.80085
 C2072 C 0.33683 0.24410 0.81316
 C2073 C 0.33637 0.23897 0.83923
 C2074 C 0.35843 0.23487 0.85273
 H2075 H 0.40311 0.22744 0.87387
 H2076 H 0.40603 0.24823 0.78228
 H2077 H 0.36045 0.24969 0.78079
 H2078 H 0.35754 0.23061 0.87274
 H2079 H 0.44478 0.24153 0.80617
 H2080 H 0.31888 0.23756 0.84911
 C2081 C 0.90417 0.73930 0.37174
 C2082 C 0.92581 0.74233 0.35736
 C2083 C 0.92378 0.75064 0.33221
 C2084 C 0.90033 0.75494 0.32119
 C2085 C 0.87862 0.75159 0.33572
 C2086 C 0.88078 0.74411 0.36109
 C2087 C 0.85513 0.75499 0.32443
 C2088 C 0.85307 0.76092 0.29860
 C2089 C 0.87479 0.76444 0.28442
 C2090 C 0.89819 0.76172 0.29566
 H2091 H 0.94040 0.75273 0.32096
 H2092 H 0.86437 0.74143 0.37252
 H2093 H 0.83851 0.75197 0.33547
 H2094 H 0.91461 0.76434 0.28424
 H2095 H 0.90541 0.73306 0.39124
 H2096 H 0.87366 0.76914 0.26452
 C2097 C 0.09162 0.73726 0.35996
 C2098 C 0.08338 0.76258 0.35817
 C2099 C 0.09843 0.78031 0.34578
 C2100 C 0.12108 0.77298 0.33512
 C2101 C 0.12907 0.74742 0.33658
 C2102 C 0.11423 0.72976 0.34926
 C2103 C 0.15142 0.74005 0.32484
 C2104 C 0.16535 0.75804 0.31150
 C2105 C 0.15756 0.78340 0.31100
 C2106 C 0.13566 0.79086 0.32263
 H2107 H 0.09223 0.79978 0.34377
 H2108 H 0.12000 0.71012 0.35073
 H2109 H 0.15744 0.72043 0.32529
 H2110 H 0.12996 0.81055 0.32155
 H2111 H 0.08064 0.72324 0.36974
 H2112 H 0.16855 0.79749 0.30135
 C2113 C 0.58957 0.24382 0.86495
 C2114 C 0.57928 0.26793 0.85997
 C2115 C 0.59302 0.28539 0.84580
 C2116 C 0.61622 0.27875 0.83600
 C2117 C 0.62630 0.25430 0.84058
 C2118 C 0.61294 0.23710 0.85545
 C2119 C 0.64909 0.24736 0.82947
 C2120 C 0.66121 0.26447 0.81337
 C2121 C 0.65125 0.28885 0.80967
 C2122 C 0.62908 0.29600 0.82094
 H2123 H 0.58515 0.30387 0.84140
 H2124 H 0.62029 0.21831 0.85928
 H2125 H 0.65671 0.22851 0.83236
 H2126 H 0.62170 0.31484 0.81737
 H2127 H 0.57946 0.23008 0.87605
 H2128 H 0.66065 0.30237 0.79773
 C2129 C 0.58169 0.70138 0.67110
 C2130 C 0.57564 0.71984 0.65281
 C2131 C 0.59219 0.73973 0.64819
 C2132 C 0.61486 0.74091 0.66143
 C2133 C 0.62066 0.72237 0.68002
 C2134 C 0.60390 0.70276 0.68477
 C2135 C 0.64326 0.72357 0.69331
 C2136 C 0.66049 0.74268 0.68786
 C2137 C 0.65469 0.76079 0.66910
 C2138 C 0.63199 0.76006 0.65616
 H2139 H 0.58770 0.75384 0.63387
 H2140 H 0.60809 0.68834 0.69886
 H2141 H 0.64766 0.70931 0.70752
 H2142 H 0.62792 0.77434 0.64191
 H2143 H 0.56909 0.68594 0.67488
 H2144 H 0.66764 0.77573 0.66461
 C2145 C 0.06580 0.22939 0.18469
 C2146 C 0.06855 0.22556 0.15871
 C2147 C 0.09197 0.22817 0.14762
 C2148 C 0.11267 0.23443 0.16246
 C2149 C 0.10994 0.23757 0.18878
 C2150 C 0.08640 0.23516 0.19968
 C2151 C 0.13086 0.24266 0.20379
 C2152 C 0.15446 0.24494 0.19283
 C2153 C 0.15675 0.24274 0.16651
 C2154 C 0.13608 0.23738 0.15148
 H2155 H 0.09397 0.22541 0.12748
 H2156 H 0.08394 0.23762 0.21978
 H2157 H 0.12880 0.24444 0.22403
 H2158 H 0.13847 0.23519 0.13134
 H2159 H 0.04775 0.22750 0.19338
 H2160 H 0.17470 0.24431 0.15756
 C2161 C -0.07351 0.99831 0.82421
 C2162 C -0.09594 1.01233 0.82560
 C2163 C -0.10508 1.01845 0.84969
 C2164 C -0.09258 1.01018 0.87164
 C2165 C -0.07001 0.99650 0.86981
 C2166 C -0.06062 0.99076 0.84599
 C2167 C -0.05707 0.98905 0.89181
 C2168 C -0.06661 0.99480 0.91573
 C2169 C -0.08965 1.00753 0.91724
 C2170 C -0.10240 1.01525 0.89546
 H2171 H -0.12260 1.02846 0.85153
 H2172 H -0.04329 0.98039 0.84417
 H2173 H -0.03941 0.97920 0.89027
 H2174 H -0.11982 1.02548 0.89728
 H2175 H -0.06527 0.99383 0.80621
 H2176 H -0.09753 1.01236 0.93532
 C2177 C 0.42768 0.50753 0.32395
 C2178 C 0.40237 0.51376 0.32614
 C2179 C 0.39153 0.51462 0.35013
 C2180 C 0.40574 0.50850 0.37173
 C2181 C 0.43113 0.50193 0.36924
 C2182 C 0.44197 0.50178 0.34530
 C2183 C 0.44534 0.49565 0.39069
 C2184 C 0.43465 0.49598 0.41482
 C2185 C 0.40933 0.50238 0.41709
 C2186 C 0.39500 0.50852 0.39575
 H2187 H 0.37193 0.51915 0.35186
 H2188 H 0.46141 0.49688 0.34305
 H2189 H 0.46486 0.49100 0.38858
 H2190 H 0.37557 0.51342 0.39805
 H2191 H 0.43632 0.50681 0.30557
 H2192 H 0.40058 0.50289 0.43542
 C2193 C 0.57264 0.01088 0.31570
 C2194 C 0.59362 -0.00537 0.31551
 C2195 C 0.60214 -0.01549 0.33879
 C2196 C 0.58971 -0.01028 0.36133
 C2197 C 0.56807 0.00498 0.36095
 C2198 C 0.55990 0.01574 0.33808
 C2199 C 0.55482 0.00890 0.38337
 C2200 C 0.56326 -0.00196 0.40625
 C2201 C 0.58547 -0.01616 0.40649
 C2202 C 0.59848 -0.02039 0.38425
 H2203 H 0.61891 -0.02693 0.33967
 H2204 H 0.54340 0.02761 0.33742
 H2205 H 0.53787 0.02011 0.38296
 H2206 H 0.61519 -0.03196 0.38492
 H2207 H 0.56503 0.01880 0.29838
 H2208 H 0.59240 -0.02479 0.42379
 C2209 C 0.06850 0.49577 0.82319
 C2210 C 0.09404 0.49010 0.82450
 C2211 C 0.10615 0.49012 0.84805
 C2212 C 0.09291 0.49578 0.87006
 C2213 C 0.06714 0.50112 0.86860
 C2214 C 0.05513 0.50110 0.84505
 C2215 C 0.05374 0.50592 0.89075
 C2216 C 0.06572 0.50528 0.91443
 C2217 C 0.09155 0.50075 0.91546
 C2218 C 0.10498 0.49606 0.89353
 H2219 H 0.12592 0.48611 0.84914
 H2220 H 0.03541 0.50515 0.84352
 H2221 H 0.03387 0.50929 0.88957
 H2222 H 0.12474 0.49221 0.89500
 H2223 H 0.05884 0.49585 0.80520
 H2224 H 0.10138 0.50019 0.93336
 C2225 C 0.06195 0.51038 0.67568
 C2226 C 0.08635 0.51919 0.67272
 C2227 C 0.09641 0.52093 0.64842
 C2228 C 0.08227 0.51398 0.62727
 C2229 C 0.05761 0.50550 0.63038
 C2230 C 0.04766 0.50371 0.65470
 C2231 C 0.04321 0.49933 0.60911
 C2232 C 0.05313 0.50158 0.58470
 C2233 C 0.07797 0.50936 0.58201
 C2234 C 0.09235 0.51551 0.60305
 H2235 H 0.11533 0.52739 0.64604
 H2236 H 0.02881 0.49724 0.65749
 H2237 H 0.02414 0.49340 0.61157
 H2238 H 0.11127 0.52180 0.60032
 H2239 H 0.05385 0.50895 0.69429
 H2240 H 0.08623 0.51127 0.56353
 C2241 C 0.61487 1.03148 0.13654
 C2242 C 0.60335 1.02264 0.15867
 C2243 C 0.58180 1.00788 0.15638
 C2244 C 0.57176 1.00234 0.13261
 C2245 C 0.58309 1.01185 0.11055
 C2246 C 0.60481 1.02620 0.11273
 C2247 C 0.57207 1.00750 0.08682
 C2248 C 0.54966 0.99400 0.08500
 C2249 C 0.53924 0.98379 0.10712
 C2250 C 0.55015 0.98791 0.13063
 H2251 H 0.57232 1.00127 0.17312
 H2252 H 0.61390 1.03354 0.09605
 H2253 H 0.58031 1.01557 0.07000
 H2254 H 0.54134 0.98030 0.14735
 H2255 H 0.63175 1.04243 0.13757
 H2256 H 0.52213 0.97315 0.10638
 C2257 C 0.43428 0.48183 0.18419
 C2258 C 0.40961 0.47411 0.18063
 C2259 C 0.39946 0.47367 0.15623
 C2260 C 0.41378 0.48124 0.13549
 C2261 C 0.43871 0.48877 0.13916
 C2262 C 0.44880 0.48891 0.16361
 C2263 C 0.45318 0.49583 0.11834
 C2264 C 0.44307 0.49547 0.09381
 C2265 C 0.41801 0.48859 0.09056
 C2266 C 0.40355 0.48151 0.11116
 H2267 H 0.38029 0.46808 0.15353
 H2268 H 0.46783 0.49467 0.16682
 H2269 H 0.47243 0.50104 0.12122
 H2270 H 0.38444 0.47598 0.10800
 H2271 H 0.44228 0.48240 0.20299
 H2272 H 0.40961 0.48810 0.07194
 C2273 C -0.11618 -0.02909 0.65129
 C2274 C -0.10586 -0.01777 0.67294
 C2275 C -0.08434 -0.00288 0.67012
 C2276 C -0.07259 -0.00083 0.64663
 C2277 C -0.08303 -0.01279 0.62540
 C2278 C -0.10503 -0.02643 0.62782
 C2279 C -0.07107 -0.01143 0.60212
 C2280 C -0.04836 0.00127 0.59968
 C2281 C -0.03801 0.01314 0.62087
 C2282 C -0.05013 0.01225 0.64413
 H2283 H -0.07558 0.00561 0.68641
 H2284 H -0.11340 -0.03546 0.61161
 H2285 H -0.07924 -0.02082 0.58601
 H2286 H -0.04177 0.02149 0.66022
 H2287 H -0.13326 -0.03971 0.65225
 H2288 H -0.02061 0.02319 0.61945
 C2289 C -0.18447 0.92129 0.99008
 C2290 C -0.18569 0.89995 1.00629
 C2291 C -0.16345 0.89115 1.01778
 C2292 C -0.14084 0.90340 1.01340
 C2293 C -0.14024 0.92510 0.99771
 C2294 C -0.16210 0.93376 0.98601
 C2295 C -0.11788 0.93805 0.99428
 C2296 C -0.09594 0.92945 1.00618
 C2297 C -0.09653 0.90724 1.02097
 C2298 C -0.11880 0.89438 1.02462
 H2299 H -0.16338 0.87424 1.02948
 H2300 H -0.16198 0.95043 0.97395
 H2301 H -0.11764 0.95502 0.98263
 H2302 H -0.11885 0.87763 1.03656
 H2303 H -0.20101 0.92935 0.98140
 H2304 H -0.07992 0.90022 1.03042
 C2305 C 0.31670 0.43011 0.51668
 C2306 C 0.31758 0.40490 0.52535
 C2307 C 0.34080 0.39313 0.52936
 C2308 C 0.36287 0.40622 0.52410
 C2309 C 0.36172 0.43152 0.51524
 C2310 C 0.33853 0.44334 0.51181
 C2311 C 0.38374 0.44458 0.50987
 C2312 C 0.40706 0.43270 0.51313
 C2313 C 0.40790 0.40742 0.52178
 C2314 C 0.38607 0.39436 0.52724
 H2315 H 0.34162 0.37361 0.53577
 H2316 H 0.33726 0.46273 0.50508
 H2317 H 0.38267 0.46403 0.50327
 H2318 H 0.38735 0.37496 0.53394
 H2319 H 0.29899 0.43955 0.51357
 H2320 H 0.42551 0.39772 0.52460
 C2321 C 0.32769 0.57096 -0.01613
 C2322 C 0.33000 0.59692 -0.02151
 C2323 C 0.35369 0.60781 -0.02171
 C2324 C 0.37482 0.59306 -0.01578
 C2325 C 0.37229 0.56699 -0.01014
 C2326 C 0.34864 0.55608 -0.01067
 C2327 C 0.39339 0.55228 -0.00397
 C2328 C 0.41712 0.56326 -0.00335
 C2329 C 0.41930 0.58929 -0.00881
 C2330 C 0.39841 0.60400 -0.01495
 H2331 H 0.35551 0.62790 -0.02550
 H2332 H 0.34630 0.53615 -0.00645
 H2333 H 0.39133 0.53226 0.00002
 H2334 H 0.40073 0.62395 -0.01910
 H2335 H 0.30953 0.56228 -0.01582
 H2336 H 0.43727 0.59837 -0.00856
 C2337 C -0.14845 0.12310 0.47673
 C2338 C -0.16912 0.11199 0.48876
 C2339 C -0.16461 0.09081 0.50472
 C2340 C -0.14063 0.08059 0.50775
 C2341 C -0.12043 0.09164 0.49502
 C2342 C -0.12451 0.11310 0.47987
 C2343 C -0.09667 0.08057 0.49701
 C2344 C -0.09297 0.05819 0.51117
 C2345 C -0.11315 0.04778 0.52432
 C2346 C -0.13670 0.05892 0.52271
 H2347 H -0.17981 0.08099 0.51366
 H2348 H -0.10918 0.12204 0.47018
 H2349 H -0.08135 0.08875 0.48666
 H2350 H -0.15196 0.05022 0.53270
 H2351 H -0.15040 0.14004 0.46528
 H2352 H -0.11086 0.03067 0.53552
 C2353 C 0.68248 0.06595 0.50949
 C2354 C 0.67998 0.09049 0.51915
 C2355 C 0.65626 0.10157 0.52064
 C2356 C 0.63519 0.08824 0.51259
 C2357 C 0.63782 0.06333 0.50341
 C2358 C 0.66158 0.05240 0.50186
 C2359 C 0.61663 0.04959 0.49641
 C2360 C 0.59274 0.06040 0.49852
 C2361 C 0.59055 0.08558 0.50675
 C2362 C 0.61152 0.09931 0.51375
 H2363 H 0.65429 0.12065 0.52774
 H2364 H 0.66400 0.03338 0.49481
 H2365 H 0.61873 0.03025 0.49012
 H2366 H 0.60916 0.11845 0.52052
 H2367 H 0.70067 0.05717 0.50813
 H2368 H 0.57249 0.09451 0.50862
 C2369 C 0.18577 0.57523 0.99984
 C2370 C 0.18543 0.59502 1.01762
 C2371 C 0.16256 0.60137 1.02883
 C2372 C 0.14078 0.58845 1.02247
 C2373 C 0.14164 0.56828 1.00518
 C2374 C 0.16423 0.56191 0.99391
 C2375 C 0.11994 0.55471 0.99965
 C2376 C 0.09729 0.56145 1.01086
 C2377 C 0.09657 0.58217 1.02735
 C2378 C 0.11810 0.59543 1.03320
 H2379 H 0.16132 0.61707 1.04176
 H2380 H 0.16529 0.54649 0.98063
 H2381 H 0.12073 0.53890 0.98679
 H2382 H 0.11703 0.61097 1.04635
 H2383 H 0.20293 0.56905 0.99124
 H2384 H 0.07944 0.58775 1.03642
 C2385 C 0.17143 0.43204 0.49340
 C2386 C 0.17084 0.40829 0.48174
 C2387 C 0.14783 0.39792 0.47490
 C2388 C 0.12565 0.41114 0.47967
 C2389 C 0.12648 0.43516 0.49114
 C2390 C 0.14947 0.44541 0.49798
 C2391 C 0.10435 0.44862 0.49544
 C2392 C 0.08126 0.43835 0.48855
 C2393 C 0.08067 0.41421 0.47758
 C2394 C 0.10264 0.40077 0.47313
 H2395 H 0.14720 0.37948 0.46615
 H2396 H 0.15048 0.46379 0.50679
 H2397 H 0.10517 0.46713 0.50402
 H2398 H 0.10163 0.38235 0.46442
 H2399 H 0.18900 0.44044 0.49866
 H2400 H 0.06321 0.40580 0.47202
 C2401 C 0.66870 0.93164 -0.02658
 C2402 C 0.66698 0.90600 -0.03302
 C2403 C 0.64371 0.89422 -0.03293
 C2404 C 0.62236 0.90783 -0.02594
 C2405 C 0.62428 0.93363 -0.01945
 C2406 C 0.64751 0.94540 -0.02001
 C2407 C 0.60293 0.94732 -0.01270
 C2408 C 0.57953 0.93564 -0.01250
 C2409 C 0.57796 0.90981 -0.01850
 C2410 C 0.59916 0.89604 -0.02513
 H2411 H 0.64239 0.87432 -0.03751
 H2412 H 0.64934 0.96516 -0.01512
 H2413 H 0.60449 0.96723 -0.00830
 H2414 H 0.59735 0.87625 -0.02988
 H2415 H 0.68656 0.94095 -0.02644
 H2416 H 0.56022 0.90027 -0.01854
 C2417 C 0.03359 0.84657 0.88248
 C2418 C 0.02101 0.82464 0.89080
 C2419 C 0.00368 0.82747 0.91060
 C2420 C -0.00029 0.85102 0.92212
 C2421 C 0.01270 0.87252 0.91360
 C2422 C 0.02937 0.87010 0.89360
 C2423 C 0.00930 0.89591 0.92567
 C2424 C -0.00643 0.89791 0.94671
 C2425 C -0.01945 0.87639 0.95482
 C2426 C -0.01657 0.85326 0.94255
 H2427 H -0.00578 0.81118 0.91832
 H2428 H 0.03938 0.88642 0.88665
 H2429 H 0.01969 0.91224 0.91936
 H2430 H -0.02671 0.83698 0.94940
 H2431 H 0.04623 0.84598 0.86673
 H2432 H -0.03172 0.87736 0.97090
 C2433 C 0.52942 0.34823 0.37460
 C2434 C 0.52180 0.32547 0.38597
 C2435 C 0.50981 0.32638 0.40949
 C2436 C 0.50530 0.34955 0.42134
 C2437 C 0.51296 0.37231 0.40971
 C2438 C 0.52503 0.37143 0.38634
 C2439 C 0.50877 0.39548 0.42183
 C2440 C 0.49732 0.39617 0.44566
 C2441 C 0.48952 0.37336 0.45682
 C2442 C 0.49340 0.35031 0.44475
 H2443 H 0.50422 0.30898 0.41874
 H2444 H 0.53105 0.38868 0.37713
 H2445 H 0.51509 0.41284 0.41303
 H2446 H 0.48735 0.33302 0.45390
 H2447 H 0.53841 0.34813 0.35639
 H2448 H 0.48066 0.37325 0.47510
 C2449 C -0.03808 0.35163 0.62265
 C2450 C -0.02592 0.33003 0.61297
 C2451 C -0.01190 0.33306 0.59068
 C2452 C -0.00980 0.35666 0.57872
 C2453 C -0.02188 0.37802 0.58881
 C2454 C -0.03597 0.37529 0.61079
 C2455 C -0.02000 0.40159 0.57647
 C2456 C -0.00653 0.40385 0.55388
 C2457 C 0.00554 0.38239 0.54420
 C2458 C 0.00399 0.35907 0.55653
 H2459 H -0.00340 0.31693 0.58164
 H2460 H -0.04534 0.39148 0.61887
 H2461 H -0.02960 0.41792 0.58403
 H2462 H 0.01339 0.34284 0.54854
 H2463 H -0.04851 0.35074 0.63999
 H2464 H 0.01612 0.38356 0.52693
 C2465 C 0.47237 0.85247 0.12363
 C2466 C 0.48097 0.83042 0.11177
 C2467 C 0.49083 0.83231 0.08733
 C2468 C 0.49216 0.85576 0.07492
 C2469 C 0.48343 0.87782 0.08695
 C2470 C 0.47361 0.87597 0.11134
 C2471 C 0.48441 0.90125 0.07424
 C2472 C 0.49382 0.90283 0.04954
 C2473 C 0.50271 0.88070 0.03799
 C2474 C 0.50190 0.85743 0.05056
 H2475 H 0.49709 0.81542 0.07774
 H2476 H 0.46686 0.89267 0.12090
 H2477 H 0.47742 0.91809 0.08340
 H2478 H 0.50873 0.84070 0.04111
 H2479 H 0.46493 0.85158 0.14254
 H2480 H 0.51016 0.88126 0.01907
 C2481 C 0.51608 0.68450 0.07213
 C2482 C 0.52619 0.68213 0.09655
 C2483 C 0.52976 0.65796 0.10716
 C2484 C 0.52302 0.63632 0.09359
 C2485 C 0.51317 0.63882 0.06887
 C2486 C 0.50982 0.66304 0.05831
 C2487 C 0.50699 0.61709 0.05509
 C2488 C 0.51035 0.59282 0.06580
 C2489 C 0.51956 0.59075 0.09071
 C2490 C 0.52589 0.61222 0.10439
 H2491 H 0.53723 0.65609 0.12614
 H2492 H 0.50224 0.66539 0.03943
 H2493 H 0.49992 0.61909 0.03597
 H2494 H 0.53326 0.60993 0.12336
 H2495 H 0.51311 0.70304 0.06373
 H2496 H 0.52249 0.57241 0.09954
 C2497 C -0.00189 0.18267 0.57706
 C2498 C 0.01645 0.18198 0.59632
 C2499 C 0.02871 0.15874 0.60125
 C2500 C 0.02258 0.13692 0.58775
 C2501 C 0.00438 0.13811 0.56842
 C2502 C -0.00767 0.16111 0.56321
 C2503 C -0.00148 0.11625 0.55471
 C2504 C 0.01030 0.09308 0.56052
 C2505 C 0.02808 0.09214 0.58013
 C2506 C 0.03424 0.11381 0.59350
 H2507 H 0.04221 0.15709 0.61644
 H2508 H -0.02159 0.16247 0.54838
 H2509 H -0.01529 0.11725 0.53974
 H2510 H 0.04816 0.11249 0.60833
 H2511 H -0.01126 0.20014 0.57179
 H2512 H 0.03765 0.07463 0.58494
 C2513 C 0.49097 0.17936 0.42327
 C2514 C 0.48205 0.17661 0.39847
 C2515 C 0.47935 0.15225 0.38856
 C2516 C 0.48582 0.13084 0.40317
 C2517 C 0.49459 0.13377 0.42818
 C2518 C 0.49701 0.15814 0.43806
 C2519 C 0.50063 0.11231 0.44294
 C2520 C 0.49804 0.08785 0.43302
 C2521 C 0.48984 0.08530 0.40787
 C2522 C 0.48376 0.10653 0.39314
 H2523 H 0.47282 0.15004 0.36931
 H2524 H 0.50372 0.16081 0.45717
 H2525 H 0.50687 0.11469 0.46225
 H2526 H 0.47723 0.10391 0.37397
 H2527 H 0.49321 0.19802 0.43119
 H2528 H 0.48762 0.06680 0.39961
 C2529 C -0.02813 0.64856 0.88330
 C2530 C -0.01548 0.67016 0.89207
 C2531 C 0.00115 0.66694 0.91270
 C2532 C 0.00398 0.64327 0.92489
 C2533 C -0.00916 0.62214 0.91591
 C2534 C -0.02485 0.62494 0.89491
 C2535 C -0.00687 0.59866 0.92841
 C2536 C 0.00786 0.59607 0.95034
 C2537 C 0.02091 0.61723 0.95911
 C2538 C 0.01917 0.64053 0.94640
 H2539 H 0.01074 0.68305 0.92049
 H2540 H -0.03489 0.60887 0.88760
 H2541 H -0.01725 0.58261 0.92151
 H2542 H 0.02937 0.65651 0.95366
 H2543 H -0.04017 0.64955 0.86689
 H2544 H 0.03247 0.61579 0.97588
 C2545 C 0.26893 0.68352 0.93082
 C2546 C 0.27522 0.65775 0.92898
 C2547 C 0.27412 0.64608 0.90534
 C2548 C 0.26666 0.65991 0.88378
 C2549 C 0.26073 0.68596 0.88566
 C2550 C 0.26198 0.69757 0.90934
 C2551 C 0.25399 0.69993 0.86382
 C2552 C 0.25323 0.68813 0.84011
 C2553 C 0.25834 0.66198 0.83883
 C2554 C 0.26500 0.64808 0.86036
 H2555 H 0.27848 0.62609 0.90390
 H2556 H 0.25746 0.71746 0.91127
 H2557 H 0.25025 0.72004 0.86517
 H2558 H 0.26922 0.62810 0.85859
 H2559 H 0.26944 0.69277 0.94897
 H2560 H 0.25779 0.65224 0.82095
 C2561 C 0.75575 0.17924 0.43415
 C2562 C 0.76900 0.15626 0.43339
 C2563 C 0.77615 0.14645 0.40999
 C2564 C 0.77036 0.15957 0.38756
 C2565 C 0.75748 0.18295 0.38853
 C2566 C 0.75012 0.19254 0.41192
 C2567 C 0.75250 0.19653 0.36616
 C2568 C 0.76020 0.18705 0.34273
 C2569 C 0.77237 0.16340 0.34200
 C2570 C 0.77744 0.14983 0.36419
 H2571 H 0.78609 0.12855 0.40928
 H2572 H 0.74018 0.21039 0.41303
 H2573 H 0.74300 0.21465 0.36708
 H2574 H 0.78720 0.13187 0.36309
 H2575 H 0.75014 0.18712 0.45204
 H2576 H 0.77855 0.15557 0.32429
 C2577 C 0.21855 0.37263 0.40079
 C2578 C 0.22644 0.36018 0.42305
 C2579 C 0.23847 0.33654 0.42121
 C2580 C 0.24209 0.32527 0.39762
 C2581 C 0.23371 0.33778 0.37544
 C2582 C 0.22216 0.36156 0.37723
 C2583 C 0.23651 0.32607 0.35192
 C2584 C 0.24732 0.30179 0.35027
 C2585 C 0.25607 0.28983 0.37248
 C2586 C 0.25353 0.30146 0.39589
 H2587 H 0.24439 0.32655 0.43819
 H2588 H 0.21571 0.37150 0.36043
 H2589 H 0.22960 0.33557 0.33504
 H2590 H 0.26015 0.29163 0.41269
 H2591 H 0.20963 0.39103 0.40159
 H2592 H 0.26457 0.27121 0.37187
 C2593 C 0.69787 0.83595 0.90114
 C2594 C 0.71832 0.84650 0.91385
 C2595 C 0.74244 0.84156 0.90463
 C2596 C 0.74606 0.82613 0.88357
 C2597 C 0.72527 0.81629 0.87072
 C2598 C 0.70130 0.82127 0.87964
 C2599 C 0.72880 0.80193 0.84895
 C2600 C 0.75284 0.79678 0.84020
 C2601 C 0.77349 0.80571 0.85351
 C2602 C 0.77013 0.82051 0.87500
 H2603 H 0.75852 0.84990 0.91357
 H2604 H 0.68518 0.81362 0.87012
 H2605 H 0.71285 0.79503 0.83852
 H2606 H 0.78630 0.82779 0.88473
 H2607 H 0.67914 0.83868 0.90792
 H2608 H 0.79211 0.80208 0.84672
 C2609 C 0.74826 0.82733 0.06375
 C2610 C 0.75851 0.85168 0.06334
 C2611 C 0.76342 0.86400 0.08617
 C2612 C 0.75834 0.85198 0.10924
 C2613 C 0.74841 0.82731 0.10944
 C2614 C 0.74329 0.81521 0.08661
 C2615 C 0.74435 0.81483 0.13244
 C2616 C 0.75041 0.82649 0.15539
 C2617 C 0.75945 0.85140 0.15500
 C2618 C 0.76334 0.86405 0.13213
 H2619 H 0.77101 0.88294 0.08592
 H2620 H 0.73568 0.79629 0.08644
 H2621 H 0.73733 0.79566 0.13235
 H2622 H 0.77080 0.88302 0.13233
 H2623 H 0.74441 0.81754 0.04631
 H2624 H 0.76425 0.86089 0.17236
 C2625 C 0.25184 0.32457 0.57507
 C2626 C 0.26073 0.34942 0.57690
 C2627 C 0.26293 0.36047 0.60084
 C2628 C 0.25613 0.34687 0.62266
 C2629 C 0.24742 0.32181 0.62057
 C2630 C 0.24537 0.31085 0.59667
 C2631 C 0.24129 0.30795 0.64241
 C2632 C 0.24387 0.31872 0.66649
 C2633 C 0.25189 0.34395 0.66822
 C2634 C 0.25794 0.35786 0.64656
 H2635 H 0.26946 0.37974 0.60239
 H2636 H 0.23875 0.29166 0.59468
 H2637 H 0.23525 0.28854 0.64063
 H2638 H 0.26441 0.37710 0.64856
 H2639 H 0.25002 0.31570 0.55682
 H2640 H 0.25413 0.35283 0.68641
 C2641 C 0.71958 0.12714 0.60540
 C2642 C 0.72849 0.13964 0.58377
 C2643 C 0.74021 0.16317 0.58657
 C2644 C 0.74332 0.17387 0.61048
 C2645 C 0.73433 0.16117 0.63209
 C2646 C 0.72245 0.13781 0.62932
 C2647 C 0.73720 0.17218 0.65600
 C2648 C 0.74887 0.19582 0.65854
 C2649 C 0.75799 0.20800 0.63681
 C2650 C 0.75524 0.19716 0.61306
 H2651 H 0.74673 0.17335 0.57009
 H2652 H 0.71546 0.12774 0.64566
 H2653 H 0.72999 0.16253 0.67249
 H2654 H 0.76231 0.20711 0.59668
 H2655 H 0.71075 0.10888 0.60389
 H2656 H 0.76710 0.22614 0.63806
 C2657 C 0.22936 0.62658 0.10229
 C2658 C 0.23806 0.63968 0.08090
 C2659 C 0.25075 0.66257 0.08434
 C2660 C 0.25446 0.67236 0.10857
 C2661 C 0.24525 0.65929 0.12987
 C2662 C 0.23287 0.63630 0.12652
 C2663 C 0.24806 0.66975 0.15404
 C2664 C 0.25974 0.69330 0.15708
 C2665 C 0.26946 0.70564 0.13571
 C2666 C 0.26687 0.69528 0.11174
 H2667 H 0.25727 0.67315 0.06811
 H2668 H 0.22579 0.62590 0.14261
 H2669 H 0.24039 0.66002 0.17027
 H2670 H 0.27419 0.70547 0.09563
 H2671 H 0.21996 0.60867 0.10033
 H2672 H 0.27870 0.72368 0.13739
 C2673 C 0.13084 0.60235 0.71007
 C2674 C 0.14191 0.57979 0.71895
 C2675 C 0.16560 0.58071 0.73036
 C2676 C 0.17774 0.60385 0.73350
 C2677 C 0.16624 0.62643 0.72486
 C2678 C 0.14290 0.62547 0.71298
 C2679 C 0.17820 0.64962 0.72833
 C2680 C 0.20163 0.65066 0.74030
 C2681 C 0.21294 0.62801 0.74870
 C2682 C 0.20110 0.60483 0.74534
 H2683 H 0.17456 0.56340 0.73692
 H2684 H 0.13382 0.64262 0.70623
 H2685 H 0.16921 0.66684 0.72158
 H2686 H 0.21018 0.58767 0.75207
 H2687 H 0.11253 0.60221 0.70148
 H2688 H 0.23096 0.62817 0.75791
 C2689 C 0.63517 0.10611 0.20797
 C2690 C 0.64515 0.08347 0.21793
 C2691 C 0.66702 0.08433 0.23260
 C2692 C 0.67881 0.10743 0.23723
 C2693 C 0.66855 0.13008 0.22721
 C2694 C 0.64671 0.12922 0.21264
 C2695 C 0.68044 0.15317 0.23166
 C2696 C 0.70275 0.15397 0.24571
 C2697 C 0.71273 0.13127 0.25560
 C2698 C 0.70082 0.10825 0.25150
 H2699 H 0.67509 0.06694 0.24009
 H2700 H 0.63858 0.14641 0.20480
 H2701 H 0.67258 0.17044 0.22368
 H2702 H 0.70895 0.09105 0.25932
 H2703 H 0.61822 0.10597 0.19684
 H2704 H 0.72984 0.13128 0.26649
 C2705 C 0.83426 0.08038 0.79877
 C2706 C 0.84753 0.07159 0.77778
 C2707 C 0.84574 0.08523 0.75484
 C2708 C 0.83089 0.10714 0.75286
 C2709 C 0.81781 0.11579 0.77418
 C2710 C 0.81961 0.10228 0.79701
 C2711 C 0.80343 0.13802 0.77239
 C2712 C 0.80199 0.15165 0.74959
 C2713 C 0.81475 0.14289 0.72841
 C2714 C 0.82907 0.12072 0.73000
 H2715 H 0.85611 0.07900 0.73856
 H2716 H 0.80963 0.10861 0.81350
 H2717 H 0.79380 0.14507 0.78883
 H2718 H 0.83899 0.11438 0.71347
 H2719 H 0.83486 0.07008 0.81652
 H2720 H 0.81402 0.15351 0.71083
 C2721 C 0.31930 0.56320 0.26273
 C2722 C 0.34426 0.56491 0.27044
 C2723 C 0.35555 0.58872 0.27135
 C2724 C 0.34211 0.61062 0.26448
 C2725 C 0.31688 0.60881 0.25708
 C2726 C 0.30566 0.58497 0.25629
 C2727 C 0.30325 0.63087 0.25095
 C2728 C 0.31451 0.65479 0.25220
 C2729 C 0.33988 0.65613 0.25880
 C2730 C 0.35349 0.63432 0.26489
 H2731 H 0.37493 0.59008 0.27687
 H2732 H 0.28638 0.58315 0.25063
 H2733 H 0.28374 0.62944 0.24598
 H2734 H 0.37286 0.63605 0.27029
 H2735 H 0.31036 0.54495 0.26178
 H2736 H 0.34917 0.67418 0.25990
 C2737 C 0.36979 0.39121 0.22399
 C2738 C 0.35788 0.41355 0.23187
 C2739 C 0.33493 0.41169 0.24430
 C2740 C 0.32422 0.38809 0.24912
 C2741 C 0.33623 0.36578 0.24101
 C2742 C 0.35902 0.36756 0.22844
 C2743 C 0.32499 0.34219 0.24520
 C2744 C 0.30178 0.34069 0.25726
 C2745 C 0.29046 0.36308 0.26583
 C2746 C 0.30154 0.38650 0.26179
 H2747 H 0.32517 0.42867 0.25004
 H2748 H 0.36857 0.35067 0.22213
 H2749 H 0.33395 0.32517 0.23837
 H2750 H 0.29217 0.40343 0.26827
 H2751 H 0.38763 0.39194 0.21474
 H2752 H 0.27266 0.36261 0.27522
 C2753 C 0.86860 0.90105 0.72470
 C2754 C 0.85506 0.92242 0.73235
 C2755 C 0.83220 0.91927 0.74460
 C2756 C 0.82243 0.89498 0.74812
 C2757 C 0.83596 0.87367 0.73975
 C2758 C 0.85919 0.87686 0.72847
 C2759 C 0.82573 0.84954 0.74197
 C2760 C 0.80180 0.84627 0.75192
 C2761 C 0.78876 0.86748 0.76089
 C2762 C 0.79905 0.89163 0.75911
 H2763 H 0.82166 0.93573 0.75046
 H2764 H 0.86983 0.86069 0.72207
 H2765 H 0.83612 0.83342 0.73502
 H2766 H 0.78845 0.90774 0.76571
 H2767 H 0.88645 0.90312 0.71562
 H2768 H 0.77034 0.86552 0.76874
 C2769 C 0.62953 0.91033 0.27384
 C2770 C 0.64066 0.93240 0.26432
 C2771 C 0.66391 0.93054 0.25255
 C2772 C 0.67600 0.90709 0.25050
 C2773 C 0.66480 0.88504 0.26032
 C2774 C 0.64148 0.88686 0.27184
 C2775 C 0.67725 0.86165 0.25873
 C2776 C 0.70090 0.86009 0.24761
 C2777 C 0.71161 0.88220 0.23762
 C2778 C 0.69929 0.90543 0.23903
 H2779 H 0.67287 0.94744 0.24546
 H2780 H 0.63254 0.87016 0.27941
 H2781 H 0.66873 0.84483 0.26654
 H2782 H 0.70810 0.92215 0.23134
 H2783 H 0.61148 0.91121 0.28269
 H2784 H 0.72970 0.88165 0.22881
 C2785 C 0.17745 0.43902 0.76478
 C2786 C 0.15305 0.43676 0.77379
 C2787 C 0.14326 0.41263 0.77814
 C2788 C 0.15746 0.39093 0.77301
 C2789 C 0.18202 0.39329 0.76397
 C2790 C 0.19189 0.41748 0.76011
 C2791 C 0.19620 0.37144 0.75892
 C2792 C 0.18604 0.34725 0.76265
 C2793 C 0.16139 0.34535 0.77128
 C2794 C 0.14732 0.36690 0.77646
 H2795 H 0.12431 0.41079 0.78469
 H2796 H 0.21065 0.41974 0.75318
 H2797 H 0.21512 0.37331 0.75231
 H2798 H 0.12849 0.36474 0.78323
 H2799 H 0.18527 0.45752 0.76125
 H2800 H 0.15291 0.32709 0.77440
 C2801 C 0.10137 0.77315 0.86231
 C2802 C 0.08007 0.76520 0.84917
 C2803 C 0.08307 0.75260 0.82604
 C2804 C 0.10694 0.74878 0.81587
 C2805 C 0.12810 0.75727 0.82916
 C2806 C 0.12510 0.76918 0.85247
 C2807 C 0.15188 0.75422 0.81872
 C2808 C 0.15499 0.74310 0.79485
 C2809 C 0.13379 0.73438 0.78198
 C2810 C 0.11006 0.73709 0.79242
 H2811 H 0.06682 0.74650 0.81562
 H2812 H 0.14111 0.77572 0.86299
 H2813 H 0.16790 0.76119 0.82895
 H2814 H 0.09409 0.73042 0.78193
 H2815 H 0.09967 0.78248 0.88033
 H2816 H 0.13548 0.72572 0.76363
 C2817 C 0.57309 0.25749 0.30965
 C2818 C 0.57427 0.26577 0.33473
 C2819 C 0.59742 0.26729 0.34689
 C2820 C 0.61923 0.26054 0.33416
 C2821 C 0.61800 0.25267 0.30874
 C2822 C 0.59479 0.25119 0.29667
 C2823 C 0.64000 0.24677 0.29576
 C2824 C 0.66324 0.24860 0.30792
 C2825 C 0.66400 0.25563 0.33350
 C2826 C 0.64228 0.26159 0.34643
 H2827 H 0.59835 0.27330 0.36638
 H2828 H 0.59340 0.24513 0.27724
 H2829 H 0.63902 0.24141 0.27609
 H2830 H 0.64356 0.26736 0.36596
 H2831 H 0.55533 0.25610 0.30004
 H2832 H 0.68152 0.25721 0.34351
 C2833 C 0.60763 0.73044 0.13097
 C2834 C 0.58620 0.73719 0.14446
 C2835 C 0.58898 0.74974 0.16763
 C2836 C 0.61262 0.75571 0.17703
 C2837 C 0.63400 0.74877 0.16336
 C2838 C 0.63129 0.73614 0.14034
 C2839 C 0.65768 0.75415 0.17317
 C2840 C 0.66032 0.76615 0.19668
 C2841 C 0.63881 0.77346 0.20976
 C2842 C 0.61522 0.76833 0.20003
 H2843 H 0.57274 0.75466 0.17857
 H2844 H 0.64748 0.73070 0.12956
 H2845 H 0.67402 0.74822 0.16286
 H2846 H 0.59900 0.77389 0.21070
 H2847 H 0.60611 0.72113 0.11292
 H2848 H 0.64017 0.78270 0.22786
 C2849 C 0.09849 0.22746 0.63211
 C2850 C 0.07683 0.23448 0.64509
 C2851 C 0.07919 0.24618 0.66872
 C2852 C 0.10265 0.25096 0.67916
 C2853 C 0.12428 0.24365 0.66609
 C2854 C 0.12200 0.23195 0.64254
 C2855 C 0.14776 0.24768 0.67706
 C2856 C 0.14983 0.25869 0.70110
 C2857 C 0.12809 0.26649 0.71351
 C2858 C 0.10476 0.26268 0.70265
 H2859 H 0.06273 0.25127 0.67925
 H2860 H 0.13838 0.22628 0.63219
 H2861 H 0.16429 0.24143 0.66728
 H2862 H 0.08833 0.26852 0.71285
 H2863 H 0.09729 0.21880 0.61372
 H2864 H 0.12904 0.27507 0.73196
 C2865 C 0.93059 0.26368 0.69223
 C2866 C 0.92829 0.26785 0.66614
 C2867 C 0.90539 0.26401 0.65415
 C2868 C 0.88472 0.25638 0.66817
 C2869 C 0.88688 0.25286 0.69460
 C2870 C 0.90998 0.25641 0.70643
 C2871 C 0.86576 0.24660 0.70878
 C2872 C 0.84249 0.24418 0.69684
 C2873 C 0.84094 0.24656 0.67039
 C2874 C 0.86182 0.25257 0.65621
 H2875 H 0.90378 0.26686 0.63391
 H2876 H 0.91207 0.25371 0.72662
 H2877 H 0.86720 0.24494 0.72914
 H2878 H 0.85991 0.25491 0.63596
 H2879 H 0.94832 0.26629 0.70161
 H2880 H 0.82330 0.24461 0.66066
 C2881 C 0.43687 0.75698 0.18861
 C2882 C 0.43474 0.76677 0.16395
 C2883 C 0.41118 0.76924 0.15274
 C2884 C 0.38986 0.76233 0.16609
 C2885 C 0.39199 0.75317 0.19118
 C2886 C 0.41564 0.75039 0.20220
 C2887 C 0.37042 0.74743 0.20490
 C2888 C 0.34678 0.75077 0.19377
 C2889 C 0.34515 0.75895 0.16842
 C2890 C 0.36642 0.76473 0.15478
 H2891 H 0.40951 0.77642 0.13356
 H2892 H 0.41771 0.74330 0.22135
 H2893 H 0.37205 0.74110 0.22435
 H2894 H 0.36448 0.77148 0.13550
 H2895 H 0.45497 0.75487 0.19749
 H2896 H 0.32729 0.76158 0.15918
 C2897 C 0.42639 0.23578 0.31545
 C2898 C 0.42608 0.22845 0.34100
 C2899 C 0.40320 0.22653 0.35347
 C2900 C 0.38090 0.23236 0.34063
 C2901 C 0.38149 0.23980 0.31495
 C2902 C 0.40432 0.24131 0.30251
 C2903 C 0.35925 0.24541 0.30201
 C2904 C 0.33623 0.24352 0.31428
 C2905 C 0.33591 0.23649 0.33997
 C2906 C 0.35801 0.23101 0.35301
 H2907 H 0.40285 0.22117 0.37326
 H2908 H 0.40512 0.24691 0.28282
 H2909 H 0.35990 0.25064 0.28220
 H2910 H 0.35717 0.22546 0.37272
 H2911 H 0.44383 0.23728 0.30549
 H2912 H 0.31850 0.23482 0.34996
 C2913 C 0.90426 0.72177 0.86376
 C2914 C 0.92531 0.73064 0.85088
 C2915 C 0.92183 0.74449 0.82829
 C2916 C 0.89782 0.74854 0.81826
 C2917 C 0.87693 0.73886 0.83104
 C2918 C 0.88036 0.72582 0.85396
 C2919 C 0.85304 0.74175 0.82039
 C2920 C 0.84968 0.75395 0.79685
 C2921 C 0.87059 0.76419 0.78472
 C2922 C 0.89436 0.76155 0.79533
 H2923 H 0.93783 0.75134 0.81805
 H2924 H 0.86457 0.71842 0.86415
 H2925 H 0.83723 0.73372 0.83005
 H2926 H 0.91012 0.76923 0.78529
 H2927 H 0.90627 0.71157 0.88147
 H2928 H 0.86871 0.77376 0.76666
   
