data_POSCAR
  _audit_creation_date              2014-09-24
  _audit_creation_method            'ToBaCCo'
  _symmetry_space_group_name_H-M    'P1'
  _symmetry_Int_Tables_number       1
  _symmetry_cell_setting            triclinic
  loop_
  _symmetry_equiv_pos_as_xyz
 x,y,z
_cell_length_a 61.7712
_cell_length_b 61.6860
_cell_length_c 61.6746
_cell_angle_alpha 89.864800
_cell_angle_beta 90.012500
_cell_angle_gamma 90.015500
loop_
  _atom_site_label
  _atom_site_type_symbol
  _atom_site_fract_x
  _atom_site_fract_y
  _atom_site_fract_z
O1 O 0.34139 0.37168 0.02009
 O2 O 0.37173 0.34260 -0.02227
 O3 O 0.34184 0.37237 -0.02210
 O4 O 0.37144 0.34186 0.01994
 O5 O 0.34619 0.31644 0.01935
 O6 O 0.31663 0.34691 -0.02265
 O7 O 0.34648 0.31718 -0.02281
 O8 O 0.31619 0.34622 0.01950
 Cu9 Cu 0.35915 0.35970 -0.00099
 Cu10 Cu 0.32883 0.32912 -0.00168
 C11 C 0.32360 0.36392 0.02685
 C12 C 0.36421 0.32497 -0.02968
 C13 C 0.32422 0.36478 -0.02946
 C14 C 0.36386 0.32395 0.02665
 O15 O 0.65774 0.62809 0.02107
 O16 O 0.62875 0.65723 -0.02230
 O17 O 0.65876 0.62749 -0.02112
 O18 O 0.62798 0.65808 0.01989
 O19 O 0.65331 0.68343 0.01989
 O20 O 0.68401 0.65291 -0.02104
 O21 O 0.65404 0.68261 -0.02225
 O22 O 0.68303 0.65348 0.02110
 Cu23 Cu 0.64075 0.64016 -0.00062
 Cu24 Cu 0.67115 0.67066 -0.00057
 C25 C 0.67531 0.63584 0.02836
 C26 C 0.63646 0.67487 -0.02954
 C27 C 0.67662 0.63503 -0.02795
 C28 C 0.63545 0.67596 0.02676
 O29 O 0.65754 0.37217 0.97897
 O30 O 0.62849 0.34302 1.02229
 O31 O 0.65854 0.37272 1.02116
 O32 O 0.62773 0.34224 0.98009
 O33 O 0.65301 0.31686 0.98007
 O34 O 0.68375 0.34728 1.02106
 O35 O 0.65374 0.31761 1.02222
 O36 O 0.68279 0.34675 0.97892
 Cu37 Cu 0.64053 0.36011 1.00064
 Cu38 Cu 0.67087 0.32956 1.00056
 C39 C 0.67510 0.36441 0.97168
 C40 C 0.63618 0.32536 1.02951
 C41 C 0.67640 0.36516 1.02799
 C42 C 0.63517 0.32436 0.97320
 O43 O 0.37178 0.65746 1.02242
 O44 O 0.34135 0.62825 0.98017
 O45 O 0.37137 0.65811 0.98022
 O46 O 0.34192 0.62763 1.02237
 O47 O 0.31668 0.65304 1.02293
 O48 O 0.34611 0.68349 0.98082
 O49 O 0.31613 0.65367 0.98078
 O50 O 0.34650 0.68283 1.02297
 Cu51 Cu 0.35916 0.64029 1.00120
 Cu52 Cu 0.32881 0.67082 1.00191
 C53 C 0.36426 0.67509 1.02981
 C54 C 0.32354 0.63597 0.97344
 C55 C 0.36377 0.67600 0.97350
 C56 C 0.32431 0.63519 1.02975
 O57 O -0.02133 0.37419 0.34445
 O58 O 0.02077 0.34425 0.37450
 O59 O 0.02087 0.37422 0.34460
 O60 O -0.02142 0.34421 0.37432
 O61 O -0.02127 0.31896 0.34893
 O62 O 0.02093 0.34891 0.31927
 O63 O 0.02085 0.31900 0.34911
 O64 O -0.02119 0.34888 0.31911
 Cu65 Cu -0.00029 0.36177 0.36203
 Cu66 Cu -0.00016 0.33139 0.33155
 C67 C -0.02836 0.36657 0.32669
 C68 C 0.02790 0.32655 0.36687
 C69 C 0.02802 0.36661 0.32690
 C70 C -0.02847 0.32650 0.36663
 O71 O -0.02127 0.62565 0.65550
 O72 O 0.02088 0.65551 0.62542
 O73 O 0.02093 0.62561 0.65538
 O74 O -0.02132 0.65555 0.62555
 O75 O -0.02117 0.68086 0.65089
 O76 O 0.02100 0.65098 0.68066
 O77 O 0.02095 0.68082 0.65075
 O78 O -0.02112 0.65102 0.68078
 Cu79 Cu -0.00021 0.63802 0.63791
 Cu80 Cu -0.00007 0.66847 0.66832
 C81 C -0.02829 0.63330 0.67323
 C82 C 0.02801 0.67322 0.63302
 C83 C 0.02807 0.63325 0.67308
 C84 C -0.02836 0.67328 0.63319
 O85 O 0.97927 0.66093 0.36924
 O86 O 1.02118 0.63103 0.33916
 O87 O 1.02134 0.66091 0.36905
 O88 O 0.97910 0.63106 0.33934
 O89 O 0.97902 0.65645 0.31397
 O90 O 1.02124 0.68628 0.34366
 O91 O 1.02108 0.65642 0.31379
 O92 O 0.97918 0.68631 0.34385
 Cu93 Cu 1.00023 0.64342 0.35676
 Cu94 Cu 1.00012 0.67393 0.32625
 C95 C 0.97224 0.67873 0.36168
 C96 C 1.02813 0.63863 0.32134
 C97 C 1.02834 0.67869 0.36142
 C98 C 0.97202 0.63867 0.32158
 O99 O 0.97903 0.33886 0.63075
 O100 O 1.02096 0.36874 0.66089
 O101 O 1.02110 0.33887 0.63099
 O102 O 0.97887 0.36873 0.66067
 O103 O 0.97876 0.34332 0.68603
 O104 O 1.02096 0.31348 0.65637
 O105 O 1.02082 0.34334 0.68626
 O106 O 0.97891 0.31347 0.65613
 Cu107 Cu 1.00000 0.35636 0.64327
 Cu108 Cu 0.99985 0.32584 0.67376
 C109 C 0.97198 0.32106 0.63830
 C110 C 1.02788 0.36114 0.67872
 C111 C 1.02808 0.32107 0.63861
 C112 C 0.97178 0.36112 0.67843
 O113 O 0.37145 0.02208 0.34275
 O114 O 0.34248 -0.02137 0.37181
 O115 O 0.37230 -0.02010 0.34187
 O116 O 0.34142 0.02081 0.37247
 O117 O 0.31619 0.02072 0.34701
 O118 O 0.34701 -0.02012 0.31648
 O119 O 0.31723 -0.02141 0.34638
 O120 O 0.34619 0.02201 0.31733
 Cu121 Cu 0.35946 0.00036 0.35979
 Cu122 Cu 0.32911 0.00030 0.32924
 C123 C 0.36374 0.02933 0.32510
 C124 C 0.32493 -0.02867 0.36403
 C125 C 0.36487 -0.02696 0.32397
 C126 C 0.32355 0.02762 0.36491
 O127 O 0.62808 0.02198 0.65753
 O128 O 0.65844 -0.02043 0.62852
 O129 O 0.62839 -0.02022 0.65834
 O130 O 0.65793 0.02175 0.62772
 O131 O 0.68317 0.02238 0.65316
 O132 O 0.65364 -0.01955 0.68376
 O133 O 0.68365 -0.01975 0.65397
 O134 O 0.65336 0.02259 0.68293
 Cu135 Cu 0.64066 0.00067 0.64046
 Cu136 Cu 0.67100 0.00145 0.67102
 C137 C 0.63562 0.02943 0.67514
 C138 C 0.67624 -0.02715 0.63629
 C139 C 0.63597 -0.02688 0.67628
 C140 C 0.67555 0.02914 0.63528
 O141 O 0.37148 0.97799 0.65733
 O142 O 0.34242 1.02135 0.62824
 O143 O 0.37226 1.02018 0.65815
 O144 O 0.34144 0.97917 0.62762
 O145 O 0.31623 0.97923 0.65308
 O146 O 0.34699 1.02017 0.68355
 O147 O 0.31719 1.02136 0.65367
 O148 O 0.34623 0.97803 0.68275
 Cu149 Cu 0.35945 0.99967 0.64026
 Cu150 Cu 0.32912 0.99970 0.67083
 C151 C 0.36379 0.97074 0.67499
 C152 C 0.32486 1.02862 0.63601
 C153 C 0.36483 1.02705 0.67604
 C154 C 0.32359 0.97234 0.63518
 O155 O 0.62870 0.97842 0.34243
 O156 O 0.65911 1.02073 0.37159
 O157 O 0.62905 1.02061 0.34176
 O158 O 0.65855 0.97854 0.37226
 O159 O 0.68378 0.97797 0.34683
 O160 O 0.65429 1.02001 0.31635
 O161 O 0.68431 1.02011 0.34614
 O162 O 0.65396 0.97787 0.31704
 Cu163 Cu 0.64130 0.99967 0.35958
 Cu164 Cu 0.67163 0.99896 0.32903
 C165 C 0.63622 0.97101 0.32480
 C166 C 0.67692 1.02746 0.36384
 C167 C 0.63663 1.02732 0.32384
 C168 C 0.67615 0.97116 0.36469
 C169 C 0.81221 0.81172 0.51247
 C170 C 0.81246 0.81167 0.49036
 C171 C 0.82809 0.79825 0.47794
 C172 C 0.79770 0.82568 0.47745
 C173 C 0.79883 0.82740 0.52487
 C174 C 0.82597 0.79669 0.52535
 C175 C 0.85049 0.80017 0.48148
 C176 C 0.86504 0.78758 0.46958
 C177 C 0.85737 0.77312 0.45389
 C178 C 0.83510 0.77136 0.45008
 C179 C 0.82053 0.78392 0.46199
 C180 C 0.80636 0.83987 0.46187
 C181 C 0.79280 0.85366 0.45009
 C182 C 0.77043 0.85332 0.45364
 C183 C 0.76161 0.83889 0.46881
 C184 C 0.77516 0.82504 0.48060
 C185 C 0.78416 0.81985 0.54056
 C186 C 0.77139 0.83446 0.55220
 C187 C 0.77329 0.85677 0.54839
 C188 C 0.78814 0.86442 0.53303
 C189 C 0.80094 0.84983 0.52141
 C190 C 0.82522 0.77417 0.52193
 C191 C 0.83905 0.76036 0.53345
 C192 C 0.85356 0.76892 0.54864
 C193 C 0.85394 0.79126 0.55253
 C194 C 0.84017 0.80506 0.54101
 H195 H 0.85667 0.81147 0.49339
 H196 H 0.88225 0.78918 0.47255
 H197 H 0.82900 0.76029 0.43791
 H198 H 0.80333 0.78236 0.45890
 H199 H 0.82367 0.84056 0.45914
 H200 H 0.79979 0.86475 0.43837
 H201 H 0.76813 0.81394 0.49227
 H202 H 0.78245 0.80263 0.54358
 H203 H 0.76001 0.82838 0.56411
 H204 H 0.78984 0.88166 0.53006
 H205 H 0.81248 0.85600 0.50970
 H206 H 0.81412 0.76735 0.51019
 H207 H 0.83856 0.74309 0.53038
 H208 H 0.86509 0.79804 0.56426
 H209 H 0.84095 0.82235 0.54394
 H210 H 0.74430 0.83844 0.47162
 C211 C 0.18766 0.18842 0.51183
 C212 C 0.18779 0.18817 0.48971
 C213 C 0.17395 0.20307 0.47677
 C214 C 0.20114 0.17241 0.47740
 C215 C 0.20255 0.17459 0.52478
 C216 C 0.17203 0.20188 0.52419
 C217 C 0.15973 0.19454 0.46119
 C218 C 0.14594 0.20823 0.44956
 C219 C 0.14631 0.23061 0.45323
 C220 C 0.16082 0.23931 0.46834
 C221 C 0.17466 0.22562 0.47998
 C222 C 0.19910 0.15001 0.48108
 C223 C 0.21186 0.13533 0.46951
 C224 C 0.22660 0.14288 0.45399
 C225 C 0.22843 0.16515 0.44997
 C226 C 0.21570 0.17985 0.46155
 C227 C 0.22507 0.17527 0.52147
 C228 C 0.23875 0.16154 0.53326
 C229 C 0.23007 0.14720 0.54861
 C230 C 0.20773 0.14684 0.55233
 C231 C 0.19405 0.16051 0.54055
 C232 C 0.17959 0.21638 0.53999
 C233 C 0.16500 0.22900 0.55183
 C234 C 0.14272 0.22711 0.54810
 C235 C 0.13507 0.21247 0.53257
 C236 C 0.14963 0.19983 0.52075
 H237 H 0.15898 0.17722 0.45841
 H238 H 0.13480 0.20133 0.43788
 H239 H 0.16129 0.25661 0.47125
 H240 H 0.18577 0.23256 0.49165
 H241 H 0.18764 0.14392 0.49291
 H242 H 0.21021 0.11812 0.47264
 H243 H 0.21736 0.19704 0.45836
 H244 H 0.23199 0.18628 0.50966
 H245 H 0.25603 0.16200 0.53031
 H246 H 0.20085 0.13582 0.56417
 H247 H 0.17676 0.15980 0.54340
 H248 H 0.19678 0.21804 0.54300
 H249 H 0.17109 0.24022 0.56387
 H250 H 0.11785 0.21078 0.52967
 H251 H 0.14345 0.18839 0.50897
 H252 H 0.23972 0.17115 0.43793
 C253 C 0.18806 0.81123 0.48823
 C254 C 0.18816 0.81147 0.51034
 C255 C 0.17430 0.79657 0.52326
 C256 C 0.20149 0.82724 0.52268
 C257 C 0.20294 0.82509 0.47529
 C258 C 0.17243 0.79778 0.47585
 C259 C 0.16008 0.80509 0.53882
 C260 C 0.14627 0.79140 0.55043
 C261 C 0.14663 0.76902 0.54675
 C262 C 0.16114 0.76033 0.53166
 C263 C 0.17501 0.77401 0.52004
 C264 C 0.19941 0.84965 0.51900
 C265 C 0.21214 0.86434 0.53059
 C266 C 0.22689 0.85681 0.54612
 C267 C 0.22875 0.83454 0.55013
 C268 C 0.21605 0.81982 0.53853
 C269 C 0.22545 0.82446 0.47862
 C270 C 0.23912 0.83821 0.46684
 C271 C 0.23043 0.85253 0.45149
 C272 C 0.20809 0.85284 0.44774
 C273 C 0.19443 0.83915 0.45951
 C274 C 0.17999 0.78327 0.46006
 C275 C 0.16540 0.77065 0.44822
 C276 C 0.14312 0.77255 0.45191
 C277 C 0.13546 0.78721 0.46742
 C278 C 0.15003 0.79985 0.47926
 H279 H 0.15933 0.82240 0.54161
 H280 H 0.13512 0.79830 0.56209
 H281 H 0.16161 0.74302 0.52874
 H282 H 0.18612 0.76708 0.50839
 H283 H 0.18795 0.85572 0.50717
 H284 H 0.21047 0.88155 0.52747
 H285 H 0.21773 0.80263 0.54171
 H286 H 0.23238 0.81346 0.49045
 H287 H 0.25640 0.83779 0.46982
 H288 H 0.20121 0.86385 0.43589
 H289 H 0.17714 0.83984 0.45664
 H290 H 0.19718 0.78160 0.45708
 H291 H 0.17149 0.75943 0.43618
 H292 H 0.11825 0.78891 0.47030
 H293 H 0.14385 0.81129 0.49102
 H294 H 0.24005 0.82856 0.56217
 C295 C 0.81213 0.18788 0.48721
 C296 C 0.81235 0.18800 0.50932
 C297 C 0.82797 0.20145 0.52173
 C298 C 0.79755 0.17404 0.52224
 C299 C 0.79875 0.17217 0.47483
 C300 C 0.82588 0.20291 0.47432
 C301 C 0.85037 0.19955 0.51822
 C302 C 0.86491 0.21216 0.53014
 C303 C 0.85723 0.22662 0.54581
 C304 C 0.83496 0.22838 0.54959
 C305 C 0.82040 0.21579 0.53767
 C306 C 0.80616 0.15989 0.53788
 C307 C 0.79256 0.14615 0.54968
 C308 C 0.77019 0.14651 0.54608
 C309 C 0.76142 0.16091 0.53085
 C310 C 0.77502 0.17470 0.51904
 C311 C 0.78413 0.17967 0.45907
 C312 C 0.77137 0.16502 0.44744
 C313 C 0.77323 0.14272 0.45132
 C314 C 0.78805 0.13512 0.46675
 C315 C 0.80083 0.14974 0.47837
 C316 C 0.82511 0.22543 0.47769
 C317 C 0.83893 0.23924 0.46616
 C318 C 0.85347 0.23068 0.45101
 C319 C 0.85388 0.20833 0.44717
 C320 C 0.84011 0.19452 0.45869
 H321 H 0.85657 0.18824 0.50634
 H322 H 0.88213 0.21057 0.52719
 H323 H 0.82885 0.23945 0.56175
 H324 H 0.80320 0.21734 0.54073
 H325 H 0.82346 0.15919 0.54065
 H326 H 0.79951 0.13510 0.56145
 H327 H 0.76803 0.18576 0.50732
 H328 H 0.78244 0.19688 0.45599
 H329 H 0.76002 0.17107 0.43548
 H330 H 0.78972 0.11789 0.46978
 H331 H 0.81234 0.14361 0.49012
 H332 H 0.81399 0.23226 0.48941
 H333 H 0.83843 0.25652 0.46920
 H334 H 0.86505 0.20154 0.43546
 H335 H 0.84090 0.17723 0.45580
 H336 H 0.74412 0.16136 0.52800
 C337 C 0.51077 0.81146 0.81126
 C338 C 0.48870 0.81103 0.81166
 C339 C 0.47552 0.82475 0.79686
 C340 C 0.47661 0.79746 0.82750
 C341 C 0.52396 0.79668 0.82499
 C342 C 0.52285 0.82731 0.79769
 C343 C 0.45981 0.83872 0.80551
 C344 C 0.44787 0.85234 0.79191
 C345 C 0.45138 0.85204 0.76950
 C346 C 0.46665 0.83779 0.76067
 C347 C 0.47859 0.82411 0.77428
 C348 C 0.48034 0.79949 0.84989
 C349 C 0.46879 0.78672 0.86464
 C350 C 0.45325 0.77198 0.85720
 C351 C 0.44925 0.77011 0.83493
 C352 C 0.46080 0.78285 0.82016
 C353 C 0.52091 0.77410 0.82435
 C354 C 0.53292 0.76052 0.83800
 C355 C 0.54822 0.76936 0.85222
 C356 C 0.55168 0.79178 0.85253
 C357 C 0.53968 0.80536 0.83895
 C358 C 0.53867 0.81997 0.78309
 C359 C 0.55024 0.83475 0.77037
 C360 C 0.54624 0.85701 0.77224
 C361 C 0.53069 0.86445 0.78697
 C362 C 0.51913 0.84969 0.79972
 H363 H 0.45714 0.83941 0.82285
 H364 H 0.43609 0.86330 0.79890
 H365 H 0.46944 0.83738 0.74334
 H366 H 0.49036 0.81318 0.76725
 H367 H 0.49213 0.81099 0.85591
 H368 H 0.47192 0.78840 0.88185
 H369 H 0.45757 0.78120 0.80298
 H370 H 0.50913 0.76705 0.81344
 H371 H 0.53016 0.74318 0.83758
 H372 H 0.56349 0.79878 0.86346
 H373 H 0.54234 0.82270 0.83963
 H374 H 0.54190 0.80280 0.78145
 H375 H 0.56230 0.82883 0.75909
 H376 H 0.52757 0.88164 0.78864
 H377 H 0.50734 0.85570 0.81122
 H378 H 0.43719 0.75882 0.82900
 C379 C 0.51092 0.18863 0.18894
 C380 C 0.48885 0.18899 0.18850
 C381 C 0.47569 0.17524 0.20329
 C382 C 0.47675 0.20253 0.17265
 C383 C 0.52408 0.20344 0.17520
 C384 C 0.52304 0.17283 0.20253
 C385 C 0.46000 0.16124 0.19461
 C386 C 0.44805 0.14762 0.20820
 C387 C 0.45152 0.14794 0.23062
 C388 C 0.46677 0.16220 0.23946
 C389 C 0.47873 0.17589 0.22588
 C390 C 0.48049 0.20050 0.15026
 C391 C 0.46894 0.21325 0.13549
 C392 C 0.45339 0.22798 0.14292
 C393 C 0.44937 0.22984 0.16518
 C394 C 0.46093 0.21712 0.17997
 C395 C 0.52099 0.22601 0.17583
 C396 C 0.53295 0.23962 0.16217
 C397 C 0.54825 0.23080 0.14794
 C398 C 0.55176 0.20840 0.14764
 C399 C 0.53981 0.19479 0.16125
 C400 C 0.53884 0.18023 0.21712
 C401 C 0.55046 0.16550 0.22985
 C402 C 0.54652 0.14323 0.22800
 C403 C 0.53098 0.13573 0.21328
 C404 C 0.51937 0.15044 0.20052
 H405 H 0.45734 0.16055 0.17727
 H406 H 0.43628 0.13665 0.20120
 H407 H 0.46954 0.16263 0.25680
 H408 H 0.49048 0.18683 0.23292
 H409 H 0.49229 0.18901 0.14425
 H410 H 0.47208 0.21158 0.11829
 H411 H 0.45769 0.21877 0.19714
 H412 H 0.50920 0.23303 0.18675
 H413 H 0.53016 0.25695 0.16257
 H414 H 0.56357 0.20141 0.13671
 H415 H 0.54250 0.17746 0.16057
 H416 H 0.54203 0.19741 0.21875
 H417 H 0.56252 0.17147 0.24112
 H418 H 0.52791 0.11852 0.21161
 H419 H 0.50759 0.14438 0.18903
 H420 H 0.43731 0.24112 0.17110
 C421 C 0.48916 0.18868 0.81102
 C422 C 0.51123 0.18913 0.81145
 C423 C 0.52442 0.17548 0.79667
 C424 C 0.52327 0.20263 0.82732
 C425 C 0.47597 0.20345 0.82469
 C426 C 0.47712 0.17281 0.79754
 C427 C 0.54009 0.16143 0.80534
 C428 C 0.55192 0.14777 0.79176
 C429 C 0.54834 0.14810 0.76935
 C430 C 0.53313 0.16246 0.76051
 C431 C 0.52130 0.17618 0.77409
 C432 C 0.51949 0.20047 0.84970
 C433 C 0.53087 0.21328 0.86448
 C434 C 0.54630 0.22819 0.85708
 C435 C 0.55039 0.23016 0.83483
 C436 C 0.53900 0.21738 0.82002
 C437 C 0.47905 0.22603 0.82398
 C438 C 0.46717 0.23960 0.83767
 C439 C 0.45197 0.23074 0.85202
 C440 C 0.44844 0.20833 0.85238
 C441 C 0.46031 0.19476 0.83874
 C442 C 0.46136 0.18009 0.78282
 C443 C 0.44995 0.16527 0.77007
 C444 C 0.45405 0.14304 0.77205
 C445 C 0.46951 0.13565 0.78693
 C446 C 0.48092 0.15044 0.79970
 H447 H 0.54279 0.16070 0.82268
 H448 H 0.56366 0.13674 0.79876
 H449 H 0.53029 0.16289 0.74318
 H450 H 0.50955 0.18716 0.76705
 H451 H 0.50776 0.18886 0.85567
 H452 H 0.52769 0.21152 0.88167
 H453 H 0.54226 0.21913 0.80285
 H454 H 0.49079 0.23308 0.81299
 H455 H 0.46998 0.25693 0.83722
 H456 H 0.43670 0.20132 0.86341
 H457 H 0.45764 0.17742 0.83948
 H458 H 0.45809 0.19726 0.78107
 H459 H 0.43794 0.17115 0.75867
 H460 H 0.47270 0.11846 0.78869
 H461 H 0.49267 0.14447 0.81129
 H462 H 0.56236 0.24158 0.82895
 C463 C 0.48947 0.81210 0.18847
 C464 C 0.51155 0.81171 0.18804
 C465 C 0.52471 0.82539 0.20284
 C466 C 0.52361 0.79821 0.17220
 C467 C 0.47631 0.79728 0.17482
 C468 C 0.47740 0.82793 0.20198
 C469 C 0.54037 0.83947 0.19418
 C470 C 0.55221 0.85313 0.20778
 C471 C 0.54865 0.85276 0.23019
 C472 C 0.53345 0.83838 0.23901
 C473 C 0.52161 0.82466 0.22542
 C474 C 0.51981 0.80030 0.14982
 C475 C 0.53119 0.78747 0.13506
 C476 C 0.54664 0.77260 0.14250
 C477 C 0.55075 0.77070 0.16475
 C478 C 0.53936 0.78351 0.17953
 C479 C 0.47942 0.77471 0.17557
 C480 C 0.46754 0.76109 0.16192
 C481 C 0.45230 0.76988 0.14757
 C482 C 0.44873 0.79229 0.14717
 C483 C 0.46061 0.80591 0.16077
 C484 C 0.46167 0.82058 0.21669
 C485 C 0.45023 0.83534 0.22948
 C486 C 0.45428 0.85759 0.22756
 C487 C 0.46972 0.86505 0.21269
 C488 C 0.48115 0.85031 0.19987
 H489 H 0.54306 0.84022 0.17684
 H490 H 0.56394 0.86417 0.20079
 H491 H 0.53063 0.83791 0.25634
 H492 H 0.50988 0.81366 0.23245
 H493 H 0.50806 0.81188 0.14381
 H494 H 0.52799 0.78917 0.11787
 H495 H 0.54263 0.78181 0.19670
 H496 H 0.49119 0.76771 0.18656
 H497 H 0.47037 0.74377 0.16240
 H498 H 0.43696 0.79925 0.13615
 H499 H 0.45790 0.82324 0.16000
 H500 H 0.45843 0.80340 0.21841
 H501 H 0.43825 0.82940 0.24087
 H502 H 0.47288 0.88224 0.21096
 H503 H 0.49289 0.85633 0.18829
 H504 H 0.56274 0.75931 0.17067
 C505 C 0.81160 0.51115 0.81198
 C506 C 0.81174 0.48905 0.81172
 C507 C 0.79690 0.47608 0.82560
 C508 C 0.82734 0.47669 0.79822
 C509 C 0.82540 0.52411 0.79705
 C510 C 0.79827 0.52346 0.82777
 C511 C 0.80547 0.46032 0.83965
 C512 C 0.79185 0.44850 0.85334
 C513 C 0.76949 0.45219 0.85304
 C514 C 0.76076 0.46753 0.83873
 C515 C 0.77438 0.47935 0.82498
 C516 C 0.84975 0.48013 0.80021
 C517 C 0.86428 0.46830 0.78754
 C518 C 0.85658 0.45276 0.77293
 C519 C 0.83430 0.44905 0.77108
 C520 C 0.81975 0.46089 0.78373
 C521 C 0.82464 0.52089 0.77450
 C522 C 0.83849 0.53250 0.76078
 C523 C 0.85303 0.54759 0.76946
 C524 C 0.85344 0.55127 0.79184
 C525 C 0.83965 0.53966 0.80555
 C526 C 0.78367 0.53928 0.82036
 C527 C 0.77094 0.55082 0.83509
 C528 C 0.77281 0.54680 0.85736
 C529 C 0.78760 0.53131 0.86488
 C530 C 0.80035 0.51977 0.85018
 H531 H 0.82276 0.45749 0.84032
 H532 H 0.79877 0.43666 0.86434
 H533 H 0.74347 0.47045 0.83833
 H534 H 0.76742 0.49116 0.81399
 H535 H 0.85595 0.49191 0.81163
 H536 H 0.88150 0.47119 0.78920
 H537 H 0.80255 0.45789 0.78211
 H538 H 0.81351 0.50924 0.76758
 H539 H 0.83799 0.52958 0.74348
 H540 H 0.86462 0.56292 0.79872
 H541 H 0.84044 0.54244 0.82287
 H542 H 0.78197 0.54247 0.80317
 H543 H 0.75962 0.56284 0.82911
 H544 H 0.78928 0.52817 0.88209
 H545 H 0.81184 0.50796 0.85624
 H546 H 0.82818 0.43700 0.75989
 C547 C 0.18809 0.51044 0.18815
 C548 C 0.18828 0.48833 0.18807
 C549 C 0.20163 0.47592 0.17238
 C550 C 0.17449 0.47548 0.20309
 C551 C 0.17246 0.52288 0.20155
 C552 C 0.20292 0.52332 0.17418
 C553 C 0.19954 0.47942 0.14995
 C554 C 0.21227 0.46774 0.13534
 C555 C 0.22705 0.45230 0.14298
 C556 C 0.22894 0.44847 0.16529
 C557 C 0.21622 0.46015 0.17992
 C558 C 0.16027 0.45984 0.19470
 C559 C 0.14649 0.44832 0.20849
 C560 C 0.14688 0.45217 0.23084
 C561 C 0.16140 0.46734 0.23941
 C562 C 0.17523 0.47887 0.22562
 C563 C 0.18002 0.53880 0.21592
 C564 C 0.16545 0.55070 0.22849
 C565 C 0.14317 0.54692 0.22668
 C566 C 0.13551 0.53127 0.21218
 C567 C 0.15006 0.51937 0.19958
 C568 C 0.22545 0.52009 0.17485
 C569 C 0.23907 0.53184 0.16103
 C570 C 0.23032 0.54707 0.14661
 C571 C 0.20797 0.55070 0.14624
 C572 C 0.19434 0.53896 0.16000
 H573 H 0.18805 0.49117 0.14379
 H574 H 0.21059 0.47073 0.11811
 H575 H 0.24026 0.43649 0.17136
 H576 H 0.21793 0.45711 0.19714
 H577 H 0.15950 0.45692 0.17740
 H578 H 0.13534 0.43660 0.20170
 H579 H 0.18634 0.49060 0.23246
 H580 H 0.19722 0.54185 0.21751
 H581 H 0.17154 0.56284 0.23959
 H582 H 0.11829 0.52831 0.21055
 H583 H 0.14388 0.50750 0.18825
 H584 H 0.23242 0.50838 0.18594
 H585 H 0.25636 0.52897 0.16150
 H586 H 0.20104 0.56246 0.13516
 H587 H 0.17705 0.54175 0.15929
 H588 H 0.16188 0.47040 0.25670
 C589 C 0.81145 0.48886 0.18817
 C590 C 0.81163 0.51097 0.18842
 C591 C 0.79682 0.52395 0.17453
 C592 C 0.82726 0.52331 0.20190
 C593 C 0.82526 0.47590 0.20309
 C594 C 0.79810 0.47657 0.17239
 C595 C 0.80541 0.53970 0.16048
 C596 C 0.79181 0.55153 0.14678
 C597 C 0.76946 0.54788 0.14706
 C598 C 0.76069 0.53255 0.16136
 C599 C 0.77429 0.52071 0.17513
 C600 C 0.84966 0.51986 0.19988
 C601 C 0.86422 0.53168 0.21254
 C602 C 0.85656 0.54720 0.22717
 C603 C 0.83429 0.55093 0.22905
 C604 C 0.81970 0.53910 0.21641
 C605 C 0.82454 0.47913 0.22565
 C606 C 0.83840 0.46751 0.23935
 C607 C 0.85291 0.45241 0.23066
 C608 C 0.85328 0.44873 0.20828
 C609 C 0.83948 0.46034 0.19458
 C610 C 0.78348 0.46077 0.17979
 C611 C 0.77074 0.44922 0.16507
 C612 C 0.77263 0.45323 0.14279
 C613 C 0.78745 0.46870 0.13528
 C614 C 0.80021 0.48023 0.14998
 H615 H 0.82271 0.54250 0.15982
 H616 H 0.79876 0.56336 0.13579
 H617 H 0.74339 0.52965 0.16176
 H618 H 0.76730 0.50890 0.18611
 H619 H 0.85583 0.50808 0.18844
 H620 H 0.88143 0.52877 0.21086
 H621 H 0.80251 0.54212 0.21805
 H622 H 0.81343 0.49079 0.23258
 H623 H 0.83793 0.47043 0.25665
 H624 H 0.86444 0.43707 0.20139
 H625 H 0.84024 0.45755 0.17726
 H626 H 0.78177 0.45760 0.19699
 H627 H 0.75939 0.43722 0.17104
 H628 H 0.78914 0.47182 0.11807
 H629 H 0.81172 0.49202 0.14392
 H630 H 0.82820 0.56298 0.24025
 C631 C 0.18771 0.48937 0.81226
 C632 C 0.18792 0.51148 0.81234
 C633 C 0.20129 0.52389 0.82804
 C634 C 0.17416 0.52434 0.79729
 C635 C 0.17208 0.47694 0.79884
 C636 C 0.20253 0.47649 0.82622
 C637 C 0.19921 0.52038 0.85047
 C638 C 0.21196 0.53205 0.86509
 C639 C 0.22674 0.54749 0.85746
 C640 C 0.22862 0.55134 0.83515
 C641 C 0.21588 0.53966 0.82052
 C642 C 0.15996 0.54000 0.80566
 C643 C 0.14622 0.55154 0.79183
 C644 C 0.14664 0.54768 0.76948
 C645 C 0.16115 0.53249 0.76094
 C646 C 0.17494 0.52095 0.77477
 C647 C 0.17963 0.46100 0.78450
 C648 C 0.16506 0.44911 0.77190
 C649 C 0.14279 0.45291 0.77365
 C650 C 0.13512 0.46858 0.78813
 C651 C 0.14968 0.48047 0.80075
 C652 C 0.22506 0.47972 0.82554
 C653 C 0.23869 0.46798 0.83936
 C654 C 0.22995 0.45276 0.85379
 C655 C 0.20759 0.44913 0.85417
 C656 C 0.19396 0.46086 0.84041
 H657 H 0.18771 0.50862 0.85663
 H658 H 0.21028 0.52905 0.88232
 H659 H 0.23994 0.56331 0.82908
 H660 H 0.21758 0.54272 0.80330
 H661 H 0.15916 0.54292 0.82295
 H662 H 0.13507 0.56327 0.79860
 H663 H 0.18604 0.50921 0.76796
 H664 H 0.19683 0.45793 0.78294
 H665 H 0.17116 0.43695 0.76081
 H666 H 0.11791 0.47155 0.78972
 H667 H 0.14349 0.49236 0.81206
 H668 H 0.23203 0.49143 0.81445
 H669 H 0.25599 0.47085 0.83888
 H670 H 0.20067 0.43737 0.86526
 H671 H 0.17666 0.45807 0.84113
 H672 H 0.16166 0.52943 0.74366
 C673 C 0.28782 0.39727 0.07187
 C674 C 0.27136 0.38305 0.08397
 C675 C 0.25909 0.39418 0.09854
 C676 C 0.26448 0.41845 0.09958
 C677 C 0.26209 0.42666 0.07620
 C678 C 0.27435 0.41553 0.06163
 C679 C 0.30114 0.40830 0.08973
 C680 C 0.28887 0.41944 0.10431
 C681 C 0.30092 0.38530 0.05608
 C682 C 0.31143 0.37551 0.04287
 C683 C 0.25121 0.43046 0.11520
 C684 C 0.24022 0.44038 0.12791
 H685 H 0.26951 0.36575 0.08133
 H686 H 0.24674 0.38642 0.10838
 H687 H 0.25168 0.44005 0.07149
 H688 H 0.27445 0.41939 0.04444
 H689 H 0.31866 0.40743 0.09083
 H690 H 0.29587 0.42811 0.11790
 C691 C 0.70936 0.60254 0.07490
 C692 C 0.72606 0.58705 0.06497
 C693 C 0.73783 0.57593 0.07999
 C694 C 0.73178 0.58138 0.10349
 C695 C 0.70732 0.57717 0.10499
 C696 C 0.69553 0.58831 0.08995
 C697 C 0.72243 0.61721 0.09014
 C698 C 0.73422 0.60609 0.10516
 C699 C 0.69684 0.61451 0.05859
 C700 C 0.68686 0.62429 0.04491
 C701 C 0.74466 0.56940 0.11950
 C702 C 0.75571 0.55958 0.13228
 H703 H 0.72841 0.58498 0.04765
 H704 H 0.75027 0.56434 0.07553
 H705 H 0.69993 0.56642 0.11682
 H706 H 0.67803 0.58710 0.08889
 H707 H 0.72241 0.63479 0.08922
 H708 H 0.74429 0.61413 0.11712
 C709 C 0.70924 0.39767 0.92517
 C710 C 0.69534 0.40942 0.90817
 C711 C 0.70717 0.42053 0.89314
 C712 C 0.73172 0.41877 0.89660
 C713 C 0.73646 0.39435 0.89702
 C714 C 0.72464 0.38325 0.91204
 C715 C 0.72371 0.41534 0.93497
 C716 C 0.73552 0.42643 0.91996
 C717 C 0.69668 0.38573 0.94148
 C718 C 0.68667 0.37596 0.95514
 C719 C 0.74465 0.43072 0.88060
 C720 C 0.75572 0.44052 0.86782
 H721 H 0.67777 0.40904 0.90796
 H722 H 0.69974 0.42967 0.88005
 H723 H 0.74806 0.38646 0.88644
 H724 H 0.72612 0.36586 0.91432
 H725 H 0.72459 0.41885 0.95219
 H726 H 0.74652 0.43944 0.92432
 C727 C 0.28765 0.60254 0.92851
 C728 C 0.30101 0.58919 0.91235
 C729 C 0.28870 0.57804 0.89780
 C730 C 0.26426 0.58134 0.90083
 C731 C 0.26091 0.60598 0.89987
 C732 C 0.27321 0.61713 0.91442
 C733 C 0.27210 0.58622 0.93906
 C734 C 0.25981 0.57508 0.92452
 C735 C 0.30079 0.61453 0.94427
 C736 C 0.31133 0.62434 0.95746
 C737 C 0.25096 0.56932 0.88524
 C738 C 0.23994 0.55940 0.87253
 H739 H 0.31857 0.58856 0.91233
 H740 H 0.29573 0.56786 0.88531
 H741 H 0.24987 0.61398 0.88874
 H742 H 0.27270 0.63467 0.91575
 H743 H 0.27086 0.58364 0.95644
 H744 H 0.24804 0.56295 0.92943
 C745 C 0.07394 0.29171 0.40000
 C746 C 0.08833 0.27800 0.38508
 C747 C 0.10335 0.26596 0.39591
 C748 C 0.10252 0.26881 0.42061
 C749 C 0.07908 0.26346 0.42695
 C750 C 0.06407 0.27550 0.41612
 C751 C 0.08977 0.30536 0.41348
 C752 C 0.10481 0.29330 0.42433
 C753 C 0.05767 0.30452 0.38829
 C754 C 0.04414 0.31474 0.37857
 C755 C 0.11856 0.25566 0.43226
 C756 C 0.13141 0.24446 0.44182
 H757 H 0.08686 0.27779 0.36753
 H758 H 0.11474 0.25544 0.38765
 H759 H 0.07467 0.25130 0.43890
 H760 H 0.04680 0.27364 0.41880
 H761 H 0.08923 0.32292 0.41442
 H762 H 0.11714 0.30054 0.43455
 C763 C 0.07413 0.70798 0.59990
 C764 C 0.08859 0.69454 0.58479
 C765 C 0.10365 0.70657 0.57396
 C766 C 0.10276 0.73085 0.57931
 C767 C 0.10493 0.73205 0.60407
 C768 C 0.08988 0.72003 0.61489
 C769 C 0.06429 0.72563 0.58535
 C770 C 0.07933 0.73765 0.57454
 C771 C 0.05783 0.69520 0.61159
 C772 C 0.04428 0.68500 0.62131
 C773 C 0.11882 0.74398 0.56768
 C774 C 0.13170 0.75517 0.55814
 H775 H 0.08714 0.67712 0.58279
 H776 H 0.11510 0.69946 0.56268
 H777 H 0.11722 0.74149 0.61238
 H778 H 0.08928 0.71917 0.63247
 H779 H 0.04702 0.72844 0.58368
 H780 H 0.07494 0.75075 0.56360
 C781 C 0.92776 0.71382 0.39644
 C782 C 0.91490 0.73010 0.38268
 C783 C 0.90051 0.74207 0.39436
 C784 C 0.90040 0.73658 0.41866
 C785 C 0.92396 0.73940 0.42602
 C786 C 0.93835 0.72744 0.41434
 C787 C 0.91058 0.70010 0.40809
 C788 C 0.89618 0.71207 0.41978
 C789 C 0.94335 0.70102 0.38390
 C790 C 0.95640 0.69072 0.37368
 C791 C 0.88497 0.74952 0.43123
 C792 C 0.87236 0.76024 0.44157
 H793 H 0.91690 0.73205 0.36530
 H794 H 0.89019 0.75427 0.38699
 H795 H 0.92892 0.74987 0.43925
 H796 H 0.95562 0.72766 0.41757
 H797 H 0.90977 0.68254 0.40724
 H798 H 0.88305 0.70477 0.42893
 C799 C 0.92755 0.28596 0.60343
 C800 C 0.91193 0.27262 0.61748
 C801 C 0.89756 0.26064 0.60576
 C802 C 0.90022 0.26319 0.58114
 C803 C 0.92397 0.25746 0.57661
 C804 C 0.93833 0.26943 0.58832
 C805 C 0.91294 0.29965 0.58862
 C806 C 0.89857 0.28767 0.57690
 C807 C 0.94311 0.29876 0.61601
 C808 C 0.95615 0.30907 0.62626
 C809 C 0.88481 0.25025 0.56852
 C810 C 0.87222 0.23951 0.55815
 H811 H 0.91212 0.27259 0.63508
 H812 H 0.88545 0.25035 0.61332
 H813 H 0.92906 0.24510 0.56519
 H814 H 0.95572 0.26731 0.58694
 H815 H 0.91380 0.31719 0.58745
 H816 H 0.88712 0.29496 0.56569
 C817 C 0.39689 0.07588 0.29091
 C818 C 0.38229 0.09031 0.27683
 C819 C 0.39338 0.10532 0.26498
 C820 C 0.41798 0.10443 0.26838
 C821 C 0.42435 0.08095 0.26324
 C822 C 0.41327 0.06595 0.27508
 C823 C 0.41011 0.09170 0.30480
 C824 C 0.42121 0.10673 0.29295
 C825 C 0.38497 0.05957 0.30349
 C826 C 0.37524 0.04589 0.31351
 C827 C 0.42993 0.12043 0.25544
 C828 C 0.43976 0.13319 0.24436
 H829 H 0.36478 0.08888 0.27623
 H830 H 0.38537 0.11675 0.25424
 H831 H 0.43651 0.07650 0.25136
 H832 H 0.41594 0.04865 0.27333
 H833 H 0.41070 0.09116 0.32239
 H834 H 0.43131 0.11906 0.30038
 C835 C 0.60217 0.07572 0.70914
 C836 C 0.59211 0.09384 0.69531
 C837 C 0.58115 0.10891 0.70714
 C838 C 0.58134 0.10437 0.73163
 C839 C 0.60537 0.10252 0.73769
 C840 C 0.61632 0.08746 0.72587
 C841 C 0.58326 0.06625 0.72222
 C842 C 0.57231 0.08130 0.73404
 C843 C 0.61400 0.05940 0.69658
 C844 C 0.62381 0.04580 0.68662
 C845 C 0.56957 0.12043 0.74456
 C846 C 0.55990 0.13326 0.75563
 H847 H 0.59348 0.09475 0.67778
 H848 H 0.57313 0.12274 0.69976
 H849 H 0.61311 0.11221 0.75016
 H850 H 0.63344 0.08425 0.72821
 H851 H 0.57883 0.04921 0.72219
 H852 H 0.55851 0.07716 0.74413
 C853 C 0.39690 0.92418 0.70919
 C854 C 0.39258 0.92556 0.73365
 C855 C 0.40363 0.91053 0.74548
 C856 C 0.41793 0.89559 0.73171
 C857 C 0.43264 0.91091 0.71873
 C858 C 0.42159 0.92595 0.70689
 C859 C 0.39150 0.90069 0.70303
 C860 C 0.40256 0.88564 0.71488
 C861 C 0.38502 0.94051 0.69660
 C862 C 0.37529 0.95419 0.68657
 C863 C 0.42984 0.87958 0.74466
 C864 C 0.43965 0.86680 0.75574
 H865 H 0.38178 0.93730 0.74103
 H866 H 0.40229 0.90941 0.76300
 H867 H 0.45020 0.91002 0.71882
 H868 H 0.42967 0.93793 0.69683
 H869 H 0.38001 0.89627 0.69047
 H870 H 0.40056 0.86833 0.71248
 C871 C 0.60266 0.92490 0.29062
 C872 C 0.61496 0.91723 0.27042
 C873 C 0.60397 0.90224 0.25855
 C874 C 0.58176 0.89636 0.26802
 C875 C 0.56979 0.91805 0.27022
 C876 C 0.58078 0.93305 0.28210
 C877 C 0.59737 0.90409 0.30328
 C878 C 0.58637 0.88908 0.29139
 C879 C 0.61453 0.94115 0.30324
 C880 C 0.62438 0.95471 0.31326
 C881 C 0.56994 0.88036 0.25503
 C882 C 0.56024 0.86757 0.24393
 H883 H 0.63091 0.92306 0.26585
 H884 H 0.61052 0.89522 0.24381
 H885 H 0.55405 0.92133 0.26309
 H886 H 0.57445 0.94918 0.28514
 H887 H 0.60186 0.90140 0.32009
 H888 H 0.58144 0.87352 0.29801
 C889 C 0.39778 0.29093 0.92416
 C890 C 0.41353 0.27443 0.93412
 C891 C 0.42454 0.26262 0.91911
 C892 C 0.41875 0.26844 0.89561
 C893 C 0.42272 0.29295 0.89380
 C894 C 0.41168 0.30478 0.90883
 C895 C 0.38306 0.27759 0.90922
 C896 C 0.39409 0.26576 0.89421
 C897 C 0.38589 0.30348 0.94043
 C898 C 0.37603 0.31346 0.95399
 C899 C 0.43060 0.25551 0.87960
 C900 C 0.44034 0.24445 0.86681
 H901 H 0.41583 0.27224 0.95144
 H902 H 0.43629 0.25030 0.92358
 H903 H 0.43325 0.30035 0.88179
 H904 H 0.41276 0.32233 0.90969
 H905 H 0.36552 0.27746 0.91031
 H906 H 0.38599 0.25551 0.88244
 C907 C 0.60318 0.70910 0.92404
 C908 C 0.59601 0.69589 0.90423
 C909 C 0.58484 0.70773 0.88925
 C910 C 0.58196 0.73162 0.89557
 C911 C 0.60497 0.74003 0.89973
 C912 C 0.61613 0.72820 0.91469
 C913 C 0.58231 0.71923 0.93294
 C914 C 0.57116 0.73106 0.91798
 C915 C 0.61517 0.69652 0.94029
 C916 C 0.62494 0.68649 0.95393
 C917 C 0.56993 0.74456 0.87964
 C918 C 0.56004 0.75562 0.86692
 H919 H 0.59940 0.67875 0.90215
 H920 H 0.57866 0.70075 0.87434
 H921 H 0.61191 0.75404 0.89161
 H922 H 0.63262 0.73207 0.91939
 H923 H 0.57677 0.71727 0.94953
 H924 H 0.55606 0.73922 0.92176
 C925 C 0.39795 0.70934 0.07578
 C926 C 0.42022 0.69989 0.08153
 C927 C 0.43129 0.71179 0.09647
 C928 C 0.41899 0.73198 0.10419
 C929 C 0.39716 0.72343 0.11248
 C930 C 0.38610 0.71152 0.09754
 C931 C 0.40251 0.73270 0.06848
 C932 C 0.41356 0.74459 0.08341
 C933 C 0.38602 0.69670 0.05959
 C934 C 0.37613 0.68666 0.04608
 C935 C 0.43088 0.74499 0.12011
 C936 C 0.44064 0.75611 0.13284
 H937 H 0.42672 0.68514 0.07450
 H938 H 0.44726 0.70725 0.10225
 H939 H 0.39096 0.72644 0.12866
 H940 H 0.37041 0.70433 0.10092
 H941 H 0.39750 0.73933 0.05295
 H942 H 0.41801 0.76141 0.08065
 C943 C 0.60297 0.29112 0.07598
 C944 C 0.60111 0.26699 0.07027
 C945 C 0.59001 0.25516 0.08526
 C946 C 0.58184 0.26859 0.10450
 C947 C 0.56845 0.28693 0.09431
 C948 C 0.57956 0.29878 0.07931
 C949 C 0.61321 0.29157 0.09866
 C950 C 0.60209 0.27972 0.11367
 C951 C 0.61491 0.30371 0.05970
 C952 C 0.62466 0.31375 0.04605
 C953 C 0.56987 0.25564 0.12047
 C954 C 0.56002 0.24456 0.13322
 H955 H 0.60792 0.25982 0.05573
 H956 H 0.58731 0.23785 0.08355
 H957 H 0.55173 0.29033 0.09852
 H958 H 0.57236 0.31233 0.07067
 H959 H 0.62788 0.30043 0.10260
 H960 H 0.60723 0.27843 0.13046
 C961 C 0.29061 0.07513 0.60288
 C962 C 0.30427 0.08985 0.58814
 C963 C 0.29238 0.10487 0.57709
 C964 C 0.26802 0.10368 0.58187
 C965 C 0.26617 0.10568 0.60661
 C966 C 0.27805 0.09067 0.61765
 C967 C 0.27346 0.06518 0.58789
 C968 C 0.26159 0.08018 0.57685
 C969 C 0.30323 0.05883 0.61476
 C970 C 0.31327 0.04517 0.62449
 C971 C 0.25503 0.11967 0.56999
 C972 C 0.24390 0.13244 0.56023
 H973 H 0.32173 0.08859 0.58654
 H974 H 0.29965 0.11649 0.56602
 H975 H 0.25642 0.11784 0.61473
 H976 H 0.27847 0.08997 0.63524
 H977 H 0.27087 0.04787 0.58609
 H978 H 0.24883 0.07572 0.56560
 C979 C 0.71217 0.07159 0.39655
 C980 C 0.73550 0.06397 0.40046
 C981 C 0.74782 0.07853 0.41154
 C982 C 0.73562 0.09930 0.41765
 C983 C 0.71563 0.09152 0.43025
 C984 C 0.70330 0.07695 0.41916
 C985 C 0.71438 0.09358 0.38504
 C986 C 0.72671 0.10815 0.39613
 C987 C 0.69901 0.05581 0.38461
 C988 C 0.68847 0.04260 0.37483
 C989 C 0.74895 0.11492 0.42960
 C990 C 0.75999 0.12764 0.43948
 H991 H 0.74180 0.04848 0.39500
 H992 H 0.76467 0.07551 0.41558
 H993 H 0.71152 0.09698 0.44646
 H994 H 0.68863 0.06994 0.42586
 H995 H 0.70691 0.09737 0.36955
 H996 H 0.72980 0.12442 0.39015
 C997 C 0.71215 0.92783 0.60308
 C998 C 0.72653 0.93821 0.58561
 C999 C 0.73886 0.92365 0.57455
 C1000 C 0.73563 0.90013 0.58203
 C1001 C 0.71119 0.89602 0.58001
 C1002 C 0.69885 0.91059 0.59109
 C1003 C 0.72778 0.91497 0.61758
 C1004 C 0.74012 0.90041 0.60651
 C1005 C 0.69898 0.94361 0.61498
 C1006 C 0.68843 0.95682 0.62473
 C1007 C 0.74897 0.88452 0.57010
 C1008 C 0.76003 0.87182 0.56024
 H1009 H 0.72697 0.95548 0.58222
 H1010 H 0.74987 0.92846 0.56168
 H1011 H 0.70420 0.88284 0.57072
 H1012 H 0.68129 0.90989 0.59127
 H1013 H 0.72903 0.91710 0.63500
 H1014 H 0.75194 0.89007 0.61446
 C1015 C 0.29080 0.92473 0.39717
 C1016 C 0.30156 0.90231 0.39818
 C1017 C 0.28971 0.88725 0.40925
 C1018 C 0.26829 0.89612 0.41821
 C1019 C 0.25649 0.90563 0.39846
 C1020 C 0.26832 0.92067 0.38741
 C1021 C 0.28654 0.93085 0.42090
 C1022 C 0.27471 0.91582 0.43196
 C1023 C 0.30337 0.94106 0.38528
 C1024 C 0.31337 0.95475 0.37554
 C1025 C 0.25535 0.88010 0.43010
 C1026 C 0.24424 0.86731 0.43987
 H1027 H 0.31710 0.89859 0.39085
 H1028 H 0.29510 0.87064 0.41141
 H1029 H 0.24026 0.90096 0.39357
 H1030 H 0.26222 0.92886 0.37305
 H1031 H 0.29232 0.94568 0.42837
 H1032 H 0.27036 0.91777 0.44890
 C1033 C 0.07237 0.39570 0.71404
 C1034 C 0.09441 0.38451 0.71674
 C1035 C 0.10880 0.39613 0.72878
 C1036 C 0.09975 0.41781 0.73693
 C1037 C 0.07899 0.41187 0.74926
 C1038 C 0.06460 0.40025 0.73723
 C1039 C 0.07759 0.41808 0.70443
 C1040 C 0.09199 0.42971 0.71647
 C1041 C 0.05678 0.38322 0.70117
 C1042 C 0.04373 0.37307 0.69079
 C1043 C 0.11519 0.43033 0.74994
 C1044 C 0.12780 0.44063 0.76072
 H1045 H 0.09835 0.36884 0.70980
 H1046 H 0.12508 0.39043 0.73215
 H1047 H 0.07586 0.41639 0.76597
 H1048 H 0.04915 0.39481 0.74364
 H1049 H 0.07061 0.42425 0.68949
 H1050 H 0.09733 0.44584 0.71184
 C1051 C 0.07267 0.60409 0.28613
 C1052 C 0.08719 0.58915 0.29976
 C1053 C 0.10161 0.57754 0.28776
 C1054 C 0.10009 0.58200 0.26330
 C1055 C 0.10279 0.60664 0.26100
 C1056 C 0.08837 0.61825 0.27300
 C1057 C 0.06196 0.58914 0.26939
 C1058 C 0.07637 0.57753 0.25740
 C1059 C 0.05705 0.61655 0.29896
 C1060 C 0.04399 0.62670 0.30930
 C1061 C 0.11555 0.56949 0.25033
 C1062 C 0.12817 0.55920 0.23958
 H1063 H 0.08624 0.58783 0.31729
 H1064 H 0.11302 0.56626 0.29501
 H1065 H 0.11496 0.61429 0.25084
 H1066 H 0.08819 0.63585 0.27312
 H1067 H 0.04458 0.58779 0.26716
 H1068 H 0.07133 0.56624 0.24490
 C1069 C 0.92549 0.39951 0.29181
 C1070 C 0.91041 0.38446 0.27899
 C1071 C 0.89534 0.39522 0.26695
 C1072 C 0.89683 0.41998 0.26888
 C1073 C 0.92026 0.42556 0.26274
 C1074 C 0.93532 0.41480 0.27479
 C1075 C 0.91034 0.41384 0.30534
 C1076 C 0.89526 0.42461 0.29328
 C1077 C 0.94181 0.38788 0.30462
 C1078 C 0.95537 0.37821 0.31485
 C1079 C 0.88074 0.43155 0.25573
 C1080 C 0.86785 0.44106 0.24452
 H1081 H 0.91145 0.36690 0.27937
 H1082 H 0.88348 0.38688 0.25700
 H1083 H 0.92464 0.43697 0.25005
 H1084 H 0.95260 0.41700 0.27241
 H1085 H 0.91137 0.41538 0.32284
 H1086 H 0.88337 0.43538 0.30045
 C1087 C 0.92556 0.60043 0.70819
 C1088 C 0.91124 0.61544 0.72187
 C1089 C 0.89618 0.60470 0.73395
 C1090 C 0.89691 0.57999 0.73116
 C1091 C 0.92033 0.57358 0.73651
 C1092 C 0.93538 0.58432 0.72444
 C1093 C 0.90967 0.58698 0.69459
 C1094 C 0.89460 0.57622 0.70667
 C1095 C 0.94187 0.61204 0.69534
 C1096 C 0.95543 0.62169 0.68509
 C1097 C 0.88084 0.56843 0.74435
 C1098 C 0.86796 0.55894 0.75558
 H1099 H 0.91278 0.63297 0.72205
 H1100 H 0.88483 0.61302 0.74446
 H1101 H 0.92471 0.56163 0.74870
 H1102 H 0.95264 0.58157 0.72629
 H1103 H 0.91021 0.58599 0.67702
 H1104 H 0.88222 0.56603 0.69947
 C1105 C 0.71188 0.60165 0.92848
 C1106 C 0.72400 0.61628 0.91237
 C1107 C 0.73631 0.60512 0.89785
 C1108 C 0.73529 0.58043 0.90085
 C1109 C 0.71110 0.57479 0.89980
 C1110 C 0.69879 0.58595 0.91433
 C1111 C 0.72950 0.58763 0.93907
 C1112 C 0.74180 0.57648 0.92455
 C1113 C 0.69874 0.61370 0.94417
 C1114 C 0.68820 0.62369 0.95721
 C1115 C 0.74860 0.56844 0.88526
 C1116 C 0.75962 0.55858 0.87252
 H1117 H 0.72300 0.63385 0.91236
 H1118 H 0.74585 0.61314 0.88541
 H1119 H 0.70425 0.56307 0.88864
 H1120 H 0.68140 0.58379 0.91561
 H1121 H 0.73208 0.58655 0.95646
 H1122 H 0.75492 0.56585 0.92950
 C1123 C 0.29045 0.39809 0.92560
 C1124 C 0.30427 0.41113 0.90951
 C1125 C 0.29238 0.42231 0.89458
 C1126 C 0.26784 0.41933 0.89724
 C1127 C 0.26305 0.42584 0.92076
 C1128 C 0.27493 0.41468 0.93566
 C1129 C 0.27608 0.38356 0.91145
 C1130 C 0.26419 0.39473 0.89654
 C1131 C 0.30309 0.38603 0.94176
 C1132 C 0.31316 0.37606 0.95523
 C1133 C 0.25485 0.43132 0.88133
 C1134 C 0.24374 0.44112 0.86858
 H1135 H 0.32184 0.41155 0.90981
 H1136 H 0.29975 0.43231 0.88209
 H1137 H 0.25137 0.43816 0.92531
 H1138 H 0.27342 0.41744 0.95298
 H1139 H 0.27532 0.36604 0.91299
 H1140 H 0.25326 0.38677 0.88530
 C1141 C 0.29068 0.60185 0.07476
 C1142 C 0.27630 0.61634 0.08893
 C1143 C 0.26446 0.60515 0.10385
 C1144 C 0.26815 0.58056 0.10315
 C1145 C 0.29269 0.57763 0.10578
 C1146 C 0.30455 0.58883 0.09084
 C1147 C 0.27517 0.58522 0.06472
 C1148 C 0.26333 0.57403 0.07964
 C1149 C 0.30326 0.61393 0.05858
 C1150 C 0.31330 0.62391 0.04510
 C1151 C 0.25519 0.56854 0.11907
 C1152 C 0.24410 0.55872 0.13183
 H1153 H 0.27551 0.63386 0.08739
 H1154 H 0.25352 0.61308 0.11510
 H1155 H 0.30009 0.56765 0.11826
 H1156 H 0.32211 0.58845 0.09052
 H1157 H 0.27364 0.58246 0.04740
 H1158 H 0.25166 0.56168 0.07510
 C1159 C 0.71168 0.39844 0.07162
 C1160 C 0.73319 0.38725 0.07710
 C1161 C 0.74550 0.39838 0.09164
 C1162 C 0.73510 0.41963 0.09928
 C1163 C 0.71280 0.41305 0.10811
 C1164 C 0.70048 0.40191 0.09356
 C1165 C 0.71802 0.42125 0.06388
 C1166 C 0.73033 0.43238 0.07842
 C1167 C 0.69853 0.38642 0.05591
 C1168 C 0.68798 0.37646 0.04285
 C1169 C 0.74841 0.43160 0.11489
 C1170 C 0.75943 0.44145 0.12764
 H1171 H 0.73831 0.37192 0.07018
 H1172 H 0.76116 0.39259 0.09717
 H1173 H 0.70718 0.41681 0.12435
 H1174 H 0.68431 0.39612 0.09734
 H1175 H 0.71324 0.42805 0.04835
 H1176 H 0.73610 0.44873 0.07534
 C1177 C 0.92624 0.70751 0.60106
 C1178 C 0.91376 0.69478 0.58372
 C1179 C 0.89864 0.70688 0.57304
 C1180 C 0.89751 0.73049 0.58076
 C1181 C 0.92067 0.73920 0.57837
 C1182 C 0.93576 0.72713 0.58904
 C1183 C 0.90874 0.71696 0.61598
 C1184 C 0.89364 0.72904 0.60530
 C1185 C 0.94259 0.69468 0.61260
 C1186 C 0.95620 0.68446 0.62222
 C1187 C 0.88139 0.74369 0.56929
 C1188 C 0.86849 0.75496 0.55988
 H1189 H 0.91654 0.67779 0.58015
 H1190 H 0.88847 0.70024 0.56032
 H1191 H 0.92485 0.75359 0.56910
 H1192 H 0.95287 0.73117 0.58890
 H1193 H 0.90825 0.71437 0.63339
 H1194 H 0.88021 0.73680 0.61357
 C1195 C 0.92613 0.29218 0.39867
 C1196 C 0.93588 0.27605 0.41495
 C1197 C 0.92079 0.26395 0.42559
 C1198 C 0.89741 0.26914 0.41893
 C1199 C 0.89692 0.26625 0.39422
 C1200 C 0.91202 0.27836 0.38358
 C1201 C 0.91005 0.30575 0.41191
 C1202 C 0.89494 0.29363 0.42257
 C1203 C 0.94248 0.30505 0.38716
 C1204 C 0.95609 0.31529 0.37757
 C1205 C 0.88130 0.25592 0.43037
 C1206 C 0.86840 0.24463 0.43977
 H1207 H 0.95312 0.27431 0.41788
 H1208 H 0.92511 0.25183 0.43764
 H1209 H 0.88569 0.25564 0.38583
 H1210 H 0.91372 0.27812 0.36606
 H1211 H 0.91049 0.32332 0.41282
 H1212 H 0.88243 0.30081 0.43261
 C1213 C 0.07201 0.28662 0.60493
 C1214 C 0.08753 0.27337 0.61918
 C1215 C 0.10201 0.26137 0.60764
 C1216 C 0.09955 0.26380 0.58298
 C1217 C 0.10121 0.28827 0.57865
 C1218 C 0.08673 0.30027 0.59019
 C1219 C 0.06138 0.27001 0.58980
 C1220 C 0.07585 0.25801 0.57827
 C1221 C 0.05633 0.29944 0.61731
 C1222 C 0.04317 0.30974 0.62739
 C1223 C 0.11506 0.25083 0.57055
 C1224 C 0.12771 0.24006 0.56032
 H1225 H 0.08719 0.27341 0.63678
 H1226 H 0.11407 0.25113 0.61535
 H1227 H 0.11274 0.29552 0.56751
 H1228 H 0.08585 0.31781 0.58894
 H1229 H 0.04400 0.26785 0.58828
 H1230 H 0.07087 0.24559 0.56686
 C1231 C 0.07233 0.71310 0.39509
 C1232 C 0.06174 0.72846 0.41152
 C1233 C 0.07624 0.74044 0.42305
 C1234 C 0.09991 0.73589 0.41703
 C1235 C 0.10117 0.73969 0.39245
 C1236 C 0.08667 0.72770 0.38092
 C1237 C 0.08820 0.69934 0.40845
 C1238 C 0.10271 0.71133 0.41999
 C1239 C 0.05662 0.70030 0.38272
 C1240 C 0.04345 0.69001 0.37264
 C1241 C 0.11545 0.74885 0.42945
 C1242 C 0.12811 0.75961 0.43969
 H1243 H 0.04438 0.72981 0.41389
 H1244 H 0.07130 0.75205 0.43529
 H1245 H 0.11247 0.75079 0.38479
 H1246 H 0.08554 0.72854 0.36337
 H1247 H 0.08806 0.68175 0.40881
 H1248 H 0.11500 0.70401 0.43023
 C1249 C 0.60202 0.92831 0.71201
 C1250 C 0.58577 0.93886 0.72757
 C1251 C 0.57442 0.92430 0.73973
 C1252 C 0.58044 0.90062 0.73514
 C1253 C 0.60502 0.89942 0.73861
 C1254 C 0.61637 0.91397 0.72645
 C1255 C 0.58858 0.91238 0.69846
 C1256 C 0.57722 0.89782 0.71062
 C1257 C 0.61423 0.94406 0.69900
 C1258 C 0.62420 0.95721 0.68850
 C1259 C 0.56822 0.88499 0.74829
 C1260 C 0.55819 0.87221 0.75917
 H1261 H 0.58338 0.95624 0.72892
 H1262 H 0.56231 0.92922 0.75149
 H1263 H 0.61282 0.88812 0.74964
 H1264 H 0.63389 0.91515 0.72706
 H1265 H 0.58802 0.91253 0.68086
 H1266 H 0.56694 0.88549 0.70345
 C1267 C 0.39918 0.92871 0.28824
 C1268 C 0.41319 0.91311 0.30167
 C1269 C 0.42444 0.89860 0.28942
 C1270 C 0.42056 0.90111 0.26495
 C1271 C 0.42612 0.92484 0.25987
 C1272 C 0.41488 0.93935 0.27212
 C1273 C 0.38468 0.91403 0.27437
 C1274 C 0.39592 0.89952 0.26212
 C1275 C 0.38703 0.94438 0.30132
 C1276 C 0.37696 0.95739 0.31181
 C1277 C 0.43264 0.88553 0.25170
 C1278 C 0.44252 0.87277 0.24073
 H1279 H 0.41419 0.91344 0.31924
 H1280 H 0.43508 0.88649 0.29649
 H1281 H 0.43786 0.92982 0.24774
 H1282 H 0.41699 0.95675 0.27047
 H1283 H 0.36713 0.91493 0.27419
 H1284 H 0.38800 0.88801 0.25146
 C1285 C 0.60259 0.07211 0.28817
 C1286 C 0.58654 0.06150 0.27242
 C1287 C 0.57514 0.07602 0.26028
 C1288 C 0.58090 0.09974 0.26506
 C1289 C 0.60549 0.10120 0.26177
 C1290 C 0.61690 0.08667 0.27392
 C1291 C 0.58891 0.08781 0.30173
 C1292 C 0.57750 0.10234 0.28958
 C1293 C 0.61485 0.05638 0.30116
 C1294 C 0.62485 0.04324 0.31164
 C1295 C 0.56862 0.11533 0.25193
 C1296 C 0.55854 0.12807 0.24105
 H1297 H 0.58432 0.04411 0.27094
 H1298 H 0.56316 0.07107 0.24840
 H1299 H 0.61327 0.11265 0.25087
 H1300 H 0.63444 0.08568 0.27343
 H1301 H 0.58824 0.08754 0.31932
 H1302 H 0.56706 0.11452 0.29676
 C1303 C 0.39905 0.07158 0.71163
 C1304 C 0.42310 0.06590 0.71431
 C1305 C 0.43432 0.08048 0.72650
 C1306 C 0.42039 0.09931 0.73482
 C1307 C 0.40160 0.08850 0.74702
 C1308 C 0.39039 0.07392 0.73483
 C1309 C 0.39885 0.09465 0.70224
 C1310 C 0.41007 0.10923 0.71443
 C1311 C 0.38694 0.05583 0.69861
 C1312 C 0.37689 0.04276 0.68816
 C1313 C 0.43243 0.11497 0.74800
 C1314 C 0.44230 0.12779 0.75893
 H1315 H 0.43066 0.05168 0.70724
 H1316 H 0.45148 0.07876 0.72988
 H1317 H 0.39747 0.09198 0.76376
 H1318 H 0.37665 0.06492 0.74114
 H1319 H 0.39062 0.09913 0.68733
 H1320 H 0.41145 0.12621 0.70997
 C1321 C 0.60135 0.71174 0.07122
 C1322 C 0.59034 0.73163 0.06108
 C1323 C 0.57919 0.74391 0.07562
 C1324 C 0.58013 0.73509 0.09889
 C1325 C 0.60435 0.73310 0.10408
 C1326 C 0.61551 0.72082 0.08953
 C1327 C 0.58309 0.69936 0.08275
 C1328 C 0.57193 0.71165 0.09730
 C1329 C 0.61340 0.69863 0.05551
 C1330 C 0.62341 0.68811 0.04246
 C1331 C 0.56815 0.74837 0.11451
 C1332 C 0.55833 0.75939 0.12730
 H1333 H 0.59122 0.73571 0.04396
 H1334 H 0.57051 0.75850 0.07096
 H1335 H 0.61206 0.74066 0.11796
 H1336 H 0.63278 0.71786 0.09096
 H1337 H 0.57927 0.68245 0.07975
 H1338 H 0.55855 0.70526 0.10677
 C1339 C 0.39777 0.28826 0.07153
 C1340 C 0.38333 0.27504 0.08690
 C1341 C 0.39464 0.26287 0.10148
 C1342 C 0.41929 0.26511 0.09927
 C1343 C 0.42374 0.28954 0.10103
 C1344 C 0.41243 0.30171 0.08645
 C1345 C 0.41287 0.27158 0.06098
 C1346 C 0.42418 0.25941 0.07556
 C1347 C 0.38560 0.30128 0.05575
 C1348 C 0.37564 0.31176 0.04258
 C1349 C 0.43147 0.25196 0.11491
 C1350 C 0.44147 0.24106 0.12771
 H1351 H 0.36576 0.27523 0.08639
 H1352 H 0.38676 0.25263 0.11345
 H1353 H 0.43480 0.29664 0.11271
 H1354 H 0.41379 0.31924 0.08564
 H1355 H 0.41454 0.26951 0.04359
 H1356 H 0.43554 0.24692 0.07065
 C1357 C 0.60105 0.28876 0.92860
 C1358 C 0.58335 0.27463 0.93891
 C1359 C 0.57218 0.26242 0.92431
 C1360 C 0.57982 0.26553 0.90082
 C1361 C 0.60418 0.26068 0.90129
 C1362 C 0.61534 0.27289 0.91589
 C1363 C 0.58935 0.30224 0.91123
 C1364 C 0.57818 0.29002 0.89662
 C1365 C 0.61311 0.30180 0.94437
 C1366 C 0.62313 0.31226 0.95746
 C1367 C 0.56783 0.25232 0.88514
 C1368 C 0.55801 0.24135 0.87232
 H1369 H 0.57987 0.27427 0.95616
 H1370 H 0.55915 0.25159 0.92905
 H1371 H 0.61199 0.24871 0.89105
 H1372 H 0.63271 0.27138 0.91816
 H1373 H 0.58980 0.31982 0.91047
 H1374 H 0.56906 0.29713 0.88334
 C1375 C 0.39762 0.71169 0.92857
 C1376 C 0.38318 0.72406 0.91249
 C1377 C 0.39449 0.73623 0.89791
 C1378 C 0.41914 0.73483 0.90083
 C1379 C 0.42439 0.71053 0.89980
 C1380 C 0.41307 0.69836 0.91439
 C1381 C 0.41190 0.72911 0.93908
 C1382 C 0.42321 0.74127 0.92451
 C1383 C 0.38545 0.69867 0.94435
 C1384 C 0.37551 0.68819 0.95753
 C1385 C 0.43132 0.74799 0.88518
 C1386 C 0.44132 0.75889 0.87240
 H1387 H 0.36562 0.72331 0.91255
 H1388 H 0.38662 0.74591 0.88548
 H1389 H 0.43597 0.70351 0.88860
 H1390 H 0.41496 0.68091 0.91568
 H1391 H 0.41304 0.73166 0.95646
 H1392 H 0.43404 0.75424 0.92940
 C1393 C 0.71035 0.92526 0.39870
 C1394 C 0.72375 0.91023 0.38414
 C1395 C 0.73555 0.89529 0.39537
 C1396 C 0.73279 0.89684 0.42005
 C1397 C 0.70830 0.89507 0.42393
 C1398 C 0.69650 0.91002 0.41270
 C1399 C 0.72675 0.93531 0.41445
 C1400 C 0.73854 0.92038 0.42566
 C1401 C 0.69781 0.94145 0.38660
 C1402 C 0.68778 0.95494 0.37661
 C1403 C 0.74568 0.88090 0.43210
 C1404 C 0.75672 0.86813 0.44195
 H1405 H 0.72395 0.91122 0.36657
 H1406 H 0.74584 0.88348 0.38740
 H1407 H 0.70090 0.88312 0.43455
 H1408 H 0.67897 0.91089 0.41370
 H1409 H 0.72890 0.95264 0.41661
 H1410 H 0.75079 0.92492 0.43743
 C1411 C 0.28768 0.92791 0.60116
 C1412 C 0.30085 0.91350 0.58579
 C1413 C 0.28856 0.89897 0.57460
 C1414 C 0.26431 0.90028 0.57989
 C1415 C 0.25807 0.92399 0.57560
 C1416 C 0.27035 0.93852 0.58679
 C1417 C 0.27521 0.91206 0.61578
 C1418 C 0.26293 0.89754 0.60459
 C1419 C 0.30080 0.94361 0.61323
 C1420 C 0.31135 0.95664 0.62322
 C1421 C 0.25104 0.88469 0.56785
 C1422 C 0.24005 0.87195 0.55796
 H1423 H 0.31829 0.91461 0.58386
 H1424 H 0.29547 0.88763 0.56308
 H1425 H 0.24515 0.92894 0.56473
 H1426 H 0.26795 0.95591 0.58550
 H1427 H 0.27598 0.91223 0.63336
 H1428 H 0.25317 0.88526 0.61259
 C1429 C 0.28755 0.07193 0.39896
 C1430 C 0.27339 0.06145 0.41656
 C1431 C 0.26108 0.07594 0.42774
 C1432 C 0.26412 0.09949 0.42024
 C1433 C 0.25941 0.09920 0.39581
 C1434 C 0.27172 0.08471 0.38462
 C1435 C 0.30087 0.08923 0.41085
 C1436 C 0.28855 0.10372 0.42204
 C1437 C 0.30071 0.05627 0.38689
 C1438 C 0.31129 0.04327 0.37690
 C1439 C 0.25081 0.11504 0.43227
 C1440 C 0.23979 0.12776 0.44216
 H1441 H 0.27308 0.04418 0.41994
 H1442 H 0.25022 0.07107 0.44071
 H1443 H 0.24746 0.10948 0.38798
 H1444 H 0.27032 0.08258 0.36721
 H1445 H 0.31843 0.09003 0.41051
 H1446 H 0.29555 0.11694 0.43129
 C1447 C 0.70986 0.07486 0.60115
 C1448 C 0.72437 0.08898 0.61558
 C1449 C 0.73621 0.10386 0.60433
 C1450 C 0.73240 0.10317 0.57975
 C1451 C 0.70785 0.10588 0.57693
 C1452 C 0.69599 0.09098 0.58819
 C1453 C 0.72525 0.06477 0.58445
 C1454 C 0.73709 0.07964 0.57320
 C1455 C 0.69727 0.05874 0.61329
 C1456 C 0.68721 0.04531 0.62331
 C1457 C 0.74535 0.11904 0.56767
 C1458 C 0.75643 0.13176 0.55780
 H1459 H 0.72524 0.08744 0.63310
 H1460 H 0.74723 0.11507 0.61221
 H1461 H 0.70045 0.11838 0.56698
 H1462 H 0.67842 0.09073 0.58789
 H1463 H 0.72670 0.04745 0.58168
 H1464 H 0.74868 0.07506 0.56080
 C1465 C 0.92724 0.60419 0.28660
 C1466 C 0.93685 0.59483 0.26566
 C1467 C 0.92239 0.58326 0.25369
 C1468 C 0.89972 0.58216 0.26382
 C1469 C 0.89307 0.60588 0.26726
 C1470 C 0.90754 0.61747 0.27924
 C1471 C 0.91775 0.58460 0.29870
 C1472 C 0.90328 0.57301 0.28672
 C1473 C 0.94292 0.61662 0.29939
 C1474 C 0.95606 0.62675 0.30966
 C1475 C 0.88422 0.56969 0.25087
 C1476 C 0.87157 0.55943 0.24011
 H1477 H 0.95356 0.59710 0.26068
 H1478 H 0.92670 0.57561 0.23846
 H1479 H 0.87829 0.61295 0.26087
 H1480 H 0.90516 0.63446 0.28311
 H1481 H 0.92202 0.58021 0.31521
 H1482 H 0.89514 0.55870 0.29297
 C1483 C 0.92709 0.39566 0.71344
 C1484 C 0.91604 0.41398 0.70069
 C1485 C 0.90161 0.42559 0.71268
 C1486 C 0.89964 0.41773 0.73624
 C1487 C 0.92280 0.41836 0.74523
 C1488 C 0.93722 0.40676 0.73324
 C1489 C 0.90846 0.38194 0.72259
 C1490 C 0.89402 0.39355 0.73458
 C1491 C 0.94272 0.38319 0.70064
 C1492 C 0.95584 0.37305 0.69035
 C1493 C 0.88417 0.43023 0.74921
 C1494 C 0.87156 0.44051 0.75998
 H1495 H 0.91927 0.41752 0.68374
 H1496 H 0.89247 0.43908 0.70601
 H1497 H 0.92746 0.42715 0.75973
 H1498 H 0.95425 0.40561 0.73748
 H1499 H 0.90674 0.36464 0.71988
 H1500 H 0.87995 0.38619 0.74214
 C1501 C 0.07423 0.60034 0.70796
 C1502 C 0.07387 0.60643 0.73206
 C1503 C 0.08891 0.59571 0.74416
 C1504 C 0.10286 0.57993 0.73098
 C1505 C 0.11269 0.59373 0.71272
 C1506 C 0.09763 0.60447 0.70060
 C1507 C 0.07158 0.57560 0.70756
 C1508 C 0.08664 0.56487 0.71967
 C1509 C 0.05793 0.61194 0.69510
 C1510 C 0.04437 0.62160 0.68487
 C1511 C 0.11891 0.56841 0.74420
 C1512 C 0.13176 0.55896 0.75550
 H1513 H 0.06277 0.61815 0.73903
 H1514 H 0.09069 0.59825 0.76148
 H1515 H 0.12994 0.59495 0.70957
 H1516 H 0.10198 0.61489 0.68708
 H1517 H 0.05901 0.56724 0.69855
 H1518 H 0.08696 0.54732 0.72102
 C1519 C 0.07428 0.39954 0.29216
 C1520 C 0.06474 0.41153 0.27253
 C1521 C 0.07982 0.42224 0.26048
 C1522 C 0.10298 0.41994 0.26922
 C1523 C 0.10692 0.39541 0.27068
 C1524 C 0.09184 0.38469 0.28274
 C1525 C 0.08668 0.41692 0.30491
 C1526 C 0.10178 0.42765 0.29284
 C1527 C 0.05794 0.38794 0.30497
 C1528 C 0.04434 0.37828 0.31516
 C1529 C 0.11907 0.43146 0.25604
 C1530 C 0.13196 0.44090 0.24478
 H1531 H 0.04764 0.41161 0.26846
 H1532 H 0.07563 0.43150 0.24609
 H1533 H 0.12039 0.38719 0.26294
 H1534 H 0.09238 0.36728 0.28533
 H1535 H 0.08386 0.42048 0.32191
 H1536 H 0.11190 0.44040 0.29950
   
