data_POSCAR
  _audit_creation_date              2014-09-24
  _audit_creation_method            'ToBaCCo'
  _symmetry_space_group_name_H-M    'P1'
  _symmetry_Int_Tables_number       1
  _symmetry_cell_setting            triclinic
  loop_
  _symmetry_equiv_pos_as_xyz
 x,y,z
_cell_length_a 40.5532
_cell_length_b 43.1854
_cell_length_c 49.0784
_cell_angle_alpha 89.885600
_cell_angle_beta 90.097800
_cell_angle_gamma 90.000400
loop_
  _atom_site_label
  _atom_site_type_symbol
  _atom_site_fract_x
  _atom_site_fract_y
  _atom_site_fract_z
Zr1 Zr 0.24883 0.25089 0.29820
 O2 O 0.27289 0.27669 0.32903
 O3 O 0.21745 0.22241 0.32114
 O4 O 0.21545 0.27976 0.31928
 O5 O 0.31180 0.19776 0.29028
 O6 O 0.18823 0.30515 0.28525
 O7 O 0.28063 0.22293 0.32190
 O8 O 0.18814 0.19648 0.28874
 O9 O 0.20601 0.25067 0.27430
 O10 O 0.24985 0.20980 0.27577
 O11 O 0.25144 0.29124 0.27421
 O12 O 0.29355 0.25198 0.27622
 Zr13 Zr 0.25357 0.25026 0.20297
 Zr14 Zr 0.20989 0.28948 0.24891
 Zr15 Zr 0.29257 0.21174 0.25236
 Zr16 Zr 0.20828 0.21046 0.25099
 O17 O 0.34462 0.21540 0.25220
 O18 O 0.15672 0.21835 0.24903
 O19 O 0.25107 0.20954 0.22680
 O20 O 0.20928 0.24920 0.22525
 O21 O 0.25262 0.29163 0.22515
 O22 O 0.29604 0.25051 0.22721
 C23 C 0.19505 0.20308 0.31371
 C24 C 0.30386 0.20410 0.31505
 C25 C 0.19361 0.29911 0.31057
 O26 O 0.15809 0.28571 0.24488
 O27 O 0.19548 0.30817 0.21115
 O28 O 0.22426 0.28082 0.17941
 C29 C 0.20343 0.30196 0.18637
 O30 O 0.31512 0.30893 0.28653
 Zr31 Zr 0.29410 0.29076 0.25023
 O32 O 0.28475 0.27890 0.18004
 O33 O 0.21381 0.33828 0.25095
 O34 O 0.28587 0.33925 0.24971
 O35 O 0.34602 0.28480 0.24976
 O36 O 0.31108 0.30765 0.21236
 C37 C 0.30496 0.30026 0.18742
 O38 O 0.22773 0.22614 0.17208
 O39 O 0.28853 0.16294 0.25451
 O40 O 0.28457 0.21899 0.18184
 O41 O 0.30975 0.19195 0.21599
 O42 O 0.21424 0.16177 0.25384
 O43 O 0.19098 0.18888 0.21480
 C44 C 0.30446 0.19784 0.19063
 H45 H 0.24997 0.19101 0.28735
 H46 H 0.18995 0.24875 0.21290
 H47 H 0.31665 0.24983 0.21645
 H48 H 0.25135 0.31002 0.28574
 H49 H 0.14561 0.19877 0.25421
 H50 H 0.14915 0.30706 0.24536
 H51 H 0.19114 0.34666 0.24930
 H52 H 0.30705 0.34934 0.24495
 H53 H 0.19238 0.15279 0.25819
 H54 H 0.31129 0.15469 0.25584
 H55 H 0.35343 0.19400 0.25222
 H56 H 0.35595 0.30501 0.24482
 H57 H 0.17207 0.17527 0.21921
 H58 H 0.23657 0.23338 0.15433
 H59 H 0.26430 0.26927 0.34681
 H60 H 0.33009 0.32627 0.28191
 Zr61 Zr 0.75108 0.75123 0.29847
 O62 O 0.72573 0.72738 0.32983
 O63 O 0.78194 0.78068 0.32096
 O64 O 0.78323 0.72333 0.32181
 O65 O 0.68876 0.80431 0.28645
 O66 O 0.81158 0.69576 0.28998
 O67 O 0.71851 0.78038 0.31987
 O68 O 0.81258 0.80467 0.28826
 O69 O 0.79479 0.74992 0.27591
 O70 O 0.75118 0.79107 0.27421
 O71 O 0.74904 0.70960 0.27638
 O72 O 0.70718 0.74916 0.27533
 Zr73 Zr 0.75001 0.74653 0.20340
 Zr74 Zr 0.79159 0.70973 0.25232
 Zr75 Zr 0.70930 0.78808 0.24972
 Zr76 Zr 0.79366 0.78879 0.25070
 O77 O 0.65727 0.78465 0.24827
 O78 O 0.84523 0.78071 0.25046
 O79 O 0.75180 0.78857 0.22532
 O80 O 0.79342 0.74863 0.22686
 O81 O 0.74977 0.70644 0.22746
 O82 O 0.70659 0.74794 0.22633
 C83 C 0.80480 0.79941 0.31329
 C84 C 0.69571 0.79901 0.31167
 C85 C 0.80510 0.70323 0.31478
 O86 O 0.84355 0.71306 0.24976
 O87 O 0.80729 0.68901 0.21590
 O88 O 0.77989 0.71459 0.18207
 C89 C 0.80030 0.69380 0.19064
 O90 O 0.68484 0.69300 0.28769
 Zr91 Zr 0.70732 0.70898 0.25119
 O92 O 0.71931 0.71703 0.18089
 O93 O 0.78727 0.66110 0.25641
 O94 O 0.71519 0.66048 0.25310
 O95 O 0.65549 0.71511 0.24897
 O96 O 0.69158 0.69017 0.21366
 C97 C 0.69859 0.69626 0.18861
 O98 O 0.77728 0.76872 0.17222
 O99 O 0.71369 0.83691 0.24967
 O100 O 0.72029 0.77681 0.18002
 O101 O 0.69362 0.80582 0.21192
 O102 O 0.78800 0.83761 0.25121
 O103 O 0.81224 0.80824 0.21398
 C104 C 0.70014 0.79847 0.18708
 H105 H 0.75079 0.81044 0.28495
 H106 H 0.81321 0.74830 0.21506
 H107 H 0.68642 0.74813 0.21495
 H108 H 0.74851 0.69149 0.28877
 H109 H 0.85623 0.80054 0.25497
 H110 H 0.85230 0.69171 0.25140
 H111 H 0.80993 0.65254 0.25574
 H112 H 0.69412 0.65026 0.24821
 H113 H 0.80979 0.84669 0.25567
 H114 H 0.69096 0.84534 0.24995
 H115 H 0.64862 0.80607 0.24703
 H116 H 0.64561 0.69467 0.24475
 H117 H 0.83105 0.82204 0.21822
 H118 H 0.76903 0.76064 0.15456
 H119 H 0.73373 0.73574 0.34747
 H120 H 0.67001 0.67542 0.28348
 Zr121 Zr 0.75330 0.24656 -0.29762
 O122 O 0.72940 0.26891 -0.33065
 O123 O 0.78655 0.21750 -0.31803
 O124 O 0.78597 0.27491 -0.31987
 O125 O 0.69172 0.19238 -0.28750
 O126 O 0.81110 0.30434 -0.28738
 O127 O 0.72297 0.21608 -0.32001
 O128 O 0.81578 0.19547 -0.28336
 O129 O 0.79534 0.24977 -0.27297
 O130 O 0.75298 0.20734 -0.27260
 O131 O 0.74854 0.28867 -0.27651
 O132 O 0.70788 0.24793 -0.27670
 Zr133 Zr 0.74551 0.25364 -0.20294
 Zr134 Zr 0.78936 0.29046 -0.25037
 Zr135 Zr 0.70945 0.20975 -0.25021
 Zr136 Zr 0.79368 0.21147 -0.24711
 O137 O 0.65730 0.21159 -0.25114
 O138 O 0.84488 0.22097 -0.24436
 O139 O 0.75021 0.21113 -0.22380
 O140 O 0.79052 0.25216 -0.22415
 O141 O 0.74575 0.29316 -0.22771
 O142 O 0.70384 0.25039 -0.22791
 C143 C 0.80958 0.19983 -0.30883
 C144 C 0.70003 0.19727 -0.31247
 C145 C 0.80648 0.29601 -0.31229
 O146 O 0.84119 0.28857 -0.24566
 O147 O 0.80265 0.31203 -0.21348
 O148 O 0.77322 0.28653 -0.18087
 C149 C 0.79412 0.30728 -0.18854
 O150 O 0.68490 0.30317 -0.29144
 Zr151 Zr 0.70515 0.28872 -0.25351
 O152 O 0.71227 0.28281 -0.18260
 O153 O 0.78362 0.33886 -0.25519
 O154 O 0.71154 0.33738 -0.25593
 O155 O 0.65347 0.28115 -0.25392
 O156 O 0.68601 0.30780 -0.21735
 C157 C 0.69130 0.30257 -0.19187
 O158 O 0.77110 0.23307 -0.16988
 O159 O 0.71543 0.16108 -0.24915
 O160 O 0.71542 0.22299 -0.18041
 O161 O 0.69191 0.19233 -0.21286
 O162 O 0.78963 0.16251 -0.24707
 O163 O 0.81021 0.19337 -0.20917
 C164 C 0.69664 0.20046 -0.18792
 H165 H 0.75391 0.18773 -0.28299
 H166 H 0.80946 0.25323 -0.21143
 H167 H 0.68294 0.24985 -0.21754
 H168 H 0.74825 0.30647 -0.28925
 H169 H 0.85678 0.20135 -0.24793
 H170 H 0.84939 0.31011 -0.24727
 H171 H 0.80593 0.34808 -0.25373
 H172 H 0.68982 0.34707 -0.25236
 H173 H 0.81197 0.15399 -0.25030
 H174 H 0.69305 0.15198 -0.25037
 H175 H 0.64932 0.18994 -0.24996
 H176 H 0.64265 0.30140 -0.25073
 H177 H 0.82964 0.17993 -0.21219
 H178 H 0.76135 0.24138 -0.15285
 H179 H 0.73885 0.26036 -0.34770
 H180 H 0.66929 0.32044 -0.28838
 Zr181 Zr 0.24744 0.75179 -0.29870
 O182 O 0.27334 0.72766 -0.32949
 O183 O 0.21598 0.78014 -0.32180
 O184 O 0.21563 0.72265 -0.32134
 O185 O 0.30847 0.80631 -0.28793
 O186 O 0.18806 0.69570 -0.28852
 O187 O 0.27914 0.78138 -0.32082
 O188 O 0.18473 0.80404 -0.28967
 O189 O 0.20387 0.75007 -0.27593
 O190 O 0.24644 0.79219 -0.27531
 O191 O 0.25054 0.71080 -0.27559
 O192 O 0.29141 0.75125 -0.27555
 Zr193 Zr 0.24882 0.74948 -0.20341
 Zr194 Zr 0.20816 0.71063 -0.25134
 Zr195 Zr 0.28839 0.79071 -0.25078
 Zr196 Zr 0.20408 0.78960 -0.25170
 O197 O 0.34050 0.78847 -0.24934
 O198 O 0.15274 0.78031 -0.25124
 O199 O 0.24594 0.79089 -0.22633
 O200 O 0.20536 0.75013 -0.22685
 O201 O 0.25006 0.70879 -0.22649
 O202 O 0.29212 0.75124 -0.22649
 C203 C 0.19260 0.79862 -0.31469
 C204 C 0.30163 0.80070 -0.31314
 C205 C 0.19398 0.70261 -0.31356
 O206 O 0.15614 0.71273 -0.24846
 O207 O 0.19319 0.69030 -0.21444
 O208 O 0.21918 0.71781 -0.18129
 C209 C 0.19937 0.69614 -0.18918
 O210 O 0.31504 0.69510 -0.28661
 Zr211 Zr 0.29232 0.71169 -0.25047
 O212 O 0.28029 0.72111 -0.18034
 O213 O 0.21369 0.66205 -0.25460
 O214 O 0.28559 0.66300 -0.25116
 O215 O 0.34398 0.71910 -0.24866
 O216 O 0.30881 0.69430 -0.21259
 C217 C 0.30169 0.70079 -0.18766
 O218 O 0.22137 0.77197 -0.17257
 O219 O 0.28280 0.83941 -0.25185
 O220 O 0.27797 0.78092 -0.18082
 O221 O 0.30382 0.80976 -0.21341
 O222 O 0.20852 0.83851 -0.25337
 O223 O 0.18497 0.80966 -0.21550
 C224 C 0.29758 0.80284 -0.18838
 H225 H 0.24634 0.81132 -0.28646
 H226 H 0.18559 0.74968 -0.21504
 H227 H 0.31233 0.75216 -0.21518
 H228 H 0.25141 0.69240 -0.28756
 H229 H 0.14121 0.79974 -0.25627
 H230 H 0.14795 0.69115 -0.24965
 H231 H 0.19127 0.65299 -0.25364
 H232 H 0.30690 0.65336 -0.24605
 H233 H 0.18654 0.84698 -0.25812
 H234 H 0.30530 0.84832 -0.25247
 H235 H 0.34861 0.81010 -0.24867
 H236 H 0.35444 0.69904 -0.24395
 H237 H 0.16578 0.82287 -0.22008
 H238 H 0.22987 0.76443 -0.15478
 H239 H 0.26510 0.73542 -0.34729
 H240 H 0.33035 0.67802 -0.28198
 Zr241 Zr 1.25136 1.25184 0.79848
 O242 O 1.22585 1.22881 0.83022
 O243 O 1.28263 1.28123 0.82042
 O244 O 1.28343 1.22402 0.82200
 O245 O 1.19022 1.30596 0.78616
 O246 O 1.31110 1.19566 0.79029
 O247 O 1.21977 1.28202 0.81970
 O248 O 1.31298 1.30487 0.78733
 O249 O 1.29486 1.24991 0.77567
 O250 O 1.25159 1.29127 0.77369
 O251 O 1.24881 1.20987 0.77701
 O252 O 1.20718 1.24983 0.77576
 Zr253 Zr 1.24907 1.24551 0.70346
 Zr254 Zr 1.29104 1.20940 0.75261
 Zr255 Zr 1.20945 1.28823 0.74955
 Zr256 Zr 1.29376 1.28837 0.74998
 O257 O 1.15738 1.28509 0.74903
 O258 O 1.34524 1.27977 0.74965
 O259 O 1.25165 1.28792 0.72482
 O260 O 1.29275 1.24787 0.72664
 O261 O 1.24891 1.20584 0.72808
 O262 O 1.20603 1.24768 0.72680
 C263 C 1.30536 1.29990 0.81246
 C264 C 1.19759 1.30121 0.81137
 C265 C 1.30499 1.20358 0.81506
 O266 O 1.34304 1.21232 0.75020
 O267 O 1.30722 1.18889 0.71634
 O268 O 1.27919 1.21359 0.68238
 C269 C 1.30039 1.19359 0.69107
 O270 O 1.18477 1.19404 0.78919
 Zr271 Zr 1.20681 1.20919 0.75223
 O272 O 1.21782 1.21562 0.68163
 O273 O 1.28622 1.16083 0.75671
 O274 O 1.21425 1.16066 0.75462
 O275 O 1.15499 1.21558 0.75050
 O276 O 1.19022 1.19001 0.71524
 C277 C 1.19676 1.19544 0.69001
 O278 O 1.27578 1.26709 0.67161
 O279 O 1.21427 1.33701 0.74832
 O280 O 1.21920 1.27557 0.67994
 O281 O 1.19318 1.30527 0.71170
 O282 O 1.28837 1.33722 0.74971
 O283 O 1.31246 1.30707 0.71300
 C284 C 1.19929 1.29746 0.68691
 H285 H 1.25159 1.31088 0.78409
 H286 H 1.31246 1.24736 0.71477
 H287 H 1.18568 1.24781 0.71565
 H288 H 1.24828 1.19195 0.78961
 H289 H 1.35647 1.29954 0.75401
 H290 H 1.35166 1.19093 0.75201
 H291 H 1.30882 1.15210 0.75618
 H292 H 1.19299 1.15054 0.75012
 H293 H 1.31019 1.34628 0.75413
 H294 H 1.19165 1.34567 0.74878
 H295 H 1.14886 1.30653 0.74749
 H296 H 1.14488 1.19512 0.74681
 H297 H 1.33139 1.32080 0.71705
 H298 H 1.26723 1.25868 0.65417
 H299 H 1.23411 1.23734 0.84772
 H300 H 1.16987 1.17639 0.78542
 Zr301 Zr 0.74858 0.74960 0.79776
 O302 O 0.77290 0.77517 0.82859
 O303 O 0.71755 0.72078 0.82061
 O304 O 0.71508 0.77809 0.81924
 O305 O 0.81154 0.69703 0.78866
 O306 O 0.68720 0.80333 0.78547
 O307 O 0.78062 0.72117 0.82103
 O308 O 0.68845 0.69469 0.78817
 O309 O 0.70556 0.74901 0.77407
 O310 O 0.74993 0.70882 0.77487
 O311 O 0.75025 0.79021 0.77401
 O312 O 0.79304 0.75157 0.77544
 Zr313 Zr 0.75251 0.75001 0.70239
 Zr314 Zr 0.70854 0.78805 0.74891
 Zr315 Zr 0.79234 0.71165 0.75116
 Zr316 Zr 0.70818 0.70909 0.75039
 O317 O 0.84432 0.71608 0.75113
 O318 O 0.65649 0.71631 0.74866
 O319 O 0.75072 0.70901 0.72587
 O320 O 0.70844 0.74801 0.72495
 O321 O 0.75099 0.79117 0.72488
 O322 O 0.79512 0.75070 0.72640
 C323 C 0.69534 0.70131 0.81314
 C324 C 0.80362 0.70235 0.81358
 C325 C 0.69289 0.79725 0.81074
 O326 O 0.65670 0.78357 0.74577
 O327 O 0.69253 0.80595 0.71131
 O328 O 0.72222 0.77993 0.67928
 C329 C 0.70035 0.79996 0.68646
 O330 O 0.81361 0.80888 0.78610
 Zr331 Zr 0.79268 0.79065 0.74977
 O332 O 0.78301 0.77943 0.67955
 O333 O 0.71181 0.83690 0.75067
 O334 O 0.78359 0.83901 0.74957
 O335 O 0.84468 0.78546 0.74913
 O336 O 0.80926 0.80807 0.71198
 C337 C 0.80310 0.80086 0.68702
 O338 O 0.72705 0.72570 0.67139
 O339 O 0.78911 0.66275 0.75255
 O340 O 0.78399 0.71956 0.68082
 O341 O 0.80986 0.69263 0.71465
 O342 O 0.71497 0.66047 0.75298
 O343 O 0.69089 0.68747 0.71421
 C344 C 0.80438 0.69873 0.68937
 H345 H 0.75031 0.68986 0.78623
 H346 H 0.68898 0.74727 0.71276
 H347 H 0.81568 0.75043 0.71557
 H348 H 0.74996 0.80891 0.78564
 H349 H 0.64570 0.69657 0.75383
 H350 H 0.64742 0.80479 0.74631
 H351 H 0.68898 0.84495 0.74933
 H352 H 0.80455 0.84947 0.74478
 H353 H 0.69332 0.65116 0.75751
 H354 H 0.81198 0.65477 0.75377
 H355 H 0.85350 0.69482 0.75086
 H356 H 0.85427 0.80585 0.74429
 H357 H 0.67232 0.67348 0.71869
 H358 H 0.73563 0.73327 0.65366
 H359 H 0.76450 0.76752 0.84635
 H360 H 0.82820 0.82651 0.78151
 Zr361 Zr 1.25393 0.74603 0.20275
 O362 O 1.22895 0.76826 0.17021
 O363 O 1.28755 0.71789 0.18179
 O364 O 1.28575 0.77508 0.18035
 O365 O 1.19426 0.69002 0.21298
 O366 O 1.31090 0.80449 0.21282
 O367 O 1.22428 0.71502 0.18043
 O368 O 1.31760 0.69590 0.21600
 O369 O 1.29627 0.74950 0.22698
 O370 O 1.25464 0.70656 0.22745
 O371 O 1.24878 0.78784 0.22422
 O372 O 1.20876 0.74651 0.22408
 Zr373 Zr 1.24740 0.75191 0.29746
 Zr374 Zr 1.28997 0.78984 0.24991
 Zr375 Zr 1.21136 0.70806 0.25023
 Zr376 Zr 1.29560 0.71093 0.25257
 O377 O 1.15920 0.70933 0.24919
 O378 O 1.34668 0.72105 0.25512
 O379 O 1.25244 0.70968 0.27626
 O380 O 1.29212 0.75130 0.27582
 O381 O 1.24669 0.79172 0.27306
 O382 O 1.20541 0.74841 0.27291
 C383 C 1.31106 0.70056 0.19063
 C384 C 1.20235 0.69523 0.18801
 C385 C 1.30608 0.79634 0.18789
 O386 O 1.34194 0.78867 0.25379
 O387 O 1.30394 0.81065 0.28687
 O388 O 1.27515 0.78466 0.31957
 C389 C 1.29596 0.80543 0.31184
 O390 O 1.18461 0.80146 0.21006
 Zr391 Zr 1.20572 0.78704 0.24767
 O392 O 1.21454 0.78080 0.31841
 O393 O 1.28333 0.83822 0.24587
 O394 O 1.21129 0.83580 0.24547
 O395 O 1.15416 0.77882 0.24787
 O396 O 1.18697 0.80564 0.28427
 C397 C 1.19315 0.80043 0.30963
 O398 O 1.27358 0.73102 0.33004
 O399 O 1.21808 0.65948 0.25141
 O400 O 1.21770 0.72102 0.32002
 O401 O 1.19418 0.69036 0.28758
 O402 O 1.29242 0.66191 0.25204
 O403 O 1.31274 0.69255 0.29023
 C404 C 1.19898 0.69846 0.31252
 H405 H 1.25591 0.68705 0.21695
 H406 H 1.31125 0.75242 0.28834
 H407 H 1.18466 0.74759 0.28348
 H408 H 1.24803 0.80577 0.21162
 H409 H 1.35883 0.70164 0.25128
 H410 H 1.34975 0.81036 0.25238
 H411 H 1.30552 0.84773 0.24713
 H412 H 1.18949 0.84515 0.24935
 H413 H 1.31489 0.65380 0.24857
 H414 H 1.19584 0.65005 0.25028
 H415 H 1.15151 0.68759 0.25041
 H416 H 1.14312 0.79891 0.25133
 H417 H 1.33232 0.67938 0.28695
 H418 H 1.26408 0.73908 0.34725
 H419 H 1.23832 0.76012 0.15298
 H420 H 1.16879 0.81850 0.21340
 Zr421 Zr 0.74731 1.25241 0.20237
 O422 O 0.77404 1.22923 0.17149
 O423 O 0.71479 1.27974 0.17933
 O424 O 0.71669 1.22240 0.17972
 O425 O 0.80599 1.30925 0.21317
 O426 O 0.69022 1.19396 0.21219
 O427 O 0.77786 1.28298 0.18026
 O428 O 0.68255 1.30227 0.21174
 O429 O 0.70383 1.24946 0.22516
 O430 O 0.74510 1.29269 0.22586
 O431 O 0.75162 1.21140 0.22530
 O432 O 0.79137 1.25297 0.22536
 Zr433 Zr 0.74922 1.24985 0.29745
 Zr434 Zr 0.70922 1.21000 0.24956
 Zr435 Zr 0.78722 1.29227 0.25024
 Zr436 Zr 0.70296 1.28889 0.24957
 O437 O 0.83939 1.29133 0.25102
 O438 O 0.65188 1.27844 0.25068
 O439 O 0.74490 1.29128 0.27480
 O440 O 0.70558 1.24939 0.27419
 O441 O 0.75134 1.20922 0.27430
 O442 O 0.79232 1.25275 0.27430
 C443 C 0.69059 1.29699 0.18679
 C444 C 0.79920 1.30324 0.18809
 C445 C 0.69612 1.20128 0.18721
 O446 O 0.65711 1.21097 0.25153
 O447 O 0.69357 1.19034 0.28662
 O448 O 0.72072 1.21754 0.31951
 C449 C 0.70042 1.19637 0.31169
 O450 O 0.81654 1.19776 0.21391
 Zr451 Zr 0.79347 1.21328 0.25026
 O452 O 0.78130 1.22202 0.32041
 O453 O 0.71636 1.16155 0.24722
 O454 O 0.78826 1.16443 0.24926
 O455 O 0.84493 1.22176 0.25216
 O456 O 0.81040 1.19596 0.28805
 C457 C 0.80309 1.20211 0.31301
 O458 O 0.72133 1.27172 0.32837
 O459 O 0.78005 1.34081 0.24982
 O460 O 0.77784 1.28158 0.32014
 O461 O 0.80263 1.31126 0.28760
 O462 O 0.70577 1.33788 0.24752
 O463 O 0.68387 1.30853 0.28595
 C464 C 0.79689 1.30392 0.31260
 H465 H 0.74421 1.31183 0.21476
 H466 H 0.68588 1.24856 0.28605
 H467 H 0.81255 1.25405 0.28554
 H468 H 0.75308 1.19305 0.21329
 H469 H 0.63977 1.29759 0.24576
 H470 H 0.64950 1.18919 0.25049
 H471 H 0.69418 1.15195 0.24795
 H472 H 0.80990 1.15534 0.25422
 H473 H 0.68343 1.34565 0.24293
 H474 H 0.80224 1.35038 0.24920
 H475 H 0.84688 1.31315 0.25190
 H476 H 0.85587 1.20186 0.25663
 H477 H 0.66440 1.32146 0.28155
 H478 H 0.73003 1.26431 0.34614
 H479 H 0.76551 1.23674 0.15370
 H480 H 0.83227 1.18093 0.21832
 N481 N 0.56054 1.03002 0.02901
 N482 N 0.58344 1.05089 0.03458
 N483 N 0.53678 0.96483 0.04712
 N484 N 0.54373 0.94401 0.06597
 N485 N 0.55944 0.96485 0.02803
 N486 N 0.58241 0.94400 0.03346
 N487 N 0.53780 1.02987 0.04803
 N488 N 0.54456 1.05055 0.06694
 C489 C 0.57292 1.06374 0.05823
 C490 C 0.57204 0.93089 0.05705
 N491 N 0.44199 0.96661 0.03012
 N492 N 0.41924 0.94570 0.03590
 N493 N 0.46688 1.03100 0.04927
 N494 N 0.46157 1.05153 0.06861
 N495 N 0.44305 1.03176 0.03113
 N496 N 0.42077 1.05278 0.03782
 N497 N 0.46572 0.96592 0.04836
 N498 N 0.45976 0.94460 0.06697
 Mn499 Mn 0.50179 0.99789 0.04839
 C500 C 0.43087 0.93192 0.05884
 C501 C 0.43292 1.06522 0.06112
 N502 N 0.55777 0.96599 -0.03095
 N503 N 0.57950 0.94429 -0.03722
 N504 N 0.53528 1.03175 -0.04827
 N505 N 0.54163 1.05273 -0.06711
 N506 N 0.55888 1.03113 -0.02992
 N507 N 0.58190 1.05172 -0.03583
 N508 N 0.53382 0.96664 -0.04899
 N509 N 0.53844 0.94535 -0.06781
 Mn510 Mn 0.55952 0.99799 -0.00097
 C511 C 0.56685 0.93137 -0.06015
 C512 C 0.57061 1.06528 -0.05896
 N513 N 0.44154 1.03303 -0.02785
 N514 N 0.41928 1.05469 -0.03284
 N515 N 0.46280 0.96794 -0.04791
 N516 N 0.45516 0.94805 -0.06728
 N517 N 0.44018 0.96788 -0.02879
 N518 N 0.41655 0.94788 -0.03472
 N519 N 0.46425 1.03298 -0.04691
 N520 N 0.45811 1.05456 -0.06525
 Mn521 Mn 0.44133 0.99983 0.00116
 Mn522 Mn 0.49905 0.99983 -0.04822
 Cl523 Cl 0.50042 0.99888 0.00009
 C524 C 0.43018 1.06817 -0.05613
 C525 C 0.42645 0.93540 -0.05868
 N526 N 1.06053 0.53059 0.52974
 N527 N 1.08244 0.55259 0.53481
 N528 N 1.03686 0.46541 0.54780
 N529 N 1.04357 0.44438 0.56652
 N530 N 1.05958 0.46541 0.52876
 N531 N 1.08237 0.44436 0.53410
 N532 N 1.03741 0.53054 0.54843
 N533 N 1.04266 0.55253 0.56645
 C534 C 1.07069 0.56626 0.55772
 C535 C 1.07182 0.43115 0.55759
 N536 N 0.94215 0.46684 0.53051
 N537 N 0.91955 0.44573 0.53617
 N538 N 0.96666 0.53135 0.54954
 N539 N 0.96154 0.55238 0.56849
 N540 N 0.94295 0.53198 0.53131
 N541 N 0.92090 0.55338 0.53753
 N542 N 0.96581 0.46625 0.54880
 N543 N 0.95997 0.44483 0.56735
 Mn544 Mn 1.00170 0.49836 0.54885
 C545 C 0.93122 0.43196 0.55911
 C546 C 0.93309 0.56618 0.56066
 N547 N 1.05816 0.46647 0.46976
 N548 N 1.08000 0.44488 0.46345
 N549 N 1.03558 0.53215 0.45238
 N550 N 1.04206 0.55304 0.43350
 N551 N 1.05909 0.53158 0.47081
 N552 N 1.08216 0.55211 0.46493
 N553 N 1.03424 0.46709 0.45169
 N554 N 1.03896 0.44590 0.43283
 Mn555 Mn 1.05974 0.49850 0.49976
 C556 C 1.06740 0.43200 0.44047
 C557 C 1.07100 0.56559 0.44173
 N558 N 0.94168 0.53315 0.47241
 N559 N 0.91930 0.55466 0.46728
 N560 N 0.96325 0.46816 0.45255
 N561 N 0.95572 0.44818 0.43321
 N562 N 0.94063 0.46802 0.47165
 N563 N 0.91712 0.44791 0.46579
 N564 N 0.96451 0.53320 0.45347
 N565 N 0.95834 0.55468 0.43504
 Mn566 Mn 0.94149 0.50000 0.50148
 Mn567 Mn 0.99941 0.50016 0.45231
 Cl568 Cl 1.00058 0.49923 0.50059
 C569 C 0.93026 0.56814 0.44401
 C570 C 0.92708 0.43542 0.44186
 N571 N 0.96715 0.55527 0.03031
 N572 N 0.94529 0.57674 0.03683
 N573 N 1.03667 0.53274 0.04740
 N574 N 1.05864 0.53913 0.06643
 N575 N 1.03640 0.55452 0.02867
 N576 N 1.05819 0.57623 0.03448
 N577 N 0.96741 0.53309 0.04867
 N578 N 0.94567 0.53874 0.06796
 C579 C 0.93177 0.56587 0.06023
 C580 C 1.07221 0.56611 0.05792
 N581 N 1.03522 0.44447 0.02794
 N582 N 1.05658 0.42220 0.03342
 N583 N 0.96680 0.46632 0.04829
 N584 N 0.94577 0.45943 0.06789
 N585 N 0.96592 0.44518 0.02912
 N586 N 0.94426 0.42343 0.03513
 N587 N 1.03609 0.46582 0.04694
 N588 N 1.05803 0.45860 0.06581
 Mn589 Mn 1.00176 0.49952 0.04805
 C590 C 1.07098 0.43152 0.05695
 C591 C 0.93156 0.43281 0.05922
 N592 N 1.03464 0.55551 -0.03026
 N593 N 1.05608 0.57735 -0.03695
 N594 N 0.96443 0.53453 -0.04746
 N595 N 0.94189 0.54115 -0.06594
 N596 N 0.96532 0.55605 -0.02860
 N597 N 0.94347 0.57796 -0.03388
 N598 N 1.03373 0.53395 -0.04910
 N599 N 1.05443 0.54055 -0.06897
 Mn600 Mn 1.00089 0.55565 0.00004
 C601 C 1.06859 0.56746 -0.06103
 C602 C 0.92870 0.56810 -0.05707
 N603 N 0.96405 0.44594 -0.02959
 N604 N 0.94222 0.42424 -0.03550
 N605 N 1.03295 0.46705 -0.04958
 N606 N 1.05392 0.46024 -0.06923
 N607 N 1.03332 0.44545 -0.03071
 N608 N 1.05460 0.42351 -0.03694
 N609 N 0.96373 0.46778 -0.04824
 N610 N 0.94174 0.46147 -0.06730
 Mn611 Mn 0.99962 0.44502 -0.00082
 Mn612 Mn 0.99871 0.50086 -0.04881
 Cl613 Cl 1.00027 0.50027 -0.00039
 C614 C 0.92815 0.43445 -0.05892
 C615 C 1.06758 0.43320 -0.06085
 N616 N 0.55910 1.03029 0.52939
 N617 N 0.58232 1.05076 0.53506
 N618 N 0.53529 0.96514 0.54752
 N619 N 0.54217 0.94414 0.56624
 N620 N 0.55795 0.96524 0.52844
 N621 N 0.58084 0.94431 0.53370
 N622 N 0.53644 1.03017 0.54846
 N623 N 0.54359 1.05056 0.56755
 C624 C 0.57210 1.06349 0.55881
 C625 C 0.57043 0.93104 0.55719
 N626 N 0.44067 0.96693 0.53015
 N627 N 0.41738 0.94662 0.53617
 N628 N 0.46552 1.03129 0.54933
 N629 N 0.46003 1.05184 0.56859
 N630 N 0.44189 1.03202 0.53102
 N631 N 0.41954 1.05302 0.53750
 N632 N 0.46417 0.96623 0.54859
 N633 N 0.45747 0.94551 0.56758
 Mn634 Mn 0.50036 0.99819 0.54869
 C635 C 0.42840 0.93315 0.55944
 C636 C 0.43147 1.06549 0.56084
 N637 N 0.55669 0.96642 0.46971
 N638 N 0.57915 0.94548 0.46348
 N639 N 0.53457 1.03215 0.45203
 N640 N 0.54169 1.05255 0.43287
 N641 N 0.55791 1.03146 0.47060
 N642 N 0.58149 1.05140 0.46454
 N643 N 0.53333 0.96712 0.45116
 N644 N 0.53935 0.94671 0.43180
 Mn645 Mn 0.55821 0.99836 0.49953
 C646 C 0.56783 0.93311 0.43991
 C647 C 0.57083 1.06470 0.44111
 N648 N 0.44071 1.03334 0.47214
 N649 N 0.41830 1.05482 0.46707
 N650 N 0.46216 0.96834 0.45219
 N651 N 0.45452 0.94842 0.43285
 N652 N 0.43952 0.96830 0.47129
 N653 N 0.41590 0.94835 0.46542
 N654 N 0.46345 1.03335 0.45312
 N655 N 0.45716 1.05483 0.43469
 Mn656 Mn 0.44036 1.00015 0.50115
 Mn657 Mn 0.49835 1.00023 0.45189
 Cl658 Cl 0.49932 0.99922 0.50031
 C659 C 0.42911 1.06829 0.44376
 C660 C 0.42581 0.93583 0.44152
 N661 N 1.06027 1.03042 0.52957
 N662 N 1.08262 1.05177 0.53529
 N663 N 1.03541 0.96516 0.54625
 N664 N 1.04138 0.94359 0.56462
 N665 N 1.05847 0.96537 0.52750
 N666 N 1.08085 0.94389 0.53274
 N667 N 1.03710 1.03009 0.54820
 N668 N 1.04275 1.05125 0.56687
 C669 C 1.07105 1.06477 0.55855
 C670 C 1.06957 0.93023 0.55583
 N671 N 0.94101 0.96834 0.52882
 N672 N 0.91779 0.94780 0.53428
 N673 N 0.96665 1.03185 0.54910
 N674 N 0.96246 1.05282 0.56821
 N675 N 0.94288 1.03334 0.53098
 N676 N 0.92159 1.05531 0.53748
 N677 N 0.96463 0.96692 0.54710
 N678 N 0.95817 0.94544 0.56542
 Mn679 Mn 1.00096 0.99846 0.54786
 C680 C 0.92907 0.93344 0.55703
 C681 C 0.93444 1.06748 0.56066
 N682 N 1.05732 0.96800 0.46861
 N683 N 1.07919 0.94668 0.46182
 N684 N 1.03546 1.03434 0.45242
 N685 N 1.04152 1.05620 0.43435
 N686 N 1.05910 1.03302 0.47070
 N687 N 1.08196 1.05400 0.46547
 N688 N 1.03367 0.96946 0.45034
 N689 N 1.03874 0.94924 0.43074
 Mn690 Mn 1.05922 0.99919 0.49908
 C691 C 1.06700 0.93495 0.43825
 C692 C 1.07042 1.06851 0.44285
 N693 N 0.94175 1.03585 0.47212
 N694 N 0.91914 1.05708 0.46689
 N695 N 0.96284 0.97112 0.45124
 N696 N 0.95651 0.95021 0.43243
 N697 N 0.93999 0.97086 0.47014
 N698 N 0.91741 0.94971 0.46465
 N699 N 0.96463 1.03605 0.45323
 N700 N 0.95828 1.05741 0.43475
 Mn701 Mn 0.94100 1.00212 0.50052
 Mn702 Mn 0.99915 1.00275 0.45159
 Cl703 Cl 1.00009 1.00062 0.49975
 C704 C 0.93007 1.07063 0.44367
 C705 C 0.92823 0.93685 0.44113
 N706 N 0.56029 0.53003 0.02897
 N707 N 0.58363 0.55033 0.03475
 N708 N 0.53457 0.46529 0.04612
 N709 N 0.53964 0.44319 0.06414
 N710 N 0.55757 0.46503 0.02734
 N711 N 0.57914 0.44273 0.03227
 N712 N 0.53745 0.53015 0.04787
 N713 N 0.54454 0.55049 0.06696
 C714 C 0.57324 0.56314 0.05842
 C715 C 0.56730 0.42907 0.05518
 N716 N 0.44039 0.46918 0.02903
 N717 N 0.41730 0.44849 0.03447
 N718 N 0.46683 0.53277 0.04882
 N719 N 0.46315 0.55423 0.06756
 N720 N 0.44291 0.53416 0.03082
 N721 N 0.42206 0.55659 0.03701
 N722 N 0.46403 0.46786 0.04728
 N723 N 0.45778 0.44627 0.06554
 Mn724 Mn 0.50072 0.49902 0.04774
 C725 C 0.42874 0.43415 0.05720
 C726 C 0.43530 0.56909 0.05988
 N727 N 0.55621 0.46735 -0.03155
 N728 N 0.57751 0.44546 -0.03816
 N729 N 0.53509 0.53388 -0.04789
 N730 N 0.54118 0.55578 -0.06589
 N731 N 0.55885 0.53230 -0.02974
 N732 N 0.58182 0.55316 -0.03497
 N733 N 0.53245 0.46899 -0.04969
 N734 N 0.53672 0.44819 -0.06894
 Mn735 Mn 0.55867 0.49864 -0.00126
 C736 C 0.56472 0.43347 -0.06140
 C737 C 0.57023 0.56783 -0.05748
 N738 N 0.44144 0.53632 -0.02796
 N739 N 0.41888 0.55757 -0.03325
 N740 N 0.46190 0.47147 -0.04867
 N741 N 0.45547 0.45062 -0.06746
 N742 N 0.43907 0.47134 -0.02975
 N743 N 0.41633 0.45032 -0.03526
 N744 N 0.46428 0.53633 -0.04689
 N745 N 0.45791 0.55756 -0.06548
 Mn746 Mn 0.44053 0.50275 0.00055
 Mn747 Mn 0.49844 0.50271 -0.04850
 Cl748 Cl 0.49959 0.50079 -0.00038
 C749 C 0.42977 0.57092 -0.05656
 C750 C 0.42713 0.43742 -0.05880
 C751 C 0.36126 1.14499 0.13359
 C752 C 0.36688 1.14184 0.16166
 C753 C 0.34816 1.15889 0.17998
 C754 C 0.32355 1.17924 0.17067
 C755 C 0.31824 1.18140 0.14238
 N756 N 0.33687 1.16433 0.12479
 C757 C 0.38100 1.12693 0.11378
 N758 N 0.36686 1.11660 0.09027
 C759 C 0.38326 1.09789 0.07250
 C760 C 0.41565 1.08827 0.07822
 C761 C 0.43102 1.09975 0.10171
 C762 C 0.41393 1.11912 0.11939
 H763 H 0.35317 1.15613 0.20153
 H764 H 0.29939 1.19660 0.13428
 H765 H 0.37066 1.08979 0.05441
 H766 H 0.45614 1.09333 0.10672
 H767 H 0.38523 1.12598 0.16954
 H768 H 0.42639 1.12764 0.13739
 C769 C 0.86204 0.64729 0.63204
 C770 C 0.86852 0.64489 0.66003
 C771 C 0.84957 0.66155 0.67843
 C772 C 0.82388 0.68076 0.66928
 C773 C 0.81783 0.68232 0.64108
 N774 N 0.83667 0.66560 0.62340
 C775 C 0.88171 0.62927 0.61220
 N776 N 0.86710 0.61782 0.58931
 C777 C 0.88337 0.59876 0.57177
 C778 C 0.91605 0.58983 0.57720
 C779 C 0.93192 0.60253 0.59997
 C780 C 0.91497 0.62233 0.61735
 H781 H 0.85522 0.65933 0.69992
 H782 H 0.79814 0.69666 0.63312
 H783 H 0.87041 0.58971 0.55421
 H784 H 0.95728 0.59669 0.60465
 H785 H 0.88767 0.62981 0.66781
 H786 H 0.92776 0.63176 0.63484
 C787 C 0.64786 0.84966 0.12578
 C788 C 0.67324 0.82941 0.11785
 C789 C 0.69044 0.81257 0.13774
 C790 C 0.68252 0.81595 0.16544
 C791 C 0.65684 0.83629 0.17234
 N792 N 0.64045 0.85221 0.15270
 C793 C 0.62841 0.86839 0.10617
 N794 N 0.59862 0.87943 0.11441
 C795 C 0.57984 0.89838 0.09867
 C796 C 0.59109 0.90795 0.07301
 C797 C 0.62151 0.89659 0.06378
 C798 C 0.64026 0.87678 0.08027
 H799 H 0.70990 0.79698 0.13144
 H800 H 0.64955 0.83951 0.19335
 H801 H 0.55653 0.90655 0.10658
 H802 H 0.63114 0.90357 0.04414
 H803 H 0.67948 0.82613 0.09664
 H804 H 0.66412 0.86917 0.07313
 C805 C 1.14680 0.34859 0.62571
 C806 C 1.17219 0.32838 0.61772
 C807 C 1.18940 0.31147 0.63756
 C808 C 1.18147 0.31474 0.66526
 C809 C 1.15570 0.33497 0.67222
 N810 N 1.13932 0.35097 0.65262
 C811 C 1.12748 0.36758 0.60620
 N812 N 1.09777 0.37876 0.61450
 C813 C 1.07920 0.39805 0.59891
 C814 C 1.09060 0.40785 0.57336
 C815 C 1.12093 0.39634 0.56407
 C816 C 1.13946 0.37617 0.58039
 H817 H 1.20893 0.29597 0.63124
 H818 H 1.14838 0.33809 0.69323
 H819 H 1.05594 0.40631 0.60686
 H820 H 1.13067 0.40348 0.54451
 H821 H 1.17848 0.32524 0.59650
 H822 H 1.16327 0.36847 0.57321
 C823 C 0.64440 1.14812 -0.12754
 C824 C 0.66882 1.16921 -0.11921
 C825 C 0.68585 1.18650 -0.13881
 C826 C 0.67874 1.18276 -0.16664
 C827 C 0.65390 1.16167 -0.17397
 N828 N 0.63763 1.14529 -0.15457
 C829 C 0.62543 1.12878 -0.10813
 N830 N 0.59582 1.11725 -0.11639
 C831 C 0.57754 1.09788 -0.10067
 C832 C 0.58917 1.08839 -0.07506
 C833 C 0.61947 1.10016 -0.06590
 C834 C 0.63766 1.12039 -0.08233
 H835 H 0.70464 1.20265 -0.13218
 H836 H 0.64726 1.15818 -0.19511
 H837 H 0.55432 1.08934 -0.10854
 H838 H 0.62937 1.09326 -0.04630
 H839 H 0.67446 1.17273 -0.09790
 H840 H 0.66144 1.12836 -0.07521
 C841 C 1.14612 0.64692 0.37296
 C842 C 1.17050 0.66804 0.38127
 C843 C 1.18784 0.68497 0.36164
 C844 C 1.18107 0.68083 0.33380
 C845 C 1.15633 0.65964 0.32647
 N846 N 1.13974 0.64363 0.34591
 C847 C 1.12675 0.62807 0.39242
 N848 N 1.09710 0.61671 0.38406
 C849 C 1.07848 0.59771 0.39984
 C850 C 1.08979 0.58845 0.42560
 C851 C 1.12009 0.60009 0.43488
 C852 C 1.13864 0.61995 0.41838
 H853 H 1.20654 0.70123 0.36825
 H854 H 1.14996 0.65585 0.30532
 H855 H 1.05526 0.58925 0.39189
 H856 H 1.12975 0.59335 0.45460
 H857 H 1.17582 0.67192 0.40260
 H858 H 1.16243 0.62780 0.42557
 C859 C 0.34938 0.85563 -0.12789
 C860 C 0.32479 0.83467 -0.11962
 C861 C 0.30769 0.81744 -0.13925
 C862 C 0.31491 0.82108 -0.16707
 C863 C 0.33972 0.84224 -0.17436
 N864 N 0.35606 0.85852 -0.15494
 C865 C 0.36893 0.87448 -0.10845
 N866 N 0.39842 0.88602 -0.11696
 C867 C 0.41743 0.90465 -0.10114
 C868 C 0.40682 0.91328 -0.07506
 C869 C 0.37662 0.90156 -0.06564
 C870 C 0.35762 0.88212 -0.08223
 H871 H 0.28894 0.80124 -0.13263
 H872 H 0.34642 0.84574 -0.19548
 H873 H 0.44052 0.91318 -0.10925
 H874 H 0.36746 0.90781 -0.04569
 H875 H 0.31916 0.83106 -0.09832
 H876 H 0.33400 0.87412 -0.07483
 C877 C 0.84935 0.35614 0.37296
 C878 C 0.82515 0.33484 0.38134
 C879 C 0.80776 0.31785 0.36175
 C880 C 0.81430 0.32208 0.33388
 C881 C 0.83869 0.34361 0.32649
 N882 N 0.85536 0.35964 0.34587
 C883 C 0.86921 0.37471 0.39234
 N884 N 0.89855 0.38637 0.38361
 C885 C 0.91775 0.40488 0.39936
 C886 C 0.90745 0.41328 0.42558
 C887 C 0.87744 0.40139 0.43523
 C888 C 0.85826 0.38207 0.41872
 H889 H 0.78936 0.30133 0.36842
 H890 H 0.84487 0.34757 0.30533
 H891 H 0.94070 0.41356 0.39109
 H892 H 0.86853 0.40747 0.45531
 H893 H 0.82009 0.33078 0.40268
 H894 H 0.83476 0.37395 0.42628
 C895 C 1.15430 0.35621 0.12521
 C896 C 1.17416 0.33113 0.11715
 C897 C 1.19057 0.31347 0.13695
 C898 C 1.18721 0.32066 0.16472
 C899 C 1.16762 0.34627 0.17175
 N900 N 1.15202 0.36303 0.15218
 C901 C 1.13535 0.37564 0.10572
 N902 N 1.12470 0.40393 0.11422
 C903 C 1.10528 0.42251 0.09863
 C904 C 1.09471 0.41267 0.07284
 C905 C 1.10570 0.38382 0.06336
 C906 C 1.12602 0.36524 0.07968
 H907 H 1.20565 0.29412 0.13055
 H908 H 1.16450 0.35302 0.19281
 H909 H 1.09742 0.44458 0.10675
 H910 H 1.09798 0.37531 0.04361
 H911 H 1.17734 0.32528 0.09590
 H912 H 1.13316 0.34266 0.07228
 C913 C 0.64722 0.85034 0.62532
 C914 C 0.67402 0.83171 0.61750
 C915 C 0.69155 0.81520 0.63736
 C916 C 0.68246 0.81722 0.66491
 C917 C 0.65538 0.83591 0.67172
 N918 N 0.63876 0.85161 0.65209
 C919 C 0.62749 0.86882 0.60578
 N920 N 0.59723 0.87886 0.61387
 C921 C 0.57817 0.89767 0.59824
 C922 C 0.58960 0.90807 0.57291
 C923 C 0.62044 0.89766 0.56380
 C924 C 0.63949 0.87803 0.58016
 H925 H 0.71215 0.80091 0.63116
 H926 H 0.64721 0.83803 0.69261
 H927 H 0.55451 0.90511 0.60602
 H928 H 0.63020 0.90531 0.54440
 H929 H 0.68120 0.82943 0.59640
 H930 H 0.66369 0.87128 0.57314
 C931 C 1.15017 0.64116 -0.13209
 C932 C 1.17039 0.66540 -0.12294
 C933 C 1.18742 0.68374 -0.14192
 C934 C 1.18390 0.67841 -0.17018
 C935 C 1.16318 0.65372 -0.17818
 N936 N 1.14739 0.63618 -0.15933
 C937 C 1.13122 0.62113 -0.11307
 N938 N 1.12448 0.63063 -0.08717
 C939 C 1.10533 0.61364 -0.06986
 C940 C 1.09161 0.58538 -0.07843
 C941 C 1.09900 0.57491 -0.10474
 C942 C 1.11858 0.59266 -0.12205
 H943 H 1.20296 0.70225 -0.13436
 H944 H 1.15939 0.64808 -0.19944
 H945 H 1.10037 0.62246 -0.04966
 H946 H 1.08907 0.55324 -0.11220
 H947 H 1.17319 0.67001 -0.10139
 H948 H 1.12351 0.58426 -0.14242
 C949 C 0.64837 1.14367 0.37189
 C950 C 0.67399 1.16350 0.38014
 C951 C 0.69127 1.18057 0.36056
 C952 C 0.68314 1.17794 0.33282
 C953 C 0.65738 1.15784 0.32553
 N954 N 0.64088 1.14165 0.34492
 C955 C 0.62864 1.12509 0.39134
 N956 N 0.59850 1.11472 0.38315
 C957 C 0.57929 1.09634 0.39903
 C958 C 0.59040 1.08679 0.42476
 C959 C 0.62122 1.09736 0.43384
 C960 C 0.64043 1.11651 0.41723
 H961 H 0.71083 1.19592 0.36715
 H962 H 0.65000 1.15516 0.30446
 H963 H 0.55569 1.08868 0.39121
 H964 H 0.63077 1.09034 0.45353
 H965 H 0.68030 1.16641 0.40139
 H966 H 0.66454 1.12353 0.42433
 C967 C 0.84973 0.63568 0.13298
 C968 C 0.85151 0.62902 0.16093
 C969 C 0.83525 0.64790 0.17947
 C970 C 0.81708 0.67366 0.17048
 C971 C 0.81590 0.67965 0.14231
 N972 N 0.83226 0.66091 0.12453
 C973 C 0.86785 0.61649 0.11293
 N974 N 0.88022 0.62981 0.08991
 C975 C 0.89947 0.61385 0.07203
 C976 C 0.90767 0.58278 0.07720
 C977 C 0.89396 0.56833 0.10012
 C978 C 0.87394 0.58496 0.11786
 H979 H 0.83710 0.64231 0.20094
 H980 H 0.80237 0.69935 0.13447
 H981 H 0.90929 0.62573 0.05439
 H982 H 0.89919 0.54426 0.10464
 H983 H 0.86602 0.60987 0.16863
 H984 H 0.86368 0.57321 0.13540
 C985 C 0.35764 1.14230 0.63361
 C986 C 0.36326 1.13866 0.66162
 C987 C 0.34416 1.15498 0.68013
 C988 C 0.31919 1.17504 0.67102
 C989 C 0.31367 1.17744 0.64279
 N990 N 0.33274 1.16115 0.62501
 C991 C 0.37798 1.12533 0.61363
 N992 N 0.36414 1.11493 0.59005
 C993 C 0.38115 1.09696 0.57212
 C994 C 0.41379 1.08819 0.57784
 C995 C 0.42887 1.09988 0.60136
 C996 C 0.41118 1.11853 0.61917
 H997 H 0.34926 1.15200 0.70164
 H998 H 0.29451 1.19241 0.63487
 H999 H 0.36880 1.08866 0.55399
 H1000 H 0.45417 1.09409 0.60631
 H1001 H 0.38201 1.12306 0.66929
 H1002 H 0.42332 1.12722 0.63727
 C1003 C 0.84327 0.36216 -0.12810
 C1004 C 0.82191 0.33831 -0.11980
 C1005 C 0.80536 0.32071 -0.13943
 C1006 C 0.80997 0.32675 -0.16731
 C1007 C 0.83085 0.35134 -0.17465
 N1008 N 0.84667 0.36808 -0.15520
 C1009 C 0.86273 0.38098 -0.10856
 N1010 N 0.87458 0.40890 -0.11698
 C1011 C 0.89441 0.42676 -0.10113
 C1012 C 0.90411 0.41648 -0.07520
 C1013 C 0.89194 0.38796 -0.06587
 C1014 C 0.87126 0.37016 -0.08243
 H1015 H 0.78930 0.30216 -0.13277
 H1016 H 0.83496 0.35714 -0.19584
 H1017 H 0.90325 0.44860 -0.10913
 H1018 H 0.89900 0.37910 -0.04604
 H1019 H 0.81775 0.33330 -0.09849
 H1020 H 0.86320 0.34777 -0.07513
 C1021 C 0.34717 0.85829 0.37222
 C1022 C 0.32146 0.83850 0.38034
 C1023 C 0.30429 0.82151 0.36067
 C1024 C 0.31265 0.82419 0.33299
 C1025 C 0.33835 0.84440 0.32582
 N1026 N 0.35474 0.86049 0.34530
 C1027 C 0.36711 0.87650 0.39172
 N1028 N 0.39718 0.88684 0.38344
 C1029 C 0.41667 0.90488 0.39933
 C1030 C 0.40593 0.91406 0.42520
 C1031 C 0.37519 0.90348 0.43441
 C1032 C 0.35567 0.88469 0.41775
 H1033 H 0.28477 0.80607 0.36716
 H1034 H 0.34585 0.84716 0.30481
 H1035 H 0.44020 0.91256 0.39143
 H1036 H 0.36595 0.91024 0.45421
 H1037 H 0.31508 0.83549 0.40156
 H1038 H 0.33162 0.87765 0.42493
 C1039 C 1.14232 1.15296 0.37496
 C1040 C 1.16910 1.17167 0.38263
 C1041 C 1.18604 1.18848 0.36274
 C1042 C 1.17641 1.18672 0.33527
 C1043 C 1.14904 1.16834 0.32863
 N1044 N 1.13300 1.15222 0.34832
 C1045 C 1.12388 1.13356 0.39457
 N1046 N 1.09314 1.12389 0.38744
 C1047 C 1.07527 1.10417 0.40310
 C1048 C 1.08854 1.09236 0.42738
 C1049 C 1.11994 1.10234 0.43551
 C1050 C 1.13773 1.12295 0.41918
 H1051 H 1.20691 1.20252 0.36884
 H1052 H 1.14047 1.16649 0.30780
 H1053 H 1.05109 1.09712 0.39610
 H1054 H 1.13108 1.09360 0.45406
 H1055 H 1.17685 1.17355 0.40366
 H1056 H 1.16242 1.12937 0.42531
 C1057 C 0.64255 0.65153 -0.12553
 C1058 C 0.66931 0.67025 -0.11789
 C1059 C 0.68634 0.68688 -0.13783
 C1060 C 0.67679 0.68490 -0.16531
 C1061 C 0.64946 0.66646 -0.17193
 N1062 N 0.63333 0.65054 -0.15218
 C1063 C 0.62398 0.63242 -0.10584
 N1064 N 0.59311 0.62304 -0.11289
 C1065 C 0.57513 0.60351 -0.09716
 C1066 C 0.58842 0.59158 -0.07294
 C1067 C 0.61995 0.60130 -0.06489
 C1068 C 0.63785 0.62174 -0.08128
 H1069 H 0.70716 0.70099 -0.13175
 H1070 H 0.64097 0.66447 -0.19277
 H1071 H 0.55085 0.59666 -0.10407
 H1072 H 0.63109 0.59246 -0.04637
 H1073 H 0.67696 0.67231 -0.09685
 H1074 H 0.66263 0.62794 -0.07524
 C1075 C 0.86816 1.14982 0.63374
 C1076 C 0.87703 1.14992 0.66142
 C1077 C 0.85810 1.16647 0.68000
 C1078 C 0.83021 1.18295 0.67125
 C1079 C 0.82214 1.18232 0.64338
 N1080 N 0.84090 1.16581 0.62562
 C1081 C 0.88672 1.13127 0.61363
 N1082 N 0.87072 1.11967 0.59143
 C1083 C 0.88578 1.10042 0.57337
 C1084 C 0.91864 1.09144 0.57755
 C1085 C 0.93594 1.10425 0.59955
 C1086 C 0.92021 1.12428 0.61748
 H1087 H 0.86522 1.16608 0.70128
 H1088 H 0.80071 1.19453 0.63575
 H1089 H 0.87172 1.09125 0.55645
 H1090 H 0.96153 1.09835 0.60321
 H1091 H 0.89777 1.13667 0.66894
 H1092 H 0.93416 1.13388 0.63426
 C1093 C 0.37012 0.65238 0.13247
 C1094 C 0.37953 0.65275 0.16001
 C1095 C 0.36046 0.66877 0.17883
 C1096 C 0.33190 0.68445 0.17043
 C1097 C 0.32338 0.68371 0.14267
 N1098 N 0.34227 0.66767 0.12468
 C1099 C 0.38852 0.63395 0.11223
 N1100 N 0.37215 0.62185 0.09044
 C1101 C 0.38696 0.60235 0.07247
 C1102 C 0.41992 0.59357 0.07639
 C1103 C 0.43762 0.60694 0.09789
 C1104 C 0.42215 0.62729 0.11569
 H1105 H 0.36796 0.66854 0.20002
 H1106 H 0.30145 0.69534 0.13532
 H1107 H 0.37260 0.59275 0.05591
 H1108 H 0.46330 0.60118 0.10131
 H1109 H 0.40076 0.64001 0.16728
 H1110 H 0.43637 0.63729 0.13213
 C1111 C 1.14136 0.84692 0.62514
 C1112 C 1.16666 0.82655 0.61756
 C1113 C 1.18361 0.80996 0.63764
 C1114 C 1.17563 0.81361 0.66546
 C1115 C 1.14953 0.83389 0.67189
 N1116 N 1.13346 0.84962 0.65194
 C1117 C 1.12282 0.86589 0.60521
 N1118 N 1.09266 0.87674 0.61262
 C1119 C 1.07482 0.89617 0.59662
 C1120 C 1.08754 0.90650 0.57165
 C1121 C 1.11833 0.89528 0.56324
 C1122 C 1.13607 0.87493 0.57994
 H1123 H 1.20317 0.79452 0.63123
 H1124 H 1.14183 0.83758 0.69275
 H1125 H 1.05113 0.90420 0.60387
 H1126 H 1.12904 0.90286 0.54416
 H1127 H 1.17317 0.82313 0.59642
 H1128 H 1.16031 0.86749 0.57355
 C1129 C 0.63489 0.34432 0.12569
 C1130 C 0.62134 0.33970 0.15169
 C1131 C 0.63937 0.32392 0.17145
 C1132 C 0.67077 0.31230 0.16539
 C1133 C 0.68310 0.31647 0.13889
 N1134 N 0.66525 0.33246 0.12004
 C1135 C 0.61715 0.36333 0.10526
 N1136 N 0.58577 0.37259 0.11061
 C1137 C 0.56901 0.39226 0.09410
 C1138 C 0.58409 0.40446 0.07076
 C1139 C 0.61598 0.39446 0.06413
 C1140 C 0.63260 0.37378 0.08132
 H1141 H 0.62879 0.32102 0.19154
 H1142 H 0.70724 0.30784 0.13338
 H1143 H 0.54429 0.39910 0.09980
 H1144 H 0.62841 0.40336 0.04624
 H1145 H 0.59735 0.34885 0.15702
 H1146 H 0.65759 0.36697 0.07644
 C1147 C 0.85678 0.85155 0.37370
 C1148 C 0.83068 0.83219 0.38174
 C1149 C 0.81391 0.81482 0.36213
 C1150 C 0.82308 0.81661 0.33457
 C1151 C 0.84977 0.83570 0.32756
 N1152 N 0.86562 0.85238 0.34697
 C1153 C 0.87510 0.87145 0.39300
 N1154 N 0.90509 0.88244 0.38519
 C1155 C 0.92282 0.90245 0.40065
 C1156 C 0.91021 0.91311 0.42550
 C1157 C 0.87958 0.90185 0.43427
 C1158 C 0.86190 0.88104 0.41809
 H1159 H 0.79362 0.80022 0.36853
 H1160 H 0.85797 0.83764 0.30665
 H1161 H 0.94639 0.91052 0.39315
 H1162 H 0.86896 0.90968 0.45328
 H1163 H 0.82333 0.83016 0.40283
 H1164 H 0.83780 0.87360 0.42482
 C1165 C 0.35646 0.35258 -0.12708
 C1166 C 0.33067 0.33288 -0.11913
 C1167 C 0.31424 0.31537 -0.13879
 C1168 C 0.32345 0.31735 -0.16634
 C1169 C 0.34983 0.33681 -0.17329
 N1170 N 0.36539 0.35364 -0.15380
 C1171 C 0.37446 0.37246 -0.10761
 N1172 N 0.40466 0.38324 -0.11501
 C1173 C 0.42219 0.40311 -0.09928
 C1174 C 0.40917 0.41382 -0.07460
 C1175 C 0.37828 0.40281 -0.06625
 C1176 C 0.36079 0.38213 -0.08270
 H1177 H 0.29418 0.30049 -0.13241
 H1178 H 0.35800 0.33892 -0.19420
 H1179 H 0.44599 0.41100 -0.10645
 H1180 H 0.36734 0.41071 -0.04739
 H1181 H 0.32333 0.33067 -0.09805
 H1182 H 0.33649 0.37483 -0.07633
 C1183 C 1.14737 0.35663 -0.12967
 C1184 C 1.17000 0.33410 -0.12084
 C1185 C 1.18618 0.31575 -0.14000
 C1186 C 1.17996 0.31979 -0.16795
 C1187 C 1.15734 0.34274 -0.17588
 N1188 N 1.14196 0.36032 -0.15685
 C1189 C 1.12913 0.37668 -0.11053
 N1190 N 1.11683 0.40407 -0.11988
 C1191 C 1.09822 0.42305 -0.10410
 C1192 C 1.09044 0.41446 -0.07732
 C1193 C 1.10314 0.38655 -0.06711
 C1194 C 1.12248 0.36760 -0.08360
 H1195 H 1.20371 0.29860 -0.13293
 H1196 H 1.15195 0.34693 -0.19717
 H1197 H 1.08882 0.44436 -0.11276
 H1198 H 1.09751 0.37901 -0.04658
 H1199 H 1.17571 0.33094 -0.09948
 H1200 H 1.13095 0.34567 -0.07556
 C1201 C 0.64121 0.85025 0.37124
 C1202 C 0.66648 0.83015 0.37978
 C1203 C 0.68408 0.81319 0.36043
 C1204 C 0.67654 0.81600 0.33258
 C1205 C 0.65059 0.83581 0.32501
 N1206 N 0.63392 0.85213 0.34420
 C1207 C 0.62223 0.86976 0.39049
 N1208 N 0.59268 0.88148 0.38219
 C1209 C 0.57448 0.90090 0.39792
 C1210 C 0.58611 0.91010 0.42357
 C1211 C 0.61633 0.89816 0.43272
 C1212 C 0.63448 0.87805 0.41629
 H1213 H 0.70368 0.79803 0.36729
 H1214 H 0.64365 0.83859 0.30384
 H1215 H 0.55131 0.90961 0.39006
 H1216 H 0.62629 0.90486 0.45233
 H1217 H 0.67258 0.82720 0.40107
 H1218 H 0.65822 0.87010 0.42348
 C1219 C 0.85214 0.64518 -0.12758
 C1220 C 0.86047 0.64304 -0.15517
 C1221 C 0.84535 0.66240 -0.17396
 C1222 C 0.82165 0.68410 -0.16556
 C1223 C 0.81472 0.68630 -0.13754
 N1224 N 0.83003 0.66704 -0.11942
 C1225 C 0.86763 0.62400 -0.10772
 N1226 N 0.87869 0.63494 -0.08336
 C1227 C 0.89669 0.61699 -0.06598
 C1228 C 0.90492 0.58646 -0.07316
 C1229 C 0.89217 0.57437 -0.09744
 C1230 C 0.87348 0.59299 -0.11469
 H1231 H 0.85193 0.65987 -0.19521
 H1232 H 0.79680 0.70282 -0.13014
 H1233 H 0.90575 0.62699 -0.04720
 H1234 H 0.89752 0.55083 -0.10357
 H1235 H 0.87867 0.62654 -0.16221
 H1236 H 0.86441 0.58345 -0.13366
 C1237 C 0.35657 1.15376 0.37658
 C1238 C 0.32906 1.17164 0.38409
 C1239 C 0.31208 1.18863 0.36419
 C1240 C 0.32242 1.18788 0.33689
 C1241 C 0.35052 1.17035 0.33047
 N1242 N 0.36650 1.15405 0.35011
 C1243 C 0.37519 1.13401 0.39602
 N1244 N 0.40549 1.12365 0.38835
 C1245 C 0.42349 1.10366 0.40373
 C1246 C 0.41089 1.09229 0.42837
 C1247 C 0.37998 1.10297 0.43707
 C1248 C 0.36202 1.12379 0.42097
 H1249 H 0.29064 1.20195 0.37010
 H1250 H 0.35969 1.16927 0.30980
 H1251 H 0.44727 1.09611 0.39628
 H1252 H 0.36933 1.09461 0.45592
 H1253 H 0.32067 1.17275 0.40495
 H1254 H 0.33774 1.13071 0.42766
 C1255 C 1.15354 0.64074 0.12739
 C1256 C 1.17508 0.66447 0.11919
 C1257 C 1.19104 0.68235 0.13891
 C1258 C 1.18563 0.67667 0.16673
 C1259 C 1.16422 0.65247 0.17399
 N1260 N 1.14906 0.63540 0.15446
 C1261 C 1.13527 0.62123 0.10777
 N1262 N 1.12387 0.59322 0.11637
 C1263 C 1.10495 0.57470 0.10039
 C1264 C 1.09576 0.58444 0.07420
 C1265 C 1.10761 0.61297 0.06466
 C1266 C 1.12738 0.63144 0.08135
 H1267 H 1.20760 0.70057 0.13235
 H1268 H 1.15951 0.64698 0.19515
 H1269 H 1.09630 0.55286 0.10853
 H1270 H 1.10090 0.62138 0.04460
 H1271 H 1.18001 0.66901 0.09791
 H1272 H 1.13515 0.65387 0.07392
 C1273 C 0.64758 1.14525 0.62709
 C1274 C 0.67418 1.16406 0.61907
 C1275 C 0.69131 1.18119 0.63869
 C1276 C 0.68203 1.17971 0.66624
 C1277 C 0.65505 1.16094 0.67325
 N1278 N 0.63883 1.14455 0.65383
 C1279 C 0.62839 1.12604 0.60772
 N1280 N 0.59826 1.11556 0.61573
 C1281 C 0.57957 1.09645 0.60011
 C1282 C 0.59123 1.08625 0.57480
 C1283 C 0.62203 1.09695 0.56584
 C1284 C 0.64071 1.11681 0.58221
 H1285 H 0.71182 1.19551 0.63230
 H1286 H 0.64676 1.15918 0.69414
 H1287 H 0.55594 1.08878 0.60780
 H1288 H 0.63197 1.08945 0.54648
 H1289 H 0.68156 1.16597 0.59799
 H1290 H 0.66484 1.12386 0.57523
 C1291 C 0.84996 0.35739 0.12816
 C1292 C 0.82809 0.33406 0.11963
 C1293 C 0.81159 0.31620 0.13910
 C1294 C 0.81674 0.32151 0.16701
 C1295 C 0.83857 0.34526 0.17459
 N1296 N 0.85426 0.36230 0.15530
 C1297 C 0.86865 0.37703 0.10883
 N1298 N 0.88090 0.40452 0.11790
 C1299 C 0.89995 0.42319 0.10213
 C1300 C 0.90831 0.41421 0.07560
 C1301 C 0.89568 0.38619 0.06562
 C1302 C 0.87586 0.36754 0.08213
 H1303 H 0.79472 0.29837 0.13229
 H1304 H 0.84317 0.35046 0.19582
 H1305 H 0.90923 0.44460 0.11063
 H1306 H 0.90172 0.37834 0.04529
 H1307 H 0.82325 0.32985 0.09829
 H1308 H 0.86744 0.34554 0.07427
 C1309 C 0.35379 0.85090 0.62829
 C1310 C 0.32933 0.82993 0.61993
 C1311 C 0.31201 0.81277 0.63945
 C1312 C 0.31877 0.81640 0.66750
 C1313 C 0.34396 0.83743 0.67475
 N1314 N 0.36043 0.85366 0.65534
 C1315 C 0.37291 0.87022 0.60889
 N1316 N 0.40252 0.88174 0.61718
 C1317 C 0.42095 0.90098 0.60142
 C1318 C 0.40952 0.91032 0.57569
 C1319 C 0.37920 0.89861 0.56652
 C1320 C 0.36084 0.87853 0.58300
 H1321 H 0.29319 0.79686 0.63241
 H1322 H 0.35071 0.84123 0.69584
 H1323 H 0.44416 0.90948 0.60933
 H1324 H 0.36942 0.90539 0.54685
 H1325 H 0.32379 0.82642 0.59859
 H1326 H 0.33707 0.87060 0.57583
 C1327 C 0.35834 1.15381 -0.12348
 C1328 C 0.33216 1.17321 -0.11570
 C1329 C 0.31503 1.19004 -0.13561
 C1330 C 0.32386 1.18755 -0.16319
 C1331 C 0.35072 1.16854 -0.16991
 N1332 N 0.36692 1.15247 -0.15024
 C1333 C 0.37694 1.13422 -0.10397
 N1334 N 0.40689 1.12321 -0.11183
 C1335 C 0.42470 1.10316 -0.09639
 C1336 C 0.41222 1.09234 -0.07151
 C1337 C 0.38167 1.10370 -0.06262
 C1338 C 0.36393 1.12465 -0.07876
 H1339 H 0.29462 1.20459 -0.12946
 H1340 H 0.35875 1.16613 -0.19082
 H1341 H 0.44821 1.09507 -0.10399
 H1342 H 0.37112 1.09580 -0.04358
 H1343 H 0.32497 1.17558 -0.09460
 H1344 H 0.33988 1.13214 -0.07197
 C1345 C 0.85830 0.65333 0.37626
 C1346 C 0.83210 0.67271 0.38402
 C1347 C 0.81501 0.68954 0.36410
 C1348 C 0.82391 0.68710 0.33652
 C1349 C 0.85078 0.66808 0.32983
 N1350 N 0.86694 0.65200 0.34952
 C1351 C 0.87688 0.63377 0.39583
 N1352 N 0.90690 0.62284 0.38806
 C1353 C 0.92474 0.60290 0.40360
 C1354 C 0.91222 0.59215 0.42849
 C1355 C 0.88159 0.60342 0.43727
 C1356 C 0.86382 0.62424 0.42103
 H1357 H 0.79460 0.70409 0.37023
 H1358 H 0.85884 0.66568 0.30893
 H1359 H 0.94830 0.59487 0.39607
 H1360 H 0.87102 0.59555 0.45632
 H1361 H 0.82487 0.67508 0.40510
 H1362 H 0.83972 0.63167 0.42775
 C1363 C 0.64494 1.14840 0.12652
 C1364 C 0.67002 1.16891 0.11843
 C1365 C 0.68651 1.18656 0.13810
 C1366 C 0.67817 1.18380 0.16578
 C1367 C 0.65257 1.16343 0.17285
 N1368 N 0.63691 1.14663 0.15339
 C1369 C 0.62662 1.12848 0.10709
 N1370 N 0.59701 1.11678 0.11511
 C1371 C 0.57922 1.09695 0.09949
 C1372 C 0.59130 1.08716 0.07417
 C1373 C 0.62160 1.09906 0.06521
 C1374 C 0.63935 1.11974 0.08158
 H1375 H 0.70596 1.20211 0.13165
 H1376 H 0.64499 1.16067 0.19385
 H1377 H 0.55595 1.08838 0.10721
 H1378 H 0.63185 1.09195 0.04585
 H1379 H 0.67671 1.17166 0.09724
 H1380 H 0.66313 1.12782 0.07463
 C1381 C 1.13754 0.65243 0.62732
 C1382 C 1.12739 0.65335 0.65462
 C1383 C 1.14562 0.67006 0.67355
 C1384 C 1.17417 0.68604 0.66562
 C1385 C 1.18352 0.68478 0.63806
 N1386 N 1.16541 0.66795 0.61988
 C1387 C 1.11923 0.63346 0.60717
 N1388 N 1.13576 0.61890 0.58669
 C1389 C 1.12056 0.59857 0.56950
 C1390 C 1.08704 0.59144 0.57299
 C1391 C 1.06934 0.60737 0.59305
 C1392 C 1.08518 0.62851 0.60993
 H1393 H 1.13738 0.67021 0.69453
 H1394 H 1.20551 0.69657 0.63110
 H1395 H 1.13496 0.58698 0.55403
 H1396 H 1.04330 0.60302 0.59608
 H1397 H 1.10609 0.64053 0.66163
 H1398 H 1.07092 0.64040 0.62532
 C1399 C 0.63442 0.84741 -0.13155
 C1400 C 0.62552 0.84705 -0.15919
 C1401 C 0.64436 0.83034 -0.17770
 C1402 C 0.67230 0.81385 -0.16900
 C1403 C 0.68039 0.81460 -0.14113
 N1404 N 0.66169 0.83136 -0.12339
 C1405 C 0.61567 0.86630 -0.11165
 N1406 N 0.63151 0.87891 -0.08980
 C1407 C 0.61616 0.89865 -0.07225
 C1408 C 0.58314 0.90714 -0.07661
 C1409 C 0.56606 0.89336 -0.09826
 C1410 C 0.58206 0.87283 -0.11562
 H1411 H 0.63711 0.83065 -0.19894
 H1412 H 0.70184 0.80240 -0.13354
 H1413 H 0.63009 0.90854 -0.05557
 H1414 H 0.54039 0.89883 -0.10207
 H1415 H 0.60479 0.86029 -0.16678
 H1416 H 0.56822 0.86249 -0.13212
 C1417 C 1.13531 0.34928 0.36832
 C1418 C 1.12680 0.34962 0.34058
 C1419 C 1.14562 0.33299 0.32200
 C1420 C 1.17312 0.31591 0.33075
 C1421 C 1.18086 0.31606 0.35870
 N1422 N 1.16220 0.33273 0.37650
 C1423 C 1.11650 0.36787 0.38835
 N1424 N 1.13223 0.38005 0.41045
 C1425 C 1.11679 0.39946 0.42821
 C1426 C 1.08379 0.40801 0.42384
 C1427 C 1.06683 0.39462 0.40193
 C1428 C 1.08294 0.37445 0.38433
 H1429 H 1.13869 0.33377 0.30069
 H1430 H 1.20199 0.30339 0.36632
 H1431 H 1.13062 0.40907 0.44507
 H1432 H 1.04118 0.40014 0.39809
 H1433 H 1.10635 0.36327 0.33303
 H1434 H 1.06922 0.36443 0.36760
 C1435 C 0.35924 0.84736 0.12727
 C1436 C 0.33434 0.82673 0.11910
 C1437 C 0.31730 0.80961 0.13878
 C1438 C 0.32493 0.81301 0.16655
 C1439 C 0.35050 0.83336 0.17372
 N1440 N 0.36670 0.84969 0.15424
 C1441 C 0.37771 0.86701 0.10779
 N1442 N 0.40753 0.87839 0.11567
 C1443 C 0.42528 0.89820 0.09996
 C1444 C 0.41284 0.90831 0.07478
 C1445 C 0.38234 0.89668 0.06599
 C1446 C 0.36470 0.87601 0.08240
 H1447 H 0.29792 0.79403 0.13226
 H1448 H 0.35754 0.83655 0.19482
 H1449 H 0.44871 0.90659 0.10752
 H1450 H 0.37183 0.90406 0.04675
 H1451 H 0.32816 0.82357 0.09784
 H1452 H 0.34072 0.86820 0.07562
 C1453 C 0.86015 0.34666 0.62719
 C1454 C 0.83526 0.32603 0.61897
 C1455 C 0.81814 0.30895 0.63861
 C1456 C 0.82567 0.31238 0.66640
 C1457 C 0.85131 0.33263 0.67362
 N1458 N 0.86758 0.34895 0.65416
 C1459 C 0.87854 0.36643 0.60776
 N1460 N 0.90829 0.37793 0.61567
 C1461 C 0.92590 0.39793 0.60005
 C1462 C 0.91338 0.40813 0.57493
 C1463 C 0.88296 0.39637 0.56609
 C1464 C 0.86546 0.37549 0.58240
 H1465 H 0.79870 0.29345 0.63207
 H1466 H 0.85828 0.33582 0.69473
 H1467 H 0.94928 0.40641 0.60764
 H1468 H 0.87239 0.40381 0.54688
 H1469 H 0.82911 0.32290 0.59770
 H1470 H 0.84152 0.36760 0.57560
 C1471 C 1.14107 1.14481 0.63102
 C1472 C 1.13261 1.14317 0.65868
 C1473 C 1.15097 1.15949 0.67775
 C1474 C 1.17794 1.17755 0.66953
 C1475 C 1.18601 1.17824 0.64167
 N1476 N 1.16772 1.16191 0.62334
 C1477 C 1.12196 1.12738 0.61051
 N1478 N 1.13756 1.11453 0.58870
 C1479 C 1.12151 1.09575 0.57075
 C1480 C 1.08811 1.08860 0.57475
 C1481 C 1.07133 1.10292 0.59623
 C1482 C 1.08804 1.12242 0.61398
 H1483 H 1.14384 1.15802 0.69897
 H1484 H 1.20681 1.19164 0.63447
 H1485 H 1.13517 1.08537 0.55419
 H1486 H 1.04538 1.09848 0.59973
 H1487 H 1.11230 1.12899 0.66568
 H1488 H 1.07460 1.13306 0.63054
 C1489 C 0.64773 0.64391 0.12778
 C1490 C 0.67351 0.66371 0.11992
 C1491 C 0.69018 0.68085 0.13973
 C1492 C 0.68127 0.67832 0.16730
 C1493 C 0.65523 0.65842 0.17419
 N1494 N 0.63935 0.64210 0.15457
 C1495 C 0.62885 0.62502 0.10812
 N1496 N 0.59854 0.61467 0.11574
 C1497 C 0.58007 0.59581 0.09978
 C1498 C 0.59218 0.58573 0.07458
 C1499 C 0.62317 0.59633 0.06602
 C1500 C 0.64162 0.61598 0.08273
 H1501 H 0.71002 0.69604 0.13345
 H1502 H 0.64729 0.65586 0.19512
 H1503 H 0.55626 0.58821 0.10714
 H1504 H 0.63342 0.58888 0.04675
 H1505 H 0.68047 0.66643 0.09879
 H1506 H 0.66593 0.62301 0.07614
 C1507 C 1.13768 0.85276 0.36749
 C1508 C 1.16615 0.83704 0.37611
 C1509 C 1.18419 0.81964 0.35735
 C1510 C 1.17409 0.81815 0.32998
 C1511 C 1.14544 0.83415 0.32227
 N1512 N 1.12826 0.85073 0.34091
 C1513 C 1.11827 0.87217 0.38641
 N1514 N 1.13083 0.88017 0.41121
 C1515 C 1.11456 0.89940 0.42853
 C1516 C 1.08395 0.91196 0.42104
 C1517 C 1.07025 0.90341 0.39592
 C1518 C 1.08729 0.88363 0.37859
 H1519 H 1.20621 0.80773 0.36417
 H1520 H 1.13660 0.83351 0.30146
 H1521 H 1.12587 0.90535 0.44781
 H1522 H 1.04661 0.91247 0.38939
 H1523 H 1.17440 0.83817 0.39708
 H1524 H 1.07644 0.87769 0.35912
 C1525 C 0.63308 0.35325 -0.13478
 C1526 C 0.62577 0.35495 -0.16271
 C1527 C 0.64482 0.33847 -0.18120
 C1528 C 0.67130 0.32027 -0.17211
 C1529 C 0.67806 0.31937 -0.14401
 N1530 N 0.65916 0.33583 -0.12631
 C1531 C 0.61395 0.37122 -0.11470
 N1532 N 0.62912 0.38180 -0.09175
 C1533 C 0.61349 0.40052 -0.07361
 C1534 C 0.58090 0.40995 -0.07848
 C1535 C 0.56440 0.39813 -0.10130
 C1536 C 0.58071 0.37865 -0.11933
 H1537 H 0.63875 0.34007 -0.20266
 H1538 H 0.69841 0.30582 -0.13613
 H1539 H 0.62691 0.40893 -0.05604
 H1540 H 0.53905 0.40443 -0.10554
 H1541 H 0.60602 0.36939 -0.17039
 H1542 H 0.56745 0.36982 -0.13681
 C1543 C 0.85580 1.15213 0.37454
 C1544 C 0.82920 1.17107 0.38212
 C1545 C 0.81201 1.18753 0.36210
 C1546 C 0.82124 1.18521 0.33459
 C1547 C 0.84823 1.16635 0.32801
 N1548 N 0.86455 1.15062 0.34782
 C1549 C 0.87489 1.13351 0.39438
 N1550 N 0.90542 1.12359 0.38695
 C1551 C 0.92388 1.10463 0.40290
 C1552 C 0.91151 1.09392 0.42785
 C1553 C 0.88037 1.10421 0.43628
 C1554 C 0.86194 1.12401 0.41961
 H1555 H 0.79144 1.20195 0.36816
 H1556 H 0.85647 1.16402 0.30714
 H1557 H 0.94783 1.09729 0.39566
 H1558 H 0.86989 1.09629 0.45534
 H1559 H 0.82188 1.17355 0.40318
 H1560 H 0.83746 1.13066 0.42605
 C1561 C 0.35471 0.65134 -0.12600
 C1562 C 0.32835 0.67057 -0.11841
 C1563 C 0.31097 0.68679 -0.13848
 C1564 C 0.31977 0.68390 -0.16604
 C1565 C 0.34648 0.66469 -0.17265
 N1566 N 0.36300 0.64924 -0.15278
 C1567 C 0.37406 0.63308 -0.10611
 N1568 N 0.40448 0.62301 -0.11369
 C1569 C 0.42315 0.60431 -0.09767
 C1570 C 0.41110 0.59403 -0.07248
 C1571 C 0.38009 0.60451 -0.06389
 C1572 C 0.36146 0.62405 -0.08063
 H1573 H 0.29065 0.70151 -0.13242
 H1574 H 0.35438 0.66193 -0.19355
 H1575 H 0.44698 0.59681 -0.10505
 H1576 H 0.36987 0.59692 -0.04463
 H1577 H 0.32140 0.67351 -0.09731
 H1578 H 0.33708 0.63084 -0.07405
 C1579 C 0.85475 0.85198 0.62583
 C1580 C 0.82850 0.83267 0.61809
 C1581 C 0.81159 0.81585 0.63800
 C1582 C 0.82072 0.81828 0.66555
 C1583 C 0.84727 0.83764 0.67231
 N1584 N 0.86337 0.85362 0.65259
 C1585 C 0.87374 0.87069 0.60611
 N1586 N 0.90444 0.88026 0.61347
 C1587 C 0.92291 0.89922 0.59760
 C1588 C 0.91034 0.91032 0.57282
 C1589 C 0.87897 0.90045 0.56448
 C1590 C 0.86056 0.88059 0.58105
 H1591 H 0.79133 0.80107 0.63185
 H1592 H 0.85541 0.84004 0.69321
 H1593 H 0.94703 0.90624 0.60478
 H1594 H 0.86837 0.90867 0.54553
 H1595 H 0.82132 0.83014 0.59698
 H1596 H 0.83594 0.87419 0.57472
 C1597 C 0.35606 0.35144 0.12600
 C1598 C 0.32976 0.33213 0.11840
 C1599 C 0.31314 0.31519 0.13838
 C1600 C 0.32261 0.31749 0.16585
 C1601 C 0.34927 0.33677 0.17246
 N1602 N 0.36508 0.35290 0.15268
 C1603 C 0.37462 0.37044 0.10621
 N1604 N 0.40538 0.38006 0.11331
 C1605 C 0.42345 0.39934 0.09742
 C1606 C 0.41038 0.41073 0.07292
 C1607 C 0.37894 0.40079 0.06483
 C1608 C 0.36094 0.38061 0.08141
 H1609 H 0.29277 0.30048 0.13235
 H1610 H 0.35766 0.33906 0.19331
 H1611 H 0.44765 0.40638 0.10439
 H1612 H 0.36796 0.40923 0.04610
 H1613 H 0.32228 0.32975 0.09734
 H1614 H 0.33625 0.37416 0.07531
   
