data_POSCAR
  _audit_creation_date              2014-09-24
  _audit_creation_method            'ToBaCCo'
  _symmetry_space_group_name_H-M    'P1'
  _symmetry_Int_Tables_number       1
  _symmetry_cell_setting            triclinic
  loop_
  _symmetry_equiv_pos_as_xyz
 x,y,z
_cell_length_a 43.1808
_cell_length_b 43.5780
_cell_length_c 52.7462
_cell_angle_alpha 89.948100
_cell_angle_beta 89.953100
_cell_angle_gamma 90.012100
loop_
  _atom_site_label
  _atom_site_type_symbol
  _atom_site_fract_x
  _atom_site_fract_y
  _atom_site_fract_z
Zr1 Zr 0.24699 0.24543 0.29415
 O2 O 0.27124 0.26932 0.32291
 O3 O 0.21696 0.21757 0.31536
 O4 O 0.21724 0.27419 0.31512
 O5 O 0.30399 0.19072 0.28457
 O6 O 0.19212 0.30243 0.28499
 O7 O 0.27646 0.21628 0.31497
 O8 O 0.18782 0.19366 0.28513
 O9 O 0.20618 0.24745 0.27284
 O10 O 0.24596 0.20539 0.27236
 O11 O 0.25027 0.28614 0.27285
 O12 O 0.28847 0.24567 0.27290
 Zr13 Zr 0.24898 0.24779 0.20589
 Zr14 Zr 0.21044 0.28675 0.25022
 Zr15 Zr 0.28563 0.20647 0.24985
 Zr16 Zr 0.20633 0.20827 0.25016
 O17 O 0.33458 0.20846 0.24869
 O18 O 0.15814 0.21762 0.24949
 O19 O 0.24587 0.20668 0.22692
 O20 O 0.20792 0.24754 0.22735
 O21 O 0.25011 0.28817 0.22734
 O22 O 0.28953 0.24572 0.22745
 C23 C 0.19522 0.19942 0.30823
 C24 C 0.29727 0.19705 0.30776
 C25 C 0.19773 0.29481 0.30811
 O26 O 0.16155 0.28469 0.24812
 O27 O 0.19577 0.30609 0.21560
 O28 O 0.22202 0.27931 0.18519
 C29 C 0.20275 0.30002 0.19243
 O30 O 0.31084 0.30095 0.28365
 Zr31 Zr 0.28973 0.28499 0.24974
 O32 O 0.27899 0.27541 0.18451
 O33 O 0.21616 0.33488 0.25254
 O34 O 0.28382 0.33329 0.25052
 O35 O 0.33824 0.27754 0.24828
 O36 O 0.30562 0.30227 0.21460
 C37 C 0.29899 0.29549 0.19150
 O38 O 0.22295 0.22573 0.17718
 O39 O 0.28000 0.15825 0.25083
 O40 O 0.27595 0.21660 0.18486
 O41 O 0.29991 0.18735 0.21502
 O42 O 0.21013 0.15977 0.25148
 O43 O 0.18877 0.18889 0.21612
 C44 C 0.29384 0.19460 0.19189
 H45 H 0.24564 0.18645 0.28272
 H46 H 0.18945 0.24799 0.21625
 H47 H 0.30854 0.24468 0.21699
 H48 H 0.25124 0.30433 0.28405
 H49 H 0.14722 0.19829 0.25377
 H50 H 0.15395 0.30612 0.24900
 H51 H 0.19517 0.34400 0.25165
 H52 H 0.30398 0.34270 0.24602
 H53 H 0.18929 0.15146 0.25537
 H54 H 0.30107 0.14926 0.25138
 H55 H 0.34206 0.18698 0.24807
 H56 H 0.34815 0.29746 0.24420
 H57 H 0.17058 0.17590 0.22007
 H58 H 0.23101 0.23302 0.16060
 H59 H 0.26338 0.26178 0.33946
 H60 H 0.32523 0.31794 0.27959
 Zr61 Zr 0.75132 0.75099 0.29269
 O62 O 0.72773 0.72711 0.32188
 O63 O 0.78143 0.77932 0.31333
 O64 O 0.78174 0.72281 0.31355
 O65 O 0.69354 0.80504 0.28341
 O66 O 0.80674 0.69467 0.28328
 O67 O 0.72194 0.78010 0.31362
 O68 O 0.80972 0.80337 0.28256
 O69 O 0.79179 0.74933 0.27089
 O70 O 0.75147 0.79085 0.27059
 O71 O 0.74823 0.71006 0.27172
 O72 O 0.70950 0.75002 0.27195
 Zr73 Zr 0.74798 0.74778 0.20444
 Zr74 Zr 0.78770 0.70978 0.24862
 Zr75 Zr 0.71146 0.78904 0.24859
 Zr76 Zr 0.79076 0.78831 0.24793
 O77 O 0.66254 0.78624 0.24807
 O78 O 0.83906 0.77964 0.24665
 O79 O 0.75084 0.78911 0.22517
 O80 O 0.78933 0.74883 0.22545
 O81 O 0.74772 0.70758 0.22620
 O82 O 0.70775 0.74956 0.22648
 C83 C 0.80284 0.79765 0.30579
 C84 C 0.70083 0.79909 0.30656
 C85 C 0.80143 0.70242 0.30642
 O86 O 0.83654 0.71241 0.24608
 O87 O 0.80244 0.69053 0.21403
 O88 O 0.77535 0.71659 0.18368
 C89 C 0.79520 0.69638 0.19088
 O90 O 0.68807 0.69459 0.28337
 Zr91 Zr 0.70840 0.71048 0.24907
 O92 O 0.71800 0.71953 0.18365
 O93 O 0.78254 0.66161 0.25124
 O94 O 0.71490 0.66227 0.25015
 O95 O 0.65979 0.71733 0.24809
 O96 O 0.69217 0.69266 0.21426
 C97 C 0.69837 0.69926 0.19102
 O98 O 0.77316 0.76988 0.17516
 O99 O 0.71637 0.83735 0.24912
 O100 O 0.72037 0.77857 0.18356
 O101 O 0.69652 0.80777 0.21380
 O102 O 0.78625 0.83675 0.24901
 O103 O 0.80742 0.80769 0.21353
 C104 C 0.70239 0.80047 0.19065
 H105 H 0.75175 0.80989 0.28080
 H106 H 0.80765 0.74856 0.21416
 H107 H 0.68858 0.75027 0.21623
 H108 H 0.74769 0.69196 0.28307
 H109 H 0.84979 0.79914 0.25065
 H110 H 0.84444 0.69109 0.24707
 H111 H 0.80364 0.65273 0.25029
 H112 H 0.69476 0.65260 0.24601
 H113 H 0.80702 0.84540 0.25261
 H114 H 0.69518 0.84605 0.24985
 H115 H 0.65472 0.80760 0.24725
 H116 H 0.65006 0.69724 0.24433
 H117 H 0.82543 0.82104 0.21717
 H118 H 0.76487 0.76234 0.15876
 H119 H 0.73576 0.73488 0.33829
 H120 H 0.67373 0.67744 0.27963
 Zr121 Zr 0.75222 0.24902 -0.29340
 O122 O 0.72901 0.27323 -0.32258
 O123 O 0.78139 0.21977 -0.31409
 O124 O 0.78312 0.27650 -0.31450
 O125 O 0.69337 0.19624 -0.28365
 O126 O 0.80887 0.30426 -0.28445
 O127 O 0.72213 0.22042 -0.31410
 O128 O 0.80913 0.19506 -0.28339
 O129 O 0.79286 0.24990 -0.27183
 O130 O 0.75155 0.20932 -0.27113
 O131 O 0.75019 0.29012 -0.27257
 O132 O 0.71054 0.25105 -0.27249
 Zr133 Zr 0.74939 0.25281 -0.20516
 Zr134 Zr 0.78978 0.28964 -0.24966
 Zr135 Zr 0.71170 0.21215 -0.24896
 Zr136 Zr 0.79103 0.21109 -0.24870
 O137 O 0.66287 0.21610 -0.24833
 O138 O 0.83950 0.21883 -0.24801
 O139 O 0.75121 0.21131 -0.22574
 O140 O 0.79061 0.25070 -0.22635
 O141 O 0.74996 0.29287 -0.22708
 O142 O 0.70902 0.25182 -0.22701
 C143 C 0.80220 0.20077 -0.30661
 C144 C 0.70071 0.20186 -0.30685
 C145 C 0.80322 0.29657 -0.30753
 O146 O 0.83855 0.28592 -0.24735
 O147 O 0.80510 0.30878 -0.21520
 O148 O 0.77756 0.28347 -0.18464
 C149 C 0.79780 0.30323 -0.19200
 O150 O 0.69035 0.30690 -0.28401
 Zr151 Zr 0.71048 0.29073 -0.24975
 O152 O 0.72021 0.28188 -0.18433
 O153 O 0.78576 0.33791 -0.25241
 O154 O 0.71815 0.33878 -0.25104
 O155 O 0.66172 0.28502 -0.24855
 O156 O 0.69485 0.30911 -0.21494
 C157 C 0.70100 0.30252 -0.19170
 O158 O 0.77418 0.23023 -0.17595
 O159 O 0.71544 0.16373 -0.24922
 O160 O 0.72111 0.22284 -0.18402
 O161 O 0.69639 0.19405 -0.21404
 O162 O 0.78536 0.16275 -0.24928
 O163 O 0.80775 0.19167 -0.21436
 C164 C 0.70253 0.20136 -0.19095
 H165 H 0.75130 0.19019 -0.28122
 H166 H 0.80899 0.25063 -0.21514
 H167 H 0.68988 0.25162 -0.21667
 H168 H 0.75000 0.30818 -0.28397
 H169 H 0.84978 0.19910 -0.25206
 H170 H 0.84695 0.30705 -0.24847
 H171 H 0.80706 0.34632 -0.25153
 H172 H 0.69828 0.34895 -0.24682
 H173 H 0.80587 0.15358 -0.25300
 H174 H 0.69405 0.15553 -0.24985
 H175 H 0.65452 0.19494 -0.24744
 H176 H 0.65250 0.30535 -0.24482
 H177 H 0.82553 0.17805 -0.21809
 H178 H 0.76620 0.23807 -0.15954
 H179 H 0.73680 0.26524 -0.33900
 H180 H 0.67652 0.32445 -0.28027
 Zr181 Zr 0.24827 0.75457 -0.29401
 O182 O 0.27234 0.73037 -0.32272
 O183 O 0.21876 0.78290 -0.31530
 O184 O 0.21822 0.72618 -0.31507
 O185 O 0.30614 0.80836 -0.28420
 O186 O 0.19238 0.69847 -0.28495
 O187 O 0.27838 0.78338 -0.31472
 O188 O 0.18997 0.80735 -0.28515
 O189 O 0.20729 0.75326 -0.27280
 O190 O 0.24784 0.79459 -0.27220
 O191 O 0.25063 0.71382 -0.27264
 O192 O 0.28958 0.75352 -0.27260
 Zr193 Zr 0.24957 0.75212 -0.20566
 Zr194 Zr 0.21063 0.71391 -0.25013
 Zr195 Zr 0.28733 0.79274 -0.24956
 Zr196 Zr 0.20803 0.79243 -0.25013
 O197 O 0.33622 0.78972 -0.24833
 O198 O 0.15966 0.78402 -0.24958
 O199 O 0.24742 0.79326 -0.22675
 O200 O 0.20870 0.75317 -0.22729
 O201 O 0.25009 0.71173 -0.22711
 O202 O 0.29031 0.75345 -0.22709
 C203 C 0.19728 0.80145 -0.30826
 C204 C 0.29945 0.80233 -0.30746
 C205 C 0.19832 0.70588 -0.30807
 O206 O 0.16178 0.71685 -0.24830
 O207 O 0.19519 0.69488 -0.21557
 O208 O 0.22168 0.72116 -0.18508
 C209 C 0.20201 0.70082 -0.19234
 O210 O 0.31108 0.69795 -0.28321
 Zr211 Zr 0.28993 0.71419 -0.24938
 O212 O 0.27876 0.72381 -0.18417
 O213 O 0.21554 0.66568 -0.25235
 O214 O 0.28312 0.66601 -0.25033
 O215 O 0.33854 0.72075 -0.24758
 O216 O 0.30506 0.69643 -0.21416
 C217 C 0.29832 0.70325 -0.19107
 O218 O 0.22386 0.77474 -0.17702
 O219 O 0.28271 0.84107 -0.25047
 O220 O 0.27704 0.78283 -0.18457
 O221 O 0.30174 0.81160 -0.21469
 O222 O 0.21291 0.84084 -0.25144
 O223 O 0.19060 0.81218 -0.21617
 C224 C 0.29539 0.80450 -0.19157
 H225 H 0.24792 0.81355 -0.28255
 H226 H 0.19014 0.75306 -0.21626
 H227 H 0.30924 0.75411 -0.21654
 H228 H 0.25135 0.69560 -0.28382
 H229 H 0.14914 0.80355 -0.25388
 H230 H 0.15377 0.69556 -0.24920
 H231 H 0.19438 0.65692 -0.25159
 H232 H 0.30305 0.65622 -0.24574
 H233 H 0.19231 0.84959 -0.25548
 H234 H 0.30396 0.84965 -0.25097
 H235 H 0.34415 0.81104 -0.24763
 H236 H 0.34803 0.70064 -0.24350
 H237 H 0.17280 0.82564 -0.22022
 H238 H 0.23162 0.76725 -0.16043
 H239 H 0.26472 0.73808 -0.33929
 H240 H 0.32516 0.68072 -0.27910
 Zr241 Zr 1.25019 1.24870 0.79381
 O242 O 1.22601 1.22452 0.82252
 O243 O 1.28031 1.27607 0.81523
 O244 O 1.27983 1.21958 0.81440
 O245 O 1.19309 1.30345 0.78489
 O246 O 1.30492 1.19180 0.78394
 O247 O 1.22085 1.27753 0.81494
 O248 O 1.30930 1.30055 0.78515
 O249 O 1.29093 1.24701 0.77233
 O250 O 1.25104 1.28901 0.77234
 O251 O 1.24698 1.20822 0.77231
 O252 O 1.20859 1.24866 0.77286
 Zr253 Zr 1.24768 1.24723 0.70557
 Zr254 Zr 1.28664 1.20801 0.74940
 Zr255 Zr 1.21125 1.28805 0.74998
 Zr256 Zr 1.29058 1.28649 0.74999
 O257 O 1.16229 1.28598 0.74922
 O258 O 1.33877 1.27720 0.74900
 O259 O 1.25089 1.28814 0.72687
 O260 O 1.28888 1.24751 0.72682
 O261 O 1.24679 1.20668 0.72684
 O262 O 1.20731 1.24898 0.72743
 C263 C 1.30208 1.29429 0.80825
 C264 C 1.19998 1.29681 0.80799
 C265 C 1.29921 1.19902 0.80712
 O266 O 1.33551 1.21028 0.74718
 O267 O 1.30126 1.18908 0.71462
 O268 O 1.27475 1.21607 0.68449
 C269 C 1.29414 1.19533 0.69150
 O270 O 1.18647 1.19359 0.78363
 Zr271 Zr 1.20735 1.20954 0.74958
 O272 O 1.21774 1.21932 0.68436
 O273 O 1.28105 1.15982 0.75128
 O274 O 1.21324 1.16124 0.75037
 O275 O 1.15881 1.21681 0.74815
 O276 O 1.19156 1.19220 0.71462
 C277 C 1.19804 1.19899 0.69151
 O278 O 1.27325 1.26985 0.67680
 O279 O 1.21686 1.33627 0.75102
 O280 O 1.22014 1.27828 0.68486
 O281 O 1.19643 1.30726 0.71533
 O282 O 1.28660 1.33495 0.75171
 O283 O 1.30810 1.30644 0.71610
 C284 C 1.20215 1.30010 0.69213
 H285 H 1.25140 1.30782 0.78285
 H286 H 1.30727 1.24724 0.71561
 H287 H 1.18821 1.24996 0.71710
 H288 H 1.24608 1.18989 0.78339
 H289 H 1.34970 1.29642 0.75354
 H290 H 1.34319 1.18887 0.74794
 H291 H 1.30207 1.15077 0.75036
 H292 H 1.19301 1.15184 0.74611
 H293 H 1.30738 1.34325 0.75580
 H294 H 1.19580 1.34523 0.75183
 H295 H 1.15476 1.30745 0.74868
 H296 H 1.14897 1.19682 0.74423
 H297 H 1.32617 1.31953 0.72016
 H298 H 1.26516 1.26261 0.66025
 H299 H 1.23397 1.23182 0.83910
 H300 H 1.17194 1.17667 0.77969
 Zr301 Zr 0.74801 0.74747 0.79545
 O302 O 0.77178 0.77200 0.82411
 O303 O 0.71841 0.71962 0.81700
 O304 O 0.71799 0.77618 0.81610
 O305 O 0.80627 0.69395 0.78621
 O306 O 0.69224 0.80344 0.78568
 O307 O 0.77824 0.71929 0.81643
 O308 O 0.68959 0.69482 0.78707
 O309 O 0.70716 0.74849 0.77411
 O310 O 0.74776 0.70713 0.77403
 O311 O 0.75041 0.78799 0.77387
 O312 O 0.78948 0.74819 0.77427
 Zr313 Zr 0.75012 0.74895 0.70719
 Zr314 Zr 0.71066 0.78755 0.75110
 Zr315 Zr 0.78740 0.70876 0.75145
 Zr316 Zr 0.70808 0.70901 0.75183
 O317 O 0.83632 0.71148 0.75031
 O318 O 0.65972 0.71738 0.75085
 O319 O 0.74767 0.70798 0.72852
 O320 O 0.70900 0.74802 0.72859
 O321 O 0.75040 0.78949 0.72842
 O322 O 0.79060 0.74791 0.72887
 C323 C 0.69681 0.70118 0.81014
 C324 C 0.79956 0.70055 0.80934
 C325 C 0.69821 0.79641 0.80885
 O326 O 0.66185 0.78440 0.74893
 O327 O 0.69587 0.80647 0.71631
 O328 O 0.72270 0.77981 0.68618
 C329 C 0.70316 0.80040 0.69320
 O330 O 0.81072 0.80351 0.78497
 Zr331 Zr 0.78997 0.78732 0.75099
 O332 O 0.77943 0.77739 0.68582
 O333 O 0.71537 0.83583 0.75300
 O334 O 0.78333 0.83553 0.75181
 O335 O 0.83861 0.78089 0.74930
 O336 O 0.80516 0.80503 0.71596
 C337 C 0.79870 0.79814 0.69289
 O338 O 0.72471 0.72593 0.67861
 O339 O 0.78250 0.66048 0.75273
 O340 O 0.77814 0.71846 0.68634
 O341 O 0.80237 0.68980 0.71674
 O342 O 0.71293 0.66064 0.75377
 O343 O 0.69091 0.68867 0.71803
 C344 C 0.79651 0.69692 0.69355
 H345 H 0.74780 0.68836 0.78462
 H346 H 0.69058 0.74802 0.71742
 H347 H 0.80967 0.74726 0.71845
 H348 H 0.75105 0.80634 0.78491
 H349 H 0.64916 0.69796 0.75543
 H350 H 0.65379 0.80566 0.74974
 H351 H 0.69419 0.84452 0.75211
 H352 H 0.80340 0.84525 0.74749
 H353 H 0.69231 0.65199 0.75793
 H354 H 0.80371 0.65183 0.75341
 H355 H 0.84416 0.69011 0.74982
 H356 H 0.84807 0.80106 0.74533
 H357 H 0.67317 0.67516 0.72217
 H358 H 0.73258 0.73329 0.66200
 H359 H 0.76397 0.76451 0.84071
 H360 H 0.82497 0.82065 0.78097
 Zr361 Zr 1.25068 0.75167 0.20564
 O362 O 1.22663 0.77621 0.17710
 O363 O 1.28026 0.72394 0.18400
 O364 O 1.28054 0.78045 0.18489
 O365 O 1.19285 0.69768 0.21485
 O366 O 1.30633 0.80775 0.21522
 O367 O 1.22078 0.72326 0.18466
 O368 O 1.30908 0.69896 0.21386
 O369 O 1.29160 0.75271 0.22686
 O370 O 1.25105 0.71130 0.22705
 O371 O 1.24828 0.79215 0.22721
 O372 O 1.20924 0.75230 0.22685
 Zr373 Zr 1.24888 0.75299 0.29385
 Zr374 Zr 1.28812 0.79173 0.24986
 Zr375 Zr 1.21143 0.71282 0.24966
 Zr376 Zr 1.29079 0.71318 0.24915
 O377 O 1.16252 0.71560 0.25066
 O378 O 1.33914 0.72164 0.24995
 O379 O 1.25125 0.71206 0.27251
 O380 O 1.28992 0.75214 0.27236
 O381 O 1.24846 0.79360 0.27266
 O382 O 1.20831 0.75192 0.27226
 C383 C 1.30180 0.70539 0.19081
 C384 C 1.19970 0.70423 0.19171
 C385 C 1.30028 0.80071 0.19208
 O386 O 1.33696 0.78869 0.25180
 O387 O 1.30319 0.81042 0.28461
 O388 O 1.27648 0.78371 0.31483
 C389 C 1.29608 0.80423 0.30775
 O390 O 1.18794 0.80775 0.21628
 Zr391 Zr 1.20881 0.79139 0.25018
 O392 O 1.21960 0.78128 0.31531
 O393 O 1.28335 0.84000 0.24805
 O394 O 1.21546 0.83960 0.24944
 O395 O 1.16017 0.78486 0.25188
 O396 O 1.19356 0.80887 0.28529
 C397 C 1.20015 0.80191 0.30834
 O398 O 1.27433 0.72988 0.32237
 O399 O 1.21633 0.66453 0.24861
 O400 O 1.22091 0.72248 0.31471
 O401 O 1.19642 0.69393 0.28441
 O402 O 1.28607 0.66479 0.24730
 O403 O 1.30804 0.69283 0.28295
 C404 C 1.20242 0.70104 0.30758
 H405 H 1.25106 0.69252 0.21652
 H406 H 1.30839 0.75212 0.28347
 H407 H 1.18927 0.75124 0.28270
 H408 H 1.24758 0.81052 0.21617
 H409 H 1.34970 0.70225 0.24533
 H410 H 1.34498 0.80997 0.25100
 H411 H 1.30453 0.84872 0.24890
 H412 H 1.19542 0.84930 0.25386
 H413 H 1.30671 0.65620 0.24317
 H414 H 1.19512 0.65587 0.24797
 H415 H 1.15466 0.69424 0.25116
 H416 H 1.15068 0.80498 0.25589
 H417 H 1.32592 0.67953 0.27882
 H418 H 1.26648 0.73715 0.33900
 H419 H 1.23436 0.76883 0.16046
 H420 H 1.17377 0.82492 0.22034
 Zr421 Zr 0.74981 1.25204 0.20471
 O422 O 0.77324 1.22788 0.17562
 O423 O 0.72017 1.28046 0.18371
 O424 O 0.71945 1.22383 0.18393
 O425 O 0.80840 1.30515 0.21419
 O426 O 0.69383 1.19615 0.21421
 O427 O 0.77997 1.28055 0.18384
 O428 O 0.69183 1.30498 0.21414
 O429 O 0.70914 1.25085 0.22633
 O430 O 0.75000 1.29197 0.22663
 O431 O 0.75214 1.21114 0.22584
 O432 O 0.79145 1.25064 0.22562
 Zr433 Zr 0.75261 1.24893 0.29302
 Zr434 Zr 0.71257 1.21137 0.24888
 Zr435 Zr 0.78980 1.28968 0.24891
 Zr436 Zr 0.71049 1.28993 0.24908
 O437 O 0.83871 1.28659 0.24965
 O438 O 0.66209 1.28178 0.25022
 O439 O 0.75026 1.29026 0.27213
 O440 O 0.71135 1.25052 0.27185
 O441 O 0.75246 1.20874 0.27132
 O442 O 0.79292 1.25014 0.27106
 C443 C 0.69879 1.29899 0.19094
 C444 C 0.80141 1.29912 0.19101
 C445 C 0.69963 1.20357 0.19108
 O446 O 0.66378 1.21476 0.25125
 O447 O 0.69760 1.19213 0.28354
 O448 O 0.72490 1.21799 0.31383
 C449 C 0.70498 1.19781 0.30670
 O450 O 0.81224 1.19528 0.21423
 Zr451 Zr 0.79186 1.21112 0.24850
 O452 O 0.78198 1.21995 0.31383
 O453 O 0.71702 1.16311 0.24649
 O454 O 0.78484 1.16298 0.24719
 O455 O 0.84056 1.21732 0.24985
 O456 O 0.80740 1.19276 0.28322
 C457 C 0.80117 1.19929 0.30642
 O458 O 0.72769 1.27157 0.32210
 O459 O 0.78527 1.33802 0.24829
 O460 O 0.78095 1.27902 0.31399
 O461 O 0.80512 1.30799 0.28372
 O462 O 0.71569 1.33830 0.24778
 O463 O 0.69369 1.30974 0.28323
 C464 C 0.79937 1.30059 0.30688
 H465 H 0.75006 1.31094 0.21629
 H466 H 0.69300 1.25047 0.28312
 H467 H 0.81208 1.25052 0.28135
 H468 H 0.75257 1.19297 0.21459
 H469 H 0.65161 1.30134 0.24597
 H470 H 0.65557 1.19355 0.25027
 H471 H 0.69579 1.15452 0.24735
 H472 H 0.80486 1.15304 0.25130
 H473 H 0.69512 1.34718 0.24386
 H474 H 0.80653 1.34653 0.24759
 H475 H 0.84671 1.30788 0.25037
 H476 H 0.84997 1.19707 0.25355
 H477 H 0.67596 1.32337 0.27937
 H478 H 0.73569 1.26386 0.33855
 H479 H 0.76540 1.23573 0.15917
 H480 H 0.82640 1.17799 0.21797
 N481 N 0.46785 0.96753 0.04472
 N482 N 0.44747 0.96109 0.06258
 N483 N 0.53286 0.94639 0.02722
 N484 N 0.55325 0.92481 0.03278
 N485 N 0.53287 0.96787 0.04470
 N486 N 0.55324 0.96148 0.06258
 N487 N 0.46783 0.94617 0.02716
 N488 N 0.44747 0.92455 0.03266
 C489 C 0.43466 0.93457 0.05453
 C490 C 0.56607 0.93491 0.05461
 N491 N 0.53300 0.96796 -0.04494
 N492 N 0.55294 0.96120 -0.06307
 N493 N 0.46788 0.94625 -0.02760
 N494 N 0.44729 0.92481 -0.03310
 N495 N 0.46797 0.96773 -0.04508
 N496 N 0.44744 0.96158 -0.06288
 N497 N 0.53291 0.94647 -0.02745
 N498 N 0.55281 0.92455 -0.03321
 Mn499 Mn 0.50035 0.94604 -0.00016
 C500 C 0.56547 0.93444 -0.05518
 C501 C 0.43447 0.93506 -0.05491
 N502 N 0.53239 1.03410 0.04479
 N503 N 0.55231 1.04095 0.06288
 N504 N 0.46706 1.05499 0.02735
 N505 N 0.44611 1.07609 0.03279
 N506 N 0.46736 1.03349 0.04482
 N507 N 0.44662 1.03929 0.06255
 N508 N 0.53211 1.05562 0.02733
 N509 N 0.55186 1.07768 0.03309
 Mn510 Mn 0.50015 1.00074 0.04495
 C511 C 0.56461 1.06784 0.05503
 C512 C 0.43329 1.06561 0.05456
 N513 N 0.46762 1.03373 -0.04498
 N514 N 0.44735 1.03999 -0.06295
 N515 N 0.53228 1.05569 -0.02736
 N516 N 0.55234 1.07756 -0.03291
 N517 N 0.53263 1.03422 -0.04484
 N518 N 0.55292 1.04092 -0.06273
 N519 N 0.46726 1.05510 -0.02744
 N520 N 0.44677 1.07655 -0.03305
 Mn521 Mn 0.50034 1.00092 -0.04516
 Mn522 Mn 0.49966 1.05563 -0.00003
 Cl523 Cl 0.50015 1.00084 -0.00010
 C524 C 0.43423 1.06640 -0.05498
 C525 C 0.56534 1.06767 -0.05475
 N526 N 1.05581 0.53322 0.52723
 N527 N 1.07768 0.55325 0.53304
 N528 N 1.03435 0.46864 0.54466
 N529 N 1.04125 0.44903 0.56288
 N530 N 1.05603 0.46869 0.52716
 N531 N 1.07826 0.44914 0.53307
 N532 N 1.03403 0.53315 0.54465
 N533 N 1.04049 0.55310 0.56270
 C534 C 1.06742 0.56582 0.55495
 C535 C 1.06832 0.43666 0.55510
 N536 N 0.94585 0.46818 0.52714
 N537 N 0.92408 0.44799 0.53292
 N538 N 0.96719 0.53277 0.54461
 N539 N 0.95998 0.55197 0.56303
 N540 N 0.94552 0.53268 0.52712
 N541 N 0.92299 0.55181 0.53326
 N542 N 0.96759 0.46830 0.54457
 N543 N 0.96124 0.44823 0.56258
 Mn544 Mn 1.00079 0.50072 0.54478
 C545 C 0.93441 0.43541 0.55482
 C546 C 0.93275 0.56409 0.55539
 N547 N 1.05612 0.46867 0.47230
 N548 N 1.07796 0.44852 0.46667
 N549 N 1.03427 0.53314 0.45487
 N550 N 1.04098 0.55303 0.43680
 N551 N 1.05587 0.53319 0.47240
 N552 N 1.07785 0.55312 0.46669
 N553 N 1.03445 0.46865 0.45482
 N554 N 1.04092 0.44850 0.43691
 Mn555 Mn 1.05623 0.50094 0.49977
 C556 C 1.06779 0.43582 0.44479
 C557 C 1.06785 0.56566 0.44472
 N558 N 0.94567 0.53285 0.47221
 N559 N 0.92369 0.55274 0.46635
 N560 N 0.96765 0.46847 0.45476
 N561 N 0.96089 0.44895 0.43646
 N562 N 0.94592 0.46832 0.47222
 N563 N 0.92377 0.44871 0.46618
 N564 N 0.96749 0.53294 0.45481
 N565 N 0.96097 0.55289 0.43676
 Mn566 Mn 0.94547 0.50050 0.49967
 Mn567 Mn 1.00097 0.50080 0.45465
 Cl568 Cl 1.00085 0.50074 0.49972
 C569 C 0.93395 0.56541 0.44446
 C570 C 0.93384 0.43643 0.44413
 N571 N 1.05796 0.53384 0.02659
 N572 N 1.07965 0.55412 0.03214
 N573 N 1.03685 0.46932 0.04440
 N574 N 1.04373 0.44971 0.06261
 N575 N 1.05855 0.46940 0.02691
 N576 N 1.08080 0.44986 0.03284
 N577 N 1.03626 0.53374 0.04409
 N578 N 1.04260 0.55395 0.06195
 C579 C 1.06937 0.56678 0.05397
 C580 C 1.07083 0.43741 0.05487
 N581 N 0.94843 0.46830 0.02698
 N582 N 0.92664 0.44821 0.03285
 N583 N 0.96945 0.53309 0.04419
 N584 N 0.96216 0.55244 0.06247
 N585 N 0.94780 0.53276 0.02669
 N586 N 0.92521 0.55188 0.03267
 N587 N 0.97010 0.46864 0.04446
 N588 N 0.96366 0.44878 0.06262
 Mn589 Mn 1.00317 0.50120 0.04446
 C590 C 0.93684 0.43589 0.05487
 C591 C 0.93489 0.56438 0.05472
 N592 N 1.05855 0.46905 -0.02786
 N593 N 1.08041 0.44886 -0.03324
 N594 N 1.03648 0.53324 -0.04571
 N595 N 1.04332 0.55265 -0.06411
 N596 N 1.05814 0.53351 -0.02822
 N597 N 1.08030 0.55311 -0.03433
 N598 N 1.03690 0.46878 -0.04535
 N599 N 1.04341 0.44841 -0.06306
 Mn600 Mn 1.05857 0.50145 -0.00064
 C601 C 1.07027 0.43590 -0.05500
 C602 C 1.07035 0.56523 -0.05648
 N603 N 0.94798 0.53257 -0.02805
 N604 N 0.92617 0.55276 -0.03353
 N605 N 0.97013 0.46826 -0.04536
 N606 N 0.96328 0.44873 -0.06363
 N607 N 0.94848 0.46812 -0.02784
 N608 N 0.92631 0.44850 -0.03378
 N609 N 0.96966 0.53270 -0.04555
 N610 N 0.96321 0.55297 -0.06337
 Mn611 Mn 0.94791 0.50043 -0.00056
 Mn612 Mn 1.00329 0.50075 -0.04567
 Cl613 Cl 1.00324 0.50096 -0.00060
 C614 C 0.93635 0.56557 -0.05536
 C615 C 0.93628 0.43620 -0.05585
 N616 N 0.46897 1.03265 0.45557
 N617 N 0.44893 1.03928 0.43750
 N618 N 0.53422 1.05398 0.47269
 N619 N 0.55432 1.07571 0.46667
 N620 N 0.53409 1.03237 0.45533
 N621 N 0.55406 1.03881 0.43711
 N622 N 0.46907 1.05418 0.47300
 N623 N 0.44912 1.07607 0.46716
 C624 C 0.43636 1.06605 0.44526
 C625 C 0.56686 1.06555 0.44470
 N626 N 0.53439 1.03267 0.54515
 N627 N 0.55418 1.03955 0.56335
 N628 N 0.46925 1.05429 0.52789
 N629 N 0.44871 1.07575 0.53347
 N630 N 0.46932 1.03278 0.54537
 N631 N 0.44885 1.03897 0.56323
 N632 N 0.53438 1.05412 0.52761
 N633 N 0.55416 1.07613 0.53348
 Mn634 Mn 0.50173 1.05442 0.50030
 C635 C 0.56673 1.06633 0.55552
 C636 C 0.43589 1.06551 0.55533
 N637 N 0.53369 0.96613 0.45556
 N638 N 0.55345 0.95926 0.43732
 N639 N 0.46850 0.94502 0.47329
 N640 N 0.44806 0.92349 0.46762
 N641 N 0.46863 0.96654 0.45581
 N642 N 0.44830 0.96029 0.43789
 N643 N 0.53361 0.94465 0.47307
 N644 N 0.55332 0.92259 0.46714
 Mn645 Mn 0.50136 0.99941 0.45541
 C646 C 0.56587 0.93240 0.44507
 C647 C 0.43533 0.93374 0.44575
 N648 N 0.46907 0.96661 0.54567
 N649 N 0.44950 0.95992 0.56412
 N650 N 0.53393 0.94482 0.52796
 N651 N 0.55414 0.92311 0.53368
 N652 N 0.53414 0.96645 0.54531
 N653 N 0.55448 0.96007 0.56321
 N654 N 0.46880 0.94505 0.52827
 N655 N 0.44905 0.92310 0.53450
 Mn656 Mn 0.50174 0.99964 0.54554
 Mn657 Mn 0.50120 0.94461 0.50064
 Cl658 Cl 0.50152 0.99952 0.50048
 C659 C 0.43681 0.93308 0.55663
 C660 C 0.56708 0.93332 0.55545
 N661 N 1.03201 0.94404 0.47475
 N662 N 1.03874 0.92281 0.45781
 N663 N 1.05214 0.96577 0.52811
 N664 N 1.07352 0.95958 0.54522
 N665 N 1.03080 0.94428 0.52788
 N666 N 1.03707 0.92288 0.54483
 N667 N 1.05330 0.96556 0.47495
 N668 N 1.07513 0.95959 0.45816
 C669 C 1.06541 0.93313 0.44747
 C670 C 1.06344 0.93307 0.55569
 N671 N 1.02972 1.05296 0.52740
 N672 N 1.03556 1.07455 0.54426
 N673 N 1.05260 1.03162 0.47466
 N674 N 1.07418 1.03782 0.45768
 N675 N 1.03082 1.05266 0.47428
 N676 N 1.03693 1.07373 0.45703
 N677 N 1.05143 1.03185 0.52781
 N678 N 1.07262 1.03847 0.54495
 Mn679 Mn 1.05266 0.99871 0.50139
 C680 C 1.06207 1.06485 0.55523
 C681 C 1.06375 1.06386 0.44670
 N682 N 0.96418 0.94372 0.52688
 N683 N 0.95797 0.92265 0.54412
 N684 N 0.94366 0.96446 0.47333
 N685 N 0.92282 0.95802 0.45583
 N686 N 0.96543 0.94342 0.47377
 N687 N 0.96004 0.92209 0.45660
 N688 N 0.94245 0.96479 0.52646
 N689 N 0.92082 0.95867 0.54340
 Mn690 Mn 0.99810 0.94358 0.50083
 C691 C 0.93114 0.93262 0.55439
 C692 C 0.93369 0.93182 0.44543
 N693 N 0.96422 1.05206 0.47330
 N694 N 0.95810 1.07331 0.45620
 N695 N 0.94171 1.03083 0.52621
 N696 N 0.92004 1.03672 0.54318
 N697 N 0.96309 1.05227 0.52645
 N698 N 0.95660 1.07335 0.54357
 N699 N 0.94291 1.03056 0.47305
 N700 N 0.92166 1.03659 0.45578
 Mn701 Mn 0.99696 1.05277 0.50036
 Mn702 Mn 0.94237 0.99765 0.49975
 Cl703 Cl 0.99753 0.99818 0.50058
 C704 C 0.93180 1.06303 0.44526
 C705 C 0.92997 1.06305 0.55398
 N706 N 0.55045 0.53168 0.02776
 N707 N 0.57220 0.55181 0.03346
 N708 N 0.52939 0.46689 0.04497
 N709 N 0.53610 0.44673 0.06283
 N710 N 0.55103 0.46721 0.02745
 N711 N 0.57307 0.44727 0.03297
 N712 N 0.52883 0.53136 0.04530
 N713 N 0.53530 0.55126 0.06338
 C714 C 0.56205 0.56418 0.05543
 C715 C 0.56305 0.43435 0.05480
 N716 N 0.44109 0.46628 0.02734
 N717 N 0.41970 0.44555 0.03260
 N718 N 0.46215 0.53078 0.04516
 N719 N 0.45617 0.55159 0.06263
 N720 N 0.44049 0.53075 0.02768
 N721 N 0.41914 0.55155 0.03282
 N722 N 0.46272 0.46635 0.04484
 N723 N 0.45668 0.44567 0.06243
 Mn724 Mn 0.49575 0.49884 0.04527
 C725 C 0.43013 0.43263 0.05428
 C726 C 0.42958 0.56455 0.05446
 N727 N 0.55112 0.46778 -0.02729
 N728 N 0.57341 0.44828 -0.03314
 N729 N 0.52889 0.53225 -0.04443
 N730 N 0.53511 0.55285 -0.06207
 N731 N 0.55047 0.53223 -0.02689
 N732 N 0.57197 0.55283 -0.03214
 N733 N 0.52958 0.46780 -0.04486
 N734 N 0.53662 0.44829 -0.06310
 Mn735 Mn 0.55104 0.49972 0.00026
 C736 C 0.56364 0.43592 -0.05523
 C737 C 0.56169 0.56581 -0.05385
 N738 N 0.44047 0.53118 -0.02703
 N739 N 0.41843 0.55113 -0.03247
 N740 N 0.46287 0.46713 -0.04484
 N741 N 0.45713 0.44652 -0.06252
 N742 N 0.44116 0.46673 -0.02737
 N743 N 0.42001 0.44581 -0.03273
 N744 N 0.46213 0.53157 -0.04453
 N745 N 0.45543 0.55181 -0.06232
 Mn746 Mn 0.44049 0.49873 0.00016
 Mn747 Mn 0.49586 0.49969 -0.04487
 Cl748 Cl 0.49579 0.49923 0.00020
 C749 C 0.42845 0.56412 -0.05427
 C750 C 0.43065 0.43318 -0.05447
 C751 C 0.37327 1.11226 0.10048
 C752 C 0.36281 1.09736 0.12278
 C753 C 0.34513 1.11387 0.14097
 C754 C 0.33799 1.14517 0.13674
 C755 C 0.34758 1.15978 0.11406
 C756 C 0.36528 1.14327 0.09588
 C757 C 0.37482 1.15843 0.07345
 C758 C 0.36705 1.18902 0.06909
 C759 C 0.34975 1.20516 0.08686
 C760 C 0.34008 1.19083 0.10913
 C761 C 0.33518 1.09857 0.16322
 C762 C 0.34245 1.06782 0.16737
 C763 C 0.35973 1.05167 0.14959
 C764 C 0.36986 1.06615 0.12753
 C765 C 0.32174 1.16257 0.15610
 C766 C 0.30876 1.17712 0.17238
 C767 C 0.39359 1.09610 0.08306
 C768 C 0.41127 1.08239 0.06947
 H769 H 0.38825 1.14679 0.05905
 H770 H 0.37450 1.20025 0.05181
 H771 H 0.34378 1.22892 0.08338
 H772 H 0.32662 1.20432 0.12237
 H773 H 0.32164 1.11014 0.17759
 H774 H 0.33463 1.05647 0.18448
 H775 H 0.36531 1.02778 0.15291
 H776 H 0.38317 1.05259 0.11425
 C777 C 0.87955 0.61519 0.60374
 C778 C 0.86605 0.64361 0.59688
 C779 C 0.84814 0.66024 0.61487
 C780 C 0.84386 0.64837 0.63963
 C781 C 0.85713 0.61981 0.64642
 C782 C 0.87501 0.60318 0.62844
 C783 C 0.88806 0.57470 0.63574
 C784 C 0.88359 0.56300 0.66006
 C785 C 0.86613 0.57927 0.67763
 C786 C 0.85300 0.60735 0.67100
 C787 C 0.83491 0.68860 0.60756
 C788 C 0.83920 0.70019 0.58318
 C789 C 0.85673 0.68395 0.56561
 C790 C 0.87007 0.65597 0.57228
 C791 C 0.82640 0.66571 0.65833
 C792 C 0.81242 0.67996 0.67424
 C793 C 0.89822 0.59821 0.58560
 C794 C 0.91392 0.58322 0.57130
 H795 H 0.90184 0.56115 0.62276
 H796 H 0.89374 0.54118 0.66530
 H797 H 0.86272 0.57009 0.69650
 H798 H 0.83958 0.61912 0.68534
 H799 H 0.82107 0.70206 0.62056
 H800 H 0.82882 0.72185 0.57787
 H801 H 0.85999 0.69308 0.54670
 H802 H 0.88349 0.64415 0.55797
 C803 C 0.62395 0.88503 0.10006
 C804 C 0.64032 0.90020 0.11964
 C805 C 0.65754 0.88286 0.13758
 C806 C 0.65831 0.85044 0.13583
 C807 C 0.64270 0.83533 0.11581
 C808 C 0.62546 0.85267 0.09787
 C809 C 0.60983 0.83704 0.07815
 C810 C 0.61129 0.80518 0.07616
 C811 C 0.62820 0.78823 0.09367
 C812 C 0.64372 0.80299 0.11334
 C813 C 0.67350 0.89853 0.15711
 C814 C 0.67248 0.93042 0.15886
 C815 C 0.65565 0.94738 0.14131
 C816 C 0.63970 0.93257 0.12189
 C817 C 0.67437 0.83265 0.15503
 C818 C 0.68733 0.81793 0.17122
 C819 C 0.60433 0.90259 0.08304
 C820 C 0.58731 0.91731 0.06962
 H821 H 0.59646 0.84926 0.06404
 H822 H 0.59926 0.79360 0.06093
 H823 H 0.62933 0.76350 0.09198
 H824 H 0.65656 0.78881 0.12649
 H825 H 0.68695 0.88634 0.17119
 H826 H 0.68482 0.94203 0.17391
 H827 H 0.65493 0.97215 0.14274
 H828 H 0.62698 0.94677 0.10867
 C829 C 1.12128 0.38377 0.60228
 C830 C 1.13629 0.39897 0.62259
 C831 C 1.15380 0.38182 0.64047
 C832 C 1.15623 0.34956 0.63796
 C833 C 1.14170 0.33442 0.61740
 C834 C 1.12415 0.35158 0.59952
 C835 C 1.10971 0.33594 0.57922
 C836 C 1.11262 0.30424 0.57659
 C837 C 1.12984 0.28748 0.59402
 C838 C 1.14420 0.30226 0.61427
 C839 C 1.16847 0.39751 0.66066
 C840 C 1.16594 0.42924 0.66311
 C841 C 1.14884 0.44603 0.64563
 C842 C 1.13413 0.43120 0.62558
 C843 C 1.17304 0.33194 0.65686
 C844 C 1.18659 0.31742 0.67284
 C845 C 1.10246 0.40135 0.58465
 C846 C 1.08683 0.41688 0.57071
 H847 H 1.09614 0.34802 0.56516
 H848 H 1.10149 0.29263 0.56092
 H849 H 1.13213 0.26289 0.59184
 H850 H 1.15734 0.28823 0.62735
 H851 H 1.18208 0.38547 0.67472
 H852 H 1.17732 0.44087 0.67865
 H853 H 1.14695 0.47069 0.64760
 H854 H 1.12112 0.44529 0.61247
 C855 C 0.62228 1.11905 -0.09992
 C856 C 0.61484 1.15022 -0.10451
 C857 C 0.63221 1.16740 -0.12248
 C858 C 0.65698 1.15334 -0.13571
 C859 C 0.66494 1.12242 -0.13063
 C860 C 0.64753 1.10522 -0.11268
 C861 C 0.65571 1.07425 -0.10810
 C862 C 0.68041 1.06067 -0.12087
 C863 C 0.69746 1.07749 -0.13840
 C864 C 0.68991 1.10802 -0.14330
 C865 C 0.62409 1.19841 -0.12699
 C866 C 0.59945 1.21201 -0.11415
 C867 C 0.58254 1.19524 -0.09650
 C868 C 0.59004 1.16470 -0.09166
 C869 C 0.67359 1.17038 -0.15507
 C870 C 0.68699 1.18452 -0.17138
 C871 C 0.60300 1.10084 -0.08309
 C872 C 0.58626 1.08566 -0.06976
 H873 H 0.64318 1.06026 -0.09459
 H874 H 0.68635 1.03696 -0.11714
 H875 H 0.71663 1.06684 -0.14827
 H876 H 0.70387 1.12018 -0.15709
 H877 H 0.63663 1.21245 -0.14046
 H878 H 0.59346 1.23570 -0.11792
 H879 H 0.56348 1.20595 -0.08653
 H880 H 0.57622 1.15260 -0.07774
 C881 C 1.12069 0.62021 0.39872
 C882 C 1.11114 0.65006 0.39157
 C883 C 1.12869 0.66697 0.37351
 C884 C 1.15568 0.65390 0.36271
 C885 C 1.16567 0.62438 0.37036
 C886 C 1.14814 0.60749 0.38842
 C887 C 1.15850 0.57792 0.39565
 C888 C 1.18540 0.56542 0.38534
 C889 C 1.20253 0.58194 0.36767
 C890 C 1.19289 0.61109 0.36019
 C891 C 1.11857 0.69670 0.36653
 C892 C 1.09185 0.70933 0.37705
 C893 C 1.07471 0.69281 0.39472
 C894 C 1.08413 0.66349 0.40196
 C895 C 1.17270 0.67050 0.34330
 C896 C 1.18651 0.68429 0.32702
 C897 C 1.10174 0.60201 0.41581
 C898 C 1.08613 0.58597 0.42940
 H899 H 1.14601 0.56420 0.40938
 H900 H 1.19299 0.54279 0.39110
 H901 H 1.22341 0.57213 0.35972
 H902 H 1.20702 0.62306 0.34641
 H903 H 1.13118 0.71050 0.35293
 H904 H 1.08442 0.73208 0.37148
 H905 H 1.05400 0.70275 0.40286
 H906 H 1.07008 0.65154 0.41580
 C907 C 0.37526 0.88737 -0.10078
 C908 C 0.36750 0.85633 -0.09601
 C909 C 0.34986 0.83957 -0.11406
 C910 C 0.34006 0.85396 -0.13676
 C911 C 0.34709 0.88525 -0.14120
 C912 C 0.36471 0.90201 -0.12315
 C913 C 0.37162 0.93321 -0.12811
 C914 C 0.36143 0.94744 -0.15025
 C915 C 0.34424 0.93104 -0.16790
 C916 C 0.33708 0.90030 -0.16354
 C917 C 0.34264 0.80848 -0.10898
 C918 C 0.35250 0.79436 -0.08669
 C919 C 0.36970 0.81077 -0.06902
 C920 C 0.37720 0.84140 -0.07354
 C921 C 0.32364 0.83639 -0.15590
 C922 C 0.31049 0.82183 -0.17207
 C923 C 0.39534 0.90388 -0.08341
 C924 C 0.41278 0.91791 -0.06985
 H925 H 0.38487 0.94696 -0.11493
 H926 H 0.36692 0.97132 -0.15372
 H927 H 0.33640 0.94219 -0.18508
 H928 H 0.32361 0.88853 -0.17783
 H929 H 0.32928 0.79479 -0.12213
 H930 H 0.34674 0.77057 -0.08309
 H931 H 0.37726 0.79971 -0.05172
 H932 H 0.39057 0.85325 -0.05923
 C933 C 0.88268 0.38306 0.39602
 C934 C 0.86240 0.35964 0.40448
 C935 C 0.84476 0.34257 0.38661
 C936 C 0.84749 0.34902 0.36038
 C937 C 0.86783 0.37240 0.35192
 C938 C 0.88547 0.38944 0.36978
 C939 C 0.90564 0.41269 0.36081
 C940 C 0.90832 0.41890 0.33499
 C941 C 0.89108 0.40223 0.31754
 C942 C 0.87104 0.37923 0.32579
 C943 C 0.82468 0.31927 0.39552
 C944 C 0.82208 0.31300 0.42135
 C945 C 0.83930 0.32970 0.43881
 C946 C 0.85927 0.35278 0.43058
 C947 C 0.82969 0.33156 0.34199
 C948 C 0.81547 0.31733 0.32621
 C949 C 0.90050 0.40090 0.41415
 C950 C 0.91559 0.41657 0.42838
 H951 H 0.91957 0.42629 0.37362
 H952 H 0.92386 0.43675 0.32848
 H953 H 0.89325 0.40713 0.29750
 H954 H 0.85814 0.36692 0.31147
 H955 H 0.81080 0.30569 0.38266
 H956 H 0.80661 0.29509 0.42785
 H957 H 0.83719 0.32473 0.45885
 H958 H 0.87221 0.36514 0.44486
 C959 C 1.12154 0.38357 0.10283
 C960 C 1.11312 0.38436 0.12879
 C961 C 1.13048 0.36732 0.14683
 C962 C 1.15611 0.34952 0.13881
 C963 C 1.16445 0.34862 0.11286
 C964 C 1.14712 0.36572 0.09481
 C965 C 1.15590 0.36452 0.06898
 C966 C 1.18103 0.34682 0.06117
 C967 C 1.19792 0.33002 0.07881
 C968 C 1.18989 0.33089 0.10439
 C969 C 1.12166 0.36853 0.17268
 C970 C 1.09640 0.38604 0.18047
 C971 C 1.07940 0.40268 0.16283
 C972 C 1.08756 0.40194 0.13728
 C973 C 1.17353 0.33194 0.15733
 C974 C 1.18729 0.31739 0.17317
 C975 C 1.10408 0.40164 0.08465
 C976 C 1.08911 0.41746 0.07046
 H977 H 1.14341 0.37716 0.05457
 H978 H 1.18742 0.34611 0.04133
 H979 H 1.21739 0.31627 0.07264
 H980 H 1.20378 0.31752 0.11742
 H981 H 1.13415 0.35600 0.18714
 H982 H 1.08999 0.38669 0.20031
 H983 H 1.05978 0.41624 0.16897
 H984 H 1.07357 0.41528 0.12431
 C985 C 0.62497 0.88463 0.60195
 C986 C 0.63579 0.89908 0.62430
 C987 C 0.65298 0.88200 0.64246
 C988 C 0.65929 0.85053 0.63818
 C989 C 0.64931 0.83632 0.61547
 C990 C 0.63209 0.85341 0.59731
 C991 C 0.62217 0.83864 0.57486
 C992 C 0.62911 0.80788 0.57043
 C993 C 0.64594 0.79118 0.58815
 C994 C 0.65596 0.80512 0.61046
 C995 C 0.66333 0.89692 0.66472
 C996 C 0.65692 0.92783 0.66893
 C997 C 0.64012 0.94454 0.65119
 C998 C 0.62961 0.93045 0.62911
 C999 C 0.67528 0.83266 0.65745
 C1000 C 0.68816 0.81790 0.67369
 C1001 C 0.60535 0.90153 0.58442
 C1002 C 0.58832 0.91584 0.57066
 H1003 H 0.60908 0.85072 0.56049
 H1004 H 0.62138 0.79694 0.55313
 H1005 H 0.65127 0.76730 0.58461
 H1006 H 0.66902 0.79120 0.62366
 H1007 H 0.67652 0.88491 0.67907
 H1008 H 0.66504 0.93889 0.68605
 H1009 H 0.63522 0.96855 0.65455
 H1010 H 0.61669 0.94443 0.61586
 C1011 C 1.12100 0.62031 -0.10388
 C1012 C 1.10611 0.63253 -0.12558
 C1013 C 1.12345 0.64956 -0.14370
 C1014 C 1.15558 0.65438 -0.14002
 C1015 C 1.17036 0.64263 -0.11811
 C1016 C 1.15303 0.62552 -0.10000
 C1017 C 1.16836 0.61388 -0.07833
 C1018 C 1.19987 0.61912 -0.07457
 C1019 C 1.21677 0.63594 -0.09220
 C1020 C 1.20233 0.64753 -0.11380
 C1021 C 1.10805 0.66136 -0.16530
 C1022 C 1.07645 0.65652 -0.16889
 C1023 C 1.05950 0.63992 -0.15116
 C1024 C 1.07404 0.62799 -0.12973
 C1025 C 1.17330 0.67128 -0.15888
 C1026 C 1.18741 0.68539 -0.17485
 C1027 C 1.10348 0.60154 -0.08612
 C1028 C 1.08851 0.58538 -0.07212
 H1029 H 1.15616 0.60074 -0.06405
 H1030 H 1.21123 0.61011 -0.05786
 H1031 H 1.24120 0.64004 -0.08913
 H1032 H 1.21646 0.66041 -0.12701
 H1033 H 1.12020 0.67445 -0.17963
 H1034 H 1.06506 0.66572 -0.18551
 H1035 H 1.03496 0.63625 -0.15402
 H1036 H 1.05984 0.61527 -0.11648
 C1037 C 0.62279 1.11622 0.39770
 C1038 C 0.60965 1.14208 0.38547
 C1039 C 0.62723 1.15890 0.36735
 C1040 C 0.65793 1.14983 0.36151
 C1041 C 0.67126 1.12427 0.37402
 C1042 C 0.65365 1.10743 0.39215
 C1043 C 0.66745 1.08189 0.40427
 C1044 C 0.69773 1.07316 0.39862
 C1045 C 0.71489 1.08955 0.38088
 C1046 C 0.70196 1.11489 0.36872
 C1047 C 0.61344 1.18453 0.35530
 C1048 C 0.58319 1.19329 0.36096
 C1049 C 0.56602 1.17686 0.37866
 C1050 C 0.57897 1.15155 0.39083
 C1051 C 0.67543 1.16651 0.34230
 C1052 C 0.68927 1.18063 0.32614
 C1053 C 0.60407 1.09816 0.41523
 C1054 C 0.58762 1.08327 0.42912
 H1055 H 0.65502 1.06845 0.41822
 H1056 H 0.70793 1.05355 0.40806
 H1057 H 0.73839 1.08265 0.37656
 H1058 H 0.71626 1.12700 0.35514
 H1059 H 0.62585 1.19807 0.34141
 H1060 H 0.57301 1.21293 0.35156
 H1061 H 0.54252 1.18376 0.38299
 H1062 H 0.56467 1.13957 0.40447
 C1063 C 0.88174 0.61654 0.10227
 C1064 C 0.85385 0.63063 0.09428
 C1065 C 0.83526 0.64685 0.11207
 C1066 C 0.84469 0.64888 0.13771
 C1067 C 0.87264 0.63487 0.14568
 C1068 C 0.89122 0.61869 0.12791
 C1069 C 0.91905 0.60485 0.13634
 C1070 C 0.92823 0.60691 0.16160
 C1071 C 0.91005 0.62271 0.17898
 C1072 C 0.88257 0.63658 0.17122
 C1073 C 0.80746 0.66068 0.10366
 C1074 C 0.79825 0.65855 0.07841
 C1075 C 0.81642 0.64271 0.06102
 C1076 C 0.84393 0.62886 0.06877
 C1077 C 0.82598 0.66560 0.15595
 C1078 C 0.81133 0.67956 0.17163
 C1079 C 0.90032 0.59905 0.08443
 C1080 C 0.91603 0.58375 0.07038
 H1081 H 0.93401 0.59233 0.12356
 H1082 H 0.94957 0.59618 0.16771
 H1083 H 0.91727 0.62422 0.19859
 H1084 H 0.86924 0.64859 0.18548
 H1085 H 0.79256 0.67323 0.11649
 H1086 H 0.77690 0.66925 0.07229
 H1087 H 0.80917 0.64114 0.04143
 H1088 H 0.85731 0.61681 0.05456
 C1089 C 0.37727 1.11260 0.60230
 C1090 C 0.37970 1.10597 0.62854
 C1091 C 0.36142 1.12247 0.64634
 C1092 C 0.34077 1.14554 0.63785
 C1093 C 0.33786 1.15173 0.61159
 C1094 C 0.35617 1.13522 0.59377
 C1095 C 0.35294 1.14191 0.56766
 C1096 C 0.33219 1.16424 0.55935
 C1097 C 0.31429 1.18036 0.57675
 C1098 C 0.31702 1.17429 0.60260
 C1099 C 0.36441 1.11549 0.67245
 C1100 C 0.38483 1.09287 0.68074
 C1101 C 0.40269 1.07674 0.66336
 C1102 C 0.40026 1.08311 0.63754
 C1103 C 0.32327 1.16334 0.65626
 C1104 C 0.30953 1.17800 0.67208
 C1105 C 0.39705 1.09650 0.58436
 C1106 C 0.41431 1.08266 0.57045
 H1107 H 0.36634 1.12993 0.55343
 H1108 H 0.32997 1.16906 0.53930
 H1109 H 0.29820 1.19768 0.57019
 H1110 H 0.30260 1.18739 0.61542
 H1111 H 0.35099 1.12737 0.68673
 H1112 H 0.38679 1.08783 0.70078
 H1113 H 0.41852 1.05917 0.66989
 H1114 H 0.41463 1.06988 0.62479
 C1115 C 0.88427 0.38308 -0.10343
 C1116 C 0.85699 0.36793 -0.09531
 C1117 C 0.83860 0.35157 -0.11311
 C1118 C 0.84760 0.35048 -0.13892
 C1119 C 0.87500 0.36546 -0.14700
 C1120 C 0.89339 0.38177 -0.12921
 C1121 C 0.92067 0.39659 -0.13776
 C1122 C 0.92949 0.39534 -0.16316
 C1123 C 0.91149 0.37941 -0.18056
 C1124 C 0.88454 0.36459 -0.17268
 C1125 C 0.81140 0.33667 -0.10457
 C1126 C 0.80262 0.33787 -0.07916
 C1127 C 0.82060 0.35385 -0.06176
 C1128 C 0.84751 0.36876 -0.06964
 C1129 C 0.82895 0.33380 -0.15720
 C1130 C 0.81422 0.31992 -0.17286
 C1131 C 0.90251 0.40086 -0.08557
 C1132 C 0.91786 0.41645 -0.07150
 H1133 H 0.93548 0.40925 -0.12496
 H1134 H 0.95041 0.40680 -0.16936
 H1135 H 0.91842 0.37853 -0.20027
 H1136 H 0.87133 0.35251 -0.18695
 H1137 H 0.79666 0.32396 -0.11741
 H1138 H 0.78174 0.32635 -0.07294
 H1139 H 0.81369 0.35471 -0.04204
 H1140 H 0.86077 0.38087 -0.05541
 C1141 C 0.37802 0.88636 0.39800
 C1142 C 0.35720 0.86324 0.40613
 C1143 C 0.33936 0.84676 0.38801
 C1144 C 0.34245 0.85348 0.36184
 C1145 C 0.36286 0.87698 0.35375
 C1146 C 0.38067 0.89346 0.37186
 C1147 C 0.40098 0.91677 0.36325
 C1148 C 0.40362 0.92361 0.33753
 C1149 C 0.38623 0.90749 0.31984
 C1150 C 0.36606 0.88442 0.32774
 C1151 C 0.31879 0.82371 0.39660
 C1152 C 0.31588 0.81713 0.42236
 C1153 C 0.33331 0.83323 0.44006
 C1154 C 0.35380 0.85604 0.43214
 C1155 C 0.32525 0.83589 0.34314
 C1156 C 0.31160 0.82140 0.32717
 C1157 C 0.39726 0.90251 0.41626
 C1158 C 0.41413 0.91643 0.43041
 H1159 H 0.41500 0.93000 0.37625
 H1160 H 0.41925 0.94152 0.33130
 H1161 H 0.38836 0.91288 0.29988
 H1162 H 0.35300 0.87258 0.31324
 H1163 H 0.30473 0.81059 0.38354
 H1164 H 0.30001 0.79944 0.42861
 H1165 H 0.33096 0.82804 0.46004
 H1166 H 0.36685 0.86798 0.44660
 C1167 C 1.11273 1.11479 0.39571
 C1168 C 1.09725 1.13715 0.38092
 C1169 C 1.11435 1.15575 0.36381
 C1170 C 1.14675 1.15167 0.36150
 C1171 C 1.16226 1.12946 0.37640
 C1172 C 1.14518 1.11095 0.39360
 C1173 C 1.16113 1.08885 0.40832
 C1174 C 1.19306 1.08508 0.40602
 C1175 C 1.20977 1.10314 0.38912
 C1176 C 1.19469 1.12515 0.37447
 C1177 C 1.09846 1.17807 0.34927
 C1178 C 1.06652 1.18181 0.35153
 C1179 C 1.04975 1.16350 0.36820
 C1180 C 1.06481 1.14141 0.38279
 C1181 C 1.16395 1.16948 0.34313
 C1182 C 1.17826 1.18361 0.32743
 C1183 C 1.09534 1.09612 0.41338
 C1184 C 1.08088 1.08103 0.42837
 H1185 H 1.14913 1.07423 0.42169
 H1186 H 1.20489 1.06805 0.41739
 H1187 H 1.23455 1.10006 0.38734
 H1188 H 1.20872 1.13872 0.36167
 H1189 H 1.11052 1.19287 0.33606
 H1190 H 1.05474 1.19899 0.34028
 H1191 H 1.02493 1.16643 0.36985
 H1192 H 1.05076 1.12773 0.39550
 C1193 C 0.61399 0.62208 -0.09864
 C1194 C 0.60461 0.65217 -0.10522
 C1195 C 0.62214 0.66938 -0.12307
 C1196 C 0.64888 0.65633 -0.13426
 C1197 C 0.65886 0.62665 -0.12702
 C1198 C 0.64134 0.60945 -0.10918
 C1199 C 0.65159 0.57967 -0.10243
 C1200 C 0.67843 0.56730 -0.11296
 C1201 C 0.69561 0.58417 -0.13036
 C1202 C 0.68605 0.61350 -0.13739
 C1203 C 0.61228 0.69938 -0.12946
 C1204 C 0.58578 0.71199 -0.11854
 C1205 C 0.56861 0.69514 -0.10110
 C1206 C 0.57779 0.66555 -0.09445
 C1207 C 0.66565 0.67291 -0.15377
 C1208 C 0.67975 0.68606 -0.17022
 C1209 C 0.59499 0.60348 -0.08193
 C1210 C 0.57954 0.58691 -0.06871
 H1211 H 0.63908 0.56567 -0.08892
 H1212 H 0.68594 0.54452 -0.10756
 H1213 H 0.71648 0.57449 -0.13846
 H1214 H 0.70024 0.62574 -0.15096
 H1215 H 0.62496 0.71341 -0.14285
 H1216 H 0.57859 0.73499 -0.12360
 H1217 H 0.54808 0.70507 -0.09264
 H1218 H 0.56375 0.65333 -0.08076
 C1219 C 0.88152 1.11311 0.60591
 C1220 C 0.85030 1.12115 0.60113
 C1221 C 0.83405 1.13994 0.61864
 C1222 C 0.84913 1.15042 0.64082
 C1223 C 0.88032 1.14231 0.64563
 C1224 C 0.89658 1.12358 0.62810
 C1225 C 0.92777 1.11575 0.63326
 C1226 C 0.94243 1.12609 0.65517
 C1227 C 0.92650 1.14440 0.67235
 C1228 C 0.89580 1.15251 0.66773
 C1229 C 0.80288 1.14784 0.61347
 C1230 C 0.78820 1.13745 0.59158
 C1231 C 0.80405 1.11895 0.57449
 C1232 C 0.83476 1.11083 0.57911
 C1233 C 0.83240 1.16897 0.65899
 C1234 C 0.81857 1.18388 0.67446
 C1235 C 0.89841 1.09467 0.58774
 C1236 C 0.91273 1.07986 0.57248
 H1237 H 0.94113 1.10153 0.62049
 H1238 H 0.96628 1.11985 0.65884
 H1239 H 0.93798 1.15239 0.68934
 H1240 H 0.88441 1.16683 0.68164
 H1241 H 0.78957 1.16214 0.62622
 H1242 H 0.76438 1.14375 0.58789
 H1243 H 0.79252 1.11087 0.55755
 H1244 H 0.84613 1.09638 0.56526
 C1245 C 0.38270 0.62547 0.09906
 C1246 C 0.35074 0.63139 0.09561
 C1247 C 0.33439 0.64934 0.11369
 C1248 C 0.35009 0.66115 0.13512
 C1249 C 0.38231 0.65628 0.13802
 C1250 C 0.39867 0.63841 0.11992
 C1251 C 0.43084 0.63366 0.12331
 C1252 C 0.44639 0.64623 0.14398
 C1253 C 0.43037 0.66369 0.16169
 C1254 C 0.39869 0.66872 0.15886
 C1255 C 0.30242 0.65488 0.10991
 C1256 C 0.28708 0.64310 0.08882
 C1257 C 0.30304 0.62541 0.07121
 C1258 C 0.33451 0.61952 0.07449
 C1259 C 0.33298 0.67733 0.15464
 C1260 C 0.31878 0.69031 0.17112
 C1261 C 0.39886 0.60475 0.08207
 C1262 C 0.41267 0.58679 0.06890
 H1263 H 0.44434 0.62031 0.11000
 H1264 H 0.47100 0.64241 0.14625
 H1265 H 0.44254 0.67342 0.17772
 H1266 H 0.38726 0.68253 0.17310
 H1267 H 0.28901 0.66849 0.12311
 H1268 H 0.26267 0.64772 0.08613
 H1269 H 0.29099 0.61625 0.05490
 H1270 H 0.34599 0.60575 0.06024
 C1271 C 1.11409 0.88280 0.60613
 C1272 C 1.13884 0.89673 0.61941
 C1273 C 1.15691 0.87904 0.63651
 C1274 C 1.15003 0.84759 0.64024
 C1275 C 1.12543 0.83360 0.62682
 C1276 C 1.10738 0.85128 0.60969
 C1277 C 1.08281 0.83686 0.59652
 C1278 C 1.07623 0.80587 0.60024
 C1279 C 1.09385 0.78859 0.61705
 C1280 C 1.11825 0.80216 0.63019
 C1281 C 1.18156 0.89344 0.64961
 C1282 C 1.18812 0.92444 0.64592
 C1283 C 1.17040 0.94175 0.62922
 C1284 C 1.14602 0.92818 0.61605
 C1285 C 1.16761 0.82997 0.65853
 C1286 C 1.18200 0.81591 0.67424
 C1287 C 1.09576 0.90085 0.58861
 C1288 C 1.08081 0.91575 0.57380
 H1289 H 1.06843 0.84936 0.58327
 H1290 H 1.05733 0.79521 0.59005
 H1291 H 1.08861 0.76455 0.61992
 H1292 H 1.13139 0.78774 0.64298
 H1293 H 1.19602 0.88093 0.66279
 H1294 H 1.20705 0.93507 0.65609
 H1295 H 1.17556 0.96584 0.62644
 H1296 H 1.13290 0.94260 0.60327
 C1297 C 0.61574 0.37921 0.10035
 C1298 C 0.64196 0.39258 0.11210
 C1299 C 0.65943 0.37542 0.13000
 C1300 C 0.65058 0.34500 0.13607
 C1301 C 0.62489 0.33133 0.12382
 C1302 C 0.60739 0.34850 0.10591
 C1303 C 0.58168 0.33444 0.09403
 C1304 C 0.57349 0.30425 0.09966
 C1305 C 0.59058 0.28748 0.11718
 C1306 C 0.61603 0.30073 0.12915
 C1307 C 0.68546 0.38934 0.14158
 C1308 C 0.69396 0.41935 0.13566
 C1309 C 0.67685 0.43616 0.11820
 C1310 C 0.65114 0.42305 0.10649
 C1311 C 0.66751 0.32814 0.15536
 C1312 C 0.68169 0.31463 0.17157
 C1313 C 0.59682 0.39755 0.08336
 C1314 C 0.58128 0.41378 0.06990
 H1315 H 0.56772 0.34658 0.08026
 H1316 H 0.55377 0.29383 0.09038
 H1317 H 0.58412 0.26404 0.12148
 H1318 H 0.62868 0.28673 0.14257
 H1319 H 0.69954 0.37720 0.15526
 H1320 H 0.71393 0.42963 0.14469
 H1321 H 0.68353 0.45948 0.11368
 H1322 H 0.63863 0.43704 0.09299
 C1323 C 0.88646 0.88116 0.39323
 C1324 C 0.87798 0.85064 0.39934
 C1325 C 0.86094 0.83286 0.38163
 C1326 C 0.85246 0.84578 0.35802
 C1327 C 0.86114 0.87622 0.35184
 C1328 C 0.87824 0.89397 0.36952
 C1329 C 0.88672 0.92435 0.36296
 C1330 C 0.87853 0.93682 0.33958
 C1331 C 0.86176 0.91946 0.32228
 C1332 C 0.85309 0.88951 0.32824
 C1333 C 0.85275 0.80237 0.38805
 C1334 C 0.86116 0.78982 0.41136
 C1335 C 0.87775 0.80724 0.42873
 C1336 C 0.88613 0.83732 0.42289
 C1337 C 0.83479 0.82790 0.34003
 C1338 C 0.82013 0.81365 0.32467
 C1339 C 0.90343 0.89944 0.41142
 C1340 C 0.91736 0.91447 0.42676
 H1341 H 0.89979 0.93875 0.37578
 H1342 H 0.88523 0.96007 0.33486
 H1343 H 0.85545 0.92923 0.30413
 H1344 H 0.84008 0.87693 0.31413
 H1345 H 0.83984 0.78792 0.37516
 H1346 H 0.85477 0.76645 0.41596
 H1347 H 0.88420 0.79740 0.44682
 H1348 H 0.89907 0.84995 0.43701
 C1349 C 0.38400 0.37316 -0.10004
 C1350 C 0.35268 0.36521 -0.09558
 C1351 C 0.33623 0.34752 -0.11377
 C1352 C 0.35119 0.33809 -0.13635
 C1353 C 0.38280 0.34514 -0.14040
 C1354 C 0.39929 0.36265 -0.12216
 C1355 C 0.43087 0.36952 -0.12667
 C1356 C 0.44570 0.35943 -0.14860
 C1357 C 0.42954 0.34238 -0.16649
 C1358 C 0.39845 0.33525 -0.16254
 C1359 C 0.30492 0.33987 -0.10893
 C1360 C 0.29027 0.34941 -0.08675
 C1361 C 0.30629 0.36688 -0.06904
 C1362 C 0.33715 0.37477 -0.07331
 C1363 C 0.33383 0.32206 -0.15580
 C1364 C 0.31939 0.30921 -0.17218
 C1365 C 0.40011 0.39349 -0.08270
 C1366 C 0.41385 0.41117 -0.06924
 H1367 H 0.44447 0.38265 -0.11329
 H1368 H 0.46986 0.36488 -0.15174
 H1369 H 0.44115 0.33461 -0.18351
 H1370 H 0.38688 0.32186 -0.17698
 H1371 H 0.29148 0.32636 -0.12216
 H1372 H 0.26635 0.34325 -0.08330
 H1373 H 0.29478 0.37431 -0.05188
 H1374 H 0.34870 0.38829 -0.05895
 C1375 C 1.11999 0.37754 -0.09999
 C1376 C 1.15250 0.38091 -0.10221
 C1377 C 1.16907 0.36341 -0.12045
 C1378 C 1.15304 0.34255 -0.13629
 C1379 C 1.12069 0.33842 -0.13348
 C1380 C 1.10411 0.35600 -0.11530
 C1381 C 1.07172 0.35172 -0.11303
 C1382 C 1.05618 0.33062 -0.12825
 C1383 C 1.07242 0.31339 -0.14599
 C1384 C 1.10430 0.31716 -0.14867
 C1385 C 1.20150 0.36747 -0.12256
 C1386 C 1.21711 0.38824 -0.10708
 C1387 C 1.20093 0.40525 -0.08916
 C1388 C 1.16899 0.40173 -0.08667
 C1389 C 1.16964 0.32600 -0.15593
 C1390 C 1.18342 0.31256 -0.17240
 C1391 C 1.10265 0.39741 -0.08306
 C1392 C 1.08798 0.41458 -0.06978
 H1393 H 1.05810 0.36453 -0.09945
 H1394 H 1.03141 0.32762 -0.12625
 H1395 H 1.06025 0.29700 -0.15776
 H1396 H 1.11591 0.30320 -0.16272
 H1397 H 1.21513 0.35467 -0.13615
 H1398 H 1.24189 0.39117 -0.10901
 H1399 H 1.21318 0.42128 -0.07713
 H1400 H 1.15741 0.41544 -0.07244
 C1401 C 0.62104 0.88088 0.39844
 C1402 C 0.64612 0.89460 0.38533
 C1403 C 0.66296 0.87741 0.36701
 C1404 C 0.65464 0.84659 0.36189
 C1405 C 0.63006 0.83264 0.37546
 C1406 C 0.61323 0.84982 0.39378
 C1407 C 0.58866 0.83539 0.40698
 C1408 C 0.58093 0.80489 0.40224
 C1409 C 0.59738 0.78811 0.38433
 C1410 C 0.62168 0.80170 0.37103
 C1411 C 0.68781 0.89170 0.35406
 C1412 C 0.69583 0.92207 0.35907
 C1413 C 0.67936 0.93887 0.37697
 C1414 C 0.65476 0.92541 0.38998
 C1415 C 0.67099 0.82945 0.34238
 C1416 C 0.68453 0.81543 0.32606
 C1417 C 0.60239 0.89906 0.41580
 C1418 C 0.58619 0.91424 0.42959
 H1419 H 0.57523 0.84747 0.42114
 H1420 H 0.56208 0.79421 0.41252
 H1421 H 0.59128 0.76441 0.38072
 H1422 H 0.63381 0.78770 0.35731
 H1423 H 0.70133 0.87958 0.33999
 H1424 H 0.71493 0.93263 0.34902
 H1425 H 0.68569 0.96245 0.38079
 H1426 H 0.64268 0.93938 0.40376
 C1427 C 0.88630 0.62306 -0.10086
 C1428 C 0.90042 0.63431 -0.12325
 C1429 C 0.88264 0.65125 -0.14109
 C1430 C 0.85085 0.65689 -0.13639
 C1431 C 0.83694 0.64636 -0.11368
 C1432 C 0.85472 0.62941 -0.09584
 C1433 C 0.84027 0.61893 -0.07335
 C1434 C 0.80912 0.62504 -0.06861
 C1435 C 0.79171 0.64159 -0.08606
 C1436 C 0.80534 0.65219 -0.10837
 C1437 C 0.89720 0.66200 -0.16346
 C1438 C 0.92844 0.65619 -0.16807
 C1439 C 0.94583 0.63965 -0.15062
 C1440 C 0.93211 0.62878 -0.12844
 C1441 C 0.83235 0.67275 -0.15527
 C1442 C 0.81721 0.68558 -0.17127
 C1443 C 0.90387 0.60363 -0.08374
 C1444 C 0.91863 0.58671 -0.07030
 H1445 H 0.85289 0.60602 -0.05919
 H1446 H 0.79843 0.61688 -0.05130
 H1447 H 0.76752 0.64625 -0.08230
 H1448 H 0.79088 0.66501 -0.12135
 H1449 H 0.88465 0.67501 -0.17760
 H1450 H 0.93919 0.66457 -0.18528
 H1451 H 0.97009 0.63520 -0.15428
 H1452 H 0.94663 0.61608 -0.11543
 C1453 C 0.38193 1.11705 0.39773
 C1454 C 0.35033 1.12350 0.40254
 C1455 C 0.33269 1.14039 0.38453
 C1456 C 0.34675 1.15072 0.36179
 C1457 C 0.37843 1.14452 0.35710
 C1458 C 0.39607 1.12768 0.37511
 C1459 C 0.42771 1.12178 0.36994
 C1460 C 0.44150 1.13220 0.34764
 C1461 C 0.42425 1.14862 0.33003
 C1462 C 0.39308 1.15476 0.33460
 C1463 C 0.30114 1.14653 0.38975
 C1464 C 0.28741 1.13631 0.41214
 C1465 C 0.30463 1.11975 0.42972
 C1466 C 0.33575 1.11335 0.42507
 C1467 C 0.32870 1.16739 0.34305
 C1468 C 0.31417 1.18106 0.32710
 C1469 C 0.39998 1.09912 0.41568
 C1470 C 0.41599 1.08409 0.42973
 H1471 H 0.44214 1.10912 0.38303
 H1472 H 0.46572 1.12749 0.34402
 H1473 H 0.43506 1.15665 0.31273
 H1474 H 0.38065 1.16764 0.32031
 H1475 H 0.28680 1.15930 0.37665
 H1476 H 0.26327 1.14126 0.41588
 H1477 H 0.29383 1.11184 0.44706
 H1478 H 0.34823 1.10045 0.43931
 C1479 C 1.11937 0.62412 0.09959
 C1480 C 1.10416 0.64755 0.11339
 C1481 C 1.12079 0.66488 0.13170
 C1482 C 1.15251 0.65866 0.13609
 C1483 C 1.16795 0.63581 0.12179
 C1484 C 1.15133 0.61851 0.10346
 C1485 C 1.16718 0.59565 0.08951
 C1486 C 1.19854 0.58995 0.09362
 C1487 C 1.21476 0.60678 0.11162
 C1488 C 1.19979 0.62954 0.12554
 C1489 C 1.10502 0.68801 0.14541
 C1490 C 1.07373 0.69388 0.14115
 C1491 C 1.05748 0.67693 0.12324
 C1492 C 1.07239 0.65399 0.10948
 C1493 C 1.16908 0.67520 0.15574
 C1494 C 1.18293 0.68860 0.17218
 C1495 C 1.10180 0.60469 0.08249
 C1496 C 1.08704 0.58783 0.06902
 H1497 H 1.15556 0.58199 0.07528
 H1498 H 1.21030 0.57235 0.08281
 H1499 H 1.23908 0.60218 0.11480
 H1500 H 1.21344 0.64211 0.13925
 H1501 H 1.11669 0.70182 0.15952
 H1502 H 1.06205 0.71167 0.15179
 H1503 H 1.03318 0.68158 0.12000
 H1504 H 1.05879 0.64147 0.09572
 C1505 C 0.62012 1.11934 0.60233
 C1506 C 0.60501 1.14290 0.61610
 C1507 C 0.62178 1.16047 0.63417
 C1508 C 0.65357 1.15441 0.63841
 C1509 C 0.66884 1.13126 0.62429
 C1510 C 0.65206 1.11370 0.60618
 C1511 C 0.66779 1.09063 0.59239
 C1512 C 0.69918 1.08499 0.59640
 C1513 C 0.71554 1.10205 0.61416
 C1514 C 0.70069 1.12500 0.62796
 C1515 C 0.60611 1.18377 0.64779
 C1516 C 0.57477 1.18952 0.64369
 C1517 C 0.55837 1.17234 0.62604
 C1518 C 0.57319 1.14928 0.61236
 C1519 C 0.67035 1.17154 0.65765
 C1520 C 0.68415 1.18556 0.67380
 C1521 C 0.60241 1.10036 0.58491
 C1522 C 0.58672 1.08472 0.57108
 H1523 H 0.65602 1.07677 0.57837
 H1524 H 0.71086 1.06725 0.58568
 H1525 H 0.73989 1.09750 0.61726
 H1526 H 0.71443 1.13774 0.64149
 H1527 H 0.61788 1.19778 0.66170
 H1528 H 0.56316 1.20742 0.65427
 H1529 H 0.53403 1.17691 0.62293
 H1530 H 0.55942 1.13660 0.59881
 C1531 C 0.88727 0.37940 0.10184
 C1532 C 0.89841 0.37528 0.12687
 C1533 C 0.88083 0.35801 0.14467
 C1534 C 0.85219 0.34488 0.13735
 C1535 C 0.84131 0.34851 0.11220
 C1536 C 0.85891 0.36581 0.09440
 C1537 C 0.84749 0.36921 0.06941
 C1538 C 0.81950 0.35591 0.06220
 C1539 C 0.80230 0.33904 0.07961
 C1540 C 0.81296 0.33531 0.10435
 C1541 C 0.89239 0.35441 0.16961
 C1542 C 0.92050 0.36748 0.17677
 C1543 C 0.93770 0.38434 0.15937
 C1544 C 0.92690 0.38828 0.13470
 C1545 C 0.83377 0.32818 0.15588
 C1546 C 0.81880 0.31470 0.17170
 C1547 C 0.90453 0.39851 0.08417
 C1548 C 0.91913 0.41512 0.07028
 H1549 H 0.86009 0.38210 0.05521
 H1550 H 0.81113 0.35871 0.04300
 H1551 H 0.78057 0.32876 0.07391
 H1552 H 0.79878 0.32196 0.11720
 H1553 H 0.87988 0.34147 0.18383
 H1554 H 0.92899 0.36449 0.19592
 H1555 H 0.95954 0.39443 0.16502
 H1556 H 0.94116 0.40156 0.12187
 C1557 C 0.38210 0.88310 0.60500
 C1558 C 0.38657 0.88785 0.63133
 C1559 C 0.36908 0.87064 0.64925
 C1560 C 0.34714 0.84875 0.64082
 C1561 C 0.34252 0.84412 0.61451
 C1562 C 0.36004 0.86133 0.59657
 C1563 C 0.35502 0.85623 0.57041
 C1564 C 0.33329 0.83479 0.56217
 C1565 C 0.31618 0.81800 0.57969
 C1566 C 0.32065 0.82251 0.60558
 C1567 C 0.37406 0.87583 0.67543
 C1568 C 0.39565 0.89737 0.68368
 C1569 C 0.41273 0.91419 0.66618
 C1570 C 0.40835 0.90958 0.64029
 C1571 C 0.32938 0.83115 0.65929
 C1572 C 0.31491 0.81704 0.67508
 C1573 C 0.40053 0.90043 0.58680
 C1574 C 0.41660 0.91514 0.57249
 H1575 H 0.36777 0.86876 0.55607
 H1576 H 0.32972 0.83119 0.54208
 H1577 H 0.29933 0.80138 0.57318
 H1578 H 0.30679 0.80890 0.61849
 H1579 H 0.36136 0.86333 0.68981
 H1580 H 0.39915 0.90104 0.70377
 H1581 H 0.42948 0.93090 0.67269
 H1582 H 0.42220 0.92326 0.62745
 C1583 C 0.37760 1.11544 -0.10182
 C1584 C 0.36804 1.10140 -0.12472
 C1585 C 0.35152 1.11873 -0.14307
 C1586 C 0.34463 1.14998 -0.13839
 C1587 C 0.35349 1.16381 -0.11523
 C1588 C 0.37003 1.14647 -0.09687
 C1589 C 0.37880 1.16078 -0.07390
 C1590 C 0.37139 1.19138 -0.06919
 C1591 C 0.35522 1.20836 -0.08715
 C1592 C 0.34633 1.19485 -0.10995
 C1593 C 0.34240 1.10428 -0.16592
 C1594 C 0.34937 1.07354 -0.17046
 C1595 C 0.36551 1.05657 -0.15249
 C1596 C 0.37481 1.07022 -0.12985
 C1597 C 0.32866 1.16788 -0.15752
 C1598 C 0.31535 1.18236 -0.17361
 C1599 C 0.39659 1.09836 -0.08408
 C1600 C 0.41326 1.08390 -0.07023
 H1601 H 0.39135 1.14848 -0.05933
 H1602 H 0.37822 1.20197 -0.05149
 H1603 H 0.34953 1.23212 -0.08341
 H1604 H 0.33377 1.20897 -0.12334
 H1605 H 0.32979 1.11651 -0.18048
 H1606 H 0.34221 1.06285 -0.18802
 H1607 H 0.37085 1.03270 -0.15609
 H1608 H 0.38724 1.05603 -0.11645
 C1609 C 0.88463 0.62054 0.39626
 C1610 C 0.88495 0.61198 0.37035
 C1611 C 0.86811 0.62951 0.35226
 C1612 C 0.85102 0.65556 0.36014
 C1613 C 0.85093 0.66430 0.38600
 C1614 C 0.86775 0.64672 0.40412
 C1615 C 0.86719 0.65585 0.42984
 C1616 C 0.85049 0.68160 0.43750
 C1617 C 0.83405 0.69876 0.41982
 C1618 C 0.83423 0.69035 0.39433
 C1619 C 0.86876 0.62041 0.32650
 C1620 C 0.88556 0.59475 0.31881
 C1621 C 0.90201 0.57762 0.33647
 C1622 C 0.90180 0.58602 0.36195
 C1623 C 0.83331 0.67298 0.34160
 C1624 C 0.81871 0.68676 0.32575
 C1625 C 0.90161 0.60216 0.41464
 C1626 C 0.91611 0.58594 0.42891
 H1627 H 0.87962 0.64320 0.44427
 H1628 H 0.85029 0.68826 0.45726
 H1629 H 0.82107 0.71869 0.42588
 H1630 H 0.82116 0.70446 0.38126
 H1631 H 0.85636 0.63299 0.31202
 H1632 H 0.88581 0.58814 0.29903
 H1633 H 0.91503 0.55770 0.33040
 H1634 H 0.91501 0.57194 0.37493
 C1635 C 0.62013 1.11926 0.10113
 C1636 C 0.62224 1.15148 0.09808
 C1637 C 0.63899 1.16929 0.11600
 C1638 C 0.65345 1.15474 0.13688
 C1639 C 0.65193 1.12244 0.13961
 C1640 C 0.63524 1.10464 0.12167
 C1641 C 0.63394 1.07239 0.12484
 C1642 C 0.64870 1.05814 0.14517
 C1643 C 0.66499 1.07554 0.16274
 C1644 C 0.66666 1.10732 0.16009
 C1645 C 0.64074 1.20147 0.11261
 C1646 C 0.62642 1.21564 0.09203
 C1647 C 0.60996 1.19825 0.07454
 C1648 C 0.60781 1.16652 0.07744
 C1649 C 0.66963 1.17289 0.15573
 C1650 C 0.68318 1.18732 0.17173
 C1651 C 0.60131 1.10123 0.08389
 C1652 C 0.58500 1.08602 0.07029
 H1653 H 0.62162 1.05785 0.11164
 H1654 H 0.64748 1.03346 0.14729
 H1655 H 0.67640 1.06437 0.17850
 H1656 H 0.67965 1.11984 0.17424
 H1657 H 0.65324 1.21597 0.12573
 H1658 H 0.62814 1.24025 0.08962
 H1659 H 0.59886 1.20938 0.05861
 H1660 H 0.59484 1.15394 0.06331
 C1661 C 1.11797 0.62119 0.60213
 C1662 C 1.12133 0.65321 0.59835
 C1663 C 1.13804 0.67117 0.61626
 C1664 C 1.15126 0.65704 0.63789
 C1665 C 1.14818 0.62496 0.64153
 C1666 C 1.13154 0.60701 0.62361
 C1667 C 1.12883 0.57499 0.62772
 C1668 C 1.14214 0.56112 0.64888
 C1669 C 1.15834 0.57866 0.66639
 C1670 C 1.16140 0.61021 0.66286
 C1671 C 1.14110 0.70310 0.61203
 C1672 C 1.12813 0.71690 0.59069
 C1673 C 1.11173 0.69938 0.57325
 C1674 C 1.10828 0.66789 0.57695
 C1675 C 1.16788 0.67532 0.65654
 C1676 C 1.18173 0.68972 0.67247
 C1677 C 1.10017 0.60274 0.58434
 C1678 C 1.08529 0.58644 0.57039
 H1679 H 1.11646 0.56032 0.61465
 H1680 H 1.13985 0.53661 0.65169
 H1681 H 1.16862 0.56778 0.68281
 H1682 H 1.17425 0.62284 0.67703
 H1683 H 1.15359 0.71769 0.62509
 H1684 H 1.13084 0.74132 0.58766
 H1685 H 1.10166 0.71024 0.55674
 H1686 H 1.09538 0.65519 0.56285
 C1687 C 0.62043 0.88235 -0.10123
 C1688 C 0.63685 0.89673 -0.12122
 C1689 C 0.65316 0.87861 -0.13918
 C1690 C 0.65302 0.84622 -0.13700
 C1691 C 0.63727 0.83186 -0.11664
 C1692 C 0.62090 0.84999 -0.09870
 C1693 C 0.60518 0.83514 -0.07858
 C1694 C 0.60572 0.80328 -0.07621
 C1695 C 0.62179 0.78556 -0.09373
 C1696 C 0.63737 0.79955 -0.11379
 C1697 C 0.66921 0.89351 -0.15912
 C1698 C 0.66919 0.92539 -0.16121
 C1699 C 0.65327 0.94311 -0.14361
 C1700 C 0.63722 0.92908 -0.12382
 C1701 C 0.66881 0.82778 -0.15588
 C1702 C 0.68206 0.81306 -0.17187
 C1703 C 0.60189 0.90078 -0.08408
 C1704 C 0.58575 0.91621 -0.07051
 H1705 H 0.59244 0.84797 -0.06445
 H1706 H 0.59365 0.79230 -0.06066
 H1707 H 0.62224 0.76084 -0.09174
 H1708 H 0.64952 0.78480 -0.12696
 H1709 H 0.68197 0.88073 -0.17327
 H1710 H 0.68161 0.93640 -0.17656
 H1711 H 0.65335 0.96788 -0.14529
 H1712 H 0.62523 0.94386 -0.11058
 C1713 C 1.11800 0.37808 0.39924
 C1714 C 1.14802 0.38719 0.39142
 C1715 C 1.16460 0.36928 0.37342
 C1716 C 1.15111 0.34230 0.36331
 C1717 C 1.12145 0.33273 0.37165
 C1718 C 1.10484 0.35068 0.38963
 C1719 C 1.07515 0.34074 0.39750
 C1720 C 1.06223 0.31382 0.38794
 C1721 C 1.07847 0.29627 0.37041
 C1722 C 1.10774 0.30552 0.36227
 C1723 C 1.19448 0.37902 0.36580
 C1724 C 1.20762 0.40565 0.37568
 C1725 C 1.19142 0.42315 0.39326
 C1726 C 1.16196 0.41415 0.40110
 C1727 C 1.16747 0.32489 0.34393
 C1728 C 1.18117 0.31091 0.32764
 C1729 C 1.10022 0.39763 0.41625
 C1730 C 1.08546 0.41462 0.42972
 H1731 H 1.06166 0.35359 0.41114
 H1732 H 1.03950 0.30654 0.39419
 H1733 H 1.06834 0.27536 0.36306
 H1734 H 1.11948 0.29109 0.34862
 H1735 H 1.20802 0.36616 0.35220
 H1736 H 1.23050 0.41274 0.36966
 H1737 H 1.20174 0.44382 0.40088
 H1738 H 1.15032 0.42849 0.41487
 C1739 C 0.37824 0.88499 0.10117
 C1740 C 0.36960 0.89851 0.12453
 C1741 C 0.35321 0.88094 0.14283
 C1742 C 0.34549 0.85001 0.13761
 C1743 C 0.35342 0.83674 0.11400
 C1744 C 0.36986 0.85430 0.09570
 C1745 C 0.37770 0.84055 0.07226
 C1746 C 0.36948 0.81028 0.06704
 C1747 C 0.35342 0.79308 0.08495
 C1748 C 0.34543 0.80603 0.10820
 C1749 C 0.34504 0.89486 0.16615
 C1750 C 0.35280 0.92528 0.17121
 C1751 C 0.36881 0.94249 0.15328
 C1752 C 0.37719 0.92937 0.13019
 C1753 C 0.32961 0.83189 0.15665
 C1754 C 0.31636 0.81732 0.17274
 C1755 C 0.39713 0.90223 0.08346
 C1756 C 0.41374 0.91686 0.06966
 H1757 H 0.39013 0.85305 0.05773
 H1758 H 0.37561 0.80012 0.04900
 H1759 H 0.34709 0.76957 0.08081
 H1760 H 0.33292 0.79176 0.12153
 H1761 H 0.33256 0.88243 0.18070
 H1762 H 0.34636 0.93555 0.18913
 H1763 H 0.37477 0.96612 0.15729
 H1764 H 0.38957 0.94372 0.11685
 C1765 C 0.88608 0.37897 0.60269
 C1766 C 0.89008 0.38435 0.62898
 C1767 C 0.87342 0.36648 0.64698
 C1768 C 0.85282 0.34331 0.63863
 C1769 C 0.84910 0.33767 0.61237
 C1770 C 0.86577 0.35555 0.59435
 C1771 C 0.86158 0.34955 0.56822
 C1772 C 0.84151 0.32652 0.56010
 C1773 C 0.82523 0.30904 0.57769
 C1774 C 0.82888 0.31446 0.60356
 C1775 C 0.87778 0.37239 0.67313
 C1776 C 0.89798 0.39528 0.68128
 C1777 C 0.91425 0.41274 0.66370
 C1778 C 0.91045 0.40745 0.63784
 C1779 C 0.83510 0.32582 0.65715
 C1780 C 0.82050 0.31205 0.67302
 C1781 C 0.90265 0.39791 0.58443
 C1782 C 0.91685 0.41451 0.57025
 H1783 H 0.87375 0.36254 0.55384
 H1784 H 0.83858 0.32221 0.54003
 H1785 H 0.80968 0.29118 0.57128
 H1786 H 0.81575 0.30026 0.61653
 H1787 H 0.86568 0.35941 0.68756
 H1788 H 0.90102 0.39947 0.70135
 H1789 H 0.92992 0.43050 0.67012
 H1790 H 0.92366 0.42165 0.62493
 C1791 C 1.11276 1.11552 0.60519
 C1792 C 1.10640 1.14713 0.60849
 C1793 C 1.12480 1.16482 0.62532
 C1794 C 1.14937 1.15073 0.63873
 C1795 C 1.15591 1.11919 0.63524
 C1796 C 1.13751 1.10150 0.61842
 C1797 C 1.14436 1.06995 0.61529
 C1798 C 1.16875 1.05629 0.62840
 C1799 C 1.18679 1.07362 0.64484
 C1800 C 1.18055 1.10471 0.64831
 C1801 C 1.11803 1.19639 0.62840
 C1802 C 1.09369 1.21006 0.61523
 C1803 C 1.07569 1.19275 0.59874
 C1804 C 1.08186 1.16164 0.59533
 C1805 C 1.16719 1.16837 0.65680
 C1806 C 1.18158 1.18263 0.67234
 C1807 C 1.09418 1.09750 0.58790
 C1808 C 1.07918 1.08251 0.57323
 H1809 H 1.13098 1.05551 0.60271
 H1810 H 1.17366 1.03214 0.62578
 H1811 H 1.20573 1.06293 0.65497
 H1812 H 1.19527 1.11724 0.66127
 H1813 H 1.13144 1.21083 0.64095
 H1814 H 1.08877 1.23421 0.61785
 H1815 H 1.05683 1.20348 0.58855
 H1816 H 1.06720 1.14912 0.58232
 C1817 C 0.61499 0.61863 0.10116
 C1818 C 0.60745 0.64965 0.10620
 C1819 C 0.62526 0.66668 0.12395
 C1820 C 0.65044 0.65254 0.13657
 C1821 C 0.65848 0.62178 0.13103
 C1822 C 0.64070 0.60476 0.11327
 C1823 C 0.64907 0.57396 0.10816
 C1824 C 0.67430 0.56039 0.12022
 C1825 C 0.69170 0.57705 0.13757
 C1826 C 0.68399 0.60739 0.14299
 C1827 C 0.61723 0.69762 0.12877
 C1828 C 0.59228 0.71133 0.11642
 C1829 C 0.57488 0.69468 0.09906
 C1830 C 0.58226 0.66417 0.09394
 C1831 C 0.66760 0.66932 0.15570
 C1832 C 0.68172 0.68301 0.17180
 C1833 C 0.59583 0.60056 0.08422
 C1834 C 0.58018 0.58455 0.07073
 H1835 H 0.63630 0.56006 0.09477
 H1836 H 0.68037 0.53682 0.11607
 H1837 H 0.71128 0.56641 0.14688
 H1838 H 0.69826 0.61941 0.15660
 H1839 H 0.63014 0.71154 0.14206
 H1840 H 0.58644 0.73502 0.12033
 H1841 H 0.55555 0.70545 0.08949
 H1842 H 0.56808 0.65215 0.08026
 C1843 C 1.11687 0.88423 0.39678
 C1844 C 1.13416 0.89964 0.37785
 C1845 C 1.15223 0.88249 0.36040
 C1846 C 1.15283 0.85007 0.36202
 C1847 C 1.13592 0.83467 0.38118
 C1848 C 1.11782 0.85183 0.39862
 C1849 C 1.10099 0.83598 0.41760
 C1850 C 1.10215 0.80408 0.41934
 C1851 C 1.11995 0.78731 0.40232
 C1852 C 1.13662 0.80229 0.38337
 C1853 C 1.16932 0.89835 0.34158
 C1854 C 1.16858 0.93027 0.34008
 C1855 C 1.15090 0.94706 0.35717
 C1856 C 1.13383 0.93205 0.37587
 C1857 C 1.17015 0.83259 0.34352
 C1858 C 1.18413 0.81837 0.32770
 C1859 C 1.09832 0.90173 0.41447
 C1860 C 1.08311 0.91621 0.42935
 H1861 H 1.08685 0.84803 0.43129
 H1862 H 1.08920 0.79233 0.43401
 H1863 H 1.12089 0.76255 0.40383
 H1864 H 1.15014 0.78825 0.37057
 H1865 H 1.18348 0.88631 0.32788
 H1866 H 1.18181 0.94203 0.32559
 H1867 H 1.15040 0.97185 0.35594
 H1868 H 1.12043 0.94611 0.38873
 C1869 C 0.61760 0.38398 -0.10222
 C1870 C 0.63168 0.39939 -0.12289
 C1871 C 0.64965 0.38263 -0.14070
 C1872 C 0.65348 0.35056 -0.13772
 C1873 C 0.64003 0.33526 -0.11672
 C1874 C 0.62198 0.35203 -0.09893
 C1875 C 0.60864 0.33625 -0.07816
 C1876 C 0.61317 0.30482 -0.07496
 C1877 C 0.63093 0.28845 -0.09228
 C1878 C 0.64417 0.30335 -0.11302
 C1879 C 0.66340 0.39851 -0.16126
 C1880 C 0.65956 0.43007 -0.16411
 C1881 C 0.64200 0.44648 -0.14669
 C1882 C 0.62814 0.43144 -0.12630
 C1883 C 0.67070 0.33332 -0.15656
 C1884 C 0.68471 0.31923 -0.17251
 C1885 C 0.59832 0.40111 -0.08467
 C1886 C 0.58237 0.41637 -0.07079
 H1887 H 0.59471 0.34804 -0.06416
 H1888 H 0.60290 0.29311 -0.05891
 H1889 H 0.63453 0.26408 -0.08962
 H1890 H 0.65778 0.28964 -0.12600
 H1891 H 0.67734 0.38678 -0.17528
 H1892 H 0.67029 0.44186 -0.17991
 H1893 H 0.63911 0.47100 -0.14897
 H1894 H 0.61474 0.44524 -0.11326
 C1895 C 0.88277 1.11335 0.39381
 C1896 C 0.89823 1.12771 0.37332
 C1897 C 0.88121 1.14590 0.35587
 C1898 C 0.84886 1.14963 0.35907
 C1899 C 0.83345 1.13552 0.37970
 C1900 C 0.85046 1.11726 0.39712
 C1901 C 0.83457 1.10331 0.41760
 C1902 C 0.80281 1.10746 0.42085
 C1903 C 0.78620 1.12546 0.40387
 C1904 C 0.80119 1.13929 0.38344
 C1905 C 0.89714 1.16005 0.33550
 C1906 C 0.92900 1.15639 0.33252
 C1907 C 0.94566 1.13863 0.34963
 C1908 C 0.93057 1.12437 0.36982
 C1909 C 0.83145 1.16761 0.34091
 C1910 C 0.81734 1.18227 0.32542
 C1911 C 0.90020 1.09501 0.41173
 C1912 C 0.91471 1.08013 0.42683
 H1913 H 0.84650 1.08914 0.43133
 H1914 H 0.79103 1.09670 0.43665
 H1915 H 0.76158 1.12877 0.40656
 H1916 H 0.78727 1.15304 0.37071
 H1917 H 0.88521 1.17413 0.32171
 H1918 H 0.94082 1.16741 0.31687
 H1919 H 0.97041 1.13587 0.34726
 H1920 H 0.94453 1.11076 0.38262
 C1921 C 0.37731 0.62153 -0.09908
 C1922 C 0.39130 0.64744 -0.11056
 C1923 C 0.37454 0.66502 -0.12864
 C1924 C 0.34391 0.65653 -0.13517
 C1925 C 0.32952 0.63130 -0.12300
 C1926 C 0.34627 0.61375 -0.10489
 C1927 C 0.33146 0.58851 -0.09309
 C1928 C 0.30099 0.58081 -0.09904
 C1929 C 0.28465 0.59791 -0.11680
 C1930 C 0.29861 0.62292 -0.12868
 C1931 C 0.38906 0.69075 -0.13996
 C1932 C 0.41929 0.69886 -0.13360
 C1933 C 0.43570 0.68163 -0.11596
 C1934 C 0.42200 0.65618 -0.10452
 C1935 C 0.32756 0.67319 -0.15487
 C1936 C 0.31416 0.68689 -0.17141
 C1937 C 0.39532 0.60200 -0.08234
 C1938 C 0.41043 0.58512 -0.06912
 H1939 H 0.34321 0.57455 -0.07911
 H1940 H 0.29001 0.56145 -0.08981
 H1941 H 0.26100 0.59182 -0.12136
 H1942 H 0.28489 0.63562 -0.14227
 H1943 H 0.37721 0.70489 -0.15376
 H1944 H 0.43003 0.71862 -0.14242
 H1945 H 0.45919 0.68801 -0.11110
 H1946 H 0.43566 0.64355 -0.09085
 C1947 C 0.88088 0.88309 0.60544
 C1948 C 0.86694 0.85534 0.59745
 C1949 C 0.84930 0.83770 0.61489
 C1950 C 0.84582 0.84797 0.64016
 C1951 C 0.85956 0.87585 0.64811
 C1952 C 0.87717 0.89349 0.63066
 C1953 C 0.89075 0.92130 0.63897
 C1954 C 0.88699 0.93138 0.66384
 C1955 C 0.86975 0.91411 0.68094
 C1956 C 0.85615 0.88664 0.67328
 C1957 C 0.83550 0.81004 0.60654
 C1958 C 0.83901 0.80012 0.58159
 C1959 C 0.85632 0.81734 0.56451
 C1960 C 0.87020 0.84465 0.57224
 C1961 C 0.82852 0.82973 0.65817
 C1962 C 0.81459 0.81497 0.67368
 C1963 C 0.89896 0.90096 0.58769
 C1964 C 0.91383 0.91562 0.57270
 H1965 H 0.90437 0.93552 0.62636
 H1966 H 0.89750 0.95271 0.66987
 H1967 H 0.86688 0.92204 0.70024
 H1968 H 0.84294 0.87404 0.68728
 H1969 H 0.82182 0.79585 0.61913
 H1970 H 0.82819 0.77900 0.57547
 H1971 H 0.85900 0.80953 0.54516
 H1972 H 0.88342 0.85726 0.55826
 C1973 C 0.38164 0.37406 0.09986
 C1974 C 0.39692 0.36165 0.12128
 C1975 C 0.37986 0.34469 0.13957
 C1976 C 0.34764 0.34024 0.13630
 C1977 C 0.33252 0.35185 0.11450
 C1978 C 0.34960 0.36880 0.09619
 C1979 C 0.33400 0.38039 0.07463
 C1980 C 0.30239 0.37539 0.07127
 C1981 C 0.28567 0.35888 0.08920
 C1982 C 0.30044 0.34716 0.11060
 C1983 C 0.39557 0.33276 0.16097
 C1984 C 0.42724 0.33746 0.16420
 C1985 C 0.44394 0.35404 0.14629
 C1986 C 0.42908 0.36605 0.12505
 C1987 C 0.33001 0.32430 0.15565
 C1988 C 0.31568 0.31119 0.17197
 C1989 C 0.39853 0.39378 0.08254
 C1990 C 0.41283 0.41103 0.06907
 H1991 H 0.34606 0.39334 0.06015
 H1992 H 0.29081 0.38440 0.05466
 H1993 H 0.26112 0.35514 0.08653
 H1994 H 0.28646 0.33441 0.12401
 H1995 H 0.38360 0.31968 0.17541
 H1996 H 0.43888 0.32819 0.18068
 H1997 H 0.46855 0.35763 0.14887
 H1998 H 0.44309 0.37872 0.11162
   
