data_POSCAR
  _audit_creation_date              2014-09-24
  _audit_creation_method            'ToBaCCo'
  _symmetry_space_group_name_H-M    'P1'
  _symmetry_Int_Tables_number       1
  _symmetry_cell_setting            triclinic
  loop_
  _symmetry_equiv_pos_as_xyz
 x,y,z
_cell_length_a 53.7374
_cell_length_b 35.4536
_cell_length_c 37.5541
_cell_angle_alpha 89.942800
_cell_angle_beta 89.957300
_cell_angle_gamma 89.985700
loop_
  _atom_site_label
  _atom_site_type_symbol
  _atom_site_fract_x
  _atom_site_fract_y
  _atom_site_fract_z
C1 C 0.00095 -0.00021 0.11515
 C2 C 0.00064 -0.00014 -0.11847
 C3 C -0.05711 -0.06194 0.05322
 C4 C -0.05705 0.06143 0.05322
 C5 C -0.05707 -0.06205 -0.05554
 C6 C 0.05800 -0.05848 -0.05939
 C7 C 0.05800 0.05791 -0.05941
 C8 C 0.05777 -0.05827 0.05622
 C9 C -0.05702 0.06174 -0.05543
 C10 C 0.05777 0.05774 0.05619
 O11 O -0.03423 -0.07008 -0.06353
 O12 O -0.06376 -0.03639 -0.03309
 O13 O -0.03419 0.06975 -0.06345
 O14 O -0.06373 0.03601 -0.03303
 O15 O 0.03496 0.06592 0.06403
 O16 O 0.06441 0.03413 0.03178
 O17 O 0.00042 0.03187 -0.10215
 O18 O 0.00043 -0.03221 -0.10217
 O19 O 0.00066 0.03190 0.09906
 O20 O 0.00063 -0.03236 0.09916
 O21 O 0.03507 -0.06648 -0.06704
 O22 O 0.06444 -0.03476 -0.03493
 O23 O -0.03425 -0.06986 0.06119
 O24 O -0.06379 -0.03642 0.03056
 O25 O 0.03496 -0.06647 0.06412
 O26 O 0.06439 -0.03470 0.03176
 O27 O 0.03508 0.06597 -0.06708
 O28 O 0.06443 0.03416 -0.03493
 O29 O 0.00161 0.10549 0.05195
 O30 O 0.00142 0.10532 -0.05615
 O31 O 0.00141 -0.10578 -0.05601
 O32 O 0.00158 -0.10600 0.05229
 O33 O -0.02112 -0.04992 -0.00145
 O34 O -0.02112 0.04942 -0.00150
 O35 O 0.02151 -0.04967 -0.00152
 O36 O -0.02233 -0.00025 0.04604
 O37 O -0.06377 0.03594 0.03060
 O38 O -0.03419 0.06933 0.06113
 O39 O 0.02311 -0.00028 0.04612
 O40 O 0.02316 -0.00025 -0.04936
 O41 O 0.02154 0.04914 -0.00158
 O42 O -0.02237 -0.00021 -0.04890
 Zr43 Zr 0.00035 0.04651 0.04473
 Zr44 Zr 0.00035 -0.04696 -0.04781
 Zr45 Zr -0.04225 -0.00024 -0.00134
 Zr46 Zr 0.00032 -0.04705 0.04482
 Zr47 Zr 0.00036 0.04649 -0.04782
 Zr48 Zr 0.04284 -0.00028 -0.00161
 H49 H 0.03161 -0.07301 -0.00151
 H50 H -0.03344 -0.00026 0.06706
 H51 H 0.03165 0.07247 -0.00159
 H52 H -0.03353 -0.00018 -0.06985
 H53 H -0.00393 0.11645 0.02906
 H54 H 0.00162 0.11662 -0.03209
 H55 H -0.00371 -0.11702 0.02932
 H56 H 0.00097 -0.11710 -0.03195
 C57 C 0.25046 0.24966 0.13252
 C58 C 0.25026 0.24979 0.36614
 C59 C 0.19241 0.31163 0.19501
 C60 C 0.19249 0.18797 0.19499
 C61 C 0.19227 0.31145 0.30391
 C62 C 0.30716 0.30838 0.30674
 C63 C 0.30717 0.19118 0.30674
 C64 C 0.30723 0.30842 0.19236
 C65 C 0.19234 0.18792 0.30361
 C66 C 0.30738 0.19108 0.19233
 O67 O 0.21512 0.31936 0.31186
 O68 O 0.18558 0.28595 0.28127
 O69 O 0.21517 0.17993 0.31156
 O70 O 0.18563 0.21358 0.28114
 O71 O 0.28456 0.18306 0.18432
 O72 O 0.31394 0.21509 0.21639
 O73 O 0.24996 0.21769 0.35009
 O74 O 0.24998 0.28192 0.35008
 O75 O 0.25020 0.21763 0.14885
 O76 O 0.25013 0.28172 0.14877
 O77 O 0.28432 0.31640 0.31470
 O78 O 0.31381 0.28443 0.28265
 O79 O 0.21527 0.31960 0.18713
 O80 O 0.18566 0.28598 0.21750
 O81 O 0.28442 0.31644 0.18431
 O82 O 0.31385 0.28443 0.21642
 O83 O 0.28435 0.18311 0.31469
 O84 O 0.31382 0.21515 0.28266
 O85 O 0.25099 0.14413 0.19534
 O86 O 0.25073 0.14421 0.30404
 O87 O 0.25080 0.35544 0.30328
 O88 O 0.25072 0.35528 0.19471
 O89 O 0.22828 0.29945 0.24937
 O90 O 0.22832 0.20013 0.24944
 O91 O 0.27086 0.29910 0.24942
 O92 O 0.22711 0.24973 0.20191
 O93 O 0.18571 0.21356 0.21749
 O94 O 0.21535 0.18003 0.18712
 O95 O 0.27267 0.24976 0.20164
 O96 O 0.27254 0.24978 0.29725
 O97 O 0.27092 0.20039 0.24951
 O98 O 0.22701 0.24976 0.29689
 Zr99 Zr 0.24986 0.20302 0.20318
 Zr100 Zr 0.24969 0.29651 0.29571
 Zr101 Zr 0.20715 0.24979 0.24937
 Zr102 Zr 0.24978 0.29645 0.20309
 Zr103 Zr 0.24972 0.20304 0.29577
 Zr104 Zr 0.29228 0.24976 0.24949
 H105 H 0.28087 0.32253 0.24944
 H106 H 0.21602 0.24976 0.18088
 H107 H 0.28095 0.17697 0.24953
 H108 H 0.21588 0.24971 0.31789
 H109 H 0.24693 0.13293 0.21876
 H110 H 0.24878 0.13288 0.28016
 H111 H 0.24970 0.36663 0.21870
 H112 H 0.24609 0.36653 0.28007
 C113 C 0.49973 -0.00131 0.11653
 C114 C 0.49962 -0.00110 -0.11627
 C115 C 0.55804 0.06002 0.05486
 C116 C 0.55823 -0.06246 0.05547
 C117 C 0.55826 0.05984 -0.05542
 C118 C 0.44312 0.05728 -0.05711
 C119 C 0.44313 -0.05996 -0.05690
 C120 C 0.44309 0.05744 0.05739
 C121 C 0.55823 -0.06260 -0.05509
 C122 C 0.44290 -0.06014 0.05788
 O123 O 0.53529 0.06774 -0.06308
 O124 O 0.56476 0.03466 -0.03220
 O125 O 0.53527 -0.07067 -0.06258
 O126 O 0.56474 -0.03730 -0.03207
 O127 O 0.46585 -0.06802 0.06567
 O128 O 0.43649 -0.03609 0.03361
 O129 O 0.50002 -0.03326 -0.10027
 O130 O 0.50001 0.03099 -0.10028
 O131 O 0.50007 -0.03348 0.10065
 O132 O 0.50011 0.03077 0.10046
 O133 O 0.46595 0.06534 -0.06513
 O134 O 0.43652 0.03330 -0.03296
 O135 O 0.53517 0.06819 0.06259
 O136 O 0.56474 0.03465 0.03209
 O137 O 0.46593 0.06555 0.06521
 O138 O 0.43647 0.03331 0.03345
 O139 O 0.46595 -0.06808 -0.06485
 O140 O 0.43651 -0.03596 -0.03285
 O141 O 0.49959 -0.10715 0.05378
 O142 O 0.49997 -0.10697 -0.05408
 O143 O 0.49961 0.10453 -0.05320
 O144 O 0.49991 0.10435 0.05432
 O145 O 0.52218 0.04845 0.00006
 O146 O 0.52217 -0.05110 0.00019
 O147 O 0.47941 0.04804 0.00012
 O148 O 0.52322 -0.00132 0.04745
 O149 O 0.56471 -0.03734 0.03220
 O150 O 0.53527 -0.07037 0.06325
 O151 O 0.47779 -0.00133 0.04795
 O152 O 0.47782 -0.00131 -0.04744
 O153 O 0.47944 -0.05075 0.00025
 O154 O 0.52324 -0.00132 -0.04728
 Zr155 Zr 0.50059 -0.04816 0.04645
 Zr156 Zr 0.50063 0.04551 -0.04609
 Zr157 Zr 0.54324 -0.00133 0.00005
 Zr158 Zr 0.50060 0.04548 0.04628
 Zr159 Zr 0.50064 -0.04811 -0.04603
 Zr160 Zr 0.45806 -0.00137 0.00029
 H161 H 0.46937 0.07144 0.00008
 H162 H 0.53426 -0.00125 0.06852
 H163 H 0.46940 -0.07415 0.00035
 H164 H 0.53427 -0.00136 -0.06840
 H165 H 0.50564 -0.11804 0.03114
 H166 H 0.49985 -0.11820 -0.02998
 H167 H 0.49902 0.11556 0.03023
 H168 H 0.50596 0.11533 -0.03069
 C169 C 0.75117 0.24956 0.13407
 C170 C 0.75097 0.24895 0.36684
 C171 C 0.69283 0.31046 0.19529
 C172 C 0.69300 0.18777 0.19559
 C173 C 0.69282 0.31051 0.30523
 C174 C 0.80772 0.30741 0.30811
 C175 C 0.80802 0.19107 0.30837
 C176 C 0.80769 0.30753 0.19260
 C177 C 0.69300 0.18786 0.30526
 C178 C 0.80790 0.19121 0.19262
 O179 O 0.71567 0.31867 0.31299
 O180 O 0.68615 0.28514 0.28246
 O181 O 0.71584 0.17985 0.31322
 O182 O 0.68629 0.21309 0.28235
 O183 O 0.78507 0.18294 0.18493
 O184 O 0.81452 0.21491 0.21693
 O185 O 0.75070 0.21684 0.35084
 O186 O 0.75062 0.28109 0.35084
 O187 O 0.75087 0.21741 0.15005
 O188 O 0.75076 0.28167 0.15005
 O189 O 0.78488 0.31561 0.31584
 O190 O 0.81441 0.28372 0.28382
 O191 O 0.71569 0.31850 0.18740
 O192 O 0.68616 0.28522 0.21827
 O193 O 0.78486 0.31569 0.18483
 O194 O 0.81438 0.28385 0.21695
 O195 O 0.78509 0.18305 0.31605
 O196 O 0.81447 0.21477 0.28382
 O197 O 0.75126 0.14364 0.19614
 O198 O 0.75169 0.14336 0.30365
 O199 O 0.75103 0.35483 0.30469
 O200 O 0.75142 0.35518 0.19735
 O201 O 0.72871 0.29900 0.25044
 O202 O 0.72885 0.19950 0.25040
 O203 O 0.77152 0.29866 0.25043
 O204 O 0.72772 0.24926 0.20303
 O205 O 0.68626 0.21317 0.21830
 O206 O 0.71589 0.17965 0.18788
 O207 O 0.77311 0.24936 0.20280
 O208 O 0.77311 0.24922 0.29805
 O209 O 0.77165 0.19982 0.25040
 O210 O 0.72769 0.24914 0.29773
 Zr211 Zr 0.75041 0.20250 0.20422
 Zr212 Zr 0.75026 0.29596 0.29663
 Zr213 Zr 0.70770 0.24922 0.25036
 Zr214 Zr 0.75028 0.29614 0.20426
 Zr215 Zr 0.75041 0.20238 0.29658
 Zr216 Zr 0.79292 0.24927 0.25040
 H217 H 0.78159 0.32203 0.25039
 H218 H 0.71667 0.24922 0.18197
 H219 H 0.78178 0.17649 0.25045
 H220 H 0.71662 0.24914 0.31879
 H221 H 0.75219 0.13242 0.22021
 H222 H 0.74545 0.13251 0.28110
 H223 H 0.74494 0.36593 0.21981
 H224 H 0.75209 0.36605 0.28063
 C225 C 0.00028 0.50053 0.11613
 C226 C 0.00015 0.50019 -0.11748
 C227 C -0.05760 0.43845 0.05397
 C228 C -0.05769 0.56207 0.05396
 C229 C -0.05772 0.43853 -0.05476
 C230 C 0.05714 0.44227 -0.05813
 C231 C 0.05711 0.55845 -0.05825
 C232 C 0.05721 0.44225 0.05715
 C233 C -0.05771 0.56221 -0.05470
 C234 C 0.05719 0.55868 0.05711
 O235 O -0.03487 0.43063 -0.06277
 O236 O -0.06443 0.46410 -0.03221
 O237 O -0.03486 0.57021 -0.06263
 O238 O -0.06443 0.53652 -0.03224
 O239 O 0.03435 0.56682 0.06496
 O240 O 0.06381 0.53495 0.03279
 O241 O -0.00014 0.53225 -0.10121
 O242 O -0.00010 0.46815 -0.10112
 O243 O -0.00002 0.53265 0.10006
 O244 O -0.00002 0.46841 0.10012
 O245 O 0.03433 0.43411 -0.06599
 O246 O 0.06376 0.46593 -0.03380
 O247 O -0.03474 0.43051 0.06182
 O248 O -0.06437 0.46409 0.03150
 O249 O 0.03440 0.43404 0.06500
 O250 O 0.06383 0.46597 0.03282
 O251 O 0.03430 0.56662 -0.06610
 O252 O 0.06375 0.53481 -0.03389
 O253 O 0.00092 0.60616 0.05298
 O254 O 0.00064 0.60585 -0.05524
 O255 O 0.00097 0.39467 -0.05429
 O256 O 0.00089 0.39483 0.05406
 O257 O -0.02175 0.45066 -0.00040
 O258 O -0.02178 0.54999 -0.00055
 O259 O 0.02089 0.45100 -0.00047
 O260 O -0.02296 0.50039 0.04699
 O261 O -0.06441 0.53652 0.03142
 O262 O -0.03484 0.57000 0.06190
 O263 O 0.02252 0.50044 0.04724
 O264 O 0.02249 0.50033 -0.04824
 O265 O 0.02086 0.54978 -0.00061
 O266 O -0.02303 0.50031 -0.04796
 Zr267 Zr -0.00029 0.54719 0.04571
 Zr268 Zr -0.00032 0.45359 -0.04673
 Zr269 Zr -0.04291 0.50031 -0.00043
 Zr270 Zr -0.00025 0.45366 0.04584
 Zr271 Zr -0.00034 0.54703 -0.04688
 Zr272 Zr 0.04222 0.50041 -0.00050
 H273 H 0.03098 0.42763 -0.00045
 H274 H -0.03408 0.50035 0.06800
 H275 H 0.03094 0.57314 -0.00063
 H276 H -0.03416 0.50033 -0.06895
 H277 H -0.00442 0.61713 0.03000
 H278 H 0.00068 0.61718 -0.03120
 H279 H -0.00093 0.38352 0.03015
 H280 H -0.00379 0.38356 -0.03111
 C281 C 0.25087 0.75077 0.13333
 C282 C 0.25059 0.75094 0.36614
 C283 C 0.19288 0.81295 0.19535
 C284 C 0.19252 0.68943 0.19500
 C285 C 0.19258 0.81267 0.30406
 C286 C 0.30742 0.80919 0.30706
 C287 C 0.30735 0.69196 0.30698
 C288 C 0.30789 0.80940 0.19245
 C289 C 0.19246 0.68913 0.30411
 C290 C 0.30739 0.69203 0.19253
 O291 O 0.21544 0.82052 0.31206
 O292 O 0.18587 0.78717 0.28146
 O293 O 0.21531 0.68109 0.31197
 O294 O 0.18578 0.71479 0.28157
 O295 O 0.28456 0.68408 0.18457
 O296 O 0.31407 0.71596 0.21659
 O297 O 0.25023 0.71883 0.35017
 O298 O 0.25030 0.78306 0.35012
 O299 O 0.25045 0.71865 0.14933
 O300 O 0.25062 0.78289 0.14928
 O301 O 0.28460 0.81730 0.31496
 O302 O 0.31409 0.78526 0.28297
 O303 O 0.21576 0.82091 0.18753
 O304 O 0.18606 0.78729 0.21776
 O305 O 0.28505 0.81765 0.18458
 O306 O 0.31438 0.78523 0.21649
 O307 O 0.28450 0.68399 0.31489
 O308 O 0.31405 0.71596 0.28293
 O309 O 0.25101 0.64513 0.19607
 O310 O 0.25071 0.64524 0.30429
 O311 O 0.25115 0.85656 0.30330
 O312 O 0.25119 0.85649 0.19504
 O313 O 0.22861 0.80056 0.24959
 O314 O 0.22841 0.70117 0.24973
 O315 O 0.27131 0.80019 0.24971
 O316 O 0.22743 0.75100 0.20227
 O317 O 0.18582 0.71492 0.21766
 O318 O 0.21539 0.68145 0.18709
 O319 O 0.27292 0.75075 0.20197
 O320 O 0.27277 0.75077 0.29741
 O321 O 0.27111 0.70143 0.24976
 O322 O 0.22726 0.75090 0.29710
 Zr323 Zr 0.24997 0.70408 0.20354
 Zr324 Zr 0.25000 0.79761 0.29586
 Zr325 Zr 0.20737 0.75094 0.24965
 Zr326 Zr 0.25025 0.79767 0.20344
 Zr327 Zr 0.24989 0.70408 0.29597
 Zr328 Zr 0.29259 0.75073 0.24971
 H329 H 0.28138 0.82356 0.24972
 H330 H 0.21634 0.75108 0.18124
 H331 H 0.28109 0.67796 0.24976
 H332 H 0.21613 0.75089 0.31811
 H333 H 0.24570 0.63411 0.21906
 H334 H 0.25033 0.63393 0.28024
 H335 H 0.25123 0.86783 0.21907
 H336 H 0.24603 0.86760 0.28024
 C337 C 0.49904 0.49986 0.11648
 C338 C 0.49918 0.50006 -0.11631
 C339 C 0.55736 0.56142 0.05479
 C340 C 0.55745 0.43876 0.05523
 C341 C 0.55735 0.56122 -0.05482
 C342 C 0.44251 0.55872 -0.05725
 C343 C 0.44249 0.44128 -0.05696
 C344 C 0.44252 0.55873 0.05717
 C345 C 0.55731 0.43850 -0.05445
 C346 C 0.44258 0.44147 0.05740
 O347 O 0.53452 0.56927 -0.06270
 O348 O 0.56406 0.53596 -0.03194
 O349 O 0.53446 0.43037 -0.06219
 O350 O 0.56404 0.46392 -0.03180
 O351 O 0.46538 0.43340 0.06540
 O352 O 0.43593 0.46543 0.03330
 O353 O 0.49953 0.46796 -0.10026
 O354 O 0.49952 0.53220 -0.10037
 O355 O 0.49942 0.46774 0.10054
 O356 O 0.49942 0.53199 0.10047
 O357 O 0.46535 0.56675 -0.06521
 O358 O 0.43587 0.53472 -0.03315
 O359 O 0.53450 0.56958 0.06252
 O360 O 0.56408 0.53600 0.03210
 O361 O 0.46533 0.56679 0.06508
 O362 O 0.43587 0.53470 0.03319
 O363 O 0.46532 0.43319 -0.06487
 O364 O 0.43585 0.46537 -0.03300
 O365 O 0.49895 0.39420 0.05361
 O366 O 0.49919 0.39439 -0.05421
 O367 O 0.49892 0.60575 -0.05366
 O368 O 0.49920 0.60562 0.05443
 O369 O 0.52150 0.54973 0.00004
 O370 O 0.52152 0.45024 0.00014
 O371 O 0.47879 0.54942 0.00005
 O372 O 0.52261 0.50000 0.04753
 O373 O 0.56412 0.46399 0.03226
 O374 O 0.53458 0.43075 0.06314
 O375 O 0.47717 0.50000 0.04777
 O376 O 0.47715 0.50003 -0.04765
 O377 O 0.47879 0.45065 0.00018
 O378 O 0.52261 0.49998 -0.04725
 Zr379 Zr 0.50000 0.45320 0.04635
 Zr380 Zr 0.49996 0.54679 -0.04615
 Zr381 Zr 0.54259 0.49998 0.00015
 Zr382 Zr 0.49996 0.54678 0.04626
 Zr383 Zr 0.49995 0.45324 -0.04604
 Zr384 Zr 0.45743 0.50005 0.00007
 H385 H 0.46878 0.57285 -0.00002
 H386 H 0.53365 0.50005 0.06860
 H387 H 0.46877 0.42723 0.00023
 H388 H 0.53367 0.49992 -0.06833
 H389 H 0.50487 0.38332 0.03089
 H390 H 0.49870 0.38311 -0.03013
 H391 H 0.49934 0.61691 0.03035
 H392 H 0.50441 0.61675 -0.03079
 C393 C 0.75057 0.75069 0.13342
 C394 C 0.75048 0.75054 0.36619
 C395 C 0.69221 0.81168 0.19458
 C396 C 0.69238 0.68911 0.19512
 C397 C 0.69235 0.81203 0.30447
 C398 C 0.80718 0.80882 0.30728
 C399 C 0.80723 0.69248 0.30764
 C400 C 0.80720 0.80871 0.19181
 C401 C 0.69235 0.68937 0.30493
 C402 C 0.80722 0.69238 0.19217
 O403 O 0.71521 0.82020 0.31217
 O404 O 0.68564 0.78662 0.28178
 O405 O 0.71520 0.68138 0.31283
 O406 O 0.68564 0.71456 0.28195
 O407 O 0.78440 0.68415 0.18445
 O408 O 0.81387 0.71614 0.21641
 O409 O 0.75017 0.71840 0.35025
 O410 O 0.75012 0.78265 0.35013
 O411 O 0.75020 0.71858 0.14947
 O412 O 0.75022 0.78284 0.14933
 O413 O 0.78436 0.81705 0.31505
 O414 O 0.81384 0.78508 0.28302
 O415 O 0.71508 0.81978 0.18669
 O416 O 0.68557 0.78646 0.21759
 O417 O 0.78437 0.81692 0.18400
 O418 O 0.81383 0.78506 0.21622
 O419 O 0.78439 0.68431 0.31548
 O420 O 0.81386 0.71614 0.28322
 O421 O 0.75059 0.64493 0.19566
 O422 O 0.75097 0.64478 0.30314
 O423 O 0.75054 0.85627 0.30387
 O424 O 0.75087 0.85648 0.19650
 O425 O 0.72817 0.80035 0.24972
 O426 O 0.72821 0.70084 0.24987
 O427 O 0.77097 0.80003 0.24967
 O428 O 0.72713 0.75058 0.20242
 O429 O 0.68565 0.71451 0.21783
 O430 O 0.71525 0.68097 0.18738
 O431 O 0.77251 0.75063 0.20214
 O432 O 0.77253 0.75061 0.29740
 O433 O 0.77101 0.70118 0.24984
 O434 O 0.72712 0.75061 0.29713
 Zr435 Zr 0.74977 0.70380 0.20367
 Zr436 Zr 0.74974 0.79740 0.29588
 Zr437 Zr 0.70711 0.75058 0.24979
 Zr438 Zr 0.74972 0.79745 0.20351
 Zr439 Zr 0.74977 0.70380 0.29604
 Zr440 Zr 0.79231 0.75061 0.24974
 H441 H 0.78106 0.82338 0.24959
 H442 H 0.71608 0.75049 0.18136
 H443 H 0.78110 0.67783 0.24991
 H444 H 0.71606 0.75067 0.31821
 H445 H 0.75150 0.63374 0.21974
 H446 H 0.74467 0.63394 0.28062
 H447 H 0.74439 0.86727 0.21895
 H448 H 0.75154 0.86746 0.27979
 C449 C 0.00020 0.00069 0.38307
 C450 C -0.00006 0.00062 0.61646
 C451 C -0.05800 0.06230 0.44508
 C452 C -0.05777 -0.06114 0.44538
 C453 C -0.05791 0.06247 0.55392
 C454 C 0.05694 0.05887 0.55740
 C455 C 0.05700 -0.05738 0.55745
 C456 C 0.05690 0.05882 0.44196
 C457 C -0.05785 -0.06124 0.55397
 C458 C 0.05708 -0.05731 0.44207
 O459 O -0.03508 0.07051 0.56181
 O460 O -0.06461 0.03682 0.53148
 O461 O -0.03501 -0.06922 0.56188
 O462 O -0.06458 -0.03556 0.53151
 O463 O 0.03427 -0.06552 0.43422
 O464 O 0.06366 -0.03365 0.46643
 O465 O -0.00033 -0.03148 0.60040
 O466 O -0.00036 0.03275 0.60039
 O467 O -0.00010 -0.03141 0.39918
 O468 O -0.00017 0.03284 0.39906
 O469 O 0.03411 0.06707 0.56520
 O470 O 0.06358 0.03520 0.53306
 O471 O -0.03514 0.07030 0.43711
 O472 O -0.06465 0.03673 0.46772
 O473 O 0.03409 0.06701 0.43408
 O474 O 0.06353 0.03522 0.46637
 O475 O 0.03418 -0.06562 0.56526
 O476 O 0.06361 -0.03366 0.53311
 O477 O 0.00091 -0.10497 0.44588
 O478 O 0.00065 -0.10491 0.55422
 O479 O 0.00047 0.10628 0.55412
 O480 O 0.00067 0.10645 0.44588
 O481 O -0.02200 0.05038 0.49970
 O482 O -0.02191 -0.04899 0.49976
 O483 O 0.02064 0.05013 0.49969
 O484 O -0.02314 0.00067 0.45225
 O485 O -0.06453 -0.03559 0.46791
 O486 O -0.03491 -0.06902 0.43741
 O487 O 0.02231 0.00077 0.45205
 O488 O 0.02229 0.00071 0.54751
 O489 O 0.02074 -0.04869 0.49979
 O490 O -0.02321 0.00066 0.54720
 Zr491 Zr -0.00040 -0.04605 0.45350
 Zr492 Zr -0.00053 0.04744 0.54601
 Zr493 Zr -0.04308 0.00067 0.49969
 Zr494 Zr -0.00054 0.04750 0.45339
 Zr495 Zr -0.00048 -0.04606 0.54606
 Zr496 Zr 0.04202 0.00075 0.49976
 H497 H 0.03072 0.07349 0.49966
 H498 H -0.03424 0.00064 0.43124
 H499 H 0.03085 -0.07204 0.49978
 H500 H -0.03436 0.00064 0.56818
 H501 H -0.00392 -0.11612 0.46902
 H502 H -0.00095 -0.11618 0.53026
 H503 H -0.00467 0.11748 0.46883
 H504 H -0.00012 0.11756 0.53004
 C505 C 0.25027 0.24911 0.86758
 C506 C 0.25037 0.24925 0.63417
 C507 C 0.19221 0.18733 0.80514
 C508 C 0.19239 0.31114 0.80499
 C509 C 0.19226 0.18765 0.69637
 C510 C 0.30710 0.19056 0.69358
 C511 C 0.30722 0.30772 0.69353
 C512 C 0.30720 0.19026 0.80799
 C513 C 0.19236 0.31106 0.69644
 C514 C 0.30723 0.30771 0.80801
 O515 O 0.21511 0.17967 0.68841
 O516 O 0.18557 0.21316 0.71900
 O517 O 0.21522 0.31893 0.68845
 O518 O 0.18563 0.28549 0.71903
 O519 O 0.28440 0.31577 0.81598
 O520 O 0.31385 0.28369 0.78398
 O521 O 0.25009 0.28135 0.65022
 O522 O 0.25004 0.21711 0.65023
 O523 O 0.24999 0.28121 0.85149
 O524 O 0.24995 0.21699 0.85157
 O525 O 0.28429 0.18256 0.68560
 O526 O 0.31375 0.21444 0.71769
 O527 O 0.21506 0.17923 0.81303
 O528 O 0.18556 0.21311 0.78273
 O529 O 0.28437 0.18224 0.81601
 O530 O 0.31381 0.21432 0.78395
 O531 O 0.28440 0.31577 0.68556
 O532 O 0.31384 0.28375 0.71766
 O533 O 0.25074 0.35466 0.80541
 O534 O 0.25092 0.35486 0.69682
 O535 O 0.25076 0.14353 0.69694
 O536 O 0.25058 0.14350 0.80553
 O537 O 0.22821 0.19950 0.75091
 O538 O 0.22830 0.29885 0.75086
 O539 O 0.27080 0.19977 0.75089
 O540 O 0.22700 0.24914 0.79839
 O541 O 0.18565 0.28547 0.78262
 O542 O 0.21524 0.31907 0.81291
 O543 O 0.27255 0.24905 0.79870
 O544 O 0.27255 0.24915 0.70311
 O545 O 0.27089 0.29848 0.75084
 O546 O 0.22703 0.24924 0.70339
 Zr547 Zr 0.24975 0.29583 0.79715
 Zr548 Zr 0.24967 0.20245 0.70459
 Zr549 Zr 0.20712 0.24922 0.75087
 Zr550 Zr 0.24967 0.20234 0.79724
 Zr551 Zr 0.24976 0.29594 0.70456
 Zr552 Zr 0.29224 0.24909 0.75087
 H553 H 0.28081 0.17633 0.75085
 H554 H 0.21586 0.24916 0.81938
 H555 H 0.28093 0.32188 0.75081
 H556 H 0.21593 0.24929 0.68238
 H557 H 0.24969 0.36601 0.78140
 H558 H 0.24633 0.36598 0.72006
 H559 H 0.24962 0.13219 0.78152
 H560 H 0.24603 0.13241 0.72015
 C561 C 0.49916 0.00021 0.38363
 C562 C 0.49890 0.00013 0.61643
 C563 C 0.55727 -0.06112 0.44539
 C564 C 0.55731 0.06165 0.44538
 C565 C 0.55712 -0.06108 0.55486
 C566 C 0.44235 -0.05820 0.55718
 C567 C 0.44237 0.05886 0.55718
 C568 C 0.44246 -0.05831 0.44285
 C569 C 0.55716 0.06147 0.55489
 C570 C 0.44247 0.05902 0.44273
 O571 O 0.53428 -0.06912 0.56274
 O572 O 0.56385 -0.03578 0.53203
 O573 O 0.53432 0.06956 0.56274
 O574 O 0.56388 0.03620 0.53206
 O575 O 0.46529 0.06711 0.43482
 O576 O 0.43581 0.03499 0.46677
 O577 O 0.49926 0.03229 0.60045
 O578 O 0.49926 -0.03196 0.60041
 O579 O 0.49950 0.03236 0.39954
 O580 O 0.49949 -0.03187 0.39968
 O581 O 0.46515 -0.06629 0.56519
 O582 O 0.43574 -0.03424 0.53307
 O583 O 0.53443 -0.06931 0.43766
 O584 O 0.56396 -0.03570 0.46807
 O585 O 0.46528 -0.06644 0.43498
 O586 O 0.43580 -0.03424 0.46680
 O587 O 0.46517 0.06690 0.56517
 O588 O 0.43575 0.03496 0.53306
 O589 O 0.49911 0.10593 0.44550
 O590 O 0.49873 0.10598 0.55377
 O591 O 0.49864 -0.10546 0.55376
 O592 O 0.49910 -0.10534 0.44572
 O593 O 0.52136 -0.04949 0.50007
 O594 O 0.52136 0.05002 0.50000
 O595 O 0.47865 -0.04908 0.50001
 O596 O 0.52253 0.00028 0.45260
 O597 O 0.56396 0.03624 0.46813
 O598 O 0.53448 0.06983 0.43754
 O599 O 0.47709 0.00032 0.45223
 O600 O 0.47698 0.00029 0.54766
 O601 O 0.47869 0.04973 0.49994
 O602 O 0.52240 0.00024 0.54741
 Zr603 Zr 0.49990 0.04709 0.45374
 Zr604 Zr 0.49977 -0.04651 0.54621
 Zr605 Zr 0.54241 0.00026 0.50004
 Zr606 Zr 0.49989 -0.04649 0.45386
 Zr607 Zr 0.49979 0.04704 0.54620
 Zr608 Zr 0.45734 0.00036 0.49993
 H609 H 0.46862 -0.07250 0.50005
 H610 H 0.53363 0.00028 0.43157
 H611 H 0.46868 0.07316 0.49995
 H612 H 0.53344 0.00021 0.56849
 H613 H 0.49983 0.11721 0.46954
 H614 H 0.50398 0.11705 0.53079
 H615 H 0.49927 -0.11661 0.46981
 H616 H 0.50416 -0.11650 0.53090
 C617 C 0.75033 0.24939 0.86697
 C618 C 0.75015 0.24910 0.63420
 C619 C 0.69194 0.18786 0.80585
 C620 C 0.69212 0.31079 0.80526
 C621 C 0.69205 0.18795 0.69590
 C622 C 0.80682 0.19126 0.69280
 C623 C 0.80684 0.30746 0.69263
 C624 C 0.80692 0.19120 0.80809
 C625 C 0.69198 0.31042 0.69570
 C626 C 0.80694 0.30759 0.80800
 O627 O 0.71489 0.17995 0.68796
 O628 O 0.68533 0.21314 0.71882
 O629 O 0.71482 0.31844 0.68774
 O630 O 0.68529 0.28519 0.71866
 O631 O 0.78411 0.31582 0.81580
 O632 O 0.81355 0.28381 0.78375
 O633 O 0.74981 0.28126 0.65012
 O634 O 0.74979 0.21699 0.65026
 O635 O 0.74992 0.28148 0.85092
 O636 O 0.74995 0.21724 0.85107
 O637 O 0.78401 0.18298 0.68507
 O638 O 0.81346 0.21493 0.71710
 O639 O 0.71483 0.17968 0.81348
 O640 O 0.68526 0.21329 0.78307
 O641 O 0.78412 0.18290 0.81600
 O642 O 0.81350 0.21494 0.78377
 O643 O 0.78401 0.31560 0.68481
 O644 O 0.81348 0.28380 0.71702
 O645 O 0.75028 0.35497 0.80468
 O646 O 0.75051 0.35501 0.69698
 O647 O 0.75066 0.14342 0.69750
 O648 O 0.75026 0.14360 0.80503
 O649 O 0.72787 0.19945 0.75077
 O650 O 0.72788 0.29895 0.75056
 O651 O 0.77065 0.19989 0.75067
 O652 O 0.72681 0.24930 0.79809
 O653 O 0.68537 0.28531 0.78268
 O654 O 0.71497 0.31895 0.81293
 O655 O 0.77221 0.24929 0.79821
 O656 O 0.77216 0.24924 0.70292
 O657 O 0.77065 0.29876 0.75045
 O658 O 0.72678 0.24921 0.70336
 Zr659 Zr 0.74947 0.29610 0.79670
 Zr660 Zr 0.74942 0.20243 0.70454
 Zr661 Zr 0.70679 0.24919 0.75076
 Zr662 Zr 0.74942 0.20247 0.79692
 Zr663 Zr 0.74940 0.29603 0.70432
 Zr664 Zr 0.79195 0.24935 0.75050
 H665 H 0.78075 0.17654 0.75062
 H666 H 0.71575 0.24933 0.81918
 H667 H 0.78073 0.32213 0.75035
 H668 H 0.71573 0.24918 0.68231
 H669 H 0.75080 0.36617 0.78057
 H670 H 0.74451 0.36595 0.71964
 H671 H 0.75102 0.13240 0.78095
 H672 H 0.74445 0.13254 0.72008
 C673 C 0.00043 0.50028 0.38398
 C674 C 0.00026 0.49994 0.61737
 C675 C -0.05758 0.56181 0.44596
 C676 C -0.05750 0.43816 0.44637
 C677 C -0.05760 0.56202 0.55474
 C678 C 0.05726 0.55821 0.55817
 C679 C 0.05726 0.44191 0.55841
 C680 C 0.05732 0.55829 0.44272
 C681 C -0.05765 0.43834 0.55511
 C682 C 0.05734 0.44187 0.44290
 O683 O -0.03475 0.56998 0.56265
 O684 O -0.06432 0.53633 0.53235
 O685 O -0.03480 0.43045 0.56315
 O686 O -0.06434 0.46388 0.53247
 O687 O 0.03451 0.43369 0.43516
 O688 O 0.06398 0.46558 0.46719
 O689 O -0.00001 0.46782 0.60133
 O690 O -0.00003 0.53206 0.60126
 O691 O 0.00012 0.46815 0.40004
 O692 O 0.00013 0.53239 0.40000
 O693 O 0.03444 0.56637 0.56601
 O694 O 0.06392 0.53452 0.53387
 O695 O -0.03472 0.56970 0.43798
 O696 O -0.06430 0.53629 0.46863
 O697 O 0.03448 0.56644 0.43493
 O698 O 0.06395 0.53459 0.46710
 O699 O 0.03443 0.43379 0.56629
 O700 O 0.06391 0.46555 0.53399
 O701 O 0.00089 0.39453 0.44620
 O702 O 0.00106 0.39433 0.55436
 O703 O 0.00078 0.60561 0.55506
 O704 O 0.00109 0.60589 0.44705
 O705 O -0.02166 0.54975 0.50059
 O706 O -0.02164 0.45042 0.50064
 O707 O 0.02102 0.54945 0.50058
 O708 O -0.02284 0.50011 0.45315
 O709 O -0.06426 0.46386 0.46876
 O710 O -0.03463 0.43018 0.43853
 O711 O 0.02265 0.50012 0.45287
 O712 O 0.02261 0.50003 0.54831
 O713 O 0.02102 0.45069 0.50066
 O714 O -0.02291 0.50006 0.54807
 Zr715 Zr -0.00013 0.45336 0.45437
 Zr716 Zr -0.00020 0.54678 0.54688
 Zr717 Zr -0.04281 0.50009 0.50058
 Zr718 Zr -0.00016 0.54690 0.45432
 Zr719 Zr -0.00021 0.45329 0.54695
 Zr720 Zr 0.04239 0.50006 0.50056
 H721 H 0.03110 0.57280 0.50053
 H722 H -0.03395 0.50006 0.43215
 H723 H 0.03111 0.42732 0.50069
 H724 H -0.03405 0.50011 0.56907
 H725 H 0.00056 0.38323 0.47027
 H726 H -0.00433 0.38333 0.53143
 H727 H -0.00455 0.61682 0.46989
 H728 H 0.00094 0.61691 0.53098
 C729 C 0.25037 0.75087 0.86630
 C730 C 0.25035 0.75075 0.63348
 C731 C 0.19232 0.68886 0.80415
 C732 C 0.19214 0.81245 0.80449
 C733 C 0.19228 0.68905 0.69567
 C734 C 0.30711 0.69208 0.69267
 C735 C 0.30706 0.80937 0.69275
 C736 C 0.30715 0.69202 0.80713
 C737 C 0.19225 0.81265 0.69565
 C738 C 0.30712 0.80929 0.80713
 O739 O 0.21512 0.68112 0.68770
 O740 O 0.18554 0.71464 0.71819
 O741 O 0.21511 0.82066 0.68777
 O742 O 0.18553 0.78699 0.71813
 O743 O 0.28429 0.81742 0.81509
 O744 O 0.31373 0.78530 0.78306
 O745 O 0.25000 0.78285 0.64947
 O746 O 0.25003 0.71862 0.64949
 O747 O 0.25000 0.78299 0.85032
 O748 O 0.25004 0.71876 0.85034
 O749 O 0.28429 0.68408 0.68473
 O750 O 0.31375 0.71605 0.71673
 O751 O 0.21516 0.68087 0.81204
 O752 O 0.18557 0.71458 0.78176
 O753 O 0.28432 0.68397 0.81507
 O754 O 0.31378 0.71605 0.78307
 O755 O 0.28426 0.81747 0.68481
 O756 O 0.31371 0.78535 0.71677
 O757 O 0.25075 0.85653 0.80368
 O758 O 0.25055 0.85636 0.69534
 O759 O 0.25076 0.64510 0.69603
 O760 O 0.25060 0.64520 0.80460
 O761 O 0.22818 0.70112 0.74999
 O762 O 0.22812 0.80053 0.74992
 O763 O 0.27083 0.70134 0.74994
 O764 O 0.22697 0.75078 0.79740
 O765 O 0.18549 0.78687 0.78193
 O766 O 0.21500 0.82044 0.81240
 O767 O 0.27246 0.75080 0.79765
 O768 O 0.27247 0.75077 0.70219
 O769 O 0.27080 0.80012 0.74989
 O770 O 0.22696 0.75078 0.70251
 Zr771 Zr 0.24961 0.79760 0.79612
 Zr772 Zr 0.24966 0.70401 0.70374
 Zr773 Zr 0.20704 0.75082 0.74998
 Zr774 Zr 0.24968 0.70402 0.79618
 Zr775 Zr 0.24963 0.79753 0.70369
 Zr776 Zr 0.29218 0.75070 0.74992
 H777 H 0.28085 0.67790 0.74994
 H778 H 0.21585 0.75072 0.81841
 H779 H 0.28082 0.82353 0.74990
 H780 H 0.21585 0.75082 0.68151
 H781 H 0.24570 0.86762 0.78061
 H782 H 0.24993 0.86769 0.71936
 H783 H 0.24964 0.63383 0.78062
 H784 H 0.24621 0.63395 0.71929
 C785 C 0.49903 0.49969 0.38365
 C786 C 0.49888 0.49969 0.61643
 C787 C 0.55732 0.43829 0.44527
 C788 C 0.55723 0.56115 0.44525
 C789 C 0.55716 0.43838 0.55505
 C790 C 0.44233 0.44098 0.55739
 C791 C 0.44230 0.55830 0.55727
 C792 C 0.44239 0.44094 0.44282
 C793 C 0.55717 0.56094 0.55499
 C794 C 0.44236 0.55836 0.44278
 O795 O 0.53430 0.43037 0.56291
 O796 O 0.56390 0.46363 0.53214
 O797 O 0.53430 0.56894 0.56286
 O798 O 0.56390 0.53571 0.53210
 O799 O 0.46519 0.56644 0.43489
 O800 O 0.43569 0.53431 0.46680
 O801 O 0.49923 0.53182 0.60041
 O802 O 0.49925 0.46756 0.60048
 O803 O 0.49938 0.53179 0.39961
 O804 O 0.49939 0.46757 0.39965
 O805 O 0.46516 0.43298 0.56533
 O806 O 0.43568 0.46494 0.53327
 O807 O 0.53446 0.43013 0.43753
 O808 O 0.56399 0.46369 0.46801
 O809 O 0.46523 0.43286 0.43495
 O810 O 0.43571 0.46497 0.46683
 O811 O 0.46512 0.56632 0.56521
 O812 O 0.43566 0.53433 0.53320
 O813 O 0.49907 0.60530 0.44562
 O814 O 0.49867 0.60543 0.55344
 O815 O 0.49871 0.39392 0.55376
 O816 O 0.49914 0.39401 0.44580
 O817 O 0.52137 0.44993 0.50008
 O818 O 0.52134 0.54941 0.50000
 O819 O 0.47863 0.45027 0.50006
 O820 O 0.52249 0.49967 0.45263
 O821 O 0.56395 0.53573 0.46799
 O822 O 0.53437 0.56927 0.43750
 O823 O 0.47702 0.49965 0.45231
 O824 O 0.47695 0.49966 0.54770
 O825 O 0.47859 0.54902 0.49998
 O826 O 0.52239 0.49967 0.54739
 Zr827 Zr 0.49982 0.54644 0.45380
 Zr828 Zr 0.49977 0.45288 0.54626
 Zr829 Zr 0.54245 0.49968 0.50004
 Zr830 Zr 0.49986 0.45287 0.45385
 Zr831 Zr 0.49975 0.54645 0.54618
 Zr832 Zr 0.45722 0.49964 0.50001
 H833 H 0.46862 0.42684 0.50011
 H834 H 0.53357 0.49969 0.43156
 H835 H 0.46857 0.57244 0.50000
 H836 H 0.53342 0.49966 0.56847
 H837 H 0.49865 0.61654 0.46969
 H838 H 0.50453 0.61637 0.53069
 H839 H 0.49919 0.38277 0.46991
 H840 H 0.50438 0.38292 0.53096
 C841 C 0.75034 0.75052 0.86631
 C842 C 0.75024 0.75067 0.63353
 C843 C 0.69223 0.68897 0.80471
 C844 C 0.69197 0.81177 0.80502
 C845 C 0.69210 0.68933 0.69507
 C846 C 0.80696 0.69257 0.69213
 C847 C 0.80688 0.80876 0.69210
 C848 C 0.80702 0.69246 0.80749
 C849 C 0.69210 0.81186 0.69523
 C850 C 0.80695 0.80880 0.80742
 O851 O 0.71496 0.68135 0.68713
 O852 O 0.68540 0.71454 0.71800
 O853 O 0.71493 0.81990 0.68726
 O854 O 0.68540 0.78661 0.71813
 O855 O 0.78413 0.81705 0.81527
 O856 O 0.81356 0.78507 0.78313
 O857 O 0.74986 0.78279 0.64952
 O858 O 0.74992 0.71852 0.64953
 O859 O 0.74996 0.78266 0.85034
 O860 O 0.74997 0.71842 0.85033
 O861 O 0.78414 0.68436 0.68431
 O862 O 0.81357 0.71623 0.71647
 O863 O 0.71509 0.68086 0.81243
 O864 O 0.68547 0.71441 0.78204
 O865 O 0.78421 0.68417 0.81529
 O866 O 0.81363 0.71623 0.78320
 O867 O 0.78406 0.81695 0.68430
 O868 O 0.81353 0.78509 0.71646
 O869 O 0.75024 0.85628 0.80414
 O870 O 0.75066 0.85640 0.69643
 O871 O 0.75072 0.64482 0.69663
 O872 O 0.75046 0.64491 0.80424
 O873 O 0.72800 0.70082 0.75000
 O874 O 0.72792 0.80034 0.74998
 O875 O 0.77076 0.70117 0.74991
 O876 O 0.72688 0.75054 0.79741
 O877 O 0.68532 0.78635 0.78228
 O878 O 0.71484 0.82007 0.81262
 O879 O 0.77228 0.75062 0.79758
 O880 O 0.77225 0.75063 0.70228
 O881 O 0.77069 0.80006 0.74992
 O882 O 0.72687 0.75060 0.70267
 Zr883 Zr 0.74946 0.79741 0.79616
 Zr884 Zr 0.74952 0.70381 0.70376
 Zr885 Zr 0.70689 0.75054 0.75006
 Zr886 Zr 0.74957 0.70378 0.79614
 Zr887 Zr 0.74948 0.79741 0.70377
 Zr888 Zr 0.79202 0.75063 0.74988
 H889 H 0.78087 0.67783 0.74986
 H890 H 0.71582 0.75047 0.81848
 H891 H 0.78076 0.82342 0.74984
 H892 H 0.71581 0.75062 0.68162
 H893 H 0.75052 0.86748 0.78003
 H894 H 0.74468 0.86735 0.71909
 H895 H 0.75110 0.63371 0.78015
 H896 H 0.74458 0.63391 0.71924
 C897 C 0.00149 0.00015 0.22947
 C898 C 0.00174 0.03455 0.21093
 C899 C 0.00168 0.03427 0.17358
 C900 C 0.00132 -0.00012 0.15469
 C901 C 0.00120 -0.03438 0.17385
 C902 C 0.00126 -0.03438 0.21121
 C903 C 0.00135 0.00030 0.26876
 C904 C 0.00100 -0.03409 0.28730
 C905 C 0.00070 -0.03381 0.32464
 C906 C 0.00072 0.00059 0.34354
 C907 C 0.00118 0.03484 0.32438
 C908 C 0.00148 0.03484 0.28702
 C909 C 0.00101 -0.06824 0.23070
 C910 C 0.00088 -0.06810 0.26809
 C911 C 0.00197 0.06855 0.23014
 C912 C 0.00184 0.06870 0.26753
 H913 H 0.00085 -0.09508 0.21694
 H914 H 0.00063 -0.09484 0.28208
 H915 H 0.00219 0.09530 0.21615
 H916 H 0.00197 0.09554 0.28129
 H917 H 0.00182 0.06086 0.15931
 H918 H 0.00097 -0.06105 0.15978
 H919 H 0.00039 -0.06039 0.33892
 H920 H 0.00125 0.06152 0.33845
 C921 C 0.25114 0.24944 1.02125
 C922 C 0.25109 0.28392 1.03954
 C923 C 0.25096 0.28392 1.07690
 C924 C 0.25083 0.24961 1.09636
 C925 C 0.25102 0.21522 1.07709
 C926 C 0.25115 0.21505 1.03973
 C927 C 0.25111 0.24935 0.98194
 C928 C 0.25108 0.21484 0.96363
 C929 C 0.25088 0.21489 0.92627
 C930 C 0.25069 0.24917 0.90714
 C931 C 0.25082 0.28354 0.92608
 C932 C 0.25101 0.28377 0.96343
 C933 C 0.25121 0.18107 1.02047
 C934 C 0.25118 0.18097 0.98308
 C935 C 0.25109 0.31781 1.02007
 C936 C 0.25105 0.31773 0.98268
 H937 H 0.25124 0.15430 1.03441
 H938 H 0.25118 0.15414 0.96929
 H939 H 0.25106 0.34464 1.03386
 H940 H 0.25100 0.34450 0.96873
 H941 H 0.25087 0.31082 1.09062
 H942 H 0.25099 0.18836 1.09094
 H943 H 0.25083 0.18823 0.91217
 H944 H 0.25071 0.31015 0.91183
 C945 C 0.11532 0.11169 0.11665
 C946 C 0.12180 0.08872 0.08765
 C947 C 0.10293 0.07124 0.06787
 C948 C 0.07769 0.07668 0.07685
 C949 C 0.07159 0.09984 0.10613
 C950 C 0.09033 0.11739 0.12610
 C951 C 0.13510 0.13032 0.13741
 C952 C 0.12862 0.15353 0.16624
 C953 C 0.14747 0.17178 0.18546
 C954 C 0.17267 0.16700 0.17596
 C955 C 0.17879 0.14313 0.14721
 C956 C 0.16008 0.12484 0.12780
 C957 C 0.08457 0.14055 0.15532
 C958 C 0.10339 0.15833 0.17504
 C959 C 0.14702 0.08374 0.07898
 C960 C 0.16584 0.10151 0.09871
 H961 H 0.06535 0.14509 0.16293
 H962 H 0.09815 0.17611 0.19727
 H963 H 0.15227 0.06605 0.05669
 H964 H 0.18506 0.09707 0.09102
 H965 H 0.10793 0.05350 0.04549
 H966 H 0.05230 0.10414 0.11353
 H967 H 0.14246 0.18992 0.20755
 H968 H 0.19805 0.13926 0.13947
 C969 C 0.36496 0.36530 0.13488
 C970 C 0.34018 0.36898 0.12359
 C971 C 0.32135 0.35045 0.14257
 C972 C 0.32716 0.32826 0.17262
 C973 C 0.35218 0.32490 0.18351
 C974 C 0.37113 0.34341 0.16476
 C975 C 0.38484 0.38473 0.11500
 C976 C 0.40962 0.38105 0.12628
 C977 C 0.42846 0.39955 0.10727
 C978 C 0.42264 0.42172 0.07721
 C979 C 0.39762 0.42509 0.06633
 C980 C 0.37867 0.40661 0.08511
 C981 C 0.39614 0.34044 0.17529
 C982 C 0.41507 0.35896 0.15637
 C983 C 0.33473 0.39107 0.09351
 C984 C 0.35366 0.40959 0.07458
 H985 H 0.40112 0.32366 0.19834
 H986 H 0.43412 0.35595 0.16535
 H987 H 0.31568 0.39408 0.08452
 H988 H 0.34868 0.42636 0.05153
 H989 H 0.30222 0.35313 0.13377
 H990 H 0.35693 0.30803 0.20663
 H991 H 0.44759 0.39686 0.11606
 H992 H 0.39287 0.44193 0.04321
 C993 C 0.36529 0.13399 0.13483
 C994 C 0.37153 0.15699 0.16389
 C995 C 0.35254 0.17555 0.18263
 C996 C 0.32741 0.17120 0.17254
 C997 C 0.32156 0.14790 0.14327
 C998 C 0.34042 0.12928 0.12433
 C999 C 0.38520 0.11447 0.11498
 C1000 C 0.37897 0.09147 0.08592
 C1001 C 0.39795 0.07292 0.06717
 C1002 C 0.42309 0.07731 0.07722
 C1003 C 0.42894 0.10060 0.10649
 C1004 C 0.41008 0.11919 0.12546
 C1005 C 0.33491 0.10607 0.09506
 C1006 C 0.35386 0.08748 0.07619
 C1007 C 0.39664 0.16097 0.17362
 C1008 C 0.41558 0.14239 0.15474
 H1009 H 0.31580 0.10223 0.08666
 H1010 H 0.34879 0.06984 0.05380
 H1011 H 0.40170 0.17860 0.19602
 H1012 H 0.43470 0.14623 0.16314
 H1013 H 0.35736 0.19328 0.20509
 H1014 H 0.30237 0.14437 0.13506
 H1015 H 0.39311 0.05520 0.04471
 H1016 H 0.44814 0.10414 0.11467
 C1017 C 0.13481 0.36936 0.13777
 C1018 C 0.12845 0.34618 0.16670
 C1019 C 0.14737 0.32790 0.18579
 C1020 C 0.17254 0.33262 0.17607
 C1021 C 0.17855 0.35646 0.14720
 C1022 C 0.15976 0.37477 0.12792
 C1023 C 0.11496 0.38803 0.11716
 C1024 C 0.12133 0.41098 0.08806
 C1025 C 0.10238 0.42853 0.06844
 C1026 C 0.07717 0.42319 0.07767
 C1027 C 0.07119 0.40002 0.10703
 C1028 C 0.09000 0.38241 0.12685
 C1029 C 0.16541 0.39807 0.09872
 C1030 C 0.14652 0.41589 0.07913
 C1031 C 0.10326 0.34144 0.17575
 C1032 C 0.08436 0.35926 0.15616
 H1033 H 0.18459 0.40246 0.09084
 H1034 H 0.15167 0.43355 0.05675
 H1035 H 0.09810 0.32367 0.19806
 H1036 H 0.06517 0.35477 0.16396
 H1037 H 0.14245 0.30979 0.20797
 H1038 H 0.19779 0.36027 0.13929
 H1039 H 0.10731 0.44625 0.04598
 H1040 H 0.05192 0.39580 0.11462
 C1041 C 0.36489 0.13475 0.36473
 C1042 C 0.37114 0.15699 0.33510
 C1043 C 0.35219 0.17532 0.31617
 C1044 C 0.32711 0.17146 0.32664
 C1045 C 0.32122 0.14891 0.35644
 C1046 C 0.34004 0.13055 0.37559
 C1047 C 0.38476 0.11550 0.38478
 C1048 C 0.37851 0.09325 0.41441
 C1049 C 0.39746 0.07492 0.43333
 C1050 C 0.42254 0.07877 0.42286
 C1051 C 0.42843 0.10132 0.39306
 C1052 C 0.40961 0.11970 0.37392
 C1053 C 0.33452 0.10811 0.40543
 C1054 C 0.35343 0.08976 0.42451
 C1055 C 0.39621 0.16049 0.32500
 C1056 C 0.41513 0.14214 0.34408
 H1057 H 0.31542 0.10469 0.41410
 H1058 H 0.34838 0.07270 0.44736
 H1059 H 0.40126 0.17755 0.30215
 H1060 H 0.43423 0.14555 0.33541
 H1061 H 0.35701 0.19247 0.29327
 H1062 H 0.30204 0.14582 0.36492
 H1063 H 0.39264 0.05776 0.45623
 H1064 H 0.44761 0.10440 0.38458
 C1065 C 0.13474 0.36896 0.36167
 C1066 C 0.15973 0.37475 0.37102
 C1067 C 0.17847 0.35648 0.35157
 C1068 C 0.17239 0.33233 0.32302
 C1069 C 0.14716 0.32723 0.31381
 C1070 C 0.12828 0.34545 0.33307
 C1071 C 0.11495 0.38762 0.38245
 C1072 C 0.08995 0.38165 0.37326
 C1073 C 0.07119 0.39926 0.39323
 C1074 C 0.07727 0.42279 0.42225
 C1075 C 0.10252 0.42846 0.43099
 C1076 C 0.12141 0.41092 0.41121
 C1077 C 0.10305 0.34035 0.32453
 C1078 C 0.08421 0.35816 0.34428
 C1079 C 0.16548 0.39839 0.39989
 C1080 C 0.14664 0.41618 0.41963
 H1081 H 0.09781 0.32234 0.30249
 H1082 H 0.06499 0.35339 0.33685
 H1083 H 0.18470 0.40307 0.40738
 H1084 H 0.15188 0.43411 0.44174
 H1085 H 0.19774 0.36063 0.35911
 H1086 H 0.14217 0.30885 0.29189
 H1087 H 0.05189 0.39476 0.38601
 H1088 H 0.10753 0.44647 0.45316
 C1089 C 0.13464 0.13066 0.36090
 C1090 C 0.15956 0.12516 0.37079
 C1091 C 0.17839 0.14327 0.35143
 C1092 C 0.17245 0.16699 0.32249
 C1093 C 0.14731 0.17175 0.31269
 C1094 C 0.12834 0.15369 0.33184
 C1095 C 0.11473 0.11228 0.38163
 C1096 C 0.08980 0.11800 0.37192
 C1097 C 0.07093 0.10067 0.39187
 C1098 C 0.07687 0.07769 0.42136
 C1099 C 0.10205 0.07225 0.43061
 C1100 C 0.12103 0.08950 0.41087
 C1101 C 0.10317 0.15853 0.32277
 C1102 C 0.08422 0.14097 0.34247
 C1103 C 0.16514 0.10203 0.40011
 C1104 C 0.14620 0.08448 0.41981
 H1105 H 0.09808 0.17618 0.30035
 H1106 H 0.06505 0.14552 0.33465
 H1107 H 0.18431 0.09758 0.40801
 H1108 H 0.15129 0.06694 0.44230
 H1109 H 0.19761 0.13943 0.35939
 H1110 H 0.14245 0.18978 0.29042
 H1111 H 0.05168 0.10493 0.38428
 H1112 H 0.10693 0.05465 0.45317
 C1113 C 0.36486 0.36498 0.36475
 C1114 C 0.37115 0.34260 0.33527
 C1115 C 0.35222 0.32421 0.31634
 C1116 C 0.32710 0.32814 0.32666
 C1117 C 0.32119 0.35083 0.35633
 C1118 C 0.33999 0.36926 0.37547
 C1119 C 0.38470 0.38430 0.38481
 C1120 C 0.37841 0.40669 0.41429
 C1121 C 0.39733 0.42508 0.43322
 C1122 C 0.42245 0.42116 0.42291
 C1123 C 0.42838 0.39846 0.39324
 C1124 C 0.40958 0.38003 0.37410
 C1125 C 0.33442 0.39184 0.40516
 C1126 C 0.35330 0.41025 0.42424
 C1127 C 0.39626 0.33905 0.32532
 C1128 C 0.41514 0.35745 0.34440
 H1129 H 0.31530 0.39533 0.41373
 H1130 H 0.34820 0.42741 0.44696
 H1131 H 0.40135 0.32189 0.30259
 H1132 H 0.43426 0.35397 0.33583
 H1133 H 0.35709 0.30695 0.29356
 H1134 H 0.30199 0.35400 0.36471
 H1135 H 0.39246 0.44234 0.45599
 H1136 H 0.44757 0.39530 0.38486
 C1137 C 0.49854 -0.00066 0.23047
 C1138 C 0.49855 0.03371 0.21190
 C1139 C 0.49883 0.03333 0.17463
 C1140 C 0.49916 -0.00113 0.15590
 C1141 C 0.49903 -0.03535 0.17505
 C1142 C 0.49875 -0.03526 0.21233
 C1143 C 0.49845 -0.00041 0.26968
 C1144 C 0.49856 -0.03478 0.28825
 C1145 C 0.49867 -0.03441 0.32552
 C1146 C 0.49872 0.00005 0.34425
 C1147 C 0.49848 0.03427 0.32511
 C1148 C 0.49836 0.03419 0.28783
 C1149 C 0.49875 -0.06909 0.23184
 C1150 C 0.49865 -0.06886 0.26919
 C1151 C 0.49835 0.06778 0.23097
 C1152 C 0.49826 0.06802 0.26832
 H1153 H 0.49888 -0.09597 0.21812
 H1154 H 0.49872 -0.09556 0.28325
 H1155 H 0.49833 0.09448 0.21690
 H1156 H 0.49818 0.09489 0.28204
 H1157 H 0.49888 0.05988 0.16029
 H1158 H 0.49924 -0.06206 0.16103
 H1159 H 0.49881 -0.06096 0.33986
 H1160 H 0.49847 0.06098 0.33914
 C1161 C 0.75192 0.24957 1.02012
 C1162 C 0.75107 0.28404 1.03843
 C1163 C 0.75098 0.28391 1.07572
 C1164 C 0.75167 0.24959 1.09469
 C1165 C 0.75268 0.21527 1.07580
 C1166 C 0.75279 0.21511 1.03852
 C1167 C 0.75177 0.24954 0.98091
 C1168 C 0.75249 0.21506 0.96260
 C1169 C 0.75211 0.21516 0.92532
 C1170 C 0.75098 0.24945 0.90634
 C1171 C 0.75041 0.28380 0.92523
 C1172 C 0.75077 0.28399 0.96250
 C1173 C 0.75363 0.18118 1.01928
 C1174 C 0.75349 0.18115 0.98193
 C1175 C 0.75020 0.31796 1.01910
 C1176 C 0.75005 0.31793 0.98174
 H1177 H 0.75434 0.15442 1.03321
 H1178 H 0.75409 0.15437 0.96808
 H1179 H 0.74955 0.34474 1.03295
 H1180 H 0.74930 0.34469 0.96782
 H1181 H 0.75023 0.31052 1.08986
 H1182 H 0.75329 0.18866 1.09002
 H1183 H 0.75264 0.18854 0.91118
 H1184 H 0.74957 0.31039 0.91101
 C1185 C 0.61563 0.11484 0.11463
 C1186 C 0.62212 0.09086 0.08638
 C1187 C 0.60323 0.07362 0.06642
 C1188 C 0.57795 0.08016 0.07456
 C1189 C 0.57186 0.10470 0.10283
 C1190 C 0.59061 0.12202 0.12297
 C1191 C 0.63543 0.13270 0.13597
 C1192 C 0.62895 0.15669 0.16422
 C1193 C 0.64783 0.17397 0.18415
 C1194 C 0.67311 0.16751 0.17595
 C1195 C 0.67921 0.14293 0.14772
 C1196 C 0.66046 0.12555 0.12762
 C1197 C 0.58485 0.14611 0.15151
 C1198 C 0.60369 0.16317 0.17177
 C1199 C 0.64738 0.08436 0.07885
 C1200 C 0.66622 0.10143 0.09910
 H1201 H 0.56561 0.15183 0.15826
 H1202 H 0.59843 0.18162 0.19349
 H1203 H 0.65263 0.06589 0.05713
 H1204 H 0.68546 0.09571 0.09235
 H1205 H 0.60825 0.05484 0.04481
 H1206 H 0.55255 0.10990 0.10958
 H1207 H 0.64280 0.19275 0.20575
 H1208 H 0.69852 0.13777 0.14094
 C1209 C -0.13478 0.36180 0.13219
 C1210 C -0.15977 0.36752 0.12277
 C1211 C -0.17851 0.34987 0.14273
 C1212 C -0.17242 0.32658 0.17194
 C1213 C -0.14718 0.32114 0.18089
 C1214 C -0.12831 0.33871 0.16114
 C1215 C -0.11500 0.38053 0.11146
 C1216 C -0.09002 0.37503 0.12105
 C1217 C -0.07131 0.39341 0.10167
 C1218 C -0.07741 0.41740 0.07298
 C1219 C -0.10261 0.42220 0.06350
 C1220 C -0.12147 0.40386 0.08268
 C1221 C -0.10309 0.33371 0.16979
 C1222 C -0.08427 0.35158 0.15009
 C1223 C -0.16551 0.39080 0.09361
 C1224 C -0.14669 0.40868 0.07391
 H1225 H -0.09786 0.31594 0.19205
 H1226 H -0.06506 0.34712 0.15775
 H1227 H -0.18473 0.39536 0.08602
 H1228 H -0.15192 0.42656 0.05172
 H1229 H -0.19780 0.35417 0.13535
 H1230 H -0.14218 0.30331 0.20323
 H1231 H -0.05205 0.38952 0.10939
 H1232 H -0.10761 0.44044 0.04145
 C1233 C 0.88538 0.11876 0.11113
 C1234 C 0.91036 0.12441 0.12061
 C1235 C 0.92912 0.10622 0.10111
 C1236 C 0.92306 0.08228 0.07239
 C1237 C 0.89784 0.07733 0.06305
 C1238 C 0.87895 0.09548 0.08235
 C1239 C 0.86556 0.13731 0.13197
 C1240 C 0.84057 0.13147 0.12265
 C1241 C 0.82179 0.14897 0.14268
 C1242 C 0.82784 0.17225 0.17189
 C1243 C 0.85309 0.17781 0.18074
 C1244 C 0.87200 0.16038 0.16090
 C1245 C 0.85372 0.09052 0.07369
 C1246 C 0.83487 0.10822 0.09348
 C1247 C 0.91608 0.14782 0.14966
 C1248 C 0.89723 0.16551 0.16944
 H1249 H 0.84850 0.07268 0.05150
 H1250 H 0.81565 0.10356 0.08596
 H1251 H 0.93529 0.15239 0.15725
 H1252 H 0.90245 0.18326 0.19169
 H1253 H 0.94838 0.11024 0.10875
 H1254 H 0.89287 0.05913 0.04100
 H1255 H 0.80251 0.14456 0.13536
 H1256 H 0.85808 0.19563 0.20306
 C1257 C 0.63507 0.36557 0.13582
 C1258 C 0.62868 0.34211 0.16454
 C1259 C 0.64762 0.32473 0.18435
 C1260 C 0.67287 0.33062 0.17559
 C1261 C 0.67888 0.35463 0.14684
 C1262 C 0.66006 0.37208 0.12685
 C1263 C 0.61520 0.38358 0.11465
 C1264 C 0.62159 0.40704 0.08593
 C1265 C 0.60265 0.42443 0.06613
 C1266 C 0.57740 0.41856 0.07490
 C1267 C 0.57139 0.39453 0.10364
 C1268 C 0.59021 0.37707 0.12363
 C1269 C 0.66573 0.39567 0.09785
 C1270 C 0.64683 0.41287 0.07776
 C1271 C 0.60344 0.33628 0.17271
 C1272 C 0.58454 0.35347 0.15262
 H1273 H 0.68495 0.40088 0.09061
 H1274 H 0.65202 0.43090 0.05566
 H1275 H 0.59825 0.31824 0.19481
 H1276 H 0.56532 0.34826 0.15986
 H1277 H 0.64266 0.30640 0.20635
 H1278 H 0.69816 0.35933 0.13961
 H1279 H 0.60761 0.44277 0.04414
 H1280 H 0.55210 0.38984 0.11088
 C1281 C -0.13571 0.13839 0.36699
 C1282 C -0.12933 0.16360 0.33967
 C1283 C -0.14825 0.18117 0.31998
 C1284 C -0.17370 0.17372 0.32723
 C1285 C -0.17954 0.14805 0.35501
 C1286 C -0.16069 0.13049 0.37486
 C1287 C -0.11583 0.11973 0.38765
 C1288 C -0.12222 0.09435 0.41488
 C1289 C -0.10326 0.07620 0.43404
 C1290 C -0.07799 0.08313 0.42606
 C1291 C -0.07200 0.10910 0.39886
 C1292 C -0.09083 0.12739 0.37957
 C1293 C -0.16635 0.10510 0.40249
 C1294 C -0.14745 0.08735 0.42215
 C1295 C -0.10408 0.17074 0.33251
 C1296 C -0.08517 0.15292 0.35209
 H1297 H -0.18557 0.09880 0.40892
 H1298 H -0.15264 0.06786 0.44312
 H1299 H -0.09888 0.19018 0.31150
 H1300 H -0.06595 0.15910 0.34557
 H1301 H -0.14297 0.20064 0.29900
 H1302 H -0.19875 0.14166 0.36151
 H1303 H -0.10822 0.05639 0.45487
 H1304 H -0.05271 0.11474 0.39230
 C1305 C 0.63501 0.36543 0.36467
 C1306 C 0.65999 0.37206 0.37356
 C1307 C 0.67883 0.35471 0.35354
 C1308 C 0.67285 0.33068 0.32486
 C1309 C 0.64762 0.32470 0.31616
 C1310 C 0.62865 0.34197 0.33599
 C1311 C 0.61512 0.38329 0.38589
 C1312 C 0.59013 0.37667 0.37699
 C1313 C 0.57129 0.39403 0.39700
 C1314 C 0.57727 0.41807 0.42568
 C1315 C 0.60251 0.42404 0.43438
 C1316 C 0.62148 0.40676 0.41456
 C1317 C 0.60342 0.33601 0.32791
 C1318 C 0.58450 0.35308 0.34804
 C1319 C 0.66563 0.39564 0.40251
 C1320 C 0.64670 0.41271 0.42265
 H1321 H 0.59826 0.31797 0.30585
 H1322 H 0.56529 0.34779 0.34087
 H1323 H 0.68484 0.40094 0.40969
 H1324 H 0.65187 0.43075 0.44471
 H1325 H 0.69811 0.35947 0.36072
 H1326 H 0.64268 0.30634 0.29421
 H1327 H 0.55202 0.38928 0.38982
 H1328 H 0.60745 0.44240 0.45634
 C1329 C 0.63514 0.13356 0.36475
 C1330 C 0.66008 0.12740 0.37420
 C1331 C 0.67897 0.14447 0.35412
 C1332 C 0.67306 0.16777 0.32486
 C1333 C 0.64789 0.17326 0.31556
 C1334 C 0.62887 0.15626 0.33545
 C1335 C 0.61519 0.11603 0.38603
 C1336 C 0.59025 0.12220 0.37658
 C1337 C 0.57136 0.10512 0.39664
 C1338 C 0.57726 0.08178 0.42587
 C1339 C 0.60243 0.07629 0.43518
 C1340 C 0.62145 0.09332 0.41533
 C1341 C 0.60370 0.16179 0.32680
 C1342 C 0.58471 0.14503 0.34702
 C1343 C 0.66562 0.10458 0.40377
 C1344 C 0.64663 0.08780 0.42398
 H1345 H 0.59864 0.17925 0.30424
 H1346 H 0.56553 0.14994 0.33942
 H1347 H 0.68480 0.09967 0.41137
 H1348 H 0.65169 0.07034 0.44653
 H1349 H 0.69822 0.14014 0.36172
 H1350 H 0.64304 0.19105 0.29312
 H1351 H 0.55211 0.10945 0.38902
 H1352 H 0.60727 0.05848 0.45762
 C1353 C -0.13473 0.36158 0.36841
 C1354 C -0.12826 0.33813 0.33976
 C1355 C -0.14713 0.32060 0.32004
 C1356 C -0.17238 0.32644 0.32873
 C1357 C -0.17848 0.35007 0.35767
 C1358 C -0.15973 0.36769 0.37758
 C1359 C -0.11495 0.38028 0.38909
 C1360 C -0.12142 0.40397 0.41757
 C1361 C -0.10255 0.42228 0.43670
 C1362 C -0.07733 0.41711 0.42745
 C1363 C -0.07123 0.39277 0.39905
 C1364 C -0.08995 0.37440 0.37974
 C1365 C -0.16549 0.39132 0.40646
 C1366 C -0.14665 0.40917 0.42611
 C1367 C -0.10302 0.33275 0.33135
 C1368 C -0.08419 0.35059 0.35099
 H1369 H -0.18471 0.39618 0.41386
 H1370 H -0.15190 0.42732 0.44807
 H1371 H -0.09778 0.31469 0.30932
 H1372 H -0.06497 0.34583 0.34352
 H1373 H -0.14211 0.30248 0.29793
 H1374 H -0.19779 0.35469 0.36485
 H1375 H -0.10756 0.44079 0.45851
 H1376 H -0.05195 0.38858 0.39151
 C1377 C 0.00110 0.50044 0.23041
 C1378 C 0.00088 0.53493 0.21202
 C1379 C 0.00070 0.53482 0.17467
 C1380 C 0.00069 0.50051 0.15566
 C1381 C 0.00102 0.46617 0.17468
 C1382 C 0.00121 0.46599 0.21202
 C1383 C 0.00113 0.50040 0.26970
 C1384 C 0.00127 0.46591 0.28809
 C1385 C 0.00113 0.46601 0.32544
 C1386 C 0.00082 0.50032 0.34446
 C1387 C 0.00080 0.53467 0.32544
 C1388 C 0.00094 0.53485 0.28809
 C1389 C 0.00144 0.43204 0.23136
 C1390 C 0.00146 0.43200 0.26875
 C1391 C 0.00078 0.56884 0.23136
 C1392 C 0.00081 0.56880 0.26875
 H1393 H 0.00154 0.40526 0.21749
 H1394 H 0.00159 0.40519 0.28263
 H1395 H 0.00063 0.59565 0.21748
 H1396 H 0.00068 0.59558 0.28262
 H1397 H 0.00048 0.56147 0.16049
 H1398 H 0.00107 0.43955 0.16051
 H1399 H 0.00119 0.43936 0.33962
 H1400 H 0.00061 0.56128 0.33961
 C1401 C 0.25163 0.75081 1.01941
 C1402 C 0.25125 0.78529 1.03775
 C1403 C 0.25113 0.78512 1.07502
 C1404 C 0.25134 0.75078 1.09397
 C1405 C 0.25185 0.71645 1.07507
 C1406 C 0.25198 0.71632 1.03779
 C1407 C 0.25153 0.75082 0.98022
 C1408 C 0.25179 0.71634 0.96188
 C1409 C 0.25150 0.71650 0.92460
 C1410 C 0.25092 0.75085 0.90566
 C1411 C 0.25080 0.78518 0.92457
 C1412 C 0.25108 0.78531 0.96184
 C1413 C 0.25234 0.68238 1.01853
 C1414 C 0.25225 0.68239 0.98118
 C1415 C 0.25090 0.81924 1.01845
 C1416 C 0.25081 0.81926 0.98110
 H1417 H 0.25264 0.65559 1.03243
 H1418 H 0.25248 0.65561 0.96730
 H1419 H 0.25062 0.84602 1.03233
 H1420 H 0.25048 0.84605 0.96720
 H1421 H 0.25076 0.81174 1.08918
 H1422 H 0.25207 0.68982 1.08927
 H1423 H 0.25166 0.68988 0.91043
 H1424 H 0.25039 0.81181 0.91038
 C1425 C 0.11497 0.61318 0.11698
 C1426 C 0.12136 0.58984 0.08821
 C1427 C 0.10241 0.57221 0.06864
 C1428 C 0.07717 0.57783 0.07760
 C1429 C 0.07118 0.60140 0.10664
 C1430 C 0.08999 0.61911 0.12640
 C1431 C 0.13483 0.63192 0.13756
 C1432 C 0.12845 0.65546 0.16619
 C1433 C 0.14738 0.67371 0.18529
 C1434 C 0.17260 0.66861 0.17590
 C1435 C 0.17860 0.64446 0.14730
 C1436 C 0.15980 0.62616 0.12800
 C1437 C 0.08434 0.64266 0.15539
 C1438 C 0.10323 0.66053 0.17493
 C1439 C 0.14657 0.58463 0.07957
 C1440 C 0.16546 0.60248 0.09911
 H1441 H 0.06514 0.64741 0.16299
 H1442 H 0.09805 0.67857 0.19700
 H1443 H 0.15176 0.56666 0.05744
 H1444 H 0.18466 0.59781 0.09145
 H1445 H 0.10737 0.55417 0.04645
 H1446 H 0.05190 0.60589 0.11403
 H1447 H 0.14243 0.69208 0.20724
 H1448 H 0.19786 0.64031 0.13963
 C1449 C 0.38623 0.88504 0.11443
 C1450 C 0.41118 0.87741 0.12273
 C1451 C 0.43018 0.89571 0.10362
 C1452 C 0.42451 0.92188 0.07618
 C1453 C 0.39907 0.92898 0.06847
 C1454 C 0.38002 0.91067 0.08739
 C1455 C 0.36620 0.86581 0.13446
 C1456 C 0.34124 0.87339 0.12609
 C1457 C 0.32226 0.85501 0.14515
 C1458 C 0.32807 0.82912 0.17252
 C1459 C 0.35332 0.82197 0.18050
 C1460 C 0.37241 0.84021 0.16157
 C1461 C 0.35479 0.91753 0.07979
 C1462 C 0.33576 0.89921 0.09876
 C1463 C 0.41665 0.85159 0.15009
 C1464 C 0.39762 0.83334 0.16915
 H1465 H 0.34971 0.93724 0.05896
 H1466 H 0.31658 0.90533 0.09198
 H1467 H 0.43583 0.84543 0.15684
 H1468 H 0.40270 0.81366 0.19001
 H1469 H 0.44935 0.88951 0.11044
 H1470 H 0.39388 0.94875 0.04769
 H1471 H 0.30301 0.86082 0.13855
 H1472 H 0.35818 0.80219 0.20140
 C1473 C 0.36503 0.63514 0.13478
 C1474 C 0.37130 0.65747 0.16429
 C1475 C 0.35239 0.67597 0.18313
 C1476 C 0.32730 0.67220 0.17269
 C1477 C 0.32139 0.64959 0.14300
 C1478 C 0.34018 0.63104 0.12394
 C1479 C 0.38487 0.61568 0.11484
 C1480 C 0.37859 0.59334 0.08533
 C1481 C 0.39752 0.57482 0.06652
 C1482 C 0.42260 0.57857 0.07698
 C1483 C 0.42850 0.60120 0.10666
 C1484 C 0.40971 0.61977 0.12569
 C1485 C 0.33463 0.60852 0.09422
 C1486 C 0.35352 0.58997 0.07524
 C1487 C 0.39638 0.66085 0.17437
 C1488 C 0.41526 0.64231 0.15540
 H1489 H 0.31553 0.60519 0.08557
 H1490 H 0.34845 0.57285 0.05249
 H1491 H 0.40145 0.67798 0.19712
 H1492 H 0.43437 0.64564 0.16405
 H1493 H 0.35723 0.69318 0.20594
 H1494 H 0.30221 0.64657 0.13453
 H1495 H 0.39268 0.55761 0.04370
 H1496 H 0.44768 0.60422 0.11513
 C1497 C 0.11550 0.88848 0.11686
 C1498 C 0.12187 0.91120 0.08760
 C1499 C 0.10292 0.92839 0.06774
 C1500 C 0.07772 0.92293 0.07690
 C1501 C 0.07172 0.90001 0.10641
 C1502 C 0.09053 0.88275 0.12647
 C1503 C 0.13535 0.87016 0.13771
 C1504 C 0.12897 0.84720 0.16680
 C1505 C 0.14789 0.82919 0.18606
 C1506 C 0.17306 0.83392 0.17636
 C1507 C 0.17909 0.85759 0.14740
 C1508 C 0.16030 0.87566 0.12793
 C1509 C 0.08489 0.85985 0.15595
 C1510 C 0.10379 0.84235 0.17577
 C1511 C 0.14706 0.91622 0.07876
 C1512 C 0.16596 0.89873 0.09858
 H1513 H 0.06569 0.85529 0.16369
 H1514 H 0.09863 0.82475 0.19820
 H1515 H 0.15221 0.93372 0.05626
 H1516 H 0.18515 0.90318 0.09076
 H1517 H 0.10785 0.94595 0.04517
 H1518 H 0.05245 0.89572 0.11394
 H1519 H 0.14296 0.81120 0.20834
 H1520 H 0.19833 0.86140 0.13952
 C1521 C 0.36493 0.63487 0.36486
 C1522 C 0.37126 0.65734 0.33542
 C1523 C 0.35237 0.67590 0.31654
 C1524 C 0.32725 0.67205 0.32687
 C1525 C 0.32129 0.64928 0.35650
 C1526 C 0.34006 0.63068 0.37560
 C1527 C 0.38474 0.61536 0.38486
 C1528 C 0.37842 0.59290 0.41431
 C1529 C 0.39732 0.57435 0.43320
 C1530 C 0.42244 0.57822 0.42288
 C1531 C 0.42839 0.60098 0.39323
 C1532 C 0.40962 0.61956 0.37413
 C1533 C 0.33446 0.60801 0.40525
 C1534 C 0.35331 0.58943 0.42428
 C1535 C 0.39637 0.66081 0.32545
 C1536 C 0.41522 0.64223 0.34447
 H1537 H 0.31533 0.60459 0.41383
 H1538 H 0.34819 0.57220 0.44698
 H1539 H 0.40149 0.67803 0.30275
 H1540 H 0.43435 0.64565 0.33590
 H1541 H 0.35726 0.69321 0.29378
 H1542 H 0.30209 0.64617 0.36489
 H1543 H 0.39243 0.55704 0.45597
 H1544 H 0.44759 0.60410 0.38485
 C1545 C 0.13486 -0.12983 0.36135
 C1546 C 0.15980 -0.12428 0.37112
 C1547 C 0.17862 -0.14252 0.35182
 C1548 C 0.17267 -0.16640 0.32303
 C1549 C 0.14750 -0.17124 0.31339
 C1550 C 0.12854 -0.15305 0.33248
 C1551 C 0.11496 -0.11124 0.38198
 C1552 C 0.09001 -0.11700 0.37238
 C1553 C 0.07115 -0.09948 0.39222
 C1554 C 0.07709 -0.07627 0.42151
 C1555 C 0.10230 -0.07079 0.43065
 C1556 C 0.12128 -0.08824 0.41100
 C1557 C 0.10336 -0.15792 0.32353
 C1558 C 0.08442 -0.14019 0.34313
 C1559 C 0.16539 -0.10093 0.40025
 C1560 C 0.14646 -0.08320 0.41984
 H1561 H 0.09823 -0.17572 0.30127
 H1562 H 0.06524 -0.14479 0.33539
 H1563 H 0.18457 -0.09643 0.40806
 H1564 H 0.15158 -0.06549 0.44216
 H1565 H 0.19786 -0.13859 0.35967
 H1566 H 0.14260 -0.18939 0.29126
 H1567 H 0.05190 -0.10381 0.38470
 H1568 H 0.10719 -0.05302 0.45305
 C1569 C 0.13484 0.63142 0.36170
 C1570 C 0.15983 0.62553 0.37106
 C1571 C 0.17859 0.64387 0.35168
 C1572 C 0.17255 0.66820 0.32319
 C1573 C 0.14732 0.67341 0.31398
 C1574 C 0.12841 0.65512 0.33317
 C1575 C 0.11501 0.61268 0.38241
 C1576 C 0.09002 0.61876 0.37321
 C1577 C 0.07123 0.60107 0.39311
 C1578 C 0.07728 0.57738 0.42208
 C1579 C 0.10253 0.57161 0.43081
 C1580 C 0.12144 0.58921 0.41110
 C1581 C 0.10319 0.66031 0.32463
 C1582 C 0.08432 0.64243 0.34429
 C1583 C 0.16553 0.60172 0.39986
 C1584 C 0.14667 0.58386 0.41953
 H1585 H 0.09797 0.67847 0.30264
 H1586 H 0.06510 0.64729 0.33686
 H1587 H 0.18475 0.59695 0.40736
 H1588 H 0.15189 0.56580 0.44159
 H1589 H 0.19786 0.63964 0.35922
 H1590 H 0.14235 0.69192 0.29212
 H1591 H 0.05194 0.60567 0.38589
 H1592 H 0.10752 0.55348 0.45295
 C1593 C 0.36504 -0.13436 0.36506
 C1594 C 0.37134 -0.15675 0.33559
 C1595 C 0.35243 -0.17513 0.31668
 C1596 C 0.32733 -0.17117 0.32700
 C1597 C 0.32139 -0.14851 0.35667
 C1598 C 0.34017 -0.13009 0.37580
 C1599 C 0.38486 -0.11501 0.38506
 C1600 C 0.37855 -0.09261 0.41453
 C1601 C 0.39746 -0.07418 0.43339
 C1602 C 0.42256 -0.07809 0.42302
 C1603 C 0.42850 -0.10079 0.39339
 C1604 C 0.40972 -0.11927 0.37431
 C1605 C 0.33459 -0.10751 0.40548
 C1606 C 0.35346 -0.08907 0.42452
 C1607 C 0.39644 -0.16031 0.32561
 C1608 C 0.41531 -0.14187 0.34464
 H1609 H 0.31546 -0.10404 0.41405
 H1610 H 0.34837 -0.07190 0.44723
 H1611 H 0.40153 -0.17748 0.30289
 H1612 H 0.43443 -0.14533 0.33606
 H1613 H 0.35730 -0.19238 0.29389
 H1614 H 0.30219 -0.14534 0.36505
 H1615 H 0.39260 -0.05691 0.45616
 H1616 H 0.44769 -0.10392 0.38498
 C1617 C 0.49799 0.49981 0.23046
 C1618 C 0.49820 0.53430 0.21208
 C1619 C 0.49841 0.53418 0.17480
 C1620 C 0.49847 0.49985 0.15587
 C1621 C 0.49811 0.46550 0.17483
 C1622 C 0.49790 0.46533 0.21211
 C1623 C 0.49800 0.49978 0.26967
 C1624 C 0.49791 0.46528 0.28805
 C1625 C 0.49814 0.46539 0.32533
 C1626 C 0.49849 0.49972 0.34426
 C1627 C 0.49844 0.53407 0.32531
 C1628 C 0.49821 0.53425 0.28802
 C1629 C 0.49769 0.43137 0.23141
 C1630 C 0.49770 0.43134 0.26877
 C1631 C 0.49830 0.56824 0.23136
 C1632 C 0.49831 0.56821 0.26872
 H1633 H 0.49760 0.40459 0.21753
 H1634 H 0.49761 0.40454 0.28266
 H1635 H 0.49844 0.59504 0.21747
 H1636 H 0.49845 0.59499 0.28260
 H1637 H 0.49864 0.56082 0.16061
 H1638 H 0.49810 0.43888 0.16066
 H1639 H 0.49813 0.43875 0.33952
 H1640 H 0.49866 0.56069 0.33948
 C1641 C 0.75157 0.75055 1.01947
 C1642 C 0.75239 0.78503 1.03777
 C1643 C 0.75218 0.78492 1.07505
 C1644 C 0.75112 0.75063 1.09405
 C1645 C 0.75046 0.71629 1.07517
 C1646 C 0.75065 0.71610 1.03789
 C1647 C 0.75152 0.75052 0.98026
 C1648 C 0.75057 0.71605 0.96196
 C1649 C 0.75031 0.71618 0.92467
 C1650 C 0.75093 0.75050 0.90569
 C1651 C 0.75202 0.78481 0.92457
 C1652 C 0.75231 0.78497 0.96185
 C1653 C 0.74982 0.68216 1.01865
 C1654 C 0.74978 0.68213 0.98130
 C1655 C 0.75330 0.81893 1.01843
 C1656 C 0.75326 0.81891 0.98108
 H1657 H 0.74913 0.65540 1.03259
 H1658 H 0.74906 0.65536 0.96745
 H1659 H 0.75397 0.84571 1.03228
 H1660 H 0.75390 0.84567 0.96714
 H1661 H 0.75277 0.81155 1.08919
 H1662 H 0.74968 0.68969 1.08939
 H1663 H 0.74949 0.68957 0.91053
 H1664 H 0.75259 0.81142 0.91035
 C1665 C 0.61496 0.61640 0.11427
 C1666 C 0.62141 0.59288 0.08566
 C1667 C 0.60251 0.57562 0.06577
 C1668 C 0.57725 0.58166 0.07438
 C1669 C 0.57118 0.60577 0.10297
 C1670 C 0.58996 0.62311 0.12304
 C1671 C 0.63478 0.63422 0.13557
 C1672 C 0.62833 0.65773 0.16418
 C1673 C 0.64724 0.67497 0.18408
 C1674 C 0.67249 0.66890 0.17550
 C1675 C 0.67857 0.64481 0.14690
 C1676 C 0.65979 0.62750 0.12681
 C1677 C 0.58423 0.64675 0.15192
 C1678 C 0.60309 0.66379 0.17213
 C1679 C 0.64666 0.58684 0.07770
 C1680 C 0.66552 0.60387 0.09791
 H1681 H 0.56500 0.65211 0.15899
 H1682 H 0.59787 0.68188 0.19415
 H1683 H 0.65188 0.56875 0.05568
 H1684 H 0.68475 0.59852 0.09084
 H1685 H 0.60750 0.55721 0.04387
 H1686 H 0.55189 0.61058 0.11006
 H1687 H 0.64225 0.69338 0.20598
 H1688 H 0.69786 0.64000 0.13981
 C1689 C 0.88507 0.88090 0.11078
 C1690 C 0.91000 0.87544 0.12068
 C1691 C 0.92886 0.89356 0.10130
 C1692 C 0.92295 0.91724 0.07228
 C1693 C 0.89778 0.92200 0.06253
 C1694 C 0.87879 0.90392 0.08170
 C1695 C 0.86514 0.86243 0.13149
 C1696 C 0.84020 0.86808 0.12175
 C1697 C 0.82131 0.85065 0.14166
 C1698 C 0.82721 0.82764 0.17116
 C1699 C 0.85242 0.82228 0.18042
 C1700 C 0.87142 0.83963 0.16071
 C1701 C 0.85361 0.90870 0.07262
 C1702 C 0.83465 0.89107 0.09229
 C1703 C 0.91555 0.85230 0.15002
 C1704 C 0.89659 0.83469 0.16968
 H1705 H 0.84852 0.92633 0.05020
 H1706 H 0.81548 0.89558 0.08443
 H1707 H 0.93472 0.84787 0.15794
 H1708 H 0.90169 0.81714 0.19217
 H1709 H 0.94808 0.88970 0.10925
 H1710 H 0.89292 0.93999 0.04024
 H1711 H 0.80206 0.85489 0.13404
 H1712 H 0.85730 0.80467 0.20298
 C1713 C 0.88474 0.61962 0.11135
 C1714 C 0.90969 0.62514 0.12104
 C1715 C 0.92846 0.60687 0.10170
 C1716 C 0.92244 0.58299 0.07295
 C1717 C 0.89726 0.57816 0.06337
 C1718 C 0.87835 0.59638 0.08252
 C1719 C 0.86490 0.63825 0.13202
 C1720 C 0.83993 0.63253 0.12250
 C1721 C 0.82113 0.65011 0.14238
 C1722 C 0.82715 0.67334 0.17162
 C1723 C 0.85237 0.67877 0.18068
 C1724 C 0.87129 0.66126 0.16101
 C1725 C 0.85315 0.59154 0.07364
 C1726 C 0.83427 0.60932 0.09329
 C1727 C 0.91537 0.64849 0.15013
 C1728 C 0.89649 0.66627 0.16977
 H1729 H 0.84798 0.57374 0.05141
 H1730 H 0.81507 0.60476 0.08562
 H1731 H 0.93456 0.65296 0.15787
 H1732 H 0.90166 0.68398 0.19207
 H1733 H 0.94771 0.61078 0.10949
 H1734 H 0.89233 0.56000 0.04127
 H1735 H 0.80186 0.64582 0.13492
 H1736 H 0.85731 0.69655 0.20305
 C1737 C 0.61451 0.88422 0.11351
 C1738 C 0.62088 0.90988 0.08657
 C1739 C 0.60196 0.92719 0.06666
 C1740 C 0.57652 0.91924 0.07351
 C1741 C 0.57070 0.89268 0.10053
 C1742 C 0.58955 0.87536 0.12059
 C1743 C 0.63437 0.86635 0.13483
 C1744 C 0.62799 0.84071 0.16183
 C1745 C 0.64694 0.82354 0.18180
 C1746 C 0.67219 0.83169 0.17484
 C1747 C 0.67818 0.85782 0.14778
 C1748 C 0.65935 0.87516 0.12769
 C1749 C 0.58390 0.84955 0.14787
 C1750 C 0.60278 0.83253 0.16813
 C1751 C 0.64611 0.91800 0.08022
 C1752 C 0.66500 0.90092 0.10040
 H1753 H 0.56471 0.84247 0.15366
 H1754 H 0.59760 0.81277 0.18888
 H1755 H 0.65130 0.93778 0.05949
 H1756 H 0.68420 0.90795 0.09458
 H1757 H 0.60724 0.94719 0.04613
 H1758 H 0.55150 0.88574 0.10657
 H1759 H 0.64197 0.80350 0.20244
 H1760 H 0.69746 0.86434 0.14197
 C1761 C -0.13504 0.63820 0.36783
 C1762 C -0.12865 0.66123 0.33880
 C1763 C -0.14757 0.67881 0.31914
 C1764 C -0.17281 0.67343 0.32825
 C1765 C -0.17882 0.65019 0.35756
 C1766 C -0.16001 0.63254 0.37742
 C1767 C -0.11520 0.61948 0.38848
 C1768 C -0.12159 0.59623 0.41735
 C1769 C -0.10267 0.57794 0.43649
 C1770 C -0.07747 0.58273 0.42689
 C1771 C -0.07146 0.60662 0.39807
 C1772 C -0.09023 0.62494 0.37873
 C1773 C -0.16567 0.60931 0.40667
 C1774 C -0.14679 0.59145 0.42629
 C1775 C -0.10344 0.66617 0.32998
 C1776 C -0.08456 0.64833 0.34959
 H1777 H -0.18487 0.60478 0.41441
 H1778 H -0.15198 0.57364 0.44855
 H1779 H -0.09825 0.68389 0.30765
 H1780 H -0.06537 0.65276 0.34179
 H1781 H -0.14262 0.69659 0.29673
 H1782 H -0.19809 0.64592 0.36507
 H1783 H -0.10762 0.55979 0.45863
 H1784 H -0.05221 0.61051 0.39023
 C1785 C 0.63474 -0.13339 0.36426
 C1786 C 0.65974 -0.12666 0.37299
 C1787 C 0.67852 -0.14384 0.35280
 C1788 C 0.67246 -0.16782 0.32413
 C1789 C 0.64723 -0.17389 0.31556
 C1790 C 0.62831 -0.15679 0.33556
 C1791 C 0.61491 -0.11574 0.38568
 C1792 C 0.58991 -0.12247 0.37694
 C1793 C 0.57113 -0.10528 0.39711
 C1794 C 0.57718 -0.08128 0.42577
 C1795 C 0.60241 -0.07522 0.43436
 C1796 C 0.62133 -0.09234 0.41437
 C1797 C 0.60308 -0.16287 0.32764
 C1798 C 0.58420 -0.14598 0.34797
 C1799 C 0.66545 -0.10316 0.40197
 C1800 C 0.64657 -0.08627 0.42230
 H1801 H 0.59788 -0.18087 0.30556
 H1802 H 0.56497 -0.15134 0.34093
 H1803 H 0.68467 -0.09779 0.40901
 H1804 H 0.65177 -0.06828 0.44438
 H1805 H 0.69781 -0.13903 0.35986
 H1806 H 0.64225 -0.19223 0.29361
 H1807 H 0.55183 -0.11008 0.39004
 H1808 H 0.60738 -0.05689 0.45632
 C1809 C 0.63470 0.63437 0.36456
 C1810 C 0.65970 0.62790 0.37350
 C1811 C 0.67848 0.64529 0.35342
 C1812 C 0.67244 0.66921 0.32464
 C1813 C 0.64719 0.67505 0.31590
 C1814 C 0.62827 0.65773 0.33579
 C1815 C 0.61486 0.61642 0.38582
 C1816 C 0.58987 0.62288 0.37687
 C1817 C 0.57108 0.60543 0.39691
 C1818 C 0.57713 0.58146 0.42565
 C1819 C 0.60237 0.57566 0.43442
 C1820 C 0.62129 0.59304 0.41458
 C1821 C 0.60304 0.66353 0.32766
 C1822 C 0.58416 0.64638 0.34785
 C1823 C 0.66540 0.60441 0.40253
 C1824 C 0.64653 0.58726 0.42271
 H1825 H 0.59783 0.68149 0.30553
 H1826 H 0.56494 0.65154 0.34064
 H1827 H 0.68463 0.59924 0.40974
 H1828 H 0.65173 0.56928 0.44484
 H1829 H 0.69777 0.64064 0.36062
 H1830 H 0.64222 0.69332 0.29387
 H1831 H 0.55179 0.61005 0.38969
 H1832 H 0.60735 0.55736 0.45644
 C1833 C -0.13515 -0.13720 0.36740
 C1834 C -0.12876 -0.16012 0.33833
 C1835 C -0.14768 -0.17756 0.31866
 C1836 C -0.17289 -0.17216 0.32782
 C1837 C -0.17891 -0.14903 0.35713
 C1838 C -0.16012 -0.13151 0.37701
 C1839 C -0.11531 -0.11863 0.38807
 C1840 C -0.12170 -0.09549 0.41698
 C1841 C -0.10280 -0.07730 0.43610
 C1842 C -0.07762 -0.08208 0.42644
 C1843 C -0.07159 -0.10589 0.39762
 C1844 C -0.09036 -0.12412 0.37829
 C1845 C -0.16578 -0.10840 0.40630
 C1846 C -0.14690 -0.09068 0.42594
 C1847 C -0.10356 -0.16510 0.32949
 C1848 C -0.08468 -0.14738 0.34913
 H1849 H -0.18498 -0.10387 0.41404
 H1850 H -0.15207 -0.07294 0.44823
 H1851 H -0.09839 -0.18274 0.30713
 H1852 H -0.06549 -0.15182 0.34132
 H1853 H -0.14273 -0.19527 0.29623
 H1854 H -0.19819 -0.14478 0.36466
 H1855 H -0.10773 -0.05920 0.45826
 H1856 H -0.05234 -0.10975 0.38976
 C1857 C 0.00094 0.00017 0.77021
 C1858 C 0.00096 0.03455 0.78866
 C1859 C 0.00094 0.03435 0.82603
 C1860 C 0.00086 -0.00006 0.84536
 C1861 C 0.00094 -0.03434 0.82592
 C1862 C 0.00096 -0.03431 0.78854
 C1863 C 0.00082 0.00030 0.73088
 C1864 C 0.00074 -0.03410 0.71241
 C1865 C 0.00050 -0.03385 0.67504
 C1866 C 0.00033 0.00053 0.65604
 C1867 C 0.00050 0.03479 0.67515
 C1868 C 0.00073 0.03481 0.71253
 C1869 C 0.00095 -0.06819 0.76911
 C1870 C 0.00084 -0.06808 0.73171
 C1871 C 0.00094 0.06854 0.76934
 C1872 C 0.00082 0.06867 0.73195
 H1873 H 0.00099 -0.09503 0.78292
 H1874 H 0.00079 -0.09484 0.71779
 H1875 H 0.00097 0.09530 0.78325
 H1876 H 0.00077 0.09551 0.71813
 H1877 H 0.00092 0.06119 0.83985
 H1878 H 0.00093 -0.06126 0.83967
 H1879 H 0.00042 -0.06044 0.66083
 H1880 H 0.00040 0.06147 0.66102
 C1881 C 0.25106 0.24956 0.48050
 C1882 C 0.25096 0.28407 0.46213
 C1883 C 0.25077 0.28401 0.42477
 C1884 C 0.25066 0.24972 0.40570
 C1885 C 0.25087 0.21536 0.42471
 C1886 C 0.25105 0.21513 0.46207
 C1887 C 0.25109 0.24947 0.51981
 C1888 C 0.25111 0.21497 0.53818
 C1889 C 0.25097 0.21503 0.57554
 C1890 C 0.25078 0.24931 0.59461
 C1891 C 0.25088 0.28368 0.57560
 C1892 C 0.25101 0.28390 0.53824
 C1893 C 0.25116 0.18116 0.48139
 C1894 C 0.25118 0.18108 0.51879
 C1895 C 0.25096 0.31795 0.48152
 C1896 C 0.25099 0.31787 0.51892
 H1897 H 0.25117 0.15440 0.46749
 H1898 H 0.25122 0.15426 0.53264
 H1899 H 0.25090 0.34478 0.46767
 H1900 H 0.25095 0.34464 0.53282
 H1901 H 0.25066 0.31067 0.41062
 H1902 H 0.25083 0.18875 0.41052
 H1903 H 0.25094 0.18837 0.58969
 H1904 H 0.25077 0.31028 0.58979
 C1905 C 0.11470 0.11244 0.61781
 C1906 C 0.12108 0.08916 0.58900
 C1907 C 0.10213 0.07189 0.56921
 C1908 C 0.07690 0.07780 0.57800
 C1909 C 0.07090 0.10131 0.60707
 C1910 C 0.08972 0.11867 0.62705
 C1911 C 0.13457 0.13080 0.63862
 C1912 C 0.12819 0.15430 0.66728
 C1913 C 0.14713 0.17225 0.68656
 C1914 C 0.17234 0.16692 0.67729
 C1915 C 0.17834 0.14277 0.64870
 C1916 C 0.15954 0.12476 0.62923
 C1917 C 0.08407 0.14214 0.65609
 C1918 C 0.10298 0.15966 0.67586
 C1919 C 0.14629 0.08363 0.58054
 C1920 C 0.16520 0.10114 0.60030
 H1921 H 0.06486 0.14710 0.66355
 H1922 H 0.09781 0.17768 0.69795
 H1923 H 0.15146 0.06570 0.55838
 H1924 H 0.18440 0.09627 0.59278
 H1925 H 0.10708 0.05388 0.54700
 H1926 H 0.05161 0.10599 0.61432
 H1927 H 0.14220 0.19063 0.70851
 H1928 H 0.19760 0.13846 0.64113
 C1929 C 0.36488 0.36459 0.63549
 C1930 C 0.34001 0.36877 0.62476
 C1931 C 0.32123 0.35022 0.64391
 C1932 C 0.32717 0.32751 0.67359
 C1933 C 0.35228 0.32366 0.68390
 C1934 C 0.37119 0.34217 0.66497
 C1935 C 0.38470 0.38407 0.61544
 C1936 C 0.40956 0.37989 0.62616
 C1937 C 0.42834 0.39845 0.60702
 C1938 C 0.42240 0.42116 0.57734
 C1939 C 0.39729 0.42501 0.56703
 C1940 C 0.37838 0.40649 0.58596
 C1941 C 0.39629 0.33872 0.67492
 C1942 C 0.41515 0.35727 0.65585
 C1943 C 0.33442 0.39139 0.59507
 C1944 C 0.35329 0.40994 0.57600
 H1945 H 0.40140 0.32154 0.69765
 H1946 H 0.43427 0.35386 0.66442
 H1947 H 0.31530 0.39480 0.58650
 H1948 H 0.34817 0.42712 0.55328
 H1949 H 0.30204 0.35333 0.63552
 H1950 H 0.35715 0.30638 0.70669
 H1951 H 0.44753 0.39535 0.61540
 H1952 H 0.39241 0.44228 0.54424
 C1953 C 0.36480 0.13427 0.63545
 C1954 C 0.37103 0.15622 0.66522
 C1955 C 0.35210 0.17450 0.68421
 C1956 C 0.32703 0.17088 0.67365
 C1957 C 0.32115 0.14862 0.64371
 C1958 C 0.33996 0.13031 0.62450
 C1959 C 0.38465 0.11509 0.61532
 C1960 C 0.37842 0.09314 0.58554
 C1961 C 0.39736 0.07487 0.56655
 C1962 C 0.42243 0.07851 0.57711
 C1963 C 0.42830 0.10075 0.60705
 C1964 C 0.40949 0.11905 0.62627
 C1965 C 0.33445 0.10816 0.59452
 C1966 C 0.35336 0.08988 0.57536
 C1967 C 0.39609 0.15948 0.67540
 C1968 C 0.41500 0.14119 0.65625
 H1969 H 0.31535 0.10493 0.58578
 H1970 H 0.34831 0.07305 0.55240
 H1971 H 0.40114 0.17631 0.69836
 H1972 H 0.43410 0.14442 0.66499
 H1973 H 0.35691 0.19142 0.70722
 H1974 H 0.30198 0.14572 0.63516
 H1975 H 0.39256 0.05795 0.54353
 H1976 H 0.44747 0.10366 0.61561
 C1977 C 0.13479 0.36889 0.63915
 C1978 C 0.12840 0.34563 0.66802
 C1979 C 0.14730 0.32731 0.68712
 C1980 C 0.17249 0.33206 0.67747
 C1981 C 0.17852 0.35598 0.64868
 C1982 C 0.15975 0.37434 0.62938
 C1983 C 0.11496 0.38762 0.61853
 C1984 C 0.12135 0.41065 0.58950
 C1985 C 0.10243 0.42823 0.56985
 C1986 C 0.07721 0.42285 0.57899
 C1987 C 0.07119 0.39962 0.60829
 C1988 C 0.08999 0.38196 0.62814
 C1989 C 0.16543 0.39772 0.60025
 C1990 C 0.14655 0.41558 0.58066
 C1991 C 0.10320 0.34086 0.67698
 C1992 C 0.08432 0.35873 0.65739
 H1993 H 0.18462 0.40214 0.59244
 H1994 H 0.15174 0.43331 0.55833
 H1995 H 0.09801 0.32304 0.69924
 H1996 H 0.06512 0.35422 0.66513
 H1997 H 0.14236 0.30913 0.70925
 H1998 H 0.19776 0.35984 0.64082
 H1999 H 0.10739 0.44601 0.54745
 H2000 H 0.05191 0.39536 0.61581
 C2001 C 0.38512 0.11393 0.88527
 C2002 C 0.37896 0.09129 0.91467
 C2003 C 0.39798 0.07288 0.93343
 C2004 C 0.42308 0.07702 0.92305
 C2005 C 0.42887 0.09995 0.89345
 C2006 C 0.40997 0.11841 0.87446
 C2007 C 0.36517 0.13332 0.86541
 C2008 C 0.37134 0.15597 0.83602
 C2009 C 0.35232 0.17445 0.81730
 C2010 C 0.32722 0.17035 0.82772
 C2011 C 0.32143 0.14737 0.85728
 C2012 C 0.34033 0.12885 0.87623
 C2013 C 0.41540 0.14125 0.84485
 C2014 C 0.39641 0.15972 0.82597
 C2015 C 0.35388 0.08753 0.92471
 C2016 C 0.33490 0.10599 0.90582
 H2017 H 0.43449 0.14491 0.83621
 H2018 H 0.40141 0.17709 0.80331
 H2019 H 0.34888 0.07017 0.94737
 H2020 H 0.31581 0.10234 0.91448
 H2021 H 0.39321 0.05544 0.95616
 H2022 H 0.44804 0.10330 0.88501
 H2023 H 0.35710 0.19192 0.79460
 H2024 H 0.30227 0.14405 0.86574
 C2025 C 0.11491 0.38798 0.88216
 C2026 C 0.12123 0.41078 0.91133
 C2027 C 0.10227 0.42837 0.93084
 C2028 C 0.07709 0.42323 0.92142
 C2029 C 0.07114 0.40025 0.89198
 C2030 C 0.08998 0.38259 0.87227
 C2031 C 0.13478 0.36922 0.86170
 C2032 C 0.12847 0.34617 0.83270
 C2033 C 0.14740 0.32778 0.81379
 C2034 C 0.17253 0.33226 0.82374
 C2035 C 0.17850 0.35597 0.85263
 C2036 C 0.15970 0.37440 0.87176
 C2037 C 0.08439 0.35958 0.84290
 C2038 C 0.10331 0.34167 0.82345
 C2039 C 0.14639 0.41547 0.92046
 C2040 C 0.16530 0.39757 0.90101
 H2041 H 0.06522 0.35528 0.83495
 H2042 H 0.09820 0.32401 0.80108
 H2043 H 0.15149 0.43301 0.94290
 H2044 H 0.18447 0.40177 0.90904
 H2045 H 0.10715 0.44595 0.95337
 H2046 H 0.05189 0.39621 0.88426
 H2047 H 0.14253 0.30977 0.79155
 H2048 H 0.19772 0.35959 0.86071
 C2049 C 0.11437 0.11073 0.88236
 C2050 C 0.08941 0.11871 0.87444
 C2051 C 0.07052 0.10108 0.89415
 C2052 C 0.07631 0.07529 0.92182
 C2053 C 0.10172 0.06774 0.92911
 C2054 C 0.12069 0.08536 0.90956
 C2055 C 0.13429 0.12948 0.86188
 C2056 C 0.15927 0.12176 0.87003
 C2057 C 0.17815 0.14018 0.85094
 C2058 C 0.17221 0.16633 0.82390
 C2059 C 0.14697 0.17331 0.81582
 C2060 C 0.12797 0.15503 0.83478
 C2061 C 0.14591 0.07814 0.91678
 C2062 C 0.16487 0.09605 0.89737
 C2063 C 0.08382 0.14426 0.84693
 C2064 C 0.10276 0.16210 0.82744
 H2065 H 0.15105 0.05857 0.93770
 H2066 H 0.18407 0.08982 0.90393
 H2067 H 0.06462 0.15061 0.84047
 H2068 H 0.09763 0.18172 0.80656
 H2069 H 0.05132 0.10754 0.88764
 H2070 H 0.10696 0.04815 0.95001
 H2071 H 0.19742 0.13452 0.85755
 H2072 H 0.14206 0.19325 0.79509
 C2073 C 0.38479 0.38420 0.88549
 C2074 C 0.37852 0.40668 0.91492
 C2075 C 0.39744 0.42525 0.93368
 C2076 C 0.42255 0.42139 0.92326
 C2077 C 0.42845 0.39861 0.89365
 C2078 C 0.40965 0.38000 0.87467
 C2079 C 0.36494 0.36469 0.86561
 C2080 C 0.37122 0.34221 0.83619
 C2081 C 0.35229 0.32366 0.81741
 C2082 C 0.32718 0.32754 0.82782
 C2083 C 0.32128 0.35031 0.85744
 C2084 C 0.34009 0.36889 0.87643
 C2085 C 0.41519 0.35732 0.84504
 C2086 C 0.39630 0.33873 0.82613
 C2087 C 0.35343 0.41016 0.92498
 C2088 C 0.33454 0.39157 0.90607
 H2089 H 0.43430 0.35389 0.83639
 H2090 H 0.40139 0.32150 0.80345
 H2091 H 0.34835 0.42739 0.94766
 H2092 H 0.31543 0.39500 0.91471
 H2093 H 0.39260 0.44257 0.95642
 H2094 H 0.44763 0.39549 0.88519
 H2095 H 0.35713 0.30635 0.79466
 H2096 H 0.30210 0.35344 0.86589
 C2097 C 0.49824 -0.00060 0.76970
 C2098 C 0.49835 0.03379 0.78818
 C2099 C 0.49868 0.03346 0.82547
 C2100 C 0.49896 -0.00097 0.84432
 C2101 C 0.49872 -0.03522 0.82526
 C2102 C 0.49838 -0.03518 0.78795
 C2103 C 0.49812 -0.00040 0.73047
 C2104 C 0.49814 -0.03478 0.71199
 C2105 C 0.49826 -0.03445 0.67469
 C2106 C 0.49840 -0.00002 0.65585
 C2107 C 0.49823 0.03423 0.67491
 C2108 C 0.49812 0.03418 0.71222
 C2109 C 0.49828 -0.06902 0.76853
 C2110 C 0.49816 -0.06883 0.73117
 C2111 C 0.49822 0.06784 0.76900
 C2112 C 0.49811 0.06803 0.73164
 H2113 H 0.49835 -0.09588 0.78232
 H2114 H 0.49815 -0.09555 0.71718
 H2115 H 0.49827 0.09455 0.78299
 H2116 H 0.49808 0.09489 0.71785
 H2117 H 0.49882 0.06003 0.83973
 H2118 H 0.49888 -0.06191 0.83936
 H2119 H 0.49834 -0.06101 0.66043
 H2120 H 0.49830 0.06092 0.66082
 C2121 C 0.75150 0.24896 0.48091
 C2122 C 0.75185 0.28343 0.46249
 C2123 C 0.75179 0.28327 0.42519
 C2124 C 0.75135 0.24893 0.40627
 C2125 C 0.75112 0.21461 0.42527
 C2126 C 0.75117 0.21448 0.46258
 C2127 C 0.75135 0.24899 0.52014
 C2128 C 0.75090 0.21452 0.53856
 C2129 C 0.75059 0.21470 0.57586
 C2130 C 0.75069 0.24905 0.59477
 C2131 C 0.75126 0.28337 0.57576
 C2132 C 0.75158 0.28348 0.53846
 C2133 C 0.75081 0.18055 0.48194
 C2134 C 0.75067 0.18057 0.51930
 C2135 C 0.75217 0.31738 0.48174
 C2136 C 0.75204 0.31741 0.51911
 H2137 H 0.75057 0.15375 0.46809
 H2138 H 0.75034 0.15379 0.53323
 H2139 H 0.75247 0.34416 0.46782
 H2140 H 0.75224 0.34421 0.53295
 H2141 H 0.75202 0.30990 0.41098
 H2142 H 0.75080 0.18797 0.41113
 H2143 H 0.75019 0.18809 0.59008
 H2144 H 0.75140 0.31001 0.58989
 C2145 C 0.61470 0.11594 0.61466
 C2146 C 0.62115 0.09277 0.58579
 C2147 C 0.60226 0.07569 0.56579
 C2148 C 0.57703 0.08156 0.57455
 C2149 C 0.57094 0.10533 0.60338
 C2150 C 0.58970 0.12248 0.62356
 C2151 C 0.63450 0.13355 0.63608
 C2152 C 0.62805 0.15672 0.66495
 C2153 C 0.64694 0.17378 0.68496
 C2154 C 0.67218 0.16788 0.67622
 C2155 C 0.67826 0.14413 0.64739
 C2156 C 0.65950 0.12700 0.62718
 C2157 C 0.58396 0.14577 0.65269
 C2158 C 0.60282 0.16262 0.67303
 C2159 C 0.64639 0.08688 0.57770
 C2160 C 0.66524 0.10373 0.59804
 H2161 H 0.56473 0.15098 0.65985
 H2162 H 0.59760 0.18044 0.69524
 H2163 H 0.65160 0.06907 0.55548
 H2164 H 0.68448 0.09851 0.59088
 H2165 H 0.60724 0.05754 0.54370
 H2166 H 0.55164 0.10999 0.61057
 H2167 H 0.64196 0.19194 0.70705
 H2168 H 0.69756 0.13946 0.64020
 C2169 C -0.13530 0.36180 0.63272
 C2170 C -0.16025 0.36744 0.62301
 C2171 C -0.17911 0.34976 0.64276
 C2172 C -0.17317 0.32652 0.67208
 C2173 C -0.14797 0.32116 0.68132
 C2174 C -0.12899 0.33876 0.66177
 C2175 C -0.11540 0.38055 0.61220
 C2176 C -0.09047 0.37511 0.62208
 C2177 C -0.07164 0.39347 0.60288
 C2178 C -0.07758 0.41738 0.57405
 C2179 C -0.10274 0.42214 0.56430
 C2180 C -0.12171 0.40382 0.58331
 C2181 C -0.10381 0.33384 0.67073
 C2182 C -0.08488 0.35171 0.65123
 C2183 C -0.16582 0.39068 0.59374
 C2184 C -0.14689 0.40857 0.57424
 H2185 H -0.09870 0.31610 0.69307
 H2186 H -0.06571 0.34729 0.65914
 H2187 H -0.18500 0.39519 0.58590
 H2188 H -0.15201 0.42640 0.55196
 H2189 H -0.19836 0.35401 0.63516
 H2190 H -0.14307 0.30339 0.70375
 H2191 H -0.05242 0.38960 0.61081
 H2192 H -0.10763 0.44031 0.54215
 C2193 C 0.88444 0.11954 0.61147
 C2194 C 0.90939 0.12527 0.62108
 C2195 C 0.92819 0.10722 0.60164
 C2196 C 0.92220 0.08333 0.57288
 C2197 C 0.89703 0.07833 0.56336
 C2198 C 0.87809 0.09633 0.58260
 C2199 C 0.86457 0.13789 0.63227
 C2200 C 0.83961 0.13195 0.62284
 C2201 C 0.82078 0.14926 0.64285
 C2202 C 0.82677 0.17243 0.67214
 C2203 C 0.85197 0.17807 0.68113
 C2204 C 0.87092 0.16084 0.66131
 C2205 C 0.85290 0.09127 0.57381
 C2206 C 0.83398 0.10880 0.59358
 C2207 C 0.91503 0.14857 0.65022
 C2208 C 0.89611 0.16608 0.66999
 H2209 H 0.84776 0.07348 0.55155
 H2210 H 0.81478 0.10407 0.58598
 H2211 H 0.93422 0.15319 0.65790
 H2212 H 0.90125 0.18376 0.69233
 H2213 H 0.94743 0.11124 0.60939
 H2214 H 0.89213 0.06015 0.54126
 H2215 H 0.80151 0.14482 0.63546
 H2216 H 0.85689 0.19581 0.70353
 C2217 C 0.63445 0.36542 0.63604
 C2218 C 0.62797 0.34206 0.66480
 C2219 C 0.64685 0.32474 0.68473
 C2220 C 0.67210 0.33059 0.67602
 C2221 C 0.67820 0.35452 0.64726
 C2222 C 0.65946 0.37190 0.62715
 C2223 C 0.61466 0.38332 0.61472
 C2224 C 0.62115 0.40667 0.58595
 C2225 C 0.60227 0.42400 0.56603
 C2226 C 0.57702 0.41817 0.57474
 C2227 C 0.57091 0.39425 0.60349
 C2228 C 0.58965 0.37685 0.62360
 C2229 C 0.66523 0.39537 0.59812
 C2230 C 0.64639 0.41248 0.57788
 C2231 C 0.60272 0.33626 0.67288
 C2232 C 0.58389 0.35338 0.65263
 H2233 H 0.68446 0.40054 0.59097
 H2234 H 0.65164 0.43044 0.55575
 H2235 H 0.59748 0.31830 0.69501
 H2236 H 0.56465 0.34821 0.65979
 H2237 H 0.64184 0.30646 0.70675
 H2238 H 0.69750 0.35917 0.64009
 H2239 H 0.60729 0.44227 0.54400
 H2240 H 0.55161 0.38961 0.61065
 C2241 C 0.88505 0.11919 0.88805
 C2242 C 0.87892 0.09660 0.91750
 C2243 C 0.89798 0.07848 0.93637
 C2244 C 0.92304 0.08276 0.92591
 C2245 C 0.92883 0.10605 0.89660
 C2246 C 0.90990 0.12421 0.87751
 C2247 C 0.86503 0.13763 0.86763
 C2248 C 0.87116 0.15996 0.83801
 C2249 C 0.85207 0.17726 0.81855
 C2250 C 0.82696 0.17229 0.82845
 C2251 C 0.82119 0.14975 0.85830
 C2252 C 0.84016 0.13238 0.87798
 C2253 C 0.91530 0.14692 0.84782
 C2254 C 0.89625 0.16451 0.82840
 C2255 C 0.85383 0.09223 0.92723
 C2256 C 0.83478 0.10984 0.90781
 H2257 H 0.93441 0.15099 0.83942
 H2258 H 0.90120 0.18172 0.80561
 H2259 H 0.84888 0.07492 0.94995
 H2260 H 0.81566 0.10566 0.91613
 H2261 H 0.89325 0.06079 0.95894
 H2262 H 0.94799 0.10949 0.88815
 H2263 H 0.85682 0.19451 0.79568
 H2264 H 0.80199 0.14586 0.86638
 C2265 C 0.61482 0.38353 0.88609
 C2266 C 0.62127 0.40670 0.91493
 C2267 C 0.60237 0.42395 0.93484
 C2268 C 0.57715 0.41823 0.92601
 C2269 C 0.57107 0.39445 0.89722
 C2270 C 0.58982 0.37713 0.87712
 C2271 C 0.63462 0.36574 0.86476
 C2272 C 0.62817 0.34257 0.83591
 C2273 C 0.64706 0.32533 0.81600
 C2274 C 0.67228 0.33106 0.82481
 C2275 C 0.67837 0.35483 0.85361
 C2276 C 0.65962 0.37214 0.87372
 C2277 C 0.58408 0.35384 0.84801
 C2278 C 0.60294 0.33682 0.82776
 C2279 C 0.64649 0.41244 0.92309
 C2280 C 0.66535 0.39542 0.90284
 H2281 H 0.56486 0.34875 0.84080
 H2282 H 0.59773 0.31900 0.80556
 H2283 H 0.65171 0.43026 0.94529
 H2284 H 0.68458 0.40051 0.91005
 H2285 H 0.60735 0.44211 0.95692
 H2286 H 0.55178 0.38992 0.88998
 H2287 H 0.64208 0.30717 0.79392
 H2288 H 0.69767 0.35936 0.86085
 C2289 C 0.61442 0.11389 0.88659
 C2290 C 0.58944 0.12263 0.87966
 C2291 C 0.57064 0.10500 0.89965
 C2292 C 0.57653 0.07826 0.92650
 C2293 C 0.60201 0.07038 0.93315
 C2294 C 0.62088 0.08800 0.91330
 C2295 C 0.63423 0.13216 0.86539
 C2296 C 0.65925 0.12348 0.87237
 C2297 C 0.67802 0.14119 0.85239
 C2298 C 0.67196 0.16756 0.82556
 C2299 C 0.64666 0.17559 0.81877
 C2300 C 0.62777 0.15804 0.83863
 C2301 C 0.64614 0.08002 0.91949
 C2302 C 0.66498 0.09746 0.89941
 C2303 C 0.58370 0.14868 0.85262
 C2304 C 0.60252 0.16606 0.83247
 H2305 H 0.65141 0.06007 0.94003
 H2306 H 0.68421 0.09051 0.90513
 H2307 H 0.56448 0.15567 0.84694
 H2308 H 0.59726 0.18600 0.81193
 H2309 H 0.55142 0.11190 0.89373
 H2310 H 0.60735 0.05023 0.95350
 H2311 H 0.69732 0.13473 0.85809
 H2312 H 0.64162 0.19579 0.79832
 C2313 C 0.88461 0.38074 0.88823
 C2314 C 0.87826 0.40405 0.91704
 C2315 C 0.89720 0.42236 0.93603
 C2316 C 0.92238 0.41755 0.92634
 C2317 C 0.92836 0.39360 0.89759
 C2318 C 0.90955 0.37524 0.87840
 C2319 C 0.86473 0.36200 0.86772
 C2320 C 0.87108 0.33891 0.83876
 C2321 C 0.85213 0.32130 0.81924
 C2322 C 0.82691 0.32671 0.82843
 C2323 C 0.82094 0.35002 0.85766
 C2324 C 0.83978 0.36770 0.87738
 C2325 C 0.91518 0.35180 0.84933
 C2326 C 0.89627 0.33393 0.82986
 C2327 C 0.85307 0.40886 0.92605
 C2328 C 0.83416 0.39099 0.90657
 H2329 H 0.93436 0.34734 0.84148
 H2330 H 0.90142 0.31616 0.80758
 H2331 H 0.84792 0.42672 0.94827
 H2332 H 0.81497 0.39554 0.91436
 H2333 H 0.89229 0.44057 0.95812
 H2334 H 0.94759 0.38970 0.88970
 H2335 H 0.85705 0.30347 0.79688
 H2336 H 0.80168 0.35431 0.86523
 C2337 C 0.00089 0.50008 0.77117
 C2338 C 0.00082 0.53453 0.78950
 C2339 C 0.00065 0.53448 0.82688
 C2340 C 0.00050 0.50016 0.84634
 C2341 C 0.00069 0.46579 0.82700
 C2342 C 0.00086 0.46567 0.78962
 C2343 C 0.00091 0.50004 0.73183
 C2344 C 0.00089 0.46557 0.71347
 C2345 C 0.00076 0.46567 0.67609
 C2346 C 0.00061 0.49997 0.65697
 C2347 C 0.00073 0.53431 0.67597
 C2348 C 0.00086 0.53448 0.71335
 C2349 C 0.00093 0.43172 0.77030
 C2350 C 0.00095 0.43167 0.73290
 C2351 C 0.00086 0.56844 0.77006
 C2352 C 0.00088 0.56842 0.73266
 H2353 H 0.00093 0.40493 0.78421
 H2354 H 0.00096 0.40486 0.71908
 H2355 H 0.00083 0.59526 0.78387
 H2356 H 0.00086 0.59520 0.71874
 H2357 H 0.00057 0.56138 0.84062
 H2358 H 0.00064 0.43892 0.84084
 H2359 H 0.00072 0.43902 0.66197
 H2360 H 0.00065 0.56093 0.66176
 C2361 C 0.25139 0.75086 0.48020
 C2362 C 0.25152 0.78536 0.46182
 C2363 C 0.25137 0.78524 0.42451
 C2364 C 0.25103 0.75092 0.40557
 C2365 C 0.25103 0.71657 0.42454
 C2366 C 0.25118 0.71639 0.46184
 C2367 C 0.25135 0.75083 0.51943
 C2368 C 0.25111 0.71633 0.53781
 C2369 C 0.25088 0.71645 0.57511
 C2370 C 0.25085 0.75077 0.59406
 C2371 C 0.25122 0.78512 0.57509
 C2372 C 0.25145 0.78530 0.53779
 C2373 C 0.25104 0.68243 0.48115
 C2374 C 0.25101 0.68240 0.51851
 C2375 C 0.25173 0.81929 0.48111
 C2376 C 0.25169 0.81926 0.51848
 H2377 H 0.25091 0.65565 0.46727
 H2378 H 0.25084 0.65560 0.53241
 H2379 H 0.25186 0.84609 0.46722
 H2380 H 0.25180 0.84604 0.53236
 H2381 H 0.25143 0.81188 0.41032
 H2382 H 0.25082 0.68995 0.41037
 H2383 H 0.25064 0.68981 0.58929
 H2384 H 0.25125 0.81174 0.58926
 C2385 C 0.11491 0.61252 0.61806
 C2386 C 0.12131 0.58956 0.58902
 C2387 C 0.10239 0.57198 0.56944
 C2388 C 0.07718 0.57728 0.57866
 C2389 C 0.07116 0.60044 0.60796
 C2390 C 0.08995 0.61810 0.62774
 C2391 C 0.13474 0.63124 0.63861
 C2392 C 0.12835 0.65443 0.66749
 C2393 C 0.14725 0.67275 0.68652
 C2394 C 0.17242 0.66807 0.67679
 C2395 C 0.17845 0.64423 0.64799
 C2396 C 0.15969 0.62586 0.62876
 C2397 C 0.08428 0.64125 0.65700
 C2398 C 0.10316 0.65913 0.67654
 C2399 C 0.14650 0.58469 0.58010
 C2400 C 0.16537 0.60255 0.59963
 H2401 H 0.06509 0.64571 0.66479
 H2402 H 0.09798 0.67689 0.69881
 H2403 H 0.15167 0.56702 0.55776
 H2404 H 0.18456 0.59819 0.59176
 H2405 H 0.10734 0.55425 0.54703
 H2406 H 0.05189 0.60464 0.61554
 H2407 H 0.14232 0.69087 0.70866
 H2408 H 0.19769 0.64043 0.64008
 C2409 C 0.38462 0.88532 0.61500
 C2410 C 0.40943 0.88150 0.62615
 C2411 C 0.42825 0.89991 0.60706
 C2412 C 0.42241 0.92212 0.57703
 C2413 C 0.39738 0.92563 0.56628
 C2414 C 0.37843 0.90725 0.58515
 C2415 C 0.36476 0.86600 0.63499
 C2416 C 0.33996 0.86981 0.62384
 C2417 C 0.32113 0.85137 0.64292
 C2418 C 0.32698 0.82914 0.67292
 C2419 C 0.35202 0.82566 0.68369
 C2420 C 0.37096 0.84406 0.66483
 C2421 C 0.35340 0.91036 0.57476
 C2422 C 0.33448 0.89194 0.59379
 C2423 C 0.41491 0.85938 0.65620
 C2424 C 0.39599 0.84096 0.67522
 H2425 H 0.34839 0.92716 0.55174
 H2426 H 0.31541 0.89504 0.58490
 H2427 H 0.43398 0.85627 0.66509
 H2428 H 0.40099 0.82414 0.69824
 H2429 H 0.44739 0.89712 0.61575
 H2430 H 0.39261 0.94252 0.54319
 H2431 H 0.30199 0.85414 0.63422
 H2432 H 0.35679 0.80875 0.70676
 C2433 C 0.36479 0.63495 0.63494
 C2434 C 0.37107 0.65736 0.66440
 C2435 C 0.35216 0.67596 0.68321
 C2436 C 0.32706 0.67221 0.67281
 C2437 C 0.32114 0.64952 0.64315
 C2438 C 0.33993 0.63088 0.62412
 C2439 C 0.38462 0.61539 0.61502
 C2440 C 0.37833 0.59299 0.58556
 C2441 C 0.39725 0.57439 0.56674
 C2442 C 0.42235 0.57815 0.57714
 C2443 C 0.42826 0.60083 0.60680
 C2444 C 0.40947 0.61946 0.62583
 C2445 C 0.33437 0.60827 0.59446
 C2446 C 0.35325 0.58964 0.57551
 C2447 C 0.39616 0.66070 0.67445
 C2448 C 0.41503 0.64207 0.65550
 H2449 H 0.31527 0.60494 0.58582
 H2450 H 0.34816 0.57247 0.55280
 H2451 H 0.40125 0.67787 0.69716
 H2452 H 0.43414 0.64540 0.66414
 H2453 H 0.35701 0.69321 0.70598
 H2454 H 0.30197 0.64648 0.63471
 H2455 H 0.39240 0.55714 0.54396
 H2456 H 0.44744 0.60387 0.61525
 C2457 C 0.11475 0.88871 0.61764
 C2458 C 0.12113 0.91204 0.58882
 C2459 C 0.10218 0.92947 0.56912
 C2460 C 0.07696 0.92365 0.57802
 C2461 C 0.07096 0.90011 0.60710
 C2462 C 0.08978 0.88260 0.62699
 C2463 C 0.13462 0.87015 0.63832
 C2464 C 0.12824 0.84659 0.66698
 C2465 C 0.14718 0.82842 0.68611
 C2466 C 0.17237 0.83360 0.67671
 C2467 C 0.17838 0.85782 0.64814
 C2468 C 0.15958 0.87605 0.62881
 C2469 C 0.08413 0.85908 0.65603
 C2470 C 0.10304 0.84136 0.67568
 C2471 C 0.14633 0.91743 0.58023
 C2472 C 0.16523 0.89973 0.59988
 H2473 H 0.06493 0.85421 0.66356
 H2474 H 0.09788 0.82329 0.69777
 H2475 H 0.15149 0.93540 0.55807
 H2476 H 0.18443 0.90449 0.59227
 H2477 H 0.10712 0.94750 0.54689
 H2478 H 0.05168 0.89551 0.61442
 H2479 H 0.14224 0.80999 0.70806
 H2480 H 0.19763 0.86201 0.64048
 C2481 C 0.38476 0.61562 0.88491
 C2482 C 0.37849 0.59310 0.91434
 C2483 C 0.39743 0.57460 0.93320
 C2484 C 0.42255 0.57855 0.92286
 C2485 C 0.42844 0.60137 0.89322
 C2486 C 0.40963 0.61991 0.87415
 C2487 C 0.36490 0.63508 0.86494
 C2488 C 0.37117 0.65761 0.83551
 C2489 C 0.35223 0.67612 0.81666
 C2490 C 0.32711 0.67217 0.82700
 C2491 C 0.32122 0.64934 0.85663
 C2492 C 0.34004 0.63079 0.87569
 C2493 C 0.41517 0.64264 0.84451
 C2494 C 0.39627 0.66117 0.82552
 C2495 C 0.35339 0.58954 0.92433
 C2496 C 0.33449 0.60807 0.90534
 H2497 H 0.43428 0.64614 0.83591
 H2498 H 0.40135 0.67844 0.80283
 H2499 H 0.34831 0.57227 0.94702
 H2500 H 0.31538 0.60456 0.91394
 H2501 H 0.39258 0.55725 0.95595
 H2502 H 0.44763 0.60456 0.88482
 H2503 H 0.35708 0.69348 0.79391
 H2504 H 0.30203 0.64614 0.86503
 C2505 C 0.11434 0.88870 0.88225
 C2506 C 0.12069 0.91400 0.90945
 C2507 C 0.10174 0.93161 0.92906
 C2508 C 0.07630 0.92412 0.92183
 C2509 C 0.07049 0.89837 0.89417
 C2510 C 0.08937 0.88076 0.87440
 C2511 C 0.13425 0.86999 0.86168
 C2512 C 0.12790 0.84453 0.83457
 C2513 C 0.14689 0.82634 0.81549
 C2514 C 0.17214 0.83331 0.82345
 C2515 C 0.17810 0.85935 0.85054
 C2516 C 0.15924 0.87769 0.86974
 C2517 C 0.08375 0.85528 0.84689
 C2518 C 0.10268 0.83749 0.82732
 C2519 C 0.14592 0.92118 0.91659
 C2520 C 0.16486 0.90331 0.89711
 H2521 H 0.06455 0.84895 0.84049
 H2522 H 0.09752 0.81794 0.80644
 H2523 H 0.15109 0.94069 0.93751
 H2524 H 0.18407 0.90952 0.90360
 H2525 H 0.10699 0.95115 0.94994
 H2526 H 0.05129 0.89195 0.88770
 H2527 H 0.14194 0.80648 0.79475
 H2528 H 0.19739 0.86501 0.85707
 C2529 C 0.11485 0.61245 0.88173
 C2530 C 0.08991 0.61799 0.87194
 C2531 C 0.07108 0.60044 0.89177
 C2532 C 0.07705 0.57744 0.92122
 C2533 C 0.10223 0.57217 0.93055
 C2534 C 0.12118 0.58963 0.91092
 C2535 C 0.13472 0.63107 0.86114
 C2536 C 0.15965 0.62574 0.87111
 C2537 C 0.17845 0.64406 0.85187
 C2538 C 0.17247 0.66781 0.82297
 C2539 C 0.14733 0.67242 0.81309
 C2540 C 0.12839 0.65414 0.83212
 C2541 C 0.14635 0.58479 0.91996
 C2542 C 0.16526 0.60256 0.90039
 C2543 C 0.08431 0.64101 0.84253
 C2544 C 0.10323 0.65880 0.82296
 H2545 H 0.15146 0.56722 0.94242
 H2546 H 0.18443 0.59825 0.90834
 H2547 H 0.06513 0.64542 0.83466
 H2548 H 0.09811 0.67647 0.80057
 H2549 H 0.05183 0.60459 0.88412
 H2550 H 0.10713 0.55455 0.95309
 H2551 H 0.19767 0.64034 0.85988
 H2552 H 0.14245 0.69046 0.79085
 C2553 C 0.38511 0.88418 0.88513
 C2554 C 0.37896 0.90676 0.91452
 C2555 C 0.39800 0.92484 0.93345
 C2556 C 0.42310 0.92044 0.92323
 C2557 C 0.42889 0.89754 0.89365
 C2558 C 0.40997 0.87940 0.87450
 C2559 C 0.36514 0.86519 0.86506
 C2560 C 0.37129 0.84261 0.83566
 C2561 C 0.35225 0.82451 0.81674
 C2562 C 0.32715 0.82890 0.82699
 C2563 C 0.32136 0.85180 0.85656
 C2564 C 0.34028 0.86996 0.87569
 C2565 C 0.41539 0.85664 0.84488
 C2566 C 0.39638 0.83855 0.82579
 C2567 C 0.35387 0.91083 0.92438
 C2568 C 0.33486 0.89273 0.90530
 H2569 H 0.43450 0.85277 0.83638
 H2570 H 0.40137 0.82123 0.80312
 H2571 H 0.34888 0.92817 0.94704
 H2572 H 0.31576 0.89661 0.91380
 H2573 H 0.39322 0.94228 0.95615
 H2574 H 0.44807 0.89401 0.88534
 H2575 H 0.35702 0.80709 0.79403
 H2576 H 0.30218 0.85533 0.86487
 C2577 C 0.49811 0.49990 0.76968
 C2578 C 0.49816 0.53441 0.78797
 C2579 C 0.49841 0.53432 0.82526
 C2580 C 0.49865 0.50001 0.84429
 C2581 C 0.49848 0.46565 0.82541
 C2582 C 0.49823 0.46544 0.78812
 C2583 C 0.49804 0.49984 0.73045
 C2584 C 0.49810 0.46533 0.71216
 C2585 C 0.49825 0.46542 0.67486
 C2586 C 0.49838 0.49973 0.65584
 C2587 C 0.49818 0.53410 0.67472
 C2588 C 0.49803 0.53430 0.71201
 C2589 C 0.49818 0.43147 0.76890
 C2590 C 0.49812 0.43141 0.73154
 C2591 C 0.49804 0.56833 0.76859
 C2592 C 0.49798 0.56827 0.73123
 H2593 H 0.49825 0.40470 0.78285
 H2594 H 0.49815 0.40460 0.71771
 H2595 H 0.49806 0.59514 0.78242
 H2596 H 0.49795 0.59504 0.71728
 H2597 H 0.49850 0.56097 0.83938
 H2598 H 0.49862 0.43904 0.83965
 H2599 H 0.49836 0.43877 0.66074
 H2600 H 0.49823 0.56071 0.66048
 C2601 C 0.75131 0.75063 0.48025
 C2602 C 0.75119 0.78510 0.46183
 C2603 C 0.75103 0.78493 0.42452
 C2604 C 0.75095 0.75058 0.40561
 C2605 C 0.75120 0.71625 0.42463
 C2606 C 0.75136 0.71613 0.46193
 C2607 C 0.75127 0.75065 0.51948
 C2608 C 0.75128 0.71617 0.53789
 C2609 C 0.75104 0.71633 0.57519
 C2610 C 0.75075 0.75068 0.59411
 C2611 C 0.75087 0.78501 0.57511
 C2612 C 0.75110 0.78514 0.53780
 C2613 C 0.75148 0.68220 0.48128
 C2614 C 0.75144 0.68222 0.51864
 C2615 C 0.75113 0.81905 0.48108
 C2616 C 0.75109 0.81907 0.51845
 H2617 H 0.75155 0.65540 0.46743
 H2618 H 0.75147 0.65543 0.53256
 H2619 H 0.75106 0.84584 0.46716
 H2620 H 0.75099 0.84587 0.53230
 H2621 H 0.75088 0.81155 0.41031
 H2622 H 0.75119 0.68961 0.41049
 H2623 H 0.75100 0.68970 0.58940
 H2624 H 0.75069 0.81164 0.58925
 C2625 C 0.61472 0.61615 0.61444
 C2626 C 0.62119 0.59282 0.58569
 C2627 C 0.60230 0.57543 0.56587
 C2628 C 0.57704 0.58117 0.57464
 C2629 C 0.57096 0.60506 0.60339
 C2630 C 0.58971 0.62252 0.62341
 C2631 C 0.63453 0.63414 0.63564
 C2632 C 0.62806 0.65748 0.66439
 C2633 C 0.64696 0.67487 0.68421
 C2634 C 0.67221 0.66912 0.67543
 C2635 C 0.67829 0.64522 0.64668
 C2636 C 0.65953 0.62777 0.62667
 C2637 C 0.58397 0.64598 0.65242
 C2638 C 0.60282 0.66318 0.67255
 C2639 C 0.64643 0.58712 0.57753
 C2640 C 0.66528 0.60431 0.59766
 H2641 H 0.56474 0.65107 0.65966
 H2642 H 0.59758 0.68111 0.69467
 H2643 H 0.65167 0.56918 0.55541
 H2644 H 0.68451 0.59921 0.59043
 H2645 H 0.60730 0.55718 0.54385
 H2646 H 0.55166 0.60964 0.61062
 H2647 H 0.64196 0.69312 0.70623
 H2648 H 0.69759 0.64064 0.63945
 C2649 C 0.88452 0.88117 0.61120
 C2650 C 0.90945 0.87582 0.62113
 C2651 C 0.92825 0.89407 0.60181
 C2652 C 0.92228 0.91776 0.57286
 C2653 C 0.89713 0.92239 0.56303
 C2654 C 0.87818 0.90419 0.58214
 C2655 C 0.86464 0.86261 0.63187
 C2656 C 0.83970 0.86817 0.62212
 C2657 C 0.82086 0.85068 0.64201
 C2658 C 0.82683 0.82771 0.67150
 C2659 C 0.85202 0.82243 0.68079
 C2660 C 0.87098 0.83984 0.66110
 C2661 C 0.85301 0.90886 0.57303
 C2662 C 0.83409 0.89114 0.59267
 C2663 C 0.91507 0.85270 0.65045
 C2664 C 0.89615 0.83499 0.67009
 H2665 H 0.84789 0.92650 0.55062
 H2666 H 0.81491 0.89557 0.58482
 H2667 H 0.93424 0.84837 0.65837
 H2668 H 0.90127 0.81746 0.69257
 H2669 H 0.94747 0.89033 0.60980
 H2670 H 0.89224 0.94040 0.54077
 H2671 H 0.80161 0.85484 0.63439
 H2672 H 0.85693 0.80485 0.70335
 C2673 C 0.88470 0.61986 0.61165
 C2674 C 0.90963 0.62522 0.62159
 C2675 C 0.92845 0.60688 0.60240
 C2676 C 0.92250 0.58307 0.57356
 C2677 C 0.89736 0.57842 0.56373
 C2678 C 0.87840 0.59672 0.58272
 C2679 C 0.86480 0.63853 0.63218
 C2680 C 0.83987 0.63295 0.62243
 C2681 C 0.82101 0.65052 0.64220
 C2682 C 0.82694 0.67360 0.67159
 C2683 C 0.85213 0.67892 0.68087
 C2684 C 0.87111 0.66141 0.66129
 C2685 C 0.85323 0.59203 0.57359
 C2686 C 0.83429 0.60985 0.59310
 C2687 C 0.91521 0.64847 0.65079
 C2688 C 0.89628 0.66628 0.67030
 H2689 H 0.84812 0.57431 0.55127
 H2690 H 0.81512 0.60540 0.58524
 H2691 H 0.93438 0.65282 0.65872
 H2692 H 0.90138 0.68390 0.69269
 H2693 H 0.94767 0.61064 0.61038
 H2694 H 0.89248 0.56033 0.54155
 H2695 H 0.80176 0.64633 0.63458
 H2696 H 0.85702 0.69657 0.70335
 C2697 C 0.61468 0.88419 0.61436
 C2698 C 0.62110 0.90732 0.58540
 C2699 C 0.60219 0.92448 0.56550
 C2700 C 0.57698 0.91873 0.57443
 C2701 C 0.57092 0.89501 0.60333
 C2702 C 0.58970 0.87776 0.62343
 C2703 C 0.63451 0.86649 0.63568
 C2704 C 0.62810 0.84336 0.66463
 C2705 C 0.64702 0.82621 0.68455
 C2706 C 0.67223 0.83199 0.67564
 C2707 C 0.67828 0.85571 0.64673
 C2708 C 0.65950 0.87292 0.62661
 C2709 C 0.58400 0.85452 0.65264
 C2710 C 0.60288 0.83757 0.67289
 C2711 C 0.64632 0.91309 0.57714
 C2712 C 0.66520 0.89616 0.59740
 H2713 H 0.56478 0.84940 0.65993
 H2714 H 0.59770 0.81978 0.69516
 H2715 H 0.65150 0.93088 0.55486
 H2716 H 0.68442 0.90128 0.59011
 H2717 H 0.60714 0.94260 0.54333
 H2718 H 0.55163 0.89046 0.61064
 H2719 H 0.64207 0.80808 0.70671
 H2720 H 0.69756 0.86028 0.63942
 C2721 C 0.88466 0.61986 0.88816
 C2722 C 0.87831 0.59666 0.91709
 C2723 C 0.89725 0.57843 0.93617
 C2724 C 0.92241 0.58321 0.92643
 C2725 C 0.92840 0.60708 0.89759
 C2726 C 0.90960 0.62535 0.87832
 C2727 C 0.86479 0.63846 0.86754
 C2728 C 0.87114 0.66143 0.83844
 C2729 C 0.85218 0.67889 0.81880
 C2730 C 0.82698 0.67346 0.82802
 C2731 C 0.82101 0.65029 0.85737
 C2732 C 0.83984 0.63276 0.87721
 C2733 C 0.91523 0.64867 0.84913
 C2734 C 0.89632 0.66642 0.82953
 C2735 C 0.85313 0.59184 0.92613
 C2736 C 0.83422 0.60960 0.90653
 H2737 H 0.93441 0.65311 0.84126
 H2738 H 0.90146 0.68410 0.80715
 H2739 H 0.84799 0.57406 0.94844
 H2740 H 0.81503 0.60505 0.91431
 H2741 H 0.89235 0.56028 0.95834
 H2742 H 0.94763 0.61094 0.88967
 H2743 H 0.85710 0.69663 0.79635
 H2744 H 0.80174 0.64601 0.86494
 C2745 C 0.61441 0.88419 0.88654
 C2746 C 0.62083 0.91004 0.91324
 C2747 C 0.60195 0.92728 0.93328
 C2748 C 0.57651 0.91910 0.92682
 C2749 C 0.57065 0.89234 0.90004
 C2750 C 0.58945 0.87508 0.87985
 C2751 C 0.63423 0.86639 0.86507
 C2752 C 0.62780 0.84056 0.83830
 C2753 C 0.64671 0.82343 0.81821
 C2754 C 0.67197 0.83181 0.82480
 C2755 C 0.67799 0.85815 0.85161
 C2756 C 0.65921 0.87545 0.87182
 C2757 C 0.58376 0.84909 0.85280
 C2758 C 0.60259 0.83213 0.83240
 C2759 C 0.64606 0.91841 0.91919
 C2760 C 0.66491 0.90140 0.89887
 H2761 H 0.56456 0.84182 0.84731
 H2762 H 0.59737 0.81223 0.81184
 H2763 H 0.65129 0.93834 0.93973
 H2764 H 0.68411 0.90862 0.90439
 H2765 H 0.60726 0.94745 0.95361
 H2766 H 0.55144 0.88522 0.89429
 H2767 H 0.64171 0.80323 0.79778
 H2768 H 0.69728 0.86485 0.85714
 C2769 C 0.61491 0.61608 0.88556
 C2770 C 0.58991 0.62254 0.87661
 C2771 C 0.57115 0.60522 0.89673
 C2772 C 0.57723 0.58139 0.92554
 C2773 C 0.60245 0.57559 0.93433
 C2774 C 0.62135 0.59284 0.91440
 C2775 C 0.63472 0.63391 0.86423
 C2776 C 0.65971 0.62746 0.87318
 C2777 C 0.67848 0.64481 0.85308
 C2778 C 0.67239 0.66867 0.82429
 C2779 C 0.64716 0.67444 0.81548
 C2780 C 0.62827 0.65717 0.83540
 C2781 C 0.64658 0.58705 0.92254
 C2782 C 0.66544 0.60409 0.90229
 C2783 C 0.58418 0.64591 0.84751
 C2784 C 0.60304 0.66296 0.82725
 H2785 H 0.65179 0.56917 0.94474
 H2786 H 0.68467 0.59896 0.90949
 H2787 H 0.56495 0.65105 0.84031
 H2788 H 0.59783 0.68085 0.80507
 H2789 H 0.55186 0.60983 0.88951
 H2790 H 0.60743 0.55739 0.95642
 H2791 H 0.69777 0.64024 0.86030
 H2792 H 0.64218 0.69267 0.79342
 C2793 C 0.88500 0.88077 0.88762
 C2794 C 0.87883 0.90350 0.91692
 C2795 C 0.89788 0.92154 0.93588
 C2796 C 0.92298 0.91705 0.92568
 C2797 C 0.92880 0.89365 0.89649
 C2798 C 0.90989 0.87556 0.87731
 C2799 C 0.86501 0.86238 0.86711
 C2800 C 0.87119 0.83989 0.83766
 C2801 C 0.85213 0.82261 0.81814
 C2802 C 0.82698 0.82773 0.82783
 C2803 C 0.82117 0.85044 0.85752
 C2804 C 0.84012 0.86780 0.87725
 C2805 C 0.91534 0.85272 0.84776
 C2806 C 0.89631 0.83517 0.82828
 C2807 C 0.85371 0.90804 0.92642
 C2808 C 0.83468 0.89048 0.90693
 H2809 H 0.93447 0.84850 0.83953
 H2810 H 0.90131 0.81786 0.80561
 H2811 H 0.84870 0.92545 0.94902
 H2812 H 0.81555 0.89480 0.91509
 H2813 H 0.89310 0.93932 0.95834
 H2814 H 0.94798 0.89003 0.88821
 H2815 H 0.85693 0.80524 0.79541
 H2816 H 0.80195 0.85446 0.86545
   
