data_POSCAR
  _audit_creation_date              2014-09-24
  _audit_creation_method            'ToBaCCo'
  _symmetry_space_group_name_H-M    'P1'
  _symmetry_Int_Tables_number       1
  _symmetry_cell_setting            triclinic
  loop_
  _symmetry_equiv_pos_as_xyz
 x,y,z
_cell_length_a 57.8924
_cell_length_b 57.9016
_cell_length_c 57.8288
_cell_angle_alpha 90.001700
_cell_angle_beta 89.999600
_cell_angle_gamma 89.962800
loop_
  _atom_site_label
  _atom_site_type_symbol
  _atom_site_fract_x
  _atom_site_fract_y
  _atom_site_fract_z
C1 C 0.36755 1.35099 0.33380
 C2 C 0.36751 1.33386 0.35097
 C3 C 0.35062 1.33396 0.36786
 C4 C 0.33359 1.35120 0.36786
 C5 C 0.33364 1.36797 0.35098
 C6 C 0.35076 1.36787 0.33380
 C7 C 0.38132 1.35474 0.31481
 N8 N 0.37340 1.37359 0.30298
 C9 C 0.35458 1.38161 0.31480
 C10 C 0.31469 1.38181 0.35475
 N11 N 0.30288 1.37392 0.37363
 C12 C 0.31465 1.35508 0.38165
 C13 C 0.35430 1.31498 0.38167
 N14 N 0.37302 1.30330 0.37359
 C15 C 0.38121 1.31481 0.35480
 H16 H 0.39573 1.34389 0.31002
 H17 H 0.34404 1.39631 0.31025
 H18 H 0.31017 1.39648 0.34414
 H19 H 0.30981 1.34428 0.39608
 H20 H 0.34403 1.31007 0.39652
 H21 H 0.39567 1.30940 0.34424
 C22 C 0.36724 0.85089 0.83396
 C23 C 0.36724 0.83379 0.85114
 C24 C 0.35038 0.83389 0.86807
 C25 C 0.33331 0.85109 0.86808
 C26 C 0.33332 0.86790 0.85122
 C27 C 0.35037 0.86780 0.83399
 C28 C 0.38097 0.85463 0.81491
 N29 N 0.37284 0.87339 0.80332
 C30 C 0.35411 0.88154 0.81495
 C31 C 0.31438 0.88172 0.85505
 N32 N 0.30258 0.87378 0.87392
 C33 C 0.31437 0.85493 0.88188
 C34 C 0.35411 0.81490 0.88188
 N35 N 0.37283 0.80325 0.87377
 C36 C 0.38097 0.81476 0.85496
 H37 H 0.39542 0.84403 0.80955
 H38 H 0.34388 0.89638 0.80997
 H39 H 0.30959 0.89612 0.84420
 H40 H 0.30981 0.84437 0.89658
 H41 H 0.34387 0.80998 0.89674
 H42 H 0.39541 0.80936 0.84437
 C43 C 0.86769 1.35138 0.83390
 C44 C 0.86768 1.33428 0.85109
 C45 C 0.85078 1.33437 0.86797
 C46 C 0.83372 1.35157 0.86794
 C47 C 0.83373 1.36832 0.85103
 C48 C 0.85087 1.36823 0.83386
 C49 C 0.88148 1.35512 0.81492
 N50 N 0.87352 1.37394 0.80305
 C51 C 0.85468 1.38194 0.81484
 C52 C 0.81476 1.38212 0.85478
 N53 N 0.80296 1.37423 0.87367
 C54 C 0.81477 1.35542 0.88172
 C55 C 0.85448 1.31540 0.88180
 N56 N 0.87323 1.30374 0.87373
 C57 C 0.88141 1.31526 0.85493
 H58 H 0.89589 1.34428 0.81015
 H59 H 0.84413 1.39663 0.81025
 H60 H 0.81020 1.39677 0.84417
 H61 H 0.80995 1.34462 0.89615
 H62 H 0.84422 1.31047 0.89663
 H63 H 0.89587 1.30986 0.84438
 C64 C 0.86810 0.85108 0.33387
 C65 C 0.86817 0.83398 0.35108
 C66 C 0.85131 0.83402 0.36799
 C67 C 0.83419 0.85115 0.36799
 C68 C 0.83418 0.86801 0.35108
 C69 C 0.85129 0.86794 0.33389
 C70 C 0.88182 0.85482 0.31483
 N71 N 0.87385 0.87367 0.30302
 C72 C 0.85506 0.88168 0.31489
 C73 C 0.81515 0.88177 0.35485
 N74 N 0.80357 0.87363 0.37362
 C75 C 0.81518 0.85489 0.38175
 C76 C 0.85501 0.81503 0.38177
 N77 N 0.87373 0.80338 0.37365
 C78 C 0.88189 0.81493 0.35486
 H79 H 0.89649 0.84424 0.31025
 H80 H 0.84424 0.89611 0.31010
 H81 H 0.80978 0.89620 0.34425
 H82 H 0.81019 0.84463 0.39657
 H83 H 0.84474 0.81007 0.39659
 H84 H 0.89633 0.80953 0.34426
 C85 C 0.63182 0.64828 0.33419
 C86 C 0.63191 0.66545 0.35131
 C87 C 0.64880 0.66539 0.36820
 C88 C 0.66580 0.64813 0.36826
 C89 C 0.66569 0.63125 0.35136
 C90 C 0.64855 0.63136 0.33422
 C91 C 0.61806 0.64455 0.31518
 N92 N 0.62597 0.62568 0.30337
 C93 C 0.64474 0.61762 0.31523
 C94 C 0.68465 0.61741 0.35508
 N95 N 0.69631 0.62547 0.37384
 C96 C 0.68482 0.64427 0.38200
 C97 C 0.64518 0.68446 0.38192
 N98 N 0.62647 0.69614 0.37379
 C99 C 0.61826 0.68456 0.35506
 H100 H 0.60370 0.65544 0.31036
 H101 H 0.65528 0.60291 0.31068
 H102 H 0.68958 0.60259 0.34480
 H103 H 0.69025 0.65485 0.39644
 H104 H 0.65546 0.68942 0.39674
 H105 H 0.60381 0.68995 0.34447
 C106 C 0.63243 0.14895 0.83334
 C107 C 0.63241 0.16619 0.85038
 C108 C 0.64930 0.16631 0.86726
 C109 C 0.66650 0.14922 0.86729
 C110 C 0.66652 0.13234 0.85050
 C111 C 0.64934 0.13221 0.83337
 C112 C 0.61863 0.14501 0.81441
 N113 N 0.62666 0.12617 0.80264
 C114 C 0.64557 0.11834 0.81445
 C115 C 0.68554 0.11863 0.85432
 N116 N 0.69733 0.12667 0.87315
 C117 C 0.68547 0.14550 0.88108
 C118 C 0.64544 0.18533 0.88100
 N119 N 0.62662 0.19680 0.87285
 C120 C 0.61855 0.18514 0.85410
 H121 H 0.60416 0.15577 0.80959
 H122 H 0.65619 0.10368 0.80993
 H123 H 0.69011 0.10393 0.84379
 H124 H 0.69023 0.15636 0.89549
 H125 H 0.65599 0.19073 0.89547
 H126 H 0.60369 0.19003 0.84386
 C127 C 1.13220 0.64902 0.83426
 C128 C 1.13220 0.66618 0.85135
 C129 C 1.14913 0.66627 0.86820
 C130 C 1.16635 0.64920 0.86815
 C131 C 1.16633 0.63231 0.85135
 C132 C 1.14913 0.63218 0.83425
 C133 C 1.11842 0.64524 0.81527
 N134 N 1.12655 0.62650 0.80367
 C135 C 1.14534 0.61839 0.81524
 C136 C 1.18534 0.61858 0.85513
 N137 N 1.19720 0.62664 0.87391
 C138 C 1.18539 0.64549 0.88186
 C139 C 1.14532 0.68535 0.88191
 N140 N 1.12652 0.69685 0.87374
 C141 C 1.11840 0.68516 0.85504
 H142 H 1.10359 0.65548 0.81029
 H143 H 1.15595 0.60396 0.80987
 H144 H 1.19012 0.60414 0.84433
 H145 H 1.18996 0.65609 0.89652
 H146 H 1.15591 0.69079 0.89633
 H147 H 1.10356 0.69007 0.84477
 C148 C 1.13239 0.14879 0.33395
 C149 C 1.13241 0.16590 0.35113
 C150 C 1.14930 0.16580 0.36803
 C151 C 1.16634 0.14858 0.36802
 C152 C 1.16631 0.13182 0.35111
 C153 C 1.14919 0.13192 0.33393
 C154 C 1.11863 0.14506 0.31495
 N155 N 1.12657 0.12624 0.30309
 C156 C 1.14539 0.11821 0.31491
 C157 C 1.18526 0.11799 0.35487
 N158 N 1.19707 0.12586 0.37376
 C159 C 1.18529 0.14469 0.38180
 C160 C 1.14560 0.18478 0.38185
 N161 N 1.12686 0.19644 0.37377
 C162 C 1.11870 0.18493 0.35497
 H163 H 1.10422 0.15592 0.31017
 H164 H 1.15594 0.10352 0.31033
 H165 H 1.18979 0.10334 0.34425
 H166 H 1.19012 0.15548 0.39625
 H167 H 1.15585 0.18970 0.39670
 H168 H 1.10424 0.19033 0.34440
 C169 C 0.63248 1.35041 0.66651
 C170 C 0.63244 1.33333 0.64929
 C171 C 0.64932 1.33336 0.63239
 C172 C 0.66643 1.35048 0.63242
 C173 C 0.66642 1.36732 0.64935
 C174 C 0.64929 1.36725 0.66652
 C175 C 0.61872 1.35416 0.68551
 N176 N 0.62664 1.37301 0.69734
 C177 C 0.64546 1.38100 0.68552
 C178 C 0.68541 1.38111 0.64557
 N179 N 0.69699 1.37300 0.62678
 C180 C 0.68542 1.35425 0.61865
 C181 C 0.64559 1.31440 0.61857
 N182 N 0.62683 1.30279 0.62665
 C183 C 0.61868 1.31433 0.64545
 H184 H 0.60404 1.34360 0.69004
 H185 H 0.65625 1.39544 0.69032
 H186 H 0.69073 1.39556 0.65617
 H187 H 0.69041 1.34403 0.60380
 H188 H 0.65585 1.30944 0.60373
 H189 H 0.60423 1.30897 0.65602
 C190 C 0.63174 0.85131 1.16551
 C191 C 0.63172 0.83420 1.14833
 C192 C 0.64858 0.83423 1.13141
 C193 C 0.66566 0.85139 1.13140
 C194 C 0.66562 0.86826 1.14831
 C195 C 0.64852 0.86817 1.16550
 C196 C 0.61801 0.85505 1.18455
 N197 N 0.62595 0.87389 1.19638
 C198 C 0.64474 0.88190 1.18452
 C199 C 0.68461 0.88204 1.14453
 N200 N 0.69622 0.87392 1.12577
 C201 C 0.68466 0.85515 1.11764
 C202 C 0.64491 0.81521 1.11767
 N203 N 0.62620 0.80357 1.12581
 C204 C 0.61803 0.81514 1.14457
 H205 H 0.60350 0.84432 1.18922
 H206 H 0.65542 0.89645 1.18917
 H207 H 0.68994 0.89649 1.15514
 H208 H 0.68969 0.84489 1.10283
 H209 H 0.65518 0.81023 1.10285
 H210 H 0.60361 0.80975 1.15519
 C211 C 1.13224 1.35148 1.16544
 C212 C 1.13224 1.33435 1.14829
 C213 C 1.14911 1.33439 1.13137
 C214 C 1.16619 1.35157 1.13134
 C215 C 1.16616 1.36841 1.14817
 C216 C 1.14910 1.36837 1.16539
 C217 C 1.11853 1.35524 1.18451
 N218 N 1.12668 1.37400 1.19609
 C219 C 1.14539 1.38211 1.18443
 C220 C 1.18512 1.38217 1.14437
 N221 N 1.19696 1.37417 1.12555
 C222 C 1.18517 1.35533 1.11758
 C223 C 1.14541 1.31537 1.11762
 N224 N 1.12669 1.30374 1.12575
 C225 C 1.11853 1.31531 1.14453
 H226 H 1.10409 1.34466 1.18990
 H227 H 1.15564 1.39693 1.18940
 H228 H 1.18993 1.39656 1.15523
 H229 H 1.18976 1.34474 1.10292
 H230 H 1.15567 1.31039 1.10279
 H231 H 1.10410 1.30994 1.15513
 C232 C 1.13179 0.85144 0.66552
 C233 C 1.13191 0.83426 0.64841
 C234 C 1.14879 0.83434 0.63149
 C235 C 1.16575 0.85163 0.63139
 C236 C 1.16564 0.86853 0.64826
 C237 C 1.14855 0.86843 0.66544
 C238 C 1.11808 0.85516 0.68461
 N239 N 1.12616 0.87397 0.69616
 C240 C 1.14481 0.88217 0.68446
 C241 C 1.18458 0.88235 0.64454
 N242 N 1.19625 0.87427 0.62580
 C243 C 1.18477 0.85546 0.61765
 C244 C 1.14519 0.81527 0.61779
 N245 N 1.12653 0.80356 0.62595
 C246 C 1.11831 0.81513 0.64469
 H247 H 1.10373 0.84450 0.69005
 H248 H 1.15500 0.89704 0.68940
 H249 H 1.18951 0.89716 0.65482
 H250 H 1.19022 0.84486 0.60323
 H251 H 1.15547 0.81032 0.60296
 H252 H 1.10389 0.80972 0.65530
 C253 C 0.36772 0.64858 0.66570
 C254 C 0.36776 0.66569 0.64852
 C255 C 0.35095 0.66560 0.63155
 C256 C 0.33389 0.64840 0.63148
 C257 C 0.33387 0.63158 0.64833
 C258 C 0.35088 0.63167 0.66561
 C259 C 0.38138 0.64483 0.68481
 N260 N 0.37322 0.62607 0.69637
 C261 C 0.35455 0.61793 0.68466
 C262 C 0.31495 0.61779 0.64447
 N263 N 0.30317 0.62575 0.62559
 C264 C 0.31497 0.64459 0.61765
 C265 C 0.35467 0.68459 0.61777
 N266 N 0.37335 0.69626 0.62594
 C267 C 0.38146 0.68474 0.64476
 H268 H 0.39580 0.65543 0.69023
 H269 H 0.34431 0.60310 0.68960
 H270 H 0.31012 0.60340 0.65533
 H271 H 0.31043 0.65517 0.60295
 H272 H 0.34446 0.68952 0.60289
 H273 H 0.39586 0.69014 0.65540
 C274 C 0.36770 0.14861 1.16552
 C275 C 0.36773 0.16577 1.14839
 C276 C 0.35088 0.16576 1.13145
 C277 C 0.33379 0.14859 1.13137
 C278 C 0.33380 0.13172 1.14817
 C279 C 0.35084 0.13173 1.16541
 C280 C 0.38139 0.14481 1.18460
 N281 N 0.37322 0.12603 1.19612
 C282 C 0.35451 0.11795 1.18443
 C283 C 0.31485 0.11796 1.14433
 N284 N 0.30303 0.12598 1.12550
 C285 C 0.31483 0.14484 1.11758
 C286 C 0.35461 0.18481 1.11774
 N287 N 0.37333 0.19640 1.12591
 C288 C 0.38146 0.18480 1.14468
 H289 H 0.39582 0.15537 1.19002
 H290 H 0.34426 0.10312 1.18935
 H291 H 0.31003 0.10356 1.15516
 H292 H 0.31026 0.15545 1.10292
 H293 H 0.34438 0.18981 1.10290
 H294 H 0.39588 0.19014 1.15531
 C295 C 0.86831 0.64892 1.16572
 C296 C 0.86836 0.66606 1.14860
 C297 C 0.85147 0.66616 1.13171
 C298 C 0.83425 0.64913 1.13174
 C299 C 0.83422 0.63221 1.14861
 C300 C 0.85138 0.63210 1.16574
 C301 C 0.88205 0.64516 1.18475
 N302 N 0.87390 0.62644 1.19637
 C303 C 0.85513 0.61834 1.18478
 C304 C 0.81516 0.61853 1.14483
 N305 N 0.80357 0.62675 1.12609
 C306 C 0.81520 0.64549 1.11800
 C307 C 0.85529 0.68521 1.11800
 N308 N 0.87406 0.69672 1.12620
 C309 C 0.88215 0.68503 1.14493
 H310 H 0.89688 0.65538 1.18974
 H311 H 0.84452 0.60393 1.19015
 H312 H 0.80980 0.60407 1.15539
 H313 H 0.81022 0.65578 1.10319
 H314 H 0.84470 0.69066 1.10357
 H315 H 0.89695 0.68996 1.15523
 C316 C 0.86768 0.14897 0.66610
 C317 C 0.86777 0.16606 0.64890
 C318 C 0.85094 0.16603 0.63194
 C319 C 0.83383 0.14891 0.63192
 C320 C 0.83378 0.13207 0.64886
 C321 C 0.85084 0.13216 0.66610
 C322 C 0.88139 0.14521 0.68514
 N323 N 0.87338 0.12643 0.69699
 C324 C 0.85456 0.11845 0.68515
 C325 C 0.81477 0.11832 0.64504
 N326 N 0.80325 0.12643 0.62621
 C327 C 0.81487 0.14516 0.61810
 C328 C 0.85471 0.18501 0.61815
 N329 N 0.87343 0.19661 0.62630
 C330 C 0.88153 0.18506 0.64512
 H331 H 0.89580 0.15602 0.68994
 H332 H 0.84399 0.10379 0.68970
 H333 H 0.80939 0.10389 0.65564
 H334 H 0.80992 0.15540 0.60325
 H335 H 0.84448 0.18998 0.60330
 H336 H 0.89595 0.19042 0.65574
 C337 C 1.35141 0.36737 0.66590
 C338 C 1.33429 0.36734 0.64875
 C339 C 1.33437 0.35046 0.63184
 C340 C 1.35159 0.33341 0.63182
 C341 C 1.36839 0.33342 0.64869
 C342 C 1.36833 0.35051 0.66588
 C343 C 1.35516 0.38111 0.68495
 N344 N 1.37393 0.37298 0.69654
 C345 C 1.38207 0.35425 0.68491
 C346 C 1.38218 0.31445 0.64492
 N347 N 1.37425 0.30264 0.62605
 C348 C 1.35543 0.31445 0.61804
 C349 C 1.31536 0.35416 0.61805
 N350 N 1.30370 0.37289 0.62615
 C351 C 1.31524 0.38105 0.64494
 H352 H 1.34456 0.39556 0.69031
 H353 H 1.39690 0.34401 0.68990
 H354 H 1.39683 0.30990 0.65554
 H355 H 1.34461 0.30962 0.60362
 H356 H 1.31043 0.34390 0.60321
 H357 H 1.30985 0.39551 0.65551
 C358 C 1.35109 0.86763 1.16589
 C359 C 1.33399 0.86761 1.14871
 C360 C 1.33403 0.85067 1.13186
 C361 C 1.35121 0.83358 1.13192
 C362 C 1.36799 0.83363 1.14882
 C363 C 1.36793 0.85081 1.16594
 C364 C 1.35485 0.88143 1.18485
 N365 N 1.37367 0.87350 1.19672
 C366 C 1.38167 0.85464 1.18494
 C367 C 1.38178 0.81466 1.14511
 N368 N 1.37388 0.80280 1.12626
 C369 C 1.35506 0.81459 1.11819
 C370 C 1.31505 0.85439 1.11804
 N371 N 1.30344 0.87318 1.12608
 C372 C 1.31498 0.88136 1.14485
 H373 H 1.34411 0.89597 1.18948
 H374 H 1.39623 0.84397 1.18963
 H375 H 1.39643 0.81013 1.15574
 H376 H 1.34427 0.80975 1.10375
 H377 H 1.31009 0.84411 1.10322
 H378 H 1.30963 0.89585 1.15539
 C379 C 0.85123 0.36772 1.16629
 C380 C 0.83411 0.36771 1.14911
 C381 C 0.83422 0.35085 1.13219
 C382 C 0.85145 0.33382 1.13217
 C383 C 0.86823 0.33384 1.14907
 C384 C 0.86811 0.35094 1.16627
 C385 C 0.85496 0.38146 1.18531
 N386 N 0.87380 0.37351 1.19714
 C387 C 0.88183 0.35472 1.18529
 C388 C 0.88206 0.31491 1.14529
 N389 N 0.87418 0.30312 1.12639
 C390 C 0.85534 0.31490 1.11837
 C391 C 0.81523 0.35454 1.11838
 N392 N 0.80354 0.37325 1.12649
 C393 C 0.81505 0.38141 1.14530
 H394 H 0.84410 0.39585 1.19012
 H395 H 0.89653 0.34417 1.18984
 H396 H 0.89672 0.31037 1.15590
 H397 H 0.84454 0.31008 1.10393
 H398 H 0.81032 0.34430 1.10352
 H399 H 0.80963 0.39584 1.15589
 C400 C 0.85140 0.86856 0.66538
 C401 C 0.83437 0.86838 0.64813
 C402 C 0.83454 0.85137 0.63136
 C403 C 0.85179 0.83435 0.63154
 C404 C 0.86857 0.83453 0.64854
 C405 C 0.86840 0.85179 0.66556
 C406 C 0.85496 0.88243 0.68436
 N407 N 0.87372 0.87450 0.69609
 C408 C 0.88203 0.85574 0.68464
 C409 C 0.88243 0.81556 0.64499
 N410 N 0.87449 0.80382 0.62624
 C411 C 0.85573 0.81527 0.61791
 C412 C 0.81556 0.85492 0.61749
 N413 N 0.80383 0.87368 0.62542
 C414 C 0.81530 0.88200 0.64418
 H415 H 0.84458 0.89720 0.68924
 H416 H 0.89652 0.84527 0.69012
 H417 H 0.89721 0.81069 0.65537
 H418 H 0.84525 0.80979 0.60342
 H419 H 0.81067 0.84454 0.60272
 H420 H 0.80983 0.89650 0.65466
 C421 C 0.64817 0.63136 0.66549
 C422 C 0.66551 0.63145 0.64855
 C423 C 0.66566 0.64836 0.63167
 C424 C 0.64849 0.66547 0.63152
 C425 C 0.63144 0.66540 0.64826
 C426 C 0.63128 0.64824 0.66535
 C427 C 0.64426 0.61763 0.68452
 N428 N 0.62543 0.62580 0.69597
 C429 C 0.61739 0.64453 0.68428
 C430 C 0.61773 0.68443 0.64450
 N431 N 0.62601 0.69612 0.62586
 C432 C 0.64483 0.68457 0.61781
 C433 C 0.68483 0.64464 0.61811
 N434 N 0.69637 0.62590 0.62636
 C435 C 0.68459 0.61775 0.64500
 H436 H 0.65484 0.60322 0.69000
 H437 H 0.60257 0.65483 0.68918
 H438 H 0.60284 0.68939 0.65467
 H439 H 0.65555 0.68999 0.60348
 H440 H 0.69030 0.65524 0.60370
 H441 H 0.68950 0.60293 0.65529
 C442 C 0.64835 1.13211 1.16598
 C443 C 0.66562 1.13215 1.14898
 C444 C 0.66576 1.14909 1.13214
 C445 C 0.64863 1.16625 1.13211
 C446 C 0.63171 1.16620 1.14886
 C447 C 0.63157 1.14898 1.16595
 C448 C 0.64443 1.11829 1.18490
 N449 N 0.62557 1.12629 1.19667
 C450 C 0.61770 1.14518 1.18486
 C451 C 0.61800 1.18521 1.14509
 N452 N 0.62607 1.19709 1.12633
 C453 C 0.64493 1.18528 1.11839
 C454 C 0.68486 1.14531 1.11848
 N455 N 0.69636 1.12651 1.12664
 C456 C 0.68463 1.11838 1.14532
 H457 H 0.65523 1.10387 1.18974
 H458 H 0.60303 1.15578 1.18939
 H459 H 0.60328 1.18974 1.15563
 H460 H 0.65583 1.19012 1.10403
 H461 H 0.69030 1.15592 1.10406
 H462 H 0.68953 1.10352 1.15556
 C463 C 0.14923 0.63304 1.16659
 C464 C 0.16636 0.63306 1.14942
 C465 C 0.16634 0.64999 1.13258
 C466 C 0.14915 0.66709 1.13262
 C467 C 0.13237 0.66705 1.14951
 C468 C 0.13241 0.64988 1.16664
 C469 C 0.14542 0.61919 1.18551
 N470 N 0.12659 0.62712 1.19736
 C471 C 0.11864 0.64602 1.18562
 C472 C 0.11856 0.68601 1.14575
 N473 N 0.12646 0.69783 1.12688
 C474 C 0.14529 0.68605 1.11885
 C475 C 0.18530 0.64624 1.11874
 N476 N 0.19688 0.62743 1.12677
 C477 C 0.18533 0.61927 1.14555
 H478 H 0.15623 0.60474 1.19024
 H479 H 0.10395 0.65657 1.19020
 H480 H 0.10388 0.69053 1.15635
 H481 H 0.15608 0.69086 1.10440
 H482 H 0.19026 0.65650 1.10391
 H483 H 0.19066 0.60475 1.15607
 C484 C 0.14892 1.13240 0.66641
 C485 C 0.16615 1.13235 0.64937
 C486 C 0.16632 1.14926 0.63249
 C487 C 0.14927 1.16649 0.63249
 C488 C 0.13235 1.16651 0.64925
 C489 C 0.13220 1.14934 0.66638
 C490 C 0.14497 1.11860 0.68533
 N491 N 0.12614 1.12665 0.69710
 C492 C 0.11833 1.14557 0.68531
 C493 C 0.11864 1.18552 0.64541
 N494 N 0.12674 1.19734 0.62662
 C495 C 0.14559 1.18550 0.61873
 C496 C 0.18536 1.14537 0.61878
 N497 N 0.19680 1.12653 0.62695
 C498 C 0.18509 1.11848 0.64567
 H499 H 0.15572 1.10413 0.69015
 H500 H 0.10367 1.15620 0.68983
 H501 H 0.10418 1.19034 0.65618
 H502 H 0.15623 1.19004 0.60408
 H503 H 0.19081 1.15592 0.60434
 H504 H 0.18993 1.10361 0.65592
 C505 C 1.35116 0.63212 0.33400
 C506 C 1.33407 0.63217 0.35119
 C507 C 1.33411 0.64912 0.36803
 C508 C 1.35129 0.66619 0.36794
 C509 C 1.36807 0.66610 0.35104
 C510 C 1.36802 0.64890 0.33395
 C511 C 1.35489 0.61831 0.31503
 N512 N 1.37374 0.62620 0.30317
 C513 C 1.38176 0.64503 0.31495
 C514 C 1.38186 0.68506 0.35473
 N515 N 1.37397 0.69694 0.37358
 C516 C 1.35515 0.68519 0.38166
 C517 C 1.31513 0.64544 0.38185
 N518 N 1.30352 0.62666 0.37383
 C519 C 1.31506 0.61845 0.35506
 H520 H 1.34430 0.60364 0.31052
 H521 H 1.39618 0.65582 0.31010
 H522 H 1.39652 0.68955 0.34410
 H523 H 1.34437 0.69006 0.39609
 H524 H 1.31017 0.65574 0.39666
 H525 H 1.30970 0.60396 0.34453
 C526 C 1.35101 1.13260 0.83402
 C527 C 1.33386 1.13263 0.85116
 C528 C 1.33390 1.14950 0.86807
 C529 C 1.35110 1.16656 0.86811
 C530 C 1.36796 1.16652 0.85130
 C531 C 1.36792 1.14945 0.83408
 C532 C 1.35481 1.11884 0.81500
 N533 N 1.37361 1.12694 0.80346
 C534 C 1.38172 1.14568 0.81508
 C535 C 1.38176 1.18544 0.85515
 N536 N 1.37378 1.19726 0.87399
 C537 C 1.35490 1.18551 0.88191
 C538 C 1.31488 1.14580 0.88183
 N539 N 1.30326 1.12707 0.87371
 C540 C 1.31483 1.11891 0.85493
 H541 H 1.34424 1.10440 0.80964
 H542 H 1.39657 1.15588 0.81014
 H543 H 1.39620 1.19021 0.84434
 H544 H 1.34429 1.19009 0.89657
 H545 H 1.30991 1.15604 0.89667
 H546 H 1.30948 1.10446 0.84434
 C547 C 0.85129 0.63219 0.83451
 C548 C 0.83411 0.63211 0.85163
 C549 C 0.83409 0.64892 0.86861
 C550 C 0.85124 0.66600 0.86876
 C551 C 0.86818 0.66607 0.85193
 C552 C 0.86818 0.64907 0.83465
 C553 C 0.85512 0.61854 0.81541
 N554 N 0.87391 0.62673 0.80392
 C555 C 0.88198 0.64542 0.81564
 C556 C 0.88190 0.68507 0.85582
 N557 N 0.87368 0.69659 0.87459
 C558 C 0.85490 0.68496 0.88260
 C559 C 0.81503 0.64518 0.88229
 N560 N 0.80342 0.62649 0.87406
 C561 C 0.81505 0.61839 0.85529
 H562 H 0.84457 0.60410 0.80997
 H563 H 0.89681 0.65568 0.81075
 H564 H 0.89637 0.69047 0.84527
 H565 H 0.84457 0.68992 0.89739
 H566 H 0.81001 0.65538 0.89714
 H567 H 0.80971 0.60400 0.84462
 C568 C 0.85155 1.13181 0.33491
 C569 C 0.83437 1.13173 0.35202
 C570 C 0.83438 1.14849 0.36905
 C571 C 0.85157 1.16553 0.36925
 C572 C 0.86851 1.16560 0.35242
 C573 C 0.86847 1.14864 0.33510
 C574 C 0.85533 1.11822 0.31576
 N575 N 0.87412 1.12642 0.30427
 C576 C 0.88225 1.14504 0.31606
 C577 C 0.88226 1.18458 0.35632
 N578 N 0.87405 1.19609 0.37511
 C579 C 0.85526 1.18448 0.38311
 C580 C 0.81529 1.14477 0.38269
 N581 N 0.80364 1.12614 0.37440
 C582 C 0.81526 1.11806 0.35562
 H583 H 0.84474 1.10384 0.31025
 H584 H 0.89709 1.15530 0.31119
 H585 H 0.89672 1.18998 0.34578
 H586 H 0.84492 1.18945 0.39789
 H587 H 0.81027 1.15496 0.39756
 H588 H 0.80989 1.10371 0.34490
 C589 C 0.64902 0.36781 0.33402
 C590 C 0.66613 0.36769 0.35121
 C591 C 0.66605 0.35073 0.36804
 C592 C 0.64882 0.33372 0.36798
 C593 C 0.63198 0.33389 0.35104
 C594 C 0.63209 0.35110 0.33397
 C595 C 0.64532 0.38164 0.31505
 N596 N 0.62644 0.37382 0.30321
 C597 C 0.61836 0.35502 0.31499
 C598 C 0.61812 0.31496 0.35469
 N599 N 0.62611 0.30325 0.37344
 C600 C 0.64491 0.31469 0.38168
 C601 C 0.68504 0.35436 0.38186
 N602 N 0.69670 0.37311 0.37385
 C603 C 0.68518 0.38136 0.35508
 H604 H 0.65594 0.39628 0.31054
 H605 H 0.60391 0.34427 0.31014
 H606 H 0.60330 0.31009 0.34437
 H607 H 0.65542 0.30923 0.39615
 H608 H 0.68997 0.34405 0.39667
 H609 H 0.69057 0.39585 0.34457
 C610 C 0.64835 0.86810 0.83442
 C611 C 0.66560 0.86823 0.85144
 C612 C 0.66577 0.85145 0.86844
 C613 C 0.64873 0.83423 0.86861
 C614 C 0.63172 0.83411 0.85183
 C615 C 0.63156 0.85114 0.83459
 C616 C 0.64441 0.88175 0.81535
 N617 N 0.62565 0.87348 0.80388
 C618 C 0.61769 0.85474 0.81560
 C619 C 0.61806 0.81509 0.85576
 N620 N 0.62635 0.80359 0.87451
 C621 C 0.64514 0.81525 0.88247
 C622 C 0.68485 0.85537 0.88208
 N623 N 0.69630 0.87412 0.87376
 C624 C 0.68456 0.88208 0.85501
 H625 H 0.65490 0.89622 0.80988
 H626 H 0.60292 0.84439 0.81071
 H627 H 0.60356 0.80967 0.84527
 H628 H 0.65550 0.81033 0.89724
 H629 H 0.69032 0.84489 0.89658
 H630 H 0.68943 0.89685 0.84464
 C631 C 0.14861 0.36848 0.83419
 C632 C 0.16583 0.36835 0.85125
 C633 C 0.16591 0.35137 0.86807
 C634 C 0.14877 0.33426 0.86802
 C635 C 0.13184 0.33442 0.85117
 C636 C 0.13176 0.35169 0.83416
 C637 C 0.14483 0.38231 0.81525
 N638 N 0.12597 0.37442 0.80343
 C639 C 0.11797 0.35558 0.81521
 C640 C 0.11808 0.31541 0.85481
 N641 N 0.12622 0.30367 0.87348
 C642 C 0.14501 0.31515 0.88166
 C643 C 0.18501 0.35506 0.88176
 N644 N 0.19656 0.37384 0.87363
 C645 C 0.18487 0.38205 0.85496
 H646 H 0.15544 0.39695 0.81072
 H647 H 0.10357 0.34478 0.81036
 H648 H 0.10322 0.31053 0.84456
 H649 H 0.15561 0.30969 0.89608
 H650 H 0.19042 0.34441 0.89615
 H651 H 0.18981 0.39690 0.84474
 C652 C 0.14847 0.86812 0.33382
 C653 C 0.16576 0.86799 0.35081
 C654 C 0.16591 0.85101 0.36763
 C655 C 0.14877 0.83389 0.36764
 C656 C 0.13178 0.83404 0.35084
 C657 C 0.13166 0.85130 0.33382
 C658 C 0.14458 0.88198 0.31493
 N659 N 0.12571 0.87406 0.30314
 C660 C 0.11782 0.85517 0.31491
 C661 C 0.11804 0.81503 0.35453
 N662 N 0.12624 0.80330 0.37318
 C663 C 0.14505 0.81479 0.38130
 C664 C 0.18503 0.85472 0.38127
 N665 N 0.19653 0.87352 0.37313
 C666 C 0.18478 0.88172 0.35449
 H667 H 0.15540 0.89639 0.31012
 H668 H 0.10314 0.84460 0.31035
 H669 H 0.10316 0.81014 0.34432
 H670 H 0.15570 0.80934 0.39569
 H671 H 0.19048 0.84409 0.39566
 H672 H 0.18967 0.89660 0.34428
 O673 O 0.97732 0.91685 0.88497
 O674 O 0.97725 0.88998 0.85794
 C675 C 0.96941 0.90879 0.86614
 C676 C 0.95057 0.92117 0.85401
 C677 C 0.94280 0.91369 0.83225
 H678 H 0.95098 0.89911 0.82381
 O679 O 1.02239 1.08368 0.88477
 O680 O 1.02242 1.11054 0.85773
 C681 C 1.03027 1.09174 0.86593
 C682 C 1.04910 1.07936 0.85378
 C683 C 1.05687 1.08687 0.83203
 H684 H 1.04868 1.10147 0.82361
 O685 O 0.88473 0.97795 0.91655
 O686 O 0.85772 0.97792 0.88966
 C687 C 0.86592 0.97007 0.90848
 C688 C 0.85379 0.95124 0.92085
 C689 C 0.83208 0.94345 0.91331
 H690 H 0.82367 0.95162 0.89870
 O691 O 1.11495 1.02271 0.91635
 O692 O 1.14196 1.02270 0.88945
 C693 C 1.13377 1.03058 0.90826
 C694 C 1.14589 1.04942 0.92061
 C695 C 1.16758 1.05724 0.91303
 H696 H 1.17599 1.04908 0.89841
 O697 O 0.91637 0.88543 0.97757
 O698 O 0.88951 0.85844 0.97757
 C699 C 0.90831 0.86661 0.96971
 C700 C 0.92068 0.85444 0.95089
 C701 C 0.91321 0.83268 0.94318
 H702 H 0.89864 0.82428 0.95140
 O703 O 1.08337 1.11524 0.97740
 O704 O 1.11023 1.14224 0.97737
 C705 C 1.09144 1.13405 0.96951
 C706 C 1.07909 1.14619 0.95065
 C707 C 1.08664 1.16789 0.94284
 H708 H 1.10123 1.17629 0.95103
 O709 O 0.91638 1.02295 0.88485
 O710 O 0.88953 1.02297 0.85780
 C711 C 0.90831 1.03082 0.86601
 C712 C 0.92067 1.04965 0.85386
 C713 C 0.91312 1.05745 0.83212
 H714 H 0.89853 1.04928 0.82371
 O715 O 1.08328 0.97767 0.88476
 O716 O 1.11012 0.97758 0.85770
 C717 C 1.09133 0.96975 0.86593
 C718 C 1.07896 0.95090 0.85383
 C719 C 1.08645 0.94307 0.83209
 H720 H 1.10103 0.95123 0.82363
 O721 O 1.02239 0.88520 0.91661
 O722 O 1.02240 0.85817 0.88975
 C723 C 1.03027 0.86638 0.90854
 C724 C 1.04914 0.85426 0.92091
 C725 C 1.05697 0.83255 0.91337
 H726 H 1.04880 0.82413 0.89877
 O727 O 0.97739 1.11536 0.91647
 O728 O 0.97736 1.14238 0.88959
 C729 C 0.96951 1.13419 0.90840
 C730 C 0.95068 1.14632 0.92079
 C731 C 0.94287 1.16804 0.91325
 H732 H 0.95104 1.17645 0.89864
 O733 O 0.88481 1.08388 0.97752
 O734 O 0.85782 1.11077 0.97752
 C735 C 0.86600 1.09198 0.96964
 C736 C 0.85387 1.07966 0.95075
 C737 C 0.83217 1.08723 0.94292
 H738 H 0.82376 1.10183 0.95111
 O739 O 1.11497 0.91682 0.97754
 O740 O 1.14200 0.88996 0.97749
 C741 C 1.13378 0.90875 0.96963
 C742 C 1.14588 0.92109 0.95074
 C743 C 1.16762 0.91358 0.94297
 H744 H 1.17607 0.89902 0.95119
 O745 O 0.97734 1.08377 0.88477
 O746 O 0.97731 1.11062 0.85773
 C747 C 0.96944 1.09185 0.86594
 C748 C 0.95057 1.07952 0.85383
 C749 C 0.94276 1.08705 0.83209
 H750 H 0.95094 1.10162 0.82365
 O751 O 1.02236 0.91680 0.88492
 O752 O 1.02235 0.88993 0.85789
 C753 C 1.03022 0.90871 0.86607
 C754 C 1.04905 0.92104 0.85391
 C755 C 1.05681 0.91348 0.83216
 H756 H 1.04861 0.89890 0.82376
 O757 O 1.11491 0.97767 0.91643
 O758 O 1.14192 0.97759 0.88953
 C759 C 1.13373 0.96976 0.90836
 C760 C 1.14586 0.95094 0.92076
 C761 C 1.16760 0.94316 0.91326
 H762 H 1.17602 0.95133 0.89865
 O763 O 0.88478 1.02300 0.91655
 O764 O 0.85776 1.02303 0.88966
 C765 C 0.86596 1.03089 0.90846
 C766 C 0.85386 1.04976 0.92082
 C767 C 0.83216 1.05761 0.91326
 H768 H 0.82374 1.04944 0.89865
 O769 O 0.91650 1.11541 0.97750
 O770 O 0.88968 1.14248 0.97750
 C771 C 0.90845 1.13425 0.96962
 C772 C 0.92080 1.14635 0.95074
 C773 C 0.91327 1.16806 0.94293
 H774 H 0.89868 1.17649 0.95113
 O775 O 1.08334 0.88522 0.97758
 O776 O 1.11020 0.85820 0.97753
 C777 C 1.09141 0.86640 0.96969
 C778 C 1.07904 0.85428 0.95084
 C779 C 1.08659 0.83257 0.94304
 H780 H 1.10119 0.82416 0.95123
 O781 O 1.08329 1.02272 0.88473
 O782 O 1.11012 1.02269 0.85765
 C783 C 1.09135 1.03058 0.86587
 C784 C 1.07899 1.04943 0.85375
 C785 C 1.08649 1.05722 0.83200
 H786 H 1.10107 1.04903 0.82355
 O787 O 0.91642 0.97789 0.88495
 O788 O 0.88957 0.97786 0.85789
 C789 C 0.90836 0.97000 0.86611
 C790 C 0.92071 0.95113 0.85400
 C791 C 0.91321 0.94337 0.83224
 H792 H 0.89865 0.95160 0.82379
 O793 O 1.02244 1.11532 0.91642
 O794 O 1.02247 1.14234 0.88954
 C795 C 1.03033 1.13413 0.90834
 C796 C 1.04919 1.14622 0.92071
 C797 C 1.05702 1.16792 0.91317
 H798 H 1.04885 1.17635 0.89856
 O799 O 0.97734 0.88524 0.91664
 O800 O 0.97728 0.85820 0.88978
 C801 C 0.96945 0.86642 0.90859
 C802 C 0.95061 0.85434 0.92098
 C803 C 0.94287 0.83258 0.91354
 H804 H 0.95108 0.82410 0.89899
 O805 O 1.11499 1.08359 0.97736
 O806 O 1.14201 1.11042 0.97732
 C807 C 1.13380 1.09165 0.96945
 C808 C 1.14590 1.07930 0.95056
 C809 C 1.16759 1.08685 0.94272
 H810 H 1.17600 1.10144 0.95090
 O811 O 0.88473 0.91707 0.97756
 O812 O 0.85771 0.89024 0.97755
 C813 C 0.86591 0.90901 0.96967
 C814 C 0.85379 0.92136 0.95080
 C815 C 0.83208 0.91384 0.94299
 H816 H 0.82366 0.89926 0.95118
 Cu817 Cu 0.99986 0.90371 0.90348
 Cu818 Cu 0.99981 0.87136 0.87113
 Cu819 Cu 0.99989 1.09684 0.90330
 Cu820 Cu 0.99989 1.12918 0.87093
 Cu821 Cu 0.90327 1.00045 0.90342
 Cu822 Cu 0.87094 1.00044 0.87104
 Cu823 Cu 1.09642 1.00020 0.90326
 Cu824 Cu 1.12874 1.00013 0.87087
 C825 C 0.93955 0.94005 0.86464
 H826 H 0.94524 0.94573 0.88155
 C827 C 0.92425 0.92478 0.82140
 C828 C 1.06013 1.06048 0.86438
 H829 H 1.05444 1.05478 0.88129
 C830 C 1.07544 1.07582 0.82117
 C831 C 0.86440 0.94022 0.93975
 H832 H 0.88127 0.94593 0.94547
 C833 C 0.82126 0.92487 0.92437
 C834 C 1.13530 1.06043 0.93953
 H835 H 1.11844 1.05471 0.94527
 C836 C 1.17840 1.07583 0.92408
 C837 C 0.93954 0.86502 0.93982
 H838 H 0.94521 0.88193 0.94546
 C839 C 0.92429 0.82179 0.92463
 C840 C 1.06021 1.13561 0.93961
 H841 H 1.05449 1.11874 0.94533
 C842 C 1.07561 1.17872 0.92423
 C843 C 0.93955 1.06066 0.86446
 H844 H 0.94527 1.05495 0.88135
 C845 C 0.92416 1.07602 0.82127
 C846 C 1.06010 0.93991 0.86449
 H847 H 1.05441 0.94564 0.88139
 C848 C 1.07538 0.92449 0.82129
 C849 C 1.06016 0.86488 0.93980
 H850 H 1.05443 0.88175 0.94551
 C851 C 1.07557 0.82174 0.92443
 C852 C 0.93966 1.13573 0.93969
 H853 H 0.94538 1.11885 0.94541
 C854 C 0.92429 1.17887 0.92432
 C855 C 0.86445 1.06077 0.93972
 H856 H 0.88132 1.05502 0.94545
 C857 C 0.82135 1.07621 0.92430
 C858 C 1.13525 0.93992 0.93966
 H859 H 1.11836 0.94562 0.94535
 C860 C 1.17844 0.92461 0.92435
 O861 O 1.02243 0.91693 1.11523
 O862 O 1.02246 0.89008 1.14229
 C863 C 1.03031 0.90887 1.13407
 C864 C 1.04914 0.92123 1.14621
 C865 C 1.05686 0.91376 1.16800
 H866 H 1.04863 0.89922 1.17646
 O867 O 0.97751 1.08373 1.11533
 O868 O 0.97749 1.11061 1.14235
 C869 C 0.96963 1.09182 1.13416
 C870 C 0.95079 1.07948 1.14631
 C871 C 0.94303 1.08699 1.16807
 H872 H 0.95124 1.10156 1.17650
 O873 O 0.88493 1.02298 1.08371
 O874 O 0.85791 1.02305 1.11060
 C875 C 0.86612 1.03089 1.09179
 C876 C 0.85400 1.04974 1.07940
 C877 C 0.83229 1.05755 1.08693
 H878 H 0.82387 1.04939 1.10154
 O879 O 1.11509 0.97771 1.08364
 O880 O 1.14212 0.97765 1.11052
 C881 C 1.13391 0.96980 1.09172
 C882 C 1.14602 0.95095 1.07934
 C883 C 1.16773 0.94311 1.08687
 H884 H 1.17616 0.95127 1.10148
 O885 O 1.08341 0.88520 1.02269
 O886 O 1.11027 0.85817 1.02269
 C887 C 1.09149 0.86638 1.03058
 C888 C 1.07915 0.85428 1.04946
 C889 C 1.08670 0.83258 1.05731
 H890 H 1.10131 0.82416 1.04913
 O891 O 0.91653 1.11542 1.02260
 O892 O 0.88971 1.14248 1.02266
 C893 C 0.90850 1.13425 1.03051
 C894 C 0.92089 1.14634 1.04936
 C895 C 0.91344 1.16810 1.05713
 H896 H 0.89888 1.17657 1.04892
 O897 O 0.91648 0.97785 1.11536
 O898 O 0.88963 0.97786 1.14242
 C899 C 0.90841 0.96997 1.13420
 C900 C 0.92074 0.95108 1.14631
 C901 C 0.91320 0.94325 1.16803
 H902 H 0.89861 0.95143 1.17647
 O903 O 1.08350 1.02281 1.11529
 O904 O 1.11036 1.02282 1.14232
 C905 C 1.09158 1.03069 1.13412
 C906 C 1.07923 1.04955 1.14626
 C907 C 1.08676 1.05734 1.16799
 H908 H 1.10135 1.04915 1.17642
 O909 O 0.97740 0.88532 1.08356
 O910 O 0.97737 0.85829 1.11044
 C911 C 0.96951 0.86651 1.09163
 C912 C 0.95066 0.85442 1.07926
 C913 C 0.94290 0.83268 1.08674
 H914 H 0.95112 0.82422 1.10130
 O915 O 1.02254 1.11528 1.08361
 O916 O 1.02259 1.14233 1.11046
 C917 C 1.03044 1.13410 1.09166
 C918 C 1.04927 1.14619 1.07926
 C919 C 1.05708 1.16791 1.08676
 H920 H 1.04891 1.17635 1.10137
 O921 O 0.88476 0.91711 1.02266
 O922 O 0.85774 0.89028 1.02271
 C923 C 0.86595 0.90906 1.03056
 C924 C 0.85384 0.92143 1.04943
 C925 C 0.83210 0.91396 1.05720
 H926 H 0.82366 0.89940 1.04899
 O927 O 1.11502 1.08357 1.02247
 O928 O 1.14205 1.11039 1.02248
 C929 C 1.13385 1.09161 1.03035
 C930 C 1.14599 1.07924 1.04919
 C931 C 1.16777 1.08668 1.05689
 H932 H 1.17622 1.10121 1.04863
 O933 O 1.02256 1.08371 1.11532
 O934 O 1.02260 1.11059 1.14234
 C935 C 1.03046 1.09180 1.13415
 C936 C 1.04932 1.07945 1.14627
 C937 C 1.05712 1.08697 1.16801
 H938 H 1.04893 1.10155 1.17645
 O939 O 0.97738 0.91688 1.11528
 O940 O 0.97735 0.89002 1.14232
 C941 C 0.96949 0.90881 1.13412
 C942 C 0.95063 0.92116 1.14626
 C943 C 0.94283 0.91360 1.16798
 H944 H 0.95101 0.89900 1.17639
 O945 O 1.11505 1.02274 1.08355
 O946 O 1.14209 1.02276 1.11041
 C947 C 1.13388 1.03060 1.09160
 C948 C 1.14601 1.04940 1.07917
 C949 C 1.16779 1.05711 1.08660
 H950 H 1.17625 1.04891 1.10117
 O951 O 0.88484 0.97794 1.08371
 O952 O 0.85783 0.97795 1.11060
 C953 C 0.86601 0.97010 1.09178
 C954 C 0.85387 0.95130 1.07939
 C955 C 0.83212 0.94355 1.08690
 H956 H 0.82370 0.95174 1.10150
 O957 O 1.08339 1.11521 1.02251
 O958 O 1.11025 1.14220 1.02253
 C959 C 1.09147 1.13402 1.03041
 C960 C 1.07913 1.14614 1.04929
 C961 C 1.08667 1.16786 1.05706
 H962 H 1.10124 1.17626 1.04884
 O963 O 0.91638 0.88545 1.02266
 O964 O 0.88952 0.85846 1.02271
 C965 C 0.90832 0.86664 1.03055
 C966 C 0.92071 0.85449 1.04938
 C967 C 0.91322 0.83275 1.05712
 H968 H 0.89864 0.82434 1.04892
 O969 O 1.08340 0.97777 1.11524
 O970 O 1.11025 0.97771 1.14229
 C971 C 1.09145 0.96989 1.13408
 C972 C 1.07906 0.95108 1.14622
 C973 C 1.08651 0.94334 1.16801
 H974 H 1.10107 0.95153 1.17647
 O975 O 0.91655 1.02290 1.11537
 O976 O 0.88970 1.02297 1.14243
 C977 C 0.90850 1.03079 1.13422
 C978 C 0.92088 1.04961 1.14634
 C979 C 0.91340 1.05740 1.16810
 H980 H 0.89883 1.04922 1.17656
 O981 O 0.97749 1.11531 1.08362
 O982 O 0.97748 1.14236 1.11047
 C983 C 0.96962 1.13415 1.09167
 C984 C 0.95080 1.14629 1.07929
 C985 C 0.94308 1.16805 1.08678
 H986 H 0.95129 1.17647 1.10135
 O987 O 1.02246 0.88523 1.08363
 O988 O 1.02249 0.85823 1.11052
 C989 C 1.03035 0.86642 1.09172
 C990 C 1.04923 0.85430 1.07937
 C991 C 1.05705 0.83260 1.08695
 H992 H 1.04887 0.82420 1.10156
 O993 O 1.11502 0.91682 1.02265
 O994 O 1.14204 0.88996 1.02265
 C995 C 1.13385 0.90874 1.03053
 C996 C 1.14598 0.92108 1.04939
 C997 C 1.16769 0.91351 1.05718
 H998 H 1.17610 0.89892 1.04898
 O999 O 0.88489 1.08383 1.02263
 O1000 O 0.85789 1.11073 1.02269
 C1001 C 0.86609 1.09193 1.03054
 C1002 C 0.85398 1.07960 1.04943
 C1003 C 0.83226 1.08714 1.05723
 H1004 H 0.82383 1.10171 1.04902
 Cu1005 Cu 0.99992 0.90378 1.09673
 Cu1006 Cu 0.99992 0.87145 1.12910
 Cu1007 Cu 1.00003 1.09681 1.09678
 Cu1008 Cu 1.00004 1.12918 1.12912
 Cu1009 Cu 0.90325 0.90396 1.00011
 Cu1010 Cu 0.87091 0.87165 1.00014
 Cu1011 Cu 1.09650 0.90371 1.00012
 Cu1012 Cu 1.12884 0.87136 1.00009
 Cu1013 Cu 0.90337 1.09694 1.00006
 Cu1014 Cu 0.87107 1.12933 1.00010
 Cu1015 Cu 1.09650 1.09671 0.99994
 Cu1016 Cu 1.12885 1.12902 0.99993
 Cu1017 Cu 0.90339 1.00041 1.09685
 Cu1018 Cu 0.87106 1.00047 1.12923
 Cu1019 Cu 1.09657 1.00026 1.09674
 Cu1020 Cu 1.12892 1.00024 1.12910
 C1021 C 1.06022 0.94005 1.13557
 H1022 H 1.05456 0.94571 1.11864
 C1023 C 1.07541 0.92481 1.17886
 C1024 C 0.93974 1.06063 1.13570
 H1025 H 0.94542 1.05493 1.11879
 C1026 C 0.92447 1.07596 1.17893
 C1027 C 0.86460 1.06075 1.06050
 H1028 H 0.88148 1.05503 1.05478
 C1029 C 0.82145 1.07612 1.07586
 C1030 C 1.13539 0.93995 1.06045
 H1031 H 1.11852 0.94569 1.05474
 C1032 C 1.17853 0.92452 1.07579
 C1033 C 1.06025 0.86488 1.06048
 H1034 H 1.05452 0.88174 1.05473
 C1035 C 1.07566 0.82178 1.07592
 C1036 C 0.93973 1.13569 1.06042
 H1037 H 0.94538 1.11877 1.05474
 C1038 C 0.92453 1.17892 1.07570
 C1039 C 0.93961 0.94005 1.13567
 H1040 H 0.94533 0.94579 1.11879
 C1041 C 0.92424 0.92463 1.17883
 C1042 C 1.06035 1.06058 1.13565
 H1043 H 1.05464 1.05487 1.11875
 C1044 C 1.07572 1.07592 1.17884
 C1045 C 0.93958 0.86507 1.06042
 H1046 H 0.94526 0.88197 1.05474
 C1047 C 0.92431 0.82188 1.07567
 C1048 C 1.06028 1.13556 1.06036
 H1049 H 1.05456 1.11868 1.05467
 C1050 C 1.07565 1.17871 1.07567
 C1051 C 0.86447 0.94026 1.06050
 H1052 H 0.88137 0.94593 1.05480
 C1053 C 0.82128 0.92501 1.07581
 C1054 C 1.13536 1.06044 1.06031
 H1055 H 1.11844 1.05480 1.05467
 C1056 C 1.17864 1.07562 1.07546
 O1057 O 0.97752 0.41646 0.38484
 O1058 O 0.97744 0.38958 0.35783
 C1059 C 0.96960 0.40837 0.36603
 C1060 C 0.95072 0.42072 0.35393
 C1061 C 0.94289 0.41319 0.33220
 H1062 H 0.95108 0.39862 0.32375
 O1063 O 1.02266 0.58330 0.38471
 O1064 O 1.02262 0.61014 0.35765
 C1065 C 1.03051 0.59137 0.36585
 C1066 C 1.04937 0.57904 0.35371
 C1067 C 1.05722 0.58664 0.33201
 H1068 H 1.04905 0.60125 0.32361
 O1069 O 0.88494 0.47735 0.41667
 O1070 O 0.85789 0.47736 0.38981
 C1071 C 0.86611 0.46949 0.40861
 C1072 C 0.85400 0.45065 0.42099
 C1073 C 0.83231 0.44280 0.41343
 H1074 H 0.82390 0.45094 0.39880
 O1075 O 1.11515 0.52241 0.41634
 O1076 O 1.14217 0.52239 0.38946
 C1077 C 1.13397 0.53027 0.40826
 C1078 C 1.14608 0.54912 0.42062
 C1079 C 1.16779 0.55693 0.41307
 H1080 H 1.17622 0.54875 0.39847
 O1081 O 0.91672 0.38504 0.47774
 O1082 O 0.88990 0.35801 0.47774
 C1083 C 0.90868 0.36621 0.46987
 C1084 C 0.92105 0.35407 0.45102
 C1085 C 0.91362 0.33229 0.44335
 H1086 H 0.89909 0.32385 0.45162
 O1087 O 1.08355 0.61497 0.47740
 O1088 O 1.11040 0.64197 0.47735
 C1089 C 1.09161 0.63378 0.46950
 C1090 C 1.07926 0.64588 0.45062
 C1091 C 1.08680 0.66758 0.44278
 H1092 H 1.10138 0.67600 0.45096
 O1093 O 0.91660 0.52235 0.38500
 O1094 O 0.88971 0.52243 0.35799
 C1095 C 0.90851 0.53025 0.36618
 C1096 C 0.92087 0.54907 0.35402
 C1097 C 0.91332 0.55684 0.33228
 H1098 H 0.89872 0.54867 0.32388
 O1099 O 1.08349 0.47737 0.38474
 O1100 O 1.11034 0.47728 0.35769
 C1101 C 1.09155 0.46946 0.36591
 C1102 C 1.07918 0.45061 0.35380
 C1103 C 1.08669 0.44280 0.33206
 H1104 H 1.10127 0.45097 0.32362
 O1105 O 1.02263 0.38485 0.41647
 O1106 O 1.02262 0.35781 0.38961
 C1107 C 1.03050 0.36602 0.40840
 C1108 C 1.04935 0.35389 0.42076
 C1109 C 1.05716 0.33218 0.41321
 H1110 H 1.04898 0.32377 0.39861
 O1111 O 0.97763 0.61490 0.41646
 O1112 O 0.97754 0.64190 0.38956
 C1113 C 0.96973 0.63372 0.40839
 C1114 C 0.95090 0.64585 0.42078
 C1115 C 0.94311 0.66757 0.41324
 H1116 H 0.95128 0.67597 0.39862
 O1117 O 0.88514 0.58342 0.47765
 O1118 O 0.85812 0.61029 0.47762
 C1119 C 0.86630 0.59148 0.46977
 C1120 C 0.85415 0.57909 0.45096
 C1121 C 0.83239 0.58657 0.44322
 H1122 H 0.82396 0.60115 0.45143
 O1123 O 1.11518 0.41641 0.47743
 O1124 O 1.14220 0.38955 0.47735
 C1125 C 1.13399 0.40835 0.46951
 C1126 C 1.14609 0.42072 0.45064
 C1127 C 1.16785 0.41324 0.44287
 H1128 H 1.17630 0.39867 0.45108
 O1129 O 0.97760 0.58323 0.38485
 O1130 O 0.97750 0.61006 0.35779
 C1131 C 0.96967 0.59128 0.36602
 C1132 C 0.95080 0.57892 0.35394
 C1133 C 0.94297 0.58643 0.33221
 H1134 H 0.95114 0.60100 0.32375
 O1135 O 1.02258 0.41649 0.38482
 O1136 O 1.02257 0.38962 0.35780
 C1137 C 1.03044 0.40840 0.36598
 C1138 C 1.04928 0.42074 0.35383
 C1139 C 1.05706 0.41319 0.33209
 H1140 H 1.04887 0.39861 0.32366
 O1141 O 1.11513 0.47736 0.41639
 O1142 O 1.14215 0.47728 0.38951
 C1143 C 1.13394 0.46946 0.40833
 C1144 C 1.14607 0.45062 0.42071
 C1145 C 1.16782 0.44287 0.41322
 H1146 H 1.17625 0.45108 0.39864
 O1147 O 0.88502 0.52239 0.41672
 O1148 O 0.85796 0.52246 0.38988
 C1149 C 0.86620 0.53030 0.40868
 C1150 C 0.85411 0.54915 0.42107
 C1151 C 0.83234 0.55690 0.41361
 H1152 H 0.82388 0.54868 0.39906
 O1153 O 0.91677 0.61502 0.47756
 O1154 O 0.88993 0.64206 0.47753
 C1155 C 0.90870 0.63383 0.46965
 C1156 C 0.92104 0.64591 0.45076
 C1157 C 0.91352 0.66763 0.44294
 H1158 H 0.89894 0.67607 0.45114
 O1159 O 1.08357 0.38479 0.47747
 O1160 O 1.11042 0.35776 0.47739
 C1161 C 1.09163 0.36597 0.46955
 C1162 C 1.07926 0.35387 0.45069
 C1163 C 1.08679 0.33216 0.44287
 H1164 H 1.10138 0.32373 0.45105
 O1165 O 1.08356 0.52242 0.38465
 O1166 O 1.11041 0.52240 0.35760
 C1167 C 1.09163 0.53028 0.36581
 C1168 C 1.07929 0.54915 0.35368
 C1169 C 1.08687 0.55701 0.33198
 H1170 H 1.10149 0.54887 0.32356
 O1171 O 0.91655 0.47731 0.38498
 O1172 O 0.88966 0.47733 0.35796
 C1173 C 0.90845 0.46945 0.36614
 C1174 C 0.92079 0.45060 0.35398
 C1175 C 0.91323 0.44281 0.33225
 H1176 H 0.89863 0.45100 0.32384
 O1177 O 1.02268 0.61490 0.41640
 O1178 O 1.02264 0.64191 0.38951
 C1179 C 1.03053 0.63372 0.40831
 C1180 C 1.04938 0.64585 0.42066
 C1181 C 1.05719 0.66754 0.41309
 H1182 H 1.04902 0.67594 0.39846
 O1183 O 0.97759 0.38495 0.41661
 O1184 O 0.97751 0.35789 0.38977
 C1185 C 0.96970 0.36612 0.40858
 C1186 C 0.95090 0.35402 0.42103
 C1187 C 0.94319 0.33223 0.41363
 H1188 H 0.95139 0.32376 0.39907
 O1189 O 1.11515 0.58331 0.47735
 O1190 O 1.14217 0.61015 0.47730
 C1191 C 1.13396 0.59137 0.46944
 C1192 C 1.14607 0.57902 0.45056
 C1193 C 1.16777 0.58655 0.44274
 H1194 H 1.17619 0.60113 0.45094
 O1195 O 0.88498 0.41657 0.47774
 O1196 O 0.85800 0.38970 0.47774
 C1197 C 0.86617 0.40848 0.46985
 C1198 C 0.85404 0.42080 0.45096
 C1199 C 0.83235 0.41322 0.44314
 H1200 H 0.82396 0.39863 0.45134
 Cu1201 Cu 1.00008 0.40338 0.40337
 Cu1202 Cu 1.00003 0.37101 0.37104
 Cu1203 Cu 1.00016 0.59639 0.40330
 Cu1204 Cu 1.00006 0.62871 0.37091
 Cu1205 Cu 0.90347 0.49984 0.40353
 Cu1206 Cu 0.87109 0.49990 0.37120
 Cu1207 Cu 1.09664 0.49990 0.40322
 Cu1208 Cu 1.12898 0.49983 0.37085
 C1209 C 0.93969 0.43958 0.36456
 H1210 H 0.94542 0.44528 0.38146
 C1211 C 0.92428 0.42424 0.32139
 C1212 C 1.06039 0.56014 0.36428
 H1213 H 1.05464 0.55438 0.38115
 C1214 C 1.07584 0.57564 0.32118
 C1215 C 0.86461 0.43967 0.43991
 H1216 H 0.88147 0.44541 0.44564
 C1217 C 0.82152 0.42421 0.42450
 C1218 C 1.13548 0.56015 0.43952
 H1219 H 1.11860 0.55444 0.44524
 C1220 C 1.17860 0.57551 0.42413
 C1221 C 0.93986 0.36469 0.43989
 H1222 H 0.94550 0.38162 0.44550
 C1223 C 0.92468 0.32141 0.42479
 C1224 C 1.06040 0.63527 0.43958
 H1225 H 1.05468 0.61841 0.44532
 C1226 C 1.07577 0.67837 0.42414
 C1227 C 0.93977 0.56008 0.36460
 H1228 H 0.94550 0.55439 0.38150
 C1229 C 0.92436 0.57540 0.32141
 C1230 C 1.06031 0.43960 0.36443
 H1231 H 1.05462 0.44532 0.38133
 C1232 C 1.07564 0.42422 0.32124
 C1233 C 1.06038 0.36449 0.43966
 H1234 H 1.05467 0.38136 0.44538
 C1235 C 1.07575 0.32135 0.42426
 C1236 C 0.93989 0.63528 0.43970
 H1237 H 0.94560 0.61840 0.44542
 C1238 C 0.92455 0.67842 0.42431
 C1239 C 0.86476 0.56022 0.43990
 H1240 H 0.88167 0.55455 0.44556
 C1241 C 0.82152 0.57548 0.42468
 C1242 C 1.13545 0.43957 0.43958
 H1243 H 1.11855 0.44524 0.44527
 C1244 C 1.17867 0.42431 0.42429
 O1245 O 1.02278 0.41653 0.61527
 O1246 O 1.02285 0.38972 0.64235
 C1247 C 1.03068 0.40849 0.63412
 C1248 C 1.04950 0.42088 0.64623
 C1249 C 1.05721 0.41348 0.66804
 H1250 H 1.04897 0.39898 0.67654
 O1251 O 0.97774 0.58339 0.61536
 O1252 O 0.97776 0.61024 0.64240
 C1253 C 0.96988 0.59147 0.63420
 C1254 C 0.95103 0.57915 0.64635
 C1255 C 0.94322 0.58673 0.66808
 H1256 H 0.95140 0.60133 0.67648
 O1257 O 0.88520 0.52259 0.58377
 O1258 O 0.85819 0.52265 0.61067
 C1259 C 0.86639 0.53050 0.59185
 C1260 C 0.85427 0.54935 0.57948
 C1261 C 0.83255 0.55715 0.58700
 H1262 H 0.82412 0.54897 0.60160
 O1263 O 1.11540 0.47729 0.58346
 O1264 O 1.14244 0.47725 0.61032
 C1265 C 1.13422 0.46939 0.59153
 C1266 C 1.14631 0.45052 0.57917
 C1267 C 1.16802 0.44268 0.58670
 H1268 H 1.17645 0.45084 0.60131
 O1269 O 1.08363 0.38479 0.52258
 O1270 O 1.11048 0.35776 0.52256
 C1271 C 1.09171 0.36598 0.53047
 C1272 C 1.07940 0.35388 0.54938
 C1273 C 1.08698 0.33219 0.55722
 H1274 H 1.10156 0.32377 0.54901
 O1275 O 0.91682 0.61507 0.52267
 O1276 O 0.88998 0.64212 0.52270
 C1277 C 0.90877 0.63390 0.53056
 C1278 C 0.92115 0.64601 0.54941
 C1279 C 0.91368 0.66776 0.55719
 H1280 H 0.89912 0.67622 0.54898
 O1281 O 0.91682 0.47749 0.61540
 O1282 O 0.88999 0.47750 0.64247
 C1283 C 0.90876 0.46961 0.63424
 C1284 C 0.92111 0.45074 0.64635
 C1285 C 0.91357 0.44292 0.66808
 H1286 H 0.89899 0.45112 0.67651
 O1287 O 1.08379 0.52238 0.61510
 O1288 O 1.11068 0.52241 0.64212
 C1289 C 1.09188 0.53026 0.63393
 C1290 C 1.07952 0.54910 0.64608
 C1291 C 1.08707 0.55687 0.66782
 H1292 H 1.10168 0.54868 0.67623
 O1293 O 0.97774 0.38488 0.58368
 O1294 O 0.97775 0.35788 0.61058
 C1295 C 0.96987 0.36607 0.59177
 C1296 C 0.95100 0.35398 0.57944
 C1297 C 0.94321 0.33227 0.58698
 H1298 H 0.95142 0.32383 0.60156
 O1299 O 1.02278 0.61496 0.58363
 O1300 O 1.02286 0.64197 0.61052
 C1301 C 1.03068 0.63377 0.59170
 C1302 C 1.04951 0.64587 0.57931
 C1303 C 1.05732 0.66759 0.58683
 H1304 H 1.04916 0.67601 0.60144
 O1305 O 0.88507 0.41665 0.52285
 O1306 O 0.85808 0.38978 0.52291
 C1307 C 0.86626 0.40857 0.53076
 C1308 C 0.85416 0.42093 0.54965
 C1309 C 0.83248 0.41337 0.55751
 H1310 H 0.82407 0.39877 0.54935
 O1311 O 1.11522 0.58330 0.52245
 O1312 O 1.14225 0.61013 0.52245
 C1313 C 1.13406 0.59134 0.53031
 C1314 C 1.14623 0.57895 0.54912
 C1315 C 1.16800 0.58639 0.55682
 H1316 H 1.17643 0.60095 0.54859
 O1317 O 1.02280 0.58329 0.61525
 O1318 O 1.02288 0.61014 0.64230
 C1319 C 1.03072 0.59135 0.63407
 C1320 C 1.04959 0.57898 0.64616
 C1321 C 1.05742 0.58648 0.66790
 H1322 H 1.04924 0.60106 0.67636
 O1323 O 0.97773 0.41650 0.61535
 O1324 O 0.97773 0.38966 0.64241
 C1325 C 0.96985 0.40844 0.63420
 C1326 C 0.95100 0.42080 0.64633
 C1327 C 0.94318 0.41326 0.66806
 H1328 H 0.95135 0.39866 0.67648
 O1329 O 1.11537 0.52233 0.58339
 O1330 O 1.14242 0.52236 0.61023
 C1331 C 1.13420 0.53021 0.59143
 C1332 C 1.14630 0.54903 0.57903
 C1333 C 1.16808 0.55674 0.58646
 H1334 H 1.17655 0.54852 0.60101
 O1335 O 0.88511 0.47754 0.58382
 O1336 O 0.85812 0.47754 0.61073
 C1337 C 0.86630 0.46968 0.59191
 C1338 C 0.85417 0.45083 0.57957
 C1339 C 0.83249 0.44301 0.58717
 H1340 H 0.82409 0.45117 0.60179
 O1341 O 1.08359 0.61495 0.52252
 O1342 O 1.11045 0.64194 0.52252
 C1343 C 1.09168 0.63375 0.53041
 C1344 C 1.07935 0.64587 0.54931
 C1345 C 1.08689 0.66758 0.55711
 H1346 H 1.10145 0.67599 0.54889
 O1347 O 0.91669 0.38498 0.52283
 O1348 O 0.88986 0.35796 0.52289
 C1349 C 0.90865 0.36616 0.53073
 C1350 C 0.92104 0.35403 0.54957
 C1351 C 0.91352 0.33232 0.55738
 H1352 H 0.89891 0.32392 0.54922
 O1353 O 1.08376 0.47735 0.61511
 O1354 O 1.11063 0.47733 0.64215
 C1355 C 1.09183 0.46949 0.63396
 C1356 C 1.07943 0.45072 0.64615
 C1357 C 1.08687 0.44306 0.66796
 H1358 H 1.10142 0.45128 0.67641
 O1359 O 0.91681 0.52254 0.61545
 O1360 O 0.88997 0.52261 0.64252
 C1361 C 0.90875 0.53044 0.63429
 C1362 C 0.92112 0.54929 0.64640
 C1363 C 0.91358 0.55714 0.66812
 H1364 H 0.89898 0.54899 0.67656
 O1365 O 0.97773 0.61497 0.58364
 O1366 O 0.97775 0.64199 0.61052
 C1367 C 0.96988 0.63380 0.59172
 C1368 C 0.95105 0.64595 0.57935
 C1369 C 0.94331 0.66770 0.58685
 H1370 H 0.95153 0.67611 0.60143
 O1371 O 1.02279 0.38485 0.58367
 O1372 O 1.02287 0.35786 0.61058
 C1373 C 1.03071 0.36604 0.59175
 C1374 C 1.04956 0.35392 0.57938
 C1375 C 1.05741 0.33222 0.58694
 H1376 H 1.04926 0.32382 0.60157
 O1377 O 1.11528 0.41637 0.52253
 O1378 O 1.14230 0.38950 0.52251
 C1379 C 1.13411 0.40829 0.53039
 C1380 C 1.14626 0.42062 0.54924
 C1381 C 1.16796 0.41305 0.55705
 H1382 H 1.17636 0.39844 0.54886
 O1383 O 0.88518 0.58348 0.52275
 O1384 O 0.85817 0.61036 0.52278
 C1385 C 0.86637 0.59157 0.53065
 C1386 C 0.85427 0.57924 0.54954
 C1387 C 0.83254 0.58676 0.55733
 H1388 H 0.82410 0.60134 0.54912
 Cu1389 Cu 1.00026 0.40338 0.59680
 Cu1390 Cu 1.00031 0.37107 0.62919
 Cu1391 Cu 1.00026 0.59646 0.59678
 Cu1392 Cu 1.00032 0.62879 0.62915
 Cu1393 Cu 0.90355 0.40351 0.50029
 Cu1394 Cu 0.87125 0.37116 0.50032
 Cu1395 Cu 1.09672 0.40328 0.50000
 Cu1396 Cu 1.12906 0.37093 0.49994
 Cu1397 Cu 0.90367 0.59656 0.50016
 Cu1398 Cu 0.87134 0.62892 0.50016
 Cu1399 Cu 1.09668 0.59645 0.49993
 Cu1400 Cu 1.12902 0.62876 0.49991
 Cu1401 Cu 0.90367 0.50004 0.59691
 Cu1402 Cu 0.87136 0.50008 0.62931
 Cu1403 Cu 1.09689 0.49984 0.59657
 Cu1404 Cu 1.12926 0.49984 0.62891
 C1405 C 1.06059 0.43966 0.63553
 H1406 H 1.05495 0.44526 0.61857
 C1407 C 1.07576 0.42457 0.67888
 C1408 C 0.94000 0.56027 0.63577
 H1409 H 0.94572 0.55452 0.61889
 C1410 C 0.92462 0.57573 0.67892
 C1411 C 0.86488 0.56038 0.56059
 H1412 H 0.88177 0.55467 0.55489
 C1413 C 0.82171 0.57573 0.57593
 C1414 C 1.13569 0.43952 0.56028
 H1415 H 1.11882 0.44526 0.55456
 C1416 C 1.17881 0.42406 0.57565
 C1417 C 1.06054 0.36449 0.56044
 H1418 H 1.05479 0.38135 0.55471
 C1419 C 1.07599 0.32139 0.57587
 C1420 C 0.93999 0.63536 0.56047
 H1421 H 0.94565 0.61845 0.55478
 C1422 C 0.92476 0.67857 0.57578
 C1423 C 0.93998 0.43970 0.63573
 H1424 H 0.94570 0.44542 0.61884
 C1425 C 0.92459 0.42431 0.67890
 C1426 C 1.06063 0.56013 0.63551
 H1427 H 1.05490 0.55443 0.61861
 C1428 C 1.07603 0.57543 0.67869
 C1429 C 0.93994 0.36460 0.56057
 H1430 H 0.94564 0.38148 0.55485
 C1431 C 0.92460 0.32148 0.57596
 C1432 C 1.06051 0.63527 0.56039
 H1433 H 1.05479 0.61839 0.55468
 C1434 C 1.07588 0.67840 0.57574
 C1435 C 0.86475 0.43981 0.56065
 H1436 H 0.88160 0.44554 0.55489
 C1437 C 0.82168 0.42440 0.57614
 C1438 C 1.13563 0.56010 0.56020
 H1439 H 1.11870 0.55446 0.55456
 C1440 C 1.17889 0.57530 0.57536
 O1441 O 0.58342 1.02218 0.61509
 O1442 O 0.61030 1.02215 0.64211
 C1443 C 0.59151 1.03003 0.63393
 C1444 C 0.57916 1.04887 0.64610
 C1445 C 0.58673 1.05666 0.66782
 H1446 H 0.60135 1.04848 0.67622
 O1447 O 0.41659 0.97712 0.61502
 O1448 O 0.38971 0.97702 0.64205
 C1449 C 0.40850 0.96918 0.63383
 C1450 C 0.42084 0.95029 0.64592
 C1451 C 0.41327 0.94242 0.66761
 H1452 H 0.39867 0.95058 0.67604
 O1453 O 0.52247 1.11469 0.58357
 O1454 O 0.52248 1.14169 0.61047
 C1455 C 0.53034 1.13350 0.59166
 C1456 C 0.54919 1.14562 0.57930
 C1457 C 0.55702 1.16729 0.58689
 H1458 H 0.54887 1.17569 0.60153
 O1459 O 0.47752 0.88456 0.58321
 O1460 O 0.47756 0.85750 0.61005
 C1461 C 0.46968 0.86572 0.59127
 C1462 C 0.45084 0.85361 0.57890
 C1463 C 0.44303 0.83191 0.58645
 H1464 H 0.45120 0.82349 0.60107
 O1465 O 0.61496 1.08314 0.52242
 O1466 O 0.64197 1.10998 0.52245
 C1467 C 0.63378 1.09119 0.53031
 C1468 C 0.64591 1.07882 0.54916
 C1469 C 0.66762 1.08635 0.55698
 H1470 H 0.67602 1.10095 0.54881
 O1471 O 0.38508 0.91626 0.52222
 O1472 O 0.35805 0.88944 0.52225
 C1473 C 0.36626 0.90822 0.53011
 C1474 C 0.35413 0.92061 0.54895
 C1475 C 0.33235 0.91317 0.55666
 H1476 H 0.32391 0.89862 0.54842
 O1477 O 0.47742 1.08305 0.61520
 O1478 O 0.47736 1.10990 0.64226
 C1479 C 0.46952 1.09112 0.63404
 C1480 C 0.45066 1.07877 0.64615
 C1481 C 0.44279 1.08635 0.66785
 H1482 H 0.45093 1.10096 0.67626
 O1483 O 0.52253 0.91621 0.61488
 O1484 O 0.52262 0.88931 0.64189
 C1485 C 0.53043 0.90812 0.63371
 C1486 C 0.54924 0.92049 0.64586
 C1487 C 0.55697 0.91299 0.66764
 H1488 H 0.54877 0.89842 0.67606
 O1489 O 0.61501 0.97718 0.58330
 O1490 O 0.64206 0.97708 0.61015
 C1491 C 0.63385 0.96927 0.59133
 C1492 C 0.64597 0.95048 0.57888
 C1493 C 0.66773 0.94270 0.58634
 H1494 H 0.67617 0.95085 0.60094
 O1495 O 0.38494 1.02225 0.58345
 O1496 O 0.35790 1.02221 0.61031
 C1497 C 0.36611 1.03011 0.59153
 C1498 C 0.35398 1.04899 0.57920
 C1499 C 0.33230 1.05683 0.58680
 H1500 H 0.32390 1.04865 0.60143
 O1501 O 0.41649 1.11479 0.52250
 O1502 O 0.38963 1.14181 0.52259
 C1503 C 0.40843 1.13360 0.53042
 C1504 C 0.42081 1.14570 0.54928
 C1505 C 0.41336 1.16746 0.55703
 H1506 H 0.39882 1.17593 0.54881
 O1507 O 0.58342 0.88481 0.52205
 O1508 O 0.61031 0.85782 0.52202
 C1509 C 0.59152 0.86599 0.52991
 C1510 C 0.57920 0.85384 0.54876
 C1511 C 0.58675 0.83211 0.55650
 H1512 H 0.60133 0.82371 0.54826
 O1513 O 0.41655 1.02218 0.61513
 O1514 O 0.38968 1.02214 0.64215
 C1515 C 0.40846 1.03003 0.63397
 C1516 C 0.42077 1.04888 0.64613
 C1517 C 0.41317 1.05672 0.66783
 H1518 H 0.39856 1.04857 0.67623
 O1519 O 0.58341 0.97714 0.61499
 O1520 O 0.61029 0.97704 0.64202
 C1521 C 0.59149 0.96922 0.63381
 C1522 C 0.57913 0.95038 0.64592
 C1523 C 0.58659 0.94261 0.66770
 H1524 H 0.60114 0.95080 0.67617
 O1525 O 0.52257 0.88466 0.58314
 O1526 O 0.52268 0.85760 0.60998
 C1527 C 0.53050 0.86584 0.59117
 C1528 C 0.54934 0.85377 0.57875
 C1529 C 0.55717 0.83204 0.58621
 H1530 H 0.54902 0.82358 0.60081
 O1531 O 0.47742 1.11468 0.58354
 O1532 O 0.47738 1.14169 0.61043
 C1533 C 0.46953 1.13350 0.59161
 C1534 C 0.45071 1.14565 0.57922
 C1535 C 0.44299 1.16741 0.58670
 H1536 H 0.45121 1.17584 0.60127
 O1537 O 0.38485 1.08321 0.52250
 O1538 O 0.35781 1.11007 0.52259
 C1539 C 0.36603 1.09128 0.53043
 C1540 C 0.35395 1.07891 0.54930
 C1541 C 0.33226 1.08648 0.55717
 H1542 H 0.32384 1.10109 0.54902
 O1543 O 0.61502 0.91644 0.52209
 O1544 O 0.64208 0.88961 0.52205
 C1545 C 0.63385 0.90837 0.52995
 C1546 C 0.64597 0.92069 0.54884
 C1547 C 0.66773 0.91318 0.55656
 H1548 H 0.67617 0.89865 0.54829
 O1549 O 0.47748 0.91616 0.61490
 O1550 O 0.47750 0.88926 0.64191
 C1551 C 0.46961 0.90805 0.63373
 C1552 C 0.45074 0.92037 0.64588
 C1553 C 0.44289 0.91277 0.66757
 H1554 H 0.45105 0.89814 0.67597
 O1555 O 0.52248 1.08305 0.61522
 O1556 O 0.52249 1.10989 0.64229
 C1557 C 0.53036 1.09111 0.63406
 C1558 C 0.54924 1.07876 0.64617
 C1559 C 0.55708 1.08628 0.66789
 H1560 H 0.54890 1.10087 0.67634
 O1561 O 0.38503 0.97720 0.58330
 O1562 O 0.35798 0.97711 0.61015
 C1563 C 0.36620 0.96930 0.59133
 C1564 C 0.35410 0.95049 0.57889
 C1565 C 0.33233 0.94278 0.58633
 H1566 H 0.32387 0.95099 0.60090
 O1567 O 0.61500 1.02221 0.58338
 O1568 O 0.64205 1.02218 0.61023
 C1569 C 0.63383 1.03007 0.59145
 C1570 C 0.64594 1.04892 0.57909
 C1571 C 0.66764 1.05672 0.58664
 H1572 H 0.67606 1.04854 0.60124
 O1573 O 0.41665 0.88456 0.52221
 O1574 O 0.38979 0.85757 0.52225
 C1575 C 0.40858 0.86575 0.53010
 C1576 C 0.42094 0.85362 0.54897
 C1577 C 0.41339 0.83193 0.55680
 H1578 H 0.39880 0.82352 0.54861
 O1579 O 0.58330 1.11476 0.52250
 O1580 O 0.61016 1.14176 0.52254
 C1581 C 0.59138 1.13356 0.53042
 C1582 C 0.57906 1.14564 0.54933
 C1583 C 0.58662 1.16732 0.55720
 H1584 H 0.60121 1.17573 0.54902
 Cu1585 Cu 0.59652 0.99968 0.59650
 Cu1586 Cu 0.62889 0.99960 0.62884
 Cu1587 Cu 0.40347 0.99969 0.59654
 Cu1588 Cu 0.37111 0.99961 0.62888
 Cu1589 Cu 0.49995 1.09618 0.59669
 Cu1590 Cu 0.49992 1.12850 0.62908
 Cu1591 Cu 0.50001 0.90309 0.59634
 Cu1592 Cu 0.50010 0.87071 0.62866
 C1593 C 0.56026 1.05989 0.63553
 H1594 H 0.55452 1.05418 0.61864
 C1595 C 0.57570 1.07524 0.67869
 C1596 C 0.43974 0.93929 0.63531
 H1597 H 0.44548 0.94506 0.61844
 C1598 C 0.42428 0.92379 0.67841
 C1599 C 0.56018 1.13505 0.56037
 H1600 H 0.55445 1.11820 0.55461
 C1601 C 0.57561 1.17811 0.57585
 C1602 C 0.43981 0.86421 0.56000
 H1603 H 0.44553 0.88107 0.55427
 C1604 C 0.42443 0.82110 0.57541
 C1605 C 0.63533 1.05994 0.56019
 H1606 H 0.61845 1.05423 0.55447
 C1607 C 0.67845 1.07531 0.57559
 C1608 C 0.36475 0.93943 0.56004
 H1609 H 0.38168 0.94508 0.55440
 C1610 C 0.32149 0.92425 0.57522
 C1611 C 0.43967 1.05988 0.63554
 H1612 H 0.44544 1.05414 0.61867
 C1613 C 0.42417 1.07534 0.67865
 C1614 C 0.56029 0.93934 0.63526
 H1615 H 0.55463 0.94502 0.61833
 C1616 C 0.57552 0.92404 0.67852
 C1617 C 0.63534 0.93949 0.55998
 H1618 H 0.61843 0.94519 0.55432
 C1619 C 0.67857 0.92418 0.57518
 C1620 C 0.36456 1.06001 0.56030
 H1621 H 0.38141 1.05428 0.55453
 C1622 C 0.32147 1.07545 0.57580
 C1623 C 0.43964 1.13504 0.56035
 H1624 H 0.44529 1.11812 0.55468
 C1625 C 0.42445 1.17829 0.57561
 C1626 C 0.56034 0.86442 0.55986
 H1627 H 0.55461 0.88131 0.55420
 C1628 C 0.57575 0.82124 0.57510
 O1629 O 0.58319 0.97742 0.38433
 O1630 O 0.61004 0.97744 0.35728
 C1631 C 0.59127 0.96956 0.36548
 C1632 C 0.57894 0.95072 0.35334
 C1633 C 0.58645 0.94296 0.33158
 H1634 H 0.60101 0.95117 0.32314
 O1635 O 0.41642 1.02239 0.38469
 O1636 O 0.38954 1.02247 0.35767
 C1637 C 0.40833 1.03031 0.36588
 C1638 C 0.42065 1.04920 0.35379
 C1639 C 0.41311 1.05701 0.33206
 H1640 H 0.39854 1.04882 0.32361
 O1641 O 0.47727 1.11504 0.41641
 O1642 O 0.47720 1.14209 0.38956
 C1643 C 0.46937 1.13386 0.40836
 C1644 C 0.45052 1.14596 0.42075
 C1645 C 0.44267 1.16766 0.41323
 H1646 H 0.45083 1.17610 0.39863
 O1647 O 0.52248 0.88480 0.41598
 O1648 O 0.52253 0.85781 0.38907
 C1649 C 0.53038 0.86600 0.40788
 C1650 C 0.54925 0.85390 0.42024
 C1651 C 0.55706 0.83217 0.41272
 H1652 H 0.54887 0.82373 0.39814
 O1653 O 0.61498 0.91652 0.47698
 O1654 O 0.64204 0.88969 0.47689
 C1655 C 0.63381 0.90848 0.46906
 C1656 C 0.64590 0.92086 0.45020
 C1657 C 0.66764 0.91340 0.44241
 H1658 H 0.67610 0.89884 0.45061
 O1659 O 0.38484 1.08322 0.47740
 O1660 O 0.35779 1.11006 0.47743
 C1661 C 0.36600 1.09128 0.46954
 C1662 C 0.35387 1.07893 0.45068
 C1663 C 0.33211 1.08642 0.44293
 H1664 H 0.32367 1.10098 0.45115
 O1665 O 0.52228 1.08344 0.38464
 O1666 O 0.52226 1.11033 0.35763
 C1667 C 0.53012 1.09152 0.36580
 C1668 C 0.54892 1.07916 0.35359
 C1669 C 0.55662 1.08667 0.33182
 H1670 H 0.54840 1.10126 0.32341
 O1671 O 0.47735 0.91642 0.38441
 O1672 O 0.47733 0.88960 0.35732
 C1673 C 0.46946 0.90837 0.36556
 C1674 C 0.45059 0.92074 0.35347
 C1675 C 0.44278 0.91325 0.33173
 H1676 H 0.45096 0.89867 0.32327
 O1677 O 0.61476 1.02245 0.41606
 O1678 O 0.64177 1.02253 0.38917
 C1679 C 0.63358 1.03034 0.40800
 C1680 C 0.64571 1.04913 0.42043
 C1681 C 0.66745 1.05689 0.41294
 H1682 H 0.67587 1.04873 0.39832
 O1683 O 0.38485 0.97726 0.41627
 O1684 O 0.35781 0.97728 0.38942
 C1685 C 0.36604 0.96938 0.40820
 C1686 C 0.35396 0.95049 0.42053
 C1687 C 0.33226 0.94267 0.41298
 H1688 H 0.32382 0.95086 0.39839
 O1689 O 0.58327 1.11485 0.47739
 O1690 O 0.61013 1.14185 0.47737
 C1691 C 0.59133 1.13367 0.46952
 C1692 C 0.57897 1.14582 0.45067
 C1693 C 0.58650 1.16753 0.44287
 H1694 H 0.60109 1.17593 0.45107
 O1695 O 0.41666 0.88461 0.47710
 O1696 O 0.38982 0.85760 0.47708
 C1697 C 0.40859 0.86580 0.46920
 C1698 C 0.42094 0.85370 0.45031
 C1699 C 0.41346 0.83196 0.44254
 H1700 H 0.39892 0.82351 0.45077
 O1701 O 0.41643 0.97733 0.38456
 O1702 O 0.38954 0.97736 0.35754
 C1703 C 0.40834 0.96949 0.36571
 C1704 C 0.42069 0.95066 0.35354
 C1705 C 0.41314 0.94289 0.33179
 H1706 H 0.39855 0.95109 0.32338
 O1707 O 0.58314 1.02247 0.38439
 O1708 O 0.60999 1.02256 0.35732
 C1709 C 0.59119 1.03038 0.36556
 C1710 C 0.57881 1.04924 0.35347
 C1711 C 0.58624 1.05702 0.33169
 H1712 H 0.60078 1.04881 0.32320
 O1713 O 0.47743 0.88473 0.41600
 O1714 O 0.47742 0.85774 0.38909
 C1715 C 0.46957 0.86591 0.40792
 C1716 C 0.45077 0.85376 0.42032
 C1717 C 0.44303 0.83202 0.41281
 H1718 H 0.45121 0.82361 0.39820
 O1719 O 0.52233 1.11495 0.41642
 O1720 O 0.52232 1.14201 0.38958
 C1721 C 0.53020 1.13378 0.40836
 C1722 C 0.54906 1.14586 0.42074
 C1723 C 0.55686 1.16757 0.41322
 H1724 H 0.54868 1.17601 0.39862
 O1725 O 0.38500 0.91622 0.47713
 O1726 O 0.35799 0.88938 0.47710
 C1727 C 0.36618 0.90816 0.46924
 C1728 C 0.35404 0.92053 0.45040
 C1729 C 0.33234 0.91298 0.44258
 H1730 H 0.32395 0.89837 0.45074
 O1731 O 0.61486 1.08317 0.47730
 O1732 O 0.64189 1.11000 0.47728
 C1733 C 0.63367 1.09124 0.46939
 C1734 C 0.64576 1.07892 0.45048
 C1735 C 0.66750 1.08640 0.44271
 H1736 H 0.67595 1.10092 0.45097
 O1737 O 0.52240 0.91643 0.38434
 O1738 O 0.52244 0.88962 0.35725
 C1739 C 0.53028 0.90840 0.36548
 C1740 C 0.54909 0.92078 0.35334
 C1741 C 0.55687 0.91330 0.33158
 H1742 H 0.54870 0.89872 0.32314
 O1743 O 0.47724 1.08340 0.38477
 O1744 O 0.47716 1.11028 0.35776
 C1745 C 0.46933 1.09148 0.36595
 C1746 C 0.45049 1.07913 0.35382
 C1747 C 0.44268 1.08667 0.33209
 H1748 H 0.45084 1.10127 0.32367
 O1749 O 0.38481 1.02231 0.41637
 O1750 O 0.35776 1.02239 0.38952
 C1751 C 0.36598 1.03021 0.40833
 C1752 C 0.35386 1.04903 0.42074
 C1753 C 0.33210 1.05680 0.41327
 H1754 H 0.32366 1.04860 0.39869
 O1755 O 0.61483 0.97742 0.41599
 O1756 O 0.64184 0.97744 0.38910
 C1757 C 0.63366 0.96957 0.40790
 C1758 C 0.64582 0.95075 0.42027
 C1759 C 0.66757 0.94302 0.41275
 H1760 H 0.67598 0.95122 0.39816
 O1761 O 0.58342 0.88485 0.47694
 O1762 O 0.61031 0.85786 0.47687
 C1763 C 0.59151 0.86605 0.46903
 C1764 C 0.57916 0.85393 0.45016
 C1765 C 0.58669 0.83220 0.44238
 H1766 H 0.60128 0.82379 0.45058
 O1767 O 0.41639 1.11491 0.47740
 O1768 O 0.38950 1.14192 0.47743
 C1769 C 0.40829 1.13374 0.46954
 C1770 C 0.42062 1.14589 0.45068
 C1771 C 0.41304 1.16759 0.44289
 H1772 H 0.39843 1.17598 0.45108
 Cu1773 Cu 0.59629 0.99994 0.40288
 Cu1774 Cu 0.62862 1.00000 0.37050
 Cu1775 Cu 0.40332 0.99982 0.40317
 Cu1776 Cu 0.37095 0.99988 0.37083
 Cu1777 Cu 0.59641 1.09629 0.49991
 Cu1778 Cu 0.62874 1.12860 0.49991
 Cu1779 Cu 0.59651 0.90335 0.49952
 Cu1780 Cu 0.62890 0.87104 0.49945
 Cu1781 Cu 0.40333 1.09635 0.49994
 Cu1782 Cu 0.37097 1.12867 0.50002
 Cu1783 Cu 0.40355 0.90310 0.49966
 Cu1784 Cu 0.37121 0.87079 0.49967
 Cu1785 Cu 0.49979 1.09651 0.40325
 Cu1786 Cu 0.49974 1.12889 0.37093
 Cu1787 Cu 0.49991 0.90328 0.40288
 Cu1788 Cu 0.49993 0.87099 0.37047
 C1789 C 0.56010 0.93965 0.36397
 H1790 H 0.55440 0.94533 0.38088
 C1791 C 0.57542 0.92437 0.32074
 C1792 C 0.43950 1.06024 0.36442
 H1793 H 0.44522 1.05452 0.38131
 C1794 C 0.42412 1.07562 0.32124
 C1795 C 0.43951 1.13532 0.43964
 H1796 H 0.44526 1.11845 0.44534
 C1797 C 0.42406 1.17844 0.42429
 C1798 C 0.56028 0.86452 0.43911
 H1799 H 0.55457 0.88140 0.44482
 C1800 C 0.57565 0.82136 0.42379
 C1801 C 0.63524 0.93970 0.43915
 H1802 H 0.61833 0.94536 0.44486
 C1803 C 0.67844 0.92447 0.42382
 C1804 C 0.36449 1.06007 0.43961
 H1805 H 0.38139 1.05439 0.44528
 C1806 C 0.32126 1.07536 0.42435
 C1807 C 0.55999 1.06029 0.36417
 H1808 H 0.55435 1.05459 0.38109
 C1809 C 0.57515 1.07561 0.32090
 C1810 C 0.43957 0.93960 0.36412
 H1811 H 0.44529 0.94529 0.38102
 C1812 C 0.42418 0.92432 0.32092
 C1813 C 0.63511 1.06012 0.43935
 H1814 H 0.61821 1.05445 0.44504
 C1815 C 0.67831 1.07540 0.42407
 C1816 C 0.36460 0.93944 0.43940
 H1817 H 0.38146 0.94517 0.44512
 C1818 C 0.32149 0.92404 0.42400
 C1819 C 0.56009 1.13524 0.43962
 H1820 H 0.55438 1.11836 0.44533
 C1821 C 0.57545 1.17837 0.42428
 C1822 C 0.43975 0.86434 0.43923
 H1823 H 0.44542 0.88123 0.44492
 C1824 C 0.42450 0.82116 0.42391
 O1825 O 0.47749 0.41653 0.88499
 O1826 O 0.47743 0.38968 0.85795
 C1827 C 0.46957 0.40847 0.86617
 C1828 C 0.45069 0.42082 0.85406
 C1829 C 0.44287 0.41327 0.83235
 H1830 H 0.45104 0.39867 0.82392
 O1831 O 0.52237 0.58334 0.88501
 O1832 O 0.52240 0.61018 0.85795
 C1833 C 0.53024 0.59138 0.86616
 C1834 C 0.54904 0.57897 0.85399
 C1835 C 0.55673 0.58642 0.83219
 H1836 H 0.54852 0.60098 0.82375
 O1837 O 0.38488 0.47747 0.91672
 O1838 O 0.35785 0.47741 0.88984
 C1839 C 0.36608 0.46956 0.90865
 C1840 C 0.35402 0.45068 0.92101
 C1841 C 0.33231 0.44285 0.91349
 H1842 H 0.32386 0.45103 0.89890
 O1843 O 0.61498 0.52234 0.91648
 O1844 O 0.64198 0.52241 0.88958
 C1845 C 0.63378 0.53025 0.90840
 C1846 C 0.64589 0.54908 0.92077
 C1847 C 0.66760 0.55688 0.91322
 H1848 H 0.67601 0.54871 0.89860
 O1849 O 0.41673 0.38482 0.97764
 O1850 O 0.38989 0.35780 0.97764
 C1851 C 0.40867 0.36600 0.96976
 C1852 C 0.42102 0.35387 0.95090
 C1853 C 0.41352 0.33214 0.94312
 H1854 H 0.39896 0.32371 0.95134
 O1855 O 0.58339 0.61488 0.97758
 O1856 O 0.61023 0.64189 0.97754
 C1857 C 0.59144 0.63370 0.96969
 C1858 C 0.57907 0.64584 0.95084
 C1859 C 0.58658 0.66757 0.94309
 H1860 H 0.60115 0.67597 0.95131
 O1861 O 0.41643 0.52253 0.88504
 O1862 O 0.38958 0.52254 0.85799
 C1863 C 0.40835 0.53041 0.86620
 C1864 C 0.42068 0.54927 0.85407
 C1865 C 0.41313 0.55708 0.83234
 H1866 H 0.39854 0.54891 0.82392
 O1867 O 0.58343 0.47727 0.88480
 O1868 O 0.61028 0.47727 0.85774
 C1869 C 0.59151 0.46940 0.86596
 C1870 C 0.57918 0.45054 0.85383
 C1871 C 0.58676 0.44268 0.83212
 H1872 H 0.60137 0.45082 0.82371
 O1873 O 0.52262 0.38491 0.91658
 O1874 O 0.52263 0.35789 0.88970
 C1875 C 0.53051 0.36610 0.90850
 C1876 C 0.54940 0.35399 0.92083
 C1877 C 0.55725 0.33232 0.91324
 H1878 H 0.54908 0.32392 0.89862
 O1879 O 0.47735 0.61505 0.91667
 O1880 O 0.47732 0.64206 0.88978
 C1881 C 0.46946 0.63387 0.90858
 C1882 C 0.45059 0.64598 0.92094
 C1883 C 0.44274 0.66767 0.91337
 H1884 H 0.45091 0.67609 0.89876
 O1885 O 0.38477 0.58342 0.97763
 O1886 O 0.35774 0.61028 0.97764
 C1887 C 0.36594 0.59149 0.96976
 C1888 C 0.35382 0.57916 0.95088
 C1889 C 0.33212 0.58672 0.94306
 H1890 H 0.32371 0.60132 0.95124
 O1891 O 0.61521 0.41649 0.97755
 O1892 O 0.64226 0.38965 0.97752
 C1893 C 0.63404 0.40843 0.96965
 C1894 C 0.64613 0.42079 0.95077
 C1895 C 0.66788 0.41333 0.94299
 H1896 H 0.67636 0.39879 0.95120
 O1897 O 0.47732 0.58343 0.88501
 O1898 O 0.47729 0.61028 0.85795
 C1899 C 0.46943 0.59150 0.86617
 C1900 C 0.45057 0.57916 0.85405
 C1901 C 0.44274 0.58671 0.83233
 H1902 H 0.45091 0.60129 0.82389
 O1903 O 0.52255 0.41643 0.88482
 O1904 O 0.52255 0.38957 0.85778
 C1905 C 0.53042 0.40835 0.86598
 C1906 C 0.54927 0.42067 0.85384
 C1907 C 0.55712 0.41308 0.83213
 H1908 H 0.54896 0.39848 0.82372
 O1909 O 0.61502 0.47731 0.91651
 O1910 O 0.64203 0.47732 0.88961
 C1911 C 0.63385 0.46946 0.90843
 C1912 C 0.64603 0.45065 0.92081
 C1913 C 0.66778 0.44293 0.91330
 H1914 H 0.67618 0.45114 0.89870
 O1915 O 0.38476 0.52252 0.91666
 O1916 O 0.35774 0.52253 0.88978
 C1917 C 0.36593 0.53040 0.90859
 C1918 C 0.35381 0.54926 0.92094
 C1919 C 0.33211 0.55710 0.91339
 H1920 H 0.32369 0.54894 0.89878
 O1921 O 0.41641 0.61501 0.97761
 O1922 O 0.38955 0.64203 0.97761
 C1923 C 0.40833 0.63383 0.96973
 C1924 C 0.42067 0.64595 0.95086
 C1925 C 0.41310 0.66764 0.94302
 H1926 H 0.39848 0.67604 0.95119
 O1927 O 0.58358 0.38489 0.97755
 O1928 O 0.61046 0.35788 0.97750
 C1929 C 0.59166 0.36608 0.96964
 C1930 C 0.57932 0.35398 0.95075
 C1931 C 0.58690 0.33230 0.94288
 H1932 H 0.60152 0.32389 0.95104
 O1933 O 0.58328 0.52231 0.88490
 O1934 O 0.61011 0.52238 0.85782
 C1935 C 0.59131 0.53021 0.86605
 C1936 C 0.57891 0.54903 0.85394
 C1937 C 0.58634 0.55675 0.83214
 H1938 H 0.60087 0.54852 0.82366
 O1939 O 0.41647 0.47748 0.88502
 O1940 O 0.38961 0.47742 0.85798
 C1941 C 0.40841 0.46958 0.86619
 C1942 C 0.42077 0.45072 0.85407
 C1943 C 0.41322 0.44289 0.83234
 H1944 H 0.39861 0.45106 0.82392
 O1945 O 0.52241 0.61502 0.91663
 O1946 O 0.52245 0.64203 0.88974
 C1947 C 0.53030 0.63383 0.90855
 C1948 C 0.54916 0.64591 0.92092
 C1949 C 0.55695 0.66765 0.91343
 H1950 H 0.54875 0.67611 0.89886
 O1951 O 0.47756 0.38482 0.91657
 O1952 O 0.47752 0.35780 0.88970
 C1953 C 0.46969 0.36600 0.90852
 C1954 C 0.45088 0.35387 0.92092
 C1955 C 0.44311 0.33214 0.91342
 H1956 H 0.45128 0.32371 0.89881
 O1957 O 0.61501 0.58322 0.97755
 O1958 O 0.64201 0.61008 0.97749
 C1959 C 0.63381 0.59129 0.96963
 C1960 C 0.64591 0.57895 0.95074
 C1961 C 0.66762 0.58648 0.94291
 H1962 H 0.67604 0.60105 0.95111
 O1963 O 0.38509 0.41646 0.97763
 O1964 O 0.35809 0.38960 0.97762
 C1965 C 0.36627 0.40839 0.96976
 C1966 C 0.35412 0.42074 0.95091
 C1967 C 0.33241 0.41319 0.94311
 H1968 H 0.32403 0.39858 0.95129
 Cu1969 Cu 0.50006 0.40337 0.90343
 Cu1970 Cu 0.50002 0.37103 0.87107
 Cu1971 Cu 0.49987 0.59653 0.90353
 Cu1972 Cu 0.49987 0.62885 0.87114
 Cu1973 Cu 0.40333 0.50001 0.90355
 Cu1974 Cu 0.37099 0.49997 0.87119
 Cu1975 Cu 0.59649 0.49980 0.90337
 Cu1976 Cu 0.62880 0.49985 0.87097
 C1977 C 0.43967 0.43971 0.86467
 H1978 H 0.44540 0.44544 0.88155
 C1979 C 0.42426 0.42429 0.82152
 C1980 C 0.56010 0.56012 0.86462
 H1981 H 0.55447 0.55447 0.88156
 C1982 C 0.57525 0.57531 0.82130
 C1983 C 0.36467 0.43964 0.93988
 H1984 H 0.38154 0.44538 0.94559
 C1985 C 0.32155 0.42423 0.92453
 C1986 C 0.63530 0.56009 0.93969
 H1987 H 0.61843 0.55438 0.94542
 C1988 C 0.67843 0.57545 0.92428
 C1989 C 0.43986 0.36448 0.93982
 H1990 H 0.44554 0.38137 0.94551
 C1991 C 0.42455 0.32131 0.92451
 C1992 C 0.56020 0.63526 0.93978
 H1993 H 0.55451 0.61837 0.94546
 C1994 C 0.57553 0.67844 0.92452
 C1995 C 0.43956 0.56029 0.86467
 H1996 H 0.44530 0.55457 0.88156
 C1997 C 0.42415 0.57568 0.82151
 C1998 C 0.56028 0.43955 0.86443
 H1999 H 0.55453 0.44531 0.88130
 C2000 C 0.57574 0.42407 0.82131
 C2001 C 0.56041 0.36457 0.93975
 H2002 H 0.55466 0.38142 0.94551
 C2003 C 0.57588 0.32150 0.92425
 C2004 C 0.43958 0.63537 0.93984
 H2005 H 0.44533 0.61851 0.94557
 C2006 C 0.42412 0.67846 0.92441
 C2007 C 0.36441 0.56027 0.93985
 H2008 H 0.38128 0.55453 0.94558
 C2009 C 0.32129 0.57571 0.92444
 C2010 C 0.63545 0.43961 0.93970
 H2011 H 0.61855 0.44527 0.94540
 C2012 C 0.67868 0.42440 0.92438
 O2013 O 0.52268 0.41651 1.11543
 O2014 O 0.52275 0.38966 1.14248
 C2015 C 0.53058 0.40845 1.13427
 C2016 C 0.54942 0.42082 1.14639
 C2017 C 0.55722 0.41333 1.16815
 H2018 H 0.54905 0.39876 1.17660
 O2019 O 0.47740 0.58336 1.11537
 O2020 O 0.47737 0.61022 1.14241
 C2021 C 0.46952 0.59143 1.13421
 C2022 C 0.45070 0.57907 1.14636
 C2023 C 0.44291 0.58659 1.16811
 H2024 H 0.45109 0.60117 1.17654
 O2025 O 0.38492 0.52247 1.08378
 O2026 O 0.35791 0.52249 1.11066
 C2027 C 0.36610 0.53036 1.09186
 C2028 C 0.35398 0.54923 1.07952
 C2029 C 0.33231 0.55711 1.08712
 H2030 H 0.32391 0.54896 1.10176
 O2031 O 0.61516 0.47742 1.08367
 O2032 O 0.64218 0.47740 1.11055
 C2033 C 0.63398 0.46954 1.09175
 C2034 C 0.64610 0.45069 1.07938
 C2035 C 0.66781 0.44287 1.08693
 H2036 H 0.67622 0.45104 1.10154
 O2037 O 0.58359 0.38489 1.02266
 O2038 O 0.61045 0.35787 1.02268
 C2039 C 0.59167 0.36607 1.03055
 C2040 C 0.57932 0.35396 1.04942
 C2041 C 0.58683 0.33222 1.05719
 H2042 H 0.60139 0.32378 1.04896
 O2043 O 0.41643 0.61502 1.02271
 O2044 O 0.38958 0.64205 1.02277
 C2045 C 0.40837 0.63385 1.03061
 C2046 C 0.42075 0.64596 1.04947
 C2047 C 0.41326 0.66771 1.05724
 H2048 H 0.39870 0.67615 1.04903
 O2049 O 0.41659 0.47738 1.11539
 O2050 O 0.38972 0.47733 1.14244
 C2051 C 0.40852 0.46948 1.13423
 C2052 C 0.42089 0.45062 1.14635
 C2053 C 0.41334 0.44279 1.16807
 H2054 H 0.39873 0.45094 1.17648
 O2055 O 0.58350 0.52247 1.11532
 O2056 O 0.61034 0.52252 1.14237
 C2057 C 0.59155 0.53036 1.13416
 C2058 C 0.57915 0.54918 1.14629
 C2059 C 0.58661 0.55693 1.16807
 H2060 H 0.60118 0.54874 1.17652
 O2061 O 0.47766 0.38486 1.08377
 O2062 O 0.47767 0.35784 1.11065
 C2063 C 0.46980 0.36604 1.09185
 C2064 C 0.45095 0.35393 1.07948
 C2065 C 0.44315 0.33222 1.08701
 H2066 H 0.45133 0.32379 1.10162
 O2067 O 0.52243 0.61493 1.08366
 O2068 O 0.52247 0.64196 1.11053
 C2069 C 0.53032 0.63375 1.09172
 C2070 C 0.54916 0.64584 1.07934
 C2071 C 0.55692 0.66758 1.08683
 H2072 H 0.54872 0.67603 1.10141
 O2073 O 0.38509 0.41648 1.02273
 O2074 O 0.35808 0.38964 1.02277
 C2075 C 0.36627 0.40843 1.03061
 C2076 C 0.35411 0.42082 1.04944
 C2077 C 0.33233 0.41339 1.05712
 H2078 H 0.32389 0.39885 1.04888
 O2079 O 0.61510 0.58328 1.02267
 O2080 O 0.64209 0.61014 1.02266
 C2081 C 0.63392 0.59136 1.03055
 C2082 C 0.64606 0.57904 1.04943
 C2083 C 0.66775 0.58661 1.05723
 H2084 H 0.67615 0.60119 1.04902
 O2085 O 0.52245 0.58333 1.11533
 O2086 O 0.52248 0.61019 1.14238
 C2087 C 0.53034 0.59140 1.13417
 C2088 C 0.54919 0.57904 1.14630
 C2089 C 0.55692 0.58652 1.16808
 H2090 H 0.54869 0.60107 1.17653
 O2091 O 0.47762 0.41651 1.11541
 O2092 O 0.47762 0.38965 1.14246
 C2093 C 0.46973 0.40843 1.13425
 C2094 C 0.45085 0.42076 1.14636
 C2095 C 0.44302 0.41320 1.16808
 H2096 H 0.45122 0.39861 1.17651
 O2097 O 0.61519 0.52247 1.08371
 O2098 O 0.64220 0.52251 1.11060
 C2099 C 0.63400 0.53036 1.09179
 C2100 C 0.64610 0.54920 1.07940
 C2101 C 0.66780 0.55703 1.08694
 H2102 H 0.67623 0.54889 1.10156
 O2103 O 0.38498 0.47743 1.08371
 O2104 O 0.35794 0.47738 1.11058
 C2105 C 0.36615 0.46954 1.09177
 C2106 C 0.35405 0.45073 1.07936
 C2107 C 0.33226 0.44302 1.08678
 H2108 H 0.32378 0.45125 1.10132
 O2109 O 0.58339 0.61484 1.02268
 O2110 O 0.61022 0.64187 1.02269
 C2111 C 0.59144 0.63367 1.03056
 C2112 C 0.57907 0.64580 1.04941
 C2113 C 0.58656 0.66753 1.05718
 H2114 H 0.60113 0.67595 1.04897
 O2115 O 0.41676 0.38487 1.02275
 O2116 O 0.38991 0.35786 1.02281
 C2117 C 0.40870 0.36606 1.03066
 C2118 C 0.42106 0.35395 1.04954
 C2119 C 0.41354 0.33224 1.05734
 H2120 H 0.39895 0.32383 1.04914
 O2121 O 0.58357 0.47743 1.11537
 O2122 O 0.61042 0.47742 1.14242
 C2123 C 0.59164 0.46956 1.13421
 C2124 C 0.57930 0.45072 1.14636
 C2125 C 0.58682 0.44297 1.16811
 H2126 H 0.60139 0.45117 1.17654
 O2127 O 0.41657 0.52243 1.11541
 O2128 O 0.38972 0.52244 1.14247
 C2129 C 0.40850 0.53031 1.13426
 C2130 C 0.42084 0.54915 1.14639
 C2131 C 0.41333 0.55694 1.16814
 H2132 H 0.39876 0.54874 1.17658
 O2133 O 0.47737 0.61497 1.08369
 O2134 O 0.47736 0.64200 1.11056
 C2135 C 0.46950 0.63380 1.09176
 C2136 C 0.45066 0.64593 1.07939
 C2137 C 0.44290 0.66768 1.08689
 H2138 H 0.45111 0.67611 1.10147
 O2139 O 0.52271 0.38492 1.08373
 O2140 O 0.52278 0.35790 1.11061
 C2141 C 0.53062 0.36610 1.09180
 C2142 C 0.54946 0.35398 1.07940
 C2143 C 0.55724 0.33224 1.08689
 H2144 H 0.54906 0.32381 1.10149
 O2145 O 0.61519 0.41652 1.02266
 O2146 O 0.64222 0.38966 1.02269
 C2147 C 0.63401 0.40845 1.03056
 C2148 C 0.64611 0.42079 1.04944
 C2149 C 0.66782 0.41325 1.05726
 H2150 H 0.67624 0.39865 1.04908
 O2151 O 0.38485 0.58337 1.02275
 O2152 O 0.35783 0.61024 1.02281
 C2153 C 0.36605 0.59145 1.03067
 C2154 C 0.35396 0.57912 1.04957
 C2155 C 0.33229 0.58672 1.05744
 H2156 H 0.32388 0.60133 1.04928
 Cu2157 Cu 0.50017 0.40339 1.09690
 Cu2158 Cu 0.50021 0.37106 1.12926
 Cu2159 Cu 0.49991 0.59646 1.09682
 Cu2160 Cu 0.49992 0.62880 1.12918
 Cu2161 Cu 0.40361 0.40334 1.00019
 Cu2162 Cu 0.37129 0.37101 1.00022
 Cu2163 Cu 0.59670 0.40339 1.00010
 Cu2164 Cu 0.62906 0.37106 1.00010
 Cu2165 Cu 0.40331 0.59651 1.00017
 Cu2166 Cu 0.37096 0.62886 1.00021
 Cu2167 Cu 0.59654 0.59636 1.00012
 Cu2168 Cu 0.62885 0.62870 1.00009
 Cu2169 Cu 0.40345 0.49993 1.09688
 Cu2170 Cu 0.37112 0.49990 1.12925
 Cu2171 Cu 0.59666 0.49995 1.09682
 Cu2172 Cu 0.62900 0.49996 1.12920
 C2173 C 0.56044 0.43968 1.13575
 H2174 H 0.55473 0.44536 1.11884
 C2175 C 0.57579 0.42440 1.17897
 C2176 C 0.43968 0.56020 1.13575
 H2177 H 0.44538 0.55450 1.11885
 C2178 C 0.42436 0.57553 1.17896
 C2179 C 0.36456 0.56022 1.06059
 H2180 H 0.38140 0.55446 1.05482
 C2181 C 0.32150 0.57572 1.07609
 C2182 C 0.63551 0.43967 1.06048
 H2183 H 0.61863 0.44540 1.05475
 C2184 C 0.67863 0.42427 1.07588
 C2185 C 0.56048 0.36459 1.06051
 H2186 H 0.55478 0.38148 1.05482
 C2187 C 0.57580 0.32140 1.07580
 C2188 C 0.43960 0.63532 1.06052
 H2189 H 0.44528 0.61842 1.05483
 C2190 C 0.42434 0.67853 1.07582
 C2191 C 0.43980 0.43963 1.13575
 H2192 H 0.44553 0.44536 1.11887
 C2193 C 0.42440 0.42420 1.17890
 C2194 C 0.56028 0.56022 1.13566
 H2195 H 0.55462 0.55454 1.11873
 C2196 C 0.57550 0.57547 1.17893
 C2197 C 0.43993 0.36454 1.06058
 H2198 H 0.44563 0.38142 1.05487
 C2199 C 0.42457 0.32141 1.07595
 C2200 C 0.56021 0.63520 1.06047
 H2201 H 0.55453 0.61831 1.05479
 C2202 C 0.57549 0.67839 1.07576
 C2203 C 0.36472 0.43965 1.06053
 H2204 H 0.38165 0.44529 1.05490
 C2205 C 0.32144 0.42449 1.07566
 C2206 C 0.63549 0.56018 1.06049
 H2207 H 0.61862 0.55444 1.05477
 C2208 C 0.67859 0.57561 1.07586
 C2209 C 1.09979 1.09974 1.24078
 C2210 C 1.11975 1.09023 1.25040
 C2211 C 1.12859 1.09886 1.27117
 C2212 C 1.11764 1.11737 1.28286
 C2213 C 1.09727 1.12656 1.27286
 C2214 C 1.08854 1.11783 1.25208
 C2215 C 1.09109 1.09119 1.21910
 C2216 C 1.08398 1.08416 1.20082
 H2217 H 1.12864 1.07621 1.24174
 H2218 H 1.14421 1.09096 1.27757
 H2219 H 1.08773 1.14044 1.28083
 H2220 H 1.07299 1.12530 1.24479
 C2221 C 1.09995 0.59969 0.74050
 C2222 C 1.11140 0.58508 0.75600
 C2223 C 1.12006 0.59383 0.77681
 C2224 C 1.11737 0.61735 0.78237
 C2225 C 1.10574 0.63185 0.76667
 C2226 C 1.09712 0.62307 0.74589
 C2227 C 1.09140 0.59085 0.71889
 C2228 C 1.08433 0.58370 0.70064
 H2229 H 1.11366 0.56694 0.75200
 H2230 H 1.12865 0.58217 0.78862
 H2231 H 1.10367 0.65008 0.77023
 H2232 H 1.08838 0.63455 0.73396
 C2233 C 0.59986 1.09924 0.74053
 C2234 C 0.62002 1.09002 0.75003
 C2235 C 0.62886 1.09877 0.77074
 C2236 C 0.61772 1.11714 0.78249
 C2237 C 0.59715 1.12602 0.77261
 C2238 C 0.58842 1.11716 0.75190
 C2239 C 0.59115 1.09059 0.71889
 C2240 C 0.58402 1.08351 0.70064
 H2241 H 0.62905 1.07612 0.74132
 H2242 H 0.64464 1.09113 0.77705
 H2243 H 0.58745 1.13975 0.78065
 H2244 H 0.57272 1.12441 0.74470
 C2245 C 0.59932 0.59922 1.24099
 C2246 C 0.61917 0.58959 1.25073
 C2247 C 0.62795 0.59820 1.27152
 C2248 C 0.61707 0.61682 1.28312
 C2249 C 0.59680 0.62611 1.27300
 C2250 C 0.58812 0.61740 1.25219
 C2251 C 0.59070 0.59069 1.21927
 C2252 C 0.58368 0.58367 1.20095
 H2253 H 0.62801 0.57549 1.24215
 H2254 H 0.64347 0.59020 1.27802
 H2255 H 0.58732 0.64007 1.28088
 H2256 H 0.57267 0.62495 1.24480
 C2257 C 0.90039 0.90045 1.24073
 C2258 C 0.88248 0.91185 1.25217
 C2259 C 0.87374 0.90311 1.27293
 C2260 C 0.88273 0.88259 1.28279
 C2261 C 0.90107 0.87148 1.27096
 C2262 C 0.90971 0.88033 1.25020
 C2263 C 0.90895 0.90918 1.21906
 C2264 C 0.91599 0.91633 1.20079
 H2265 H 0.87517 0.92753 1.24499
 H2266 H 0.86002 0.91278 1.28102
 H2267 H 0.90878 0.85573 1.27724
 H2268 H 0.92359 0.87132 1.24144
 C2269 C 0.90041 0.40045 0.74079
 C2270 C 0.91171 0.38244 0.75216
 C2271 C 0.90294 0.37371 0.77292
 C2272 C 0.88248 0.38281 0.78283
 C2273 C 0.87149 0.40125 0.77107
 C2274 C 0.88037 0.40988 0.75032
 C2275 C 0.90916 0.40901 0.71913
 C2276 C 0.91630 0.41606 0.70086
 H2277 H 0.92732 0.37504 0.74494
 H2278 H 0.91252 0.35989 0.78095
 H2279 H 0.85581 0.40907 0.77739
 H2280 H 0.87144 0.42385 0.74160
 C2281 C 0.39979 0.89990 0.74016
 C2282 C 0.41436 0.88845 0.75570
 C2283 C 0.40555 0.87984 0.77650
 C2284 C 0.38203 0.88258 0.78204
 C2285 C 0.36757 0.89422 0.76631
 C2286 C 0.37641 0.90280 0.74553
 C2287 C 0.40870 0.90842 0.71855
 C2288 C 0.41594 0.91547 0.70032
 H2289 H 0.43250 0.88615 0.75173
 H2290 H 0.41720 0.87124 0.78834
 H2291 H 0.34935 0.89634 0.76985
 H2292 H 0.36495 0.91156 0.73357
 C2293 C 0.40025 0.40022 1.24075
 C2294 C 0.38030 0.40973 1.25039
 C2295 C 0.37143 0.40106 1.27112
 C2296 C 0.38235 0.38249 1.28277
 C2297 C 0.40271 0.37330 1.27275
 C2298 C 0.41147 0.38208 1.25201
 C2299 C 0.40898 0.40883 1.21910
 C2300 C 0.41611 0.41591 1.20085
 H2301 H 0.37144 0.42379 1.24177
 H2302 H 0.35583 0.40896 1.27754
 H2303 H 0.41222 0.35938 1.28068
 H2304 H 0.42701 0.37460 1.24469
 C2305 C 0.90007 1.09988 0.75934
 C2306 C 0.91145 1.11782 0.74795
 C2307 C 0.90274 1.12656 0.72717
 C2308 C 0.88227 1.11754 0.71724
 C2309 C 0.87118 1.09918 0.72902
 C2310 C 0.87999 1.09054 0.74980
 C2311 C 0.90876 1.09131 0.78102
 C2312 C 0.91588 1.08426 0.79930
 H2313 H 0.92708 1.12515 0.75518
 H2314 H 0.91239 1.14030 0.71912
 H2315 H 0.85547 1.09144 0.72269
 H2316 H 0.87100 1.07663 0.75852
 C2317 C 0.90044 0.59966 0.25959
 C2318 C 0.88901 0.58505 0.24409
 C2319 C 0.88036 0.59380 0.22327
 C2320 C 0.88306 0.61731 0.21768
 C2321 C 0.89468 0.63181 0.23338
 C2322 C 0.90329 0.62303 0.25417
 C2323 C 0.90899 0.59082 0.28121
 C2324 C 0.91606 0.58367 0.29946
 H2325 H 0.88673 0.56692 0.24811
 H2326 H 0.87177 0.58213 0.21146
 H2327 H 0.89676 0.65002 0.22980
 H2328 H 0.91203 0.63451 0.26610
 C2329 C 0.39987 1.09943 0.25937
 C2330 C 0.41452 1.11084 0.24389
 C2331 C 0.40582 1.11948 0.22306
 C2332 C 0.38231 1.11681 0.21743
 C2333 C 0.36777 1.10520 0.23309
 C2334 C 0.37651 1.09659 0.25391
 C2335 C 0.40868 1.09091 0.28102
 C2336 C 0.41584 1.08387 0.29928
 H2337 H 0.43265 1.11310 0.24794
 H2338 H 0.41751 1.12806 0.21127
 H2339 H 0.34956 1.10314 0.22948
 H2340 H 0.36500 1.08787 0.26582
 C2341 C 0.39987 0.59952 0.75965
 C2342 C 0.41451 0.61096 0.74418
 C2343 C 0.40580 0.61960 0.72334
 C2344 C 0.38231 0.61689 0.71770
 C2345 C 0.36778 0.60525 0.73335
 C2346 C 0.37651 0.59665 0.75417
 C2347 C 0.40868 0.59099 0.78129
 C2348 C 0.41585 0.58394 0.79955
 H2349 H 0.43263 0.61324 0.74824
 H2350 H 0.41750 0.62820 0.71157
 H2351 H 0.34957 0.60317 0.72973
 H2352 H 0.36501 0.58791 0.76607
 C2353 C 1.09953 0.90053 0.75944
 C2354 C 1.08490 0.88901 0.74402
 C2355 C 1.09360 0.88036 0.72318
 C2356 C 1.11708 0.88312 0.71750
 C2357 C 1.13160 0.89481 0.73312
 C2358 C 1.12287 0.90343 0.75393
 C2359 C 1.09074 0.90910 0.78107
 C2360 C 1.08362 0.91619 0.79933
 H2361 H 1.06678 0.88670 0.74811
 H2362 H 1.08191 0.87171 0.71143
 H2363 H 1.14980 0.89693 0.72948
 H2364 H 1.13437 0.91222 0.76580
 C2365 C 1.09992 0.40047 0.25936
 C2366 C 1.08530 0.38908 0.24383
 C2367 C 1.09404 0.38048 0.22299
 C2368 C 1.11755 0.38317 0.21740
 C2369 C 1.13206 0.39476 0.23311
 C2370 C 1.12329 0.40332 0.25393
 C2371 C 1.09108 0.40895 0.28100
 C2372 C 1.08391 0.41596 0.29927
 H2373 H 1.06716 0.38680 0.24785
 H2374 H 1.08236 0.37192 0.21117
 H2375 H 1.15028 0.39683 0.22952
 H2376 H 1.13478 0.41203 0.26587
 C2377 C 0.59932 0.90049 0.25874
 C2378 C 0.61827 0.91101 0.24819
 C2379 C 0.62704 0.90235 0.22741
 C2380 C 0.61705 0.88278 0.21662
 C2381 C 0.59767 0.87258 0.22757
 C2382 C 0.58900 0.88135 0.24835
 C2383 C 0.59071 0.90910 0.28044
 C2384 C 0.58366 0.91615 0.29874
 H2385 H 0.62639 0.92590 0.25611
 H2386 H 0.64173 0.91121 0.22016
 H2387 H 0.58899 0.85772 0.22046
 H2388 H 0.57427 0.87306 0.25640
 C2389 C 0.59983 0.39983 0.75952
 C2390 C 0.61783 0.41118 0.74818
 C2391 C 0.62666 0.40242 0.72746
 C2392 C 0.61768 0.38194 0.71753
 C2393 C 0.59926 0.37088 0.72926
 C2394 C 0.59053 0.37974 0.74998
 C2395 C 0.59117 0.40858 0.78114
 C2396 C 0.58405 0.41573 0.79938
 H2397 H 0.62514 0.42682 0.75541
 H2398 H 0.64045 0.41205 0.71945
 H2399 H 0.59154 0.35517 0.72293
 H2400 H 0.57658 0.37078 0.75866
 C2401 C 1.24070 1.09942 1.09901
 C2402 C 1.25019 1.11954 1.08971
 C2403 C 1.27098 1.12829 1.09831
 C2404 C 1.28282 1.11711 1.11660
 C2405 C 1.27297 1.09658 1.12555
 C2406 C 1.25217 1.08792 1.11685
 C2407 C 1.21898 1.09082 1.09053
 C2408 C 1.20066 1.08379 1.08359
 H2409 H 1.24140 1.12861 1.07588
 H2410 H 1.27726 1.14405 1.09062
 H2411 H 1.28108 1.08684 1.13921
 H2412 H 1.24499 1.07226 1.12414
 C2413 C 1.24092 0.59911 0.59900
 C2414 C 1.25048 0.61914 0.58960
 C2415 C 1.27124 0.62792 0.59824
 C2416 C 1.28298 0.61684 0.61666
 C2417 C 1.27306 0.59639 0.62570
 C2418 C 1.25229 0.58771 0.61696
 C2419 C 1.21922 0.59050 0.59048
 C2420 C 1.20091 0.58347 0.58351
 H2421 H 1.24177 0.62814 0.57567
 H2422 H 1.27758 0.64361 0.59046
 H2423 H 1.28109 0.58673 0.63948
 H2424 H 1.24504 0.57211 0.62433
 C2425 C 0.74017 1.09963 0.59952
 C2426 C 0.74557 1.12300 0.59666
 C2427 C 0.76633 1.13178 0.60531
 C2428 C 0.78199 1.11729 0.61698
 C2429 C 0.77643 1.09378 0.61969
 C2430 C 0.75565 1.08503 0.61100
 C2431 C 0.71858 1.09078 0.59096
 C2432 C 0.70036 1.08361 0.58389
 H2433 H 0.73366 1.13448 0.58789
 H2434 H 0.76988 1.15000 0.60322
 H2435 H 0.78821 1.08212 0.62832
 H2436 H 0.75165 1.06690 0.61329
 C2437 C 0.74038 0.60000 1.09959
 C2438 C 0.74577 0.62337 1.09675
 C2439 C 0.76657 0.63214 1.10531
 C2440 C 0.78229 0.61763 1.11689
 C2441 C 0.77674 0.59411 1.11955
 C2442 C 0.75592 0.58537 1.11095
 C2443 C 0.71876 0.59114 1.09111
 C2444 C 0.70052 0.58394 1.08411
 H2445 H 0.73382 0.63487 1.08806
 H2446 H 0.77012 0.65037 1.10326
 H2447 H 0.78857 0.58242 1.12810
 H2448 H 0.75194 0.56723 1.11321
 C2449 C 1.24037 0.90059 0.90054
 C2450 C 1.24996 0.88060 0.91000
 C2451 C 1.27070 0.87175 0.90134
 C2452 C 1.28240 0.88274 0.88284
 C2453 C 1.27243 0.90316 0.87373
 C2454 C 1.25168 0.91189 0.88249
 C2455 C 1.21870 0.90928 0.90910
 C2456 C 1.20042 0.91637 0.91613
 H2457 H 1.24130 0.87168 0.92400
 H2458 H 1.27708 0.85611 0.90919
 H2459 H 1.28041 0.91273 0.85987
 H2460 H 1.24441 0.92747 0.87506
 C2461 C 1.24064 0.40059 0.40032
 C2462 C 1.25013 0.40984 0.38016
 C2463 C 1.27088 0.40118 0.37136
 C2464 C 1.28269 0.38288 0.38254
 C2465 C 1.27283 0.37398 0.40312
 C2466 C 1.25208 0.38274 0.41182
 C2467 C 1.21896 0.40913 0.40897
 C2468 C 1.20066 0.41613 0.41606
 H2469 H 1.24137 0.42368 0.37108
 H2470 H 1.27717 0.40882 0.35556
 H2471 H 1.28093 0.36031 0.41286
 H2472 H 1.24489 0.37549 0.42752
 C2473 C 0.74032 0.90032 0.40007
 C2474 C 0.74576 0.87695 0.40291
 C2475 C 0.76657 0.86820 0.39435
 C2476 C 0.78226 0.88274 0.38278
 C2477 C 0.77666 0.90624 0.38009
 C2478 C 0.75582 0.91496 0.38869
 C2479 C 0.71868 0.90912 0.40856
 C2480 C 0.70041 0.91625 0.41557
 H2481 H 0.73383 0.86544 0.41160
 H2482 H 0.77016 0.84998 0.39641
 H2483 H 0.78846 0.91794 0.37154
 H2484 H 0.75179 0.93310 0.38643
 C2485 C 0.74067 0.40078 0.90036
 C2486 C 0.75010 0.41000 0.88016
 C2487 C 0.77087 0.40137 0.87136
 C2488 C 0.78275 0.38314 0.88258
 C2489 C 0.77295 0.37428 0.90320
 C2490 C 0.75218 0.38300 0.91190
 C2491 C 0.71897 0.40928 0.90903
 C2492 C 0.70067 0.41625 0.91613
 H2493 H 0.74128 0.42378 0.87106
 H2494 H 0.77712 0.40899 0.85553
 H2495 H 0.78110 0.36067 0.91298
 H2496 H 0.74504 0.37577 0.92763
 C2497 C 0.75942 0.90075 1.09943
 C2498 C 0.75406 0.87737 1.09655
 C2499 C 0.73326 0.86858 1.10507
 C2500 C 0.71750 0.88307 1.11663
 C2501 C 0.72303 0.90659 1.11933
 C2502 C 0.74385 0.91535 1.11078
 C2503 C 0.78106 0.90960 1.09100
 C2504 C 0.79932 0.91676 1.08403
 H2505 H 0.76604 0.86589 1.08788
 H2506 H 0.72973 0.85035 1.10299
 H2507 H 0.71117 0.91826 1.12787
 H2508 H 0.74782 0.93349 1.11307
 C2509 C 0.76003 0.39996 0.60014
 C2510 C 0.74450 0.41452 0.61160
 C2511 C 0.72374 0.40572 0.62027
 C2512 C 0.71823 0.38220 0.61757
 C2513 C 0.73395 0.36774 0.60592
 C2514 C 0.75469 0.37657 0.59729
 C2515 C 0.78159 0.40886 0.59157
 C2516 C 0.79979 0.41607 0.58448
 H2517 H 0.74845 0.43267 0.61388
 H2518 H 0.71191 0.41736 0.62888
 H2519 H 0.73044 0.34951 0.60384
 H2520 H 0.76664 0.36512 0.58853
 C2521 C 0.25952 0.90070 0.59924
 C2522 C 0.25401 0.90358 0.62261
 C2523 C 0.23319 0.89504 0.63131
 C2524 C 0.21755 0.88345 0.61673
 C2525 C 0.22322 0.88074 0.59321
 C2526 C 0.24406 0.88932 0.58454
 C2527 C 0.28119 0.90913 0.59049
 C2528 C 0.29949 0.91608 0.58340
 H2529 H 0.26591 0.91227 0.63416
 H2530 H 0.22955 0.89712 0.64954
 H2531 H 0.21145 0.87218 0.58148
 H2532 H 0.24815 0.88703 0.56640
 C2533 C 0.25934 0.40073 1.09916
 C2534 C 0.24981 0.38068 1.08977
 C2535 C 0.22900 0.37193 1.09834
 C2536 C 0.21719 0.38305 1.11668
 C2537 C 0.22709 0.40352 1.12572
 C2538 C 0.24790 0.41217 1.11705
 C2539 C 0.28107 0.40932 1.09071
 C2540 C 0.29940 0.41633 1.08377
 H2541 H 0.25857 0.37165 1.07589
 H2542 H 0.22269 0.35622 1.09057
 H2543 H 0.21900 0.41321 1.13944
 H2544 H 0.25512 0.42779 1.12442
 C2545 C 0.75954 1.10014 0.90008
 C2546 C 0.74998 1.09066 0.88007
 C2547 C 0.72925 1.09929 0.87118
 C2548 C 0.71753 1.11780 0.88213
 C2549 C 0.72748 1.12696 0.90254
 C2550 C 0.74822 1.11822 0.91133
 C2551 C 0.78117 1.09156 0.90885
 C2552 C 0.79942 1.08450 0.91600
 H2553 H 0.75865 1.07664 0.87119
 H2554 H 0.72289 1.09142 0.85553
 H2555 H 0.71949 1.14083 0.91208
 H2556 H 0.75547 1.12567 0.92691
 C2557 C 0.75956 0.59901 0.40052
 C2558 C 0.74406 0.61039 0.41519
 C2559 C 0.72321 0.61896 0.40648
 C2560 C 0.71759 0.61625 0.38295
 C2561 C 0.73326 0.60465 0.36840
 C2562 C 0.75409 0.59612 0.37714
 C2563 C 0.78123 0.59061 0.40932
 C2564 C 0.79953 0.58366 0.41646
 H2565 H 0.74811 0.61270 0.43333
 H2566 H 0.71142 0.62753 0.41819
 H2567 H 0.72966 0.60256 0.35016
 H2568 H 0.76602 0.58741 0.36561
 C2569 C 0.25930 1.09916 0.40042
 C2570 C 0.24979 1.08989 0.38028
 C2571 C 0.22904 1.09857 0.37149
 C2572 C 0.21726 1.11690 0.38266
 C2573 C 0.22715 1.12582 0.40322
 C2574 C 0.24791 1.11704 0.41191
 C2575 C 0.28099 1.09059 0.40907
 C2576 C 0.29928 1.08357 0.41614
 H2577 H 0.25852 1.07603 0.37122
 H2578 H 0.22273 1.09090 0.35572
 H2579 H 0.21909 1.13952 0.41294
 H2580 H 0.25512 1.12431 0.42759
 C2581 C 0.25946 0.59990 0.90051
 C2582 C 0.24998 0.62002 0.90981
 C2583 C 0.22923 0.62886 0.90115
 C2584 C 0.21742 0.61774 0.88281
 C2585 C 0.22730 0.59721 0.87383
 C2586 C 0.24805 0.58848 0.88259
 C2587 C 0.28111 0.59117 0.90911
 C2588 C 0.29936 0.58402 0.91617
 H2589 H 0.25872 0.62904 0.92370
 H2590 H 0.22294 0.64461 0.90886
 H2591 H 0.21923 0.58753 0.86011
 H2592 H 0.25524 0.57281 0.87529
 C2593 C 1.09995 1.24054 1.09932
 C2594 C 1.08533 1.25606 1.11071
 C2595 C 1.09406 1.27688 1.11929
 C2596 C 1.11757 1.28245 1.11658
 C2597 C 1.13209 1.26675 1.10499
 C2598 C 1.12332 1.24594 1.09644
 C2599 C 1.09112 1.21890 1.09087
 C2600 C 1.08394 1.20065 1.08389
 H2601 H 1.06719 1.25206 1.11301
 H2602 H 1.08238 1.28870 1.12786
 H2603 H 1.15031 1.27031 1.10290
 H2604 H 1.13482 1.23400 1.08774
 C2605 C 1.10005 0.74025 0.59949
 C2606 C 1.08536 0.75571 0.61089
 C2607 C 1.09401 0.77656 0.61950
 C2608 C 1.11750 0.78222 0.61679
 C2609 C 1.13208 0.76658 0.60519
 C2610 C 1.12340 0.74575 0.59662
 C2611 C 1.09128 0.71861 0.59099
 C2612 C 1.08415 0.70035 0.58398
 H2613 H 1.06724 0.75164 0.61318
 H2614 H 1.08228 0.78833 0.62806
 H2615 H 1.15029 0.77022 0.60310
 H2616 H 1.13494 0.73386 0.58790
 C2617 C 0.60000 1.23976 0.59988
 C2618 C 0.62338 1.24514 0.59707
 C2619 C 0.63218 1.26587 0.60574
 C2620 C 0.61768 1.28155 0.61739
 C2621 C 0.59416 1.27601 0.62006
 C2622 C 0.58539 1.25525 0.61135
 C2623 C 0.59113 1.21820 0.59129
 C2624 C 0.58394 1.20000 0.58419
 H2625 H 0.63487 1.23322 0.58831
 H2626 H 0.65041 1.26941 0.60369
 H2627 H 0.58249 1.28781 0.62867
 H2628 H 0.56725 1.25127 0.61360
 C2629 C 0.59963 0.74028 1.09941
 C2630 C 0.58496 0.75577 1.11079
 C2631 C 0.59364 0.77662 1.11937
 C2632 C 0.61713 0.78225 1.11666
 C2633 C 0.63169 0.76657 1.10508
 C2634 C 0.62298 0.74575 1.09653
 C2635 C 0.59085 0.71863 1.09095
 C2636 C 0.58373 0.70036 1.08396
 H2637 H 0.56683 0.75173 1.11308
 H2638 H 0.58192 0.78841 1.12793
 H2639 H 0.64990 0.77018 1.10299
 H2640 H 0.63451 0.73383 1.08783
 C2641 C 0.89999 1.24064 0.90045
 C2642 C 0.91462 1.25611 0.88902
 C2643 C 0.90588 1.27690 0.88034
 C2644 C 0.88236 1.28249 0.88299
 C2645 C 0.86784 1.26683 0.89462
 C2646 C 0.87661 1.24606 0.90326
 C2647 C 0.90883 1.21903 0.90899
 C2648 C 0.91600 1.20080 0.91604
 H2649 H 0.93276 1.25209 0.88678
 H2650 H 0.91757 1.28868 0.87175
 H2651 H 0.84961 1.27041 0.89666
 H2652 H 0.86511 1.23416 0.91199
 C2653 C 0.90036 0.74019 0.40033
 C2654 C 0.87699 0.74566 0.40313
 C2655 C 0.86826 0.76644 0.39447
 C2656 C 0.88282 0.78207 0.38285
 C2657 C 0.90632 0.77643 0.38018
 C2658 C 0.91502 0.75563 0.38888
 C2659 C 0.90915 0.71859 0.40892
 C2660 C 0.91628 0.70035 0.41601
 H2661 H 0.86546 0.73379 0.41187
 H2662 H 0.85004 0.77005 0.39651
 H2663 H 0.91803 0.78819 0.37159
 H2664 H 0.93315 0.75157 0.38664
 C2665 C 0.39973 1.24019 0.40037
 C2666 C 0.41437 1.25564 0.38892
 C2667 C 0.40564 1.27642 0.38021
 C2668 C 0.38213 1.28204 0.38286
 C2669 C 0.36760 1.26640 0.39451
 C2670 C 0.37635 1.24564 0.40318
 C2671 C 0.40855 1.21859 0.40895
 C2672 C 0.41573 1.20036 0.41601
 H2673 H 0.43250 1.25160 0.38667
 H2674 H 0.41734 1.28818 0.37160
 H2675 H 0.34937 1.27000 0.39655
 H2676 H 0.36484 1.23375 0.41193
 C2677 C 0.39969 0.74017 0.90048
 C2678 C 0.41428 0.75564 0.88900
 C2679 C 0.40551 0.77642 0.88032
 C2680 C 0.38199 0.78200 0.88302
 C2681 C 0.36751 0.76635 0.89471
 C2682 C 0.37631 0.74559 0.90335
 C2683 C 0.40857 0.71858 0.90904
 C2684 C 0.41578 0.70037 0.91611
 H2685 H 0.43242 0.75163 0.88672
 H2686 H 0.41717 0.78820 0.87169
 H2687 H 0.34929 0.76992 0.89679
 H2688 H 0.36484 0.73369 0.91213
 C2689 C 1.09968 0.76000 0.90028
 C2690 C 1.09688 0.75449 0.87690
 C2691 C 1.10560 0.73373 0.86820
 C2692 C 1.11728 0.71815 0.88279
 C2693 C 1.11994 0.72383 0.90631
 C2694 C 1.11119 0.74462 0.91498
 C2695 C 1.09102 0.78160 0.90905
 C2696 C 1.08389 0.79982 0.91616
 H2697 H 1.08810 0.76633 0.86535
 H2698 H 1.10355 0.73009 0.84997
 H2699 H 1.12858 0.71212 0.91805
 H2700 H 1.11343 0.74871 0.93313
 C2701 C 1.10008 0.25957 0.40043
 C2702 C 1.12345 0.25414 0.40328
 C2703 C 1.13223 0.23336 0.39466
 C2704 C 1.11772 0.21770 0.38302
 C2705 C 1.09421 0.22329 0.38034
 C2706 C 1.08546 0.24409 0.38899
 C2707 C 1.09123 0.28118 0.40895
 C2708 C 1.08405 0.29942 0.41599
 H2709 H 1.13494 0.26605 0.41203
 H2710 H 1.15045 0.22978 0.39673
 H2711 H 1.08253 0.21151 0.37174
 H2712 H 1.06732 0.24811 0.38672
 C2713 C 0.59987 0.75946 0.40017
 C2714 C 0.58521 0.74396 0.38882
 C2715 C 0.59389 0.72310 0.38026
 C2716 C 0.61740 0.71746 0.38294
 C2717 C 0.63195 0.73314 0.39450
 C2718 C 0.62324 0.75398 0.40303
 C2719 C 0.59107 0.78112 0.40860
 C2720 C 0.58392 0.79940 0.41558
 H2721 H 0.56707 0.74801 0.38654
 H2722 H 0.58218 0.71130 0.37173
 H2723 H 0.65017 0.72952 0.39657
 H2724 H 0.63476 0.76591 0.41170
 C2725 C 0.59982 0.25982 0.89976
 C2726 C 0.59695 0.25442 0.87636
 C2727 C 0.60561 0.23367 0.86754
 C2728 C 0.61732 0.21803 0.88203
 C2729 C 0.62001 0.22359 0.90557
 C2730 C 0.61131 0.24435 0.91436
 C2731 C 0.59125 0.28140 0.90866
 C2732 C 0.58418 0.29961 0.91589
 H2733 H 0.58816 0.26632 0.86488
 H2734 H 0.60353 0.23011 0.84930
 H2735 H 0.62865 0.21181 0.91724
 H2736 H 0.61360 0.24835 0.93252
 C2737 C 0.90059 0.75998 1.09972
 C2738 C 0.90342 0.75446 1.12309
 C2739 C 0.89483 0.73365 1.13177
 C2740 C 0.88325 0.71803 1.11716
 C2741 C 0.88058 0.72371 1.09364
 C2742 C 0.88920 0.74455 1.08500
 C2743 C 0.90909 0.78163 1.09098
 C2744 C 0.91610 0.79991 1.08389
 H2745 H 0.91212 0.76634 1.13466
 H2746 H 0.89688 0.73000 1.15000
 H2747 H 0.87202 0.71197 1.08189
 H2748 H 0.88695 0.74865 1.06685
 C2749 C 0.90028 0.25972 0.59977
 C2750 C 0.87691 0.25433 0.59687
 C2751 C 0.86811 0.23356 0.60546
 C2752 C 0.88259 0.21787 0.61711
 C2753 C 0.90610 0.22343 0.61986
 C2754 C 0.91487 0.24422 0.61123
 C2755 C 0.90914 0.28132 0.59126
 C2756 C 0.91631 0.29955 0.58423
 H2757 H 0.86543 0.26626 0.58811
 H2758 H 0.84989 0.23001 0.60335
 H2759 H 0.91776 0.21162 0.62847
 H2760 H 0.93300 0.24821 0.61354
 C2761 C 0.40011 0.75938 0.59931
 C2762 C 0.41471 0.74392 0.61083
 C2763 C 0.40597 0.72313 0.61949
 C2764 C 0.38247 0.71753 0.61673
 C2765 C 0.36798 0.73317 0.60502
 C2766 C 0.37675 0.75394 0.59640
 C2767 C 0.40895 0.78097 0.59076
 C2768 C 0.41613 0.79919 0.58370
 H2769 H 0.43284 0.74795 0.61315
 H2770 H 0.41764 0.71137 0.62814
 H2771 H 0.34977 0.72958 0.60290
 H2772 H 0.36527 0.76583 0.58760
 C2773 C 0.40020 0.25961 1.09960
 C2774 C 0.41478 0.24405 1.11099
 C2775 C 0.40601 0.22323 1.11954
 C2776 C 0.38250 0.21769 1.11678
 C2777 C 0.36802 0.23343 1.10518
 C2778 C 0.37683 0.25423 1.09667
 C2779 C 0.40908 0.28123 1.09117
 C2780 C 0.41628 0.29947 1.08419
 H2781 H 0.43292 0.24803 1.11332
 H2782 H 0.41766 0.21139 1.12811
 H2783 H 0.34980 0.22989 1.10305
 H2784 H 0.36536 0.26620 1.08795
 C2785 C 1.09930 1.09989 0.75926
 C2786 C 1.11711 1.08836 0.74779
 C2787 C 1.12593 1.09708 0.72706
 C2788 C 1.11713 1.11772 0.71726
 C2789 C 1.09887 1.12894 0.72910
 C2790 C 1.09015 1.12011 0.74983
 C2791 C 1.09070 1.09120 0.78092
 C2792 C 1.08366 1.08409 0.79920
 H2793 H 1.12429 1.07261 0.75493
 H2794 H 1.13956 1.08731 0.71894
 H2795 H 1.09130 1.14478 0.72286
 H2796 H 1.07634 1.12921 0.75862
 C2797 C 1.09986 0.60003 0.25944
 C2798 C 1.09050 0.62014 0.24998
 C2799 C 1.09920 0.62908 0.22929
 C2800 C 1.11765 0.61810 0.21751
 C2801 C 1.12668 0.59758 0.22736
 C2802 C 1.11788 0.58874 0.24805
 C2803 C 1.09124 0.59120 0.28104
 C2804 C 1.08415 0.58400 0.29927
 H2805 H 1.07653 0.62905 0.25870
 H2806 H 1.09143 0.64481 0.22301
 H2807 H 1.14049 0.58801 0.21931
 H2808 H 1.12523 0.57308 0.25522
 C2809 C 0.59884 1.09958 0.25889
 C2810 C 0.58959 1.11973 0.24940
 C2811 C 0.59827 1.12854 0.22865
 C2812 C 0.61659 1.11737 0.21684
 C2813 C 0.62548 1.09680 0.22669
 C2814 C 0.61670 1.08809 0.24745
 C2815 C 0.59029 1.09093 0.28058
 C2816 C 0.58331 1.08385 0.29889
 H2817 H 0.57575 1.12879 0.25817
 H2818 H 0.59063 1.14432 0.22236
 H2819 H 0.63916 1.08707 0.21860
 H2820 H 0.62395 1.07240 0.25464
 C2821 C 0.59883 0.59930 0.75927
 C2822 C 0.59597 0.62265 0.75375
 C2823 C 0.60456 0.63133 0.73291
 C2824 C 0.61618 0.61675 0.71728
 C2825 C 0.61886 0.59326 0.72295
 C2826 C 0.61023 0.58461 0.74381
 C2827 C 0.59037 0.59057 0.78096
 C2828 C 0.58341 0.58350 0.79928
 H2829 H 0.58726 0.63420 0.76565
 H2830 H 0.60250 0.64954 0.72927
 H2831 H 0.62745 0.58153 0.71119
 H2832 H 0.61251 0.56649 0.74791
 C2833 C 0.90015 0.90118 0.75939
 C2834 C 0.91488 0.88988 0.74390
 C2835 C 0.90625 0.88124 0.72304
 C2836 C 0.88274 0.88381 0.71739
 C2837 C 0.86812 0.89535 0.73305
 C2838 C 0.87678 0.90395 0.75390
 C2839 C 0.90889 0.90964 0.78109
 C2840 C 0.91600 0.91660 0.79940
 H2841 H 0.93302 0.88768 0.74797
 H2842 H 0.91802 0.87273 0.71126
 H2843 H 0.84989 0.89733 0.72941
 H2844 H 0.86520 0.91259 0.76581
 C2845 C 0.90036 0.40022 0.25946
 C2846 C 0.88223 0.41147 0.24821
 C2847 C 0.87349 0.40275 0.22743
 C2848 C 0.88268 0.38241 0.21738
 C2849 C 0.90123 0.37147 0.22903
 C2850 C 0.90988 0.38028 0.24980
 C2851 C 0.90894 0.40890 0.28114
 C2852 C 0.91601 0.41599 0.29942
 H2853 H 0.87476 0.42699 0.25554
 H2854 H 0.85958 0.41228 0.21950
 H2855 H 0.90914 0.35588 0.22260
 H2856 H 0.92393 0.37140 0.25842
 C2857 C 0.40026 0.90033 0.25899
 C2858 C 0.41059 0.88113 0.24869
 C2859 C 0.40193 0.87229 0.22793
 C2860 C 0.38257 0.88247 0.21693
 C2861 C 0.37257 0.90210 0.22763
 C2862 C 0.38133 0.91084 0.24838
 C2863 C 0.40886 0.90900 0.28066
 C2864 C 0.41592 0.91608 0.29894
 H2865 H 0.42531 0.87285 0.25678
 H2866 H 0.41061 0.85738 0.22090
 H2867 H 0.35790 0.91096 0.22032
 H2868 H 0.37320 0.92577 0.25623
 C2869 C 0.40043 0.39987 0.75973
 C2870 C 0.38900 0.41445 0.74419
 C2871 C 0.38038 0.40567 0.72338
 C2872 C 0.38311 0.38215 0.71783
 C2873 C 0.39474 0.36768 0.73355
 C2874 C 0.40332 0.37649 0.75434
 C2875 C 0.40894 0.40876 0.78134
 C2876 C 0.41598 0.41597 0.79959
 H2877 H 0.38670 0.43260 0.74817
 H2878 H 0.37179 0.41732 0.71154
 H2879 H 0.39684 0.34946 0.73000
 H2880 H 0.41206 0.36503 0.76630
 C2881 C 1.09908 0.90088 1.24091
 C2882 C 1.08973 0.88081 1.25043
 C2883 C 1.09838 0.87197 1.27119
 C2884 C 1.11676 0.88303 1.28297
 C2885 C 1.12575 0.90353 1.27308
 C2886 C 1.11700 0.91226 1.25232
 C2887 C 1.09056 0.90954 1.21920
 C2888 C 1.08358 0.91661 1.20089
 H2889 H 1.07583 0.87182 1.24169
 H2890 H 1.09064 0.85625 1.27750
 H2891 H 1.13949 0.91317 1.28115
 H2892 H 1.12434 0.92790 1.24510
 C2893 C 1.09945 0.40101 0.74105
 C2894 C 1.11948 0.41036 0.75066
 C2895 C 1.12821 0.40173 0.77147
 C2896 C 1.11709 0.38336 0.78321
 C2897 C 1.09663 0.37437 0.77323
 C2898 C 1.08800 0.38310 0.75242
 C2899 C 1.09089 0.40951 0.71930
 C2900 C 1.08390 0.41646 0.70094
 H2901 H 1.12851 0.42426 0.74195
 H2902 H 1.14390 0.40948 0.77785
 H2903 H 1.08695 0.36063 0.78126
 H2904 H 1.07240 0.37577 0.74514
 C2905 C 0.59904 0.89995 0.74056
 C2906 C 0.59625 0.87659 0.74606
 C2907 C 0.60483 0.86791 0.76691
 C2908 C 0.61636 0.88252 0.78258
 C2909 C 0.61894 0.90602 0.77693
 C2910 C 0.61033 0.91466 0.75606
 C2911 C 0.59061 0.90869 0.71885
 C2912 C 0.58367 0.91581 0.70053
 H2913 H 0.58762 0.86503 0.73413
 H2914 H 0.60283 0.84970 0.77055
 H2915 H 0.62745 0.91777 0.78872
 H2916 H 0.61255 0.93279 0.75198
 C2917 C 0.59982 0.40059 1.24094
 C2918 C 0.62003 0.40971 1.25039
 C2919 C 0.62882 0.40101 1.27116
 C2920 C 0.61756 0.38280 1.28301
 C2921 C 0.59693 0.37403 1.27319
 C2922 C 0.58825 0.38283 1.25242
 C2923 C 0.59116 0.40917 1.21926
 C2924 C 0.58406 0.41620 1.20096
 H2925 H 0.62917 0.42348 1.24159
 H2926 H 0.64466 0.40855 1.27741
 H2927 H 0.58713 0.36044 1.28132
 H2928 H 0.57250 0.37567 1.24527
 C2929 C 0.90073 1.10003 1.24090
 C2930 C 0.88928 1.08533 1.25631
 C2931 C 0.88063 1.09395 1.27718
 C2932 C 0.88334 1.11742 1.28292
 C2933 C 0.89499 1.13201 1.26734
 C2934 C 0.90360 1.12336 1.24648
 C2935 C 0.90924 1.09131 1.21922
 C2936 C 0.91625 1.08421 1.20092
 H2937 H 0.88699 1.06723 1.25217
 H2938 H 0.87202 1.08221 1.28890
 H2939 H 0.89707 1.15020 1.27104
 H2940 H 0.91235 1.13491 1.23463
 C2941 C 0.90069 0.60007 0.74073
 C2942 C 0.90352 0.62343 0.74620
 C2943 C 0.89485 0.63217 0.76700
 C2944 C 0.88318 0.61764 0.78263
 C2945 C 0.88052 0.59413 0.77699
 C2946 C 0.88923 0.58543 0.75618
 C2947 C 0.90927 0.59125 0.71911
 C2948 C 0.91634 0.58407 0.70086
 H2949 H 0.91228 0.63494 0.73432
 H2950 H 0.89690 0.65038 0.77061
 H2951 H 0.87191 0.58244 0.78875
 H2952 H 0.88698 0.56730 0.75212
 C2953 C 0.40026 1.09989 0.74037
 C2954 C 0.40315 1.12327 0.74573
 C2955 C 0.39453 1.13214 0.76649
 C2956 C 0.38285 1.11771 0.78221
 C2957 C 0.38013 1.09419 0.77670
 C2958 C 0.38878 1.08536 0.75592
 C2959 C 0.40879 1.09095 0.71878
 C2960 C 0.41585 1.08370 0.70056
 H2961 H 0.41192 1.13470 0.73377
 H2962 H 0.39663 1.15036 0.77002
 H2963 H 0.37151 1.08257 0.78853
 H2964 H 0.38648 1.06722 0.75196
 C2965 C 0.40038 0.59943 1.24091
 C2966 C 0.38027 0.59017 1.25046
 C2967 C 0.37148 0.59888 1.27122
 C2968 C 0.38262 0.61723 1.28297
 C2969 C 0.40314 0.62615 1.27304
 C2970 C 0.41182 0.61734 1.25228
 C2971 C 0.40903 0.59082 1.21923
 C2972 C 0.41611 0.58377 1.20095
 H2973 H 0.37123 0.57629 1.24175
 H2974 H 0.35574 0.59121 1.27755
 H2975 H 0.41283 0.63987 1.28108
 H2976 H 0.42748 0.62461 1.24504
 C2977 C 1.09955 1.24048 0.90003
 C2978 C 1.09668 1.24601 0.87665
 C2979 C 1.10533 1.26679 0.86795
 C2980 C 1.11701 1.28237 0.88253
 C2981 C 1.11972 1.27667 0.90604
 C2982 C 1.11104 1.25587 0.91471
 C2983 C 1.09097 1.21887 0.90880
 C2984 C 1.08390 1.20064 0.91594
 H2985 H 1.08790 1.23417 0.86511
 H2986 H 1.10324 1.27045 0.84973
 H2987 H 1.12835 1.28839 0.91777
 H2988 H 1.11332 1.25177 0.93285
 C2989 C 1.09966 0.74012 0.39984
 C2990 C 1.11120 0.75551 0.41448
 C2991 C 1.11985 0.77631 0.40577
 C2992 C 1.11706 0.78200 0.38227
 C2993 C 1.10534 0.76642 0.36774
 C2994 C 1.09672 0.74563 0.37648
 C2995 C 1.09110 0.71851 0.40866
 C2996 C 1.08404 0.70029 0.41582
 H2997 H 1.11354 0.75142 0.43261
 H2998 H 1.12852 0.78803 0.41747
 H2999 H 1.10319 0.77007 0.34952
 H3000 H 1.08790 0.73379 0.36496
 C3001 C 0.59930 1.24015 0.40006
 C3002 C 0.61072 1.25559 0.41475
 C3003 C 0.61942 1.27638 0.40606
 C3004 C 0.61680 1.28201 0.38252
 C3005 C 0.60517 1.26640 0.36794
 C3006 C 0.59651 1.24563 0.37666
 C3007 C 0.59076 1.21854 0.40885
 C3008 C 0.58371 1.20030 0.41600
 H3009 H 0.61295 1.25153 0.43290
 H3010 H 0.62801 1.28812 0.41780
 H3011 H 0.60315 1.27002 0.34970
 H3012 H 0.58778 1.23376 0.36512
 C3013 C 0.59975 0.74037 0.90105
 C3014 C 0.62313 0.74579 0.90385
 C3015 C 0.63185 0.76662 0.89531
 C3016 C 0.61728 0.78233 0.88380
 C3017 C 0.59375 0.77677 0.88121
 C3018 C 0.58507 0.75593 0.88978
 C3019 C 0.59096 0.71870 0.90943
 C3020 C 0.58379 0.70042 0.91636
 H3021 H 0.63467 0.73383 0.91247
 H3022 H 0.65008 0.77020 0.89731
 H3023 H 0.58202 0.78859 0.87272
 H3024 H 0.56692 0.75192 0.88756
 C3025 C 0.90084 1.24090 1.09967
 C3026 C 0.91009 1.25037 1.11983
 C3027 C 0.90143 1.27112 1.12864
 C3028 C 0.88313 1.28294 1.11746
 C3029 C 0.87423 1.27309 1.09688
 C3030 C 0.88299 1.25234 1.08818
 C3031 C 0.90937 1.21921 1.09101
 C3032 C 0.91636 1.20091 1.08394
 H3033 H 0.92393 1.24160 1.12891
 H3034 H 0.90909 1.27740 1.14444
 H3035 H 0.86056 1.28119 1.08714
 H3036 H 0.87573 1.24516 1.07247
 C3037 C 0.90117 0.74054 0.59985
 C3038 C 0.90394 0.74607 0.62323
 C3039 C 0.89534 0.76691 0.63188
 C3040 C 0.88379 0.78253 0.61723
 C3041 C 0.88122 0.77685 0.59370
 C3042 C 0.88986 0.75600 0.58509
 C3043 C 0.90963 0.71886 0.59113
 C3044 C 0.91659 0.70056 0.58402
 H3045 H 0.91259 0.73418 0.63483
 H3046 H 0.89732 0.77057 0.65012
 H3047 H 0.87270 0.78860 0.58191
 H3048 H 0.88766 0.75190 0.56694
 C3049 C 0.40080 1.24032 0.59946
 C3050 C 0.38288 1.25170 0.58801
 C3051 C 0.37415 1.27249 0.59668
 C3052 C 0.38316 1.28243 0.61717
 C3053 C 0.40153 1.27067 0.62829
 C3054 C 0.41016 1.24989 0.61952
 C3055 C 0.40931 1.21861 0.59084
 C3056 C 0.41629 1.20030 0.58380
 H3057 H 0.37553 1.24445 0.57238
 H3058 H 0.36041 1.28053 0.58699
 H3059 H 0.40929 1.27702 0.64401
 H3060 H 0.42406 1.24117 0.62855
 C3061 C 0.40055 0.74050 1.09972
 C3062 C 0.40983 0.75006 1.11983
 C3063 C 0.40116 0.77083 1.12858
 C3064 C 0.38282 0.78259 1.11740
 C3065 C 0.37388 0.77265 1.09688
 C3066 C 0.38265 0.75188 1.08823
 C3067 C 0.40912 0.71881 1.09110
 C3068 C 0.41614 0.70052 1.08405
 H3069 H 0.42370 0.74135 1.12890
 H3070 H 0.40884 0.77718 1.14433
 H3071 H 0.36017 0.78069 1.08715
 H3072 H 0.37536 0.74463 1.07257
 C3073 C 0.90021 0.75983 0.90111
 C3074 C 0.91491 0.74432 0.88980
 C3075 C 0.90625 0.72347 0.88121
 C3076 C 0.88274 0.71788 0.88382
 C3077 C 0.86815 0.73357 0.89535
 C3078 C 0.87684 0.75439 0.90391
 C3079 C 0.90897 0.78151 0.90953
 C3080 C 0.91608 0.79980 0.91648
 H3081 H 0.93305 0.74835 0.88757
 H3082 H 0.91798 0.71167 0.87270
 H3083 H 0.84993 0.72998 0.89736
 H3084 H 0.86529 0.76633 0.91255
 C3085 C 0.90062 0.25937 0.40148
 C3086 C 0.91531 0.24381 0.39022
 C3087 C 0.90664 0.22295 0.38169
 C3088 C 0.88312 0.21737 0.38432
 C3089 C 0.86855 0.23309 0.39582
 C3090 C 0.87725 0.25394 0.40431
 C3091 C 0.90938 0.28107 0.40982
 C3092 C 0.91649 0.29939 0.41670
 H3093 H 0.93345 0.24784 0.38797
 H3094 H 0.91837 0.21112 0.37320
 H3095 H 0.85032 0.22951 0.39785
 H3096 H 0.86571 0.26590 0.41292
 C3097 C 0.40069 0.75921 0.40005
 C3098 C 0.40997 0.74961 0.37996
 C3099 C 0.40128 0.72885 0.37122
 C3100 C 0.38293 0.71715 0.38241
 C3101 C 0.37398 0.72713 0.40292
 C3102 C 0.38277 0.74790 0.41155
 C3103 C 0.40927 0.78089 0.40865
 C3104 C 0.41631 0.79918 0.41569
 H3105 H 0.42385 0.75828 0.37088
 H3106 H 0.40897 0.72247 0.35548
 H3107 H 0.36026 0.71914 0.41265
 H3108 H 0.37549 0.75517 0.42720
 C3109 C 0.40055 0.25943 0.90066
 C3110 C 0.41190 0.24808 0.88265
 C3111 C 0.40318 0.22735 0.87388
 C3112 C 0.38271 0.21743 0.88293
 C3113 C 0.37167 0.22916 0.90138
 C3114 C 0.38050 0.24989 0.91005
 C3115 C 0.40923 0.28108 0.90924
 C3116 C 0.41631 0.29935 0.91628
 H3117 H 0.42751 0.25532 0.87528
 H3118 H 0.41279 0.21934 0.86006
 H3119 H 0.35599 0.22283 0.90917
 H3120 H 0.37154 0.25858 0.92402
 C3121 C 1.09966 0.75998 1.10010
 C3122 C 1.11762 0.74863 1.08869
 C3123 C 1.12644 0.72791 1.09742
 C3124 C 1.11748 0.71800 1.11795
 C3125 C 1.09909 0.72974 1.12906
 C3126 C 1.09037 0.75045 1.12022
 C3127 C 1.09102 0.78161 1.09138
 C3128 C 1.08394 0.79985 1.08424
 H3129 H 1.12492 0.75585 1.07302
 H3130 H 1.14020 0.71989 1.08775
 H3131 H 1.09138 0.72341 1.14481
 H3132 H 1.07644 0.75915 1.12923
 C3133 C 1.10011 0.25958 0.59987
 C3134 C 1.12025 0.25006 0.59064
 C3135 C 1.12905 0.22933 0.59935
 C3136 C 1.11787 0.21755 0.61768
 C3137 C 1.09733 0.22746 0.62659
 C3138 C 1.08864 0.24820 0.61778
 C3139 C 1.09142 0.28122 0.59123
 C3140 C 1.08430 0.29946 0.58415
 H3141 H 1.12931 0.25878 0.57676
 H3142 H 1.14482 0.22301 0.59169
 H3143 H 1.08760 0.21941 0.64030
 H3144 H 1.07295 0.25541 0.62503
 C3145 C 0.59962 0.75941 0.59921
 C3146 C 0.61117 0.74400 0.58458
 C3147 C 0.61977 0.72316 0.59328
 C3148 C 0.61692 0.71746 0.61677
 C3149 C 0.60521 0.73307 0.63130
 C3150 C 0.59664 0.75388 0.62257
 C3151 C 0.59110 0.78104 0.59042
 C3152 C 0.58404 0.79929 0.58331
 H3153 H 0.61354 0.74810 0.56645
 H3154 H 0.62844 0.71142 0.58159
 H3155 H 0.60302 0.72942 0.64951
 H3156 H 0.58783 0.76574 0.63408
 C3157 C 0.59960 0.25944 1.09971
 C3158 C 0.61773 0.24820 1.08845
 C3159 C 0.62645 0.22742 1.09713
 C3160 C 0.61722 0.21733 1.11745
 C3161 C 0.59866 0.22896 1.12840
 C3162 C 0.59004 0.24974 1.11962
 C3163 C 0.59105 0.28113 1.09107
 C3164 C 0.58402 0.29942 1.08401
 H3165 H 0.62524 0.25556 1.07295
 H3166 H 0.64037 0.21950 1.08760
 H3167 H 0.59072 0.22250 1.14398
 H3168 H 0.57598 0.25835 1.12850
 C3169 C 1.24013 1.10023 0.90025
 C3170 C 1.24551 1.12360 0.90312
 C3171 C 1.26629 1.13240 0.89454
 C3172 C 1.28200 1.11791 0.88291
 C3173 C 1.27646 1.09440 0.88020
 C3174 C 1.25566 1.08563 0.88882
 C3175 C 1.21853 1.09135 0.90876
 C3176 C 1.20031 1.08415 0.91579
 H3177 H 1.23357 1.13507 0.91186
 H3178 H 1.26983 1.15062 0.89662
 H3179 H 1.28828 1.08273 0.87162
 H3180 H 1.25168 1.06749 0.88654
 C3181 C 1.24040 0.59986 0.40042
 C3182 C 1.25595 0.58524 0.38906
 C3183 C 1.27675 0.59399 0.38045
 C3184 C 1.28228 0.61752 0.38308
 C3185 C 1.26655 0.63203 0.39465
 C3186 C 1.24577 0.62325 0.40324
 C3187 C 1.21878 0.59100 0.40888
 C3188 C 1.20054 0.58381 0.41588
 H3189 H 1.25198 0.56709 0.38682
 H3190 H 1.28859 0.58230 0.37191
 H3191 H 1.27008 0.65026 0.39669
 H3192 H 1.23380 0.63474 0.41191
 C3193 C 0.74024 1.09953 0.40051
 C3194 C 0.74573 1.12286 0.40351
 C3195 C 0.76658 1.13158 0.39504
 C3196 C 0.78226 1.11706 0.38342
 C3197 C 0.77661 1.09359 0.38057
 C3198 C 0.75573 1.08490 0.38907
 C3199 C 0.71857 1.09074 0.40891
 C3200 C 0.70029 1.08362 0.41588
 H3201 H 0.73381 1.13436 0.41225
 H3202 H 0.77021 1.14977 0.39723
 H3203 H 0.78840 1.08191 0.37197
 H3204 H 0.75166 1.06680 0.38668
 C3205 C 0.74020 0.59973 0.90044
 C3206 C 0.74561 0.62309 0.90334
 C3207 C 0.76640 0.63186 0.89478
 C3208 C 0.78210 0.61737 0.88316
 C3209 C 0.77652 0.59387 0.88039
 C3210 C 0.75570 0.58513 0.88899
 C3211 C 0.71859 0.59089 0.90895
 C3212 C 0.70035 0.58373 0.91600
 H3213 H 0.73368 0.63458 0.91209
 H3214 H 0.76998 0.65008 0.89691
 H3215 H 0.78833 0.58220 0.87179
 H3216 H 0.75169 0.56700 0.88667
 C3217 C 1.24033 0.90008 1.09949
 C3218 C 1.24569 0.87668 1.09667
 C3219 C 1.26647 0.86787 1.10525
 C3220 C 1.28220 0.88235 1.11683
 C3221 C 1.27668 0.90589 1.11947
 C3222 C 1.25588 0.91467 1.11085
 C3223 C 1.21871 0.90897 1.09102
 C3224 C 1.20047 0.91619 1.08403
 H3225 H 1.23372 0.86521 1.08798
 H3226 H 1.27000 0.84963 1.10321
 H3227 H 1.28851 0.91755 1.12801
 H3228 H 1.25191 0.93282 1.11310
 C3229 C 1.24057 0.39968 0.59950
 C3230 C 1.24600 0.37630 0.59665
 C3231 C 1.26677 0.36752 0.60527
 C3232 C 1.28244 0.38202 0.61692
 C3233 C 1.27685 0.40554 0.61960
 C3234 C 1.25606 0.41429 0.61094
 C3235 C 1.21896 0.40853 0.59096
 C3236 C 1.20073 0.41573 0.58392
 H3237 H 1.23408 0.36482 0.58791
 H3238 H 1.27035 0.34930 0.60320
 H3239 H 1.28864 0.41721 0.62819
 H3240 H 1.25204 0.43242 0.61320
 C3241 C 0.74056 0.90008 0.59874
 C3242 C 0.74606 0.87671 0.59600
 C3243 C 0.76690 0.86806 0.60460
 C3244 C 0.78254 0.88269 0.61612
 C3245 C 0.77689 0.90620 0.61866
 C3246 C 0.75603 0.91482 0.61003
 C3247 C 0.71886 0.90881 0.59029
 C3248 C 0.70057 0.91593 0.58334
 H3249 H 0.73416 0.86513 0.58737
 H3250 H 0.77054 0.84984 0.60263
 H3251 H 0.78865 0.91797 0.62716
 H3252 H 0.75195 0.93296 0.61221
 C3253 C 0.74040 0.39997 1.09979
 C3254 C 0.75585 0.41459 1.11126
 C3255 C 0.77665 0.40587 1.11994
 C3256 C 0.78227 0.38236 1.11725
 C3257 C 0.76664 0.36785 1.10558
 C3258 C 0.74586 0.37660 1.09693
 C3259 C 0.71879 0.40880 1.09123
 C3260 C 0.70056 0.41597 1.08417
 H3261 H 0.75180 0.43273 1.11354
 H3262 H 0.78841 0.41755 1.12856
 H3263 H 0.77024 0.34963 1.10350
 H3264 H 0.73398 0.36511 1.08817
 C3265 C 0.75960 1.09993 1.10005
 C3266 C 0.74418 1.11141 1.08538
 C3267 C 0.72335 1.12005 1.09406
 C3268 C 0.71767 1.11731 1.11757
 C3269 C 0.73327 1.10564 1.13214
 C3270 C 0.75409 1.09703 1.12342
 C3271 C 0.78124 1.09142 1.09126
 C3272 C 0.79950 1.08438 1.08412
 H3273 H 0.74827 1.11372 1.06724
 H3274 H 0.71161 1.12867 1.08234
 H3275 H 0.72962 1.10353 1.15036
 H3276 H 0.76595 1.08827 1.13495
 C3277 C 0.75977 0.59945 0.60000
 C3278 C 0.74436 0.61086 0.58527
 C3279 C 0.72348 0.61945 0.59387
 C3280 C 0.71773 0.61674 0.61737
 C3281 C 0.73333 0.60513 0.63200
 C3282 C 0.75419 0.59657 0.62336
 C3283 C 0.78146 0.59096 0.59128
 C3284 C 0.79974 0.58395 0.58418
 H3285 H 0.74850 0.61315 0.56714
 H3286 H 0.71175 0.62803 0.58210
 H3287 H 0.72963 0.60304 0.65021
 H3288 H 0.76605 0.58785 0.63494
 C3289 C 0.25980 1.09953 0.60020
 C3290 C 0.25434 1.09670 0.62359
 C3291 C 0.23361 1.10545 0.63235
 C3292 C 0.21803 1.11719 0.61782
 C3293 C 0.22365 1.11986 0.59429
 C3294 C 0.24440 1.11108 0.58555
 C3295 C 0.28137 1.09089 0.59135
 C3296 C 0.29958 1.08377 0.58416
 H3297 H 0.26619 1.08788 0.63510
 H3298 H 0.23000 1.10338 0.65059
 H3299 H 0.21193 1.12854 0.58259
 H3300 H 0.24845 1.11334 0.56740
 C3301 C 0.25985 0.60034 1.10003
 C3302 C 0.25455 0.62375 1.09721
 C3303 C 0.23382 0.63262 1.10586
 C3304 C 0.21808 0.61819 1.11748
 C3305 C 0.22354 0.59464 1.12011
 C3306 C 0.24429 0.58579 1.11143
 C3307 C 0.28142 0.59138 1.09148
 C3308 C 0.29961 0.58411 1.08442
 H3309 H 0.26653 0.63518 1.08849
 H3310 H 0.23034 0.65087 1.10382
 H3311 H 0.21169 0.58301 1.12869
 H3312 H 0.24820 0.56763 1.11367
 C3313 C 0.75945 0.90099 0.90021
 C3314 C 0.74404 0.88962 0.91496
 C3315 C 0.72323 0.88089 0.90632
 C3316 C 0.71757 0.88344 0.88278
 C3317 C 0.73316 0.89502 0.86814
 C3318 C 0.75395 0.90371 0.87681
 C3319 C 0.78108 0.90956 0.90896
 C3320 C 0.79932 0.91662 0.91609
 H3321 H 0.74811 0.88745 0.93311
 H3322 H 0.71150 0.87235 0.91810
 H3323 H 0.72952 0.89698 0.84990
 H3324 H 0.76581 0.91239 0.86522
 C3325 C 0.75979 0.39983 0.40062
 C3326 C 0.75439 0.37645 0.40340
 C3327 C 0.73363 0.36769 0.39475
 C3328 C 0.71795 0.38222 0.38314
 C3329 C 0.72350 0.40575 0.38054
 C3330 C 0.74428 0.41447 0.38922
 C3331 C 0.78139 0.40867 0.40917
 C3332 C 0.79961 0.41587 0.41622
 H3333 H 0.76632 0.36494 0.41211
 H3334 H 0.73007 0.34946 0.39676
 H3335 H 0.71170 0.41745 0.37197
 H3336 H 0.74828 0.43262 0.38701
 C3337 C 0.25973 0.90012 0.39975
 C3338 C 0.24434 0.88859 0.41441
 C3339 C 0.22353 0.87993 0.40571
 C3340 C 0.21783 0.88270 0.38221
 C3341 C 0.23341 0.89441 0.36766
 C3342 C 0.25420 0.90304 0.37638
 C3343 C 0.28133 0.90868 0.40855
 C3344 C 0.29957 0.91575 0.41570
 H3345 H 0.24844 0.88626 0.43254
 H3346 H 0.21182 0.87127 0.41742
 H3347 H 0.22975 0.89655 0.34944
 H3348 H 0.26604 0.91185 0.36486
 C3349 C 0.25978 0.40033 0.90030
 C3350 C 0.24435 0.38884 0.91495
 C3351 C 0.22354 0.38021 0.90624
 C3352 C 0.21787 0.38297 0.88273
 C3353 C 0.23349 0.39464 0.86818
 C3354 C 0.25428 0.40323 0.87693
 C3355 C 0.28139 0.40887 0.90911
 C3356 C 0.29962 0.41594 0.91626
 H3357 H 0.24843 0.38652 0.93309
 H3358 H 0.21179 0.37158 0.91794
 H3359 H 0.22986 0.39676 0.84996
 H3360 H 0.26615 0.41201 0.86541
   
