data_POSCAR
  _audit_creation_date              2014-09-24
  _audit_creation_method            'ToBaCCo'
  _symmetry_space_group_name_H-M    'P1'
  _symmetry_Int_Tables_number       1
  _symmetry_cell_setting            triclinic
  loop_
  _symmetry_equiv_pos_as_xyz
 x,y,z
_cell_length_a 83.6426
_cell_length_b 85.7886
_cell_length_c 80.9195
_cell_angle_alpha 90.231600
_cell_angle_beta 90.033200
_cell_angle_gamma 89.926500
loop_
  _atom_site_label
  _atom_site_type_symbol
  _atom_site_fract_x
  _atom_site_fract_y
  _atom_site_fract_z
N1 N 0.36104 0.32296 0.32641
 N2 N 0.36198 0.33512 0.31663
 C3 C 0.37491 0.33373 0.30690
 C4 C 0.38250 0.31986 0.31063
 C5 C 0.37329 0.31322 0.32300
 H6 H 0.37840 0.34215 0.29767
 H7 H 0.37553 0.30236 0.32935
 Cu8 Cu 0.34622 0.35170 0.31717
 Cu9 Cu 0.34418 0.32148 0.34318
 Cu10 Cu 0.33170 0.35852 0.35484
 N11 N 0.33410 0.37044 0.32193
 N12 N 0.32909 0.37342 0.33699
 C13 C 0.32187 0.38743 0.33726
 C14 C 0.32211 0.39340 0.32140
 C15 C 0.32994 0.38229 0.31195
 H16 H 0.31637 0.39261 0.34806
 H17 H 0.33258 0.38286 0.29888
 N18 N 0.32841 0.33986 0.36853
 N19 N 0.33238 0.32561 0.36388
 C20 C 0.32665 0.31540 0.37504
 C21 C 0.31863 0.32368 0.38729
 C22 C 0.32008 0.33914 0.38268
 H23 H 0.32793 0.30289 0.37408
 H24 H 0.31464 0.34913 0.38860
 H25 H 0.32890 0.34060 0.33826
 H26 H 0.34964 0.34392 0.34598
 N27 N 0.37054 0.82344 -0.18364
 N28 N 0.36905 0.83597 -0.19276
 C29 C 0.38124 0.83659 -0.20358
 C30 C 0.39078 0.82348 -0.20141
 C31 C 0.38351 0.81540 -0.18859
 H32 H 0.38256 0.84558 -0.21279
 H33 H 0.38737 0.80457 -0.18308
 Cu34 Cu 0.35055 0.84952 -0.19072
 Cu35 Cu 0.35532 0.81848 -0.16626
 Cu36 Cu 0.33036 0.84907 -0.15481
 N37 N 0.33631 0.86634 -0.18448
 N38 N 0.32946 0.86676 -0.16988
 C39 C 0.32102 0.88007 -0.16846
 C40 C 0.32235 0.88832 -0.18315
 C41 C 0.33217 0.87914 -0.19302
 H42 H 0.31378 0.88307 -0.15785
 H43 H 0.33635 0.88170 -0.20535
 N44 N 0.33278 0.82987 -0.14162
 N45 N 0.34243 0.81835 -0.14590
 C46 C 0.34108 0.80677 -0.13479
 C47 C 0.32980 0.81107 -0.12316
 C48 C 0.32475 0.82575 -0.12789
 H49 H 0.34731 0.79574 -0.13549
 H50 H 0.31567 0.83276 -0.12190
 H51 H 0.33555 0.83239 -0.17208
 H52 H 0.35305 0.84190 -0.16196
 N53 N 0.87579 0.32827 -0.16882
 N54 N 0.87814 0.34180 -0.17594
 C55 C 0.89119 0.34087 -0.18562
 C56 C 0.89729 0.32589 -0.18457
 C57 C 0.88719 0.31822 -0.17377
 H58 H 0.89560 0.35027 -0.19323
 H59 H 0.88807 0.30624 -0.16979
 Cu60 Cu 0.86347 0.35908 -0.17262
 Cu61 Cu 0.85818 0.32484 -0.15365
 Cu62 Cu 0.82804 0.35241 -0.15376
 N63 N 0.84541 0.37304 -0.17510
 N64 N 0.83137 0.37015 -0.16851
 C65 C 0.82106 0.38144 -0.17308
 C66 C 0.82913 0.39207 -0.18300
 C67 C 0.84459 0.38625 -0.18392
 H68 H 0.80871 0.38194 -0.16919
 H69 H 0.85451 0.39090 -0.19087
 N70 N 0.82753 0.33367 -0.13954
 N71 N 0.83939 0.32351 -0.13925
 C72 C 0.83677 0.31312 -0.12718
 C73 C 0.82251 0.31677 -0.11953
 C74 C 0.81685 0.32980 -0.12773
 H75 H 0.84485 0.30380 -0.12387
 H76 H 0.80628 0.33647 -0.12464
 H77 H 0.84343 0.33938 -0.16778
 H78 H 0.85148 0.34797 -0.14806
 N79 N 0.86750 0.82244 0.32356
 N80 N 0.87040 0.83551 0.31572
 C81 C 0.88443 0.83420 0.30768
 C82 C 0.89050 0.81943 0.31052
 C83 C 0.87943 0.81227 0.32062
 H84 H 0.88958 0.84304 0.29982
 H85 H 0.87995 0.80051 0.32537
 Cu86 Cu 0.85473 0.85230 0.31569
 Cu87 Cu 0.84832 0.81955 0.33672
 Cu88 Cu 0.82003 0.84910 0.33632
 N89 N 0.83908 0.86907 0.31570
 N90 N 0.82524 0.86759 0.32321
 C91 C 0.81610 0.88013 0.31978
 C92 C 0.82475 0.89012 0.30964
 C93 C 0.83935 0.88266 0.30749
 H94 H 0.80400 0.88167 0.32420
 H95 H 0.84917 0.88639 0.29980
 N96 N 0.81887 0.83106 0.35156
 N97 N 0.82995 0.82008 0.35179
 C98 C 0.82706 0.81035 0.36439
 C99 C 0.81341 0.81525 0.37243
 C100 C 0.80841 0.82837 0.36394
 H101 H 0.83455 0.80057 0.36775
 H102 H 0.79842 0.83583 0.36710
 H103 H 0.83361 0.83405 0.32264
 H104 H 0.84338 0.84324 0.34110
 N105 N 0.63438 0.67194 0.31793
 N106 N 0.63350 0.65873 0.30969
 C107 C 0.62101 0.65931 0.29924
 C108 C 0.61369 0.67373 0.30093
 C109 C 0.62258 0.68146 0.31287
 H110 H 0.61763 0.64999 0.29091
 H111 H 0.62047 0.69301 0.31781
 Cu112 Cu 0.64912 0.64227 0.31312
 Cu113 Cu 0.65060 0.67545 0.33486
 Cu114 Cu 0.66454 0.64065 0.35121
 N115 N 0.66302 0.62526 0.31971
 N116 N 0.66867 0.62440 0.33483
 C117 C 0.67754 0.61137 0.33627
 C118 C 0.67768 0.60380 0.32111
 C119 C 0.66831 0.61297 0.31089
 H120 H 0.68387 0.60798 0.34735
 H121 H 0.66555 0.61085 0.29803
 N122 N 0.66574 0.66078 0.36304
 N123 N 0.66128 0.67414 0.35644
 C124 C 0.66472 0.68582 0.36702
 C125 C 0.67164 0.67948 0.38101
 C126 C 0.67208 0.66358 0.37804
 H127 H 0.66219 0.69799 0.36476
 H128 H 0.67716 0.65473 0.38595
 H129 H 0.66630 0.65627 0.33255
 H130 H 0.64571 0.65323 0.34077
 N131 N 0.62484 0.16293 -0.16495
 N132 N 0.62545 0.15026 -0.17409
 C133 C 0.61405 0.15101 -0.18581
 C134 C 0.60589 0.16497 -0.18394
 C135 C 0.61306 0.17221 -0.17051
 H136 H 0.61218 0.14224 -0.19526
 H137 H 0.61004 0.18343 -0.16521
 Cu138 Cu 0.64147 0.13429 -0.17008
 Cu139 Cu 0.63960 0.16622 -0.14669
 Cu140 Cu 0.67585 0.14767 -0.15356
 N141 N 0.66076 0.12181 -0.16988
 N142 N 0.67449 0.12738 -0.16462
 C143 C 0.68610 0.11690 -0.16790
 C144 C 0.67915 0.10387 -0.17523
 C145 C 0.66300 0.10747 -0.17616
 H146 H 0.69858 0.11856 -0.16485
 H147 H 0.65366 0.10064 -0.18187
 N148 N 0.67309 0.16497 -0.13742
 N149 N 0.65908 0.17155 -0.13459
 C150 C 0.66045 0.18177 -0.12208
 C151 C 0.67610 0.18167 -0.11659
 C152 C 0.68385 0.17095 -0.12669
 H153 H 0.65068 0.18865 -0.11723
 H154 H 0.69617 0.16722 -0.12575
 H155 H 0.65565 0.15830 -0.16333
 H156 H 0.65309 0.14527 -0.14506
 N157 N 0.12359 0.66758 -0.17817
 N158 N 0.12493 0.65587 -0.18857
 C159 C 0.11374 0.65726 -0.20043
 C160 C 0.10496 0.67063 -0.19732
 C161 C 0.11153 0.67690 -0.18306
 H162 H 0.11234 0.64938 -0.21079
 H163 H 0.10781 0.68738 -0.17666
 Cu164 Cu 0.14167 0.64043 -0.18579
 Cu165 Cu 0.13734 0.66941 -0.15880
 Cu166 Cu 0.17288 0.64825 -0.16134
 N167 N 0.15810 0.62493 -0.18188
 N168 N 0.17078 0.62817 -0.17289
 C169 C 0.18118 0.61617 -0.17399
 C170 C 0.17448 0.60473 -0.18402
 C171 C 0.15982 0.61073 -0.18871
 H172 H 0.19283 0.61593 -0.16819
 H173 H 0.15145 0.60550 -0.19727
 N174 N 0.16952 0.66571 -0.14553
 N175 N 0.15580 0.67326 -0.14433
 C176 C 0.15690 0.68405 -0.13231
 C177 C 0.17204 0.68334 -0.12547
 C178 C 0.17976 0.67158 -0.13420
 H179 H 0.14744 0.69207 -0.12904
 H180 H 0.19182 0.66743 -0.13228
 H181 H 0.15589 0.66230 -0.17316
 H182 H 0.14906 0.64769 -0.15773
 N183 N 0.13048 0.16325 0.33861
 N184 N 0.13295 0.15679 0.32408
 C185 C 0.12093 0.16077 0.31382
 C186 C 0.11027 0.17006 0.32253
 C187 C 0.11668 0.17128 0.33825
 H188 H 0.12000 0.15715 0.30104
 H189 H 0.11202 0.17800 0.34851
 Cu190 Cu 0.15153 0.14361 0.32042
 Cu191 Cu 0.14576 0.16131 0.35663
 Cu192 Cu 0.18351 0.14879 0.34479
 N193 N 0.16889 0.12852 0.32086
 N194 N 0.18185 0.13093 0.32973
 C195 C 0.19205 0.11896 0.32736
 C196 C 0.18490 0.10835 0.31676
 C197 C 0.17021 0.11481 0.31287
 H198 H 0.20350 0.11775 0.33346
 H199 H 0.16117 0.10991 0.30483
 N200 N 0.17968 0.16119 0.36498
 N201 N 0.16513 0.16496 0.36991
 C202 C 0.16610 0.17276 0.38430
 C203 C 0.18202 0.17407 0.38868
 C204 C 0.19034 0.16663 0.37610
 H205 H 0.15596 0.17769 0.39075
 H206 H 0.20315 0.16513 0.37519
 H207 H 0.16329 0.16269 0.33932
 H208 H 0.16066 0.14321 0.34909
 N209 N 0.63969 0.32612 0.68289
 N210 N 0.63864 0.33806 0.69307
 C211 C 0.62566 0.33638 0.70268
 C212 C 0.61819 0.32255 0.69841
 C213 C 0.62750 0.31628 0.68586
 H214 H 0.62205 0.34456 0.71218
 H215 H 0.62537 0.30558 0.67909
 Cu216 Cu 0.65445 0.35459 0.69312
 Cu217 Cu 0.65656 0.32493 0.66621
 Cu218 Cu 0.67000 0.36191 0.65595
 N219 N 0.66725 0.37304 0.68931
 N220 N 0.67281 0.37618 0.67451
 C221 C 0.68041 0.38998 0.67495
 C222 C 0.67982 0.39565 0.69098
 C223 C 0.67139 0.38457 0.69979
 H224 H 0.68628 0.39526 0.66447
 H225 H 0.66828 0.38500 0.71275
 N226 N 0.67256 0.34357 0.64141
 N227 N 0.66820 0.32934 0.64560
 C228 C 0.67294 0.31928 0.63375
 C229 C 0.68067 0.32761 0.62147
 C230 C 0.68016 0.34296 0.62680
 H231 H 0.67095 0.30684 0.63410
 H232 H 0.68558 0.35291 0.62086
 H233 H 0.67204 0.34370 0.67193
 H234 H 0.65149 0.34763 0.66399
 N235 N 0.62635 0.83385 1.17033
 N236 N 0.62396 0.84625 1.17957
 C237 C 0.60991 0.84486 1.18748
 C238 C 0.60315 0.83072 1.18317
 C239 C 0.61394 0.82400 1.17223
 H240 H 0.60540 0.85312 1.19647
 H241 H 0.61307 0.81266 1.16643
 Cu242 Cu 0.64023 0.86208 1.18246
 Cu243 Cu 0.64594 0.83115 1.15754
 Cu244 Cu 0.67037 0.86379 1.15512
 N245 N 0.65469 0.87968 1.18184
 N246 N 0.66658 0.88024 1.17126
 C247 C 0.67554 0.89290 1.17452
 C248 C 0.66880 0.90076 1.18777
 C249 C 0.65554 0.89207 1.19205
 H250 H 0.68642 0.89591 1.16807
 H251 H 0.64763 0.89417 1.20239
 N252 N 0.67236 0.84580 1.14011
 N253 N 0.66348 0.83315 1.14133
 C254 C 0.66826 0.82277 1.12978
 C255 C 0.68072 0.82923 1.12085
 C256 C 0.68296 0.84383 1.12778
 H257 H 0.66293 0.81142 1.12788
 H258 H 0.69191 0.85228 1.12434
 H259 H 0.66149 0.84639 1.16955
 H260 H 0.64715 0.85481 1.15435
 N261 N 0.13322 0.32461 1.17239
 N262 N 0.13217 0.33309 1.18591
 C263 C 0.11928 0.32847 1.19461
 C264 C 0.11180 0.31663 1.18588
 C265 C 0.12095 0.31453 1.17184
 H266 H 0.11559 0.33336 1.20634
 H267 H 0.11917 0.30584 1.16230
 Cu268 Cu 0.14768 0.34944 1.19079
 Cu269 Cu 0.15147 0.32581 1.15768
 Cu270 Cu 0.17719 0.35664 1.16346
 N271 N 0.15999 0.36875 1.19139
 N272 N 0.17147 0.37138 1.18067
 C273 C 0.17877 0.38484 1.18449
 C274 C 0.17149 0.39110 1.19832
 C275 C 0.15951 0.38064 1.20234
 H276 H 0.18889 0.38956 1.17789
 H277 H 0.15157 0.38127 1.21286
 N278 N 0.17888 0.34227 1.14455
 N279 N 0.16914 0.33034 1.14244
 C280 C 0.17393 0.32209 1.12915
 C281 C 0.18726 0.32924 1.12252
 C282 C 0.19000 0.34206 1.13252
 H283 H 0.16831 0.31152 1.12476
 H284 H 0.19979 0.35022 1.13153
 H285 H 0.16766 0.33650 1.17313
 H286 H 0.15382 0.34951 1.16145
 N287 N 0.12957 0.83442 0.66979
 N288 N 0.12649 0.84699 0.67858
 C289 C 0.11234 0.84527 0.68622
 C290 C 0.10623 0.83076 0.68220
 C291 C 0.11754 0.82415 0.67176
 H292 H 0.10725 0.85364 0.69475
 H293 H 0.11721 0.81267 0.66620
 Cu294 Cu 0.14221 0.86346 0.68092
 Cu295 Cu 0.14954 0.83220 0.65731
 Cu296 Cu 0.17028 0.86699 0.65209
 N297 N 0.15778 0.88019 0.68201
 N298 N 0.16923 0.88112 0.67094
 C299 C 0.17894 0.89308 0.67483
 C300 C 0.17321 0.90005 0.68908
 C301 C 0.15973 0.89162 0.69328
 H302 H 0.18936 0.89644 0.66778
 H303 H 0.15224 0.89339 0.70401
 N304 N 0.17383 0.84849 0.63822
 N305 N 0.16644 0.83508 0.64044
 C306 C 0.17205 0.82468 0.62931
 C307 C 0.18351 0.83196 0.61964
 C308 C 0.18429 0.84703 0.62572
 H309 H 0.16794 0.81278 0.62819
 H310 H 0.19217 0.85621 0.62164
 H311 H 0.16421 0.84947 0.66763
 H312 H 0.14821 0.85523 0.65280
 N313 N 0.36838 0.67288 0.66182
 N314 N 0.36896 0.66496 0.67569
 C315 C 0.38239 0.66875 0.68394
 C316 C 0.39077 0.67944 0.67461
 C317 C 0.38157 0.68177 0.66063
 H318 H 0.38589 0.66401 0.69577
 H319 H 0.38405 0.68974 0.65064
 Cu320 Cu 0.35236 0.65023 0.68157
 Cu321 Cu 0.34989 0.67210 0.64721
 Cu322 Cu 0.32235 0.64299 0.65477
 N323 N 0.33893 0.63190 0.68351
 N324 N 0.32700 0.62929 0.67329
 C325 C 0.31930 0.61627 0.67798
 C326 C 0.32694 0.61032 0.69176
 C327 C 0.33938 0.62052 0.69490
 H328 H 0.30896 0.61146 0.67178
 H329 H 0.34787 0.61993 0.70496
 N330 N 0.31991 0.65813 0.63668
 N331 N 0.33030 0.66940 0.63399
 C332 C 0.32488 0.67842 0.62160
 C333 C 0.31046 0.67245 0.61612
 C334 C 0.30771 0.65954 0.62591
 H335 H 0.33089 0.68866 0.61699
 H336 H 0.29729 0.65211 0.62561
 H337 H 0.33317 0.66310 0.66350
 H338 H 0.34620 0.64874 0.65231
 N339 N 0.36473 0.16751 1.16970
 N340 N 0.36544 0.15487 1.17881
 C341 C 0.37839 0.15553 1.18860
 C342 C 0.38623 0.16942 1.18569
 C343 C 0.37716 0.17682 1.17365
 H344 H 0.38154 0.14676 1.19759
 H345 H 0.37942 0.18807 1.16814
 Cu346 Cu 0.34882 0.13917 1.17815
 Cu347 Cu 0.34736 0.17057 1.15372
 Cu348 Cu 0.33060 0.13522 1.14179
 N349 N 0.33426 0.12205 1.17397
 N350 N 0.32745 0.12027 1.15946
 C351 C 0.31822 0.10744 1.15969
 C352 C 0.31911 0.10096 1.17531
 C353 C 0.32945 0.11055 1.18404
 H354 H 0.31097 0.10351 1.14942
 H355 H 0.33319 0.10927 1.19675
 N356 N 0.32844 0.15448 1.12887
 N357 N 0.33407 0.16814 1.13364
 C358 C 0.32863 0.17917 1.12320
 C359 C 0.31905 0.17206 1.11133
 C360 C 0.31932 0.15640 1.11537
 H361 H 0.33111 0.19148 1.12447
 H362 H 0.31254 0.14714 1.10964
 H363 H 0.33098 0.15268 1.15915
 H364 H 0.35066 0.14791 1.14953
 N365 N 0.86497 0.67055 1.16173
 N366 N 0.86713 0.66078 1.17402
 C367 C 0.88088 0.66440 1.18183
 C368 C 0.88775 0.67695 1.17384
 C369 C 0.87737 0.68051 1.16111
 H370 H 0.88553 0.65845 1.19257
 H371 H 0.87840 0.69010 1.15254
 Cu372 Cu 0.85173 0.64436 1.17882
 Cu373 Cu 0.84536 0.67087 1.14888
 Cu374 Cu 0.82000 0.63948 1.15344
 N375 N 0.83707 0.62683 1.18110
 N376 N 0.82461 0.62523 1.17135
 C377 C 0.81617 0.61268 1.17601
 C378 C 0.82383 0.60589 1.18927
 C379 C 0.83713 0.61510 1.19215
 H380 H 0.80528 0.60871 1.17015
 H381 H 0.84592 0.61356 1.20181
 N382 N 0.81722 0.65520 1.13609
 N383 N 0.82664 0.66744 1.13459
 C384 C 0.82101 0.67656 1.12239
 C385 C 0.80744 0.66967 1.11586
 C386 C 0.80544 0.65613 1.12480
 H387 H 0.82631 0.68746 1.11860
 H388 H 0.79574 0.64790 1.12360
 H389 H 0.83032 0.65845 1.16453
 H390 H 0.84338 0.64702 1.15016
 N391 N 0.86268 0.17828 0.67538
 N392 N 0.86378 0.16558 0.68437
 C393 C 0.87746 0.16597 0.69309
 C394 C 0.88534 0.17973 0.68952
 C395 C 0.87553 0.18733 0.67831
 H396 H 0.88128 0.15697 0.70154
 H397 H 0.87776 0.19840 0.67240
 Cu398 Cu 0.84704 0.14989 0.68428
 Cu399 Cu 0.84484 0.18145 0.66006
 Cu400 Cu 0.82815 0.14611 0.64820
 N401 N 0.83224 0.13281 0.68036
 N402 N 0.82517 0.13120 0.66597
 C403 C 0.81609 0.11828 0.66612
 C404 C 0.81734 0.11150 0.68157
 C405 C 0.82773 0.12107 0.69031
 H406 H 0.80882 0.11438 0.65586
 H407 H 0.83182 0.11952 0.70287
 N408 N 0.82617 0.16530 0.63513
 N409 N 0.83169 0.17898 0.63996
 C410 C 0.82715 0.18988 0.62893
 C411 C 0.81838 0.18262 0.61654
 C412 C 0.81803 0.16706 0.62095
 H413 H 0.83009 0.20213 0.62981
 H414 H 0.81176 0.15776 0.61468
 H415 H 0.82867 0.16332 0.66562
 H416 H 0.84823 0.15873 0.65567
 N417 N 0.32999 0.36565 0.66739
 N418 N 0.34325 0.36727 0.67599
 C419 C 0.34222 0.38019 0.68537
 C420 C 0.32742 0.38694 0.68277
 C421 C 0.31987 0.37734 0.67137
 H422 H 0.35152 0.38434 0.69356
 H423 H 0.30819 0.37905 0.66592
 Cu424 Cu 0.36064 0.35229 0.67444
 Cu425 Cu 0.32777 0.34904 0.65080
 Cu426 Cu 0.36483 0.33604 0.63734
 N427 N 0.37804 0.33779 0.66991
 N428 N 0.38002 0.33204 0.65499
 C429 C 0.39280 0.32253 0.65489
 C430 C 0.39907 0.32202 0.67071
 C431 C 0.38938 0.33190 0.67995
 H432 H 0.39663 0.31583 0.64426
 H433 H 0.39036 0.33448 0.69300
 N434 N 0.34517 0.33363 0.62435
 N435 N 0.33084 0.33755 0.62977
 C436 C 0.31980 0.33212 0.61902
 C437 C 0.32766 0.32437 0.60625
 C438 C 0.34372 0.32570 0.61011
 H439 H 0.30704 0.33337 0.62063
 H440 H 0.35365 0.32032 0.60374
 H441 H 0.34763 0.33457 0.65505
 H442 H 0.35056 0.35438 0.64615
 N443 N 0.32694 0.86488 0.16115
 N444 N 0.33315 0.86033 0.17527
 C445 C 0.33081 0.87154 0.18673
 C446 C 0.32292 0.88386 0.17930
 C447 C 0.32071 0.87924 0.16305
 H448 H 0.33481 0.87091 0.19943
 H449 H 0.31468 0.88567 0.15340
 Cu450 Cu 0.34446 0.84060 0.17702
 Cu451 Cu 0.32701 0.85176 0.14143
 Cu452 Cu 0.33889 0.81365 0.14762
 N453 N 0.35868 0.82269 0.17493
 N454 N 0.35659 0.81233 0.16312
 C455 C 0.36817 0.80149 0.16403
 C456 C 0.37805 0.80522 0.17715
 C457 C 0.37163 0.81872 0.18389
 H458 H 0.36926 0.79159 0.15577
 H459 H 0.37625 0.82534 0.19424
 N460 N 0.32638 0.82011 0.12838
 N461 N 0.32236 0.83474 0.12561
 C462 C 0.31395 0.83540 0.11141
 C463 C 0.31260 0.82044 0.10500
 C464 C 0.32069 0.81108 0.11612
 H465 H 0.30871 0.84593 0.10646
 H466 H 0.32240 0.79860 0.11539
 H467 H 0.32499 0.83274 0.15609
 H468 H 0.34527 0.83624 0.14720
 N469 N 0.83272 0.36843 0.16732
 N470 N 0.84419 0.36645 0.17821
 C471 C 0.84284 0.37734 0.19014
 C472 C 0.82978 0.38666 0.18654
 C473 C 0.82364 0.38066 0.17193
 H474 H 0.85058 0.37822 0.20081
 H475 H 0.81340 0.38490 0.16511
 Cu476 Cu 0.85975 0.34979 0.17575
 Cu477 Cu 0.83093 0.35500 0.14788
 Cu478 Cu 0.84732 0.31834 0.15468
 N479 N 0.87276 0.33114 0.17419
 N480 N 0.86758 0.31850 0.16667
 C481 C 0.87849 0.30705 0.16846
 C482 C 0.89133 0.31306 0.17719
 C483 C 0.88728 0.32834 0.18064
 H484 H 0.87737 0.29540 0.16341
 H485 H 0.89426 0.33668 0.18762
 N486 N 0.83144 0.32265 0.13717
 N487 N 0.82593 0.33677 0.13408
 C488 C 0.81689 0.33631 0.12035
 C489 C 0.81665 0.32114 0.11448
 C490 C 0.82593 0.31277 0.12551
 H491 H 0.81100 0.34631 0.11497
 H492 H 0.82912 0.30058 0.12462
 H493 H 0.83561 0.33803 0.16414
 H494 H 0.85165 0.34094 0.14839
 N495 N 0.82871 0.87286 0.65849
 N496 N 0.83531 0.86805 0.67231
 C497 C 0.83305 0.87898 0.68412
 C498 C 0.82479 0.89135 0.67717
 C499 C 0.82232 0.88705 0.66088
 H500 H 0.83724 0.87808 0.69673
 H501 H 0.81587 0.89352 0.65157
 Cu502 Cu 0.84675 0.84827 0.67312
 Cu503 Cu 0.82816 0.86026 0.63848
 Cu504 Cu 0.83984 0.82196 0.64327
 N505 N 0.86068 0.83022 0.67005
 N506 N 0.85807 0.82015 0.65806
 C507 C 0.86941 0.80905 0.65839
 C508 C 0.87972 0.81228 0.67131
 C509 C 0.87378 0.82577 0.67853
 H510 H 0.86997 0.79925 0.64995
 H511 H 0.87875 0.83201 0.68897
 N512 N 0.82656 0.82895 0.62477
 N513 N 0.82253 0.84365 0.62261
 C514 C 0.81303 0.84469 0.60921
 C515 C 0.81098 0.82988 0.60260
 C516 C 0.81985 0.82022 0.61282
 H517 H 0.80747 0.85537 0.60509
 H518 H 0.82115 0.80772 0.61191
 H519 H 0.82650 0.84091 0.65281
 H520 H 0.84648 0.84440 0.64318
 N521 N 0.68153 0.62690 0.65780
 N522 N 0.67366 0.62878 0.67172
 C523 C 0.67854 0.61792 0.68261
 C524 C 0.68995 0.60863 0.67499
 C525 C 0.69145 0.61463 0.65921
 H526 H 0.67409 0.61686 0.69510
 H527 H 0.69958 0.61078 0.64964
 Cu528 Cu 0.65779 0.64523 0.67403
 Cu529 Cu 0.67898 0.64114 0.63929
 Cu530 Cu 0.66282 0.67687 0.65060
 N531 N 0.64224 0.66212 0.67415
 N532 N 0.64471 0.67487 0.66556
 C533 C 0.63274 0.68501 0.66846
 C534 C 0.62203 0.67810 0.67918
 C535 C 0.62842 0.66355 0.68253
 H536 H 0.63168 0.69636 0.66277
 H537 H 0.62351 0.65478 0.69063
 N538 N 0.67588 0.67384 0.63062
 N539 N 0.68136 0.66010 0.62592
 C540 C 0.68930 0.66170 0.61158
 C541 C 0.68877 0.67724 0.60695
 C542 C 0.68012 0.68457 0.61937
 H543 H 0.69533 0.65227 0.60525
 H544 H 0.67692 0.69676 0.62013
 H545 H 0.67773 0.65800 0.65673
 H546 H 0.65863 0.65423 0.64548
 N547 N 0.68046 0.13544 0.16116
 N548 N 0.66991 0.13300 0.17291
 C549 C 0.67389 0.11991 0.18109
 C550 C 0.68754 0.11375 0.17394
 C551 C 0.69137 0.12388 0.16130
 H552 H 0.66744 0.11524 0.19154
 H553 H 0.70167 0.12325 0.15325
 Cu554 Cu 0.65244 0.14760 0.17671
 Cu555 Cu 0.68025 0.15433 0.14785
 Cu556 Cu 0.64377 0.17358 0.14718
 N557 N 0.63432 0.16175 0.17881
 N558 N 0.63146 0.17238 0.16752
 C559 C 0.61853 0.18075 0.17196
 C560 C 0.61287 0.17492 0.18673
 C561 C 0.62311 0.16282 0.19070
 H562 H 0.61334 0.19006 0.16473
 H563 H 0.62244 0.15544 0.20148
 N564 N 0.66073 0.17724 0.13081
 N565 N 0.67484 0.17037 0.13141
 C566 C 0.68407 0.17600 0.11919
 C567 C 0.67531 0.18691 0.11043
 C568 C 0.66056 0.18736 0.11815
 H569 H 0.69622 0.17234 0.11676
 H570 H 0.65061 0.19488 0.11512
 H571 H 0.66383 0.16870 0.16030
 H572 H 0.65624 0.15232 0.14726
 N573 N 0.18236 0.63192 0.15600
 N574 N 0.17331 0.63191 0.16927
 C575 C 0.17741 0.61979 0.17888
 C576 C 0.18962 0.61168 0.17118
 C577 C 0.19243 0.61966 0.15663
 H578 H 0.17186 0.61702 0.19057
 H579 H 0.20141 0.61700 0.14743
 Cu580 Cu 0.15709 0.64767 0.17298
 Cu581 Cu 0.18079 0.64828 0.13942
 Cu582 Cu 0.14900 0.67400 0.14344
 N583 N 0.13782 0.66023 0.17357
 N584 N 0.13500 0.67097 0.16240
 C585 C 0.12151 0.67866 0.16646
 C586 C 0.11547 0.67222 0.18081
 C587 C 0.12609 0.66051 0.18494
 H588 H 0.11644 0.68820 0.15950
 H589 H 0.12558 0.65310 0.19570
 N590 N 0.16458 0.67506 0.12519
 N591 N 0.17704 0.66565 0.12400
 C592 C 0.18583 0.66982 0.11079
 C593 C 0.17838 0.68224 0.10316
 C594 C 0.16493 0.68523 0.11256
 H595 H 0.19672 0.66412 0.10682
 H596 H 0.15625 0.69437 0.11049
 H597 H 0.16993 0.66541 0.15358
 H598 H 0.15647 0.65099 0.14319
 N599 N 0.18336 0.13058 0.66013
 N600 N 0.17260 0.12705 0.67135
 C601 C 0.17716 0.11394 0.67915
 C602 C 0.19146 0.10895 0.67234
 C603 C 0.19502 0.11976 0.66027
 H604 H 0.17076 0.10860 0.68926
 H605 H 0.20570 0.12020 0.65275
 Cu606 Cu 0.15438 0.14068 0.67537
 Cu607 Cu 0.18248 0.15000 0.64777
 Cu608 Cu 0.14480 0.16687 0.64639
 N609 N 0.13559 0.15390 0.67768
 N610 N 0.13215 0.16437 0.66640
 C611 C 0.11913 0.17242 0.67116
 C612 C 0.11410 0.16669 0.68624
 C613 C 0.12478 0.15488 0.68999
 H614 H 0.11382 0.18184 0.66420
 H615 H 0.12499 0.14793 0.70111
 N616 N 0.16207 0.17230 0.63093
 N617 N 0.17656 0.16627 0.63180
 C618 C 0.18587 0.17302 0.62033
 C619 C 0.17682 0.18389 0.61181
 C620 C 0.16177 0.18307 0.61888
 H621 H 0.19832 0.17020 0.61833
 H622 H 0.15148 0.19015 0.61589
 H623 H 0.16476 0.16294 0.66007
 H624 H 0.15876 0.14650 0.64623
 N625 N 0.32494 0.63359 0.33853
 N626 N 0.33687 0.63397 0.32798
 C627 C 0.33553 0.62190 0.31742
 C628 C 0.32191 0.61366 0.32147
 C629 C 0.31544 0.62139 0.33492
 H630 H 0.34368 0.61938 0.30738
 H631 H 0.30487 0.61816 0.34180
 Cu632 Cu 0.35256 0.65059 0.32894
 Cu633 Cu 0.32368 0.64815 0.35700
 Cu634 Cu 0.34452 0.68275 0.35093
 N635 N 0.36834 0.66697 0.33153
 N636 N 0.36482 0.68007 0.33922
 C637 C 0.37701 0.69017 0.33732
 C638 C 0.38890 0.68280 0.32828
 C639 C 0.38300 0.66811 0.32488
 H640 H 0.37717 0.70197 0.34209
 H641 H 0.38866 0.65922 0.31737
 N642 N 0.32779 0.68021 0.36803
 N643 N 0.32047 0.66682 0.37067
 C644 C 0.31110 0.66818 0.38407
 C645 C 0.31254 0.68314 0.39024
 C646 C 0.32313 0.69053 0.37970
 H647 H 0.30386 0.65890 0.38907
 H648 H 0.32773 0.70225 0.38096
 H649 H 0.33012 0.66501 0.34102
 H650 H 0.34580 0.65977 0.35644
 N651 N 0.33049 0.13372 0.84356
 N652 N 0.33680 0.13643 0.82898
 C653 C 0.33305 0.12456 0.81872
 C654 C 0.32398 0.11381 0.82745
 C655 C 0.32273 0.12004 0.84319
 H656 H 0.33651 0.12390 0.80587
 H657 H 0.31604 0.11540 0.85348
 Cu658 Cu 0.34912 0.15535 0.82509
 Cu659 Cu 0.33182 0.14845 0.86177
 Cu660 Cu 0.34353 0.18554 0.85091
 N661 N 0.36348 0.17328 0.82505
 N662 N 0.36136 0.18490 0.83548
 C663 C 0.37315 0.19536 0.83354
 C664 C 0.38318 0.19007 0.82116
 C665 C 0.37664 0.17607 0.81593
 H666 H 0.37434 0.20600 0.84064
 H667 H 0.38139 0.16829 0.80658
 N668 N 0.33111 0.18124 0.87090
 N669 N 0.32742 0.16696 0.87545
 C670 C 0.31905 0.16761 0.88960
 C671 C 0.31735 0.18308 0.89421
 C672 C 0.32519 0.19142 0.88203
 H673 H 0.31397 0.15756 0.89566
 H674 H 0.32651 0.20393 0.88126
 H675 H 0.32973 0.16570 0.84482
 H676 H 0.35003 0.16328 0.85412
 N677 N 0.82537 0.64145 0.83906
 N678 N 0.83857 0.63910 0.83058
 C679 C 0.83754 0.62540 0.82254
 C680 C 0.82277 0.61892 0.82589
 C681 C 0.81527 0.62948 0.83632
 H682 H 0.84675 0.62058 0.81464
 H683 H 0.80360 0.62829 0.84192
 Cu684 Cu 0.85561 0.65448 0.83029
 Cu685 Cu 0.82307 0.65941 0.85385
 Cu686 Cu 0.85978 0.67523 0.86490
 N687 N 0.87247 0.66993 0.83247
 N688 N 0.87441 0.67766 0.84637
 C689 C 0.88696 0.68734 0.84488
 C690 C 0.89308 0.68580 0.82905
 C691 C 0.88355 0.67462 0.82151
 H692 H 0.89088 0.69534 0.85441
 H693 H 0.88459 0.67023 0.80902
 N694 N 0.84032 0.67779 0.87826
 N695 N 0.82614 0.67261 0.87365
 C696 C 0.81517 0.67736 0.88479
 C697 C 0.82287 0.68591 0.89700
 C698 C 0.83880 0.68590 0.89240
 H699 H 0.80256 0.67466 0.88411
 H700 H 0.84853 0.69186 0.89854
 H701 H 0.84232 0.67397 0.84756
 H702 H 0.84625 0.65543 0.85884
 N703 N 0.82602 0.13366 0.33724
 N704 N 0.83864 0.13484 0.32764
 C705 C 0.83857 0.12297 0.31668
 C706 C 0.82509 0.11405 0.31950
 C707 C 0.81739 0.12118 0.33259
 H708 H 0.84740 0.12112 0.30711
 H709 H 0.80639 0.11748 0.33837
 Cu710 Cu 0.85320 0.15241 0.32986
 Cu711 Cu 0.82185 0.14810 0.35530
 Cu712 Cu 0.84837 0.17883 0.36022
 N713 N 0.86785 0.16984 0.33250
 N714 N 0.86614 0.17988 0.34469
 C715 C 0.87774 0.19070 0.34372
 C716 C 0.88709 0.18740 0.33005
 C717 C 0.88045 0.17410 0.32319
 H718 H 0.87894 0.20055 0.35200
 H719 H 0.88454 0.16801 0.31225
 N720 N 0.82962 0.17571 0.37460
 N721 N 0.81969 0.16387 0.37287
 C722 C 0.80814 0.16499 0.38439
 C723 C 0.81081 0.17826 0.39371
 C724 C 0.82451 0.18479 0.38715
 H725 H 0.79822 0.15702 0.38561
 H726 H 0.83029 0.19539 0.39123
 H727 H 0.83282 0.16721 0.34468
 H728 H 0.84533 0.15499 0.35870
 N729 N 0.66767 0.36926 0.33071
 N730 N 0.65589 0.36668 0.32030
 C731 C 0.65662 0.37726 0.30804
 C732 C 0.66969 0.38681 0.31087
 C733 C 0.67638 0.38138 0.32536
 H734 H 0.64860 0.37771 0.29756
 H735 H 0.68687 0.38590 0.33154
 Cu736 Cu 0.64136 0.34919 0.32347
 Cu737 Cu 0.67125 0.35660 0.35022
 Cu738 Cu 0.64486 0.32628 0.35703
 N739 N 0.62650 0.33216 0.32763
 N740 N 0.62760 0.32368 0.34109
 C741 C 0.61577 0.31307 0.34115
 C742 C 0.60688 0.31484 0.32687
 C743 C 0.61405 0.32703 0.31853
 H744 H 0.61402 0.30441 0.35064
 H745 H 0.61036 0.33184 0.30680
 N746 N 0.66311 0.33078 0.37171
 N747 N 0.67297 0.34255 0.36928
 C748 C 0.68431 0.34242 0.38110
 C749 C 0.68159 0.32986 0.39136
 C750 C 0.66806 0.32273 0.38504
 H751 H 0.69422 0.35046 0.38181
 H752 H 0.66236 0.31234 0.38971
 H753 H 0.66105 0.33635 0.34107
 H754 H 0.64766 0.34982 0.35288
 N755 N 0.67533 0.86774 0.83547
 N756 N 0.67029 0.86466 0.82041
 C757 C 0.67523 0.87611 0.81023
 C758 C 0.68362 0.88699 0.81955
 C759 C 0.68336 0.88126 0.83549
 H760 H 0.67272 0.87660 0.79713
 H761 H 0.68897 0.88632 0.84629
 Cu762 Cu 0.65720 0.84628 0.81606
 Cu763 Cu 0.67159 0.85395 0.85407
 Cu764 Cu 0.65853 0.81719 0.84355
 N765 N 0.64138 0.82954 0.81575
 N766 N 0.64185 0.81837 0.82684
 C767 C 0.62923 0.80891 0.82473
 C768 C 0.62037 0.81435 0.81157
 C769 C 0.62846 0.82740 0.80600
 H770 H 0.62662 0.79889 0.83234
 H771 H 0.62490 0.83506 0.79608
 N772 N 0.66941 0.82163 0.86443
 N773 N 0.67351 0.83587 0.86890
 C774 C 0.68017 0.83536 0.88402
 C775 C 0.68032 0.82001 0.88929
 C776 C 0.67340 0.81162 0.87651
 H777 H 0.68510 0.84534 0.89043
 H778 H 0.67125 0.79920 0.87606
 H779 H 0.67411 0.83596 0.83809
 H780 H 0.65327 0.84000 0.84522
 N781 N 0.17511 0.37127 0.84245
 N782 N 0.17061 0.36900 0.82708
 C783 C 0.17733 0.37995 0.81745
 C784 C 0.18649 0.38968 0.82740
 C785 C 0.18467 0.38383 0.84322
 H786 H 0.17567 0.38075 0.80423
 H787 H 0.19029 0.38801 0.85443
 Cu788 Cu 0.15635 0.35195 0.82138
 Cu789 Cu 0.16863 0.35740 0.86016
 Cu790 Cu 0.15411 0.32154 0.84719
 N791 N 0.13989 0.33616 0.81886
 N792 N 0.13926 0.32397 0.82863
 C793 C 0.12718 0.31466 0.82369
 C794 C 0.11972 0.32154 0.81024
 C795 C 0.12816 0.33517 0.80755
 H796 H 0.12392 0.30386 0.82966
 H797 H 0.12609 0.34365 0.79792
 N798 N 0.16373 0.32491 0.86921
 N799 N 0.16823 0.33885 0.87435
 C800 C 0.17431 0.33768 0.88966
 C801 C 0.17374 0.32224 0.89447
 C802 C 0.16694 0.31443 0.88115
 H803 H 0.17971 0.34724 0.89637
 H804 H 0.16472 0.30205 0.88012
 H805 H 0.17104 0.33943 0.84379
 H806 H 0.15009 0.34437 0.84973
 N807 N 0.17942 0.85838 0.32828
 N808 N 0.16760 0.85845 0.31756
 C809 C 0.16901 0.87091 0.30767
 C810 C 0.18256 0.87904 0.31228
 C811 C 0.18899 0.87069 0.32533
 H812 H 0.16083 0.87375 0.29776
 H813 H 0.19951 0.87360 0.33248
 Cu814 Cu 0.15153 0.84220 0.31720
 Cu815 Cu 0.18053 0.84265 0.34573
 Cu816 Cu 0.14259 0.82863 0.35461
 N817 N 0.13298 0.82912 0.32059
 N818 N 0.12916 0.82431 0.33547
 C819 C 0.11536 0.81632 0.33468
 C820 C 0.11042 0.81587 0.31835
 C821 C 0.12192 0.82410 0.30973
 H822 H 0.10959 0.81094 0.34516
 H823 H 0.12206 0.82652 0.29662
 N824 N 0.16065 0.82750 0.37022
 N825 N 0.17531 0.83202 0.36659
 C826 C 0.18515 0.82801 0.37908
 C827 C 0.17620 0.82063 0.39116
 C828 C 0.16073 0.82057 0.38508
 H829 H 0.19789 0.83015 0.37923
 H830 H 0.15043 0.81507 0.39061
 H831 H 0.16222 0.82655 0.33979
 H832 H 0.15702 0.84676 0.34647
 C833 C 0.25378 1.03485 0.25384
 C834 C 0.26270 1.02682 0.24190
 C835 C 0.26383 1.01054 0.24269
 C836 C 0.25671 1.00213 0.25569
 C837 C 0.24792 1.01053 0.26769
 C838 C 0.24602 1.02678 0.26654
 C839 C 0.25774 0.98466 0.25604
 C840 C 0.24555 0.97569 0.26332
 C841 C 0.24594 0.95933 0.26264
 C842 C 0.25822 0.95183 0.25391
 C843 C 0.27027 0.96047 0.24614
 C844 C 0.27038 0.97676 0.24804
 H845 H 0.25217 1.04733 0.25269
 H846 H 0.27014 1.00454 0.23291
 H847 H 0.24238 1.00456 0.27793
 H848 H 0.23548 0.98128 0.26925
 H849 H 0.25778 0.93930 0.25234
 H850 H 0.28025 0.98321 0.24285
 C851 C 0.25631 0.53856 0.75745
 C852 C 0.26965 0.53124 0.75042
 C853 C 0.27084 0.51494 0.75075
 C854 C 0.25836 0.50577 0.75725
 C855 C 0.24492 0.51345 0.76405
 C856 C 0.24401 0.52982 0.76462
 C857 C 0.25940 0.48831 0.75704
 C858 C 0.25155 0.47942 0.76917
 C859 C 0.25212 0.46306 0.76893
 C860 C 0.26122 0.45546 0.75679
 C861 C 0.26964 0.46401 0.74489
 C862 C 0.26832 0.48036 0.74484
 H863 H 0.25552 0.55117 0.75731
 H864 H 0.28148 0.50951 0.74578
 H865 H 0.23510 0.50678 0.76902
 H866 H 0.24492 0.48513 0.77893
 H867 H 0.26231 0.44288 0.75707
 H868 H 0.27423 0.48677 0.73512
 C869 C 0.75008 -0.03686 0.25191
 C870 C 0.76389 -0.02954 0.25791
 C871 C 0.76531 -0.01328 0.25654
 C872 C 0.75271 -0.00417 0.25005
 C873 C 0.73873 -0.01183 0.24466
 C874 C 0.73759 -0.02812 0.24508
 C875 C 0.75413 0.01319 0.24880
 C876 C 0.74586 0.02151 0.23643
 C877 C 0.74672 0.03783 0.23562
 C878 C 0.75648 0.04592 0.24679
 C879 C 0.76551 0.03783 0.25855
 C880 C 0.76395 0.02161 0.25981
 H881 H 0.74910 -0.04944 0.25238
 H882 H 0.77630 -0.00783 0.26056
 H883 H 0.72874 -0.00524 0.23985
 H884 H 0.73876 0.01543 0.22728
 H885 H 0.75772 0.05846 0.24573
 H886 H 0.77045 0.01572 0.26952
 C887 C 0.75184 0.46345 0.75931
 C888 C 0.76432 0.47104 0.76763
 C889 C 0.76472 0.48742 0.76799
 C890 C 0.75242 0.49631 0.76070
 C891 C 0.73970 0.48833 0.75299
 C892 C 0.73971 0.47202 0.75154
 C893 C 0.75333 0.51376 0.76009
 C894 C 0.74630 0.52197 0.74689
 C895 C 0.74725 0.53827 0.74591
 C896 C 0.75584 0.54650 0.75796
 C897 C 0.76355 0.53859 0.77087
 C898 C 0.76183 0.52232 0.77213
 H899 H 0.75215 0.45087 0.75802
 H900 H 0.77487 0.49311 0.77367
 H901 H 0.72981 0.49473 0.74771
 H902 H 0.74021 0.51578 0.73709
 H903 H 0.75730 0.55899 0.75673
 H904 H 0.76728 0.51644 0.78251
 C905 C 0.24599 0.46236 0.25965
 C906 C 0.25899 0.47050 0.26630
 C907 C 0.26003 0.48663 0.26387
 C908 C 0.24764 0.49497 0.25601
 C909 C 0.23434 0.48657 0.25001
 C910 C 0.23373 0.47028 0.25139
 C911 C 0.24872 0.51231 0.25421
 C912 C 0.24114 0.52011 0.24103
 C913 C 0.24236 0.53637 0.23938
 C914 C 0.25178 0.54486 0.25058
 C915 C 0.25994 0.53725 0.26330
 C916 C 0.25788 0.52120 0.26543
 H917 H 0.24508 0.44987 0.26139
 H918 H 0.27069 0.49252 0.26812
 H919 H 0.22446 0.49254 0.24415
 H920 H 0.23439 0.51365 0.23189
 H921 H 0.25346 0.55727 0.24882
 H922 H 0.26368 0.51577 0.27588
 C923 C 0.75461 1.04018 0.75745
 C924 C 0.76364 1.03285 0.74507
 C925 C 0.76486 1.01650 0.74488
 C926 C 0.75789 1.00736 0.75744
 C927 C 0.74948 1.01519 0.77012
 C928 C 0.74706 1.03137 0.76971
 C929 C 0.75863 0.98981 0.75689
 C930 C 0.74730 0.98072 0.76542
 C931 C 0.74795 0.96436 0.76526
 C932 C 0.75913 0.95687 0.75502
 C933 C 0.77009 0.96558 0.74571
 C934 C 0.77028 0.98191 0.74745
 H935 H 0.75267 1.05266 0.75695
 H936 H 0.77112 1.01108 0.73471
 H937 H 0.74437 1.00883 0.78032
 H938 H 0.73762 0.98618 0.77210
 H939 H 0.75920 0.94427 0.75423
 H940 H 0.77960 0.98833 0.74125
 C941 C 0.75300 0.53531 0.25655
 C942 C 0.76330 0.52761 0.24563
 C943 C 0.76226 0.51139 0.24383
 C944 C 0.75156 0.50257 0.25351
 C945 C 0.74175 0.51058 0.26495
 C946 C 0.74216 0.52691 0.26625
 C947 C 0.75082 0.48516 0.25180
 C948 C 0.73682 0.47685 0.25598
 C949 C 0.73642 0.46052 0.25507
 C950 C 0.74963 0.45243 0.24878
 C951 C 0.76346 0.46038 0.24401
 C952 C 0.76418 0.47662 0.24606
 H953 H 0.75388 0.54785 0.25800
 H954 H 0.76979 0.50585 0.23468
 H955 H 0.73375 0.50424 0.27296
 H956 H 0.72625 0.48290 0.26026
 H957 H 0.74921 0.43983 0.24779
 H958 H 0.77524 0.48245 0.24307
 C959 C 0.25505 -0.03749 0.75333
 C960 C 0.26747 -0.02996 0.76175
 C961 C 0.26919 -0.01375 0.76042
 C962 C 0.25809 -0.00481 0.75134
 C963 C 0.24520 -0.01259 0.74367
 C964 C 0.24376 -0.02885 0.74444
 C965 C 0.25942 0.01257 0.75044
 C966 C 0.25321 0.02076 0.73679
 C967 C 0.25315 0.03709 0.73656
 C968 C 0.26020 0.04538 0.74958
 C969 C 0.26723 0.03753 0.76291
 C970 C 0.26645 0.02117 0.76343
 H971 H 0.25357 -0.04998 0.75459
 H972 H 0.27918 -0.00827 0.76663
 H973 H 0.23602 -0.00606 0.73729
 H974 H 0.24809 0.01456 0.72639
 H975 H 0.26015 0.05801 0.74932
 H976 H 0.27131 0.01522 0.77404
 C977 C 0.25119 0.25368 1.05199
 C978 C 0.24483 0.26679 1.04404
 C979 C 0.24427 0.26722 1.02672
 C980 C 0.24913 0.25426 1.01720
 C981 C 0.25515 0.24108 1.02554
 C982 C 0.25666 0.24085 1.04283
 C983 C 0.24785 0.25436 0.99871
 C984 C 0.25795 0.24493 0.98905
 C985 C 0.25614 0.24391 0.97186
 C986 C 0.24520 0.25376 0.96391
 C987 C 0.23537 0.26387 0.97315
 C988 C 0.23636 0.26357 0.99054
 H989 H 0.25178 0.25347 1.06537
 H990 H 0.23980 0.27763 1.02080
 H991 H 0.25880 0.23088 1.01865
 H992 H 0.26736 0.23818 0.99475
 H993 H 0.24433 0.25343 0.95057
 H994 H 0.22793 0.27039 0.99765
 C995 C 0.24626 0.75252 0.55190
 C996 C 0.24033 0.76558 0.54352
 C997 C 0.24052 0.76569 0.52615
 C998 C 0.24572 0.75258 0.51706
 C999 C 0.25099 0.73936 0.52584
 C1000 C 0.25172 0.73944 0.54315
 C1001 C 0.24552 0.75259 0.49853
 C1002 C 0.25640 0.74336 0.48952
 C1003 C 0.25569 0.74246 0.47221
 C1004 C 0.24460 0.75170 0.46370
 C1005 C 0.23392 0.76139 0.47232
 C1006 C 0.23427 0.76154 0.48970
 H1007 H 0.24659 0.75248 0.56529
 H1008 H 0.23644 0.77602 0.51981
 H1009 H 0.25470 0.72893 0.51931
 H1010 H 0.26554 0.73676 0.49587
 H1011 H 0.24378 0.75081 0.45037
 H1012 H 0.22564 0.76860 0.49626
 C1013 C 0.24974 0.74885 -0.05725
 C1014 C 0.26254 0.75504 -0.04819
 C1015 C 0.26201 0.75494 -0.03086
 C1016 C 0.24835 0.74955 -0.02242
 C1017 C 0.23550 0.74363 -0.03185
 C1018 C 0.23629 0.74283 -0.04918
 C1019 C 0.24735 0.75027 -0.00392
 C1020 C 0.23773 0.73966 0.00488
 C1021 C 0.23616 0.74071 0.02209
 C1022 C 0.24488 0.75198 0.03080
 C1023 C 0.25467 0.76260 0.02243
 C1024 C 0.25565 0.76183 0.00510
 H1025 H 0.25028 0.74877 -0.07063
 H1026 H 0.27225 0.75928 -0.02409
 H1027 H 0.22479 0.73953 -0.02581
 H1028 H 0.23140 0.73044 -0.00150
 H1029 H 0.24344 0.75293 0.04408
 H1030 H 0.26282 0.77038 -0.00128
 C1031 C 0.24675 0.25186 0.45561
 C1032 C 0.25547 0.26365 0.46364
 C1033 C 0.25613 0.26383 0.48101
 C1034 C 0.24879 0.25210 0.49045
 C1035 C 0.24060 0.24014 0.48205
 C1036 C 0.23897 0.24024 0.46476
 C1037 C 0.24933 0.25254 0.50898
 C1038 C 0.23684 0.24610 0.51842
 C1039 C 0.23740 0.24621 0.53576
 C1040 C 0.25026 0.25346 0.54382
 C1041 C 0.26260 0.26045 0.53474
 C1042 C 0.26220 0.25960 0.51738
 H1043 H 0.24545 0.25216 0.44230
 H1044 H 0.26237 0.27326 0.48710
 H1045 H 0.23538 0.23064 0.48893
 H1046 H 0.22662 0.24089 0.51237
 H1047 H 0.25061 0.25370 0.55720
 H1048 H 0.27194 0.26462 0.51045
 C1049 C 0.73938 0.74743 1.05249
 C1050 C 0.73380 0.76060 1.04407
 C1051 C 0.73459 0.76089 1.02673
 C1052 C 0.74028 0.74793 1.01769
 C1053 C 0.74530 0.73464 1.02645
 C1054 C 0.74534 0.73452 1.04379
 C1055 C 0.74164 0.74860 0.99926
 C1056 C 0.75392 0.74052 0.99093
 C1057 C 0.75571 0.74161 0.97371
 C1058 C 0.74533 0.75128 0.96476
 C1059 C 0.73321 0.75971 0.97281
 C1060 C 0.73115 0.75792 0.98992
 H1061 H 0.73934 0.74730 1.06589
 H1062 H 0.73087 0.77135 1.02037
 H1063 H 0.74960 0.72445 1.01990
 H1064 H 0.76233 0.73350 0.99781
 H1065 H 0.74721 0.75285 0.95163
 H1066 H 0.72135 0.76394 0.99590
 C1067 C 0.74978 0.25737 0.54933
 C1068 C 0.73977 0.26793 0.54102
 C1069 C 0.73899 0.26742 0.52366
 C1070 C 0.74899 0.25747 0.51440
 C1071 C 0.75952 0.24763 0.52307
 C1072 C 0.75943 0.24691 0.54042
 C1073 C 0.74831 0.25715 0.49584
 C1074 C 0.75322 0.24377 0.48694
 C1075 C 0.75324 0.24358 0.46961
 C1076 C 0.74713 0.25637 0.46101
 C1077 C 0.74149 0.26952 0.46949
 C1078 C 0.74267 0.27011 0.48679
 H1079 H 0.75000 0.25726 0.56270
 H1080 H 0.73031 0.27472 0.51752
 H1081 H 0.76796 0.24040 0.51645
 H1082 H 0.75725 0.23343 0.49329
 H1083 H 0.74673 0.25607 0.44762
 H1084 H 0.73894 0.28066 0.49303
 C1085 C 0.74872 0.25182 -0.04819
 C1086 C 0.75935 0.26162 -0.03975
 C1087 C 0.75868 0.26254 -0.02243
 C1088 C 0.74839 0.25290 -0.01313
 C1089 C 0.73843 0.24255 -0.02204
 C1090 C 0.73801 0.24243 -0.03941
 C1091 C 0.74790 0.25377 0.00559
 C1092 C 0.73551 0.24657 0.01471
 C1093 C 0.73513 0.24718 0.03205
 C1094 C 0.74666 0.25589 0.04053
 C1095 C 0.75868 0.26374 0.03191
 C1096 C 0.75961 0.26210 0.01465
 H1097 H 0.74882 0.25149 -0.06157
 H1098 H 0.76628 0.27104 -0.01656
 H1099 H 0.73087 0.23432 -0.01577
 H1100 H 0.72597 0.24036 0.00866
 H1101 H 0.74579 0.25712 0.05383
 H1102 H 0.76964 0.26751 0.00863
 C1103 C 0.73625 0.75718 0.44683
 C1104 C 0.74774 0.76656 0.45468
 C1105 C 0.74755 0.76805 0.47197
 C1106 C 0.73565 0.76078 0.48149
 C1107 C 0.72377 0.75213 0.47325
 C1108 C 0.72449 0.74950 0.45612
 C1109 C 0.73643 0.76093 0.49997
 C1110 C 0.73111 0.74791 0.50899
 C1111 C 0.73234 0.74744 0.52626
 C1112 C 0.73943 0.75999 0.53460
 C1113 C 0.74528 0.77292 0.52592
 C1114 C 0.74336 0.77350 0.50867
 H1115 H 0.73717 0.75510 0.43366
 H1116 H 0.75702 0.77453 0.47795
 H1117 H 0.71416 0.74689 0.48022
 H1118 H 0.72616 0.73792 0.50262
 H1119 H 0.74071 0.75954 0.54791
 H1120 H 0.74766 0.78359 0.50206
 C1121 C 1.04316 0.24100 0.25141
 C1122 C 1.03427 0.23091 0.26148
 C1123 C 1.01748 0.23101 0.26040
 C1124 C 1.00940 0.24168 0.25014
 C1125 C 1.01866 0.25194 0.24054
 C1126 C 1.03540 0.25131 0.24068
 C1127 C 0.99147 0.24240 0.24962
 C1128 C 0.98352 0.24876 0.23583
 C1129 C 0.96693 0.25132 0.23592
 C1130 C 0.95789 0.24570 0.24920
 C1131 C 0.96538 0.23853 0.26269
 C1132 C 0.98212 0.23741 0.26310
 H1133 H 1.05610 0.24084 0.25189
 H1134 H 1.01085 0.22258 0.26752
 H1135 H 1.01303 0.26076 0.23301
 H1136 H 0.99015 0.25208 0.22495
 H1137 H 0.94508 0.24755 0.24953
 H1138 H 0.98769 0.23269 0.27405
 C1139 C 0.54355 0.24336 0.74886
 C1140 C 0.53464 0.23062 0.75450
 C1141 C 0.51791 0.23093 0.75313
 C1142 C 0.51000 0.24410 0.74675
 C1143 C 0.51920 0.25687 0.74142
 C1144 C 0.53596 0.25648 0.74220
 C1145 C 0.49219 0.24466 0.74591
 C1146 C 0.48442 0.25245 0.73289
 C1147 C 0.46767 0.25359 0.73238
 C1148 C 0.45861 0.24627 0.74468
 C1149 C 0.46610 0.23837 0.75769
 C1150 C 0.48285 0.23777 0.75836
 H1151 H 0.55648 0.24311 0.74982
 H1152 H 0.51109 0.22095 0.75724
 H1153 H 0.51336 0.26719 0.73667
 H1154 H 0.49140 0.25789 0.72325
 H1155 H 0.44567 0.24695 0.74432
 H1156 H 0.48854 0.23205 0.76872
 C1157 C -0.03681 0.24933 0.74864
 C1158 C -0.02797 0.26005 0.75799
 C1159 C -0.01127 0.25867 0.75860
 C1160 C -0.00307 0.24736 0.74911
 C1161 C -0.01231 0.23699 0.73940
 C1162 C -0.02912 0.23761 0.73950
 C1163 C 0.01493 0.24649 0.74929
 C1164 C 0.02306 0.23274 0.74445
 C1165 C 0.03982 0.23225 0.74387
 C1166 C 0.04865 0.24507 0.74941
 C1167 C 0.04099 0.25860 0.75495
 C1168 C 0.02424 0.25947 0.75424
 H1169 H -0.04974 0.25009 0.74853
 H1170 H -0.00488 0.26641 0.76681
 H1171 H -0.00664 0.22848 0.73148
 H1172 H 0.01660 0.22238 0.74085
 H1173 H 0.06160 0.24452 0.74930
 H1174 H 0.01867 0.27036 0.75772
 C1175 C 0.45476 0.24359 0.25186
 C1176 C 0.46288 0.25608 0.25922
 C1177 C 0.47967 0.25599 0.25956
 C1178 C 0.48846 0.24308 0.25357
 C1179 C 0.47988 0.23045 0.24667
 C1180 C 0.46314 0.23086 0.24529
 C1181 C 0.50643 0.24280 0.25451
 C1182 C 0.51553 0.23335 0.24371
 C1183 C 0.53225 0.23274 0.24486
 C1184 C 0.54017 0.24239 0.25617
 C1185 C 0.53149 0.25188 0.26706
 C1186 C 0.51470 0.25177 0.26644
 H1187 H 0.44182 0.24380 0.25123
 H1188 H 0.48573 0.26603 0.26465
 H1189 H 0.48607 0.22022 0.24218
 H1190 H 0.50983 0.22634 0.23428
 H1191 H 0.55309 0.24183 0.25716
 H1192 H 0.50825 0.25866 0.27544
 C1193 C 1.03848 0.74903 0.73823
 C1194 C 1.03057 0.73611 0.74491
 C1195 C 1.01382 0.73589 0.74529
 C1196 C 1.00487 0.74863 0.73949
 C1197 C 1.01301 0.76144 0.73268
 C1198 C 1.02981 0.76170 0.73186
 C1199 C 0.98710 0.74871 0.74094
 C1200 C 0.97753 0.75546 0.72857
 C1201 C 0.96083 0.75599 0.73020
 C1202 C 0.95361 0.74926 0.74408
 C1203 C 0.96290 0.74219 0.75640
 C1204 C 0.97961 0.74218 0.75487
 H1205 H 1.05143 0.74921 0.73806
 H1206 H 1.00778 0.72581 0.75034
 H1207 H 1.00626 0.77129 0.72810
 H1208 H 0.98303 0.76041 0.71768
 H1209 H 0.94071 0.74951 0.74528
 H1210 H 0.98677 0.73702 0.76457
 C1211 C 0.53922 0.74968 0.24349
 C1212 C 0.53203 0.73659 0.25066
 C1213 C 0.51532 0.73599 0.25199
 C1214 C 0.50576 0.74852 0.24668
 C1215 C 0.51323 0.76158 0.23958
 C1216 C 0.52992 0.76215 0.23770
 C1217 C 0.48801 0.74789 0.24843
 C1218 C 0.47802 0.75456 0.23638
 C1219 C 0.46134 0.75387 0.23789
 C1220 C 0.45454 0.74601 0.25131
 C1221 C 0.46426 0.73885 0.26324
 C1222 C 0.48095 0.74026 0.26194
 H1223 H 0.55211 0.75012 0.24240
 H1224 H 0.50983 0.72573 0.25725
 H1225 H 0.50607 0.77131 0.23541
 H1226 H 0.48316 0.76019 0.22568
 H1227 H 0.44166 0.74478 0.25192
 H1228 H 0.48842 0.73532 0.27151
 C1229 C -0.04122 0.74587 0.24301
 C1230 C -0.03292 0.75459 0.25486
 C1231 C -0.01632 0.75283 0.25620
 C1232 C -0.00755 0.74391 0.24467
 C1233 C -0.01613 0.73576 0.23234
 C1234 C -0.03293 0.73629 0.23184
 C1235 C 0.01041 0.74351 0.24547
 C1236 C 0.01930 0.73113 0.23850
 C1237 C 0.03608 0.73101 0.23935
 C1238 C 0.04407 0.74271 0.24822
 C1239 C 0.03547 0.75475 0.25586
 C1240 C 0.01888 0.75553 0.25359
 H1241 H -0.05408 0.74709 0.24190
 H1242 H -0.01042 0.75872 0.26632
 H1243 H -0.00994 0.72898 0.22305
 H1244 H 0.01338 0.72153 0.23237
 H1245 H 0.05692 0.74201 0.24975
 H1246 H 0.01273 0.76565 0.25841
 C1247 C 0.46299 0.75406 0.73330
 C1248 C 0.47100 0.76638 0.74106
 C1249 C 0.48777 0.76678 0.74098
 C1250 C 0.49675 0.75437 0.73412
 C1251 C 0.48830 0.74201 0.72651
 C1252 C 0.47156 0.74211 0.72552
 C1253 C 0.51473 0.75418 0.73502
 C1254 C 0.52381 0.74475 0.72416
 C1255 C 0.54044 0.74332 0.72590
 C1256 C 0.54838 0.75255 0.73759
 C1257 C 0.53978 0.76240 0.74820
 C1258 C 0.52302 0.76284 0.74718
 H1259 H 0.45004 0.75420 0.73267
 H1260 H 0.49360 0.77681 0.74640
 H1261 H 0.49448 0.73206 0.72137
 H1262 H 0.51815 0.73823 0.71434
 H1263 H 0.56120 0.75139 0.73915
 H1264 H 0.51662 0.76983 0.75613
 C1265 C 0.41388 0.29218 0.29407
 C1266 C 0.42433 0.30252 0.28690
 C1267 C 0.42201 0.31855 0.28739
 C1268 C 0.40829 0.32414 0.29546
 C1269 C 0.39726 0.31372 0.30290
 C1270 C 0.40026 0.29749 0.30233
 O1271 O 0.41795 0.27740 0.29165
 C1272 C 0.43124 0.27843 0.28276
 C1273 C 0.43571 0.29353 0.27956
 C1274 C 0.44908 0.29723 0.27014
 C1275 C 0.45816 0.28483 0.26367
 C1276 C 0.45367 0.26914 0.26663
 C1277 C 0.44004 0.26597 0.27644
 H1278 H 0.43034 0.32646 0.28159
 H1279 H 0.40629 0.33660 0.29589
 H1280 H 0.39199 0.28922 0.30766
 H1281 H 0.45231 0.30921 0.26769
 H1282 H 0.46844 0.28745 0.25605
 H1283 H 0.43635 0.25414 0.27902
 C1284 C 0.42339 0.79942 0.78050
 C1285 C 0.43047 0.81006 0.77018
 C1286 C 0.42509 0.82533 0.76883
 C1287 C 0.41184 0.82978 0.77842
 C1288 C 0.40434 0.81906 0.78936
 C1289 C 0.41050 0.80367 0.79046
 O1290 O 0.42962 0.78524 0.77925
 C1291 C 0.44093 0.78697 0.76793
 C1292 C 0.44209 0.80196 0.76208
 C1293 C 0.45301 0.80623 0.74993
 C1294 C 0.46300 0.79451 0.74344
 C1295 C 0.46164 0.77891 0.74899
 C1296 C 0.45053 0.77515 0.76149
 H1297 H 0.43072 0.83346 0.76047
 H1298 H 0.40763 0.84165 0.77734
 H1299 H 0.40509 0.79493 0.79824
 H1300 H 0.45367 0.81808 0.74545
 H1301 H 0.47141 0.79743 0.73377
 H1302 H 0.44923 0.76330 0.76585
 C1303 C -0.07442 0.29724 0.79526
 C1304 C -0.06277 0.30713 0.78952
 C1305 C -0.06342 0.32319 0.79184
 C1306 C -0.07662 0.32930 0.80042
 C1307 C -0.08877 0.31932 0.80655
 C1308 C -0.08755 0.30304 0.80393
 O1309 O -0.07182 0.28242 0.79134
 C1310 C -0.05821 0.28294 0.78296
 C1311 C -0.05212 0.29777 0.78155
 C1312 C -0.03805 0.30097 0.77308
 C1313 C -0.03000 0.28839 0.76568
 C1314 C -0.03615 0.27300 0.76676
 C1315 C -0.05045 0.27029 0.77565
 H1316 H -0.05415 0.33075 0.78712
 H1317 H -0.07730 0.34177 0.80237
 H1318 H -0.09669 0.29510 0.80819
 H1319 H -0.03353 0.31274 0.77206
 H1320 H -0.01920 0.29068 0.75874
 H1321 H -0.05542 0.25869 0.77677
 C1322 C -0.08052 0.79046 0.29212
 C1323 C -0.06782 0.80006 0.28865
 C1324 C -0.06790 0.81594 0.29217
 C1325 C -0.08168 0.82221 0.29952
 C1326 C -0.09490 0.81254 0.30334
 C1327 C -0.09422 0.79639 0.29970
 O1328 O -0.07836 0.77590 0.28694
 C1329 C -0.06397 0.77632 0.28006
 C1330 C -0.05698 0.79082 0.28090
 C1331 C -0.04211 0.79403 0.27411
 C1332 C -0.03415 0.78183 0.26600
 C1333 C -0.04116 0.76679 0.26470
 C1334 C -0.05630 0.76402 0.27194
 H1335 H -0.05783 0.82329 0.28911
 H1336 H -0.08205 0.83456 0.30226
 H1337 H -0.10424 0.78877 0.30217
 H1338 H -0.03694 0.80557 0.27480
 H1339 H -0.02272 0.78423 0.26027
 H1340 H -0.06198 0.75271 0.27111
 C1341 C 0.58283 0.70093 0.28282
 C1342 C 0.57268 0.69049 0.27529
 C1343 C 0.57524 0.67448 0.27563
 C1344 C 0.58882 0.66903 0.28408
 C1345 C 0.59944 0.67959 0.29202
 C1346 C 0.59630 0.69578 0.29135
 O1347 O 0.57841 0.71566 0.28089
 C1348 C 0.56517 0.71452 0.27195
 C1349 C 0.56108 0.69938 0.26822
 C1350 C 0.54760 0.69559 0.25897
 C1351 C 0.53799 0.70791 0.25331
 C1352 C 0.54206 0.72363 0.25689
 C1353 C 0.55586 0.72690 0.26640
 H1354 H 0.56711 0.66647 0.26960
 H1355 H 0.59090 0.65659 0.28454
 H1356 H 0.60418 0.70421 0.29708
 H1357 H 0.54462 0.68359 0.25616
 H1358 H 0.52753 0.70524 0.24592
 H1359 H 0.55919 0.73875 0.26950
 C1360 C 0.57819 0.19303 0.79444
 C1361 C 0.56913 0.18296 0.78506
 C1362 C 0.57138 0.16690 0.78534
 C1363 C 0.58348 0.16101 0.79565
 C1364 C 0.59294 0.17120 0.80549
 C1365 C 0.59012 0.18745 0.80486
 O1366 O 0.57450 0.20789 0.79212
 C1367 C 0.56283 0.20722 0.78104
 C1368 C 0.55901 0.19226 0.77633
 C1369 C 0.54714 0.18900 0.76475
 C1370 C 0.53897 0.20169 0.75772
 C1371 C 0.54289 0.21723 0.76226
 C1372 C 0.55497 0.21994 0.77416
 H1373 H 0.56416 0.15918 0.77780
 H1374 H 0.58539 0.14854 0.79603
 H1375 H 0.59723 0.19560 0.81197
 H1376 H 0.54435 0.17714 0.76118
 H1377 H 0.52982 0.19946 0.74854
 H1378 H 0.55813 0.23165 0.77800
 C1379 C 1.07663 0.69889 0.78226
 C1380 C 1.06742 0.68885 0.77300
 C1381 C 1.06976 0.67280 0.77300
 C1382 C 1.08216 0.66688 0.78287
 C1383 C 1.09176 0.67700 0.79261
 C1384 C 1.08884 0.69325 0.79235
 O1385 O 1.07272 0.71376 0.78022
 C1386 C 1.06075 0.71309 0.76948
 C1387 C 1.05697 0.69812 0.76473
 C1388 C 1.04472 0.69478 0.75363
 C1389 C 1.03602 0.70739 0.74718
 C1390 C 1.03982 0.72293 0.75177
 C1391 C 1.05240 0.72577 0.76308
 H1392 H 1.06240 0.66513 0.76557
 H1393 H 1.08418 0.65442 0.78302
 H1394 H 1.09608 0.70129 0.79946
 H1395 H 1.04195 0.68291 0.75008
 H1396 H 1.02645 0.70509 0.73849
 H1397 H 1.05545 0.73750 0.76692
 C1398 C 1.08085 0.19056 0.29459
 C1399 C 1.06901 0.19427 0.30572
 C1400 C 1.06969 0.19003 0.32227
 C1401 C 1.08322 0.18177 0.32760
 C1402 C 1.09566 0.17785 0.31639
 C1403 C 1.09431 0.18215 0.29958
 O1404 O 1.07825 0.19638 0.27964
 C1405 C 1.06448 0.20392 0.28139
 C1406 C 1.05829 0.20293 0.29710
 C1407 C 1.04423 0.21037 0.30180
 C1408 C 1.03626 0.21928 0.28985
 C1409 C 1.04245 0.22066 0.27358
 C1410 C 1.05675 0.21274 0.26932
 H1411 H 1.06029 0.19321 0.33083
 H1412 H 1.08402 0.17850 0.34048
 H1413 H 1.10372 0.17960 0.29079
 H1414 H 1.03970 0.20955 0.31429
 H1415 H 1.02549 0.22545 0.29341
 H1416 H 1.06180 0.21353 0.25703
 C1417 C 0.58653 0.29417 0.71244
 C1418 C 0.57596 0.30412 0.72014
 C1419 C 0.57838 0.32013 0.72100
 C1420 C 0.59230 0.32610 0.71371
 C1421 C 0.60340 0.31608 0.70568
 C1422 C 0.60034 0.29987 0.70496
 O1423 O 0.58227 0.27931 0.71345
 C1424 C 0.56873 0.27990 0.72196
 C1425 C 0.56429 0.29480 0.72630
 C1426 C 0.55060 0.29802 0.73547
 C1427 C 0.54117 0.28534 0.74046
 C1428 C 0.54561 0.26983 0.73630
 C1429 C 0.55957 0.26715 0.72681
 H1430 H 0.56994 0.32773 0.72719
 H1431 H 0.59434 0.33855 0.71426
 H1432 H 0.60864 0.29187 0.69914
 H1433 H 0.54739 0.30984 0.73881
 H1434 H 0.53063 0.28758 0.74786
 H1435 H 0.56323 0.25548 0.72335
 C1436 C 0.57388 0.80118 0.19975
 C1437 C 0.56302 0.81084 0.20743
 C1438 C 0.56411 0.82699 0.20688
 C1439 C 0.57708 0.83343 0.19831
 C1440 C 0.58866 0.82373 0.19056
 C1441 C 0.58680 0.80734 0.19107
 O1442 O 0.57109 0.78618 0.20239
 C1443 C 0.55823 0.78638 0.21200
 C1444 C 0.55280 0.80116 0.21545
 C1445 C 0.53989 0.80403 0.22586
 C1446 C 0.53230 0.79112 0.23303
 C1447 C 0.53771 0.77572 0.22970
 C1448 C 0.55083 0.77340 0.21889
 H1449 H 0.55547 0.83436 0.21310
 H1450 H 0.57819 0.84599 0.19795
 H1451 H 0.59552 0.79957 0.18557
 H1452 H 0.53597 0.81579 0.22859
 H1453 H 0.52248 0.79317 0.24147
 H1454 H 0.55523 0.76185 0.21597
 C1455 C 1.08223 0.29367 0.21118
 C1456 C 1.07220 0.28837 0.19891
 C1457 C 1.07421 0.29219 0.18237
 C1458 C 1.08720 0.30173 0.17827
 C1459 C 1.09769 0.30741 0.19068
 C1460 C 1.09503 0.30346 0.20742
 O1461 O 1.07861 0.28808 0.22600
 C1462 C 1.06600 0.27909 0.22301
 C1463 C 1.06156 0.27896 0.20664
 C1464 C 1.04878 0.27026 0.20070
 C1465 C 1.04019 0.26132 0.21211
 C1466 C 1.04460 0.26109 0.22906
 C1467 C 1.05775 0.27011 0.23456
 H1468 H 1.06624 0.28775 0.17292
 H1469 H 1.08911 0.30468 0.16542
 H1470 H 1.10303 0.30739 0.21710
 H1471 H 1.04555 0.27031 0.18775
 H1472 H 1.03024 0.25436 0.20773
 H1473 H 1.06134 0.27019 0.24742
 C1474 C 1.07654 0.80090 0.69756
 C1475 C 1.06514 0.81049 0.70445
 C1476 C 1.06609 0.82664 0.70384
 C1477 C 1.07946 0.83318 0.69604
 C1478 C 1.09158 0.82357 0.68908
 C1479 C 1.08990 0.80715 0.68965
 O1480 O 1.07365 0.78587 0.70001
 C1481 C 1.06017 0.78600 0.70868
 C1482 C 1.05447 0.80076 0.71172
 C1483 C 1.04082 0.80360 0.72107
 C1484 C 1.03272 0.79068 0.72757
 C1485 C 1.03832 0.77527 0.72462
 C1486 C 1.05226 0.77299 0.71492
 H1487 H 1.05699 0.83395 0.70939
 H1488 H 1.08039 0.84575 0.69558
 H1489 H 1.09899 0.79946 0.68470
 H1490 H 1.03668 0.81535 0.72348
 H1491 H 1.02230 0.79273 0.73520
 H1492 H 1.05685 0.76143 0.71231
 C1493 C 0.42274 0.70029 0.69888
 C1494 C 0.43379 0.70307 0.68665
 C1495 C 0.43154 0.69835 0.67035
 C1496 C 0.41731 0.69047 0.66649
 C1497 C 0.40586 0.68728 0.67894
 C1498 C 0.40872 0.69212 0.69540
 O1499 O 0.42659 0.70675 0.71327
 C1500 C 0.44040 0.71373 0.71008
 C1501 C 0.44541 0.71170 0.69403
 C1502 C 0.45931 0.71841 0.68791
 C1503 C 0.46826 0.72781 0.69870
 C1504 C 0.46307 0.73050 0.71517
 C1505 C 0.44902 0.72317 0.72097
 H1506 H 0.44027 0.70093 0.66087
 H1507 H 0.41519 0.68684 0.65385
 H1508 H 0.40000 0.69015 0.70505
 H1509 H 0.46295 0.71674 0.67519
 H1510 H 0.47886 0.73354 0.69404
 H1511 H 0.44471 0.72511 0.73343
 C1512 C 0.41667 0.19630 0.20531
 C1513 C 0.42645 0.18565 0.21300
 C1514 C 0.42411 0.16966 0.21174
 C1515 C 0.41104 0.16445 0.20236
 C1516 C 0.40062 0.17519 0.19445
 C1517 C 0.40368 0.19137 0.19579
 O1518 O 0.42063 0.21097 0.20857
 C1519 C 0.43316 0.20953 0.21854
 C1520 C 0.43724 0.19429 0.22163
 C1521 C 0.44973 0.19018 0.23212
 C1522 C 0.45834 0.20227 0.23976
 C1523 C 0.45429 0.21811 0.23686
 C1524 C 0.44154 0.22171 0.22598
 H1525 H 0.43192 0.16150 0.21795
 H1526 H 0.40902 0.15203 0.20137
 H1527 H 0.39587 0.19989 0.19014
 H1528 H 0.45262 0.17809 0.23448
 H1529 H 0.46790 0.19930 0.24820
 H1530 H 0.43821 0.23365 0.22339
 C1531 C -0.08079 0.69699 0.19961
 C1532 C -0.07124 0.70324 0.18748
 C1533 C -0.07432 0.70112 0.17072
 C1534 C -0.08783 0.69230 0.16632
 C1535 C -0.09773 0.68562 0.17863
 C1536 C -0.09402 0.68789 0.19551
 O1537 O -0.07634 0.70106 0.21476
 C1538 C -0.06369 0.71002 0.21217
 C1539 C -0.05996 0.71164 0.19571
 C1540 C -0.04723 0.72072 0.19027
 C1541 C -0.03806 0.72852 0.20230
 C1542 C -0.04194 0.72729 0.21931
 C1543 C -0.05490 0.71782 0.22426
 H1544 H -0.06678 0.70631 0.16138
 H1545 H -0.09058 0.69066 0.15335
 H1546 H -0.10156 0.68321 0.20517
 H1547 H -0.04453 0.72187 0.17726
 H1548 H -0.02824 0.73583 0.19838
 H1549 H -0.05811 0.71669 0.23717
 C1550 C -0.08105 0.20550 0.70476
 C1551 C -0.07032 0.19446 0.71013
 C1552 C -0.07322 0.17855 0.70889
 C1553 C -0.08781 0.17382 0.70192
 C1554 C -0.09911 0.18497 0.69626
 C1555 C -0.09554 0.20106 0.69757
 O1556 O -0.07636 0.22000 0.70788
 C1557 C -0.06238 0.21806 0.71538
 C1558 C -0.05808 0.20266 0.71698
 C1559 C -0.04417 0.19799 0.72498
 C1560 C -0.03440 0.20965 0.73181
 C1561 C -0.03871 0.22563 0.73066
 C1562 C -0.05285 0.22984 0.72208
 H1563 H -0.06467 0.17007 0.71336
 H1564 H -0.09028 0.16147 0.70092
 H1565 H -0.10400 0.20986 0.69365
 H1566 H -0.04112 0.18579 0.72623
 H1567 H -0.02379 0.20619 0.73855
 H1568 H -0.05650 0.24190 0.72095
 C1569 C 0.30051 0.42293 0.29521
 C1570 C 0.29975 0.43535 0.30600
 C1571 C 0.30629 0.43490 0.32179
 C1572 C 0.31384 0.42105 0.32670
 C1573 C 0.31484 0.40811 0.31576
 C1574 C 0.30823 0.40917 0.29972
 O1575 O 0.29266 0.42539 0.28120
 C1576 C 0.28684 0.43967 0.28318
 C1577 C 0.29092 0.44632 0.29809
 C1578 C 0.28564 0.46100 0.30295
 C1579 C 0.27558 0.46909 0.29207
 C1580 C 0.27089 0.46236 0.27675
 C1581 C 0.27678 0.44748 0.27221
 H1582 H 0.30534 0.44474 0.33015
 H1583 H 0.31887 0.42038 0.33901
 H1584 H 0.30850 0.39938 0.29124
 H1585 H 0.28889 0.46592 0.31482
 H1586 H 0.27097 0.48035 0.29586
 H1587 H 0.27338 0.44201 0.26065
 C1588 C 0.30570 -0.07905 0.79214
 C1589 C 0.29960 -0.06975 0.80448
 C1590 C 0.30062 -0.07366 0.82109
 C1591 C 0.30821 -0.08774 0.82516
 C1592 C 0.31497 -0.09747 0.81268
 C1593 C 0.31378 -0.09280 0.79590
 O1594 O 0.30229 -0.07392 0.77708
 C1595 C 0.29394 -0.06104 0.77998
 C1596 C 0.29214 -0.05784 0.79655
 C1597 C 0.28347 -0.04510 0.80237
 C1598 C 0.27614 -0.03544 0.79063
 C1599 C 0.27733 -0.03886 0.77352
 C1600 C 0.28649 -0.05175 0.76811
 H1601 H 0.29545 -0.06630 0.83058
 H1602 H 0.30898 -0.09085 0.83807
 H1603 H 0.31827 -0.09997 0.78589
 H1604 H 0.28213 -0.04287 0.81547
 H1605 H 0.26895 -0.02570 0.79485
 H1606 H 0.28735 -0.05471 0.75512
 C1607 C 0.80101 0.42225 0.80109
 C1608 C 0.81159 0.43222 0.79362
 C1609 C 0.82797 0.42966 0.79353
 C1610 C 0.83371 0.41624 0.80140
 C1611 C 0.82311 0.40564 0.80937
 C1612 C 0.80645 0.40893 0.80924
 O1613 O 0.78586 0.42653 0.79918
 C1614 C 0.78694 0.43950 0.79035
 C1615 C 0.80244 0.44355 0.78671
 C1616 C 0.80631 0.45660 0.77740
 C1617 C 0.79367 0.46582 0.77149
 C1618 C 0.77755 0.46177 0.77484
 C1619 C 0.77419 0.44843 0.78450
 H1620 H 0.83606 0.43764 0.78746
 H1621 H 0.84648 0.41436 0.80132
 H1622 H 0.79783 0.40122 0.81487
 H1623 H 0.81861 0.45949 0.77462
 H1624 H 0.79642 0.47585 0.76393
 H1625 H 0.76201 0.44505 0.78725
 C1626 C 0.79861 -0.07798 0.29400
 C1627 C 0.80959 -0.06923 0.28548
 C1628 C 0.82571 -0.07301 0.28489
 C1629 C 0.83072 -0.08647 0.29324
 C1630 C 0.81965 -0.09591 0.30211
 C1631 C 0.80334 -0.09129 0.30262
 O1632 O 0.78374 -0.07280 0.29233
 C1633 C 0.78539 -0.06054 0.28252
 C1634 C 0.80097 -0.05779 0.27803
 C1635 C 0.80531 -0.04580 0.26741
 C1636 C 0.79307 -0.03631 0.26109
 C1637 C 0.77685 -0.03904 0.26535
 C1638 C 0.77305 -0.05129 0.27636
 H1639 H 0.83412 -0.06600 0.27801
 H1640 H 0.84329 -0.08935 0.29273
 H1641 H 0.79436 -0.09807 0.30895
 H1642 H 0.81766 -0.04395 0.26393
 H1643 H 0.79617 -0.02713 0.25253
 H1644 H 0.76081 -0.05366 0.27992
 C1645 C 0.30211 0.57894 0.71168
 C1646 C 0.31358 0.57103 0.72050
 C1647 C 0.32963 0.57528 0.72036
 C1648 C 0.33398 0.58824 0.71079
 C1649 C 0.32234 0.59650 0.70150
 C1650 C 0.30620 0.59166 0.70191
 O1651 O 0.28747 0.57347 0.71395
 C1652 C 0.28972 0.56182 0.72441
 C1653 C 0.30548 0.55973 0.72876
 C1654 C 0.31039 0.54822 0.73974
 C1655 C 0.29856 0.53859 0.74660
 C1656 C 0.28221 0.54078 0.74253
 C1657 C 0.27781 0.55251 0.73117
 H1658 H 0.33845 0.56898 0.72750
 H1659 H 0.34639 0.59177 0.71056
 H1660 H 0.29698 0.59786 0.69522
 H1661 H 0.32286 0.54680 0.74302
 H1662 H 0.30204 0.52970 0.75536
 H1663 H 0.26543 0.55439 0.72777
 C1664 C 0.29867 1.07299 0.20425
 C1665 C 0.29279 1.06216 0.19325
 C1666 C 0.29522 1.06323 0.17629
 C1667 C 0.30401 1.07602 0.17045
 C1668 C 0.31022 1.08733 0.18159
 C1669 C 0.30753 1.08568 0.19875
 O1670 O 0.29479 1.07006 0.21981
 C1671 C 0.28628 1.05707 0.21863
 C1672 C 0.28473 1.05171 0.20267
 C1673 C 0.27623 1.03829 0.19868
 C1674 C 0.26904 1.03008 0.21169
 C1675 C 0.27042 1.03545 0.22826
 C1676 C 0.27919 1.04917 0.23171
 H1677 H 0.29044 1.05459 0.16786
 H1678 H 0.30602 1.07703 0.15729
 H1679 H 0.31187 1.09418 0.20759
 H1680 H 0.27511 1.03432 0.18602
 H1681 H 0.26221 1.01970 0.20885
 H1682 H 0.28054 1.05349 0.24422
 C1683 C 0.79729 0.57586 0.20903
 C1684 C 0.80846 0.56574 0.21539
 C1685 C 0.82485 0.56824 0.21392
 C1686 C 0.82988 0.58166 0.20547
 C1687 C 0.81854 0.59204 0.19851
 C1688 C 0.80201 0.58904 0.20034
 O1689 O 0.78234 0.57176 0.21233
 C1690 C 0.78408 0.55872 0.22089
 C1691 C 0.79982 0.55443 0.22298
 C1692 C 0.80430 0.54112 0.23160
 C1693 C 0.79209 0.53201 0.23850
 C1694 C 0.77582 0.53647 0.23688
 C1695 C 0.77179 0.54998 0.22784
 H1696 H 0.83344 0.56022 0.21917
 H1697 H 0.84256 0.58383 0.20413
 H1698 H 0.79308 0.59689 0.19540
 H1699 H 0.81675 0.53796 0.23310
 H1700 H 0.79528 0.52176 0.24555
 H1701 H 0.75947 0.55365 0.22646
 C1702 C 0.79820 1.08168 0.70955
 C1703 C 0.79260 1.07112 0.69810
 C1704 C 0.79484 1.07294 0.68120
 C1705 C 0.80313 1.08623 0.67588
 C1706 C 0.80904 1.09733 0.68744
 C1707 C 0.80659 1.09489 0.70455
 O1708 O 0.79450 1.07796 0.72498
 C1709 C 0.78640 1.06476 0.72324
 C1710 C 0.78493 1.06004 0.70705
 C1711 C 0.77679 1.04657 0.70245
 C1712 C 0.76989 1.03762 0.71505
 C1713 C 0.77117 1.04228 0.73186
 C1714 C 0.77957 1.05609 0.73594
 H1715 H 0.79029 1.06450 0.67242
 H1716 H 0.80497 1.08780 0.66276
 H1717 H 0.81075 1.10318 0.71370
 H1718 H 0.77573 1.04313 0.68961
 H1719 H 0.76331 1.02721 0.71169
 H1720 H 0.78082 1.05991 0.74865
 C1721 C 0.70052 0.57392 0.29622
 C1722 C 0.70422 0.56318 0.30822
 C1723 C 0.69949 0.56495 0.32460
 C1724 C 0.69065 0.57835 0.32877
 C1725 C 0.68662 0.58954 0.31656
 C1726 C 0.69157 0.58716 0.30003
 O1727 O 0.70668 0.57045 0.28157
 C1728 C 0.71444 0.55723 0.28434
 C1729 C 0.71326 0.55220 0.30041
 C1730 C 0.72077 0.53871 0.30597
 C1731 C 0.72997 0.53017 0.29454
 C1732 C 0.73160 0.53533 0.27798
 C1733 C 0.72356 0.54900 0.27284
 H1734 H 0.70265 0.55644 0.33388
 H1735 H 0.68690 0.57997 0.34146
 H1736 H 0.68898 0.59559 0.29048
 H1737 H 0.71974 0.53499 0.31869
 H1738 H 0.73618 0.51982 0.29870
 H1739 H 0.72452 0.55321 0.26028
 C1740 C 0.70994 1.07639 0.80862
 C1741 C 0.70053 1.06363 0.80531
 C1742 C 0.68424 1.06333 0.80847
 C1743 C 0.67726 1.07679 0.81515
 C1744 C 0.68662 1.09023 0.81884
 C1745 C 0.70335 1.08978 0.81581
 O1746 O 0.72489 1.07468 0.80333
 C1747 C 0.72487 1.06051 0.79660
 C1748 C 0.71028 1.05323 0.79768
 C1749 C 0.70729 1.03865 0.79086
 C1750 C 0.71980 1.03131 0.78236
 C1751 C 0.73491 1.03867 0.78063
 C1752 C 0.73750 1.05346 0.78804
 H1753 H 0.67706 1.05321 0.80550
 H1754 H 0.66455 1.07655 0.81754
 H1755 H 0.71090 1.09981 0.81801
 H1756 H 0.69562 1.03328 0.79170
 H1757 H 0.71748 1.02017 0.77648
 H1758 H 0.74882 1.05945 0.78677
 C1759 C 0.20481 0.57528 0.80076
 C1760 C 0.19483 0.56385 0.79473
 C1761 C 0.17830 0.56467 0.79614
 C1762 C 0.17177 0.57794 0.80376
 C1763 C 0.18177 0.59009 0.80977
 C1764 C 0.19858 0.58854 0.80852
 O1765 O 0.22011 0.57258 0.79746
 C1766 C 0.21976 0.55922 0.78913
 C1767 C 0.20460 0.55337 0.78712
 C1768 C 0.20146 0.53986 0.77813
 C1769 C 0.21449 0.53207 0.77088
 C1770 C 0.23030 0.53787 0.77272
 C1771 C 0.23288 0.55162 0.78214
 H1772 H 0.17068 0.55557 0.79123
 H1773 H 0.15890 0.57883 0.80474
 H1774 H 0.20654 0.59768 0.81268
 H1775 H 0.18938 0.53561 0.77651
 H1776 H 0.21219 0.52176 0.76350
 H1777 H 0.24475 0.55635 0.78393
 C1778 C 0.21296 1.07673 0.30202
 C1779 C 0.20243 1.06457 0.29989
 C1780 C 0.18616 1.06594 0.30315
 C1781 C 0.18052 1.08043 0.30880
 C1782 C 0.19116 1.09309 0.31126
 C1783 C 0.20766 1.09113 0.30799
 O1784 O 0.22767 1.07338 0.29698
 C1785 C 0.22642 1.05880 0.29158
 C1786 C 0.21126 1.05281 0.29323
 C1787 C 0.20712 1.03798 0.28769
 C1788 C 0.21900 1.02910 0.27979
 C1789 C 0.23459 1.03522 0.27739
 C1790 C 0.23838 1.05020 0.28370
 H1791 H 0.17805 1.05630 0.30108
 H1792 H 0.16787 1.08178 0.31127
 H1793 H 0.21598 1.10070 0.30942
 H1794 H 0.19506 1.03359 0.28896
 H1795 H 0.21581 1.01780 0.27477
 H1796 H 0.25011 1.05525 0.28193
 C1797 C 0.69973 0.42496 0.71913
 C1798 C 0.70148 0.43733 0.70852
 C1799 C 0.69626 0.43690 0.69221
 C1800 C 0.68898 0.42314 0.68658
 C1801 C 0.68696 0.41024 0.69730
 C1802 C 0.69229 0.41127 0.71387
 O1803 O 0.70641 0.42741 0.73381
 C1804 C 0.71249 0.44163 0.73244
 C1805 C 0.70971 0.44824 0.71724
 C1806 C 0.71557 0.46280 0.71289
 C1807 C 0.72488 0.47078 0.72459
 C1808 C 0.72823 0.46412 0.74027
 C1809 C 0.72173 0.44937 0.74427
 H1810 H 0.69797 0.44671 0.68403
 H1811 H 0.68492 0.42255 0.67389
 H1812 H 0.69123 0.40151 0.72224
 H1813 H 0.71339 0.46766 0.70078
 H1814 H 0.73002 0.48188 0.72113
 H1815 H 0.72413 0.44390 0.75605
 C1816 C 0.69810 -0.07119 0.20689
 C1817 C 0.68798 -0.06156 0.21562
 C1818 C 0.67145 -0.06336 0.21540
 C1819 C 0.66516 -0.07569 0.20595
 C1820 C 0.67541 -0.08575 0.19685
 C1821 C 0.69211 -0.08331 0.19722
 O1822 O 0.71342 -0.06798 0.20927
 C1823 C 0.71299 -0.05605 0.21970
 C1824 C 0.69773 -0.05157 0.22394
 C1825 C 0.69465 -0.03937 0.23489
 C1826 C 0.70785 -0.03152 0.24175
 C1827 C 0.72367 -0.03615 0.23771
 C1828 C 0.72621 -0.04855 0.22647
 H1829 H 0.66371 -0.05573 0.22247
 H1830 H 0.65235 -0.07743 0.20576
 H1831 H 0.70028 -0.09096 0.19072
 H1832 H 0.68255 -0.03606 0.23810
 H1833 H 0.70579 -0.02206 0.25039
 H1834 H 0.73815 -0.05224 0.22306
 C1835 C 0.19786 0.42237 0.21624
 C1836 C 0.18700 0.43113 0.22505
 C1837 C 0.17082 0.42733 0.22576
 C1838 C 0.16570 0.41402 0.21700
 C1839 C 0.17672 0.40504 0.20762
 C1840 C 0.19301 0.40935 0.20729
 O1841 O 0.21275 0.42741 0.21764
 C1842 C 0.21133 0.43968 0.22751
 C1843 C 0.19583 0.44260 0.23233
 C1844 C 0.19183 0.45493 0.24282
 C1845 C 0.20434 0.46444 0.24868
 C1846 C 0.22040 0.46127 0.24417
 C1847 C 0.22387 0.44881 0.23331
 H1848 H 0.16249 0.43426 0.23292
 H1849 H 0.15319 0.41082 0.21737
 H1850 H 0.20181 0.40258 0.20058
 H1851 H 0.17958 0.45704 0.24649
 H1852 H 0.20161 0.47393 0.25708
 H1853 H 0.23604 0.44617 0.22968
 C1854 C 0.20349 -0.07266 0.70788
 C1855 C 0.19363 -0.06241 0.71614
 C1856 C 0.17706 -0.06377 0.71602
 C1857 C 0.17040 -0.07623 0.70706
 C1858 C 0.18033 -0.08680 0.69827
 C1859 C 0.19711 -0.08490 0.69863
 O1860 O 0.21891 -0.06973 0.71011
 C1861 C 0.21880 -0.05731 0.71994
 C1862 C 0.20364 -0.05229 0.72389
 C1863 C 0.20081 -0.03948 0.73408
 C1864 C 0.21415 -0.03160 0.74052
 C1865 C 0.22988 -0.03677 0.73686
 C1866 C 0.23221 -0.04980 0.72639
 H1867 H 0.16955 -0.05566 0.72275
 H1868 H 0.15753 -0.07757 0.70685
 H1869 H 0.20499 -0.09295 0.69228
 H1870 H 0.18878 -0.03575 0.73703
 H1871 H 0.21225 -0.02171 0.74864
 H1872 H 0.24409 -0.05396 0.72340
 C1873 C 0.29494 0.29689 0.41530
 C1874 C 0.28983 0.30738 0.42705
 C1875 C 0.29416 0.32299 0.42693
 C1876 C 0.30397 0.32809 0.41402
 C1877 C 0.30919 0.31764 0.40143
 C1878 C 0.30472 0.30172 0.40227
 O1879 O 0.28946 0.28256 0.41781
 C1880 C 0.28068 0.28409 0.43141
 C1881 C 0.28049 0.29907 0.43750
 C1882 C 0.27197 0.30336 0.45153
 C1883 C 0.26346 0.29169 0.45979
 C1884 C 0.26370 0.27601 0.45405
 C1885 C 0.27233 0.27225 0.43948
 H1886 H 0.29008 0.33098 0.43642
 H1887 H 0.30742 0.34023 0.41390
 H1888 H 0.30838 0.29340 0.39293
 H1889 H 0.27190 0.31528 0.45597
 H1890 H 0.25666 0.29490 0.47067
 H1891 H 0.27287 0.26041 0.43482
 C1892 C 0.30129 0.79231 -0.09319
 C1893 C 0.31139 0.78230 -0.08499
 C1894 C 0.32763 0.78127 -0.08856
 C1895 C 0.33365 0.79088 -0.10114
 C1896 C 0.32347 0.80142 -0.10960
 C1897 C 0.30708 0.80220 -0.10543
 O1898 O 0.28615 0.79100 -0.08854
 C1899 C 0.28668 0.77997 -0.07712
 C1900 C 0.30185 0.77433 -0.07434
 C1901 C 0.30503 0.76266 -0.06286
 C1902 C 0.29203 0.75654 -0.05398
 C1903 C 0.27627 0.76196 -0.05697
 C1904 C 0.27361 0.77389 -0.06866
 H1905 H 0.33534 0.77319 -0.08209
 H1906 H 0.34622 0.79016 -0.10425
 H1907 H 0.29896 0.80990 -0.11190
 H1908 H 0.31705 0.75839 -0.06087
 H1909 H 0.29415 0.74739 -0.04507
 H1910 H 0.26170 0.77826 -0.07110
 C1911 C 0.79403 0.29851 -0.08899
 C1912 C 0.80472 0.29337 -0.07727
 C1913 C 0.82109 0.29579 -0.07845
 C1914 C 0.82673 0.30372 -0.09238
 C1915 C 0.81601 0.30920 -0.10465
 C1916 C 0.79937 0.30674 -0.10281
 O1917 O 0.77907 0.29425 -0.08584
 C1918 C 0.78037 0.28629 -0.07184
 C1919 C 0.79582 0.28552 -0.06606
 C1920 C 0.80002 0.27754 -0.05180
 C1921 C 0.78781 0.26998 -0.04312
 C1922 C 0.77177 0.27040 -0.04886
 C1923 C 0.76802 0.27872 -0.06346
 H1924 H 0.82926 0.29149 -0.06914
 H1925 H 0.83947 0.30559 -0.09360
 H1926 H 0.79097 0.31059 -0.11213
 H1927 H 0.81230 0.27701 -0.04759
 H1928 H 0.79090 0.26348 -0.03213
 H1929 H 0.75591 0.27924 -0.06815
 C1930 C 0.78439 0.79953 0.40398
 C1931 C 0.79492 0.79353 0.41539
 C1932 C 0.81140 0.79467 0.41374
 C1933 C 0.81731 0.80212 0.39963
 C1934 C 0.80674 0.80840 0.38764
 C1935 C 0.79002 0.80730 0.38999
 O1936 O 0.76921 0.79654 0.40759
 C1937 C 0.77020 0.78852 0.42157
 C1938 C 0.78568 0.78644 0.42689
 C1939 C 0.78953 0.77818 0.44109
 C1940 C 0.77691 0.77181 0.45023
 C1941 C 0.76083 0.77367 0.44498
 C1942 C 0.75746 0.78214 0.43039
 H1943 H 0.81943 0.78975 0.42282
 H1944 H 0.83013 0.80297 0.39803
 H1945 H 0.78172 0.81178 0.38090
 H1946 H 0.80182 0.77662 0.44494
 H1947 H 0.77968 0.76517 0.46122
 H1948 H 0.74530 0.78372 0.42610
 C1949 C 0.70159 0.30071 0.59119
 C1950 C 0.70509 0.31100 0.57873
 C1951 C 0.70062 0.32659 0.57924
 C1952 C 0.69232 0.33186 0.59325
 C1953 C 0.68867 0.32155 0.60642
 C1954 C 0.69326 0.30568 0.60522
 O1955 O 0.70729 0.28647 0.58842
 C1956 C 0.71456 0.28784 0.57391
 C1957 C 0.71355 0.30261 0.56747
 C1958 C 0.72062 0.30676 0.55260
 C1959 C 0.72911 0.29520 0.54400
 C1960 C 0.73036 0.27980 0.55029
 C1961 C 0.72291 0.27612 0.56552
 H1962 H 0.70355 0.33447 0.56927
 H1963 H 0.68879 0.34398 0.59377
 H1964 H 0.69087 0.29752 0.61508
 H1965 H 0.71980 0.31852 0.54788
 H1966 H 0.73498 0.29835 0.53257
 H1967 H 0.72354 0.26451 0.57068
 C1968 C 0.69936 0.79964 1.09183
 C1969 C 0.70802 0.80927 1.08166
 C1970 C 0.70812 0.82538 1.08348
 C1971 C 0.69899 0.83183 1.09634
 C1972 C 0.68994 0.82217 1.10707
 C1973 C 0.69011 0.80581 1.10465
 O1974 O 0.70107 0.78464 1.08813
 C1975 C 0.71103 0.78482 1.07535
 C1976 C 0.71561 0.79960 1.07088
 C1977 C 0.72602 0.80246 1.05784
 C1978 C 0.73194 0.78954 1.04904
 C1979 C 0.72742 0.77415 1.05342
 C1980 C 0.71680 0.77183 1.06681
 H1981 H 0.71504 0.83272 1.07533
 H1982 H 0.69893 0.84436 1.09781
 H1983 H 0.68351 0.79806 1.11265
 H1984 H 0.72951 0.81420 1.05460
 H1985 H 0.74021 0.79152 1.03898
 H1986 H 0.71302 0.76025 1.07038
 C1987 C 0.20793 0.30241 1.09238
 C1988 C 0.21683 0.31285 1.08339
 C1989 C 0.21649 0.32881 1.08647
 C1990 C 0.20665 0.33418 1.09937
 C1991 C 0.19729 0.32360 1.10871
 C1992 C 0.19793 0.30749 1.10504
 O1993 O 0.21018 0.28772 1.08782
 C1994 C 0.22069 0.28887 1.07565
 C1995 C 0.22512 0.30398 1.07234
 C1996 C 0.23594 0.30775 1.05992
 C1997 C 0.24241 0.29544 1.05055
 C1998 C 0.23813 0.27977 1.05392
 C1999 C 0.22710 0.27651 1.06666
 H2000 H 0.22364 0.33683 1.07929
 H2001 H 0.20625 0.34656 1.10201
 H2002 H 0.19117 0.29907 1.11209
 H2003 H 0.23924 0.31972 1.05751
 H2004 H 0.25087 0.29805 1.04082
 H2005 H 0.22347 0.26467 1.06936
 C2006 C 0.20427 0.80318 0.59126
 C2007 C 0.21194 0.81317 0.58065
 C2008 C 0.21062 0.82927 0.58192
 C2009 C 0.20111 0.83532 0.59470
 C2010 C 0.19312 0.82528 0.60593
 C2011 C 0.19470 0.80893 0.60404
 O2012 O 0.20716 0.78827 0.58796
 C2013 C 0.21686 0.78889 0.57500
 C2014 C 0.22016 0.80385 0.57003
 C2015 C 0.23007 0.80714 0.55669
 C2016 C 0.23680 0.79449 0.54808
 C2017 C 0.23354 0.77892 0.55293
 C2018 C 0.22342 0.77616 0.56665
 H2019 H 0.21672 0.83691 0.57338
 H2020 H 0.19994 0.84784 0.59572
 H2021 H 0.18891 0.80090 0.61239
 H2022 H 0.23253 0.81902 0.55304
 H2023 H 0.24464 0.79682 0.53775
 H2024 H 0.22051 0.76445 0.57055
 C2025 C 0.28951 0.70106 0.58820
 C2026 C 0.27950 0.69129 0.57951
 C2027 C 0.27905 0.67528 0.58218
 C2028 C 0.28929 0.66914 0.59431
 C2029 C 0.29983 0.67899 0.60329
 C2030 C 0.29993 0.69518 0.60008
 O2031 O 0.28786 0.71594 0.58412
 C2032 C 0.27662 0.71557 0.57257
 C2033 C 0.27114 0.70078 0.56919
 C2034 C 0.25943 0.69781 0.55735
 C2035 C 0.25314 0.71060 0.54869
 C2036 C 0.25846 0.72597 0.55217
 C2037 C 0.27039 0.72843 0.56430
 H2038 H 0.27103 0.66782 0.57526
 H2039 H 0.28912 0.65671 0.59658
 H2040 H 0.30764 0.70305 0.60687
 H2041 H 0.25532 0.68608 0.55486
 H2042 H 0.24398 0.70860 0.53946
 H2043 H 0.27479 0.74001 0.56708
 C2044 C 0.29640 0.20199 1.08603
 C2045 C 0.28878 0.19242 1.07488
 C2046 C 0.29102 0.17640 1.07450
 C2047 C 0.30136 0.16991 1.08626
 C2048 C 0.30913 0.17942 1.09825
 C2049 C 0.30671 0.19578 1.09792
 O2050 O 0.29262 0.21693 1.08420
 C2051 C 0.28236 0.21674 1.07166
 C2052 C 0.27956 0.20202 1.06556
 C2053 C 0.26909 0.19909 1.05258
 C2054 C 0.26131 0.21190 1.04543
 C2055 C 0.26421 0.22730 1.05121
 C2056 C 0.27483 0.22966 1.06466
 H2057 H 0.28498 0.16913 1.06549
 H2058 H 0.30315 0.15744 1.08596
 H2059 H 0.31234 0.20345 1.10682
 H2060 H 0.26698 0.18736 1.04811
 H2061 H 0.25300 0.20977 1.03541
 H2062 H 0.27747 0.24123 1.06930
 C2063 C 0.78494 0.69761 1.08846
 C2064 C 0.77571 0.68744 1.07938
 C2065 C 0.77643 0.67137 1.08147
 C2066 C 0.78701 0.66559 1.09347
 C2067 C 0.79670 0.67587 1.10294
 C2068 C 0.79567 0.69212 1.10026
 O2069 O 0.78226 0.71244 1.08483
 C2070 C 0.77112 0.71163 1.07319
 C2071 C 0.76673 0.69661 1.06932
 C2072 C 0.75534 0.69316 1.05729
 C2073 C 0.74826 0.70572 1.04890
 C2074 C 0.75253 0.72131 1.05283
 C2075 C 0.76412 0.72424 1.06518
 H2076 H 0.76902 0.66357 1.07423
 H2077 H 0.78771 0.65312 1.09530
 H2078 H 0.80271 0.70030 1.10741
 H2079 H 0.75209 0.68125 1.05442
 H2080 H 0.73940 0.70336 1.03947
 H2081 H 0.76777 0.73601 1.06826
 C2082 C 0.79795 0.21150 0.58815
 C2083 C 0.79387 0.20180 0.57525
 C2084 C 0.79784 0.18609 0.57483
 C2085 C 0.80623 0.18004 0.58835
 C2086 C 0.81044 0.18966 0.60199
 C2087 C 0.80639 0.20572 0.60175
 O2088 O 0.79259 0.22598 0.58622
 C2089 C 0.78495 0.22535 0.57182
 C2090 C 0.78542 0.21081 0.56464
 C2091 C 0.77787 0.20734 0.54981
 C2092 C 0.76947 0.21937 0.54198
 C2093 C 0.76881 0.23459 0.54897
 C2094 C 0.77671 0.23757 0.56419
 H2095 H 0.79446 0.17872 0.56453
 H2096 H 0.80937 0.16780 0.58813
 H2097 H 0.80925 0.21336 0.61200
 H2098 H 0.77823 0.19573 0.54454
 H2099 H 0.76320 0.21670 0.53061
 H2100 H 0.77647 0.24900 0.56989
 C2101 C 0.68895 0.71079 0.40876
 C2102 C 0.69051 0.70266 0.42327
 C2103 C 0.68588 0.68720 0.42490
 C2104 C 0.67945 0.67974 0.41095
 C2105 C 0.67776 0.68781 0.39576
 C2106 C 0.68244 0.70365 0.39476
 O2107 O 0.69486 0.72515 0.40964
 C2108 C 0.70028 0.72607 0.42505
 C2109 C 0.69784 0.71263 0.43389
 C2110 C 0.70317 0.71073 0.45000
 C2111 C 0.71150 0.72314 0.45728
 C2112 C 0.71434 0.73718 0.44846
 C2113 C 0.70847 0.73865 0.43209
 H2114 H 0.68737 0.68101 0.43643
 H2115 H 0.67584 0.66768 0.41201
 H2116 H 0.68157 0.71007 0.38331
 H2117 H 0.70134 0.69993 0.45660
 H2118 H 0.71626 0.72151 0.46960
 H2119 H 0.71048 0.74910 0.42495
 C2120 C 0.70414 0.20312 -0.08762
 C2121 C 0.69354 0.20770 -0.07555
 C2122 C 0.67740 0.20398 -0.07599
 C2123 C 0.67189 0.19526 -0.08950
 C2124 C 0.68250 0.19040 -0.10223
 C2125 C 0.69894 0.19427 -0.10115
 O2126 O 0.71889 0.20834 -0.08499
 C2127 C 0.71751 0.21637 -0.07097
 C2128 C 0.70224 0.21628 -0.06471
 C2129 C 0.69796 0.22418 -0.05036
 C2130 C 0.70991 0.23257 -0.04210
 C2131 C 0.72582 0.23295 -0.04824
 C2132 C 0.72963 0.22467 -0.06293
 H2133 H 0.66931 0.20777 -0.06635
 H2134 H 0.65934 0.19226 -0.08995
 H2135 H 0.70730 0.19087 -0.11071
 H2136 H 0.68580 0.22403 -0.04579
 H2137 H 0.70667 0.23906 -0.03110
 H2138 H 0.74163 0.22469 -0.06794
 C2139 C 0.20027 0.70503 -0.09686
 C2140 C 0.18951 0.71267 -0.08685
 C2141 C 0.17308 0.71101 -0.08857
 C2142 C 0.16750 0.70119 -0.10121
 C2143 C 0.17831 0.69322 -0.11185
 C2144 C 0.19499 0.69512 -0.10948
 O2145 O 0.21538 0.70832 -0.09320
 C2146 C 0.21409 0.71824 -0.08062
 C2147 C 0.19852 0.72128 -0.07625
 C2148 C 0.19444 0.73135 -0.06340
 C2149 C 0.20694 0.73852 -0.05464
 C2150 C 0.22315 0.73554 -0.05884
 C2151 C 0.22670 0.72527 -0.07211
 H2152 H 0.16484 0.71710 -0.08050
 H2153 H 0.15472 0.69977 -0.10258
 H2154 H 0.20359 0.68933 -0.11740
 H2155 H 0.18208 0.73359 -0.06023
 H2156 H 0.20399 0.74647 -0.04468
 H2157 H 0.23892 0.72260 -0.07552
 C2158 C 0.20874 0.19760 0.41712
 C2159 C 0.19885 0.19920 0.43058
 C2160 C 0.18375 0.19252 0.43135
 C2161 C 0.17853 0.18398 0.41759
 C2162 C 0.18838 0.18223 0.40342
 C2163 C 0.20384 0.18898 0.40331
 O2164 O 0.22236 0.20544 0.41871
 C2165 C 0.22098 0.21214 0.43349
 C2166 C 0.20682 0.20863 0.44124
 C2167 C 0.20258 0.21477 0.45652
 C2168 C 0.21337 0.22497 0.46417
 C2169 C 0.22814 0.22885 0.45654
 C2170 C 0.23196 0.22226 0.44091
 H2171 H 0.17616 0.19404 0.44207
 H2172 H 0.16675 0.17879 0.41798
 H2173 H 0.21154 0.18807 0.39260
 H2174 H 0.19125 0.21200 0.46224
 H2175 H 0.21000 0.23016 0.47588
 H2176 H 0.24307 0.22497 0.43471
 C2177 C 0.30048 0.41684 0.70302
 C2178 C 0.31126 0.42864 0.70591
 C2179 C 0.32723 0.42766 0.70129
 C2180 C 0.33235 0.41391 0.69347
 C2181 C 0.32148 0.40158 0.69024
 C2182 C 0.30524 0.40317 0.69490
 O2183 O 0.28614 0.41970 0.70940
 C2184 C 0.28791 0.43362 0.71645
 C2185 C 0.30302 0.43964 0.71455
 C2186 C 0.30767 0.45380 0.72143
 C2187 C 0.29635 0.46201 0.73086
 C2188 C 0.28076 0.45592 0.73337
 C2189 C 0.27647 0.44156 0.72585
 H2190 H 0.33554 0.43701 0.70393
 H2191 H 0.34479 0.41285 0.68996
 H2192 H 0.29677 0.39382 0.69289
 H2193 H 0.31969 0.45821 0.71991
 H2194 H 0.29993 0.47282 0.73673
 H2195 H 0.26472 0.43656 0.72757
 C2196 C 0.30708 0.91313 0.21024
 C2197 C 0.30595 0.92617 0.20047
 C2198 C 0.31050 0.92625 0.18395
 C2199 C 0.31633 0.91229 0.17717
 C2200 C 0.31762 0.89865 0.18696
 C2201 C 0.31312 0.89918 0.20381
 O2202 O 0.30099 0.91521 0.22524
 C2203 C 0.29590 0.92989 0.22493
 C2204 C 0.29875 0.93712 0.21009
 C2205 C 0.29362 0.95218 0.20672
 C2206 C 0.28492 0.96001 0.21902
 C2207 C 0.28145 0.95273 0.23437
 C2208 C 0.28734 0.93750 0.23740
 H2209 H 0.30926 0.93660 0.17645
 H2210 H 0.31977 0.91208 0.16427
 H2211 H 0.31361 0.88888 0.21149
 H2212 H 0.29577 0.95753 0.19484
 H2213 H 0.28023 0.97147 0.21623
 H2214 H 0.28486 0.93153 0.24887
 C2215 C 0.80155 0.41591 0.20574
 C2216 C 0.81179 0.42395 0.21599
 C2217 C 0.82801 0.42052 0.21703
 C2218 C 0.83388 0.40826 0.20719
 C2219 C 0.82355 0.39984 0.19646
 C2220 C 0.80716 0.40385 0.19570
 O2221 O 0.78648 0.42058 0.20701
 C2222 C 0.78721 0.43182 0.21829
 C2223 C 0.80242 0.43442 0.22414
 C2224 C 0.80578 0.44556 0.23620
 C2225 C 0.79292 0.45429 0.24255
 C2226 C 0.77709 0.45162 0.23687
 C2227 C 0.77429 0.44026 0.22448
 H2228 H 0.83584 0.42693 0.22527
 H2229 H 0.84646 0.40540 0.20788
 H2230 H 0.79890 0.39750 0.18788
 H2231 H 0.81783 0.44738 0.24068
 H2232 H 0.79521 0.46285 0.25213
 H2233 H 0.76236 0.43803 0.21982
 C2234 C 0.80794 0.91959 0.70865
 C2235 C 0.80580 0.93253 0.69890
 C2236 C 0.81022 0.93297 0.68237
 C2237 C 0.81691 0.91943 0.67550
 C2238 C 0.81909 0.90583 0.68518
 C2239 C 0.81479 0.90603 0.70211
 O2240 O 0.80197 0.92134 0.72376
 C2241 C 0.79592 0.93567 0.72351
 C2242 C 0.79801 0.94300 0.70859
 C2243 C 0.79188 0.95770 0.70524
 C2244 C 0.78310 0.96513 0.71774
 C2245 C 0.78060 0.95786 0.73328
 C2246 C 0.78730 0.94291 0.73619
 H2247 H 0.80824 0.94324 0.67491
 H2248 H 0.82022 0.91951 0.66257
 H2249 H 0.81600 0.89575 0.70971
 H2250 H 0.79344 0.96309 0.69328
 H2251 H 0.77777 0.97634 0.71503
 H2252 H 0.78563 0.93696 0.74783
 C2253 C 0.71072 0.58248 0.70579
 C2254 C 0.71732 0.57153 0.69537
 C2255 C 0.71525 0.57189 0.67833
 C2256 C 0.70609 0.58410 0.67175
 C2257 C 0.69914 0.59557 0.68222
 C2258 C 0.70143 0.59463 0.69953
 O2259 O 0.71437 0.58018 0.72156
 C2260 C 0.72345 0.56748 0.72109
 C2261 C 0.72558 0.56170 0.70536
 C2262 C 0.73467 0.54848 0.70203
 C2263 C 0.74179 0.54086 0.71548
 C2264 C 0.73979 0.54658 0.73184
 C2265 C 0.73053 0.56016 0.73462
 H2266 H 0.72058 0.56314 0.67038
 H2267 H 0.70437 0.58455 0.65850
 H2268 H 0.69647 0.60327 0.70786
 H2269 H 0.73621 0.54418 0.68954
 H2270 H 0.74901 0.53059 0.71313
 H2271 H 0.72870 0.56474 0.74697
 C2272 C 0.70764 0.08392 0.20105
 C2273 C 0.71489 0.07461 0.18936
 C2274 C 0.71360 0.07743 0.17248
 C2275 C 0.70452 0.09038 0.16749
 C2276 C 0.69674 0.09999 0.17933
 C2277 C 0.69825 0.09660 0.19635
 O2278 O 0.71101 0.07975 0.21644
 C2279 C 0.72054 0.06751 0.21444
 C2280 C 0.72318 0.06377 0.19811
 C2281 C 0.73289 0.05138 0.19327
 C2282 C 0.74026 0.04258 0.20576
 C2283 C 0.73802 0.04648 0.22265
 C2284 C 0.72795 0.05909 0.22701
 H2285 H 0.71957 0.07008 0.16350
 H2286 H 0.70346 0.09289 0.15443
 H2287 H 0.69270 0.10391 0.20566
 H2288 H 0.73482 0.04866 0.18035
 H2289 H 0.74805 0.03301 0.20230
 H2290 H 0.72606 0.06230 0.23982
 C2291 C 0.20778 0.58268 0.20057
 C2292 C 0.21425 0.57202 0.18972
 C2293 C 0.21320 0.57371 0.17265
 C2294 C 0.20513 0.58689 0.16657
 C2295 C 0.19816 0.59789 0.17757
 C2296 C 0.19952 0.59566 0.19482
 O2297 O 0.21061 0.57934 0.21628
 C2298 C 0.21901 0.56625 0.21537
 C2299 C 0.22149 0.56118 0.19942
 C2300 C 0.23013 0.54773 0.19574
 C2301 C 0.23659 0.53929 0.20903
 C2302 C 0.23448 0.54455 0.22554
 C2303 C 0.22545 0.55817 0.22870
 H2304 H 0.21851 0.56527 0.16432
 H2305 H 0.20416 0.58844 0.15333
 H2306 H 0.19460 0.60397 0.20355
 H2307 H 0.23196 0.54395 0.18310
 H2308 H 0.24362 0.52895 0.20647
 H2309 H 0.22365 0.56244 0.24118
 C2310 C 0.21257 0.08028 0.69993
 C2311 C 0.22193 0.07243 0.68865
 C2312 C 0.22172 0.07582 0.67185
 C2313 C 0.21152 0.08784 0.66652
 C2314 C 0.20166 0.09596 0.67794
 C2315 C 0.20213 0.09198 0.69486
 O2316 O 0.21505 0.07583 0.71540
 C2317 C 0.22618 0.06490 0.71387
 C2318 C 0.23074 0.06225 0.69777
 C2319 C 0.24232 0.05128 0.69347
 C2320 C 0.24951 0.04277 0.70632
 C2321 C 0.24520 0.04560 0.72301
 C2322 C 0.23332 0.05678 0.72679
 H2323 H 0.22930 0.06962 0.66320
 H2324 H 0.21128 0.09080 0.65352
 H2325 H 0.19500 0.09818 0.70392
 H2326 H 0.24573 0.04937 0.68073
 H2327 H 0.25862 0.03423 0.70335
 H2328 H 0.22976 0.05909 0.73943
 C2329 C 0.29407 0.58448 0.30188
 C2330 C 0.30477 0.57307 0.29728
 C2331 C 0.32111 0.57423 0.30021
 C2332 C 0.32666 0.58772 0.30820
 C2333 C 0.31582 0.59951 0.31332
 C2334 C 0.29928 0.59779 0.31025
 O2335 O 0.27920 0.58152 0.29704
 C2336 C 0.28053 0.56791 0.28929
 C2337 C 0.29591 0.56218 0.28926
 C2338 C 0.30007 0.54819 0.28168
 C2339 C 0.28792 0.53983 0.27368
 C2340 C 0.27205 0.54568 0.27316
 C2341 C 0.26830 0.55991 0.28115
 H2342 H 0.32932 0.56520 0.29624
 H2343 H 0.33935 0.58897 0.31049
 H2344 H 0.29082 0.60677 0.31378
 H2345 H 0.31227 0.54395 0.28178
 H2346 H 0.29094 0.52903 0.26743
 H2347 H 0.25630 0.56466 0.28084
 C2348 C 0.30486 0.08417 0.79892
 C2349 C 0.29887 0.07377 0.81023
 C2350 C 0.30127 0.07539 0.82713
 C2351 C 0.30997 0.08838 0.83263
 C2352 C 0.31602 0.09950 0.82125
 C2353 C 0.31359 0.09716 0.80410
 O2354 O 0.30090 0.08069 0.78346
 C2355 C 0.29218 0.06787 0.78507
 C2356 C 0.29056 0.06315 0.80119
 C2357 C 0.28149 0.05027 0.80569
 C2358 C 0.27381 0.04189 0.79304
 C2359 C 0.27536 0.04646 0.77626
 C2360 C 0.28476 0.05967 0.77231
 H2361 H 0.29644 0.06706 0.83580
 H2362 H 0.31184 0.08978 0.84577
 H2363 H 0.31784 0.10543 0.79506
 H2364 H 0.28023 0.04690 0.81850
 H2365 H 0.26646 0.03202 0.79638
 H2366 H 0.28633 0.06344 0.75966
 C2367 C 0.79528 0.58798 0.80867
 C2368 C 0.80583 0.57579 0.80681
 C2369 C 0.82188 0.57687 0.81115
 C2370 C 0.82730 0.59113 0.81759
 C2371 C 0.81663 0.60385 0.81977
 C2372 C 0.80033 0.60216 0.81543
 O2373 O 0.78084 0.58490 0.80266
 C2374 C 0.78231 0.57045 0.79690
 C2375 C 0.79733 0.56430 0.79927
 C2376 C 0.80168 0.54956 0.79364
 C2377 C 0.79016 0.54090 0.78497
 C2378 C 0.77470 0.54712 0.78194
 C2379 C 0.77070 0.56206 0.78823
 H2380 H 0.83002 0.56720 0.80930
 H2381 H 0.83979 0.59229 0.82087
 H2382 H 0.79202 0.61178 0.81663
 H2383 H 0.81363 0.54505 0.79549
 H2384 H 0.79353 0.52963 0.77999
 H2385 H 0.75906 0.56718 0.78602
 C2386 C 0.79856 0.08462 0.29849
 C2387 C 0.80972 0.07408 0.29286
 C2388 C 0.82606 0.07600 0.29536
 C2389 C 0.83108 0.08932 0.30407
 C2390 C 0.81975 0.10017 0.31027
 C2391 C 0.80326 0.09771 0.30749
 O2392 O 0.78372 0.08109 0.29407
 C2393 C 0.78552 0.06798 0.28553
 C2394 C 0.80117 0.06309 0.28456
 C2395 C 0.80576 0.04969 0.27608
 C2396 C 0.79374 0.04110 0.26809
 C2397 C 0.77759 0.04617 0.26850
 C2398 C 0.77343 0.05975 0.27746
 H2399 H 0.83464 0.06766 0.29062
 H2400 H 0.84374 0.09112 0.30613
 H2401 H 0.79438 0.10597 0.31183
 H2402 H 0.81815 0.04608 0.27546
 H2403 H 0.79706 0.03080 0.26110
 H2404 H 0.76119 0.06389 0.27788
 C2405 C 0.69799 0.41498 0.29066
 C2406 C 0.68768 0.42365 0.28113
 C2407 C 0.67131 0.42070 0.28058
 C2408 C 0.66541 0.40839 0.29027
 C2409 C 0.67585 0.39952 0.30039
 C2410 C 0.69238 0.40293 0.30050
 O2411 O 0.71312 0.41930 0.28925
 C2412 C 0.71240 0.43100 0.27865
 C2413 C 0.69713 0.43427 0.27334
 C2414 C 0.69381 0.44627 0.26229
 C2415 C 0.70678 0.45513 0.25644
 C2416 C 0.72262 0.45168 0.26153
 C2417 C 0.72538 0.43948 0.27287
 H2418 H 0.66339 0.42759 0.27294
 H2419 H 0.65272 0.40594 0.29010
 H2420 H 0.70073 0.39625 0.30786
 H2421 H 0.68171 0.44870 0.25831
 H2422 H 0.70455 0.46445 0.24775
 H2423 H 0.73733 0.43671 0.27711
 C2424 C 0.70618 0.91638 0.79374
 C2425 C 0.70853 0.92794 0.80531
 C2426 C 0.70259 0.92711 0.82130
 C2427 C 0.69405 0.91371 0.82566
 C2428 C 0.69158 0.90147 0.81408
 C2429 C 0.69755 0.90297 0.79777
 O2430 O 0.71339 0.91930 0.77944
 C2431 C 0.72046 0.93296 0.78211
 C2432 C 0.71780 0.93871 0.79775
 C2433 C 0.72443 0.95255 0.80344
 C2434 C 0.73422 0.96087 0.79256
 C2435 C 0.73718 0.95531 0.77626
 C2436 C 0.73014 0.94109 0.77101
 H2437 H 0.70468 0.93635 0.83020
 H2438 H 0.68945 0.91288 0.83812
 H2439 H 0.69607 0.89375 0.78873
 H2440 H 0.72233 0.95671 0.81590
 H2441 H 0.73976 0.97150 0.79698
 H2442 H 0.73211 0.93650 0.75870
 C2443 C 0.21128 0.41701 0.80133
 C2444 C 0.21657 0.42732 0.81317
 C2445 C 0.21228 0.42618 0.82971
 C2446 C 0.20222 0.41384 0.83424
 C2447 C 0.19665 0.40295 0.82228
 C2448 C 0.20123 0.40469 0.80554
 O2449 O 0.21683 0.42010 0.78634
 C2450 C 0.22582 0.43264 0.78878
 C2451 C 0.22606 0.43754 0.80498
 C2452 C 0.23472 0.45045 0.81027
 C2453 C 0.24341 0.45871 0.79834
 C2454 C 0.24329 0.45396 0.78150
 C2455 C 0.23440 0.44064 0.77673
 H2456 H 0.21656 0.43447 0.83881
 H2457 H 0.19876 0.41286 0.84707
 H2458 H 0.19737 0.39658 0.79608
 H2459 H 0.23478 0.45404 0.82310
 H2460 H 0.25032 0.46874 0.80223
 H2461 H 0.23393 0.43680 0.76398
 C2462 C 0.21026 0.91036 0.29657
 C2463 C 0.19942 0.92046 0.28958
 C2464 C 0.18303 0.91785 0.28986
 C2465 C 0.17760 0.90422 0.29754
 C2466 C 0.18853 0.89362 0.30487
 C2467 C 0.20510 0.89686 0.30453
 O2468 O 0.22534 0.91463 0.29427
 C2469 C 0.22398 0.92771 0.28567
 C2470 C 0.20837 0.93184 0.28256
 C2471 C 0.20423 0.94496 0.27347
 C2472 C 0.21670 0.95416 0.26723
 C2473 C 0.23290 0.95002 0.27006
 C2474 C 0.23654 0.93662 0.27950
 H2475 H 0.17474 0.92590 0.28415
 H2476 H 0.16487 0.90195 0.29780
 H2477 H 0.21374 0.88888 0.30978
 H2478 H 0.19186 0.94791 0.27109
 H2479 H 0.21374 0.96426 0.25985
 H2480 H 0.24879 0.93318 0.28185
 C2481 C 0.42538 0.29731 0.69816
 C2482 C 0.43577 0.29113 0.68670
 C2483 C 0.43519 0.29500 0.67005
 C2484 C 0.42328 0.30548 0.66498
 C2485 C 0.41225 0.31188 0.67652
 C2486 C 0.41351 0.30783 0.69341
 O2487 O 0.42774 0.29188 0.71330
 C2488 C 0.43986 0.28205 0.71134
 C2489 C 0.44524 0.28116 0.69531
 C2490 C 0.45772 0.27141 0.69051
 C2491 C 0.46500 0.26227 0.70276
 C2492 C 0.45969 0.26300 0.71942
 C2493 C 0.44690 0.27308 0.72368
 H2494 H 0.44350 0.28999 0.66125
 H2495 H 0.42266 0.30853 0.65203
 H2496 H 0.40522 0.31230 0.70253
 H2497 H 0.46168 0.27083 0.67779
 H2498 H 0.47465 0.25451 0.69925
 H2499 H 0.44267 0.27407 0.73629
 C2500 C 0.41035 0.78776 0.20392
 C2501 C 0.41930 0.78003 0.19220
 C2502 C 0.41548 0.78015 0.17548
 C2503 C 0.40185 0.78853 0.17065
 C2504 C 0.39250 0.79671 0.18248
 C2505 C 0.39692 0.79641 0.19935
 O2506 O 0.41568 0.78568 0.21920
 C2507 C 0.42830 0.77648 0.21708
 C2508 C 0.43110 0.77278 0.20078
 C2509 C 0.44368 0.76325 0.19578
 C2510 C 0.45376 0.75726 0.20810
 C2511 C 0.45096 0.76072 0.22501
 C2512 C 0.43804 0.77050 0.22953
 H2513 H 0.42264 0.77389 0.16650
 H2514 H 0.39865 0.78873 0.15768
 H2515 H 0.38990 0.80235 0.20867
 H2516 H 0.44563 0.76048 0.18287
 H2517 H 0.46354 0.74968 0.20452
 H2518 H 0.43567 0.77336 0.24234
 C2519 C 0.91991 0.28330 0.19450
 C2520 C 0.93391 0.29171 0.19427
 C2521 C 0.93488 0.30675 0.18804
 C2522 C 0.92078 0.31350 0.18199
 C2523 C 0.90619 0.30512 0.18213
 C2524 C 0.90581 0.28968 0.18818
 O2525 O 0.92127 0.26982 0.20241
 C2526 C 0.93644 0.26976 0.20731
 C2527 C 0.94469 0.28284 0.20252
 C2528 C 0.96034 0.28577 0.20730
 C2529 C 0.96775 0.27491 0.21768
 C2530 C 0.95946 0.26141 0.22315
 C2531 C 0.94362 0.25872 0.21757
 H2532 H 0.94596 0.31324 0.18832
 H2533 H 0.92118 0.32535 0.17743
 H2534 H 0.89472 0.28322 0.18885
 H2535 H 0.96645 0.29632 0.20365
 H2536 H 0.97968 0.27746 0.22210
 H2537 H 0.93687 0.24866 0.22158
 C2538 C 0.91178 0.79324 0.69718
 C2539 C 0.91995 0.78497 0.68526
 C2540 C 0.91572 0.78529 0.66865
 C2541 C 0.90248 0.79442 0.66416
 C2542 C 0.89391 0.80313 0.67622
 C2543 C 0.89877 0.80261 0.69295
 O2544 O 0.91732 0.79085 0.71233
 C2545 C 0.92925 0.78089 0.70992
 C2546 C 0.93145 0.77699 0.69358
 C2547 C 0.94322 0.76660 0.68835
 C2548 C 0.95307 0.75992 0.70048
 C2549 C 0.95085 0.76357 0.71744
 C2550 C 0.93878 0.77427 0.72217
 H2551 H 0.92224 0.77859 0.65951
 H2552 H 0.89896 0.79476 0.65130
 H2553 H 0.89233 0.80892 0.70246
 H2554 H 0.94470 0.76368 0.67541
 H2555 H 0.96219 0.75167 0.69673
 H2556 H 0.93687 0.77733 0.73501
 C2557 C 0.57756 0.29277 0.30014
 C2558 C 0.56753 0.28675 0.31197
 C2559 C 0.56963 0.28958 0.32877
 C2560 C 0.58262 0.29892 0.33356
 C2561 C 0.59304 0.30538 0.32157
 C2562 C 0.59035 0.30234 0.30460
 O2563 O 0.57391 0.28813 0.28493
 C2564 C 0.56129 0.27903 0.28720
 C2565 C 0.55682 0.27788 0.30351
 C2566 C 0.54397 0.26882 0.30865
 C2567 C 0.53545 0.26055 0.29649
 C2568 C 0.54002 0.26133 0.27963
 C2569 C 0.55311 0.27077 0.27496
 H2570 H 0.56168 0.28459 0.33788
 H2571 H 0.58451 0.30118 0.34658
 H2572 H 0.59825 0.30688 0.29519
 H2573 H 0.54071 0.26806 0.32156
 H2574 H 0.52556 0.25324 0.30024
 H2575 H 0.55685 0.27159 0.26218
 C2576 C 0.58826 0.79873 0.78332
 C2577 C 0.57740 0.79337 0.79473
 C2578 C 0.57969 0.79491 0.81168
 C2579 C 0.59382 0.80211 0.81707
 C2580 C 0.60516 0.80780 0.80554
 C2581 C 0.60220 0.80631 0.78841
 O2582 O 0.58438 0.79508 0.76787
 C2583 C 0.57078 0.78728 0.76959
 C2584 C 0.56592 0.78602 0.78576
 C2585 C 0.55229 0.77784 0.79038
 C2586 C 0.54340 0.77053 0.77784
 C2587 C 0.54839 0.77135 0.76111
 C2588 C 0.56221 0.77999 0.75695
 H2589 H 0.57112 0.79036 0.82043
 H2590 H 0.59600 0.80318 0.83022
 H2591 H 0.61084 0.81023 0.77938
 H2592 H 0.54878 0.77689 0.80321
 H2593 H 0.53297 0.76379 0.78120
 H2594 H 0.56634 0.78073 0.74430
 C2595 C 0.08921 0.29444 0.79111
 C2596 C 0.08026 0.30478 0.78200
 C2597 C 0.08346 0.32067 0.78171
 C2598 C 0.09644 0.32610 0.79113
 C2599 C 0.10587 0.31567 0.80066
 C2600 C 0.10206 0.29960 0.80068
 O2601 O 0.08446 0.27978 0.78942
 C2602 C 0.07224 0.28088 0.77902
 C2603 C 0.06911 0.29590 0.77414
 C2604 C 0.05684 0.29960 0.76318
 C2605 C 0.04748 0.28728 0.75698
 C2606 C 0.05061 0.27166 0.76173
 C2607 C 0.06316 0.26850 0.77298
 H2608 H 0.07629 0.32859 0.77442
 H2609 H 0.09905 0.33845 0.79105
 H2610 H 0.10908 0.29128 0.80761
 H2611 H 0.05462 0.31151 0.75946
 H2612 H 0.03800 0.28987 0.74829
 H2613 H 0.06576 0.25674 0.77697
 C2614 C 0.08238 0.79433 0.28973
 C2615 C 0.06928 0.79268 0.29983
 C2616 C 0.06878 0.79844 0.31590
 C2617 C 0.08239 0.80619 0.32185
 C2618 C 0.09605 0.80812 0.31167
 C2619 C 0.09595 0.80221 0.29531
 O2620 O 0.08066 0.78733 0.27517
 C2621 C 0.06615 0.78113 0.27610
 C2622 C 0.05867 0.78416 0.29090
 C2623 C 0.04360 0.77847 0.29473
 C2624 C 0.03595 0.76916 0.28286
 C2625 C 0.04344 0.76566 0.26752
 C2626 C 0.05878 0.77185 0.26410
 H2627 H 0.05838 0.79685 0.32365
 H2628 H 0.08225 0.81071 0.33435
 H2629 H 0.10629 0.80326 0.28735
 H2630 H 0.03803 0.78088 0.30654
 H2631 H 0.02438 0.76428 0.28586
 H2632 H 0.06484 0.76936 0.25257
 C2633 C 0.59099 0.70690 0.69396
 C2634 C 0.57851 0.69705 0.69751
 C2635 C 0.57950 0.68097 0.69544
 C2636 C 0.59394 0.67481 0.68944
 C2637 C 0.60691 0.68475 0.68548
 C2638 C 0.60533 0.70105 0.68770
 O2639 O 0.58791 0.72169 0.69766
 C2640 C 0.57315 0.72118 0.70364
 C2641 C 0.56681 0.70639 0.70368
 C2642 C 0.55167 0.70312 0.70981
 C2643 C 0.54281 0.71556 0.71641
 C2644 C 0.54923 0.73088 0.71692
 C2645 C 0.56458 0.73371 0.71023
 H2646 H 0.56958 0.67343 0.69853
 H2647 H 0.59495 0.66232 0.68775
 H2648 H 0.61512 0.70891 0.68507
 H2649 H 0.54698 0.69137 0.70984
 H2650 H 0.53121 0.71313 0.72176
 H2651 H 0.56985 0.74523 0.71053
 C2652 C 0.58158 0.20065 0.20636
 C2653 C 0.57158 0.18961 0.21303
 C2654 C 0.57453 0.17369 0.21175
 C2655 C 0.58833 0.16895 0.20321
 C2656 C 0.59860 0.18010 0.19590
 C2657 C 0.59511 0.19617 0.19743
 O2658 O 0.57710 0.21517 0.20975
 C2659 C 0.56393 0.21327 0.21867
 C2660 C 0.55994 0.19785 0.22087
 C2661 C 0.54664 0.19321 0.22989
 C2662 C 0.53720 0.20492 0.23713
 C2663 C 0.54135 0.22086 0.23549
 C2664 C 0.55487 0.22509 0.22602
 H2665 H 0.56662 0.16523 0.21731
 H2666 H 0.59091 0.15662 0.20208
 H2667 H 0.60290 0.20492 0.19218
 H2668 H 0.54375 0.18101 0.23147
 H2669 H 0.52698 0.20157 0.24452
 H2670 H 0.55834 0.23717 0.22467
 C2671 C 0.08406 0.69771 0.20051
 C2672 C 0.07526 0.68681 0.20899
 C2673 C 0.07891 0.67098 0.20866
 C2674 C 0.09219 0.66624 0.19926
 C2675 C 0.10130 0.67727 0.19026
 C2676 C 0.09706 0.69321 0.19082
 O2677 O 0.07914 0.71221 0.20307
 C2678 C 0.06692 0.71045 0.21334
 C2679 C 0.06394 0.69514 0.21726
 C2680 C 0.05170 0.69074 0.22792
 C2681 C 0.04225 0.70263 0.23489
 C2682 C 0.04539 0.71850 0.23129
 C2683 C 0.05787 0.72242 0.22030
 H2684 H 0.07195 0.66263 0.21558
 H2685 H 0.09533 0.65399 0.19893
 H2686 H 0.10397 0.70193 0.18435
 H2687 H 0.04957 0.67862 0.23085
 H2688 H 0.03276 0.69955 0.24336
 H2689 H 0.06048 0.73445 0.21735
 C2690 C 0.08441 0.19419 0.70576
 C2691 C 0.07654 0.18440 0.71644
 C2692 C 0.08037 0.16866 0.71783
 C2693 C 0.09280 0.16284 0.70783
 C2694 C 0.10092 0.17274 0.69660
 C2695 C 0.09655 0.18862 0.69556
 O2696 O 0.07952 0.20886 0.70672
 C2697 C 0.06826 0.20836 0.71821
 C2698 C 0.06583 0.19368 0.72452
 C2699 C 0.05459 0.19071 0.73681
 C2700 C 0.04565 0.20341 0.74292
 C2701 C 0.04833 0.21866 0.73683
 C2702 C 0.05971 0.22108 0.72420
 H2703 H 0.07414 0.16118 0.72643
 H2704 H 0.09601 0.15065 0.70875
 H2705 H 0.10270 0.19656 0.68738
 H2706 H 0.05285 0.17908 0.74162
 H2707 H 0.03699 0.20147 0.75263
 H2708 H 0.06192 0.23260 0.71929
 C2709 C 0.41865 0.70996 0.30858
 C2710 C 0.43154 0.70011 0.30684
 C2711 C 0.43151 0.68486 0.31259
 C2712 C 0.41753 0.67946 0.32021
 C2713 C 0.40403 0.68933 0.32204
 C2714 C 0.40473 0.70492 0.31645
 O2715 O 0.42062 0.72350 0.30095
 C2716 C 0.43504 0.72214 0.29423
 C2717 C 0.44226 0.70808 0.29755
 C2718 C 0.45690 0.70377 0.29083
 C2719 C 0.46433 0.71429 0.28007
 C2720 C 0.45704 0.72879 0.27616
 C2721 C 0.44226 0.73281 0.28361
 H2722 H 0.44169 0.67724 0.31079
 H2723 H 0.41710 0.66749 0.32439
 H2724 H 0.39444 0.71255 0.31725
 H2725 H 0.46218 0.69251 0.29337
 H2726 H 0.47542 0.71079 0.27423
 H2727 H 0.43630 0.74370 0.28085
 C2728 C 0.41591 0.20523 0.79351
 C2729 C 0.42523 0.21302 0.80486
 C2730 C 0.42158 0.21359 0.82160
 C2731 C 0.40770 0.20589 0.82685
 C2732 C 0.39798 0.19764 0.81541
 C2733 C 0.40226 0.19718 0.79851
 O2734 O 0.42102 0.20684 0.77808
 C2735 C 0.43386 0.21580 0.77974
 C2736 C 0.43704 0.21980 0.79589
 C2737 C 0.44979 0.22931 0.80040
 C2738 C 0.45960 0.23503 0.78773
 C2739 C 0.45634 0.23136 0.77095
 C2740 C 0.44332 0.22152 0.76695
 H2741 H 0.42898 0.21997 0.83027
 H2742 H 0.40455 0.20630 0.83982
 H2743 H 0.39490 0.19120 0.78949
 H2744 H 0.45201 0.23234 0.81319
 H2745 H 0.46944 0.24266 0.79091
 H2746 H 0.44057 0.21855 0.75424
 C2747 C 0.91952 0.70575 0.79776
 C2748 C 0.93056 0.71275 0.80797
 C2749 C 0.93019 0.71120 0.82506
 C2750 C 0.91788 0.70217 0.83190
 C2751 C 0.90632 0.69483 0.82163
 C2752 C 0.90729 0.69660 0.80427
 O2753 O 0.92174 0.70896 0.78190
 C2754 C 0.93446 0.71818 0.78209
 C2755 C 0.94037 0.72084 0.79771
 C2756 C 0.95360 0.73025 0.80069
 C2757 C 0.96103 0.73720 0.78701
 C2758 C 0.95508 0.73471 0.77077
 C2759 C 0.94159 0.72502 0.76836
 H2760 H 0.93897 0.71685 0.83286
 H2761 H 0.91742 0.70087 0.84519
 H2762 H 0.89858 0.69138 0.79607
 H2763 H 0.95801 0.73223 0.81310
 H2764 H 0.97125 0.74470 0.78907
 H2765 H 0.93685 0.72277 0.75612
 C2766 C 0.91686 0.20565 0.30099
 C2767 C 0.92611 0.21406 0.31189
 C2768 C 0.92326 0.21425 0.32883
 C2769 C 0.91033 0.20544 0.33474
 C2770 C 0.90072 0.19654 0.32373
 C2771 C 0.90414 0.19664 0.30662
 O2772 O 0.92130 0.20730 0.28536
 C2773 C 0.93368 0.21690 0.28640
 C2774 C 0.93721 0.22132 0.30235
 C2775 C 0.94986 0.23123 0.30620
 C2776 C 0.95923 0.23678 0.29306
 C2777 C 0.95564 0.23252 0.27651
 C2778 C 0.94265 0.22246 0.27319
 H2779 H 0.93065 0.22100 0.33717
 H2780 H 0.90789 0.20544 0.34787
 H2781 H 0.89690 0.19016 0.29788
 H2782 H 0.95245 0.23454 0.31884
 H2783 H 0.96910 0.24456 0.29572
 H2784 H 0.93975 0.21894 0.26067
 C2785 C 0.29883 0.30102 0.57976
 C2786 C 0.30910 0.29545 0.56785
 C2787 C 0.32515 0.29946 0.56729
 C2788 C 0.33096 0.30940 0.57969
 C2789 C 0.32078 0.31502 0.59249
 C2790 C 0.30437 0.31089 0.59230
 O2791 O 0.28400 0.29575 0.57797
 C2792 C 0.28499 0.28662 0.56470
 C2793 C 0.30011 0.28599 0.55810
 C2794 C 0.30393 0.27692 0.54439
 C2795 C 0.29160 0.26827 0.53703
 C2796 C 0.27574 0.26895 0.54330
 C2797 C 0.27250 0.27823 0.55747
 H2798 H 0.33296 0.29502 0.55770
 H2799 H 0.34345 0.31256 0.57927
 H2800 H 0.29623 0.31486 0.60181
 H2801 H 0.31599 0.27648 0.53957
 H2802 H 0.29447 0.26100 0.52647
 H2803 H 0.26057 0.27919 0.56254
 C2804 C 0.29131 0.79504 0.07371
 C2805 C 0.28724 0.80582 0.06191
 C2806 C 0.29113 0.82154 0.06337
 C2807 C 0.29953 0.82629 0.07759
 C2808 C 0.30388 0.81535 0.08995
 C2809 C 0.29968 0.79948 0.08785
 O2810 O 0.28628 0.78076 0.07019
 C2811 C 0.27887 0.78253 0.05583
 C2812 C 0.27912 0.79762 0.05017
 C2813 C 0.27188 0.80201 0.03541
 C2814 C 0.26401 0.79038 0.02620
 C2815 C 0.26349 0.77474 0.03188
 C2816 C 0.27114 0.77083 0.04691
 H2817 H 0.28778 0.82984 0.05395
 H2818 H 0.30270 0.83846 0.07887
 H2819 H 0.30255 0.79080 0.09704
 H2820 H 0.27214 0.81396 0.03121
 H2821 H 0.25804 0.79364 0.01485
 H2822 H 0.27108 0.75901 0.05156
 C2823 C 0.79659 0.29486 0.08316
 C2824 C 0.79448 0.30508 0.07029
 C2825 C 0.79927 0.32058 0.07107
 C2826 C 0.80655 0.32575 0.08572
 C2827 C 0.80901 0.31542 0.09915
 C2828 C 0.80402 0.29970 0.09776
 O2829 O 0.79047 0.28085 0.08019
 C2830 C 0.78439 0.28227 0.06511
 C2831 C 0.78662 0.29684 0.05847
 C2832 C 0.78084 0.30101 0.04300
 C2833 C 0.77219 0.28977 0.03409
 C2834 C 0.76939 0.27473 0.04078
 C2835 C 0.77578 0.27092 0.05648
 H2836 H 0.79732 0.32845 0.06085
 H2837 H 0.81039 0.33777 0.08652
 H2838 H 0.80551 0.29160 0.10787
 H2839 H 0.78264 0.31259 0.03811
 H2840 H 0.76715 0.29299 0.02226
 H2841 H 0.77383 0.25959 0.06196
 C2842 C 0.78741 0.80507 0.57254
 C2843 C 0.78009 0.81628 0.56308
 C2844 C 0.78260 0.83213 0.56563
 C2845 C 0.79298 0.83656 0.57851
 C2846 C 0.80057 0.82517 0.58856
 C2847 C 0.79773 0.80918 0.58533
 O2848 O 0.78330 0.79067 0.56839
 C2849 C 0.77311 0.79281 0.55606
 C2850 C 0.77069 0.80824 0.55226
 C2851 C 0.76023 0.81296 0.53985
 C2852 C 0.75192 0.80130 0.53109
 C2853 C 0.75418 0.78530 0.53491
 C2854 C 0.76508 0.78110 0.54752
 H2855 H 0.77671 0.84079 0.55807
 H2856 H 0.79498 0.84886 0.58061
 H2857 H 0.80309 0.80007 0.59268
 H2858 H 0.75843 0.82518 0.53710
 H2859 H 0.74355 0.80474 0.52157
 H2860 H 0.76732 0.76902 0.55062
 C2861 C 0.29342 0.71023 0.42145
 C2862 C 0.29022 0.69990 0.43398
 C2863 C 0.29421 0.68420 0.43310
 C2864 C 0.30171 0.67888 0.41866
 C2865 C 0.30517 0.68926 0.40552
 C2866 C 0.30112 0.70522 0.40705
 O2867 O 0.28791 0.72449 0.42449
 C2868 C 0.28111 0.72310 0.43925
 C2869 C 0.28229 0.70830 0.44561
 C2870 C 0.27562 0.70409 0.46066
 C2871 C 0.26727 0.71558 0.46949
 C2872 C 0.26566 0.73092 0.46316
 C2873 C 0.27281 0.73472 0.44782
 H2874 H 0.29143 0.67628 0.44308
 H2875 H 0.30485 0.66666 0.41776
 H2876 H 0.30340 0.71336 0.39714
 H2877 H 0.27658 0.69231 0.46530
 H2878 H 0.26162 0.71237 0.48102
 H2879 H 0.27177 0.74629 0.44263
 C2880 C 0.29440 0.21016 0.92261
 C2881 C 0.29067 0.20011 0.93521
 C2882 C 0.29547 0.18461 0.93535
 C2883 C 0.30441 0.17918 0.92187
 C2884 C 0.30837 0.18924 0.90858
 C2885 C 0.30334 0.20502 0.90908
 O2886 O 0.28851 0.22440 0.92485
 C2887 C 0.28091 0.22329 0.93920
 C2888 C 0.28191 0.20867 0.94603
 C2889 C 0.27478 0.20482 0.96094
 C2890 C 0.26633 0.21657 0.96925
 C2891 C 0.26516 0.23184 0.96259
 C2892 C 0.27250 0.23519 0.94725
 H2893 H 0.29239 0.17695 0.94546
 H2894 H 0.30826 0.16714 0.92187
 H2895 H 0.30599 0.21300 0.89914
 H2896 H 0.27565 0.19319 0.96599
 H2897 H 0.26053 0.21372 0.98081
 H2898 H 0.27187 0.24671 0.94187
 C2899 C 0.79333 0.70589 0.92552
 C2900 C 0.80322 0.70996 0.93842
 C2901 C 0.81939 0.70626 0.93872
 C2902 C 0.82567 0.69815 0.92511
 C2903 C 0.81579 0.69388 0.91154
 C2904 C 0.79931 0.69772 0.91189
 O2905 O 0.77840 0.71082 0.92754
 C2906 C 0.77889 0.71815 0.94202
 C2907 C 0.79379 0.71793 0.94919
 C2908 C 0.79705 0.72511 0.96426
 C2909 C 0.78442 0.73282 0.97227
 C2910 C 0.76889 0.73323 0.96516
 C2911 C 0.76616 0.72576 0.94976
 H2912 H 0.82693 0.70961 0.94901
 H2913 H 0.83825 0.69520 0.92522
 H2914 H 0.79145 0.69482 0.90171
 H2915 H 0.80891 0.72489 0.96959
 H2916 H 0.78682 0.73870 0.98387
 H2917 H 0.75446 0.72580 0.94402
 C2918 C 0.79036 0.20623 0.42289
 C2919 C 0.78121 0.19616 0.43209
 C2920 C 0.78127 0.18013 0.42943
 C2921 C 0.79110 0.17429 0.41676
 C2922 C 0.80072 0.18448 0.40720
 C2923 C 0.80036 0.20068 0.41043
 O2924 O 0.78832 0.22106 0.42705
 C2925 C 0.77769 0.22035 0.43917
 C2926 C 0.77299 0.20540 0.44283
 C2927 C 0.76196 0.20209 0.45522
 C2928 C 0.75554 0.21473 0.46415
 C2929 C 0.76008 0.23024 0.46039
 C2930 C 0.77134 0.23303 0.44772
 H2931 H 0.77392 0.17242 0.43675
 H2932 H 0.79129 0.16185 0.41449
 H2933 H 0.80735 0.20879 0.40322
 H2934 H 0.75845 0.19024 0.45790
 H2935 H 0.74689 0.21247 0.47379
 H2936 H 0.77515 0.24474 0.44471
 C2937 C 0.70232 0.30394 0.42225
 C2938 C 0.71157 0.31460 0.43065
 C2939 C 0.71141 0.33043 0.42696
 C2940 C 0.70139 0.33540 0.41405
 C2941 C 0.69170 0.32459 0.40527
 C2942 C 0.69214 0.30864 0.40958
 O2943 O 0.70457 0.28940 0.42723
 C2944 C 0.71545 0.29090 0.43906
 C2945 C 0.72010 0.30607 0.44174
 C2946 C 0.73148 0.31015 0.45356
 C2947 C 0.73837 0.29809 0.46292
 C2948 C 0.73391 0.28234 0.46013
 C2949 C 0.72221 0.27878 0.44807
 H2950 H 0.71885 0.33862 0.43364
 H2951 H 0.70115 0.34766 0.41096
 H2952 H 0.68514 0.30004 0.40296
 H2953 H 0.73500 0.32217 0.45545
 H2954 H 0.74737 0.30094 0.47206
 H2955 H 0.71847 0.26689 0.44576
 C2956 C 0.69866 0.79290 0.92071
 C2957 C 0.70027 0.80279 0.93402
 C2958 C 0.69548 0.81831 0.93359
 C2959 C 0.68881 0.82387 0.91881
 C2960 C 0.68699 0.81389 0.90490
 C2961 C 0.69191 0.79813 0.90598
 O2962 O 0.70453 0.77876 0.92346
 C2963 C 0.70996 0.77975 0.93884
 C2964 C 0.70758 0.79419 0.94588
 C2965 C 0.71271 0.79790 0.96175
 C2966 C 0.72076 0.78629 0.97067
 C2967 C 0.72357 0.77134 0.96362
 C2968 C 0.71795 0.76804 0.94747
 H2969 H 0.69699 0.82592 0.94418
 H2970 H 0.68503 0.83593 0.91827
 H2971 H 0.69095 0.79025 0.89555
 H2972 H 0.71084 0.80939 0.96697
 H2973 H 0.72523 0.78913 0.98287
 H2974 H 0.71990 0.75678 0.94173
 C2975 C 0.19381 0.29495 0.92477
 C2976 C 0.19629 0.30497 0.93783
 C2977 C 0.19097 0.32031 0.93785
 C2978 C 0.18301 0.32566 0.92372
 C2979 C 0.18059 0.31572 0.90985
 C2980 C 0.18583 0.30001 0.91057
 O2981 O 0.20051 0.28106 0.92700
 C2982 C 0.20743 0.28241 0.94173
 C2983 C 0.20519 0.29682 0.94884
 C2984 C 0.21212 0.30109 0.96379
 C2985 C 0.22182 0.29009 0.97173
 C2986 C 0.22436 0.27503 0.96477
 C2987 C 0.21686 0.27118 0.94954
 H2988 H 0.19315 0.32800 0.94825
 H2989 H 0.17896 0.33764 0.92353
 H2990 H 0.18443 0.29219 0.90015
 H2991 H 0.21043 0.31263 0.96896
 H2992 H 0.22772 0.29353 0.98307
 H2993 H 0.21841 0.25986 0.94380
 C2994 C 0.20251 0.80022 0.42239
 C2995 C 0.19148 0.79683 0.43445
 C2996 C 0.17558 0.80141 0.43344
 C2997 C 0.17078 0.80962 0.41932
 C2998 C 0.18185 0.81306 0.40653
 C2999 C 0.19803 0.80846 0.40827
 O3000 O 0.21690 0.79435 0.42550
 C3001 C 0.21487 0.78708 0.43981
 C3002 C 0.19955 0.78825 0.44581
 C3003 C 0.19468 0.78107 0.46033
 C3004 C 0.20608 0.77232 0.46904
 C3005 C 0.22203 0.77093 0.46315
 C3006 C 0.22642 0.77851 0.44829
 H3007 H 0.16711 0.79857 0.44307
 H3008 H 0.15841 0.81317 0.41835
 H3009 H 0.20675 0.81068 0.39870
 H3010 H 0.18248 0.78199 0.46469
 H3011 H 0.20237 0.76637 0.48016
 H3012 H 0.23846 0.77776 0.44345
 C3013 C 0.70411 0.70729 0.57678
 C3014 C 0.71028 0.69786 0.56458
 C3015 C 0.70971 0.68169 0.56536
 C3016 C 0.70252 0.67498 0.57931
 C3017 C 0.69611 0.68446 0.59215
 C3018 C 0.69693 0.70090 0.59073
 O3019 O 0.70599 0.72237 0.57377
 C3020 C 0.71353 0.72246 0.55936
 C3021 C 0.71645 0.70777 0.55318
 C3022 C 0.72437 0.70521 0.53831
 C3023 C 0.72952 0.71833 0.52948
 C3024 C 0.72665 0.73364 0.53559
 C3025 C 0.71848 0.73564 0.55077
 H3026 H 0.71464 0.67449 0.55560
 H3027 H 0.70196 0.66241 0.57997
 H3028 H 0.69234 0.70858 0.60024
 H3029 H 0.72662 0.69354 0.53375
 H3030 H 0.73598 0.71655 0.51804
 H3031 H 0.71597 0.74712 0.55573
 C3032 C 0.70167 0.20895 0.08072
 C3033 C 0.69043 0.21496 0.07008
 C3034 C 0.67415 0.21216 0.07185
 C3035 C 0.66928 0.20284 0.08516
 C3036 C 0.68066 0.19645 0.09628
 C3037 C 0.69711 0.19952 0.09390
 O3038 O 0.71649 0.21326 0.07710
 C3039 C 0.71457 0.22217 0.06388
 C3040 C 0.69887 0.22355 0.05902
 C3041 C 0.69422 0.23237 0.04545
 C3042 C 0.70624 0.24007 0.03653
 C3043 C 0.72251 0.23890 0.04139
 C3044 C 0.72667 0.22980 0.05530
 H3045 H 0.66551 0.21705 0.06337
 H3046 H 0.65665 0.20054 0.08671
 H3047 H 0.70610 0.19502 0.10224
 H3048 H 0.68178 0.23332 0.04187
 H3049 H 0.70287 0.24712 0.02602
 H3050 H 0.73898 0.22861 0.05923
 C3051 C 0.20449 0.70208 0.07166
 C3052 C 0.19318 0.70688 0.06041
 C3053 C 0.17693 0.70403 0.06244
 C3054 C 0.17215 0.69592 0.07664
 C3055 C 0.18363 0.69060 0.08824
 C3056 C 0.20004 0.69364 0.08563
 O3057 O 0.21917 0.70677 0.06793
 C3058 C 0.21710 0.71463 0.05400
 C3059 C 0.20144 0.71491 0.04877
 C3060 C 0.19658 0.72267 0.03457
 C3061 C 0.20829 0.73062 0.02550
 C3062 C 0.22443 0.73088 0.03090
 C3063 C 0.22889 0.72267 0.04531
 H3064 H 0.16822 0.70814 0.05356
 H3065 H 0.15956 0.69366 0.07855
 H3066 H 0.20901 0.68998 0.09445
 H3067 H 0.18418 0.72276 0.03073
 H3068 H 0.20472 0.73702 0.01459
 H3069 H 0.24111 0.72275 0.04974
 C3070 C 0.20335 0.20751 0.58360
 C3071 C 0.19214 0.21462 0.57373
 C3072 C 0.17582 0.21216 0.57559
 C3073 C 0.17086 0.20200 0.58815
 C3074 C 0.18220 0.19448 0.59850
 C3075 C 0.19871 0.19732 0.59608
 O3076 O 0.21826 0.21142 0.57986
 C3077 C 0.21643 0.22120 0.56734
 C3078 C 0.20069 0.22355 0.56307
 C3079 C 0.19613 0.23325 0.55016
 C3080 C 0.20829 0.24077 0.54126
 C3081 C 0.22462 0.23853 0.54546
 C3082 C 0.22867 0.22862 0.55876
 H3083 H 0.16720 0.21786 0.56766
 H3084 H 0.15819 0.19992 0.58967
 H3085 H 0.20773 0.19196 0.60378
 H3086 H 0.18367 0.23492 0.54700
 H3087 H 0.20499 0.24841 0.53120
 H3088 H 0.24102 0.22651 0.56212
   
