data_POSCAR
  _audit_creation_date              2014-09-24
  _audit_creation_method            'ToBaCCo'
  _symmetry_space_group_name_H-M    'P1'
  _symmetry_Int_Tables_number       1
  _symmetry_cell_setting            triclinic
  loop_
  _symmetry_equiv_pos_as_xyz
 x,y,z
_cell_length_a 55.9934
_cell_length_b 55.8884
_cell_length_c 55.8961
_cell_angle_alpha 90.061900
_cell_angle_beta 90.092700
_cell_angle_gamma 90.054700
loop_
  _atom_site_label
  _atom_site_type_symbol
  _atom_site_fract_x
  _atom_site_fract_y
  _atom_site_fract_z
C1 C 0.29127 0.44139 0.92398
 C2 C 0.29137 0.42374 0.94179
 C3 C 0.30898 0.42382 0.95925
 C4 C 0.32670 0.44157 0.95910
 C5 C 0.32661 0.45902 0.94150
 C6 C 0.30879 0.45893 0.92384
 C7 C 0.27789 0.44421 0.90348
 N8 N 0.28688 0.46300 0.89114
 C9 C 0.30576 0.47212 0.90326
 C10 C 0.34715 0.47233 0.94426
 N11 N 0.35946 0.46336 0.96309
 C12 C 0.34730 0.44454 0.97228
 C13 C 0.30613 0.40334 0.97262
 N14 N 0.28725 0.39105 0.96370
 C15 C 0.27811 0.40320 0.94485
 H16 H 0.26347 0.43279 0.89741
 H17 H 0.31711 0.48650 0.89699
 H18 H 0.35324 0.48668 0.93276
 H19 H 0.35353 0.43319 0.98670
 H20 H 0.31758 0.39723 0.98700
 H21 H 0.26365 0.39698 0.93355
 C22 C 0.44019 0.82936 0.45741
 C23 C 0.42280 0.81128 0.45762
 C24 C 0.42285 0.79376 0.44005
 C25 C 0.44028 0.79411 0.42207
 C26 C 0.45747 0.81197 0.42186
 C27 C 0.45743 0.82970 0.43964
 C28 C 0.44317 0.84978 0.47094
 N29 N 0.46178 0.86224 0.46178
 C30 C 0.47063 0.85030 0.44265
 C31 C 0.47071 0.80907 0.40131
 N32 N 0.46194 0.78994 0.38927
 C33 C 0.44334 0.78066 0.40164
 C34 C 0.40274 0.77995 0.44335
 N35 N 0.39071 0.78868 0.46245
 C36 C 0.40266 0.80783 0.47130
 H37 H 0.43207 0.85559 0.48570
 H38 H 0.48493 0.85660 0.43124
 H39 H 0.48500 0.82054 0.39509
 H40 H 0.43232 0.76585 0.39573
 H41 H 0.39670 0.76539 0.43206
 H42 H 0.39654 0.81904 0.48586
 C43 C 0.93762 0.91969 0.79537
 C44 C 0.91985 0.93736 0.79560
 C45 C 0.91984 0.95469 0.81334
 C46 C 0.93757 0.95457 0.83107
 C47 C 0.95513 0.93710 0.83087
 C48 C 0.95516 0.91956 0.81291
 C49 C 0.94088 0.89958 0.78149
 N50 N 0.95994 0.88749 0.79020
 C51 C 0.96881 0.89936 0.80940
 C52 C 0.96876 0.94021 0.85119
 N53 N 0.95984 0.95911 0.86345
 C54 C 0.94079 0.96802 0.85148
 C55 C 0.89956 0.96827 0.81029
 N56 N 0.88748 0.95957 0.79116
 C57 C 0.89957 0.94068 0.78204
 H58 H 0.92969 0.89371 0.76677
 H59 H 0.98347 0.89328 0.82051
 H60 H 0.98345 0.92905 0.85706
 H61 H 0.92961 0.98259 0.85761
 H62 H 0.89355 0.98279 0.82162
 H63 H 0.89357 0.92967 0.76725
 C64 C 0.44027 -0.07906 0.29292
 C65 C 0.42302 -0.06089 0.29262
 C66 C 0.42312 -0.04340 0.31021
 C67 C 0.44045 -0.04389 0.32833
 C68 C 0.45751 -0.06183 0.32864
 C69 C 0.45743 -0.07952 0.31083
 C70 C 0.44313 -0.09948 0.27941
 N71 N 0.46159 -0.11207 0.28870
 C72 C 0.47046 -0.10021 0.30791
 C73 C 0.47061 -0.05909 0.34934
 N74 N 0.46187 -0.03996 0.36136
 C75 C 0.44345 -0.03054 0.34883
 C76 C 0.40308 -0.02954 0.30688
 N77 N 0.39103 -0.03820 0.28772
 C78 C 0.40290 -0.05736 0.27886
 H79 H 0.43206 -0.10521 0.26455
 H80 H 0.48465 -0.10661 0.31942
 H81 H 0.48476 -0.07067 0.35568
 H82 H 0.43248 -0.01570 0.35468
 H83 H 0.39707 -0.01502 0.31821
 H84 H 0.39671 -0.06856 0.26429
 C85 C 0.79329 0.31035 0.32754
 C86 C 0.79381 0.32837 0.31011
 C87 C 0.81173 0.32857 0.29304
 C88 C 0.82935 0.31076 0.29320
 C89 C 0.82885 0.29295 0.31044
 C90 C 0.81071 0.29274 0.32770
 C91 C 0.77940 0.30704 0.34758
 N92 N 0.78799 0.28789 0.35967
 C93 C 0.80712 0.27902 0.34783
 C94 C 0.84918 0.27940 0.30760
 N95 N 0.86178 0.28856 0.28908
 C96 C 0.84998 0.30772 0.28016
 C97 C 0.80900 0.34914 0.27977
 N98 N 0.78990 0.36121 0.28841
 C99 C 0.78049 0.34883 0.30695
 H100 H 0.76489 0.31835 0.35355
 H101 H 0.81823 0.26444 0.35402
 H102 H 0.85487 0.26459 0.31870
 H103 H 0.85641 0.31912 0.26589
 H104 H 0.82054 0.35536 0.26554
 H105 H 0.76566 0.35474 0.31786
 C106 C -0.18821 0.83067 0.79508
 C107 C -0.17059 0.81286 0.79520
 C108 C -0.17065 0.79545 0.81284
 C109 C -0.18834 0.79564 0.83057
 C110 C -0.20576 0.81326 0.83048
 C111 C -0.20570 0.83087 0.81262
 C112 C -0.19140 0.85082 0.78127
 N113 N -0.21037 0.86301 0.79003
 C114 C -0.21924 0.85116 0.80918
 C115 C -0.21940 0.81013 0.85074
 N116 N -0.21063 0.79109 0.86287
 C117 C -0.19165 0.78210 0.85087
 C118 C -0.15051 0.78169 0.80966
 N119 N -0.13844 0.79036 0.79057
 C120 C -0.15040 0.80940 0.78159
 H121 H -0.18025 0.85663 0.76656
 H122 H -0.23386 0.85728 0.82029
 H123 H -0.23401 0.82135 0.85665
 H124 H -0.18060 0.76738 0.85689
 H125 H -0.14458 0.76708 0.82090
 H126 H -0.14437 0.82041 0.76686
 C127 C 0.95762 0.32783 0.43963
 C128 C 0.95742 0.31036 0.42161
 C129 C 0.94012 0.29261 0.42169
 C130 C 0.92281 0.29212 0.43979
 C131 C 0.92299 0.30941 0.45759
 C132 C 0.94050 0.32738 0.45751
 C133 C 0.97085 0.34840 0.44271
 N134 N 0.96215 0.36021 0.46198
 C135 C 0.94358 0.34769 0.47117
 C136 C 0.90287 0.30595 0.47131
 N137 N 0.89072 0.28703 0.46225
 C138 C 0.90259 0.27845 0.44299
 C139 C 0.94293 0.27947 0.40102
 N140 N 0.96148 0.28883 0.38864
 C141 C 0.97047 0.30771 0.40091
 H142 H 0.98499 0.35484 0.43117
 H143 H 0.93250 0.35347 0.48595
 H144 H 0.89690 0.31704 0.48603
 H145 H 0.89636 0.26411 0.43151
 H146 H 0.93177 0.26481 0.39498
 H147 H 0.98479 0.31918 0.39476
 C148 C 0.45773 0.43980 0.82753
 C149 C 0.45724 0.42181 0.81003
 C150 C 0.43975 0.42202 0.79246
 C151 C 0.42254 0.44023 0.79218
 C152 C 0.42301 0.45800 0.80949
 C153 C 0.44071 0.45779 0.82726
 C154 C 0.47111 0.44269 0.84803
 N155 N 0.46258 0.46196 0.85997
 C156 C 0.44399 0.47132 0.84761
 C157 C 0.40289 0.47180 0.80634
 N158 N 0.39045 0.46282 0.78757
 C159 C 0.40214 0.44353 0.77879
 C160 C 0.44225 0.40132 0.77930
 N161 N 0.46081 0.38879 0.78848
 C162 C 0.47009 0.40099 0.80726
 H163 H 0.48518 0.43100 0.85437
 H164 H 0.43300 0.48611 0.85354
 H165 H 0.39711 0.48651 0.81754
 H166 H 0.39567 0.43209 0.76453
 H167 H 0.43088 0.39535 0.76478
 H168 H 0.48447 0.39471 0.81860
 C169 C 0.79466 0.92001 0.93899
 C170 C 0.79456 0.93775 0.92128
 C171 C 0.81220 0.95515 0.92106
 C172 C 0.83018 0.95501 0.93857
 C173 C 0.83029 0.93746 0.95609
 C174 C 0.81243 0.91985 0.95629
 C175 C 0.78093 0.89984 0.94232
 N176 N 0.78996 0.88765 0.96121
 C177 C 0.80921 0.89955 0.96989
 C178 C 0.85073 0.94060 0.96950
 N179 N 0.86277 0.95960 0.96052
 C180 C 0.85055 0.96854 0.94161
 C181 C 0.80877 0.96876 0.90081
 N182 N 0.78952 0.96000 0.88898
 C183 C 0.78070 0.94105 0.90118
 H184 H 0.76611 0.89398 0.93129
 H185 H 0.82054 0.89342 0.98436
 H186 H 0.85679 0.92942 0.98411
 H187 H 0.85645 0.98321 0.93043
 H188 H 0.81996 0.98330 0.89463
 H189 H 0.76591 0.92997 0.89536
 C190 C 0.29258 0.82760 0.30890
 C191 C 0.29245 0.80995 0.32670
 C192 C 0.31027 0.79277 0.32727
 C193 C 0.32845 0.79305 0.31005
 C194 C 0.32859 0.81050 0.29245
 C195 C 0.31054 0.82788 0.29186
 C196 C 0.27896 0.84782 0.30549
 N197 N 0.28823 0.86012 0.28681
 C198 C 0.30755 0.84826 0.27835
 C199 C 0.34937 0.80776 0.27959
 N200 N 0.36162 0.78911 0.28897
 C201 C 0.34915 0.77999 0.30760
 C202 C 0.30702 0.77948 0.34774
 N203 N 0.28770 0.78820 0.35938
 C204 C 0.27866 0.80683 0.34684
 H205 H 0.26416 0.85374 0.31647
 H206 H 0.31919 0.85458 0.26425
 H207 H 0.35557 0.81902 0.26511
 H208 H 0.35516 0.76557 0.31903
 H209 H 0.31848 0.76533 0.35429
 H210 H 0.26391 0.81796 0.35256
 C211 C 0.79233 0.42309 0.44034
 C212 C 0.79250 0.44045 0.42224
 C213 C 0.80994 0.45806 0.42213
 C214 C 0.82742 0.45853 0.44012
 C215 C 0.82727 0.44136 0.45800
 C216 C 0.80962 0.42354 0.45811
 C217 C 0.77905 0.40259 0.44354
 N218 N 0.78788 0.39081 0.46277
 C219 C 0.80657 0.40330 0.47181
 C220 C 0.84757 0.44468 0.47155
 N221 N 0.85980 0.46342 0.46231
 C222 C 0.84782 0.47201 0.44308
 C223 C 0.80710 0.47103 0.40139
 N224 N 0.78839 0.46171 0.38914
 C225 C 0.77934 0.44301 0.40156
 H226 H 0.76481 0.39613 0.43209
 H227 H 0.81777 0.39749 0.48650
 H228 H 0.85358 0.43360 0.48626
 H229 H 0.85406 0.48620 0.43147
 H230 H 0.81835 0.48552 0.39518
 H231 H 0.76492 0.43157 0.39552
 C232 C 0.93851 0.82800 -0.04424
 C233 C 0.92069 0.81037 -0.04456
 C234 C 0.92054 0.79313 -0.06240
 C235 C 0.93822 0.79332 -0.08013
 C236 C 0.95584 0.81076 -0.07982
 C237 C 0.95598 0.82820 -0.06177
 C238 C 0.94173 0.84814 -0.03041
 N239 N 0.96069 0.86035 -0.03915
 C240 C 0.96955 0.84848 -0.05830
 C241 C 0.96932 0.80787 -0.10022
 N242 N 0.96026 0.78913 -0.11265
 C243 C 0.94126 0.78010 -0.10071
 C244 C 0.90010 0.77971 -0.05950
 N245 N 0.88810 0.78843 -0.04038
 C246 C 0.90037 0.80716 -0.03111
 H247 H 0.93052 0.85404 -0.01578
 H248 H 0.98407 0.85469 -0.06946
 H249 H 0.98397 0.81911 -0.10603
 H250 H 0.92996 0.76564 -0.10699
 H251 H 0.89392 0.76536 -0.07098
 H252 H 0.89443 0.81819 -0.01634
 C253 C 0.29204 0.32674 0.80921
 C254 C 0.29195 0.30914 0.82707
 C255 C 0.30979 0.29198 0.82766
 C256 C 0.32794 0.29222 0.81040
 C257 C 0.32803 0.30963 0.79275
 C258 C 0.30997 0.32698 0.79215
 C259 C 0.27840 0.34693 0.80576
 N260 N 0.28762 0.35920 0.78705
 C261 C 0.30692 0.34733 0.77860
 C262 C 0.34878 0.30685 0.77985
 N263 N 0.36106 0.28822 0.78925
 C264 C 0.34864 0.27915 0.80793
 C265 C 0.30655 0.27872 0.84816
 N266 N 0.28724 0.28745 0.85980
 C267 C 0.27818 0.30605 0.84722
 H268 H 0.26361 0.35287 0.81672
 H269 H 0.31851 0.35364 0.76445
 H270 H 0.35494 0.31806 0.76532
 H271 H 0.35467 0.26475 0.81939
 H272 H 0.31803 0.26458 0.85472
 H273 H 0.26341 0.31717 0.85292
 C274 C 0.17025 0.56218 0.54382
 C275 C 0.18808 0.57983 0.54388
 C276 C 0.20563 0.57967 0.56138
 C277 C 0.20558 0.56186 0.57903
 C278 C 0.18797 0.54442 0.57897
 C279 C 0.17021 0.54458 0.56126
 C280 C 0.14991 0.55912 0.53026
 N281 N 0.13776 0.54013 0.53909
 C282 C 0.14985 0.53111 0.55803
 C283 C 0.19111 0.53077 0.59923
 N284 N 0.21016 0.53955 0.61136
 C285 C 0.21914 0.55854 0.59933
 C286 C 0.21929 0.59993 0.55828
 N287 N 0.21043 0.61216 0.53935
 C288 C 0.19136 0.60019 0.53041
 H289 H 0.14392 0.57038 0.51568
 H290 H 0.14380 0.51645 0.56914
 H291 H 0.17985 0.51621 0.60523
 H292 H 0.23380 0.56965 0.60541
 H293 H 0.23395 0.60584 0.56949
 H294 H 0.18018 0.60635 0.51585
 C295 C 0.57696 0.68979 0.04173
 C296 C 0.55967 0.67162 0.04227
 C297 C 0.54231 0.67163 0.05992
 C298 C 0.54205 0.68980 0.07724
 C299 C 0.55915 0.70773 0.07673
 C300 C 0.57670 0.70773 0.05886
 C301 C 0.59724 0.69295 0.02817
 N302 N 0.60906 0.71233 0.03668
 C303 C 0.59682 0.72149 0.05545
 C304 C 0.55605 0.72149 0.09694
 N305 N 0.53751 0.71232 0.10948
 C306 C 0.52883 0.69296 0.09775
 C307 C 0.52930 0.65086 0.05738
 N308 N 0.53835 0.63847 0.03866
 C309 C 0.55691 0.65083 0.02929
 H310 H 0.60354 0.68139 0.01397
 H311 H 0.60273 0.73632 0.06646
 H312 H 0.56712 0.73632 0.10269
 H313 H 0.51473 0.68140 0.10426
 H314 H 0.51494 0.64476 0.06882
 H315 H 0.56810 0.64471 0.01474
 C316 C 0.69026 0.20812 0.67268
 C317 C 0.67299 0.20839 0.69082
 C318 C 0.67352 0.19122 0.70869
 C319 C 0.69132 0.17360 0.70864
 C320 C 0.70840 0.17334 0.69072
 C321 C 0.70786 0.19070 0.67263
 C322 C 0.69273 0.22112 0.65190
 N323 N 0.71138 0.21198 0.63949
 C324 C 0.72074 0.19339 0.65185
 C325 C 0.72185 0.15295 0.69374
 N326 N 0.71332 0.14104 0.71300
 C327 C 0.69467 0.15335 0.72224
 C328 C 0.65334 0.19430 0.72240
 N329 N 0.64081 0.21289 0.71328
 C330 C 0.65250 0.22163 0.69398
 H331 H 0.68130 0.23549 0.64580
 H332 H 0.73520 0.18211 0.64569
 H333 H 0.73595 0.14661 0.68211
 H334 H 0.68365 0.14738 0.73699
 H335 H 0.64759 0.18316 0.73715
 H336 H 0.64598 0.23575 0.68245
 C337 C 1.07840 0.05915 0.20724
 C338 C 1.06035 0.07652 0.20747
 C339 C 1.04255 0.07610 0.19022
 C340 C 1.04258 0.05828 0.17253
 C341 C 1.06043 0.04110 0.17228
 C342 C 1.07845 0.04155 0.18975
 C343 C 1.09901 0.05651 0.22045
 N344 N 1.11137 0.03777 0.21139
 C345 C 1.09913 0.02849 0.19263
 C346 C 1.05728 0.02756 0.15190
 N347 N 1.03798 0.03614 0.14003
 C348 C 1.02888 0.05493 0.15232
 C349 C 1.02887 0.09632 0.19337
 N350 N 1.03794 0.10877 0.21209
 C351 C 1.05718 0.09698 0.22084
 H352 H 1.10504 0.06790 0.23494
 H353 H 1.10526 0.01397 0.18138
 H354 H 1.06877 0.01331 0.14561
 H355 H 1.01412 0.06598 0.14643
 H356 H 1.01414 0.10213 0.18223
 H357 H 1.06864 0.10342 0.23509
 C358 C 0.05990 0.17229 1.04280
 C359 C 0.07802 0.18962 1.04311
 C360 C 0.07807 0.20728 1.06055
 C361 C 0.05998 0.20781 1.07787
 C362 C 0.04208 0.19067 1.07756
 C363 C 0.04204 0.17281 1.05993
 C364 C 0.05670 0.15179 1.02948
 N365 N 0.03738 0.14007 1.03813
 C366 C 0.02829 0.15260 1.05675
 C367 C 0.02839 0.19407 1.09773
 N368 N 0.03757 0.21284 1.11003
 C369 C 0.05689 0.22137 1.09823
 C370 C 0.09880 0.22027 1.05783
 N371 N 0.11111 0.21092 1.03921
 C372 C 0.09873 0.19218 1.03009
 H373 H 0.06819 0.14528 1.01533
 H374 H 0.01350 0.14685 1.06781
 H375 H 0.01361 0.18302 1.10361
 H376 H 0.06848 0.23557 1.10457
 H377 H 0.10493 0.23483 1.06909
 H378 H 0.10479 0.18075 1.01567
 C379 C 0.17153 0.70731 0.68954
 C380 C 0.18884 0.70712 0.67144
 C381 C 0.20601 0.68929 0.67095
 C382 C 0.20607 0.67142 0.68855
 C383 C 0.18895 0.67161 0.70643
 C384 C 0.17159 0.68966 0.70693
 C385 C 0.15144 0.72106 0.69310
 N386 N 0.13954 0.71216 0.71219
 C387 C 0.15154 0.69297 0.72079
 C388 C 0.19202 0.65112 0.71975
 N389 N 0.21056 0.63874 0.71037
 C390 C 0.21928 0.65082 0.69130
 C391 C 0.21913 0.69236 0.65036
 N392 N 0.21031 0.71158 0.63856
 C393 C 0.19179 0.72073 0.65113
 H394 H 0.14533 0.73569 0.68199
 H395 H 0.14551 0.68163 0.73527
 H396 H 0.18107 0.64520 0.73456
 H397 H 0.23353 0.64462 0.67979
 H398 H 0.23339 0.68096 0.64395
 H399 H 0.18075 0.73558 0.64543
 C400 C 1.18988 0.17089 0.20584
 C401 C 1.17248 0.18890 0.20642
 C402 C 1.17230 0.20655 0.18902
 C403 C 1.18953 0.20639 0.17083
 C404 C 1.20675 0.18859 0.17027
 C405 C 1.20692 0.17073 0.18788
 C406 C 1.19306 0.15042 0.21916
 N407 N 1.21158 0.13807 0.20971
 C408 C 1.22018 0.15016 0.19059
 C409 C 1.21979 0.19169 0.14963
 N410 N 1.21087 0.21091 0.13789
 C411 C 1.19236 0.22003 0.15052
 C412 C 1.15221 0.22026 0.19268
 N413 N 1.14041 0.21134 0.21183
 C414 C 1.15249 0.19217 0.22036
 H415 H 1.18219 0.14448 0.23402
 H416 H 1.23440 0.14398 0.17902
 H417 H 1.23405 0.18031 0.14318
 H418 H 1.18126 0.23486 0.14489
 H419 H 1.14601 0.23487 0.18159
 H420 H 1.14656 0.18082 0.23488
 C421 C 0.67326 1.04323 0.55938
 C422 C 0.69097 1.04296 0.57713
 C423 C 0.70819 1.06078 0.57775
 C424 C 0.70791 1.07908 0.56060
 C425 C 0.69039 1.07934 0.54304
 C426 C 0.67295 1.06130 0.54243
 C427 C 0.65305 1.02959 0.55595
 N428 N 0.64069 1.03896 0.53736
 C429 C 0.65253 1.05834 0.52896
 C430 C 0.69321 1.10017 0.53017
 N431 N 0.71199 1.11231 0.53952
 C432 C 0.72110 1.09976 0.55813
 C433 C 0.72156 1.05733 0.59817
 N434 N 0.71283 1.03791 0.60972
 C435 C 0.69413 1.02900 0.59716
 H436 H 0.64718 1.01469 0.56683
 H437 H 0.64618 1.07003 0.51489
 H438 H 0.68195 1.10643 0.51571
 H439 H 0.73564 1.10564 0.56952
 H440 H 0.73576 1.06874 0.60476
 H441 H 0.68298 1.01421 0.60281
 C442 C 0.55932 0.54182 0.17224
 C443 C 0.57673 0.54159 0.19031
 C444 C 0.57645 0.55889 0.20808
 C445 C 0.55875 0.57662 0.20802
 C446 C 0.54153 0.57685 0.19018
 C447 C 0.54182 0.55935 0.17218
 C448 C 0.55660 0.52866 0.15157
 N449 N 0.53792 0.53779 0.13918
 C450 C 0.52876 0.55655 0.15146
 C451 C 0.52817 0.59731 0.19321
 N452 N 0.53689 0.60928 0.21241
 C453 C 0.55558 0.59695 0.22159
 C454 C 0.59671 0.55577 0.22173
 N455 N 0.60905 0.53703 0.21265
 C456 C 0.59715 0.52823 0.19344
 H457 H 0.56792 0.51419 0.14550
 H458 H 0.51433 0.56787 0.14529
 H459 H 0.51396 0.60362 0.18167
 H460 H 0.56670 0.60293 0.23630
 H461 H 0.60264 0.56697 0.23640
 H462 H 0.60348 0.51397 0.18197
 C463 C 0.67409 0.69163 0.20904
 C464 C 0.69181 0.67391 0.20888
 C465 C 0.70919 0.67398 0.19125
 C466 C 0.70905 0.69176 0.17357
 C467 C 0.69153 0.70927 0.17372
 C468 C 0.67395 0.70920 0.19156
 C469 C 0.65366 0.69447 0.22244
 N470 N 0.64136 0.71331 0.21351
 C471 C 0.65344 0.72243 0.19463
 C472 C 0.69430 0.72259 0.15318
 N473 N 0.71303 0.71358 0.14082
 C474 C 0.72217 0.69474 0.15297
 C475 C 0.72248 0.65344 0.19402
 N476 N 0.71357 0.64114 0.21286
 C477 C 0.69482 0.65333 0.22206
 H478 H 0.64761 0.68303 0.23683
 H479 H 0.64718 0.73685 0.18331
 H480 H 0.68287 0.73698 0.14711
 H481 H 0.73652 0.68338 0.14669
 H482 H 0.73677 0.64731 0.18252
 H483 H 0.68355 0.64709 0.23650
 C484 C 0.17255 0.05971 1.04244
 C485 C 0.18999 0.07771 1.04290
 C486 C 0.20712 0.07794 1.06082
 C487 C 0.20699 0.06017 1.07851
 C488 C 0.18974 0.04238 1.07807
 C489 C 0.17243 0.04214 1.05992
 C490 C 0.15240 0.05647 1.02865
 N491 N 0.14029 0.03741 1.03736
 C492 C 0.15222 0.02851 1.05647
 C493 C 0.19255 0.02895 1.09852
 N494 N 0.21106 0.03819 1.11113
 C495 C 0.22002 0.05727 1.09922
 C496 C 0.22030 0.09858 1.05812
 N497 N 0.21156 0.11065 1.03903
 C498 C 0.19303 0.09821 1.02960
 H499 H 0.14636 0.06781 1.01416
 H500 H 0.14601 0.01401 1.06770
 H501 H 0.18140 0.01421 1.10430
 H502 H 0.23427 0.06871 1.10564
 H503 H 0.23449 0.10486 1.06972
 H504 H 0.18201 0.10416 1.01482
 C505 C 0.57766 0.20880 0.55937
 C506 C 0.55962 0.20926 0.57673
 C507 C 0.54170 0.19214 0.57638
 C508 C 0.54162 0.17436 0.55867
 C509 C 0.55944 0.17391 0.54150
 C510 C 0.57757 0.19123 0.54185
 C511 C 0.59848 0.22169 0.55675
 N512 N 0.61077 0.21234 0.53812
 C513 C 0.59831 0.19372 0.52889
 C514 C 0.55632 0.15337 0.52822
 N515 N 0.53708 0.14157 0.53694
 C516 C 0.52796 0.15408 0.55555
 C517 C 0.52814 0.19537 0.59665
 N518 N 0.53740 0.21401 0.60908
 C519 C 0.55664 0.22263 0.59723
 H520 H 0.60470 0.23611 0.56813
 H521 H 0.60437 0.18227 0.51449
 H522 H 0.56785 0.14687 0.51411
 H523 H 0.51328 0.14823 0.56671
 H524 H 0.51342 0.18428 0.60255
 H525 H 0.56827 0.23674 0.60367
 C526 C 0.07839 0.56084 0.70635
 C527 C 0.06025 0.57812 0.70648
 C528 C 0.04284 0.57791 0.68883
 C529 C 0.04337 0.56042 0.67084
 C530 C 0.06129 0.54333 0.67072
 C531 C 0.07890 0.54354 0.68858
 C532 C 0.09873 0.55804 0.71996
 N533 N 0.11132 0.53948 0.71086
 C534 C 0.09952 0.53049 0.69168
 C535 C 0.05858 0.53001 0.65014
 N536 N 0.03950 0.53864 0.63801
 C537 C 0.03007 0.55722 0.65034
 C538 C 0.02894 0.59797 0.69206
 N539 N 0.03752 0.61012 0.71121
 C540 C 0.05664 0.59831 0.72016
 H541 H 0.10441 0.56920 0.73476
 H542 H 0.10596 0.51618 0.68032
 H543 H 0.07014 0.51577 0.64397
 H544 H 0.01526 0.56814 0.64436
 H545 H 0.01443 0.60389 0.68070
 H546 H 0.06774 0.60455 0.73477
 C547 C 0.67145 0.54218 0.05912
 C548 C 0.68946 0.54188 0.07657
 C549 C 0.70727 0.55912 0.07630
 C550 C 0.70729 0.57685 0.05856
 C551 C 0.68949 0.57711 0.04130
 C552 C 0.67147 0.55969 0.04159
 C553 C 0.65074 0.52913 0.05640
 N554 N 0.63843 0.53832 0.03769
 C555 C 0.65078 0.55701 0.02850
 C556 C 0.69257 0.59755 0.02791
 N557 N 0.71175 0.60947 0.03664
 C558 C 0.72088 0.59714 0.05538
 C559 C 0.72088 0.55593 0.09660
 N560 N 0.71174 0.53721 0.10894
 C561 C 0.69254 0.52850 0.09702
 H562 H 0.64460 0.51470 0.06775
 H563 H 0.64467 0.56836 0.01405
 H564 H 0.68107 0.60388 0.01367
 H565 H 0.73557 0.60309 0.06653
 H566 H 0.73559 0.56705 0.10254
 H567 H 0.68105 0.51426 0.10334
 C568 C 0.06059 0.70739 0.57747
 C569 C 0.07874 0.70689 0.56022
 C570 C 0.07907 0.68896 0.54308
 C571 C 0.06126 0.67130 0.54299
 C572 C 0.04333 0.67178 0.56005
 C573 C 0.04299 0.68993 0.57739
 C574 C 0.05710 0.72131 0.59751
 N575 N 0.03786 0.71271 0.60937
 C576 C 0.02909 0.69354 0.59738
 C577 C 0.02977 0.65143 0.55695
 N578 N 0.03905 0.63885 0.53846
 C579 C 0.05829 0.65068 0.52980
 C580 C 0.09971 0.69176 0.52999
 N581 N 0.11169 0.71091 0.53881
 C582 C 0.09919 0.72029 0.55729
 H583 H 0.06836 0.73585 0.60363
 H584 H 0.01445 0.68240 0.60339
 H585 H 0.01486 0.64572 0.56787
 H586 H 0.06977 0.64427 0.51560
 H587 H 0.10601 0.68024 0.51575
 H588 H 0.10499 0.73516 0.56829
 C589 C 0.55887 1.04216 0.67284
 C590 C 0.57652 1.04222 0.69070
 C591 C 0.57641 1.05978 0.70824
 C592 C 0.55867 1.07748 0.70814
 C593 C 0.54124 1.07742 0.69050
 C594 C 0.54134 1.05966 0.67275
 C595 C 0.55594 1.02872 0.65236
 N596 N 0.53707 1.03766 0.64009
 C597 C 0.52803 1.05658 0.65222
 C598 C 0.52783 1.09787 0.69344
 N599 N 0.53672 1.11009 0.71241
 C600 C 0.55558 1.09796 0.72152
 C601 C 0.59678 1.05681 0.72177
 N602 N 0.60902 1.03792 0.71286
 C603 C 0.59696 1.02888 0.69387
 H604 H 0.56730 1.01426 0.64631
 H605 H 0.51357 1.06788 0.64605
 H606 H 0.51342 1.10394 0.68201
 H607 H 0.56685 1.10411 0.73606
 H608 H 0.60280 1.06816 0.73629
 H609 H 0.60315 1.01440 0.68259
 C610 C 0.45808 0.32691 0.94075
 C611 C 0.45782 0.30943 0.92273
 C612 C 0.44038 0.29180 0.92275
 C613 C 0.42301 0.29145 0.94080
 C614 C 0.42327 0.30872 0.95860
 C615 C 0.44090 0.32656 0.95858
 C616 C 0.47136 0.34745 0.94382
 N617 N 0.46262 0.35933 0.96304
 C618 C 0.44400 0.34689 0.97219
 C619 C 0.40305 0.30549 0.97221
 N620 N 0.39075 0.28671 0.96309
 C621 C 0.40263 0.27799 0.94389
 C622 C 0.44310 0.27869 0.90206
 N623 N 0.46173 0.28794 0.88971
 C624 C 0.47084 0.30673 0.90202
 H625 H 0.48551 0.35386 0.93227
 H626 H 0.43285 0.35276 0.98689
 H627 H 0.39711 0.31666 0.98688
 H628 H 0.39630 0.26373 0.93237
 H629 H 0.43182 0.26415 0.89596
 H630 H 0.48522 0.31814 0.89588
 C631 C 0.95715 0.43941 0.32764
 C632 C 0.95680 0.42140 0.31016
 C633 C 0.93890 0.42106 0.29301
 C634 C 0.92113 0.43872 0.29314
 C635 C 0.92147 0.45652 0.31043
 C636 C 0.93958 0.45688 0.32777
 C637 C 0.97098 0.44280 0.34777
 N638 N 0.96220 0.46187 0.35986
 C639 C 0.94301 0.47060 0.34797
 C640 C 0.90102 0.46989 0.30755
 N641 N 0.88851 0.46062 0.28897
 C642 C 0.90049 0.44157 0.28003
 C643 C 0.94179 0.40049 0.27974
 N644 N 0.96096 0.38857 0.28845
 C645 C 0.97027 0.40103 0.30705
 H646 H 0.98556 0.43157 0.35377
 H647 H 0.93173 0.48508 0.35414
 H648 H 0.89520 0.48464 0.31867
 H649 H 0.89417 0.43013 0.26571
 H650 H 0.93028 0.39417 0.26548
 H651 H 0.98510 0.39520 0.31804
 C652 C 0.29366 0.94123 0.42223
 C653 C 0.29363 0.92366 0.44012
 C654 C 0.31153 0.92337 0.45726
 C655 C 0.32970 0.94065 0.45671
 C656 C 0.32976 0.95802 0.43902
 C657 C 0.31161 0.95832 0.42167
 C658 C 0.27981 0.94443 0.40209
 N659 N 0.28893 0.96303 0.38956
 C660 C 0.30838 0.97165 0.40119
 C661 C 0.35050 0.97108 0.44166
 N662 N 0.36276 0.96202 0.46050
 C663 C 0.35038 0.94341 0.46982
 C664 C 0.30829 0.90312 0.47090
 N665 N 0.28890 0.89133 0.46242
 C666 C 0.27980 0.90357 0.44361
 H667 H 0.26491 0.93340 0.39644
 H668 H 0.31990 0.98579 0.39469
 H669 H 0.35661 0.98548 0.43025
 H670 H 0.35637 0.93221 0.48445
 H671 H 0.31979 0.89682 0.48515
 H672 H 0.26496 0.89769 0.43264
 O673 O 0.31348 0.49882 0.78108
 O674 O 0.30573 0.53970 0.77784
 O675 O 0.25138 0.46946 0.81374
 O676 O 0.20883 0.47030 0.80417
 O677 O 0.28036 0.43627 0.75126
 O678 O 0.27861 0.44507 0.70952
 O679 O 0.18749 0.53144 0.74858
 O680 O 0.19340 0.52661 0.78866
 O681 O 0.24806 0.56264 0.71923
 O682 O 0.29108 0.55436 0.72089
 O683 O 0.21907 0.50182 0.68736
 O684 O 0.22071 0.45861 0.69589
 O685 O 0.18734 0.50243 0.71986
 O686 O 0.19583 0.45851 0.72184
 O687 O 0.24793 0.53052 0.68725
 O688 O 0.29188 0.52792 0.69641
 O689 O 0.21903 0.56255 0.74771
 O690 O 0.22670 0.55435 0.79111
 O691 O 0.31364 0.47036 0.75175
 O692 O 0.30468 0.47208 0.70938
 O693 O 0.25156 0.43608 0.78001
 O694 O 0.20944 0.44486 0.77767
 O695 O 0.28014 0.49832 0.81390
 O696 O 0.27476 0.54139 0.80432
 Zr697 Zr 0.27878 0.51312 0.77925
 O698 O 0.25795 0.53598 0.75778
 Zr699 Zr 0.23694 0.47078 0.77894
 O700 O 0.21421 0.49218 0.75799
 Zr701 Zr 0.27894 0.47108 0.73699
 O702 O 0.25774 0.49201 0.71394
 Zr703 Zr 0.22170 0.52856 0.76365
 O704 O 0.24242 0.50721 0.78718
 Zr705 Zr 0.26353 0.52840 0.72144
 O706 O 0.28665 0.50745 0.74280
 Zr707 Zr 0.22140 0.48644 0.72161
 O708 O 0.24260 0.46302 0.74251
 O709 O 0.27300 0.47688 0.77316
 O710 O 0.22727 0.52277 0.72724
 C711 C 0.32364 0.48237 0.76866
 C712 C 0.26798 0.48165 0.82394
 C713 C 0.26824 0.42607 0.76784
 C714 C 0.17755 0.51963 0.73154
 C715 C 0.23085 0.57246 0.73074
 C716 C 0.23079 0.51884 0.67743
 H717 H 0.26172 0.55282 0.76174
 H718 H 0.26159 0.48801 0.69716
 H719 H 0.28322 0.46664 0.78335
 H720 H 0.19744 0.48855 0.76214
 H721 H 0.20056 0.52194 0.80415
 H722 H 0.21075 0.48466 0.81434
 H723 H 0.28912 0.51438 0.68533
 H724 H 0.31269 0.48783 0.71054
 H725 H 0.21310 0.56569 0.79043
 H726 H 0.28745 0.53999 0.81665
 H727 H 0.23530 0.46004 0.68604
 H728 H 0.26258 0.43760 0.70985
 H729 H 0.31250 0.53921 0.76150
 H730 H 0.28971 0.56407 0.73563
 H731 H 0.21059 0.43696 0.76186
 H732 H 0.18540 0.46089 0.73591
 O733 O 0.28163 -0.06407 0.25140
 O734 O 0.27808 -0.05648 0.21050
 O735 O 0.31442 -0.00169 0.28036
 O736 O 0.30481 0.04108 0.27909
 O737 O 0.25249 -0.03063 0.31399
 O738 O 0.21066 -0.02898 0.30543
 O739 O 0.24893 0.06185 0.21828
 O740 O 0.28893 0.05614 0.22307
 O741 O 0.21950 0.00094 0.18756
 O742 O 0.22128 -0.04222 0.19616
 O743 O 0.18795 0.03010 0.24836
 O744 O 0.19681 0.02884 0.29150
 O745 O 0.22042 0.06208 0.24737
 O746 O 0.22266 0.05387 0.29133
 O747 O 0.18770 0.00104 0.21982
 O748 O 0.19687 -0.04281 0.22252
 O749 O 0.24798 0.03004 0.18738
 O750 O 0.29132 0.02262 0.19552
 O751 O 0.25260 -0.06418 0.28004
 O752 O 0.21031 -0.05532 0.27863
 O753 O 0.28112 -0.00163 0.31385
 O754 O 0.27869 0.04042 0.30491
 O755 O 0.31434 -0.03069 0.25168
 O756 O 0.30457 -0.02541 0.20863
 Zr757 Zr 0.27970 -0.02939 0.23698
 O758 O 0.25810 -0.00872 0.21411
 Zr759 Zr 0.27969 0.01278 0.27908
 O760 O 0.25858 0.03534 0.25767
 Zr761 Zr 0.23786 -0.02944 0.27926
 O762 O 0.21467 -0.00842 0.25827
 Zr763 Zr 0.26402 0.02765 0.22133
 O764 O 0.28767 0.00709 0.24266
 Zr765 Zr 0.22189 -0.01439 0.22187
 O766 O 0.24336 -0.03735 0.24289
 Zr767 Zr 0.22229 0.02805 0.26358
 O768 O 0.24338 0.00705 0.28704
 O769 O 0.27389 -0.02341 0.27322
 O770 O 0.22769 0.02200 0.22726
 C771 C 0.26938 -0.07422 0.26796
 C772 C 0.32446 -0.01843 0.26828
 C773 C 0.26914 -0.01836 0.32402
 C774 C 0.23199 0.07182 0.23008
 C775 C 0.23099 0.01811 0.17759
 C776 C 0.17792 0.01820 0.23146
 H777 H 0.26197 -0.01258 0.19729
 H778 H 0.19796 -0.01233 0.26237
 H779 H 0.28412 -0.03358 0.28345
 H780 H 0.26272 0.05219 0.26120
 H781 H 0.30442 0.04907 0.22777
 H782 H 0.31512 0.03881 0.26493
 H783 H 0.18607 -0.04017 0.23625
 H784 H 0.21126 -0.06337 0.26288
 H785 H 0.29058 0.03617 0.18412
 H786 H 0.31685 -0.03813 0.21002
 H787 H 0.18709 0.01410 0.29030
 H788 H 0.21113 -0.01290 0.31286
 H789 H 0.26180 -0.06336 0.21114
 H790 H 0.23580 -0.04069 0.18622
 H791 H 0.26289 0.03939 0.31275
 H792 H 0.23670 0.06433 0.28886
 O793 O 0.50153 0.68651 0.21929
 O794 O 0.46074 0.69433 0.22264
 O795 O 0.53089 0.74857 0.18652
 O796 O 0.52991 0.79129 0.19598
 O797 O 0.56414 0.71974 0.24896
 O798 O 0.55541 0.72141 0.29071
 O799 O 0.46915 0.81276 0.25172
 O800 O 0.47391 0.80688 0.21168
 O801 O 0.43803 0.75211 0.28111
 O802 O 0.44633 0.70901 0.27960
 O803 O 0.49893 0.78115 0.31293
 O804 O 0.54198 0.77950 0.30428
 O805 O 0.49819 0.81292 0.28036
 O806 O 0.54204 0.80438 0.27827
 O807 O 0.47022 0.75231 0.31314
 O808 O 0.47272 0.70829 0.30406
 O809 O 0.43806 0.78111 0.25254
 O810 O 0.44627 0.77349 0.20917
 O811 O 0.53006 0.68632 0.24851
 O812 O 0.52846 0.69531 0.29088
 O813 O 0.56426 0.74860 0.22021
 O814 O 0.55546 0.79073 0.22235
 O815 O 0.50202 0.71981 0.18647
 O816 O 0.45906 0.72532 0.19609
 Zr817 Zr 0.48732 0.72128 0.22112
 O818 O 0.46458 0.74218 0.24262
 Zr819 Zr 0.52960 0.76316 0.22127
 O820 O 0.50832 0.78596 0.24224
 Zr821 Zr 0.52940 0.72111 0.26327
 O822 O 0.50858 0.74239 0.28634
 Zr823 Zr 0.47199 0.77848 0.23666
 O824 O 0.49322 0.75769 0.21311
 Zr825 Zr 0.47222 0.73663 0.27895
 O826 O 0.49306 0.71343 0.25757
 Zr827 Zr 0.51414 0.77879 0.27862
 O828 O 0.53744 0.75752 0.25769
 O829 O 0.52352 0.72704 0.22712
 O830 O 0.47784 0.77295 0.27308
 C831 C 0.51799 0.67631 0.23165
 C832 C 0.51869 0.73192 0.17639
 C833 C 0.57430 0.73194 0.23239
 C834 C 0.48099 0.82272 0.26870
 C835 C 0.42818 0.76928 0.26951
 C836 C 0.48195 0.76945 0.32292
 H837 H 0.44777 0.73840 0.23867
 H838 H 0.51262 0.73854 0.30312
 H839 H 0.53372 0.71679 0.21695
 H840 H 0.51195 0.80277 0.23806
 H841 H 0.47864 0.79974 0.19620
 H842 H 0.51567 0.78919 0.18570
 H843 H 0.48633 0.71100 0.31505
 H844 H 0.51270 0.68733 0.28978
 H845 H 0.43494 0.78710 0.20984
 H846 H 0.46040 0.71258 0.18379
 H847 H 0.54061 0.76488 0.31412
 H848 H 0.56286 0.73747 0.29038
 H849 H 0.46131 0.68752 0.23897
 H850 H 0.43662 0.71035 0.26487
 H851 H 0.56331 0.78970 0.23820
 H852 H 0.53958 0.81489 0.26426
 O853 O 0.06289 0.71937 0.74850
 O854 O 0.05511 0.72255 0.78944
 O855 O 0.00084 0.68683 0.71886
 O856 O -0.04183 0.69639 0.71991
 O857 O 0.02993 0.74929 0.68609
 O858 O 0.02819 0.79109 0.69506
 O859 O -0.06295 0.75191 0.78126
 O860 O -0.05727 0.71179 0.77604
 O861 O -0.00238 0.78100 0.81257
 O862 O 0.04072 0.77934 0.80427
 O863 O -0.03125 0.81311 0.75195
 O864 O -0.02957 0.80471 0.70864
 O865 O -0.06302 0.78071 0.75239
 O866 O -0.05461 0.77879 0.70844
 O867 O -0.00245 0.81309 0.78072
 O868 O 0.04146 0.80404 0.77806
 O869 O -0.03145 0.75248 0.81230
 O870 O -0.02397 0.70910 0.80380
 O871 O 0.06316 0.74877 0.72017
 O872 O 0.05431 0.79115 0.72208
 O873 O 0.00102 0.72056 0.68573
 O874 O -0.04107 0.72290 0.69443
 O875 O 0.02959 0.68662 0.74775
 O876 O 0.02410 0.69598 0.79087
 Zr877 Zr 0.02821 0.72118 0.76279
 O878 O 0.00742 0.74257 0.78573
 Zr879 Zr -0.01362 0.72160 0.72041
 O880 O -0.03631 0.74251 0.74188
 Zr881 Zr 0.02849 0.76355 0.72095
 O882 O 0.00736 0.78656 0.74199
 Zr883 Zr -0.02884 0.73671 0.77821
 O884 O -0.00817 0.71324 0.75679
 Zr885 Zr 0.01312 0.77893 0.77835
 O886 O 0.03618 0.75765 0.75729
 Zr887 Zr -0.02900 0.77892 0.73634
 O888 O -0.00787 0.75806 0.71283
 O889 O 0.02244 0.72739 0.72658
 O890 O -0.02315 0.77314 0.77263
 C891 C 0.07309 0.73179 0.73208
 C892 C 0.01748 0.67664 0.73096
 C893 C 0.01779 0.73268 0.67582
 C894 C -0.07281 0.76904 0.76958
 C895 C -0.01961 0.76943 0.82230
 C896 C -0.01957 0.82295 0.76910
 H897 H 0.01117 0.73854 0.80254
 H898 H 0.01126 0.80335 0.73809
 H899 H 0.03265 0.71724 0.71631
 H900 H -0.05310 0.73839 0.73821
 H901 H -0.05019 0.69631 0.77124
 H902 H -0.03971 0.68598 0.73405
 H903 H 0.03876 0.81513 0.76455
 H904 H 0.06227 0.78998 0.73786
 H905 H -0.03757 0.70974 0.81512
 H906 H 0.03680 0.68369 0.78944
 H907 H -0.01499 0.81459 0.71019
 H908 H 0.01217 0.79071 0.68754
 H909 H 0.06200 0.73885 0.78895
 H910 H 0.03920 0.76464 0.81399
 H911 H -0.03995 0.73879 0.68670
 H912 H -0.06510 0.76473 0.71076
 O913 O 0.06324 0.03045 0.00155
 O914 O 0.05524 0.02716 -0.03931
 O915 O 0.00125 0.06295 0.03120
 O916 O -0.04133 0.05328 0.03038
 O917 O 0.03062 0.00064 0.06419
 O918 O 0.02892 -0.04112 0.05541
 O919 O -0.06274 -0.00258 -0.03083
 O920 O -0.05704 0.03756 -0.02588
 O921 O -0.00227 -0.03177 -0.06204
 O922 O 0.04083 -0.02982 -0.05392
 O923 O -0.03072 -0.06361 -0.00122
 O924 O -0.02900 -0.05494 0.04199
 O925 O -0.06264 -0.03130 -0.00189
 O926 O -0.05407 -0.02912 0.04205
 O927 O -0.00200 -0.06363 -0.02998
 O928 O 0.04189 -0.05427 -0.02749
 O929 O -0.03137 -0.00334 -0.06191
 O930 O -0.02387 0.04016 -0.05367
 O931 O 0.06367 0.00117 0.03000
 O932 O 0.05483 -0.04127 0.02831
 O933 O 0.00167 0.02926 0.06452
 O934 O -0.04051 0.02679 0.05583
 O935 O 0.02986 0.06314 0.00227
 O936 O 0.02415 0.05357 -0.04080
 Zr937 Zr 0.02847 0.02851 -0.01261
 O938 O 0.00763 0.00693 -0.03544
 Zr939 Zr -0.01314 0.02811 0.02984
 O940 O -0.03590 0.00706 0.00846
 Zr941 Zr 0.02901 -0.01370 0.02939
 O942 O 0.00781 -0.03685 0.00850
 Zr943 Zr -0.02861 0.01269 -0.02792
 O944 O -0.00789 0.03632 -0.00659
 Zr945 Zr 0.01342 -0.02937 -0.02789
 O946 O 0.03653 -0.00790 -0.00698
 Zr947 Zr -0.02854 -0.02931 0.01415
 O948 O -0.00731 -0.00830 0.03754
 O949 O 0.02290 0.02243 0.02364
 O950 O -0.02284 -0.02369 -0.02218
 C951 C 0.07353 0.01809 0.01797
 C952 C 0.01779 0.07315 0.01902
 C953 C 0.01849 0.01719 0.07446
 C954 C -0.07253 -0.01970 -0.01910
 C955 C -0.01958 -0.02033 -0.07182
 C956 C -0.01902 -0.07351 -0.01827
 H957 H 0.01129 0.01089 -0.05229
 H958 H 0.01176 -0.05361 0.01248
 H959 H 0.03315 0.03265 0.03385
 H960 H -0.05268 0.01114 0.01212
 H961 H -0.04994 0.05307 -0.02114
 H962 H -0.03944 0.06349 0.01606
 H963 H 0.03927 -0.06534 -0.01395
 H964 H 0.06282 -0.04006 0.01258
 H965 H -0.03749 0.03937 -0.06501
 H966 H 0.03682 0.06593 -0.03943
 H967 H -0.01437 -0.06474 0.04054
 H968 H 0.01293 -0.04082 0.06292
 H969 H 0.06208 0.01085 -0.03887
 H970 H 0.03924 -0.01517 -0.06370
 H971 H -0.03930 0.01095 0.06365
 H972 H -0.06459 -0.01512 0.03966
 O973 O -0.00195 0.46874 0.43552
 O974 O 0.03889 0.47204 0.44324
 O975 O -0.03118 0.43614 0.49768
 O976 O -0.03000 0.44569 0.54036
 O977 O -0.06425 0.49861 0.46875
 O978 O -0.05537 0.54034 0.47035
 O979 O 0.03104 0.50128 0.56166
 O980 O 0.02617 0.46121 0.55571
 O981 O 0.06201 0.53077 0.50097
 O982 O 0.05367 0.52902 0.45785
 O983 O 0.00151 0.56258 0.52997
 O984 O -0.04163 0.55402 0.52840
 O985 O 0.00218 0.53004 0.56180
 O986 O -0.04170 0.52806 0.55333
 O987 O 0.03000 0.56271 0.50100
 O988 O 0.02727 0.55346 0.45700
 O989 O 0.06198 0.50229 0.53007
 O990 O 0.05380 0.45886 0.52237
 O991 O -0.03036 0.49801 0.43534
 O992 O -0.02849 0.54044 0.44423
 O993 O -0.06439 0.46988 0.49764
 O994 O -0.05543 0.47214 0.53978
 O995 O -0.00244 0.43599 0.46887
 O996 O 0.04061 0.44556 0.47431
 Zr997 Zr 0.01244 0.47062 0.47025
 O998 O 0.03536 0.49214 0.49106
 Zr999 Zr -0.02967 0.47093 0.51219
 O1000 O -0.00821 0.49191 0.53491
 Zr1001 Zr -0.02946 0.51286 0.47007
 O1002 O -0.00848 0.53595 0.49127
 Zr1003 Zr 0.02806 0.48626 0.52738
 O1004 O 0.00665 0.46270 0.50668
 Zr1005 Zr 0.02782 0.52848 0.48544
 O1006 O 0.00681 0.50707 0.46233
 Zr1007 Zr -0.01391 0.52830 0.52769
 O1008 O -0.03738 0.50737 0.50649
 O1009 O -0.02371 0.47671 0.47606
 O1010 O 0.02232 0.52268 0.52178
 C1011 C -0.01843 0.48109 0.42534
 C1012 C -0.01911 0.42596 0.48102
 C1013 C -0.07443 0.48205 0.48095
 C1014 C 0.01933 0.51832 0.57161
 C1015 C 0.07184 0.51929 0.51825
 C1016 C 0.01844 0.57254 0.51818
 H1017 H 0.05215 0.48819 0.48728
 H1018 H -0.01246 0.55272 0.48739
 H1019 H -0.03400 0.46652 0.46585
 H1020 H -0.01179 0.48776 0.55172
 H1021 H 0.02149 0.44572 0.54853
 H1022 H -0.01577 0.43544 0.53830
 H1023 H 0.01376 0.56451 0.45972
 H1024 H -0.01282 0.53922 0.43614
 H1025 H 0.06515 0.45956 0.53599
 H1026 H 0.03915 0.43322 0.46161
 H1027 H -0.04025 0.56386 0.51377
 H1028 H -0.06273 0.54008 0.48644
 H1029 H 0.03842 0.48838 0.43646
 H1030 H 0.06336 0.51430 0.45927
 H1031 H -0.06325 0.48798 0.53869
 H1032 H -0.03929 0.51402 0.56381
 O1033 O 0.56370 0.03161 0.50158
 O1034 O 0.55606 0.02798 0.46072
 O1035 O 0.50146 0.06423 0.53052
 O1036 O 0.45896 0.05454 0.52959
 O1037 O 0.53062 0.00209 0.56418
 O1038 O 0.52908 -0.03968 0.55562
 O1039 O 0.43794 -0.00146 0.46849
 O1040 O 0.44371 0.03859 0.47315
 O1041 O 0.49876 -0.03094 0.43782
 O1042 O 0.54172 -0.02917 0.44637
 O1043 O 0.46961 -0.06249 0.49862
 O1044 O 0.47095 -0.05375 0.54165
 O1045 O 0.43774 -0.02998 0.49763
 O1046 O 0.44623 -0.02762 0.54170
 O1047 O 0.49857 -0.06273 0.47010
 O1048 O 0.54246 -0.05346 0.47293
 O1049 O 0.46966 -0.00251 0.43758
 O1050 O 0.47712 0.04099 0.44567
 O1051 O 0.56397 0.00249 0.53019
 O1052 O 0.55510 -0.04002 0.52864
 O1053 O 0.50170 0.03074 0.56410
 O1054 O 0.45957 0.02817 0.55510
 O1055 O 0.53027 0.06425 0.50179
 O1056 O 0.52498 0.05436 0.45876
 Zr1057 Zr 0.52906 0.02951 0.48717
 O1058 O 0.50839 0.00779 0.46432
 Zr1059 Zr 0.48714 0.02937 0.52932
 O1060 O 0.46453 0.00824 0.50788
 Zr1061 Zr 0.52930 -0.01243 0.52942
 O1062 O 0.50819 -0.03570 0.50853
 Zr1063 Zr 0.47211 0.01365 0.47152
 O1064 O 0.49267 0.03738 0.49288
 Zr1065 Zr 0.51406 -0.02848 0.47214
 O1066 O 0.53706 -0.00688 0.49307
 Zr1067 Zr 0.47179 -0.02810 0.51383
 O1068 O 0.49290 -0.00700 0.53726
 O1069 O 0.52324 0.02367 0.52342
 O1070 O 0.47775 -0.02272 0.47750
 C1071 C 0.57391 0.01937 0.51812
 C1072 C 0.51805 0.07437 0.51836
 C1073 C 0.51841 0.01870 0.57425
 C1074 C 0.42798 -0.01840 0.48033
 C1075 C 0.48158 -0.01950 0.42783
 C1076 C 0.48142 -0.07252 0.48173
 H1077 H 0.51221 0.01165 0.44749
 H1078 H 0.51207 -0.05244 0.51265
 H1079 H 0.53339 0.03396 0.53365
 H1080 H 0.44773 0.01238 0.51140
 H1081 H 0.45078 0.05412 0.47787
 H1082 H 0.46083 0.06457 0.51515
 H1083 H 0.53971 -0.06443 0.48653
 H1084 H 0.56323 -0.03886 0.51297
 H1085 H 0.46360 0.04017 0.43421
 H1086 H 0.53763 0.06673 0.46014
 H1087 H 0.48576 -0.06332 0.54060
 H1088 H 0.51299 -0.03944 0.56292
 H1089 H 0.56292 0.01168 0.46135
 H1090 H 0.54036 -0.01449 0.43660
 H1091 H 0.46082 0.01243 0.56312
 H1092 H 0.43562 -0.01373 0.53906
 O1093 O 0.43572 0.49805 -0.03131
 O1094 O 0.44357 0.53889 -0.02811
 O1095 O 0.49779 0.46859 -0.06401
 O1096 O 0.54039 0.46961 -0.05443
 O1097 O 0.46883 0.43546 -0.00164
 O1098 O 0.47054 0.44432 0.04014
 O1099 O 0.56180 0.53065 0.00111
 O1100 O 0.55584 0.52583 -0.03890
 O1101 O 0.50125 0.56194 0.03052
 O1102 O 0.45820 0.55361 0.02887
 O1103 O 0.53004 0.50109 0.06245
 O1104 O 0.52848 0.45797 0.05385
 O1105 O 0.56190 0.50171 0.02984
 O1106 O 0.55330 0.45781 0.02790
 O1107 O 0.50122 0.52977 0.06258
 O1108 O 0.45736 0.52727 0.05333
 O1109 O 0.53025 0.56183 0.00201
 O1110 O 0.52259 0.55354 -0.04134
 O1111 O 0.43551 0.46959 -0.00204
 O1112 O 0.44449 0.47124 0.04029
 O1113 O 0.49769 0.43528 -0.03033
 O1114 O 0.53974 0.44412 -0.02803
 O1115 O 0.46905 0.49741 -0.06415
 O1116 O 0.47455 0.54051 -0.05458
 Zr1117 Zr 0.47046 0.51230 -0.02952
 O1118 O 0.49131 0.53520 -0.00801
 Zr1119 Zr 0.51226 0.47001 -0.02922
 O1120 O 0.53499 0.49144 -0.00824
 Zr1121 Zr 0.47024 0.47030 0.01269
 O1122 O 0.49144 0.49129 0.03577
 Zr1123 Zr 0.52755 0.52780 -0.01389
 O1124 O 0.50682 0.50641 -0.03744
 Zr1125 Zr 0.48572 0.52768 0.02832
 O1126 O 0.46260 0.50667 0.00693
 Zr1127 Zr 0.52778 0.48574 0.02814
 O1128 O 0.50658 0.46228 0.00720
 O1129 O 0.47619 0.47606 -0.02346
 O1130 O 0.52199 0.52208 0.02254
 C1131 C 0.42551 0.48163 -0.01889
 C1132 C 0.48119 0.48072 -0.07419
 C1133 C 0.48101 0.42525 -0.01820
 C1134 C 0.57173 0.51883 0.01810
 C1135 C 0.51843 0.57178 0.01896
 C1136 C 0.51828 0.51806 0.07243
 H1137 H 0.48756 0.55203 -0.01197
 H1138 H 0.48757 0.48730 0.05253
 H1139 H 0.46595 0.46580 -0.03364
 H1140 H 0.55176 0.48780 -0.01240
 H1141 H 0.54868 0.52112 -0.05439
 H1142 H 0.53837 0.48386 -0.06470
 H1143 H 0.45997 0.51365 0.06429
 H1144 H 0.43654 0.48701 0.03921
 H1145 H 0.53621 0.56488 -0.04068
 H1146 H 0.46187 0.53908 -0.06692
 H1147 H 0.51379 0.45927 0.06356
 H1148 H 0.48655 0.43682 0.03976
 H1149 H 0.43684 0.53848 -0.01176
 H1150 H 0.45963 0.56334 0.01417
 H1151 H 0.53864 0.43627 -0.01220
 H1152 H 0.56373 0.46016 0.01383
 O1153 O 0.78136 0.31371 0.49876
 O1154 O 0.77820 0.30608 0.53965
 O1155 O 0.81395 0.25068 0.47004
 O1156 O 0.80668 0.21126 0.46942
 O1157 O 0.75149 0.28051 0.43635
 O1158 O 0.70983 0.27879 0.44512
 O1159 O 0.74890 0.18760 0.53189
 O1160 O 0.78946 0.19420 0.52725
 O1161 O 0.71951 0.24866 0.56284
 O1162 O 0.72117 0.29164 0.55436
 O1163 O 0.68758 0.21947 0.50197
 O1164 O 0.69587 0.22025 0.45931
 O1165 O 0.72004 0.18749 0.50307
 O1166 O 0.72240 0.19605 0.45871
 O1167 O 0.68751 0.24850 0.53055
 O1168 O 0.69682 0.29242 0.52788
 O1169 O 0.74778 0.21941 0.56289
 O1170 O 0.79097 0.22709 0.55501
 O1171 O 0.75207 0.31387 0.47031
 O1172 O 0.70967 0.30493 0.47212
 O1173 O 0.78012 0.25158 0.43631
 O1174 O 0.77609 0.20838 0.44617
 O1175 O 0.81398 0.28019 0.49821
 O1176 O 0.80459 0.27494 0.54133
 Zr1177 Zr 0.77946 0.27899 0.51315
 O1178 O 0.75800 0.25833 0.53613
 Zr1179 Zr 0.77898 0.23688 0.47100
 O1180 O 0.75820 0.21416 0.49263
 Zr1181 Zr 0.73726 0.27914 0.47115
 O1182 O 0.71428 0.25797 0.49214
 Zr1183 Zr 0.76380 0.22194 0.52897
 O1184 O 0.78716 0.24250 0.50741
 Zr1185 Zr 0.72173 0.26394 0.52851
 O1186 O 0.74309 0.28698 0.50749
 Zr1187 Zr 0.72188 0.22150 0.48679
 O1188 O 0.74265 0.24270 0.46322
 O1189 O 0.77334 0.27307 0.47693
 O1190 O 0.72745 0.22754 0.52311
 C1191 C 0.76898 0.32388 0.48229
 C1192 C 0.82405 0.26764 0.48183
 C1193 C 0.76806 0.26830 0.42623
 C1194 C 0.73180 0.17766 0.52020
 C1195 C 0.73094 0.23143 0.57276
 C1196 C 0.67763 0.23139 0.51884
 H1197 H 0.76196 0.26221 0.55294
 H1198 H 0.69754 0.26183 0.48809
 H1199 H 0.78358 0.28322 0.46669
 H1200 H 0.76220 0.19729 0.48912
 H1201 H 0.80462 0.20170 0.52205
 H1202 H 0.80300 0.19895 0.48155
 H1203 H 0.68584 0.28971 0.51426
 H1204 H 0.71101 0.31318 0.48775
 H1205 H 0.79027 0.21351 0.56639
 H1206 H 0.81691 0.28763 0.53986
 H1207 H 0.68692 0.23549 0.45977
 H1208 H 0.71024 0.26275 0.43759
 H1209 H 0.76190 0.31290 0.53918
 H1210 H 0.73594 0.29037 0.56400
 H1211 H 0.76142 0.21125 0.43669
 H1212 H 0.73573 0.18487 0.46177
 O1213 O 0.68580 0.71957 0.00072
 O1214 O 0.69341 0.72305 -0.04011
 O1215 O 0.74775 0.68645 0.02983
 O1216 O 0.79029 0.69565 0.02892
 O1217 O 0.71930 0.74896 0.06344
 O1218 O 0.72102 0.79067 0.05483
 O1219 O 0.81183 0.75143 -0.03193
 O1220 O 0.80558 0.71137 -0.02741
 O1221 O 0.75145 0.78165 -0.06274
 O1222 O 0.70842 0.78017 -0.05449
 O1223 O 0.78081 0.81276 -0.00183
 O1224 O 0.77928 0.80408 0.04120
 O1225 O 0.81225 0.78001 -0.00278
 O1226 O 0.80377 0.77771 0.04128
 O1227 O 0.75183 0.81332 -0.03041
 O1228 O 0.70776 0.80438 -0.02775
 O1229 O 0.78030 0.75298 -0.06291
 O1230 O 0.77223 0.70954 -0.05517
 O1231 O 0.68583 0.74866 0.02943
 O1232 O 0.69498 0.79109 0.02781
 O1233 O 0.74795 0.72004 0.06339
 O1234 O 0.79007 0.72208 0.05440
 O1235 O 0.71894 0.68661 0.00101
 O1236 O 0.72429 0.69645 -0.04206
 Zr1237 Zr 0.72044 0.72134 -0.01362
 O1238 O 0.74129 0.74287 -0.03639
 Zr1239 Zr 0.76240 0.72115 0.02863
 O1240 O 0.78518 0.74205 0.00729
 Zr1241 Zr 0.72060 0.76334 0.02868
 O1242 O 0.74192 0.78640 0.00789
 Zr1243 Zr 0.77751 0.73668 -0.02910
 O1244 O 0.75676 0.71315 -0.00783
 Zr1245 Zr 0.73598 0.77921 -0.02853
 O1246 O 0.71279 0.75782 -0.00772
 Zr1247 Zr 0.77823 0.77844 0.01332
 O1248 O 0.75694 0.75756 0.03663
 O1249 O 0.72635 0.72717 0.02265
 O1250 O 0.77221 0.77309 -0.02303
 C1251 C 0.67574 0.73187 0.01732
 C1252 C 0.73106 0.67643 0.01764
 C1253 C 0.73142 0.73229 0.07354
 C1254 C 0.82190 0.76833 -0.02006
 C1255 C 0.76862 0.77016 -0.07265
 C1256 C 0.76911 0.82291 -0.01874
 H1257 H 0.73746 0.73907 -0.05325
 H1258 H 0.73819 0.80318 0.01202
 H1259 H 0.71613 0.71700 0.03288
 H1260 H 0.80194 0.73774 0.01085
 H1261 H 0.79828 0.69589 -0.02293
 H1262 H 0.78833 0.68569 0.01442
 H1263 H 0.71066 0.81540 -0.01420
 H1264 H 0.68684 0.78995 0.01212
 H1265 H 0.78581 0.71021 -0.06652
 H1266 H 0.71158 0.68415 -0.04069
 H1267 H 0.76465 0.81390 0.04001
 H1268 H 0.73713 0.79036 0.06216
 H1269 H 0.68682 0.73947 -0.03959
 H1270 H 0.70967 0.76547 -0.06427
 H1271 H 0.78899 0.73782 0.06247
 H1272 H 0.81434 0.76380 0.03857
 O1273 O 1.06385 0.21856 0.24842
 O1274 O 1.05612 0.22198 0.28935
 O1275 O 1.00184 0.18578 0.21903
 O1276 O 0.95923 0.19522 0.21997
 O1277 O 1.03074 0.24826 0.18591
 O1278 O 1.02907 0.29003 0.19475
 O1279 O 0.93791 0.25098 0.28103
 O1280 O 0.94374 0.21091 0.27617
 O1281 O 0.99850 0.28044 0.31227
 O1282 O 1.04149 0.27892 0.30401
 O1283 O 0.96956 0.31219 0.25135
 O1284 O 0.97115 0.30351 0.20818
 O1285 O 0.93778 0.27962 0.25201
 O1286 O 0.94624 0.27753 0.20811
 O1287 O 0.99838 0.31243 0.28010
 O1288 O 1.04231 0.30332 0.27757
 O1289 O 0.96950 0.25185 0.31218
 O1290 O 0.97706 0.20846 0.30387
 O1291 O 1.06403 0.24781 0.21995
 O1292 O 1.05516 0.29021 0.22177
 O1293 O 1.00192 0.21945 0.18569
 O1294 O 0.95982 0.22164 0.19447
 O1295 O 1.03056 0.18574 0.24794
 O1296 O 1.02515 0.19538 0.29100
 Zr1297 Zr 1.02918 0.22041 0.26275
 O1298 O 1.00836 0.24190 0.28559
 Zr1299 Zr 0.98733 0.22054 0.22040
 O1300 O 0.96462 0.24149 0.24177
 Zr1301 Zr 1.02936 0.26258 0.22073
 O1302 O 1.00817 0.28563 0.24163
 Zr1303 Zr 0.97210 0.23592 0.27815
 O1304 O 0.99281 0.21239 0.25682
 Zr1305 Zr 1.01395 0.27824 0.27803
 O1306 O 1.03707 0.25687 0.25710
 Zr1307 Zr 0.97183 0.27788 0.23603
 O1308 O 0.99301 0.25697 0.21264
 O1309 O 1.02339 0.22642 0.22651
 O1310 O 0.97768 0.27235 0.27238
 C1311 C 1.07400 0.23090 0.23193
 C1312 C 1.01845 0.17566 0.23121
 C1313 C 1.01859 0.23164 0.17569
 C1314 C 0.92799 0.26797 0.26921
 C1315 C 0.98133 0.26885 0.32210
 C1316 C 0.98128 0.32220 0.26836
 H1317 H 1.01213 0.23796 0.30242
 H1318 H 1.01204 0.30241 0.23763
 H1319 H 1.03359 0.21623 0.21627
 H1320 H 0.94784 0.23730 0.23813
 H1321 H 0.95085 0.19543 0.27141
 H1322 H 0.96127 0.18499 0.23425
 H1323 H 1.03961 0.31432 0.26399
 H1324 H 1.06320 0.28904 0.23751
 H1325 H 0.96349 0.20914 0.31522
 H1326 H 1.03786 0.18310 0.28962
 H1327 H 0.98575 0.31339 0.20961
 H1328 H 1.01305 0.28965 0.18724
 H1329 H 1.06298 0.23830 0.28877
 H1330 H 1.04019 0.26413 0.31363
 H1331 H 0.96093 0.23747 0.18661
 H1332 H 0.93578 0.26346 0.21050
 O1333 O 0.74863 1.06376 0.71968
 O1334 O 0.78939 1.05585 0.72306
 O1335 O 0.71962 1.00110 0.68654
 O1336 O 0.71878 0.96162 0.69361
 O1337 O 0.68598 1.03082 0.74913
 O1338 O 0.69472 1.02898 0.79090
 O1339 O 0.78086 0.93743 0.75187
 O1340 O 0.77616 0.94406 0.71112
 O1341 O 0.81201 0.99803 0.78162
 O1342 O 0.80378 1.04129 0.77992
 O1343 O 0.75124 0.96917 0.81310
 O1344 O 0.70835 0.97060 0.80458
 O1345 O 0.75204 0.93744 0.78065
 O1346 O 0.70787 0.94612 0.77812
 O1347 O 0.77997 0.99800 0.81340
 O1348 O 0.77749 1.04196 0.80448
 O1349 O 0.81187 0.96884 0.75317
 O1350 O 0.80418 0.97676 0.70988
 O1351 O 0.72014 1.06403 0.74885
 O1352 O 0.72177 1.05502 0.79124
 O1353 O 0.68583 1.00201 0.72028
 O1354 O 0.69539 0.95881 0.72409
 O1355 O 0.74797 1.03038 0.68684
 O1356 O 0.79090 1.02480 0.69643
 Zr1357 Zr 0.76275 1.02895 0.72148
 O1358 O 0.78553 1.00806 0.74296
 Zr1359 Zr 0.72039 0.98713 0.72151
 O1360 O 0.74177 0.96420 0.74236
 Zr1361 Zr 0.72072 1.02926 0.76353
 O1362 O 0.74154 1.00792 0.78657
 Zr1363 Zr 0.77809 0.97175 0.73693
 O1364 O 0.75678 0.99253 0.71354
 Zr1365 Zr 0.77790 1.01366 0.77927
 O1366 O 0.75706 1.03688 0.75791
 Zr1367 Zr 0.73595 0.97152 0.77876
 O1368 O 0.71260 0.99289 0.75790
 O1369 O 0.72653 1.02326 0.72738
 O1370 O 0.77222 0.97735 0.77332
 C1371 C 0.73221 1.07400 0.73203
 C1372 C 0.73157 1.01799 0.67658
 C1373 C 0.67582 1.01871 0.73244
 C1374 C 0.76918 0.92759 0.76899
 C1375 C 0.82175 0.98068 0.77019
 C1376 C 0.76829 0.98084 0.82312
 H1377 H 0.80235 1.01182 0.73909
 H1378 H 0.73753 1.01176 0.80335
 H1379 H 0.71638 1.03350 0.71712
 H1380 H 0.73817 0.94736 0.73829
 H1381 H 0.77111 0.95165 0.69593
 H1382 H 0.73065 0.94911 0.69741
 H1383 H 0.76384 1.03931 0.81538
 H1384 H 0.73751 1.06302 0.79014
 H1385 H 0.81541 0.96306 0.71056
 H1386 H 0.78959 1.03758 0.68419
 H1387 H 0.70937 0.98551 0.81406
 H1388 H 0.68721 1.01294 0.79047
 H1389 H 0.78892 1.06263 0.73942
 H1390 H 0.81370 1.03969 0.76539
 H1391 H 0.68606 0.96157 0.73886
 H1392 H 0.71078 0.93506 0.76461
 O1393 O 0.74863 0.56362 0.21878
 O1394 O 0.78941 0.55581 0.22192
 O1395 O 0.71916 0.50139 0.18597
 O1396 O 0.72025 0.45868 0.19544
 O1397 O 0.68619 0.53036 0.24840
 O1398 O 0.69505 0.52868 0.29016
 O1399 O 0.78132 0.43744 0.25102
 O1400 O 0.77633 0.44329 0.21097
 O1401 O 0.81242 0.49811 0.28050
 O1402 O 0.80417 0.54124 0.27888
 O1403 O 0.75171 0.46924 0.31237
 O1404 O 0.70867 0.47065 0.30371
 O1405 O 0.75250 0.43731 0.27979
 O1406 O 0.70860 0.44570 0.27774
 O1407 O 0.78034 0.49817 0.31253
 O1408 O 0.77785 0.54210 0.30332
 O1409 O 0.81233 0.46909 0.25189
 O1410 O 0.80399 0.47668 0.20853
 O1411 O 0.72025 0.56379 0.24805
 O1412 O 0.72195 0.55482 0.29038
 O1413 O 0.68597 0.50140 0.21968
 O1414 O 0.69481 0.45929 0.22185
 O1415 O 0.74792 0.53024 0.18587
 O1416 O 0.79097 0.52476 0.19538
 Zr1417 Zr 0.76285 0.52884 0.22048
 O1418 O 0.78573 0.50802 0.24194
 Zr1419 Zr 0.72065 0.48688 0.22072
 O1420 O 0.74207 0.46415 0.24165
 Zr1421 Zr 0.72097 0.52901 0.26271
 O1422 O 0.74194 0.50782 0.28574
 Zr1423 Zr 0.77834 0.47169 0.23600
 O1424 O 0.75697 0.49240 0.21249
 Zr1425 Zr 0.77825 0.51364 0.27829
 O1426 O 0.75726 0.53675 0.25695
 Zr1427 Zr 0.73641 0.47139 0.27805
 O1428 O 0.71297 0.49257 0.25715
 O1429 O 0.72669 0.52303 0.22655
 O1430 O 0.77267 0.47729 0.27244
 C1431 C 0.73225 0.57382 0.23122
 C1432 C 0.73124 0.51806 0.17582
 C1433 C 0.67598 0.51812 0.23183
 C1434 C 0.76963 0.42751 0.26807
 C1435 C 0.82223 0.48091 0.26890
 C1436 C 0.76865 0.48108 0.32237
 H1437 H 0.80252 0.51181 0.23798
 H1438 H 0.73796 0.51172 0.30252
 H1439 H 0.71644 0.53326 0.21640
 H1440 H 0.73845 0.44733 0.23748
 H1441 H 0.77161 0.45043 0.19549
 H1442 H 0.73445 0.46078 0.18514
 H1443 H 0.76427 0.53946 0.31430
 H1444 H 0.73766 0.56286 0.28927
 H1445 H 0.81531 0.46306 0.20917
 H1446 H 0.78953 0.53746 0.18307
 H1447 H 0.70996 0.48538 0.31345
 H1448 H 0.68757 0.51263 0.28975
 H1449 H 0.78903 0.56256 0.23830
 H1450 H 0.81388 0.53979 0.26419
 H1451 H 0.68706 0.46033 0.23772
 H1452 H 0.71103 0.43517 0.26372
 O1453 O 0.50147 0.18607 0.71885
 O1454 O 0.46069 0.19363 0.72204
 O1455 O 0.53013 0.24926 0.68647
 O1456 O 0.53094 0.28857 0.69390
 O1457 O 0.56374 0.21922 0.74909
 O1458 O 0.55484 0.22067 0.79077
 O1459 O 0.46848 0.31213 0.75155
 O1460 O 0.47305 0.30551 0.71094
 O1461 O 0.43741 0.25107 0.78096
 O1462 O 0.44583 0.20807 0.77924
 O1463 O 0.49812 0.28020 0.81302
 O1464 O 0.54065 0.27935 0.80494
 O1465 O 0.49720 0.31218 0.78051
 O1466 O 0.54152 0.30343 0.77825
 O1467 O 0.46959 0.25118 0.81305
 O1468 O 0.47225 0.20723 0.80366
 O1469 O 0.43746 0.28041 0.75273
 O1470 O 0.44529 0.27267 0.70946
 O1471 O 0.52983 0.18580 0.74823
 O1472 O 0.52786 0.19458 0.79074
 O1473 O 0.56381 0.24819 0.72045
 O1474 O 0.55394 0.29137 0.72457
 O1475 O 0.50199 0.21978 0.68628
 O1476 O 0.45893 0.22486 0.69575
 Zr1477 Zr 0.48709 0.22078 0.72089
 O1478 O 0.46412 0.24140 0.74241
 Zr1479 Zr 0.52919 0.26286 0.72155
 O1480 O 0.50757 0.28555 0.74236
 Zr1481 Zr 0.52894 0.22048 0.76322
 O1482 O 0.50798 0.24164 0.78626
 Zr1483 Zr 0.47131 0.27779 0.73666
 O1484 O 0.49286 0.25728 0.71327
 Zr1485 Zr 0.47167 0.23574 0.77875
 O1486 O 0.49266 0.21272 0.75732
 Zr1487 Zr 0.51336 0.27812 0.77873
 O1488 O 0.53690 0.25693 0.75794
 O1489 O 0.52325 0.22665 0.72707
 O1490 O 0.47711 0.27214 0.77308
 C1491 C 0.51790 0.17585 0.73123
 C1492 C 0.51831 0.23240 0.67625
 C1493 C 0.57388 0.23150 0.73257
 C1494 C 0.48017 0.32205 0.76867
 C1495 C 0.42756 0.26838 0.76956
 C1496 C 0.48124 0.26831 0.82296
 H1497 H 0.44734 0.23755 0.73842
 H1498 H 0.51199 0.23775 0.80303
 H1499 H 0.53350 0.21655 0.71678
 H1500 H 0.51111 0.30241 0.73837
 H1501 H 0.47822 0.29800 0.69576
 H1502 H 0.51864 0.30074 0.69743
 H1503 H 0.48582 0.20992 0.81469
 H1504 H 0.51224 0.18637 0.78933
 H1505 H 0.43394 0.28627 0.71017
 H1506 H 0.46043 0.21224 0.68334
 H1507 H 0.54023 0.26405 0.81380
 H1508 H 0.56231 0.23673 0.79052
 H1509 H 0.46108 0.18684 0.73838
 H1510 H 0.43626 0.20935 0.76441
 H1511 H 0.56346 0.28843 0.73921
 H1512 H 0.53844 0.31473 0.76500
 O1513 O 0.25169 0.78184 0.43642
 O1514 O 0.21084 0.77866 0.44410
 O1515 O 0.28096 0.81457 0.49875
 O1516 O 0.27974 0.80505 0.54145
 O1517 O 0.31402 0.75223 0.46976
 O1518 O 0.30523 0.71041 0.47148
 O1519 O 0.21872 0.74935 0.56244
 O1520 O 0.22362 0.78945 0.55666
 O1521 O 0.18775 0.71999 0.50157
 O1522 O 0.19618 0.72170 0.45847
 O1523 O 0.24830 0.68817 0.53075
 O1524 O 0.29146 0.69674 0.52928
 O1525 O 0.24764 0.72066 0.56262
 O1526 O 0.29148 0.72267 0.55432
 O1527 O 0.21974 0.68804 0.50173
 O1528 O 0.22250 0.69720 0.45775
 O1529 O 0.18776 0.74848 0.53072
 O1530 O 0.19603 0.79190 0.52321
 O1531 O 0.28008 0.75255 0.43631
 O1532 O 0.27839 0.71020 0.44521
 O1533 O 0.31414 0.78094 0.49874
 O1534 O 0.30524 0.77860 0.54088
 O1535 O 0.25228 0.81469 0.46980
 O1536 O 0.20922 0.80519 0.47518
 Zr1537 Zr 0.23735 0.78007 0.47114
 O1538 O 0.21443 0.75858 0.49186
 Zr1539 Zr 0.27945 0.77980 0.51323
 O1540 O 0.25800 0.75882 0.53585
 Zr1541 Zr 0.27927 0.73784 0.47106
 O1542 O 0.25827 0.71476 0.49213
 Zr1543 Zr 0.22172 0.76446 0.52822
 O1544 O 0.24312 0.78801 0.50762
 Zr1545 Zr 0.22197 0.72224 0.48620
 O1546 O 0.24300 0.74362 0.46320
 Zr1547 Zr 0.26372 0.72243 0.52857
 O1548 O 0.28719 0.74337 0.50751
 O1549 O 0.27349 0.77399 0.47707
 O1550 O 0.22748 0.72804 0.52256
 C1551 C 0.26812 0.76943 0.42628
 C1552 C 0.26895 0.82472 0.48202
 C1553 C 0.32417 0.76884 0.48199
 C1554 C 0.23045 0.73232 0.57239
 C1555 C 0.17790 0.73149 0.51881
 C1556 C 0.23132 0.67823 0.51892
 H1557 H 0.19764 0.76253 0.48803
 H1558 H 0.26225 0.69799 0.48824
 H1559 H 0.28374 0.78416 0.46687
 H1560 H 0.26158 0.76297 0.55268
 H1561 H 0.22837 0.80494 0.54955
 H1562 H 0.26555 0.81535 0.53930
 H1563 H 0.23599 0.68612 0.46053
 H1564 H 0.26267 0.71128 0.43716
 H1565 H 0.18466 0.79120 0.53678
 H1566 H 0.21068 0.81751 0.46249
 H1567 H 0.29006 0.68689 0.51464
 H1568 H 0.31267 0.71082 0.48755
 H1569 H 0.21131 0.76232 0.43728
 H1570 H 0.18642 0.73637 0.45993
 H1571 H 0.31309 0.76278 0.53974
 H1572 H 0.28912 0.73676 0.56476
 O1573 O 0.25124 0.28104 0.93690
 O1574 O 0.21042 0.27775 0.94464
 O1575 O 0.28060 0.31371 0.99919
 O1576 O 0.27968 0.30415 1.04181
 O1577 O 0.31364 0.25125 0.97006
 O1578 O 0.30478 0.20949 0.97164
 O1579 O 0.21861 0.24839 1.06299
 O1580 O 0.22353 0.28848 1.05727
 O1581 O 0.18745 0.21913 1.00222
 O1582 O 0.19569 0.22076 0.95917
 O1583 O 0.24827 0.18723 1.03109
 O1584 O 0.29135 0.19593 1.02960
 O1585 O 0.24754 0.21970 1.06305
 O1586 O 0.29136 0.22180 1.05466
 O1587 O 0.21958 0.18710 1.00221
 O1588 O 0.22206 0.19636 0.95825
 O1589 O 0.18754 0.24767 1.03132
 O1590 O 0.19590 0.29106 1.02387
 O1591 O 0.27963 0.25175 0.93668
 O1592 O 0.27785 0.20938 0.94550
 O1593 O 0.31388 0.27998 0.99902
 O1594 O 0.30508 0.27770 1.04117
 O1595 O 0.25178 0.31385 0.97038
 O1596 O 0.20878 0.30424 0.97573
 Zr1597 Zr 0.23696 0.27919 0.97165
 O1598 O 0.21413 0.25769 0.99244
 Zr1599 Zr 0.27922 0.27891 1.01359
 O1600 O 0.25784 0.25793 1.03628
 Zr1601 Zr 0.27887 0.23697 0.97139
 O1602 O 0.25796 0.21389 0.99254
 Zr1603 Zr 0.22154 0.26355 1.02878
 O1604 O 0.24287 0.28711 1.00811
 Zr1605 Zr 0.22163 0.22135 0.98675
 O1606 O 0.24257 0.24274 0.96367
 Zr1607 Zr 0.26354 0.22155 1.02897
 O1608 O 0.28693 0.24249 1.00782
 O1609 O 0.27313 0.27313 0.97745
 O1610 O 0.22726 0.22713 1.02310
 C1611 C 0.26766 0.26865 0.92670
 C1612 C 0.26845 0.32390 0.98258
 C1613 C 0.32385 0.26781 0.98229
 C1614 C 0.23037 0.23135 1.07288
 C1615 C 0.17763 0.23071 1.01943
 C1616 C 0.23131 0.17726 1.01928
 H1617 H 0.19733 0.26165 0.98866
 H1618 H 0.26195 0.19713 0.98862
 H1619 H 0.28337 0.28332 0.96725
 H1620 H 0.26147 0.26207 1.05311
 H1621 H 0.22829 0.30398 1.05019
 H1622 H 0.26541 0.31437 1.03983
 H1623 H 0.23562 0.18534 0.96092
 H1624 H 0.26213 0.21055 0.93746
 H1625 H 0.18456 0.29038 1.03747
 H1626 H 0.21019 0.31657 0.96304
 H1627 H 0.28995 0.18610 1.01494
 H1628 H 0.31229 0.20986 0.98768
 H1629 H 0.21091 0.26142 0.93779
 H1630 H 0.18609 0.23554 0.96053
 H1631 H 0.31289 0.26186 1.04004
 H1632 H 0.28898 0.23585 1.06516
 C1633 C 0.28042 0.38209 0.77983
 C1634 C 0.27456 0.40201 0.77403
 C1635 C 0.28148 -0.11819 0.28005
 C1636 C 0.27566 -0.09826 0.27424
 C1637 C 0.78247 0.88437 0.78259
 C1638 C 0.77620 0.90396 0.77611
 C1639 C 0.46832 0.86630 0.28167
 C1640 C 0.47425 0.84650 0.27552
 C1641 C -0.03286 0.86615 0.78275
 C1642 C -0.02658 0.84657 0.77625
 C1643 C -0.03192 -0.11697 -0.03145
 C1644 C -0.02583 -0.09726 -0.02516
 C1645 C -0.03123 0.38195 0.46885
 C1646 C -0.02546 0.40190 0.47473
 C1647 C 0.46862 -0.11615 0.46883
 C1648 C 0.47464 -0.09634 0.47496
 C1649 C 0.46916 0.38112 -0.03019
 C1650 C 0.47481 0.40112 -0.02439
 C1651 C 0.78090 0.36788 0.47008
 C1652 C 0.77522 0.34794 0.47598
 C1653 C 0.78269 0.86623 -0.03167
 C1654 C 0.77628 0.84659 -0.02550
 C1655 C 0.78047 0.28059 0.38242
 C1656 C 0.77444 0.27467 0.40224
 C1657 C 0.78205 0.78384 -0.11578
 C1658 C 0.77568 0.77741 -0.09621
 C1659 C 0.27983 0.46986 0.86808
 C1660 C 0.27413 0.47547 0.84806
 C1661 C 0.28182 -0.03030 0.36793
 C1662 C 0.27568 -0.02457 0.34805
 C1663 C -0.03292 -0.03375 -0.11510
 C1664 C -0.02661 -0.02744 -0.09545
 C1665 C -0.03082 0.46876 0.38147
 C1666 C -0.02483 0.47470 0.40133
 C1667 C 0.46905 -0.03263 0.38424
 C1668 C 0.47496 -0.02649 0.40405
 C1669 C 0.46926 0.46864 -0.11826
 C1670 C 0.47499 0.47441 -0.09827
 C1671 C 0.46925 0.78252 0.36647
 C1672 C 0.47527 0.77636 0.34670
 C1673 C -0.03267 0.78228 0.86578
 C1674 C -0.02649 0.77625 0.84603
 C1675 C 0.38455 0.78193 0.28203
 C1676 C 0.40440 0.77598 0.27621
 C1677 C -0.11593 0.78254 0.78295
 C1678 C -0.09638 0.77611 0.77665
 C1679 C 0.86792 0.27971 0.46953
 C1680 C 0.84807 0.27383 0.47544
 C1681 C 0.86536 0.78105 -0.03303
 C1682 C 0.84563 0.77502 -0.02692
 C1683 C -0.11579 -0.03316 -0.03235
 C1684 C -0.09616 -0.02681 -0.02609
 C1685 C -0.11847 0.47014 0.46897
 C1686 C -0.09851 0.47589 0.47472
 C1687 C 0.38441 -0.03117 0.46736
 C1688 C 0.40422 -0.02519 0.47344
 C1689 C 0.38133 0.46991 -0.03051
 C1690 C 0.40137 0.47555 -0.02497
 C1691 C 0.36757 0.47018 0.78058
 C1692 C 0.34767 0.47609 0.77488
 C1693 C 0.36827 -0.03077 0.28047
 C1694 C 0.34844 -0.02478 0.27461
 C1695 C 0.13409 0.53236 0.71845
 C1696 C 0.15383 0.52641 0.72468
 C1697 C 0.13426 0.03070 0.21871
 C1698 C 0.15409 0.02485 0.22475
 C1699 C 0.61837 0.72018 0.22058
 C1700 C 0.59839 0.72578 0.22628
 C1701 C 0.11682 0.71948 0.71967
 C1702 C 0.09703 0.72541 0.72569
 C1703 C 0.63380 0.21920 0.53113
 C1704 C 0.65373 0.22490 0.52535
 C1705 C 0.63188 0.71965 0.02946
 C1706 C 0.65173 0.72556 0.02362
 C1707 C 0.11744 0.03025 0.03004
 C1708 C 0.09756 0.02443 0.02417
 C1709 C 0.11511 0.53261 0.53147
 C1710 C 0.09547 0.52635 0.52521
 C1711 C 0.61781 0.03171 0.53017
 C1712 C 0.59792 0.02578 0.52438
 C1713 C 0.61546 0.53130 0.03060
 C1714 C 0.59558 0.52546 0.02473
 C1715 C 0.03103 0.02931 0.11838
 C1716 C 0.02500 0.02347 0.09849
 C1717 C 0.03224 0.53122 0.61517
 C1718 C 0.02619 0.52512 0.59538
 C1719 C 0.53041 0.03089 0.61832
 C1720 C 0.52464 0.02505 0.59835
 C1721 C 0.53084 0.53062 0.11621
 C1722 C 0.52495 0.52470 0.09631
 C1723 C 0.21766 0.53194 0.63403
 C1724 C 0.22385 0.52571 0.65372
 C1725 C 0.21815 0.03082 0.13400
 C1726 C 0.22410 0.02477 0.15382
 C1727 C 0.71834 0.21904 0.61650
 C1728 C 0.72419 0.22487 0.59659
 C1729 C 0.71982 0.72056 0.11774
 C1730 C 0.72536 0.72620 0.09769
 C1731 C 0.53056 0.71966 0.13240
 C1732 C 0.52490 0.72558 0.15234
 C1733 C 0.03036 0.72025 0.63207
 C1734 C 0.02430 0.72630 0.65185
 C1735 C 0.52985 0.63224 0.21958
 C1736 C 0.52415 0.65221 0.22539
 C1737 C 0.02995 0.63287 0.71849
 C1738 C 0.02388 0.65268 0.72443
 C1739 C 0.03002 0.11715 0.03109
 C1740 C 0.02409 0.09721 0.02535
 C1741 C 0.03151 0.61607 0.53112
 C1742 C 0.02531 0.59631 0.52504
 C1743 C 0.52993 0.11854 0.53007
 C1744 C 0.52418 0.09852 0.52448
 C1745 C 0.53116 0.61549 0.03160
 C1746 C 0.52518 0.59561 0.02571
 C1747 C 0.71894 0.13401 0.53289
 C1748 C 0.72502 0.15386 0.52700
 C1749 C 0.71893 0.63242 0.02957
 C1750 C 0.72474 0.65236 0.02382
 C1751 C 0.21792 0.61594 0.71772
 C1752 C 0.22401 0.59618 0.72383
 C1753 C 0.21901 0.11529 0.21704
 C1754 C 0.22514 0.09554 0.22315
 C1755 C 0.72040 1.11808 0.72009
 C1756 C 0.72611 1.09811 0.72582
 C1757 C 0.72053 0.61804 0.21965
 C1758 C 0.72616 0.59798 0.22517
 C1759 C 0.52998 0.13183 0.71909
 C1760 C 0.52417 0.15179 0.72489
 C1761 C 1.03064 0.13168 0.21915
 C1762 C 1.02475 0.15161 0.22491
 C1763 C 0.21809 0.63483 0.53192
 C1764 C 0.22438 0.65452 0.52579
 C1765 C 0.21875 0.13355 1.03187
 C1766 C 0.22468 0.15341 1.02595
 C1767 C 0.21754 0.71918 0.61582
 C1768 C 0.22357 0.72543 0.59610
 C1769 C 0.21760 0.21812 1.11634
 C1770 C 0.22356 0.22441 1.09660
 C1771 C 0.71898 0.53009 0.13186
 C1772 C 0.72485 0.52431 0.15178
 C1773 C 0.71977 1.03038 0.63259
 C1774 C 0.72540 1.02432 0.65251
 C1775 C 0.53032 0.22095 0.63209
 C1776 C 0.52456 0.22650 0.65210
 C1777 C 1.03077 0.21962 0.13171
 C1778 C 1.02491 0.22542 0.15163
 C1779 C 0.61788 0.21977 0.72054
 C1780 C 0.59795 0.22537 0.72638
 C1781 C 1.11771 0.21861 0.21941
 C1782 C 1.09794 0.22452 0.22550
 C1783 C 0.13446 0.71834 0.53156
 C1784 C 0.15419 0.72452 0.52556
 C1785 C 0.13402 0.21801 1.03205
 C1786 C 0.15385 0.22393 1.02612
 C1787 C 0.63197 0.53002 0.21985
 C1788 C 0.65191 0.52433 0.22566
 C1789 C 0.63191 1.03084 0.72017
 C1790 C 0.65180 1.02506 0.72610
 C1791 C 0.86571 0.46800 0.28175
 C1792 C 0.84595 0.47409 0.27574
 C1793 C 0.86490 0.96726 0.78360
 C1794 C 0.84531 0.97362 0.77731
 C1795 C 0.38397 0.28101 0.78224
 C1796 C 0.40380 0.27505 0.77636
 C1797 C 0.88454 0.28102 0.28195
 C1798 C 0.90427 0.27482 0.27600
 C1799 C 0.36796 0.78123 0.46975
 C1800 C 0.34814 0.77523 0.47565
 C1801 C 0.36784 0.27964 0.97024
 C1802 C 0.34791 0.27394 0.97605
 C1803 C 0.78120 0.46867 0.36615
 C1804 C 0.77527 0.47448 0.34625
 C1805 C 0.78168 0.96757 0.86640
 C1806 C 0.77526 0.97381 0.84678
 C1807 C 0.28035 0.78126 0.38229
 C1808 C 0.27442 0.77561 0.40222
 C1809 C 0.27987 0.28052 0.88271
 C1810 C 0.27394 0.27487 0.90264
 C1811 C 0.46879 0.28082 0.86674
 C1812 C 0.47464 0.27493 0.84684
 C1813 C 0.96866 0.28165 0.36573
 C1814 C 0.97461 0.27566 0.34589
 C1815 C 0.46773 0.36580 0.78128
 C1816 C 0.47352 0.34590 0.77534
 C1817 C 0.96834 0.36576 0.28113
 C1818 C 0.97445 0.34599 0.27509
 C1819 C 0.28149 0.86854 0.46976
 C1820 C 0.27546 0.84870 0.47568
 C1821 C 0.28033 0.36802 0.97075
 C1822 C 0.27468 0.34801 0.97645
 C1823 C 0.78259 0.38400 0.28100
 C1824 C 0.77651 0.40376 0.27489
   
