data_POSCAR
  _audit_creation_date              2014-09-24
  _audit_creation_method            'ToBaCCo'
  _symmetry_space_group_name_H-M    'P1'
  _symmetry_Int_Tables_number       1
  _symmetry_cell_setting            triclinic
  loop_
  _symmetry_equiv_pos_as_xyz
 x,y,z
_cell_length_a 69.5922
_cell_length_b 69.5660
_cell_length_c 69.6113
_cell_angle_alpha 90.010300
_cell_angle_beta 90.011500
_cell_angle_gamma 90.011200
loop_
  _atom_site_label
  _atom_site_type_symbol
  _atom_site_fract_x
  _atom_site_fract_y
  _atom_site_fract_z
O1 O 0.35046 0.32456 -0.01906
 O2 O 0.32408 0.35087 0.01844
 O3 O 0.35061 0.32445 0.01826
 O4 O 0.32398 0.35103 -0.01888
 O5 O 0.30158 0.32864 -0.01893
 O6 O 0.32825 0.30197 0.01826
 O7 O 0.30167 0.32844 0.01843
 O8 O 0.32809 0.30210 -0.01910
 Cu9 Cu 0.33952 0.33997 -0.00031
 Cu10 Cu 0.31266 0.31304 -0.00034
 C11 C 0.34387 0.30877 -0.02543
 C12 C 0.30830 0.34423 0.02479
 C13 C 0.34406 0.30861 0.02456
 C14 C 0.30814 0.34450 -0.02523
 O15 O 0.64958 0.67550 -0.01905
 O16 O 0.67594 0.64913 0.01842
 O17 O 0.64945 0.67560 0.01827
 O18 O 0.67602 0.64898 -0.01889
 O19 O 0.69845 0.67133 -0.01893
 O20 O 0.67185 0.69803 0.01828
 O21 O 0.69838 0.67152 0.01843
 O22 O 0.67199 0.69792 -0.01909
 Cu23 Cu 0.66051 0.66007 -0.00032
 Cu24 Cu 0.68741 0.68695 -0.00033
 C25 C 0.65620 0.69128 -0.02542
 C26 C 0.69172 0.65574 0.02478
 C27 C 0.65604 0.69142 0.02458
 C28 C 0.69187 0.65549 -0.02524
 O29 O 0.64958 0.32446 1.01902
 O30 O 0.67601 0.35086 0.98161
 O31 O 0.64949 0.32442 0.98170
 O32 O 0.67605 0.35096 1.01892
 O33 O 0.69846 0.32859 1.01895
 O34 O 0.67185 0.30196 0.98168
 O35 O 0.69842 0.32845 0.98159
 O36 O 0.67197 0.30202 1.01905
 Cu37 Cu 0.66054 0.33992 1.00031
 Cu38 Cu 0.68742 0.31301 1.00032
 C39 C 0.65618 0.30867 1.02537
 C40 C 0.69179 0.34424 0.97525
 C41 C 0.65605 0.30860 0.97537
 C42 C 0.69188 0.34443 1.02527
 O43 O 0.35066 0.67539 1.01913
 O44 O 0.32421 0.64900 0.98171
 O45 O 0.35073 0.67545 0.98181
 O46 O 0.32418 0.64889 1.01902
 O47 O 0.30177 0.67127 1.01907
 O48 O 0.32837 0.69791 0.98181
 O49 O 0.30180 0.67142 0.98171
 O50 O 0.32828 0.69783 1.01918
 Cu51 Cu 0.33968 0.65994 1.00042
 Cu52 Cu 0.31281 0.68685 1.00045
 C53 C 0.34407 0.69119 1.02549
 C54 C 0.30842 0.65562 0.97537
 C55 C 0.34417 0.69127 0.97550
 C56 C 0.30834 0.65542 1.02538
 O57 O -0.01892 0.35044 0.32430
 O58 O 0.01860 0.32415 0.35067
 O59 O 0.01841 0.35066 0.32422
 O60 O -0.01872 0.32398 0.35078
 O61 O -0.01870 0.30155 0.32843
 O62 O 0.01848 0.32826 0.30180
 O63 O 0.01867 0.30171 0.32829
 O64 O -0.01889 0.32803 0.30188
 Cu65 Cu -0.00016 0.33955 0.33973
 Cu66 Cu -0.00010 0.31264 0.31285
 C67 C -0.02527 0.34381 0.30852
 C68 C 0.02500 0.30838 0.34407
 C69 C 0.02474 0.34410 0.30841
 C70 C -0.02503 0.30812 0.34426
 O71 O 0.01863 0.67571 0.64928
 O72 O -0.01890 0.64946 0.67568
 O73 O -0.01869 0.67587 0.64914
 O74 O 0.01843 0.64925 0.67577
 O75 O 0.01850 0.67168 0.69816
 O76 O -0.01867 0.69834 0.67145
 O77 O -0.01887 0.67190 0.69805
 O78 O 0.01870 0.69819 0.67162
 Cu79 Cu -0.00014 0.66032 0.66023
 Cu80 Cu -0.00008 0.68728 0.68706
 C81 C 0.02502 0.69150 0.65586
 C82 C -0.02525 0.65612 0.69144
 C83 C -0.02500 0.69174 0.65563
 C84 C 0.02476 0.65583 0.69157
 O85 O 1.01889 0.64944 0.32433
 O86 O 0.98143 0.67575 0.35077
 O87 O 0.98156 0.64927 0.32430
 O88 O 1.01875 0.67587 0.35085
 O89 O 1.01873 0.69832 0.32853
 O90 O 0.98149 0.67168 0.30190
 O91 O 0.98136 0.69821 0.32842
 O92 O 1.01886 0.67187 0.30194
 Cu93 Cu 1.00016 0.66034 0.33980
 Cu94 Cu 1.00011 0.68727 0.31295
 C95 C 1.02522 0.65608 0.30856
 C96 C 0.97505 0.69154 0.34419
 C97 C 0.97522 0.65585 0.30850
 C98 C 1.02508 0.69173 0.34435
 O99 O 0.98126 0.32434 0.64893
 O100 O 1.01872 0.35065 0.67541
 O101 O 1.01859 0.32422 0.64888
 O102 O 0.98139 0.35082 0.67542
 O103 O 0.98131 0.32840 0.69782
 O104 O 1.01854 0.30176 0.67119
 O105 O 1.01868 0.32821 0.69779
 O106 O 0.98118 0.30188 0.67128
 Cu107 Cu 1.00000 0.33975 0.65993
 Cu108 Cu 0.99992 0.31281 0.68676
 C109 C 0.97487 0.30855 0.65550
 C110 C 1.02505 0.34400 0.69119
 C111 C 1.02490 0.30835 0.65538
 C112 C 0.97505 0.34424 0.69122
 O113 O 0.35060 0.01888 0.32431
 O114 O 0.32423 -0.01862 0.35066
 O115 O 0.35075 -0.01846 0.32424
 O116 O 0.32416 0.01872 0.35082
 O117 O 0.30172 0.01874 0.32844
 O118 O 0.32837 -0.01848 0.30180
 O119 O 0.30181 -0.01864 0.32826
 O120 O 0.32821 0.01890 0.30189
 Cu121 Cu 0.33968 0.00013 0.33975
 Cu122 Cu 0.31278 0.00013 0.31285
 C123 C 0.34399 0.02525 0.30854
 C124 C 0.30846 -0.02499 0.34404
 C125 C 0.34419 -0.02478 0.30842
 C126 C 0.30834 0.02503 0.34426
 O127 O 0.64941 0.01889 0.67564
 O128 O 0.67581 -0.01862 0.64934
 O129 O 0.64929 -0.01845 0.67576
 O130 O 0.67585 0.01872 0.64914
 O131 O 0.69829 0.01880 0.67152
 O132 O 0.67167 -0.01842 0.69821
 O133 O 0.69823 -0.01858 0.67175
 O134 O 0.67180 0.01897 0.69807
 Cu135 Cu 0.66035 0.00013 0.66023
 Cu136 Cu 0.68725 0.00020 0.68713
 C137 C 0.65602 0.02528 0.69141
 C138 C 0.69160 -0.02496 0.65598
 C139 C 0.65586 -0.02474 0.69159
 C140 C 0.69167 0.02506 0.65570
 O141 O 0.35049 0.98116 0.67584
 O142 O 0.32405 1.01857 0.64944
 O143 O 0.35057 1.01850 0.67586
 O144 O 0.32404 0.98123 0.64933
 O145 O 0.30160 0.98120 0.67170
 O146 O 0.32820 1.01851 0.69830
 O147 O 0.30164 1.01858 0.67183
 O148 O 0.32810 0.98113 0.69826
 Cu149 Cu 0.33953 0.99986 0.66038
 Cu150 Cu 0.31264 0.99985 0.68727
 C151 C 0.34389 0.97480 0.69162
 C152 C 0.30827 1.02492 0.65605
 C153 C 0.34400 1.02483 0.69167
 C154 C 0.30823 0.97490 0.65590
 O155 O 0.64954 0.98146 0.32450
 O156 O 0.67600 1.01887 0.35092
 O157 O 0.64947 1.01880 0.32449
 O158 O 0.67599 0.98153 0.35102
 O159 O 0.69843 0.98151 0.32865
 O160 O 0.67184 1.01882 0.30206
 O161 O 0.69840 1.01889 0.32855
 O162 O 0.67194 0.98143 0.30209
 Cu163 Cu 0.66051 1.00017 0.33997
 Cu164 Cu 0.68740 1.00016 0.31309
 C165 C 0.65615 0.97511 0.30872
 C166 C 0.69181 1.02525 0.34436
 C167 C 0.65604 1.02513 0.30868
 C168 C 0.69180 0.97520 0.34445
 O169 O 0.82450 0.85050 0.51915
 O170 O 0.85088 0.82412 0.48170
 O171 O 0.82444 0.85063 0.48183
 O172 O 0.85101 0.82405 0.51901
 O173 O 0.82863 0.80159 0.51902
 O174 O 0.80199 0.82824 0.48180
 O175 O 0.82848 0.80168 0.48166
 O176 O 0.80207 0.82809 0.51916
 Cu177 Cu 0.83995 0.83957 0.50043
 Cu178 Cu 0.81305 0.81265 0.50041
 C179 C 0.80871 0.84388 0.52550
 C180 C 0.84426 0.80833 0.47533
 C181 C 0.80862 0.84406 0.47551
 C182 C 0.84445 0.80822 0.52532
 O183 O 0.14913 0.17586 0.48162
 O184 O 0.17547 0.14947 0.51910
 O185 O 0.14897 0.17594 0.51894
 O186 O 0.17556 0.14934 0.48178
 O187 O 0.19801 0.17173 0.48178
 O188 O 0.17135 0.19838 0.51899
 O189 O 0.19790 0.17187 0.51914
 O190 O 0.17153 0.19829 0.48162
 Cu191 Cu 0.16004 0.16041 0.50036
 Cu192 Cu 0.18694 0.18732 0.50039
 C193 C 0.15575 0.19164 0.47527
 C194 C 0.19125 0.15608 0.52547
 C195 C 0.15553 0.19176 0.52526
 C196 C 0.19139 0.15591 0.47548
 O197 O 0.14923 0.82400 0.51832
 O198 O 0.17564 0.85043 0.48093
 O199 O 0.14913 0.82397 0.48100
 O200 O 0.17567 0.85051 0.51824
 O201 O 0.19811 0.82812 0.51826
 O202 O 0.17150 0.80152 0.48097
 O203 O 0.19806 0.82802 0.48090
 O204 O 0.17161 0.80156 0.51833
 Cu205 Cu 0.16017 0.83947 0.49962
 Cu206 Cu 0.18707 0.81256 0.49961
 C207 C 0.15583 0.80820 0.52467
 C208 C 0.19143 0.84382 0.47458
 C209 C 0.15569 0.80815 0.47467
 C210 C 0.19148 0.84393 0.52457
 O211 O 0.82432 0.14927 0.48061
 O212 O 0.85075 0.17575 0.51799
 O213 O 0.82430 0.14923 0.51793
 O214 O 0.85084 0.17573 0.48068
 O215 O 0.82847 0.19818 0.48063
 O216 O 0.80186 0.17162 0.51793
 O217 O 0.82836 0.19818 0.51799
 O218 O 0.80190 0.17168 0.48057
 Cu219 Cu 0.83979 0.16025 0.49930
 Cu220 Cu 0.81290 0.18716 0.49927
 C221 C 0.80853 0.15587 0.47426
 C222 C 0.84414 0.19155 0.52433
 C223 C 0.80849 0.15581 0.52425
 C224 C 0.84428 0.19155 0.47434
 O225 O 0.48120 0.85055 0.82439
 O226 O 0.51869 0.82415 0.85071
 O227 O 0.51852 0.85069 0.82431
 O228 O 0.48136 0.82409 0.85088
 O229 O 0.48131 0.80165 0.82850
 O230 O 0.51852 0.82832 0.80185
 O231 O 0.51868 0.80174 0.82831
 O232 O 0.48115 0.82816 0.80196
 Cu233 Cu 0.49994 0.83961 0.83982
 Cu234 Cu 0.49991 0.81272 0.81290
 C235 C 0.47482 0.84394 0.80861
 C236 C 0.52504 0.80837 0.84408
 C237 C 0.52482 0.84413 0.80848
 C238 C 0.47504 0.80826 0.84432
 O239 O 0.51871 0.17589 0.14941
 O240 O 0.48123 0.14951 0.17577
 O241 O 0.48138 0.17593 0.14923
 O242 O 0.51856 0.14940 0.17587
 O243 O 0.51856 0.17182 0.19828
 O244 O 0.48133 0.19841 0.17158
 O245 O 0.48119 0.17194 0.19816
 O246 O 0.51870 0.19835 0.17177
 Cu247 Cu 0.49997 0.16043 0.16033
 Cu248 Cu 0.49994 0.18738 0.18719
 C249 C 0.52506 0.19168 0.15601
 C250 C 0.47486 0.15614 0.19153
 C251 C 0.47506 0.19176 0.15577
 C252 C 0.52487 0.15599 0.19168
 O253 O 0.51878 0.14963 0.82411
 O254 O 0.48137 0.17606 0.85051
 O255 O 0.48145 0.14954 0.82409
 O256 O 0.51870 0.17608 0.85063
 O257 O 0.51873 0.19853 0.82826
 O258 O 0.48144 0.17192 0.80165
 O259 O 0.48136 0.19849 0.82813
 O260 O 0.51881 0.17204 0.80170
 Cu261 Cu 0.50008 0.16059 0.83958
 Cu262 Cu 0.50009 0.18750 0.81269
 C263 C 0.52514 0.15624 0.80833
 C264 C 0.47502 0.19185 0.84390
 C265 C 0.47513 0.15611 0.80828
 C266 C 0.52503 0.19190 0.84406
 O267 O 0.48158 0.82421 0.14939
 O268 O 0.51900 0.85069 0.17577
 O269 O 0.51891 0.82422 0.14927
 O270 O 0.48167 0.85075 0.17581
 O271 O 0.48169 0.82838 0.19826
 O272 O 0.51896 0.80178 0.17165
 O273 O 0.51906 0.82829 0.19819
 O274 O 0.48160 0.80179 0.17179
 Cu275 Cu 0.50029 0.83971 0.16032
 Cu276 Cu 0.50033 0.81281 0.18722
 C277 C 0.47525 0.80842 0.15601
 C278 C 0.52537 0.84409 0.19156
 C279 C 0.52525 0.80840 0.15583
 C280 C 0.47537 0.84418 0.19163
 O281 O 0.85055 0.51897 0.82427
 O282 O 0.82430 0.48144 0.85066
 O283 O 0.85075 0.48163 0.82417
 O284 O 0.82415 0.51878 0.85081
 O285 O 0.80167 0.51876 0.82847
 O286 O 0.82832 0.48157 0.80178
 O287 O 0.80183 0.48138 0.82832
 O288 O 0.82812 0.51895 0.80188
 Cu289 Cu 0.83968 0.50021 0.83971
 Cu290 Cu 0.81273 0.50016 0.81287
 C291 C 0.84390 0.52533 0.80850
 C292 C 0.80851 0.47505 0.84408
 C293 C 0.84416 0.47530 0.80836
 C294 C 0.80831 0.52507 0.84427
 O295 O 0.14942 0.51895 0.17566
 O296 O 0.17572 0.48143 0.14927
 O297 O 0.14922 0.48161 0.17571
 O298 O 0.17587 0.51877 0.14916
 O299 O 0.19831 0.51874 0.17153
 O300 O 0.17160 0.48153 0.19814
 O301 O 0.19815 0.48136 0.17165
 O302 O 0.17182 0.51892 0.19808
 Cu303 Cu 0.16032 0.50019 0.16021
 Cu304 Cu 0.18722 0.50013 0.18710
 C305 C 0.15605 0.52529 0.19144
 C306 C 0.19149 0.47504 0.15587
 C307 C 0.15577 0.47527 0.19152
 C308 C 0.19170 0.52506 0.15573
 O309 O 0.85053 0.48104 0.17577
 O310 O 0.82421 0.51852 0.14934
 O311 O 0.85069 0.51839 0.17581
 O312 O 0.82410 0.48117 0.14925
 O313 O 0.80165 0.48119 0.17160
 O314 O 0.82829 0.51845 0.19822
 O315 O 0.80177 0.51857 0.17171
 O316 O 0.82812 0.48106 0.19817
 Cu317 Cu 0.83963 0.49978 0.16031
 Cu318 Cu 0.81270 0.49982 0.18717
 C319 C 0.84389 0.47470 0.19154
 C320 C 0.80843 0.52490 0.15593
 C321 C 0.84412 0.52473 0.19161
 C322 C 0.80828 0.47487 0.15580
 O323 O 0.14925 0.48101 0.82440
 O324 O 0.17560 0.51846 0.85087
 O325 O 0.14911 0.51835 0.82440
 O326 O 0.17568 0.48112 0.85093
 O327 O 0.19814 0.48115 0.82858
 O328 O 0.17150 0.51842 0.80199
 O329 O 0.19804 0.51853 0.82850
 O330 O 0.17166 0.48104 0.80200
 Cu331 Cu 0.16017 0.49973 0.83989
 Cu332 Cu 0.18708 0.49979 0.81302
 C333 C 0.15588 0.47468 0.80862
 C334 C 0.19138 0.52484 0.84429
 C335 C 0.15568 0.52470 0.80860
 C336 C 0.19151 0.47482 0.84437
 C337 C 0.29392 0.38343 0.05976
 C338 C 0.27611 0.37670 0.06622
 C339 C 0.26905 0.35909 0.05954
 C340 C 0.27964 0.34835 0.04627
 C341 C 0.29745 0.35513 0.03948
 C342 C 0.30453 0.37274 0.04649
 C343 C 0.26484 0.38820 0.07919
 C344 C 0.25538 0.39814 0.08975
 C345 C 0.24431 0.41013 0.10178
 C346 C 0.23486 0.42067 0.11175
 C347 C 0.22360 0.43361 0.12330
 C348 C 0.20579 0.44011 0.11660
 C349 C 0.19520 0.45337 0.12734
 C350 C 0.20231 0.46034 0.14494
 C351 C 0.22012 0.45352 0.15168
 C352 C 0.23069 0.44025 0.14091
 H353 H 0.29950 0.39707 0.06481
 H354 H 0.25525 0.35376 0.06442
 H355 H 0.27378 0.33486 0.04115
 H356 H 0.31818 0.37837 0.04157
 H357 H 0.20020 0.43510 0.10297
 H358 H 0.18155 0.45833 0.12174
 H359 H 0.22600 0.45860 0.16516
 H360 H 0.24449 0.43535 0.14620
 C361 C 0.73096 0.64083 0.05954
 C362 C 0.72386 0.62323 0.06622
 C363 C 0.70605 0.61652 0.05974
 C364 C 0.69545 0.62723 0.04647
 C365 C 0.70256 0.64482 0.03947
 C366 C 0.72038 0.65158 0.04626
 C367 C 0.73512 0.61171 0.07919
 C368 C 0.74456 0.60176 0.08976
 C369 C 0.75561 0.58976 0.10179
 C370 C 0.76506 0.57922 0.11177
 C371 C 0.77631 0.56628 0.12332
 C372 C 0.76921 0.55964 0.14092
 C373 C 0.77978 0.54639 0.15171
 C374 C 0.79760 0.53957 0.14498
 C375 C 0.80472 0.54655 0.12739
 C376 C 0.79413 0.55980 0.11665
 H377 H 0.74476 0.64613 0.06443
 H378 H 0.70045 0.60289 0.06479
 H379 H 0.68180 0.62162 0.04154
 H380 H 0.72626 0.66505 0.04116
 H381 H 0.75540 0.56454 0.14620
 H382 H 0.77389 0.54130 0.16518
 H383 H 0.81837 0.54160 0.12181
 H384 H 0.79973 0.56482 0.10302
 C385 C 0.73104 0.35913 0.94051
 C386 C 0.72397 0.37674 0.93384
 C387 C 0.70617 0.38347 0.94032
 C388 C 0.69556 0.37277 0.95359
 C389 C 0.70265 0.35516 0.96058
 C390 C 0.72045 0.34839 0.95379
 C391 C 0.73523 0.38825 0.92087
 C392 C 0.74467 0.39819 0.91029
 C393 C 0.75574 0.41017 0.89825
 C394 C 0.76518 0.42070 0.88826
 C395 C 0.77642 0.43364 0.87669
 C396 C 0.76930 0.44028 0.85910
 C397 C 0.77987 0.45354 0.84831
 C398 C 0.79769 0.46035 0.85503
 C399 C 0.80484 0.45337 0.87261
 C400 C 0.79425 0.44012 0.88336
 H401 H 0.74483 0.35382 0.93562
 H402 H 0.70059 0.39711 0.93528
 H403 H 0.68192 0.37839 0.95852
 H404 H 0.72631 0.33490 0.95889
 H405 H 0.75549 0.43539 0.85384
 H406 H 0.77397 0.45863 0.83485
 H407 H 0.81850 0.45832 0.87818
 H408 H 0.79987 0.43510 0.89698
 C409 C 0.26910 0.64070 0.94069
 C410 C 0.27615 0.62308 0.93402
 C411 C 0.29397 0.61636 0.94048
 C412 C 0.30461 0.62708 0.95372
 C413 C 0.29754 0.64469 0.96071
 C414 C 0.27972 0.65146 0.95393
 C415 C 0.26486 0.61156 0.92108
 C416 C 0.25539 0.60161 0.91052
 C417 C 0.24430 0.58962 0.89850
 C418 C 0.23484 0.57910 0.88851
 C419 C 0.22356 0.56617 0.87695
 C420 C 0.23064 0.55956 0.85933
 C421 C 0.22005 0.54632 0.84853
 C422 C 0.20223 0.53950 0.85526
 C423 C 0.19513 0.54645 0.87287
 C424 C 0.20575 0.55969 0.88363
 H425 H 0.25530 0.64601 0.93582
 H426 H 0.29954 0.60271 0.93544
 H427 H 0.31826 0.62146 0.95864
 H428 H 0.27387 0.66495 0.95903
 H429 H 0.24444 0.56445 0.85405
 H430 H 0.22592 0.54125 0.83505
 H431 H 0.18148 0.54150 0.87845
 H432 H 0.20016 0.56468 0.89727
 C433 C 0.05991 0.29408 0.38334
 C434 C 0.06640 0.27626 0.37666
 C435 C 0.05976 0.26916 0.35905
 C436 C 0.04650 0.27973 0.34827
 C437 C 0.03968 0.29755 0.35501
 C438 C 0.04666 0.30468 0.37260
 C439 C 0.07933 0.26500 0.38821
 C440 C 0.08987 0.25556 0.39820
 C441 C 0.10185 0.24450 0.41024
 C442 C 0.11179 0.23505 0.42082
 C443 C 0.12329 0.22380 0.43380
 C444 C 0.11656 0.20598 0.44027
 C445 C 0.12726 0.19538 0.45355
 C446 C 0.14484 0.20249 0.46057
 C447 C 0.15162 0.22030 0.45377
 C448 C 0.14088 0.23088 0.44048
 H449 H 0.06493 0.29969 0.39697
 H450 H 0.06466 0.25535 0.35377
 H451 H 0.04142 0.27384 0.33480
 H452 H 0.04171 0.31833 0.37820
 H453 H 0.10294 0.20039 0.43522
 H454 H 0.12163 0.18173 0.45849
 H455 H 0.16509 0.22617 0.45889
 H456 H 0.14620 0.24468 0.43560
 C457 C 0.05994 0.70575 0.61657
 C458 C 0.06642 0.72358 0.62323
 C459 C 0.05979 0.73070 0.64082
 C460 C 0.04653 0.72014 0.65162
 C461 C 0.03971 0.70231 0.64490
 C462 C 0.04668 0.69516 0.62732
 C463 C 0.07935 0.73483 0.61166
 C464 C 0.08989 0.74427 0.60167
 C465 C 0.10187 0.75532 0.58963
 C466 C 0.11181 0.76477 0.57905
 C467 C 0.12332 0.77602 0.56608
 C468 C 0.11660 0.79384 0.55960
 C469 C 0.12731 0.80444 0.54633
 C470 C 0.14490 0.79734 0.53934
 C471 C 0.15167 0.77953 0.54614
 C472 C 0.14092 0.76894 0.55941
 H473 H 0.06495 0.70012 0.60295
 H474 H 0.06469 0.74452 0.64609
 H475 H 0.04145 0.72605 0.66508
 H476 H 0.04173 0.68150 0.62175
 H477 H 0.10297 0.79943 0.56464
 H478 H 0.12170 0.81809 0.54140
 H479 H 0.16514 0.77366 0.54104
 H480 H 0.14623 0.75515 0.56430
 C481 C 0.94018 0.70585 0.38350
 C482 C 0.93370 0.72368 0.37682
 C483 C 0.94032 0.73078 0.35922
 C484 C 0.95357 0.72020 0.34843
 C485 C 0.96038 0.70238 0.35515
 C486 C 0.95343 0.69526 0.37275
 C487 C 0.92076 0.73493 0.38838
 C488 C 0.91023 0.74438 0.39836
 C489 C 0.89824 0.75545 0.41039
 C490 C 0.88830 0.76490 0.42095
 C491 C 0.87678 0.77616 0.43392
 C492 C 0.85918 0.76908 0.44057
 C493 C 0.84842 0.77967 0.45384
 C494 C 0.85519 0.79748 0.46065
 C495 C 0.87279 0.80458 0.45366
 C496 C 0.88350 0.79398 0.44040
 H497 H 0.93518 0.70025 0.39713
 H498 H 0.93542 0.74458 0.35394
 H499 H 0.95864 0.72609 0.33495
 H500 H 0.95837 0.68160 0.37833
 H501 H 0.85387 0.75528 0.43568
 H502 H 0.83495 0.77379 0.45894
 H503 H 0.87840 0.81824 0.45860
 H504 H 0.89713 0.79957 0.43537
 C505 C 0.94017 0.26929 0.64041
 C506 C 0.93357 0.27639 0.62280
 C507 C 0.94006 0.29422 0.61613
 C508 C 0.95328 0.30483 0.62691
 C509 C 0.96022 0.29771 0.64452
 C510 C 0.95340 0.27988 0.65123
 C511 C 0.92065 0.26512 0.61122
 C512 C 0.91013 0.25566 0.60122
 C513 C 0.89815 0.24457 0.58919
 C514 C 0.88821 0.23510 0.57862
 C515 C 0.87670 0.22382 0.56567
 C516 C 0.85909 0.23088 0.55900
 C517 C 0.84833 0.22026 0.54575
 C518 C 0.85508 0.20244 0.53898
 C519 C 0.87269 0.19536 0.54597
 C520 C 0.88341 0.20600 0.55921
 H521 H 0.93527 0.25548 0.64568
 H522 H 0.93507 0.29982 0.60249
 H523 H 0.95823 0.31849 0.62133
 H524 H 0.95846 0.27400 0.66471
 H525 H 0.85378 0.24468 0.56387
 H526 H 0.83484 0.22612 0.54066
 H527 H 0.87830 0.18170 0.54105
 H528 H 0.89705 0.20042 0.56425
 C529 C 0.38325 0.06017 0.29415
 C530 C 0.37653 0.06663 0.27634
 C531 C 0.35892 0.05998 0.26928
 C532 C 0.34815 0.04672 0.27988
 C533 C 0.35492 0.03993 0.29768
 C534 C 0.37252 0.04692 0.30477
 C535 C 0.38806 0.07957 0.26506
 C536 C 0.39802 0.09011 0.25559
 C537 C 0.41002 0.10211 0.24449
 C538 C 0.42055 0.11206 0.23502
 C539 C 0.43349 0.12359 0.22374
 C540 C 0.43997 0.11686 0.20594
 C541 C 0.45322 0.12758 0.19532
 C542 C 0.46019 0.14521 0.20239
 C543 C 0.45338 0.15199 0.22018
 C544 C 0.44013 0.14123 0.23078
 H545 H 0.39689 0.06520 0.29973
 H546 H 0.35361 0.06485 0.25548
 H547 H 0.33467 0.04162 0.27402
 H548 H 0.37814 0.04199 0.31841
 H549 H 0.43496 0.10320 0.20038
 H550 H 0.45816 0.12195 0.18169
 H551 H 0.45846 0.16549 0.22603
 H552 H 0.43523 0.14655 0.24457
 C553 C 0.61673 0.06018 0.70576
 C554 C 0.62344 0.06668 0.72356
 C555 C 0.64106 0.06006 0.73062
 C556 C 0.65184 0.04680 0.72004
 C557 C 0.64508 0.03997 0.70225
 C558 C 0.62746 0.04692 0.69515
 C559 C 0.61190 0.07962 0.73482
 C560 C 0.60194 0.09017 0.74428
 C561 C 0.58994 0.10217 0.75537
 C562 C 0.57940 0.11213 0.76483
 C563 C 0.56646 0.12366 0.77611
 C564 C 0.56000 0.11694 0.79392
 C565 C 0.54676 0.12768 0.80454
 C566 C 0.53979 0.14530 0.79747
 C567 C 0.54658 0.15206 0.77966
 C568 C 0.55982 0.14129 0.76906
 H569 H 0.60308 0.06518 0.70017
 H570 H 0.64637 0.06497 0.74441
 H571 H 0.66533 0.04173 0.72591
 H572 H 0.62185 0.04196 0.68152
 H573 H 0.56501 0.10330 0.79949
 H574 H 0.54183 0.12206 0.81819
 H575 H 0.54150 0.16556 0.77381
 H576 H 0.56471 0.14660 0.75527
 C577 C 0.35886 0.94012 0.73091
 C578 C 0.37648 0.93348 0.72385
 C579 C 0.38319 0.93995 0.70605
 C580 C 0.37245 0.95318 0.69542
 C581 C 0.35484 0.96015 0.70249
 C582 C 0.34808 0.95336 0.72030
 C583 C 0.38802 0.92056 0.73514
 C584 C 0.39797 0.91002 0.74461
 C585 C 0.40997 0.89802 0.75570
 C586 C 0.42051 0.88806 0.76517
 C587 C 0.43345 0.87652 0.77644
 C588 C 0.44008 0.85890 0.76937
 C589 C 0.45334 0.84812 0.77996
 C590 C 0.46015 0.85488 0.79777
 C591 C 0.45318 0.87250 0.80486
 C592 C 0.43993 0.88323 0.79425
 H593 H 0.35356 0.93524 0.74470
 H594 H 0.39683 0.93494 0.70047
 H595 H 0.37806 0.95811 0.68177
 H596 H 0.33459 0.95844 0.72615
 H597 H 0.43519 0.85359 0.75558
 H598 H 0.45842 0.83463 0.77410
 H599 H 0.45812 0.87811 0.81850
 H600 H 0.43492 0.89688 0.79983
 C601 C 0.64118 0.94042 0.26941
 C602 C 0.62355 0.93379 0.27645
 C603 C 0.61683 0.94026 0.29425
 C604 C 0.62757 0.95349 0.30490
 C605 C 0.64519 0.96045 0.29783
 C606 C 0.65196 0.95366 0.28003
 C607 C 0.61202 0.92085 0.26515
 C608 C 0.60207 0.91031 0.25567
 C609 C 0.59008 0.89830 0.24457
 C610 C 0.57956 0.88832 0.23509
 C611 C 0.56665 0.87676 0.22380
 C612 C 0.56003 0.85912 0.23085
 C613 C 0.54681 0.84832 0.22024
 C614 C 0.54001 0.85506 0.20243
 C615 C 0.54696 0.87270 0.19535
 C616 C 0.56017 0.88346 0.20599
 H617 H 0.64649 0.93554 0.25561
 H618 H 0.60318 0.93524 0.29982
 H619 H 0.62196 0.95842 0.31854
 H620 H 0.66545 0.95874 0.27418
 H621 H 0.56492 0.85382 0.24465
 H622 H 0.54175 0.83482 0.22609
 H623 H 0.54202 0.87830 0.18170
 H624 H 0.56517 0.89712 0.20041
 C625 C 0.38316 0.29444 0.93968
 C626 C 0.37648 0.27661 0.93322
 C627 C 0.35887 0.26951 0.93986
 C628 C 0.34808 0.28010 0.95309
 C629 C 0.35481 0.29793 0.95989
 C630 C 0.37241 0.30505 0.95292
 C631 C 0.38804 0.26533 0.92031
 C632 C 0.39803 0.25587 0.90979
 C633 C 0.41007 0.24479 0.89782
 C634 C 0.42064 0.23533 0.88789
 C635 C 0.43361 0.22406 0.87640
 C636 C 0.44009 0.20626 0.88312
 C637 C 0.45336 0.19564 0.87242
 C638 C 0.46035 0.20272 0.85483
 C639 C 0.45355 0.22053 0.84805
 C640 C 0.44028 0.23113 0.85880
 H641 H 0.39679 0.30005 0.93467
 H642 H 0.35360 0.25569 0.93498
 H643 H 0.33461 0.27421 0.95818
 H644 H 0.37800 0.31872 0.95785
 H645 H 0.43506 0.20067 0.89675
 H646 H 0.45829 0.18199 0.87804
 H647 H 0.45865 0.22639 0.83458
 H648 H 0.43539 0.24492 0.85348
 C649 C 0.61691 0.70570 0.93972
 C650 C 0.62362 0.72353 0.93327
 C651 C 0.64124 0.73059 0.93991
 C652 C 0.65202 0.71997 0.95314
 C653 C 0.64526 0.70215 0.95992
 C654 C 0.62765 0.69506 0.95294
 C655 C 0.61206 0.73482 0.92037
 C656 C 0.60208 0.74431 0.90987
 C657 C 0.59005 0.75541 0.89792
 C658 C 0.57947 0.76488 0.88800
 C659 C 0.56650 0.77616 0.87651
 C660 C 0.55982 0.76911 0.85891
 C661 C 0.54654 0.77971 0.84818
 C662 C 0.53974 0.79751 0.85498
 C663 C 0.54675 0.80459 0.87258
 C664 C 0.56003 0.79396 0.88326
 H665 H 0.60327 0.70012 0.93470
 H666 H 0.64654 0.74440 0.93504
 H667 H 0.66551 0.72584 0.95823
 H668 H 0.62205 0.68140 0.95786
 H669 H 0.56471 0.75532 0.85358
 H670 H 0.54143 0.77385 0.83470
 H671 H 0.54181 0.81823 0.87821
 H672 H 0.56507 0.79954 0.89689
 C673 C 0.38342 0.70561 0.06029
 C674 C 0.37674 0.72345 0.06675
 C675 C 0.35912 0.73051 0.06013
 C676 C 0.34831 0.71989 0.04692
 C677 C 0.35504 0.70206 0.04013
 C678 C 0.37265 0.69497 0.04709
 C679 C 0.38832 0.73475 0.07963
 C680 C 0.39831 0.74423 0.09014
 C681 C 0.41035 0.75534 0.10209
 C682 C 0.42091 0.76482 0.11202
 C683 C 0.43387 0.77612 0.12351
 C684 C 0.44033 0.79394 0.11678
 C685 C 0.45358 0.80458 0.12748
 C686 C 0.46058 0.79752 0.14509
 C687 C 0.45380 0.77971 0.15187
 C688 C 0.44054 0.76908 0.14112
 H689 H 0.39707 0.70003 0.06529
 H690 H 0.35384 0.74433 0.06500
 H691 H 0.33482 0.72576 0.04185
 H692 H 0.37824 0.68130 0.04216
 H693 H 0.43529 0.79950 0.10314
 H694 H 0.45850 0.81824 0.12186
 H695 H 0.45890 0.77386 0.16535
 H696 H 0.43567 0.75528 0.14645
 C697 C 0.61688 0.29427 0.06021
 C698 C 0.62357 0.27644 0.06667
 C699 C 0.64118 0.26937 0.06003
 C700 C 0.65197 0.27998 0.04680
 C701 C 0.64523 0.29780 0.04002
 C702 C 0.62763 0.30490 0.04699
 C703 C 0.61202 0.26516 0.07958
 C704 C 0.60204 0.25569 0.09009
 C705 C 0.59001 0.24460 0.10207
 C706 C 0.57945 0.23514 0.11200
 C707 C 0.56649 0.22387 0.12351
 C708 C 0.56002 0.20604 0.11680
 C709 C 0.54675 0.19543 0.12751
 C710 C 0.53974 0.20254 0.14509
 C711 C 0.54654 0.22036 0.15185
 C712 C 0.55981 0.23095 0.14110
 H713 H 0.60324 0.29986 0.06523
 H714 H 0.64647 0.25556 0.06490
 H715 H 0.66545 0.27411 0.04172
 H716 H 0.62203 0.31856 0.04207
 H717 H 0.56507 0.20045 0.10318
 H718 H 0.54182 0.18177 0.12190
 H719 H 0.54143 0.22624 0.16532
 H720 H 0.56469 0.24476 0.14641
 C721 C 0.29384 0.05985 0.61683
 C722 C 0.27604 0.06633 0.62356
 C723 C 0.26899 0.05967 0.64117
 C724 C 0.27959 0.04639 0.65191
 C725 C 0.29739 0.03959 0.64513
 C726 C 0.30447 0.04658 0.62753
 C727 C 0.26477 0.07930 0.61207
 C728 C 0.25530 0.08987 0.60214
 C729 C 0.24421 0.10191 0.59018
 C730 C 0.23474 0.11190 0.57968
 C731 C 0.22346 0.12346 0.56678
 C732 C 0.20563 0.11677 0.56032
 C733 C 0.19500 0.12752 0.54710
 C734 C 0.20210 0.14513 0.54013
 C735 C 0.21993 0.15188 0.54692
 C736 C 0.23053 0.14109 0.56014
 H737 H 0.29941 0.06488 0.60319
 H738 H 0.25521 0.06456 0.64649
 H739 H 0.27375 0.04130 0.66539
 H740 H 0.31811 0.04165 0.62190
 H741 H 0.20004 0.10313 0.56533
 H742 H 0.18135 0.12192 0.54217
 H743 H 0.22580 0.16536 0.54183
 H744 H 0.24434 0.14638 0.56502
 C745 C 0.73051 0.05944 0.35867
 C746 C 0.72354 0.06600 0.37634
 C747 C 0.70581 0.05943 0.38314
 C748 C 0.69517 0.04615 0.37246
 C749 C 0.70215 0.03917 0.35475
 C750 C 0.71991 0.04616 0.34793
 C751 C 0.73483 0.07898 0.38782
 C752 C 0.74431 0.08955 0.39774
 C753 C 0.75543 0.10160 0.40969
 C754 C 0.76492 0.11159 0.42018
 C755 C 0.77623 0.12317 0.43306
 C756 C 0.79406 0.11648 0.43950
 C757 C 0.80471 0.12726 0.45269
 C758 C 0.79764 0.14489 0.45964
 C759 C 0.77982 0.15163 0.45286
 C760 C 0.76918 0.14081 0.43967
 H761 H 0.74424 0.06442 0.35329
 H762 H 0.70030 0.06440 0.39682
 H763 H 0.68159 0.04122 0.37823
 H764 H 0.72580 0.04123 0.33439
 H765 H 0.79963 0.10282 0.43451
 H766 H 0.81837 0.12166 0.45761
 H767 H 0.77397 0.16513 0.45792
 H768 H 0.75537 0.14610 0.43480
 C769 C 0.70601 0.94003 0.61682
 C770 C 0.72382 0.93358 0.62356
 C771 C 0.73087 0.94027 0.64116
 C772 C 0.72027 0.95356 0.65188
 C773 C 0.70246 0.96034 0.64509
 C774 C 0.69538 0.95331 0.62750
 C775 C 0.73510 0.92060 0.61207
 C776 C 0.74458 0.91003 0.60216
 C777 C 0.75568 0.89800 0.59020
 C778 C 0.76517 0.88802 0.57969
 C779 C 0.77647 0.87647 0.56680
 C780 C 0.76940 0.85885 0.56015
 C781 C 0.78002 0.84806 0.54692
 C782 C 0.79784 0.85482 0.54015
 C783 C 0.80493 0.87243 0.54714
 C784 C 0.79429 0.88317 0.56036
 H785 H 0.70044 0.93497 0.60319
 H786 H 0.74467 0.93540 0.64648
 H787 H 0.72612 0.95868 0.66535
 H788 H 0.68174 0.95823 0.62186
 H789 H 0.75560 0.85355 0.56501
 H790 H 0.77416 0.83457 0.54183
 H791 H 0.81859 0.87804 0.54223
 H792 H 0.79987 0.89682 0.56538
 C793 C 0.29408 0.94005 0.38325
 C794 C 0.27628 0.93356 0.37651
 C795 C 0.26921 0.94022 0.35891
 C796 C 0.27981 0.95350 0.34817
 C797 C 0.29760 0.96032 0.35495
 C798 C 0.30469 0.95332 0.37255
 C799 C 0.26500 0.92059 0.38801
 C800 C 0.25554 0.91002 0.39794
 C801 C 0.24445 0.89798 0.40991
 C802 C 0.23497 0.88800 0.42042
 C803 C 0.22368 0.87645 0.43332
 C804 C 0.23074 0.85882 0.43995
 C805 C 0.22013 0.84803 0.45317
 C806 C 0.20230 0.85478 0.45994
 C807 C 0.19522 0.87239 0.45297
 C808 C 0.20586 0.88314 0.43976
 H809 H 0.29965 0.93502 0.39688
 H810 H 0.25542 0.93532 0.35359
 H811 H 0.27395 0.95860 0.33469
 H812 H 0.31833 0.95827 0.37818
 H813 H 0.24455 0.85353 0.43509
 H814 H 0.22598 0.83454 0.45825
 H815 H 0.18156 0.87799 0.45789
 H816 H 0.20028 0.89679 0.43475
 C817 C 0.05998 0.38323 0.70571
 C818 C 0.06641 0.37648 0.72352
 C819 C 0.05972 0.35886 0.73054
 C820 C 0.04648 0.34812 0.71990
 C821 C 0.03972 0.35491 0.70209
 C822 C 0.04674 0.37252 0.69504
 C823 C 0.07934 0.38799 0.73484
 C824 C 0.08987 0.39793 0.74434
 C825 C 0.10187 0.40991 0.75547
 C826 C 0.11182 0.42044 0.76497
 C827 C 0.12335 0.43336 0.77629
 C828 C 0.11662 0.43978 0.79411
 C829 C 0.12734 0.45301 0.80477
 C830 C 0.14495 0.46002 0.79772
 C831 C 0.15172 0.45326 0.77990
 C832 C 0.14096 0.44003 0.76926
 H833 H 0.06503 0.39687 0.70016
 H834 H 0.06457 0.35353 0.74434
 H835 H 0.04136 0.33463 0.72573
 H836 H 0.04184 0.37816 0.68140
 H837 H 0.10298 0.43474 0.79966
 H838 H 0.12172 0.45792 0.81842
 H839 H 0.16521 0.45837 0.77406
 H840 H 0.14628 0.43518 0.75546
 C841 C 0.06018 0.61688 0.29411
 C842 C 0.06662 0.62362 0.27630
 C843 C 0.05993 0.64123 0.26926
 C844 C 0.04667 0.65197 0.27988
 C845 C 0.03990 0.64518 0.29768
 C846 C 0.04692 0.62757 0.30475
 C847 C 0.07956 0.61211 0.26501
 C848 C 0.09011 0.60217 0.25553
 C849 C 0.10211 0.59018 0.24443
 C850 C 0.11206 0.57964 0.23496
 C851 C 0.12358 0.56670 0.22366
 C852 C 0.11686 0.56027 0.20584
 C853 C 0.12756 0.54701 0.19522
 C854 C 0.14515 0.53998 0.20230
 C855 C 0.15192 0.54675 0.22012
 C856 C 0.14117 0.56002 0.23073
 H857 H 0.06523 0.60324 0.29967
 H858 H 0.06480 0.64655 0.25547
 H859 H 0.04155 0.66545 0.27403
 H860 H 0.04201 0.62194 0.31839
 H861 H 0.10323 0.56532 0.20026
 H862 H 0.12194 0.54210 0.18156
 H863 H 0.16539 0.54163 0.22598
 H864 H 0.14648 0.56487 0.24453
 C865 C 0.93973 0.38299 0.29415
 C866 C 0.93329 0.37627 0.27633
 C867 C 0.93998 0.35868 0.26926
 C868 C 0.95326 0.34793 0.27986
 C869 C 0.96003 0.35470 0.29767
 C870 C 0.95300 0.37229 0.30477
 C871 C 0.92034 0.38779 0.26506
 C872 C 0.90980 0.39775 0.25559
 C873 C 0.89780 0.40976 0.24451
 C874 C 0.88786 0.42031 0.23504
 C875 C 0.87636 0.43327 0.22376
 C876 C 0.85876 0.43996 0.23082
 C877 C 0.84802 0.45323 0.22022
 C878 C 0.85480 0.46001 0.20241
 C879 C 0.87239 0.45299 0.19533
 C880 C 0.88308 0.43972 0.20596
 H881 H 0.93467 0.39662 0.29974
 H882 H 0.93512 0.35337 0.25545
 H883 H 0.95839 0.33446 0.27398
 H884 H 0.95791 0.37791 0.31842
 H885 H 0.85344 0.43509 0.24461
 H886 H 0.83455 0.45835 0.22607
 H887 H 0.87801 0.45791 0.18169
 H888 H 0.89671 0.43467 0.20038
 C889 C 0.93973 0.61695 0.70585
 C890 C 0.93329 0.62370 0.72366
 C891 C 0.93999 0.64131 0.73070
 C892 C 0.95327 0.65204 0.72010
 C893 C 0.96004 0.64524 0.70230
 C894 C 0.95301 0.62764 0.69523
 C895 C 0.92033 0.61221 0.73495
 C896 C 0.90978 0.60226 0.74442
 C897 C 0.89779 0.59027 0.75552
 C898 C 0.88784 0.57973 0.76499
 C899 C 0.87633 0.56678 0.77628
 C900 C 0.88307 0.56033 0.79409
 C901 C 0.87239 0.54706 0.80471
 C902 C 0.85479 0.54003 0.79764
 C903 C 0.84800 0.54681 0.77984
 C904 C 0.85873 0.56009 0.76923
 H905 H 0.93467 0.60332 0.70029
 H906 H 0.93512 0.64665 0.74449
 H907 H 0.95840 0.66552 0.72595
 H908 H 0.95792 0.62199 0.68159
 H909 H 0.89671 0.56538 0.79966
 H910 H 0.87802 0.54214 0.81836
 H911 H 0.83452 0.54168 0.77399
 H912 H 0.85340 0.56495 0.75544
 C913 C 0.73062 0.64091 0.94076
 C914 C 0.72361 0.62322 0.93425
 C915 C 0.70585 0.61650 0.94082
 C916 C 0.69522 0.62726 0.95402
 C917 C 0.70222 0.64500 0.96094
 C918 C 0.72003 0.65174 0.95397
 C919 C 0.73486 0.61165 0.92131
 C920 C 0.74429 0.60167 0.91075
 C921 C 0.75533 0.58965 0.89871
 C922 C 0.76476 0.57910 0.88870
 C923 C 0.77601 0.56618 0.87711
 C924 C 0.79388 0.55976 0.88373
 C925 C 0.80452 0.54659 0.87292
 C926 C 0.79739 0.53963 0.85532
 C927 C 0.77952 0.54636 0.84866
 C928 C 0.76890 0.55954 0.85951
 H929 H 0.74438 0.64624 0.93579
 H930 H 0.70030 0.60280 0.93589
 H931 H 0.68160 0.62154 0.95894
 H932 H 0.72595 0.66529 0.95886
 H933 H 0.79951 0.56478 0.89735
 H934 H 0.81822 0.54171 0.87845
 H935 H 0.77362 0.54128 0.83519
 H936 H 0.75506 0.56438 0.85428
 C937 C 0.26935 0.35900 0.94077
 C938 C 0.27633 0.37670 0.93427
 C939 C 0.29407 0.38346 0.94084
 C940 C 0.30473 0.37271 0.95404
 C941 C 0.29776 0.35497 0.96095
 C942 C 0.27996 0.34819 0.95398
 C943 C 0.26505 0.38825 0.92133
 C944 C 0.25560 0.39822 0.91077
 C945 C 0.24455 0.41022 0.89872
 C946 C 0.23510 0.42076 0.88873
 C947 C 0.22383 0.43367 0.87714
 C948 C 0.23093 0.44033 0.85955
 C949 C 0.22030 0.45352 0.84872
 C950 C 0.20243 0.46024 0.85539
 C951 C 0.19532 0.45326 0.87298
 C952 C 0.20596 0.44008 0.88377
 H953 H 0.25560 0.35365 0.93579
 H954 H 0.29960 0.39716 0.93592
 H955 H 0.31833 0.37846 0.95896
 H956 H 0.27407 0.33463 0.95887
 H957 H 0.24476 0.43550 0.85430
 H958 H 0.22619 0.45861 0.83525
 H959 H 0.18162 0.45813 0.87852
 H960 H 0.20035 0.43505 0.89739
 C961 C 0.26959 0.64090 0.05940
 C962 C 0.27658 0.62321 0.06591
 C963 C 0.29433 0.61647 0.05934
 C964 C 0.30497 0.62722 0.04613
 C965 C 0.29798 0.64496 0.03922
 C966 C 0.28019 0.65172 0.04619
 C967 C 0.26531 0.61165 0.07884
 C968 C 0.25586 0.60167 0.08940
 C969 C 0.24480 0.58965 0.10142
 C970 C 0.23536 0.57911 0.11141
 C971 C 0.22407 0.56619 0.12297
 C972 C 0.20621 0.55978 0.11633
 C973 C 0.19555 0.54660 0.12711
 C974 C 0.20264 0.53962 0.14471
 C975 C 0.22052 0.54634 0.15140
 C976 C 0.23116 0.55953 0.14058
 H977 H 0.25584 0.64625 0.06438
 H978 H 0.29986 0.60277 0.06426
 H979 H 0.31857 0.62148 0.04121
 H980 H 0.27429 0.66528 0.04130
 H981 H 0.20061 0.56481 0.10270
 H982 H 0.18186 0.54173 0.12155
 H983 H 0.22639 0.54125 0.16488
 H984 H 0.24499 0.56436 0.14584
 C985 C 0.70587 0.38336 0.05930
 C986 C 0.72361 0.37661 0.06588
 C987 C 0.73062 0.35893 0.05935
 C988 C 0.72003 0.34812 0.04611
 C989 C 0.70224 0.35489 0.03913
 C990 C 0.69524 0.37262 0.04607
 C991 C 0.73486 0.38816 0.07884
 C992 C 0.74429 0.39814 0.08942
 C993 C 0.75532 0.41017 0.10147
 C994 C 0.76475 0.42072 0.11147
 C995 C 0.77600 0.43366 0.12304
 C996 C 0.76889 0.44033 0.14063
 C997 C 0.77950 0.45354 0.15146
 C998 C 0.79737 0.46028 0.14479
 C999 C 0.80449 0.45329 0.12720
 C1000 C 0.79386 0.44009 0.11642
 H1001 H 0.70032 0.39705 0.06424
 H1002 H 0.74436 0.35359 0.06434
 H1003 H 0.72594 0.33458 0.04121
 H1004 H 0.68164 0.37836 0.04114
 H1005 H 0.75506 0.43548 0.14587
 H1006 H 0.77361 0.45864 0.16492
 H1007 H 0.81818 0.45818 0.12166
 H1008 H 0.79949 0.43505 0.10280
 C1009 C 0.94101 0.73053 0.64106
 C1010 C 0.93447 0.72350 0.62341
 C1011 C 0.94101 0.70572 0.61670
 C1012 C 0.95422 0.69509 0.62745
 C1013 C 0.96117 0.70211 0.64515
 C1014 C 0.95423 0.71994 0.65189
 C1015 C 0.92151 0.73476 0.61186
 C1016 C 0.91093 0.74418 0.60189
 C1017 C 0.89887 0.75522 0.58988
 C1018 C 0.88886 0.76465 0.57935
 C1019 C 0.87726 0.77592 0.56644
 C1020 C 0.88389 0.79379 0.56002
 C1021 C 0.87309 0.80442 0.54685
 C1022 C 0.85548 0.79730 0.53989
 C1023 C 0.84881 0.77943 0.54662
 C1024 C 0.85966 0.76881 0.55980
 H1025 H 0.93606 0.74431 0.64638
 H1026 H 0.93605 0.70016 0.60303
 H1027 H 0.95911 0.68146 0.62174
 H1028 H 0.95915 0.72587 0.66541
 H1029 H 0.89752 0.79941 0.56503
 H1030 H 0.87863 0.81812 0.54197
 H1031 H 0.83533 0.77354 0.54155
 H1032 H 0.85441 0.75497 0.56464
 C1033 C 0.94096 0.26930 0.35873
 C1034 C 0.93440 0.27630 0.37639
 C1035 C 0.94095 0.29406 0.38314
 C1036 C 0.95418 0.30471 0.37242
 C1037 C 0.96113 0.29773 0.35471
 C1038 C 0.95419 0.27991 0.34794
 C1039 C 0.92143 0.26502 0.38790
 C1040 C 0.91084 0.25558 0.39785
 C1041 C 0.89876 0.24453 0.40982
 C1042 C 0.88874 0.23509 0.42033
 C1043 C 0.87712 0.22382 0.43322
 C1044 C 0.85951 0.23093 0.43984
 C1045 C 0.84865 0.22032 0.45301
 C1046 C 0.85531 0.20245 0.45976
 C1047 C 0.87292 0.19532 0.45282
 C1048 C 0.88374 0.20596 0.43965
 H1049 H 0.93600 0.25553 0.35338
 H1050 H 0.93599 0.29960 0.39682
 H1051 H 0.95907 0.31833 0.37816
 H1052 H 0.95911 0.27400 0.33441
 H1053 H 0.85427 0.24477 0.43499
 H1054 H 0.83517 0.22621 0.45807
 H1055 H 0.87846 0.18163 0.45772
 H1056 H 0.89737 0.20034 0.43466
 C1057 C 0.05890 0.26956 0.64087
 C1058 C 0.06547 0.27658 0.62322
 C1059 C 0.05893 0.29435 0.61650
 C1060 C 0.04571 0.30500 0.62723
 C1061 C 0.03874 0.29798 0.64493
 C1062 C 0.04568 0.28016 0.65167
 C1063 C 0.07843 0.26531 0.61169
 C1064 C 0.08901 0.25587 0.60173
 C1065 C 0.10107 0.24482 0.58974
 C1066 C 0.11108 0.23538 0.57922
 C1067 C 0.12269 0.22410 0.56633
 C1068 C 0.14031 0.23119 0.55972
 C1069 C 0.15116 0.22056 0.54656
 C1070 C 0.14449 0.20269 0.53981
 C1071 C 0.12687 0.19558 0.54674
 C1072 C 0.11606 0.20623 0.55990
 H1073 H 0.06385 0.25579 0.64620
 H1074 H 0.06390 0.29991 0.60283
 H1075 H 0.04082 0.31862 0.62151
 H1076 H 0.04074 0.27424 0.66519
 H1077 H 0.14556 0.24503 0.56457
 H1078 H 0.16465 0.22644 0.54150
 H1079 H 0.12131 0.18189 0.54185
 H1080 H 0.10242 0.20062 0.56489
 C1081 C 0.05913 0.70571 0.38323
 C1082 C 0.06569 0.72348 0.37650
 C1083 C 0.05913 0.73051 0.35885
 C1084 C 0.04588 0.71992 0.34805
 C1085 C 0.03893 0.70210 0.35480
 C1086 C 0.04590 0.69508 0.37250
 C1087 C 0.07866 0.73474 0.38804
 C1088 C 0.08924 0.74417 0.39801
 C1089 C 0.10131 0.75520 0.41002
 C1090 C 0.11132 0.76463 0.42056
 C1091 C 0.12291 0.77589 0.43348
 C1092 C 0.11628 0.79375 0.43992
 C1093 C 0.12707 0.80437 0.45311
 C1094 C 0.14467 0.79725 0.46008
 C1095 C 0.15135 0.77938 0.45332
 C1096 C 0.14051 0.76878 0.44012
 H1097 H 0.06410 0.70015 0.39690
 H1098 H 0.06409 0.74427 0.35353
 H1099 H 0.04095 0.72584 0.33453
 H1100 H 0.04099 0.68146 0.37822
 H1101 H 0.10265 0.79937 0.43490
 H1102 H 0.12152 0.81806 0.45801
 H1103 H 0.16482 0.77349 0.45840
 H1104 H 0.14576 0.75494 0.43526
 C1105 C 0.61646 0.94050 0.70603
 C1106 C 0.62309 0.93409 0.72389
 C1107 C 0.64068 0.94077 0.73100
 C1108 C 0.65151 0.95397 0.72038
 C1109 C 0.64484 0.96069 0.70251
 C1110 C 0.62724 0.95369 0.69540
 C1111 C 0.61152 0.92115 0.73514
 C1112 C 0.60152 0.91059 0.74456
 C1113 C 0.58948 0.89854 0.75558
 C1114 C 0.57893 0.88854 0.76499
 C1115 C 0.56599 0.87695 0.77623
 C1116 C 0.55956 0.88358 0.79408
 C1117 C 0.54637 0.87278 0.80470
 C1118 C 0.53940 0.85517 0.79758
 C1119 C 0.54614 0.84850 0.77971
 C1120 C 0.55934 0.85934 0.76911
 H1121 H 0.60284 0.93546 0.70041
 H1122 H 0.64593 0.93593 0.74483
 H1123 H 0.66498 0.95907 0.72627
 H1124 H 0.62169 0.95856 0.68170
 H1125 H 0.56459 0.89720 0.79971
 H1126 H 0.54148 0.87832 0.81839
 H1127 H 0.54105 0.83502 0.77382
 H1128 H 0.56419 0.85410 0.75529
 C1129 C 0.38361 0.94049 0.29402
 C1130 C 0.37698 0.93404 0.27617
 C1131 C 0.35938 0.94068 0.26906
 C1132 C 0.34854 0.95389 0.27966
 C1133 C 0.35522 0.96064 0.29752
 C1134 C 0.37282 0.95368 0.30464
 C1135 C 0.38857 0.92110 0.26493
 C1136 C 0.39857 0.91054 0.25552
 C1137 C 0.41062 0.89850 0.24450
 C1138 C 0.42119 0.88850 0.23510
 C1139 C 0.43414 0.87693 0.22386
 C1140 C 0.44057 0.88356 0.20601
 C1141 C 0.45378 0.87278 0.19540
 C1142 C 0.46077 0.85519 0.20252
 C1143 C 0.45402 0.84851 0.22038
 C1144 C 0.44081 0.85934 0.23098
 H1145 H 0.39724 0.93547 0.29964
 H1146 H 0.35413 0.93582 0.25523
 H1147 H 0.33507 0.95896 0.27376
 H1148 H 0.37837 0.95858 0.31832
 H1149 H 0.43553 0.89718 0.20038
 H1150 H 0.45866 0.87834 0.18171
 H1151 H 0.45912 0.83504 0.22628
 H1152 H 0.43596 0.85409 0.24480
 C1153 C 0.61663 0.05988 0.29427
 C1154 C 0.62326 0.06631 0.27642
 C1155 C 0.64086 0.05966 0.26932
 C1156 C 0.65170 0.04647 0.27992
 C1157 C 0.64502 0.03972 0.29778
 C1158 C 0.62743 0.04669 0.30490
 C1159 C 0.61166 0.07923 0.26516
 C1160 C 0.60165 0.08976 0.25573
 C1161 C 0.58960 0.10177 0.24469
 C1162 C 0.57902 0.11174 0.23526
 C1163 C 0.56607 0.12329 0.22400
 C1164 C 0.55963 0.11662 0.20616
 C1165 C 0.54643 0.12738 0.19552
 C1166 C 0.53945 0.14500 0.20261
 C1167 C 0.54619 0.15171 0.22046
 C1168 C 0.55941 0.14091 0.23108
 H1169 H 0.60300 0.06490 0.29989
 H1170 H 0.64610 0.06451 0.25549
 H1171 H 0.66517 0.04138 0.27404
 H1172 H 0.62188 0.04180 0.31858
 H1173 H 0.56466 0.10298 0.20057
 H1174 H 0.54154 0.12180 0.18185
 H1175 H 0.54111 0.16520 0.22632
 H1176 H 0.56426 0.14619 0.24490
 C1177 C 0.38336 0.05969 0.70600
 C1178 C 0.37673 0.06614 0.72384
 C1179 C 0.35915 0.05947 0.73097
 C1180 C 0.34833 0.04622 0.72039
 C1181 C 0.35501 0.03945 0.70255
 C1182 C 0.37259 0.04645 0.69541
 C1183 C 0.38830 0.07912 0.73506
 C1184 C 0.39829 0.08970 0.74446
 C1185 C 0.41034 0.10177 0.75545
 C1186 C 0.42091 0.11178 0.76485
 C1187 C 0.43387 0.12336 0.77608
 C1188 C 0.44031 0.11673 0.79392
 C1189 C 0.45353 0.12751 0.80453
 C1190 C 0.46052 0.14510 0.79739
 C1191 C 0.45377 0.15178 0.77954
 C1192 C 0.44054 0.14095 0.76895
 H1193 H 0.39697 0.06473 0.70037
 H1194 H 0.35390 0.06434 0.74479
 H1195 H 0.33487 0.04112 0.72630
 H1196 H 0.37814 0.04154 0.68173
 H1197 H 0.43527 0.10311 0.79956
 H1198 H 0.45843 0.12196 0.81821
 H1199 H 0.45886 0.16524 0.77364
 H1200 H 0.43567 0.14620 0.75513
 C1201 C 0.61666 0.70588 0.05933
 C1202 C 0.62333 0.72373 0.06578
 C1203 C 0.64094 0.73082 0.05913
 C1204 C 0.65174 0.72020 0.04592
 C1205 C 0.64503 0.70235 0.03916
 C1206 C 0.62742 0.69525 0.04612
 C1207 C 0.61178 0.73498 0.07875
 C1208 C 0.60182 0.74440 0.08933
 C1209 C 0.58982 0.75544 0.10139
 C1210 C 0.57929 0.76487 0.11141
 C1211 C 0.56639 0.77613 0.12301
 C1212 C 0.55977 0.76902 0.14062
 C1213 C 0.54658 0.77963 0.15147
 C1214 C 0.53983 0.79750 0.14481
 C1215 C 0.54677 0.80462 0.12720
 C1216 C 0.55994 0.79399 0.11639
 H1217 H 0.60303 0.70027 0.06435
 H1218 H 0.64621 0.74464 0.06400
 H1219 H 0.66522 0.72608 0.04084
 H1220 H 0.62184 0.68157 0.04122
 H1221 H 0.56463 0.75519 0.14586
 H1222 H 0.54152 0.77374 0.16495
 H1223 H 0.54187 0.81831 0.12166
 H1224 H 0.56494 0.79961 0.10277
 C1225 C 0.35927 0.26921 0.05906
 C1226 C 0.37687 0.27633 0.06571
 C1227 C 0.38350 0.29419 0.05927
 C1228 C 0.37270 0.30482 0.04609
 C1229 C 0.35510 0.29769 0.03912
 C1230 C 0.34843 0.27982 0.04586
 C1231 C 0.38845 0.26509 0.07865
 C1232 C 0.39843 0.25567 0.08921
 C1233 C 0.41046 0.24465 0.10127
 C1234 C 0.42101 0.23523 0.11128
 C1235 C 0.43393 0.22399 0.12289
 C1236 C 0.44054 0.23112 0.14050
 C1237 C 0.45372 0.22052 0.15136
 C1238 C 0.46049 0.20265 0.14471
 C1239 C 0.45355 0.19551 0.12711
 C1240 C 0.44038 0.20613 0.11629
 H1241 H 0.35402 0.25538 0.06391
 H1242 H 0.39712 0.29982 0.06429
 H1243 H 0.37825 0.31852 0.04120
 H1244 H 0.33495 0.27393 0.04079
 H1245 H 0.43567 0.24496 0.14573
 H1246 H 0.45878 0.22643 0.16484
 H1247 H 0.45846 0.18182 0.12158
 H1248 H 0.43538 0.20049 0.10266
 C1249 C 0.64092 0.26927 0.94075
 C1250 C 0.62333 0.27640 0.93408
 C1251 C 0.61669 0.29425 0.94054
 C1252 C 0.62746 0.30485 0.95378
 C1253 C 0.64505 0.29771 0.96076
 C1254 C 0.65173 0.27985 0.95399
 C1255 C 0.61177 0.26517 0.92110
 C1256 C 0.60179 0.25577 0.91052
 C1257 C 0.58976 0.24477 0.89845
 C1258 C 0.57920 0.23536 0.88843
 C1259 C 0.56626 0.22412 0.87684
 C1260 C 0.55961 0.23125 0.85926
 C1261 C 0.54639 0.22066 0.84842
 C1262 C 0.53963 0.20279 0.85508
 C1263 C 0.54660 0.19565 0.87267
 C1264 C 0.55981 0.20626 0.88346
 H1265 H 0.64617 0.25545 0.93588
 H1266 H 0.60308 0.29988 0.93551
 H1267 H 0.62191 0.31853 0.95869
 H1268 H 0.66520 0.27395 0.95908
 H1269 H 0.56447 0.24509 0.85402
 H1270 H 0.54131 0.22656 0.83496
 H1271 H 0.54170 0.18196 0.87821
 H1272 H 0.56484 0.20062 0.89707
 C1273 C 0.35932 0.73065 0.94095
 C1274 C 0.37691 0.72354 0.93429
 C1275 C 0.38355 0.70568 0.94073
 C1276 C 0.37278 0.69506 0.95394
 C1277 C 0.35518 0.70218 0.96091
 C1278 C 0.34850 0.72004 0.95416
 C1279 C 0.38848 0.73479 0.92134
 C1280 C 0.39846 0.74421 0.91078
 C1281 C 0.41047 0.75525 0.89873
 C1282 C 0.42101 0.76468 0.88872
 C1283 C 0.43392 0.77594 0.87713
 C1284 C 0.44054 0.76884 0.85952
 C1285 C 0.45372 0.77947 0.84867
 C1286 C 0.46047 0.79734 0.85535
 C1287 C 0.45353 0.80445 0.87296
 C1288 C 0.44036 0.79380 0.88376
 H1289 H 0.35406 0.74447 0.93609
 H1290 H 0.39717 0.70006 0.93571
 H1291 H 0.37833 0.68137 0.95883
 H1292 H 0.33502 0.72593 0.95925
 H1293 H 0.43568 0.75501 0.85427
 H1294 H 0.45878 0.77358 0.83519
 H1295 H 0.45843 0.81814 0.87851
 H1296 H 0.43536 0.79942 0.89739
 C1297 C 0.70618 0.94043 0.38385
 C1298 C 0.72403 0.93398 0.37722
 C1299 C 0.73114 0.94063 0.35962
 C1300 C 0.72055 0.95384 0.34879
 C1301 C 0.70269 0.96060 0.35547
 C1302 C 0.69556 0.95363 0.37306
 C1303 C 0.73527 0.92103 0.38880
 C1304 C 0.74468 0.91047 0.39879
 C1305 C 0.75570 0.89843 0.41084
 C1306 C 0.76511 0.88843 0.42140
 C1307 C 0.77636 0.87685 0.43434
 C1308 C 0.79421 0.88349 0.44078
 C1309 C 0.80483 0.87270 0.45398
 C1310 C 0.79771 0.85509 0.46093
 C1311 C 0.77985 0.84840 0.45417
 C1312 C 0.76925 0.85924 0.44097
 H1313 H 0.70055 0.93541 0.39746
 H1314 H 0.74497 0.93576 0.35438
 H1315 H 0.72644 0.95892 0.33533
 H1316 H 0.68188 0.95854 0.37861
 H1317 H 0.79983 0.89713 0.43577
 H1318 H 0.81851 0.87826 0.45888
 H1319 H 0.77396 0.83492 0.45924
 H1320 H 0.75543 0.85398 0.43611
 C1321 C 0.26888 0.94032 0.64071
 C1322 C 0.27599 0.93367 0.62312
 C1323 C 0.29385 0.94011 0.61650
 C1324 C 0.30447 0.95332 0.62729
 C1325 C 0.29734 0.96029 0.64488
 C1326 C 0.27948 0.95353 0.65155
 C1327 C 0.26475 0.92074 0.61153
 C1328 C 0.25534 0.91019 0.60151
 C1329 C 0.24432 0.89817 0.58944
 C1330 C 0.23491 0.88819 0.57885
 C1331 C 0.22368 0.87663 0.56587
 C1332 C 0.20585 0.88329 0.55941
 C1333 C 0.19525 0.87253 0.54617
 C1334 C 0.20237 0.85493 0.53919
 C1335 C 0.22021 0.84823 0.54596
 C1336 C 0.23080 0.85904 0.55920
 H1337 H 0.25504 0.93546 0.64595
 H1338 H 0.29948 0.93509 0.60288
 H1339 H 0.31816 0.95822 0.62175
 H1340 H 0.27358 0.95862 0.66502
 H1341 H 0.20023 0.89691 0.56444
 H1342 H 0.18157 0.87810 0.54126
 H1343 H 0.22610 0.83475 0.54087
 H1344 H 0.24461 0.85377 0.56408
 C1345 C 0.26893 0.05951 0.35948
 C1346 C 0.27603 0.06615 0.37709
 C1347 C 0.29390 0.05973 0.38371
 C1348 C 0.30453 0.04656 0.37290
 C1349 C 0.29742 0.03960 0.35529
 C1350 C 0.27955 0.04633 0.34863
 C1351 C 0.26477 0.07906 0.38868
 C1352 C 0.25535 0.08960 0.39870
 C1353 C 0.24432 0.10161 0.41076
 C1354 C 0.23490 0.11159 0.42133
 C1355 C 0.22365 0.12315 0.43429
 C1356 C 0.23075 0.14076 0.44094
 C1357 C 0.22015 0.15158 0.45415
 C1358 C 0.20230 0.14489 0.46090
 C1359 C 0.19519 0.12728 0.45393
 C1360 C 0.20581 0.11650 0.44073
 H1361 H 0.25509 0.06436 0.35424
 H1362 H 0.29952 0.06474 0.39733
 H1363 H 0.31823 0.04167 0.37844
 H1364 H 0.27366 0.04126 0.33515
 H1365 H 0.24457 0.14603 0.43608
 H1366 H 0.22603 0.16507 0.45923
 H1367 H 0.18150 0.12171 0.45883
 H1368 H 0.20019 0.10286 0.43570
 C1369 C 0.73105 0.05957 0.64044
 C1370 C 0.72394 0.06617 0.62282
 C1371 C 0.70608 0.05971 0.61621
 C1372 C 0.69545 0.04655 0.62703
 C1373 C 0.70258 0.03962 0.64464
 C1374 C 0.72044 0.04639 0.65130
 C1375 C 0.73519 0.07908 0.61121
 C1376 C 0.74460 0.08961 0.60118
 C1377 C 0.75562 0.10161 0.58910
 C1378 C 0.76503 0.11158 0.57851
 C1379 C 0.77627 0.12313 0.56553
 C1380 C 0.79410 0.11647 0.55908
 C1381 C 0.80471 0.12722 0.54585
 C1382 C 0.79760 0.14482 0.53886
 C1383 C 0.77975 0.15152 0.54562
 C1384 C 0.76916 0.14072 0.55886
 H1385 H 0.74488 0.06444 0.64567
 H1386 H 0.70046 0.06470 0.60258
 H1387 H 0.68176 0.04164 0.62149
 H1388 H 0.72633 0.04134 0.66479
 H1389 H 0.79972 0.10285 0.56412
 H1390 H 0.81839 0.12165 0.54095
 H1391 H 0.77386 0.16500 0.54052
 H1392 H 0.75534 0.14599 0.56372
 C1393 C 0.94049 0.61640 0.29407
 C1394 C 0.93402 0.62306 0.27624
 C1395 C 0.94064 0.64068 0.26916
 C1396 C 0.95385 0.65152 0.27976
 C1397 C 0.96063 0.64482 0.29760
 C1398 C 0.95369 0.62719 0.30469
 C1399 C 0.92108 0.61148 0.26499
 C1400 C 0.91052 0.60148 0.25557
 C1401 C 0.89848 0.58944 0.24454
 C1402 C 0.88848 0.57887 0.23512
 C1403 C 0.87690 0.56593 0.22387
 C1404 C 0.88355 0.55946 0.20604
 C1405 C 0.87276 0.54626 0.19542
 C1406 C 0.85514 0.53932 0.20252
 C1407 C 0.84845 0.54609 0.22036
 C1408 C 0.85929 0.55930 0.23096
 H1409 H 0.93549 0.60275 0.29967
 H1410 H 0.93576 0.64595 0.25535
 H1411 H 0.95890 0.66502 0.27389
 H1412 H 0.95861 0.62162 0.31836
 H1413 H 0.89719 0.56447 0.20044
 H1414 H 0.87832 0.54134 0.18175
 H1415 H 0.83496 0.54103 0.22623
 H1416 H 0.85402 0.56418 0.24477
 C1417 C 0.94040 0.38373 0.70569
 C1418 C 0.93394 0.37707 0.72352
 C1419 C 0.94053 0.35943 0.73059
 C1420 C 0.95371 0.34858 0.71997
 C1421 C 0.96048 0.35528 0.70213
 C1422 C 0.95357 0.37292 0.69505
 C1423 C 0.92103 0.38866 0.73479
 C1424 C 0.91050 0.39866 0.74423
 C1425 C 0.89849 0.41070 0.75529
 C1426 C 0.88851 0.42126 0.76473
 C1427 C 0.87694 0.43418 0.77601
 C1428 C 0.88361 0.44064 0.79384
 C1429 C 0.87283 0.45382 0.80449
 C1430 C 0.85519 0.46074 0.79743
 C1431 C 0.84847 0.45397 0.77959
 C1432 C 0.85930 0.44079 0.76895
 H1433 H 0.93543 0.39739 0.70011
 H1434 H 0.93565 0.35416 0.74440
 H1435 H 0.95874 0.33507 0.72583
 H1436 H 0.95849 0.37850 0.68139
 H1437 H 0.89726 0.43565 0.79942
 H1438 H 0.87841 0.45873 0.81816
 H1439 H 0.83497 0.45902 0.77374
 H1440 H 0.85402 0.43592 0.75515
 C1441 C 0.05924 0.64065 0.73098
 C1442 C 0.06584 0.62301 0.72392
 C1443 C 0.05939 0.61634 0.70609
 C1444 C 0.04623 0.62715 0.69544
 C1445 C 0.03931 0.64479 0.70251
 C1446 C 0.04607 0.65149 0.72035
 C1447 C 0.07876 0.61142 0.73519
 C1448 C 0.08930 0.60143 0.74463
 C1449 C 0.10133 0.58939 0.75567
 C1450 C 0.11132 0.57883 0.76510
 C1451 C 0.12289 0.56589 0.77635
 C1452 C 0.14052 0.55928 0.76927
 C1453 C 0.15135 0.54608 0.77987
 C1454 C 0.14466 0.53929 0.79771
 C1455 C 0.12703 0.54622 0.80480
 C1456 C 0.11624 0.55942 0.79418
 H1457 H 0.06412 0.64593 0.74480
 H1458 H 0.06437 0.60269 0.70050
 H1459 H 0.04132 0.62157 0.68176
 H1460 H 0.04103 0.66500 0.72621
 H1461 H 0.14578 0.56417 0.75546
 H1462 H 0.16485 0.54103 0.77400
 H1463 H 0.12147 0.54130 0.81847
 H1464 H 0.10260 0.56441 0.79978
 C1465 C 0.05937 0.38362 0.29397
 C1466 C 0.06583 0.37698 0.27613
 C1467 C 0.05923 0.35935 0.26904
 C1468 C 0.04606 0.34848 0.27965
 C1469 C 0.03929 0.35516 0.29750
 C1470 C 0.04620 0.37280 0.30460
 C1471 C 0.07875 0.38858 0.26488
 C1472 C 0.08930 0.39859 0.25546
 C1473 C 0.10133 0.41064 0.24444
 C1474 C 0.11133 0.42120 0.23502
 C1475 C 0.12292 0.43413 0.22378
 C1476 C 0.11628 0.44060 0.20594
 C1477 C 0.12709 0.45378 0.19532
 C1478 C 0.14472 0.46070 0.20242
 C1479 C 0.15140 0.45392 0.22027
 C1480 C 0.14055 0.44073 0.23087
 H1481 H 0.06435 0.39727 0.29958
 H1482 H 0.06411 0.35409 0.25523
 H1483 H 0.04102 0.33498 0.27378
 H1484 H 0.04129 0.37836 0.31828
 H1485 H 0.10264 0.43561 0.20033
 H1486 H 0.12154 0.45870 0.18165
 H1487 H 0.16490 0.45896 0.22615
 H1488 H 0.14580 0.43585 0.24468
   
