data_POSCAR
  _audit_creation_date              2014-09-24
  _audit_creation_method            'ToBaCCo'
  _symmetry_space_group_name_H-M    'P1'
  _symmetry_Int_Tables_number       1
  _symmetry_cell_setting            triclinic
  loop_
  _symmetry_equiv_pos_as_xyz
 x,y,z
_cell_length_a 72.2961
_cell_length_b 72.2470
_cell_length_c 72.2545
_cell_angle_alpha 90.093700
_cell_angle_beta 90.067800
_cell_angle_gamma 90.049900
loop_
  _atom_site_label
  _atom_site_type_symbol
  _atom_site_fract_x
  _atom_site_fract_y
  _atom_site_fract_z
N1 N 0.30120 0.43623 0.89781
 N2 N 0.31435 0.44879 0.89771
 C3 C 0.31176 0.46012 0.88314
 C4 C 0.29609 0.45440 0.87359
 C5 C 0.28982 0.43913 0.88336
 H6 H 0.32064 0.47166 0.87977
 H7 H 0.27785 0.43071 0.88030
 Cu8 Cu 0.33335 0.44912 0.91684
 Cu9 Cu 0.29965 0.41705 0.91668
 Cu10 Cu 0.33362 0.41722 0.95057
 N11 N 0.35250 0.44899 0.93582
 N12 N 0.35245 0.43646 0.94897
 C13 C 0.36692 0.43942 0.96030
 C14 C 0.37672 0.45473 0.95402
 C15 C 0.36705 0.46038 0.93835
 H16 H 0.36997 0.43095 0.97222
 H17 H 0.37028 0.47189 0.92941
 N18 N 0.31343 0.39889 0.94982
 N19 N 0.30049 0.39882 0.93694
 C20 C 0.28882 0.38465 0.94013
 C21 C 0.29462 0.37531 0.95585
 C22 C 0.31032 0.38477 0.96155
 H23 H 0.27706 0.38132 0.93152
 H24 H 0.31896 0.38157 0.97332
 H25 H 0.31290 0.43182 0.93730
 H26 H 0.32756 0.41643 0.92261
 N27 N 0.43788 0.85105 0.45082
 N28 N 0.45036 0.85123 0.43763
 C29 C 0.46189 0.86563 0.44042
 C30 C 0.45636 0.87508 0.45627
 C31 C 0.44100 0.86529 0.46242
 H32 H 0.47334 0.86898 0.43144
 H33 H 0.43255 0.86826 0.47437
 Cu34 Cu 0.45027 0.83272 0.41796
 Cu35 Cu 0.41836 0.83251 0.45192
 Cu36 Cu 0.41840 0.79860 0.41808
 N37 N 0.45042 0.81302 0.39946
 N38 N 0.43798 0.79976 0.39965
 C39 C 0.44117 0.78813 0.38544
 C40 C 0.45650 0.79435 0.37573
 C41 C 0.46196 0.81025 0.38509
 H42 H 0.43282 0.77610 0.38241
 H43 H 0.47339 0.81923 0.38165
 N44 N 0.39971 0.79973 0.43786
 N45 N 0.39971 0.81265 0.45077
 C46 C 0.38528 0.80976 0.46218
 C47 C 0.37568 0.79421 0.45623
 C48 C 0.38529 0.78828 0.44071
 H49 H 0.38197 0.81843 0.47389
 H50 H 0.38200 0.77655 0.43204
 H51 H 0.43333 0.81207 0.43849
 H52 H 0.41763 0.82657 0.42392
 N53 N 0.93667 0.89902 0.80054
 N54 N 0.94944 0.89913 0.81348
 C55 C 0.96121 0.88500 0.81045
 C56 C 0.95553 0.87549 0.79471
 C57 C 0.93984 0.88485 0.78887
 H58 H 0.97297 0.88185 0.81912
 H59 H 0.93120 0.88158 0.77711
 Cu60 Cu 0.94938 0.91789 0.83290
 Cu61 Cu 0.91671 0.91711 0.79979
 Cu62 Cu 0.91615 0.95035 0.83445
 N63 N 0.94881 0.93647 0.85247
 N64 N 0.93585 0.94920 0.85288
 C65 C 0.93870 0.96037 0.86752
 C66 C 0.95441 0.95444 0.87693
 C67 C 0.96038 0.93914 0.86686
 H68 H 0.92985 0.97190 0.87099
 H69 H 0.97225 0.93054 0.86971
 N70 N 0.89745 0.94919 0.81459
 N71 N 0.89768 0.93654 0.80140
 C72 C 0.88322 0.93940 0.79000
 C73 C 0.87336 0.95463 0.79622
 C74 C 0.88283 0.96041 0.81190
 H75 H 0.88012 0.93095 0.77805
 H76 H 0.87934 0.97192 0.82078
 H77 H 0.93083 0.93808 0.81322
 H78 H 0.91634 0.92254 0.82786
 N79 N 0.43832 -0.09978 0.29857
 N80 N 0.45076 -0.09998 0.31182
 C81 C 0.46232 -0.11432 0.30905
 C82 C 0.45685 -0.12365 0.29317
 C83 C 0.44152 -0.11397 0.28693
 H84 H 0.47375 -0.11776 0.31804
 H85 H 0.43314 -0.11703 0.27493
 Cu86 Cu 0.45067 -0.08167 0.33156
 Cu87 Cu 0.41872 -0.08140 0.29753
 Cu88 Cu 0.41883 -0.04761 0.33146
 N89 N 0.45089 -0.06200 0.34993
 N90 N 0.43847 -0.04875 0.34979
 C91 C 0.44171 -0.03717 0.36401
 C92 C 0.45705 -0.04344 0.37367
 C93 C 0.46248 -0.05928 0.36428
 H94 H 0.43334 -0.02520 0.36714
 H95 H 0.47392 -0.06827 0.36767
 N96 N 0.40008 -0.04878 0.31177
 N97 N 0.40004 -0.06166 0.29883
 C98 C 0.38556 -0.05881 0.28747
 C99 C 0.37599 -0.04331 0.29349
 C100 C 0.38563 -0.03737 0.30899
 H101 H 0.38220 -0.06749 0.27576
 H102 H 0.38237 -0.02567 0.31771
 H103 H 0.43376 -0.06105 0.31101
 H104 H 0.41805 -0.07562 0.32554
 N105 N 0.79982 0.31234 0.35067
 N106 N 0.81293 0.29976 0.35071
 C107 C 0.81019 0.28819 0.36506
 C108 C 0.79447 0.29379 0.37455
 C109 C 0.78832 0.30922 0.36495
 H110 H 0.81907 0.27665 0.36839
 H111 H 0.77644 0.31769 0.36811
 Cu112 Cu 0.83223 0.29985 0.33195
 Cu113 Cu 0.79865 0.33199 0.33225
 Cu114 Cu 0.83316 0.33261 0.29901
 N115 N 0.85168 0.30045 0.31335
 N116 N 0.85188 0.31330 0.30051
 C117 C 0.86652 0.31057 0.28937
 C118 C 0.87610 0.29512 0.29547
 C119 C 0.86624 0.28910 0.31080
 H120 H 0.86989 0.31929 0.27773
 H121 H 0.86937 0.27733 0.31944
 N122 N 0.81301 0.35095 0.29984
 N123 N 0.79987 0.35073 0.31248
 C124 C 0.78830 0.36500 0.30942
 C125 C 0.79438 0.37473 0.29405
 C126 C 0.81014 0.36538 0.28841
 H127 H 0.77640 0.36812 0.31787
 H128 H 0.81900 0.36886 0.27691
 H129 H 0.81225 0.31771 0.31146
 H130 H 0.82673 0.33270 0.32679
 N131 N -0.18678 0.85240 0.80042
 N132 N -0.19953 0.85226 0.81336
 C133 C -0.21092 0.86680 0.81082
 C134 C -0.20500 0.87670 0.79540
 C135 C -0.18955 0.86703 0.78926
 H136 H -0.22263 0.86982 0.81957
 H137 H -0.18076 0.87036 0.77764
 Cu138 Cu -0.20004 0.83279 0.83201
 Cu139 Cu -0.16743 0.83361 0.79896
 Cu140 Cu -0.16815 0.79902 0.83225
 N141 N -0.20034 0.81338 0.85074
 N142 N -0.18784 0.80019 0.85065
 C143 C -0.19106 0.78861 0.86485
 C144 C -0.20652 0.79474 0.87442
 C145 C -0.21202 0.81056 0.86499
 H146 H -0.18250 0.77679 0.86810
 H147 H -0.22360 0.81942 0.86824
 N148 N -0.14936 0.80026 0.81250
 N149 N -0.14907 0.81341 0.79986
 C150 C -0.13461 0.81051 0.78848
 C151 C -0.12531 0.79472 0.79416
 C152 C -0.13511 0.78866 0.80948
 H153 H -0.13108 0.81933 0.77697
 H154 H -0.13208 0.77671 0.81790
 H155 H -0.18245 0.81254 0.81138
 H156 H -0.16729 0.82687 0.82659
 N157 N 0.94918 0.35262 0.43610
 N158 N 0.93659 0.35215 0.44917
 C159 C 0.93928 0.36656 0.46073
 C160 C 0.95447 0.37668 0.45462
 C161 C 0.96031 0.36730 0.43886
 H162 H 0.93079 0.36937 0.47269
 H163 H 0.97176 0.37077 0.42994
 Cu164 Cu 0.91811 0.33252 0.44978
 Cu165 Cu 0.95037 0.33420 0.41639
 Cu166 Cu 0.91734 0.29942 0.41707
 N167 N 0.89946 0.31306 0.44989
 N168 N 0.89933 0.30015 0.43707
 C169 C 0.88520 0.28847 0.44025
 C170 C 0.87587 0.29428 0.45597
 C171 C 0.88536 0.31000 0.46168
 H172 H 0.88194 0.27670 0.43160
 H173 H 0.88220 0.31866 0.47346
 N174 N 0.93671 0.30107 0.39797
 N175 N 0.94926 0.31431 0.39770
 C176 C 0.96047 0.31165 0.38306
 C177 C 0.95477 0.29591 0.37363
 C178 C 0.93960 0.28963 0.38353
 H179 H 0.97192 0.32058 0.37953
 H180 H 0.93123 0.27762 0.38048
 H181 H 0.92261 0.32754 0.41674
 H182 H 0.93830 0.31295 0.43116
 N183 N 0.44839 0.43546 0.85235
 N184 N 0.43521 0.44796 0.85253
 C185 C 0.43806 0.45957 0.86686
 C186 C 0.45391 0.45406 0.87620
 C187 C 0.46003 0.43865 0.86653
 H188 H 0.42918 0.47109 0.87026
 H189 H 0.47201 0.43026 0.86956
 Cu190 Cu 0.41558 0.44790 0.83408
 Cu191 Cu 0.44944 0.41585 0.83392
 Cu192 Cu 0.41552 0.41587 0.80013
 N193 N 0.39713 0.44807 0.81444
 N194 N 0.39718 0.43555 0.80125
 C195 C 0.38298 0.43880 0.78965
 C196 C 0.37344 0.45426 0.79583
 C197 C 0.38288 0.45974 0.81166
 H198 H 0.37984 0.43040 0.77767
 H199 H 0.37961 0.47130 0.82057
 N200 N 0.43523 0.39709 0.80129
 N201 N 0.44817 0.39713 0.81415
 C202 C 0.45959 0.38271 0.81126
 C203 C 0.45361 0.37306 0.79577
 C204 C 0.43807 0.38262 0.78987
 H205 H 0.47138 0.37950 0.81985
 H206 H 0.42939 0.37930 0.77814
 H207 H 0.43607 0.43079 0.81353
 H208 H 0.42149 0.41520 0.82815
 N209 N 0.80059 0.89845 0.93656
 N210 N 0.81288 0.89931 0.94995
 C211 C 0.80968 0.88549 0.96202
 C212 C 0.79451 0.87540 0.95591
 C213 C 0.78918 0.88408 0.93964
 H214 H 0.81786 0.88295 0.97429
 H215 H 0.77793 0.88022 0.93058
 Cu216 Cu 0.83219 0.91807 0.94983
 Cu217 Cu 0.79977 0.91640 0.91647
 Cu218 Cu 0.83171 0.95223 0.91851
 N219 N 0.85172 0.93662 0.94910
 N220 N 0.85165 0.94974 0.93653
 C221 C 0.86650 0.96069 0.93908
 C222 C 0.87646 0.95418 0.95418
 C223 C 0.86662 0.93879 0.96010
 H224 H 0.86970 0.97253 0.93056
 H225 H 0.86999 0.92981 0.97158
 N226 N 0.81321 0.94985 0.89862
 N227 N 0.80122 0.93610 0.89776
 C228 C 0.79054 0.93827 0.88267
 C229 C 0.79595 0.95425 0.87357
 C230 C 0.81052 0.96111 0.88405
 H231 H 0.77961 0.92887 0.87867
 H232 H 0.81861 0.97338 0.88134
 H233 H 0.82721 0.92429 0.91728
 H234 H 0.81074 0.93744 0.93212
 N235 N 0.29841 0.84922 0.31109
 N236 N 0.31202 0.84980 0.29907
 C237 C 0.30985 0.86475 0.28818
 C238 C 0.29393 0.87404 0.29356
 C239 C 0.28711 0.86372 0.30822
 H240 H 0.31916 0.86853 0.27713
 H241 H 0.27479 0.86642 0.31623
 Cu242 Cu 0.33100 0.83067 0.29861
 Cu243 Cu 0.29604 0.82938 0.32913
 Cu244 Cu 0.33244 0.79839 0.33213
 N245 N 0.35038 0.81197 0.29935
 N246 N 0.35092 0.79952 0.31258
 C247 C 0.36553 0.78833 0.30983
 C248 C 0.37472 0.79399 0.29398
 C249 C 0.36466 0.80912 0.28776
 H250 H 0.36912 0.77690 0.31876
 H251 H 0.36748 0.81743 0.27568
 N252 N 0.31226 0.79940 0.35042
 N253 N 0.29829 0.81105 0.34916
 C254 C 0.28670 0.80814 0.36344
 C255 C 0.29361 0.79385 0.37420
 C256 C 0.30989 0.78872 0.36549
 H257 H 0.27413 0.81588 0.36577
 H258 H 0.31939 0.77803 0.36980
 H259 H 0.32425 0.82593 0.33117
 H260 H 0.31179 0.80901 0.31607
 N261 N 0.79994 0.39874 0.43747
 N262 N 0.81313 0.39871 0.44999
 C263 C 0.81029 0.38455 0.46174
 C264 C 0.79441 0.37517 0.45633
 C265 C 0.78828 0.38464 0.44081
 H266 H 0.81922 0.38126 0.47327
 H267 H 0.77627 0.38154 0.43246
 Cu268 Cu 0.83292 0.41696 0.44948
 Cu269 Cu 0.79864 0.41710 0.41782
 Cu270 Cu 0.83045 0.45283 0.42000
 N271 N 0.85170 0.43627 0.44920
 N272 N 0.85069 0.45019 0.43757
 C273 C 0.86512 0.46161 0.44044
 C274 C 0.87581 0.45454 0.45472
 C275 C 0.86682 0.43838 0.45989
 H276 H 0.86746 0.47421 0.43276
 H277 H 0.87093 0.42885 0.47063
 N278 N 0.81159 0.45091 0.40040
 N279 N 0.79962 0.43717 0.39944
 C280 C 0.78864 0.43970 0.38459
 C281 C 0.79392 0.45587 0.37571
 C282 C 0.80860 0.46252 0.38615
 H283 H 0.77763 0.43041 0.38056
 H284 H 0.81658 0.47490 0.38362
 H285 H 0.82633 0.42470 0.41745
 H286 H 0.81064 0.43699 0.43399
 N287 N 0.93611 0.85172 -0.05050
 N288 N 0.94885 0.85158 -0.06344
 C289 C 0.96035 0.86601 -0.06076
 C290 C 0.95452 0.87577 -0.04528
 C291 C 0.93904 0.86621 -0.03917
 H292 H 0.97210 0.86913 -0.06944
 H293 H 0.93049 0.86947 -0.02736
 Cu294 Cu 0.94916 0.83255 -0.08251
 Cu295 Cu 0.91685 0.83296 -0.04900
 Cu296 Cu 0.92014 0.79630 -0.07967
 N297 N 0.94968 0.81258 -0.10062
 N298 N 0.93825 0.79848 -0.09950
 C299 C 0.94167 0.78668 -0.11351
 C300 C 0.95610 0.79370 -0.12403
 C301 C 0.96077 0.81022 -0.11538
 H302 H 0.93415 0.77395 -0.11578
 H303 H 0.97141 0.81987 -0.11953
 N304 N 0.90014 0.79847 -0.06131
 N305 N 0.89885 0.81253 -0.04973
 C306 C 0.88386 0.81016 -0.03899
 C307 C 0.87521 0.79378 -0.04399
 C308 C 0.88594 0.78679 -0.05828
 H309 H 0.87955 0.81974 -0.02834
 H310 H 0.88368 0.77412 -0.06591
 H311 H 0.93351 0.81300 -0.06000
 H312 H 0.91714 0.82456 -0.07638
 N313 N 0.30100 0.35224 0.81366
 N314 N 0.31414 0.35227 0.80111
 C315 C 0.31164 0.36684 0.78976
 C316 C 0.29605 0.37649 0.79546
 C317 C 0.28973 0.36675 0.81073
 H318 H 0.32053 0.37015 0.77822
 H319 H 0.27782 0.36990 0.81917
 Cu320 Cu 0.33304 0.33307 0.80085
 Cu321 Cu 0.29940 0.33345 0.83292
 Cu322 Cu 0.33323 0.29948 0.83297
 N323 N 0.35210 0.31403 0.80113
 N324 N 0.35200 0.30093 0.81371
 C325 C 0.36643 0.28955 0.81083
 C326 C 0.37622 0.29577 0.79555
 C327 C 0.36666 0.31140 0.78979
 H328 H 0.36950 0.27764 0.81929
 H329 H 0.37002 0.32024 0.77823
 N330 N 0.31308 0.30038 0.85129
 N331 N 0.30018 0.31328 0.85127
 C332 C 0.28855 0.31021 0.86548
 C333 C 0.29434 0.29455 0.87495
 C334 C 0.30998 0.28876 0.86550
 H335 H 0.27682 0.31885 0.86876
 H336 H 0.31863 0.27704 0.86880
 H337 H 0.32735 0.32744 0.83360
 H338 H 0.31260 0.31270 0.81829
 N339 N 0.14905 0.56289 0.54954
 N340 N 0.14952 0.54980 0.56213
 C341 C 0.13534 0.53805 0.55921
 C342 C 0.12541 0.54405 0.54391
 C343 C 0.13457 0.55992 0.53819
 H344 H 0.13238 0.52613 0.56773
 H345 H 0.13103 0.56877 0.52669
 Cu346 Cu 0.16860 0.54961 0.58118
 Cu347 Cu 0.16701 0.58299 0.54891
 Cu348 Cu 0.20079 0.58313 0.58299
 N349 N 0.18749 0.54992 0.60041
 N350 N 0.20002 0.56308 0.60097
 C351 C 0.21129 0.56019 0.61551
 C352 C 0.20558 0.54431 0.62463
 C353 C 0.19035 0.53820 0.61460
 H354 H 0.22276 0.56909 0.61911
 H355 H 0.18189 0.52620 0.61748
 N356 N 0.19925 0.60219 0.56357
 N357 N 0.18640 0.60212 0.55059
 C358 C 0.18908 0.61675 0.53938
 C359 C 0.20440 0.62655 0.54553
 C360 C 0.21044 0.61686 0.56095
 H361 H 0.18048 0.61999 0.52761
 H362 H 0.22212 0.62021 0.56966
 H363 H 0.18825 0.56880 0.56167
 H364 H 0.17281 0.58280 0.57696
 N365 N 0.60186 0.68626 0.05089
 N366 N 0.60188 0.69899 0.06390
 C367 C 0.61643 0.71033 0.06128
 C368 C 0.62610 0.70440 0.04580
 C369 C 0.61637 0.68905 0.03960
 H370 H 0.61970 0.72202 0.07003
 H371 H 0.61945 0.68056 0.02767
 Cu372 Cu 0.58263 0.69966 0.08272
 Cu373 Cu 0.58302 0.66708 0.04944
 Cu374 Cu 0.54904 0.66742 0.08312
 N375 N 0.56367 0.69935 0.10183
 N376 N 0.55054 0.68677 0.10181
 C377 C 0.53924 0.68973 0.11628
 C378 C 0.54557 0.70505 0.12600
 C379 C 0.56113 0.71077 0.11634
 H380 H 0.52733 0.68126 0.11944
 H381 H 0.56998 0.72238 0.11959
 N382 N 0.54989 0.64891 0.06311
 N383 N 0.56284 0.64877 0.05029
 C384 C 0.55960 0.63463 0.03856
 C385 C 0.54382 0.62535 0.04423
 C386 C 0.53807 0.63485 0.05987
 H387 H 0.56812 0.63138 0.02673
 H388 H 0.52612 0.63179 0.06828
 H389 H 0.56229 0.68201 0.06237
 H390 H 0.57701 0.66689 0.07738
 N391 N 0.68651 0.19934 0.64812
 N392 N 0.69935 0.18650 0.64829
 C393 C 0.71065 0.18904 0.63369
 C394 C 0.70458 0.20435 0.62382
 C395 C 0.68918 0.21047 0.63346
 H396 H 0.72239 0.18035 0.63053
 H397 H 0.68046 0.22211 0.63009
 Cu398 Cu 0.69996 0.16772 0.66757
 Cu399 Cu 0.66718 0.20088 0.66686
 Cu400 Cu 0.66792 0.16777 0.70143
 N401 N 0.70010 0.14920 0.68710
 N402 N 0.68757 0.14935 0.70024
 C403 C 0.69068 0.13512 0.71181
 C404 C 0.70606 0.12544 0.70567
 C405 C 0.71162 0.13482 0.68987
 H406 H 0.68221 0.13201 0.72370
 H407 H 0.72311 0.13141 0.68095
 N408 N 0.64923 0.18751 0.70022
 N409 N 0.64892 0.20009 0.68703
 C410 C 0.63448 0.21149 0.68989
 C411 C 0.62521 0.20588 0.70571
 C412 C 0.63499 0.19056 0.71182
 H413 H 0.63091 0.22292 0.68097
 H414 H 0.63193 0.18213 0.72375
 H415 H 0.68226 0.18829 0.68757
 H416 H 0.66711 0.17297 0.67323
 N417 N 1.10193 0.06325 0.19958
 N418 N 1.10168 0.05036 0.18674
 C419 C 1.11621 0.03899 0.18929
 C420 C 1.12614 0.04504 0.20459
 C421 C 1.11660 0.06053 0.21071
 H422 H 1.11927 0.02717 0.18065
 H423 H 1.12002 0.06927 0.22237
 Cu424 Cu 1.08218 0.04965 0.16817
 Cu425 Cu 1.08317 0.08255 0.20107
 Cu426 Cu 1.04848 0.08162 0.16792
 N427 N 1.06283 0.04944 0.14943
 N428 N 1.04965 0.06194 0.14953
 C429 C 1.03809 0.05874 0.13528
 C430 C 1.04429 0.04334 0.12564
 C431 C 1.06009 0.03785 0.13507
 H432 H 1.02616 0.06717 0.13216
 H433 H 1.06902 0.02635 0.13169
 N434 N 1.04973 0.10042 0.18765
 N435 N 1.06296 0.10084 0.20023
 C436 C 1.06007 0.11534 0.21159
 C437 C 1.04420 0.12451 0.20597
 C438 C 1.03808 0.11463 0.19069
 H439 H 1.06900 0.11900 0.22302
 H440 H 1.02608 0.11758 0.18229
 H441 H 1.06219 0.06752 0.18862
 H442 H 1.07651 0.08250 0.17323
 N443 N 0.06306 0.14904 1.04965
 N444 N 0.05025 0.14921 1.06252
 C445 C 0.03850 0.13504 1.05953
 C446 C 0.04421 0.12543 1.04390
 C447 C 0.05991 0.13479 1.03806
 H448 H 0.02678 0.13187 1.06822
 H449 H 0.06861 0.13141 1.02639
 Cu450 Cu 0.05027 0.16780 1.08209
 Cu451 Cu 0.08305 0.16708 1.04899
 Cu452 Cu 0.08293 0.20110 1.08277
 N453 N 0.05012 0.18749 1.10055
 N454 N 0.06288 0.20044 1.10071
 C455 C 0.05966 0.21207 1.11490
 C456 C 0.04397 0.20617 1.12422
 C457 C 0.03833 0.19047 1.11466
 H458 H 0.06831 0.22380 1.11827
 H459 H 0.02664 0.18172 1.11782
 N460 N 0.10207 0.19946 1.06345
 N461 N 0.10212 0.18649 1.05059
 C462 C 0.11685 0.18906 1.03950
 C463 C 0.12660 0.20445 1.04559
 C464 C 0.11677 0.21062 1.06087
 H465 H 0.12020 0.18032 1.02784
 H466 H 0.12002 0.22239 1.06951
 H467 H 0.08320 0.17309 1.07698
 H468 H 0.06828 0.18793 1.06196
 N469 N 0.14743 0.69894 0.68590
 N470 N 0.14786 0.68636 0.69900
 C471 C 0.13348 0.68913 0.71052
 C472 C 0.12349 0.70431 0.70434
 C473 C 0.13282 0.71013 0.68862
 H474 H 0.13047 0.68072 0.72253
 H475 H 0.12933 0.72155 0.67968
 Cu476 Cu 0.16726 0.66766 0.69948
 Cu477 Cu 0.16580 0.70012 0.66625
 Cu478 Cu 0.20039 0.66708 0.66690
 N479 N 0.18679 0.64909 0.69969
 N480 N 0.19964 0.64901 0.68686
 C481 C 0.21132 0.63486 0.68995
 C482 C 0.20554 0.62546 0.70565
 C483 C 0.18987 0.63492 0.71141
 H484 H 0.22297 0.63164 0.68122
 H485 H 0.18125 0.63163 0.72320
 N486 N 0.19880 0.68648 0.64786
 N487 N 0.18560 0.69907 0.64761
 C488 C 0.18825 0.71032 0.63300
 C489 C 0.20397 0.70465 0.62355
 C490 C 0.21020 0.68940 0.63342
 H491 H 0.17931 0.72175 0.62951
 H492 H 0.22210 0.68094 0.63031
 H493 H 0.17205 0.67203 0.66673
 H494 H 0.18676 0.68775 0.68144
 N495 N 1.18621 0.14763 0.19875
 N496 N 1.19881 0.14763 0.18567
 C497 C 1.21018 0.13308 0.18821
 C498 C 1.20444 0.12343 0.20378
 C499 C 1.18912 0.13313 0.21003
 H500 H 1.22177 0.12980 0.17937
 H501 H 1.18062 0.12994 0.22189
 Cu502 Cu 1.19911 0.16681 0.16678
 Cu503 Cu 1.16697 0.16642 0.20034
 Cu504 Cu 1.16700 0.20042 0.16658
 N505 N 1.19884 0.18582 0.14772
 N506 N 1.18626 0.19893 0.14781
 C507 C 1.18917 0.21029 0.13338
 C508 C 1.20447 0.20407 0.12363
 C509 C 1.21021 0.18843 0.13319
 H510 H 1.18071 0.22221 0.13029
 H511 H 1.22177 0.17959 0.12984
 N512 N 1.14868 0.19953 0.18672
 N513 N 1.14866 0.18659 0.19957
 C514 C 1.13447 0.18969 0.21123
 C515 C 1.12507 0.20539 0.20551
 C516 C 1.13451 0.21119 0.18986
 H517 H 1.13119 0.18103 0.22294
 H518 H 1.13125 0.22296 0.18127
 H519 H 1.16639 0.17248 0.17240
 H520 H 1.18166 0.18719 0.18723
 N521 N 0.64796 1.05103 0.56375
 N522 N 0.64793 1.06416 0.55119
 C523 C 0.63334 1.06165 0.53984
 C524 C 0.62371 1.04604 0.54553
 C525 C 0.63345 1.03975 0.56082
 H526 H 0.62998 1.07058 0.52834
 H527 H 0.63026 1.02787 0.56929
 Cu528 Cu 0.66698 1.08324 0.55103
 Cu529 Cu 0.66677 1.04939 0.58297
 Cu530 Cu 0.70078 1.08312 0.58308
 N531 N 0.68625 1.10208 0.55127
 N532 N 0.69936 1.10195 0.56387
 C533 C 0.71078 1.11636 0.56098
 C534 C 0.70458 1.12614 0.54569
 C535 C 0.68890 1.11663 0.53993
 H536 H 0.72270 1.11944 0.56947
 H537 H 0.68003 1.12004 0.52840
 N538 N 0.69990 1.06292 0.60133
 N539 N 0.68696 1.05006 0.60125
 C540 C 0.69001 1.03832 0.61537
 C541 C 0.70569 1.04400 0.62487
 C542 C 0.71154 1.05970 0.61553
 H543 H 0.68134 1.02658 0.61854
 H544 H 0.72330 1.06830 0.61889
 H545 H 0.67269 1.07741 0.58375
 H546 H 0.68729 1.06269 0.56827
 N547 N 0.56353 0.55041 0.14846
 N548 N 0.55072 0.56328 0.14867
 C549 C 0.53891 0.56028 0.13453
 C550 C 0.54460 0.54463 0.12493
 C551 C 0.56034 0.53880 0.13424
 H552 H 0.52712 0.56892 0.13145
 H553 H 0.56896 0.52706 0.13093
 Cu554 Cu 0.55088 0.58264 0.16746
 Cu555 Cu 0.58354 0.54962 0.16654
 Cu556 Cu 0.58418 0.58418 0.19988
 N557 N 0.55143 0.60213 0.18611
 N558 N 0.56449 0.60257 0.19876
 C559 C 0.56172 0.61720 0.20995
 C560 C 0.54600 0.62652 0.20411
 C561 C 0.53988 0.61650 0.18887
 H562 H 0.57059 0.62076 0.22146
 H563 H 0.52791 0.61941 0.18040
 N564 N 0.60286 0.56434 0.19868
 N565 N 0.60262 0.55120 0.18599
 C566 C 0.61707 0.53980 0.18884
 C567 C 0.62694 0.54600 0.20412
 C568 C 0.61747 0.56165 0.20993
 H569 H 0.62017 0.52788 0.18037
 H570 H 0.62095 0.57050 0.22148
 H571 H 0.56945 0.56295 0.18757
 H572 H 0.58387 0.57769 0.17205
 N573 N 0.64766 0.68567 0.19857
 N574 N 0.64788 0.69860 0.18581
 C575 C 0.63353 0.71015 0.18864
 C576 C 0.62377 0.70417 0.20406
 C577 C 0.63322 0.68854 0.20993
 H578 H 0.63042 0.72199 0.18008
 H579 H 0.62989 0.67981 0.22157
 Cu580 Cu 0.66701 0.69900 0.16687
 Cu581 Cu 0.66610 0.66605 0.19964
 Cu582 Cu 0.70001 0.66625 0.16579
 N583 N 0.68594 0.69881 0.14774
 N584 N 0.69879 0.68598 0.14747
 C585 C 0.71010 0.68897 0.13301
 C586 C 0.70409 0.70458 0.12362
 C587 C 0.68865 0.71042 0.13342
 H588 H 0.72178 0.68031 0.12961
 H589 H 0.68000 0.72221 0.13037
 N590 N 0.69884 0.64748 0.18551
 N591 N 0.68592 0.64739 0.19838
 C592 C 0.68883 0.63295 0.20976
 C593 C 0.70439 0.62343 0.20385
 C594 C 0.71031 0.63308 0.18838
 H595 H 0.68019 0.62961 0.22147
 H596 H 0.72209 0.62988 0.17978
 H597 H 0.68710 0.68066 0.18684
 H598 H 0.67209 0.66602 0.17168
 N599 N 0.14913 0.06327 1.04999
 N600 N 0.14887 0.05081 1.06320
 C601 C 0.13476 0.03901 1.06013
 C602 C 0.12563 0.04435 1.04410
 C603 C 0.13521 0.05985 1.03810
 H604 H 0.13132 0.02751 1.06901
 H605 H 0.13225 0.06819 1.02606
 Cu606 Cu 0.16688 0.05120 1.08324
 Cu607 Cu 0.16728 0.08315 1.04930
 Cu608 Cu 0.20044 0.08363 1.08384
 N609 N 0.18613 0.05136 1.10209
 N610 N 0.19920 0.06399 1.10220
 C611 C 0.21061 0.06090 1.11658
 C612 C 0.20443 0.04544 1.12609
 C613 C 0.18881 0.03977 1.11643
 H614 H 0.22247 0.06940 1.11984
 H615 H 0.18001 0.02811 1.11958
 N616 N 0.19940 0.10233 1.06410
 N617 N 0.18675 0.10216 1.05094
 C618 C 0.18964 0.11664 1.03961
 C619 C 0.20493 0.12644 1.04586
 C620 C 0.21069 0.11692 1.06148
 H621 H 0.18117 0.11981 1.02772
 H622 H 0.22222 0.12034 1.07036
 H623 H 0.18764 0.06848 1.06312
 H624 H 0.17260 0.08395 1.07741
 N625 N 0.60248 0.19931 0.56343
 N626 N 0.60251 0.18604 0.55100
 C627 C 0.61715 0.18836 0.53969
 C628 C 0.62679 0.20401 0.54531
 C629 C 0.61701 0.21054 0.56051
 H630 H 0.62052 0.17926 0.52829
 H631 H 0.62014 0.22251 0.56893
 Cu632 Cu 0.58342 0.16703 0.55089
 Cu633 Cu 0.58365 0.20100 0.58257
 Cu634 Cu 0.54958 0.16707 0.58250
 N635 N 0.56427 0.14807 0.55091
 N636 N 0.55107 0.14822 0.56334
 C637 C 0.53974 0.13375 0.56044
 C638 C 0.54615 0.12387 0.54526
 C639 C 0.56182 0.13341 0.53959
 H640 H 0.52776 0.13075 0.56885
 H641 H 0.57082 0.12996 0.52817
 N642 N 0.55045 0.18736 0.60076
 N643 N 0.56337 0.20027 0.60079
 C644 C 0.56016 0.21201 0.61493
 C645 C 0.54446 0.20625 0.62428
 C646 C 0.53872 0.19056 0.61485
 H647 H 0.56869 0.22383 0.61823
 H648 H 0.52692 0.18201 0.61808
 H649 H 0.57744 0.17317 0.58346
 H650 H 0.56291 0.18774 0.56791
 N651 N 0.10076 0.56276 0.70076
 N652 N 0.10069 0.54999 0.68781
 C653 C 0.11479 0.53821 0.69083
 C654 C 0.12428 0.54387 0.70656
 C655 C 0.11491 0.55955 0.71245
 H656 H 0.11797 0.52647 0.68212
 H657 H 0.11821 0.56819 0.72420
 Cu658 Cu 0.08224 0.54994 0.66816
 Cu659 Cu 0.08274 0.58275 0.70141
 Cu660 Cu 0.04890 0.58249 0.66755
 N661 N 0.06260 0.54970 0.64970
 N662 N 0.04962 0.56240 0.64960
 C663 C 0.03796 0.55909 0.63545
 C664 C 0.04389 0.54341 0.62608
 C665 C 0.05962 0.53785 0.63559
 H666 H 0.02621 0.56767 0.63213
 H667 H 0.06836 0.52615 0.63242
 N668 N 0.05044 0.60168 0.68685
 N669 N 0.06333 0.60177 0.69976
 C670 C 0.06070 0.61652 0.71086
 C671 C 0.04531 0.62619 0.70472
 C672 C 0.03926 0.61635 0.68938
 H673 H 0.06941 0.61995 0.72252
 H674 H 0.02758 0.61960 0.68065
 H675 H 0.06206 0.56783 0.68836
 H676 H 0.07690 0.58286 0.67345
 N677 N 0.64843 0.55036 0.06339
 N678 N 0.64862 0.56322 0.05056
 C679 C 0.63454 0.56016 0.03872
 C680 C 0.62496 0.54451 0.04441
 C681 C 0.63427 0.53870 0.06017
 H682 H 0.63155 0.56872 0.02686
 H683 H 0.63099 0.52694 0.06880
 Cu684 Cu 0.66738 0.58262 0.05065
 Cu685 Cu 0.66650 0.54968 0.08337
 Cu686 Cu 0.69971 0.58439 0.08406
 N687 N 0.68594 0.60219 0.05130
 N688 N 0.69855 0.60274 0.06440
 C689 C 0.70973 0.61736 0.06159
 C690 C 0.70386 0.62659 0.04582
 C691 C 0.68869 0.61649 0.03969
 H692 H 0.72127 0.62091 0.07043
 H693 H 0.68032 0.61923 0.02762
 N694 N 0.69858 0.56454 0.10276
 N695 N 0.68597 0.55133 0.10250
 C696 C 0.68898 0.53987 0.11687
 C697 C 0.70429 0.54606 0.12668
 C698 C 0.70992 0.56181 0.11731
 H699 H 0.68060 0.52789 0.11997
 H700 H 0.72140 0.57071 0.12084
 H701 H 0.67192 0.57781 0.08373
 H702 H 0.68753 0.56309 0.06936
 N703 N 0.06443 0.69896 0.60267
 N704 N 0.05172 0.68596 0.60262
 C705 C 0.04020 0.68875 0.61700
 C706 C 0.04597 0.70437 0.62662
 C707 C 0.06145 0.71043 0.61705
 H708 H 0.02849 0.68003 0.62018
 H709 H 0.06999 0.72228 0.62025
 Cu710 Cu 0.05137 0.66666 0.58376
 Cu711 Cu 0.08392 0.70012 0.58414
 Cu712 Cu 0.08302 0.66699 0.54953
 N713 N 0.05079 0.64856 0.56373
 N714 N 0.06312 0.64884 0.55039
 C715 C 0.05964 0.63486 0.53856
 C716 C 0.04424 0.62521 0.54473
 C717 C 0.03903 0.63438 0.56080
 H718 H 0.06788 0.63190 0.52646
 H719 H 0.02765 0.63089 0.56982
 N720 N 0.10208 0.68643 0.55100
 N721 N 0.10245 0.69903 0.56421
 C722 C 0.11709 0.71024 0.56151
 C723 C 0.12645 0.70448 0.54577
 C724 C 0.11647 0.68930 0.53953
 H725 H 0.12067 0.72172 0.57041
 H726 H 0.11946 0.68088 0.52754
 H727 H 0.06856 0.68741 0.56352
 H728 H 0.08407 0.67227 0.57762
 N729 N 0.56331 1.05069 0.64755
 N730 N 0.55055 1.06361 0.64768
 C731 C 0.53913 1.06100 0.63314
 C732 C 0.54511 1.04562 0.62317
 C733 C 0.56056 1.03952 0.63288
 H734 H 0.52738 1.06971 0.63007
 H735 H 0.56935 1.02791 0.62956
 Cu736 Cu 0.55003 1.08231 0.66719
 Cu737 Cu 0.58262 1.04920 0.66639
 Cu738 Cu 0.58182 1.08252 0.70110
 N739 N 0.54968 1.10106 0.68665
 N740 N 0.56214 1.10097 0.69990
 C741 C 0.55890 1.11522 0.71147
 C742 C 0.54346 1.12489 0.70527
 C743 C 0.53799 1.11533 0.68944
 H744 H 0.56742 1.11835 0.72335
 H745 H 0.52648 1.11855 0.68046
 N746 N 0.60060 1.06273 0.69986
 N747 N 0.60090 1.05009 0.68667
 C748 C 0.61537 1.03872 0.68954
 C749 C 0.62463 1.04435 0.70540
 C750 C 0.61486 1.05972 0.71147
 H751 H 0.61896 1.02728 0.68061
 H752 H 0.61795 1.06819 0.72341
 H753 H 0.56756 1.06161 0.68742
 H754 H 0.58276 1.07679 0.67321
 N755 N 0.44900 0.35290 0.93558
 N756 N 0.43638 0.35252 0.94864
 C757 C 0.43912 0.36695 0.96017
 C758 C 0.45436 0.37700 0.95405
 C759 C 0.46017 0.36756 0.93832
 H760 H 0.43060 0.36983 0.97209
 H761 H 0.47162 0.37100 0.92938
 Cu762 Cu 0.41784 0.33294 0.94929
 Cu763 Cu 0.45010 0.33441 0.91590
 Cu764 Cu 0.41695 0.29975 0.91668
 N765 N 0.39914 0.31350 0.94951
 N766 N 0.39897 0.30055 0.93672
 C767 C 0.38482 0.28890 0.93994
 C768 C 0.37554 0.29475 0.95568
 C769 C 0.38506 0.31048 0.96134
 H770 H 0.38150 0.27715 0.93129
 H771 H 0.38193 0.31917 0.97310
 N772 N 0.43629 0.30129 0.89755
 N773 N 0.44891 0.31448 0.89722
 C774 C 0.46006 0.31173 0.88254
 C775 C 0.45424 0.29600 0.87315
 C776 C 0.43908 0.28982 0.88312
 H777 H 0.47153 0.32060 0.87895
 H778 H 0.43067 0.27782 0.88014
 H779 H 0.42229 0.32783 0.91627
 H780 H 0.43793 0.31322 0.93074
 N781 N 0.94915 0.43587 0.35294
 N782 N 0.93653 0.44892 0.35252
 C783 C 0.93927 0.46047 0.36693
 C784 C 0.95452 0.45439 0.37698
 C785 C 0.96038 0.43867 0.36754
 H786 H 0.93086 0.47248 0.36970
 H787 H 0.97190 0.42980 0.37095
 Cu788 Cu 0.91795 0.44961 0.33294
 Cu789 Cu 0.95020 0.41624 0.33445
 Cu790 Cu 0.91695 0.41703 0.29977
 N791 N 0.89921 0.44985 0.31351
 N792 N 0.89899 0.43706 0.30057
 C793 C 0.88486 0.44032 0.28891
 C794 C 0.87558 0.45606 0.29479
 C795 C 0.88514 0.46169 0.31050
 H796 H 0.88153 0.43172 0.27713
 H797 H 0.88214 0.47353 0.31911
 N798 N 0.93630 0.39788 0.30133
 N799 N 0.94894 0.39756 0.31451
 C800 C 0.96013 0.38292 0.31173
 C801 C 0.95433 0.37355 0.29598
 C802 C 0.93913 0.38347 0.28983
 H803 H 0.97161 0.37933 0.32059
 H804 H 0.93069 0.38046 0.27786
 H805 H 0.93797 0.43095 0.31319
 H806 H 0.92238 0.41654 0.32781
 N807 N 0.29999 0.93809 0.39936
 N808 N 0.31325 0.95052 0.39910
 C809 C 0.31045 0.96202 0.38470
 C810 C 0.29454 0.95652 0.37541
 C811 C 0.28834 0.94123 0.38519
 H812 H 0.31943 0.97345 0.38119
 H813 H 0.27630 0.93287 0.38222
 Cu814 Cu 0.33295 0.95043 0.41756
 Cu815 Cu 0.29885 0.91857 0.41785
 Cu816 Cu 0.33276 0.91863 0.45164
 N817 N 0.35144 0.95059 0.43722
 N818 N 0.35124 0.93817 0.45045
 C819 C 0.36547 0.94132 0.46204
 C820 C 0.37526 0.95666 0.45583
 C821 C 0.36583 0.96213 0.43996
 H822 H 0.36843 0.93289 0.47401
 H823 H 0.36920 0.97354 0.43094
 N824 N 0.31293 0.89996 0.45057
 N825 N 0.30001 0.89993 0.43768
 C826 C 0.28859 0.88548 0.44057
 C827 C 0.29455 0.87590 0.45609
 C828 C 0.31007 0.88553 0.46200
 H829 H 0.27688 0.88215 0.43190
 H830 H 0.31874 0.88227 0.47372
 H831 H 0.31235 0.93357 0.43821
 H832 H 0.32681 0.91780 0.42367
 O833 O 0.20078 0.52365 0.74885
 O834 O 0.20768 0.52204 0.78151
 O835 O 0.24857 0.54946 0.72633
 O836 O 0.27939 0.54464 0.72701
 O837 O 0.22609 0.50140 0.70085
 O838 O 0.22809 0.46879 0.70743
 O839 O 0.29825 0.49863 0.77435
 O840 O 0.29326 0.53104 0.77072
 O841 O 0.25224 0.47607 0.79812
 O842 O 0.21824 0.47801 0.79186
 O843 O 0.27458 0.45223 0.75174
 O844 O 0.27237 0.45852 0.71788
 O845 O 0.29832 0.47648 0.75199
 O846 O 0.29193 0.47893 0.71779
 O847 O 0.25241 0.45205 0.77399
 O848 O 0.21819 0.45822 0.77164
 O849 O 0.27446 0.49832 0.79816
 O850 O 0.27118 0.53226 0.79228
 O851 O 0.20077 0.50140 0.72652
 O852 O 0.20767 0.46853 0.72847
 O853 O 0.24815 0.52387 0.70086
 O854 O 0.28143 0.52064 0.70766
 O855 O 0.22623 0.54932 0.74848
 O856 O 0.22826 0.54266 0.78148
 Zr857 Zr 0.22763 0.52261 0.76015
 O858 O 0.24396 0.50628 0.77790
 Zr859 Zr 0.25999 0.52271 0.72749
 O860 O 0.27794 0.50664 0.74395
 Zr861 Zr 0.22755 0.48998 0.72762
 O862 O 0.24410 0.47228 0.74380
 Zr863 Zr 0.27203 0.51093 0.77207
 O864 O 0.25574 0.52896 0.75571
 Zr865 Zr 0.23968 0.47815 0.77193
 O866 O 0.22147 0.49443 0.75577
 Zr867 Zr 0.27216 0.47847 0.73938
 O868 O 0.25561 0.49454 0.72133
 O869 O 0.23211 0.51793 0.73221
 O870 O 0.26765 0.48288 0.76742
 C871 C 0.19298 0.51460 0.73560
 C872 C 0.23522 0.55714 0.73525
 C873 C 0.23495 0.51476 0.69309
 C874 C 0.30581 0.48505 0.76569
 C875 C 0.26589 0.48467 0.80566
 C876 C 0.26606 0.44462 0.76536
 H877 H 0.24094 0.50915 0.79092
 H878 H 0.24123 0.45925 0.74080
 H879 H 0.22413 0.52579 0.72436
 H880 H 0.29097 0.50973 0.74122
 H881 H 0.28780 0.54212 0.76482
 H882 H 0.29050 0.54045 0.73380
 H883 H 0.22054 0.44959 0.76127
 H884 H 0.20144 0.46951 0.74062
 H885 H 0.26086 0.52969 0.80087
 H886 H 0.24044 0.54886 0.78065
 H887 H 0.26158 0.45029 0.71966
 H888 H 0.24043 0.46941 0.70153
 H889 H 0.20175 0.50970 0.78095
 H890 H 0.22018 0.48870 0.80022
 H891 H 0.27931 0.50903 0.70068
 H892 H 0.30050 0.48935 0.72017
 O893 O 0.25188 -0.02357 0.29892
 O894 O 0.21915 -0.02203 0.29231
 O895 O 0.27404 -0.04929 0.25104
 O896 O 0.27342 -0.04444 0.22018
 O897 O 0.29944 -0.00106 0.27340
 O898 O 0.29264 0.03158 0.27143
 O899 O 0.22577 0.00137 0.20152
 O900 O 0.22953 -0.03104 0.20653
 O901 O 0.20202 0.02379 0.24774
 O902 O 0.20832 0.02215 0.28158
 O903 O 0.24823 0.04784 0.22520
 O904 O 0.28211 0.04167 0.22732
 O905 O 0.24805 0.02357 0.20141
 O906 O 0.28225 0.02132 0.20773
 O907 O 0.22604 0.04795 0.24743
 O908 O 0.22866 0.04176 0.28172
 O909 O 0.20204 0.00161 0.22542
 O910 O 0.20806 -0.03229 0.22861
 O911 O 0.27403 -0.00117 0.29888
 O912 O 0.27183 0.03166 0.29205
 O913 O 0.29943 -0.02358 0.25136
 O914 O 0.29254 -0.02031 0.21812
 O915 O 0.25194 -0.04921 0.27344
 O916 O 0.21903 -0.04260 0.27153
 Zr917 Zr 0.24030 -0.02252 0.27215
 O918 O 0.22242 -0.00628 0.25588
 Zr919 Zr 0.27279 -0.02252 0.23963
 O920 O 0.25623 -0.00652 0.22174
 Zr921 Zr 0.27264 0.01023 0.27211
 O922 O 0.25633 0.02786 0.25563
 Zr923 Zr 0.22817 -0.01090 0.22776
 O924 O 0.24465 -0.02886 0.24399
 Zr925 Zr 0.22828 0.02188 0.26016
 O926 O 0.24456 0.00568 0.27832
 Zr927 Zr 0.26070 0.02166 0.22755
 O928 O 0.27886 0.00566 0.24403
 O929 O 0.26818 -0.01775 0.26754
 O930 O 0.23271 0.01717 0.23215
 C931 C 0.26511 -0.01446 0.30668
 C932 C 0.26514 -0.05701 0.26438
 C933 C 0.30720 -0.01439 0.26451
 C934 C 0.23437 0.01496 0.19394
 C935 C 0.19449 0.01518 0.23409
 C936 C 0.23461 0.05541 0.23376
 H937 H 0.20944 -0.00920 0.25896
 H938 H 0.25928 0.04091 0.25850
 H939 H 0.27608 -0.02561 0.27546
 H940 H 0.25893 -0.00960 0.20868
 H941 H 0.23554 -0.04208 0.21198
 H942 H 0.26649 -0.04032 0.20912
 H943 H 0.23883 0.05057 0.27920
 H944 H 0.25969 0.03069 0.29829
 H945 H 0.19953 -0.02978 0.23900
 H946 H 0.21993 -0.04888 0.25938
 H947 H 0.28029 0.04993 0.23810
 H948 H 0.29857 0.03089 0.25911
 H949 H 0.21970 -0.00967 0.29822
 H950 H 0.20032 0.01116 0.27998
 H951 H 0.29946 -0.00867 0.22024
 H952 H 0.27988 0.01092 0.19912
 O953 O 0.45132 0.75183 0.27371
 O954 O 0.45792 0.71910 0.27193
 O955 O 0.49925 0.77405 0.29932
 O956 O 0.53008 0.77327 0.29438
 O957 O 0.47684 0.79959 0.25128
 O958 O 0.47857 0.79288 0.21869
 O959 O 0.54847 0.72589 0.24804
 O960 O 0.54368 0.72952 0.28052
 O961 O 0.50220 0.70217 0.22566
 O962 O 0.46837 0.70846 0.22775
 O963 O 0.52463 0.74871 0.20186
 O964 O 0.52260 0.78250 0.20838
 O965 O 0.54856 0.74823 0.22595
 O966 O 0.54236 0.78244 0.22857
 O967 O 0.50240 0.72647 0.20175
 O968 O 0.46814 0.72882 0.20821
 O969 O 0.52451 0.70211 0.24783
 O970 O 0.52162 0.70805 0.28181
 O971 O 0.45130 0.77410 0.25149
 O972 O 0.45797 0.77204 0.21858
 O973 O 0.49895 0.79955 0.27371
 O974 O 0.53214 0.79262 0.27041
 O975 O 0.47686 0.75190 0.29921
 O976 O 0.47874 0.71905 0.29251
 Zr977 Zr 0.47806 0.74032 0.27246
 O978 O 0.49422 0.72249 0.25603
 Zr979 Zr 0.51059 0.77286 0.27251
 O980 O 0.52839 0.75634 0.25630
 Zr981 Zr 0.47799 0.77279 0.23991
 O982 O 0.49436 0.75654 0.22211
 Zr983 Zr 0.52235 0.72824 0.26052
 O984 O 0.50623 0.74466 0.27867
 Zr985 Zr 0.48982 0.72844 0.22793
 O986 O 0.47178 0.74467 0.24432
 Zr987 Zr 0.52247 0.76092 0.22818
 O988 O 0.50610 0.77901 0.24438
 O989 O 0.48267 0.76824 0.26784
 O990 O 0.51785 0.73288 0.23251
 C991 C 0.44354 0.76509 0.26474
 C992 C 0.48593 0.76511 0.30705
 C993 C 0.48583 0.80737 0.26457
 C994 C 0.55602 0.73451 0.23445
 C995 C 0.51585 0.69461 0.23419
 C996 C 0.51602 0.73511 0.19426
 H997 H 0.49114 0.70949 0.25890
 H998 H 0.49142 0.75955 0.20910
 H999 H 0.47480 0.77614 0.27576
 H1000 H 0.54146 0.75902 0.25932
 H1001 H 0.53832 0.73551 0.29162
 H1002 H 0.54116 0.76648 0.29011
 H1003 H 0.47050 0.73917 0.19957
 H1004 H 0.45161 0.75994 0.21959
 H1005 H 0.51121 0.69952 0.27933
 H1006 H 0.49098 0.71988 0.29862
 H1007 H 0.51179 0.78071 0.20016
 H1008 H 0.49092 0.79877 0.21928
 H1009 H 0.45199 0.71967 0.25958
 H1010 H 0.47015 0.70029 0.23857
 H1011 H 0.53008 0.79952 0.25876
 H1012 H 0.55097 0.78005 0.23894
 O1013 O -0.04920 0.75173 0.77376
 O1014 O -0.04266 0.71898 0.77202
 O1015 O -0.00117 0.77376 0.79948
 O1016 O 0.02962 0.77318 0.79450
 O1017 O -0.02371 0.79944 0.75155
 O1018 O -0.02176 0.79275 0.71881
 O1019 O 0.04799 0.72562 0.74826
 O1020 O 0.04317 0.72942 0.78078
 O1021 O 0.00176 0.70201 0.72592
 O1022 O -0.03225 0.70843 0.72804
 O1023 O 0.02420 0.74820 0.70211
 O1024 O 0.02232 0.78210 0.70840
 O1025 O 0.04810 0.74795 0.72616
 O1026 O 0.04200 0.78211 0.72865
 O1027 O 0.00193 0.72601 0.70197
 O1028 O -0.03215 0.72854 0.70817
 O1029 O 0.02407 0.70197 0.74809
 O1030 O 0.02097 0.70791 0.78207
 O1031 O -0.04918 0.77393 0.75146
 O1032 O -0.04241 0.77191 0.71865
 O1033 O -0.00160 0.79936 0.77398
 O1034 O 0.03167 0.79243 0.77055
 O1035 O -0.02361 0.75165 0.79935
 O1036 O -0.02191 0.71885 0.79257
 Zr1037 Zr -0.02247 0.74016 0.77257
 O1038 O -0.00629 0.72230 0.75620
 Zr1039 Zr 0.01011 0.77269 0.77265
 O1040 O 0.02791 0.75615 0.75649
 Zr1041 Zr -0.02244 0.77266 0.74003
 O1042 O -0.00608 0.75635 0.72225
 Zr1043 Zr 0.02185 0.72806 0.76075
 O1044 O 0.00570 0.74451 0.77883
 Zr1045 Zr -0.01066 0.72825 0.72810
 O1046 O -0.02870 0.74454 0.74443
 Zr1047 Zr 0.02203 0.76067 0.72834
 O1048 O 0.00568 0.77884 0.74451
 O1049 O -0.01782 0.76809 0.76797
 O1050 O 0.01736 0.73267 0.73273
 C1051 C -0.05696 0.76497 0.76473
 C1052 C -0.01448 0.76480 0.80721
 C1053 C -0.01479 0.80718 0.76493
 C1054 C 0.05554 0.73423 0.73466
 C1055 C 0.01542 0.69447 0.73446
 C1056 C 0.01560 0.73459 0.69451
 H1057 H -0.00938 0.70931 0.75908
 H1058 H -0.00897 0.75933 0.70923
 H1059 H -0.02571 0.77595 0.77591
 H1060 H 0.04097 0.75882 0.75952
 H1061 H 0.03774 0.73525 0.79194
 H1062 H 0.04062 0.76621 0.79031
 H1063 H -0.02985 0.73902 0.69967
 H1064 H -0.04867 0.75976 0.71957
 H1065 H 0.01067 0.69927 0.77946
 H1066 H -0.00971 0.71963 0.79875
 H1067 H 0.01148 0.78033 0.70022
 H1068 H -0.00942 0.79867 0.71950
 H1069 H -0.04862 0.71960 0.75970
 H1070 H -0.03030 0.70005 0.73868
 H1071 H 0.02954 0.79944 0.75898
 H1072 H 0.05052 0.77979 0.73911
 O1073 O 0.00183 0.04869 0.02380
 O1074 O -0.03081 0.04198 0.02199
 O1075 O 0.02418 0.00071 0.04910
 O1076 O 0.02379 -0.03011 0.04396
 O1077 O 0.04960 0.02348 0.00116
 O1078 O 0.04281 0.02162 -0.03152
 O1079 O -0.02365 -0.04872 -0.00175
 O1080 O -0.02017 -0.04365 0.03055
 O1081 O -0.04768 -0.00240 -0.02436
 O1082 O -0.04145 0.03158 -0.02182
 O1083 O -0.00163 -0.02474 -0.04827
 O1084 O 0.03231 -0.02251 -0.04215
 O1085 O -0.00160 -0.04863 -0.02414
 O1086 O 0.03263 -0.04216 -0.02188
 O1087 O -0.02371 -0.00238 -0.04827
 O1088 O -0.02131 0.03180 -0.04175
 O1089 O -0.04748 -0.02493 -0.00246
 O1090 O -0.04175 -0.02173 0.03169
 O1091 O 0.02393 0.04887 0.00140
 O1092 O 0.02195 0.04214 -0.03150
 O1093 O 0.04965 0.00134 0.02350
 O1094 O 0.04288 -0.03197 0.01999
 O1095 O 0.00197 0.02301 0.04918
 O1096 O -0.03093 0.02113 0.04240
 Zr1097 Zr -0.00958 0.02189 0.02244
 O1098 O -0.02738 0.00564 0.00604
 Zr1099 Zr 0.02306 -0.01051 0.02224
 O1100 O 0.00657 -0.02837 0.00605
 Zr1101 Zr 0.02281 0.02212 -0.01022
 O1102 O 0.00655 0.00569 -0.02803
 Zr1103 Zr -0.02150 -0.02245 0.01045
 O1104 O -0.00509 -0.00627 0.02857
 Zr1105 Zr -0.02152 0.01012 -0.02206
 O1106 O -0.00529 0.02822 -0.00568
 Zr1107 Zr 0.01099 -0.02243 -0.02209
 O1108 O 0.02911 -0.00598 -0.00590
 O1109 O 0.01833 0.01741 0.01771
 O1110 O -0.01699 -0.01791 -0.01757
 C1111 C 0.01498 0.05657 0.01475
 C1112 C 0.01519 0.01394 0.05693
 C1113 C 0.05739 0.01456 0.01445
 C1114 C -0.01514 -0.05621 -0.01544
 C1115 C -0.05507 -0.01624 -0.01599
 C1116 C -0.01524 -0.01611 -0.05579
 H1117 H -0.04038 0.00861 0.00898
 H1118 H 0.00947 0.00863 -0.04105
 H1119 H 0.02619 0.02533 0.02566
 H1120 H 0.00934 -0.04143 0.00904
 H1121 H -0.01430 -0.03816 0.04167
 H1122 H 0.01660 -0.04102 0.03985
 H1123 H -0.01096 0.02954 -0.05039
 H1124 H 0.00977 0.04831 -0.03054
 H1125 H -0.05073 -0.01183 0.02881
 H1126 H -0.02998 0.00899 0.04866
 H1127 H 0.03042 -0.01170 -0.05032
 H1128 H 0.04872 0.00928 -0.03099
 H1129 H -0.03028 0.04788 0.00965
 H1130 H -0.04980 0.02947 -0.01119
 H1131 H 0.04984 -0.02978 0.00841
 H1132 H 0.03029 -0.05086 -0.01159
 O1133 O 0.04896 0.52343 0.50163
 O1134 O 0.04216 0.52194 0.46897
 O1135 O 0.00113 0.54894 0.52420
 O1136 O -0.02968 0.54396 0.52358
 O1137 O 0.02372 0.50090 0.54941
 O1138 O 0.02177 0.46825 0.54260
 O1139 O -0.04837 0.49794 0.47596
 O1140 O -0.04350 0.53036 0.47973
 O1141 O -0.00234 0.47576 0.45198
 O1142 O 0.03166 0.47756 0.45824
 O1143 O -0.02448 0.45157 0.49830
 O1144 O -0.02240 0.45782 0.53214
 O1145 O -0.04838 0.47572 0.49818
 O1146 O -0.04192 0.47822 0.53241
 O1147 O -0.00242 0.45164 0.47595
 O1148 O 0.03177 0.45791 0.47837
 O1149 O -0.02468 0.49785 0.45208
 O1150 O -0.02144 0.53177 0.45819
 O1151 O 0.04908 0.50109 0.52378
 O1152 O 0.04232 0.46822 0.52170
 O1153 O 0.00154 0.52321 0.54958
 O1154 O -0.03173 0.51981 0.54266
 O1155 O 0.02341 0.54895 0.50198
 O1156 O 0.02129 0.54239 0.46909
 Zr1157 Zr 0.02214 0.52225 0.49026
 O1158 O 0.00589 0.50589 0.47238
 Zr1159 Zr -0.01022 0.52211 0.52291
 O1160 O -0.02810 0.50598 0.50635
 Zr1161 Zr 0.02234 0.48955 0.52258
 O1162 O 0.00587 0.47180 0.50629
 Zr1163 Zr -0.02221 0.51037 0.47825
 O1164 O -0.00600 0.52843 0.49474
 Zr1165 Zr 0.01024 0.47777 0.47820
 O1166 O 0.02840 0.49409 0.49445
 Zr1167 Zr -0.02221 0.47782 0.51076
 O1168 O -0.00572 0.49395 0.52890
 O1169 O 0.01767 0.51750 0.51818
 O1170 O -0.01774 0.48233 0.48274
 C1171 C 0.05680 0.51440 0.51482
 C1172 C 0.01440 0.55672 0.51524
 C1173 C 0.01476 0.51413 0.55729
 C1174 C -0.05590 0.48432 0.48455
 C1175 C -0.01603 0.48429 0.44448
 C1176 C -0.01598 0.44407 0.48459
 H1177 H 0.00893 0.50881 0.45939
 H1178 H 0.00878 0.45877 0.50921
 H1179 H 0.02561 0.52539 0.52607
 H1180 H -0.04115 0.50900 0.50908
 H1181 H -0.03807 0.54146 0.48570
 H1182 H -0.04075 0.53978 0.51668
 H1183 H 0.02943 0.44922 0.48867
 H1184 H 0.04853 0.46920 0.50954
 H1185 H -0.01114 0.52925 0.44955
 H1186 H 0.00907 0.54848 0.47001
 H1187 H -0.01147 0.44977 0.53044
 H1188 H 0.00950 0.46895 0.54864
 H1189 H 0.04805 0.50958 0.46939
 H1190 H 0.02989 0.48839 0.45008
 H1191 H -0.02954 0.50822 0.54961
 H1192 H -0.05058 0.48854 0.53003
 O1193 O 0.47631 -0.04902 0.49828
 O1194 O 0.47792 -0.04226 0.53095
 O1195 O 0.45099 -0.00113 0.47575
 O1196 O 0.45600 0.02968 0.47630
 O1197 O 0.49911 -0.02381 0.45057
 O1198 O 0.53170 -0.02207 0.45753
 O1199 O 0.50202 0.04846 0.52381
 O1200 O 0.46935 0.04340 0.52031
 O1201 O 0.52420 0.00243 0.54794
 O1202 O 0.52209 -0.03153 0.54195
 O1203 O 0.54815 0.02447 0.50165
 O1204 O 0.54184 0.02210 0.46762
 O1205 O 0.52421 0.04834 0.50157
 O1206 O 0.52176 0.04194 0.46757
 O1207 O 0.54819 0.00230 0.52391
 O1208 O 0.54167 -0.03201 0.52155
 O1209 O 0.50206 0.02473 0.54783
 O1210 O 0.46812 0.02144 0.54177
 O1211 O 0.49869 -0.04919 0.47616
 O1212 O 0.53154 -0.04254 0.47846
 O1213 O 0.47679 -0.00163 0.45040
 O1214 O 0.48008 0.03158 0.45720
 O1215 O 0.45089 -0.02337 0.49801
 O1216 O 0.45746 -0.02141 0.53089
 Zr1217 Zr 0.47757 -0.02219 0.50970
 O1218 O 0.49392 -0.00588 0.52756
 Zr1219 Zr 0.47779 0.01016 0.47704
 O1220 O 0.49388 0.02808 0.49357
 Zr1221 Zr 0.51030 -0.02247 0.47744
 O1222 O 0.52803 -0.00595 0.49369
 Zr1223 Zr 0.48949 0.02224 0.52168
 O1224 O 0.47145 0.00598 0.50521
 Zr1225 Zr 0.52203 -0.01029 0.52178
 O1226 O 0.50571 -0.02849 0.50556
 Zr1227 Zr 0.52199 0.02213 0.48914
 O1228 O 0.50591 0.00560 0.47104
 O1229 O 0.48236 -0.01776 0.48179
 O1230 O 0.51750 0.01771 0.51717
 C1231 C 0.48536 -0.05690 0.48510
 C1232 C 0.44316 -0.01435 0.48473
 C1233 C 0.48592 -0.01483 0.44269
 C1234 C 0.51567 0.05593 0.51518
 C1235 C 0.51566 0.01615 0.55541
 C1236 C 0.55568 0.01594 0.51531
 H1237 H 0.49097 -0.00889 0.54055
 H1238 H 0.54105 -0.00888 0.49077
 H1239 H 0.47447 -0.02568 0.47387
 H1240 H 0.49087 0.04113 0.49081
 H1241 H 0.45834 0.03792 0.51423
 H1242 H 0.46016 0.04073 0.48324
 H1243 H 0.55046 -0.02964 0.51134
 H1244 H 0.53049 -0.04870 0.49064
 H1245 H 0.47078 0.01132 0.55058
 H1246 H 0.45142 -0.00915 0.53006
 H1247 H 0.55020 0.01147 0.46965
 H1248 H 0.53118 -0.00976 0.45156
 H1249 H 0.49029 -0.04811 0.53054
 H1250 H 0.51126 -0.02964 0.55008
 H1251 H 0.49187 0.02958 0.45053
 H1252 H 0.51136 0.05053 0.46985
 O1253 O 0.54878 0.52402 0.00122
 O1254 O 0.54204 0.52213 -0.03158
 O1255 O 0.50084 0.54932 0.02346
 O1256 O 0.47003 0.54432 0.02283
 O1257 O 0.52349 0.50150 0.04894
 O1258 O 0.52156 0.46882 0.04226
 O1259 O 0.45151 0.49838 -0.02486
 O1260 O 0.45641 0.53075 -0.02102
 O1261 O 0.49784 0.47610 -0.04854
 O1262 O 0.53176 0.47811 -0.04206
 O1263 O 0.47538 0.45198 -0.00237
 O1264 O 0.47718 0.45819 0.03147
 O1265 O 0.45146 0.47616 -0.00265
 O1266 O 0.45776 0.47860 0.03169
 O1267 O 0.49758 0.45198 -0.02459
 O1268 O 0.53165 0.45818 -0.02197
 O1269 O 0.47544 0.49814 -0.04850
 O1270 O 0.47862 0.53215 -0.04243
 O1271 O 0.54887 0.50165 0.02335
 O1272 O 0.54211 0.46868 0.02142
 O1273 O 0.50130 0.52381 0.04896
 O1274 O 0.46803 0.52035 0.04205
 O1275 O 0.52318 0.54932 0.00130
 O1276 O 0.52135 0.54261 -0.03160
 Zr1277 Zr 0.52202 0.52260 -0.01029
 O1278 O 0.50581 0.50622 -0.02814
 Zr1279 Zr 0.48954 0.52251 0.02229
 O1280 O 0.47170 0.50637 0.00570
 Zr1281 Zr 0.52213 0.49002 0.02215
 O1282 O 0.50569 0.47223 0.00584
 Zr1283 Zr 0.47770 0.51074 -0.02237
 O1284 O 0.49387 0.52881 -0.00588
 Zr1285 Zr 0.51020 0.47812 -0.02225
 O1286 O 0.52831 0.49447 -0.00597
 Zr1287 Zr 0.47757 0.47822 0.01013
 O1288 O 0.49401 0.49436 0.02834
 O1289 O 0.51744 0.51793 0.01763
 O1290 O 0.48218 0.48270 -0.01785
 C1291 C 0.55659 0.51500 0.01444
 C1292 C 0.51412 0.55709 0.01451
 C1293 C 0.51455 0.51481 0.05672
 C1294 C 0.44397 0.48474 -0.01631
 C1295 C 0.48416 0.48461 -0.05606
 C1296 C 0.48394 0.44445 -0.01603
 H1297 H 0.50886 0.50913 -0.04113
 H1298 H 0.50858 0.45921 0.00880
 H1299 H 0.52534 0.52586 0.02551
 H1300 H 0.45864 0.50938 0.00839
 H1301 H 0.46183 0.54185 -0.01506
 H1302 H 0.45900 0.54011 0.01589
 H1303 H 0.52935 0.44964 -0.01154
 H1304 H 0.54836 0.46962 0.00927
 H1305 H 0.48884 0.52951 -0.05112
 H1306 H 0.50921 0.54886 -0.03070
 H1307 H 0.48817 0.45020 0.02990
 H1308 H 0.50922 0.46942 0.04815
 H1309 H 0.54804 0.50984 -0.03098
 H1310 H 0.52995 0.48890 -0.05026
 H1311 H 0.47019 0.50878 0.04906
 H1312 H 0.44903 0.48883 0.02922
 O1313 O 0.75222 0.27343 0.45104
 O1314 O 0.71959 0.27163 0.45749
 O1315 O 0.77429 0.29893 0.49916
 O1316 O 0.77345 0.29390 0.52997
 O1317 O 0.79993 0.25112 0.47652
 O1318 O 0.79324 0.21833 0.47835
 O1319 O 0.72616 0.24773 0.54815
 O1320 O 0.73010 0.28013 0.54344
 O1321 O 0.70249 0.22540 0.50163
 O1322 O 0.70897 0.22770 0.46777
 O1323 O 0.74869 0.20149 0.52417
 O1324 O 0.78271 0.20786 0.52211
 O1325 O 0.74841 0.22553 0.54822
 O1326 O 0.78257 0.22789 0.54217
 O1327 O 0.72650 0.20150 0.50189
 O1328 O 0.72905 0.20787 0.46773
 O1329 O 0.70246 0.24742 0.52411
 O1330 O 0.70851 0.28157 0.52129
 O1331 O 0.77444 0.25114 0.45099
 O1332 O 0.77252 0.21832 0.45759
 O1333 O 0.79982 0.27348 0.49872
 O1334 O 0.79293 0.27004 0.53195
 O1335 O 0.75215 0.29889 0.47675
 O1336 O 0.71927 0.29203 0.47841
 Zr1337 Zr 0.74068 0.27212 0.47776
 O1338 O 0.72283 0.25573 0.49388
 Zr1339 Zr 0.77317 0.27210 0.51039
 O1340 O 0.75665 0.25584 0.52810
 Zr1341 Zr 0.77318 0.23958 0.47770
 O1342 O 0.75685 0.22174 0.49396
 Zr1343 Zr 0.72858 0.26017 0.52204
 O1344 O 0.74500 0.27830 0.50596
 Zr1345 Zr 0.72877 0.22765 0.48938
 O1346 O 0.74508 0.24401 0.47142
 Zr1347 Zr 0.76117 0.22771 0.52213
 O1348 O 0.77933 0.24397 0.50586
 O1349 O 0.76858 0.26750 0.48243
 O1350 O 0.73318 0.23216 0.51744
 C1351 C 0.76546 0.26442 0.44324
 C1352 C 0.76531 0.30670 0.48589
 C1353 C 0.80763 0.26447 0.48550
 C1354 C 0.73472 0.23410 0.55569
 C1355 C 0.69494 0.23386 0.51532
 C1356 C 0.73504 0.19398 0.51555
 H1357 H 0.70984 0.25866 0.49081
 H1358 H 0.75982 0.20873 0.49100
 H1359 H 0.77644 0.27546 0.47457
 H1360 H 0.75936 0.25881 0.54118
 H1361 H 0.73560 0.29142 0.53796
 H1362 H 0.76651 0.28962 0.54095
 H1363 H 0.73944 0.19927 0.47003
 H1364 H 0.76033 0.21917 0.45141
 H1365 H 0.69971 0.27888 0.51115
 H1366 H 0.72021 0.29837 0.49052
 H1367 H 0.78074 0.19951 0.51142
 H1368 H 0.79918 0.21901 0.49069
 H1369 H 0.72004 0.25920 0.45172
 H1370 H 0.70062 0.23835 0.46976
 H1371 H 0.79993 0.25846 0.52984
 H1372 H 0.78031 0.23837 0.55070
 O1373 O 0.79859 0.75158 -0.02386
 O1374 O 0.79177 0.71895 -0.02238
 O1375 O 0.75072 0.77427 -0.04919
 O1376 O 0.71997 0.77375 -0.04419
 O1377 O 0.77360 0.79938 -0.00114
 O1378 O 0.77174 0.79276 0.03138
 O1379 O 0.70133 0.72610 0.00181
 O1380 O 0.70605 0.72985 -0.03068
 O1381 O 0.74733 0.70209 0.02377
 O1382 O 0.78130 0.70822 0.02203
 O1383 O 0.72536 0.74847 0.04807
 O1384 O 0.72740 0.78235 0.04185
 O1385 O 0.70132 0.74842 0.02401
 O1386 O 0.70779 0.78253 0.02147
 O1387 O 0.74741 0.72610 0.04798
 O1388 O 0.78155 0.72844 0.04166
 O1389 O 0.72496 0.70214 0.00166
 O1390 O 0.72831 0.70840 -0.03233
 O1391 O 0.79881 0.77376 -0.00146
 O1392 O 0.79205 0.77156 0.03158
 O1393 O 0.75139 0.79959 -0.02347
 O1394 O 0.71801 0.79277 -0.01986
 O1395 O 0.77303 0.75208 -0.04929
 O1396 O 0.77071 0.71915 -0.04290
 Zr1397 Zr 0.77176 0.74026 -0.02265
 O1398 O 0.75554 0.72243 -0.00630
 Zr1399 Zr 0.73947 0.77299 -0.02236
 O1400 O 0.72159 0.75645 -0.00631
 Zr1401 Zr 0.77212 0.77259 0.01017
 O1402 O 0.75562 0.75638 0.02788
 Zr1403 Zr 0.72744 0.72834 -0.01075
 O1404 O 0.74362 0.74481 -0.02877
 Zr1405 Zr 0.75997 0.72827 0.02183
 O1406 O 0.77812 0.74445 0.00553
 Zr1407 Zr 0.72753 0.76090 0.02185
 O1408 O 0.74405 0.77899 0.00581
 O1409 O 0.76735 0.76817 -0.01777
 O1410 O 0.73197 0.73286 0.01729
 C1411 C 0.80646 0.76478 -0.01482
 C1412 C 0.76400 0.76536 -0.05700
 C1413 C 0.76471 0.80724 -0.01442
 C1414 C 0.69383 0.73472 0.01546
 C1415 C 0.73361 0.69459 0.01524
 C1416 C 0.73388 0.73478 0.05556
 H1417 H 0.75855 0.70943 -0.00925
 H1418 H 0.75855 0.75934 0.04091
 H1419 H 0.77529 0.77604 -0.02564
 H1420 H 0.70854 0.75919 -0.00932
 H1421 H 0.71145 0.73580 -0.04177
 H1422 H 0.70896 0.76674 -0.04009
 H1423 H 0.77933 0.73888 0.05025
 H1424 H 0.79849 0.75953 0.03030
 H1425 H 0.73839 0.69955 -0.02966
 H1426 H 0.75843 0.72011 -0.04889
 H1427 H 0.73819 0.78051 0.05007
 H1428 H 0.75940 0.79867 0.03085
 H1429 H 0.79767 0.71934 -0.01002
 H1430 H 0.77952 0.70007 0.01116
 H1431 H 0.72041 0.79983 -0.00834
 H1432 H 0.69910 0.78011 0.01117
 O1433 O 1.00138 0.20078 0.22619
 O1434 O 0.96869 0.20737 0.22794
 O1435 O 1.02340 0.24875 0.20057
 O1436 O 1.02296 0.27959 0.20562
 O1437 O 1.04917 0.22622 0.24851
 O1438 O 1.04264 0.22824 0.28117
 O1439 O 0.97551 0.29800 0.25192
 O1440 O 0.97914 0.29320 0.21943
 O1441 O 0.95195 0.25176 0.27421
 O1442 O 0.95824 0.21789 0.27213
 O1443 O 0.99836 0.27427 0.29802
 O1444 O 1.03219 0.27229 0.29159
 O1445 O 0.99796 0.29814 0.27396
 O1446 O 1.03214 0.29194 0.27134
 O1447 O 0.97611 0.25205 0.29811
 O1448 O 0.97868 0.21778 0.29174
 O1449 O 0.95180 0.27403 0.25205
 O1450 O 0.95767 0.27105 0.21807
 O1451 O 1.02367 0.20081 0.24846
 O1452 O 1.02177 0.20757 0.28132
 O1453 O 1.04908 0.24831 0.22611
 O1454 O 1.04222 0.28161 0.22955
 O1455 O 1.00135 0.22626 0.20068
 O1456 O 0.96853 0.22824 0.20745
 Zr1457 Zr 0.98989 0.22753 0.22744
 O1458 O 0.97213 0.24372 0.24388
 Zr1459 Zr 1.02244 0.26007 0.22741
 O1460 O 1.00597 0.27790 0.24362
 Zr1461 Zr 1.02247 0.22755 0.25999
 O1462 O 1.00628 0.24394 0.27781
 Zr1463 Zr 0.97788 0.27186 0.23939
 O1464 O 0.99425 0.25570 0.22124
 Zr1465 Zr 0.97818 0.23938 0.27197
 O1466 O 0.99435 0.22130 0.25557
 Zr1467 Zr 1.01063 0.27205 0.27174
 O1468 O 1.02868 0.25565 0.25553
 O1469 O 1.01781 0.23216 0.23206
 O1470 O 0.98261 0.26740 0.26739
 C1471 C 1.01465 0.19303 0.23519
 C1472 C 1.01447 0.23537 0.19284
 C1473 C 1.05688 0.23512 0.23517
 C1474 C 0.98420 0.30558 0.26550
 C1475 C 0.94436 0.26537 0.26567
 C1476 C 0.98475 0.26570 0.30559
 H1477 H 0.95913 0.24064 0.24100
 H1478 H 1.00932 0.24105 0.29082
 H1479 H 1.02565 0.22425 0.22410
 H1480 H 1.00864 0.29097 0.24060
 H1481 H 0.98501 0.28780 0.20829
 H1482 H 1.01596 0.29057 0.20981
 H1483 H 0.98899 0.22024 0.30042
 H1484 H 1.00965 0.20127 0.28035
 H1485 H 0.94905 0.26073 0.22063
 H1486 H 0.96944 0.24041 0.20125
 H1487 H 1.03049 0.26145 0.29975
 H1488 H 1.04860 0.24056 0.28048
 H1489 H 0.96931 0.20144 0.24026
 H1490 H 0.95006 0.21964 0.26130
 H1491 H 1.04924 0.27948 0.24112
 H1492 H 1.02976 0.30048 0.26092
 O1493 O 0.72607 1.00099 0.70097
 O1494 O 0.72774 0.96835 0.70776
 O1495 O 0.70057 1.02362 0.74866
 O1496 O 0.70552 1.02325 0.77954
 O1497 O 0.74854 1.04892 0.72597
 O1498 O 0.78120 1.04224 0.72825
 O1499 O 0.75152 0.97584 0.79847
 O1500 O 0.71906 0.97940 0.79349
 O1501 O 0.77388 0.95175 0.75245
 O1502 O 0.77171 0.95769 0.71851
 O1503 O 0.79779 0.99822 0.77453
 O1504 O 0.79155 1.03205 0.77243
 O1505 O 0.77375 0.99809 0.79840
 O1506 O 0.77111 1.03233 0.79193
 O1507 O 0.79786 0.97587 0.75238
 O1508 O 0.79142 0.97802 0.71815
 O1509 O 0.75175 0.95185 0.77475
 O1510 O 0.71776 0.95780 0.77148
 O1511 O 0.74844 1.02317 0.70083
 O1512 O 0.78123 1.02114 0.70758
 O1513 O 0.72627 1.04912 0.74818
 O1514 O 0.72951 1.04246 0.78150
 O1515 O 0.70057 1.00129 0.72642
 O1516 O 0.70728 0.96835 0.72860
 Zr1517 Zr 0.72728 0.98969 0.72780
 O1518 O 0.74361 0.97198 0.74416
 Zr1519 Zr 0.72735 1.02253 0.76008
 O1520 O 0.74344 1.00611 0.77807
 Zr1521 Zr 0.75994 1.02215 0.72759
 O1522 O 0.77766 1.00601 0.74414
 Zr1523 Zr 0.73911 0.97796 0.77225
 O1524 O 0.72106 0.99430 0.75594
 Zr1525 Zr 0.77171 0.97787 0.73979
 O1526 O 0.75542 0.99398 0.72158
 Zr1527 Zr 0.77157 1.01061 0.77222
 O1528 O 0.75548 1.02861 0.75564
 O1529 O 0.73200 1.01765 0.73221
 O1530 O 0.76712 0.98255 0.76779
 C1531 C 0.73512 1.01417 0.69312
 C1532 C 0.69280 1.01460 0.73538
 C1533 C 0.73531 1.05680 0.73490
 C1534 C 0.76518 0.98447 0.80596
 C1535 C 0.76534 0.94428 0.76613
 C1536 C 0.80535 0.98456 0.76601
 H1537 H 0.74069 0.95895 0.74119
 H1538 H 0.79068 1.00897 0.74123
 H1539 H 0.72411 1.02547 0.72425
 H1540 H 0.74041 1.00892 0.79112
 H1541 H 0.70796 0.98526 0.78802
 H1542 H 0.70965 1.01626 0.79055
 H1543 H 0.80010 0.98836 0.72044
 H1544 H 0.78020 1.00894 0.70139
 H1545 H 0.72043 0.94898 0.76136
 H1546 H 0.70104 0.96937 0.74075
 H1547 H 0.79964 1.03031 0.76154
 H1548 H 0.78042 1.04834 0.74051
 H1549 H 0.74005 0.96890 0.70180
 H1550 H 0.76092 0.94949 0.72043
 H1551 H 0.74120 1.04929 0.77945
 H1552 H 0.76091 1.02984 0.80069
 O1553 O 0.77421 0.45113 0.25151
 O1554 O 0.77260 0.45775 0.21884
 O1555 O 0.79954 0.49914 0.27403
 O1556 O 0.79451 0.52995 0.27345
 O1557 O 0.75163 0.47632 0.29919
 O1558 O 0.71895 0.47833 0.29242
 O1559 O 0.74861 0.54834 0.22577
 O1560 O 0.78097 0.54357 0.22947
 O1561 O 0.72632 0.50213 0.20190
 O1562 O 0.72842 0.46814 0.20807
 O1563 O 0.70232 0.52440 0.24810
 O1564 O 0.70842 0.52243 0.28191
 O1565 O 0.72635 0.54833 0.24794
 O1566 O 0.72888 0.54202 0.28224
 O1567 O 0.70233 0.50219 0.22582
 O1568 O 0.70865 0.46800 0.22827
 O1569 O 0.74837 0.52455 0.20202
 O1570 O 0.78243 0.52134 0.20805
 O1571 O 0.75176 0.45097 0.27356
 O1572 O 0.71893 0.45766 0.27146
 O1573 O 0.77393 0.49855 0.29935
 O1574 O 0.77033 0.53192 0.29250
 O1575 O 0.79962 0.47678 0.25181
 O1576 O 0.79299 0.47863 0.21881
 Zr1577 Zr 0.77294 0.47790 0.24007
 O1578 O 0.75656 0.49406 0.22222
 Zr1579 Zr 0.77273 0.51038 0.27274
 O1580 O 0.75662 0.52818 0.25618
 Zr1581 Zr 0.74023 0.47770 0.27240
 O1582 O 0.72249 0.49409 0.25614
 Zr1583 Zr 0.76103 0.52219 0.22811
 O1584 O 0.77910 0.50608 0.24457
 Zr1585 Zr 0.72846 0.48961 0.22806
 O1586 O 0.74480 0.47155 0.24429
 Zr1587 Zr 0.72850 0.52222 0.26061
 O1588 O 0.74460 0.50581 0.27875
 O1589 O 0.76815 0.48245 0.26797
 O1590 O 0.73302 0.51763 0.23261
 C1591 C 0.76511 0.44328 0.26465
 C1592 C 0.80734 0.48585 0.26509
 C1593 C 0.76489 0.48527 0.30703
 C1594 C 0.73494 0.55583 0.23431
 C1595 C 0.73479 0.51588 0.19447
 C1596 C 0.69482 0.51582 0.23441
 H1597 H 0.75948 0.49102 0.20922
 H1598 H 0.70947 0.49115 0.25906
 H1599 H 0.77605 0.47455 0.27584
 H1600 H 0.75962 0.54126 0.25891
 H1601 H 0.79202 0.53824 0.23556
 H1602 H 0.79033 0.54099 0.26655
 H1603 H 0.69996 0.47037 0.23856
 H1604 H 0.71992 0.45146 0.25928
 H1605 H 0.77975 0.51116 0.19928
 H1606 H 0.79929 0.49076 0.21982
 H1607 H 0.70045 0.51142 0.28025
 H1608 H 0.71968 0.49062 0.29846
 H1609 H 0.76029 0.45176 0.21934
 H1610 H 0.73923 0.47000 0.19990
 H1611 H 0.75882 0.52961 0.29954
 H1612 H 0.73912 0.55077 0.27979
 O1613 O 0.54880 0.22609 0.74814
 O1614 O 0.54203 0.22752 0.78079
 O1615 O 0.50100 0.20066 0.72535
 O1616 O 0.47014 0.20557 0.72624
 O1617 O 0.52353 0.24880 0.70040
 O1618 O 0.52178 0.28138 0.70725
 O1619 O 0.45153 0.25166 0.77378
 O1620 O 0.45634 0.21919 0.77003
 O1621 O 0.49791 0.27376 0.79781
 O1622 O 0.53165 0.27180 0.79164
 O1623 O 0.47555 0.29791 0.75156
 O1624 O 0.47765 0.29173 0.71761
 O1625 O 0.45158 0.27395 0.75164
 O1626 O 0.45786 0.27149 0.71742
 O1627 O 0.49766 0.29781 0.77392
 O1628 O 0.53200 0.29139 0.77122
 O1629 O 0.47538 0.25182 0.79760
 O1630 O 0.47846 0.21778 0.79152
 O1631 O 0.54890 0.24846 0.72600
 O1632 O 0.54225 0.28133 0.72826
 O1633 O 0.50136 0.22644 0.70017
 O1634 O 0.46810 0.22959 0.70698
 O1635 O 0.52331 0.20058 0.74759
 O1636 O 0.52113 0.20701 0.78056
 Zr1637 Zr 0.52200 0.22722 0.75946
 O1638 O 0.50581 0.24358 0.77733
 Zr1639 Zr 0.48960 0.22745 0.72680
 O1640 O 0.47175 0.24358 0.74335
 Zr1641 Zr 0.52221 0.26004 0.72723
 O1642 O 0.50580 0.27776 0.74351
 Zr1643 Zr 0.47768 0.23917 0.77146
 O1644 O 0.49383 0.22109 0.75496
 Zr1645 Zr 0.51028 0.27170 0.77157
 O1646 O 0.52834 0.25538 0.75532
 Zr1647 Zr 0.47770 0.27173 0.73900
 O1648 O 0.49412 0.25563 0.72085
 O1649 O 0.51750 0.23207 0.73156
 O1650 O 0.48226 0.26719 0.76700
 C1651 C 0.55662 0.23516 0.73496
 C1652 C 0.51431 0.19286 0.73425
 C1653 C 0.51460 0.23555 0.69252
 C1654 C 0.44405 0.26536 0.76526
 C1655 C 0.48415 0.26532 0.80524
 C1656 C 0.48407 0.30536 0.76530
 H1657 H 0.50884 0.24063 0.79032
 H1658 H 0.50875 0.29078 0.74061
 H1659 H 0.52543 0.22422 0.72365
 H1660 H 0.45869 0.24059 0.74060
 H1661 H 0.46173 0.20810 0.76404
 H1662 H 0.45908 0.20977 0.73310
 H1663 H 0.52935 0.30042 0.76129
 H1664 H 0.54847 0.28027 0.74043
 H1665 H 0.48868 0.22038 0.80025
 H1666 H 0.50894 0.20084 0.77952
 H1667 H 0.48844 0.29993 0.71951
 H1668 H 0.50946 0.28085 0.70127
 H1669 H 0.54797 0.23986 0.78037
 H1670 H 0.52998 0.26078 0.79958
 H1671 H 0.47009 0.24131 0.70020
 H1672 H 0.44917 0.26119 0.71978
 O1673 O 0.29910 0.75180 0.47639
 O1674 O 0.29237 0.71907 0.47812
 O1675 O 0.25124 0.77410 0.45087
 O1676 O 0.22044 0.77352 0.45580
 O1677 O 0.27393 0.79960 0.49881
 O1678 O 0.27190 0.79298 0.53153
 O1679 O 0.20183 0.72606 0.50183
 O1680 O 0.20669 0.72973 0.46941
 O1681 O 0.24797 0.70231 0.52421
 O1682 O 0.28195 0.70859 0.52216
 O1683 O 0.22570 0.74863 0.54812
 O1684 O 0.22782 0.78251 0.54190
 O1685 O 0.20183 0.74837 0.52403
 O1686 O 0.20814 0.78261 0.52157
 O1687 O 0.24789 0.72639 0.54821
 O1688 O 0.28202 0.72887 0.54199
 O1689 O 0.22564 0.70230 0.50207
 O1690 O 0.22878 0.70822 0.46808
 O1691 O 0.29922 0.77403 0.49873
 O1692 O 0.29244 0.77206 0.53167
 O1693 O 0.25178 0.79962 0.47642
 O1694 O 0.21845 0.79279 0.47992
 O1695 O 0.27356 0.75190 0.45092
 O1696 O 0.27153 0.71901 0.45759
 Zr1697 Zr 0.27232 0.74034 0.47763
 O1698 O 0.25609 0.72256 0.49398
 Zr1699 Zr 0.23993 0.77299 0.47767
 O1700 O 0.22205 0.75650 0.49377
 Zr1701 Zr 0.27250 0.77286 0.51027
 O1702 O 0.25604 0.75664 0.52800
 Zr1703 Zr 0.22799 0.72839 0.48944
 O1704 O 0.24418 0.74479 0.47139
 Zr1705 Zr 0.26049 0.72852 0.52209
 O1706 O 0.27862 0.74472 0.50579
 Zr1707 Zr 0.22795 0.76104 0.52192
 O1708 O 0.24442 0.77914 0.50581
 O1709 O 0.26781 0.76827 0.48234
 O1710 O 0.23249 0.73302 0.51747
 C1711 C 0.30693 0.76504 0.48542
 C1712 C 0.26452 0.76512 0.44312
 C1713 C 0.26504 0.80737 0.48548
 C1714 C 0.19432 0.73467 0.51547
 C1715 C 0.23428 0.69479 0.51567
 C1716 C 0.23425 0.73500 0.55568
 H1717 H 0.25911 0.70955 0.49108
 H1718 H 0.25894 0.75963 0.54103
 H1719 H 0.27573 0.77611 0.47443
 H1720 H 0.20900 0.75921 0.49074
 H1721 H 0.21211 0.73566 0.45832
 H1722 H 0.20937 0.76666 0.45999
 H1723 H 0.27972 0.73930 0.55057
 H1724 H 0.29876 0.75995 0.53062
 H1725 H 0.23903 0.69955 0.47068
 H1726 H 0.25936 0.71995 0.45136
 H1727 H 0.23867 0.78076 0.55005
 H1728 H 0.25966 0.79906 0.53076
 H1729 H 0.29839 0.71971 0.49042
 H1730 H 0.28003 0.70030 0.51142
 H1731 H 0.22072 0.79987 0.49144
 H1732 H 0.19952 0.78021 0.51120
 O1733 O 0.25172 0.27391 0.95120
 O1734 O 0.21902 0.27198 0.95790
 O1735 O 0.27397 0.29946 0.99914
 O1736 O 0.27336 0.29448 1.03000
 O1737 O 0.29961 0.25163 0.97649
 O1738 O 0.29298 0.21889 0.97832
 O1739 O 0.22619 0.24811 1.04843
 O1740 O 0.22977 0.28064 1.04366
 O1741 O 0.20239 0.22581 1.00219
 O1742 O 0.20865 0.22800 0.96819
 O1743 O 0.24873 0.20203 1.02446
 O1744 O 0.28267 0.20846 1.02232
 O1745 O 0.24854 0.22602 1.04843
 O1746 O 0.28267 0.22866 1.04216
 O1747 O 0.22647 0.20192 1.00225
 O1748 O 0.22884 0.20822 0.96811
 O1749 O 0.20239 0.24792 1.02458
 O1750 O 0.20821 0.28189 1.02165
 O1751 O 0.27400 0.25168 0.95107
 O1752 O 0.27210 0.21880 0.95770
 O1753 O 0.29955 0.27402 0.99866
 O1754 O 0.29283 0.27059 1.03188
 O1755 O 0.25178 0.29935 0.97678
 O1756 O 0.21897 0.29255 0.97876
 Zr1757 Zr 0.24030 0.27258 0.97797
 O1758 O 0.22257 0.25614 0.99418
 Zr1759 Zr 0.27295 0.27265 1.01044
 O1760 O 0.25654 0.25641 1.02827
 Zr1761 Zr 0.27287 0.24010 0.97778
 O1762 O 0.25669 0.22225 0.99416
 Zr1763 Zr 0.22844 0.26063 1.02231
 O1764 O 0.24475 0.27880 1.00615
 Zr1765 Zr 0.22857 0.22807 0.98970
 O1766 O 0.24473 0.24446 0.97163
 Zr1767 Zr 0.26112 0.22829 1.02229
 O1768 O 0.27914 0.24454 1.00590
 O1769 O 0.26824 0.26800 0.98252
 O1770 O 0.23310 0.23264 1.01773
 C1771 C 0.26497 0.26495 0.94337
 C1772 C 0.26499 0.30718 0.98583
 C1773 C 0.30734 0.26499 0.98542
 C1774 C 0.23482 0.23450 1.05593
 C1775 C 0.19488 0.23432 1.01589
 C1776 C 0.23510 0.19445 1.01588
 H1777 H 0.20956 0.25900 0.99114
 H1778 H 0.25969 0.20924 0.99121
 H1779 H 0.27606 0.27595 0.97462
 H1780 H 0.25926 0.25942 1.04134
 H1781 H 0.23568 0.29176 1.03827
 H1782 H 0.26665 0.29016 1.04111
 H1783 H 0.23929 0.19969 0.97036
 H1784 H 0.25989 0.21967 0.95155
 H1785 H 0.19965 0.27938 1.01127
 H1786 H 0.21986 0.29872 0.99097
 H1787 H 0.28078 0.20018 1.01156
 H1788 H 0.29896 0.21955 0.99063
 H1789 H 0.21967 0.25968 0.95189
 H1790 H 0.20022 0.23858 0.97024
 H1791 H 0.29972 0.25893 1.02980
 H1792 H 0.28031 0.23904 1.05078
 C1793 C 0.29608 0.40195 0.77164
 C1794 C 0.28794 0.39352 0.78718
 C1795 C 0.27205 0.40167 0.79488
 C1796 C 0.26466 0.41791 0.78746
 C1797 C 0.27294 0.42648 0.77212
 C1798 C 0.28868 0.41822 0.76421
 H1799 H 0.30830 0.39618 0.76526
 H1800 H 0.26532 0.39571 0.80682
 H1801 H 0.25262 0.42393 0.79402
 H1802 H 0.29553 0.42449 0.75246
 C1803 C 0.29418 -0.10036 0.26994
 C1804 C 0.28593 -0.10884 0.28539
 C1805 C 0.27005 -0.10064 0.29307
 C1806 C 0.26286 -0.08424 0.28579
 C1807 C 0.27138 -0.07555 0.27062
 C1808 C 0.28699 -0.08396 0.26264
 H1809 H 0.30638 -0.10618 0.26355
 H1810 H 0.26325 -0.10663 0.30495
 H1811 H 0.25088 -0.07814 0.29237
 H1812 H 0.29399 -0.07762 0.25102
 C1813 C 0.77153 0.90137 0.79581
 C1814 C 0.78724 0.89299 0.78782
 C1815 C 0.79506 0.90142 0.77205
 C1816 C 0.78764 0.91771 0.76475
 C1817 C 0.77217 0.92613 0.77293
 C1818 C 0.76414 0.91768 0.78848
 H1819 H 0.76488 0.89558 0.80788
 H1820 H 0.80706 0.89566 0.76526
 H1821 H 0.79428 0.92387 0.75282
 H1822 H 0.75228 0.92383 0.79525
 C1823 C 0.45742 0.85115 0.26915
 C1824 C 0.46516 0.85938 0.28502
 C1825 C 0.48065 0.85097 0.29327
 C1826 C 0.48785 0.83450 0.28616
 C1827 C 0.47974 0.82599 0.27063
 C1828 C 0.46462 0.83468 0.26204
 H1829 H 0.44554 0.85713 0.26233
 H1830 H 0.48708 0.85683 0.30545
 H1831 H 0.49947 0.82817 0.29319
 H1832 H 0.45797 0.82850 0.25010
 C1833 C -0.04360 0.85069 0.77020
 C1834 C -0.03600 0.85871 0.78627
 C1835 C -0.02046 0.85028 0.79439
 C1836 C -0.01308 0.83400 0.78699
 C1837 C -0.02105 0.82569 0.77127
 C1838 C -0.03623 0.83441 0.76281
 H1839 H -0.05549 0.85672 0.76343
 H1840 H -0.01414 0.85596 0.80672
 H1841 H -0.00142 0.82766 0.79393
 H1842 H -0.04277 0.82840 0.75072
 C1843 C -0.04481 -0.09908 -0.02121
 C1844 C -0.03717 -0.10724 -0.03715
 C1845 C -0.02167 -0.09884 -0.04536
 C1846 C -0.01415 -0.08261 -0.03797
 C1847 C -0.02195 -0.07435 -0.02218
 C1848 C -0.03729 -0.08286 -0.01382
 H1849 H -0.05675 -0.10500 -0.01446
 H1850 H -0.01539 -0.10456 -0.05767
 H1851 H -0.00245 -0.07633 -0.04489
 H1852 H -0.04378 -0.07680 -0.00174
 C1853 C -0.02217 0.40141 0.45455
 C1854 C -0.03780 0.39286 0.46251
 C1855 C -0.04554 0.40102 0.47847
 C1856 C -0.03815 0.41730 0.48594
 C1857 C -0.02277 0.42591 0.47774
 C1858 C -0.01480 0.41765 0.46205
 H1859 H -0.01557 0.39581 0.44236
 H1860 H -0.05750 0.39512 0.48520
 H1861 H -0.04473 0.42332 0.49798
 H1862 H -0.00301 0.42393 0.45527
 C1863 C 0.45660 -0.10054 0.48006
 C1864 C 0.46428 -0.10881 0.46413
 C1865 C 0.47991 -0.10035 0.45608
 C1866 C 0.48721 -0.08396 0.46336
 C1867 C 0.47913 -0.07548 0.47889
 C1868 C 0.46391 -0.08414 0.48731
 H1869 H 0.44468 -0.10639 0.48691
 H1870 H 0.48647 -0.10606 0.44393
 H1871 H 0.49890 -0.07765 0.45645
 H1872 H 0.45726 -0.07798 0.49925
 C1873 C 0.45434 0.40142 -0.02218
 C1874 C 0.46211 0.39319 -0.03809
 C1875 C 0.47777 0.40170 -0.04603
 C1876 C 0.48514 0.41797 -0.03856
 C1877 C 0.47714 0.42629 -0.02291
 C1878 C 0.46173 0.41771 -0.01474
 H1879 H 0.44236 0.39554 -0.01545
 H1880 H 0.48439 0.39605 -0.05819
 H1881 H 0.49697 0.42421 -0.04532
 H1882 H 0.45514 0.42376 -0.00272
 C1883 C 0.79440 0.34998 0.48033
 C1884 C 0.78612 0.35840 0.46486
 C1885 C 0.77005 0.35035 0.45734
 C1886 C 0.76282 0.33402 0.46470
 C1887 C 0.77145 0.32529 0.47978
 C1888 C 0.78715 0.33365 0.48770
 H1889 H 0.80673 0.35570 0.48659
 H1890 H 0.76318 0.35636 0.44551
 H1891 H 0.75074 0.32796 0.45819
 H1892 H 0.79422 0.32727 0.49927
 C1893 C 0.79446 0.85007 -0.02016
 C1894 C 0.78615 0.85867 -0.03553
 C1895 C 0.76996 0.85082 -0.04298
 C1896 C 0.76258 0.83455 -0.03565
 C1897 C 0.77117 0.82568 -0.02064
 C1898 C 0.78707 0.83377 -0.01283
 H1899 H 0.80692 0.85561 -0.01398
 H1900 H 0.76302 0.85704 -0.05468
 H1901 H 0.75039 0.82867 -0.04210
 H1902 H 0.79416 0.82722 -0.00138
 C1903 C 0.79441 0.26987 0.39985
 C1904 C 0.78628 0.28544 0.39148
 C1905 C 0.77044 0.29319 0.39970
 C1906 C 0.76324 0.28591 0.41608
 C1907 C 0.77167 0.27066 0.42471
 C1908 C 0.78720 0.26258 0.41624
 H1909 H 0.80657 0.26343 0.39402
 H1910 H 0.76371 0.30514 0.39376
 H1911 H 0.75133 0.29258 0.42224
 H1912 H 0.79414 0.25090 0.42254
 C1913 C 0.76974 0.79481 -0.10008
 C1914 C 0.78513 0.78654 -0.10864
 C1915 C 0.79267 0.77047 -0.10063
 C1916 C 0.78532 0.76316 -0.08431
 C1917 C 0.77023 0.77170 -0.07552
 C1918 C 0.76239 0.78749 -0.08375
 H1919 H 0.76344 0.80713 -0.10574
 H1920 H 0.80442 0.76356 -0.10676
 H1921 H 0.79182 0.75107 -0.07832
 H1922 H 0.75088 0.79457 -0.07730
 C1923 C 0.29572 0.47852 0.84847
 C1924 C 0.28786 0.46269 0.85663
 C1925 C 0.27215 0.45475 0.84828
 C1926 C 0.26470 0.46221 0.83208
 C1927 C 0.27275 0.47783 0.82376
 C1928 C 0.28827 0.48598 0.83225
 H1929 H 0.30777 0.48511 0.85441
 H1930 H 0.26563 0.44259 0.85404
 H1931 H 0.25283 0.45546 0.82587
 H1932 H 0.29493 0.49795 0.82618
 C1933 C 0.27047 -0.04317 0.35022
 C1934 C 0.28623 -0.03521 0.35847
 C1935 C 0.29416 -0.01951 0.35014
 C1936 C 0.28684 -0.01230 0.33374
 C1937 C 0.27141 -0.02060 0.32524
 C1938 C 0.26317 -0.03597 0.33383
 H1939 H 0.26389 -0.05522 0.35612
 H1940 H 0.30622 -0.01290 0.35604
 H1941 H 0.29363 -0.00050 0.32749
 H1942 H 0.25134 -0.04280 0.32764
 C1943 C -0.04542 -0.02214 -0.09836
 C1944 C -0.03763 -0.03787 -0.10691
 C1945 C -0.02176 -0.04577 -0.09875
 C1946 C -0.01420 -0.03842 -0.08249
 C1947 C -0.02221 -0.02292 -0.07390
 C1948 C -0.03784 -0.01481 -0.08213
 H1949 H -0.05755 -0.01542 -0.10395
 H1950 H -0.01515 -0.05781 -0.10465
 H1951 H -0.00223 -0.04513 -0.07648
 H1952 H -0.04448 -0.00293 -0.07585
 C1953 C -0.02212 0.45436 0.40173
 C1954 C -0.03777 0.46228 0.39318
 C1955 C -0.04559 0.47818 0.40140
 C1956 C -0.03824 0.48563 0.41771
 C1957 C -0.02280 0.47749 0.42629
 C1958 C -0.01477 0.46184 0.41800
 H1959 H -0.01548 0.44220 0.39611
 H1960 H -0.05759 0.48488 0.39553
 H1961 H -0.04495 0.49757 0.42380
 H1962 H -0.00300 0.45506 0.42431
 C1963 C 0.48049 -0.04391 0.39939
 C1964 C 0.46537 -0.03534 0.39065
 C1965 C 0.45800 -0.01916 0.39856
 C1966 C 0.46518 -0.01206 0.41506
 C1967 C 0.47992 -0.02095 0.42407
 C1968 C 0.48769 -0.03680 0.41588
 H1969 H 0.48661 -0.05636 0.39380
 H1970 H 0.44643 -0.01206 0.39230
 H1971 H 0.45880 0.00014 0.42098
 H1972 H 0.49898 -0.04408 0.42250
 C1973 C 0.47814 0.45478 -0.09882
 C1974 C 0.46228 0.46254 -0.10701
 C1975 C 0.45435 0.47830 -0.09878
 C1976 C 0.46181 0.48583 -0.08259
 C1977 C 0.47742 0.47782 -0.07421
 C1978 C 0.48561 0.46232 -0.08264
 H1979 H 0.48473 0.44269 -0.10466
 H1980 H 0.44220 0.48476 -0.10462
 H1981 H 0.45507 0.49771 -0.07644
 H1982 H 0.49757 0.45570 -0.07652
 C1983 C 0.48057 0.79405 0.35057
 C1984 C 0.46485 0.78608 0.35881
 C1985 C 0.45698 0.77031 0.35047
 C1986 C 0.46431 0.76304 0.33411
 C1987 C 0.47970 0.77133 0.32561
 C1988 C 0.48790 0.78677 0.33421
 H1989 H 0.48711 0.80615 0.35650
 H1990 H 0.44489 0.76371 0.35628
 H1991 H 0.45754 0.75119 0.32786
 H1992 H 0.49971 0.79360 0.32802
 C1993 C -0.02017 0.79394 0.85050
 C1994 C -0.03553 0.78555 0.85902
 C1995 C -0.04301 0.76946 0.85095
 C1996 C -0.03566 0.76226 0.83457
 C1997 C -0.02065 0.77096 0.82580
 C1998 C -0.01282 0.78673 0.83413
 H1999 H -0.01391 0.80626 0.85625
 H2000 H -0.05483 0.76258 0.85698
 H2001 H -0.04211 0.75013 0.82853
 H2002 H -0.00132 0.79387 0.82772
 C2003 C 0.39999 0.77006 0.29351
 C2004 C 0.39170 0.78583 0.28568
 C2005 C 0.40004 0.79392 0.27007
 C2006 C 0.41647 0.78675 0.26283
 C2007 C 0.42500 0.77130 0.27098
 C2008 C 0.41641 0.76290 0.28627
 H2009 H 0.39404 0.76332 0.30545
 H2010 H 0.39416 0.80603 0.26359
 H2011 H 0.42273 0.79366 0.25111
 H2012 H 0.42262 0.75104 0.29299
 C2013 C -0.10027 0.79407 0.76999
 C2014 C -0.10846 0.78632 0.78584
 C2015 C -0.10018 0.77063 0.79383
 C2016 C -0.08393 0.76319 0.78648
 C2017 C -0.07547 0.77127 0.77095
 C2018 C -0.08401 0.78663 0.76263
 H2019 H -0.10615 0.80610 0.76336
 H2020 H -0.10595 0.76422 0.80603
 H2021 H -0.07772 0.75140 0.79331
 H2022 H -0.07787 0.79328 0.75069
 C2023 C 0.85079 0.29382 0.48009
 C2024 C 0.85913 0.28582 0.46443
 C2025 C 0.85104 0.26988 0.45666
 C2026 C 0.83475 0.26249 0.46398
 C2027 C 0.82612 0.27083 0.47928
 C2028 C 0.83450 0.28642 0.48742
 H2029 H 0.85655 0.30603 0.48656
 H2030 H 0.85700 0.26320 0.44468
 H2031 H 0.82867 0.25052 0.45728
 H2032 H 0.82820 0.29328 0.49916
 C2033 C 0.85010 0.79342 -0.01995
 C2034 C 0.85818 0.78563 -0.03586
 C2035 C 0.84963 0.77017 -0.04407
 C2036 C 0.83325 0.76294 -0.03680
 C2037 C 0.82497 0.77099 -0.02113
 C2038 C 0.83372 0.78620 -0.01268
 H2039 H 0.85624 0.80526 -0.01314
 H2040 H 0.85529 0.76384 -0.05639
 H2041 H 0.82679 0.75137 -0.04383
 H2042 H 0.82768 0.79288 -0.00071
 C2043 C -0.09780 -0.04612 -0.02225
 C2044 C -0.10628 -0.03795 -0.03776
 C2045 C -0.09803 -0.02216 -0.04558
 C2046 C -0.08167 -0.01488 -0.03828
 C2047 C -0.07313 -0.02314 -0.02289
 C2048 C -0.08142 -0.03883 -0.01495
 H2049 H -0.10366 -0.05824 -0.01571
 H2050 H -0.10406 -0.01539 -0.05747
 H2051 H -0.07557 -0.00291 -0.04492
 H2052 H -0.07511 -0.04567 -0.00321
 C2053 C -0.09886 0.47842 0.45499
 C2054 C -0.10707 0.46261 0.46282
 C2055 C -0.09868 0.45455 0.47841
 C2056 C -0.08239 0.46191 0.48580
 C2057 C -0.07405 0.47755 0.47779
 C2058 C -0.08257 0.48579 0.46237
 H2059 H -0.10478 0.48504 0.44296
 H2060 H -0.10455 0.44244 0.48494
 H2061 H -0.07617 0.45511 0.49761
 H2062 H -0.07647 0.49776 0.45575
 C2063 C 0.39952 -0.04301 0.47968
 C2064 C 0.39134 -0.03541 0.46367
 C2065 C 0.39986 -0.01984 0.45556
 C2066 C 0.41623 -0.01252 0.46287
 C2067 C 0.42460 -0.02053 0.47848
 C2068 C 0.41588 -0.03568 0.48695
 H2069 H 0.39364 -0.05490 0.48657
 H2070 H 0.39422 -0.01335 0.44333
 H2071 H 0.42258 -0.00088 0.45591
 H2072 H 0.42196 -0.04227 0.49895
 C2073 C 0.40109 0.45504 -0.02226
 C2074 C 0.39286 0.46264 -0.03824
 C2075 C 0.40132 0.47825 -0.04634
 C2076 C 0.41756 0.48574 -0.03892
 C2077 C 0.42584 0.47790 -0.02317
 C2078 C 0.41731 0.46255 -0.01487
 H2079 H 0.39529 0.44309 -0.01541
 H2080 H 0.39567 0.48469 -0.05859
 H2081 H 0.42382 0.49750 -0.04579
 H2082 H 0.42336 0.45603 -0.00281
 C2083 C 0.34862 0.45535 0.77143
 C2084 C 0.35665 0.46281 0.78754
 C2085 C 0.34828 0.47834 0.79579
 C2086 C 0.33213 0.48594 0.78836
 C2087 C 0.32393 0.47823 0.77247
 C2088 C 0.33248 0.46294 0.76401
 H2089 H 0.35457 0.44345 0.76460
 H2090 H 0.35397 0.48454 0.80818
 H2091 H 0.32586 0.49762 0.79535
 H2092 H 0.32650 0.45655 0.75182
 C2093 C 0.35082 -0.04291 0.26946
 C2094 C 0.35899 -0.03511 0.28534
 C2095 C 0.35054 -0.01960 0.29351
 C2096 C 0.33413 -0.01239 0.28630
 C2097 C 0.32574 -0.02051 0.27072
 C2098 C 0.33442 -0.03571 0.26225
 H2099 H 0.35684 -0.05481 0.26267
 H2100 H 0.35631 -0.01313 0.30572
 H2101 H 0.32775 -0.00076 0.29328
 H2102 H 0.32829 -0.04241 0.25030
 C2103 C 0.14927 0.54313 0.73082
 C2104 C 0.14115 0.53548 0.71483
 C2105 C 0.14961 0.52000 0.70660
 C2106 C 0.16600 0.51272 0.71382
 C2107 C 0.17438 0.52073 0.72947
 C2108 C 0.16565 0.53586 0.73804
 H2109 H 0.14323 0.55498 0.73766
 H2110 H 0.14386 0.51363 0.69432
 H2111 H 0.17239 0.50115 0.70675
 H2112 H 0.17175 0.54246 0.75005
 C2113 C 0.15142 0.04455 0.22852
 C2114 C 0.14322 0.03683 0.21262
 C2115 C 0.15163 0.02132 0.20439
 C2116 C 0.16796 0.01395 0.21166
 C2117 C 0.17630 0.02189 0.22738
 C2118 C 0.16774 0.03719 0.23579
 H2119 H 0.14543 0.05644 0.23535
 H2120 H 0.14581 0.01493 0.19216
 H2121 H 0.17422 0.00224 0.20472
 H2122 H 0.17382 0.04375 0.24784
 C2123 C 0.59844 0.70438 0.22790
 C2124 C 0.60687 0.71248 0.21235
 C2125 C 0.59883 0.72846 0.20471
 C2126 C 0.58265 0.73594 0.21221
 C2127 C 0.57409 0.72764 0.22757
 C2128 C 0.58228 0.71184 0.23540
 H2129 H 0.60410 0.69208 0.23424
 H2130 H 0.60483 0.73517 0.19277
 H2131 H 0.57668 0.74804 0.20571
 H2132 H 0.57600 0.70497 0.24713
 C2133 C 0.09818 0.70435 0.72818
 C2134 C 0.10649 0.71244 0.71259
 C2135 C 0.09827 0.72828 0.70481
 C2136 C 0.08205 0.73563 0.71230
 C2137 C 0.07361 0.72738 0.72777
 C2138 C 0.08195 0.71170 0.73567
 H2139 H 0.10399 0.69215 0.73457
 H2140 H 0.10417 0.73496 0.69282
 H2141 H 0.07592 0.74761 0.70571
 H2142 H 0.07577 0.70484 0.74746
 C2143 C 0.65213 0.20392 0.52135
 C2144 C 0.64384 0.21200 0.53702
 C2145 C 0.65210 0.22780 0.54484
 C2146 C 0.66832 0.23518 0.53745
 C2147 C 0.67678 0.22698 0.52198
 C2148 C 0.66839 0.21134 0.51391
 H2149 H 0.64624 0.19174 0.51491
 H2150 H 0.64625 0.23446 0.55688
 H2151 H 0.67442 0.24713 0.54414
 H2152 H 0.67457 0.20459 0.50203
 C2153 C 0.65021 0.72950 0.04422
 C2154 C 0.64310 0.71259 0.03764
 C2155 C 0.65249 0.70347 0.02325
 C2156 C 0.66857 0.71099 0.01568
 C2157 C 0.67579 0.72779 0.02236
 C2158 C 0.66635 0.73703 0.03666
 H2159 H 0.64342 0.73694 0.05529
 H2160 H 0.64771 0.69031 0.01796
 H2161 H 0.67558 0.70337 0.00484
 H2162 H 0.67152 0.74999 0.04219
 C2163 C 0.10071 0.04360 0.01978
 C2164 C 0.10891 0.03582 0.03563
 C2165 C 0.10067 0.02008 0.04355
 C2166 C 0.08437 0.01269 0.03619
 C2167 C 0.07589 0.02084 0.02070
 C2168 C 0.08442 0.03622 0.01242
 H2169 H 0.10657 0.05567 0.01318
 H2170 H 0.10652 0.01358 0.05568
 H2171 H 0.07815 0.00089 0.04301
 H2172 H 0.07823 0.04293 0.00054
 C2173 C 0.10044 0.54313 0.51964
 C2174 C 0.10856 0.53558 0.53563
 C2175 C 0.10015 0.52007 0.54386
 C2176 C 0.08376 0.51272 0.53665
 C2177 C 0.07535 0.52067 0.52102
 C2178 C 0.08405 0.53579 0.51244
 H2179 H 0.10644 0.55500 0.51281
 H2180 H 0.10590 0.51382 0.55617
 H2181 H 0.07742 0.50111 0.54368
 H2182 H 0.07797 0.54231 0.50041
 C2183 C 0.59853 0.02202 0.54499
 C2184 C 0.60669 0.03791 0.53725
 C2185 C 0.59832 0.04597 0.52165
 C2186 C 0.58207 0.03854 0.51419
 C2187 C 0.57379 0.02283 0.52212
 C2188 C 0.58230 0.01460 0.53754
 H2189 H 0.60446 0.01534 0.55697
 H2190 H 0.60411 0.05817 0.51523
 H2191 H 0.57582 0.04536 0.50241
 H2192 H 0.57626 0.00258 0.54412
 C2193 C 0.59976 0.54435 0.02035
 C2194 C 0.60818 0.53615 0.03587
 C2195 C 0.60009 0.52014 0.04341
 C2196 C 0.58377 0.51284 0.03598
 C2197 C 0.57510 0.52132 0.02078
 C2198 C 0.58346 0.53702 0.01289
 H2199 H 0.60546 0.55669 0.01412
 H2200 H 0.60607 0.51335 0.05531
 H2201 H 0.57768 0.50082 0.04252
 H2202 H 0.57714 0.54403 0.00126
 C2203 C 0.04436 0.01954 0.10018
 C2204 C 0.03606 0.03494 0.10873
 C2205 C 0.02000 0.04245 0.10071
 C2206 C 0.01275 0.03512 0.08434
 C2207 C 0.02138 0.02008 0.07552
 C2208 C 0.03710 0.01220 0.08381
 H2209 H 0.05671 0.01330 0.10585
 H2210 H 0.01311 0.05425 0.10681
 H2211 H 0.00066 0.04161 0.07833
 H2212 H 0.04418 0.00066 0.07737
 C2213 C 0.01954 0.54248 0.60120
 C2214 C 0.03565 0.53500 0.60916
 C2215 C 0.04402 0.51970 0.60051
 C2216 C 0.03677 0.51240 0.58410
 C2217 C 0.02098 0.52024 0.57589
 C2218 C 0.01230 0.53519 0.58481
 H2219 H 0.01259 0.55419 0.60738
 H2220 H 0.05641 0.51350 0.60612
 H2221 H 0.04390 0.50096 0.57756
 H2222 H 0.00015 0.54164 0.57887
 C2223 C 0.54535 0.02230 0.59834
 C2224 C 0.53744 0.03803 0.60679
 C2225 C 0.52175 0.04600 0.59833
 C2226 C 0.51442 0.03863 0.58197
 C2227 C 0.52249 0.02305 0.57355
 C2228 C 0.53800 0.01496 0.58200
 H2229 H 0.55736 0.01555 0.60413
 H2230 H 0.51508 0.05807 0.60411
 H2231 H 0.50259 0.04538 0.57575
 H2232 H 0.54472 0.00307 0.57582
 C2233 C 0.52035 0.54419 0.09989
 C2234 C 0.53603 0.53619 0.10818
 C2235 C 0.54369 0.52024 0.10005
 C2236 C 0.53622 0.51282 0.08380
 C2237 C 0.52089 0.52115 0.07522
 C2238 C 0.51287 0.53676 0.08365
 H2239 H 0.51400 0.55644 0.10566
 H2240 H 0.55572 0.51360 0.10593
 H2241 H 0.54282 0.50082 0.07770
 H2242 H 0.50110 0.54360 0.07741
 C2243 C 0.20561 0.52042 0.64995
 C2244 C 0.21386 0.53588 0.64148
 C2245 C 0.22991 0.54344 0.64951
 C2246 C 0.23720 0.53610 0.66584
 C2247 C 0.22863 0.52100 0.67459
 C2248 C 0.21291 0.51307 0.66628
 H2249 H 0.19323 0.51420 0.64429
 H2250 H 0.23675 0.55529 0.64348
 H2251 H 0.24931 0.54261 0.67184
 H2252 H 0.20590 0.50148 0.67268
 C2253 C 0.22846 0.04474 0.15125
 C2254 C 0.21259 0.03703 0.14300
 C2255 C 0.20448 0.02137 0.15125
 C2256 C 0.21188 0.01383 0.16746
 C2257 C 0.22758 0.02175 0.17582
 C2258 C 0.23586 0.03720 0.16742
 H2259 H 0.23514 0.05678 0.14543
 H2260 H 0.19226 0.01501 0.14542
 H2261 H 0.20503 0.00202 0.17363
 H2262 H 0.24786 0.04378 0.17354
 C2263 C 0.70490 0.22822 0.59845
 C2264 C 0.71270 0.21241 0.60671
 C2265 C 0.72829 0.20431 0.59837
 C2266 C 0.73575 0.21166 0.58214
 C2267 C 0.72783 0.22732 0.57378
 C2268 C 0.71238 0.23558 0.58221
 H2269 H 0.69288 0.23490 0.60432
 H2270 H 0.73471 0.19213 0.60418
 H2271 H 0.74755 0.20481 0.57597
 H2272 H 0.70582 0.24758 0.57608
 C2273 C 0.70423 0.72863 0.09842
 C2274 C 0.71226 0.71295 0.10669
 C2275 C 0.72805 0.70516 0.09843
 C2276 C 0.73539 0.71258 0.08218
 C2277 C 0.72715 0.72803 0.07373
 C2278 C 0.71158 0.73607 0.08216
 H2279 H 0.69209 0.73509 0.10429
 H2280 H 0.73472 0.69313 0.10429
 H2281 H 0.74734 0.70594 0.07605
 H2282 H 0.70479 0.74791 0.07599
 C2283 C 0.54562 0.72901 0.15133
 C2284 C 0.53756 0.71331 0.14306
 C2285 C 0.52188 0.70541 0.15142
 C2286 C 0.51459 0.71284 0.16769
 C2287 C 0.52278 0.72837 0.17609
 C2288 C 0.53831 0.73647 0.16762
 H2289 H 0.55772 0.73549 0.14540
 H2290 H 0.51526 0.69331 0.14562
 H2291 H 0.50269 0.70616 0.17385
 H2292 H 0.54504 0.74842 0.17374
 C2293 C 0.04530 0.72863 0.65166
 C2294 C 0.03761 0.71267 0.64352
 C2295 C 0.02200 0.70459 0.65186
 C2296 C 0.01450 0.71206 0.66805
 C2297 C 0.02241 0.72779 0.67637
 C2298 C 0.03781 0.73609 0.66786
 H2299 H 0.05729 0.73532 0.64575
 H2300 H 0.01563 0.69233 0.64611
 H2301 H 0.00272 0.70521 0.67427
 H2302 H 0.04434 0.74816 0.67391
 C2303 C 0.54529 0.65156 0.22834
 C2304 C 0.53769 0.64350 0.21230
 C2305 C 0.52223 0.65198 0.20408
 C2306 C 0.51479 0.66825 0.21149
 C2307 C 0.52261 0.67646 0.22733
 C2308 C 0.53787 0.66782 0.23574
 H2309 H 0.55713 0.64551 0.23518
 H2310 H 0.51596 0.64629 0.19173
 H2311 H 0.50313 0.67458 0.20454
 H2312 H 0.54435 0.67379 0.24789
 C2313 C 0.04485 0.65145 0.72871
 C2314 C 0.03715 0.64329 0.71278
 C2315 C 0.02166 0.65174 0.70456
 C2316 C 0.01430 0.66806 0.71187
 C2317 C 0.02219 0.67634 0.72763
 C2318 C 0.03750 0.66777 0.73601
 H2319 H 0.05669 0.64541 0.73556
 H2320 H 0.01526 0.64594 0.69234
 H2321 H 0.00263 0.67437 0.70492
 H2322 H 0.04406 0.67384 0.74807
 C2323 C 0.04358 0.10029 0.01977
 C2324 C 0.03585 0.10848 0.03565
 C2325 C 0.02032 0.10004 0.04379
 C2326 C 0.01306 0.08360 0.03656
 C2327 C 0.02115 0.07515 0.02100
 C2328 C 0.03634 0.08386 0.01255
 H2329 H 0.05546 0.10631 0.01300
 H2330 H 0.01389 0.10585 0.05598
 H2331 H 0.00140 0.07726 0.04350
 H2332 H 0.04298 0.07774 0.00059
 C2333 C 0.02001 0.60014 0.54435
 C2334 C 0.03569 0.60842 0.53634
 C2335 C 0.04339 0.60019 0.52046
 C2336 C 0.03598 0.58387 0.51314
 C2337 C 0.02067 0.57529 0.52151
 C2338 C 0.01259 0.58380 0.53703
 H2339 H 0.01358 0.60600 0.55652
 H2340 H 0.05542 0.60606 0.51380
 H2341 H 0.04264 0.57769 0.50122
 H2342 H 0.00083 0.57757 0.54390
 C2343 C 0.52232 0.09856 0.54501
 C2344 C 0.53801 0.10682 0.53703
 C2345 C 0.54582 0.09857 0.52122
 C2346 C 0.53819 0.08241 0.51371
 C2347 C 0.52264 0.07404 0.52191
 C2348 C 0.51474 0.08242 0.53756
 H2349 H 0.51591 0.10434 0.55722
 H2350 H 0.55793 0.10442 0.51468
 H2351 H 0.54470 0.07629 0.50167
 H2352 H 0.50287 0.07632 0.54434
 C2353 C 0.51945 0.60048 0.04352
 C2354 C 0.53528 0.60865 0.03571
 C2355 C 0.54318 0.60038 0.01995
 C2356 C 0.53581 0.58408 0.01259
 C2357 C 0.52033 0.57563 0.02076
 C2358 C 0.51208 0.58418 0.03615
 H2359 H 0.51290 0.60635 0.05562
 H2360 H 0.55533 0.60616 0.01346
 H2361 H 0.54266 0.57780 0.00083
 H2362 H 0.50026 0.57796 0.04294
 C2363 C 0.72856 0.15139 0.54545
 C2364 C 0.71285 0.14310 0.53745
 C2365 C 0.70506 0.15128 0.52161
 C2366 C 0.71260 0.16746 0.51416
 C2367 C 0.72813 0.17588 0.52234
 C2368 C 0.73610 0.16756 0.53800
 H2369 H 0.73501 0.14562 0.55764
 H2370 H 0.69301 0.14538 0.51498
 H2371 H 0.70599 0.17355 0.50216
 H2372 H 0.74798 0.17371 0.54478
 C2373 C 0.72757 0.65209 0.04537
 C2374 C 0.71195 0.64357 0.03745
 C2375 C 0.70400 0.65162 0.02160
 C2376 C 0.71133 0.66786 0.01404
 C2377 C 0.72682 0.67647 0.02213
 C2378 C 0.73490 0.66830 0.03782
 H2379 H 0.73412 0.64645 0.05758
 H2380 H 0.69193 0.64561 0.01511
 H2381 H 0.70460 0.67384 0.00207
 H2382 H 0.74670 0.67464 0.04456
 C2383 C 0.22995 0.60064 0.70637
 C2384 C 0.21395 0.60866 0.71405
 C2385 C 0.20588 0.60024 0.72957
 C2386 C 0.21322 0.58394 0.73693
 C2387 C 0.22887 0.57563 0.72896
 C2388 C 0.23729 0.58433 0.71372
 H2389 H 0.23667 0.60667 0.69447
 H2390 H 0.19362 0.60594 0.73595
 H2391 H 0.20627 0.57761 0.74859
 H2392 H 0.24929 0.57828 0.70711
 C2393 C 0.20513 0.09840 0.22792
 C2394 C 0.21272 0.10644 0.21192
 C2395 C 0.22819 0.09796 0.20371
 C2396 C 0.23563 0.08171 0.21110
 C2397 C 0.22782 0.07352 0.22691
 C2398 C 0.21256 0.08216 0.23531
 H2399 H 0.19328 0.10444 0.23474
 H2400 H 0.23449 0.10366 0.19141
 H2401 H 0.24731 0.07539 0.20418
 H2402 H 0.20609 0.07621 0.24743
 C2403 C 0.70689 1.10060 0.73005
 C2404 C 0.71437 1.10852 0.71392
 C2405 C 0.72967 1.09989 0.70557
 C2406 C 0.73696 1.08353 0.71282
 C2407 C 0.72914 1.07533 0.72862
 C2408 C 0.71420 1.08424 0.73731
 H2409 H 0.69517 1.10676 0.73699
 H2410 H 0.73589 1.10550 0.69320
 H2411 H 0.74842 1.07705 0.70569
 H2412 H 0.70782 1.07832 0.74950
 C2413 C 0.70505 0.59847 0.22808
 C2414 C 0.71276 0.60657 0.21217
 C2415 C 0.72844 0.59827 0.20419
 C2416 C 0.73599 0.58214 0.21171
 C2417 C 0.72807 0.57389 0.22743
 C2418 C 0.71259 0.58234 0.23561
 H2419 H 0.69302 0.60436 0.23471
 H2420 H 0.73485 0.60399 0.19196
 H2421 H 0.74782 0.57594 0.20494
 H2422 H 0.70603 0.57631 0.24764
 C2423 C 0.52002 0.14961 0.70484
 C2424 C 0.53554 0.14105 0.71303
 C2425 C 0.54312 0.14928 0.72906
 C2426 C 0.53578 0.16565 0.73632
 C2427 C 0.52062 0.17435 0.72785
 C2428 C 0.51270 0.16599 0.71214
 H2429 H 0.51355 0.14395 0.69258
 H2430 H 0.55495 0.14338 0.73603
 H2431 H 0.54234 0.17172 0.74837
 H2432 H 0.50110 0.17237 0.70512
 C2433 C 1.04357 0.14963 0.23011
 C2434 C 1.03582 0.14140 0.21423
 C2435 C 1.02018 0.14970 0.20614
 C2436 C 1.01283 0.16604 0.21341
 C2437 C 1.02091 0.17452 0.22896
 C2438 C 1.03621 0.16596 0.23737
 H2439 H 1.05552 0.14369 0.23685
 H2440 H 1.01374 0.14386 0.19395
 H2441 H 1.00111 0.17229 0.20648
 H2442 H 1.04287 0.17214 0.24931
 C2443 C 0.22817 0.65204 0.54545
 C2444 C 0.21250 0.64366 0.53744
 C2445 C 0.20460 0.65190 0.52167
 C2446 C 0.21197 0.66818 0.51430
 C2447 C 0.22748 0.67666 0.52247
 C2448 C 0.23555 0.66831 0.53807
 H2449 H 0.23471 0.64621 0.55756
 H2450 H 0.19257 0.64597 0.51504
 H2451 H 0.20528 0.67428 0.50236
 H2452 H 0.24740 0.67452 0.54484
 C2453 C 0.22870 0.15193 1.04591
 C2454 C 0.21320 0.14343 1.03770
 C2455 C 0.20559 0.15145 1.02169
 C2456 C 0.21303 0.16768 1.01430
 C2457 C 0.22832 0.17633 1.02270
 C2458 C 0.23614 0.16817 1.03852
 H2459 H 0.23504 0.14625 1.05821
 H2460 H 0.19372 0.14539 1.01487
 H2461 H 0.20653 0.17364 1.00218
 H2462 H 0.24782 0.17452 1.04546
 C2463 C 0.20404 0.72845 0.59807
 C2464 C 0.21223 0.71299 0.60661
 C2465 C 0.22836 0.70551 0.59867
 C2466 C 0.23582 0.71300 0.58248
 C2467 C 0.22739 0.72822 0.57379
 C2468 C 0.21151 0.73595 0.58189
 H2469 H 0.19169 0.73474 0.60368
 H2470 H 0.23521 0.69371 0.60476
 H2471 H 0.24802 0.70663 0.57658
 H2472 H 0.20458 0.74761 0.57551
 C2473 C 0.20484 0.22806 1.09845
 C2474 C 0.21275 0.21232 1.10671
 C2475 C 0.22855 0.20447 1.09851
 C2476 C 0.23606 0.21200 1.08236
 C2477 C 0.22797 0.22758 1.07398
 C2478 C 0.21234 0.23558 1.08231
 H2479 H 0.19267 0.23454 1.10422
 H2480 H 0.23509 0.19237 1.10436
 H2481 H 0.24802 0.20536 1.07626
 H2482 H 0.20562 0.24748 1.07618
 C2483 C 0.70486 0.52197 0.15180
 C2484 C 0.71269 0.53776 0.14356
 C2485 C 0.72850 0.54567 0.15177
 C2486 C 0.73595 0.53829 0.16802
 C2487 C 0.72788 0.52273 0.17641
 C2488 C 0.71231 0.51459 0.16804
 H2489 H 0.69280 0.51534 0.14593
 H2490 H 0.73511 0.55770 0.14585
 H2491 H 0.74785 0.54504 0.17418
 H2492 H 0.70561 0.50270 0.17422
 C2493 C 0.73017 1.04290 0.64960
 C2494 C 0.71402 1.03548 0.64164
 C2495 C 0.70571 1.02005 0.65011
 C2496 C 0.71303 1.01260 0.66637
 C2497 C 0.72886 1.02038 0.67461
 C2498 C 0.73749 1.03545 0.66586
 H2499 H 0.73708 1.05469 0.64354
 H2500 H 0.69329 1.01387 0.64449
 H2501 H 0.70593 1.00107 0.67279
 H2502 H 0.74966 1.04186 0.67184
 C2503 C 0.52009 0.20680 0.64905
 C2504 C 0.53599 0.21464 0.64103
 C2505 C 0.54394 0.23029 0.64948
 C2506 C 0.53651 0.23759 0.66575
 C2507 C 0.52093 0.22941 0.67402
 C2508 C 0.51266 0.21408 0.66532
 H2509 H 0.51349 0.19477 0.64306
 H2510 H 0.55618 0.23675 0.64384
 H2511 H 0.54336 0.24931 0.67214
 H2512 H 0.50073 0.20732 0.67136
 C2513 C 1.04302 0.23053 0.14913
 C2514 C 1.03553 0.21443 0.14110
 C2515 C 1.02016 0.20609 0.14962
 C2516 C 1.01281 0.21335 0.16598
 C2517 C 1.02066 0.22913 0.17428
 C2518 C 1.03569 0.23778 0.16549
 H2519 H 1.05480 0.23744 0.14305
 H2520 H 1.01394 0.19370 0.14396
 H2521 H 1.00129 0.20624 0.17240
 H2522 H 1.04215 0.24992 0.17151
 C2523 C 0.60011 0.20634 0.72981
 C2524 C 0.60830 0.21417 0.71400
 C2525 C 0.59996 0.22982 0.70601
 C2526 C 0.58361 0.23711 0.71328
 C2527 C 0.57515 0.22894 0.72876
 C2528 C 0.58375 0.21362 0.73709
 H2529 H 0.60606 0.19435 0.73647
 H2530 H 0.60580 0.23636 0.69391
 H2531 H 0.57734 0.24884 0.70641
 H2532 H 0.57758 0.20688 0.74896
 C2533 C 1.10021 0.22973 0.20620
 C2534 C 1.10832 0.21383 0.21395
 C2535 C 1.10002 0.20589 0.22965
 C2536 C 1.08376 0.21328 0.23702
 C2537 C 1.07536 0.22882 0.22890
 C2538 C 1.08395 0.23712 0.21357
 H2539 H 1.10614 0.23637 0.19420
 H2540 H 1.10578 0.19371 0.23612
 H2541 H 1.07749 0.20645 0.24878
 H2542 H 1.07784 0.24906 0.20689
 C2543 C 0.15158 0.70482 0.52168
 C2544 C 0.14344 0.71267 0.53753
 C2545 C 0.15182 0.72835 0.54552
 C2546 C 0.16799 0.73581 0.53803
 C2547 C 0.17625 0.72781 0.52234
 C2548 C 0.16776 0.71229 0.51419
 H2549 H 0.14567 0.69275 0.51509
 H2550 H 0.14610 0.73483 0.55772
 H2551 H 0.17423 0.74766 0.54481
 H2552 H 0.17382 0.70563 0.50220
 C2553 C 0.15211 0.22816 1.04560
 C2554 C 0.14373 0.21253 1.03754
 C2555 C 0.15198 0.20463 1.02177
 C2556 C 0.16828 0.21200 1.01444
 C2557 C 0.17676 0.22748 1.02266
 C2558 C 0.16840 0.23553 1.03827
 H2559 H 0.14630 0.23468 1.05775
 H2560 H 0.14605 0.19261 1.01510
 H2561 H 0.17441 0.20532 1.00250
 H2562 H 0.17463 0.24736 1.04510
 C2563 C 0.65202 0.52186 0.20461
 C2564 C 0.64390 0.53777 0.21237
 C2565 C 0.65228 0.54582 0.22802
 C2566 C 0.66847 0.53838 0.23550
 C2567 C 0.67673 0.52266 0.22756
 C2568 C 0.66822 0.51442 0.21209
 H2569 H 0.64608 0.51519 0.19260
 H2570 H 0.64653 0.55803 0.23447
 H2571 H 0.67470 0.54520 0.24732
 H2572 H 0.67426 0.50238 0.20550
 C2573 C 0.64965 1.04385 0.72966
 C2574 C 0.64142 1.03594 0.71386
 C2575 C 0.64956 1.02004 0.70611
 C2576 C 0.66577 1.01261 0.71360
 C2577 C 0.67430 1.02088 0.72903
 C2578 C 0.66585 1.03642 0.73715
 H2579 H 0.64387 1.05605 0.73612
 H2580 H 0.64368 1.01342 0.69403
 H2581 H 0.67190 1.00067 0.70692
 H2582 H 0.67205 1.04323 0.74900
 C2583 C 0.85094 0.45721 0.27017
 C2584 C 0.85882 0.46459 0.28641
 C2585 C 0.85024 0.47995 0.29475
 C2586 C 0.83399 0.48739 0.28735
 C2587 C 0.82586 0.47965 0.27143
 C2588 C 0.83469 0.46463 0.26279
 H2589 H 0.85706 0.44544 0.26325
 H2590 H 0.85575 0.48604 0.30726
 H2591 H 0.82749 0.49884 0.29451
 H2592 H 0.82877 0.45821 0.25059
 C2593 C 0.84828 0.95506 0.77206
 C2594 C 0.85638 0.96283 0.78799
 C2595 C 0.84795 0.97842 0.79606
 C2596 C 0.83171 0.98581 0.78861
 C2597 C 0.82348 0.97783 0.77287
 C2598 C 0.83204 0.96244 0.76462
 H2599 H 0.85425 0.94309 0.76537
 H2600 H 0.85368 0.98487 0.80830
 H2601 H 0.82542 0.99757 0.79546
 H2602 H 0.82602 0.95582 0.75257
 C2603 C 0.40143 0.29539 0.77155
 C2604 C 0.39318 0.28752 0.78731
 C2605 C 0.40144 0.27177 0.79522
 C2606 C 0.41760 0.26425 0.78774
 C2607 C 0.42597 0.27227 0.77213
 C2608 C 0.41760 0.28787 0.76406
 H2609 H 0.39560 0.30751 0.76503
 H2610 H 0.39565 0.26529 0.80738
 H2611 H 0.42373 0.25235 0.79445
 H2612 H 0.42372 0.29453 0.75213
 C2613 C 0.90109 0.29446 0.27128
 C2614 C 0.89317 0.28695 0.28738
 C2615 C 0.90185 0.27169 0.29576
 C2616 C 0.91816 0.26435 0.28841
 C2617 C 0.92621 0.27207 0.27249
 C2618 C 0.91740 0.28715 0.26395
 H2619 H 0.89487 0.30614 0.26432
 H2620 H 0.89627 0.26548 0.30815
 H2621 H 0.92464 0.25284 0.29547
 H2622 H 0.92325 0.29354 0.25174
 C2623 C 0.35039 0.79395 0.48015
 C2624 C 0.35868 0.78598 0.46444
 C2625 C 0.35035 0.77026 0.45647
 C2626 C 0.33396 0.76301 0.46373
 C2627 C 0.32545 0.77127 0.47916
 C2628 C 0.33401 0.78670 0.48741
 H2629 H 0.35630 0.80602 0.48676
 H2630 H 0.35621 0.76365 0.44441
 H2631 H 0.32770 0.75120 0.45691
 H2632 H 0.32780 0.79354 0.49921
 C2633 C 0.35032 0.29453 0.97966
 C2634 C 0.35880 0.28633 0.96418
 C2635 C 0.35085 0.27020 0.95666
 C2636 C 0.33457 0.26282 0.96403
 C2637 C 0.32581 0.27136 0.97914
 C2638 C 0.33405 0.28715 0.98704
 H2639 H 0.35595 0.30691 0.98593
 H2640 H 0.35692 0.26335 0.94483
 H2641 H 0.32862 0.25067 0.95754
 H2642 H 0.32766 0.29416 0.99864
 C2643 C 0.77005 0.45621 0.35034
 C2644 C 0.78575 0.46413 0.35872
 C2645 C 0.79373 0.47987 0.35052
 C2646 C 0.78651 0.48719 0.33415
 C2647 C 0.77111 0.47896 0.32553
 C2648 C 0.76283 0.46352 0.33396
 H2649 H 0.76338 0.44417 0.35620
 H2650 H 0.80581 0.48641 0.35646
 H2651 H 0.79334 0.49901 0.32799
 H2652 H 0.75102 0.45675 0.32766
 C2653 C 0.79537 0.97829 0.84845
 C2654 C 0.78765 0.96242 0.85662
 C2655 C 0.77181 0.95451 0.84848
 C2656 C 0.76414 0.96204 0.83242
 C2657 C 0.77210 0.97768 0.82405
 C2658 C 0.78770 0.98583 0.83239
 H2659 H 0.80751 0.98485 0.85426
 H2660 H 0.76531 0.94241 0.85438
 H2661 H 0.75214 0.95536 0.82639
 H2662 H 0.79425 0.99786 0.82632
 C2663 C 0.29324 0.77003 0.39955
 C2664 C 0.28544 0.78583 0.39129
 C2665 C 0.26991 0.79400 0.39968
 C2666 C 0.26265 0.78683 0.41610
 C2667 C 0.27074 0.77131 0.42458
 C2668 C 0.28599 0.76287 0.41596
 H2669 H 0.30511 0.76322 0.39352
 H2670 H 0.26352 0.80620 0.39387
 H2671 H 0.25098 0.79379 0.42241
 H2672 H 0.29265 0.75095 0.42212
 C2673 C 0.27033 0.29415 0.90015
 C2674 C 0.28597 0.28617 0.89178
 C2675 C 0.29376 0.27029 0.89989
 C2676 C 0.28647 0.26294 0.91621
 C2677 C 0.27117 0.27126 0.92486
 C2678 C 0.26303 0.28680 0.91647
 H2679 H 0.26384 0.30632 0.89439
 H2680 H 0.30574 0.26363 0.89393
 H2681 H 0.29319 0.25103 0.92232
 H2682 H 0.25131 0.29366 0.92279
 C2683 C 0.47841 0.29514 0.84811
 C2684 C 0.46240 0.28761 0.85619
 C2685 C 0.45418 0.27205 0.84778
 C2686 C 0.46158 0.26445 0.83161
 C2687 C 0.47739 0.27220 0.82337
 C2688 C 0.48581 0.28754 0.83193
 H2689 H 0.48523 0.30705 0.85410
 H2690 H 0.44184 0.26581 0.85345
 H2691 H 0.45464 0.25271 0.82534
 H2692 H 0.49795 0.29395 0.82594
 C2693 C 0.95515 0.27184 0.34843
 C2694 C 0.96301 0.28767 0.35665
 C2695 C 0.97870 0.29563 0.34834
 C2696 C 0.98610 0.28818 0.33210
 C2697 C 0.97803 0.27255 0.32374
 C2698 C 0.96255 0.26439 0.33220
 H2699 H 0.94310 0.26523 0.35432
 H2700 H 0.98524 0.30776 0.35419
 H2701 H 0.99795 0.29493 0.32590
 H2702 H 0.95586 0.25243 0.32609
 C2703 C 0.45429 0.34810 0.77145
 C2704 C 0.46193 0.35616 0.78746
 C2705 C 0.47751 0.34776 0.79556
 C2706 C 0.48504 0.33162 0.78804
 C2707 C 0.47721 0.32343 0.77221
 C2708 C 0.46182 0.33195 0.76393
 H2709 H 0.44233 0.35406 0.76474
 H2710 H 0.48384 0.35343 0.80789
 H2711 H 0.49679 0.32536 0.79491
 H2712 H 0.45531 0.32595 0.75181
 C2713 C 0.95444 0.34830 0.27193
 C2714 C 0.96250 0.35659 0.28764
 C2715 C 0.97832 0.34835 0.29540
 C2716 C 0.98566 0.33210 0.28791
 C2717 C 0.97740 0.32367 0.27241
 C2718 C 0.96178 0.33205 0.26444
 H2719 H 0.94229 0.35414 0.26547
 H2720 H 0.98504 0.35426 0.30741
 H2721 H 0.99763 0.32597 0.29451
 H2722 H 0.95496 0.32588 0.25259
 C2723 C 0.27037 0.85082 0.45661
 C2724 C 0.28630 0.85894 0.46435
 C2725 C 0.29442 0.85049 0.47989
 C2726 C 0.28707 0.83418 0.48722
 C2727 C 0.27141 0.82584 0.47919
 C2728 C 0.26302 0.83450 0.46393
 H2729 H 0.26364 0.85682 0.44468
 H2730 H 0.30667 0.85621 0.48630
 H2731 H 0.29399 0.82783 0.49890
 H2732 H 0.25102 0.82844 0.45730
 C2733 C 0.29427 0.35030 0.98004
 C2734 C 0.28618 0.35860 0.96440
 C2735 C 0.27015 0.35052 0.95682
 C2736 C 0.26278 0.33429 0.96430
 C2737 C 0.27122 0.32570 0.97956
 C2738 C 0.28688 0.33408 0.98752
 H2739 H 0.30657 0.35601 0.98636
 H2740 H 0.26342 0.35645 0.94486
 H2741 H 0.25074 0.32820 0.95774
 H2742 H 0.29384 0.32780 0.99922
 C2743 C 0.77027 0.39982 0.29349
 C2744 C 0.78610 0.39162 0.28571
 C2745 C 0.79412 0.39995 0.27006
 C2746 C 0.78684 0.41628 0.26273
 C2747 C 0.77134 0.42475 0.27086
 C2748 C 0.76298 0.41616 0.28616
 H2749 H 0.76360 0.39391 0.30549
 H2750 H 0.80625 0.39412 0.26356
 H2751 H 0.79370 0.42254 0.25098
 H2752 H 0.75108 0.42232 0.29285
   
