data_POSCAR
  _audit_creation_date              2014-09-24
  _audit_creation_method            'ToBaCCo'
  _symmetry_space_group_name_H-M    'P1'
  _symmetry_Int_Tables_number       1
  _symmetry_cell_setting            triclinic
  loop_
  _symmetry_equiv_pos_as_xyz
 x,y,z
_cell_length_a 66.8523
_cell_length_b 66.8342
_cell_length_c 66.8754
_cell_angle_alpha 89.997900
_cell_angle_beta 89.958000
_cell_angle_gamma 90.021800
loop_
  _atom_site_label
  _atom_site_type_symbol
  _atom_site_fract_x
  _atom_site_fract_y
  _atom_site_fract_z
C1 C 0.36144 0.33553 0.33581
 C2 C 0.35278 0.35274 0.32738
 C3 C 0.33558 0.36143 0.33581
 C4 C 0.32715 0.35276 0.35301
 C5 C 0.33556 0.33556 0.36170
 C6 C 0.35275 0.32712 0.35301
 H7 H 0.35930 0.35925 0.31407
 H8 H 0.31384 0.35929 0.35954
 H9 H 0.35927 0.31381 0.35953
 C10 C 0.36150 0.83541 -0.16528
 C11 C 0.35271 0.85263 -0.17370
 C12 C 0.33544 0.86134 -0.16530
 C13 C 0.32712 0.85261 -0.14801
 C14 C 0.33560 0.83547 -0.13932
 C15 C 0.35280 0.82706 -0.14800
 H16 H 0.35922 0.85916 -0.18702
 H17 H 0.31381 0.85902 -0.14136
 H18 H 0.35927 0.81379 -0.14134
 C19 C 0.86100 0.33588 -0.16479
 C20 C 0.85233 0.35307 -0.17325
 C21 C 0.83508 0.36183 -0.16486
 C22 C 0.82671 0.35310 -0.14758
 C23 C 0.83515 0.33592 -0.13890
 C24 C 0.85233 0.32749 -0.14759
 H25 H 0.85896 0.35949 -0.18656
 H26 H 0.81341 0.35954 -0.14094
 H27 H 0.85886 0.31419 -0.14106
 C28 C 0.86120 0.83589 0.33534
 C29 C 0.85255 0.82751 0.35256
 C30 C 0.83534 0.83591 0.36123
 C31 C 0.82685 0.85305 0.35251
 C32 C 0.83519 0.86176 0.33521
 C33 C 0.85247 0.85304 0.32685
 H34 H 0.85911 0.81424 0.35912
 H35 H 0.81354 0.85947 0.35913
 H36 H 0.85908 0.85944 0.31352
 C37 C 0.63850 0.66454 0.33590
 C38 C 0.64716 0.64732 0.32750
 C39 C 0.66434 0.63862 0.33594
 C40 C 0.67275 0.64730 0.35313
 C41 C 0.66434 0.66452 0.36180
 C42 C 0.64717 0.67297 0.35310
 H43 H 0.64065 0.64080 0.31419
 H44 H 0.68604 0.64076 0.35966
 H45 H 0.64066 0.68629 0.35960
 C46 C 0.63871 0.16415 -0.16468
 C47 C 0.64745 0.14701 -0.17318
 C48 C 0.66474 0.13831 -0.16484
 C49 C 0.67307 0.14704 -0.14755
 C50 C 0.66456 0.16417 -0.13883
 C51 C 0.64734 0.17255 -0.14747
 H52 H 0.64085 0.14060 -0.18650
 H53 H 0.68639 0.14064 -0.14094
 H54 H 0.64077 0.18581 -0.14091
 C55 C 0.13878 0.66420 -0.16472
 C56 C 0.14744 0.64700 -0.17317
 C57 C 0.16469 0.63823 -0.16480
 C58 C 0.17305 0.64696 -0.14754
 C59 C 0.16462 0.66416 -0.13886
 C60 C 0.14745 0.67259 -0.14753
 H61 H 0.14081 0.64058 -0.18648
 H62 H 0.18634 0.64051 -0.14091
 H63 H 0.14094 0.68591 -0.14100
 C64 C 0.13848 0.16439 0.33560
 C65 C 0.14719 0.14721 0.32716
 C66 C 0.16437 0.13852 0.33558
 C67 C 0.17275 0.14717 0.35281
 C68 C 0.16430 0.16435 0.36152
 C69 C 0.14712 0.17278 0.35283
 H70 H 0.14070 0.14071 0.31382
 H71 H 0.18605 0.14064 0.35933
 H72 H 0.14058 0.18608 0.35937
 C73 C 0.63860 0.33555 0.66447
 C74 C 0.64730 0.32711 0.64729
 C75 C 0.66452 0.33553 0.63862
 C76 C 0.67295 0.35273 0.64730
 C77 C 0.66450 0.36142 0.66449
 C78 C 0.64728 0.35274 0.67290
 H79 H 0.64077 0.31380 0.64076
 H80 H 0.68627 0.35925 0.64080
 H81 H 0.64075 0.35927 0.68620
 C82 C 0.63867 0.83544 1.16514
 C83 C 0.64738 0.82713 1.14785
 C84 C 0.66455 0.83559 1.13916
 C85 C 0.67302 0.85274 1.14787
 C86 C 0.66470 0.86143 1.16516
 C87 C 0.64744 0.85268 1.17356
 H88 H 0.64092 0.81385 1.14118
 H89 H 0.68631 0.85919 1.14122
 H90 H 0.64092 0.85919 1.18689
 C91 C 0.13822 0.33518 1.16481
 C92 C 0.14694 0.32682 1.14753
 C93 C 0.16413 0.33527 1.13883
 C94 C 0.17256 0.35246 1.14750
 C95 C 0.16417 0.36113 1.16471
 C96 C 0.14698 0.35244 1.17318
 H97 H 0.14050 0.31352 1.14090
 H98 H 0.18586 0.35899 1.14096
 H99 H 0.14057 0.35907 1.18649
 C100 C 0.13869 0.83527 0.66502
 C101 C 0.14741 0.82694 0.64774
 C102 C 0.16459 0.83539 0.63907
 C103 C 0.17306 0.85254 0.64777
 C104 C 0.16473 0.86125 0.66505
 C105 C 0.14746 0.85251 0.67344
 H106 H 0.14095 0.81366 0.64108
 H107 H 0.18636 0.85898 0.64113
 H108 H 0.14094 0.85903 0.68676
 C109 C 0.36149 0.66445 0.66444
 C110 C 0.35284 0.67286 0.64723
 C111 C 0.33565 0.66442 0.63855
 C112 C 0.32720 0.64723 0.64725
 C113 C 0.33559 0.63857 0.66446
 C114 C 0.35278 0.64727 0.67289
 H115 H 0.35938 0.68616 0.64070
 H116 H 0.31389 0.64070 0.64073
 H117 H 0.35928 0.64076 0.68621
 C118 C 0.36120 0.16417 1.16445
 C119 C 0.35252 0.17259 1.14727
 C120 C 0.33533 0.16417 1.13861
 C121 C 0.32688 0.14697 1.14730
 C122 C 0.33525 0.13823 1.16456
 C123 C 0.35252 0.14698 1.17290
 H124 H 0.35906 0.18590 1.14074
 H125 H 0.31358 0.14053 1.14068
 H126 H 0.35915 0.14055 1.18620
 C127 C 0.86146 0.66453 1.16424
 C128 C 0.85278 0.67296 1.14706
 C129 C 0.83557 0.66454 1.13840
 C130 C 0.82713 0.64734 1.14709
 C131 C 0.83555 0.63866 1.16428
 C132 C 0.85276 0.64733 1.17268
 H133 H 0.85931 0.68627 1.14053
 H134 H 0.81381 0.64083 1.14059
 H135 H 0.85928 0.64081 1.18598
 C136 C 0.86155 0.16459 0.66499
 C137 C 0.85286 0.17291 0.64770
 C138 C 0.83569 0.16445 0.63902
 C139 C 0.82722 0.14728 0.64773
 C140 C 0.83554 0.13859 0.66501
 C141 C 0.85278 0.14735 0.67341
 H142 H 0.85932 0.18619 0.64104
 H143 H 0.81394 0.14083 0.64108
 H144 H 0.85929 0.14083 0.68673
 C145 C 0.33537 0.36142 0.66471
 C146 C 0.32696 0.35273 0.64752
 C147 C 0.33539 0.33554 0.63883
 C148 C 0.35259 0.32713 0.64749
 C149 C 0.36127 0.33555 0.66469
 C150 C 0.35257 0.35274 0.67312
 H151 H 0.31364 0.35925 0.64100
 H152 H 0.35912 0.31382 0.64097
 H153 H 0.35909 0.35927 0.68643
 C154 C 0.33605 0.86173 0.16381
 C155 C 0.32762 0.85302 0.14664
 C156 C 0.33606 0.83582 0.13796
 C157 C 0.35327 0.82742 0.14663
 C158 C 0.36196 0.83588 0.16380
 C159 C 0.35326 0.85308 0.17222
 H160 H 0.31430 0.85953 0.14013
 H161 H 0.35980 0.81411 0.14011
 H162 H 0.35978 0.85962 0.18551
 C163 C 0.83563 0.36159 0.16418
 C164 C 0.82720 0.35290 0.14699
 C165 C 0.83563 0.33571 0.13829
 C166 C 0.85285 0.32730 0.14693
 C167 C 0.86154 0.33573 0.16412
 C168 C 0.85285 0.35292 0.17256
 H169 H 0.81388 0.35941 0.14050
 H170 H 0.85937 0.31400 0.14040
 H171 H 0.85938 0.35944 0.18586
 C172 C 0.83600 0.86205 0.66437
 C173 C 0.82756 0.85335 0.64719
 C174 C 0.83598 0.83615 0.63850
 C175 C 0.85319 0.82773 0.64716
 C176 C 0.86188 0.83617 0.66434
 C177 C 0.85321 0.85337 0.67277
 H178 H 0.81425 0.85987 0.64069
 H179 H 0.85970 0.81442 0.64063
 H180 H 0.85974 0.85990 0.68606
 C181 C 0.66458 0.63877 0.66488
 C182 C 0.67301 0.64745 0.64767
 C183 C 0.66458 0.66465 0.63899
 C184 C 0.64739 0.67308 0.64768
 C185 C 0.63870 0.66466 0.66488
 C186 C 0.64738 0.64746 0.67331
 H187 H 0.68631 0.64093 0.64114
 H188 H 0.64087 0.68639 0.64116
 H189 H 0.64086 0.64094 0.68663
 C190 C 0.66436 0.13807 0.16429
 C191 C 0.64716 0.14675 0.17272
 C192 C 0.63848 0.16396 0.16431
 C193 C 0.64718 0.17239 0.14712
 C194 C 0.66438 0.16398 0.13843
 C195 C 0.67280 0.14677 0.14710
 H196 H 0.64063 0.14022 0.18603
 H197 H 0.64066 0.18571 0.14061
 H198 H 0.68611 0.14026 0.14058
 C199 C 0.16444 0.63854 0.16424
 C200 C 0.17288 0.64721 0.14704
 C201 C 0.16449 0.66442 0.13836
 C202 C 0.14730 0.67287 0.14705
 C203 C 0.13860 0.66446 0.16425
 C204 C 0.14726 0.64725 0.17267
 H205 H 0.18619 0.64067 0.14052
 H206 H 0.14080 0.68620 0.14053
 H207 H 0.14072 0.64074 0.18599
 C208 C 0.16414 0.13788 0.66459
 C209 C 0.17258 0.14658 0.64740
 C210 C 0.16415 0.16378 0.63872
 C211 C 0.14693 0.17218 0.64740
 C212 C 0.13824 0.16374 0.66458
 C213 C 0.14692 0.14655 0.67301
 H214 H 0.18590 0.14008 0.64089
 H215 H 0.14041 0.18549 0.64087
 H216 H 0.14039 0.14002 0.68631
 C217 C 0.33562 0.63881 0.33531
 C218 C 0.35280 0.64751 0.32687
 C219 C 0.36148 0.66472 0.33528
 C220 C 0.35281 0.67314 0.35248
 C221 C 0.33562 0.66470 0.36119
 C222 C 0.32720 0.64749 0.35252
 H223 H 0.35932 0.64100 0.31355
 H224 H 0.35932 0.68646 0.35900
 H225 H 0.31390 0.64095 0.35906
 C226 C 0.33538 0.13801 0.83563
 C227 C 0.35259 0.14670 0.82722
 C228 C 0.36126 0.16392 0.83564
 C229 C 0.35254 0.17235 0.85282
 C230 C 0.33534 0.16391 0.86149
 C231 C 0.32693 0.14670 0.85282
 H232 H 0.35914 0.14018 0.81392
 H233 H 0.35905 0.18567 0.85933
 H234 H 0.31361 0.14017 0.85933
 C235 C 0.83577 0.63884 0.83562
 C236 C 0.85296 0.64754 0.82717
 C237 C 0.86161 0.66478 0.83554
 C238 C 0.85290 0.67324 0.85271
 C239 C 0.83571 0.66481 0.86142
 C240 C 0.82732 0.64756 0.85279
 H241 H 0.85950 0.64099 0.81388
 H242 H 0.85940 0.68659 0.85919
 H243 H 0.81401 0.64103 0.85933
 C244 C 0.83564 0.13824 0.33540
 C245 C 0.82724 0.14690 0.35263
 C246 C 0.83567 0.16409 0.36132
 C247 C 0.85285 0.17255 0.35260
 C248 C 0.86150 0.16417 0.33537
 C249 C 0.85281 0.14696 0.32694
 H250 H 0.81395 0.14035 0.35918
 H251 H 0.85937 0.18587 0.35912
 H252 H 0.85931 0.14047 0.31361
 C253 C 0.66443 0.36118 0.33576
 C254 C 0.64724 0.35248 0.32734
 C255 C 0.63858 0.33525 0.33575
 C256 C 0.64727 0.32681 0.35292
 C257 C 0.66446 0.33525 0.36160
 C258 C 0.67287 0.35248 0.35293
 H259 H 0.64071 0.35901 0.31405
 H260 H 0.64076 0.31348 0.35943
 H261 H 0.68618 0.35902 0.35945
 C262 C 0.66429 0.86211 0.83572
 C263 C 0.64707 0.85344 0.82732
 C264 C 0.63836 0.83626 0.83577
 C265 C 0.64703 0.82784 0.85296
 C266 C 0.66424 0.83625 0.86162
 C267 C 0.67269 0.85343 0.85292
 H268 H 0.64057 0.85996 0.81401
 H269 H 0.64049 0.81454 0.85950
 H270 H 0.68602 0.85994 0.85942
 C271 C 0.16391 0.36133 0.83573
 C272 C 0.14674 0.35262 0.82729
 C273 C 0.13807 0.33539 0.83567
 C274 C 0.14674 0.32694 0.85286
 C275 C 0.16391 0.33539 0.86156
 C276 C 0.17232 0.35263 0.85292
 H277 H 0.14022 0.35916 0.81399
 H278 H 0.14023 0.31360 0.85935
 H279 H 0.18562 0.35916 0.85945
 C280 C 0.16450 0.86168 0.33561
 C281 C 0.14729 0.85301 0.32721
 C282 C 0.13857 0.83583 0.33566
 C283 C 0.14723 0.82742 0.35286
 C284 C 0.16444 0.83584 0.36153
 C285 C 0.17290 0.85301 0.35282
 H286 H 0.14079 0.85952 0.31389
 H287 H 0.14068 0.81412 0.35940
 H288 H 0.18622 0.85953 0.35932
 O289 O 0.24819 1.01967 0.27511
 O290 O 0.27572 0.98070 0.24755
 O291 O 0.27568 1.01972 0.24758
 O292 O 0.24824 0.98065 0.27510
 O293 O 0.22485 0.98063 0.25177
 O294 O 0.25230 1.01970 0.22425
 O295 O 0.25233 0.98068 0.22423
 O296 O 0.22481 1.01965 0.25178
 Cu297 Cu 0.26431 1.00019 0.26368
 Cu298 Cu 0.23622 1.00016 0.23566
 C299 C 0.23187 1.02635 0.26809
 C300 C 0.26866 0.97400 0.23125
 C301 C 0.26861 1.02643 0.23129
 C302 C 0.23192 0.97394 0.26807
 O303 O 0.22419 0.48061 0.75233
 O304 O 0.25177 0.51959 0.72482
 O305 O 0.25173 0.48057 0.72486
 O306 O 0.22423 0.51964 0.75230
 O307 O 0.24757 0.51964 0.77568
 O308 O 0.27507 0.48058 0.74823
 O309 O 0.27511 0.51960 0.74819
 O310 O 0.24752 0.48061 0.77570
 Cu311 Cu 0.23563 0.50011 0.73623
 Cu312 Cu 0.26366 0.50011 0.76430
 C313 C 0.23121 0.47391 0.76864
 C314 C 0.26808 0.52629 0.73187
 C315 C 0.26803 0.47387 0.73192
 C316 C 0.23127 0.52635 0.76861
 O317 O 0.74786 -0.02009 0.22458
 O318 O 0.77539 0.01898 0.25198
 O319 O 0.77539 -0.02004 0.25204
 O320 O 0.74788 0.01893 0.22451
 O321 O 0.72452 0.01897 0.24790
 O322 O 0.75203 -0.02001 0.27543
 O323 O 0.75203 0.01901 0.27537
 O324 O 0.72451 -0.02006 0.24797
 Cu325 Cu 0.76398 -0.00056 0.23593
 Cu326 Cu 0.73593 -0.00052 0.26402
 C327 C 0.73155 -0.02679 0.23167
 C328 C 0.76834 0.02571 0.26829
 C329 C 0.76834 -0.02672 0.26837
 C330 C 0.73157 0.02564 0.23157
 O331 O 0.72476 0.51950 0.74825
 O332 O 0.75224 0.48043 0.77567
 O333 O 0.75229 0.51946 0.77570
 O334 O 0.72475 0.48047 0.74818
 O335 O 0.74812 0.48050 0.72480
 O336 O 0.77565 0.51948 0.75231
 O337 O 0.77561 0.48045 0.75229
 O338 O 0.74813 0.51952 0.72487
 Cu339 Cu 0.73617 0.49996 0.76430
 Cu340 Cu 0.76423 0.49999 0.73622
 C341 C 0.73182 0.52622 0.73194
 C342 C 0.76855 0.47373 0.76860
 C343 C 0.76861 0.52617 0.76863
 C344 C 0.73180 0.47379 0.73186
 O345 O 0.25203 0.48049 0.27546
 O346 O 0.22454 0.51945 0.24790
 O347 O 0.22453 0.48042 0.24799
 O348 O 0.25205 0.51951 0.27537
 O349 O 0.27541 0.51946 0.25199
 O350 O 0.24789 0.48037 0.22461
 O351 O 0.24791 0.51940 0.22452
 O352 O 0.27540 0.48044 0.25208
 Cu353 Cu 0.23594 0.49997 0.26403
 Cu354 Cu 0.26400 0.49991 0.23595
 C355 C 0.26835 0.47377 0.26841
 C356 C 0.23159 0.52611 0.23157
 C357 C 0.23157 0.47368 0.23169
 C358 C 0.26836 0.52620 0.26829
 O359 O 0.74809 1.02015 0.77542
 O360 O 0.77565 0.98114 0.74795
 O361 O 0.77565 1.02017 0.74796
 O362 O 0.74810 0.98113 0.77542
 O363 O 0.72477 0.98112 0.75203
 O364 O 0.75232 1.02016 0.72457
 O365 O 0.75233 0.98113 0.72457
 O366 O 0.72476 1.02014 0.75203
 Cu367 Cu 0.76421 1.00065 0.76404
 Cu368 Cu 0.73620 1.00064 0.73595
 C369 C 0.73178 1.02684 0.76835
 C370 C 0.76863 0.97444 0.73164
 C371 C 0.76862 1.02687 0.73164
 C372 C 0.73179 0.97442 0.76835
 O373 O 0.74788 0.51951 0.27557
 O374 O 0.77537 0.48054 0.24799
 O375 O 0.77534 0.51956 0.24801
 O376 O 0.74789 0.48049 0.27554
 O377 O 0.72449 0.48049 0.25223
 O378 O 0.75194 0.51955 0.22470
 O379 O 0.75196 0.48053 0.22468
 O380 O 0.72448 0.51951 0.25226
 Cu381 Cu 0.76397 0.50003 0.26412
 Cu382 Cu 0.73587 0.50002 0.23613
 C383 C 0.73155 0.52621 0.26856
 C384 C 0.76829 0.47384 0.23169
 C385 C 0.76826 0.52626 0.23172
 C386 C 0.73157 0.47378 0.26852
 O387 O 0.27533 0.01877 0.75205
 O388 O 0.24784 -0.02027 0.72457
 O389 O 0.24780 0.01875 0.72460
 O390 O 0.27540 -0.02025 0.75198
 O391 O 0.25207 -0.02033 0.77539
 O392 O 0.22447 0.01869 0.74801
 O393 O 0.22451 -0.02034 0.74798
 O394 O 0.25199 0.01870 0.77546
 Cu395 Cu 0.26394 -0.00074 0.73595
 Cu396 Cu 0.23592 -0.00083 0.76406
 C397 C 0.26829 0.02544 0.76839
 C398 C 0.23154 -0.02701 0.73165
 C399 C 0.23149 0.02542 0.73169
 C400 C 0.26839 -0.02699 0.76829
 O401 O 0.24757 0.27515 0.98052
 O402 O 0.27511 0.24769 1.01950
 O403 O 0.27507 0.24764 0.98050
 O404 O 0.24760 0.27517 1.01952
 O405 O 0.22423 0.25179 1.01957
 O406 O 0.25170 0.22426 0.98055
 O407 O 0.25175 0.22430 1.01955
 O408 O 0.22420 0.25177 0.98057
 Cu409 Cu 0.26368 0.26376 1.00000
 Cu410 Cu 0.23562 0.23568 1.00007
 C411 C 0.23125 0.26809 0.97385
 C412 C 0.26807 0.23137 1.02622
 C413 C 0.26801 0.23132 0.97382
 C414 C 0.23129 0.26811 1.02625
 O415 O 0.24795 0.77559 0.48058
 O416 O 0.27549 0.74803 0.51950
 O417 O 0.27546 0.74810 0.48050
 O418 O 0.24797 0.77552 0.51959
 O419 O 0.22461 0.75213 0.51958
 O420 O 0.25210 0.72471 0.48049
 O421 O 0.25212 0.72464 0.51949
 O422 O 0.22459 0.75220 0.48057
 Cu423 Cu 0.26407 0.76416 0.50004
 Cu424 Cu 0.23601 0.73607 0.50003
 C425 C 0.23164 0.76854 0.47389
 C426 C 0.26844 0.73170 0.52618
 C427 C 0.26841 0.73179 0.47378
 C428 C 0.23167 0.76844 0.52630
 O429 O 0.22479 0.74785 -0.01982
 O430 O 0.25233 0.77541 0.01911
 O431 O 0.25229 0.77537 -0.01989
 O432 O 0.22480 0.74791 0.01918
 O433 O 0.24817 0.72453 0.01918
 O434 O 0.27565 0.75200 -0.01990
 O435 O 0.27569 0.75204 0.01910
 O436 O 0.24815 0.72448 -0.01982
 Cu437 Cu 0.23621 0.76398 -0.00035
 Cu438 Cu 0.26426 0.73591 -0.00036
 C439 C 0.23184 0.73152 -0.02651
 C440 C 0.26865 0.76836 0.02579
 C441 C 0.26859 0.76831 -0.02661
 C442 C 0.23186 0.73160 0.02589
 O443 O 0.22438 0.24774 0.48078
 O444 O 0.25186 0.27523 0.51979
 O445 O 0.25189 0.27526 0.48079
 O446 O 0.22439 0.24767 0.51978
 O447 O 0.24778 0.22432 0.51974
 O448 O 0.27527 0.25190 0.48076
 O449 O 0.27524 0.25188 0.51976
 O450 O 0.24777 0.22439 0.48074
 Cu451 Cu 0.23578 0.26382 0.50029
 Cu452 Cu 0.26386 0.23578 0.50025
 C453 C 0.23145 0.23144 0.47406
 C454 C 0.26818 0.26819 0.52648
 C455 C 0.26821 0.26822 0.47408
 C456 C 0.23146 0.23134 0.52645
 O457 O 0.72449 0.75243 1.01956
 O458 O 0.75198 0.72502 0.98047
 O459 O 0.75198 0.72493 1.01946
 O460 O 0.72446 0.75252 0.98056
 O461 O 0.74783 0.77590 0.98058
 O462 O 0.77535 0.74831 1.01949
 O463 O 0.77534 0.74841 0.98049
 O464 O 0.74785 0.77582 1.01958
 Cu465 Cu 0.73588 0.73638 1.00001
 Cu466 Cu 0.76394 0.76446 1.00004
 C467 C 0.73155 0.76874 1.02629
 C468 C 0.76829 0.73210 0.97377
 C469 C 0.76830 0.73197 1.02616
 C470 C 0.73151 0.76885 0.97389
 O471 O 0.74815 0.27511 0.48059
 O472 O 0.77568 0.24767 0.51960
 O473 O 0.77566 0.24761 0.48059
 O474 O 0.74817 0.27517 0.51958
 O475 O 0.72480 0.25178 0.51964
 O476 O 0.75229 0.22422 0.48065
 O477 O 0.75232 0.22429 0.51966
 O478 O 0.72479 0.25172 0.48065
 Cu479 Cu 0.76426 0.26374 0.50008
 Cu480 Cu 0.73620 0.23565 0.50016
 C481 C 0.73183 0.26803 0.47392
 C482 C 0.76863 0.23136 0.52633
 C483 C 0.76860 0.23128 0.47392
 C484 C 0.73186 0.26811 0.52631
 O485 O 0.72444 0.24783 -0.01961
 O486 O 0.75192 0.27538 0.01937
 O487 O 0.75186 0.27543 -0.01963
 O488 O 0.72447 0.24780 0.01939
 O489 O 0.74790 0.22449 0.01933
 O490 O 0.77529 0.25213 -0.01970
 O491 O 0.77535 0.25207 0.01930
 O492 O 0.74787 0.22452 -0.01967
 Cu493 Cu 0.73582 0.26395 -0.00011
 Cu494 Cu 0.76396 0.23596 -0.00019
 C495 C 0.73153 0.23153 -0.02633
 C496 C 0.76827 0.26836 0.02603
 C497 C 0.76818 0.26843 -0.02637
 C498 C 0.73157 0.23150 0.02606
 O499 O 0.77549 0.75238 0.48064
 O500 O 0.74807 0.72487 0.51973
 O501 O 0.74800 0.72484 0.48073
 O502 O 0.77557 0.75241 0.51964
 O503 O 0.75219 0.77576 0.51968
 O504 O 0.72462 0.74820 0.48077
 O505 O 0.72469 0.74823 0.51977
 O506 O 0.75211 0.77574 0.48068
 Cu507 Cu 0.76413 0.73628 0.50018
 Cu508 Cu 0.73606 0.76433 0.50023
 C509 C 0.76842 0.76869 0.47394
 C510 C 0.73176 0.73192 0.52646
 C511 C 0.73167 0.73188 0.47407
 C512 C 0.76852 0.76873 0.52634
 O513 O 1.01962 0.27555 0.24772
 O514 O 0.98054 0.24801 0.27514
 O515 O 1.01955 0.24804 0.27521
 O516 O 0.98060 0.27554 0.24766
 O517 O 0.98065 0.25217 0.22429
 O518 O 1.01960 0.22467 0.25184
 O519 O 0.98059 0.22464 0.25177
 O520 O 1.01967 0.25218 0.22435
 Cu521 Cu 1.00007 0.26413 0.26378
 Cu522 Cu 1.00013 0.23607 0.23572
 C523 C 1.02636 0.26849 0.23142
 C524 C 0.97386 0.23169 0.26808
 C525 C 1.02626 0.23172 0.26817
 C526 C 0.97394 0.26849 0.23134
 O527 O 0.48039 0.25190 0.72467
 O528 O 0.51941 0.22435 0.75207
 O529 O 0.48040 0.22432 0.75211
 O530 O 0.51940 0.25190 0.72462
 O531 O 0.51941 0.27523 0.74802
 O532 O 0.48041 0.24766 0.77551
 O533 O 0.51942 0.24768 0.77547
 O534 O 0.48040 0.27523 0.74807
 Cu535 Cu 0.49990 0.23577 0.73602
 Cu536 Cu 0.49991 0.26379 0.76412
 C537 C 0.47369 0.26820 0.73176
 C538 C 0.52612 0.23137 0.76838
 C539 C 0.47370 0.23135 0.76843
 C540 C 0.52611 0.26821 0.73169
 O541 O -0.01989 0.27520 0.75186
 O542 O 0.01910 0.24752 0.72450
 O543 O -0.01991 0.24761 0.72444
 O544 O 0.01912 0.27510 0.75193
 O545 O 0.01901 0.25178 0.77535
 O546 O -0.02002 0.22429 0.74786
 O547 O 0.01900 0.22420 0.74792
 O548 O -0.02000 0.25188 0.77528
 Cu549 Cu -0.00038 0.26370 0.73583
 Cu550 Cu -0.00052 0.23569 0.76395
 C551 C -0.02664 0.26820 0.76818
 C552 C 0.02575 0.23120 0.73160
 C553 C -0.02667 0.23132 0.73153
 C554 C 0.02577 0.26807 0.76827
 O555 O 0.51945 0.24764 0.22461
 O556 O 0.48047 0.27518 0.25214
 O557 O 0.51948 0.27512 0.25213
 O558 O 0.48043 0.24770 0.22461
 O559 O 0.48038 0.22430 0.24795
 O560 O 0.51943 0.25172 0.27547
 O561 O 0.48042 0.25178 0.27548
 O562 O 0.51939 0.22424 0.24795
 Cu563 Cu 0.49996 0.26376 0.23603
 Cu564 Cu 0.49990 0.23566 0.26405
 C565 C 0.52611 0.23130 0.23164
 C566 C 0.47375 0.26811 0.26844
 C567 C 0.52616 0.26804 0.26843
 C568 C 0.47370 0.23138 0.23165
 O569 O 1.01998 0.77571 0.74779
 O570 O 0.98087 0.74827 0.77525
 O571 O 1.01988 0.74816 0.77524
 O572 O 0.98096 0.77580 0.74778
 O573 O 0.98092 0.75245 0.72439
 O574 O 1.01983 0.72481 0.75185
 O575 O 0.98082 0.72492 0.75187
 O576 O 1.01994 0.75237 0.72440
 Cu577 Cu 1.00043 0.76433 0.76386
 Cu578 Cu 1.00037 0.73629 0.73578
 C579 C 1.02668 0.76866 0.73147
 C580 C 0.97413 0.73197 0.76819
 C581 C 1.02654 0.73183 0.76817
 C582 C 0.97425 0.76878 0.73146
 O583 O 0.51990 0.77579 0.24778
 O584 O 0.48074 0.74833 0.27515
 O585 O 0.51975 0.74830 0.27529
 O586 O 0.48088 0.77580 0.24762
 O587 O 0.48096 0.75240 0.22428
 O588 O 0.51982 0.72490 0.25194
 O589 O 0.48081 0.72493 0.25181
 O590 O 0.51998 0.75240 0.22443
 Cu591 Cu 0.50031 0.76441 0.26380
 Cu592 Cu 0.50040 0.73631 0.23577
 C593 C 0.52667 0.76872 0.23150
 C594 C 0.47405 0.73200 0.26809
 C595 C 0.52646 0.73196 0.26827
 C596 C 0.47425 0.76873 0.23129
 O597 O 0.01955 0.74816 0.22451
 O598 O -0.01949 0.77567 0.25197
 O599 O 0.01952 0.77566 0.25202
 O600 O -0.01946 0.74816 0.22448
 O601 O -0.01950 0.72478 0.24784
 O602 O 0.01947 0.75228 0.27538
 O603 O -0.01955 0.75229 0.27533
 O604 O 0.01951 0.72478 0.24786
 Cu605 Cu 0.00004 0.76426 0.23590
 Cu606 Cu -0.00002 0.73618 0.26395
 C607 C 0.02623 0.73184 0.23156
 C608 C -0.02623 0.76861 0.26827
 C609 C 0.02619 0.76860 0.26834
 C610 C -0.02617 0.73183 0.23152
 O611 O 0.48031 0.77584 0.75213
 O612 O 0.51944 0.74830 0.72480
 O613 O 0.48043 0.74826 0.72470
 O614 O 0.51933 0.77588 0.75222
 O615 O 0.51928 0.75256 0.77564
 O616 O 0.48037 0.72494 0.74811
 O617 O 0.51939 0.72498 0.74822
 O618 O 0.48026 0.75252 0.77554
 Cu619 Cu 0.49989 0.76441 0.73611
 Cu620 Cu 0.49982 0.73641 0.76423
 C621 C 0.47356 0.76881 0.76843
 C622 C 0.52613 0.73201 0.73191
 C623 C 0.47372 0.73195 0.73177
 C624 C 0.52599 0.76887 0.76857
 C625 C 0.41093 0.30809 0.30839
 N626 N 0.40292 0.32505 0.30063
 N627 N 0.38736 0.33385 0.30944
 C628 C 0.37917 0.32606 0.32634
 N629 N 0.38731 0.30913 0.33412
 N630 N 0.40288 0.30032 0.32533
 C631 C 0.42769 0.29803 0.29835
 N632 N 0.43537 0.28079 0.30584
 N633 N 0.45019 0.27137 0.29642
 C634 C 0.45786 0.27883 0.27916
 N635 N 0.45024 0.29612 0.27171
 N636 N 0.43542 0.30555 0.28113
 C637 C 0.41040 0.80862 0.80800
 N638 N 0.40230 0.82548 0.80015
 N639 N 0.38664 0.83421 0.80886
 C640 C 0.37840 0.82646 0.82578
 N641 N 0.38669 0.80961 0.83364
 N642 N 0.40234 0.80087 0.82494
 C643 C 0.42725 0.79862 0.79806
 N644 N 0.43500 0.78145 0.80565
 N645 N 0.44990 0.77206 0.79632
 C646 C 0.45760 0.77950 0.77906
 N647 N 0.44991 0.79672 0.77151
 N648 N 0.43501 0.80611 0.78084
 C649 C -0.08948 0.30836 0.80790
 N650 N -0.09754 0.30065 0.82487
 N651 N -0.11311 0.30949 0.83362
 C652 C -0.12126 0.32639 0.82577
 N653 N -0.11307 0.33411 0.80883
 N654 N -0.09751 0.32528 0.80007
 C655 C -0.07272 0.29826 0.79791
 N656 N -0.06497 0.30570 0.78067
 N657 N -0.05015 0.29623 0.77130
 C658 C -0.04253 0.27897 0.77883
 N659 N -0.05023 0.27158 0.79611
 N660 N -0.06505 0.28105 0.80548
 C661 C -0.08920 0.80852 0.30805
 N662 N -0.09725 0.82543 0.30024
 N663 N -0.11284 0.83421 0.30900
 C664 C -0.12103 0.82644 0.32591
 N665 N -0.11286 0.80955 0.33374
 N666 N -0.09726 0.80076 0.32499
 C667 C -0.07240 0.79848 0.29805
 N668 N -0.06469 0.78127 0.30559
 N669 N -0.04984 0.77186 0.29620
 C670 C -0.04215 0.77932 0.27895
 N671 N -0.04980 0.79657 0.27146
 N672 N -0.06465 0.80598 0.28084
 C673 C 0.58911 0.69200 0.30840
 N674 N 0.59712 0.69978 0.32534
 N675 N 0.61265 0.69096 0.33416
 C676 C 0.62080 0.67402 0.32641
 N677 N 0.61266 0.66622 0.30951
 N678 N 0.59713 0.67503 0.30067
 C679 C 0.57239 0.70205 0.29831
 N680 N 0.56472 0.69453 0.28109
 N681 N 0.54995 0.70396 0.27162
 C682 C 0.54230 0.72125 0.27904
 N683 N 0.54991 0.72873 0.29631
 N684 N 0.56469 0.71930 0.30577
 C685 C 0.58908 0.19148 0.80809
 N686 N 0.59716 0.17458 0.80026
 N687 N 0.61277 0.16582 0.80900
 C688 C 0.62093 0.17358 0.82592
 N689 N 0.61272 0.19045 0.83377
 N690 N 0.59711 0.19922 0.82504
 C691 C 0.57229 0.20150 0.79811
 N692 N 0.56454 0.21869 0.80567
 N693 N 0.54969 0.22810 0.79631
 C694 C 0.54203 0.22066 0.77904
 N695 N 0.54971 0.20343 0.77152
 N696 N 0.56457 0.19402 0.78089
 C697 C 1.08930 0.69172 0.80797
 N698 N 1.09736 0.69945 0.82492
 N699 N 1.11291 0.69061 0.83367
 C700 C 1.12105 0.67370 0.82585
 N701 N 1.11287 0.66595 0.80893
 N702 N 1.09732 0.67478 0.80017
 C703 C 1.07256 0.70181 0.79797
 N704 N 1.06483 0.69434 0.78074
 N705 N 1.05002 0.70380 0.77136
 C706 C 1.04241 0.72107 0.77885
 N707 N 1.05007 0.72850 0.79612
 N708 N 1.06488 0.71903 0.80551
 C709 C 1.08903 0.19180 0.30816
 N710 N 1.09703 0.19957 0.32511
 N711 N 1.11259 0.19077 0.33392
 C712 C 1.12076 0.17385 0.32613
 N713 N 1.11263 0.16607 0.30921
 N714 N 1.09708 0.17486 0.30040
 C715 C 1.07229 0.20184 0.29810
 N716 N 1.06461 0.19433 0.28088
 N717 N 1.04980 0.20375 0.27144
 C718 C 1.04213 0.22101 0.27889
 N719 N 1.04975 0.22848 0.29617
 N720 N 1.06456 0.21907 0.30560
 C721 C 0.58902 0.30816 0.69182
 N722 N 0.59706 0.30040 0.67488
 N723 N 0.61266 0.30919 0.66611
 C724 C 0.62084 0.32609 0.67392
 N725 N 0.61267 0.33387 0.69083
 N726 N 0.59708 0.32509 0.69961
 C727 C 0.57224 0.29812 0.70185
 N728 N 0.56452 0.30561 0.71908
 N729 N 0.54968 0.29619 0.72848
 C730 C 0.54201 0.27893 0.72100
 N731 N 0.54966 0.27149 0.70372
 N732 N 0.56451 0.28091 0.69432
 C733 C 0.58982 0.80855 0.19187
 N734 N 0.59790 0.82544 0.19972
 N735 N 0.61353 0.83420 0.19100
 C736 C 0.62179 0.82646 0.17408
 N737 N 0.61352 0.80959 0.16623
 N738 N 0.59789 0.80081 0.17494
 C739 C 0.57298 0.79854 0.20183
 N740 N 0.56525 0.78134 0.19428
 N741 N 0.55035 0.77194 0.20362
 C742 C 0.54264 0.77941 0.22086
 N743 N 0.55031 0.79665 0.22837
 N744 N 0.56520 0.80604 0.21903
 C745 C 1.08942 0.30834 0.19166
 N746 N 1.09749 0.32525 0.19945
 N747 N 1.11312 0.33399 0.19070
 C748 C 1.12135 0.32621 0.17379
 N749 N 1.11309 0.30932 0.16599
 N750 N 1.09747 0.30056 0.17474
 C751 C 1.07260 0.29833 0.20166
 N752 N 1.06486 0.28112 0.19412
 N753 N 1.04998 0.27173 0.20350
 C754 C 1.04230 0.27919 0.22075
 N755 N 1.04997 0.29644 0.22824
 N756 N 1.06485 0.30584 0.21886
 C757 C 1.08982 0.80843 0.69177
 N758 N 1.09791 0.82532 0.69960
 N759 N 1.11355 0.83406 0.69088
 C760 C 1.12180 0.82630 0.67396
 N761 N 1.11352 0.80943 0.66612
 N762 N 1.09788 0.80068 0.67484
 C763 C 1.07297 0.79843 0.70174
 N764 N 1.06521 0.78125 0.69419
 N765 N 1.05031 0.77187 0.70355
 C766 C 1.04264 0.77934 0.72081
 N767 N 1.05034 0.79656 0.72831
 N768 N 1.06524 0.80594 0.71895
 C769 C 0.41096 0.69191 0.69184
 N770 N 0.40290 0.67498 0.69963
 N771 N 0.38734 0.66617 0.69084
 C772 C 0.37921 0.67393 0.67390
 N773 N 0.38740 0.69083 0.66609
 N774 N 0.40296 0.69965 0.67488
 C775 C 0.42771 0.70197 0.70188
 N776 N 0.43544 0.71919 0.69435
 N777 N 0.45025 0.72863 0.70377
 C778 C 0.45786 0.72121 0.72106
 N779 N 0.45019 0.70395 0.72855
 N780 N 0.43538 0.69450 0.71913
 C781 C 0.41077 0.19156 0.19177
 N782 N 0.40273 0.17461 0.19953
 N783 N 0.38714 0.16583 0.19076
 C784 C 0.37896 0.17364 0.17388
 N785 N 0.38712 0.19056 0.16609
 N786 N 0.40271 0.19935 0.17486
 C787 C 0.42755 0.20158 0.20179
 N788 N 0.43528 0.21881 0.19430
 N789 N 0.45013 0.22820 0.20370
 C790 C 0.45779 0.22070 0.22094
 N791 N 0.45011 0.20343 0.22839
 N792 N 0.43527 0.19404 0.21898
 C793 C -0.08902 0.69192 0.19160
 N794 N -0.09705 0.69970 0.17468
 N795 N -0.11263 0.69090 0.16590
 C796 C -0.12080 0.67399 0.17369
 N797 N -0.11264 0.66619 0.19059
 N798 N -0.09707 0.67497 0.19937
 C799 C -0.07225 0.70196 0.20164
 N800 N -0.06455 0.69444 0.21885
 N801 N -0.04973 0.70386 0.22827
 C802 C -0.04206 0.72113 0.22081
 N803 N -0.04970 0.72860 0.20355
 N804 N -0.06453 0.71918 0.19414
 C805 C -0.08967 0.19148 0.69176
 N806 N -0.09769 0.19922 0.67483
 N807 N -0.11331 0.19045 0.66610
 C808 C -0.12158 0.17358 0.67394
 N809 N -0.11337 0.16583 0.69086
 N810 N -0.09776 0.17459 0.69959
 C811 C -0.07286 0.20150 0.70175
 N812 N -0.06517 0.19400 0.71898
 N813 N -0.05031 0.20340 0.72836
 C814 C -0.04259 0.22063 0.72085
 N815 N -0.05022 0.22808 0.70358
 N816 N -0.06508 0.21868 0.69420
 C817 C 0.30822 0.41094 0.30839
 N818 N 0.32516 0.40289 0.30062
 N819 N 0.33394 0.38732 0.30942
 C820 C 0.32614 0.37917 0.32634
 N821 N 0.30923 0.38735 0.33413
 N822 N 0.30044 0.40292 0.32533
 C823 C 0.29820 0.42770 0.29834
 N824 N 0.28098 0.43544 0.30584
 N825 N 0.27157 0.45026 0.29641
 C826 C 0.27904 0.45789 0.27914
 N827 N 0.29631 0.45022 0.27168
 N828 N 0.30571 0.43539 0.28111
 C829 C 0.30842 -0.08994 0.80794
 N830 N 0.32534 -0.09796 0.80010
 N831 N 0.33414 -0.11356 0.80883
 C832 C 0.32641 -0.12182 0.82575
 N833 N 0.30951 -0.11361 0.83359
 N834 N 0.30070 -0.09801 0.82488
 C835 C 0.29836 -0.07315 0.79797
 N836 N 0.28115 -0.06546 0.80555
 N837 N 0.27171 -0.05061 0.79620
 C838 C 0.27913 -0.04291 0.77894
 N839 N 0.29638 -0.05053 0.77140
 N840 N 0.30582 -0.06538 0.78075
 C841 C 0.80829 0.41065 0.80833
 N842 N 0.82519 0.40257 0.80052
 N843 N 0.83392 0.38694 0.80927
 C844 C 0.82612 0.37870 0.82617
 N845 N 0.80924 0.38697 0.83398
 N846 N 0.80050 0.40260 0.82525
 C847 C 0.79831 0.42748 0.79834
 N848 N 0.78111 0.43523 0.80588
 N849 N 0.77174 0.45011 0.79651
 C850 C 0.77922 0.45778 0.77926
 N851 N 0.79646 0.45010 0.77176
 N852 N 0.80584 0.43521 0.78113
 C853 C 0.80825 -0.08958 0.30827
 N854 N 0.82518 -0.09762 0.30049
 N855 N 0.83395 -0.11320 0.30928
 C856 C 0.82618 -0.12142 0.32620
 N857 N 0.80927 -0.11319 0.33399
 N858 N 0.80048 -0.09761 0.32522
 C859 C 0.79821 -0.07281 0.29824
 N860 N 0.78100 -0.06509 0.30576
 N861 N 0.77159 -0.05026 0.29635
 C862 C 0.77905 -0.04261 0.27907
 N863 N 0.79631 -0.05028 0.27160
 N864 N 0.80572 -0.06511 0.28101
 C865 C 0.30811 0.58910 0.69191
 N866 N 0.32505 0.59715 0.69968
 N867 N 0.33386 0.61271 0.69087
 C868 C 0.32610 0.62085 0.67394
 N869 N 0.30920 0.61268 0.66616
 N870 N 0.30037 0.59712 0.67496
 C871 C 0.29804 0.57235 0.70197
 N872 N 0.28083 0.56463 0.69446
 N873 N 0.27138 0.54981 0.70388
 C874 C 0.27882 0.54218 0.72116
 N875 N 0.29608 0.54983 0.72862
 N876 N 0.30552 0.56465 0.71920
 C877 C 0.30841 1.08944 0.19142
 N878 N 0.32533 1.09750 0.19918
 N879 N 0.33408 1.11312 0.19042
 C880 C 0.32628 1.12136 0.17353
 N881 N 0.30938 1.11311 0.16576
 N882 N 0.30062 1.09750 0.17452
 C883 C 0.29840 1.07263 0.20144
 N884 N 0.28119 1.06489 0.19394
 N885 N 0.27180 1.05002 0.20335
 C886 C 0.27929 1.04236 0.22059
 N887 N 0.29655 1.05003 0.22804
 N888 N 0.30594 1.06490 0.21863
 C889 C 0.80813 0.58915 0.19173
 N890 N 0.82509 0.59718 0.19946
 N891 N 0.83388 0.61275 0.19064
 C892 C 0.82608 0.62092 0.17375
 N893 N 0.80915 0.61277 0.16600
 N894 N 0.80035 0.59720 0.17481
 C895 C 0.79810 0.57238 0.20179
 N896 N 0.78086 0.56467 0.19432
 N897 N 0.77146 0.54983 0.20375
 C898 C 0.77895 0.54217 0.22099
 N899 N 0.79623 0.54983 0.22842
 N900 N 0.80563 0.56466 0.21898
 C901 C 0.80858 1.08983 0.69185
 N902 N 0.82548 1.09790 0.69966
 N903 N 0.83426 1.11350 0.69091
 C904 C 0.82653 1.12173 0.67398
 N905 N 0.80965 1.11347 0.66616
 N906 N 0.80085 1.09787 0.67491
 C907 C 0.79854 1.07303 0.70185
 N908 N 0.78134 1.06530 0.69431
 N909 N 0.77192 1.05044 0.70369
 C910 C 0.77934 1.04278 0.72096
 N911 N 0.79659 1.05046 0.72846
 N912 N 0.80601 1.06531 0.71907
 C913 C 0.69169 0.58907 0.30855
 N914 N 0.69948 0.59712 0.32547
 N915 N 0.69069 0.61270 0.33426
 C916 C 0.67378 0.62087 0.32649
 N917 N 0.66597 0.61269 0.30960
 N918 N 0.67475 0.59711 0.30080
 C919 C 0.70171 0.57230 0.29850
 N920 N 0.69418 0.56458 0.28130
 N921 N 0.70358 0.54975 0.27187
 C922 C 0.72086 0.54210 0.27929
 N923 N 0.72835 0.54976 0.29654
 N924 N 0.71894 0.56458 0.30597
 C925 C 0.69177 1.08968 0.80822
 N926 N 0.69951 1.09773 0.82515
 N927 N 0.69069 1.11330 0.83393
 C928 C 0.67378 1.12150 0.82615
 N929 N 0.66603 1.11327 0.80924
 N930 N 0.67484 1.09771 0.80045
 C931 C 0.70183 1.07293 0.79819
 N932 N 0.69436 1.06520 0.78097
 N933 N 0.70380 1.05038 0.77156
 C934 C 0.72105 1.04274 0.77904
 N935 N 0.72849 1.05040 0.79631
 N936 N 0.71905 1.06522 0.80571
 C937 C 0.19148 0.58940 0.80837
 N938 N 0.19926 0.59745 0.82529
 N939 N 0.19051 0.61308 0.83403
 C940 C 0.17364 0.62135 0.82623
 N941 N 0.16585 0.61312 0.80933
 N942 N 0.17459 0.59749 0.80058
 C943 C 0.20148 0.57258 0.79838
 N944 N 0.19397 0.56485 0.78117
 N945 N 0.20335 0.54998 0.77179
 C946 C 0.22058 0.54229 0.77928
 N947 N 0.22805 0.54995 0.79653
 N948 N 0.21866 0.56483 0.80591
 C949 C 0.19186 1.08909 0.30811
 N950 N 0.19961 1.09712 0.32505
 N951 N 0.19078 1.11266 0.33387
 C952 C 0.17386 1.12081 0.32610
 N953 N 0.16609 1.11266 0.30918
 N954 N 0.17491 1.09712 0.30035
 C955 C 0.20192 1.07236 0.29804
 N956 N 0.19443 1.06465 0.28082
 N957 N 0.20386 1.04985 0.27138
 C958 C 0.22114 1.04222 0.27882
 N959 N 0.22860 1.04987 0.29608
 N960 N 0.21916 1.06467 0.30552
 C961 C 0.69189 0.41094 0.69191
 N962 N 0.67494 0.40289 0.69967
 N963 N 0.66616 0.38732 0.69087
 C964 C 0.67396 0.37916 0.67396
 N965 N 0.69088 0.38733 0.66618
 N966 N 0.69968 0.40290 0.67497
 C967 C 0.70193 0.42770 0.70196
 N968 N 0.71915 0.43543 0.69445
 N969 N 0.72856 0.45026 0.70387
 C970 C 0.72109 0.45790 0.72114
 N971 N 0.70382 0.45023 0.72860
 N972 N 0.69441 0.43540 0.71918
 C973 C 0.69163 -0.08980 0.19197
 N974 N 0.67473 -0.09787 0.19980
 N975 N 0.66595 -0.11348 0.19105
 C976 C 0.67370 -0.12171 0.17413
 N977 N 0.69058 -0.11346 0.16629
 N978 N 0.69937 -0.09785 0.17503
 C979 C 0.70167 -0.07300 0.20195
 N980 N 0.71887 -0.06527 0.19439
 N981 N 0.72829 -0.05040 0.20375
 C982 C 0.72084 -0.04272 0.22101
 N983 N 0.70359 -0.05039 0.22853
 N984 N 0.69418 -0.06526 0.21917
 C985 C 0.19162 0.41070 0.19198
 N986 N 0.19937 0.40264 0.17504
 N987 N 0.19056 0.38705 0.16630
 C988 C 0.17365 0.37889 0.17413
 N989 N 0.16588 0.38708 0.19104
 N990 N 0.17469 0.40267 0.19979
 C991 C 0.20167 0.42749 0.20197
 N992 N 0.19418 0.43525 0.21918
 N993 N 0.20360 0.45011 0.22854
 C994 C 0.22086 0.45775 0.22104
 N995 N 0.22831 0.45006 0.20378
 N996 N 0.21889 0.43520 0.19442
 C997 C 0.19166 -0.08999 0.69187
 N998 N 0.17475 -0.09805 0.69968
 N999 N 0.16597 -0.11366 0.69094
 C1000 C 0.17373 -0.12189 0.67402
 N1001 N 0.19062 -0.11364 0.66619
 N1002 N 0.19941 -0.09804 0.67493
 C1003 C 0.20169 -0.07319 0.70186
 N1004 N 0.21888 -0.06544 0.69431
 N1005 N 0.22829 -0.05058 0.70370
 C1006 C 0.22084 -0.04293 0.72097
 N1007 N 0.20360 -0.05062 0.72847
 N1008 N 0.19419 -0.06547 0.71909
 C1009 C 0.30814 0.30818 0.41122
 N1010 N 0.32509 0.30041 0.40319
 N1011 N 0.33388 0.30920 0.38761
 C1012 C 0.32609 0.32611 0.37944
 N1013 N 0.30918 0.33390 0.38760
 N1014 N 0.30037 0.32511 0.40318
 C1015 C 0.29810 0.29814 0.42799
 N1016 N 0.28087 0.30563 0.43571
 N1017 N 0.27145 0.29621 0.45054
 C1018 C 0.27892 0.27895 0.45819
 N1019 N 0.29619 0.27150 0.45054
 N1020 N 0.30561 0.28092 0.43571
 C1021 C 0.30837 0.80815 -0.08964
 N1022 N 0.32529 0.80038 -0.09772
 N1023 N 0.33403 0.80915 -0.11334
 C1024 C 0.32620 0.82604 -0.12152
 N1025 N 0.30930 0.83383 -0.11331
 N1026 N 0.30056 0.82506 -0.09769
 C1027 C 0.29837 0.79813 -0.07283
 N1028 N 0.28117 0.80565 -0.06508
 N1029 N 0.27179 0.79625 -0.05020
 C1030 C 0.27927 0.77900 -0.04254
 N1031 N 0.29653 0.77153 -0.05023
 N1032 N 0.30591 0.78093 -0.06510
 C1033 C 0.80789 0.30849 -0.08931
 N1034 N 0.80005 0.32540 -0.09735
 N1035 N 0.80880 0.33420 -0.11295
 C1036 C 0.82573 0.32645 -0.12113
 N1037 N 0.83358 0.30957 -0.11296
 N1038 N 0.82484 0.30076 -0.09737
 C1039 C 0.79790 0.29842 -0.07252
 N1040 N 0.80548 0.28123 -0.06482
 N1041 N 0.79611 0.27178 -0.04997
 C1042 C 0.77884 0.27918 -0.04228
 N1043 N 0.77131 0.29643 -0.04992
 N1044 N 0.78067 0.30587 -0.06477
 C1045 C 0.80812 0.80857 0.41089
 N1046 N 0.82506 0.80081 0.40282
 N1047 N 0.83379 0.80959 0.38720
 C1048 C 0.82594 0.82647 0.37902
 N1049 N 0.80904 0.83424 0.38722
 N1050 N 0.80030 0.82547 0.40284
 C1051 C 0.79814 0.79854 0.42771
 N1052 N 0.78093 0.80604 0.43547
 N1053 N 0.77157 0.79664 0.45034
 C1054 C 0.77907 0.77939 0.45800
 N1055 N 0.79633 0.77194 0.45031
 N1056 N 0.80569 0.78134 0.43543
 C1057 C 0.69194 0.30810 0.58914
 N1058 N 0.69972 0.32504 0.59717
 N1059 N 0.69092 0.33384 0.61273
 C1060 C 0.67399 0.32606 0.62090
 N1061 N 0.66620 0.30914 0.61274
 N1062 N 0.67499 0.30033 0.59718
 C1063 C 0.70199 0.29804 0.57238
 N1064 N 0.69447 0.28081 0.56469
 N1065 N 0.70388 0.27138 0.54987
 C1066 C 0.72115 0.27884 0.54220
 N1067 N 0.72863 0.29611 0.54983
 N1068 N 0.71921 0.30554 0.56465
 C1069 C 0.69179 0.80840 1.08942
 N1070 N 0.69959 0.82531 1.09750
 N1071 N 0.69084 0.83403 1.11314
 C1072 C 0.67396 0.82620 1.12134
 N1073 N 0.66614 0.80932 1.11313
 N1074 N 0.67487 0.80059 1.09749
 C1075 C 0.70177 0.79844 1.07258
 N1076 N 0.69424 0.78124 1.06482
 N1077 N 0.70362 0.77189 1.04993
 C1078 C 0.72087 0.77939 1.04225
 N1079 N 0.72835 0.79663 1.04994
 N1080 N 0.71897 0.80599 1.06484
 C1081 C 0.19146 0.30797 1.08922
 N1082 N 0.17454 0.30017 1.09728
 N1083 N 0.16577 0.30894 1.11288
 C1084 C 0.17357 0.32584 1.12106
 N1085 N 0.19047 0.33366 1.11287
 N1086 N 0.19925 0.32490 1.09727
 C1087 C 0.20148 0.29795 1.07242
 N1088 N 0.21869 0.30548 1.06468
 N1089 N 0.22808 0.29608 1.04982
 C1090 C 0.22060 0.27881 1.04217
 N1091 N 0.20335 0.27133 1.04985
 N1092 N 0.19396 0.28073 1.06471
 C1093 C 0.19187 0.80815 0.58937
 N1094 N 0.19966 0.82507 0.59744
 N1095 N 0.19090 0.83380 0.61307
 C1096 C 0.17401 0.82598 0.62126
 N1097 N 0.16620 0.80909 0.61306
 N1098 N 0.17495 0.80035 0.59744
 C1099 C 0.20187 0.79817 0.57255
 N1100 N 0.19435 0.78097 0.56480
 N1101 N 0.20373 0.77160 0.54992
 C1102 C 0.22098 0.77910 0.54224
 N1103 N 0.22846 0.79635 0.54993
 N1104 N 0.21907 0.80572 0.56481
 C1105 C 0.30833 0.69177 0.58901
 N1106 N 0.30054 0.67483 0.59705
 N1107 N 0.30932 0.66606 0.61263
 C1108 C 0.32622 0.67386 0.62080
 N1109 N 0.33402 0.69077 0.61263
 N1110 N 0.32525 0.69956 0.59705
 C1111 C 0.29830 0.70181 0.57224
 N1112 N 0.30582 0.71904 0.56453
 N1113 N 0.29641 0.72845 0.54971
 C1114 C 0.27915 0.72098 0.54206
 N1115 N 0.27168 0.70370 0.54971
 N1116 N 0.28109 0.69429 0.56453
 C1117 C 0.30798 0.19153 1.08908
 N1118 N 0.32491 0.19932 1.09712
 N1119 N 0.33368 0.19054 1.11270
 C1120 C 0.32589 0.17362 1.12087
 N1121 N 0.30899 0.16581 1.11270
 N1122 N 0.30021 0.17459 1.09713
 C1123 C 0.29795 0.20155 1.07231
 N1124 N 0.28074 0.19402 1.06461
 N1125 N 0.27132 0.20341 1.04978
 C1126 C 0.27878 0.22068 1.04211
 N1127 N 0.29604 0.22817 1.04975
 N1128 N 0.30545 0.21878 1.06458
 C1129 C 0.80820 0.69197 1.08892
 N1130 N 0.82514 0.69973 1.09695
 N1131 N 0.83392 0.69092 1.11251
 C1132 C 0.82612 0.67401 1.12068
 N1133 N 0.80920 0.66623 1.11252
 N1134 N 0.80041 0.67502 1.09696
 C1135 C 0.79816 0.70203 1.07218
 N1136 N 0.78094 0.69453 1.06447
 N1137 N 0.77153 0.70396 1.04966
 C1138 C 0.77900 0.72124 1.04202
 N1139 N 0.79627 0.72869 1.04967
 N1140 N 0.80568 0.71926 1.06448
 C1141 C 0.80845 0.19166 0.58934
 N1142 N 0.80066 0.17473 0.59741
 N1143 N 0.80941 0.16601 0.61304
 C1144 C 0.82629 0.17384 0.62122
 N1145 N 0.83410 0.19074 0.61301
 N1146 N 0.82536 0.19947 0.59739
 C1147 C 0.79845 0.20163 0.57252
 N1148 N 0.80597 0.21884 0.56477
 N1149 N 0.79658 0.22821 0.54990
 C1150 C 0.77933 0.22070 0.54225
 N1151 N 0.77186 0.20345 0.54995
 N1152 N 0.78125 0.19408 0.56481
 C1153 C 0.69173 0.69192 0.41129
 N1154 N 0.69949 0.67498 0.40325
 N1155 N 0.69070 0.66619 0.38769
 C1156 C 0.67379 0.67398 0.37953
 N1157 N 0.66601 0.69090 0.38769
 N1158 N 0.67479 0.69970 0.40325
 C1159 C 0.70177 0.70197 0.42804
 N1160 N 0.69426 0.71919 0.43575
 N1161 N 0.70368 0.72862 0.45057
 C1162 C 0.72095 0.72116 0.45820
 N1163 N 0.72841 0.70389 0.45055
 N1164 N 0.71899 0.69447 0.43573
 C1165 C 0.69177 0.19157 -0.08923
 N1166 N 0.69962 0.17468 -0.09730
 N1167 N 0.69088 0.16589 -0.11289
 C1168 C 0.67395 0.17363 -0.12106
 N1169 N 0.66609 0.19050 -0.11286
 N1170 N 0.67482 0.19930 -0.09727
 C1171 C 0.70176 0.20162 -0.07245
 N1172 N 0.69420 0.21881 -0.06471
 N1173 N 0.70358 0.22824 -0.04987
 C1174 C 0.72086 0.22081 -0.04223
 N1175 N 0.72837 0.20358 -0.04991
 N1176 N 0.71900 0.19415 -0.06475
 C1177 C 0.19195 0.69155 -0.08932
 N1178 N 0.17502 0.69932 -0.09737
 N1179 N 0.16626 0.69052 -0.11294
 C1180 C 0.17406 0.67361 -0.12111
 N1181 N 0.19096 0.66583 -0.11293
 N1182 N 0.19973 0.67461 -0.09736
 C1183 C 0.20198 0.70160 -0.07256
 N1184 N 0.21919 0.69410 -0.06485
 N1185 N 0.22860 0.70352 -0.05003
 C1186 C 0.22113 0.72080 -0.04238
 N1187 N 0.20387 0.72826 -0.05004
 N1188 N 0.19446 0.71883 -0.06486
 C1189 C 0.19160 0.19163 0.41111
 N1190 N 0.17468 0.19943 0.40307
 N1191 N 0.16592 0.19066 0.38748
 C1192 C 0.17372 0.17377 0.37928
 N1193 N 0.19062 0.16596 0.38745
 N1194 N 0.19939 0.17471 0.40304
 C1195 C 0.20162 0.20164 0.42790
 N1196 N 0.21883 0.19412 0.43561
 N1197 N 0.22823 0.20351 0.45046
 C1198 C 0.22076 0.22076 0.45814
 N1199 N 0.20350 0.22823 0.45050
 N1200 N 0.19410 0.21884 0.43565
 C1201 C 0.30796 0.41094 0.69208
 N1202 N 0.30020 0.40290 0.67515
 N1203 N 0.30901 0.38732 0.66637
 C1204 C 0.32591 0.37916 0.67417
 N1205 N 0.33368 0.38733 0.69108
 N1206 N 0.32488 0.40290 0.69986
 C1207 C 0.29791 0.42772 0.70211
 N1208 N 0.30540 0.43545 0.71932
 N1209 N 0.29599 0.45029 0.72872
 C1210 C 0.27874 0.45795 0.72124
 N1211 N 0.27129 0.45029 0.70398
 N1212 N 0.28071 0.43544 0.69459
 C1213 C 0.30862 0.91121 0.19124
 N1214 N 0.30084 0.90316 0.17432
 N1215 N 0.30965 0.88760 0.16552
 C1216 C 0.32658 0.87946 0.17328
 N1217 N 0.33438 0.88764 0.19017
 N1218 N 0.32558 0.90320 0.19898
 C1219 C 0.29856 0.92796 0.20130
 N1220 N 0.30608 0.93568 0.21851
 N1221 N 0.29666 0.95049 0.22794
 C1222 C 0.27937 0.95812 0.22052
 N1223 N 0.27190 0.95046 0.20327
 N1224 N 0.28132 0.93565 0.19383
 C1225 C 0.80822 0.41105 0.19165
 N1226 N 0.80043 0.40301 0.17473
 N1227 N 0.80923 0.38745 0.16592
 C1228 C 0.82617 0.37930 0.17366
 N1229 N 0.83397 0.38747 0.19056
 N1230 N 0.82518 0.40303 0.19938
 C1231 C 0.79817 0.42780 0.20172
 N1232 N 0.80570 0.43551 0.21893
 N1233 N 0.79628 0.45032 0.22837
 C1234 C 0.77900 0.45796 0.22095
 N1235 N 0.77151 0.45031 0.20370
 N1236 N 0.78093 0.43550 0.19426
 C1237 C 0.80859 0.91157 0.69176
 N1238 N 0.80084 0.90353 0.67482
 N1239 N 0.80964 0.88796 0.66604
 C1240 C 0.82654 0.87978 0.67383
 N1241 N 0.83431 0.88795 0.69074
 N1242 N 0.82552 0.90352 0.69954
 C1243 C 0.79855 0.92833 0.70179
 N1244 N 0.80603 0.93605 0.71902
 N1245 N 0.79660 0.95088 0.72842
 C1246 C 0.77935 0.95854 0.72095
 N1247 N 0.77191 0.95088 0.70368
 N1248 N 0.78134 0.93605 0.69427
 C1249 C 0.69195 0.58920 0.69219
 N1250 N 0.67502 0.59725 0.70000
 N1251 N 0.66625 0.61285 0.69123
 C1252 C 0.67403 0.62102 0.67432
 N1253 N 0.69093 0.61285 0.66650
 N1254 N 0.69972 0.59726 0.67526
 C1255 C 0.70198 0.57241 0.70219
 N1256 N 0.71918 0.56469 0.69465
 N1257 N 0.72858 0.54983 0.70402
 C1258 C 0.72112 0.54215 0.72128
 N1259 N 0.70387 0.54981 0.72878
 N1260 N 0.69447 0.56467 0.71940
 C1261 C 0.69171 0.08853 0.19166
 N1262 N 0.69950 0.09657 0.17473
 N1263 N 0.69072 0.11216 0.16595
 C1264 C 0.67381 0.12033 0.17374
 N1265 N 0.66601 0.11216 0.19065
 N1266 N 0.67478 0.09658 0.19944
 C1267 C 0.70174 0.07175 0.20170
 N1268 N 0.69422 0.06405 0.21892
 N1269 N 0.70362 0.04921 0.22833
 C1270 C 0.72088 0.04154 0.22086
 N1271 N 0.72835 0.04919 0.20360
 N1272 N 0.71895 0.06402 0.19418
 C1273 C 0.19175 0.58899 0.19163
 N1274 N 0.19954 0.59701 0.17469
 N1275 N 0.19077 0.61260 0.16590
 C1276 C 0.17387 0.62079 0.17370
 N1277 N 0.16607 0.61264 0.19061
 N1278 N 0.17483 0.59705 0.19941
 C1279 C 0.20177 0.57221 0.20167
 N1280 N 0.19425 0.56452 0.21890
 N1281 N 0.20365 0.54968 0.22832
 C1282 C 0.22090 0.54200 0.22085
 N1283 N 0.22838 0.54964 0.20358
 N1284 N 0.21898 0.56447 0.19416
 C1285 C 0.19153 0.08834 0.69193
 N1286 N 0.17460 0.09638 0.69973
 N1287 N 0.16582 0.11197 0.69095
 C1288 C 0.17360 0.12014 0.67404
 N1289 N 0.19050 0.11197 0.66622
 N1290 N 0.19929 0.09639 0.67499
 C1291 C 0.20157 0.07156 0.70194
 N1292 N 0.21878 0.06385 0.69439
 N1293 N 0.22821 0.04901 0.70376
 C1294 C 0.22076 0.04133 0.72103
 N1295 N 0.20351 0.04898 0.72854
 N1296 N 0.19409 0.06383 0.71916
 C1297 C 0.30825 0.58922 0.30801
 N1298 N 0.30048 0.59727 0.32495
 N1299 N 0.30927 0.61287 0.33370
 C1300 C 0.32617 0.62105 0.32588
 N1301 N 0.33395 0.61288 0.30897
 N1302 N 0.32517 0.59728 0.30021
 C1303 C 0.29822 0.57241 0.29802
 N1304 N 0.30573 0.56467 0.28081
 N1305 N 0.29632 0.54980 0.27144
 C1306 C 0.27907 0.54214 0.27894
 N1307 N 0.27161 0.54982 0.29620
 N1308 N 0.28101 0.56469 0.30557
 C1309 C 0.30808 0.08842 0.80826
 N1310 N 0.30029 0.09644 0.82520
 N1311 N 0.30905 0.11204 0.83398
 C1312 C 0.32595 0.12025 0.82618
 N1313 N 0.33376 0.11209 0.80927
 N1314 N 0.32501 0.09650 0.80049
 C1315 C 0.29808 0.07162 0.79823
 N1316 N 0.30560 0.06393 0.78101
 N1317 N 0.29621 0.04907 0.77160
 C1318 C 0.27897 0.04136 0.77908
 N1319 N 0.27150 0.04899 0.79635
 N1320 N 0.28088 0.06385 0.80576
 C1321 C 0.80846 0.58917 0.80840
 N1322 N 0.80068 0.59724 0.82531
 N1323 N 0.80944 0.61287 0.83404
 C1324 C 0.82634 0.62105 0.82622
 N1325 N 0.83415 0.61285 0.80933
 N1326 N 0.82539 0.59723 0.80059
 C1327 C 0.79845 0.57236 0.79841
 N1328 N 0.80597 0.56462 0.78120
 N1329 N 0.79657 0.54975 0.77183
 C1330 C 0.77931 0.54208 0.77932
 N1331 N 0.77184 0.54976 0.79657
 N1332 N 0.78124 0.56462 0.80595
 C1333 C 0.80825 0.08868 0.30806
 N1334 N 0.80049 0.09672 0.32501
 N1335 N 0.80928 0.11230 0.33378
 C1336 C 0.82618 0.12050 0.32596
 N1337 N 0.83395 0.11234 0.30903
 N1338 N 0.82517 0.09675 0.30026
 C1339 C 0.79821 0.07189 0.29806
 N1340 N 0.80571 0.06417 0.28084
 N1341 N 0.79630 0.04931 0.27146
 C1342 C 0.77905 0.04164 0.27896
 N1343 N 0.77159 0.04930 0.29622
 N1344 N 0.78101 0.06416 0.30560
 C1345 C 0.69176 0.41079 0.30841
 N1346 N 0.67482 0.40274 0.30066
 N1347 N 0.66606 0.38714 0.30944
 C1348 C 0.67387 0.37895 0.32632
 N1349 N 0.69079 0.38712 0.33409
 N1350 N 0.69956 0.40273 0.32531
 C1351 C 0.70177 0.42759 0.29838
 N1352 N 0.71900 0.43532 0.30586
 N1353 N 0.72839 0.45018 0.29645
 C1354 C 0.72089 0.45785 0.27922
 N1355 N 0.70363 0.45018 0.27178
 N1356 N 0.69424 0.43532 0.28119
 C1357 C 0.69178 0.91158 0.80827
 N1358 N 0.69952 0.90355 0.82522
 N1359 N 0.69069 0.88800 0.83402
 C1360 C 0.67378 0.87983 0.82624
 N1361 N 0.66602 0.88798 0.80932
 N1362 N 0.67484 0.90354 0.80051
 C1363 C 0.70184 0.92833 0.79822
 N1364 N 0.69437 0.93604 0.78100
 N1365 N 0.70381 0.95086 0.77158
 C1366 C 0.72106 0.95852 0.77905
 N1367 N 0.72850 0.95088 0.79632
 N1368 N 0.71906 0.93605 0.80574
 C1369 C 0.19127 0.41096 0.80846
 N1370 N 0.17436 0.40290 0.80066
 N1371 N 0.16558 0.38729 0.80942
 C1372 C 0.17335 0.37910 0.82632
 N1373 N 0.19024 0.38729 0.83413
 N1374 N 0.19903 0.40290 0.82538
 C1375 C 0.20131 0.42776 0.79845
 N1376 N 0.21851 0.43548 0.80598
 N1377 N 0.22793 0.45034 0.79659
 C1378 C 0.22049 0.45800 0.77933
 N1379 N 0.20324 0.45034 0.77185
 N1380 N 0.19382 0.43549 0.78124
 C1381 C 0.19199 0.91112 0.30811
 N1382 N 0.17503 0.90309 0.30038
 N1383 N 0.16621 0.88755 0.30921
 C1384 C 0.17400 0.87939 0.32612
 N1385 N 0.19093 0.88754 0.33386
 N1386 N 0.19976 0.90309 0.32504
 C1387 C 0.20205 0.92786 0.29803
 N1388 N 0.21928 0.93557 0.30550
 N1389 N 0.22870 0.95039 0.29605
 C1390 C 0.22123 0.95803 0.27880
 N1391 N 0.20395 0.95038 0.27137
 N1392 N 0.19453 0.93556 0.28082
 C1393 C 0.41080 0.30816 0.69200
 N1394 N 0.40274 0.32508 0.69981
 N1395 N 0.38716 0.33387 0.69104
 C1396 C 0.37901 0.32610 0.67412
 N1397 N 0.38719 0.30920 0.66630
 N1398 N 0.40277 0.30041 0.67506
 C1399 C 0.42757 0.29811 0.70200
 N1400 N 0.43530 0.28091 0.69445
 N1401 N 0.45013 0.27149 0.70383
 C1402 C 0.45779 0.27892 0.72110
 N1403 N 0.45013 0.29617 0.72860
 N1404 N 0.43529 0.30559 0.71922
 C1405 C 0.41148 0.80857 0.19122
 N1406 N 0.40345 0.80075 0.17430
 N1407 N 0.38788 0.80952 0.16550
 C1408 C 0.37970 0.82645 0.17326
 N1409 N 0.38785 0.83428 0.19015
 N1410 N 0.40342 0.82552 0.19896
 C1411 C 0.42823 0.79856 0.20128
 N1412 N 0.43591 0.80610 0.21850
 N1413 N 0.45072 0.79671 0.22795
 C1414 C 0.45839 0.77943 0.22053
 N1415 N 0.45077 0.77193 0.20327
 N1416 N 0.43596 0.78132 0.19382
 C1417 C 0.91109 0.30837 0.19144
 N1418 N 0.90304 0.30059 0.17452
 N1419 N 0.88746 0.30937 0.16575
 C1420 C 0.87929 0.32628 0.17355
 N1421 N 0.88746 0.33408 0.19044
 N1422 N 0.90304 0.32531 0.19922
 C1423 C 0.92785 0.29834 0.20147
 N1424 N 0.93556 0.30586 0.21868
 N1425 N 0.95039 0.29645 0.22809
 C1426 C 0.95805 0.27919 0.22063
 N1427 N 0.95041 0.27172 0.20337
 N1428 N 0.93558 0.28112 0.19396
 C1429 C 0.91142 0.80878 0.69164
 N1430 N 0.90337 0.80101 0.67471
 N1431 N 0.88780 0.80981 0.66595
 C1432 C 0.87963 0.82671 0.67377
 N1433 N 0.88780 0.83450 0.69067
 N1434 N 0.90338 0.82571 0.69944
 C1435 C 0.92819 0.79873 0.70166
 N1436 N 0.93591 0.80622 0.71887
 N1437 N 0.95073 0.79678 0.72826
 C1438 C 0.95837 0.77952 0.72078
 N1439 N 0.95071 0.77207 0.70351
 N1440 N 0.93589 0.78151 0.69412
 C1441 C 0.58906 0.30787 0.30836
 N1442 N 0.59711 0.30006 0.32527
 N1443 N 0.61268 0.30886 0.33405
 C1444 C 0.62085 0.32579 0.32629
 N1445 N 0.61267 0.33361 0.30941
 N1446 N 0.59710 0.32483 0.30061
 C1447 C 0.57229 0.29784 0.29831
 N1448 N 0.56458 0.30539 0.28112
 N1449 N 0.54975 0.29600 0.27170
 C1450 C 0.54207 0.27872 0.27914
 N1451 N 0.54972 0.27122 0.29638
 N1452 N 0.56456 0.28061 0.30580
 C1453 C 0.58882 0.80887 0.80844
 N1454 N 0.59683 0.80112 0.82539
 N1455 N 0.61241 0.80991 0.83415
 C1456 C 0.62061 0.82680 0.82633
 N1457 N 0.61247 0.83457 0.80941
 N1458 N 0.59689 0.82579 0.80063
 C1459 C 0.57205 0.79882 0.79842
 N1460 N 0.56436 0.80630 0.78118
 N1461 N 0.54954 0.79686 0.77177
 C1462 C 0.54186 0.77961 0.77927
 N1463 N 0.54948 0.77218 0.79655
 N1464 N 0.56431 0.78161 0.80595
 C1465 C 0.08861 0.30796 0.80821
 N1466 N 0.09661 0.30019 0.82516
 N1467 N 0.11217 0.30900 0.83397
 C1468 C 0.12035 0.32591 0.82619
 N1469 N 0.11223 0.33370 0.80927
 N1470 N 0.09667 0.32491 0.80045
 C1471 C 0.07186 0.29792 0.79816
 N1472 N 0.06419 0.30542 0.78092
 N1473 N 0.04937 0.29601 0.77150
 C1474 C 0.04167 0.27876 0.77897
 N1475 N 0.04927 0.27131 0.79625
 N1476 N 0.06410 0.28072 0.80567
 C1477 C 0.08904 0.80847 0.30828
 N1478 N 0.09710 0.82541 0.30052
 N1479 N 0.11268 0.83419 0.30931
 C1480 C 0.12083 0.82639 0.32621
 N1481 N 0.11263 0.80948 0.33400
 N1482 N 0.09706 0.80069 0.32522
 C1483 C 0.07227 0.79845 0.29824
 N1484 N 0.06453 0.78122 0.30574
 N1485 N 0.04970 0.77182 0.29632
 C1486 C 0.04208 0.77929 0.27905
 N1487 N 0.04976 0.79656 0.27160
 N1488 N 0.06458 0.80597 0.28103
 C1489 C 0.58914 0.69207 0.69221
 N1490 N 0.59719 0.69981 0.67526
 N1491 N 0.61278 0.69101 0.66650
 C1492 C 0.62096 0.67412 0.67433
 N1493 N 0.61278 0.66636 0.69126
 N1494 N 0.59719 0.67515 0.70003
 C1495 C 0.57235 0.70211 0.70221
 N1496 N 0.56460 0.69464 0.71943
 N1497 N 0.54974 0.70405 0.72879
 C1498 C 0.54208 0.72129 0.72127
 N1499 N 0.54976 0.72872 0.70400
 N1500 N 0.56463 0.71930 0.69464
 C1501 C 0.58896 0.19135 0.19171
 N1502 N 0.59702 0.19913 0.17478
 N1503 N 0.61259 0.19033 0.16599
 C1504 C 0.62074 0.17341 0.17377
 N1505 N 0.61256 0.16562 0.19068
 N1506 N 0.59699 0.17440 0.19948
 C1507 C 0.57220 0.20140 0.20176
 N1508 N 0.56446 0.19388 0.21897
 N1509 N 0.54964 0.20330 0.22839
 C1510 C 0.54201 0.22058 0.22093
 N1511 N 0.54968 0.22805 0.20368
 N1512 N 0.56451 0.21863 0.19426
 C1513 C 0.08911 0.69191 0.19166
 N1514 N 0.09717 0.69968 0.17473
 N1515 N 0.11274 0.69087 0.16594
 C1516 C 0.12088 0.67394 0.17372
 N1517 N 0.11269 0.66615 0.19063
 N1518 N 0.09713 0.67495 0.19943
 C1519 C 0.07235 0.70196 0.20170
 N1520 N 0.06461 0.69444 0.21891
 N1521 N 0.04978 0.70386 0.22832
 C1522 C 0.04214 0.72113 0.22086
 N1523 N 0.04982 0.72861 0.20361
 N1524 N 0.06465 0.71919 0.19420
 C1525 C 0.08866 0.19114 0.69188
 N1526 N 0.09671 0.17423 0.69971
 N1527 N 0.11230 0.16544 0.69094
 C1528 C 0.12048 0.17320 0.67402
 N1529 N 0.11230 0.19008 0.66618
 N1530 N 0.09672 0.19888 0.67493
 C1531 C 0.07188 0.20121 0.70188
 N1532 N 0.06418 0.21841 0.69431
 N1533 N 0.04934 0.22785 0.70367
 C1534 C 0.04165 0.22044 0.72095
 N1535 N 0.04929 0.20320 0.72848
 N1536 N 0.06413 0.19375 0.71911
 C1537 C 0.41103 0.69214 0.30789
 N1538 N 0.40299 0.67519 0.30012
 N1539 N 0.38740 0.66640 0.30891
 C1540 C 0.37922 0.67420 0.32581
 N1541 N 0.38739 0.69112 0.33360
 N1542 N 0.40297 0.69991 0.32481
 C1543 C 0.42782 0.70217 0.29787
 N1544 N 0.43554 0.71939 0.30538
 N1545 N 0.45040 0.72880 0.29599
 C1546 C 0.45810 0.72131 0.27875
 N1547 N 0.45045 0.70405 0.27128
 N1548 N 0.43558 0.69464 0.28067
 C1549 C 0.41081 0.19135 0.80829
 N1550 N 0.40275 0.19911 0.82523
 N1551 N 0.38717 0.19030 0.83400
 C1552 C 0.37900 0.17339 0.82619
 N1553 N 0.38718 0.16562 0.80928
 N1554 N 0.40277 0.17442 0.80050
 C1555 C 0.42758 0.20141 0.79826
 N1556 N 0.43531 0.19392 0.78104
 N1557 N 0.45015 0.20336 0.77164
 C1558 C 0.45780 0.22062 0.77912
 N1559 N 0.45014 0.22806 0.79640
 N1560 N 0.43530 0.21862 0.80580
 C1561 C 0.91115 0.69215 0.80810
 N1562 N 0.90311 0.69995 0.82503
 N1563 N 0.88752 0.69116 0.83383
 C1564 C 0.87935 0.67424 0.82606
 N1565 N 0.88751 0.66643 0.80916
 N1566 N 0.90310 0.67520 0.80035
 C1567 C 0.92793 0.70217 0.79805
 N1568 N 0.93564 0.69465 0.78084
 N1569 N 0.95050 0.70404 0.77142
 C1570 C 0.95819 0.72129 0.77888
 N1571 N 0.95054 0.72877 0.79614
 N1572 N 0.93568 0.71938 0.80556
 C1573 C 0.91097 0.19167 0.30793
 N1574 N 0.90293 0.17473 0.30015
 N1575 N 0.88737 0.16591 0.30895
 C1576 C 0.87921 0.17366 0.32589
 N1577 N 0.88738 0.19058 0.33368
 N1578 N 0.90293 0.19941 0.32489
 C1579 C 0.92773 0.20174 0.29790
 N1580 N 0.93543 0.21897 0.30542
 N1581 N 0.95027 0.22841 0.29602
 C1582 C 0.95794 0.22096 0.27876
 N1583 N 0.95030 0.20370 0.27127
 N1584 N 0.93546 0.19426 0.28067
 C1585 C 0.30803 0.30812 0.58933
 N1586 N 0.30024 0.32505 0.59738
 N1587 N 0.30903 0.33385 0.61294
 C1588 C 0.32594 0.32607 0.62110
 N1589 N 0.33375 0.30917 0.61292
 N1590 N 0.32497 0.30037 0.59736
 C1591 C 0.29801 0.29808 0.57257
 N1592 N 0.30553 0.28086 0.56485
 N1593 N 0.29613 0.27144 0.55002
 C1594 C 0.27887 0.27889 0.54237
 N1595 N 0.27138 0.29615 0.55004
 N1596 N 0.28078 0.30557 0.56487
 C1597 C 0.30863 0.80836 0.08853
 N1598 N 0.30087 0.82531 0.09656
 N1599 N 0.30968 0.83412 0.11210
 C1600 C 0.32659 0.82634 0.12026
 N1601 N 0.33437 0.80941 0.11210
 N1602 N 0.32557 0.80059 0.09656
 C1603 C 0.29857 0.79829 0.07180
 N1604 N 0.30607 0.78106 0.06409
 N1605 N 0.29664 0.77163 0.04929
 C1606 C 0.27937 0.77909 0.04166
 N1607 N 0.27192 0.79637 0.04930
 N1608 N 0.28135 0.80580 0.06410
 C1609 C 0.80820 0.30831 0.08882
 N1610 N 0.80042 0.32523 0.09690
 N1611 N 0.80922 0.33402 0.11245
 C1612 C 0.82616 0.32625 0.12057
 N1613 N 0.83396 0.30936 0.11237
 N1614 N 0.82517 0.30056 0.09682
 C1615 C 0.79815 0.29827 0.07208
 N1616 N 0.80568 0.28107 0.06433
 N1617 N 0.79626 0.27165 0.04951
 C1618 C 0.77897 0.27908 0.04191
 N1619 N 0.77149 0.29632 0.04960
 N1620 N 0.78091 0.30575 0.06441
 C1621 C 0.80853 0.80871 0.58907
 N1622 N 0.82548 0.80095 0.59708
 N1623 N 0.83429 0.80976 0.61262
 C1624 C 0.82650 0.82668 0.62079
 N1625 N 0.80958 0.83446 0.61266
 N1626 N 0.80076 0.82565 0.59711
 C1627 C 0.79847 0.79865 0.57234
 N1628 N 0.78123 0.80615 0.56466
 N1629 N 0.77179 0.79672 0.54986
 C1630 C 0.77925 0.77945 0.54220
 N1631 N 0.79653 0.77200 0.54982
 N1632 N 0.80597 0.78143 0.56461
 C1633 C 0.30826 0.69202 0.41077
 N1634 N 0.32519 0.69982 0.40271
 N1635 N 0.33396 0.69105 0.38711
 C1636 C 0.32617 0.67414 0.37894
 N1637 N 0.30927 0.66632 0.38713
 N1638 N 0.30049 0.67508 0.40273
 C1639 C 0.29824 0.70202 0.42757
 N1640 N 0.28104 0.69448 0.43531
 N1641 N 0.27164 0.70386 0.45017
 C1642 C 0.27910 0.72112 0.45784
 N1643 N 0.29635 0.72862 0.45017
 N1644 N 0.30575 0.71924 0.43530
 C1645 C 0.30790 0.19135 0.91097
 N1646 N 0.30013 0.17440 0.90294
 N1647 N 0.30893 0.16560 0.88737
 C1648 C 0.32586 0.17338 0.87921
 N1649 N 0.33365 0.19030 0.88737
 N1650 N 0.32485 0.19911 0.90293
 C1651 C 0.29786 0.20140 0.92772
 N1652 N 0.30538 0.21863 0.93542
 N1653 N 0.29597 0.22806 0.95025
 C1654 C 0.27870 0.22060 0.95792
 N1655 N 0.27123 0.20333 0.95028
 N1656 N 0.28064 0.19390 0.93546
 C1657 C 0.80824 0.69225 0.91087
 N1658 N 0.82518 0.70004 0.90282
 N1659 N 0.83399 0.69123 0.88726
 C1660 C 0.82622 0.67429 0.87913
 N1661 N 0.80932 0.66648 0.88731
 N1662 N 0.80050 0.67528 0.90286
 C1663 C 0.79819 0.70228 0.92763
 N1664 N 0.78097 0.69475 0.93536
 N1665 N 0.77155 0.70414 0.95019
 C1666 C 0.77900 0.72142 0.95785
 N1667 N 0.79626 0.72891 0.95019
 N1668 N 0.80568 0.71951 0.93535
 C1669 C 0.80839 0.19140 0.41095
 N1670 N 0.80060 0.17447 0.40290
 N1671 N 0.80936 0.16571 0.38730
 C1672 C 0.82625 0.17352 0.37909
 N1673 N 0.83406 0.19043 0.38726
 N1674 N 0.82531 0.19920 0.40287
 C1675 C 0.79839 0.20142 0.42775
 N1676 N 0.80592 0.21864 0.43546
 N1677 N 0.79654 0.22805 0.45031
 C1678 C 0.77929 0.22057 0.45801
 N1679 N 0.77180 0.20330 0.45036
 N1680 N 0.78119 0.19390 0.43551
 C1681 C 0.69189 0.30787 0.41107
 N1682 N 0.67496 0.30007 0.40304
 N1683 N 0.66616 0.30886 0.38748
 C1684 C 0.67393 0.32579 0.37931
 N1685 N 0.69084 0.33361 0.38747
 N1686 N 0.69964 0.32482 0.40303
 C1687 C 0.70193 0.29784 0.42782
 N1688 N 0.71915 0.30538 0.43552
 N1689 N 0.72857 0.29599 0.45035
 C1690 C 0.72112 0.27871 0.45802
 N1691 N 0.70386 0.27122 0.45038
 N1692 N 0.69444 0.28061 0.43556
 C1693 C 0.69160 0.80884 0.91111
 N1694 N 0.69939 0.82578 0.90307
 N1695 N 0.69060 0.83457 0.88751
 C1696 C 0.67369 0.82679 0.87935
 N1697 N 0.66588 0.80987 0.88752
 N1698 N 0.67466 0.80107 0.90308
 C1699 C 0.70164 0.79879 0.92786
 N1700 N 0.69412 0.78156 0.93557
 N1701 N 0.70353 0.77212 0.95037
 C1702 C 0.72080 0.77958 0.95802
 N1703 N 0.72827 0.79686 0.95038
 N1704 N 0.71886 0.80629 0.93557
 C1705 C 0.19131 0.30797 0.91103
 N1706 N 0.19906 0.32494 0.90301
 N1707 N 0.19027 0.33373 0.88746
 C1708 C 0.17337 0.32592 0.87928
 N1709 N 0.16560 0.30898 0.88743
 N1710 N 0.17438 0.30018 0.90299
 C1711 C 0.20135 0.29794 0.92779
 N1712 N 0.19385 0.28070 0.93550
 N1713 N 0.20327 0.27129 0.95032
 C1714 C 0.22053 0.27878 0.95797
 N1715 N 0.22798 0.29606 0.95031
 N1716 N 0.21856 0.30547 0.93549
 C1717 C 0.19176 0.80847 0.41106
 N1718 N 0.17482 0.80069 0.40303
 N1719 N 0.16606 0.80948 0.38745
 C1720 C 0.17387 0.82639 0.37927
 N1721 N 0.19078 0.83418 0.38744
 N1722 N 0.19955 0.82540 0.40301
 C1723 C 0.20178 0.79843 0.42783
 N1724 N 0.21900 0.80595 0.43554
 N1725 N 0.22840 0.79653 0.45036
 C1726 C 0.22093 0.77926 0.45802
 N1727 N 0.20367 0.77179 0.45037
 N1728 N 0.19426 0.78120 0.43554
 C1729 C 0.69195 0.69203 0.58943
 N1730 N 0.69973 0.67510 0.59748
 N1731 N 0.69095 0.66632 0.61307
 C1732 C 0.67404 0.67410 0.62125
 N1733 N 0.66624 0.69101 0.61307
 N1734 N 0.67501 0.69980 0.59749
 C1735 C 0.70197 0.70206 0.57265
 N1736 N 0.69444 0.71927 0.56493
 N1737 N 0.70383 0.72868 0.55007
 C1738 C 0.72109 0.72122 0.54239
 N1739 N 0.72858 0.70397 0.55005
 N1740 N 0.71918 0.69456 0.56491
 C1741 C 0.69176 0.19144 0.08893
 N1742 N 0.67480 0.19917 0.09697
 N1743 N 0.66602 0.19035 0.11254
 C1744 C 0.67384 0.17346 0.12070
 N1745 N 0.69078 0.16571 0.11254
 N1746 N 0.69957 0.17452 0.09697
 C1747 C 0.70179 0.20151 0.07217
 N1748 N 0.71903 0.19405 0.06444
 N1749 N 0.72842 0.20350 0.04961
 C1750 C 0.72090 0.22075 0.04196
 N1751 N 0.70362 0.22816 0.04963
 N1752 N 0.69423 0.21871 0.06446
 C1753 C 0.19192 0.69177 0.08883
 N1754 N 0.17499 0.69956 0.09687
 N1755 N 0.16619 0.69078 0.11245
 C1756 C 0.17396 0.67387 0.12062
 N1757 N 0.19087 0.66606 0.11246
 N1758 N 0.19968 0.67482 0.09688
 C1759 C 0.20197 0.70178 0.07205
 N1760 N 0.21919 0.69426 0.06433
 N1761 N 0.22861 0.70365 0.04948
 C1762 C 0.22115 0.72091 0.04181
 N1763 N 0.20389 0.72839 0.04947
 N1764 N 0.19447 0.71900 0.06431
 C1765 C 0.19156 0.19127 0.58926
 N1766 N 0.17460 0.19900 0.59729
 N1767 N 0.16581 0.19017 0.61285
 C1768 C 0.17362 0.17327 0.62100
 N1769 N 0.19055 0.16551 0.61284
 N1770 N 0.19935 0.17433 0.59728
 C1771 C 0.20160 0.20135 0.57251
 N1772 N 0.21883 0.19388 0.56478
 N1773 N 0.22824 0.20333 0.54996
 C1774 C 0.22076 0.22060 0.54233
 N1775 N 0.20348 0.22803 0.55000
 N1776 N 0.19407 0.21857 0.56482
   
