data_POSCAR
  _audit_creation_date              2014-09-24
  _audit_creation_method            'ToBaCCo'
  _symmetry_space_group_name_H-M    'P1'
  _symmetry_Int_Tables_number       1
  _symmetry_cell_setting            triclinic
  loop_
  _symmetry_equiv_pos_as_xyz
 x,y,z
_cell_length_a 45.3276
_cell_length_b 49.8495
_cell_length_c 52.4589
_cell_angle_alpha 90.014600
_cell_angle_beta 89.955500
_cell_angle_gamma 89.829000
loop_
  _atom_site_label
  _atom_site_type_symbol
  _atom_site_fract_x
  _atom_site_fract_y
  _atom_site_fract_z
Zr1 Zr 0.25644 0.25993 0.29609
 O2 O 0.27874 0.28340 0.32363
 O3 O 0.23167 0.23395 0.31907
 O4 O 0.22672 0.28369 0.31744
 O5 O 0.31551 0.21759 0.28532
 O6 O 0.19831 0.30407 0.28718
 O7 O 0.28778 0.23701 0.31664
 O8 O 0.20420 0.21083 0.29006
 O9 O 0.21669 0.25758 0.27585
 O10 O 0.25834 0.22441 0.27498
 O11 O 0.25457 0.29487 0.27358
 O12 O 0.29471 0.26316 0.27335
 Zr13 Zr 0.25438 0.25931 0.20686
 Zr14 Zr 0.21592 0.29122 0.25201
 Zr15 Zr 0.29474 0.22825 0.25103
 Zr16 Zr 0.21964 0.22287 0.25385
 O17 O 0.34093 0.23389 0.24847
 O18 O 0.17304 0.22686 0.25380
 O19 O 0.25625 0.22408 0.22918
 O20 O 0.21642 0.25627 0.22984
 O21 O 0.25234 0.29515 0.22770
 O22 O 0.29374 0.26180 0.22748
 C23 C 0.21171 0.21682 0.31305
 C24 C 0.30947 0.22233 0.30886
 C25 C 0.20553 0.29939 0.31053
 O26 O 0.16975 0.28516 0.25125
 O27 O 0.19888 0.30594 0.21735
 O28 O 0.22523 0.28443 0.18638
 C29 C 0.20525 0.30116 0.19383
 O30 O 0.31047 0.31425 0.28190
 Zr31 Zr 0.29100 0.29660 0.24910
 O32 O 0.27900 0.28541 0.18386
 O33 O 0.21646 0.33363 0.25339
 O34 O 0.28033 0.33803 0.24822
 O35 O 0.33765 0.29399 0.24699
 O36 O 0.30365 0.31105 0.21291
 C37 C 0.29700 0.30425 0.18992
 O38 O 0.23055 0.23715 0.17932
 O39 O 0.29405 0.18586 0.25303
 O40 O 0.28238 0.23349 0.18557
 O41 O 0.30950 0.21231 0.21626
 O42 O 0.22789 0.18109 0.25694
 O43 O 0.20385 0.20281 0.22083
 C44 C 0.30254 0.21683 0.19287
 H45 H 0.26029 0.20822 0.28578
 H46 H 0.19844 0.25481 0.21923
 H47 H 0.31153 0.26215 0.21653
 H48 H 0.25412 0.31119 0.28433
 H49 H 0.16468 0.20941 0.25918
 H50 H 0.16044 0.30315 0.25207
 H51 H 0.19561 0.33966 0.25304
 H52 H 0.29822 0.34779 0.24265
 H53 H 0.20913 0.17244 0.26203
 H54 H 0.31490 0.17982 0.25329
 H55 H 0.35011 0.21582 0.24813
 H56 H 0.34510 0.31185 0.24180
 H57 H 0.18823 0.18996 0.22576
 H58 H 0.23687 0.24369 0.16231
 H59 H 0.27270 0.27671 0.34066
 H60 H 0.32216 0.33010 0.27674
 Zr61 Zr 0.75659 0.75728 0.29483
 O62 O 0.73494 0.73412 0.32299
 O63 O 0.78317 0.78251 0.31689
 O64 O 0.78694 0.73308 0.31524
 O65 O 0.69788 0.80074 0.28639
 O66 O 0.81414 0.71329 0.28381
 O67 O 0.72693 0.78075 0.31646
 O68 O 0.80911 0.80584 0.28698
 O69 O 0.79536 0.75977 0.27327
 O70 O 0.75388 0.79291 0.27384
 O71 O 0.75733 0.72242 0.27227
 O72 O 0.71729 0.75438 0.27338
 Zr73 Zr 0.75499 0.75793 0.20557
 Zr74 Zr 0.79500 0.72621 0.24951
 Zr75 Zr 0.71641 0.78934 0.25109
 Zr76 Zr 0.79154 0.79450 0.25141
 O77 O 0.67018 0.78360 0.25019
 O78 O 0.83811 0.79081 0.24930
 O79 O 0.75399 0.79322 0.22795
 O80 O 0.79373 0.76112 0.22740
 O81 O 0.75771 0.72213 0.22633
 O82 O 0.71641 0.75572 0.22743
 C83 C 0.80308 0.79939 0.31017
 C84 C 0.70534 0.79606 0.30970
 C85 C 0.80800 0.71769 0.30739
 O86 O 0.84119 0.73212 0.24793
 O87 O 0.81177 0.71252 0.21469
 O88 O 0.78438 0.73360 0.18417
 C89 C 0.80531 0.71772 0.19137
 O90 O 0.70147 0.70379 0.28250
 Zr91 Zr 0.71988 0.72094 0.24899
 O92 O 0.72975 0.73148 0.18344
 O93 O 0.79417 0.68379 0.25026
 O94 O 0.73002 0.67939 0.24824
 O95 O 0.67320 0.72371 0.24790
 O96 O 0.70618 0.70608 0.21330
 C97 C 0.71213 0.71256 0.19010
 O98 O 0.77717 0.78020 0.17706
 O99 O 0.71713 0.83174 0.25293
 O100 O 0.72627 0.78377 0.18532
 O101 O 0.70070 0.80562 0.21660
 O102 O 0.78340 0.83622 0.25530
 O103 O 0.80544 0.81479 0.21787
 C104 C 0.70691 0.80101 0.19301
 H105 H 0.75270 0.80909 0.28475
 H106 H 0.81134 0.76277 0.21634
 H107 H 0.69826 0.75538 0.21695
 H108 H 0.75819 0.70606 0.28295
 H109 H 0.84664 0.80831 0.25431
 H110 H 0.85055 0.71413 0.24833
 H111 H 0.81497 0.67766 0.24951
 H112 H 0.71179 0.66973 0.24337
 H113 H 0.80238 0.84480 0.25985
 H114 H 0.69631 0.83778 0.25380
 H115 H 0.66105 0.80169 0.25009
 H116 H 0.66552 0.70581 0.24313
 H117 H 0.82097 0.82794 0.22226
 H118 H 0.77018 0.77351 0.16030
 H119 H 0.74192 0.74057 0.33983
 H120 H 0.68925 0.68811 0.27782
 Zr121 Zr 0.75560 0.23691 -0.28885
 O122 O 0.73604 0.25890 -0.31900
 O123 O 0.78386 0.21057 -0.30857
 O124 O 0.78704 0.26008 -0.30902
 O125 O 0.69480 0.19598 -0.28091
 O126 O 0.81333 0.28029 -0.27738
 O127 O 0.72618 0.21337 -0.31060
 O128 O 0.80702 0.18792 -0.27652
 O129 O 0.79300 0.23426 -0.26562
 O130 O 0.75066 0.20232 -0.26667
 O131 O 0.75607 0.27269 -0.26751
 O132 O 0.71539 0.24206 -0.26892
 Zr133 Zr 0.74944 0.24020 -0.19962
 Zr134 Zr 0.79249 0.26885 -0.24332
 Zr135 Zr 0.71218 0.20811 -0.24548
 Zr136 Zr 0.78692 0.20064 -0.24255
 O137 O 0.66617 0.21533 -0.24636
 O138 O 0.83337 0.20246 -0.23794
 O139 O 0.74830 0.20405 -0.22070
 O140 O 0.78907 0.23499 -0.21991
 O141 O 0.75430 0.27500 -0.22159
 O142 O 0.71205 0.24264 -0.22294
 C143 C 0.80330 0.19391 -0.30014
 C144 C 0.70350 0.19936 -0.30409
 C145 C 0.80797 0.27541 -0.30101
 O146 O 0.83836 0.26140 -0.24035
 O147 O 0.80831 0.28325 -0.20855
 O148 O 0.77880 0.26449 -0.17815
 C149 C 0.80067 0.27926 -0.18529
 O150 O 0.70112 0.29256 -0.28025
 Zr151 Zr 0.71764 0.27637 -0.24558
 O152 O 0.72419 0.26834 -0.17942
 O153 O 0.79298 0.31123 -0.24528
 O154 O 0.72903 0.31759 -0.24635
 O155 O 0.67088 0.27490 -0.24577
 O156 O 0.70312 0.29348 -0.21088
 C157 C 0.70789 0.28778 -0.18727
 O158 O 0.76933 0.21861 -0.16939
 O159 O 0.71167 0.16566 -0.24592
 O160 O 0.71892 0.21586 -0.17965
 O161 O 0.69430 0.19361 -0.21114
 O162 O 0.77768 0.15910 -0.24590
 O163 O 0.79747 0.18131 -0.20760
 C164 C 0.69949 0.19885 -0.18751
 H165 H 0.74963 0.18579 -0.27710
 H166 H 0.80607 0.23325 -0.20819
 H167 H 0.69346 0.24398 -0.21310
 H168 H 0.75784 0.28859 -0.27870
 H169 H 0.84141 0.18432 -0.24148
 H170 H 0.84835 0.27905 -0.24088
 H171 H 0.81392 0.31677 -0.24412
 H172 H 0.71094 0.32802 -0.24241
 H173 H 0.79668 0.14981 -0.24911
 H174 H 0.69073 0.16021 -0.24730
 H175 H 0.65643 0.19756 -0.24594
 H176 H 0.66353 0.29316 -0.24173
 H177 H 0.81222 0.16699 -0.21072
 H178 H 0.76164 0.22628 -0.15323
 H179 H 0.74386 0.25146 -0.33521
 H180 H 0.68896 0.30863 -0.27653
 Zr181 Zr 0.25134 0.74585 -0.30143
 O182 O 0.27240 0.72459 -0.33130
 O183 O 0.22830 0.77566 -0.32159
 O184 O 0.22029 0.72554 -0.32486
 O185 O 0.31359 0.78196 -0.28644
 O186 O 0.19003 0.70500 -0.29615
 O187 O 0.28423 0.76950 -0.31948
 O188 O 0.20420 0.79829 -0.29018
 O189 O 0.21178 0.74902 -0.28090
 O190 O 0.25596 0.77857 -0.27677
 O191 O 0.24668 0.70901 -0.28217
 O192 O 0.28898 0.73729 -0.27900
 Zr193 Zr 0.24841 0.73690 -0.21204
 Zr194 Zr 0.20833 0.71327 -0.26032
 Zr195 Zr 0.29161 0.76943 -0.25335
 Zr196 Zr 0.21742 0.78073 -0.25547
 O197 O 0.33715 0.76008 -0.25126
 O198 O 0.17066 0.78012 -0.25636
 O199 O 0.25346 0.77404 -0.23105
 O200 O 0.21123 0.74534 -0.23475
 O201 O 0.24381 0.70383 -0.23639
 O202 O 0.28767 0.73387 -0.23295
 C203 C 0.21064 0.79426 -0.31384
 C204 C 0.30718 0.78153 -0.31036
 C205 C 0.19786 0.71076 -0.31906
 O206 O 0.16278 0.72271 -0.25935
 O207 O 0.18927 0.69666 -0.22765
 O208 O 0.21685 0.71137 -0.19430
 C209 C 0.19527 0.69752 -0.20368
 O210 O 0.30062 0.68579 -0.29199
 Zr211 Zr 0.28247 0.70189 -0.25787
 O212 O 0.27145 0.70726 -0.19183
 O213 O 0.20541 0.67124 -0.26544
 O214 O 0.26828 0.66151 -0.26065
 O215 O 0.32921 0.70138 -0.25590
 O216 O 0.29398 0.68295 -0.22321
 C217 C 0.28814 0.68803 -0.19964
 O218 O 0.22596 0.75704 -0.18223
 O219 O 0.29462 0.81174 -0.25140
 O220 O 0.27791 0.75915 -0.18859
 O221 O 0.30721 0.78085 -0.21737
 O222 O 0.22944 0.82178 -0.25378
 O223 O 0.20240 0.79816 -0.22081
 C224 C 0.29947 0.77496 -0.19446
 H225 H 0.25933 0.79572 -0.28580
 H226 H 0.19324 0.74697 -0.22415
 H227 H 0.30533 0.73127 -0.22213
 H228 H 0.24503 0.69389 -0.29432
 H229 H 0.16383 0.79861 -0.26011
 H230 H 0.15194 0.70566 -0.26173
 H231 H 0.18414 0.66670 -0.26563
 H232 H 0.28519 0.64989 -0.25592
 H233 H 0.21171 0.83250 -0.25819
 H234 H 0.31591 0.81619 -0.25132
 H235 H 0.34782 0.77727 -0.24922
 H236 H 0.33542 0.68273 -0.25212
 H237 H 0.18785 0.81247 -0.22460
 H238 H 0.23189 0.74819 -0.16608
 H239 H 0.26676 0.73354 -0.34748
 H240 H 0.31126 0.66891 -0.28808
 Zr241 Zr 1.25755 1.25636 0.79601
 O242 O 1.23706 1.23307 0.82471
 O243 O 1.28306 1.28298 0.81756
 O244 O 1.28885 1.23324 0.81647
 O245 O 1.19739 1.29823 0.78755
 O246 O 1.31626 1.21361 0.78508
 O247 O 1.22738 1.27926 0.81753
 O248 O 1.30778 1.30677 0.78719
 O249 O 1.29606 1.25946 0.77418
 O250 O 1.25350 1.29155 0.77451
 O251 O 1.25904 1.22118 0.77396
 O252 O 1.21808 1.25217 0.77498
 Zr253 Zr 1.25492 1.25539 0.70684
 Zr254 Zr 1.29635 1.22551 0.75085
 Zr255 Zr 1.21587 1.28673 0.75218
 Zr256 Zr 1.29091 1.29370 0.75182
 O257 O 1.16984 1.27982 0.75169
 O258 O 1.33756 1.29084 0.74996
 O259 O 1.25315 1.29103 0.72871
 O260 O 1.29381 1.25997 0.72823
 O261 O 1.25890 1.22006 0.72811
 O262 O 1.21663 1.25272 0.72903
 C263 C 1.30192 1.30071 0.81053
 C264 C 1.20531 1.29399 0.81084
 C265 C 1.31019 1.21814 0.80863
 O266 O 1.34231 1.23254 0.74860
 O267 O 1.31299 1.21141 0.71615
 O268 O 1.28427 1.23085 0.68557
 C269 C 1.30574 1.21561 0.69282
 O270 O 1.20399 1.20130 0.78503
 Zr271 Zr 1.22135 1.21839 0.75108
 O272 O 1.22963 1.22834 0.68535
 O273 O 1.29684 1.18310 0.75239
 O274 O 1.23270 1.17709 0.75074
 O275 O 1.17460 1.22007 0.75051
 O276 O 1.20746 1.20266 0.71577
 C277 C 1.21263 1.20910 0.69241
 O278 O 1.27650 1.27734 0.67776
 O279 O 1.21530 1.32915 0.75342
 O280 O 1.22577 1.28056 0.68645
 O281 O 1.19949 1.30211 0.71750
 O282 O 1.28147 1.33530 0.75453
 O283 O 1.30437 1.31354 0.71791
 C284 C 1.20598 1.29744 0.69396
 H285 H 1.25185 1.30790 0.78513
 H286 H 1.31122 1.26178 0.71696
 H287 H 1.19838 1.25184 0.71871
 H288 H 1.26051 1.20503 0.78487
 H289 H 1.34565 1.30858 0.75476
 H290 H 1.35222 1.21480 0.74926
 H291 H 1.31780 1.17747 0.75147
 H292 H 1.21468 1.16692 0.74623
 H293 H 1.30016 1.34452 0.75882
 H294 H 1.19430 1.33467 0.75437
 H295 H 1.16018 1.29767 0.75137
 H296 H 1.16735 1.20191 0.74613
 H297 H 1.31983 1.32685 0.72202
 H298 H 1.26946 1.27021 0.66118
 H299 H 1.24399 1.23999 0.84140
 H300 H 1.19215 1.18526 0.78070
 Zr301 Zr 0.74450 0.75643 0.79446
 O302 O 0.76027 0.77798 0.82643
 O303 O 0.71586 0.72883 0.81152
 O304 O 0.71041 0.77851 0.81238
 O305 O 0.80566 0.71534 0.79019
 O306 O 0.68820 0.80060 0.77947
 O307 O 0.77175 0.73246 0.81798
 O308 O 0.69545 0.70722 0.77754
 O309 O 0.70954 0.75518 0.76841
 O310 O 0.75134 0.72243 0.77182
 O311 O 0.74654 0.79282 0.77424
 O312 O 0.78670 0.76134 0.77808
 Zr313 Zr 0.76047 0.76223 0.70636
 Zr314 Zr 0.71299 0.79038 0.74697
 Zr315 Zr 0.79188 0.72810 0.75395
 Zr316 Zr 0.71756 0.72211 0.74509
 O317 O 0.83781 0.73418 0.75829
 O318 O 0.67160 0.72583 0.73838
 O319 O 0.75844 0.72549 0.72642
 O320 O 0.71863 0.75711 0.72311
 O321 O 0.75360 0.79647 0.72878
 O322 O 0.79505 0.76323 0.73272
 C323 C 0.69799 0.71179 0.80161
 C324 C 0.79495 0.71848 0.81273
 C325 C 0.69057 0.79439 0.80320
 O326 O 0.66769 0.78419 0.73925
 O327 O 0.70200 0.80661 0.71131
 O328 O 0.73493 0.78832 0.68331
 C329 C 0.71267 0.80345 0.68876
 O330 O 0.79937 0.81169 0.79219
 Zr331 Zr 0.78731 0.79639 0.75584
 O332 O 0.78990 0.78954 0.68951
 O333 O 0.71266 0.83264 0.75069
 O334 O 0.77635 0.83778 0.75598
 O335 O 0.83369 0.79400 0.76076
 O336 O 0.80701 0.81354 0.72338
 C337 C 0.80595 0.80807 0.69942
 O338 O 0.74311 0.74269 0.67382
 O339 O 0.79170 0.68565 0.75364
 O340 O 0.79162 0.73697 0.68809
 O341 O 0.81292 0.71392 0.72089
 O342 O 0.72625 0.68031 0.74658
 O343 O 0.70892 0.70440 0.70901
 C344 C 0.80984 0.71942 0.69707
 H345 H 0.75142 0.70555 0.78176
 H346 H 0.70304 0.75617 0.70994
 H347 H 0.81475 0.76419 0.72462
 H348 H 0.74358 0.80836 0.78573
 H349 H 0.66265 0.70797 0.74125
 H350 H 0.65798 0.80203 0.73974
 H351 H 0.69208 0.83859 0.74769
 H352 H 0.79496 0.84797 0.75406
 H353 H 0.70702 0.67108 0.74830
 H354 H 0.81231 0.67976 0.75665
 H355 H 0.84721 0.71620 0.75828
 H356 H 0.84181 0.81223 0.75817
 H357 H 0.69290 0.69106 0.71075
 H358 H 0.75301 0.75044 0.65864
 H359 H 0.75095 0.77007 0.84180
 H360 H 0.81177 0.82784 0.78996
 Zr361 Zr 1.24724 0.73999 0.21076
 O362 O 1.22315 0.76163 0.18290
 O363 O 1.27469 0.71579 0.18829
 O364 O 1.27503 0.76499 0.18933
 O365 O 1.19224 0.69328 0.22016
 O366 O 1.30131 0.78761 0.21944
 O367 O 1.21947 0.71475 0.18981
 O368 O 1.30303 0.69409 0.21772
 O369 O 1.28675 0.74017 0.23130
 O370 O 1.24771 0.70460 0.23206
 O371 O 1.24584 0.77527 0.23261
 O372 O 1.20815 0.74101 0.23259
 Zr373 Zr 1.24766 0.74062 0.29941
 Zr374 Zr 1.28435 0.77412 0.25457
 Zr375 Zr 1.21038 0.70636 0.25521
 Zr376 Zr 1.28604 0.70560 0.25362
 O377 O 1.16384 0.70952 0.25658
 O378 O 1.33222 0.71223 0.25432
 O379 O 1.24881 0.70498 0.27761
 O380 O 1.28622 0.73949 0.27711
 O381 O 1.24721 0.77620 0.27825
 O382 O 1.20844 0.74034 0.27840
 C383 C 1.29567 0.69973 0.19460
 C384 C 1.19930 0.69825 0.19679
 C385 C 1.29471 0.78207 0.19614
 O386 O 1.33089 0.77097 0.25570
 O387 O 1.29988 0.78980 0.28917
 O388 O 1.27477 0.76718 0.32008
 C389 C 1.29374 0.78471 0.31263
 O390 O 1.18825 0.79011 0.22299
 Zr391 Zr 1.20881 0.77494 0.25645
 O392 O 1.22121 0.76594 0.32186
 O393 O 1.28045 0.81639 0.25299
 O394 O 1.21567 0.81700 0.25614
 O395 O 1.16246 0.76978 0.25889
 O396 O 1.19532 0.78986 0.29227
 C397 C 1.20244 0.78409 0.31541
 O398 O 1.27243 0.71998 0.32749
 O399 O 1.21418 0.66406 0.25421
 O400 O 1.22147 0.71384 0.32065
 O401 O 1.19632 0.69031 0.29030
 O402 O 1.28135 0.66337 0.25087
 O403 O 1.30239 0.68700 0.28723
 C404 C 1.20287 0.69580 0.31364
 H405 H 1.24751 0.68819 0.22144
 H406 H 1.30408 0.73916 0.28796
 H407 H 1.19058 0.73997 0.28926
 H408 H 1.24515 0.79140 0.22162
 H409 H 1.34196 0.69521 0.24928
 H410 H 1.33873 0.78949 0.25477
 H411 H 1.30077 0.82365 0.25338
 H412 H 1.19685 0.82566 0.26122
 H413 H 1.30093 0.65589 0.24629
 H414 H 1.19382 0.65689 0.25372
 H415 H 1.15609 0.69096 0.25706
 H416 H 1.15373 0.78738 0.26349
 H417 H 1.31924 0.67518 0.28283
 H418 H 1.26552 0.72643 0.34438
 H419 H 1.23001 0.75542 0.16592
 H420 H 1.17497 0.80515 0.22759
 Zr421 Zr 0.74972 1.24164 0.19829
 O422 O 0.77343 1.22189 0.16893
 O423 O 0.72011 1.26512 0.17753
 O424 O 0.72224 1.21558 0.17748
 O425 O 0.80173 1.29112 0.20726
 O426 O 0.69945 1.19075 0.20824
 O427 O 0.77535 1.26872 0.17697
 O428 O 0.69188 1.28484 0.20831
 O429 O 0.71145 1.23825 0.22040
 O430 O 0.74747 1.27641 0.22053
 O431 O 0.75493 1.20603 0.21921
 O432 O 0.78972 1.24300 0.21870
 Zr433 Zr 0.75423 1.23872 0.28703
 Zr434 Zr 0.71780 1.20404 0.24291
 Zr435 Zr 0.78574 1.27678 0.24242
 Zr436 Zr 0.71042 1.27226 0.24343
 O437 O 0.83243 1.27726 0.24279
 O438 O 0.66510 1.26191 0.24445
 O439 O 0.74855 1.27471 0.26622
 O440 O 0.71451 1.23796 0.26625
 O441 O 0.75638 1.20378 0.26496
 O442 O 0.79192 1.24249 0.26432
 C443 C 0.69901 1.28054 0.18483
 C444 C 0.79474 1.28605 0.18393
 C445 C 0.70397 1.19741 0.18482
 O446 O 0.67126 1.20378 0.24622
 O447 O 0.70498 1.18677 0.27784
 O448 O 0.73097 1.20954 0.30807
 C449 C 0.71227 1.19155 0.30113
 O450 O 0.81206 1.19486 0.20660
 Zr451 Zr 0.79312 1.20847 0.24138
 O452 O 0.78585 1.21619 0.30733
 O453 O 0.72520 1.16224 0.23999
 O454 O 0.78954 1.16607 0.24162
 O455 O 0.83896 1.21683 0.24054
 O456 O 0.81158 1.19505 0.27577
 C457 C 0.80656 1.20057 0.29931
 O458 O 0.72915 1.25591 0.31701
 O459 O 0.77817 1.31868 0.24185
 O460 O 0.77803 1.26756 0.30793
 O461 O 0.79924 1.29375 0.27737
 O462 O 0.71197 1.31477 0.24280
 O463 O 0.69292 1.28831 0.27783
 C464 C 0.79401 1.28754 0.30080
 H465 H 0.74615 1.29309 0.21035
 H466 H 0.69728 1.23683 0.27780
 H467 H 0.81034 1.24438 0.27427
 H468 H 0.75619 1.19023 0.20782
 H469 H 0.65368 1.27821 0.23994
 H470 H 0.66492 1.18481 0.24497
 H471 H 0.70559 1.15358 0.24107
 H472 H 0.80937 1.15866 0.24539
 H473 H 0.69186 1.32133 0.23872
 H474 H 0.79779 1.32733 0.24083
 H475 H 0.83843 1.29635 0.24335
 H476 H 0.84961 1.19977 0.24377
 H477 H 0.67485 1.29877 0.27400
 H478 H 0.73792 1.24973 0.33332
 H479 H 0.76528 1.22823 0.15244
 H480 H 0.82610 1.18007 0.21015
 N481 N 0.53549 1.02769 0.02517
 N482 N 0.55545 1.04639 0.02997
 N483 N 0.51785 0.97256 0.04727
 N484 N 0.52395 0.95620 0.06626
 N485 N 0.53852 0.97141 0.02977
 N486 N 0.55941 0.95418 0.03656
 N487 N 0.51438 1.02854 0.04230
 N488 N 0.51920 1.04775 0.05895
 C489 C 0.54463 1.05903 0.05096
 C490 C 0.54978 0.94464 0.05935
 N491 N 0.43398 0.96656 0.03086
 N492 N 0.41686 0.94614 0.03711
 N493 N 0.45118 1.02570 0.04301
 N494 N 0.44549 1.04615 0.05822
 N495 N 0.43008 1.02280 0.02615
 N496 N 0.40937 1.04121 0.02949
 N497 N 0.45493 0.96967 0.04784
 N498 N 0.45284 0.95154 0.06593
 Mn499 Mn 0.48456 0.99918 0.04524
 C500 C 0.42912 0.93691 0.05905
 C501 C 0.41943 1.05580 0.04950
 N502 N 0.53783 0.96637 -0.02536
 N503 N 0.55897 0.94852 -0.02926
 N504 N 0.51396 1.02009 -0.04716
 N505 N 0.51838 1.03705 -0.06610
 N506 N 0.53477 1.02256 -0.02989
 N507 N 0.55381 1.04129 -0.03666
 N508 N 0.51705 0.96396 -0.04268
 N509 N 0.52355 0.94445 -0.05875
 Mn510 Mn 0.53701 0.99699 -0.00012
 C511 C 0.54962 0.93478 -0.05003
 C512 C 0.54316 1.05035 -0.05922
 N513 N 0.42966 1.01773 -0.02843
 N514 N 0.41068 1.03739 -0.03242
 N515 N 0.45318 0.96098 -0.04202
 N516 N 0.44761 0.94144 -0.05837
 N517 N 0.43293 0.96163 -0.02409
 N518 N 0.41307 0.94271 -0.02788
 N519 N 0.45013 1.01746 -0.04617
 N520 N 0.44560 1.03702 -0.06271
 Mn521 Mn 0.43134 0.99210 0.00112
 Mn522 Mn 0.48357 0.99060 -0.04479
 Cl523 Cl 0.48417 0.99469 0.00031
 C524 C 0.42082 1.04924 -0.05391
 C525 C 0.42267 0.92998 -0.04915
 N526 N 1.03768 0.52453 0.53230
 N527 N 1.05660 0.54387 0.53761
 N528 N 1.01741 0.46751 0.54782
 N529 N 1.02279 0.44947 0.56553
 N530 N 1.03882 0.46802 0.53092
 N531 N 1.05954 0.45033 0.53701
 N532 N 1.01636 0.52394 0.54929
 N533 N 1.02031 0.54284 0.56659
 C534 C 1.04541 0.55527 0.55902
 C535 C 1.04893 0.43862 0.55854
 N536 N 0.93390 0.46593 0.52854
 N537 N 0.91488 0.44626 0.53228
 N538 N 0.95247 0.52262 0.54804
 N539 N 0.94777 0.54227 0.56441
 N540 N 0.93195 0.52240 0.53040
 N541 N 0.91276 0.54200 0.53427
 N542 N 0.95398 0.46611 0.54658
 N543 N 0.94926 0.44647 0.56294
 Mn544 Mn 0.98503 0.49510 0.54817
 C545 C 0.92489 0.43411 0.55374
 C546 C 0.92294 0.55426 0.55559
 N547 N 1.04002 0.46999 0.47522
 N548 N 1.06029 0.45184 0.46917
 N549 N 1.01789 0.52720 0.46012
 N550 N 1.02269 0.54630 0.44337
 N551 N 1.03898 0.52649 0.47724
 N552 N 1.05889 0.54520 0.47238
 N553 N 1.01948 0.47099 0.45761
 N554 N 1.02495 0.45352 0.43939
 Mn555 Mn 1.03928 0.49716 0.50394
 C556 C 1.05029 0.44150 0.44680
 C557 C 1.04810 0.55762 0.45129
 N558 N 0.93314 0.52454 0.47567
 N559 N 0.91329 0.54356 0.47174
 N560 N 0.95656 0.46985 0.45638
 N561 N 0.95271 0.45282 0.43757
 N562 N 0.93509 0.46803 0.47308
 N563 N 0.91577 0.44962 0.46574
 N564 N 0.95452 0.52616 0.45889
 N565 N 0.94980 0.54629 0.44305
 Mn566 Mn 0.93314 0.49510 0.50195
 Mn567 Mn 0.98713 0.49864 0.45813
 Cl568 Cl 0.98617 0.49644 0.50308
 C569 C 0.92407 0.55709 0.45137
 C570 C 0.92743 0.44007 0.44358
 N571 N 1.04553 0.52966 0.02561
 N572 N 1.06558 0.54820 0.03076
 N573 N 1.02250 0.47529 0.04531
 N574 N 1.02699 0.45846 0.06430
 N575 N 1.04368 0.47322 0.02832
 N576 N 1.06325 0.45496 0.03547
 N577 N 1.02356 0.53138 0.04185
 N578 N 1.02774 0.55097 0.05814
 C579 C 1.05380 0.56153 0.05102
 C580 C 1.05229 0.44567 0.05787
 N581 N 0.93894 0.47598 0.02630
 N582 N 0.92048 0.45600 0.03099
 N583 N 0.96044 0.53323 0.04064
 N584 N 0.95524 0.55339 0.05636
 N585 N 0.94025 0.53235 0.02279
 N586 N 0.92074 0.55176 0.02583
 N587 N 0.95946 0.47696 0.04387
 N588 N 0.95581 0.45785 0.06080
 Mn589 Mn 0.99148 0.50426 0.04308
 C590 C 0.93150 0.44487 0.05265
 C591 C 0.93050 0.56491 0.04673
 N592 N 1.04518 0.46991 -0.02721
 N593 N 1.06470 0.45063 -0.03182
 N594 N 1.02702 0.52600 -0.04762
 N595 N 1.03366 0.54369 -0.06550
 N596 N 1.04705 0.52632 -0.02951
 N597 N 1.06765 0.54423 -0.03453
 N598 N 1.02442 0.46973 -0.04470
 N599 N 1.02900 0.45041 -0.06130
 Mn600 Mn 1.04578 0.49971 -0.00071
 C601 C 1.05397 0.43842 -0.05306
 C602 C 1.05897 0.55509 -0.05696
 N603 N 0.94180 0.52917 -0.03180
 N604 N 0.92368 0.54922 -0.03719
 N605 N 0.96085 0.47129 -0.04589
 N606 N 0.95520 0.45114 -0.06157
 N607 N 0.94020 0.47305 -0.02842
 N608 N 0.92002 0.45443 -0.03169
 N609 N 0.96312 0.52778 -0.04871
 N610 N 0.96015 0.54678 -0.06599
 Mn611 Mn 0.93997 0.50261 -0.00281
 Mn612 Mn 0.99386 0.49871 -0.04702
 Cl613 Cl 0.99285 0.50130 -0.00191
 C614 C 0.93552 0.56008 -0.05856
 C615 C 0.92966 0.44075 -0.05231
 N616 N 0.54333 1.02922 0.52844
 N617 N 0.56269 1.04763 0.53543
 N618 N 0.52462 0.97133 0.54268
 N619 N 0.53012 0.95227 0.55939
 N620 N 0.54600 0.97289 0.52581
 N621 N 0.56682 0.95499 0.53089
 N622 N 0.52191 1.02756 0.54530
 N623 N 0.52612 1.04477 0.56401
 C624 C 0.55144 1.05740 0.55757
 C625 C 0.55635 0.94204 0.55177
 N626 N 0.44115 0.96848 0.52351
 N627 N 0.42215 0.94878 0.52703
 N628 N 0.45811 1.02514 0.54401
 N629 N 0.45229 1.04424 0.56076
 N630 N 0.43783 1.02466 0.52618
 N631 N 0.41769 1.04332 0.53026
 N632 N 0.46110 0.96860 0.54163
 N633 N 0.45621 0.94891 0.55793
 Mn634 Mn 0.49144 0.99819 0.54366
 C635 C 0.43195 0.93653 0.54848
 C636 C 0.42700 1.05545 0.55186
 N637 N 0.54706 0.97574 0.47030
 N638 N 0.56681 0.95693 0.46479
 N639 N 0.52365 1.03267 0.45580
 N640 N 0.52927 1.05059 0.43807
 N641 N 0.54480 1.03218 0.47291
 N642 N 0.56557 1.04978 0.46691
 N643 N 0.52647 0.97654 0.45272
 N644 N 0.53141 0.95837 0.43504
 Mn645 Mn 0.54572 1.00250 0.49939
 C646 C 0.55651 0.94615 0.44272
 C647 C 0.55519 1.06147 0.44529
 N648 N 0.43909 1.02794 0.47173
 N649 N 0.41902 1.04689 0.46851
 N650 N 0.46352 0.97398 0.45163
 N651 N 0.46077 0.95554 0.43382
 N652 N 0.44257 0.97167 0.46872
 N653 N 0.42483 0.95158 0.46293
 N654 N 0.46027 1.03028 0.45484
 N655 N 0.45522 1.05088 0.43965
 Mn656 Mn 0.43987 0.99811 0.49753
 Mn657 Mn 0.49348 1.00345 0.45359
 Cl658 Cl 0.49271 1.00058 0.49858
 C659 C 0.42944 1.06115 0.44847
 C660 C 0.43665 0.94161 0.44114
 N661 N 1.05852 1.03374 0.52723
 N662 N 1.07745 1.05267 0.53376
 N663 N 1.03953 0.97653 0.54233
 N664 N 1.04544 0.95933 0.56057
 N665 N 1.06118 0.97740 0.52567
 N666 N 1.08257 0.96068 0.53244
 N667 N 1.03677 1.03256 0.54376
 N668 N 1.04028 1.05054 0.56187
 C669 C 1.06554 1.06316 0.55533
 C670 C 1.07208 0.94930 0.55416
 N671 N 0.95687 0.97293 0.52239
 N672 N 0.93751 0.95370 0.52648
 N673 N 0.97335 1.02997 0.54199
 N674 N 0.96751 1.04936 0.55832
 N675 N 0.95319 1.02906 0.52412
 N676 N 0.93310 1.04786 0.52768
 N677 N 0.97652 0.97365 0.54070
 N678 N 0.97110 0.95489 0.55777
 Mn679 Mn 1.00655 1.00324 0.54241
 C680 C 0.94689 0.94238 0.54849
 C681 C 0.94238 1.06043 0.54905
 N682 N 1.06274 0.97937 0.47012
 N683 N 1.08078 0.95876 0.46639
 N684 N 1.03947 1.03620 0.45475
 N685 N 1.04282 1.05655 0.43910
 N686 N 1.06030 1.03596 0.47213
 N687 N 1.07857 1.05630 0.46860
 N688 N 1.04253 0.98020 0.45221
 N689 N 1.04602 0.96031 0.43607
 Mn690 Mn 1.06121 1.00655 0.49876
 C691 C 1.06988 0.94709 0.44496
 C692 C 1.06712 1.06906 0.44796
 N693 N 0.95501 1.03125 0.47007
 N694 N 0.93495 1.05014 0.46700
 N695 N 0.97980 0.97736 0.45064
 N696 N 0.97778 0.95812 0.43354
 N697 N 0.95888 0.97515 0.46776
 N698 N 0.94187 0.95438 0.46274
 N699 N 0.97618 1.03363 0.45320
 N700 N 0.97103 1.05422 0.43801
 Mn701 Mn 0.95569 1.00198 0.49606
 Mn702 Mn 1.00955 1.00696 0.45244
 Cl703 Cl 1.00834 1.00466 0.49745
 C704 C 0.94527 1.06440 0.44701
 C705 C 0.95411 0.94387 0.44138
 N706 N 0.56231 0.52934 0.03054
 N707 N 0.58147 0.54858 0.03573
 N708 N 0.53818 0.47366 0.04578
 N709 N 0.53986 0.45335 0.06165
 N710 N 0.55971 0.47282 0.02907
 N711 N 0.57687 0.45175 0.03332
 N712 N 0.54055 0.52972 0.04703
 N713 N 0.54413 0.54905 0.06377
 C714 C 0.56962 0.56076 0.05653
 C715 C 0.56394 0.43975 0.05371
 N716 N 0.45501 0.47663 0.02672
 N717 N 0.43552 0.45729 0.03045
 N718 N 0.47755 0.53201 0.04553
 N719 N 0.47368 0.55092 0.06268
 N720 N 0.45688 0.53307 0.02806
 N721 N 0.43817 0.55281 0.03301
 N722 N 0.47553 0.47585 0.04432
 N723 N 0.47091 0.45598 0.06025
 Mn724 Mn 0.50796 0.50286 0.04585
 C725 C 0.44604 0.44445 0.05141
 C726 C 0.44923 0.56390 0.05462
 N727 N 0.56171 0.47449 -0.02618
 N728 N 0.58011 0.45455 -0.03146
 N729 N 0.54360 0.53237 -0.04191
 N730 N 0.54914 0.55197 -0.05798
 N731 N 0.56416 0.53089 -0.02436
 N732 N 0.58433 0.54960 -0.02805
 N733 N 0.54123 0.47628 -0.04377
 N734 N 0.54486 0.45769 -0.06125
 Mn735 Mn 0.56249 0.50181 0.00229
 C736 C 0.56900 0.44413 -0.05339
 C737 C 0.57448 0.56269 -0.04908
 N738 N 0.45846 0.53444 -0.02702
 N739 N 0.43782 0.55177 -0.03392
 N740 N 0.47841 0.47845 -0.04517
 N741 N 0.47474 0.45953 -0.06232
 N742 N 0.45693 0.47815 -0.02839
 N743 N 0.43783 0.45898 -0.03385
 N744 N 0.48032 0.53459 -0.04347
 N745 N 0.47521 0.55200 -0.06180
 Mn746 Mn 0.45636 0.50556 -0.00015
 Mn747 Mn 0.51091 0.50550 -0.04374
 Cl748 Cl 0.50943 0.50396 0.00104
 C749 C 0.44890 0.56291 -0.05547
 C750 C 0.44948 0.44744 -0.05505
 C751 C 0.36662 1.18060 0.16270
 C752 C 0.35438 1.16941 0.14032
 C753 C 0.32446 1.17553 0.13468
 C754 C 0.30775 1.19221 0.15103
 C755 C 0.32014 1.20214 0.17360
 C756 C 0.34973 1.19644 0.17898
 C757 C 0.31119 1.16428 0.11321
 C758 C 0.32646 1.14622 0.09778
 C759 C 0.35601 1.13893 0.10296
 C760 C 0.37052 1.15160 0.12399
 C761 C 0.40064 1.14579 0.12822
 C762 C 0.41559 1.12700 0.11365
 C763 C 0.40134 1.11322 0.09417
 C764 C 0.37153 1.11918 0.08812
 C765 C 0.35846 1.10453 0.06789
 C766 C 0.37417 1.08447 0.05493
 C767 C 0.40330 1.07830 0.06165
 C768 C 0.41684 1.09313 0.08100
 H769 H 0.38890 1.17684 0.16882
 H770 H 0.28476 1.19638 0.14684
 H771 H 0.35990 1.20404 0.19621
 H772 H 0.28844 1.16898 0.10861
 H773 H 0.31437 1.13823 0.08184
 H774 H 0.41355 1.15548 0.14274
 H775 H 0.43856 1.12290 0.11798
 H776 H 0.33598 1.10765 0.06194
 H777 H 0.36321 1.07333 0.03996
 H778 H 0.43949 1.08870 0.08621
 C779 C 0.87250 0.67678 0.67226
 C780 C 0.86254 0.66894 0.64780
 C781 C 0.83531 0.67972 0.63915
 C782 C 0.81891 0.69748 0.65460
 C783 C 0.82866 0.70403 0.67917
 C784 C 0.85573 0.69381 0.68760
 C785 C 0.82412 0.67202 0.61550
 C786 C 0.83860 0.65296 0.60067
 C787 C 0.86532 0.64102 0.60874
 C788 C 0.87811 0.65004 0.63217
 C789 C 0.90590 0.63963 0.63936
 C790 C 0.91993 0.61997 0.62508
 C791 C 0.90693 0.60974 0.60310
 C792 C 0.87962 0.62021 0.59435
 C793 C 0.86751 0.60881 0.57190
 C794 C 0.88175 0.58776 0.55916
 C795 C 0.90847 0.57737 0.56825
 C796 C 0.92108 0.58875 0.59005
 H797 H 0.89262 0.66941 0.68063
 H798 H 0.79782 0.70510 0.64800
 H799 H 0.86385 0.69864 0.70647
 H800 H 0.80349 0.68036 0.60863
 H801 H 0.82822 0.64802 0.58283
 H802 H 0.91765 0.64633 0.65598
 H803 H 0.94106 0.61237 0.63159
 H804 H 0.84677 0.61525 0.56396
 H805 H 0.87155 0.57934 0.54231
 H806 H 0.94184 0.58094 0.59720
 C807 C 0.68458 0.83423 0.13056
 C808 C 0.65812 0.84777 0.13729
 C809 C 0.64773 0.84454 0.16261
 C810 C 0.66375 0.82937 0.18041
 C811 C 0.69015 0.81653 0.17361
 C812 C 0.70018 0.81883 0.14842
 C813 C 0.62142 0.85658 0.17026
 C814 C 0.60487 0.87175 0.15336
 C815 C 0.61417 0.87590 0.12797
 C816 C 0.64159 0.86429 0.11994
 C817 C 0.65180 0.87011 0.09509
 C818 C 0.63592 0.88671 0.07870
 C819 C 0.60887 0.89771 0.08606
 C820 C 0.59728 0.89192 0.11058
 C821 C 0.56911 0.90240 0.11669
 C822 C 0.55394 0.91893 0.09977
 C823 C 0.56600 0.92567 0.07605
 C824 C 0.59337 0.91465 0.06911
 H825 H 0.69369 0.83490 0.11160
 H826 H 0.65540 0.82743 0.19970
 H827 H 0.72039 0.80897 0.14254
 H828 H 0.61346 0.85425 0.18963
 H829 H 0.58515 0.88060 0.16116
 H830 H 0.67252 0.86265 0.08789
 H831 H 0.64493 0.89095 0.05998
 H832 H 0.55788 0.89806 0.13429
 H833 H 0.53260 0.92670 0.10551
 H834 H 0.60273 0.91940 0.05063
 C835 C 1.18515 0.33132 0.63159
 C836 C 1.15743 0.34308 0.63742
 C837 C 1.14560 0.33823 0.66204
 C838 C 1.16155 0.32345 0.68018
 C839 C 1.18922 0.31248 0.67430
 C840 C 1.20062 0.31621 0.64972
 C841 C 1.11793 0.34827 0.66861
 C842 C 1.10145 0.36301 0.65132
 C843 C 1.11223 0.36882 0.62666
 C844 C 1.14103 0.35937 0.61982
 C845 C 1.15272 0.36719 0.59598
 C846 C 1.13697 0.38378 0.57948
 C847 C 1.10861 0.39264 0.58564
 C848 C 1.09551 0.38458 0.60898
 C849 C 1.06610 0.39269 0.61370
 C850 C 1.05119 0.40948 0.59685
 C851 C 1.06476 0.41879 0.57457
 C852 C 1.09335 0.40982 0.56875
 H853 H 1.19535 0.33316 0.61312
 H854 H 1.15221 0.32029 0.69899
 H855 H 1.22185 0.30776 0.64457
 H856 H 1.10884 0.34469 0.68743
 H857 H 1.08059 0.37035 0.65828
 H858 H 1.17452 0.36150 0.58980
 H859 H 1.14714 0.38973 0.56165
 H860 H 1.05376 0.38628 0.63014
 H861 H 1.02887 0.41551 0.60161
 H862 H 1.10389 0.41653 0.55133
 C863 C 0.67433 1.16654 -0.12551
 C864 C 0.64831 1.15285 -0.13301
 C865 C 0.63881 1.15617 -0.15856
 C866 C 0.65536 1.17145 -0.17586
 C867 C 0.68154 1.18414 -0.16838
 C868 C 0.69054 1.18192 -0.14293
 C869 C 0.61297 1.14399 -0.16695
 C870 C 0.59628 1.12820 -0.15069
 C871 C 0.60496 1.12357 -0.12522
 C872 C 0.63156 1.13591 -0.11626
 C873 C 0.64084 1.13033 -0.09111
 C874 C 0.62506 1.11309 -0.07538
 C875 C 0.59914 1.10096 -0.08380
 C876 C 0.58833 1.10643 -0.10864
 C877 C 0.56137 1.09427 -0.11586
 C878 C 0.54666 1.07665 -0.09959
 C879 C 0.55807 1.07049 -0.07551
 C880 C 0.58413 1.08308 -0.06757
 H881 H 0.68280 1.16580 -0.10636
 H882 H 0.64778 1.17335 -0.19539
 H883 H 0.71054 1.19166 -0.13653
 H884 H 0.60558 1.14655 -0.18645
 H885 H 0.57692 1.11936 -0.15902
 H886 H 0.66072 1.13854 -0.08310
 H887 H 0.63338 1.10909 -0.05638
 H888 H 0.55090 1.09788 -0.13395
 H889 H 0.52637 1.06751 -0.10610
 H890 H 0.59299 1.07870 -0.04883
 C891 C 1.18457 0.66153 0.37619
 C892 C 1.15587 0.65142 0.37150
 C893 C 1.14283 0.65735 0.34757
 C894 C 1.15853 0.67142 0.32889
 C895 C 1.18703 0.68079 0.33366
 C896 C 1.19974 0.67614 0.35758
 C897 C 1.11418 0.64917 0.34223
 C898 C 1.09786 0.63524 0.36014
 C899 C 1.10984 0.62833 0.38410
 C900 C 1.13964 0.63575 0.38959
 C901 C 1.15243 0.62647 0.41253
 C902 C 1.13683 0.61015 0.42930
 C903 C 1.10758 0.60321 0.42440
 C904 C 1.09335 0.61314 0.40223
 C905 C 1.06311 0.60723 0.39898
 C906 C 1.04853 0.59016 0.41567
 C907 C 1.06329 0.57856 0.43636
 C908 C 1.09259 0.58587 0.44119
 H909 H 1.19569 0.65888 0.39416
 H910 H 1.14825 0.67551 0.31062
 H911 H 1.22165 0.68353 0.36180
 H912 H 1.10418 0.65361 0.32393
 H913 H 1.07615 0.62923 0.35412
 H914 H 1.17499 0.63059 0.41760
 H915 H 1.14785 0.60282 0.44627
 H916 H 1.04998 0.61551 0.38378
 H917 H 1.02558 0.58557 0.41195
 H918 H 1.10401 0.57741 0.45748
 C919 C 0.36564 0.80555 -0.16255
 C920 C 0.35348 0.81890 -0.14117
 C921 C 0.32318 0.81441 -0.13569
 C922 C 0.30563 0.79851 -0.15206
 C923 C 0.31781 0.78724 -0.17420
 C924 C 0.34805 0.79033 -0.17875
 C925 C 0.31040 0.82657 -0.11440
 C926 C 0.32662 0.84372 -0.09886
 C927 C 0.35647 0.84979 -0.10412
 C928 C 0.37016 0.83702 -0.12556
 C929 C 0.39978 0.84350 -0.13126
 C930 C 0.41531 0.86220 -0.11704
 C931 C 0.40229 0.87510 -0.09634
 C932 C 0.37292 0.86875 -0.08914
 C933 C 0.36124 0.88204 -0.06745
 C934 C 0.37766 0.90133 -0.05427
 C935 C 0.40620 0.90818 -0.06215
 C936 C 0.41849 0.89466 -0.08303
 H937 H 0.38857 0.80677 -0.16771
 H938 H 0.28225 0.79616 -0.14834
 H939 H 0.35813 0.78137 -0.19546
 H940 H 0.28737 0.82313 -0.10991
 H941 H 0.31478 0.85247 -0.08310
 H942 H 0.41165 0.83495 -0.14707
 H943 H 0.43780 0.86681 -0.12253
 H944 H 0.33945 0.87814 -0.06020
 H945 H 0.36767 0.91129 -0.03805
 H946 H 0.44069 0.89956 -0.08914
 C947 C 0.80871 0.32138 0.36447
 C948 C 0.83342 0.33777 0.35899
 C949 C 0.84532 0.33640 0.33399
 C950 C 0.83222 0.32025 0.31525
 C951 C 0.80758 0.30445 0.32088
 C952 C 0.79620 0.30495 0.34574
 C953 C 0.87027 0.35119 0.32767
 C954 C 0.88416 0.36707 0.34567
 C955 C 0.87331 0.36923 0.37084
 C956 C 0.84688 0.35521 0.37737
 C957 C 0.83451 0.35965 0.40177
 C958 C 0.84756 0.37707 0.41920
 C959 C 0.87396 0.39009 0.41344
 C960 C 0.88762 0.38566 0.38944
 C961 C 0.91533 0.39769 0.38506
 C962 C 0.92796 0.41463 0.40301
 C963 C 0.91371 0.42033 0.42610
 C964 C 0.88682 0.40763 0.43145
 H965 H 0.79884 0.32046 0.38313
 H966 H 0.84157 0.31973 0.29621
 H967 H 0.77728 0.29279 0.35071
 H968 H 0.87931 0.35040 0.30853
 H969 H 0.90295 0.37816 0.33891
 H970 H 0.81412 0.35053 0.40772
 H971 H 0.83693 0.38024 0.43748
 H972 H 0.92818 0.39412 0.36811
 H973 H 0.94908 0.42356 0.39849
 H974 H 0.87586 0.41147 0.44946
 C975 C 1.18343 0.33347 0.13095
 C976 C 1.15689 0.34707 0.13730
 C977 C 1.14605 0.34398 0.16249
 C978 C 1.16182 0.32895 0.18058
 C979 C 1.18839 0.31616 0.17417
 C980 C 1.19877 0.31826 0.14908
 C981 C 1.11959 0.35605 0.16971
 C982 C 1.10343 0.37125 0.15253
 C983 C 1.11331 0.37542 0.12731
 C984 C 1.14078 0.36358 0.11968
 C985 C 1.15151 0.36921 0.09496
 C986 C 1.13615 0.38590 0.07834
 C987 C 1.10918 0.39727 0.08535
 C988 C 1.09701 0.39168 0.10970
 C989 C 1.06897 0.40273 0.11542
 C990 C 1.05453 0.41962 0.09830
 C991 C 1.06725 0.42610 0.07479
 C992 C 1.09442 0.41447 0.06822
 H993 H 1.19288 0.33399 0.11211
 H994 H 1.15324 0.32716 0.19981
 H995 H 1.21909 0.30841 0.14347
 H996 H 1.11124 0.35376 0.18896
 H997 H 1.08353 0.38010 0.15998
 H998 H 1.17225 0.36154 0.08803
 H999 H 1.14557 0.39000 0.05974
 H1000 H 1.05737 0.39868 0.13291
 H1001 H 1.03331 0.42791 0.10372
 H1002 H 1.10429 0.41907 0.04990
 C1003 C 0.69657 0.84126 0.62728
 C1004 C 0.66620 0.84777 0.63018
 C1005 C 0.65163 0.83785 0.65214
 C1006 C 0.66707 0.82337 0.67070
 C1007 C 0.69719 0.81783 0.66800
 C1008 C 0.71171 0.82639 0.64589
 C1009 C 0.62168 0.84262 0.65583
 C1010 C 0.60560 0.85742 0.63838
 C1011 C 0.61895 0.86851 0.61648
 C1012 C 0.64982 0.86387 0.61238
 C1013 C 0.66332 0.87614 0.59110
 C1014 C 0.64749 0.89285 0.57477
 C1015 C 0.61745 0.89764 0.57860
 C1016 C 0.60258 0.88490 0.59908
 C1017 C 0.57187 0.88946 0.60152
 C1018 C 0.55717 0.90733 0.58558
 C1019 C 0.57221 0.92107 0.56633
 C1020 C 0.60224 0.91557 0.56241
 H1021 H 0.70923 0.84731 0.61089
 H1022 H 0.65543 0.81628 0.68747
 H1023 H 0.73496 0.82211 0.64325
 H1024 H 0.61049 0.83496 0.67258
 H1025 H 0.58275 0.86043 0.64318
 H1026 H 0.68646 0.87383 0.58692
 H1027 H 0.65899 0.90234 0.55907
 H1028 H 0.55838 0.87969 0.61560
 H1029 H 0.53381 0.91068 0.58865
 H1030 H 0.61400 0.92588 0.54732
 C1031 C 1.13459 0.65363 -0.18322
 C1032 C 1.13941 0.65091 -0.15681
 C1033 C 1.16430 0.66402 -0.14623
 C1034 C 1.18275 0.68022 -0.16162
 C1035 C 1.17757 0.68283 -0.18804
 C1036 C 1.15315 0.66903 -0.19834
 C1037 C 1.17084 0.66051 -0.12043
 C1038 C 1.15378 0.64373 -0.10512
 C1039 C 1.12876 0.63029 -0.11484
 C1040 C 1.12077 0.63495 -0.14083
 C1041 C 1.09423 0.62370 -0.15000
 C1042 C 1.07698 0.60718 -0.13489
 C1043 C 1.08540 0.60094 -0.11008
 C1044 C 1.11133 0.61240 -0.09954
 C1045 C 1.11894 0.60491 -0.07433
 C1046 C 1.10172 0.58670 -0.06053
 C1047 C 1.07626 0.57543 -0.07119
 C1048 C 1.06807 0.58297 -0.09588
 H1049 H 1.11711 0.64344 -0.19313
 H1050 H 1.20152 0.69018 -0.15301
 H1051 H 1.14796 0.66993 -0.21849
 H1052 H 1.18974 0.67045 -0.11205
 H1053 H 1.16055 0.64203 -0.08551
 H1054 H 1.08574 0.62766 -0.16879
 H1055 H 1.05693 0.59889 -0.14290
 H1056 H 1.13844 0.61223 -0.06493
 H1057 H 1.10861 0.58120 -0.04146
 H1058 H 1.04846 0.57434 -0.10437
 C1059 C 0.69490 1.15753 0.36423
 C1060 C 0.66621 1.14719 0.35988
 C1061 C 0.65329 1.15209 0.33570
 C1062 C 0.66888 1.16576 0.31664
 C1063 C 0.69716 1.17586 0.32123
 C1064 C 0.70993 1.17182 0.34525
 C1065 C 0.62472 1.14350 0.33054
 C1066 C 0.60822 1.13054 0.34900
 C1067 C 0.61989 1.12508 0.37341
 C1068 C 0.64975 1.13252 0.37863
 C1069 C 0.66224 1.12443 0.40210
 C1070 C 0.64619 1.10949 0.41975
 C1071 C 0.61675 1.10285 0.41523
 C1072 C 0.60293 1.11146 0.39238
 C1073 C 0.57253 1.10609 0.38942
 C1074 C 0.55726 1.09088 0.40726
 C1075 C 0.57145 1.08055 0.42885
 C1076 C 0.60108 1.08726 0.43317
 H1077 H 0.70602 1.15547 0.38227
 H1078 H 0.65851 1.16925 0.29830
 H1079 H 0.73168 1.17966 0.34935
 H1080 H 0.61485 1.14702 0.31201
 H1081 H 0.58657 1.12419 0.34316
 H1082 H 0.68486 1.12855 0.40701
 H1083 H 0.65696 1.10313 0.43718
 H1084 H 0.55976 1.11351 0.37360
 H1085 H 0.53417 1.08674 0.40377
 H1086 H 0.61214 1.07981 0.45007
 C1087 C 0.87191 0.68499 0.16197
 C1088 C 0.86110 0.67482 0.13863
 C1089 C 0.83143 0.68086 0.13202
 C1090 C 0.81342 0.69611 0.14853
 C1091 C 0.82431 0.70474 0.17210
 C1092 C 0.85377 0.69947 0.17833
 C1093 C 0.81963 0.67091 0.10939
 C1094 C 0.83608 0.65404 0.09372
 C1095 C 0.86530 0.64656 0.09998
 C1096 C 0.87838 0.65800 0.12228
 C1097 C 0.90812 0.65177 0.12782
 C1098 C 0.92392 0.63351 0.11329
 C1099 C 0.91095 0.62085 0.09252
 C1100 C 0.88174 0.62758 0.08507
 C1101 C 0.87003 0.61431 0.06346
 C1102 C 0.88624 0.59460 0.05064
 C1103 C 0.91455 0.58741 0.05886
 C1104 C 0.92700 0.60103 0.07947
 H1105 H 0.89398 0.68147 0.16873
 H1106 H 0.79059 0.70010 0.14362
 H1107 H 0.86284 0.70628 0.19631
 H1108 H 0.79711 0.67566 0.10404
 H1109 H 0.82503 0.64696 0.07687
 H1110 H 0.92002 0.66050 0.14348
 H1111 H 0.94645 0.62889 0.11870
 H1112 H 0.84820 0.61819 0.05624
 H1113 H 0.87619 0.58446 0.03459
 H1114 H 0.94907 0.59580 0.08576
 C1115 C 0.37155 1.18175 0.66334
 C1116 C 0.35964 1.16909 0.64154
 C1117 C 0.32974 1.17467 0.63533
 C1118 C 0.31234 1.19120 0.65121
 C1119 C 0.32420 1.20190 0.67363
 C1120 C 0.35404 1.19757 0.67909
 C1121 C 0.31711 1.16302 0.61381
 C1122 C 0.33307 1.14518 0.59875
 C1123 C 0.36248 1.13804 0.60473
 C1124 C 0.37612 1.15055 0.62625
 C1125 C 0.40551 1.14345 0.63230
 C1126 C 0.42073 1.12417 0.61851
 C1127 C 0.40757 1.11128 0.59796
 C1128 C 0.37851 1.11833 0.59033
 C1129 C 0.36665 1.10490 0.56887
 C1130 C 0.38263 1.08491 0.55625
 C1131 C 0.41086 1.07752 0.56453
 C1132 C 0.42334 1.09105 0.58519
 H1133 H 0.39415 1.17949 0.66923
 H1134 H 0.28924 1.19457 0.64684
 H1135 H 0.36387 1.20614 0.69606
 H1136 H 0.29439 1.16735 0.60880
 H1137 H 0.32137 1.13689 0.58276
 H1138 H 0.41748 1.15204 0.64798
 H1139 H 0.44304 1.11908 0.62422
 H1140 H 0.34503 1.10916 0.56138
 H1141 H 0.37258 1.07488 0.54014
 H1142 H 0.44535 1.08568 0.59152
 C1143 C 0.86825 0.30950 -0.15600
 C1144 C 0.85676 0.32490 -0.13565
 C1145 C 0.82637 0.32180 -0.12963
 C1146 C 0.80805 0.30543 -0.14477
 C1147 C 0.81960 0.29230 -0.16615
 C1148 C 0.84991 0.29380 -0.17103
 C1149 C 0.81427 0.33580 -0.10913
 C1150 C 0.83130 0.35349 -0.09493
 C1151 C 0.86124 0.35831 -0.10095
 C1152 C 0.87418 0.34373 -0.12164
 C1153 C 0.90376 0.34927 -0.12836
 C1154 C 0.91998 0.36875 -0.11580
 C1155 C 0.90770 0.38329 -0.09577
 C1156 C 0.87844 0.37787 -0.08757
 C1157 C 0.86754 0.39265 -0.06652
 C1158 C 0.88451 0.41254 -0.05500
 C1159 C 0.91286 0.41852 -0.06394
 C1160 C 0.92451 0.40354 -0.08412
 H1161 H 0.89122 0.30937 -0.16119
 H1162 H 0.78461 0.30415 -0.14080
 H1163 H 0.85944 0.28319 -0.18710
 H1164 H 0.79117 0.33340 -0.10425
 H1165 H 0.81992 0.36374 -0.07976
 H1166 H 0.91499 0.33948 -0.14388
 H1167 H 0.94237 0.37265 -0.12204
 H1168 H 0.84602 0.38942 -0.05842
 H1169 H 0.87508 0.42360 -0.03918
 H1170 H 0.94661 0.40778 -0.09091
 C1171 C 0.31365 0.81940 0.37459
 C1172 C 0.34007 0.83294 0.36801
 C1173 C 0.35167 0.82854 0.34325
 C1174 C 0.33657 0.81259 0.32564
 C1175 C 0.30993 0.80021 0.33211
 C1176 C 0.29896 0.80325 0.35689
 C1177 C 0.37811 0.84034 0.33590
 C1178 C 0.39337 0.85687 0.35243
 C1179 C 0.38249 0.86269 0.37705
 C1180 C 0.35522 0.85080 0.38490
 C1181 C 0.34359 0.85786 0.40898
 C1182 C 0.35770 0.87628 0.42463
 C1183 C 0.38425 0.88801 0.41724
 C1184 C 0.39749 0.88081 0.39369
 C1185 C 0.42510 0.89238 0.38764
 C1186 C 0.43788 0.91151 0.40345
 C1187 C 0.42388 0.91963 0.42594
 C1188 C 0.39740 0.90734 0.43308
 H1189 H 0.30377 0.82077 0.39322
 H1190 H 0.34567 0.80987 0.30667
 H1191 H 0.27865 0.79352 0.36251
 H1192 H 0.38707 0.83692 0.31699
 H1193 H 0.41328 0.86546 0.34486
 H1194 H 0.32300 0.85010 0.41605
 H1195 H 0.34756 0.88156 0.44268
 H1196 H 0.43754 0.88720 0.37086
 H1197 H 0.45872 0.92026 0.39777
 H1198 H 0.38666 0.91323 0.45071
 C1199 C 1.19640 1.18148 0.37549
 C1200 C 1.16703 1.17245 0.37205
 C1201 C 1.15224 1.18035 0.34942
 C1202 C 1.16695 1.19496 0.33053
 C1203 C 1.19628 1.20274 0.33381
 C1204 C 1.21067 1.19650 0.35666
 C1205 C 1.12294 1.17330 0.34545
 C1206 C 1.10787 1.15806 0.36320
 C1207 C 1.12177 1.14866 0.38558
 C1208 C 1.15196 1.15564 0.38996
 C1209 C 1.16636 1.14463 0.41145
 C1210 C 1.15213 1.12672 0.42761
 C1211 C 1.12279 1.11961 0.42347
 C1212 C 1.10685 1.13136 0.40303
 C1213 C 1.07667 1.12476 0.40053
 C1214 C 1.06384 1.10540 0.41599
 C1215 C 1.08030 1.09224 0.43477
 C1216 C 1.10948 1.10016 0.43917
 H1217 H 1.20893 1.17738 0.39249
 H1218 H 1.15549 1.20031 0.31310
 H1219 H 1.23330 1.20264 0.35970
 H1220 H 1.11154 1.17943 0.32823
 H1221 H 1.08554 1.15307 0.35816
 H1222 H 1.18915 1.14860 0.41577
 H1223 H 1.16438 1.11806 0.44333
 H1224 H 1.06231 1.13398 0.38673
 H1225 H 1.04093 1.10027 0.41277
 H1226 H 1.12220 1.09039 0.45401
 C1227 C 0.63514 0.66970 -0.17370
 C1228 C 0.64343 0.66481 -0.14809
 C1229 C 0.67051 0.67568 -0.13945
 C1230 C 0.68780 0.69159 -0.15568
 C1231 C 0.67920 0.69611 -0.18097
 C1232 C 0.65284 0.68496 -0.18980
 C1233 C 0.68047 0.67020 -0.11485
 C1234 C 0.66473 0.65325 -0.09886
 C1235 C 0.63782 0.64167 -0.10666
 C1236 C 0.62626 0.64877 -0.13115
 C1237 C 0.59787 0.63970 -0.13789
 C1238 C 0.58213 0.62270 -0.12211
 C1239 C 0.59412 0.61380 -0.09919
 C1240 C 0.62201 0.62319 -0.09091
 C1241 C 0.63322 0.61291 -0.06762
 C1242 C 0.61755 0.59375 -0.05364
 C1243 C 0.59027 0.58443 -0.06231
 C1244 C 0.57846 0.59500 -0.08480
 H1245 H 0.61562 0.66131 -0.18220
 H1246 H 0.70847 0.69979 -0.14882
 H1247 H 0.64579 0.68805 -0.20931
 H1248 H 0.70105 0.67862 -0.10806
 H1249 H 0.67407 0.64990 -0.08025
 H1250 H 0.58690 0.64570 -0.15518
 H1251 H 0.56053 0.61598 -0.12823
 H1252 H 0.65442 0.61853 -0.06010
 H1253 H 0.62712 0.58581 -0.03629
 H1254 H 0.55729 0.58795 -0.09165
 C1255 C 0.87099 1.15980 0.67382
 C1256 C 0.86408 1.15623 0.64780
 C1257 C 0.83611 1.16523 0.63909
 C1258 C 0.81644 1.17812 0.65586
 C1259 C 0.82371 1.18118 0.68163
 C1260 C 0.85110 1.17195 0.69034
 C1261 C 0.82771 1.16074 0.61389
 C1262 C 0.84574 1.14615 0.59750
 C1263 C 0.87339 1.13613 0.60556
 C1264 C 0.88347 1.14288 0.63054
 C1265 C 0.91254 1.13587 0.63756
 C1266 C 0.93013 1.12034 0.62180
 C1267 C 0.91942 1.11109 0.59857
 C1268 C 0.89117 1.11922 0.58976
 C1269 C 0.88143 1.10895 0.56605
 C1270 C 0.89855 1.09058 0.55242
 C1271 C 0.92587 1.08203 0.56184
 C1272 C 0.93657 1.09300 0.58450
 H1273 H 0.89113 1.15259 0.68232
 H1274 H 0.79515 1.18501 0.64904
 H1275 H 0.85736 1.17416 0.71015
 H1276 H 0.80655 1.16786 0.60698
 H1277 H 0.83744 1.14321 0.57847
 H1278 H 0.92251 1.14224 0.65518
 H1279 H 0.95206 1.11484 0.62825
 H1280 H 0.86022 1.11380 0.55801
 H1281 H 0.88992 1.08243 0.53480
 H1282 H 0.95785 1.08661 0.59179
 C1283 C 0.31522 0.66922 0.13075
 C1284 C 0.34419 0.65944 0.13501
 C1285 C 0.35730 0.66487 0.15901
 C1286 C 0.34134 0.67798 0.17821
 C1287 C 0.31242 0.68666 0.17393
 C1288 C 0.29973 0.68269 0.14991
 C1289 C 0.38618 0.65695 0.16394
 C1290 C 0.40247 0.64334 0.14572
 C1291 C 0.39023 0.63653 0.12184
 C1292 C 0.36045 0.64430 0.11652
 C1293 C 0.34759 0.63575 0.09338
 C1294 C 0.36295 0.61952 0.07636
 C1295 C 0.39194 0.61176 0.08132
 C1296 C 0.40639 0.62105 0.10362
 C1297 C 0.43635 0.61393 0.10702
 C1298 C 0.45030 0.59631 0.09035
 C1299 C 0.43519 0.58549 0.06953
 C1300 C 0.40635 0.59406 0.06450
 H1301 H 0.30396 0.66700 0.11281
 H1302 H 0.35158 0.68157 0.19658
 H1303 H 0.27751 0.68959 0.14604
 H1304 H 0.39631 0.66116 0.18223
 H1305 H 0.42435 0.63750 0.15147
 H1306 H 0.32514 0.64035 0.08825
 H1307 H 0.35185 0.61271 0.05926
 H1308 H 0.44967 0.62144 0.12241
 H1309 H 0.47297 0.59065 0.09420
 H1310 H 0.39471 0.58614 0.04811
 C1311 C 1.19172 0.82591 0.62466
 C1312 C 1.17159 0.84613 0.63235
 C1313 C 1.16482 0.84796 0.65867
 C1314 C 1.17817 0.83084 0.67636
 C1315 C 1.19817 0.81076 0.66866
 C1316 C 1.20463 0.80855 0.64246
 C1317 C 1.14463 0.86691 0.66746
 C1318 C 1.12997 0.88353 0.65061
 C1319 C 1.13521 0.88210 0.62413
 C1320 C 1.15751 0.86422 0.61494
 C1321 C 1.16516 0.86541 0.58883
 C1322 C 1.15099 0.88303 0.57221
 C1323 C 1.12786 0.89933 0.58067
 C1324 C 1.11919 0.89846 0.60666
 C1325 C 1.09420 0.91349 0.61409
 C1326 C 1.07931 0.92956 0.59678
 C1327 C 1.08867 0.93146 0.57142
 C1328 C 1.11302 0.91628 0.56334
 H1329 H 1.19746 0.82261 0.60497
 H1330 H 1.17243 0.83317 0.69633
 H1331 H 1.21978 0.79337 0.63546
 H1332 H 1.13982 0.86873 0.68764
 H1333 H 1.11518 0.89793 0.65911
 H1334 H 1.18264 0.85340 0.58078
 H1335 H 1.15783 0.88352 0.55241
 H1336 H 1.08492 0.91267 0.63299
 H1337 H 1.06031 0.94075 0.60349
 H1338 H 1.11998 0.91724 0.54359
 C1339 C 0.68212 0.31521 0.12254
 C1340 C 0.65471 0.32777 0.12758
 C1341 C 0.64083 0.32213 0.15124
 C1342 C 0.65503 0.30631 0.16966
 C1343 C 0.68284 0.29524 0.16479
 C1344 C 0.69585 0.29925 0.14086
 C1345 C 0.61310 0.33273 0.15667
 C1346 C 0.59889 0.34929 0.13937
 C1347 C 0.61226 0.35653 0.11603
 C1348 C 0.64085 0.34597 0.11021
 C1349 C 0.65518 0.35493 0.08785
 C1350 C 0.64242 0.37408 0.07207
 C1351 C 0.61457 0.38452 0.07748
 C1352 C 0.59859 0.37507 0.09894
 C1353 C 0.56970 0.38503 0.10268
 C1354 C 0.55839 0.40522 0.08724
 C1355 C 0.57520 0.41601 0.06736
 C1356 C 0.60289 0.40495 0.06194
 H1357 H 0.69358 0.31725 0.10466
 H1358 H 0.64451 0.30284 0.18794
 H1359 H 0.71720 0.29060 0.13643
 H1360 H 0.60233 0.32837 0.17466
 H1361 H 0.57785 0.35705 0.14547
 H1362 H 0.67699 0.34840 0.08250
 H1363 H 0.65467 0.38102 0.05560
 H1364 H 0.55520 0.37775 0.11740
 H1365 H 0.53646 0.41281 0.09132
 H1366 H 0.61576 0.41283 0.04622
 C1367 C 0.82505 0.82981 0.37329
 C1368 C 0.85359 0.83993 0.36789
 C1369 C 0.86560 0.83463 0.34343
 C1370 C 0.84905 0.82117 0.32496
 C1371 C 0.82049 0.81235 0.33031
 C1372 C 0.80887 0.81618 0.35475
 C1373 C 0.89389 0.84315 0.33721
 C1374 C 0.91036 0.85791 0.35436
 C1375 C 0.89894 0.86513 0.37846
 C1376 C 0.87027 0.85565 0.38553
 C1377 C 0.85883 0.86304 0.40959
 C1378 C 0.87404 0.88028 0.42559
 C1379 C 0.90136 0.89058 0.41849
 C1380 C 0.91473 0.88248 0.39526
 C1381 C 0.94296 0.89294 0.38944
 C1382 C 0.95607 0.91210 0.40500
 C1383 C 0.94179 0.92122 0.42698
 C1384 C 0.91496 0.90970 0.43415
 H1385 H 0.81441 0.83220 0.39150
 H1386 H 0.85846 0.81765 0.30623
 H1387 H 0.78689 0.80920 0.35937
 H1388 H 0.90327 0.83874 0.31865
 H1389 H 0.93177 0.86397 0.34769
 H1390 H 0.83764 0.85650 0.41641
 H1391 H 0.86395 0.88609 0.44352
 H1392 H 0.95539 0.88725 0.37280
 H1393 H 0.97721 0.92030 0.39939
 H1394 H 0.90403 0.91638 0.45143
 C1395 C 0.32019 0.33465 -0.12699
 C1396 C 0.34823 0.34595 -0.13213
 C1397 C 0.36125 0.34037 -0.15616
 C1398 C 0.34601 0.32559 -0.17458
 C1399 C 0.31795 0.31538 -0.16948
 C1400 C 0.30542 0.31953 -0.14540
 C1401 C 0.38932 0.34979 -0.16194
 C1402 C 0.40492 0.36495 -0.14448
 C1403 C 0.39275 0.37181 -0.12056
 C1404 C 0.36368 0.36268 -0.11446
 C1405 C 0.35067 0.37142 -0.09141
 C1406 C 0.36526 0.38891 -0.07513
 C1407 C 0.39367 0.39779 -0.08073
 C1408 C 0.40823 0.38856 -0.10304
 C1409 C 0.43768 0.39679 -0.10706
 C1410 C 0.45103 0.41517 -0.09088
 C1411 C 0.43579 0.42575 -0.06996
 C1412 C 0.40742 0.41638 -0.06446
 H1413 H 0.30915 0.33692 -0.10893
 H1414 H 0.35613 0.32190 -0.19301
 H1415 H 0.28383 0.31152 -0.14095
 H1416 H 0.39934 0.34552 -0.18028
 H1417 H 0.42615 0.37186 -0.15085
 H1418 H 0.32865 0.36591 -0.08581
 H1419 H 0.35406 0.39572 -0.05803
 H1420 H 0.45113 0.38946 -0.12250
 H1421 H 0.47336 0.42146 -0.09512
 H1422 H 0.39572 0.42409 -0.04796
 C1423 C 1.18682 0.32841 -0.12665
 C1424 C 1.15799 0.33844 -0.13109
 C1425 C 1.14434 0.33156 -0.15453
 C1426 C 1.15967 0.31679 -0.17313
 C1427 C 1.18854 0.30788 -0.16877
 C1428 C 1.20170 0.31335 -0.14517
 C1429 C 1.11555 0.33978 -0.15955
 C1430 C 1.09987 0.35491 -0.14196
 C1431 C 1.11261 0.36301 -0.11863
 C1432 C 1.14237 0.35514 -0.11331
 C1433 C 1.15578 0.36506 -0.09090
 C1434 C 1.14090 0.38242 -0.07451
 C1435 C 1.11180 0.39007 -0.07931
 C1436 C 1.09693 0.37969 -0.10097
 C1437 C 1.06694 0.38672 -0.10422
 C1438 C 1.05319 0.40491 -0.08796
 C1439 C 1.06850 0.41664 -0.06765
 C1440 C 1.09762 0.40851 -0.06290
 H1441 H 1.19848 0.33174 -0.10905
 H1442 H 1.14907 0.31229 -0.19116
 H1443 H 1.22394 0.30655 -0.14119
 H1444 H 1.10500 0.33456 -0.17742
 H1445 H 1.07802 0.36079 -0.14777
 H1446 H 1.17829 0.36053 -0.08589
 H1447 H 1.15241 0.39009 -0.05794
 H1448 H 1.05335 0.37856 -0.11914
 H1449 H 1.03039 0.41019 -0.09168
 H1450 H 1.10952 0.41713 -0.04698
 C1451 C 0.68624 0.83069 0.37204
 C1452 C 0.65822 0.84210 0.36676
 C1453 C 0.64518 0.83594 0.34290
 C1454 C 0.66034 0.82041 0.32478
 C1455 C 0.68853 0.81022 0.32991
 C1456 C 0.70103 0.81500 0.35391
 C1457 C 0.61724 0.84568 0.33689
 C1458 C 0.60186 0.86178 0.35386
 C1459 C 0.61402 0.86926 0.37760
 C1460 C 0.64284 0.85958 0.38406
 C1461 C 0.65562 0.86841 0.40714
 C1462 C 0.64106 0.88640 0.42314
 C1463 C 0.61293 0.89592 0.41717
 C1464 C 0.59868 0.88688 0.39467
 C1465 C 0.56964 0.89609 0.39005
 C1466 C 0.55622 0.91468 0.40611
 C1467 C 0.57090 0.92472 0.42754
 C1468 C 0.59907 0.91479 0.43335
 H1469 H 0.69741 0.83352 0.38995
 H1470 H 0.65021 0.81649 0.30643
 H1471 H 0.72275 0.80725 0.35846
 H1472 H 0.60717 0.84097 0.31869
 H1473 H 0.58070 0.86874 0.34727
 H1474 H 0.67738 0.86239 0.41310
 H1475 H 0.65207 0.89306 0.44034
 H1476 H 0.55649 0.88937 0.37423
 H1477 H 0.53415 0.92146 0.40143
 H1478 H 0.61046 0.92213 0.45012
 C1479 C 0.80956 0.67977 -0.12629
 C1480 C 0.83914 0.67105 -0.12981
 C1481 C 0.85430 0.68059 -0.15164
 C1482 C 0.84001 0.69693 -0.16951
 C1483 C 0.81038 0.70423 -0.16641
 C1484 C 0.79550 0.69611 -0.14434
 C1485 C 0.88353 0.67330 -0.15601
 C1486 C 0.89791 0.65565 -0.13987
 C1487 C 0.88349 0.64426 -0.11862
 C1488 C 0.85394 0.65272 -0.11300
 C1489 C 0.84005 0.64212 -0.09111
 C1490 C 0.85398 0.62313 -0.07584
 C1491 C 0.88218 0.61375 -0.08176
 C1492 C 0.89750 0.62433 -0.10309
 C1493 C 0.92593 0.61387 -0.10843
 C1494 C 0.93815 0.59350 -0.09363
 C1495 C 0.92275 0.58283 -0.07290
 C1496 C 0.89494 0.59337 -0.06676
 H1497 H 0.79640 0.67386 -0.11016
 H1498 H 0.85191 0.70350 -0.18633
 H1499 H 0.77258 0.70155 -0.14146
 H1500 H 0.89534 0.68100 -0.17243
 H1501 H 0.92043 0.65121 -0.14483
 H1502 H 0.81815 0.64790 -0.08531
 H1503 H 0.84225 0.61531 -0.05944
 H1504 H 0.93922 0.62045 -0.12422
 H1505 H 0.95976 0.58582 -0.09871
 H1506 H 0.88284 0.58521 -0.05071
 C1507 C 0.37557 1.18761 0.33729
 C1508 C 0.36427 1.17666 0.36018
 C1509 C 0.33480 1.18330 0.36698
 C1510 C 0.31746 1.19976 0.35107
 C1511 C 0.32868 1.20909 0.32783
 C1512 C 0.35798 1.20328 0.32142
 C1513 C 0.32244 1.17264 0.38910
 C1514 C 0.33806 1.15448 0.40404
 C1515 C 0.36700 1.14635 0.39756
 C1516 C 0.38074 1.15850 0.37587
 C1517 C 0.41031 1.15166 0.37026
 C1518 C 0.42533 1.13237 0.38418
 C1519 C 0.41169 1.11910 0.40432
 C1520 C 0.38254 1.12613 0.41170
 C1521 C 0.36999 1.11198 0.43247
 C1522 C 0.38547 1.09138 0.44471
 C1523 C 0.41387 1.08414 0.43673
 C1524 C 0.42701 1.09843 0.41681
 H1525 H 0.39755 1.18369 0.33046
 H1526 H 0.29469 1.20400 0.35606
 H1527 H 0.36722 1.21043 0.30362
 H1528 H 0.30007 1.17785 0.39459
 H1529 H 0.32663 1.14700 0.42056
 H1530 H 0.42265 1.16079 0.35505
 H1531 H 0.44781 1.12744 0.37880
 H1532 H 0.34805 1.11588 0.43944
 H1533 H 0.37486 1.08070 0.46016
 H1534 H 0.44911 1.09313 0.41063
 C1535 C 1.18533 0.66291 0.13431
 C1536 C 1.15596 0.65384 0.13705
 C1537 C 1.14064 0.66093 0.15972
 C1538 C 1.15492 0.67504 0.17930
 C1539 C 1.18412 0.68339 0.17637
 C1540 C 1.19900 0.67755 0.15361
 C1541 C 1.11116 0.65390 0.16279
 C1542 C 1.09629 0.64017 0.14377
 C1543 C 1.11065 0.63218 0.12107
 C1544 C 1.14126 0.63817 0.11809
 C1545 C 1.15633 0.62747 0.09675
 C1546 C 1.14205 0.61126 0.07908
 C1547 C 1.11200 0.60586 0.08138
 C1548 C 1.09567 0.61723 0.10183
 C1549 C 1.06490 0.61299 0.10231
 C1550 C 1.05155 0.59600 0.08483
 C1551 C 1.06817 0.58280 0.06609
 C1552 C 1.09826 0.58857 0.06379
 H1553 H 1.19816 0.65950 0.11732
 H1554 H 1.14312 0.67995 0.19669
 H1555 H 1.22157 0.68401 0.15083
 H1556 H 1.09936 0.65917 0.18007
 H1557 H 1.07372 0.63510 0.14796
 H1558 H 1.17962 0.63029 0.09374
 H1559 H 1.15471 0.60279 0.06349
 H1560 H 1.05048 0.62252 0.11593
 H1561 H 1.02801 0.59265 0.08648
 H1562 H 1.11116 0.57886 0.04900
 C1563 C 0.68347 1.16659 0.63279
 C1564 C 0.65542 1.15527 0.63799
 C1565 C 0.64295 1.16036 0.66232
 C1566 C 0.65849 1.17508 0.68076
 C1567 C 0.68659 1.18542 0.67559
 C1568 C 0.69867 1.18139 0.65127
 C1569 C 0.61512 1.15047 0.66840
 C1570 C 0.59930 1.13529 0.65103
 C1571 C 0.61084 1.12899 0.62672
 C1572 C 0.63947 1.13897 0.62013
 C1573 C 0.65142 1.13175 0.59619
 C1574 C 0.63625 1.11511 0.57945
 C1575 C 0.60838 1.10521 0.58558
 C1576 C 0.59498 1.11245 0.60907
 C1577 C 0.56628 1.10255 0.61398
 C1578 C 0.55227 1.08532 0.59693
 C1579 C 0.56606 1.07735 0.57427
 C1580 C 0.59398 1.08778 0.56847
 H1581 H 0.69438 1.16438 0.61466
 H1582 H 0.64863 1.17832 0.69936
 H1583 H 0.72028 1.18922 0.64663
 H1584 H 0.60546 1.15438 0.68695
 H1585 H 0.57821 1.12826 0.65762
 H1586 H 0.67289 1.13819 0.58996
 H1587 H 0.64660 1.10978 0.56150
 H1588 H 0.55389 1.10763 0.63081
 H1589 H 0.53053 1.07793 0.60177
 H1590 H 0.60475 1.08195 0.55085
 C1591 C 0.80944 0.32344 0.12238
 C1592 C 0.83717 0.33548 0.12722
 C1593 C 0.85139 0.32902 0.15052
 C1594 C 0.83756 0.31266 0.16861
 C1595 C 0.80971 0.30179 0.16392
 C1596 C 0.79605 0.30681 0.14045
 C1597 C 0.87921 0.33921 0.15596
 C1598 C 0.89337 0.35600 0.13893
 C1599 C 0.87998 0.36375 0.11576
 C1600 C 0.85117 0.35380 0.11000
 C1601 C 0.83696 0.36328 0.08776
 C1602 C 0.85015 0.38221 0.07198
 C1603 C 0.87832 0.39193 0.07726
 C1604 C 0.89403 0.38208 0.09872
 C1605 C 0.92317 0.39126 0.10244
 C1606 C 0.93514 0.41094 0.08687
 C1607 C 0.91886 0.42201 0.06678
 C1608 C 0.89073 0.41186 0.06151
 H1609 H 0.79754 0.32638 0.10483
 H1610 H 0.84856 0.30843 0.18654
 H1611 H 0.77459 0.29840 0.13629
 H1612 H 0.89014 0.33430 0.17375
 H1613 H 0.91449 0.36337 0.14509
 H1614 H 0.81504 0.35716 0.08246
 H1615 H 0.83806 0.38946 0.05554
 H1616 H 0.93746 0.38367 0.11716
 H1617 H 0.95732 0.41778 0.09090
 H1618 H 0.87820 0.41998 0.04568
 C1619 C 0.36948 0.82295 0.66826
 C1620 C 0.36237 0.82840 0.64260
 C1621 C 0.33637 0.81664 0.63259
 C1622 C 0.31863 0.79973 0.64784
 C1623 C 0.32543 0.79531 0.67376
 C1624 C 0.35142 0.80703 0.68340
 C1625 C 0.32778 0.82248 0.60764
 C1626 C 0.34363 0.84060 0.59280
 C1627 C 0.36935 0.85321 0.60211
 C1628 C 0.37962 0.84595 0.62696
 C1629 C 0.40675 0.85658 0.63545
 C1630 C 0.42234 0.87504 0.62103
 C1631 C 0.41161 0.88384 0.59762
 C1632 C 0.38514 0.87295 0.58758
 C1633 C 0.37528 0.88293 0.56375
 C1634 C 0.39077 0.90310 0.55091
 C1635 C 0.41662 0.91396 0.56122
 C1636 C 0.42713 0.90387 0.58440
 H1637 H 0.38829 0.83152 0.67772
 H1638 H 0.29875 0.79120 0.63973
 H1639 H 0.35807 0.80426 0.70307
 H1640 H 0.30808 0.81347 0.59969
 H1641 H 0.33522 0.84418 0.57390
 H1642 H 0.41688 0.85085 0.65319
 H1643 H 0.44285 0.88288 0.62856
 H1644 H 0.35528 0.87611 0.55480
 H1645 H 0.38216 0.91053 0.53299
 H1646 H 0.44714 0.91207 0.59256
 C1647 C 0.37453 1.18004 -0.16384
 C1648 C 0.36266 1.16899 -0.14122
 C1649 C 0.33390 1.17733 -0.13387
 C1650 C 0.31746 1.19502 -0.14931
 C1651 C 0.32893 1.20409 -0.17254
 C1652 C 0.35783 1.19703 -0.17922
 C1653 C 0.32122 1.16716 -0.11169
 C1654 C 0.33576 1.14789 -0.09720
 C1655 C 0.36378 1.13789 -0.10435
 C1656 C 0.37785 1.14924 -0.12628
 C1657 C 0.40628 1.13990 -0.13298
 C1658 C 0.41992 1.11933 -0.11963
 C1659 C 0.40601 1.10723 -0.09897
 C1660 C 0.37799 1.11655 -0.09066
 C1661 C 0.36515 1.10359 -0.06934
 C1662 C 0.37927 1.08208 -0.05736
 C1663 C 0.40656 1.07265 -0.06614
 C1664 C 0.41996 1.08554 -0.08678
 H1665 H 0.39629 1.17538 -0.17079
 H1666 H 0.29507 1.20038 -0.14401
 H1667 H 0.36738 1.20412 -0.19692
 H1668 H 0.29944 1.17370 -0.10575
 H1669 H 0.32410 1.14096 -0.08059
 H1670 H 0.41868 1.14782 -0.14875
 H1671 H 0.44153 1.11255 -0.12582
 H1672 H 0.34405 1.10927 -0.06157
 H1673 H 0.36851 1.07255 -0.04131
 H1674 H 0.44124 1.07854 -0.09357
 C1675 C 0.87251 0.68019 0.33570
 C1676 C 0.86113 0.67042 0.35904
 C1677 C 0.83212 0.67839 0.36599
 C1678 C 0.81531 0.69515 0.34988
 C1679 C 0.82660 0.70349 0.32630
 C1680 C 0.85545 0.69620 0.31968
 C1681 C 0.81968 0.66889 0.38856
 C1682 C 0.83478 0.65069 0.40389
 C1683 C 0.86330 0.64139 0.39739
 C1684 C 0.87712 0.65226 0.37513
 C1685 C 0.90633 0.64427 0.36945
 C1686 C 0.92093 0.62520 0.38399
 C1687 C 0.90718 0.61324 0.40481
 C1688 C 0.87836 0.62134 0.41216
 C1689 C 0.86566 0.60841 0.43358
 C1690 C 0.88072 0.58803 0.44656
 C1691 C 0.90886 0.57981 0.43873
 C1692 C 0.92211 0.59285 0.41807
 H1693 H 0.89414 0.67516 0.32869
 H1694 H 0.79292 0.70056 0.35510
 H1695 H 0.86482 0.70255 0.30166
 H1696 H 0.79767 0.67510 0.39417
 H1697 H 0.82334 0.64419 0.42078
 H1698 H 0.91874 0.65237 0.35376
 H1699 H 0.94315 0.61943 0.37858
 H1700 H 0.84390 0.61313 0.44054
 H1701 H 0.87001 0.57832 0.46254
 H1702 H 0.94399 0.58677 0.41194
 C1703 C 0.68194 1.16515 0.12221
 C1704 C 0.65401 1.15401 0.12810
 C1705 C 0.64241 1.15893 0.15280
 C1706 C 0.65890 1.17291 0.17105
 C1707 C 0.68677 1.18315 0.16511
 C1708 C 0.69789 1.17961 0.14042
 C1709 C 0.61445 1.14973 0.15933
 C1710 C 0.59749 1.13570 0.14192
 C1711 C 0.60815 1.12967 0.11727
 C1712 C 0.63723 1.13822 0.11048
 C1713 C 0.64886 1.12988 0.08676
 C1714 C 0.63284 1.11345 0.07040
 C1715 C 0.60425 1.10541 0.07655
 C1716 C 0.59111 1.11431 0.09962
 C1717 C 0.56140 1.10727 0.10419
 C1718 C 0.54636 1.09027 0.08771
 C1719 C 0.56013 1.07978 0.06598
 C1720 C 0.58885 1.08807 0.06003
 H1721 H 0.69190 1.16336 0.10363
 H1722 H 0.64983 1.17610 0.18996
 H1723 H 0.71927 1.18764 0.13529
 H1724 H 0.60552 1.15341 0.17820
 H1725 H 0.57643 1.12890 0.14884
 H1726 H 0.67088 1.13485 0.08068
 H1727 H 0.64302 1.10690 0.05275
 H1728 H 0.54900 1.11462 0.12028
 H1729 H 0.52387 1.08487 0.09242
 H1730 H 0.59950 1.08049 0.04296
 C1731 C 1.17648 0.67515 0.61962
 C1732 C 1.14772 0.66562 0.62547
 C1733 C 1.13489 0.67442 0.64866
 C1734 C 1.15082 0.69057 0.66567
 C1735 C 1.17991 0.69833 0.66041
 C1736 C 1.19223 0.69121 0.63687
 C1737 C 1.10650 0.66642 0.65532
 C1738 C 1.09077 0.64883 0.64007
 C1739 C 1.10293 0.63818 0.61742
 C1740 C 1.13161 0.64718 0.60965
 C1741 C 1.14344 0.63687 0.58672
 C1742 C 1.12836 0.61788 0.57233
 C1743 C 1.10089 0.60826 0.58007
 C1744 C 1.08757 0.61846 0.60257
 C1745 C 1.05966 0.60796 0.60954
 C1746 C 1.04609 0.58790 0.59516
 C1747 C 1.05957 0.57754 0.57327
 C1748 C 1.08686 0.58811 0.56563
 H1749 H 1.18776 0.67000 0.60222
 H1750 H 1.14080 0.69633 0.68365
 H1751 H 1.21463 0.69698 0.63227
 H1752 H 1.09644 0.67346 0.67286
 H1753 H 1.06913 0.64370 0.64691
 H1754 H 1.16465 0.64284 0.57947
 H1755 H 1.13859 0.61032 0.55506
 H1756 H 1.04774 0.61443 0.62619
 H1757 H 1.02495 0.58027 0.60146
 H1758 H 1.09751 0.58031 0.54865
 C1759 C 0.62197 0.82946 -0.17277
 C1760 C 0.62903 0.83537 -0.14710
 C1761 C 0.65668 0.82630 -0.13773
 C1762 C 0.67612 0.81176 -0.15355
 C1763 C 0.66903 0.80688 -0.17914
 C1764 C 0.64171 0.81566 -0.18842
 C1765 C 0.66516 0.83246 -0.11286
 C1766 C 0.64746 0.84847 -0.09738
 C1767 C 0.62010 0.85860 -0.10602
 C1768 C 0.61011 0.85081 -0.13082
 C1769 C 0.58161 0.85885 -0.13860
 C1770 C 0.56420 0.87535 -0.12348
 C1771 C 0.57447 0.88475 -0.10012
 C1772 C 0.60243 0.87641 -0.09084
 C1773 C 0.61181 0.88701 -0.06711
 C1774 C 0.59440 0.90543 -0.05366
 C1775 C 0.56705 0.91378 -0.06322
 C1776 C 0.55702 0.90294 -0.08624
 H1777 H 0.60186 0.83603 -0.18174
 H1778 H 0.69736 0.80530 -0.14625
 H1779 H 0.63562 0.81213 -0.20811
 H1780 H 0.68610 0.82538 -0.10545
 H1781 H 0.65584 0.85243 -0.07855
 H1782 H 0.57186 0.85255 -0.15631
 H1783 H 0.54263 0.88127 -0.13044
 H1784 H 0.63284 0.88215 -0.05875
 H1785 H 0.60267 0.91352 -0.03589
 H1786 H 0.53587 0.90926 -0.09383
 C1787 C 1.18447 0.33194 0.37355
 C1788 C 1.15668 0.34369 0.36796
 C1789 C 1.14468 0.33887 0.34342
 C1790 C 1.16054 0.32419 0.32510
 C1791 C 1.18840 0.31347 0.33066
 C1792 C 1.19992 0.31706 0.35520
 C1793 C 1.11700 0.34897 0.33703
 C1794 C 1.10080 0.36398 0.35434
 C1795 C 1.11184 0.36995 0.37887
 C1796 C 1.14048 0.36010 0.38566
 C1797 C 1.15225 0.36765 0.40954
 C1798 C 1.13681 0.38448 0.42607
 C1799 C 1.10874 0.39399 0.41986
 C1800 C 1.09553 0.38623 0.39647
 C1801 C 1.06647 0.39525 0.39160
 C1802 C 1.05203 0.41249 0.40837
 C1803 C 1.06569 0.42134 0.43076
 C1804 C 1.09389 0.41154 0.43672
 H1805 H 1.19485 0.33378 0.39192
 H1806 H 1.15109 0.32118 0.30633
 H1807 H 1.22131 0.30882 0.36013
 H1808 H 1.10774 0.34534 0.31829
 H1809 H 1.07993 0.37133 0.34747
 H1810 H 1.17386 0.36151 0.41578
 H1811 H 1.14705 0.39017 0.44393
 H1812 H 1.05406 0.38933 0.37505
 H1813 H 1.02999 0.41919 0.40349
 H1814 H 1.10451 0.41794 0.45420
 C1815 C 0.31218 0.81438 0.13265
 C1816 C 0.33853 0.82852 0.13798
 C1817 C 0.35125 0.82513 0.16247
 C1818 C 0.33712 0.80966 0.18112
 C1819 C 0.31042 0.79680 0.17585
 C1820 C 0.29847 0.79880 0.15131
 C1821 C 0.37779 0.83754 0.16851
 C1822 C 0.39199 0.85370 0.15092
 C1823 C 0.37986 0.85855 0.12655
 C1824 C 0.35248 0.84607 0.12007
 C1825 C 0.33945 0.85236 0.09633
 C1826 C 0.35234 0.87061 0.07973
 C1827 C 0.37902 0.88289 0.08576
 C1828 C 0.39365 0.87637 0.10887
 C1829 C 0.42140 0.88831 0.11347
 C1830 C 0.43292 0.90727 0.09682
 C1831 C 0.41752 0.91488 0.07486
 C1832 C 0.39091 0.90210 0.06903
 H1833 H 0.30157 0.81487 0.11430
 H1834 H 0.34689 0.80778 0.19990
 H1835 H 0.27800 0.78878 0.14662
 H1836 H 0.38764 0.83492 0.18718
 H1837 H 0.41205 0.86287 0.15751
 H1838 H 0.31863 0.84419 0.09030
 H1839 H 0.34112 0.87534 0.06204
 H1840 H 0.43489 0.88352 0.12973
 H1841 H 0.45394 0.91633 0.10146
 H1842 H 0.37911 0.90755 0.05182
 C1843 C 0.87260 0.31330 0.67153
 C1844 C 0.86186 0.32229 0.64767
 C1845 C 0.83349 0.31337 0.64003
 C1846 C 0.81655 0.29669 0.65607
 C1847 C 0.82706 0.28925 0.68020
 C1848 C 0.85541 0.29731 0.68744
 C1849 C 0.82176 0.32187 0.61681
 C1850 C 0.83691 0.33991 0.60142
 C1851 C 0.86474 0.35018 0.60855
 C1852 C 0.87784 0.34051 0.63166
 C1853 C 0.90625 0.34978 0.63825
 C1854 C 0.92076 0.36881 0.62364
 C1855 C 0.90774 0.37944 0.60182
 C1856 C 0.87977 0.37008 0.59362
 C1857 C 0.86784 0.38162 0.57115
 C1858 C 0.88275 0.40191 0.55798
 C1859 C 0.90998 0.41143 0.56665
 C1860 C 0.92252 0.39976 0.58838
 H1861 H 0.89381 0.31888 0.67899
 H1862 H 0.79458 0.29067 0.65031
 H1863 H 0.86423 0.29165 0.70587
 H1864 H 0.80024 0.31495 0.61070
 H1865 H 0.82600 0.34559 0.58401
 H1866 H 0.91806 0.34284 0.65477
 H1867 H 0.94233 0.37559 0.62976
 H1868 H 0.84680 0.37582 0.56344
 H1869 H 0.87259 0.41052 0.54117
 H1870 H 0.94370 0.40683 0.59518
 C1871 C 1.19423 1.17557 0.62953
 C1872 C 1.16727 1.16247 0.63521
 C1873 C 1.15529 1.16616 0.65995
 C1874 C 1.17037 1.18117 0.67831
 C1875 C 1.19722 1.19352 0.67255
 C1876 C 1.20881 1.19095 0.64792
 C1877 C 1.12833 1.15478 0.66644
 C1878 C 1.11267 1.13974 0.64892
 C1879 C 1.12367 1.13502 0.62413
 C1880 C 1.15179 1.14592 0.61735
 C1881 C 1.16380 1.13926 0.59330
 C1882 C 1.14904 1.12232 0.57656
 C1883 C 1.12140 1.11195 0.58274
 C1884 C 1.10789 1.11887 0.60625
 C1885 C 1.07910 1.10918 0.61097
 C1886 C 1.06536 1.09184 0.59397
 C1887 C 1.07955 1.08367 0.57158
 C1888 C 1.10731 1.09432 0.56571
 H1889 H 1.20446 1.17463 0.61101
 H1890 H 1.16091 1.18353 0.69718
 H1891 H 1.22944 1.20055 0.64295
 H1892 H 1.11916 1.15751 0.68537
 H1893 H 1.09235 1.13130 0.65582
 H1894 H 1.18515 1.14611 0.58712
 H1895 H 1.15945 1.11724 0.55858
 H1896 H 1.06642 1.11468 0.62753
 H1897 H 1.04358 1.08445 0.59868
 H1898 H 1.11822 1.08847 0.54816
 C1899 C 0.69659 0.67646 0.12806
 C1900 C 0.66838 0.66524 0.13274
 C1901 C 0.65440 0.67170 0.15617
 C1902 C 0.66886 0.68719 0.17451
 C1903 C 0.69707 0.69730 0.16993
 C1904 C 0.71057 0.69238 0.14638
 C1905 C 0.62615 0.66243 0.16146
 C1906 C 0.61126 0.64659 0.14411
 C1907 C 0.62434 0.63885 0.12080
 C1908 C 0.65364 0.64776 0.11524
 C1909 C 0.66754 0.63806 0.09293
 C1910 C 0.65357 0.61986 0.07690
 C1911 C 0.62491 0.61123 0.08196
 C1912 C 0.60951 0.62144 0.10344
 C1913 C 0.57986 0.61352 0.10686
 C1914 C 0.56705 0.59453 0.09101
 C1915 C 0.58303 0.58297 0.07098
 C1916 C 0.61169 0.59199 0.06598
 H1917 H 0.70832 0.67351 0.11041
 H1918 H 0.65800 0.69150 0.19250
 H1919 H 0.73229 0.70033 0.14236
 H1920 H 0.61542 0.66735 0.17936
 H1921 H 0.58983 0.63983 0.15014
 H1922 H 0.68978 0.64337 0.08781
 H1923 H 0.66543 0.61233 0.06041
 H1924 H 0.56581 0.62161 0.12155
 H1925 H 0.54450 0.58857 0.09481
 H1926 H 0.62399 0.58354 0.05015
 C1927 C 1.18946 0.82214 0.37688
 C1928 C 1.16130 0.83378 0.37268
 C1929 C 1.14613 0.82646 0.35009
 C1930 C 1.15954 0.80991 0.33186
 C1931 C 1.18788 0.79965 0.33579
 C1932 C 1.20240 0.80525 0.35871
 C1933 C 1.11781 0.83606 0.34543
 C1934 C 1.10414 0.85325 0.36246
 C1935 C 1.11857 0.86208 0.38478
 C1936 C 1.14783 0.85261 0.38979
 C1937 C 1.16301 0.86317 0.41105
 C1938 C 1.15041 0.88286 0.42646
 C1939 C 1.12189 0.89224 0.42181
 C1940 C 1.10517 0.88115 0.40153
 C1941 C 1.07574 0.89000 0.39855
 C1942 C 1.06447 0.91069 0.41340
 C1943 C 1.08177 0.92307 0.43206
 C1944 C 1.11016 0.91315 0.43689
 H1945 H 1.20202 0.82564 0.39398
 H1946 H 1.14789 0.80512 0.31439
 H1947 H 1.22420 0.79717 0.36230
 H1948 H 1.10612 0.83042 0.32821
 H1949 H 1.08257 0.86015 0.35689
 H1950 H 1.18528 0.85742 0.41573
 H1951 H 1.16326 0.89101 0.44204
 H1952 H 1.06073 0.88146 0.38491
 H1953 H 1.04205 0.91730 0.40988
 H1954 H 1.12347 0.92228 0.45168
 C1955 C 0.69221 0.32456 -0.12552
 C1956 C 0.66565 0.33839 -0.13117
 C1957 C 0.65284 0.33409 -0.15550
 C1958 C 0.66688 0.31781 -0.17362
 C1959 C 0.69335 0.30471 -0.16787
 C1960 C 0.70566 0.30789 -0.14358
 C1961 C 0.62609 0.34612 -0.16181
 C1962 C 0.61142 0.36227 -0.14445
 C1963 C 0.62328 0.36754 -0.12007
 C1964 C 0.65131 0.35619 -0.11361
 C1965 C 0.66441 0.36370 -0.09024
 C1966 C 0.65071 0.38183 -0.07384
 C1967 C 0.62304 0.39251 -0.07961
 C1968 C 0.60849 0.38471 -0.10238
 C1969 C 0.57964 0.39453 -0.10658
 C1970 C 0.56690 0.41300 -0.09006
 C1971 C 0.58216 0.42223 -0.06860
 C1972 C 0.60994 0.41134 -0.06301
 H1973 H 0.70291 0.32584 -0.10724
 H1974 H 0.65690 0.31503 -0.19222
 H1975 H 0.72604 0.29776 -0.13862
 H1976 H 0.61631 0.34299 -0.18043
 H1977 H 0.59122 0.37118 -0.15118
 H1978 H 0.68586 0.35664 -0.08445
 H1979 H 0.66195 0.38756 -0.05645
 H1980 H 0.56614 0.38823 -0.12236
 H1981 H 0.54499 0.42041 -0.09443
 H1982 H 0.62165 0.41798 -0.04614
 C1983 C 0.87572 1.17019 0.32646
 C1984 C 0.86780 1.16452 0.35193
 C1985 C 0.83889 1.17149 0.36005
 C1986 C 0.81908 1.18409 0.34322
 C1987 C 0.82725 1.18886 0.31789
 C1988 C 0.85575 1.18200 0.30984
 C1989 C 0.82967 1.16514 0.38467
 C1990 C 0.84781 1.15050 0.40090
 C1991 C 0.87631 1.14218 0.39325
 C1992 C 0.88713 1.15091 0.36906
 C1993 C 0.91677 1.14536 0.36260
 C1994 C 0.93430 1.12929 0.37791
 C1995 C 0.92302 1.11812 0.40017
 C1996 C 0.89416 1.12488 0.40860
 C1997 C 0.88391 1.11287 0.43137
 C1998 C 0.90106 1.09402 0.44431
 C1999 C 0.92893 1.08667 0.43513
 C2000 C 0.94019 1.09946 0.41356
 H2001 H 0.89677 1.16482 0.31838
 H2002 H 0.79698 1.18921 0.34953
 H2003 H 0.86274 1.18570 0.29040
 H2004 H 0.80780 1.17076 0.39119
 H2005 H 0.83883 1.14604 0.41942
 H2006 H 0.92719 1.15318 0.34572
 H2007 H 0.95666 1.12488 0.37181
 H2008 H 0.86231 1.11668 0.43915
 H2009 H 0.89199 1.08453 0.46115
 H2010 H 0.96191 1.09403 0.40650
 C2011 C 0.30697 0.65512 -0.13667
 C2012 C 0.33501 0.64366 -0.14179
 C2013 C 0.34661 0.64667 -0.16675
 C2014 C 0.33045 0.65994 -0.18568
 C2015 C 0.30307 0.67154 -0.18016
 C2016 C 0.29145 0.66903 -0.15554
 C2017 C 0.37456 0.63687 -0.17271
 C2018 C 0.39186 0.62478 -0.15425
 C2019 C 0.38158 0.62148 -0.12904
 C2020 C 0.35219 0.62988 -0.12299
 C2021 C 0.34087 0.62375 -0.09858
 C2022 C 0.35772 0.60999 -0.08068
 C2023 C 0.38679 0.60264 -0.08600
 C2024 C 0.39944 0.60914 -0.10995
 C2025 C 0.42960 0.60308 -0.11379
 C2026 C 0.44569 0.58913 -0.09551
 C2027 C 0.43247 0.58089 -0.07272
 C2028 C 0.40322 0.58837 -0.06771
 H2029 H 0.29685 0.65448 -0.11809
 H2030 H 0.33989 0.66225 -0.20456
 H2031 H 0.27037 0.67804 -0.15079
 H2032 H 0.38337 0.63888 -0.19184
 H2033 H 0.41299 0.61744 -0.16060
 H2034 H 0.31859 0.62852 -0.09300
 H2035 H 0.34789 0.60514 -0.06241
 H2036 H 0.44154 0.60899 -0.13063
 H2037 H 0.46852 0.58426 -0.09958
 H2038 H 0.39299 0.58252 -0.04987
 C2039 C 0.86867 0.85195 0.67745
 C2040 C 0.86503 0.85245 0.65069
 C2041 C 0.84040 0.83885 0.64024
 C2042 C 0.82122 0.82425 0.65606
 C2043 C 0.82555 0.82366 0.68251
 C2044 C 0.84925 0.83786 0.69296
 C2045 C 0.83491 0.84008 0.61412
 C2046 C 0.85277 0.85528 0.59817
 C2047 C 0.87747 0.86928 0.60770
 C2048 C 0.88454 0.86663 0.63415
 C2049 C 0.91102 0.87801 0.64318
 C2050 C 0.92895 0.89314 0.62741
 C2051 C 0.92109 0.89785 0.60216
 C2052 C 0.89538 0.88592 0.59177
 C2053 C 0.88820 0.89198 0.56612
 C2054 C 0.90544 0.90966 0.55185
 C2055 C 0.93044 0.92161 0.56251
 C2056 C 0.93853 0.91507 0.58745
 H2057 H 0.88585 0.86279 0.68714
 H2058 H 0.80267 0.81366 0.64780
 H2059 H 0.85309 0.83794 0.71334
 H2060 H 0.81625 0.82959 0.60595
 H2061 H 0.84690 0.85527 0.57828
 H2062 H 0.91885 0.87524 0.66238
 H2063 H 0.94890 0.90178 0.63528
 H2064 H 0.86886 0.88423 0.55680
 H2065 H 0.89875 0.91445 0.53255
 H2066 H 0.95785 0.92429 0.59588
 C2067 C 0.31214 0.33920 0.12726
 C2068 C 0.34177 0.34765 0.13042
 C2069 C 0.35646 0.33997 0.15316
 C2070 C 0.34149 0.32610 0.17237
 C2071 C 0.31207 0.31862 0.16922
 C2072 C 0.29767 0.32470 0.14635
 C2073 C 0.38600 0.34631 0.15686
 C2074 C 0.40153 0.36036 0.13855
 C2075 C 0.38784 0.36931 0.11591
 C2076 C 0.35727 0.36350 0.11204
 C2077 C 0.34304 0.37470 0.09056
 C2078 C 0.35791 0.39163 0.07386
 C2079 C 0.38776 0.39731 0.07734
 C2080 C 0.40342 0.38517 0.09774
 C2081 C 0.43407 0.38988 0.09942
 C2082 C 0.44778 0.40817 0.08340
 C2083 C 0.43169 0.42206 0.06485
 C2084 C 0.40192 0.41573 0.06109
 H2085 H 0.29970 0.34315 0.11017
 H2086 H 0.35294 0.32077 0.18982
 H2087 H 0.27498 0.31868 0.14345
 H2088 H 0.39728 0.34042 0.17421
 H2089 H 0.42404 0.36496 0.14334
 H2090 H 0.31993 0.37174 0.08674
 H2091 H 0.34582 0.40059 0.05819
 H2092 H 0.44815 0.37987 0.11297
 H2093 H 0.47111 0.41196 0.08603
 H2094 H 0.38949 0.42600 0.04637
   
