data_POSCAR
  _audit_creation_date              2014-09-24
  _audit_creation_method            'ToBaCCo'
  _symmetry_space_group_name_H-M    'P1'
  _symmetry_Int_Tables_number       1
  _symmetry_cell_setting            triclinic
  loop_
  _symmetry_equiv_pos_as_xyz
 x,y,z
_cell_length_a 41.8024
_cell_length_b 42.4931
_cell_length_c 42.1959
_cell_angle_alpha 89.073000
_cell_angle_beta 88.833700
_cell_angle_gamma 90.926600
loop_
  _atom_site_label
  _atom_site_type_symbol
  _atom_site_fract_x
  _atom_site_fract_y
  _atom_site_fract_z
C1 C 0.33399 0.32520 0.35511
 C2 C 0.32106 0.34515 0.33195
 C3 C 0.28859 0.35319 0.33376
 C4 C 0.26926 0.34099 0.35892
 C5 C 0.28194 0.32096 0.38208
 C6 C 0.31426 0.31319 0.37986
 H7 H 0.33619 0.35442 0.31274
 H8 H 0.24435 0.34733 0.36063
 H9 H 0.32416 0.29765 0.39755
 C10 C 0.39510 0.79796 -0.17389
 C11 C 0.37308 0.78587 -0.15112
 C12 C 0.34574 0.80247 -0.14247
 C13 C 0.34100 0.83250 -0.15535
 C14 C 0.36250 0.84553 -0.17851
 C15 C 0.38941 0.82771 -0.18764
 H16 H 0.37609 0.76262 -0.14094
 H17 H 0.31959 0.84462 -0.14819
 H18 H 0.40662 0.83706 -0.20482
 C19 C 0.87136 0.33849 -0.17278
 C20 C 0.86181 0.31880 -0.14701
 C21 C 0.83453 0.32549 -0.12849
 C22 C 0.81736 0.35265 -0.13559
 C23 C 0.82579 0.37244 -0.16152
 C24 C 0.85269 0.36481 -0.18032
 H25 H 0.87565 0.29828 -0.14147
 H26 H 0.79644 0.35762 -0.12140
 H27 H 0.85942 0.37965 -0.20047
 C28 C 0.87108 0.85238 0.29773
 C29 C 0.86596 0.88263 0.28543
 C30 C 0.84364 0.90269 0.29949
 C31 C 0.82722 0.89232 0.32721
 C32 C 0.83376 0.86280 0.34129
 C33 C 0.85562 0.84286 0.32609
 H34 H 0.87842 0.88984 0.26376
 H35 H 0.81057 0.90802 0.33847
 H36 H 0.85991 0.81955 0.33557
 C37 C 0.64497 0.70180 0.32931
 C38 C 0.66572 0.70570 0.35477
 C39 C 0.69287 0.68696 0.35762
 C40 C 0.69954 0.66464 0.33429
 C41 C 0.67907 0.66010 0.30878
 C42 C 0.65171 0.67865 0.30669
 H43 H 0.66088 0.72324 0.37241
 H44 H 0.72118 0.65121 0.33560
 H45 H 0.63531 0.67466 0.28772
 C46 C 0.63235 0.16195 -0.17800
 C47 C 0.65551 0.13935 -0.18518
 C48 C 0.68023 0.13240 -0.16392
 C49 C 0.68096 0.14854 -0.13496
 C50 C 0.65786 0.17089 -0.12733
 C51 C 0.63384 0.17753 -0.14903
 H52 H 0.65475 0.12802 -0.20786
 H53 H 0.69877 0.14330 -0.11758
 H54 H 0.61626 0.19502 -0.14342
 C55 C 0.12559 0.64791 -0.16526
 C56 C 0.13038 0.66597 -0.13818
 C57 C 0.15563 0.65976 -0.11766
 C58 C 0.17656 0.63518 -0.12465
 C59 C 0.17240 0.61644 -0.15168
 C60 C 0.14652 0.62315 -0.17165
 H61 H 0.11450 0.68517 -0.13327
 H62 H 0.19554 0.63054 -0.10834
 H63 H 0.14312 0.60995 -0.19296
 C64 C 0.12149 0.17989 0.33402
 C65 C 0.13141 0.17817 0.36562
 C66 C 0.14932 0.15273 0.37666
 C67 C 0.15701 0.12842 0.35565
 C68 C 0.14706 0.12944 0.32403
 C69 C 0.12958 0.15542 0.31346
 H70 H 0.12476 0.19628 0.38204
 H71 H 0.17086 0.10873 0.36377
 H72 H 0.12282 0.15690 0.28892
 C73 C 0.61008 0.32750 0.65773
 C74 C 0.61934 0.35607 0.67081
 C75 C 0.65068 0.36816 0.66653
 C76 C 0.67263 0.35126 0.64770
 C77 C 0.66335 0.32224 0.63459
 C78 C 0.63215 0.31044 0.64016
 H79 H 0.60210 0.36785 0.68569
 H80 H 0.69681 0.36017 0.64374
 H81 H 0.62461 0.28828 0.63011
 C82 C 0.62429 0.86087 1.16333
 C83 C 0.62793 0.84189 1.13656
 C84 C 0.65283 0.84731 1.11427
 C85 C 0.67512 0.87164 1.11916
 C86 C 0.67265 0.89106 1.14587
 C87 C 0.64677 0.88550 1.16752
 H88 H 0.61126 0.82274 1.13280
 H89 H 0.69416 0.87514 1.10176
 H90 H 0.64458 0.89981 1.18821
 C91 C 0.13066 0.36853 1.15647
 C92 C 0.14109 0.40032 1.15691
 C93 C 0.17014 0.40992 1.14279
 C94 C 0.18917 0.38798 1.12765
 C95 C 0.18044 0.35610 1.12788
 C96 C 0.15084 0.34638 1.14158
 H97 H 0.12787 0.41799 1.16943
 H98 H 0.21203 0.39551 1.11736
 H99 H 0.14444 0.32163 1.14153
 C100 C 0.14910 0.80537 0.67146
 C101 C 0.15766 0.82639 0.69544
 C102 C 0.18693 0.84273 0.69441
 C103 C 0.20818 0.83844 0.66883
 C104 C 0.20037 0.81795 0.64433
 C105 C 0.17079 0.80155 0.64581
 H106 H 0.14133 0.83102 0.71484
 H107 H 0.23112 0.85057 0.66853
 H108 H 0.16491 0.78592 0.62684
 C109 C 0.38015 0.63877 0.66324
 C110 C 0.37600 0.65402 0.63395
 C111 C 0.34844 0.64907 0.61631
 C112 C 0.32449 0.62828 0.62834
 C113 C 0.32784 0.61248 0.65776
 C114 C 0.35608 0.61771 0.67492
 H115 H 0.39428 0.67030 0.62506
 H116 H 0.30348 0.62419 0.61439
 H117 H 0.35884 0.60633 0.69779
 C118 C 0.37223 0.15611 1.20542
 C119 C 0.35523 0.12708 1.20708
 C120 C 0.33445 0.11811 1.18305
 C121 C 0.33034 0.13829 1.15704
 C122 C 0.34654 0.16730 1.15457
 C123 C 0.36763 0.17601 1.17863
 H124 H 0.35793 0.11094 1.22678
 H125 H 0.31401 0.13156 1.13871
 H126 H 0.37973 0.19861 1.17654
 C127 C 0.88439 0.67956 1.14879
 C128 C 0.86464 0.69667 1.12843
 C129 C 0.83436 0.68522 1.12026
 C130 C 0.82482 0.65495 1.13031
 C131 C 0.84426 0.63732 1.15046
 C132 C 0.87333 0.65015 1.16084
 H133 H 0.87219 0.71978 1.11984
 H134 H 0.80191 0.64537 1.12324
 H135 H 0.88816 0.63626 1.17630
 C136 C 0.86346 0.18402 0.65023
 C137 C 0.85057 0.15477 0.66167
 C138 C 0.83004 0.13642 0.64237
 C139 C 0.82360 0.14794 0.61146
 C140 C 0.83775 0.17565 0.59963
 C141 C 0.85738 0.19331 0.61887
 H142 H 0.85560 0.14707 0.68559
 H143 H 0.80744 0.13601 0.59592
 H144 H 0.86838 0.21445 0.60863
 C145 C 0.30298 0.35078 0.67039
 C146 C 0.32780 0.34416 0.69137
 C147 C 0.34702 0.31758 0.68772
 C148 C 0.34080 0.29732 0.66242
 C149 C 0.31612 0.30354 0.64108
 C150 C 0.29736 0.33027 0.64529
 H151 H 0.33187 0.35975 0.71074
 H152 H 0.35492 0.27648 0.65944
 H153 H 0.27894 0.33541 0.62846
 C154 C 0.32462 0.86337 0.17895
 C155 C 0.34914 0.84259 0.18685
 C156 C 0.36134 0.82121 0.16487
 C157 C 0.34767 0.81970 0.13483
 C158 C 0.32266 0.83960 0.12651
 C159 C 0.31141 0.86163 0.14857
 H160 H 0.35866 0.84271 0.21040
 H161 H 0.35695 0.80369 0.11738
 H162 H 0.29229 0.87719 0.14216
 C163 C 0.82884 0.37475 0.17598
 C164 C 0.85716 0.35759 0.17875
 C165 C 0.86525 0.33426 0.15675
 C166 C 0.84462 0.32846 0.13152
 C167 C 0.81667 0.34586 0.12802
 C168 C 0.80881 0.36859 0.15047
 H169 H 0.87331 0.36282 0.19764
 H170 H 0.85027 0.31073 0.11432
 H171 H 0.78667 0.38113 0.14827
 C172 C 0.83954 0.87795 0.65881
 C173 C 0.86347 0.86895 0.67997
 C174 C 0.88592 0.84602 0.67155
 C175 C 0.88435 0.83243 0.64150
 C176 C 0.86082 0.84142 0.62004
 C177 C 0.83854 0.86405 0.62891
 H178 H 0.86399 0.87906 0.70331
 H179 H 0.90144 0.81474 0.63483
 H180 H 0.82092 0.87139 0.61200
 C181 C 0.68332 0.61872 0.63648
 C182 C 0.65597 0.63689 0.64081
 C183 C 0.65358 0.66661 0.62634
 C184 C 0.67903 0.67799 0.60688
 C185 C 0.70690 0.66005 0.60217
 C186 C 0.70867 0.63039 0.61726
 H187 H 0.63659 0.62811 0.65602
 H188 H 0.67732 0.70116 0.59623
 H189 H 0.72947 0.61597 0.61399
 C190 C 0.63996 0.14645 0.16285
 C191 C 0.64458 0.16682 0.13662
 C192 C 0.63209 0.19735 0.13651
 C193 C 0.61395 0.20714 0.16287
 C194 C 0.60939 0.18703 0.18939
 C195 C 0.62224 0.15673 0.18904
 H196 H 0.65880 0.15925 0.11658
 H197 H 0.60481 0.23081 0.16354
 H198 H 0.61832 0.14096 0.20919
 C199 C 0.20253 0.65166 0.18380
 C200 C 0.17486 0.65254 0.20344
 C201 C 0.14995 0.67300 0.19659
 C202 C 0.15271 0.69289 0.16982
 C203 C 0.18011 0.69309 0.15023
 C204 C 0.20496 0.67226 0.15730
 H205 H 0.17267 0.63774 0.22444
 H206 H 0.13295 0.70775 0.16377
 H207 H 0.22603 0.67213 0.14209
 C208 C 0.15377 0.09404 0.70494
 C209 C 0.12342 0.10708 0.70887
 C210 C 0.11236 0.12975 0.68739
 C211 C 0.13175 0.13932 0.66134
 C212 C 0.16185 0.12559 0.65628
 C213 C 0.17277 0.10347 0.67851
 H214 H 0.10817 0.09978 0.72875
 H215 H 0.12281 0.15641 0.64454
 H216 H 0.19644 0.09402 0.67550
 C217 C 0.35216 0.60978 0.34291
 C218 C 0.32986 0.62801 0.35902
 C219 C 0.33609 0.65994 0.36474
 C220 C 0.36542 0.67371 0.35413
 C221 C 0.38808 0.65555 0.33763
 C222 C 0.38108 0.62364 0.33232
 H223 H 0.30769 0.61699 0.36748
 H224 H 0.37033 0.69837 0.35835
 H225 H 0.39734 0.60981 0.31824
 C226 C 0.34282 0.11459 0.84783
 C227 C 0.32284 0.12086 0.87408
 C228 C 0.33069 0.14521 0.89497
 C229 C 0.35876 0.16335 0.88902
 C230 C 0.37881 0.15716 0.86286
 C231 C 0.37106 0.13220 0.84312
 H232 H 0.30066 0.10766 0.87737
 H233 H 0.36468 0.18263 0.90434
 H234 H 0.38715 0.12658 0.82372
 C235 C 0.83221 0.62663 0.82409
 C236 C 0.85891 0.64667 0.81886
 C237 C 0.86562 0.67154 0.83936
 C238 C 0.84504 0.67649 0.86537
 C239 C 0.81826 0.65679 0.87122
 C240 C 0.81197 0.63192 0.85045
 H241 H 0.87459 0.64302 0.79870
 H242 H 0.84979 0.69566 0.88121
 H243 H 0.79125 0.61680 0.85470
 C244 C 0.81261 0.16140 0.31419
 C245 C 0.84330 0.16270 0.30002
 C246 C 0.86557 0.18609 0.30805
 C247 C 0.85681 0.20842 0.33068
 C248 C 0.82613 0.20796 0.34487
 C249 C 0.80418 0.18418 0.33661
 H250 H 0.84979 0.14546 0.28262
 H251 H 0.87420 0.22590 0.33771
 H252 H 0.78035 0.18389 0.34709
 C253 C 0.64665 0.41258 0.34174
 C254 C 0.66410 0.40128 0.36735
 C255 C 0.65313 0.37482 0.38522
 C256 C 0.62466 0.35915 0.37675
 C257 C 0.60670 0.37082 0.35145
 C258 C 0.61817 0.39711 0.33399
 H259 H 0.68611 0.41328 0.37351
 H260 H 0.61580 0.33907 0.39064
 H261 H 0.60503 0.40513 0.31365
 C262 C 0.67942 0.86653 0.82160
 C263 C 0.67958 0.84722 0.84907
 C264 C 0.65945 0.82047 0.85217
 C265 C 0.63880 0.81329 0.82758
 C266 C 0.63797 0.83206 0.79997
 C267 C 0.65821 0.85883 0.79719
 H268 H 0.69510 0.85317 0.86832
 H269 H 0.62343 0.79271 0.82984
 H270 H 0.65817 0.87298 0.77567
 C271 C 0.17395 0.34664 0.84900
 C272 C 0.17880 0.33542 0.88021
 C273 C 0.16184 0.30919 0.89252
 C274 C 0.13961 0.29407 0.87358
 C275 C 0.13472 0.30384 0.84218
 C276 C 0.15135 0.33084 0.83001
 H277 H 0.19581 0.34712 0.89523
 H278 H 0.12688 0.27347 0.88298
 H279 H 0.14821 0.33824 0.80561
 C280 C 0.14332 0.87090 0.35483
 C281 C 0.16207 0.86328 0.38111
 C282 C 0.15378 0.83694 0.40030
 C283 C 0.12749 0.81778 0.39269
 C284 C 0.10945 0.82436 0.36590
 C285 C 0.11747 0.85104 0.34729
 H286 H 0.18208 0.87829 0.38734
 H287 H 0.12176 0.79727 0.40739
 H288 H 0.10354 0.85626 0.32664
 O289 O 0.21963 1.02863 0.28728
 O290 O 0.27133 0.96347 0.26301
 O291 O 0.27075 1.02379 0.25158
 O292 O 0.21993 0.96787 0.29920
 O293 O 0.18918 0.96189 0.25768
 O294 O 0.24206 1.01351 0.20945
 O295 O 0.24076 0.95390 0.22207
 O296 O 0.19107 1.02153 0.24443
 Cu297 Cu 0.24841 0.99662 0.27953
 Cu298 Cu 0.21269 0.98673 0.22931
 C299 C 0.19673 1.03645 0.26963
 C300 C 0.26517 0.94785 0.23840
 C301 C 0.26519 1.02772 0.22230
 C302 C 0.19532 0.95609 0.28647
 O303 O 0.27540 0.45658 0.73552
 O304 O 0.25412 0.51563 0.79508
 O305 O 0.25275 0.45403 0.79274
 O306 O 0.28090 0.51783 0.73854
 O307 O 0.23242 0.52028 0.71897
 O308 O 0.20413 0.45497 0.77339
 O309 O 0.20553 0.51760 0.77567
 O310 O 0.22686 0.45908 0.71596
 Cu311 Cu 0.27055 0.48588 0.76748
 Cu312 Cu 0.21234 0.48850 0.74422
 C313 C 0.25456 0.44740 0.71603
 C314 C 0.22616 0.52691 0.79523
 C315 C 0.22442 0.44287 0.79190
 C316 C 0.26145 0.52993 0.71936
 O317 O 0.69937 0.04293 0.22277
 O318 O 0.75932 -0.00726 0.26241
 O319 O 0.73754 0.04988 0.27050
 O320 O 0.71688 -0.01533 0.21857
 O321 O 0.75474 -0.00007 0.18410
 O322 O 0.77346 0.06748 0.23513
 O323 O 0.79583 0.01120 0.22810
 O324 O 0.73637 0.05716 0.18695
 Cu325 Cu 0.72465 0.01598 0.24719
 Cu326 Cu 0.76887 0.03569 0.20527
 C327 C 0.70785 0.05782 0.19747
 C328 C 0.78798 -0.00643 0.25153
 C329 C 0.75872 0.06996 0.26164
 C330 C 0.73202 -0.01884 0.19256
 O331 O 0.74461 0.47493 0.79087
 O332 O 0.70858 0.52890 0.73468
 O333 O 0.70108 0.47108 0.74731
 O334 O 0.75380 0.53408 0.77617
 O335 O 0.79054 0.52068 0.74076
 O336 O 0.73734 0.45794 0.71123
 O337 O 0.74530 0.51744 0.69836
 O338 O 0.78089 0.46111 0.75518
 Cu339 Cu 0.72362 0.50343 0.76614
 Cu340 Cu 0.76742 0.48812 0.72288
 C341 C 0.76857 0.45876 0.78292
 C342 C 0.72002 0.53164 0.70677
 C343 C 0.70957 0.45474 0.72372
 C344 C 0.78137 0.53794 0.76338
 O345 O 0.26181 0.48608 0.19874
 O346 O 0.31226 0.51277 0.26279
 O347 O 0.28724 0.45836 0.24819
 O348 O 0.28280 0.54003 0.21557
 O349 O 0.23890 0.54667 0.24461
 O350 O 0.24429 0.46738 0.27785
 O351 O 0.26926 0.52302 0.29191
 O352 O 0.21835 0.49236 0.22859
 Cu353 Cu 0.29053 0.49837 0.22859
 Cu354 Cu 0.23854 0.50798 0.26413
 C355 C 0.23168 0.48499 0.20247
 C356 C 0.29948 0.52338 0.28776
 C357 C 0.26594 0.44908 0.26837
 C358 C 0.25913 0.55670 0.22394
 O359 O 0.75344 1.03657 0.70647
 O360 O 0.72117 0.97601 0.76179
 O361 O 0.72371 1.03808 0.76194
 O362 O 0.75106 0.97614 0.70826
 O363 O 0.79811 0.97623 0.73123
 O364 O 0.76998 1.03671 0.78619
 O365 O 0.76787 0.97481 0.78531
 O366 O 0.79979 1.03795 0.73065
 Cu367 Cu 0.73256 1.00722 0.73246
 Cu368 Cu 0.78852 1.00661 0.76094
 C369 C 0.78191 1.04709 0.70841
 C370 C 0.73949 0.96412 0.78220
 C371 C 0.74218 1.04780 0.78334
 C372 C 0.77913 0.96551 0.71076
 O373 O 0.78923 0.48555 0.25261
 O374 O 0.74506 0.55737 0.27031
 O375 O 0.73743 0.49827 0.28577
 O376 O 0.79434 0.54496 0.23414
 O377 O 0.76455 0.53380 0.19301
 O378 O 0.70616 0.49285 0.24454
 O379 O 0.71594 0.55077 0.22773
 O380 O 0.75759 0.47623 0.21242
 Cu381 Cu 0.76975 0.52222 0.26481
 Cu382 Cu 0.73303 0.51241 0.21535
 C383 C 0.78095 0.46861 0.22963
 C384 C 0.72312 0.56641 0.25210
 C385 C 0.71144 0.48873 0.27373
 C386 C 0.78893 0.54695 0.20459
 O387 O 0.28669 -0.05254 0.80633
 O388 O 0.22072 0.00096 0.78783
 O389 O 0.22953 -0.05952 0.78542
 O390 O 0.27776 0.00841 0.81050
 O391 O 0.29647 0.01465 0.76140
 O392 O 0.24959 -0.05375 0.73675
 O393 O 0.24009 0.00644 0.73890
 O394 O 0.30660 -0.04519 0.75780
 Cu395 Cu 0.25178 -0.02620 0.80257
 Cu396 Cu 0.27513 -0.01880 0.74380
 C397 C 0.30760 -0.05823 0.78499
 C398 C 0.21933 0.01280 0.76007
 C399 C 0.23176 -0.06841 0.75692
 C400 C 0.29502 0.02328 0.79001
 O401 O 0.24560 0.27224 0.98486
 O402 O 0.30475 0.24213 1.04109
 O403 O 0.28697 0.22648 0.98437
 O404 O 0.26091 0.28360 1.04350
 O405 O 0.22354 0.25033 1.06200
 O406 O 0.25110 0.19233 1.00393
 O407 O 0.26830 0.20880 1.06113
 O408 O 0.20950 0.23826 1.00433
 Cu409 Cu 0.27808 0.25950 1.01128
 Cu410 Cu 0.23461 0.21872 1.03449
 C411 C 0.21738 0.26074 0.98538
 C412 C 0.29632 0.22097 1.06126
 C413 C 0.27354 0.19946 0.98428
 C414 C 0.23808 0.27669 1.06284
 O415 O 0.25704 0.79006 0.47074
 O416 O 0.31344 0.73957 0.51431
 O417 O 0.29753 0.74554 0.45502
 O418 O 0.27837 0.78796 0.52816
 O419 O 0.23997 0.75331 0.54080
 O420 O 0.25699 0.71303 0.46604
 O421 O 0.27360 0.70689 0.52771
 O422 O 0.21772 0.75810 0.48739
 Cu423 Cu 0.29064 0.76904 0.49067
 Cu424 Cu 0.24370 0.72864 0.50513
 C425 C 0.22735 0.78309 0.47319
 C426 C 0.30284 0.71498 0.52892
 C427 C 0.28020 0.72208 0.44803
 C428 C 0.25601 0.77809 0.54678
 O429 O 0.24862 0.80916 0.01339
 O430 O 0.19598 0.75643 -0.02955
 O431 O 0.20314 0.76942 0.03006
 O432 O 0.24806 0.78840 -0.04506
 O433 O 0.28051 0.74952 -0.03347
 O434 O 0.23441 0.72866 0.03767
 O435 O 0.22855 0.71663 -0.02237
 O436 O 0.27938 0.76935 0.02618
 Cu437 Cu 0.22091 0.78481 -0.00878
 Cu438 Cu 0.25914 0.73735 0.00266
 C439 C 0.27178 0.79820 0.02863
 C440 C 0.20304 0.72793 -0.03369
 C441 C 0.21141 0.74556 0.04651
 C442 C 0.27173 0.77116 -0.05208
 O443 O 0.25516 0.23363 0.47793
 O444 O 0.23641 0.17506 0.54208
 O445 O 0.22812 0.17720 0.48131
 O446 O 0.27852 0.22080 0.53439
 O447 O 0.23776 0.24891 0.55120
 O448 O 0.18644 0.20609 0.49412
 O449 O 0.19476 0.20331 0.55618
 O450 O 0.21436 0.26166 0.49470
 Cu451 Cu 0.25321 0.19946 0.50756
 Cu452 Cu 0.20464 0.23254 0.52542
 C453 C 0.23745 0.25771 0.47545
 C454 C 0.21202 0.17943 0.56002
 C455 C 0.19906 0.18399 0.47818
 C456 C 0.26728 0.24158 0.55238
 O457 O 0.76924 0.75311 1.02114
 O458 O 0.72136 0.77620 0.95433
 O459 O 0.71912 0.78763 1.01480
 O460 O 0.76456 0.73388 0.96224
 O461 O 0.73032 0.69560 0.97565
 O462 O 0.68498 0.74845 1.02555
 O463 O 0.68646 0.73780 0.96548
 O464 O 0.73560 0.71418 1.03422
 Cu465 Cu 0.74710 0.76635 0.98706
 Cu466 Cu 0.70611 0.72010 1.00133
 C467 C 0.76069 0.73058 1.03945
 C468 C 0.69570 0.76148 0.94852
 C469 C 0.69379 0.77681 1.02868
 C470 C 0.75457 0.70549 0.95990
 O471 O 0.74397 0.32340 0.47621
 O472 O 0.79642 0.26549 0.51196
 O473 O 0.78926 0.28715 0.45530
 O474 O 0.75068 0.30106 0.53341
 O475 O 0.71543 0.26338 0.52343
 O476 O 0.75535 0.24782 0.44713
 O477 O 0.76060 0.22753 0.50481
 O478 O 0.70928 0.28579 0.46460
 Cu479 Cu 0.77347 0.29817 0.49512
 Cu480 Cu 0.73119 0.25263 0.48391
 C481 C 0.71806 0.31461 0.46379
 C482 C 0.78759 0.23687 0.51469
 C483 C 0.77948 0.26454 0.43845
 C484 C 0.72670 0.28395 0.54180
 O485 O 0.77354 0.25150 -0.02045
 O486 O 0.71174 0.23344 0.03993
 O487 O 0.71843 0.22123 -0.02039
 O488 O 0.76134 0.27142 0.03687
 O489 O 0.73228 0.31163 0.02139
 O490 O 0.68776 0.26168 -0.03152
 O491 O 0.68409 0.27523 0.02626
 O492 O 0.74503 0.29154 -0.03708
 Cu493 Cu 0.74408 0.24032 0.01045
 Cu494 Cu 0.71057 0.28908 -0.00774
 C495 C 0.76984 0.27460 -0.03918
 C496 C 0.68782 0.25102 0.04386
 C497 C 0.69501 0.23315 -0.03498
 C498 C 0.75364 0.30026 0.03879
 O499 O 0.81736 0.78067 0.44389
 O500 O 0.79952 0.72147 0.50792
 O501 O 0.79029 0.72523 0.44791
 O502 O 0.83679 0.77174 0.50219
 O503 O 0.79345 0.79625 0.51851
 O504 O 0.74672 0.75201 0.45916
 O505 O 0.75553 0.74735 0.51966
 O506 O 0.77528 0.80726 0.46003
 Cu507 Cu 0.81542 0.74749 0.47427
 Cu508 Cu 0.76364 0.77849 0.49055
 C509 C 0.79877 0.80402 0.44114
 C510 C 0.77361 0.72420 0.52405
 C511 C 0.76089 0.73024 0.44418
 C512 C 0.82332 0.79102 0.52038
 O513 O 1.02488 0.31356 0.23505
 O514 O 0.96967 0.25495 0.27036
 O515 O 1.02887 0.27138 0.28076
 O516 O 0.96628 0.29710 0.22680
 O517 O 0.98331 0.26354 0.19095
 O518 O 1.04413 0.23561 0.24643
 O519 O 0.98503 0.22031 0.23486
 O520 O 1.04307 0.27889 0.20094
 Cu521 Cu 0.99617 0.28773 0.25695
 Cu522 Cu 1.01582 0.24611 0.21477
 C523 C 1.04296 0.30658 0.21183
 C524 C 0.96717 0.22801 0.25808
 C525 C 1.04663 0.24866 0.27315
 C526 C 0.96403 0.28465 0.19979
 O527 O 0.51815 0.20043 0.74812
 O528 O 0.44823 0.24750 0.72837
 O529 O 0.50676 0.24590 0.70734
 O530 O 0.46107 0.20758 0.77352
 O531 O 0.47846 0.24378 0.80633
 O532 O 0.52218 0.28268 0.74051
 O533 O 0.46355 0.28382 0.76202
 O534 O 0.53485 0.23702 0.78078
 Cu535 Cu 0.48209 0.22153 0.73617
 Cu536 Cu 0.50153 0.26550 0.77556
 C537 C 0.53830 0.21044 0.76776
 C538 C 0.44389 0.27361 0.74177
 C539 C 0.52168 0.27143 0.71293
 C540 C 0.46192 0.21930 0.80110
 O541 O 0.02419 0.23672 0.78916
 O542 O -0.04797 0.21569 0.74392
 O543 O 0.00655 0.19343 0.74707
 O544 O -0.03771 0.25651 0.78521
 O545 O -0.01870 0.29073 0.74932
 O546 O 0.02849 0.22741 0.71255
 O547 O -0.02974 0.24927 0.70699
 O548 O 0.04042 0.27207 0.75323
 Cu549 Cu -0.01402 0.22288 0.77107
 Cu550 Cu 0.00698 0.26316 0.72674
 C551 C 0.04448 0.25742 0.77913
 C552 C -0.05090 0.22961 0.71732
 C553 C 0.02480 0.19941 0.72331
 C554 C -0.03699 0.28401 0.77299
 O555 O 0.51658 0.27368 0.32923
 O556 O 0.46168 0.21225 0.29904
 O557 O 0.52309 0.22449 0.29477
 O558 O 0.45619 0.26146 0.33534
 O559 O 0.44508 0.28896 0.29215
 O560 O 0.51509 0.25363 0.25191
 O561 O 0.45377 0.24089 0.25584
 O562 O 0.50520 0.30304 0.28734
 Cu563 Cu 0.49013 0.23981 0.31878
 Cu564 Cu 0.47908 0.27450 0.26737
 C565 C 0.51929 0.29932 0.31346
 C566 C 0.44857 0.21608 0.27232
 C567 C 0.53087 0.23293 0.26673
 C568 C 0.43943 0.28158 0.32105
 O569 O 0.96891 0.75824 0.71873
 O570 O 1.02174 0.69684 0.75099
 O571 O 0.96304 0.71424 0.76224
 O572 O 1.02661 0.73860 0.70530
 O573 O 1.04474 0.77225 0.74032
 O574 O 0.98156 0.74740 0.79754
 O575 O 1.04005 0.73070 0.78572
 O576 O 0.98707 0.79142 0.75415
 Cu577 Cu 0.99316 0.72363 0.73081
 Cu578 Cu 1.01518 0.76392 0.77283
 C579 C 0.96887 0.78526 0.73129
 C580 C 1.04004 0.70349 0.77376
 C581 C 0.96147 0.72647 0.78945
 C582 C 1.04677 0.75940 0.71338
 O583 O 0.51915 0.81475 0.25102
 O584 O 0.46788 0.75336 0.29001
 O585 O 0.52676 0.77300 0.29600
 O586 O 0.46107 0.79184 0.24181
 O587 O 0.47847 0.75572 0.20891
 O588 O 0.54577 0.74026 0.26033
 O589 O 0.48862 0.71842 0.25763
 O590 O 0.53597 0.78056 0.21578
 Cu591 Cu 0.49176 0.78693 0.27293
 Cu592 Cu 0.51369 0.74539 0.23197
 C593 C 0.53663 0.80805 0.22720
 C594 C 0.47056 0.72515 0.28107
 C595 C 0.54756 0.75333 0.28701
 C596 C 0.45833 0.77638 0.21643
 O597 O 0.01143 0.74050 0.30716
 O598 O -0.03053 0.70718 0.23893
 O599 O 0.02551 0.69846 0.26458
 O600 O -0.04328 0.75113 0.27950
 O601 O -0.02068 0.78611 0.24638
 O602 O 0.04761 0.73602 0.23421
 O603 O -0.00672 0.74292 0.20755
 O604 O 0.03291 0.77742 0.27558
 Cu605 Cu -0.01144 0.72060 0.27588
 Cu606 Cu 0.01563 0.76430 0.23796
 C607 C 0.02945 0.76455 0.30282
 C608 C -0.02597 0.71975 0.21167
 C609 C 0.04836 0.70879 0.24671
 C610 C -0.04381 0.77723 0.26431
 O611 O 0.48163 0.76206 0.73572
 O612 O 0.53746 0.73590 0.67237
 O613 O 0.47887 0.71865 0.69258
 O614 O 0.53797 0.77963 0.71476
 O615 O 0.55884 0.74553 0.74823
 O616 O 0.49979 0.68473 0.72615
 O617 O 0.55781 0.70170 0.70602
 O618 O 0.50275 0.72760 0.76866
 Cu619 Cu 0.50677 0.75219 0.70021
 Cu620 Cu 0.53199 0.71138 0.74036
 C621 C 0.48296 0.74920 0.76308
 C622 C 0.55772 0.71487 0.67884
 C623 C 0.47864 0.69170 0.70615
 C624 C 0.55826 0.77291 0.73568
 N625 N 0.41210 0.29654 0.37081
 N626 N 0.38461 0.30854 0.37989
 C627 C 0.36791 0.31617 0.35395
 C628 C 0.38594 0.30929 0.32702
 C629 C 0.41357 0.29641 0.33894
 H630 H 0.37887 0.31084 0.30252
 H631 H 0.42916 0.28786 0.38630
 H632 H 0.37727 0.31061 0.40356
 N633 N 0.45766 0.74210 0.81624
 N634 N 0.43283 0.75532 0.83369
 C635 C 0.42157 0.77985 0.81669
 C636 C 0.43916 0.78272 0.78824
 C637 C 0.46099 0.75841 0.78879
 H638 H 0.43549 0.79907 0.76877
 H639 H 0.47026 0.72220 0.82319
 H640 H 0.42564 0.74747 0.85632
 N641 N -0.05915 0.33806 0.77496
 N642 N -0.08350 0.35229 0.78876
 C643 C -0.09926 0.33150 0.80823
 C644 C -0.08382 0.30281 0.80682
 C645 C -0.05868 0.30799 0.78540
 H646 H -0.09061 0.28078 0.81851
 H647 H -0.04352 0.34875 0.75826
 H648 H -0.08893 0.37587 0.78468
 N649 N -0.08197 0.81269 0.23937
 N650 N -0.10419 0.83261 0.24794
 C651 C -0.10840 0.83072 0.27968
 C652 C -0.08842 0.80777 0.29181
 C653 C -0.07182 0.79735 0.26531
 H654 H -0.08457 0.80158 0.31641
 H655 H -0.07331 0.81031 0.21615
 H656 H -0.11575 0.84753 0.23213
 N657 N 0.57770 0.75359 0.33767
 N658 N 0.60331 0.73971 0.34893
 C659 C 0.61637 0.72180 0.32600
 C660 C 0.59824 0.72471 0.29907
 C661 C 0.57406 0.74481 0.30746
 H662 H 0.60172 0.71369 0.27636
 H663 H 0.56276 0.76825 0.35071
 H664 H 0.61096 0.74208 0.37217
 N665 N 0.57186 0.16281 0.76224
 N666 N 0.59651 0.15001 0.77639
 C667 C 0.60645 0.16927 0.79948
 C668 C 0.58718 0.19569 0.79966
 C669 C 0.56556 0.19054 0.77584
 H670 H 0.58809 0.21560 0.81530
 H671 H 0.55921 0.15229 0.74401
 H672 H 0.60544 0.12793 0.77082
 N673 N 1.06402 0.64998 0.77585
 N674 N 1.08651 0.63539 0.79177
 C675 C 1.09918 0.65546 0.81282
 C676 C 1.08380 0.68409 0.81003
 C677 C 1.06180 0.67962 0.78635
 H678 H 1.08836 0.70552 0.82281
 H679 H 1.05056 0.63971 0.75805
 H680 H 1.09264 0.61197 0.78827
 N681 N 1.07789 0.25172 0.32262
 N682 N 1.09757 0.23374 0.33868
 C683 C 1.10231 0.20689 0.32263
 C684 C 1.08505 0.20829 0.29484
 C685 C 1.06988 0.23693 0.29591
 H686 H 1.08248 0.19052 0.27697
 H687 H 1.06988 0.27359 0.33012
 H688 H 1.10728 0.24011 0.36028
 N689 N 0.52715 0.31693 0.67647
 N690 N 0.55108 0.33256 0.66229
 C691 C 0.57754 0.31503 0.66393
 C692 C 0.57013 0.28695 0.67968
 C693 C 0.53792 0.28917 0.68733
 H694 H 0.58669 0.26964 0.68834
 H695 H 0.50461 0.32632 0.68105
 H696 H 0.54976 0.35570 0.65374
 N697 N 0.56490 0.86013 0.22635
 N698 N 0.59008 0.87452 0.20906
 C699 C 0.59890 0.85496 0.18556
 C700 C 0.57936 0.82796 0.18762
 C701 C 0.55883 0.83203 0.21337
 H702 H 0.58072 0.80700 0.17350
 H703 H 0.55408 0.86929 0.24665
 H704 H 0.59928 0.89684 0.21395
 N705 N 1.05738 0.36227 0.20199
 N706 N 1.08138 0.37968 0.18625
 C707 C 1.10184 0.35934 0.17249
 C708 C 1.09051 0.32862 0.17862
 C709 C 1.06309 0.33169 0.19741
 H710 H 1.10127 0.30672 0.17176
 H711 H 1.03853 0.37183 0.21509
 H712 H 1.08198 0.40420 0.18580
 N713 N 1.07896 0.75623 0.66307
 N714 N 1.10801 0.76894 0.65148
 C715 C 1.11959 0.78861 0.67359
 C716 C 1.09806 0.78872 0.69923
 C717 C 1.07343 0.76837 0.69184
 H718 H 1.10005 0.80083 0.72144
 H719 H 1.06494 0.73959 0.65152
 H720 H 1.11811 0.76336 0.62952
 N721 N 0.44879 0.64041 0.71390
 N722 N 0.42253 0.62674 0.70321
 C723 C 0.40945 0.64595 0.68144
 C724 C 0.42837 0.67311 0.67838
 C725 C 0.45301 0.66865 0.69925
 H726 H 0.42454 0.69367 0.66356
 H727 H 0.46335 0.63059 0.73115
 H728 H 0.41411 0.60447 0.71053
 N729 N 0.41970 0.16435 0.27531
 N730 N 0.39841 0.14764 0.25660
 C731 C 0.39296 0.16507 0.23012
 C732 C 0.41084 0.19304 0.23174
 C733 C 0.42699 0.19161 0.26013
 H734 H 0.41214 0.21238 0.21478
 H735 H 0.42803 0.15668 0.29724
 H736 H 0.38891 0.12561 0.26319
 N737 N -0.04346 0.72456 0.15642
 N738 N -0.06947 0.71423 0.13915
 C739 C -0.08573 0.69237 0.15693
 C740 C -0.07014 0.68790 0.18549
 C741 C -0.04451 0.70921 0.18455
 H742 H -0.07852 0.67395 0.20578
 H743 H -0.02821 0.74328 0.14960
 H744 H -0.07479 0.72269 0.11653
 N745 N -0.09072 0.24828 0.68004
 N746 N -0.11469 0.23577 0.66157
 C747 C -0.11778 0.20465 0.66848
 C748 C -0.09671 0.19707 0.69274
 C749 C -0.07961 0.22497 0.69833
 H750 H -0.09195 0.17392 0.70242
 H751 H -0.08218 0.27150 0.67846
 H752 H -0.12770 0.24916 0.64553
 N753 N 0.23759 0.40028 0.28572
 N754 N 0.24333 0.37501 0.30312
 C755 C 0.27465 0.37490 0.31014
 C756 C 0.28968 0.40108 0.29578
 C757 C 0.26510 0.41668 0.28089
 H758 H 0.31403 0.40939 0.29873
 H759 H 0.21486 0.40685 0.27848
 H760 H 0.22567 0.35885 0.31089
 N761 N 0.35855 -0.08483 0.77236
 N762 N 0.37380 -0.11205 0.78237
 C763 C 0.35648 -0.12494 0.80691
 C764 C 0.33054 -0.10554 0.81331
 C765 C 0.33256 -0.08125 0.79109
 H766 H 0.31117 -0.10925 0.83039
 H767 H 0.36540 -0.07109 0.75255
 H768 H 0.39388 -0.12092 0.77075
 N769 N 0.76977 0.43526 0.83662
 N770 N 0.78553 0.41119 0.85219
 C771 C 0.80687 0.39881 0.83154
 C772 C 0.80539 0.41522 0.80263
 C773 C 0.78155 0.43728 0.80680
 H774 H 0.81842 0.41064 0.78082
 H775 H 0.75150 0.44858 0.84665
 H776 H 0.78152 0.40544 0.87609
 N777 N 0.84282 -0.02676 0.25245
 N778 N 0.85827 -0.05267 0.26508
 C779 C 0.83753 -0.06791 0.28515
 C780 C 0.80870 -0.05169 0.28612
 C781 C 0.81283 -0.02670 0.26462
 H782 H 0.78660 -0.05896 0.29810
 H783 H 0.85249 -0.01184 0.23469
 H784 H 0.88186 -0.05843 0.25945
 N785 N 0.25378 0.57017 0.67652
 N786 N 0.27100 0.59164 0.66047
 C787 C 0.30149 0.59130 0.67056
 C788 C 0.30341 0.56836 0.69444
 C789 C 0.27262 0.55549 0.69735
 H790 H 0.32421 0.56168 0.70766
 H791 H 0.22941 0.56584 0.67325
 H792 H 0.26152 0.60652 0.64327
 N793 N 0.28543 1.04945 0.17073
 N794 N 0.30393 1.07299 0.16027
 C795 C 0.31594 1.08815 0.18536
 C796 C 0.30496 1.07314 0.21305
 C797 C 0.28543 1.04900 0.20262
 H798 H 0.30874 1.08007 0.23727
 H799 H 0.27260 1.03437 0.15615
 H800 H 0.30775 1.07859 0.13630
 N801 N 0.81149 0.55965 0.15140
 N802 N 0.82605 0.58375 0.13694
 C803 C 0.83451 0.60485 0.15880
 C804 C 0.82523 0.59356 0.18871
 C805 C 0.81028 0.56492 0.18278
 H806 H 0.82547 0.60616 0.21079
 H807 H 0.80071 0.54092 0.13967
 H808 H 0.82831 0.58654 0.11235
 N809 N 0.78445 1.06446 0.65281
 N810 N 0.79784 1.08873 0.63429
 C811 C 0.81516 1.10773 0.65316
 C812 C 0.81386 1.09488 0.68411
 C813 C 0.79397 1.06818 0.68267
 H814 H 0.82430 1.10445 0.70520
 H815 H 0.76939 1.04672 0.64445
 H816 H 0.79466 1.09024 0.60990
 N817 N 0.68366 0.60866 0.24144
 N818 N 0.67202 0.63327 0.25632
 C819 C 0.68624 0.63580 0.28469
 C820 C 0.70802 0.61165 0.28765
 C821 C 0.70559 0.59507 0.25986
 H822 H 0.72304 0.60613 0.30749
 H823 H 0.67657 0.60137 0.21909
 H824 H 0.65479 0.64797 0.24681
 N825 N 0.74806 1.08171 0.83031
 N826 N 0.73068 1.10519 0.84518
 C827 C 0.70374 1.10992 0.82858
 C828 C 0.70359 1.08934 0.80308
 C829 C 0.73149 1.07230 0.80512
 H830 H 0.68561 1.08659 0.78523
 H831 H 0.77007 1.07335 0.83777
 H832 H 0.73881 1.11726 0.86485
 N833 N 0.23631 0.56095 0.84164
 N834 N 0.22124 0.58600 0.85646
 C835 C 0.19375 0.59180 0.84112
 C836 C 0.19086 0.57019 0.81668
 C837 C 0.21776 0.55163 0.81780
 H838 H 0.17206 0.56814 0.79958
 H839 H 0.25843 0.55189 0.84788
 H840 H 0.23119 0.59828 0.87515
 N841 N 0.15149 1.07289 0.26127
 N842 N 0.13847 1.09720 0.27542
 C843 C 0.15479 1.10354 0.30193
 C844 C 0.17933 1.08198 0.30466
 C845 C 0.17639 1.06308 0.27834
 H846 H 0.19708 1.08041 0.32291
 H847 H 0.14328 1.06318 0.24029
 H848 H 0.11837 1.10873 0.26709
 N849 N 0.65409 0.43861 0.71270
 N850 N 0.63860 0.41706 0.69666
 C851 C 0.65994 0.39743 0.68330
 C852 C 0.69068 0.40775 0.69076
 C853 C 0.68566 0.43371 0.70977
 H854 H 0.71330 0.39737 0.68428
 H855 H 0.64305 0.45677 0.72498
 H856 H 0.61375 0.41641 0.69496
 N857 N 0.73719 -0.05160 0.14429
 N858 N 0.72041 -0.07672 0.13119
 C859 C 0.69557 -0.08463 0.15104
 C860 C 0.69647 -0.06473 0.17702
 C861 C 0.72254 -0.04469 0.17186
 H862 H 0.68033 -0.06419 0.19733
 H863 H 0.75724 -0.04027 0.13393
 H864 H 0.72666 -0.08648 0.10947
 N865 N 0.22203 0.47627 0.14568
 N866 N 0.20470 0.45645 0.12915
 C867 C 0.18383 0.44122 0.14902
 C868 C 0.18740 0.45261 0.17933
 C869 C 0.21238 0.47410 0.17627
 H870 H 0.17758 0.44245 0.20120
 H871 H 0.24186 0.48896 0.13657
 H872 H 0.20926 0.45138 0.10536
 N873 N 0.19476 -0.11411 0.76646
 N874 N 0.18318 -0.13777 0.75007
 C875 C 0.19493 -0.13545 0.72006
 C876 C 0.21484 -0.10920 0.71730
 C877 C 0.21395 -0.09636 0.74717
 H878 H 0.22790 -0.10041 0.69649
 H879 H 0.18972 -0.11046 0.79046
 H880 H 0.16795 -0.15534 0.75964
 N881 N 0.22392 0.30605 0.44491
 N882 N 0.23521 0.32250 0.42020
 C883 C 0.26181 0.30860 0.40898
 C884 C 0.26755 0.28195 0.42750
 C885 C 0.24300 0.28130 0.44997
 H886 H 0.28673 0.26532 0.42504
 H887 H 0.20350 0.31188 0.45809
 H888 H 0.22506 0.34325 0.41183
 N889 N 0.29478 0.74764 -0.09981
 N890 N 0.31454 0.75557 -0.12337
 C891 C 0.32114 0.78664 -0.12200
 C892 C 0.30412 0.79930 -0.09665
 C893 C 0.28805 0.77345 -0.08305
 H894 H 0.30569 0.82299 -0.08771
 H895 H 0.28700 0.72460 -0.09461
 H896 H 0.32398 0.73964 -0.13952
 N897 N 0.82293 0.26713 -0.06589
 N898 N 0.84013 0.28055 -0.08920
 C899 C 0.82327 0.30428 -0.10196
 C900 C 0.79394 0.30570 -0.08586
 C901 C 0.79481 0.28197 -0.06328
 H902 H 0.77440 0.32158 -0.08966
 H903 H 0.83063 0.24840 -0.05180
 H904 H 0.86319 0.27365 -0.09559
 N905 N 0.78384 0.85208 0.41134
 N906 N 0.79249 0.86735 0.38500
 C907 C 0.81771 0.85276 0.37162
 C908 C 0.82537 0.82697 0.39065
 C909 C 0.80326 0.82746 0.41544
 H910 H 0.84391 0.80988 0.38696
 H911 H 0.76443 0.85817 0.42584
 H912 H 0.78049 0.88692 0.37635
 N913 N 0.70037 0.26164 0.59014
 N914 N 0.68444 0.27167 0.61519
 C915 C 0.68534 0.30341 0.61498
 C916 C 0.70345 0.31409 0.58882
 C917 C 0.71203 0.28668 0.57350
 H918 H 0.70662 0.33808 0.58021
 H919 H 0.70204 0.23802 0.58392
 H920 H 0.67176 0.25692 0.63119
 N921 N 0.64174 0.79210 1.05177
 N922 N 0.63078 0.81049 1.07424
 C923 C 0.65549 0.82705 1.08607
 C924 C 0.68343 0.81929 1.06966
 C925 C 0.67354 0.79677 1.04841
 H926 H 0.70772 0.82683 1.07428
 H927 H 0.62767 0.77603 1.03950
 H928 H 0.60677 0.81108 1.08145
 N929 N 0.25127 0.31826 1.10053
 N930 N 0.23612 0.33871 1.11823
 C931 C 0.20430 0.33367 1.11596
 C932 C 0.19893 0.30812 1.09656
 C933 C 0.22950 0.29952 1.08694
 H934 H 0.17628 0.29915 1.08826
 H935 H 0.27609 0.31778 1.09720
 H936 H 0.24760 0.35642 1.13083
 N937 N 0.26223 0.82297 0.58354
 N938 N 0.24740 0.83365 0.60905
 C939 C 0.22318 0.81355 0.61739
 C940 C 0.22283 0.78896 0.59618
 C941 C 0.24784 0.79590 0.57518
 H942 H 0.20652 0.76897 0.59561
 H943 H 0.28142 0.83446 0.57178
 H944 H 0.25346 0.85483 0.61976
 N945 N 0.35662 0.69832 0.54622
 N946 N 0.36866 0.68065 0.56893
 C947 C 0.34442 0.66698 0.58612
 C948 C 0.31565 0.67601 0.57316
 C949 C 0.32452 0.69614 0.54819
 H950 H 0.29166 0.67071 0.58204
 H951 H 0.37026 0.71212 0.53011
 H952 H 0.39315 0.67859 0.57264
 N953 N 0.34818 0.22387 1.08981
 N954 N 0.36119 0.21027 1.11477
 C955 C 0.34051 0.18834 1.12693
 C956 C 0.31310 0.18820 1.10884
 C957 C 0.31894 0.21095 1.08561
 H958 H 0.29157 0.17398 1.11232
 H959 H 0.35914 0.24183 1.07609
 H960 H 0.38401 0.21576 1.12288
 N961 N 0.79461 0.74915 1.08237
 N962 N 0.81418 0.73747 1.10341
 C963 C 0.81286 0.70580 1.10218
 C964 C 0.79062 0.69687 1.07974
 C965 C 0.78003 0.72529 1.06751
 H966 H 0.78506 0.67341 1.07166
 H967 H 0.79199 0.77318 1.07771
 H968 H 0.82850 0.75123 1.11793
 N969 N 0.84134 0.21689 0.52567
 N970 N 0.85484 0.20026 0.54826
 C971 C 0.83172 0.18740 0.56729
 C972 C 0.80206 0.19574 0.55591
 C973 C 0.80937 0.21484 0.52973
 H974 H 0.77899 0.19251 0.56773
 H975 H 0.85391 0.23123 0.50920
 H976 H 0.87947 0.19980 0.55192
 N977 N 0.75317 0.68014 0.41656
 N978 N 0.73547 0.66858 0.39389
 C979 C 0.71463 0.69065 0.38463
 C980 C 0.71887 0.71732 0.40295
 C981 C 0.74379 0.70961 0.42258
 H982 H 0.70717 0.73976 0.40086
 H983 H 0.77172 0.66808 0.42737
 H984 H 0.73807 0.64595 0.38504
 N985 N 0.64372 0.21855 -0.05913
 N986 N 0.63376 0.20238 -0.08356
 C987 C 0.65897 0.18778 -0.09689
 C988 C 0.68612 0.19443 -0.07948
 C989 C 0.67532 0.21428 -0.05603
 H990 H 0.71063 0.18829 -0.08487
 H991 H 0.62922 0.23311 -0.04548
 H992 H 0.61014 0.20215 -0.09113
 N993 N 0.14943 0.71412 -0.05347
 N994 N 0.13684 0.69646 -0.07558
 C995 C 0.16017 0.67941 -0.08921
 C996 C 0.18892 0.68613 -0.07435
 C997 C 0.18096 0.70853 -0.05209
 H998 H 0.21260 0.67810 -0.08069
 H999 H 0.13668 0.73044 -0.04019
 H1000 H 0.11270 0.69677 -0.08141
 N1001 N 0.18329 0.13452 0.45230
 N1002 N 0.17090 0.12611 0.42512
 C1003 C 0.16051 0.15204 0.40989
 C1004 C 0.16592 0.17804 0.42887
 C1005 C 0.18058 0.16585 0.45541
 H1006 H 0.16301 0.20264 0.42277
 H1007 H 0.19491 0.11921 0.46771
 H1008 H 0.17075 0.10307 0.41693
 N1009 N 0.24151 0.40927 0.67376
 N1010 N 0.25407 0.38350 0.66199
 C1011 C 0.28290 0.37896 0.67508
 C1012 C 0.28892 0.40335 0.69574
 C1013 C 0.26207 0.42174 0.69444
 H1014 H 0.30906 0.40666 0.71109
 H1015 H 0.21866 0.41729 0.66869
 H1016 H 0.24214 0.36873 0.64646
 N1017 N 0.31423 0.91644 0.24418
 N1018 N 0.33003 0.89477 0.22858
 C1019 C 0.31358 0.88685 0.20255
 C1020 C 0.28593 0.90472 0.20172
 C1021 C 0.28736 0.92309 0.22862
 H1022 H 0.26759 0.90480 0.18400
 H1023 H 0.32223 0.92695 0.26485
 H1024 H 0.35223 0.88653 0.23555
 N1025 N 0.82170 0.42812 0.24141
 N1026 N 0.83440 0.40354 0.22741
 C1027 C 0.82030 0.39942 0.19922
 C1028 C 0.79734 0.42246 0.19548
 C1029 C 0.79912 0.44011 0.22264
 H1030 H 0.78214 0.42671 0.17547
 H1031 H 0.82862 0.43654 0.26340
 H1032 H 0.85234 0.39000 0.23737
 N1033 N 0.77089 0.92742 0.66754
 N1034 N 0.78655 0.90428 0.65407
 C1035 C 0.81536 0.90161 0.66769
 C1036 C 0.81801 0.92421 0.69095
 C1037 C 0.78932 0.94003 0.68997
 H1038 H 0.83784 0.92857 0.70645
 H1039 H 0.74779 0.93409 0.66164
 H1040 H 0.77705 0.89024 0.63638
 N1041 N 0.66998 0.54792 0.68215
 N1042 N 0.66005 0.57071 0.66342
 C1043 C 0.68561 0.58811 0.65327
 C1044 C 0.71322 0.57523 0.66551
 C1045 C 0.70202 0.55007 0.68398
 H1046 H 0.73742 0.58466 0.66391
 H1047 H 0.65488 0.53183 0.69432
 H1048 H 0.63601 0.57461 0.65863
 N1049 N 0.68453 0.07677 0.14754
 N1050 N 0.66667 0.10032 0.13811
 C1051 C 0.65566 0.11547 0.16386
 C1052 C 0.66641 0.10020 0.19094
 C1053 C 0.68489 0.07608 0.17942
 H1054 H 0.66436 0.10774 0.21526
 H1055 H 0.69750 0.06238 0.13228
 H1056 H 0.66331 0.10641 0.11435
 N1057 N 0.27180 0.60160 0.18615
 N1058 N 0.25664 0.62659 0.17533
 C1059 C 0.22810 0.62863 0.19083
 C1060 C 0.22549 0.60395 0.21262
 C1061 C 0.25338 0.58739 0.20882
 H1062 H 0.20531 0.59732 0.22785
 H1063 H 0.29386 0.59399 0.17739
 H1064 H 0.26572 0.64135 0.15719
 N1065 N 0.17060 0.04395 0.77229
 N1066 N 0.15341 0.06550 0.75782
 C1067 C 0.16561 0.07057 0.72822
 C1068 C 0.19155 0.05111 0.72381
 C1069 C 0.19394 0.03483 0.75221
 H1070 H 0.20706 0.04922 0.70311
 H1071 H 0.16668 0.03617 0.79568
 H1072 H 0.13427 0.07693 0.76863
 N1073 N 0.35151 0.53148 0.31349
 N1074 N 0.36591 0.55491 0.32797
 C1075 C 0.34412 0.57705 0.33454
 C1076 C 0.31439 0.56676 0.32465
 C1077 C 0.32027 0.53810 0.31086
 H1078 H 0.29280 0.58038 0.32300
 H1079 H 0.36340 0.51253 0.30343
 H1080 H 0.39056 0.55644 0.33131
 N1081 N 0.33194 0.06820 0.77843
 N1082 N 0.34434 0.09227 0.79348
 C1083 C 0.33395 0.09105 0.82400
 C1084 C 0.31382 0.06502 0.82846
 C1085 C 0.31339 0.05120 0.79895
 H1086 H 0.30126 0.05724 0.84993
 H1087 H 0.33585 0.06387 0.75437
 H1088 H 0.35897 0.10954 0.78252
 N1089 N 0.83369 0.56646 0.76460
 N1090 N 0.84720 0.58936 0.78065
 C1091 C 0.82570 0.60043 0.80191
 C1092 C 0.79718 0.58341 0.79914
 C1093 C 0.80334 0.56225 0.77518
 H1094 H 0.77501 0.58599 0.81244
 H1095 H 0.84534 0.55373 0.74695
 H1096 H 0.87100 0.59655 0.77718
 N1097 N 0.75083 0.10163 0.31028
 N1098 N 0.76481 0.12577 0.32408
 C1099 C 0.78965 0.13609 0.30559
 C1100 C 0.79123 0.11771 0.27866
 C1101 C 0.76635 0.09613 0.28269
 H1102 H 0.80836 0.11921 0.25911
 H1103 H 0.73135 0.08884 0.31999
 H1104 H 0.75792 0.13412 0.34628
 N1105 N 0.65483 0.47865 0.28821
 N1106 N 0.63762 0.45884 0.30614
 C1107 C 0.65752 0.44053 0.32281
 C1108 C 0.68899 0.44980 0.31572
 C1109 C 0.68601 0.47375 0.29331
 H1110 H 0.71075 0.43886 0.32344
 H1111 H 0.64526 0.49468 0.27209
 H1112 H 0.61265 0.45765 0.30622
 N1113 N 0.74479 0.92311 0.82471
 N1114 N 0.72920 0.89743 0.83484
 C1115 C 0.70209 0.89396 0.81822
 C1116 C 0.70050 0.91896 0.79663
 C1117 C 0.72804 0.93680 0.80151
 H1118 H 0.68250 0.92314 0.77905
 H1119 H 0.76699 0.93053 0.83301
 H1120 H 0.73792 0.88208 0.85205
 N1121 N 0.23754 0.40322 0.83295
 N1122 N 0.22487 0.37807 0.84727
 C1123 C 0.19505 0.37296 0.83659
 C1124 C 0.18864 0.39629 0.81388
 C1125 C 0.21639 0.41517 0.81257
 H1126 H 0.16705 0.39917 0.80049
 H1127 H 0.26064 0.41179 0.83697
 H1128 H 0.23704 0.36435 0.86370
 N1129 N 0.14110 0.93535 0.29904
 N1130 N 0.12727 0.91342 0.31724
 C1131 C 0.14973 0.89945 0.33491
 C1132 C 0.17924 0.91395 0.32819
 C1133 C 0.17257 0.93625 0.30493
 H1134 H 0.20242 0.90764 0.33705
 H1135 H 0.12913 0.94915 0.28250
 H1136 H 0.10281 0.90808 0.31702
 N1137 N 0.40650 0.31808 0.74902
 N1138 N 0.38108 0.32954 0.73508
 C1139 C 0.37362 0.31139 0.71011
 C1140 C 0.39551 0.28709 0.70857
 C1141 C 0.41587 0.29233 0.73353
 H1142 H 0.39712 0.26848 0.69145
 H1143 H 0.41719 0.32789 0.76881
 H1144 H 0.36951 0.34961 0.74293
 N1145 N 0.42463 0.76480 0.16997
 N1146 N 0.39894 0.77625 0.15651
 C1147 C 0.38889 0.80124 0.17316
 C1148 C 0.40922 0.80562 0.19843
 C1149 C 0.43144 0.78214 0.19544
 H1150 H 0.40861 0.82366 0.21622
 H1151 H 0.43712 0.74534 0.16179
 H1152 H 0.38864 0.76668 0.13644
 N1153 N 0.93461 0.28512 0.14890
 N1154 N 0.90860 0.29811 0.13755
 C1155 C 0.89521 0.31618 0.16016
 C1156 C 0.91383 0.31455 0.18697
 C1157 C 0.93840 0.29469 0.17884
 H1158 H 0.90987 0.32554 0.20963
 H1159 H 0.94938 0.26995 0.13628
 H1160 H 0.90064 0.29463 0.11458
 N1161 N 0.94402 0.83815 0.73301
 N1162 N 0.92206 0.85402 0.71765
 C1163 C 0.91084 0.83611 0.69408
 C1164 C 0.92651 0.80747 0.69461
 C1165 C 0.94725 0.80976 0.71969
 H1166 H 0.92300 0.78755 0.67934
 H1167 H 0.95641 0.84669 0.75241
 H1168 H 0.91535 0.87688 0.72315
 N1169 N 0.52913 0.35599 0.32039
 N1170 N 0.55165 0.37482 0.33103
 C1171 C 0.57525 0.35726 0.34306
 C1172 C 0.56689 0.32558 0.34069
 C1173 C 0.53761 0.32602 0.32565
 H1174 H 0.58125 0.30534 0.34629
 H1175 H 0.50864 0.36365 0.30898
 H1176 H 0.55114 0.39934 0.32910
 N1177 N 0.58279 0.82715 0.73551
 N1178 N 0.60398 0.84276 0.75240
 C1179 C 0.61600 0.82296 0.77430
 C1180 C 0.60207 0.79339 0.77069
 C1181 C 0.58105 0.79711 0.74621
 H1182 H 0.60572 0.77215 0.78453
 H1183 H 0.56917 0.83721 0.71764
 H1184 H 0.60898 0.86682 0.74966
 N1185 N 0.08890 0.23941 0.81202
 N1186 N 0.11334 0.25140 0.82723
 C1187 C 0.11433 0.28295 0.82278
 C1188 C 0.08957 0.29132 0.80285
 C1189 C 0.07379 0.26283 0.79710
 H1190 H 0.08250 0.31474 0.79579
 H1191 H 0.08252 0.21553 0.81225
 H1192 H 0.12850 0.23805 0.84129
 N1193 N 0.04619 0.76626 0.35928
 N1194 N 0.06749 0.78189 0.37594
 C1195 C 0.08275 0.80323 0.35669
 C1196 C 0.07038 0.80105 0.32659
 C1197 C 0.04746 0.77739 0.32923
 H1198 H 0.07790 0.81377 0.30523
 H1199 H 0.03150 0.74798 0.36832
 H1200 H 0.07135 0.77775 0.40000
 N1201 N 0.58774 0.72062 0.62695
 N1202 N 0.61345 0.70840 0.61339
 C1203 C 0.62480 0.68577 0.63274
 C1204 C 0.60538 0.68366 0.65976
 C1205 C 0.58227 0.70609 0.65520
 H1206 H 0.60825 0.66872 0.68049
 H1207 H 0.57464 0.73899 0.61721
 H1208 H 0.62284 0.71551 0.59125
 N1209 N 0.57819 0.19891 0.26786
 N1210 N 0.59879 0.18673 0.24765
 C1211 C 0.59257 0.19763 0.21828
 C1212 C 0.56705 0.21811 0.21993
 C1213 C 0.55847 0.21785 0.25183
 H1214 H 0.55533 0.22999 0.20060
 H1215 H 0.57741 0.19380 0.29217
 H1216 H 0.61663 0.17110 0.25412
 N1217 N 0.08166 0.66004 0.24919
 N1218 N 0.10880 0.65067 0.23588
 C1219 C 0.12101 0.67433 0.21732
 C1220 C 0.10104 0.69974 0.21933
 C1221 C 0.07640 0.68978 0.23939
 H1222 H 0.10362 0.72242 0.20742
 H1223 H 0.06687 0.64608 0.26412
 H1224 H 0.11808 0.62816 0.23878
 N1225 N 0.03186 0.14295 0.71247
 N1226 N 0.05493 0.12445 0.70268
 C1227 C 0.08007 0.14241 0.69255
 C1228 C 0.07242 0.17395 0.69552
 C1229 C 0.04173 0.17312 0.70879
 H1230 H 0.08822 0.19422 0.69233
 H1231 H 0.01043 0.13490 0.72317
 H1232 H 0.05405 0.09992 0.70464
 N1233 N 0.46501 0.67007 0.30022
 N1234 N 0.44400 0.65200 0.31591
 C1235 C 0.41843 0.66934 0.32417
 C1236 C 0.42403 0.70028 0.31386
 C1237 C 0.45368 0.69944 0.29840
 H1238 H 0.40801 0.71997 0.31538
 H1239 H 0.48669 0.66224 0.29075
 H1240 H 0.44729 0.62805 0.32038
 N1241 N 0.44381 0.21369 0.85764
 N1242 N 0.42182 0.19733 0.87412
 C1243 C 0.40663 0.17775 0.85433
 C1244 C 0.41970 0.18182 0.82404
 C1245 C 0.44297 0.20478 0.82716
 H1246 H 0.41223 0.17100 0.80230
 H1247 H 0.45868 0.23099 0.86709
 H1248 H 0.41734 0.19987 0.89836
 N1249 N 0.93291 0.72557 0.84192
 N1250 N 0.90765 0.71110 0.85512
 C1251 C 0.89414 0.69221 0.83349
 C1252 C 0.91175 0.69493 0.80535
 C1253 C 0.93599 0.71614 0.81175
 H1254 H 0.90766 0.68334 0.78312
 H1255 H 0.94789 0.74131 0.85359
 H1256 H 0.90048 0.71385 0.87873
 N1257 N 0.93791 0.17632 0.26137
 N1258 N 0.91097 0.16521 0.27455
 C1259 C 0.89753 0.18806 0.29207
 C1260 C 0.91715 0.21461 0.29014
 C1261 C 0.94220 0.20627 0.27039
 H1262 H 0.91288 0.23761 0.29985
 H1263 H 0.95255 0.16377 0.24589
 H1264 H 0.90202 0.14250 0.27102
 N1265 N 0.32001 0.24825 0.57756
 N1266 N 0.33283 0.26400 0.60095
 C1267 C 0.31037 0.28245 0.61402
 C1268 C 0.28186 0.27821 0.59793
 C1269 C 0.28909 0.25622 0.57507
 H1270 H 0.25897 0.28891 0.60262
 H1271 H 0.33234 0.23206 0.56373
 H1272 H 0.35673 0.26220 0.60739
 N1273 N 0.28202 0.85015 0.05292
 N1274 N 0.29440 0.86103 0.07922
 C1275 C 0.30851 0.83719 0.09469
 C1276 C 0.30526 0.80993 0.07709
 C1277 C 0.28799 0.81915 0.05093
 H1278 H 0.31192 0.78627 0.08378
 H1279 H 0.26839 0.86355 0.03740
 H1280 H 0.29249 0.88428 0.08659
 N1281 N 0.76114 0.35165 0.06460
 N1282 N 0.77738 0.36365 0.08811
 C1283 C 0.79576 0.34104 0.10064
 C1284 C 0.79111 0.31334 0.08412
 C1285 C 0.76878 0.32117 0.06162
 H1286 H 0.80162 0.29061 0.08845
 H1287 H 0.74485 0.36421 0.05108
 H1288 H 0.77592 0.38705 0.09509
 N1289 N 0.87479 0.80247 0.54635
 N1290 N 0.88475 0.81515 0.57280
 C1291 C 0.85939 0.82713 0.58839
 C1292 C 0.83206 0.82210 0.57080
 C1293 C 0.84292 0.80614 0.54448
 H1294 H 0.80757 0.82743 0.57720
 H1295 H 0.88957 0.79070 0.53035
 H1296 H 0.90850 0.81519 0.57999
 N1297 N 0.26532 0.68674 0.40444
 N1298 N 0.27998 0.67078 0.38204
 C1299 C 0.31156 0.67798 0.38211
 C1300 C 0.31706 0.70023 0.40518
 C1301 C 0.28711 0.70466 0.41906
 H1302 H 0.33988 0.70934 0.41294
 H1303 H 0.24096 0.68451 0.41023
 H1304 H 0.26850 0.65444 0.36776
 N1305 N 0.27177 0.14698 0.95857
 N1306 N 0.28674 0.13270 0.93508
 C1307 C 0.30906 0.15261 0.92212
 C1308 C 0.30809 0.18082 0.93824
 C1309 C 0.28416 0.17625 0.96104
 H1310 H 0.32234 0.20198 0.93387
 H1311 H 0.25342 0.13673 0.97260
 H1312 H 0.28183 0.10956 0.92853
 N1313 N 0.76177 0.65278 0.93661
 N1314 N 0.77796 0.63995 0.91310
 C1315 C 0.79705 0.66220 0.89912
 C1316 C 0.79291 0.69049 0.91479
 C1317 C 0.77021 0.68343 0.93827
 H1318 H 0.80372 0.71325 0.90913
 H1319 H 0.74484 0.64070 0.95096
 H1320 H 0.77583 0.61631 0.90703
 N1321 N 0.82042 0.27510 0.39575
 N1322 N 0.83274 0.26025 0.37122
 C1323 C 0.81740 0.23223 0.36838
 C1324 C 0.79392 0.22949 0.39206
 C1325 C 0.79685 0.25706 0.40897
 H1326 H 0.77810 0.20961 0.39738
 H1327 H 0.82844 0.29702 0.40350
 H1328 H 0.85142 0.26940 0.35690
 N1329 N 0.70368 0.36976 0.45250
 N1330 N 0.68687 0.38565 0.43176
 C1331 C 0.67103 0.36513 0.41350
 C1332 C 0.67766 0.33461 0.42351
 C1333 C 0.69892 0.33875 0.44805
 H1334 H 0.67040 0.31277 0.41272
 H1335 H 0.71904 0.38014 0.46868
 H1336 H 0.68698 0.41018 0.42978
 N1337 N 0.64748 0.76194 0.91451
 N1338 N 0.63769 0.77795 0.88947
 C1339 C 0.66068 0.79920 0.88041
 C1340 C 0.68605 0.79652 0.90077
 C1341 C 0.67678 0.77266 0.92186
 H1342 H 0.70852 0.80956 0.90008
 H1343 H 0.63414 0.74421 0.92634
 H1344 H 0.61545 0.77434 0.87923
 N1345 N 0.16185 0.26583 0.96620
 N1346 N 0.14706 0.27916 0.94226
 C1347 C 0.16867 0.29563 0.92420
 C1348 C 0.19861 0.29287 0.93759
 C1349 C 0.19321 0.27342 0.96397
 H1350 H 0.22136 0.30173 0.92820
 H1351 H 0.15064 0.25120 0.98334
 H1352 H 0.12265 0.27631 0.93811
 N1353 N 0.17503 0.80876 0.47642
 N1354 N 0.15570 0.82381 0.45734
 C1355 C 0.17102 0.82940 0.42940
 C1356 C 0.20181 0.81764 0.43084
 C1357 C 0.20310 0.80443 0.46108
 H1358 H 0.21897 0.81525 0.41152
 H1359 H 0.16836 0.79998 0.49891
 H1360 H 0.13165 0.82807 0.46262
 N1361 N 0.78002 0.67492 0.55643
 N1362 N 0.76235 0.65798 0.57698
 C1363 C 0.73393 0.67225 0.58163
 C1364 C 0.73395 0.69955 0.56326
 C1365 C 0.76336 0.70030 0.54772
 H1366 H 0.71500 0.71635 0.56056
 H1367 H 0.80288 0.66891 0.54839
 H1368 H 0.76999 0.63700 0.58725
 N1369 N 0.63851 0.25953 0.07728
 N1370 N 0.62379 0.24535 0.10180
 C1371 C 0.64015 0.21933 0.10974
 C1372 C 0.66640 0.21709 0.08941
 C1373 C 0.66452 0.24288 0.06931
 H1374 H 0.68495 0.19963 0.08955
 H1375 H 0.63091 0.28030 0.06645
 H1376 H 0.60286 0.25342 0.11261
 N1377 N 0.17206 0.75431 0.09065
 N1378 N 0.16421 0.74070 0.11818
 C1379 C 0.18216 0.71478 0.12223
 C1380 C 0.20230 0.71198 0.09603
 C1381 C 0.19508 0.73738 0.07665
 H1382 H 0.21982 0.69406 0.09149
 H1383 H 0.16213 0.77506 0.08199
 H1384 H 0.14730 0.74969 0.13400
 N1385 N 0.21812 0.12917 0.59035
 N1386 N 0.20492 0.11505 0.61562
 C1387 C 0.18186 0.13360 0.62771
 C1388 C 0.18028 0.16063 0.60901
 C1389 C 0.20371 0.15688 0.58572
 H1390 H 0.16475 0.18052 0.61214
 H1391 H 0.23648 0.11975 0.57648
 H1392 H 0.21136 0.09278 0.62382
   
