data_POSCAR
  _audit_creation_date              2014-09-24
  _audit_creation_method            'ToBaCCo'
  _symmetry_space_group_name_H-M    'P1'
  _symmetry_Int_Tables_number       1
  _symmetry_cell_setting            triclinic
  loop_
  _symmetry_equiv_pos_as_xyz
 x,y,z
_cell_length_a 70.0806
_cell_length_b 70.1686
_cell_length_c 70.1054
_cell_angle_alpha 89.991700
_cell_angle_beta 89.968000
_cell_angle_gamma 90.002800
loop_
  _atom_site_label
  _atom_site_type_symbol
  _atom_site_fract_x
  _atom_site_fract_y
  _atom_site_fract_z
C1 C 0.19232 0.21881 0.21344
 C2 C 0.20297 0.22415 0.19737
 C3 C 0.21887 0.21365 0.19209
 C4 C 0.22431 0.19769 0.20283
 C5 C 0.21378 0.19242 0.21872
 C6 C 0.19769 0.20304 0.22405
 C7 C 0.17626 0.22635 0.22188
 N8 N 0.17189 0.21550 0.23725
 C9 C 0.18481 0.20123 0.23878
 C10 C 0.22229 0.17646 0.22634
 N11 N 0.23762 0.17205 0.21543
 C12 C 0.23906 0.18485 0.20104
 C13 C 0.22640 0.22207 0.17602
 N14 N 0.21542 0.23731 0.17155
 C15 C 0.20108 0.23878 0.18442
 H16 H 0.16834 0.23876 0.21724
 H17 H 0.18480 0.19040 0.24978
 H18 H 0.21772 0.16861 0.23883
 H19 H 0.25000 0.18478 0.19013
 H20 H 0.23889 0.21751 0.16816
 H21 H 0.19013 0.24967 0.18432
 C22 C 0.69214 0.71844 0.71337
 C23 C 0.70279 0.72379 0.69730
 C24 C 0.71864 0.71326 0.69196
 C25 C 0.72403 0.69724 0.70264
 C26 C 0.71351 0.69195 0.71852
 C27 C 0.69747 0.70261 0.72392
 C28 C 0.67613 0.72601 0.72187
 N29 N 0.67175 0.71513 0.73721
 C30 C 0.68461 0.70080 0.73867
 C31 C 0.72200 0.67595 0.72610
 N32 N 0.73730 0.67154 0.71516
 C33 C 0.73876 0.68437 0.70080
 C34 C 0.72619 0.72172 0.67592
 N35 N 0.71527 0.73702 0.67153
 C36 C 0.70094 0.73849 0.68441
 H37 H 0.66824 0.73847 0.71729
 H38 H 0.68459 0.68993 0.74963
 H39 H 0.71743 0.66810 0.73859
 H40 H 0.74969 0.68430 0.68988
 H41 H 0.73866 0.71714 0.66802
 H42 H 0.69005 0.74944 0.68438
 C43 C 0.30705 0.78149 0.71394
 C44 C 0.29639 0.77613 0.69789
 C45 C 0.28061 0.78674 0.69250
 C46 C 0.27529 0.80283 0.70310
 C47 C 0.28583 0.80813 0.71897
 C48 C 0.30180 0.79739 0.72442
 C49 C 0.32302 0.77387 0.72247
 N50 N 0.32744 0.78480 0.73775
 C51 C 0.31466 0.79920 0.73915
 C52 C 0.27744 0.82422 0.72646
 N53 N 0.26218 0.82867 0.71549
 C54 C 0.26065 0.81579 0.70118
 C55 C 0.27305 0.77827 0.67647
 N56 N 0.28389 0.76289 0.67215
 C57 C 0.29818 0.76138 0.68506
 H58 H 0.33084 0.76135 0.71794
 H59 H 0.31475 0.81013 0.75005
 H60 H 0.28206 0.83209 0.73893
 H61 H 0.24974 0.81586 0.69025
 H62 H 0.26063 0.78290 0.66854
 H63 H 0.30902 0.75038 0.68507
 C64 C 0.80810 0.28127 0.21374
 C65 C 0.79751 0.27586 0.19767
 C66 C 0.78164 0.28634 0.19228
 C67 C 0.77617 0.30236 0.20292
 C68 C 0.78663 0.30771 0.21881
 C69 C 0.80269 0.29711 0.22426
 C70 C 0.82412 0.27376 0.22228
 N71 N 0.82841 0.28470 0.23760
 C72 C 0.81550 0.29899 0.23903
 C73 C 0.77807 0.32370 0.22633
 N74 N 0.76279 0.32804 0.21536
 C75 C 0.76142 0.31518 0.20103
 C76 C 0.77417 0.27784 0.17624
 N77 N 0.78516 0.26257 0.17189
 C78 C 0.79945 0.26115 0.18481
 H79 H 0.83204 0.26131 0.21772
 H80 H 0.81546 0.30990 0.24997
 H81 H 0.78259 0.33159 0.23882
 H82 H 0.75051 0.31519 0.19009
 H83 H 0.76172 0.28238 0.16831
 H84 H 0.81038 0.25025 0.18481
 C85 C 0.80805 0.71936 0.28555
 C86 C 0.79740 0.72473 0.30161
 C87 C 0.78155 0.71419 0.30696
 C88 C 0.77616 0.69816 0.29631
 C89 C 0.78668 0.69285 0.28044
 C90 C 0.80272 0.70350 0.27502
 C91 C 0.82407 0.72692 0.27704
 N92 N 0.82844 0.71599 0.26172
 C93 C 0.81558 0.70166 0.26027
 C94 C 0.77818 0.67684 0.27290
 N95 N 0.76287 0.67245 0.28384
 C96 C 0.76143 0.68530 0.29818
 C97 C 0.77400 0.72266 0.32300
 N98 N 0.78492 0.73797 0.32737
 C99 C 0.79924 0.73944 0.31448
 H100 H 0.83195 0.73939 0.28162
 H101 H 0.81559 0.69076 0.24934
 H102 H 0.78274 0.66897 0.26041
 H103 H 0.75049 0.68526 0.30909
 H104 H 0.76153 0.71808 0.33089
 H105 H 0.81013 0.75039 0.31450
 C106 C 0.30778 0.21903 -0.21422
 C107 C 0.29704 0.22446 -0.19824
 C108 C 0.28114 0.21396 -0.19296
 C109 C 0.27578 0.19792 -0.20361
 C110 C 0.28640 0.19255 -0.21941
 C111 C 0.30249 0.20316 -0.22475
 C112 C 0.32388 0.22654 -0.22263
 N113 N 0.32832 0.21558 -0.23790
 C114 C 0.31545 0.20127 -0.23941
 C115 C 0.27794 0.17652 -0.22697
 N116 N 0.26257 0.17219 -0.21609
 C117 C 0.26103 0.18507 -0.20179
 C118 C 0.27351 0.22247 -0.17699
 N119 N 0.28443 0.23777 -0.17258
 C120 C 0.29883 0.23919 -0.18538
 H121 H 0.33175 0.23900 -0.21803
 H122 H 0.31552 0.19034 -0.25032
 H123 H 0.28259 0.16861 -0.23940
 H124 H 0.25004 0.18508 -0.19091
 H125 H 0.26099 0.21793 -0.16916
 H126 H 0.30975 0.25011 -0.18531
 C127 C 0.69274 0.28062 -0.21402
 C128 C 0.70347 0.27519 -0.19804
 C129 C 0.71935 0.28570 -0.19276
 C130 C 0.72470 0.30177 -0.20339
 C131 C 0.71409 0.30714 -0.21919
 C132 C 0.69802 0.29650 -0.22454
 C133 C 0.67667 0.27309 -0.22245
 N134 N 0.67223 0.28406 -0.23771
 C135 C 0.68509 0.29839 -0.23920
 C136 C 0.72253 0.32319 -0.22673
 N137 N 0.73789 0.32754 -0.21585
 C138 C 0.73942 0.31464 -0.20156
 C139 C 0.72696 0.27718 -0.17679
 N140 N 0.71606 0.26187 -0.17239
 C141 C 0.70167 0.26045 -0.18520
 H142 H 0.66881 0.26061 -0.21786
 H143 H 0.68502 0.30933 -0.25011
 H144 H 0.71788 0.33110 -0.23916
 H145 H 0.75040 0.31464 -0.19068
 H146 H 0.73947 0.28174 -0.16894
 H147 H 0.69076 0.24952 -0.18513
 C148 C 0.19223 0.78150 0.28601
 C149 C 0.20283 0.77610 0.30208
 C150 C 0.21874 0.78656 0.30740
 C151 C 0.22424 0.80253 0.29671
 C152 C 0.21376 0.80786 0.28081
 C153 C 0.19766 0.79728 0.27543
 C154 C 0.17619 0.77399 0.27751
 N155 N 0.17189 0.78488 0.26215
 C156 C 0.18483 0.79913 0.26067
 C157 C 0.22234 0.82382 0.27322
 N158 N 0.23765 0.82814 0.28417
 C159 C 0.23903 0.81532 0.29855
 C160 C 0.22623 0.77808 0.32345
 N161 N 0.21522 0.76285 0.32787
 C162 C 0.20089 0.76143 0.31499
 H163 H 0.16824 0.76158 0.28211
 H164 H 0.18488 0.80998 0.24968
 H165 H 0.21781 0.83169 0.26072
 H166 H 0.24994 0.81533 0.30949
 H167 H 0.23872 0.78260 0.33133
 H168 H 0.18994 0.75055 0.31504
 C169 C 0.46901 0.44227 0.46414
 C170 C 0.47443 0.45293 0.44811
 C171 C 0.46391 0.46879 0.44279
 C172 C 0.44786 0.47418 0.45344
 C173 C 0.44250 0.46365 0.46929
 C174 C 0.45313 0.44760 0.47467
 C175 C 0.47653 0.42625 0.47262
 N176 N 0.46558 0.42186 0.48792
 C177 C 0.45126 0.43473 0.48938
 C178 C 0.42647 0.47214 0.47684
 N179 N 0.42212 0.48746 0.46592
 C180 C 0.43500 0.48891 0.45160
 C181 C 0.47242 0.47635 0.42677
 N182 N 0.48774 0.46543 0.42239
 C183 C 0.48917 0.45109 0.43524
 H184 H 0.48901 0.41837 0.46804
 H185 H 0.44034 0.43469 0.50031
 H186 H 0.41856 0.46757 0.48930
 H187 H 0.43500 0.49985 0.44071
 H188 H 0.46786 0.48882 0.41890
 H189 H 0.50011 0.44019 0.43520
 C190 C -0.03072 -0.05791 0.96393
 C191 C -0.02527 -0.04720 0.94795
 C192 C -0.03574 -0.03130 0.94268
 C193 C -0.05180 -0.02592 0.95333
 C194 C -0.05720 -0.03650 0.96914
 C195 C -0.04660 -0.05259 0.97447
 C196 C -0.02323 -0.07399 0.97235
 N197 N -0.03422 -0.07840 0.98763
 C198 C -0.04853 -0.06551 0.98913
 C199 C -0.07322 -0.02801 0.97671
 N200 N -0.07753 -0.01265 0.96583
 C201 C -0.06462 -0.01115 0.95152
 C202 C -0.02720 -0.02371 0.92670
 N203 N -0.01190 -0.03465 0.92228
 C204 C -0.01052 -0.04903 0.93509
 H205 H -0.01077 -0.08188 0.96775
 H206 H -0.05947 -0.06555 1.00005
 H207 H -0.08115 -0.03264 0.98915
 H208 H -0.06459 -0.00018 0.94066
 H209 H -0.03172 -0.01120 0.91886
 H210 H 0.00040 -0.05995 0.93501
 C211 C 1.03064 0.55749 0.96448
 C212 C 1.02523 0.54682 0.94845
 C213 C 1.03573 0.53094 0.94317
 C214 C 1.05176 0.52553 0.95383
 C215 C 1.05711 0.53608 0.96967
 C216 C 1.04649 0.55215 0.97503
 C217 C 1.02312 0.57355 0.97291
 N218 N 1.03407 0.57794 0.98821
 C219 C 1.04837 0.56505 0.98972
 C220 C 1.07314 0.52759 0.97723
 N221 N 1.07748 0.51226 0.96632
 C222 C 1.06461 0.51079 0.95200
 C223 C 1.02724 0.52338 0.92715
 N224 N 1.01196 0.53433 0.92273
 C225 C 1.01053 0.54868 0.93557
 H226 H 1.01067 0.58145 0.96828
 H227 H 1.05929 0.56508 1.00065
 H228 H 1.08104 0.53219 0.98968
 H229 H 1.06462 0.49986 0.94109
 H230 H 1.03179 0.51090 0.91930
 H231 H 0.99961 0.55960 0.93550
 C232 C 0.53121 0.05723 0.46435
 C233 C 0.52578 0.04657 0.44834
 C234 C 0.53624 0.03067 0.44304
 C235 C 0.55228 0.02524 0.45369
 C236 C 0.55765 0.03578 0.46953
 C237 C 0.54706 0.05186 0.47489
 C238 C 0.52373 0.07329 0.47281
 N239 N 0.53468 0.07766 0.48810
 C240 C 0.54896 0.06475 0.48958
 C241 C 0.57366 0.02726 0.47709
 N242 N 0.57797 0.01193 0.46618
 C243 C 0.56510 0.01048 0.45186
 C244 C 0.52772 0.02312 0.42704
 N245 N 0.51244 0.03409 0.42264
 C246 C 0.51105 0.04844 0.43547
 H247 H 0.51129 0.08121 0.46822
 H248 H 0.55987 0.06477 0.50051
 H249 H 0.58157 0.03185 0.48954
 H250 H 0.56508 -0.00047 0.44096
 H251 H 0.53225 0.01063 0.41918
 H252 H 0.50015 0.05937 0.43542
 C253 C -0.03114 0.05801 0.53653
 C254 C -0.02574 0.04739 0.55259
 C255 C -0.03622 0.03149 0.55790
 C256 C -0.05222 0.02603 0.54721
 C257 C -0.05756 0.03653 0.53135
 C258 C -0.04696 0.05261 0.52598
 C259 C -0.02365 0.07406 0.52806
 N260 N -0.03457 0.07840 0.51274
 C261 C -0.04884 0.06547 0.51126
 C262 C -0.07354 0.02799 0.52377
 N263 N -0.07788 0.01267 0.53468
 C264 C -0.06504 0.01127 0.54903
 C265 C -0.02773 0.02398 0.57394
 N266 N -0.01247 0.03496 0.57835
 C267 C -0.01105 0.04929 0.56548
 H268 H -0.01122 0.08200 0.53266
 H269 H -0.05972 0.06546 0.50030
 H270 H -0.08142 0.03254 0.51129
 H271 H -0.06506 0.00034 0.55994
 H272 H -0.03226 0.01149 0.58181
 H273 H -0.00015 0.06023 0.56553
 C274 C 0.46864 0.55791 0.03594
 C275 C 0.47404 0.54724 0.05196
 C276 C 0.46353 0.53136 0.05726
 C277 C 0.44750 0.52596 0.04659
 C278 C 0.44216 0.53650 0.03075
 C279 C 0.45279 0.55257 0.02539
 C280 C 0.47617 0.57396 0.02749
 N281 N 0.46523 0.57833 0.01218
 C282 C 0.45092 0.56545 0.01068
 C283 C 0.42615 0.52801 0.02318
 N284 N 0.42178 0.51269 0.03408
 C285 C 0.43464 0.51123 0.04841
 C286 C 0.47202 0.52381 0.07328
 N287 N 0.48730 0.53476 0.07769
 C288 C 0.48874 0.54910 0.06485
 H289 H 0.48863 0.58185 0.03210
 H290 H 0.44000 0.56547 -0.00026
 H291 H 0.41825 0.53260 0.01073
 H292 H 0.43461 0.50028 0.05930
 H293 H 0.46746 0.51133 0.08114
 H294 H 0.49966 0.56002 0.06491
 C295 C 0.53169 -0.05793 0.03680
 C296 C 0.52630 -0.04724 0.05281
 C297 C 0.53682 -0.03137 0.05808
 C298 C 0.55287 -0.02601 0.04739
 C299 C 0.55820 -0.03659 0.03157
 C300 C 0.54755 -0.05264 0.02624
 C301 C 0.52412 -0.07396 0.02835
 N302 N 0.53503 -0.07837 0.01304
 C303 C 0.54937 -0.06552 0.01154
 C304 C 0.57423 -0.02813 0.02397
 N305 N 0.57861 -0.01278 0.03483
 C306 C 0.56574 -0.01128 0.04916
 C307 C 0.52833 -0.02378 0.07409
 N308 N 0.51302 -0.03470 0.07852
 C309 C 0.51157 -0.04905 0.06570
 H310 H 0.51164 -0.08181 0.03295
 H311 H 0.56026 -0.06557 0.00057
 H312 H 0.58211 -0.03274 0.01151
 H313 H 0.56577 -0.00031 0.06002
 H314 H 0.53290 -0.01130 0.08193
 H315 H 0.50063 -0.05995 0.06578
 C316 C 1.03131 0.44311 0.53610
 C317 C 1.02596 0.45366 0.55223
 C318 C 1.03650 0.46949 0.55760
 C319 C 1.05252 0.47494 0.54691
 C320 C 1.05780 0.46450 0.53098
 C321 C 1.04714 0.44850 0.52554
 C322 C 1.02374 0.42713 0.52757
 N323 N 1.03463 0.42283 0.51220
 C324 C 1.04895 0.43571 0.51075
 C325 C 1.07382 0.47301 0.52341
 N326 N 1.07823 0.48825 0.53441
 C327 C 1.06540 0.48964 0.54880
 C328 C 1.02805 0.47693 0.57370
 N329 N 1.01276 0.46597 0.57808
 C330 C 1.01128 0.45173 0.56514
 H331 H 1.01129 0.41922 0.53216
 H332 H 1.05982 0.43573 0.49977
 H333 H 1.08167 0.46848 0.51089
 H334 H 1.06546 0.50051 0.55978
 H335 H 1.03264 0.48934 0.58164
 H336 H 1.00034 0.44082 0.56516
 C337 C 0.40406 0.00849 0.22490
 H338 H 0.40481 0.02140 0.23330
 C339 C 0.41660 0.00579 0.20965
 H340 H 0.42701 0.01668 0.20621
 C341 C 0.38980 -0.02165 0.21926
 H342 H 0.37955 -0.03244 0.22322
 C343 C 0.40207 -0.02491 0.20390
 H344 H 0.40112 -0.03812 0.19596
 N345 N 0.39086 -0.00506 0.22927
 C346 C 0.34553 0.02528 0.25926
 H347 H 0.34469 0.01692 0.27220
 C348 C 0.33312 0.04061 0.25650
 H349 H 0.32271 0.04415 0.26737
 C350 C 0.35993 0.03076 0.22911
 H351 H 0.37017 0.02671 0.21835
 C352 C 0.34779 0.04619 0.22579
 H353 H 0.34885 0.05410 0.21255
 Zn354 Zn 0.37474 -0.00043 0.25045
 N355 N 0.35874 0.02080 0.24574
 C356 C 0.38954 0.02080 0.28173
 N357 N 0.39068 0.00420 0.27174
 C358 C 0.40386 -0.00933 0.27620
 C359 C 0.41630 -0.00662 0.29151
 C360 C 0.40172 0.02408 0.29716
 C361 C 0.34557 -0.02609 0.24142
 C362 C 0.33313 -0.04141 0.24406
 C363 C 0.34756 -0.04709 0.27484
 C364 C 0.35975 -0.03166 0.27163
 N365 N 0.35869 -0.02166 0.25502
 H366 H 0.37932 0.03158 0.27771
 H367 H 0.40466 -0.02225 0.26781
 H368 H 0.42670 -0.01749 0.29501
 H369 H 0.40071 0.03730 0.30508
 H370 H 0.34483 -0.01770 0.22849
 H371 H 0.32279 -0.04491 0.23312
 H372 H 0.34852 -0.05503 0.28806
 H373 H 0.36992 -0.02765 0.28247
 C374 C 0.33432 0.05118 0.23963
 C375 C 0.41555 -0.01104 0.19904
 C376 C 0.33418 -0.05202 0.26091
 C377 C 0.41518 0.01023 0.30209
 C378 C 0.09654 -0.00836 0.72453
 H379 H 0.09578 -0.02129 0.73292
 C380 C 0.08400 -0.00564 0.70929
 H381 H 0.07358 -0.01651 0.70585
 C382 C 0.11084 0.02177 0.71890
 H383 H 0.12109 0.03255 0.72286
 C384 C 0.09856 0.02506 0.70355
 H385 H 0.09953 0.03828 0.69562
 N386 N 0.10975 0.00517 0.72890
 C387 C 0.15513 -0.02513 0.75881
 H388 H 0.15598 -0.01677 0.77175
 C389 C 0.16757 -0.04044 0.75603
 H390 H 0.17800 -0.04395 0.76687
 C391 C 0.14070 -0.03065 0.72871
 H392 H 0.13043 -0.02663 0.71796
 C393 C 0.15287 -0.04606 0.72536
 H394 H 0.15181 -0.05397 0.71213
 Zn395 Zn 0.12586 0.00052 0.75007
 N396 N 0.14189 -0.02068 0.74533
 C397 C 0.11108 -0.02079 0.78133
 N398 N 0.10991 -0.00418 0.77137
 C399 C 0.09670 0.00932 0.77586
 C400 C 0.08427 0.00655 0.79118
 C401 C 0.09891 -0.02413 0.79677
 C402 C 0.15503 0.02620 0.74108
 C403 C 0.16746 0.04153 0.74374
 C404 C 0.15295 0.04719 0.77451
 C405 C 0.14078 0.03176 0.77128
 N406 N 0.14188 0.02176 0.75467
 H407 H 0.12132 -0.03155 0.77728
 H408 H 0.09587 0.02225 0.76750
 H409 H 0.07384 0.01739 0.79471
 H410 H 0.09995 -0.03737 0.80466
 H411 H 0.15580 0.01782 0.72815
 H412 H 0.17782 0.04504 0.73282
 H413 H 0.15196 0.05513 0.78772
 H414 H 0.13058 0.02774 0.78210
 C415 C 0.16638 -0.05101 0.73917
 C416 C 0.08507 0.01121 0.69870
 C417 C 0.16636 0.05213 0.76058
 C418 C 0.08543 -0.01032 0.80174
 C419 C 0.59587 0.49136 0.22420
 H420 H 0.59512 0.47842 0.23256
 C421 C 0.58337 0.49409 0.20893
 H422 H 0.57298 0.48321 0.20544
 C423 C 0.61014 0.52152 0.21866
 H424 H 0.62036 0.53231 0.22266
 C425 C 0.59790 0.52482 0.20328
 H426 H 0.59887 0.53806 0.19538
 N427 N 0.60906 0.50490 0.22862
 C428 C 0.65437 0.47459 0.25861
 H429 H 0.65520 0.48297 0.27154
 C430 C 0.66681 0.45928 0.25588
 H431 H 0.67722 0.45577 0.26675
 C432 C 0.64000 0.46904 0.22849
 H433 H 0.62976 0.47306 0.21772
 C434 C 0.65218 0.45363 0.22519
 H435 H 0.65114 0.44570 0.21197
 Zn436 Zn 0.62514 0.50024 0.24981
 N437 N 0.64116 0.47903 0.24510
 C438 C 0.61033 0.47896 0.28107
 N439 N 0.60917 0.49558 0.27111
 C440 C 0.59599 0.50909 0.27561
 C441 C 0.58358 0.50635 0.29096
 C442 C 0.59818 0.47565 0.29652
 C443 C 0.65432 0.52590 0.24080
 C444 C 0.66678 0.54120 0.24345
 C445 C 0.65230 0.54689 0.27422
 C446 C 0.64010 0.53147 0.27100
 N447 N 0.64118 0.52147 0.25440
 H448 H 0.62055 0.46818 0.27700
 H449 H 0.59517 0.52203 0.26725
 H450 H 0.57318 0.51721 0.29451
 H451 H 0.59921 0.46242 0.30443
 H452 H 0.65507 0.51751 0.22787
 H453 H 0.67714 0.54470 0.23252
 H454 H 0.65133 0.55482 0.28744
 H455 H 0.62990 0.52748 0.28183
 C456 C 0.66565 0.44869 0.23903
 C457 C 0.58444 0.51096 0.19837
 C458 C 0.66571 0.55181 0.26030
 C459 C 0.58473 0.48949 0.30152
 C460 C 0.90395 0.50821 0.72483
 H461 H 0.90466 0.52112 0.73324
 C462 C 0.91649 0.50557 0.70958
 H463 H 0.92688 0.51648 0.70614
 C464 C 0.88974 0.47806 0.71915
 H465 H 0.87952 0.46724 0.72309
 C466 C 0.90202 0.47484 0.70378
 H467 H 0.90109 0.46164 0.69582
 N468 N 0.89077 0.49464 0.72918
 C469 C 0.84534 0.52488 0.75909
 H470 H 0.84450 0.51653 0.77203
 C471 C 0.83289 0.54018 0.75631
 H472 H 0.82246 0.54369 0.76716
 C473 C 0.85977 0.53040 0.72897
 H474 H 0.87004 0.52638 0.71822
 C475 C 0.84759 0.54580 0.72562
 H476 H 0.84865 0.55370 0.71239
 Zn477 Zn 0.87462 0.49924 0.75034
 N478 N 0.85858 0.52044 0.74560
 C479 C 0.88934 0.52057 0.78159
 N480 N 0.89052 0.50394 0.77166
 C481 C 0.90370 0.49043 0.77619
 C482 C 0.91610 0.49320 0.79152
 C483 C 0.90148 0.52391 0.79704
 C484 C 0.84552 0.47352 0.74128
 C485 C 0.83308 0.45820 0.74393
 C486 C 0.84742 0.45262 0.77477
 C487 C 0.85961 0.46804 0.77155
 N488 N 0.85860 0.47800 0.75491
 H489 H 0.87913 0.53133 0.77751
 H490 H 0.90454 0.47748 0.76784
 H491 H 0.92650 0.48235 0.79509
 H492 H 0.90044 0.53715 0.80491
 H493 H 0.84481 0.48187 0.72833
 H494 H 0.82277 0.45466 0.73298
 H495 H 0.84834 0.44472 0.78802
 H496 H 0.86975 0.47209 0.78241
 C497 C 0.83408 0.55075 0.73945
 C498 C 0.91547 0.48875 0.69894
 C499 C 0.83408 0.44764 0.76081
 C500 C 0.91494 0.51008 0.80205
 C501 C 0.22353 0.40446 0.00866
 H502 H 0.23195 0.40518 0.02157
 C503 C 0.20819 0.41689 0.00606
 H504 H 0.20470 0.42721 0.01702
 C505 C 0.21793 0.39035 -0.02157
 H506 H 0.22193 0.38020 -0.03244
 C507 C 0.20248 0.40252 -0.02474
 H508 H 0.19451 0.40159 -0.03795
 N509 N 0.22796 0.39138 -0.00498
 C510 C 0.25829 0.34610 0.02502
 H511 H 0.27122 0.34540 0.01660
 C512 C 0.25563 0.33354 0.04025
 H513 H 0.26657 0.32318 0.04367
 C514 C 0.22808 0.36025 0.03071
 H515 H 0.21724 0.37045 0.02678
 C516 C 0.22485 0.34796 0.04606
 H517 H 0.21162 0.34886 0.05401
 Zn518 Zn 0.24926 0.37539 -0.00048
 N519 N 0.24469 0.35925 0.02069
 C520 C 0.28052 0.39023 0.02078
 N521 N 0.27049 0.39140 0.00419
 C522 C 0.27490 0.40462 -0.00932
 C523 C 0.29022 0.41706 -0.00660
 C524 C 0.29594 0.40241 0.02407
 C525 C 0.24035 0.34631 -0.02627
 C526 C 0.24309 0.33388 -0.04158
 C527 C 0.27383 0.34846 -0.04721
 C528 C 0.27052 0.36063 -0.03179
 N529 N 0.25389 0.35948 -0.02180
 H530 H 0.27653 0.37997 0.03155
 H531 H 0.26650 0.40545 -0.02223
 H532 H 0.29370 0.42748 -0.01746
 H533 H 0.30390 0.40136 0.03728
 H534 H 0.22741 0.34550 -0.01788
 H535 H 0.23222 0.32349 -0.04509
 H536 H 0.28708 0.34947 -0.05512
 H537 H 0.28131 0.37084 -0.02776
 C538 C 0.23878 0.33453 0.05088
 C539 C 0.19755 0.41587 -0.01077
 C540 C 0.25998 0.33500 -0.05215
 C541 C 0.30084 0.41590 0.01023
 C542 C 0.72550 0.09526 -0.00882
 H543 H 0.73395 0.09439 -0.02172
 C544 C 0.71018 0.08283 -0.00609
 H545 H 0.70674 0.07236 -0.01692
 C546 C 0.71978 0.10976 0.02121
 H547 H 0.72373 0.12006 0.03195
 C548 C 0.70435 0.09760 0.02451
 H549 H 0.69634 0.09870 0.03769
 N550 N 0.72986 0.10853 0.00465
 C551 C 0.76001 0.15361 -0.02586
 H552 H 0.77295 0.15444 -0.01749
 C553 C 0.75727 0.16601 -0.04120
 H554 H 0.76815 0.17640 -0.04474
 C555 C 0.72985 0.13927 -0.03133
 H556 H 0.71907 0.12905 -0.02728
 C557 C 0.72654 0.15140 -0.04678
 H558 H 0.71330 0.15037 -0.05468
 Zn559 Zn 0.75112 0.12452 -0.00005
 N560 N 0.74648 0.14044 -0.02136
 C561 C 0.78238 0.10954 -0.02125
 N562 N 0.77236 0.10848 -0.00463
 C563 C 0.77677 0.09535 0.00896
 C564 C 0.79206 0.08286 0.00628
 C565 C 0.79777 0.09732 -0.02449
 C566 C 0.74221 0.15381 0.02549
 C567 C 0.74492 0.16631 0.04075
 C568 C 0.77563 0.15174 0.04652
 C569 C 0.77236 0.13950 0.03115
 N570 N 0.75575 0.14060 0.02113
 H571 H 0.77839 0.11973 -0.03207
 H572 H 0.76837 0.09461 0.02189
 H573 H 0.79553 0.07250 0.01720
 H574 H 0.80572 0.09826 -0.03772
 H575 H 0.72929 0.15458 0.01709
 H576 H 0.73403 0.17672 0.04419
 H577 H 0.78884 0.15076 0.05446
 H578 H 0.78315 0.12926 0.02719
 C579 C 0.74040 0.16485 -0.05176
 C580 C 0.69949 0.08406 0.01071
 C581 C 0.76176 0.16522 0.05137
 C582 C 0.80267 0.08390 -0.01058
 C583 C 0.22417 0.59587 0.49115
 H584 H 0.23258 0.59507 0.47823
 C585 C 0.20888 0.58340 0.49389
 H586 H 0.20542 0.57297 0.48302
 C587 C 0.21853 0.61023 0.52127
 H588 H 0.22250 0.62048 0.53204
 C589 C 0.20313 0.59802 0.52457
 H590 H 0.19517 0.59904 0.53778
 N591 N 0.22855 0.60909 0.50467
 C592 C 0.25865 0.65430 0.47431
 H593 H 0.27158 0.65511 0.48269
 C594 C 0.25591 0.66676 0.45902
 H595 H 0.26678 0.67717 0.45552
 C596 C 0.22851 0.63995 0.46875
 H597 H 0.21773 0.62971 0.47276
 C598 C 0.22520 0.65214 0.45335
 H599 H 0.21196 0.65113 0.44543
 Zn600 Zn 0.24978 0.62513 0.50001
 N601 N 0.24512 0.64110 0.47874
 C602 C 0.28110 0.61028 0.47881
 N603 N 0.27106 0.60916 0.49541
 C604 C 0.27549 0.59601 0.50898
 C605 C 0.29082 0.58358 0.50631
 C606 C 0.29655 0.59811 0.47557
 C607 C 0.24079 0.65436 0.52560
 C608 C 0.24345 0.66684 0.54088
 C609 C 0.27419 0.65231 0.54665
 C610 C 0.27095 0.64010 0.53126
 N611 N 0.25436 0.64118 0.52122
 H612 H 0.27711 0.62048 0.46800
 H613 H 0.26708 0.59522 0.52190
 H614 H 0.29431 0.57322 0.51722
 H615 H 0.30451 0.59911 0.46236
 H616 H 0.22787 0.65512 0.51718
 H617 H 0.23255 0.67722 0.54433
 H618 H 0.28740 0.65134 0.55461
 H619 H 0.28177 0.62988 0.52729
 C620 C 0.23904 0.66563 0.44843
 C621 C 0.19825 0.58453 0.51073
 C622 C 0.26029 0.66575 0.55152
 C623 C 0.30146 0.58469 0.48947
 C624 C 0.72406 0.90433 0.50880
 H625 H 0.73244 0.90506 0.52173
 C626 C 0.70872 0.91676 0.50616
 H627 H 0.70520 0.92708 0.51710
 C628 C 0.71852 0.89019 0.47856
 H629 H 0.72255 0.88004 0.46772
 C630 C 0.70307 0.90235 0.47536
 H631 H 0.69513 0.90140 0.46214
 N632 N 0.72852 0.89124 0.49518
 C633 C 0.75871 0.84598 0.52533
 H634 H 0.77168 0.84529 0.51698
 C635 C 0.75599 0.83345 0.54056
 H636 H 0.76691 0.82309 0.54405
 C637 C 0.72846 0.86013 0.53086
 H638 H 0.71764 0.87031 0.52687
 C639 C 0.72517 0.84785 0.54620
 H640 H 0.71190 0.84874 0.55409
 Zn641 Zn 0.74978 0.87524 0.49976
 N642 N 0.74513 0.85912 0.52092
 C643 C 0.78099 0.89009 0.52110
 N644 N 0.77101 0.89125 0.50449
 C645 C 0.77545 0.90447 0.49098
 C646 C 0.79076 0.91691 0.49374
 C647 C 0.79641 0.90226 0.52443
 C648 C 0.74094 0.84619 0.47392
 C649 C 0.74372 0.83379 0.45859
 C650 C 0.77450 0.84832 0.45310
 C651 C 0.77116 0.86046 0.46853
 N652 N 0.75449 0.85933 0.47845
 H653 H 0.77697 0.87984 0.53187
 H654 H 0.76708 0.90530 0.47805
 H655 H 0.79427 0.92733 0.48288
 H656 H 0.80433 0.90122 0.53765
 H657 H 0.72797 0.84539 0.48225
 H658 H 0.73283 0.82342 0.45502
 H659 H 0.78778 0.84933 0.44524
 H660 H 0.78195 0.87065 0.47263
 C661 C 0.73908 0.83443 0.55111
 C662 C 0.69811 0.91571 0.48931
 C663 C 0.76064 0.83491 0.44807
 C664 C 0.80135 0.91574 0.51059
 C665 C 0.00847 0.22495 0.40423
 H666 H 0.02140 0.23334 0.40500
 C667 C 0.00574 0.20969 0.41672
 H668 H 0.01662 0.20623 0.42713
 C669 C -0.02168 0.21934 0.38990
 H670 H -0.03246 0.22331 0.37965
 C671 C -0.02497 0.20397 0.40213
 H672 H -0.03819 0.19603 0.40113
 N673 N -0.00507 0.22934 0.39102
 C674 C 0.02525 0.25927 0.34564
 H675 H 0.01686 0.27218 0.34481
 C676 C 0.04054 0.25650 0.33316
 H677 H 0.04402 0.26733 0.32271
 C678 C 0.03084 0.22920 0.36008
 H679 H 0.02685 0.21847 0.37037
 C680 C 0.04624 0.22587 0.34787
 H681 H 0.05418 0.21266 0.34892
 Zn682 Zn -0.00040 0.25051 0.37493
 N683 N 0.02084 0.24579 0.35890
 C684 C 0.02091 0.28176 0.38967
 N685 N 0.00429 0.27178 0.39087
 C686 C -0.00924 0.27627 0.40408
 C687 C -0.00649 0.29161 0.41647
 C688 C 0.02422 0.29721 0.40179
 C689 C -0.02607 0.24157 0.34575
 C690 C -0.04136 0.24427 0.33327
 C691 C -0.04703 0.27500 0.34778
 C692 C -0.03163 0.27173 0.36000
 N693 N -0.02164 0.25512 0.35891
 H694 H 0.03168 0.27772 0.37943
 H695 H -0.02217 0.26789 0.40493
 H696 H -0.01736 0.29514 0.42688
 H697 H 0.03745 0.30513 0.40072
 H698 H -0.01768 0.22864 0.34499
 H699 H -0.04485 0.23338 0.32289
 H700 H -0.05495 0.28822 0.34876
 H701 H -0.02762 0.28253 0.37020
 C702 C 0.05114 0.23967 0.33433
 C703 C -0.01111 0.19909 0.41562
 C704 C -0.05194 0.26112 0.33435
 C705 C 0.01037 0.30219 0.41526
 C706 C -0.00908 0.72423 0.09521
 H707 H -0.02201 0.73262 0.09439
 C708 C -0.00637 0.70889 0.08281
 H709 H -0.01725 0.70537 0.07243
 C710 C 0.02107 0.71871 0.10955
 H711 H 0.03186 0.72274 0.11977
 C712 C 0.02435 0.70326 0.09742
 H713 H 0.03757 0.69533 0.09846
 N714 N 0.00446 0.72871 0.10838
 C715 C -0.02584 0.75895 0.15356
 H716 H -0.01744 0.77187 0.15430
 C717 C -0.04113 0.75628 0.16605
 H718 H -0.04461 0.76718 0.17643
 C719 C -0.03144 0.72878 0.13934
 H720 H -0.02745 0.71798 0.12913
 C721 C -0.04684 0.72554 0.15157
 H722 H -0.05478 0.71233 0.15062
 Zn723 Zn -0.00019 0.74998 0.12434
 N724 N -0.02143 0.74538 0.14040
 C725 C -0.02146 0.78117 0.10940
 N726 N -0.00485 0.77116 0.10826
 C727 C 0.00868 0.77555 0.09504
 C728 C 0.00597 0.79083 0.08257
 C729 C -0.02474 0.79656 0.09720
 C730 C 0.02549 0.74119 0.15356
 C731 C 0.04079 0.74395 0.16602
 C732 C 0.04648 0.77460 0.15133
 C733 C 0.03107 0.77127 0.13914
 N734 N 0.02106 0.75468 0.14033
 H735 H -0.03224 0.77720 0.11966
 H736 H 0.02161 0.76716 0.09424
 H737 H 0.01685 0.79430 0.07215
 H738 H -0.03795 0.80451 0.09822
 H739 H 0.01710 0.72828 0.15440
 H740 H 0.04428 0.73311 0.17646
 H741 H 0.05441 0.78781 0.15028
 H742 H 0.02706 0.78202 0.12888
 C743 C -0.05174 0.73944 0.16501
 C744 C 0.01048 0.69830 0.08398
 C745 C 0.05139 0.76079 0.16485
 C746 C -0.01087 0.80145 0.08371
 C747 C 0.49154 0.22424 0.59650
 H748 H 0.47859 0.23259 0.59573
 C749 C 0.49427 0.20896 0.58403
 H750 H 0.48338 0.20545 0.57365
 C751 C 0.52173 0.21871 0.61077
 H752 H 0.53253 0.22273 0.62099
 C753 C 0.52503 0.20333 0.59856
 H754 H 0.53827 0.19542 0.59955
 N755 N 0.50509 0.22868 0.60967
 C756 C 0.47467 0.25873 0.65489
 H757 H 0.48302 0.27167 0.65567
 C758 C 0.45934 0.25599 0.66733
 H759 H 0.45579 0.26688 0.67770
 C760 C 0.46921 0.22856 0.64062
 H761 H 0.47327 0.21778 0.63041
 C762 C 0.45377 0.22526 0.65279
 H763 H 0.44587 0.21203 0.65179
 Zn764 Zn 0.50041 0.24988 0.62570
 N765 N 0.47917 0.24519 0.64173
 C766 C 0.47907 0.28102 0.61078
 N767 N 0.49572 0.27109 0.60968
 C768 C 0.50927 0.27554 0.59649
 C769 C 0.50651 0.29080 0.58400
 C770 C 0.47574 0.29639 0.59856
 C771 C 0.52612 0.24101 0.65488
 C772 C 0.54144 0.24373 0.66731
 C773 C 0.54705 0.27446 0.65278
 C774 C 0.53162 0.27117 0.64060
 N775 N 0.52165 0.25455 0.64172
 H776 H 0.46827 0.27699 0.62100
 H777 H 0.52223 0.26720 0.59571
 H778 H 0.51739 0.29431 0.57359
 H779 H 0.46248 0.30427 0.59954
 H780 H 0.51775 0.22807 0.65566
 H781 H 0.54497 0.23284 0.67769
 H782 H 0.55496 0.28769 0.65178
 H783 H 0.52758 0.28196 0.63039
 C784 C 0.44878 0.23913 0.66621
 C785 C 0.51115 0.19839 0.58512
 C786 C 0.55201 0.26059 0.66621
 C787 C 0.48961 0.30133 0.58509
 C788 C 0.50858 0.72408 0.90449
 H789 H 0.52153 0.73244 0.90527
 C790 C 0.50584 0.70879 0.91696
 H791 H 0.51673 0.70529 0.92734
 C792 C 0.47839 0.71857 0.89021
 H793 H 0.46760 0.72258 0.88000
 C794 C 0.47509 0.70317 0.90241
 H795 H 0.46185 0.69526 0.90142
 N796 N 0.49503 0.72853 0.89132
 C797 C 0.52534 0.75862 0.84604
 H798 H 0.51697 0.77155 0.84527
 C799 C 0.54062 0.75589 0.83354
 H800 H 0.54411 0.76676 0.82313
 C801 C 0.53088 0.72847 0.86032
 H802 H 0.52688 0.71769 0.87055
 C803 C 0.54627 0.72517 0.84808
 H804 H 0.55418 0.71194 0.84906
 Zn805 Zn 0.49970 0.74976 0.87530
 N806 N 0.52091 0.74509 0.85923
 C807 C 0.52107 0.78090 0.89016
 N808 N 0.50442 0.77096 0.89133
 C809 C 0.49092 0.77541 0.90455
 C810 C 0.49371 0.79068 0.91702
 C811 C 0.52443 0.79627 0.90236
 C812 C 0.47398 0.74095 0.84612
 C813 C 0.45867 0.74371 0.83368
 C814 C 0.45304 0.77439 0.84831
 C815 C 0.46845 0.77106 0.86049
 N816 N 0.47843 0.75445 0.85933
 H817 H 0.53183 0.77687 0.87991
 H818 H 0.47796 0.76707 0.90537
 H819 H 0.48285 0.79419 0.92745
 H820 H 0.53768 0.80416 0.90133
 H821 H 0.48235 0.72802 0.84530
 H822 H 0.45516 0.73286 0.82326
 H823 H 0.44512 0.78761 0.84934
 H824 H 0.47248 0.78182 0.87073
 C825 C 0.55120 0.73903 0.83462
 C826 C 0.48896 0.69823 0.91586
 C827 C 0.44809 0.76056 0.83483
 C828 C 0.51060 0.80122 0.91587
 C829 C 0.09611 0.23066 0.29811
 C830 C 0.10009 0.24396 0.28344
 C831 C 0.11570 0.24082 0.27087
 C832 C 0.12725 0.22440 0.27305
 C833 C 0.12327 0.21110 0.28771
 C834 C 0.10766 0.21424 0.30028
 C835 C 0.10396 0.20074 0.31483
 C836 C 0.11537 0.18461 0.31691
 C837 C 0.13063 0.18154 0.30462
 C838 C 0.13461 0.19459 0.29017
 C839 C 0.11939 0.25432 0.25632
 C840 C 0.10799 0.27046 0.25425
 C841 C 0.09273 0.27353 0.26654
 C842 C 0.08876 0.26048 0.28100
 C843 C 0.14321 0.22121 0.26023
 C844 C 0.15648 0.21857 0.24960
 C845 C 0.08017 0.23386 0.31095
 C846 C 0.06693 0.23651 0.32161
 H847 H 0.09225 0.20250 0.32474
 H848 H 0.11235 0.17443 0.32812
 H849 H 0.13945 0.16898 0.30629
 H850 H 0.14663 0.19157 0.28096
 H851 H 0.13110 0.25256 0.24640
 H852 H 0.11101 0.28063 0.24304
 H853 H 0.08392 0.28609 0.26488
 H854 H 0.07673 0.26349 0.29020
 C855 C 0.59613 0.73015 0.79831
 C856 C 0.60010 0.74353 0.78371
 C857 C 0.61569 0.74044 0.77110
 C858 C 0.62723 0.72399 0.77317
 C859 C 0.62326 0.71063 0.78778
 C860 C 0.60766 0.71371 0.80039
 C861 C 0.60397 0.70015 0.81487
 C862 C 0.61537 0.68400 0.81686
 C863 C 0.63061 0.68098 0.80454
 C864 C 0.63458 0.69409 0.79014
 C865 C 0.61938 0.75400 0.75661
 C866 C 0.60799 0.77016 0.75463
 C867 C 0.59275 0.77318 0.76696
 C868 C 0.58878 0.76007 0.78135
 C869 C 0.64315 0.72084 0.76030
 C870 C 0.65638 0.71820 0.74961
 C871 C 0.58019 0.73330 0.81118
 C872 C 0.56697 0.73591 0.82187
 H873 H 0.59228 0.70187 0.82481
 H874 H 0.61234 0.67376 0.82802
 H875 H 0.63942 0.66841 0.80614
 H876 H 0.64660 0.69111 0.78091
 H877 H 0.63107 0.75228 0.74667
 H878 H 0.61101 0.78039 0.74347
 H879 H 0.58394 0.78575 0.76536
 H880 H 0.57677 0.76305 0.79059
 C881 C 0.40312 0.76959 0.79865
 C882 C 0.39907 0.75623 0.78407
 C883 C 0.38346 0.75937 0.77151
 C884 C 0.37199 0.77585 0.77361
 C885 C 0.37605 0.78921 0.78819
 C886 C 0.39166 0.78607 0.80075
 C887 C 0.39544 0.79964 0.81521
 C888 C 0.38410 0.81583 0.81722
 C889 C 0.36883 0.81889 0.80495
 C890 C 0.36478 0.80579 0.79058
 C891 C 0.37969 0.74580 0.75705
 C892 C 0.39101 0.72960 0.75505
 C893 C 0.40628 0.72654 0.76732
 C894 C 0.41033 0.73964 0.78169
 C895 C 0.35605 0.77906 0.76079
 C896 C 0.34281 0.78171 0.75013
 C897 C 0.41906 0.76638 0.81148
 C898 C 0.43230 0.76372 0.82213
 H899 H 0.40716 0.79788 0.82510
 H900 H 0.38719 0.82606 0.82836
 H901 H 0.36007 0.83150 0.80658
 H902 H 0.35275 0.80880 0.78139
 H903 H 0.36797 0.74756 0.74716
 H904 H 0.38792 0.71938 0.74391
 H905 H 0.41503 0.71393 0.76570
 H906 H 0.42236 0.73663 0.79088
 C907 C -0.09683 0.26999 0.29803
 C908 C -0.10072 0.25666 0.28338
 C909 C -0.11631 0.25974 0.27077
 C910 C -0.12791 0.27613 0.27291
 C911 C -0.12401 0.28946 0.28756
 C912 C -0.10842 0.28638 0.30016
 C913 C -0.10481 0.29991 0.31469
 C914 C -0.11626 0.31601 0.31673
 C915 C -0.13150 0.31902 0.30441
 C916 C -0.13540 0.30595 0.28997
 C917 C -0.11992 0.24622 0.25623
 C918 C -0.10846 0.23012 0.25420
 C919 C -0.09322 0.22711 0.26652
 C920 C -0.08933 0.24018 0.28097
 C921 C -0.14384 0.27926 0.26004
 C922 C -0.15706 0.28185 0.24936
 C923 C -0.08092 0.26684 0.31091
 C924 C -0.06771 0.26423 0.32160
 H925 H -0.09311 0.29820 0.32462
 H926 H -0.11329 0.32622 0.32792
 H927 H -0.14036 0.33156 0.30605
 H928 H -0.14742 0.30891 0.28075
 H929 H -0.13160 0.24794 0.24630
 H930 H -0.11142 0.21993 0.24299
 H931 H -0.08436 0.21458 0.26488
 H932 H -0.07732 0.23721 0.29019
 C933 C -0.09671 0.73068 0.20130
 C934 C -0.10830 0.71428 0.19921
 C935 C -0.12391 0.71124 0.21181
 C936 C -0.12783 0.72460 0.22643
 C937 C -0.11625 0.74100 0.22851
 C938 C -0.10064 0.74405 0.21591
 C939 C -0.08926 0.76055 0.21828
 C940 C -0.09319 0.77367 0.23268
 C941 C -0.10845 0.77069 0.24499
 C942 C -0.11989 0.75457 0.24301
 C943 C -0.13530 0.69474 0.20944
 C944 C -0.13138 0.68163 0.19503
 C945 C -0.11612 0.68461 0.18272
 C946 C -0.10466 0.70072 0.18472
 C947 C -0.14377 0.72148 0.23931
 C948 C -0.15701 0.71887 0.24999
 C949 C -0.08076 0.73378 0.18844
 C950 C -0.06753 0.73636 0.17775
 H951 H -0.07723 0.76350 0.20905
 H952 H -0.08434 0.78621 0.23428
 H953 H -0.11144 0.78092 0.25616
 H954 H -0.13160 0.75288 0.25294
 H955 H -0.14733 0.69181 0.21866
 H956 H -0.14024 0.66910 0.19342
 H957 H -0.11313 0.67438 0.17155
 H958 H -0.09295 0.70240 0.17479
 C959 C 0.40361 0.23026 0.70223
 C960 C 0.39957 0.24362 0.71683
 C961 C 0.38387 0.24054 0.72931
 C962 C 0.37231 0.22414 0.72712
 C963 C 0.37635 0.21079 0.71252
 C964 C 0.39205 0.21386 0.70004
 C965 C 0.39581 0.20031 0.68556
 C966 C 0.38438 0.18419 0.68346
 C967 C 0.36903 0.18119 0.69566
 C968 C 0.36499 0.19429 0.71005
 C969 C 0.38011 0.25409 0.74379
 C970 C 0.39153 0.27022 0.74588
 C971 C 0.40687 0.27322 0.73367
 C972 C 0.41091 0.26012 0.71929
 C973 C 0.35628 0.22101 0.73987
 C974 C 0.34296 0.21841 0.75046
 C975 C 0.41963 0.23341 0.68947
 C976 C 0.43293 0.23602 0.67887
 H977 H 0.40759 0.20201 0.67572
 H978 H 0.38746 0.17398 0.67231
 H979 H 0.36020 0.16865 0.69397
 H980 H 0.35290 0.19133 0.71918
 H981 H 0.36833 0.25238 0.75363
 H982 H 0.38844 0.28044 0.75703
 H983 H 0.41569 0.28577 0.73535
 H984 H 0.42300 0.26309 0.71015
 C985 C 0.59708 0.26942 0.70231
 C986 C 0.60105 0.25608 0.71693
 C987 C 0.61671 0.25913 0.72945
 C988 C 0.62831 0.27551 0.72727
 C989 C 0.62433 0.28886 0.71265
 C990 C 0.60867 0.28581 0.70014
 C991 C 0.60498 0.29936 0.68564
 C992 C 0.61643 0.31547 0.68357
 C993 C 0.63175 0.31845 0.69579
 C994 C 0.63572 0.30535 0.71020
 C995 C 0.62039 0.24559 0.74396
 C996 C 0.60893 0.22949 0.74604
 C997 C 0.59362 0.22651 0.73381
 C998 C 0.58965 0.23960 0.71939
 C999 C 0.64431 0.27862 0.74004
 C1000 C 0.65761 0.28120 0.75064
 C1001 C 0.58110 0.26629 0.68952
 C1002 C 0.56783 0.26369 0.67888
 H1003 H 0.59323 0.29767 0.67578
 H1004 H 0.61340 0.32569 0.67240
 H1005 H 0.64060 0.33098 0.69412
 H1006 H 0.64779 0.30829 0.71936
 H1007 H 0.63213 0.24728 0.75383
 H1008 H 0.61194 0.21928 0.75721
 H1009 H 0.58476 0.21398 0.73549
 H1010 H 0.57759 0.23665 0.71023
 C1011 C 0.09631 0.76980 0.20109
 C1012 C 0.10027 0.75647 0.21573
 C1013 C 0.11585 0.75959 0.22833
 C1014 C 0.12739 0.77603 0.22621
 C1015 C 0.12342 0.78936 0.21157
 C1016 C 0.10784 0.78623 0.19898
 C1017 C 0.10416 0.79976 0.18446
 C1018 C 0.11555 0.81592 0.18243
 C1019 C 0.13079 0.81897 0.19474
 C1020 C 0.13475 0.80589 0.20917
 C1021 C 0.11952 0.74607 0.24285
 C1022 C 0.10812 0.72991 0.24488
 C1023 C 0.09289 0.72686 0.23256
 C1024 C 0.08894 0.73993 0.21813
 C1025 C 0.14331 0.77921 0.23906
 C1026 C 0.15653 0.78184 0.24974
 C1027 C 0.08039 0.76661 0.18823
 C1028 C 0.06717 0.76395 0.17756
 H1029 H 0.09248 0.79802 0.17453
 H1030 H 0.11254 0.82612 0.17125
 H1031 H 0.13959 0.83154 0.19311
 H1032 H 0.14675 0.80890 0.21839
 H1033 H 0.13120 0.74782 0.25279
 H1034 H 0.11113 0.71972 0.25607
 H1035 H 0.08409 0.71429 0.23420
 H1036 H 0.07694 0.73692 0.20890
 C1037 C 0.29834 0.09629 0.23065
 C1038 C 0.30053 0.10777 0.21418
 C1039 C 0.28803 0.12342 0.21104
 C1040 C 0.27341 0.12748 0.22439
 C1041 C 0.27124 0.11601 0.24087
 C1042 C 0.28374 0.10036 0.24400
 C1043 C 0.28129 0.08910 0.26058
 C1044 C 0.26689 0.09317 0.27368
 C1045 C 0.25466 0.10846 0.27061
 C1046 C 0.25674 0.11979 0.25442
 C1047 C 0.29050 0.13469 0.19447
 C1048 C 0.30490 0.13063 0.18138
 C1049 C 0.31712 0.11533 0.18445
 C1050 C 0.31503 0.10399 0.20063
 C1051 C 0.26062 0.14344 0.22117
 C1052 C 0.24999 0.15668 0.21851
 C1053 C 0.31110 0.08030 0.23384
 C1054 C 0.32168 0.06702 0.23649
 H1055 H 0.29044 0.07706 0.26360
 H1056 H 0.26522 0.08441 0.28628
 H1057 H 0.24350 0.11156 0.28083
 H1058 H 0.24688 0.13153 0.25266
 H1059 H 0.28135 0.14674 0.19146
 H1060 H 0.30659 0.13940 0.16879
 H1061 H 0.32829 0.11224 0.17424
 H1062 H 0.32489 0.09225 0.20239
 C1063 C 0.79803 0.59578 0.73040
 C1064 C 0.78403 0.60043 0.74420
 C1065 C 0.77151 0.61606 0.74105
 C1066 C 0.77307 0.62694 0.72410
 C1067 C 0.78708 0.62229 0.71030
 C1068 C 0.79959 0.60666 0.71346
 C1069 C 0.81348 0.60228 0.69946
 C1070 C 0.81496 0.61304 0.68281
 C1071 C 0.80272 0.62831 0.67972
 C1072 C 0.78892 0.63295 0.69326
 C1073 C 0.75762 0.62043 0.75505
 C1074 C 0.75615 0.60968 0.77170
 C1075 C 0.76839 0.59440 0.77479
 C1076 C 0.78220 0.58977 0.76125
 C1077 C 0.76029 0.64291 0.72088
 C1078 C 0.74966 0.65616 0.71823
 C1079 C 0.81080 0.57981 0.73362
 C1080 C 0.82141 0.56655 0.73628
 H1081 H 0.82332 0.59053 0.70121
 H1082 H 0.82566 0.60949 0.67225
 H1083 H 0.80393 0.63662 0.66676
 H1084 H 0.77973 0.64497 0.69021
 H1085 H 0.74777 0.63218 0.75329
 H1086 H 0.74544 0.61322 0.78226
 H1087 H 0.76719 0.58610 0.78774
 H1088 H 0.79139 0.57776 0.76430
 C1089 C 0.79796 0.40258 0.76952
 C1090 C 0.79957 0.39150 0.78634
 C1091 C 0.78704 0.37586 0.78938
 C1092 C 0.77298 0.37138 0.77559
 C1093 C 0.77137 0.38245 0.75878
 C1094 C 0.78390 0.39810 0.75574
 C1095 C 0.78202 0.40895 0.73882
 C1096 C 0.76816 0.40449 0.72530
 C1097 C 0.75591 0.38920 0.72828
 C1098 C 0.75743 0.37826 0.74480
 C1099 C 0.78893 0.36500 0.80629
 C1100 C 0.80278 0.36947 0.81982
 C1101 C 0.81503 0.38477 0.81684
 C1102 C 0.81351 0.39571 0.80032
 C1103 C 0.76018 0.35540 0.77870
 C1104 C 0.74956 0.34213 0.78129
 C1105 C 0.81076 0.41856 0.76642
 C1106 C 0.82139 0.43182 0.76386
 H1107 H 0.79122 0.42099 0.73586
 H1108 H 0.76692 0.41295 0.71244
 H1109 H 0.74516 0.38579 0.71773
 H1110 H 0.74757 0.36650 0.74647
 H1111 H 0.77973 0.35296 0.80925
 H1112 H 0.80402 0.36102 0.83267
 H1113 H 0.82577 0.38818 0.82740
 H1114 H 0.82336 0.40746 0.79866
 C1115 C 0.29804 -0.09707 0.26956
 C1116 C 0.30018 -0.10870 0.28593
 C1117 C 0.28762 -0.12431 0.28896
 C1118 C 0.27298 -0.12821 0.27560
 C1119 C 0.27085 -0.11659 0.25921
 C1120 C 0.28342 -0.10098 0.25619
 C1121 C 0.28102 -0.08957 0.23971
 C1122 C 0.26660 -0.09348 0.22659
 C1123 C 0.25431 -0.10874 0.22955
 C1124 C 0.25634 -0.12021 0.24565
 C1125 C 0.29004 -0.13573 0.30543
 C1126 C 0.30446 -0.13184 0.31853
 C1127 C 0.31675 -0.11657 0.31558
 C1128 C 0.31470 -0.10508 0.29949
 C1129 C 0.26011 -0.14413 0.27871
 C1130 C 0.24941 -0.15734 0.28131
 C1131 C 0.31086 -0.08110 0.26648
 C1132 C 0.32150 -0.06784 0.26393
 H1133 H 0.29022 -0.07754 0.23678
 H1134 H 0.26496 -0.08461 0.21406
 H1135 H 0.24313 -0.11171 0.21933
 H1136 H 0.24643 -0.13192 0.24733
 H1137 H 0.28084 -0.14777 0.30835
 H1138 H 0.30611 -0.14072 0.33105
 H1139 H 0.32793 -0.11360 0.32580
 H1140 H 0.32461 -0.09337 0.29782
 C1141 C 0.20242 -0.09608 0.73018
 C1142 C 0.21651 -0.10060 0.74392
 C1143 C 0.22899 -0.11628 0.74084
 C1144 C 0.22729 -0.12734 0.72403
 C1145 C 0.21320 -0.12281 0.71028
 C1146 C 0.20073 -0.10713 0.71337
 C1147 C 0.18676 -0.10287 0.69942
 C1148 C 0.18516 -0.11380 0.68290
 C1149 C 0.19735 -0.12913 0.67989
 C1150 C 0.21124 -0.13365 0.69337
 C1151 C 0.24296 -0.12052 0.75477
 C1152 C 0.24457 -0.10959 0.77129
 C1153 C 0.23238 -0.09426 0.77431
 C1154 C 0.21848 -0.08975 0.76083
 C1155 C 0.24001 -0.14338 0.72090
 C1156 C 0.25057 -0.15669 0.71831
 C1157 C 0.18965 -0.08009 0.73336
 C1158 C 0.17904 -0.06682 0.73600
 H1159 H 0.17695 -0.09109 0.70112
 H1160 H 0.17440 -0.11034 0.67238
 H1161 H 0.19605 -0.13757 0.66703
 H1162 H 0.22039 -0.14571 0.69038
 H1163 H 0.25278 -0.13230 0.75307
 H1164 H 0.25534 -0.11303 0.78180
 H1165 H 0.23369 -0.08581 0.78716
 H1166 H 0.20933 -0.07769 0.76382
 C1167 C 0.70180 0.40368 0.23019
 C1168 C 0.70024 0.39264 0.21335
 C1169 C 0.71280 0.37703 0.21029
 C1170 C 0.72685 0.37255 0.22409
 C1171 C 0.72841 0.38358 0.24093
 C1172 C 0.71584 0.39919 0.24399
 C1173 C 0.71767 0.41000 0.26094
 C1174 C 0.73151 0.40551 0.27448
 C1175 C 0.74379 0.39025 0.27149
 C1176 C 0.74233 0.37936 0.25493
 C1177 C 0.71096 0.36621 0.19335
 C1178 C 0.69710 0.37068 0.17982
 C1179 C 0.68482 0.38594 0.18281
 C1180 C 0.68631 0.39685 0.19936
 C1181 C 0.73970 0.35662 0.22096
 C1182 C 0.75037 0.34339 0.21836
 C1183 C 0.68897 0.41963 0.23331
 C1184 C 0.67833 0.43288 0.23591
 H1185 H 0.70844 0.42200 0.26391
 H1186 H 0.73270 0.41393 0.28737
 H1187 H 0.75452 0.38683 0.28205
 H1188 H 0.75221 0.36763 0.25325
 H1189 H 0.72018 0.35420 0.19038
 H1190 H 0.69589 0.36225 0.16695
 H1191 H 0.67408 0.38936 0.17226
 H1192 H 0.67643 0.40859 0.20104
 C1193 C 0.70189 0.59681 0.26899
 C1194 C 0.70047 0.60771 0.28593
 C1195 C 0.71304 0.62331 0.28899
 C1196 C 0.72696 0.62793 0.27508
 C1197 C 0.72837 0.61704 0.25814
 C1198 C 0.71580 0.60143 0.25508
 C1199 C 0.71748 0.59076 0.23803
 C1200 C 0.73120 0.59537 0.22439
 C1201 C 0.74349 0.61062 0.22737
 C1202 C 0.74216 0.62138 0.24403
 C1203 C 0.71135 0.63399 0.30603
 C1204 C 0.69763 0.62939 0.31967
 C1205 C 0.68534 0.61413 0.31669
 C1206 C 0.68668 0.60337 0.30004
 C1207 C 0.73981 0.64386 0.27821
 C1208 C 0.75048 0.65708 0.28081
 C1209 C 0.68907 0.58086 0.26589
 C1210 C 0.67842 0.56761 0.26333
 H1211 H 0.70824 0.57877 0.23506
 H1212 H 0.73229 0.58706 0.21142
 H1213 H 0.75412 0.61414 0.21673
 H1214 H 0.75204 0.63311 0.24570
 H1215 H 0.72058 0.64599 0.30900
 H1216 H 0.69653 0.63771 0.33263
 H1217 H 0.67471 0.61062 0.32733
 H1218 H 0.67680 0.59164 0.29837
 C1219 C 0.20243 0.09723 0.76927
 C1220 C 0.20019 0.10889 0.78560
 C1221 C 0.21273 0.12453 0.78864
 C1222 C 0.22743 0.12841 0.77533
 C1223 C 0.22966 0.11676 0.75899
 C1224 C 0.21712 0.10112 0.75595
 C1225 C 0.21964 0.08968 0.73951
 C1226 C 0.23412 0.09356 0.72645
 C1227 C 0.24638 0.10885 0.72943
 C1228 C 0.24424 0.12036 0.74548
 C1229 C 0.21021 0.13598 0.80507
 C1230 C 0.19572 0.13209 0.81813
 C1231 C 0.18347 0.11680 0.81516
 C1232 C 0.18561 0.10528 0.79911
 C1233 C 0.24024 0.14437 0.77845
 C1234 C 0.25088 0.15762 0.78105
 C1235 C 0.18965 0.08124 0.76618
 C1236 C 0.17903 0.06797 0.76362
 H1237 H 0.21046 0.07763 0.73658
 H1238 H 0.23584 0.08467 0.71396
 H1239 H 0.25761 0.11181 0.71924
 H1240 H 0.25413 0.13209 0.74717
 H1241 H 0.21937 0.14804 0.80801
 H1242 H 0.19399 0.14099 0.83062
 H1243 H 0.17224 0.11384 0.82535
 H1244 H 0.17573 0.09356 0.79742
 C1245 C 0.23006 0.29810 0.09570
 C1246 C 0.21254 0.29852 0.10575
 C1247 C 0.20952 0.28594 0.12137
 C1248 C 0.22404 0.27302 0.12682
 C1249 C 0.24155 0.27257 0.11674
 C1250 C 0.24457 0.28515 0.10113
 C1251 C 0.26219 0.28444 0.09127
 C1252 C 0.27642 0.27167 0.09667
 C1253 C 0.27347 0.25938 0.11194
 C1254 C 0.25627 0.25975 0.12191
 C1255 C 0.19189 0.28663 0.13121
 C1256 C 0.17764 0.29937 0.12577
 C1257 C 0.18059 0.31166 0.11051
 C1258 C 0.19781 0.31131 0.10056
 C1259 C 0.22098 0.26021 0.14281
 C1260 C 0.21842 0.24961 0.15610
 C1261 C 0.23316 0.31100 0.07980
 C1262 C 0.23573 0.32173 0.06660
 H1263 H 0.26515 0.29372 0.07930
 H1264 H 0.28981 0.27132 0.08897
 H1265 H 0.28457 0.24948 0.11608
 H1266 H 0.25465 0.24991 0.13368
 H1267 H 0.18892 0.27735 0.14318
 H1268 H 0.16424 0.29971 0.13346
 H1269 H 0.16948 0.32153 0.10634
 H1270 H 0.19942 0.32115 0.08878
 C1271 C 0.73019 0.79801 0.59589
 C1272 C 0.74462 0.78495 0.60127
 C1273 C 0.74155 0.77234 0.61685
 C1274 C 0.72406 0.77287 0.62696
 C1275 C 0.70962 0.78592 0.62157
 C1276 C 0.71269 0.79852 0.60599
 C1277 C 0.69804 0.81143 0.60086
 C1278 C 0.68085 0.81188 0.61084
 C1279 C 0.67784 0.79957 0.62608
 C1280 C 0.69201 0.78671 0.63144
 C1281 C 0.75619 0.75942 0.62196
 C1282 C 0.77337 0.75896 0.61196
 C1283 C 0.77638 0.77128 0.59673
 C1284 C 0.76222 0.78416 0.59138
 C1285 C 0.72093 0.76003 0.64289
 C1286 C 0.71832 0.74938 0.65614
 C1287 C 0.73335 0.81091 0.58001
 C1288 C 0.73596 0.82164 0.56682
 H1289 H 0.69971 0.82129 0.58911
 H1290 H 0.66980 0.82184 0.60673
 H1291 H 0.66446 0.79997 0.63379
 H1292 H 0.68900 0.77741 0.64339
 H1293 H 0.75452 0.74955 0.63370
 H1294 H 0.78442 0.74898 0.61606
 H1295 H 0.78976 0.77086 0.58901
 H1296 H 0.76523 0.79345 0.57943
 C1297 C 0.76972 0.79878 0.40309
 C1298 C 0.78614 0.80100 0.39151
 C1299 C 0.78929 0.78845 0.37591
 C1300 C 0.77600 0.77376 0.37197
 C1301 C 0.75959 0.77154 0.38356
 C1302 C 0.75644 0.78409 0.39916
 C1303 C 0.73993 0.78160 0.41053
 C1304 C 0.72690 0.76712 0.40660
 C1305 C 0.72999 0.75485 0.39135
 C1306 C 0.74612 0.75696 0.37991
 C1307 C 0.80580 0.79094 0.36454
 C1308 C 0.81882 0.80542 0.36847
 C1309 C 0.81574 0.81769 0.38372
 C1310 C 0.79962 0.81557 0.39516
 C1311 C 0.77921 0.76095 0.35601
 C1312 C 0.78186 0.75033 0.34276
 C1313 C 0.76650 0.81160 0.41903
 C1314 C 0.76383 0.82224 0.43227
 H1315 H 0.73691 0.79079 0.42255
 H1316 H 0.71435 0.76542 0.41544
 H1317 H 0.71982 0.74362 0.38836
 H1318 H 0.74789 0.74706 0.36821
 H1319 H 0.80882 0.78175 0.35251
 H1320 H 0.83138 0.80713 0.35962
 H1321 H 0.82591 0.82892 0.38671
 H1322 H 0.79785 0.82547 0.40687
 C1323 C 0.26906 0.29875 -0.09703
 C1324 C 0.28551 0.30092 -0.10857
 C1325 C 0.28868 0.28833 -0.12414
 C1326 C 0.27539 0.27365 -0.12808
 C1327 C 0.25895 0.27147 -0.11652
 C1328 C 0.25578 0.28406 -0.10095
 C1329 C 0.23925 0.28160 -0.08960
 C1330 C 0.22622 0.26711 -0.09352
 C1331 C 0.22932 0.25481 -0.10874
 C1332 C 0.24547 0.25689 -0.12016
 C1333 C 0.30522 0.29079 -0.13548
 C1334 C 0.31826 0.30525 -0.13155
 C1335 C 0.31516 0.31755 -0.11632
 C1336 C 0.29900 0.31548 -0.10491
 C1337 C 0.27862 0.26081 -0.14400
 C1338 C 0.28131 0.25015 -0.15722
 C1339 C 0.26582 0.31161 -0.08113
 C1340 C 0.26314 0.32228 -0.06792
 H1341 H 0.23621 0.29081 -0.07760
 H1342 H 0.21366 0.26543 -0.08469
 H1343 H 0.21916 0.24358 -0.11173
 H1344 H 0.24726 0.24697 -0.13184
 H1345 H 0.30825 0.28158 -0.14749
 H1346 H 0.33083 0.30692 -0.14036
 H1347 H 0.32533 0.32877 -0.11332
 H1348 H 0.29722 0.32540 -0.09323
 C1349 C 0.73136 0.20095 -0.09677
 C1350 C 0.74546 0.21450 -0.10182
 C1351 C 0.74231 0.22706 -0.11742
 C1352 C 0.72506 0.22599 -0.12788
 C1353 C 0.71096 0.21243 -0.12285
 C1354 C 0.71412 0.19988 -0.10725
 C1355 C 0.69982 0.18645 -0.10248
 C1356 C 0.68288 0.18545 -0.11283
 C1357 C 0.67979 0.19772 -0.12808
 C1358 C 0.69362 0.21108 -0.13310
 C1359 C 0.75661 0.24049 -0.12218
 C1360 C 0.77356 0.24148 -0.11183
 C1361 C 0.77664 0.22921 -0.09658
 C1362 C 0.76281 0.21585 -0.09156
 C1363 C 0.72183 0.23882 -0.14381
 C1364 C 0.71915 0.24948 -0.15703
 C1365 C 0.73458 0.18815 -0.08082
 C1366 C 0.73724 0.17752 -0.06758
 H1367 H 0.70156 0.17660 -0.09073
 H1368 H 0.67209 0.17510 -0.10898
 H1369 H 0.66660 0.19688 -0.13608
 H1370 H 0.69056 0.22031 -0.14508
 H1371 H 0.75487 0.25034 -0.13393
 H1372 H 0.78435 0.25184 -0.11567
 H1373 H 0.78983 0.23004 -0.08859
 H1374 H 0.76587 0.20661 -0.07959
 C1375 C 0.23009 0.70191 0.40355
 C1376 C 0.21280 0.70101 0.39315
 C1377 C 0.20971 0.71359 0.37756
 C1378 C 0.22393 0.72701 0.37247
 C1379 C 0.24121 0.72793 0.38289
 C1380 C 0.24430 0.71534 0.39848
 C1381 C 0.26168 0.71653 0.40868
 C1382 C 0.27562 0.72977 0.40364
 C1383 C 0.27260 0.74208 0.38840
 C1384 C 0.25562 0.74123 0.37810
 C1385 C 0.19232 0.71242 0.36737
 C1386 C 0.17837 0.69920 0.37244
 C1387 C 0.18139 0.68690 0.38768
 C1388 C 0.19838 0.68772 0.39797
 C1389 C 0.22079 0.73984 0.35652
 C1390 C 0.21821 0.75048 0.34327
 C1391 C 0.23326 0.68904 0.41946
 C1392 C 0.23590 0.67836 0.43267
 H1393 H 0.26470 0.70726 0.42065
 H1394 H 0.28883 0.73048 0.41160
 H1395 H 0.28347 0.75234 0.38454
 H1396 H 0.25393 0.75111 0.36636
 H1397 H 0.18931 0.72169 0.35540
 H1398 H 0.16515 0.69850 0.36449
 H1399 H 0.17051 0.67665 0.39156
 H1400 H 0.20007 0.67786 0.40971
 C1401 C 0.26902 0.70197 0.59648
 C1402 C 0.28537 0.69978 0.60814
 C1403 C 0.28842 0.71235 0.62375
 C1404 C 0.27510 0.72703 0.62760
 C1405 C 0.25875 0.72921 0.61595
 C1406 C 0.25570 0.71664 0.60034
 C1407 C 0.23925 0.71910 0.58890
 C1408 C 0.22618 0.73356 0.59276
 C1409 C 0.22916 0.74586 0.60801
 C1410 C 0.24524 0.74378 0.61952
 C1411 C 0.30487 0.70989 0.63520
 C1412 C 0.31793 0.69541 0.63134
 C1413 C 0.31495 0.68313 0.61608
 C1414 C 0.29889 0.68522 0.60457
 C1415 C 0.27823 0.73988 0.64354
 C1416 C 0.28084 0.75053 0.65677
 C1417 C 0.26591 0.68913 0.58054
 C1418 C 0.26334 0.67847 0.56730
 H1419 H 0.23630 0.70989 0.57688
 H1420 H 0.21367 0.73524 0.58386
 H1421 H 0.21897 0.75707 0.61095
 H1422 H 0.24693 0.75369 0.63122
 H1423 H 0.30781 0.71909 0.64723
 H1424 H 0.33044 0.69373 0.64024
 H1425 H 0.32514 0.67191 0.61315
 H1426 H 0.29719 0.67531 0.59286
 C1427 C 0.77054 0.20154 0.09624
 C1428 C 0.78692 0.19945 0.10787
 C1429 C 0.78995 0.21205 0.12345
 C1430 C 0.77658 0.22667 0.12732
 C1431 C 0.76019 0.22877 0.11570
 C1432 C 0.75716 0.21617 0.10012
 C1433 C 0.74067 0.21854 0.08871
 C1434 C 0.72755 0.23295 0.09258
 C1435 C 0.73051 0.24527 0.10781
 C1436 C 0.74662 0.24328 0.11929
 C1437 C 0.80643 0.20966 0.13487
 C1438 C 0.81955 0.19524 0.13100
 C1439 C 0.81659 0.18293 0.11576
 C1440 C 0.80049 0.18494 0.10428
 C1441 C 0.77965 0.23952 0.14326
 C1442 C 0.78220 0.25019 0.15650
 C1443 C 0.76743 0.18866 0.08033
 C1444 C 0.76485 0.17797 0.06713
 H1445 H 0.73774 0.20931 0.07670
 H1446 H 0.71502 0.23456 0.08371
 H1447 H 0.72028 0.25645 0.11076
 H1448 H 0.74830 0.25321 0.13097
 H1449 H 0.80936 0.21889 0.14688
 H1450 H 0.83208 0.19362 0.13988
 H1451 H 0.82682 0.17175 0.11282
 H1452 H 0.79882 0.17501 0.09259
 C1453 C 0.48059 0.34617 0.54879
 C1454 C 0.49390 0.35010 0.53411
 C1455 C 0.49079 0.36570 0.52154
 C1456 C 0.47438 0.37727 0.52373
 C1457 C 0.46105 0.37332 0.53840
 C1458 C 0.46416 0.35772 0.55096
 C1459 C 0.45064 0.35406 0.56551
 C1460 C 0.43450 0.36547 0.56759
 C1461 C 0.43146 0.38072 0.55532
 C1462 C 0.44453 0.38467 0.54086
 C1463 C 0.50430 0.36935 0.50697
 C1464 C 0.52043 0.35792 0.50488
 C1465 C 0.52347 0.34267 0.51717
 C1466 C 0.51041 0.33874 0.53164
 C1467 C 0.47122 0.39322 0.51092
 C1468 C 0.46861 0.40647 0.50028
 C1469 C 0.48379 0.33027 0.56165
 C1470 C 0.48645 0.31707 0.57234
 H1471 H 0.45237 0.34235 0.57542
 H1472 H 0.42430 0.36246 0.57880
 H1473 H 0.41890 0.38955 0.55699
 H1474 H 0.44154 0.39669 0.53166
 H1475 H 0.50256 0.38104 0.49706
 H1476 H 0.53062 0.36091 0.49366
 H1477 H 0.53602 0.33383 0.51548
 H1478 H 0.51340 0.32672 0.54084
 C1479 C -0.01968 0.84647 0.04757
 C1480 C -0.00634 0.85039 0.03291
 C1481 C -0.00939 0.86605 0.02040
 C1482 C -0.02575 0.87768 0.02263
 C1483 C -0.03909 0.87375 0.03729
 C1484 C -0.03605 0.85809 0.04980
 C1485 C -0.04958 0.85444 0.06434
 C1486 C -0.06566 0.86592 0.06647
 C1487 C -0.06863 0.88123 0.05425
 C1488 C -0.05555 0.88517 0.03980
 C1489 C 0.00414 0.86969 0.00585
 C1490 C 0.02022 0.85820 0.00371
 C1491 C 0.02319 0.84290 0.01594
 C1492 C 0.01011 0.83897 0.03040
 C1493 C -0.02885 0.89369 0.00986
 C1494 C -0.03141 0.90698 -0.00073
 C1495 C -0.01656 0.83050 0.06037
 C1496 C -0.01396 0.81725 0.07101
 H1497 H -0.04790 0.84269 0.07420
 H1498 H -0.07587 0.86292 0.07767
 H1499 H -0.08115 0.89012 0.05596
 H1500 H -0.05848 0.89724 0.03065
 H1501 H 0.00245 0.88143 -0.00402
 H1502 H 0.03042 0.86119 -0.00749
 H1503 H 0.03570 0.83401 0.01422
 H1504 H 0.01305 0.82690 0.03955
 C1505 C 0.01935 0.65314 0.04802
 C1506 C 0.00600 0.64912 0.03341
 C1507 C 0.00908 0.63344 0.02095
 C1508 C 0.02549 0.62187 0.02317
 C1509 C 0.03884 0.62589 0.03778
 C1510 C 0.03576 0.64158 0.05024
 C1511 C 0.04931 0.64533 0.06474
 C1512 C 0.06543 0.63390 0.06686
 C1513 C 0.06844 0.61857 0.05468
 C1514 C 0.05534 0.61454 0.04028
 C1515 C -0.00446 0.62970 0.00644
 C1516 C -0.02058 0.64113 0.00432
 C1517 C -0.02359 0.65646 0.01650
 C1518 C -0.01050 0.66047 0.03091
 C1519 C 0.02863 0.60585 0.01043
 C1520 C 0.03123 0.59255 -0.00015
 C1521 C 0.01620 0.66916 0.06076
 C1522 C 0.01359 0.68245 0.07135
 H1523 H 0.04759 0.65710 0.07456
 H1524 H 0.07565 0.63697 0.07802
 H1525 H 0.08099 0.60974 0.05639
 H1526 H 0.05831 0.60245 0.03117
 H1527 H -0.00274 0.61793 -0.00339
 H1528 H -0.03079 0.63807 -0.00685
 H1529 H -0.03613 0.66529 0.01479
 H1530 H -0.01347 0.67256 0.04003
 C1531 C 0.51997 0.15344 0.54892
 C1532 C 0.50618 0.14899 0.53486
 C1533 C 0.50922 0.13338 0.52230
 C1534 C 0.52603 0.12230 0.52389
 C1535 C 0.53982 0.12675 0.53795
 C1536 C 0.53679 0.14236 0.55051
 C1537 C 0.55078 0.14654 0.56445
 C1538 C 0.56730 0.13559 0.56596
 C1539 C 0.57027 0.12032 0.55369
 C1540 C 0.55674 0.11588 0.53982
 C1541 C 0.49522 0.12921 0.50836
 C1542 C 0.47870 0.14015 0.50687
 C1543 C 0.47572 0.15541 0.51915
 C1544 C 0.48925 0.15985 0.53301
 C1545 C 0.52913 0.10633 0.51107
 C1546 C 0.53169 0.09307 0.50044
 C1547 C 0.51686 0.16938 0.56176
 C1548 C 0.51426 0.18261 0.57241
 H1549 H 0.54911 0.15827 0.57433
 H1550 H 0.57785 0.13897 0.57671
 H1551 H 0.58312 0.11186 0.55491
 H1552 H 0.55970 0.10386 0.53060
 H1553 H 0.49689 0.11748 0.49848
 H1554 H 0.46814 0.13676 0.49612
 H1555 H 0.46286 0.16386 0.51793
 H1556 H 0.48630 0.17186 0.54223
 C1557 C -0.01991 0.15415 0.45186
 C1558 C -0.00655 0.15027 0.46650
 C1559 C -0.00957 0.13465 0.47906
 C1560 C -0.02594 0.12301 0.47691
 C1561 C -0.03930 0.12690 0.46228
 C1562 C -0.03628 0.14252 0.44972
 C1563 C -0.04985 0.14613 0.43520
 C1564 C -0.06593 0.13464 0.43314
 C1565 C -0.06887 0.11936 0.44542
 C1566 C -0.05577 0.11547 0.45984
 C1567 C 0.00399 0.13104 0.49358
 C1568 C 0.02007 0.14253 0.49562
 C1569 C 0.02302 0.15781 0.48334
 C1570 C 0.00991 0.16170 0.46892
 C1571 C -0.02902 0.10705 0.48974
 C1572 C -0.03159 0.09380 0.50038
 C1573 C -0.01681 0.17009 0.43901
 C1574 C -0.01422 0.18332 0.42834
 H1575 H -0.04818 0.15785 0.42530
 H1576 H -0.07615 0.13760 0.42197
 H1577 H -0.08139 0.11047 0.44376
 H1578 H -0.05869 0.10342 0.46904
 H1579 H 0.00232 0.11933 0.50348
 H1580 H 0.03030 0.13957 0.50680
 H1581 H 0.03554 0.16670 0.48500
 H1582 H 0.01284 0.17374 0.45973
 C1583 C 0.48003 0.65328 0.95205
 C1584 C 0.46364 0.64168 0.94985
 C1585 C 0.46054 0.62606 0.96240
 C1586 C 0.47385 0.62213 0.97707
 C1587 C 0.49024 0.63373 0.97927
 C1588 C 0.49334 0.64935 0.96673
 C1589 C 0.50983 0.66073 0.96920
 C1590 C 0.52289 0.65680 0.98366
 C1591 C 0.51986 0.64153 0.99593
 C1592 C 0.50375 0.63008 0.99383
 C1593 C 0.44406 0.61467 0.95991
 C1594 C 0.43100 0.61861 0.94545
 C1595 C 0.43403 0.63388 0.93319
 C1596 C 0.45013 0.64533 0.93530
 C1597 C 0.47070 0.60617 0.98987
 C1598 C 0.46809 0.59291 1.00050
 C1599 C 0.48320 0.66922 0.93923
 C1600 C 0.48583 0.68245 0.92858
 H1601 H 0.51281 0.67277 0.96002
 H1602 H 0.53543 0.66565 0.98536
 H1603 H 0.53004 0.63854 1.00714
 H1604 H 0.50202 0.61837 1.00372
 H1605 H 0.44108 0.60263 0.96909
 H1606 H 0.41847 0.60975 0.94376
 H1607 H 0.42384 0.63687 0.92198
 H1608 H 0.45185 0.65705 0.92541
 C1609 C 0.51973 0.84607 0.95211
 C1610 C 0.50665 0.84979 0.96705
 C1611 C 0.50982 0.86536 0.97963
 C1612 C 0.52605 0.87713 0.97718
 C1613 C 0.53914 0.87341 0.96224
 C1614 C 0.53597 0.85783 0.94967
 C1615 C 0.54925 0.85440 0.93484
 C1616 C 0.56521 0.86602 0.93250
 C1617 C 0.56831 0.88125 0.94479
 C1618 C 0.55547 0.88497 0.95951
 C1619 C 0.49654 0.86879 0.99446
 C1620 C 0.48058 0.85717 0.99680
 C1621 C 0.47748 0.84194 0.98451
 C1622 C 0.49031 0.83823 0.96978
 C1623 C 0.52928 0.89304 0.99002
 C1624 C 0.53194 0.90626 1.00067
 C1625 C 0.51648 0.83018 0.93925
 C1626 C 0.51379 0.81697 0.92859
 H1627 H 0.54746 0.84272 0.92492
 H1628 H 0.57522 0.86319 0.92108
 H1629 H 0.58072 0.89023 0.94291
 H1630 H 0.55850 0.89698 0.96871
 H1631 H 0.49833 0.88046 1.00439
 H1632 H 0.47058 0.85999 1.00822
 H1633 H 0.46507 0.83296 0.98638
 H1634 H 0.48729 0.82622 0.96058
 C1635 C 0.01937 0.34726 0.45127
 C1636 C 0.03508 0.35959 0.44824
 C1637 C 0.03823 0.37520 0.46078
 C1638 C 0.02566 0.37838 0.47628
 C1639 C 0.00994 0.36606 0.47930
 C1640 C 0.00679 0.35045 0.46676
 C1641 C -0.00902 0.33833 0.47007
 C1642 C -0.02135 0.34153 0.48534
 C1643 C -0.01827 0.35678 0.49760
 C1644 C -0.00282 0.36895 0.49468
 C1645 C 0.05403 0.38733 0.45746
 C1646 C 0.06636 0.38413 0.44220
 C1647 C 0.06328 0.36887 0.42994
 C1648 C 0.04784 0.35670 0.43286
 C1649 C 0.02889 0.39430 0.48911
 C1650 C 0.03156 0.40750 0.49978
 C1651 C 0.01617 0.33129 0.43849
 C1652 C 0.01352 0.31802 0.42790
 H1653 H -0.01202 0.32628 0.46092
 H1654 H -0.03337 0.33211 0.48766
 H1655 H -0.02789 0.35920 0.50944
 H1656 H -0.00102 0.38062 0.50461
 H1657 H 0.05702 0.39939 0.46660
 H1658 H 0.07837 0.39355 0.43987
 H1659 H 0.07291 0.36645 0.41810
 H1660 H 0.04604 0.34502 0.42293
 C1661 C 0.34648 0.54851 0.48075
 C1662 C 0.35775 0.55024 0.46406
 C1663 C 0.37335 0.53764 0.46103
 C1664 C 0.37759 0.52340 0.47469
 C1665 C 0.36633 0.52168 0.49138
 C1666 C 0.35073 0.53427 0.49442
 C1667 C 0.33969 0.53228 0.51121
 C1668 C 0.34393 0.51825 0.52463
 C1669 C 0.35917 0.50593 0.52165
 C1670 C 0.37029 0.50756 0.50525
 C1671 C 0.38441 0.53965 0.44424
 C1672 C 0.38018 0.55370 0.43084
 C1673 C 0.36493 0.56601 0.43381
 C1674 C 0.35379 0.56436 0.45020
 C1675 C 0.39351 0.51052 0.47157
 C1676 C 0.40674 0.49985 0.46897
 C1677 C 0.33053 0.56135 0.48384
 C1678 C 0.31728 0.57200 0.48640
 H1679 H 0.32768 0.54153 0.51417
 H1680 H 0.33534 0.51693 0.53739
 H1681 H 0.36241 0.49506 0.53211
 H1682 H 0.38201 0.49765 0.50358
 H1683 H 0.39642 0.53042 0.44129
 H1684 H 0.38878 0.55503 0.41808
 H1685 H 0.36170 0.57690 0.42336
 H1686 H 0.34208 0.57427 0.45187
 C1687 C 0.84761 0.04764 -0.01939
 C1688 C 0.85145 0.03293 -0.00610
 C1689 C 0.86705 0.02035 -0.00918
 C1690 C 0.87873 0.02256 -0.02552
 C1691 C 0.87489 0.03727 -0.03881
 C1692 C 0.85928 0.04984 -0.03574
 C1693 C 0.85572 0.06443 -0.04923
 C1694 C 0.86725 0.06653 -0.06529
 C1695 C 0.88251 0.05424 -0.06829
 C1696 C 0.88635 0.03975 -0.05525
 C1697 C 0.87061 0.00576 0.00431
 C1698 C 0.85907 0.00365 0.02037
 C1699 C 0.84382 0.01594 0.02337
 C1700 C 0.83998 0.03044 0.01034
 C1701 C 0.89468 0.00972 -0.02866
 C1702 C 0.90792 -0.00094 -0.03128
 C1703 C 0.83167 0.06049 -0.01625
 C1704 C 0.81845 0.07116 -0.01365
 H1705 H 0.84402 0.07434 -0.04751
 H1706 H 0.86432 0.07777 -0.07546
 H1707 H 0.89142 0.05594 -0.08079
 H1708 H 0.89839 0.03055 -0.05821
 H1709 H 0.88230 -0.00416 0.00259
 H1710 H 0.86199 -0.00759 0.03053
 H1711 H 0.83490 0.01425 0.03587
 H1712 H 0.82795 0.03965 0.01331
 C1713 C 0.65442 0.04796 0.01964
 C1714 C 0.63716 0.05509 0.02735
 C1715 C 0.62152 0.04256 0.03046
 C1716 C 0.62323 0.02299 0.02585
 C1717 C 0.64049 0.01587 0.01813
 C1718 C 0.65613 0.02839 0.01501
 C1719 C 0.67324 0.02095 0.00728
 C1720 C 0.67486 0.00168 0.00276
 C1721 C 0.65957 -0.01057 0.00580
 C1722 C 0.64255 -0.00363 0.01339
 C1723 C 0.60440 0.05001 0.03818
 C1724 C 0.60279 0.06929 0.04270
 C1725 C 0.61808 0.08153 0.03966
 C1726 C 0.63511 0.07459 0.03208
 C1727 C 0.60726 0.01019 0.02905
 C1728 C 0.59400 -0.00043 0.03172
 C1729 C 0.67040 0.06076 0.01646
 C1730 C 0.68367 0.07138 0.01383
 H1731 H 0.68553 0.02991 0.00465
 H1732 H 0.68805 -0.00378 -0.00314
 H1733 H 0.66089 -0.02553 0.00227
 H1734 H 0.63105 -0.01372 0.01549
 H1735 H 0.59211 0.04106 0.04081
 H1736 H 0.58960 0.07475 0.04859
 H1737 H 0.61676 0.09649 0.04319
 H1738 H 0.64660 0.08467 0.02998
 C1739 C 0.15327 0.54833 0.51965
 C1740 C 0.14165 0.55053 0.53603
 C1741 C 0.12601 0.53800 0.53912
 C1742 C 0.12208 0.52335 0.52580
 C1743 C 0.13371 0.52114 0.50943
 C1744 C 0.14935 0.53367 0.50634
 C1745 C 0.16078 0.53118 0.48987
 C1746 C 0.15686 0.51672 0.47682
 C1747 C 0.14157 0.50448 0.47983
 C1748 C 0.13007 0.50659 0.49592
 C1749 C 0.11459 0.54048 0.55559
 C1750 C 0.11852 0.55492 0.56866
 C1751 C 0.13382 0.56717 0.56565
 C1752 C 0.14530 0.56506 0.54955
 C1753 C 0.10609 0.51056 0.52894
 C1754 C 0.09282 0.49993 0.53155
 C1755 C 0.16922 0.56116 0.51648
 C1756 C 0.18246 0.57181 0.51385
 H1757 H 0.17284 0.54035 0.48690
 H1758 H 0.16575 0.51502 0.46430
 H1759 H 0.13858 0.49327 0.46965
 H1760 H 0.11835 0.49671 0.49764
 H1761 H 0.10253 0.53132 0.55856
 H1762 H 0.10964 0.55662 0.58118
 H1763 H 0.13682 0.57836 0.57584
 H1764 H 0.15704 0.57494 0.54784
 C1765 C 0.15246 0.45202 -0.01928
 C1766 C 0.14853 0.46657 -0.00584
 C1767 C 0.13289 0.47913 -0.00881
 C1768 C 0.12127 0.47706 -0.02520
 C1769 C 0.12519 0.46251 -0.03863
 C1770 C 0.14083 0.44995 -0.03566
 C1771 C 0.14448 0.43552 -0.04929
 C1772 C 0.13299 0.43354 -0.06539
 C1773 C 0.11770 0.44580 -0.06829
 C1774 C 0.11377 0.46015 -0.05512
 C1775 C 0.12924 0.49356 0.00482
 C1776 C 0.14071 0.49553 0.02093
 C1777 C 0.15600 0.48325 0.02383
 C1778 C 0.15993 0.46891 0.01065
 C1779 C 0.10531 0.48991 -0.02826
 C1780 C 0.09206 0.50056 -0.03083
 C1781 C 0.16844 0.43920 -0.01625
 C1782 C 0.18171 0.42856 -0.01376
 H1783 H 0.15621 0.42562 -0.04767
 H1784 H 0.13598 0.42242 -0.07567
 H1785 H 0.10882 0.44420 -0.08082
 H1786 H 0.10172 0.46934 -0.05800
 H1787 H 0.11751 0.50345 0.00319
 H1788 H 0.13772 0.50664 0.03121
 H1789 H 0.16487 0.48484 0.03637
 H1790 H 0.17198 0.45972 0.01354
 C1791 C 0.65296 0.95176 0.48072
 C1792 C 0.65072 0.96806 0.49241
 C1793 C 0.63506 0.98058 0.48942
 C1794 C 0.62173 0.97673 0.47474
 C1795 C 0.62396 0.96042 0.46306
 C1796 C 0.63962 0.94790 0.46605
 C1797 C 0.64156 0.93169 0.45419
 C1798 C 0.62838 0.92795 0.43978
 C1799 C 0.61307 0.94019 0.43686
 C1800 C 0.61081 0.95626 0.44832
 C1801 C 0.63312 0.99678 0.50129
 C1802 C 0.64628 1.00051 0.51571
 C1803 C 0.66159 0.98827 0.51864
 C1804 C 0.66386 0.97221 0.50717
 C1805 C 0.60577 0.98955 0.47164
 C1806 C 0.59253 1.00021 0.46904
 C1807 C 0.66897 0.93898 0.48376
 C1808 C 0.68226 0.92837 0.48629
 H1809 H 0.65323 0.92175 0.45590
 H1810 H 0.63008 0.91549 0.43084
 H1811 H 0.60287 0.93721 0.42566
 H1812 H 0.59866 0.96535 0.44549
 H1813 H 0.62145 1.00673 0.49957
 H1814 H 0.64458 1.01296 0.52467
 H1815 H 0.67177 0.99123 0.52986
 H1816 H 0.67600 0.96311 0.51001
 C1817 C 0.84641 0.95182 0.51954
 C1818 C 0.85062 0.96623 0.50604
 C1819 C 0.86626 0.97875 0.50916
 C1820 C 0.87758 0.97680 0.52576
 C1821 C 0.87338 0.96237 0.53926
 C1822 C 0.85774 0.94985 0.53614
 C1823 C 0.85382 0.93555 0.54983
 C1824 C 0.86503 0.93366 0.56614
 C1825 C 0.88032 0.94590 0.56918
 C1826 C 0.88451 0.96012 0.55595
 C1827 C 0.87019 0.99305 0.49545
 C1828 C 0.85900 0.99491 0.47913
 C1829 C 0.84372 0.98266 0.47608
 C1830 C 0.83951 0.96846 0.48933
 C1831 C 0.89353 0.98962 0.52897
 C1832 C 0.90676 1.00028 0.53162
 C1833 C 0.83043 0.93904 0.51636
 C1834 C 0.81716 0.92842 0.51373
 H1835 H 0.84208 0.92568 0.54810
 H1836 H 0.86183 0.92264 0.57646
 H1837 H 0.88898 0.94438 0.58187
 H1838 H 0.89656 0.96929 0.55895
 H1839 H 0.88193 1.00291 0.49719
 H1840 H 0.86221 1.00592 0.46880
 H1841 H 0.83507 0.98417 0.46338
 H1842 H 0.82747 0.95928 0.48633
 C1843 C 0.34591 0.45198 0.01910
 C1844 C 0.35018 0.46631 0.00553
 C1845 C 0.36584 0.47882 0.00862
 C1846 C 0.37713 0.47693 0.02525
 C1847 C 0.37286 0.46259 0.03882
 C1848 C 0.35721 0.45008 0.03574
 C1849 C 0.35322 0.43587 0.04951
 C1850 C 0.36438 0.43406 0.06585
 C1851 C 0.37969 0.44628 0.06886
 C1852 C 0.38395 0.46041 0.05555
 C1853 C 0.36983 0.49303 -0.00515
 C1854 C 0.35867 0.49483 -0.02150
 C1855 C 0.34337 0.48260 -0.02452
 C1856 C 0.33910 0.46848 -0.01121
 C1857 C 0.39311 0.48971 0.02841
 C1858 C 0.40637 0.50034 0.03103
 C1859 C 0.32993 0.43919 0.01595
 C1860 C 0.31666 0.42857 0.01334
 H1861 H 0.34146 0.42602 0.04780
 H1862 H 0.36113 0.42310 0.07623
 H1863 H 0.38832 0.44482 0.08158
 H1864 H 0.39600 0.46958 0.05853
 H1865 H 0.38158 0.50289 -0.00344
 H1866 H 0.36192 0.50578 -0.03189
 H1867 H 0.33475 0.48406 -0.03725
 H1868 H 0.32706 0.45931 -0.01419
 C1869 C 0.54862 0.48052 0.34660
 C1870 C 0.55086 0.46416 0.35822
 C1871 C 0.53832 0.46104 0.37385
 C1872 C 0.52360 0.47430 0.37778
 C1873 C 0.52136 0.49067 0.36617
 C1874 C 0.53391 0.49378 0.35054
 C1875 C 0.53139 0.51024 0.33913
 C1876 C 0.51689 0.52325 0.34306
 C1877 C 0.50462 0.52020 0.35834
 C1878 C 0.50676 0.50413 0.36981
 C1879 C 0.54084 0.44458 0.38526
 C1880 C 0.55534 0.43157 0.38133
 C1881 C 0.56760 0.43461 0.36604
 C1882 C 0.56546 0.45069 0.35457
 C1883 C 0.51078 0.47112 0.39375
 C1884 C 0.50012 0.46848 0.40700
 C1885 C 0.56143 0.48370 0.33063
 C1886 C 0.57206 0.48634 0.31736
 H1887 H 0.54057 0.51323 0.32708
 H1888 H 0.51516 0.53576 0.33419
 H1889 H 0.49338 0.53035 0.36133
 H1890 H 0.49687 0.50238 0.38154
 H1891 H 0.53166 0.44160 0.39731
 H1892 H 0.55707 0.41906 0.39020
 H1893 H 0.57884 0.42446 0.36304
 H1894 H 0.57535 0.45243 0.34284
 C1895 C 0.04920 -0.01938 0.84671
 C1896 C 0.05129 -0.03586 0.85818
 C1897 C 0.03869 -0.03901 0.87376
 C1898 C 0.02407 -0.02567 0.87778
 C1899 C 0.02197 -0.00920 0.86630
 C1900 C 0.03458 -0.00604 0.85072
 C1901 C 0.03221 0.01053 0.83946
 C1902 C 0.01779 0.02361 0.84347
 C1903 C 0.00546 0.02053 0.85869
 C1904 C 0.00746 0.00433 0.87003
 C1905 C 0.04106 -0.05559 0.88503
 C1906 C 0.05547 -0.06868 0.88101
 C1907 C 0.06779 -0.06559 0.86578
 C1908 C 0.06580 -0.04940 0.85445
 C1909 C 0.01120 -0.02890 0.89370
 C1910 C 0.00051 -0.03156 0.90692
 C1911 C 0.06206 -0.01617 0.83078
 C1912 C 0.07272 -0.01350 0.81754
 H1913 H 0.04144 0.01357 0.82746
 H1914 H 0.01618 0.03621 0.83470
 H1915 H -0.00571 0.03073 0.86175
 H1916 H -0.00248 0.00256 0.88172
 H1917 H 0.03183 -0.05862 0.89703
 H1918 H 0.05709 -0.08128 0.88977
 H1919 H 0.07896 -0.07580 0.86272
 H1920 H 0.07573 -0.04762 0.84276
 C1921 C 0.04862 0.02013 0.65394
 C1922 C 0.05111 0.03620 0.64197
 C1923 C 0.03849 0.03927 0.62640
 C1924 C 0.02344 0.02626 0.62290
 C1925 C 0.02093 0.01021 0.63489
 C1926 C 0.03356 0.00714 0.65046
 C1927 C 0.03077 -0.00901 0.66224
 C1928 C 0.01593 -0.02176 0.65875
 C1929 C 0.00358 -0.01875 0.64354
 C1930 C 0.00598 -0.00297 0.63170
 C1931 C 0.04127 0.05543 0.61463
 C1932 C 0.05610 0.06818 0.61813
 C1933 C 0.06844 0.06518 0.63335
 C1934 C 0.06605 0.04939 0.64518
 C1935 C 0.01057 0.02937 0.60697
 C1936 C -0.00009 0.03196 0.59373
 C1937 C 0.06154 0.01697 0.66981
 C1938 C 0.07227 0.01434 0.68298
 H1939 H 0.04000 -0.01196 0.67425
 H1940 H 0.01400 -0.03404 0.66790
 H1941 H -0.00793 -0.02869 0.64089
 H1942 H -0.00399 -0.00124 0.62005
 H1943 H 0.03204 0.05838 0.60262
 H1944 H 0.05802 0.08046 0.60898
 H1945 H 0.07994 0.07513 0.63601
 H1946 H 0.07601 0.04767 0.65683
 C1947 C 0.54817 0.51987 0.15345
 C1948 C 0.55041 0.53620 0.14179
 C1949 C 0.53785 0.53927 0.12617
 C1950 C 0.52312 0.52600 0.12231
 C1951 C 0.52088 0.50968 0.13399
 C1952 C 0.53344 0.50661 0.14961
 C1953 C 0.53091 0.49019 0.16108
 C1954 C 0.51639 0.47719 0.15723
 C1955 C 0.50411 0.48019 0.14196
 C1956 C 0.50626 0.49622 0.13043
 C1957 C 0.54038 0.55568 0.11470
 C1958 C 0.55489 0.56870 0.11856
 C1959 C 0.56716 0.56570 0.13384
 C1960 C 0.56502 0.54966 0.14537
 C1961 C 0.51030 0.52912 0.10635
 C1962 C 0.49966 0.53172 0.09309
 C1963 C 0.56103 0.51671 0.16938
 C1964 C 0.57170 0.51408 0.18260
 H1965 H 0.54011 0.48724 0.17311
 H1966 H 0.51466 0.46471 0.16615
 H1967 H 0.49285 0.47004 0.13903
 H1968 H 0.49635 0.49793 0.11872
 H1969 H 0.53119 0.55864 0.10266
 H1970 H 0.55662 0.58118 0.10965
 H1971 H 0.57841 0.57585 0.13678
 H1972 H 0.57492 0.54795 0.15708
 C1973 C 0.45194 -0.01982 0.15416
 C1974 C 0.46654 -0.00643 0.15023
 C1975 C 0.47916 -0.00948 0.13464
 C1976 C 0.47710 -0.02590 0.12308
 C1977 C 0.46249 -0.03929 0.12702
 C1978 C 0.44988 -0.03624 0.14261
 C1979 C 0.43539 -0.04982 0.14626
 C1980 C 0.43342 -0.06595 0.13484
 C1981 C 0.44575 -0.06893 0.11959
 C1982 C 0.46015 -0.05580 0.11566
 C1983 C 0.49364 0.00410 0.13098
 C1984 C 0.49560 0.02024 0.14240
 C1985 C 0.48327 0.02322 0.15764
 C1986 C 0.46888 0.01009 0.16158
 C1987 C 0.48997 -0.02902 0.10715
 C1988 C 0.50064 -0.03163 0.09391
 C1989 C 0.43905 -0.01670 0.17008
 C1990 C 0.42833 -0.01412 0.18329
 H1991 H 0.42545 -0.04813 0.15796
 H1992 H 0.42226 -0.07619 0.13784
 H1993 H 0.44416 -0.08148 0.11076
 H1994 H 0.46939 -0.05875 0.10364
 H1995 H 0.50359 0.00241 0.11929
 H1996 H 0.50676 0.03048 0.13939
 H1997 H 0.48485 0.03578 0.16646
 H1998 H 0.45963 0.01304 0.17359
 C1999 C 0.95183 0.48021 0.65399
 C2000 C 0.96636 0.49368 0.65007
 C2001 C 0.97896 0.49075 0.63444
 C2002 C 0.97694 0.47437 0.62281
 C2003 C 0.96242 0.46090 0.62674
 C2004 C 0.94982 0.46383 0.64237
 C2005 C 0.93542 0.45016 0.64602
 C2006 C 0.93350 0.43406 0.63454
 C2007 C 0.94581 0.43120 0.61926
 C2008 C 0.96012 0.44441 0.61533
 C2009 C 0.99337 0.50441 0.63080
 C2010 C 0.99529 0.52051 0.64228
 C2011 C 0.98297 0.52338 0.65756
 C2012 C 0.96865 0.51017 0.66148
 C2013 C 0.98978 0.47139 0.60682
 C2014 C 1.00042 0.46889 0.59354
 C2015 C 0.93894 0.48322 0.66993
 C2016 C 0.92824 0.48573 0.68316
 H2017 H 0.92550 0.45176 0.65774
 H2018 H 0.92240 0.42375 0.63753
 H2019 H 0.94426 0.41867 0.61038
 H2020 H 0.96935 0.44155 0.60328
 H2021 H 1.00330 0.50281 0.61908
 H2022 H 1.00639 0.53082 0.63930
 H2023 H 0.98452 0.53591 0.66644
 H2024 H 0.95942 0.51302 0.67352
 C2025 C 0.95109 0.51917 0.84702
 C2026 C 0.94871 0.53543 0.85875
 C2027 C 0.96126 0.53857 0.87436
 C2028 C 0.97614 0.52544 0.87814
 C2029 C 0.97854 0.50920 0.86639
 C2030 C 0.96598 0.50606 0.85079
 C2031 C 0.96866 0.48973 0.83924
 C2032 C 0.98334 0.47687 0.84300
 C2033 C 0.99563 0.47994 0.85825
 C2034 C 0.99332 0.49590 0.86986
 C2035 C 0.95859 0.55492 0.88589
 C2036 C 0.94394 0.56780 0.88210
 C2037 C 0.93167 0.56472 0.86684
 C2038 C 0.93395 0.54875 0.85526
 C2039 C 0.98895 0.52864 0.89410
 C2040 C 0.99959 0.53128 0.90734
 C2041 C 0.93826 0.51595 0.83109
 C2042 C 0.92762 0.51327 0.81785
 H2043 H 0.95948 0.48672 0.82721
 H2044 H 0.98519 0.46445 0.83402
 H2045 H 1.00701 0.46991 0.86110
 H2046 H 1.00324 0.49767 0.88155
 H2047 H 0.96778 0.55792 0.89792
 H2048 H 0.94211 0.58023 0.89106
 H2049 H 0.92031 0.57477 0.86396
 H2050 H 0.92404 0.54698 0.84356
 C2051 C 0.45145 0.01915 0.34700
 C2052 C 0.44939 0.03562 0.35849
 C2053 C 0.46198 0.03870 0.37408
 C2054 C 0.47655 0.02531 0.37809
 C2055 C 0.47862 0.00885 0.36658
 C2056 C 0.46603 0.00577 0.35099
 C2057 C 0.46839 -0.01078 0.33968
 C2058 C 0.48277 -0.02390 0.34366
 C2059 C 0.49508 -0.02089 0.35890
 C2060 C 0.49309 -0.00472 0.37028
 C2061 C 0.45964 0.05527 0.38537
 C2062 C 0.44529 0.06841 0.38135
 C2063 C 0.43299 0.06540 0.36611
 C2064 C 0.43495 0.04921 0.35476
 C2065 C 0.48939 0.02845 0.39403
 C2066 C 0.50005 0.03105 0.40727
 C2067 C 0.43858 0.01598 0.33109
 C2068 C 0.42790 0.01336 0.31787
 H2069 H 0.45917 -0.01376 0.32767
 H2070 H 0.48437 -0.03648 0.33486
 H2071 H 0.50623 -0.03112 0.36194
 H2072 H 0.50301 -0.00300 0.38198
 H2073 H 0.46885 0.05824 0.39739
 H2074 H 0.44371 0.08101 0.39013
 H2075 H 0.42186 0.07565 0.36305
 H2076 H 0.42503 0.04750 0.34305
   
