data_POSCAR
  _audit_creation_date              2014-09-24
  _audit_creation_method            'ToBaCCo'
  _symmetry_space_group_name_H-M    'P1'
  _symmetry_Int_Tables_number       1
  _symmetry_cell_setting            triclinic
  loop_
  _symmetry_equiv_pos_as_xyz
 x,y,z
_cell_length_a 99.7197
_cell_length_b 99.5178
_cell_length_c 100.9785
_cell_angle_alpha 89.991700
_cell_angle_beta 89.922700
_cell_angle_gamma 89.987000
loop_
  _atom_site_label
  _atom_site_type_symbol
  _atom_site_fract_x
  _atom_site_fract_y
  _atom_site_fract_z
N1 N 0.35440 0.31831 0.32748
 N2 N 0.35373 0.32761 0.31828
 C3 C 0.36397 0.32591 0.30974
 C4 C 0.37150 0.31492 0.31377
 C5 C 0.36506 0.31037 0.32511
 H6 H 0.36583 0.33225 0.30125
 H7 H 0.36787 0.30192 0.33122
 Cu8 Cu 0.33958 0.34108 0.31839
 Cu9 Cu 0.34146 0.31718 0.34189
 Cu10 Cu 0.31649 0.34139 0.34273
 N11 N 0.32571 0.35482 0.31925
 N12 N 0.31672 0.35488 0.32876
 C13 C 0.30841 0.36539 0.32703
 C14 C 0.31240 0.37237 0.31580
 C15 C 0.32344 0.36531 0.31114
 H16 H 0.30008 0.36773 0.33348
 H17 H 0.32946 0.36769 0.30256
 N18 N 0.31795 0.32691 0.35597
 N19 N 0.32746 0.31771 0.35566
 C20 C 0.32579 0.30929 0.36597
 C21 C 0.31466 0.31335 0.37318
 C22 C 0.30997 0.32458 0.36649
 H23 H 0.33225 0.30085 0.36807
 H24 H 0.30136 0.33063 0.36907
 H25 H 0.32576 0.32632 0.33204
 H26 H 0.33684 0.33745 0.34212
 N27 N 0.35474 0.81787 -0.17177
 N28 N 0.35477 0.82749 -0.18066
 C29 C 0.36512 0.82554 -0.18902
 C30 C 0.37203 0.81404 -0.18516
 C31 C 0.36504 0.80948 -0.17413
 H32 H 0.36740 0.83205 -0.19728
 H33 H 0.36722 0.80075 -0.16816
 Cu34 Cu 0.34127 0.84164 -0.18046
 Cu35 Cu 0.34144 0.81691 -0.15770
 Cu36 Cu 0.31676 0.84139 -0.15746
 N37 N 0.32702 0.85504 -0.18040
 N38 N 0.31748 0.85486 -0.17142
 C39 C 0.30900 0.86513 -0.17365
 C40 C 0.31342 0.87225 -0.18467
 C41 C 0.32493 0.86545 -0.18866
 H42 H 0.30031 0.86720 -0.16760
 H43 H 0.33134 0.86784 -0.19696
 N44 N 0.31774 0.82693 -0.14415
 N45 N 0.32715 0.81762 -0.14426
 C46 C 0.32521 0.80929 -0.13393
 C47 C 0.31402 0.81352 -0.12692
 C48 C 0.30957 0.82477 -0.13374
 H49 H 0.33154 0.80079 -0.13167
 H50 H 0.30103 0.83097 -0.13131
 H51 H 0.32649 0.82661 -0.16818
 H52 H 0.33705 0.83721 -0.15704
 N53 N 0.85459 0.31834 -0.17309
 N54 N 0.85400 0.32761 -0.18233
 C55 C 0.86426 0.32582 -0.19084
 C56 C 0.87169 0.31481 -0.18673
 C57 C 0.86521 0.31033 -0.17540
 H58 H 0.86613 0.33203 -0.19941
 H59 H 0.86806 0.30197 -0.16919
 Cu60 Cu 0.83997 0.34118 -0.18233
 Cu61 Cu 0.84163 0.31742 -0.15869
 Cu62 Cu 0.81687 0.34188 -0.15800
 N63 N 0.82621 0.35501 -0.18160
 N64 N 0.81722 0.35527 -0.17209
 C65 C 0.80900 0.36583 -0.17396
 C66 C 0.81304 0.37267 -0.18530
 C67 C 0.82404 0.36542 -0.18983
 H68 H 0.80074 0.36829 -0.16747
 H69 H 0.83009 0.36751 -0.19846
 N70 N 0.81821 0.32747 -0.14465
 N71 N 0.82763 0.31817 -0.14493
 C72 C 0.82585 0.30978 -0.13461
 C73 C 0.81476 0.31397 -0.12742
 C74 C 0.81019 0.32524 -0.13413
 H75 H 0.83215 0.30121 -0.13255
 H76 H 0.80167 0.33140 -0.13154
 H77 H 0.82599 0.32665 -0.16859
 H78 H 0.83717 0.33774 -0.15858
 N79 N 0.85341 0.81851 0.32753
 N80 N 0.85293 0.82779 0.31829
 C81 C 0.86326 0.82601 0.30988
 C82 C 0.87065 0.81498 0.31403
 C83 C 0.86405 0.81049 0.32529
 H84 H 0.86521 0.83224 0.30133
 H85 H 0.86681 0.80210 0.33151
 Cu86 Cu 0.83888 0.84138 0.31816
 Cu87 Cu 0.84029 0.81755 0.34182
 Cu88 Cu 0.81555 0.84201 0.34221
 N89 N 0.82510 0.85523 0.31876
 N90 N 0.81602 0.85539 0.32818
 C91 C 0.80780 0.86594 0.32634
 C92 C 0.81191 0.87290 0.31512
 C93 C 0.82298 0.86572 0.31060
 H94 H 0.79948 0.86831 0.33279
 H95 H 0.82912 0.86793 0.30205
 N96 N 0.81671 0.82765 0.35556
 N97 N 0.82610 0.81832 0.35544
 C98 C 0.82419 0.81005 0.36584
 C99 C 0.81305 0.81438 0.37288
 C100 C 0.80859 0.82557 0.36602
 H101 H 0.83053 0.80157 0.36818
 H102 H 0.80000 0.83172 0.36841
 H103 H 0.82482 0.82674 0.33170
 H104 H 0.83589 0.83782 0.34185
 N105 N 0.64505 0.68118 0.32761
 N106 N 0.64506 0.67155 0.31870
 C107 C 0.63474 0.67350 0.31032
 C108 C 0.62785 0.68497 0.31418
 C109 C 0.63474 0.68955 0.32521
 H110 H 0.63236 0.66698 0.30210
 H111 H 0.63249 0.69837 0.33105
 Cu112 Cu 0.65850 0.65736 0.31895
 Cu113 Cu 0.65837 0.68214 0.34168
 Cu114 Cu 0.68283 0.65741 0.34198
 N115 N 0.67255 0.64375 0.31910
 N116 N 0.68200 0.64387 0.32814
 C117 C 0.69034 0.63345 0.32609
 C118 C 0.68593 0.62635 0.31513
 C119 C 0.67459 0.63322 0.31095
 H120 H 0.69902 0.63128 0.33212
 H121 H 0.66822 0.63069 0.30267
 N122 N 0.68202 0.67192 0.35517
 N123 N 0.67273 0.68135 0.35510
 C124 C 0.67483 0.68966 0.36542
 C125 C 0.68599 0.68525 0.37236
 C126 C 0.69025 0.67397 0.36552
 H127 H 0.66864 0.69827 0.36772
 H128 H 0.69867 0.66760 0.36793
 H129 H 0.67326 0.67235 0.33125
 H130 H 0.66255 0.66185 0.34236
 N131 N 0.64550 0.18219 -0.17291
 N132 N 0.64593 0.17300 -0.18222
 C133 C 0.63570 0.17503 -0.19068
 C134 C 0.62844 0.18613 -0.18646
 C135 C 0.63501 0.19039 -0.17512
 H136 H 0.63368 0.16883 -0.19922
 H137 H 0.63240 0.19882 -0.16888
 Cu138 Cu 0.65976 0.15921 -0.18236
 Cu139 Cu 0.65851 0.18282 -0.15857
 Cu140 Cu 0.68296 0.15805 -0.15822
 N141 N 0.67334 0.14518 -0.18183
 N142 N 0.68238 0.14477 -0.17240
 C143 C 0.69046 0.13412 -0.17438
 C144 C 0.68629 0.12739 -0.18572
 C145 C 0.67535 0.13480 -0.19014
 H146 H 0.69871 0.13153 -0.16795
 H147 H 0.66924 0.13282 -0.19874
 N148 N 0.68185 0.17237 -0.14476
 N149 N 0.67254 0.18178 -0.14491
 C150 C 0.67445 0.19005 -0.13453
 C151 C 0.68552 0.18568 -0.12745
 C152 C 0.68993 0.17441 -0.13427
 H153 H 0.66822 0.19864 -0.13232
 H154 H 0.69842 0.16816 -0.13183
 H155 H 0.67398 0.17346 -0.16863
 H156 H 0.66271 0.16244 -0.15861
 N157 N 0.14528 0.68310 -0.17301
 N158 N 0.14580 0.67388 -0.18230
 C159 C 0.13560 0.67583 -0.19081
 C160 C 0.12825 0.68690 -0.18666
 C161 C 0.13475 0.69123 -0.17529
 H162 H 0.13365 0.66959 -0.19934
 H163 H 0.13205 0.69965 -0.16908
 Cu164 Cu 0.15966 0.66014 -0.18235
 Cu165 Cu 0.15821 0.68378 -0.15860
 Cu166 Cu 0.18269 0.65903 -0.15804
 N167 N 0.17325 0.64615 -0.18171
 N168 N 0.18223 0.64574 -0.17221
 C169 C 0.19031 0.63508 -0.17413
 C170 C 0.18618 0.62837 -0.18547
 C171 C 0.17530 0.63574 -0.18998
 H172 H 0.19854 0.63242 -0.16769
 H173 H 0.16928 0.63370 -0.19863
 N174 N 0.18147 0.67338 -0.14460
 N175 N 0.17216 0.68279 -0.14483
 C176 C 0.17397 0.69106 -0.13444
 C177 C 0.18497 0.68669 -0.12726
 C178 C 0.18945 0.67543 -0.13405
 H179 H 0.16772 0.69965 -0.13230
 H180 H 0.19789 0.66914 -0.13149
 H181 H 0.17377 0.67441 -0.16853
 H182 H 0.16244 0.66340 -0.15857
 N183 N 0.14522 0.18167 0.32784
 N184 N 0.14545 0.17199 0.31900
 C185 C 0.13523 0.17376 0.31047
 C186 C 0.12816 0.18516 0.31417
 C187 C 0.13484 0.18990 0.32526
 H188 H 0.13303 0.16715 0.30227
 H189 H 0.13241 0.19872 0.33102
 Cu190 Cu 0.15906 0.15799 0.31954
 Cu191 Cu 0.15830 0.18286 0.34208
 Cu192 Cu 0.18297 0.15832 0.34302
 N193 N 0.17318 0.14451 0.32000
 N194 N 0.18247 0.14467 0.32922
 C195 C 0.19091 0.13430 0.32726
 C196 C 0.18672 0.12722 0.31619
 C197 C 0.17542 0.13404 0.31186
 H198 H 0.19951 0.13217 0.33341
 H199 H 0.16921 0.13152 0.30346
 N200 N 0.18177 0.17298 0.35610
 N201 N 0.17240 0.18233 0.35572
 C202 C 0.17425 0.19084 0.36593
 C203 C 0.18532 0.18666 0.37313
 C204 C 0.18980 0.17529 0.36656
 H205 H 0.16797 0.19945 0.36795
 H206 H 0.19825 0.16906 0.36922
 H207 H 0.17353 0.17308 0.33204
 H208 H 0.16268 0.16257 0.34300
 N209 N 0.64625 0.31839 0.67227
 N210 N 0.64671 0.32754 0.68162
 C211 C 0.63641 0.32559 0.69004
 C212 C 0.62908 0.31458 0.68574
 C213 C 0.63566 0.31028 0.67442
 H214 H 0.63444 0.33169 0.69867
 H215 H 0.63291 0.30198 0.66809
 Cu216 Cu 0.66067 0.34118 0.68186
 Cu217 Cu 0.65931 0.31771 0.65797
 Cu218 Cu 0.68398 0.34225 0.65772
 N219 N 0.67435 0.35508 0.68138
 N220 N 0.68345 0.35546 0.67196
 C221 C 0.69159 0.36604 0.67402
 C222 C 0.68738 0.37271 0.68534
 C223 C 0.67639 0.36542 0.68973
 H224 H 0.69988 0.36873 0.66764
 H225 H 0.67036 0.36744 0.69839
 N226 N 0.68279 0.32798 0.64421
 N227 N 0.67339 0.31867 0.64434
 C228 C 0.67525 0.31039 0.63396
 C229 C 0.68637 0.31466 0.62688
 C230 C 0.69088 0.32587 0.63372
 H231 H 0.66894 0.30187 0.63176
 H232 H 0.69944 0.33205 0.63127
 H233 H 0.67486 0.32691 0.66808
 H234 H 0.66371 0.33807 0.65810
 N235 N 0.64575 0.81903 1.17211
 N236 N 0.64584 0.82863 1.18104
 C237 C 0.63550 0.82677 1.18943
 C238 C 0.62851 0.81537 1.18557
 C239 C 0.63536 0.81075 1.17451
 H240 H 0.63322 0.83327 1.19769
 H241 H 0.63303 0.80201 1.16861
 Cu242 Cu 0.65944 0.84266 1.18084
 Cu243 Cu 0.65907 0.81799 1.15803
 Cu244 Cu 0.68384 0.84242 1.15780
 N245 N 0.67364 0.85607 1.18074
 N246 N 0.68315 0.85590 1.17173
 C247 C 0.69159 0.86621 1.17390
 C248 C 0.68718 0.87329 1.18490
 C249 C 0.67574 0.86651 1.18897
 H250 H 0.70030 0.86833 1.16788
 H251 H 0.66935 0.86901 1.19726
 N252 N 0.68285 0.82795 1.14453
 N253 N 0.67342 0.81866 1.14459
 C254 C 0.67541 0.81033 1.13426
 C255 C 0.68665 0.81456 1.12732
 C256 C 0.69108 0.82578 1.13417
 H257 H 0.66909 0.80184 1.13197
 H258 H 0.69964 0.83197 1.13179
 H259 H 0.67409 0.82757 1.16847
 H260 H 0.66352 0.83824 1.15741
 N261 N 0.14566 0.31982 1.17095
 N262 N 0.14435 0.33047 1.17852
 C263 C 0.13407 0.32854 1.18696
 C264 C 0.12855 0.31600 1.18454
 C265 C 0.13622 0.31076 1.17428
 H266 H 0.13078 0.33585 1.19418
 H267 H 0.13498 0.30114 1.16948
 Cu268 Cu 0.15604 0.34592 1.17664
 Cu269 Cu 0.15905 0.31884 1.15687
 Cu270 Cu 0.17982 0.34658 1.15319
 N271 N 0.17097 0.35842 1.17753
 N272 N 0.18025 0.35866 1.16830
 C273 C 0.18906 0.36850 1.17101
 C274 C 0.18515 0.37478 1.18265
 C275 C 0.17359 0.36806 1.18650
 H276 H 0.19755 0.37099 1.16481
 H277 H 0.16747 0.37002 1.19512
 N278 N 0.18083 0.33070 1.14164
 N279 N 0.17314 0.32002 1.14316
 C280 C 0.17632 0.31095 1.13376
 C281 C 0.18654 0.31614 1.12597
 C282 C 0.18913 0.32869 1.13132
 H283 H 0.17149 0.30130 1.13265
 H284 H 0.19642 0.33594 1.12790
 H285 H 0.17262 0.33197 1.16560
 H286 H 0.16027 0.33901 1.15362
 N287 N 0.14850 0.81610 0.67486
 N288 N 0.14913 0.82552 0.68393
 C289 C 0.13830 0.82462 0.69185
 C290 C 0.13043 0.81399 0.68754
 C291 C 0.13729 0.80882 0.67671
 H292 H 0.13635 0.83124 0.70012
 H293 H 0.13449 0.80029 0.67069
 Cu294 Cu 0.16422 0.83782 0.68481
 Cu295 Cu 0.16252 0.81370 0.66166
 Cu296 Cu 0.18391 0.84092 0.65786
 N297 N 0.17629 0.85294 0.68261
 N298 N 0.18381 0.85424 0.67199
 C299 C 0.19117 0.86551 0.67307
 C300 C 0.18811 0.87167 0.68502
 C301 C 0.17858 0.86336 0.69079
 H302 H 0.19827 0.86891 0.66570
 H303 H 0.17374 0.86468 0.70028
 N304 N 0.18259 0.82624 0.64480
 N305 N 0.17463 0.81578 0.64639
 C306 C 0.17626 0.80734 0.63610
 C307 C 0.18580 0.81269 0.62760
 C308 C 0.18957 0.82469 0.63348
 H309 H 0.17098 0.79793 0.63498
 H310 H 0.19690 0.83177 0.62983
 H311 H 0.17837 0.82501 0.66935
 H312 H 0.16442 0.83420 0.66102
 N313 N 0.35502 0.68258 0.67118
 N314 N 0.35523 0.67310 0.68023
 C315 C 0.36564 0.67530 0.68844
 C316 C 0.37235 0.68678 0.68432
 C317 C 0.36526 0.69110 0.67330
 H318 H 0.36815 0.66896 0.69676
 H319 H 0.36733 0.69981 0.66725
 Cu320 Cu 0.34190 0.65882 0.68042
 Cu321 Cu 0.34154 0.68315 0.65729
 Cu322 Cu 0.31722 0.65829 0.65767
 N323 N 0.32792 0.64519 0.68071
 N324 N 0.31832 0.64503 0.67183
 C325 C 0.31007 0.63463 0.67433
 C326 C 0.31472 0.62784 0.68541
 C327 C 0.32610 0.63489 0.68917
 H328 H 0.30132 0.63224 0.66849
 H329 H 0.33262 0.63268 0.69743
 N330 N 0.31785 0.67260 0.64417
 N331 N 0.32711 0.68205 0.64405
 C332 C 0.32492 0.69025 0.63367
 C333 C 0.31373 0.68578 0.62686
 C334 C 0.30952 0.67454 0.63385
 H335 H 0.33108 0.69884 0.63127
 H336 H 0.30106 0.66818 0.63158
 H337 H 0.32677 0.67339 0.66805
 H338 H 0.33742 0.66276 0.65698
 N339 N 0.35417 0.18169 1.17249
 N340 N 0.35367 0.17251 1.18183
 C341 C 0.36397 0.17443 1.19023
 C342 C 0.37135 0.18542 1.18596
 C343 C 0.36477 0.18975 1.17463
 H344 H 0.36597 0.16821 1.19877
 H345 H 0.36744 0.19815 1.16839
 Cu346 Cu 0.33967 0.15890 1.18210
 Cu347 Cu 0.34107 0.18248 1.15821
 Cu348 Cu 0.31635 0.15802 1.15809
 N349 N 0.32593 0.14502 1.18163
 N350 N 0.31685 0.14476 1.17222
 C351 C 0.30867 0.13420 1.17417
 C352 C 0.31282 0.12740 1.18542
 C353 C 0.32383 0.13460 1.18988
 H354 H 0.30030 0.13172 1.16785
 H355 H 0.32996 0.13235 1.19842
 N356 N 0.31750 0.17227 1.14462
 N357 N 0.32692 0.18157 1.14463
 C358 C 0.32501 0.18976 1.13418
 C359 C 0.31384 0.18543 1.12722
 C360 C 0.30936 0.17430 1.13418
 H361 H 0.33135 0.19823 1.13180
 H362 H 0.30080 0.16810 1.13187
 H363 H 0.32561 0.17337 1.16842
 H364 H 0.33669 0.16219 1.15836
 N365 N 0.85358 0.68142 1.17260
 N366 N 0.85321 0.67223 1.18193
 C367 C 0.86353 0.67423 1.19029
 C368 C 0.87079 0.68530 1.18600
 C369 C 0.86412 0.68958 1.17472
 H370 H 0.86561 0.66802 1.19882
 H371 H 0.86669 0.69800 1.16845
 Cu372 Cu 0.83932 0.65847 1.18222
 Cu373 Cu 0.84043 0.68212 1.15836
 Cu374 Cu 0.81601 0.65738 1.15821
 N375 N 0.82573 0.64443 1.18172
 N376 N 0.81666 0.64410 1.17230
 C377 C 0.80855 0.63349 1.17423
 C378 C 0.81271 0.62671 1.18549
 C379 C 0.82369 0.63398 1.18996
 H380 H 0.80021 0.63097 1.16789
 H381 H 0.82979 0.63181 1.19853
 N382 N 0.81697 0.67167 1.14478
 N383 N 0.82625 0.68110 1.14481
 C384 C 0.82421 0.68930 1.13438
 C385 C 0.81309 0.68483 1.12743
 C386 C 0.80879 0.67361 1.13436
 H387 H 0.83037 0.69792 1.13207
 H388 H 0.80037 0.66725 1.13198
 H389 H 0.82510 0.67282 1.16858
 H390 H 0.83631 0.66178 1.15850
 N391 N 0.85478 0.18208 0.67302
 N392 N 0.85434 0.17292 0.68237
 C393 C 0.86465 0.17490 0.69076
 C394 C 0.87196 0.18593 0.68646
 C395 C 0.86534 0.19020 0.67514
 H396 H 0.86667 0.16872 0.69932
 H397 H 0.86798 0.19857 0.66884
 Cu398 Cu 0.84043 0.15923 0.68265
 Cu399 Cu 0.84169 0.18273 0.65876
 Cu400 Cu 0.81711 0.15809 0.65860
 N401 N 0.82678 0.14530 0.68223
 N402 N 0.81769 0.14488 0.67284
 C403 C 0.80958 0.13427 0.67491
 C404 C 0.81380 0.12762 0.68625
 C405 C 0.82477 0.13495 0.69059
 H406 H 0.80124 0.13164 0.66861
 H407 H 0.83092 0.13289 0.69915
 N408 N 0.81823 0.17236 0.64507
 N409 N 0.82758 0.18173 0.64517
 C410 C 0.82572 0.18995 0.63475
 C411 C 0.81464 0.18559 0.62767
 C412 C 0.81017 0.17439 0.63456
 H413 H 0.83197 0.19852 0.63252
 H414 H 0.80170 0.16811 0.63209
 H415 H 0.82619 0.17348 0.66892
 H416 H 0.83738 0.16237 0.65890
 N417 N 0.31778 0.35460 0.67189
 N418 N 0.32689 0.35423 0.68126
 C419 C 0.32494 0.36469 0.68951
 C420 C 0.31400 0.37203 0.68507
 C421 C 0.30974 0.36527 0.67384
 H422 H 0.33113 0.36687 0.69802
 H423 H 0.30135 0.36782 0.66757
 Cu424 Cu 0.34049 0.34018 0.68171
 Cu425 Cu 0.31695 0.34130 0.65783
 Cu426 Cu 0.34145 0.31668 0.65767
 N427 N 0.35450 0.32655 0.68106
 N428 N 0.35481 0.31744 0.67165
 C429 C 0.36548 0.30939 0.67348
 C430 C 0.37232 0.31365 0.68465
 C431 C 0.36502 0.32460 0.68919
 H432 H 0.36799 0.30101 0.66714
 H433 H 0.36727 0.33078 0.69770
 N434 N 0.32706 0.31759 0.64436
 N435 N 0.31774 0.32699 0.64441
 C436 C 0.30944 0.32497 0.63410
 C437 C 0.31371 0.31374 0.62717
 C438 C 0.32493 0.30934 0.63400
 H439 H 0.30097 0.33130 0.63177
 H440 H 0.33109 0.30073 0.63165
 H441 H 0.32619 0.32590 0.66807
 H442 H 0.33729 0.33705 0.65797
 N443 N 0.31805 0.85422 0.17249
 N444 N 0.32738 0.85358 0.18163
 C445 C 0.32563 0.86377 0.19024
 C446 C 0.31457 0.87121 0.18630
 C447 C 0.31003 0.86480 0.17497
 H448 H 0.33190 0.86559 0.19877
 H449 H 0.30161 0.86767 0.16888
 Cu450 Cu 0.34095 0.83953 0.18138
 Cu451 Cu 0.31700 0.84135 0.15801
 Cu452 Cu 0.34141 0.81658 0.15691
 N453 N 0.35477 0.82574 0.18042
 N454 N 0.35489 0.81680 0.17085
 C455 C 0.36543 0.80852 0.17254
 C456 C 0.37235 0.81248 0.18378
 C457 C 0.36525 0.82347 0.18850
 H458 H 0.36790 0.80031 0.16597
 H459 H 0.36749 0.82934 0.19722
 N460 N 0.32693 0.81802 0.14371
 N461 N 0.31763 0.82744 0.14414
 C462 C 0.30921 0.82573 0.13386
 C463 C 0.31337 0.81468 0.12657
 C464 C 0.32466 0.81007 0.13316
 H465 H 0.30063 0.83204 0.13190
 H466 H 0.33083 0.80158 0.13046
 H467 H 0.32628 0.82565 0.16773
 H468 H 0.33724 0.83694 0.15767
 N469 N 0.81820 0.35344 0.17189
 N470 N 0.82760 0.35305 0.18097
 C471 C 0.82574 0.36331 0.18948
 C472 C 0.81453 0.37053 0.18554
 C473 C 0.81003 0.36391 0.17431
 H474 H 0.83214 0.36540 0.19785
 H475 H 0.80143 0.36647 0.16831
 Cu476 Cu 0.84141 0.33923 0.18073
 Cu477 Cu 0.81729 0.34043 0.15753
 Cu478 Cu 0.84207 0.31601 0.15652
 N479 N 0.85541 0.32564 0.17986
 N480 N 0.85561 0.31659 0.17041
 C481 C 0.86624 0.30845 0.17217
 C482 C 0.87315 0.31262 0.18336
 C483 C 0.86594 0.32359 0.18795
 H484 H 0.86871 0.30013 0.16575
 H485 H 0.86816 0.32966 0.19654
 N486 N 0.82750 0.31712 0.14338
 N487 N 0.81808 0.32642 0.14378
 C488 C 0.80966 0.32457 0.13353
 C489 C 0.81396 0.31356 0.12626
 C490 C 0.82532 0.30912 0.13285
 H491 H 0.80104 0.33080 0.13153
 H492 H 0.83160 0.30070 0.13017
 H493 H 0.82691 0.32494 0.16734
 H494 H 0.83763 0.33628 0.15707
 N495 N 0.81736 0.85443 0.67071
 N496 N 0.82686 0.85459 0.67970
 C497 C 0.82471 0.86497 0.68800
 C498 C 0.81324 0.87172 0.68399
 C499 C 0.80887 0.86469 0.67295
 H500 H 0.83110 0.86748 0.69627
 H501 H 0.80011 0.86680 0.66702
 Cu502 Cu 0.84114 0.84124 0.67968
 Cu503 Cu 0.81667 0.84096 0.65674
 Cu504 Cu 0.84154 0.81664 0.65681
 N505 N 0.85482 0.82726 0.67976
 N506 N 0.85490 0.81771 0.67079
 C507 C 0.86533 0.80946 0.67304
 C508 C 0.87223 0.81404 0.68405
 C509 C 0.86522 0.82538 0.68806
 H510 H 0.86765 0.80073 0.66710
 H511 H 0.86757 0.83186 0.69632
 N512 N 0.82716 0.81725 0.64348
 N513 N 0.81769 0.82650 0.64344
 C514 C 0.80946 0.82425 0.63311
 C515 C 0.81394 0.81303 0.62628
 C516 C 0.82521 0.80889 0.63318
 H517 H 0.80084 0.83037 0.63076
 H518 H 0.83159 0.80044 0.63088
 H519 H 0.82649 0.82616 0.66736
 H520 H 0.83700 0.83689 0.65626
 N521 N 0.68184 0.64536 0.67146
 N522 N 0.67253 0.64521 0.68068
 C523 C 0.67483 0.63482 0.68892
 C524 C 0.68620 0.62805 0.68464
 C525 C 0.69035 0.63507 0.67350
 H526 H 0.66863 0.63231 0.69734
 H527 H 0.69898 0.63296 0.66737
 Cu528 Cu 0.65831 0.65860 0.68101
 Cu529 Cu 0.68228 0.65889 0.65754
 Cu530 Cu 0.65744 0.68326 0.65823
 N531 N 0.64461 0.67252 0.68142
 N532 N 0.64433 0.68211 0.67249
 C533 C 0.63390 0.69031 0.67501
 C534 C 0.62724 0.68564 0.68615
 C535 C 0.63437 0.67431 0.68994
 H536 H 0.63143 0.69906 0.66917
 H537 H 0.63219 0.66777 0.69821
 N538 N 0.67160 0.68270 0.64459
 N539 N 0.68103 0.67341 0.64432
 C540 C 0.68909 0.67566 0.63385
 C541 C 0.68454 0.68693 0.62715
 C542 C 0.67341 0.69110 0.63429
 H543 H 0.69757 0.66946 0.63123
 H544 H 0.66710 0.69966 0.63219
 H545 H 0.67270 0.67371 0.66838
 H546 H 0.66195 0.66302 0.65751
 N547 N 0.68127 0.14547 0.17199
 N548 N 0.67153 0.14571 0.18076
 C549 C 0.67324 0.13548 0.18932
 C550 C 0.68466 0.12841 0.18572
 C551 C 0.68947 0.13509 0.17465
 H552 H 0.66659 0.13329 0.19750
 H553 H 0.69834 0.13267 0.16897
 Cu554 Cu 0.65757 0.15937 0.18015
 Cu555 Cu 0.68259 0.15859 0.15776
 Cu556 Cu 0.65833 0.18351 0.15678
 N557 N 0.64429 0.17368 0.17967
 N558 N 0.64463 0.18308 0.17054
 C559 C 0.63436 0.19164 0.17251
 C560 C 0.62717 0.18741 0.18350
 C561 C 0.63381 0.17596 0.18777
 H562 H 0.63237 0.20034 0.16642
 H563 H 0.63115 0.16968 0.19610
 N564 N 0.67301 0.18222 0.14374
 N565 N 0.68223 0.17273 0.14412
 C566 C 0.69075 0.17447 0.13390
 C567 C 0.68673 0.18561 0.12669
 C568 C 0.67543 0.19025 0.13327
 H569 H 0.69921 0.16802 0.13186
 H570 H 0.66935 0.19882 0.13063
 H571 H 0.67286 0.17386 0.16785
 H572 H 0.66238 0.16315 0.15674
 N573 N 0.18060 0.64530 0.17258
 N574 N 0.17092 0.64561 0.18140
 C575 C 0.17259 0.63536 0.18995
 C576 C 0.18393 0.62819 0.18628
 C577 C 0.18874 0.63485 0.17518
 H578 H 0.16597 0.63321 0.19815
 H579 H 0.19755 0.63236 0.16944
 Cu580 Cu 0.15706 0.65939 0.18082
 Cu581 Cu 0.18197 0.65843 0.15834
 Cu582 Cu 0.15775 0.68339 0.15737
 N583 N 0.14374 0.67368 0.18032
 N584 N 0.14405 0.68301 0.17112
 C585 C 0.13378 0.69156 0.17303
 C586 C 0.12659 0.68742 0.18406
 C587 C 0.13325 0.67601 0.18842
 H588 H 0.13178 0.70021 0.16687
 H589 H 0.13060 0.66980 0.19679
 N590 N 0.17241 0.68209 0.14433
 N591 N 0.18164 0.67260 0.14470
 C592 C 0.19017 0.67436 0.13450
 C593 C 0.18614 0.68552 0.12731
 C594 C 0.17483 0.69014 0.13388
 H595 H 0.19870 0.66799 0.13248
 H596 H 0.16871 0.69866 0.13120
 H597 H 0.17235 0.67374 0.16838
 H598 H 0.16180 0.66301 0.15738
 N599 N 0.18167 0.14477 0.67266
 N600 N 0.17197 0.14503 0.68148
 C601 C 0.17370 0.13480 0.69004
 C602 C 0.18509 0.12770 0.68639
 C603 C 0.18987 0.13437 0.67530
 H604 H 0.16708 0.13262 0.69824
 H605 H 0.19870 0.13193 0.66957
 Cu606 Cu 0.15804 0.15871 0.68090
 Cu607 Cu 0.18297 0.15787 0.65841
 Cu608 Cu 0.15872 0.18279 0.65748
 N609 N 0.14473 0.17301 0.68042
 N610 N 0.14505 0.18237 0.67126
 C611 C 0.13478 0.19092 0.67320
 C612 C 0.12759 0.18673 0.68421
 C613 C 0.13425 0.17531 0.68852
 H614 H 0.13278 0.19960 0.66708
 H615 H 0.13160 0.16906 0.69688
 N616 N 0.17337 0.18151 0.64442
 N617 N 0.18259 0.17202 0.64477
 C618 C 0.19108 0.17377 0.63453
 C619 C 0.18704 0.18492 0.62734
 C620 C 0.17575 0.18955 0.63395
 H621 H 0.19954 0.16733 0.63245
 H622 H 0.16966 0.19812 0.63135
 H623 H 0.17328 0.17316 0.66850
 H624 H 0.16275 0.16243 0.65746
 N625 N 0.31881 0.64561 0.32756
 N626 N 0.32843 0.64593 0.31867
 C627 C 0.32669 0.63569 0.31012
 C628 C 0.31537 0.62854 0.31386
 C629 C 0.31065 0.63517 0.32500
 H630 H 0.33325 0.63355 0.30186
 H631 H 0.30188 0.63269 0.33079
 Cu632 Cu 0.34231 0.65967 0.31918
 Cu633 Cu 0.31754 0.65870 0.34182
 Cu634 Cu 0.34175 0.68366 0.34265
 N635 N 0.35563 0.67396 0.31961
 N636 N 0.35538 0.68328 0.32882
 C637 C 0.36565 0.69182 0.32685
 C638 C 0.37276 0.68768 0.31578
 C639 C 0.36607 0.67628 0.31145
 H640 H 0.36769 0.70047 0.33300
 H641 H 0.36865 0.67007 0.30306
 N642 N 0.32715 0.68235 0.35578
 N643 N 0.31795 0.67285 0.35546
 C644 C 0.30947 0.67460 0.36570
 C645 C 0.31349 0.68576 0.37287
 C646 C 0.32477 0.69040 0.36624
 H647 H 0.30101 0.66816 0.36779
 H648 H 0.33083 0.69900 0.36882
 H649 H 0.32709 0.67403 0.33172
 H650 H 0.33771 0.66329 0.34266
 N651 N 0.31917 0.14511 0.82821
 N652 N 0.32877 0.14509 0.81929
 C653 C 0.32687 0.13469 0.81097
 C654 C 0.31547 0.12777 0.81488
 C655 C 0.31086 0.13472 0.82589
 H656 H 0.33338 0.13230 0.80274
 H657 H 0.30208 0.13248 0.83176
 Cu658 Cu 0.34284 0.15865 0.81938
 Cu659 Cu 0.31813 0.15856 0.84220
 Cu660 Cu 0.34252 0.18332 0.84216
 N661 N 0.35623 0.17290 0.81935
 N662 N 0.35600 0.18250 0.82827
 C663 C 0.36627 0.19096 0.82606
 C664 C 0.37339 0.18648 0.81513
 C665 C 0.36668 0.17496 0.81113
 H666 H 0.36832 0.19977 0.83197
 H667 H 0.36925 0.16850 0.80291
 N668 N 0.32809 0.18248 0.85543
 N669 N 0.31881 0.17305 0.85550
 C670 C 0.31052 0.17516 0.86584
 C671 C 0.31479 0.18648 0.87265
 C672 C 0.32597 0.19082 0.86571
 H673 H 0.30207 0.16884 0.86827
 H674 H 0.33215 0.19942 0.86796
 H675 H 0.32774 0.17343 0.83155
 H676 H 0.33836 0.16295 0.84276
 N677 N 0.81865 0.64615 0.82814
 N678 N 0.82776 0.64653 0.81875
 C679 C 0.82575 0.63615 0.81042
 C680 C 0.81474 0.62885 0.81481
 C681 C 0.81053 0.63556 0.82612
 H682 H 0.83186 0.63407 0.80183
 H683 H 0.80218 0.63298 0.83245
 Cu684 Cu 0.84138 0.66055 0.81835
 Cu685 Cu 0.81794 0.65937 0.84233
 Cu686 Cu 0.84237 0.68411 0.84223
 N687 N 0.85525 0.67431 0.81867
 N688 N 0.85555 0.68348 0.82802
 C689 C 0.86606 0.69169 0.82595
 C690 C 0.87279 0.68748 0.81468
 C691 C 0.86561 0.67638 0.81033
 H692 H 0.86854 0.70013 0.83221
 H693 H 0.86779 0.67021 0.80180
 N694 N 0.82818 0.68305 0.85578
 N695 N 0.81889 0.67362 0.85583
 C696 C 0.81072 0.67558 0.86628
 C697 C 0.81505 0.68681 0.87319
 C698 C 0.82616 0.69126 0.86619
 H699 H 0.80229 0.66924 0.86871
 H700 H 0.83232 0.69988 0.86846
 H701 H 0.82704 0.67481 0.83200
 H702 H 0.83821 0.66375 0.84208
 N703 N 0.81970 0.14589 0.32790
 N704 N 0.82931 0.14616 0.31899
 C705 C 0.82755 0.13588 0.31049
 C706 C 0.81623 0.12875 0.31428
 C707 C 0.81153 0.13544 0.32540
 H708 H 0.83409 0.13370 0.30223
 H709 H 0.80277 0.13299 0.33122
 Cu710 Cu 0.84318 0.15991 0.31939
 Cu711 Cu 0.81847 0.15905 0.34210
 Cu712 Cu 0.84267 0.18402 0.34275
 N713 N 0.85647 0.17424 0.31970
 N714 N 0.85623 0.18360 0.32887
 C715 C 0.86646 0.19217 0.32682
 C716 C 0.87354 0.18799 0.31573
 C717 C 0.86686 0.17655 0.31149
 H718 H 0.86850 0.20085 0.33291
 H719 H 0.86943 0.17031 0.30311
 N720 N 0.82814 0.18275 0.35594
 N721 N 0.81892 0.17325 0.35568
 C722 C 0.81048 0.17505 0.36594
 C723 C 0.81454 0.18624 0.37306
 C724 C 0.82580 0.19084 0.36638
 H725 H 0.80201 0.16864 0.36807
 H726 H 0.83190 0.19942 0.36892
 H727 H 0.82801 0.17434 0.33189
 H728 H 0.83867 0.16365 0.34286
 N729 N 0.68106 0.35366 0.32889
 N730 N 0.67143 0.35351 0.32003
 C731 C 0.67328 0.36378 0.31153
 C732 C 0.68469 0.37077 0.31527
 C733 C 0.68934 0.36401 0.32635
 H734 H 0.66674 0.36604 0.30331
 H735 H 0.69816 0.36635 0.33211
 Cu736 Cu 0.65741 0.33992 0.32042
 Cu737 Cu 0.68220 0.34040 0.34300
 Cu738 Cu 0.65785 0.31558 0.34358
 N739 N 0.64406 0.32567 0.32070
 N740 N 0.64427 0.31621 0.32976
 C741 C 0.63399 0.30771 0.32766
 C742 C 0.62692 0.31204 0.31665
 C743 C 0.63365 0.32349 0.31250
 H744 H 0.63191 0.29897 0.33368
 H745 H 0.63111 0.32983 0.30419
 N746 N 0.67241 0.31665 0.35671
 N747 N 0.68166 0.32611 0.35649
 C748 C 0.69013 0.32418 0.36669
 C749 C 0.68604 0.31293 0.37371
 C750 C 0.67474 0.30845 0.36705
 H751 H 0.69860 0.33055 0.36886
 H752 H 0.66867 0.29982 0.36952
 H753 H 0.67254 0.32528 0.33270
 H754 H 0.66198 0.33593 0.34383
 N755 N 0.68293 0.85354 0.82922
 N756 N 0.67400 0.85358 0.81967
 C757 C 0.67639 0.86411 0.81163
 C758 C 0.68744 0.87106 0.81638
 C759 C 0.69131 0.86401 0.82758
 H760 H 0.67056 0.86649 0.80294
 H761 H 0.69952 0.86636 0.83415
 Cu762 Cu 0.66009 0.83992 0.81867
 Cu763 Cu 0.68299 0.83998 0.84311
 Cu764 Cu 0.65795 0.81586 0.84202
 N765 N 0.64588 0.82653 0.81844
 N766 N 0.64512 0.81715 0.82757
 C767 C 0.63442 0.80931 0.82511
 C768 C 0.62807 0.81401 0.81381
 C769 C 0.63566 0.82498 0.80987
 H770 H 0.63142 0.80090 0.83120
 H771 H 0.63392 0.83133 0.80137
 N772 N 0.67186 0.81626 0.85586
 N773 N 0.68138 0.82545 0.85627
 C774 C 0.68929 0.82305 0.86680
 C775 C 0.68455 0.81179 0.87340
 C776 C 0.67347 0.80778 0.86613
 H777 H 0.69784 0.82912 0.86948
 H778 H 0.66705 0.79928 0.86812
 H779 H 0.67373 0.82498 0.83228
 H780 H 0.66261 0.83609 0.84238
 N781 N 0.18220 0.35481 0.82915
 N782 N 0.17277 0.35495 0.82007
 C783 C 0.17495 0.36536 0.81182
 C784 C 0.18635 0.37214 0.81594
 C785 C 0.19066 0.36511 0.82700
 H786 H 0.16863 0.36786 0.80349
 H787 H 0.19935 0.36723 0.83301
 Cu788 Cu 0.15857 0.34151 0.81996
 Cu789 Cu 0.18285 0.34131 0.84309
 Cu790 Cu 0.15813 0.31687 0.84278
 N791 N 0.14497 0.32747 0.81975
 N792 N 0.14488 0.31789 0.82871
 C793 C 0.13450 0.30960 0.82638
 C794 C 0.12765 0.31417 0.81533
 C795 C 0.13463 0.32555 0.81138
 H796 H 0.13219 0.30084 0.83228
 H797 H 0.13229 0.33204 0.80312
 N798 N 0.17240 0.31751 0.85622
 N799 N 0.18181 0.32682 0.85635
 C800 C 0.18997 0.32460 0.86674
 C801 C 0.18552 0.31334 0.87352
 C802 C 0.17433 0.30913 0.86652
 H803 H 0.19849 0.33081 0.86921
 H804 H 0.16803 0.30059 0.86872
 H805 H 0.17320 0.32648 0.83237
 H806 H 0.16256 0.33715 0.84340
 N807 N 0.18065 0.85422 0.32762
 N808 N 0.17097 0.85394 0.31882
 C809 C 0.17266 0.86422 0.31030
 C810 C 0.18400 0.87136 0.31397
 C811 C 0.18879 0.86467 0.32504
 H812 H 0.16604 0.86641 0.30211
 H813 H 0.19759 0.86714 0.33077
 Cu814 Cu 0.15710 0.84020 0.31936
 Cu815 Cu 0.18198 0.84107 0.34183
 Cu816 Cu 0.15777 0.81610 0.34274
 N817 N 0.14381 0.82588 0.31982
 N818 N 0.14411 0.81651 0.32898
 C819 C 0.13384 0.80797 0.32704
 C820 C 0.12668 0.81217 0.31603
 C821 C 0.13335 0.82359 0.31172
 H822 H 0.13181 0.79930 0.33316
 H823 H 0.13072 0.82985 0.30338
 N824 N 0.17240 0.81738 0.35579
 N825 N 0.18161 0.82688 0.35543
 C826 C 0.19011 0.82511 0.36563
 C827 C 0.18609 0.81395 0.37281
 C828 C 0.17480 0.80932 0.36623
 H829 H 0.19858 0.83154 0.36767
 H830 H 0.16871 0.80076 0.36886
 H831 H 0.17238 0.82578 0.33173
 H832 H 0.16180 0.83648 0.34279
 C833 C 0.24466 0.99914 0.25508
 C834 C 0.25444 0.99909 0.24564
 C835 C 0.25963 1.01175 0.23976
 C836 C 0.26044 0.98639 0.24065
 C837 C 0.23848 0.98650 0.26000
 C838 C 0.23966 1.01184 0.26105
 C839 C 0.25093 1.02106 0.23379
 C840 C 0.25598 1.03292 0.22829
 C841 C 0.26978 1.03552 0.22858
 C842 C 0.27851 1.02619 0.23435
 C843 C 0.27347 1.01435 0.23987
 C844 C 0.26070 0.98384 0.22698
 C845 C 0.26638 0.97199 0.22211
 C846 C 0.27194 0.96261 0.23085
 C847 C 0.27186 0.96515 0.24449
 C848 C 0.26620 0.97702 0.24937
 C849 C 0.23823 0.98385 0.27365
 C850 C 0.23244 0.97203 0.27844
 C851 C 0.22676 0.96278 0.26965
 C852 C 0.22681 0.96543 0.25603
 C853 C 0.23259 0.97727 0.25122
 C854 C 0.24851 1.02099 0.26705
 C855 C 0.24363 1.03286 0.27268
 C856 C 0.22987 1.03564 0.27248
 C857 C 0.22099 1.02649 0.26666
 C858 C 0.22586 1.01463 0.26101
 H859 H 0.24025 1.01912 0.23338
 H860 H 0.24915 1.04004 0.22377
 H861 H 0.28920 1.02809 0.23460
 H862 H 0.28035 1.00726 0.24435
 H863 H 0.25640 0.99097 0.22009
 H864 H 0.26642 0.97014 0.21154
 H865 H 0.26633 0.97893 0.25993
 H866 H 0.24264 0.99088 0.28058
 H867 H 0.23242 0.97009 0.28900
 H868 H 0.22238 0.95837 0.24915
 H869 H 0.23245 0.97926 0.24068
 H870 H 0.25916 1.01890 0.26741
 H871 H 0.25058 1.03984 0.27723
 H872 H 0.21032 1.02852 0.26648
 H873 H 0.21887 1.00767 0.25651
 H874 H 0.27620 0.95799 0.25134
 C875 C 0.24574 0.49994 0.75546
 C876 C 0.25529 0.50001 0.74579
 C877 C 0.26111 0.51272 0.74062
 C878 C 0.26045 0.48737 0.73984
 C879 C 0.24060 0.48723 0.76129
 C880 C 0.23989 0.51259 0.76074
 C881 C 0.26077 0.51534 0.72696
 C882 C 0.26624 0.52721 0.72190
 C883 C 0.27219 0.53654 0.73043
 C884 C 0.27271 0.53393 0.74405
 C885 C 0.26725 0.52205 0.74913
 C886 C 0.25173 0.47800 0.73398
 C887 C 0.25680 0.46617 0.72842
 C888 C 0.27062 0.46367 0.72854
 C889 C 0.27935 0.47305 0.73420
 C890 C 0.27430 0.48486 0.73977
 C891 C 0.24934 0.47782 0.76706
 C892 C 0.24429 0.46592 0.77252
 C893 C 0.23047 0.46339 0.77237
 C894 C 0.22172 0.47282 0.76679
 C895 C 0.22675 0.48469 0.76133
 C896 C 0.24025 0.51512 0.77441
 C897 C 0.23481 0.52697 0.77954
 C898 C 0.22887 0.53637 0.77107
 C899 C 0.22831 0.53383 0.75743
 C900 C 0.23374 0.52197 0.75229
 H901 H 0.25616 0.50824 0.72023
 H902 H 0.26582 0.52910 0.71134
 H903 H 0.27737 0.54105 0.75073
 H904 H 0.26784 0.52009 0.75966
 H905 H 0.24103 0.47988 0.73370
 H906 H 0.24996 0.45901 0.72400
 H907 H 0.28119 0.49199 0.74416
 H908 H 0.26003 0.47970 0.76735
 H909 H 0.25114 0.45873 0.77688
 H910 H 0.21101 0.47099 0.76667
 H911 H 0.21985 0.49186 0.75700
 H912 H 0.24487 0.50797 0.78109
 H913 H 0.23526 0.52880 0.79010
 H914 H 0.22366 0.54101 0.75080
 H915 H 0.23313 0.52008 0.74175
 H916 H 0.29006 0.47123 0.73431
 C917 C 0.74514 0.00128 0.24607
 C918 C 0.75476 0.00129 0.25564
 C919 C 0.75974 -0.01139 0.26167
 C920 C 0.76087 0.01396 0.26055
 C921 C 0.73918 0.01394 0.24098
 C922 C 0.74008 -0.01141 0.24014
 C923 C 0.75085 -0.02061 0.26754
 C924 C 0.75572 -0.03251 0.27312
 C925 C 0.76950 -0.03524 0.27300
 C926 C 0.77840 -0.02599 0.26735
 C927 C 0.77355 -0.01410 0.26176
 C928 C 0.76098 0.01669 0.27419
 C929 C 0.76680 0.02850 0.27896
 C930 C 0.77266 0.03766 0.27017
 C931 C 0.77273 0.03493 0.25656
 C932 C 0.76692 0.02311 0.25177
 C933 C 0.73914 0.01648 0.22730
 C934 C 0.73348 0.02829 0.22234
 C935 C 0.72771 0.03765 0.23099
 C936 C 0.72758 0.03513 0.24463
 C937 C 0.73323 0.02330 0.24961
 C938 C 0.74890 -0.02070 0.23430
 C939 C 0.74397 -0.03256 0.22870
 C940 C 0.73017 -0.03518 0.22878
 C941 C 0.72133 -0.02588 0.23444
 C942 C 0.72624 -0.01404 0.24005
 H943 H 0.74019 -0.01858 0.26780
 H944 H 0.74875 -0.03957 0.27752
 H945 H 0.78908 -0.02798 0.26725
 H946 H 0.78056 -0.00708 0.25737
 H947 H 0.75645 0.00973 0.28112
 H948 H 0.76672 0.03049 0.28951
 H949 H 0.76718 0.02106 0.24124
 H950 H 0.74360 0.00936 0.22048
 H951 H 0.73360 0.03013 0.21176
 H952 H 0.72307 0.04227 0.25140
 H953 H 0.73293 0.02141 0.26017
 H954 H 0.75958 -0.01874 0.23404
 H955 H 0.75090 -0.03965 0.22427
 H956 H 0.71063 -0.02779 0.23452
 H957 H 0.71927 -0.00696 0.24443
 H958 H 0.77731 0.04192 0.24968
 C959 C 0.74590 0.50074 0.74554
 C960 C 0.75524 0.50073 0.75531
 C961 C 0.76047 0.48797 0.76073
 C962 C 0.76064 0.51331 0.76108
 C963 C 0.74072 0.51332 0.73956
 C964 C 0.74049 0.48800 0.74025
 C965 C 0.75636 0.48364 0.77331
 C966 C 0.76130 0.47163 0.77856
 C967 C 0.77049 0.46392 0.77131
 C968 C 0.77464 0.46823 0.75874
 C969 C 0.76962 0.48020 0.75345
 C970 C 0.75210 0.52290 0.76684
 C971 C 0.75737 0.53476 0.77215
 C972 C 0.77122 0.53709 0.77182
 C973 C 0.77978 0.52749 0.76624
 C974 C 0.77453 0.51564 0.76094
 C975 C 0.74943 0.52264 0.73360
 C976 C 0.74436 0.53446 0.72802
 C977 C 0.73055 0.53702 0.72828
 C978 C 0.72182 0.52770 0.73408
 C979 C 0.72687 0.51589 0.73964
 C980 C 0.74473 0.48337 0.72782
 C981 C 0.73962 0.47138 0.72270
 C982 C 0.73014 0.46400 0.72991
 C983 C 0.72587 0.46861 0.74233
 C984 C 0.73106 0.48056 0.74751
 H985 H 0.74926 0.48954 0.77900
 H986 H 0.75800 0.46838 0.78827
 H987 H 0.78179 0.46238 0.75308
 H988 H 0.77293 0.48348 0.74376
 H989 H 0.74138 0.52119 0.76724
 H990 H 0.75066 0.54209 0.77652
 H991 H 0.78129 0.50835 0.75657
 H992 H 0.76011 0.52073 0.73325
 H993 H 0.75119 0.54158 0.72350
 H994 H 0.71112 0.52957 0.73431
 H995 H 0.71999 0.50882 0.74416
 H996 H 0.75204 0.48901 0.72216
 H997 H 0.74301 0.46789 0.71310
 H998 H 0.71849 0.46302 0.74796
 H999 H 0.72766 0.48408 0.75709
 H1000 H 0.79051 0.52917 0.76595
 C1001 C 0.24475 0.50079 0.24586
 C1002 C 0.25450 0.50080 0.25531
 C1003 C 0.25951 0.48812 0.26132
 C1004 C 0.26063 0.51347 0.26017
 C1005 C 0.23868 0.51345 0.24087
 C1006 C 0.23965 0.48810 0.23999
 C1007 C 0.25066 0.47896 0.26733
 C1008 C 0.25555 0.46710 0.27299
 C1009 C 0.26932 0.46435 0.27280
 C1010 C 0.27819 0.47352 0.26698
 C1011 C 0.27332 0.48536 0.26131
 C1012 C 0.26087 0.51618 0.27382
 C1013 C 0.26664 0.52803 0.27855
 C1014 C 0.27231 0.53726 0.26971
 C1015 C 0.27226 0.53456 0.25610
 C1016 C 0.26650 0.52269 0.25134
 C1017 C 0.23842 0.51600 0.22719
 C1018 C 0.23265 0.52781 0.22233
 C1019 C 0.22700 0.53715 0.23107
 C1020 C 0.22709 0.53461 0.24471
 C1021 C 0.23285 0.52279 0.24960
 C1022 C 0.24844 0.47883 0.23405
 C1023 C 0.24347 0.46697 0.22849
 C1024 C 0.22968 0.46433 0.22870
 C1025 C 0.22087 0.47360 0.23446
 C1026 C 0.22582 0.48544 0.24004
 H1027 H 0.24000 0.48102 0.26767
 H1028 H 0.24860 0.46011 0.27753
 H1029 H 0.28887 0.47151 0.26681
 H1030 H 0.28031 0.49233 0.25680
 H1031 H 0.25648 0.50916 0.28078
 H1032 H 0.26665 0.53000 0.28910
 H1033 H 0.26665 0.52066 0.24081
 H1034 H 0.24278 0.50890 0.22030
 H1035 H 0.23260 0.52965 0.21176
 H1036 H 0.22268 0.54174 0.25156
 H1037 H 0.23271 0.52089 0.26015
 H1038 H 0.25911 0.48081 0.23369
 H1039 H 0.25036 0.45990 0.22398
 H1040 H 0.21018 0.47168 0.23463
 H1041 H 0.21889 0.49251 0.24449
 H1042 H 0.27668 0.54160 0.24918
 C1043 C 0.74573 0.99929 0.75605
 C1044 C 0.75509 0.99924 0.74619
 C1045 C 0.76084 1.01189 0.74084
 C1046 C 0.76006 0.98653 0.74022
 C1047 C 0.74083 0.98665 0.76220
 C1048 C 0.73988 1.01200 0.76122
 C1049 C 0.76034 1.01441 0.72716
 C1050 C 0.76570 1.02626 0.72197
 C1051 C 0.77170 1.03569 0.73037
 C1052 C 0.77240 1.03317 0.74400
 C1053 C 0.76706 1.02130 0.74921
 C1054 C 0.75116 0.97716 0.73463
 C1055 C 0.75605 0.96530 0.72896
 C1056 C 0.76986 0.96275 0.72872
 C1057 C 0.77877 0.97212 0.73413
 C1058 C 0.77391 0.98396 0.73981
 C1059 C 0.74978 0.97742 0.76792
 C1060 C 0.74498 0.96557 0.77367
 C1061 C 0.73119 0.96291 0.77386
 C1062 C 0.72222 0.97216 0.76834
 C1063 C 0.72701 0.98399 0.76258
 C1064 C 0.74034 1.01471 0.77486
 C1065 C 0.73487 1.02658 0.77988
 C1066 C 0.72879 1.03584 0.77135
 C1067 C 0.72814 1.03313 0.75775
 C1068 C 0.73360 1.02124 0.75271
 H1069 H 0.75568 1.00724 0.72054
 H1070 H 0.76514 1.02809 0.71141
 H1071 H 0.77709 1.04036 0.75058
 H1072 H 0.76778 1.01942 0.75975
 H1073 H 0.74047 0.97907 0.73462
 H1074 H 0.74907 0.95815 0.72473
 H1075 H 0.78093 0.99110 0.74398
 H1076 H 0.76046 0.97941 0.76795
 H1077 H 0.75200 0.95851 0.77799
 H1078 H 0.71153 0.97022 0.76846
 H1079 H 0.71995 0.99102 0.75829
 H1080 H 0.74505 1.00767 0.78158
 H1081 H 0.73539 1.02855 0.79042
 H1082 H 0.72339 1.04019 0.75107
 H1083 H 0.73291 1.01921 0.74219
 H1084 H 0.78947 0.97027 0.73396
 C1085 C 0.74482 0.49821 0.25505
 C1086 C 0.75435 0.49820 0.24536
 C1087 C 0.75946 0.51087 0.23942
 C1088 C 0.76026 0.48552 0.24022
 C1089 C 0.73892 0.48553 0.26019
 C1090 C 0.73972 0.51087 0.26100
 C1091 C 0.75068 0.52034 0.23380
 C1092 C 0.75569 0.53223 0.22832
 C1093 C 0.76952 0.53469 0.22827
 C1094 C 0.77832 0.52520 0.23364
 C1095 C 0.77333 0.51333 0.23915
 C1096 C 0.76010 0.48293 0.22655
 C1097 C 0.76568 0.47110 0.22154
 C1098 C 0.77156 0.46177 0.23013
 C1099 C 0.77191 0.46435 0.24376
 C1100 C 0.76634 0.47620 0.24878
 C1101 C 0.73908 0.48295 0.27386
 C1102 C 0.73352 0.47112 0.27888
 C1103 C 0.72764 0.46178 0.27031
 C1104 C 0.72728 0.46435 0.25668
 C1105 C 0.73284 0.47621 0.25164
 C1106 C 0.74851 0.52031 0.26666
 C1107 C 0.74351 0.53218 0.27220
 C1108 C 0.72968 0.53465 0.27228
 C1109 C 0.72088 0.52519 0.26685
 C1110 C 0.72586 0.51335 0.26129
 H1111 H 0.73997 0.51851 0.23367
 H1112 H 0.74880 0.53948 0.22412
 H1113 H 0.78903 0.52698 0.23360
 H1114 H 0.78026 0.50612 0.24334
 H1115 H 0.75554 0.49003 0.21978
 H1116 H 0.76540 0.46922 0.21098
 H1117 H 0.76681 0.47814 0.25933
 H1118 H 0.74364 0.49005 0.28062
 H1119 H 0.73380 0.46926 0.28945
 H1120 H 0.72269 0.45723 0.24996
 H1121 H 0.73237 0.47814 0.24109
 H1122 H 0.75922 0.51847 0.26678
 H1123 H 0.75040 0.53940 0.27644
 H1124 H 0.71016 0.52697 0.26691
 H1125 H 0.71892 0.50616 0.25707
 H1126 H 0.77650 0.45723 0.25048
 C1127 C 0.24571 0.00009 0.74564
 C1128 C 0.25528 -0.00001 0.75528
 C1129 C 0.26038 -0.01276 0.76105
 C1130 C 0.26115 0.01262 0.76056
 C1131 C 0.23973 0.01282 0.74072
 C1132 C 0.24069 -0.01251 0.73951
 C1133 C 0.25159 -0.02218 0.76674
 C1134 C 0.25658 -0.03411 0.77215
 C1135 C 0.27039 -0.03668 0.77204
 C1136 C 0.27919 -0.02725 0.76653
 C1137 C 0.27422 -0.01534 0.76111
 C1138 C 0.26094 0.01507 0.77425
 C1139 C 0.26644 0.02689 0.77937
 C1140 C 0.27229 0.03634 0.77087
 C1141 C 0.27269 0.03388 0.75722
 C1142 C 0.26720 0.02205 0.75208
 C1143 C 0.23985 0.01562 0.72709
 C1144 C 0.23416 0.02748 0.72227
 C1145 C 0.22820 0.03663 0.73102
 C1146 C 0.22792 0.03384 0.74461
 C1147 C 0.23360 0.02197 0.74944
 C1148 C 0.24953 -0.02170 0.73354
 C1149 C 0.24460 -0.03348 0.72775
 C1150 C 0.23080 -0.03611 0.72778
 C1151 C 0.22195 -0.02689 0.73357
 C1152 C 0.22686 -0.01514 0.73936
 H1153 H 0.24090 -0.02027 0.76702
 H1154 H 0.24968 -0.04131 0.77646
 H1155 H 0.28990 -0.02911 0.76643
 H1156 H 0.28116 -0.00816 0.75684
 H1157 H 0.25640 0.00789 0.78095
 H1158 H 0.26611 0.02867 0.78995
 H1159 H 0.26770 0.02022 0.74152
 H1160 H 0.24445 0.00866 0.72020
 H1161 H 0.23440 0.02951 0.71173
 H1162 H 0.22327 0.04082 0.75145
 H1163 H 0.23317 0.01987 0.75996
 H1164 H 0.26020 -0.01973 0.73332
 H1165 H 0.25153 -0.04051 0.72324
 H1166 H 0.21125 -0.02881 0.73361
 H1167 H 0.21988 -0.00814 0.74383
 H1168 H 0.27727 0.04109 0.75056
 C1169 C 0.25575 0.24517 1.00003
 C1170 C 0.24607 0.25484 1.00011
 C1171 C 0.24103 0.26083 1.01264
 C1172 C 0.23997 0.25992 0.98766
 C1173 C 0.26157 0.23997 0.98749
 C1174 C 0.26100 0.23923 1.01248
 C1175 C 0.22721 0.26073 1.01535
 C1176 C 0.22229 0.26629 1.02709
 C1177 C 0.23111 0.27210 1.03621
 C1178 C 0.24489 0.27241 1.03350
 C1179 C 0.24983 0.26686 1.02174
 C1180 C 0.23390 0.25111 0.97859
 C1181 C 0.22826 0.25607 0.96690
 C1182 C 0.22853 0.26988 0.96423
 C1183 C 0.23438 0.27871 0.97333
 C1184 C 0.24002 0.27377 0.98500
 C1185 C 0.26745 0.24869 0.97820
 C1186 C 0.27280 0.24363 0.96640
 C1187 C 0.27242 0.22980 0.96383
 C1188 C 0.26675 0.22106 0.97314
 C1189 C 0.26140 0.22610 0.98493
 C1190 C 0.27486 0.23935 1.01494
 C1191 C 0.27996 0.23387 1.02663
 C1192 C 0.27128 0.22812 1.03594
 C1193 C 0.25747 0.22777 1.03347
 C1194 C 0.25235 0.23325 1.02177
 H1195 H 0.22026 0.25621 1.00842
 H1196 H 0.21161 0.26603 1.02907
 H1197 H 0.25179 0.27696 1.04045
 H1198 H 0.26049 0.26728 1.01971
 H1199 H 0.23353 0.24043 0.98058
 H1200 H 0.22370 0.24915 0.95995
 H1201 H 0.24458 0.28073 0.99191
 H1202 H 0.26790 0.25939 0.98010
 H1203 H 0.27723 0.25048 0.95929
 H1204 H 0.26645 0.21034 0.97128
 H1205 H 0.25698 0.21921 0.99200
 H1206 H 0.28170 0.24384 1.00787
 H1207 H 0.29067 0.23415 1.02843
 H1208 H 0.25067 0.22327 1.04057
 H1209 H 0.24166 0.23281 1.01993
 H1210 H 0.23459 0.28942 0.97138
 C1211 C 0.25369 0.74434 0.49997
 C1212 C 0.24416 0.75416 0.49992
 C1213 C 0.23808 0.75928 0.51237
 C1214 C 0.23929 0.76030 0.48740
 C1215 C 0.25892 0.73838 0.48749
 C1216 C 0.25943 0.73905 0.51250
 C1217 C 0.23188 0.75052 0.52143
 C1218 C 0.22624 0.75552 0.53312
 C1219 C 0.22662 0.76932 0.53580
 C1220 C 0.23260 0.77811 0.52673
 C1221 C 0.23825 0.77313 0.51505
 C1222 C 0.22549 0.76043 0.48464
 C1223 C 0.22075 0.76611 0.47289
 C1224 C 0.22973 0.77181 0.46382
 C1225 C 0.24348 0.77190 0.46660
 C1226 C 0.24825 0.76623 0.47837
 C1227 C 0.27278 0.73830 0.48506
 C1228 C 0.27786 0.73281 0.47335
 C1229 C 0.26914 0.72724 0.46399
 C1230 C 0.25531 0.72709 0.46643
 C1231 C 0.25022 0.73258 0.47816
 C1232 C 0.26539 0.74769 0.52180
 C1233 C 0.27076 0.74253 0.53353
 C1234 C 0.27034 0.72869 0.53602
 C1235 C 0.26458 0.72003 0.52672
 C1236 C 0.25920 0.72517 0.51500
 H1237 H 0.23141 0.73984 0.51942
 H1238 H 0.22158 0.74863 0.54005
 H1239 H 0.23293 0.78881 0.52869
 H1240 H 0.24291 0.78005 0.50816
 H1241 H 0.21843 0.75600 0.49152
 H1242 H 0.21008 0.76602 0.47086
 H1243 H 0.25890 0.76647 0.48044
 H1244 H 0.27966 0.74265 0.49217
 H1245 H 0.28857 0.73293 0.47158
 H1246 H 0.24848 0.72274 0.45929
 H1247 H 0.23951 0.73231 0.47997
 H1248 H 0.26591 0.75839 0.51994
 H1249 H 0.27527 0.74932 0.54064
 H1250 H 0.26424 0.70930 0.52852
 H1251 H 0.25472 0.71834 0.50791
 H1252 H 0.25051 0.77635 0.45968
 C1253 C 0.24440 0.74506 0.00002
 C1254 C 0.25404 0.75477 0.00001
 C1255 C 0.25999 0.75993 -0.01250
 C1256 C 0.25915 0.76076 0.01250
 C1257 C 0.23941 0.73898 0.01254
 C1258 C 0.23837 0.73994 -0.01246
 C1259 C 0.26590 0.75117 -0.02174
 C1260 C 0.27142 0.75620 -0.03347
 C1261 C 0.27121 0.77003 -0.03601
 C1262 C 0.26552 0.77882 -0.02675
 C1263 C 0.25998 0.77380 -0.01504
 C1264 C 0.27298 0.76074 0.01508
 C1265 C 0.27795 0.76636 0.02677
 C1266 C 0.26916 0.77217 0.03595
 C1267 C 0.25537 0.77238 0.03337
 C1268 C 0.25038 0.76676 0.02168
 C1269 C 0.22561 0.73901 0.01530
 C1270 C 0.22077 0.73338 0.02704
 C1271 C 0.22966 0.72757 0.03611
 C1272 C 0.24343 0.72733 0.03333
 C1273 C 0.24828 0.73296 0.02157
 C1274 C 0.23245 0.74874 -0.02165
 C1275 C 0.22689 0.74375 -0.03337
 C1276 C 0.22708 0.72992 -0.03596
 C1277 C 0.23278 0.72110 -0.02674
 C1278 C 0.23835 0.72608 -0.01504
 H1279 H 0.26624 0.74046 -0.01984
 H1280 H 0.27587 0.74932 -0.04053
 H1281 H 0.26535 0.78954 -0.02860
 H1282 H 0.25556 0.78073 -0.00800
 H1283 H 0.27991 0.75624 0.00810
 H1284 H 0.28865 0.76617 0.02864
 H1285 H 0.23971 0.76711 0.01975
 H1286 H 0.21861 0.74353 0.00842
 H1287 H 0.21010 0.73359 0.02908
 H1288 H 0.25039 0.72279 0.04024
 H1289 H 0.25894 0.73260 0.01950
 H1290 H 0.23213 0.75944 -0.01973
 H1291 H 0.22244 0.75066 -0.04040
 H1292 H 0.23294 0.71039 -0.02862
 H1293 H 0.24279 0.71912 -0.00805
 H1294 H 0.24848 0.77691 0.04037
 C1295 C 0.24566 0.24439 0.50012
 C1296 C 0.25537 0.25403 0.50013
 C1297 C 0.26133 0.25916 0.48762
 C1298 C 0.26056 0.25994 0.51262
 C1299 C 0.24061 0.23829 0.51261
 C1300 C 0.23954 0.23946 0.48763
 C1301 C 0.26729 0.25037 0.47844
 C1302 C 0.27289 0.25537 0.46673
 C1303 C 0.27267 0.26920 0.46414
 C1304 C 0.26690 0.27800 0.47333
 C1305 C 0.26131 0.27302 0.48503
 C1306 C 0.27441 0.25988 0.51513
 C1307 C 0.27944 0.26534 0.52685
 C1308 C 0.27070 0.27100 0.53616
 C1309 C 0.25689 0.27128 0.53365
 C1310 C 0.25184 0.26583 0.52191
 C1311 C 0.22679 0.23827 0.51529
 C1312 C 0.22190 0.23264 0.52701
 C1313 C 0.23075 0.22688 0.53614
 C1314 C 0.24453 0.22668 0.53345
 C1315 C 0.24944 0.23229 0.52171
 C1316 C 0.23344 0.24840 0.47869
 C1317 C 0.22773 0.24360 0.46696
 C1318 C 0.22797 0.22983 0.46412
 C1319 C 0.23388 0.22087 0.47307
 C1320 C 0.23959 0.22565 0.48479
 H1321 H 0.26764 0.23967 0.48038
 H1322 H 0.27740 0.24848 0.45972
 H1323 H 0.26670 0.28872 0.47144
 H1324 H 0.25683 0.27996 0.49202
 H1325 H 0.28130 0.25546 0.50805
 H1326 H 0.29014 0.26512 0.52867
 H1327 H 0.24116 0.26621 0.52005
 H1328 H 0.21982 0.24277 0.50837
 H1329 H 0.21121 0.23282 0.52898
 H1330 H 0.25147 0.22219 0.54041
 H1331 H 0.26011 0.23197 0.51971
 H1332 H 0.23309 0.25906 0.48082
 H1333 H 0.22312 0.25061 0.46014
 H1334 H 0.23410 0.21019 0.47098
 H1335 H 0.24418 0.21861 0.49158
 H1336 H 0.25005 0.27571 0.54075
 C1337 C 0.75396 0.74379 1.00036
 C1338 C 0.74411 0.75329 1.00040
 C1339 C 0.73901 0.75927 1.01291
 C1340 C 0.73795 0.75825 0.98794
 C1341 C 0.75999 0.73878 0.98783
 C1342 C 0.75929 0.73794 1.01283
 C1343 C 0.72520 0.75906 1.01564
 C1344 C 0.72025 0.76465 1.02736
 C1345 C 0.72904 0.77059 1.03644
 C1346 C 0.74281 0.77100 1.03370
 C1347 C 0.74777 0.76543 1.02197
 C1348 C 0.73210 0.74931 0.97884
 C1349 C 0.72641 0.75415 0.96712
 C1350 C 0.72640 0.76797 0.96445
 C1351 C 0.73203 0.77692 0.97357
 C1352 C 0.73773 0.77209 0.98527
 C1353 C 0.76574 0.74768 0.97863
 C1354 C 0.77138 0.74279 0.96689
 C1355 C 0.77144 0.72896 0.96431
 C1356 C 0.76589 0.72004 0.97353
 C1357 C 0.76024 0.72492 0.98525
 C1358 C 0.77314 0.73822 1.01529
 C1359 C 0.77830 0.73280 1.02698
 C1360 C 0.76969 0.72696 1.03629
 C1361 C 0.75588 0.72646 1.03382
 C1362 C 0.75070 0.73187 1.02212
 H1363 H 0.71828 0.75445 1.00875
 H1364 H 0.70958 0.76432 1.02935
 H1365 H 0.74968 0.77565 1.04062
 H1366 H 0.75842 0.76593 1.01992
 H1367 H 0.73195 0.73862 0.98082
 H1368 H 0.72202 0.74715 0.96015
 H1369 H 0.74211 0.77914 0.99220
 H1370 H 0.76589 0.75839 0.98055
 H1371 H 0.77572 0.74977 0.95985
 H1372 H 0.76592 0.70933 0.97165
 H1373 H 0.75594 0.71789 0.99226
 H1374 H 0.77993 0.74278 1.00821
 H1375 H 0.78901 0.73320 1.02877
 H1376 H 0.74913 0.72188 1.04093
 H1377 H 0.74002 0.73131 1.02028
 H1378 H 0.73204 0.78762 0.97162
 C1379 C 0.75551 0.24456 0.50055
 C1380 C 0.74575 0.25415 0.50052
 C1381 C 0.73978 0.25945 0.51296
 C1382 C 0.74053 0.25991 0.48798
 C1383 C 0.76068 0.23868 0.48803
 C1384 C 0.76150 0.23938 0.51302
 C1385 C 0.73411 0.25080 0.52245
 C1386 C 0.72861 0.25601 0.53411
 C1387 C 0.72858 0.26990 0.53633
 C1388 C 0.73399 0.27857 0.52681
 C1389 C 0.73953 0.27338 0.51517
 C1390 C 0.72676 0.25921 0.48522
 C1391 C 0.72170 0.26454 0.47344
 C1392 C 0.73034 0.27073 0.46437
 C1393 C 0.74407 0.27162 0.46714
 C1394 C 0.74915 0.26628 0.47892
 C1395 C 0.77444 0.23936 0.48517
 C1396 C 0.77944 0.23398 0.47337
 C1397 C 0.77076 0.22777 0.46438
 C1398 C 0.75704 0.22689 0.46726
 C1399 C 0.75202 0.23228 0.47905
 C1400 C 0.76714 0.24814 0.52242
 C1401 C 0.77261 0.24306 0.53415
 C1402 C 0.77265 0.22919 0.53651
 C1403 C 0.76729 0.22042 0.52707
 C1404 C 0.76178 0.22548 0.51537
 H1405 H 0.73396 0.24004 0.52081
 H1406 H 0.72437 0.24922 0.54139
 H1407 H 0.73397 0.28933 0.52839
 H1408 H 0.74375 0.28022 0.50794
 H1409 H 0.71996 0.25440 0.49212
 H1410 H 0.71106 0.26383 0.47141
 H1411 H 0.75976 0.26712 0.48099
 H1412 H 0.78127 0.24420 0.49200
 H1413 H 0.79007 0.23469 0.47126
 H1414 H 0.75025 0.22204 0.46040
 H1415 H 0.74141 0.23146 0.48120
 H1416 H 0.76728 0.25887 0.52067
 H1417 H 0.77680 0.24993 0.54136
 H1418 H 0.76732 0.20967 0.52877
 H1419 H 0.75759 0.21856 0.50821
 H1420 H 0.75083 0.27646 0.46021
 C1421 C 0.74591 0.24410 -0.00073
 C1422 C 0.75545 0.25391 -0.00074
 C1423 C 0.76135 0.25914 -0.01324
 C1424 C 0.76050 0.25996 0.01176
 C1425 C 0.74084 0.23804 0.01176
 C1426 C 0.73995 0.23899 -0.01323
 C1427 C 0.76746 0.25046 -0.02243
 C1428 C 0.77297 0.25557 -0.03414
 C1429 C 0.77253 0.26939 -0.03672
 C1430 C 0.76662 0.27809 -0.02751
 C1431 C 0.76110 0.27300 -0.01582
 C1432 C 0.77434 0.26016 0.01429
 C1433 C 0.77924 0.26576 0.02601
 C1434 C 0.77038 0.27130 0.03528
 C1435 C 0.75658 0.27132 0.03274
 C1436 C 0.75165 0.26574 0.02100
 C1437 C 0.72700 0.23786 0.01432
 C1438 C 0.72206 0.23232 0.02606
 C1439 C 0.73090 0.22681 0.03535
 C1440 C 0.74471 0.22676 0.03279
 C1441 C 0.74966 0.23228 0.02102
 C1442 C 0.73376 0.24776 -0.02226
 C1443 C 0.72815 0.24278 -0.03396
 C1444 C 0.72859 0.22899 -0.03669
 C1445 C 0.73458 0.22019 -0.02764
 C1446 C 0.74019 0.22516 -0.01595
 H1447 H 0.76798 0.23977 -0.02051
 H1448 H 0.77760 0.24875 -0.04116
 H1449 H 0.76626 0.28880 -0.02939
 H1450 H 0.75651 0.27986 -0.00883
 H1451 H 0.78132 0.25584 0.00726
 H1452 H 0.78994 0.26573 0.02785
 H1453 H 0.74097 0.26592 0.01911
 H1454 H 0.72003 0.24217 0.00728
 H1455 H 0.71136 0.23238 0.02793
 H1456 H 0.75163 0.22246 0.03988
 H1457 H 0.76035 0.23208 0.01913
 H1458 H 0.73324 0.25844 -0.02022
 H1459 H 0.72347 0.24967 -0.04086
 H1460 H 0.73494 0.20950 -0.02963
 H1461 H 0.74484 0.21823 -0.00907
 H1462 H 0.74963 0.27565 0.03981
 C1463 C 0.74445 0.74435 0.49964
 C1464 C 0.75423 0.75392 0.49959
 C1465 C 0.75950 0.75974 0.48707
 C1466 C 0.76014 0.75911 0.51207
 C1467 C 0.73839 0.73941 0.51217
 C1468 C 0.73924 0.73838 0.48719
 C1469 C 0.77335 0.75949 0.48454
 C1470 C 0.77848 0.76495 0.47284
 C1471 C 0.76984 0.77082 0.46359
 C1472 C 0.75603 0.77127 0.46612
 C1473 C 0.75089 0.76581 0.47783
 C1474 C 0.76616 0.75039 0.52126
 C1475 C 0.77164 0.75545 0.53298
 C1476 C 0.77124 0.76927 0.53558
 C1477 C 0.76542 0.77801 0.52637
 C1478 C 0.75995 0.77297 0.51465
 C1479 C 0.73227 0.74832 0.52113
 C1480 C 0.72665 0.74351 0.53290
 C1481 C 0.72700 0.72974 0.53578
 C1482 C 0.73292 0.72081 0.52680
 C1483 C 0.73854 0.72560 0.51503
 C1484 C 0.72541 0.73867 0.48460
 C1485 C 0.72035 0.73321 0.47289
 C1486 C 0.72905 0.72732 0.46367
 C1487 C 0.74283 0.72679 0.46628
 C1488 C 0.74791 0.73224 0.47801
 H1489 H 0.78016 0.75493 0.49158
 H1490 H 0.78918 0.76459 0.47101
 H1491 H 0.74926 0.77587 0.45906
 H1492 H 0.74021 0.76635 0.47972
 H1493 H 0.76662 0.73969 0.51932
 H1494 H 0.77619 0.74860 0.54000
 H1495 H 0.75541 0.77986 0.50766
 H1496 H 0.73184 0.75897 0.51898
 H1497 H 0.72202 0.75050 0.53975
 H1498 H 0.73322 0.71014 0.52891
 H1499 H 0.74314 0.71858 0.50821
 H1500 H 0.71856 0.74328 0.49159
 H1501 H 0.70967 0.73364 0.47099
 H1502 H 0.74964 0.72217 0.45926
 H1503 H 0.75857 0.73168 0.47995
 H1504 H 0.76509 0.78873 0.52826
 C1505 C 1.00131 0.25548 0.24454
 C1506 C 1.00121 0.24595 0.25423
 C1507 C 1.01378 0.23988 0.25934
 C1508 C 0.98850 0.24107 0.26022
 C1509 C 0.98870 0.26049 0.23848
 C1510 C 1.01402 0.26133 0.23945
 C1511 C 1.02297 0.23362 0.25075
 C1512 C 1.03473 0.22790 0.25574
 C1513 C 1.03737 0.22828 0.26935
 C1514 C 1.02818 0.23435 0.27796
 C1515 C 1.01642 0.24008 0.27300
 C1516 C 0.98565 0.22725 0.26031
 C1517 C 0.97378 0.22250 0.26598
 C1518 C 0.96468 0.23150 0.27172
 C1519 C 0.96751 0.24528 0.27180
 C1520 C 0.97939 0.25005 0.26612
 C1521 C 0.98595 0.27433 0.23843
 C1522 C 0.97415 0.27919 0.23273
 C1523 C 0.96503 0.27028 0.22692
 C1524 C 0.96777 0.25648 0.22680
 C1525 C 0.97958 0.25160 0.23251
 C1526 C 1.02330 0.26737 0.24806
 C1527 C 1.03523 0.27281 0.24311
 C1528 C 1.03792 0.27238 0.22950
 C1529 C 1.02863 0.26654 0.22086
 C1530 C 1.01672 0.26109 0.22580
 H1531 H 1.02099 0.23314 0.24022
 H1532 H 1.04174 0.22316 0.24900
 H1533 H 1.03010 0.23467 0.28852
 H1534 H 1.00943 0.24478 0.27978
 H1535 H 0.99258 0.22017 0.25588
 H1536 H 0.97170 0.21182 0.26590
 H1537 H 0.98153 0.26072 0.26638
 H1538 H 0.99289 0.28134 0.24293
 H1539 H 0.97213 0.28989 0.23286
 H1540 H 0.96081 0.24950 0.22227
 H1541 H 0.98164 0.24092 0.23224
 H1542 H 1.02129 0.26788 0.25859
 H1543 H 1.04231 0.27738 0.24987
 H1544 H 1.03059 0.26619 0.21031
 H1545 H 1.00966 0.25656 0.21900
 H1546 H 0.96057 0.25232 0.27629
 C1547 C 0.50064 0.25546 0.74450
 C1548 C 0.50065 0.24593 0.75419
 C1549 C 0.51331 0.24010 0.75938
 C1550 C 0.48802 0.24080 0.76015
 C1551 C 0.48801 0.26058 0.73856
 C1552 C 0.51330 0.26131 0.73931
 C1553 C 0.52265 0.23397 0.75087
 C1554 C 0.53451 0.22853 0.75594
 C1555 C 0.53708 0.22904 0.76956
 C1556 C 0.52772 0.23496 0.77810
 C1557 C 0.51588 0.24042 0.77304
 C1558 C 0.48561 0.22690 0.76046
 C1559 C 0.47383 0.22187 0.76606
 C1560 C 0.46435 0.23067 0.77148
 C1561 C 0.46675 0.24454 0.77138
 C1562 C 0.47857 0.24959 0.76580
 C1563 C 0.48557 0.27447 0.73826
 C1564 C 0.47377 0.27948 0.73271
 C1565 C 0.46430 0.27067 0.72732
 C1566 C 0.46673 0.25681 0.72742
 C1567 C 0.47856 0.25178 0.73295
 C1568 C 0.52259 0.26748 0.74782
 C1569 C 0.53449 0.27288 0.74277
 C1570 C 0.53713 0.27228 0.72916
 C1571 C 0.52782 0.26635 0.72061
 C1572 C 0.51594 0.26093 0.72565
 H1573 H 0.52073 0.23339 0.74033
 H1574 H 0.54166 0.22390 0.74925
 H1575 H 0.52958 0.23536 0.78866
 H1576 H 0.50877 0.24501 0.77977
 H1577 H 0.49282 0.21996 0.75625
 H1578 H 0.47209 0.21112 0.76614
 H1579 H 0.48036 0.26032 0.76591
 H1580 H 0.49277 0.28143 0.74244
 H1581 H 0.47201 0.29023 0.73264
 H1582 H 0.45950 0.24991 0.72321
 H1583 H 0.48037 0.24105 0.73284
 H1584 H 0.52061 0.26811 0.75835
 H1585 H 0.54159 0.27752 0.74945
 H1586 H 0.52975 0.26588 0.71006
 H1587 H 0.50886 0.25631 0.71893
 H1588 H 0.45952 0.25143 0.77563
 C1589 C 0.00005 0.24625 0.74456
 C1590 C 0.00008 0.25593 0.75411
 C1591 C -0.01256 0.26187 0.75925
 C1592 C 0.01274 0.26109 0.75994
 C1593 C 0.01267 0.24110 0.73861
 C1594 C -0.01262 0.24029 0.73953
 C1595 C -0.02187 0.26792 0.75067
 C1596 C -0.03374 0.27343 0.75569
 C1597 C -0.03635 0.27304 0.76931
 C1598 C -0.02702 0.26721 0.77791
 C1599 C -0.01516 0.26170 0.77291
 C1600 C 0.01529 0.27497 0.75993
 C1601 C 0.02712 0.28000 0.76542
 C1602 C 0.03649 0.27123 0.77105
 C1603 C 0.03394 0.25739 0.77124
 C1604 C 0.02209 0.25234 0.76577
 C1605 C 0.01527 0.22724 0.73862
 C1606 C 0.02707 0.22222 0.73304
 C1607 C 0.03637 0.23101 0.72729
 C1608 C 0.03378 0.24484 0.72709
 C1609 C 0.02196 0.24987 0.73267
 C1610 C -0.02187 0.23424 0.74819
 C1611 C -0.03374 0.22868 0.74327
 C1612 C -0.03640 0.22900 0.72966
 C1613 C -0.02714 0.23486 0.72098
 C1614 C -0.01529 0.24043 0.72588
 H1615 H -0.01993 0.26838 0.74013
 H1616 H -0.04086 0.27799 0.74895
 H1617 H -0.02891 0.26689 0.78847
 H1618 H -0.00807 0.25715 0.77969
 H1619 H 0.00816 0.28188 0.75557
 H1620 H 0.02896 0.29073 0.76526
 H1621 H 0.02019 0.24163 0.76611
 H1622 H 0.00820 0.22031 0.74308
 H1623 H 0.02896 0.21150 0.73321
 H1624 H 0.04088 0.25172 0.72261
 H1625 H 0.02002 0.26057 0.73232
 H1626 H -0.01988 0.23380 0.75872
 H1627 H -0.04081 0.22410 0.75006
 H1628 H -0.02908 0.23513 0.71043
 H1629 H -0.00824 0.24498 0.71905
 H1630 H 0.04109 0.25052 0.77565
 C1631 C 0.49935 0.24552 0.24467
 C1632 C 0.49937 0.25504 0.25437
 C1633 C 0.48675 0.26111 0.25943
 C1634 C 0.51203 0.25988 0.26048
 C1635 C 0.51200 0.24051 0.23865
 C1636 C 0.48669 0.23959 0.23956
 C1637 C 0.47751 0.26718 0.25078
 C1638 C 0.46569 0.27287 0.25572
 C1639 C 0.46306 0.27267 0.26934
 C1640 C 0.47231 0.26681 0.27801
 C1641 C 0.48411 0.26110 0.27309
 C1642 C 0.51481 0.27371 0.26082
 C1643 C 0.52662 0.27841 0.26662
 C1644 C 0.53574 0.26936 0.27222
 C1645 C 0.53297 0.25556 0.27206
 C1646 C 0.52115 0.25084 0.26626
 C1647 C 0.51464 0.22666 0.23838
 C1648 C 0.52647 0.22180 0.23270
 C1649 C 0.53574 0.23073 0.22714
 C1650 C 0.53311 0.24456 0.22723
 C1651 C 0.52127 0.24943 0.23290
 C1652 C 0.47735 0.23361 0.24818
 C1653 C 0.46551 0.22803 0.24319
 C1654 C 0.46296 0.22827 0.22956
 C1655 C 0.47231 0.23405 0.22093
 C1656 C 0.48413 0.23964 0.22589
 H1657 H 0.47949 0.26754 0.24023
 H1658 H 0.45864 0.27745 0.24893
 H1659 H 0.47040 0.26663 0.28857
 H1660 H 0.49114 0.25656 0.27993
 H1661 H 0.50788 0.28084 0.25649
 H1662 H 0.52865 0.28911 0.26674
 H1663 H 0.51907 0.24016 0.26633
 H1664 H 0.50759 0.21962 0.24268
 H1665 H 0.52839 0.21108 0.23265
 H1666 H 0.54018 0.25155 0.22289
 H1667 H 0.51930 0.26013 0.23278
 H1668 H 0.47925 0.23322 0.25873
 H1669 H 0.45837 0.22351 0.24996
 H1670 H 0.47047 0.23425 0.21036
 H1671 H 0.49124 0.24412 0.21908
 H1672 H 0.53993 0.24848 0.27643
 C1673 C 1.00047 0.75642 0.74457
 C1674 C 1.00045 0.74664 0.75402
 C1675 C 1.01309 0.74071 0.75913
 C1676 C 0.98778 0.74137 0.75979
 C1677 C 0.98783 0.76157 0.73867
 C1678 C 1.01312 0.76251 0.73962
 C1679 C 1.02250 0.73483 0.75052
 C1680 C 1.03434 0.72928 0.75552
 C1681 C 1.03683 0.72945 0.76917
 C1682 C 1.02740 0.73513 0.77780
 C1683 C 1.01558 0.74068 0.77282
 C1684 C 0.98526 0.72749 0.75962
 C1685 C 0.97344 0.72236 0.76506
 C1686 C 0.96404 0.73103 0.77081
 C1687 C 0.96655 0.74488 0.77116
 C1688 C 0.97839 0.75002 0.76573
 C1689 C 0.98515 0.77542 0.73887
 C1690 C 0.97331 0.78043 0.73338
 C1691 C 0.96407 0.77167 0.72755
 C1692 C 0.96675 0.75786 0.72715
 C1693 C 0.97861 0.75283 0.73263
 C1694 C 1.02230 0.76852 0.74835
 C1695 C 1.03417 0.77420 0.74350
 C1696 C 1.03689 0.77403 0.72989
 C1697 C 1.02769 0.76822 0.72114
 C1698 C 1.01584 0.76254 0.72597
 H1699 H 1.02065 0.73452 0.73996
 H1700 H 1.04154 0.72485 0.74877
 H1701 H 1.02921 0.73528 0.78838
 H1702 H 1.00841 0.74509 0.77962
 H1703 H 0.99242 0.72065 0.75517
 H1704 H 0.97162 0.71163 0.76478
 H1705 H 0.98027 0.76073 0.76619
 H1706 H 0.99217 0.78233 0.74341
 H1707 H 0.97135 0.79114 0.73371
 H1708 H 0.95970 0.75100 0.72259
 H1709 H 0.98062 0.74215 0.73214
 H1710 H 1.02027 0.76883 0.75888
 H1711 H 1.04119 0.77873 0.75035
 H1712 H 1.02968 0.76805 0.71060
 H1713 H 1.00885 0.75802 0.71908
 H1714 H 0.95938 0.75167 0.77566
 C1715 C 0.50057 0.75517 0.24468
 C1716 C 0.50056 0.74577 0.25450
 C1717 C 0.51322 0.73989 0.25970
 C1718 C 0.48789 0.74084 0.26058
 C1719 C 0.48792 0.76003 0.23854
 C1720 C 0.51322 0.76112 0.23955
 C1721 C 0.52255 0.73374 0.25119
 C1722 C 0.53436 0.72819 0.25626
 C1723 C 0.53691 0.72862 0.26990
 C1724 C 0.52757 0.73459 0.27843
 C1725 C 0.51577 0.74015 0.27337
 C1726 C 0.48530 0.72698 0.26108
 C1727 C 0.47346 0.72219 0.26680
 C1728 C 0.46413 0.73119 0.27216
 C1729 C 0.46672 0.74502 0.27185
 C1730 C 0.47858 0.74983 0.26614
 C1731 C 0.48524 0.77387 0.23802
 C1732 C 0.47343 0.77860 0.23223
 C1733 C 0.46420 0.76956 0.22681
 C1734 C 0.46687 0.75574 0.22714
 C1735 C 0.47870 0.75099 0.23292
 C1736 C 0.52244 0.76733 0.24811
 C1737 C 0.53428 0.77291 0.24311
 C1738 C 0.53695 0.77247 0.22949
 C1739 C 0.52771 0.76647 0.22090
 C1740 C 0.51589 0.76087 0.22589
 H1741 H 0.52064 0.73319 0.24064
 H1742 H 0.54148 0.72352 0.24958
 H1743 H 0.52941 0.73495 0.28899
 H1744 H 0.50868 0.74477 0.28010
 H1745 H 0.49238 0.71989 0.25692
 H1746 H 0.47158 0.71147 0.26702
 H1747 H 0.48051 0.76054 0.26609
 H1748 H 0.49226 0.78100 0.24222
 H1749 H 0.47149 0.78931 0.23200
 H1750 H 0.45983 0.74866 0.22291
 H1751 H 0.48069 0.74030 0.23298
 H1752 H 0.52044 0.76787 0.25864
 H1753 H 0.54132 0.77760 0.24983
 H1754 H 0.52965 0.76611 0.21035
 H1755 H 0.50888 0.75622 0.21912
 H1756 H 0.45961 0.75207 0.27604
 C1757 C -0.00135 0.74587 0.24470
 C1758 C -0.00134 0.75523 0.25457
 C1759 C -0.01399 0.76118 0.25973
 C1760 C 0.01131 0.76000 0.26075
 C1761 C 0.01131 0.74092 0.23864
 C1762 C -0.01402 0.74003 0.23951
 C1763 C -0.02320 0.76745 0.25120
 C1764 C -0.03502 0.77306 0.25624
 C1765 C -0.03768 0.77256 0.26985
 C1766 C -0.02846 0.76648 0.27841
 C1767 C -0.01666 0.76087 0.27339
 C1768 C 0.01405 0.77383 0.26131
 C1769 C 0.02587 0.77848 0.26713
 C1770 C 0.03506 0.76937 0.27253
 C1771 C 0.03233 0.75557 0.27216
 C1772 C 0.02048 0.75090 0.26636
 C1773 C 0.01386 0.72705 0.23813
 C1774 C 0.02571 0.72222 0.23246
 C1775 C 0.03509 0.73120 0.22714
 C1776 C 0.03254 0.74503 0.22746
 C1777 C 0.02068 0.74988 0.23312
 C1778 C -0.02331 0.73382 0.24802
 C1779 C -0.03512 0.72828 0.24296
 C1780 C -0.03771 0.72877 0.22934
 C1781 C -0.02841 0.73478 0.22080
 C1782 C -0.01661 0.74033 0.22584
 H1783 H -0.02120 0.76804 0.24067
 H1784 H -0.04205 0.77780 0.24953
 H1785 H -0.03040 0.76607 0.28896
 H1786 H -0.00965 0.75616 0.28014
 H1787 H 0.00707 0.78101 0.25713
 H1788 H 0.02786 0.78918 0.26739
 H1789 H 0.01844 0.74021 0.26626
 H1790 H 0.00673 0.71997 0.24225
 H1791 H 0.02756 0.71150 0.23223
 H1792 H 0.03970 0.75206 0.22331
 H1793 H 0.01878 0.76059 0.23319
 H1794 H -0.02137 0.73323 0.25856
 H1795 H -0.04221 0.72358 0.24965
 H1796 H -0.03028 0.73517 0.21024
 H1797 H -0.00953 0.74498 0.21911
 H1798 H 0.03933 0.74843 0.27637
 C1799 C 0.49958 0.74635 0.74497
 C1800 C 0.49952 0.75615 0.75440
 C1801 C 0.48684 0.76132 0.76021
 C1802 C 0.51215 0.76216 0.75947
 C1803 C 0.51226 0.74029 0.74006
 C1804 C 0.48697 0.74115 0.73907
 C1805 C 0.48421 0.77518 0.76004
 C1806 C 0.47235 0.78022 0.76549
 C1807 C 0.46303 0.77146 0.77124
 C1808 C 0.46565 0.75764 0.77159
 C1809 C 0.47753 0.75259 0.76615
 C1810 C 0.52152 0.76805 0.75082
 C1811 C 0.53338 0.77359 0.75577
 C1812 C 0.53592 0.77342 0.76941
 C1813 C 0.52652 0.76777 0.77808
 C1814 C 0.51468 0.76222 0.77315
 C1815 C 0.52146 0.73435 0.74883
 C1816 C 0.53332 0.72864 0.74401
 C1817 C 0.53602 0.72870 0.73040
 C1818 C 0.52681 0.73444 0.72162
 C1819 C 0.51497 0.74016 0.72641
 C1820 C 0.48437 0.72728 0.73921
 C1821 C 0.47258 0.72222 0.73368
 C1822 C 0.46329 0.73095 0.72787
 C1823 C 0.46588 0.74478 0.72753
 C1824 C 0.47769 0.74986 0.73305
 H1825 H 0.49130 0.78208 0.75557
 H1826 H 0.47044 0.79093 0.76521
 H1827 H 0.45854 0.75078 0.77609
 H1828 H 0.47950 0.74190 0.76661
 H1829 H 0.51963 0.76834 0.74026
 H1830 H 0.54056 0.77801 0.74898
 H1831 H 0.50754 0.75781 0.77998
 H1832 H 0.51943 0.73411 0.75936
 H1833 H 0.54035 0.72415 0.75089
 H1834 H 0.52879 0.73451 0.71106
 H1835 H 0.50796 0.74461 0.71949
 H1836 H 0.49144 0.72040 0.74373
 H1837 H 0.47070 0.71150 0.73395
 H1838 H 0.45879 0.75162 0.72299
 H1839 H 0.47963 0.76056 0.73261
 H1840 H 0.52837 0.76762 0.78865
 C1841 C 0.40035 0.30956 0.28967
 C1842 C 0.40703 0.29870 0.29549
 C1843 C 0.40211 0.29313 0.30724
 C1844 C 0.39058 0.29837 0.31317
 C1845 C 0.38375 0.30931 0.30743
 C1846 C 0.38880 0.31482 0.29558
 C1847 C 0.41896 0.29330 0.28947
 C1848 C 0.42899 0.28870 0.28457
 C1849 C 0.44078 0.28322 0.27904
 C1850 C 0.45091 0.27845 0.27450
 H1851 H 0.40407 0.31396 0.28057
 H1852 H 0.40722 0.28473 0.31184
 H1853 H 0.38709 0.29382 0.32227
 H1854 H 0.38388 0.32320 0.29081
 C1855 C 0.40090 0.79097 0.80848
 C1856 C 0.40684 0.79707 0.79748
 C1857 C 0.40121 0.80873 0.79215
 C1858 C 0.38969 0.81433 0.79782
 C1859 C 0.38358 0.80835 0.80898
 C1860 C 0.38939 0.79653 0.81419
 C1861 C 0.41880 0.79141 0.79176
 C1862 C 0.42885 0.78670 0.78703
 C1863 C 0.44068 0.78125 0.78153
 C1864 C 0.45084 0.77671 0.77684
 H1865 H 0.40519 0.78193 0.81270
 H1866 H 0.40575 0.81354 0.78363
 H1867 H 0.38572 0.82337 0.79339
 H1868 H 0.38518 0.79146 0.82269
 C1869 C -0.09940 0.29133 0.80519
 C1870 C -0.09274 0.29849 0.79525
 C1871 C -0.09771 0.31095 0.79114
 C1872 C -0.10929 0.31625 0.79695
 C1873 C -0.11607 0.30915 0.80700
 C1874 C -0.11098 0.29660 0.81103
 C1875 C -0.08073 0.29312 0.78938
 C1876 C -0.07063 0.28859 0.78457
 C1877 C -0.05876 0.28324 0.77907
 C1878 C -0.04857 0.27863 0.77453
 H1879 H -0.09564 0.28166 0.80844
 H1880 H -0.09260 0.31661 0.78347
 H1881 H -0.11280 0.32596 0.79364
 H1882 H -0.11594 0.29077 0.81863
 C1883 C -0.10033 0.79151 0.30619
 C1884 C -0.09376 0.79853 0.29608
 C1885 C -0.09881 0.81090 0.29182
 C1886 C -0.11037 0.81625 0.29763
 C1887 C -0.11707 0.80929 0.30782
 C1888 C -0.11189 0.79683 0.31202
 C1889 C -0.08180 0.79306 0.29015
 C1890 C -0.07176 0.78845 0.28528
 C1891 C -0.05996 0.78299 0.27971
 C1892 C -0.04984 0.77828 0.27511
 H1893 H -0.09651 0.78191 0.30956
 H1894 H -0.09378 0.81644 0.28402
 H1895 H -0.11394 0.82589 0.29417
 H1896 H -0.11677 0.79111 0.31975
 C1897 C 0.59977 0.69198 0.28970
 C1898 C 0.59266 0.70215 0.29621
 C1899 C 0.59707 0.70675 0.30854
 C1900 C 0.60852 0.70121 0.31437
 C1901 C 0.61574 0.69094 0.30794
 C1902 C 0.61122 0.68641 0.29551
 C1903 C 0.58080 0.70780 0.29028
 C1904 C 0.57083 0.71254 0.28540
 C1905 C 0.55910 0.71811 0.27982
 C1906 C 0.54902 0.72288 0.27520
 H1907 H 0.59646 0.68834 0.28014
 H1908 H 0.59163 0.71460 0.31369
 H1909 H 0.61159 0.70492 0.32396
 H1910 H 0.61653 0.67862 0.29019
 C1911 C 0.59828 0.20865 0.80737
 C1912 C 0.59313 0.20318 0.79568
 C1913 C 0.59952 0.19220 0.78977
 C1914 C 0.61100 0.18667 0.79554
 C1915 C 0.61628 0.19206 0.80734
 C1916 C 0.60976 0.20315 0.81316
 C1917 C 0.58122 0.20875 0.78982
 C1918 C 0.57119 0.21339 0.78498
 C1919 C 0.55939 0.21881 0.77944
 C1920 C 0.54926 0.22346 0.77484
 H1921 H 0.59340 0.21716 0.81203
 H1922 H 0.59561 0.18788 0.78072
 H1923 H 0.61568 0.17819 0.79070
 H1924 H 0.61344 0.20760 0.82222
 C1925 C 1.09935 0.69263 0.78948
 C1926 C 1.09289 0.70362 0.79530
 C1927 C 1.09800 0.70922 0.80694
 C1928 C 1.10950 0.70383 0.81280
 C1929 C 1.11608 0.69272 0.80707
 C1930 C 1.11085 0.68722 0.79531
 C1931 C 1.08096 0.70910 0.78938
 C1932 C 1.07093 0.71370 0.78451
 C1933 C 1.05914 0.71912 0.77896
 C1934 C 1.04900 0.72380 0.77439
 H1935 H 1.09547 0.68822 0.78046
 H1936 H 1.09307 0.71773 0.81153
 H1937 H 1.11315 0.70838 0.82182
 H1938 H 1.11557 0.67872 0.79054
 C1939 C 1.09725 0.20656 0.30804
 C1940 C 1.09305 0.20184 0.29568
 C1941 C 1.10032 0.19169 0.28932
 C1942 C 1.11175 0.18627 0.29530
 C1943 C 1.11607 0.19094 0.30775
 C1944 C 1.10867 0.20117 0.31404
 C1945 C 1.08122 0.20736 0.28961
 C1946 C 1.07126 0.21205 0.28469
 C1947 C 1.05954 0.21761 0.27912
 C1948 C 1.04946 0.22244 0.27456
 H1949 H 1.09167 0.21440 0.31307
 H1950 H 1.09716 0.18796 0.27974
 H1951 H 1.11720 0.17850 0.29010
 H1952 H 1.11157 0.20497 0.32365
 C1953 C 0.60028 0.29083 0.69336
 C1954 C 0.59352 0.29783 0.70336
 C1955 C 0.59839 0.31026 0.70765
 C1956 C 0.60996 0.31571 0.70196
 C1957 C 0.61684 0.30877 0.69186
 C1958 C 0.61185 0.29625 0.68765
 C1959 C 0.58152 0.29233 0.70912
 C1960 C 0.57143 0.28774 0.71388
 C1961 C 0.55956 0.28238 0.71935
 C1962 C 0.54936 0.27780 0.72390
 H1963 H 0.59659 0.28119 0.68997
 H1964 H 0.59321 0.31579 0.71536
 H1965 H 0.61339 0.32540 0.70541
 H1966 H 0.61688 0.29055 0.68000
 C1967 C 0.59952 0.80949 0.20939
 C1968 C 0.59310 0.79851 0.20353
 C1969 C 0.59827 0.79297 0.19186
 C1970 C 0.60979 0.79841 0.18605
 C1971 C 0.61633 0.80950 0.19182
 C1972 C 0.61104 0.81495 0.20360
 C1973 C 0.58115 0.79298 0.20941
 C1974 C 0.57110 0.78834 0.21423
 C1975 C 0.55927 0.78288 0.21973
 C1976 C 0.54913 0.77816 0.22427
 H1977 H 0.59561 0.81385 0.21844
 H1978 H 0.59338 0.78447 0.18723
 H1979 H 0.61346 0.79392 0.17699
 H1980 H 0.61575 0.82342 0.20841
 C1981 C 1.09987 0.30996 0.20865
 C1982 C 1.09400 0.29839 0.20335
 C1983 C 1.09952 0.29244 0.19204
 C1984 C 1.11082 0.29807 0.18599
 C1985 C 1.11676 0.30979 0.19115
 C1986 C 1.11117 0.31562 0.20261
 C1987 C 1.08216 0.29277 0.20936
 C1988 C 1.07215 0.28810 0.21424
 C1989 C 1.06034 0.28264 0.21978
 C1990 C 1.05017 0.27798 0.22432
 H1991 H 1.09568 0.31465 0.21740
 H1992 H 1.09504 0.28349 0.18784
 H1993 H 1.11474 0.29331 0.17717
 H1994 H 1.11548 0.32455 0.20697
 C1995 C 1.09792 0.79468 0.69220
 C1996 C 1.09366 0.79933 0.70458
 C1997 C 1.10132 0.80888 0.71135
 C1998 C 1.11324 0.81372 0.70579
 C1999 C 1.11767 0.80904 0.69337
 C2000 C 1.10982 0.79949 0.68662
 C2001 C 1.08149 0.79419 0.71034
 C2002 C 1.07129 0.78976 0.71506
 C2003 C 1.05935 0.78443 0.72042
 C2004 C 1.04913 0.77975 0.72484
 H2005 H 1.09204 0.78731 0.68685
 H2006 H 1.09813 0.81254 0.72095
 H2007 H 1.11901 0.82099 0.71133
 H2008 H 1.11279 0.79574 0.67701
 C2009 C 0.40142 0.69371 0.70765
 C2010 C 0.40750 0.70476 0.70155
 C2011 C 0.40210 0.70997 0.68986
 C2012 C 0.39067 0.70416 0.68426
 C2013 C 0.38446 0.69301 0.69030
 C2014 C 0.38999 0.68787 0.70209
 C2015 C 0.41936 0.71065 0.70721
 C2016 C 0.42933 0.71550 0.71193
 C2017 C 0.44108 0.72106 0.71746
 C2018 C 0.45117 0.72566 0.72219
 H2019 H 0.40553 0.68958 0.71671
 H2020 H 0.40675 0.71851 0.68503
 H2021 H 0.38682 0.70841 0.67518
 H2022 H 0.38553 0.67936 0.70708
 C2023 C 0.40206 0.20729 0.19172
 C2024 C 0.40686 0.20217 0.20371
 C2025 C 0.40007 0.19162 0.20993
 C2026 C 0.38853 0.18618 0.20419
 C2027 C 0.38360 0.19123 0.19210
 C2028 C 0.39053 0.20187 0.18595
 C2029 C 0.41880 0.20771 0.20956
 C2030 C 0.42885 0.21236 0.21436
 C2031 C 0.44065 0.21784 0.21984
 C2032 C 0.45079 0.22256 0.22436
 H2033 H 0.40725 0.21545 0.18680
 H2034 H 0.40371 0.18758 0.21923
 H2035 H 0.38352 0.17806 0.20929
 H2036 H 0.38714 0.20603 0.17665
 C2037 C -0.10016 0.69149 0.20961
 C2038 C -0.09372 0.70235 0.20355
 C2039 C -0.09887 0.70768 0.19179
 C2040 C -0.11040 0.70217 0.18610
 C2041 C -0.11697 0.69121 0.19209
 C2042 C -0.11170 0.68596 0.20394
 C2043 C -0.08178 0.70799 0.20933
 C2044 C -0.07175 0.71272 0.21408
 C2045 C -0.05996 0.71828 0.21953
 C2046 C -0.04985 0.72304 0.22407
 H2047 H -0.09626 0.68728 0.21872
 H2048 H -0.09395 0.71609 0.18700
 H2049 H -0.11406 0.70652 0.17699
 H2050 H -0.11642 0.67758 0.20891
 C2051 C -0.09878 0.19171 0.70987
 C2052 C -0.09255 0.20283 0.70407
 C2053 C -0.09791 0.20848 0.69255
 C2054 C -0.10944 0.20302 0.68683
 C2055 C -0.11581 0.19179 0.69256
 C2056 C -0.11031 0.18622 0.70418
 C2057 C -0.08060 0.20840 0.70986
 C2058 C -0.07055 0.21308 0.71461
 C2059 C -0.05874 0.21857 0.72004
 C2060 C -0.04859 0.22330 0.72452
 H2061 H -0.09470 0.18725 0.71879
 H2062 H -0.09315 0.21710 0.68796
 H2063 H -0.11329 0.20763 0.67792
 H2064 H -0.11486 0.17762 0.70893
 C2065 C 0.30498 0.40138 0.29244
 C2066 C 0.29477 0.40811 0.29924
 C2067 C 0.29027 0.40318 0.31143
 C2068 C 0.29597 0.39156 0.31681
 C2069 C 0.30627 0.38469 0.31007
 C2070 C 0.31069 0.38976 0.29779
 C2071 C 0.28898 0.42012 0.29371
 C2072 C 0.28425 0.43020 0.28902
 C2073 C 0.27886 0.44203 0.28344
 C2074 C 0.27442 0.45218 0.27862
 H2075 H 0.30854 0.40511 0.28298
 H2076 H 0.28239 0.40833 0.31680
 H2077 H 0.29231 0.38806 0.32629
 H2078 H 0.31851 0.38477 0.29223
 C2079 C 0.30774 -0.09847 0.79281
 C2080 C 0.29607 -0.09295 0.79822
 C2081 C 0.29010 -0.09899 0.80924
 C2082 C 0.29578 -0.11049 0.81488
 C2083 C 0.30760 -0.11619 0.80958
 C2084 C 0.31346 -0.10997 0.79841
 C2085 C 0.29030 -0.08100 0.79255
 C2086 C 0.28555 -0.07094 0.78784
 C2087 C 0.28010 -0.05910 0.78233
 C2088 C 0.27558 -0.04892 0.77764
 H2089 H 0.31246 -0.09385 0.78428
 H2090 H 0.28105 -0.09479 0.81352
 H2091 H 0.29081 -0.11479 0.82340
 H2092 H 0.32251 -0.11384 0.79391
 C2093 C 0.80708 0.40162 0.79186
 C2094 C 0.79597 0.40771 0.79778
 C2095 C 0.79048 0.40219 0.80930
 C2096 C 0.79607 0.39062 0.81490
 C2097 C 0.80732 0.38434 0.80906
 C2098 C 0.81271 0.39006 0.79741
 C2099 C 0.79029 0.41967 0.79207
 C2100 C 0.78564 0.42973 0.78725
 C2101 C 0.78030 0.44156 0.78163
 C2102 C 0.77580 0.45171 0.77687
 H2103 H 0.81143 0.40582 0.78294
 H2104 H 0.78186 0.40684 0.81399
 H2105 H 0.79150 0.38671 0.82382
 H2106 H 0.82130 0.38573 0.79247
 C2107 C 0.80597 -0.09778 0.29274
 C2108 C 0.79482 -0.09184 0.29873
 C2109 C 0.78928 -0.09760 0.31011
 C2110 C 0.79488 -0.10924 0.31551
 C2111 C 0.80619 -0.11538 0.30962
 C2112 C 0.81162 -0.10943 0.29810
 C2113 C 0.78911 -0.07977 0.29326
 C2114 C 0.78440 -0.06964 0.28868
 C2115 C 0.77901 -0.05772 0.28329
 C2116 C 0.77457 -0.04750 0.27864
 H2117 H 0.81035 -0.09339 0.28391
 H2118 H 0.78063 -0.09306 0.31484
 H2119 H 0.79026 -0.11331 0.32433
 H2120 H 0.82025 -0.11366 0.29313
 C2121 C 0.30896 0.59905 0.70952
 C2122 C 0.29795 0.59258 0.70381
 C2123 C 0.29236 0.59765 0.69213
 C2124 C 0.29778 0.60911 0.68616
 C2125 C 0.30889 0.61570 0.69180
 C2126 C 0.31439 0.61052 0.70358
 C2127 C 0.29245 0.58068 0.70985
 C2128 C 0.28785 0.57067 0.71481
 C2129 C 0.28245 0.55888 0.72046
 C2130 C 0.27780 0.54874 0.72512
 H2131 H 0.31337 0.59521 0.71857
 H2132 H 0.28384 0.59271 0.68760
 H2133 H 0.29325 0.61271 0.67711
 H2134 H 0.32289 0.61527 0.70829
 C2135 C 0.29122 1.09630 0.19003
 C2136 C 0.29549 1.09175 0.20243
 C2137 C 0.30540 1.09882 0.20930
 C2138 C 0.31104 1.11042 0.20379
 C2139 C 0.30683 1.11510 0.19131
 C2140 C 0.29683 1.10788 0.18450
 C2141 C 0.28977 1.07976 0.20806
 C2142 C 0.28503 1.06969 0.21275
 C2143 C 0.27958 1.05786 0.21824
 C2144 C 0.27503 1.04770 0.22294
 H2145 H 0.28357 1.09087 0.18462
 H2146 H 0.30878 1.09538 0.21891
 H2147 H 0.31863 1.11569 0.20939
 H2148 H 0.29337 1.11106 0.17486
 C2149 C 0.79052 0.59608 0.19048
 C2150 C 0.79536 0.59104 0.20248
 C2151 C 0.80585 0.59763 0.20896
 C2152 C 0.81150 0.60922 0.20347
 C2153 C 0.80673 0.61439 0.19138
 C2154 C 0.79614 0.60766 0.18496
 C2155 C 0.78960 0.57905 0.20807
 C2156 C 0.78482 0.56897 0.21270
 C2157 C 0.77931 0.55711 0.21809
 C2158 C 0.77474 0.54693 0.22270
 H2159 H 0.78240 0.59104 0.18537
 H2160 H 0.80968 0.59380 0.21827
 H2161 H 0.81957 0.61409 0.20876
 H2162 H 0.79219 0.61123 0.17565
 C2163 C 0.80752 1.09879 0.71017
 C2164 C 0.79703 1.09199 0.70392
 C2165 C 0.79195 1.09683 0.69193
 C2166 C 0.79737 1.10841 0.68618
 C2167 C 0.80796 1.11534 0.69236
 C2168 C 0.81295 1.11037 0.70446
 C2169 C 0.79154 1.08000 0.70977
 C2170 C 0.78699 1.06992 0.71464
 C2171 C 0.78169 1.05806 0.72026
 C2172 C 0.77716 1.04789 0.72495
 H2173 H 0.81153 1.09513 0.71947
 H2174 H 0.78383 1.09163 0.68699
 H2175 H 0.79325 1.11184 0.67688
 H2176 H 0.82103 1.11538 0.70960
 C2177 C 0.69352 0.59773 0.29137
 C2178 C 0.70353 0.59078 0.29824
 C2179 C 0.70779 0.59543 0.31060
 C2180 C 0.70208 0.60699 0.31609
 C2181 C 0.69199 0.61408 0.30928
 C2182 C 0.68778 0.60929 0.29684
 C2183 C 0.70938 0.57883 0.29266
 C2184 C 0.71425 0.56879 0.28802
 C2185 C 0.71983 0.55699 0.28259
 C2186 C 0.72444 0.54684 0.27792
 H2187 H 0.69014 0.59421 0.28179
 H2188 H 0.71551 0.59010 0.31602
 H2189 H 0.70553 0.61024 0.32571
 H2190 H 0.68013 0.61449 0.29125
 C2191 C 0.70853 1.09768 0.80863
 C2192 C 0.70291 1.09223 0.79716
 C2193 C 0.69182 1.09843 0.79134
 C2194 C 0.68633 1.11003 0.79695
 C2195 C 0.69185 1.11569 0.80856
 C2196 C 0.70308 1.10929 0.81429
 C2197 C 0.70848 1.08021 0.79141
 C2198 C 0.71312 1.07012 0.78664
 C2199 C 0.71854 1.05825 0.78116
 C2200 C 0.72319 1.04807 0.77661
 H2201 H 0.71713 1.09295 0.81323
 H2202 H 0.68738 1.09427 0.78244
 H2203 H 0.67775 1.11445 0.79210
 H2204 H 0.70776 1.11314 0.82316
 C2205 C 0.20888 0.59826 0.80850
 C2206 C 0.20309 0.59263 0.79718
 C2207 C 0.19180 0.59865 0.79152
 C2208 C 0.18631 0.61025 0.79714
 C2209 C 0.19204 0.61603 0.80855
 C2210 C 0.20341 0.60987 0.81415
 C2211 C 0.20867 0.58064 0.79141
 C2212 C 0.21331 0.57057 0.78661
 C2213 C 0.21871 0.55873 0.78105
 C2214 C 0.22332 0.54857 0.77642
 H2215 H 0.21763 0.59368 0.81298
 H2216 H 0.18723 0.59437 0.78276
 H2217 H 0.17756 0.61459 0.79251
 H2218 H 0.20814 0.61395 0.82290
 C2219 C 0.20877 1.09642 0.31155
 C2220 C 0.20452 1.09181 0.29916
 C2221 C 0.19452 1.09877 0.29231
 C2222 C 0.18876 1.11030 0.29781
 C2223 C 0.19292 1.11503 0.31029
 C2224 C 0.20303 1.10795 0.31708
 C2225 C 0.21030 1.07985 0.29352
 C2226 C 0.21501 1.06979 0.28876
 C2227 C 0.22036 1.05797 0.28314
 C2228 C 0.22478 1.04782 0.27830
 H2229 H 0.21649 1.09108 0.31696
 H2230 H 0.19116 1.09529 0.28270
 H2231 H 0.18111 1.11549 0.29222
 H2232 H 0.20645 1.11119 0.32672
 C2233 C 0.69196 0.40328 0.70740
 C2234 C 0.70442 0.40809 0.70313
 C2235 C 0.71131 0.40137 0.69303
 C2236 C 0.70579 0.38988 0.68723
 C2237 C 0.69326 0.38494 0.69145
 C2238 C 0.68642 0.39180 0.70162
 C2239 C 0.71005 0.41996 0.70905
 C2240 C 0.71470 0.42995 0.71399
 C2241 C 0.72009 0.44172 0.71968
 C2242 C 0.72467 0.45183 0.72443
 H2243 H 0.68651 0.40843 0.71518
 H2244 H 0.72097 0.40501 0.68965
 H2245 H 0.71140 0.38486 0.67951
 H2246 H 0.67673 0.38842 0.70508
 C2247 C 0.69388 -0.09761 0.20836
 C2248 C 0.70474 -0.09130 0.20218
 C2249 C 0.70993 -0.09658 0.19040
 C2250 C 0.70426 -0.10809 0.18480
 C2251 C 0.69329 -0.11453 0.19090
 C2252 C 0.68819 -0.10913 0.20279
 C2253 C 0.71048 -0.07936 0.20786
 C2254 C 0.71519 -0.06931 0.21262
 C2255 C 0.72057 -0.05749 0.21821
 C2256 C 0.72503 -0.04735 0.22301
 H2257 H 0.68978 -0.09361 0.21749
 H2258 H 0.71833 -0.09176 0.18552
 H2259 H 0.70847 -0.11184 0.17565
 H2260 H 0.67983 -0.11377 0.20785
 C2261 C 0.21032 0.40208 0.19117
 C2262 C 0.20366 0.40888 0.20136
 C2263 C 0.19106 0.40443 0.20559
 C2264 C 0.18508 0.39329 0.19960
 C2265 C 0.19163 0.38643 0.18925
 C2266 C 0.20436 0.39093 0.18515
 C2267 C 0.20962 0.42057 0.20731
 C2268 C 0.21447 0.43046 0.21226
 C2269 C 0.21997 0.44214 0.21800
 C2270 C 0.22449 0.45221 0.22288
 H2271 H 0.22009 0.40544 0.18782
 H2272 H 0.18581 0.40965 0.21346
 H2273 H 0.17526 0.39021 0.20299
 H2274 H 0.20978 0.38588 0.17732
 C2275 C 0.21082 -0.09808 0.68995
 C2276 C 0.20517 -0.09218 0.70122
 C2277 C 0.19388 -0.09800 0.70713
 C2278 C 0.18830 -0.10971 0.70185
 C2279 C 0.19393 -0.11579 0.69054
 C2280 C 0.20525 -0.10979 0.68463
 C2281 C 0.21094 -0.08017 0.70674
 C2282 C 0.21570 -0.07011 0.71145
 C2283 C 0.22115 -0.05832 0.71704
 C2284 C 0.22565 -0.04822 0.72189
 H2285 H 0.21956 -0.09366 0.68529
 H2286 H 0.18940 -0.09349 0.71584
 H2287 H 0.17954 -0.11392 0.70662
 H2288 H 0.20994 -0.11417 0.67599
 C2289 C 0.29269 0.30698 0.40333
 C2290 C 0.29847 0.29532 0.40852
 C2291 C 0.30952 0.28951 0.40219
 C2292 C 0.31478 0.29534 0.39070
 C2293 C 0.30906 0.30710 0.38537
 C2294 C 0.29792 0.31284 0.39185
 C2295 C 0.29308 0.28937 0.42038
 C2296 C 0.28850 0.28450 0.43034
 C2297 C 0.28307 0.27897 0.44205
 C2298 C 0.27837 0.27441 0.45209
 H2299 H 0.28413 0.31158 0.40817
 H2300 H 0.31408 0.28048 0.40613
 H2301 H 0.32331 0.29057 0.38606
 H2302 H 0.29321 0.32187 0.38814
 C2303 C 0.29131 0.80735 -0.09725
 C2304 C 0.29716 0.79591 -0.09167
 C2305 C 0.30849 0.79019 -0.09759
 C2306 C 0.31396 0.79588 -0.10904
 C2307 C 0.30817 0.80742 -0.11476
 C2308 C 0.29675 0.81307 -0.10871
 C2309 C 0.29161 0.79010 -0.07982
 C2310 C 0.28696 0.78531 -0.06985
 C2311 C 0.28152 0.77982 -0.05814
 C2312 C 0.27684 0.77527 -0.04808
 H2313 H 0.28254 0.81187 -0.09274
 H2314 H 0.31311 0.78133 -0.09334
 H2315 H 0.32272 0.79119 -0.11333
 H2316 H 0.29198 0.82192 -0.11273
 C2317 C 0.79169 0.30670 -0.09827
 C2318 C 0.79825 0.29591 -0.09222
 C2319 C 0.81019 0.29099 -0.09765
 C2320 C 0.81556 0.29684 -0.10908
 C2321 C 0.80905 0.30773 -0.11527
 C2322 C 0.79703 0.31258 -0.10970
 C2323 C 0.79279 0.28994 -0.08040
 C2324 C 0.78820 0.28501 -0.07047
 C2325 C 0.78281 0.27938 -0.05879
 C2326 C 0.77816 0.27472 -0.04876
 H2327 H 0.78244 0.31060 -0.09414
 H2328 H 0.81537 0.28265 -0.09304
 H2329 H 0.82483 0.29282 -0.11296
 H2330 H 0.79166 0.32087 -0.11413
 C2331 C 0.79172 0.80977 0.40375
 C2332 C 0.79590 0.79712 0.40813
 C2333 C 0.80572 0.79010 0.40104
 C2334 C 0.81133 0.79570 0.38959
 C2335 C 0.80717 0.80842 0.38507
 C2336 C 0.79730 0.81539 0.39232
 C2337 C 0.79016 0.79139 0.41994
 C2338 C 0.78537 0.78665 0.42987
 C2339 C 0.77983 0.78114 0.44154
 C2340 C 0.77520 0.77645 0.45156
 H2341 H 0.78416 0.81532 0.40919
 H2342 H 0.80904 0.78029 0.40434
 H2343 H 0.81882 0.78998 0.38427
 H2344 H 0.79391 0.82523 0.38927
 C2345 C 0.70911 0.30813 0.59730
 C2346 C 0.70307 0.29681 0.59169
 C2347 C 0.69160 0.29131 0.59754
 C2348 C 0.68618 0.29710 0.60896
 C2349 C 0.69216 0.30851 0.61473
 C2350 C 0.70372 0.31394 0.60874
 C2351 C 0.70857 0.29085 0.57989
 C2352 C 0.71312 0.28587 0.56998
 C2353 C 0.71844 0.28012 0.55833
 C2354 C 0.72303 0.27535 0.54834
 H2355 H 0.71800 0.31247 0.59284
 H2356 H 0.68683 0.28255 0.59326
 H2357 H 0.67731 0.29257 0.61319
 H2358 H 0.70864 0.32268 0.61282
 C2359 C 0.70953 0.80857 1.09774
 C2360 C 0.70376 0.79712 1.09210
 C2361 C 0.69245 0.79131 1.09797
 C2362 C 0.68689 0.79694 1.10941
 C2363 C 0.69258 0.80850 1.11518
 C2364 C 0.70400 0.81423 1.10918
 C2365 C 0.70939 0.79139 1.08025
 C2366 C 0.71405 0.78662 1.07028
 C2367 C 0.71941 0.78106 1.05856
 C2368 C 0.72387 0.77630 1.04850
 H2369 H 0.71829 0.81316 1.09327
 H2370 H 0.68789 0.78244 1.09368
 H2371 H 0.67814 0.79220 1.11367
 H2372 H 0.70871 0.82309 1.11323
 C2373 C 0.19359 0.29253 1.09721
 C2374 C 0.20508 0.29834 1.09168
 C2375 C 0.21064 0.30982 1.09746
 C2376 C 0.20469 0.31554 1.10866
 C2377 C 0.19305 0.30986 1.11426
 C2378 C 0.18762 0.29823 1.10842
 C2379 C 0.21102 0.29266 1.07995
 C2380 C 0.21588 0.28795 1.07004
 C2381 C 0.22141 0.28247 1.05836
 C2382 C 0.22595 0.27777 1.04830
 H2383 H 0.18918 0.28365 1.09279
 H2384 H 0.21955 0.31439 1.09328
 H2385 H 0.20927 0.32439 1.11291
 H2386 H 0.17865 0.29360 1.11235
 C2387 C 0.20746 0.80644 0.59725
 C2388 C 0.20115 0.79525 0.59165
 C2389 C 0.18977 0.78981 0.59772
 C2390 C 0.18474 0.79549 0.60938
 C2391 C 0.19103 0.80673 0.61513
 C2392 C 0.20245 0.81215 0.60889
 C2393 C 0.20639 0.78938 0.57969
 C2394 C 0.21088 0.78456 0.56967
 C2395 C 0.21624 0.77907 0.55792
 C2396 C 0.22092 0.77452 0.54786
 H2397 H 0.21629 0.81074 0.59263
 H2398 H 0.18479 0.78116 0.59345
 H2399 H 0.17588 0.79109 0.61379
 H2400 H 0.20764 0.82071 0.61302
 C2401 C 0.30801 0.70838 0.59703
 C2402 C 0.29636 0.70284 0.59162
 C2403 C 0.29033 0.69175 0.59771
 C2404 C 0.29594 0.68621 0.60917
 C2405 C 0.30769 0.69168 0.61471
 C2406 C 0.31364 0.70287 0.60848
 C2407 C 0.29067 0.70849 0.57977
 C2408 C 0.28597 0.71322 0.56981
 C2409 C 0.28052 0.71871 0.55811
 C2410 C 0.27588 0.72333 0.54807
 H2411 H 0.31277 0.71696 0.59238
 H2412 H 0.28131 0.68737 0.59360
 H2413 H 0.29101 0.67765 0.61363
 H2414 H 0.32267 0.70740 0.61234
 C2415 C 0.29150 0.19066 1.09718
 C2416 C 0.29690 0.20240 1.09175
 C2417 C 0.30780 0.20864 1.09790
 C2418 C 0.31330 0.20316 1.10944
 C2419 C 0.30797 0.19133 1.11499
 C2420 C 0.29697 0.18516 1.10870
 C2421 C 0.29129 0.20797 1.07983
 C2422 C 0.28660 0.21259 1.06983
 C2423 C 0.28116 0.21797 1.05807
 C2424 C 0.27659 0.22257 1.04801
 H2425 H 0.28306 0.18573 1.09249
 H2426 H 0.31207 0.21774 1.09378
 H2427 H 0.32171 0.20826 1.11395
 H2428 H 0.29257 0.17605 1.11258
 C2429 C 0.80777 0.70683 1.09709
 C2430 C 0.79582 0.70158 1.09203
 C2431 C 0.78948 0.69093 1.09853
 C2432 C 0.79506 0.68551 1.11004
 C2433 C 0.80711 0.69067 1.11524
 C2434 C 0.81339 0.70142 1.10861
 C2435 C 0.79008 0.70707 1.08013
 C2436 C 0.78529 0.71161 1.07014
 C2437 C 0.77973 0.71692 1.05841
 C2438 C 0.77507 0.72147 1.04835
 H2439 H 0.81278 0.71507 1.09212
 H2440 H 0.78021 0.68679 1.09470
 H2441 H 0.78985 0.67731 1.11482
 H2442 H 0.82267 0.70567 1.11221
 C2443 C 0.80994 0.20812 0.59762
 C2444 C 0.79807 0.20303 0.59224
 C2445 C 0.79159 0.19224 0.59841
 C2446 C 0.79695 0.18656 0.60992
 C2447 C 0.80891 0.19160 0.61544
 C2448 C 0.81532 0.20247 0.60911
 C2449 C 0.79259 0.20884 0.58036
 C2450 C 0.78805 0.21368 0.57039
 C2451 C 0.78273 0.21925 0.55866
 C2452 C 0.77817 0.22388 0.54859
 H2453 H 0.81505 0.21646 0.59291
 H2454 H 0.78240 0.18821 0.59432
 H2455 H 0.79167 0.17826 0.61445
 H2456 H 0.82454 0.20663 0.61295
 C2457 C 0.69160 0.70765 0.40236
 C2458 C 0.70327 0.70208 0.40773
 C2459 C 0.70935 0.69109 0.40152
 C2460 C 0.70377 0.68566 0.39002
 C2461 C 0.69199 0.69114 0.38453
 C2462 C 0.68599 0.70223 0.39085
 C2463 C 0.70897 0.70755 0.41965
 C2464 C 0.71371 0.71207 0.42968
 C2465 C 0.71920 0.71733 0.44146
 C2466 C 0.72377 0.72185 0.45156
 H2467 H 0.68680 0.71616 0.40710
 H2468 H 0.71839 0.68670 0.40559
 H2469 H 0.70876 0.67718 0.38550
 H2470 H 0.67693 0.70674 0.38701
 C2471 C 0.69128 0.20917 -0.09830
 C2472 C 0.70237 0.20322 -0.09220
 C2473 C 0.70799 0.19156 -0.09760
 C2474 C 0.70254 0.18586 -0.10904
 C2475 C 0.69136 0.19174 -0.11528
 C2476 C 0.68581 0.20349 -0.10975
 C2477 C 0.70795 0.20902 -0.08037
 C2478 C 0.71262 0.21380 -0.07043
 C2479 C 0.71813 0.21927 -0.05874
 C2480 C 0.72287 0.22380 -0.04872
 H2481 H 0.68685 0.21820 -0.09420
 H2482 H 0.71658 0.18685 -0.09295
 H2483 H 0.70712 0.17683 -0.11292
 H2484 H 0.67724 0.20838 -0.11419
 C2485 C 0.20776 0.69317 -0.09776
 C2486 C 0.20142 0.70414 -0.09176
 C2487 C 0.18973 0.70943 -0.09735
 C2488 C 0.18439 0.70379 -0.10888
 C2489 C 0.19067 0.69272 -0.11501
 C2490 C 0.20244 0.68750 -0.10929
 C2491 C 0.20686 0.70991 -0.07985
 C2492 C 0.21143 0.71469 -0.06985
 C2493 C 0.21681 0.72017 -0.05811
 C2494 C 0.22145 0.72471 -0.04804
 H2495 H 0.21682 0.68898 -0.09351
 H2496 H 0.18473 0.71791 -0.09279
 H2497 H 0.17532 0.70811 -0.11289
 H2498 H 0.20763 0.67906 -0.11366
 C2499 C 0.20837 0.19384 0.40223
 C2500 C 0.20180 0.20461 0.40834
 C2501 C 0.18989 0.20958 0.40293
 C2502 C 0.18454 0.20380 0.39147
 C2503 C 0.19104 0.19292 0.38525
 C2504 C 0.20305 0.18804 0.39078
 C2505 C 0.20724 0.21042 0.42023
 C2506 C 0.21187 0.21513 0.43022
 C2507 C 0.21739 0.22045 0.44197
 C2508 C 0.22217 0.22483 0.45204
 H2509 H 0.21760 0.18991 0.40634
 H2510 H 0.18471 0.21791 0.40759
 H2511 H 0.17528 0.20784 0.38760
 H2512 H 0.20842 0.17976 0.38631
 C2513 C 0.29279 0.40342 0.68959
 C2514 C 0.29678 0.40771 0.70217
 C2515 C 0.30643 0.40040 0.70917
 C2516 C 0.31207 0.38882 0.70362
 C2517 C 0.30811 0.38438 0.69097
 C2518 C 0.29840 0.39185 0.68403
 C2519 C 0.29098 0.41964 0.70786
 C2520 C 0.28614 0.42965 0.71258
 C2521 C 0.28055 0.44142 0.71810
 C2522 C 0.27592 0.45152 0.72284
 H2523 H 0.28535 0.40903 0.68407
 H2524 H 0.30959 0.40364 0.71892
 H2525 H 0.31943 0.38332 0.70932
 H2526 H 0.29516 0.38887 0.67425
 C2527 C 0.29098 0.89992 0.19483
 C2528 C 0.29812 0.90652 0.20481
 C2529 C 0.31060 0.90156 0.20882
 C2530 C 0.31595 0.89007 0.20284
 C2531 C 0.30888 0.88337 0.19274
 C2532 C 0.29630 0.88844 0.18883
 C2533 C 0.29267 0.91844 0.21083
 C2534 C 0.28803 0.92847 0.21571
 C2535 C 0.28252 0.94028 0.22123
 C2536 C 0.27774 0.95042 0.22574
 H2537 H 0.28130 0.90367 0.19166
 H2538 H 0.31623 0.90661 0.21652
 H2539 H 0.32567 0.88656 0.20608
 H2540 H 0.29049 0.88354 0.18120
 C2541 C 0.79274 0.40125 0.19166
 C2542 C 0.79771 0.40581 0.20380
 C2543 C 0.80814 0.39885 0.21001
 C2544 C 0.81360 0.38737 0.20411
 C2545 C 0.80870 0.38268 0.19187
 C2546 C 0.79818 0.38978 0.18574
 C2547 C 0.79217 0.41770 0.20980
 C2548 C 0.78751 0.42770 0.21471
 C2549 C 0.78201 0.43948 0.22029
 C2550 C 0.77728 0.44960 0.22488
 H2551 H 0.78469 0.40658 0.18675
 H2552 H 0.81206 0.40230 0.21942
 H2553 H 0.82160 0.38220 0.20920
 H2554 H 0.79416 0.38659 0.17631
 C2555 C 0.79102 0.90230 0.68924
 C2556 C 0.79543 0.90687 0.70159
 C2557 C 0.80561 0.89993 0.70822
 C2558 C 0.81139 0.88850 0.70253
 C2559 C 0.80706 0.88382 0.69009
 C2560 C 0.79677 0.89087 0.68353
 C2561 C 0.78962 0.91873 0.70740
 C2562 C 0.78486 0.92872 0.71226
 C2563 C 0.77943 0.94048 0.71796
 C2564 C 0.77496 0.95059 0.72285
 H2565 H 0.78317 0.90761 0.68400
 H2566 H 0.80911 0.90337 0.71780
 H2567 H 0.81919 0.88333 0.70795
 H2568 H 0.79322 0.88768 0.67392
 C2569 C 0.69425 0.59983 0.70870
 C2570 C 0.70428 0.59288 0.70185
 C2571 C 0.70847 0.59745 0.68941
 C2572 C 0.70263 0.60889 0.68383
 C2573 C 0.69249 0.61595 0.69061
 C2574 C 0.68838 0.61127 0.70314
 C2575 C 0.71019 0.58101 0.70752
 C2576 C 0.71506 0.57102 0.71225
 C2577 C 0.72064 0.55926 0.71780
 C2578 C 0.72525 0.54916 0.72256
 H2579 H 0.69093 0.59639 0.71835
 H2580 H 0.71622 0.59213 0.68400
 H2581 H 0.70601 0.61209 0.67415
 H2582 H 0.68070 0.61645 0.70873
 C2583 C 0.70608 0.09753 0.19210
 C2584 C 0.70130 0.09334 0.20445
 C2585 C 0.69109 0.10060 0.21072
 C2586 C 0.68568 0.11201 0.20466
 C2587 C 0.69041 0.11632 0.19222
 C2588 C 0.70070 0.10893 0.18602
 C2589 C 0.70682 0.08152 0.21060
 C2590 C 0.71151 0.07157 0.21558
 C2591 C 0.71707 0.05985 0.22119
 C2592 C 0.72189 0.04977 0.22578
 H2593 H 0.71396 0.09196 0.18714
 H2594 H 0.68732 0.09744 0.22029
 H2595 H 0.67786 0.11745 0.20980
 H2596 H 0.70455 0.11183 0.17642
 C2597 C 0.19032 0.60029 0.21121
 C2598 C 0.20044 0.59297 0.20488
 C2599 C 0.20519 0.59715 0.19251
 C2600 C 0.19984 0.60860 0.18647
 C2601 C 0.18963 0.61605 0.19273
 C2602 C 0.18494 0.61175 0.20519
 C2603 C 0.20594 0.58112 0.21099
 C2604 C 0.21064 0.57114 0.21592
 C2605 C 0.21624 0.55939 0.22145
 C2606 C 0.22111 0.54929 0.22596
 H2607 H 0.18657 0.59715 0.22080
 H2608 H 0.21300 0.59154 0.18750
 H2609 H 0.20366 0.61148 0.17686
 H2610 H 0.17718 0.61724 0.21037
 C2611 C 0.19156 0.09982 0.71131
 C2612 C 0.20171 0.09254 0.70498
 C2613 C 0.20646 0.09675 0.69262
 C2614 C 0.20109 0.10818 0.68660
 C2615 C 0.19085 0.11559 0.69285
 C2616 C 0.18616 0.11126 0.70530
 C2617 C 0.20722 0.08068 0.71107
 C2618 C 0.21192 0.07069 0.71597
 C2619 C 0.21751 0.05892 0.72147
 C2620 C 0.22235 0.04880 0.72595
 H2621 H 0.18782 0.09665 0.72090
 H2622 H 0.21430 0.09117 0.68761
 H2623 H 0.20490 0.11109 0.67699
 H2624 H 0.17838 0.11672 0.71048
 C2625 C 0.29401 0.59757 0.30774
 C2626 C 0.29875 0.59332 0.29539
 C2627 C 0.30888 0.60060 0.28902
 C2628 C 0.31428 0.61206 0.29499
 C2629 C 0.30961 0.61641 0.30744
 C2630 C 0.29939 0.60902 0.31373
 C2631 C 0.29326 0.58144 0.28936
 C2632 C 0.28858 0.57142 0.28452
 C2633 C 0.28301 0.55961 0.27909
 C2634 C 0.27818 0.54946 0.27468
 H2635 H 0.28619 0.59199 0.31278
 H2636 H 0.31261 0.59740 0.27944
 H2637 H 0.32205 0.61750 0.28978
 H2638 H 0.29558 0.61194 0.32333
 C2639 C 0.30880 0.09926 0.79071
 C2640 C 0.29842 0.09237 0.79709
 C2641 C 0.29357 0.09704 0.80925
 C2642 C 0.29907 0.10855 0.81502
 C2643 C 0.30955 0.11557 0.80871
 C2644 C 0.31433 0.11077 0.79646
 C2645 C 0.29281 0.08045 0.79122
 C2646 C 0.28811 0.07042 0.78638
 C2647 C 0.28262 0.05863 0.78083
 C2648 C 0.27792 0.04850 0.77622
 H2649 H 0.31264 0.09573 0.78129
 H2650 H 0.28555 0.09176 0.81429
 H2651 H 0.29516 0.11182 0.82448
 H2652 H 0.32230 0.11590 0.79124
 C2653 C 0.79213 0.59865 0.80915
 C2654 C 0.79753 0.59326 0.79752
 C2655 C 0.80852 0.59949 0.79149
 C2656 C 0.81413 0.61106 0.79708
 C2657 C 0.80880 0.61658 0.80881
 C2658 C 0.79770 0.61020 0.81476
 C2659 C 0.79181 0.58130 0.79185
 C2660 C 0.78700 0.57124 0.78719
 C2661 C 0.78140 0.55942 0.78182
 C2662 C 0.77669 0.54927 0.77726
 H2663 H 0.78362 0.59389 0.81391
 H2664 H 0.81279 0.59540 0.78248
 H2665 H 0.82262 0.61562 0.79216
 H2666 H 0.79328 0.61405 0.82377
 C2667 C 0.80958 0.10079 0.28951
 C2668 C 0.79951 0.09350 0.29596
 C2669 C 0.79489 0.09772 0.30836
 C2670 C 0.80030 0.10918 0.31431
 C2671 C 0.81045 0.11660 0.30793
 C2672 C 0.81502 0.11225 0.29544
 C2673 C 0.79394 0.08164 0.28994
 C2674 C 0.78920 0.07165 0.28508
 C2675 C 0.78354 0.05990 0.27963
 C2676 C 0.77862 0.04980 0.27519
 H2677 H 0.81322 0.09761 0.27989
 H2678 H 0.78712 0.09214 0.31346
 H2679 H 0.79658 0.11210 0.32395
 H2680 H 0.82273 0.11772 0.29016
 C2681 C 0.69150 0.39864 0.29043
 C2682 C 0.70162 0.40587 0.29682
 C2683 C 0.70627 0.40161 0.30919
 C2684 C 0.70081 0.39019 0.31518
 C2685 C 0.69058 0.38285 0.30887
 C2686 C 0.68601 0.38721 0.29639
 C2687 C 0.70715 0.41773 0.29077
 C2688 C 0.71179 0.42772 0.28582
 C2689 C 0.71725 0.43949 0.28020
 C2690 C 0.72196 0.44961 0.27557
 H2691 H 0.68783 0.40184 0.28084
 H2692 H 0.71409 0.40716 0.31425
 H2693 H 0.70454 0.38724 0.32480
 H2694 H 0.67825 0.38180 0.29116
 C2695 C 0.69308 0.90223 0.79539
 C2696 C 0.70550 0.90669 0.80007
 C2697 C 0.71205 0.89951 0.81007
 C2698 C 0.70620 0.88793 0.81538
 C2699 C 0.69369 0.88335 0.81075
 C2700 C 0.68721 0.89066 0.80067
 C2701 C 0.71146 0.91865 0.79464
 C2702 C 0.71629 0.92871 0.79001
 C2703 C 0.72173 0.94055 0.78449
 C2704 C 0.72616 0.95071 0.77969
 H2705 H 0.68791 0.90773 0.78767
 H2706 H 0.72168 0.90287 0.81376
 H2707 H 0.71155 0.88256 0.82303
 H2708 H 0.67755 0.88756 0.79690
 C2709 C 0.19414 0.40047 0.79187
 C2710 C 0.20426 0.40738 0.79862
 C2711 C 0.20856 0.40276 0.81098
 C2712 C 0.20277 0.39131 0.81660
 C2713 C 0.19256 0.38428 0.80993
 C2714 C 0.18832 0.38901 0.79747
 C2715 C 0.21013 0.41927 0.79293
 C2716 C 0.21499 0.42928 0.78821
 C2717 C 0.22057 0.44107 0.78271
 C2718 C 0.22519 0.45120 0.77801
 H2719 H 0.19073 0.40395 0.78228
 H2720 H 0.21637 0.40806 0.81632
 H2721 H 0.20626 0.38808 0.82623
 H2722 H 0.18058 0.38385 0.79197
 C2723 C 0.19034 0.89939 0.28917
 C2724 C 0.20042 0.90671 0.29553
 C2725 C 0.20517 0.90247 0.30786
 C2726 C 0.19987 0.89097 0.31384
 C2727 C 0.18969 0.88353 0.30756
 C2728 C 0.18501 0.88788 0.29513
 C2729 C 0.20586 0.91862 0.28949
 C2730 C 0.21051 0.92865 0.28461
 C2731 C 0.21606 0.94045 0.27914
 C2732 C 0.22088 0.95060 0.27468
 H2733 H 0.18660 0.90257 0.27960
 H2734 H 0.21296 0.90808 0.31289
 H2735 H 0.20369 0.88805 0.32344
 H2736 H 0.17728 0.88239 0.28992
 C2737 C 0.40370 0.29242 0.68890
 C2738 C 0.40816 0.29655 0.70137
 C2739 C 0.40096 0.30630 0.70839
 C2740 C 0.38933 0.31189 0.70296
 C2741 C 0.38472 0.30779 0.69042
 C2742 C 0.39208 0.29799 0.68345
 C2743 C 0.42014 0.29081 0.70694
 C2744 C 0.43020 0.28602 0.71158
 C2745 C 0.44201 0.28051 0.71701
 C2746 C 0.45214 0.27592 0.72168
 H2747 H 0.40923 0.28490 0.68336
 H2748 H 0.40434 0.30956 0.71806
 H2749 H 0.38394 0.31933 0.70868
 H2750 H 0.38897 0.29463 0.67375
 C2751 C 0.40103 0.78817 0.19021
 C2752 C 0.40801 0.79480 0.20028
 C2753 C 0.40335 0.80717 0.20498
 C2754 C 0.39177 0.81291 0.19963
 C2755 C 0.38465 0.80635 0.18948
 C2756 C 0.38943 0.79389 0.18484
 C2757 C 0.41999 0.78897 0.20580
 C2758 C 0.43005 0.78424 0.21049
 C2759 C 0.44188 0.77889 0.21608
 C2760 C 0.45202 0.77452 0.22093
 H2761 H 0.40454 0.77857 0.18651
 H2762 H 0.40870 0.81241 0.21276
 H2763 H 0.38850 0.82254 0.20342
 H2764 H 0.38422 0.78848 0.17713
 C2765 C 0.90342 0.28997 0.18860
 C2766 C 0.90891 0.29538 0.20017
 C2767 C 0.90275 0.30639 0.20625
 C2768 C 0.89114 0.31199 0.20080
 C2769 C 0.88550 0.30665 0.18915
 C2770 C 0.89181 0.29555 0.18313
 C2771 C 0.92090 0.28970 0.20579
 C2772 C 0.93096 0.28505 0.21055
 C2773 C 0.94277 0.27974 0.21619
 C2774 C 0.95289 0.27535 0.22106
 H2775 H 0.90812 0.28144 0.18380
 H2776 H 0.90692 0.31067 0.21521
 H2777 H 0.88666 0.32049 0.20579
 H2778 H 0.88784 0.29113 0.17418
 C2779 C 0.90323 0.79248 0.68919
 C2780 C 0.90774 0.79703 0.70150
 C2781 C 0.90063 0.80710 0.70816
 C2782 C 0.88908 0.81263 0.70252
 C2783 C 0.88446 0.80815 0.69011
 C2784 C 0.89168 0.79798 0.68353
 C2785 C 0.91973 0.79145 0.70720
 C2786 C 0.92982 0.78680 0.71190
 C2787 C 0.94168 0.78141 0.71733
 C2788 C 0.95186 0.77690 0.72198
 H2789 H 0.90867 0.78471 0.68393
 H2790 H 0.90403 0.81069 0.71771
 H2791 H 0.88377 0.82034 0.70795
 H2792 H 0.88855 0.79431 0.67394
 C2793 C 0.59868 0.30439 0.29260
 C2794 C 0.59172 0.29429 0.29936
 C2795 C 0.59628 0.28991 0.31172
 C2796 C 0.60775 0.29563 0.31733
 C2797 C 0.61482 0.30585 0.31065
 C2798 C 0.61014 0.31013 0.29819
 C2799 C 0.57980 0.28855 0.29365
 C2800 C 0.56978 0.28389 0.28882
 C2801 C 0.55800 0.27862 0.28311
 C2802 C 0.54789 0.27429 0.27817
 H2803 H 0.59524 0.30784 0.28302
 H2804 H 0.59095 0.28212 0.31705
 H2805 H 0.61095 0.29212 0.32696
 H2806 H 0.61533 0.31786 0.29268
 C2807 C 0.59756 0.81079 0.79152
 C2808 C 0.59242 0.79834 0.79547
 C2809 C 0.59893 0.79099 0.80536
 C2810 C 0.61053 0.79605 0.81130
 C2811 C 0.61580 0.80858 0.80743
 C2812 C 0.60917 0.81588 0.79744
 C2813 C 0.58038 0.79316 0.78950
 C2814 C 0.57027 0.78877 0.78463
 C2815 C 0.55837 0.78354 0.77911
 C2816 C 0.54817 0.77898 0.77458
 H2817 H 0.59258 0.81659 0.78390
 H2818 H 0.59504 0.78133 0.80850
 H2819 H 0.61537 0.79007 0.81886
 H2820 H 0.61282 0.82558 0.79425
 C2821 C 0.09681 0.29246 0.80998
 C2822 C 0.09239 0.29696 0.79762
 C2823 C 0.09948 0.30707 0.79101
 C2824 C 0.11094 0.31268 0.79674
 C2825 C 0.11549 0.30823 0.80919
 C2826 C 0.10827 0.29804 0.81573
 C2827 C 0.08051 0.29127 0.79179
 C2828 C 0.07052 0.28652 0.78699
 C2829 C 0.05875 0.28105 0.78143
 C2830 C 0.04864 0.27649 0.77670
 H2831 H 0.09137 0.28466 0.81521
 H2832 H 0.09614 0.31063 0.78142
 H2833 H 0.11625 0.32042 0.79135
 H2834 H 0.11134 0.29441 0.82536
 C2835 C 0.09596 0.79002 0.31158
 C2836 C 0.09129 0.79427 0.29921
 C2837 C 0.09822 0.80428 0.29230
 C2838 C 0.10974 0.81006 0.29773
 C2839 C 0.11452 0.80591 0.31019
 C2840 C 0.10749 0.79578 0.31704
 C2841 C 0.07931 0.78850 0.29366
 C2842 C 0.06925 0.78383 0.28893
 C2843 C 0.05741 0.77856 0.28331
 C2844 C 0.04725 0.77425 0.27844
 H2845 H 0.09066 0.78229 0.31704
 H2846 H 0.09470 0.80765 0.28271
 H2847 H 0.11489 0.81772 0.29209
 H2848 H 0.11077 0.79236 0.32667
 C2849 C 0.59624 0.70698 0.69215
 C2850 C 0.59201 0.70231 0.70453
 C2851 C 0.59930 0.69223 0.71096
 C2852 C 0.61077 0.68681 0.70501
 C2853 C 0.61511 0.69142 0.69253
 C2854 C 0.60769 0.70159 0.68619
 C2855 C 0.58013 0.70781 0.71056
 C2856 C 0.57013 0.71249 0.71543
 C2857 C 0.55834 0.71804 0.72090
 C2858 C 0.54821 0.72286 0.72536
 H2859 H 0.59064 0.71476 0.68707
 H2860 H 0.59612 0.68855 0.72056
 H2861 H 0.61623 0.67909 0.71027
 H2862 H 0.61061 0.70534 0.67656
 C2863 C 0.59648 0.20959 0.18807
 C2864 C 0.59182 0.20534 0.20046
 C2865 C 0.59874 0.19531 0.20734
 C2866 C 0.61024 0.18951 0.20186
 C2867 C 0.61501 0.19367 0.18938
 C2868 C 0.60799 0.20381 0.18257
 C2869 C 0.57988 0.21115 0.20607
 C2870 C 0.56984 0.21587 0.21083
 C2871 C 0.55803 0.22124 0.21645
 C2872 C 0.54790 0.22566 0.22130
 H2873 H 0.59118 0.21733 0.18264
 H2874 H 0.59523 0.19195 0.21694
 H2875 H 0.61539 0.18184 0.20748
 H2876 H 0.61127 0.20722 0.17292
 C2877 C 0.09810 0.69553 0.20776
 C2878 C 0.09126 0.70557 0.20082
 C2879 C 0.09598 0.70976 0.18844
 C2880 C 0.10749 0.70390 0.18300
 C2881 C 0.11443 0.69374 0.18987
 C2882 C 0.10960 0.68965 0.20234
 C2883 C 0.07931 0.71146 0.20636
 C2884 C 0.06926 0.71625 0.21104
 C2885 C 0.05744 0.72168 0.21658
 C2886 C 0.04729 0.72613 0.22136
 H2887 H 0.09453 0.69222 0.21736
 H2888 H 0.09074 0.71751 0.18297
 H2889 H 0.11081 0.70727 0.17336
 H2890 H 0.11469 0.68197 0.20800
 C2891 C 0.09697 0.20901 0.68863
 C2892 C 0.09231 0.20487 0.70105
 C2893 C 0.09918 0.19485 0.70799
 C2894 C 0.11066 0.18897 0.70254
 C2895 C 0.11544 0.19303 0.69004
 C2896 C 0.10845 0.20315 0.68316
 C2897 C 0.08040 0.21080 0.70662
 C2898 C 0.07040 0.21565 0.71131
 C2899 C 0.05862 0.22119 0.71682
 C2900 C 0.04851 0.22577 0.72157
 H2901 H 0.09170 0.21674 0.68316
 H2902 H 0.09566 0.19157 0.71762
 H2903 H 0.11578 0.18131 0.70820
 H2904 H 0.11173 0.20649 0.67349
 C2905 C 0.40336 0.70998 0.31119
 C2906 C 0.40801 0.70578 0.29879
 C2907 C 0.40112 0.69574 0.29189
 C2908 C 0.38965 0.68988 0.29738
 C2909 C 0.38489 0.69398 0.30988
 C2910 C 0.39188 0.70414 0.31670
 C2911 C 0.41995 0.71163 0.29318
 C2912 C 0.42998 0.71638 0.28845
 C2913 C 0.44180 0.72176 0.28284
 C2914 C 0.45195 0.72617 0.27801
 H2915 H 0.40864 0.71772 0.31663
 H2916 H 0.40463 0.69242 0.28228
 H2917 H 0.38452 0.68220 0.29177
 H2918 H 0.38862 0.70751 0.32636
 C2919 C 0.40366 0.20904 0.80994
 C2920 C 0.40857 0.20435 0.79782
 C2921 C 0.40201 0.19383 0.79132
 C2922 C 0.39057 0.18801 0.79692
 C2923 C 0.38553 0.19264 0.80913
 C2924 C 0.39223 0.20325 0.81556
 C2925 C 0.42042 0.21026 0.79212
 C2926 C 0.43039 0.21516 0.78740
 C2927 C 0.44212 0.22076 0.78189
 C2928 C 0.45222 0.22540 0.77717
 H2929 H 0.40869 0.21716 0.81507
 H2930 H 0.40573 0.19012 0.78192
 H2931 H 0.38568 0.17995 0.79162
 H2932 H 0.38878 0.20705 0.82499
 C2933 C 0.90351 0.70948 0.80953
 C2934 C 0.90818 0.70491 0.79726
 C2935 C 0.90131 0.69466 0.79067
 C2936 C 0.88981 0.68898 0.79630
 C2937 C 0.88501 0.69349 0.80865
 C2938 C 0.89202 0.70383 0.81518
 C2939 C 0.92007 0.71069 0.79151
 C2940 C 0.93006 0.71549 0.78673
 C2941 C 0.94181 0.72104 0.78118
 C2942 C 0.95191 0.72567 0.77645
 H2943 H 0.90877 0.71740 0.81474
 H2944 H 0.90484 0.69104 0.78116
 H2945 H 0.88470 0.68112 0.79091
 H2946 H 0.88875 0.70755 0.82471
 C2947 C 0.90406 0.21035 0.31095
 C2948 C 0.90866 0.20613 0.29854
 C2949 C 0.90176 0.19606 0.29170
 C2950 C 0.89032 0.19019 0.29726
 C2951 C 0.88562 0.19431 0.30977
 C2952 C 0.89262 0.20450 0.31654
 C2953 C 0.92055 0.21199 0.29287
 C2954 C 0.93056 0.21674 0.28808
 C2955 C 0.94235 0.22211 0.28244
 C2956 C 0.95249 0.22650 0.27758
 H2957 H 0.90935 0.21811 0.31635
 H2958 H 0.90523 0.19272 0.28208
 H2959 H 0.88519 0.18248 0.29168
 H2960 H 0.88940 0.20789 0.32620
 C2961 C 0.30849 0.29178 0.59681
 C2962 C 0.29632 0.29673 0.59196
 C2963 C 0.28979 0.30717 0.59862
 C2964 C 0.29541 0.31268 0.61007
 C2965 C 0.30768 0.30782 0.61505
 C2966 C 0.31413 0.29727 0.60826
 C2967 C 0.29060 0.29117 0.58008
 C2968 C 0.28588 0.28655 0.57009
 C2969 C 0.28046 0.28115 0.55834
 C2970 C 0.27594 0.27654 0.54826
 H2971 H 0.31364 0.28371 0.59172
 H2972 H 0.28036 0.31108 0.59495
 H2973 H 0.29007 0.32071 0.61500
 H2974 H 0.32360 0.29328 0.61168
 C2975 C 0.30598 0.79163 0.09745
 C2976 C 0.29526 0.79828 0.09140
 C2977 C 0.29044 0.81028 0.09680
 C2978 C 0.29631 0.81563 0.10822
 C2979 C 0.30711 0.80902 0.11442
 C2980 C 0.31186 0.79694 0.10887
 C2981 C 0.28930 0.79281 0.07959
 C2982 C 0.28444 0.78817 0.06966
 C2983 C 0.27891 0.78267 0.05799
 C2984 C 0.27436 0.77791 0.04798
 H2985 H 0.30980 0.78232 0.09335
 H2986 H 0.28216 0.81554 0.09218
 H2987 H 0.29237 0.82496 0.11209
 H2988 H 0.32009 0.79150 0.11331
 C2989 C 0.80733 0.29093 0.09665
 C2990 C 0.79614 0.29712 0.09097
 C2991 C 0.79074 0.30866 0.09681
 C2992 C 0.79650 0.31400 0.10827
 C2993 C 0.80779 0.30786 0.11409
 C2994 C 0.81312 0.29624 0.10811
 C2995 C 0.79028 0.29168 0.07911
 C2996 C 0.78548 0.28709 0.06914
 C2997 C 0.78001 0.28166 0.05742
 C2998 C 0.77552 0.27698 0.04736
 H2999 H 0.81161 0.28199 0.09220
 H3000 H 0.78208 0.31355 0.09249
 H3001 H 0.79208 0.32295 0.11248
 H3002 H 0.82175 0.29118 0.11223
 C3003 C 0.79120 0.80673 0.59672
 C3004 C 0.79702 0.79524 0.59119
 C3005 C 0.80832 0.78952 0.59712
 C3006 C 0.81381 0.79526 0.60853
 C3007 C 0.80806 0.80686 0.61419
 C3008 C 0.79666 0.81251 0.60812
 C3009 C 0.79148 0.78941 0.57936
 C3010 C 0.78686 0.78460 0.56941
 C3011 C 0.78145 0.77910 0.55770
 C3012 C 0.77681 0.77453 0.54764
 H3013 H 0.78245 0.81126 0.59220
 H3014 H 0.81292 0.78062 0.59292
 H3015 H 0.82255 0.79057 0.61283
 H3016 H 0.79192 0.82140 0.61210
 C3017 C 0.28964 0.69092 0.40186
 C3018 C 0.29537 0.70204 0.40814
 C3019 C 0.30697 0.70789 0.40290
 C3020 C 0.31284 0.70264 0.39143
 C3021 C 0.30720 0.69142 0.38502
 C3022 C 0.29549 0.68564 0.39039
 C3023 C 0.28944 0.70738 0.42004
 C3024 C 0.28458 0.71186 0.43004
 C3025 C 0.27903 0.71715 0.44180
 C3026 C 0.27443 0.72171 0.45189
 H3027 H 0.28066 0.68630 0.40584
 H3028 H 0.31150 0.71651 0.40769
 H3029 H 0.32182 0.70740 0.38769
 H3030 H 0.29079 0.67704 0.38581
 C3031 C 0.30957 0.20920 0.90248
 C3032 C 0.29779 0.20394 0.90791
 C3033 C 0.29149 0.19302 0.90180
 C3034 C 0.29696 0.18736 0.89033
 C3035 C 0.30886 0.19254 0.88478
 C3036 C 0.31507 0.20357 0.89102
 C3037 C 0.29226 0.20967 0.91980
 C3038 C 0.28769 0.21444 0.92981
 C3039 C 0.28239 0.21995 0.94158
 C3040 C 0.27786 0.22453 0.95169
 H3041 H 0.31455 0.21765 0.90713
 H3042 H 0.28235 0.18886 0.90593
 H3043 H 0.29183 0.17894 0.88586
 H3044 H 0.32422 0.20787 0.88715
 C3045 C 0.81000 0.70891 0.90350
 C3046 C 0.79796 0.70387 0.90857
 C3047 C 0.79146 0.69330 0.90210
 C3048 C 0.79699 0.68776 0.89059
 C3049 C 0.80913 0.69273 0.88539
 C3050 C 0.81555 0.70339 0.89200
 C3051 C 0.79230 0.70949 0.92047
 C3052 C 0.78756 0.71412 0.93045
 C3053 C 0.78199 0.71945 0.94218
 C3054 C 0.77720 0.72387 0.95224
 H3055 H 0.81513 0.71708 0.90845
 H3056 H 0.78213 0.68932 0.90595
 H3057 H 0.79167 0.67964 0.88582
 H3058 H 0.82492 0.70748 0.88840
 C3059 C 0.80787 0.20880 0.40274
 C3060 C 0.79660 0.20265 0.40835
 C3061 C 0.79113 0.19121 0.40242
 C3062 C 0.79692 0.18589 0.39094
 C3063 C 0.80830 0.19195 0.38521
 C3064 C 0.81368 0.20351 0.39126
 C3065 C 0.79076 0.20801 0.42027
 C3066 C 0.78597 0.21250 0.43030
 C3067 C 0.78050 0.21777 0.44210
 C3068 C 0.77597 0.22230 0.45223
 H3069 H 0.81220 0.21767 0.40726
 H3070 H 0.78241 0.18636 0.40669
 H3071 H 0.79244 0.17702 0.38665
 H3072 H 0.82239 0.20851 0.38722
 C3073 C 0.69205 0.29088 0.40387
 C3074 C 0.70410 0.29611 0.40869
 C3075 C 0.71031 0.30677 0.40207
 C3076 C 0.70448 0.31221 0.39069
 C3077 C 0.69231 0.30707 0.38575
 C3078 C 0.68619 0.29630 0.39249
 C3079 C 0.71002 0.29064 0.42051
 C3080 C 0.71488 0.28609 0.43047
 C3081 C 0.72044 0.28076 0.44219
 C3082 C 0.72505 0.27621 0.45226
 H3083 H 0.68714 0.28263 0.40894
 H3084 H 0.71965 0.31091 0.40572
 H3085 H 0.70957 0.32042 0.38581
 H3086 H 0.67683 0.29206 0.38909
 C3087 C 0.68875 0.78870 0.90313
 C3088 C 0.70063 0.79360 0.90867
 C3089 C 0.70728 0.80438 0.90269
 C3090 C 0.70209 0.81027 0.89123
 C3091 C 0.69012 0.80547 0.88555
 C3092 C 0.68353 0.79458 0.89166
 C3093 C 0.70596 0.78768 0.92056
 C3094 C 0.71051 0.78288 0.93055
 C3095 C 0.71593 0.77746 0.94229
 C3096 C 0.72065 0.77302 0.95237
 H3097 H 0.68351 0.78037 0.90769
 H3098 H 0.71649 0.80826 0.90691
 H3099 H 0.70752 0.81856 0.88687
 H3100 H 0.67429 0.79058 0.88768
 C3101 C 0.19058 0.29040 0.90322
 C3102 C 0.20236 0.29562 0.90868
 C3103 C 0.20868 0.30658 0.90265
 C3104 C 0.20323 0.31233 0.89123
 C3105 C 0.19135 0.30719 0.88564
 C3106 C 0.18511 0.29613 0.89180
 C3107 C 0.20793 0.28980 0.92050
 C3108 C 0.21259 0.28502 0.93045
 C3109 C 0.21808 0.27956 0.94214
 C3110 C 0.22281 0.27505 0.95218
 H3111 H 0.18560 0.28192 0.90782
 H3112 H 0.21781 0.31071 0.90680
 H3113 H 0.20839 0.32078 0.88683
 H3114 H 0.17596 0.29187 0.88790
 C3115 C 0.19297 0.79143 0.40246
 C3116 C 0.20423 0.79761 0.40800
 C3117 C 0.20963 0.80909 0.40204
 C3118 C 0.20378 0.81439 0.39060
 C3119 C 0.19240 0.80828 0.38493
 C3120 C 0.18709 0.79670 0.39103
 C3121 C 0.21015 0.79223 0.41986
 C3122 C 0.21494 0.78766 0.42985
 C3123 C 0.22034 0.78224 0.44160
 C3124 C 0.22475 0.77753 0.45170
 H3125 H 0.18869 0.78254 0.40701
 H3126 H 0.21835 0.81397 0.40625
 H3127 H 0.20820 0.82328 0.38628
 H3128 H 0.17838 0.79166 0.38704
 C3129 C 0.68876 0.70915 0.59679
 C3130 C 0.70104 0.70463 0.59179
 C3131 C 0.70797 0.69439 0.59835
 C3132 C 0.70263 0.68866 0.60985
 C3133 C 0.69026 0.69309 0.61497
 C3134 C 0.68340 0.70344 0.60829
 C3135 C 0.70650 0.71038 0.57986
 C3136 C 0.71111 0.71505 0.56983
 C3137 C 0.71658 0.72036 0.55803
 C3138 C 0.72129 0.72473 0.54791
 H3139 H 0.68329 0.71706 0.59177
 H3140 H 0.71749 0.69080 0.59457
 H3141 H 0.70828 0.68080 0.61470
 H3142 H 0.67383 0.70710 0.61183
 C3143 C 0.71053 0.19052 0.09760
 C3144 C 0.70490 0.20171 0.09135
 C3145 C 0.69340 0.20770 0.09665
 C3146 C 0.68751 0.20252 0.10814
 C3147 C 0.69305 0.19122 0.11452
 C3148 C 0.70467 0.18530 0.10910
 C3149 C 0.71084 0.20699 0.07943
 C3150 C 0.71569 0.21144 0.06941
 C3151 C 0.72120 0.21671 0.05762
 C3152 C 0.72574 0.22127 0.04750
 H3153 H 0.71943 0.18579 0.09358
 H3154 H 0.68895 0.21638 0.09189
 H3155 H 0.67862 0.20739 0.11194
 H3156 H 0.70928 0.17663 0.11365
 C3157 C 0.19386 0.70878 0.09843
 C3158 C 0.20421 0.70183 0.09205
 C3159 C 0.20874 0.68960 0.09721
 C3160 C 0.20291 0.68431 0.10869
 C3161 C 0.19244 0.69119 0.11518
 C3162 C 0.18802 0.70351 0.10990
 C3163 C 0.21006 0.70721 0.08014
 C3164 C 0.21481 0.71177 0.07012
 C3165 C 0.22019 0.71718 0.05833
 C3166 C 0.22461 0.72188 0.04823
 H3167 H 0.19028 0.71826 0.09452
 H3168 H 0.21673 0.68413 0.09234
 H3169 H 0.20657 0.67479 0.11235
 H3170 H 0.18008 0.70918 0.11460
 C3171 C 0.19339 0.20694 0.59720
 C3172 C 0.20504 0.20116 0.59199
 C3173 C 0.21087 0.19012 0.59833
 C3174 C 0.20506 0.18486 0.60983
 C3175 C 0.19330 0.19057 0.61517
 C3176 C 0.18756 0.20171 0.60869
 C3177 C 0.21093 0.20653 0.58009
 C3178 C 0.21573 0.21109 0.57009
 C3179 C 0.22116 0.21650 0.55833
 C3180 C 0.22564 0.22119 0.54824
 H3181 H 0.18878 0.21549 0.59236
 H3182 H 0.21989 0.18556 0.59438
 H3183 H 0.20983 0.17632 0.61447
 H3184 H 0.17854 0.20641 0.61240
   
