data_POSCAR
  _audit_creation_date              2014-09-24
  _audit_creation_method            'ToBaCCo'
  _symmetry_space_group_name_H-M    'P1'
  _symmetry_Int_Tables_number       1
  _symmetry_cell_setting            triclinic
  loop_
  _symmetry_equiv_pos_as_xyz
 x,y,z
_cell_length_a 57.7637
_cell_length_b 57.8035
_cell_length_c 60.7576
_cell_angle_alpha 88.787800
_cell_angle_beta 91.148300
_cell_angle_gamma 90.502500
loop_
  _atom_site_label
  _atom_site_type_symbol
  _atom_site_fract_x
  _atom_site_fract_y
  _atom_site_fract_z
C1 C 0.40905 0.01112 0.27530
 C2 C 0.39185 0.03123 0.27320
 C3 C 0.37793 0.03031 0.25474
 C4 C 0.38240 0.00938 0.24018
 C5 C 0.39410 -0.01078 0.27418
 C6 C 0.38010 -0.01175 0.25596
 C7 C 0.42242 0.01195 0.25378
 C8 C 0.40850 0.01119 0.23538
 H9 H 0.39130 0.04528 0.28477
 H10 H 0.37107 0.00850 0.22521
 H11 H 0.39383 -0.02395 0.28722
 H12 H 0.44105 0.01457 0.25311
 C13 C 0.08975 -0.00047 0.77242
 C14 C 0.10450 -0.02237 0.77096
 C15 C 0.11835 -0.02232 0.75294
 C16 C 0.11616 -0.00028 0.73815
 C17 C 0.10721 0.01959 0.77194
 C18 C 0.12106 0.01981 0.75407
 C19 C 0.07695 0.00121 0.75167
 C20 C 0.09142 0.00127 0.73285
 H21 H 0.10351 -0.03683 0.78263
 H22 H 0.12748 -0.00011 0.72356
 H23 H 0.10820 0.03279 0.78442
 H24 H 0.05815 0.00111 0.75042
 C25 C 0.59196 0.49888 0.27278
 C26 C 0.60687 0.47714 0.27145
 C27 C 0.62082 0.47718 0.25353
 C28 C 0.61865 0.49906 0.23862
 C29 C 0.60908 0.51914 0.27210
 C30 C 0.62304 0.51937 0.25435
 C31 C 0.57862 0.50030 0.25078
 C32 C 0.59252 0.50033 0.23290
 H33 H 0.60584 0.46268 0.28312
 H34 H 0.63003 0.49923 0.22409
 H35 H 0.60986 0.53245 0.28448
 H36 H 0.55983 0.50036 0.24944
 C37 C 0.90911 0.51083 0.77465
 C38 C 0.89194 0.53096 0.77257
 C39 C 0.87793 0.53001 0.75418
 C40 C 0.88229 0.50903 0.73965
 C41 C 0.89413 0.48895 0.77364
 C42 C 0.88004 0.48795 0.75549
 C43 C 0.92238 0.51158 0.75306
 C44 C 0.90837 0.51079 0.73473
 H45 H 0.89146 0.54504 0.78412
 H46 H 0.87088 0.50813 0.72473
 H47 H 0.89391 0.47581 0.78671
 H48 H 0.94101 0.51417 0.75230
 C49 C 0.27659 0.37253 0.99228
 C50 C 0.27455 0.35519 1.01155
 C51 C 0.25489 0.34203 1.01084
 C52 C 0.23890 0.34730 0.99080
 C53 C 0.27425 0.35795 0.97152
 C54 C 0.25450 0.34479 0.97073
 C55 C 0.25424 0.38675 0.99264
 C56 C 0.23452 0.37349 0.99184
 H57 H 0.28706 0.35415 1.02514
 H58 H 0.22290 0.33649 0.99020
 H59 H 0.28664 0.35860 0.95830
 H60 H 0.25402 0.40551 0.99333
 C61 C 0.77060 0.13039 1.00050
 C62 C 0.76945 0.14783 0.98119
 C63 C 0.75040 0.16153 0.98116
 C64 C 0.73406 0.15649 1.00048
 C65 C 0.76900 0.14518 1.02115
 C66 C 0.74979 0.15884 1.02113
 C67 C 0.74893 0.11737 0.99941
 C68 C 0.72882 0.13178 0.99946
 H69 H 0.78264 0.14933 0.96871
 H70 H 0.71853 0.16776 1.00036
 H71 H 0.78133 0.14420 1.03488
 H72 H 0.74798 0.09859 1.00016
 C73 C 0.27153 0.63133 0.50021
 C74 C 0.26994 0.64842 0.48071
 C75 C 0.25088 0.66205 0.48074
 C76 C 0.23485 0.65739 0.50031
 C77 C 0.26999 0.64628 0.52071
 C78 C 0.25076 0.65986 0.52074
 C79 C 0.24864 0.61756 0.49950
 C80 C 0.22944 0.63125 0.49963
 H81 H 0.28297 0.64984 0.46807
 H82 H 0.21928 0.66855 0.50025
 H83 H 0.28238 0.64540 0.53440
 H84 H 0.24772 0.59878 0.50009
 C85 C 0.77643 0.87244 0.49255
 C86 C 0.77424 0.85499 0.51171
 C87 C 0.75456 0.84187 0.51083
 C88 C 0.73869 0.84729 0.49074
 C89 C 0.77417 0.85798 0.47170
 C90 C 0.75441 0.84486 0.47074
 C91 C 0.75409 0.88669 0.49287
 C92 C 0.73436 0.87348 0.49190
 H93 H 0.78667 0.85386 0.52536
 H94 H 0.72268 0.83651 0.49000
 H95 H 0.78667 0.85865 0.45857
 H96 H 0.75390 0.90544 0.49371
 C97 C -0.00535 0.27538 0.40650
 C98 C 0.01440 0.28128 0.39074
 C99 C 0.01637 0.26567 0.37440
 C100 C -0.00138 0.24580 0.37529
 C101 C -0.02602 0.27341 0.39269
 C102 C -0.02370 0.25711 0.37558
 C103 C -0.00014 0.25080 0.41512
 C104 C 0.00199 0.23538 0.39857
 H105 H 0.02661 0.29546 0.39313
 H106 H 0.00033 0.23308 0.36193
 H107 H -0.04141 0.28383 0.39457
 H108 H 0.00210 0.24614 0.43244
 C109 C -0.00226 0.76008 0.10128
 C110 C -0.01467 0.76526 0.12264
 C111 C -0.01328 0.74770 0.13785
 C112 C 0.00009 0.72662 0.13041
 C113 C 0.02254 0.75404 0.10843
 C114 C 0.02365 0.73648 0.12368
 C115 C -0.01301 0.73745 0.09316
 C116 C -0.01174 0.72000 0.10859
 H117 H -0.02505 0.78060 0.12488
 H118 H 0.00110 0.71227 0.14286
 H119 H 0.03762 0.76415 0.10356
 H120 H -0.01905 0.73489 0.07633
 C121 C 0.49732 0.26080 0.60233
 C122 C 0.48466 0.26590 0.62356
 C123 C 0.48599 0.24835 0.63878
 C124 C 0.49955 0.22734 0.63146
 C125 C 0.52208 0.25488 0.60970
 C126 C 0.52312 0.23732 0.62494
 C127 C 0.48678 0.23811 0.59411
 C128 C 0.48799 0.22066 0.60954
 H129 H 0.47416 0.28118 0.62571
 H130 H 0.50051 0.21299 0.64392
 H131 H 0.53717 0.26501 0.60489
 H132 H 0.48092 0.23553 0.57722
 C133 C 0.49573 0.77564 0.90837
 C134 C 0.51647 0.78054 0.89349
 C135 C 0.51815 0.76510 0.87697
 C136 C 0.49921 0.74634 0.87685
 C137 C 0.47459 0.77546 0.89268
 C138 C 0.47658 0.76005 0.87616
 C139 C 0.49847 0.75195 0.91627
 C140 C 0.50040 0.73593 0.89881
 H141 H 0.52918 0.79418 0.89634
 H142 H 0.50061 0.73382 0.86328
 H143 H 0.45969 0.78659 0.89430
 H144 H 0.50017 0.74697 0.93358
 C145 C -0.23852 0.65979 0.97517
 C146 C -0.21856 0.64241 0.97719
 C147 C -0.21960 0.62843 0.99561
 C148 C -0.24049 0.63302 1.01021
 C149 C -0.26057 0.64504 0.97628
 C150 C -0.26165 0.63098 0.99445
 C151 C -0.23756 0.67305 0.99673
 C152 C -0.23844 0.65907 1.01509
 H153 H -0.20451 0.64178 0.96560
 H154 H -0.24147 0.62164 1.02515
 H155 H -0.27373 0.64491 0.96323
 H156 H -0.23476 0.69164 0.99745
 C157 C -0.25105 0.33957 0.47786
 C158 C -0.27296 0.35433 0.47921
 C159 C -0.27298 0.36821 0.49719
 C160 C -0.25099 0.36602 0.51205
 C161 C -0.23096 0.35701 0.47835
 C162 C -0.23081 0.37089 0.49618
 C163 C -0.24946 0.32682 0.49864
 C164 C -0.24948 0.34130 0.51742
 H165 H -0.28736 0.35336 0.46748
 H166 H -0.25088 0.37736 0.52661
 H167 H -0.21767 0.35792 0.46593
 H168 H -0.24946 0.30802 0.49994
 C169 C 0.24934 -0.15895 -0.02239
 C170 C 0.22746 -0.14416 -0.02094
 C171 C 0.22742 -0.13048 -0.00282
 C172 C 0.24938 -0.13287 0.01206
 C173 C 0.26947 -0.14157 -0.02169
 C174 C 0.26961 -0.12789 -0.00371
 C175 C 0.25085 -0.17193 -0.00172
 C176 C 0.25082 -0.15764 0.01720
 H177 H 0.21307 -0.14501 -0.03269
 H178 H 0.24948 -0.12169 0.02673
 H179 H 0.28284 -0.14060 -0.03403
 H180 H 0.25083 -0.19073 -0.00061
 C181 C 0.26087 1.15950 0.47538
 C182 C 0.28101 1.14232 0.47745
 C183 C 0.28009 1.12838 0.49589
 C184 C 0.25915 1.13279 0.51048
 C185 C 0.23897 1.14453 0.47651
 C186 C 0.23802 1.13050 0.49471
 C187 C 0.26169 1.17282 0.49691
 C188 C 0.26093 1.15887 0.51530
 H189 H 0.29506 1.14179 0.46585
 H190 H 0.25827 1.12144 0.52544
 H191 H 0.22582 1.14424 0.46346
 H192 H 0.26430 1.19143 0.49759
 C193 C 0.12234 0.52661 0.25712
 C194 C 0.10498 0.52448 0.23788
 C195 C 0.09179 0.50485 0.23874
 C196 C 0.09705 0.48898 0.25886
 C197 C 0.10774 0.52440 0.27791
 C198 C 0.09455 0.50469 0.27883
 C199 C 0.13654 0.50424 0.25688
 C200 C 0.12325 0.48456 0.25782
 H201 H 0.10394 0.53691 0.22423
 H202 H 0.08620 0.47301 0.25957
 H203 H 0.10839 0.53688 0.29104
 H204 H 0.15531 0.50399 0.25614
 C205 C -0.11917 1.02018 0.25025
 C206 C -0.10170 1.01904 0.26952
 C207 C -0.08794 1.00003 0.26951
 C208 C -0.09298 0.98372 0.25019
 C209 C -0.10441 1.01864 0.22956
 C210 C -0.09070 0.99947 0.22955
 C211 C -0.13215 0.99850 0.25137
 C212 C -0.11770 0.97843 0.25127
 H213 H -0.10018 1.03222 0.28198
 H214 H -0.08168 0.96823 0.25029
 H215 H -0.10543 1.03098 0.21583
 H216 H -0.15095 0.99750 0.25061
 C217 C 0.38082 0.52226 -0.25072
 C218 C 0.39795 0.52072 -0.23126
 C219 C 0.41161 0.50170 -0.23127
 C220 C 0.40693 0.48564 -0.25077
 C221 C 0.39577 0.52071 -0.27125
 C222 C 0.40937 0.50150 -0.27125
 C223 C 0.36706 0.49938 -0.24992
 C224 C 0.38079 0.48020 -0.25003
 H225 H 0.39941 0.53380 -0.21869
 H226 H 0.41812 0.47008 -0.25069
 H227 H 0.39488 0.53307 -0.28495
 H228 H 0.34827 0.49844 -0.25046
 C229 C 0.62251 0.02627 -0.24215
 C230 C 0.60501 0.02429 -0.26130
 C231 C 0.59175 0.00471 -0.26044
 C232 C 0.59706 -0.01125 -0.24039
 C233 C 0.60804 0.02405 -0.22128
 C234 C 0.59477 0.00439 -0.22035
 C235 C 0.63660 0.00385 -0.24255
 C236 C 0.62323 -0.01578 -0.24160
 H237 H 0.60398 0.03674 -0.27493
 H238 H 0.58615 -0.02718 -0.23967
 H239 H 0.60884 0.03647 -0.20811
 H240 H 0.65536 0.00352 -0.24345
 C241 C 0.02452 0.24546 0.84170
 C242 C 0.02981 0.26600 0.85667
 C243 C 0.01434 0.26792 0.87315
 C244 C -0.00483 0.24940 0.87316
 C245 C 0.02383 0.22426 0.85731
 C246 C 0.00840 0.22649 0.87380
 C247 C 0.00091 0.24874 0.83374
 C248 C -0.01513 0.25092 0.85117
 H249 H 0.04372 0.27844 0.85388
 H250 H -0.01737 0.25101 0.88670
 H251 H 0.03470 0.20917 0.85570
 H252 H -0.00400 0.25046 0.81642
 C253 C 0.51081 0.24841 0.14811
 C254 C 0.51591 0.23534 0.12712
 C255 C 0.49840 0.23652 0.11185
 C256 C 0.47744 0.25035 0.11888
 C257 C 0.50508 0.27308 0.14031
 C258 C 0.48756 0.27396 0.12501
 C259 C 0.48802 0.23818 0.15645
 C260 C 0.47061 0.23923 0.14097
 H261 H 0.53118 0.22478 0.12515
 H262 H 0.46312 0.25118 0.10638
 H263 H 0.51530 0.28817 0.14487
 H264 H 0.48536 0.23259 0.17341
 C265 C 0.01041 0.74666 0.64817
 C266 C 0.01567 0.73402 0.62697
 C267 C -0.00176 0.73543 0.61163
 C268 C -0.02281 0.74905 0.61881
 C269 C 0.00464 0.77144 0.64076
 C270 C -0.01280 0.77256 0.62540
 C271 C -0.01239 0.73619 0.65623
 C272 C -0.02972 0.73749 0.64068
 H273 H 0.03095 0.72349 0.62492
 H274 H -0.03706 0.75007 0.60625
 H275 H 0.01478 0.78648 0.64564
 H276 H -0.01515 0.73037 0.67310
 C277 C 0.52639 0.74670 0.34235
 C278 C 0.53190 0.76680 0.35771
 C279 C 0.51644 0.76866 0.37416
 C280 C 0.49699 0.75051 0.37387
 C281 C 0.52506 0.72520 0.35744
 C282 C 0.50964 0.72735 0.37391
 C283 C 0.50156 0.75087 0.33401
 C284 C 0.48628 0.75290 0.35066
 H285 H 0.54590 0.77918 0.35508
 H286 H 0.48440 0.75209 0.38736
 H287 H 0.53563 0.70993 0.35556
 H288 H 0.49664 0.75266 0.31671
 Zr289 Zr 0.01965 -0.01870 1.03066
 O290 O 0.04363 -0.00978 1.05598
 O291 O 0.01418 -0.05413 1.03712
 O292 O 0.00496 -0.02172 1.06224
 O293 O 0.06105 -0.02474 0.99065
 O294 O -0.02874 -0.00147 1.05866
 O295 O 0.05249 -0.03379 1.02637
 O296 O -0.01326 -0.06433 1.01142
 O297 O -0.01596 -0.02252 1.02433
 O298 O 0.01618 -0.03178 0.99893
 O299 O 0.00564 0.01456 1.03376
 O300 O 0.03677 0.00539 1.00985
 Zr301 Zr -0.01803 0.02204 0.97317
 Zr302 Zr -0.02963 0.01083 1.02586
 Zr303 Zr 0.03150 -0.00739 0.97806
 Zr304 Zr -0.01917 -0.03432 0.99217
 O305 O 0.06153 0.01184 0.96974
 O306 O -0.05163 -0.04584 1.00412
 O307 O -0.00379 -0.01117 0.96971
 O308 O -0.03470 -0.00194 0.99411
 O309 O -0.01465 0.03558 1.00478
 O310 O 0.01755 0.02569 0.97959
 C311 C 0.00043 -0.06872 1.02781
 C312 C 0.06585 -0.03395 1.00963
 C313 C -0.01393 -0.01361 1.06980
 O314 O -0.06110 -0.00689 1.03215
 O315 O -0.05756 0.03114 1.01438
 O316 O -0.04988 0.03888 0.97822
 C317 C -0.06249 0.04026 0.99542
 O318 O 0.04640 0.03955 1.03707
 Zr319 Zr 0.02087 0.03791 1.01145
 O320 O -0.01263 0.05731 0.96643
 O321 O -0.03311 0.03901 1.04717
 O322 O 0.00952 0.06242 1.03428
 O323 O 0.05229 0.05128 0.99870
 O324 O 0.01270 0.06857 0.99358
 C325 C -0.00037 0.07250 0.97657
 O326 O -0.04348 0.01376 0.94894
 O327 O 0.03695 -0.03684 0.95875
 O328 O -0.00492 0.02214 0.94087
 O329 O 0.02836 0.00114 0.94439
 O330 O -0.00802 -0.06040 0.97085
 O331 O -0.04191 -0.03637 0.96432
 C332 C 0.01311 0.01250 0.93305
 H333 H 0.02370 -0.04697 0.99738
 H334 H -0.05136 -0.00342 0.99021
 H335 H 0.02523 0.03626 0.96892
 H336 H 0.00807 0.02028 1.04888
 H337 H -0.05356 -0.06230 1.00015
 H338 H -0.06920 0.00199 1.04341
 H339 H -0.04826 0.03706 1.05438
 H340 H 0.01888 0.07671 1.03210
 H341 H -0.01819 -0.07410 0.97312
 H342 H 0.05206 -0.03455 0.95153
 H343 H 0.06969 0.00284 0.95862
 H344 H 0.05357 0.06770 1.00297
 H345 H -0.04972 -0.05169 0.96434
 H346 H -0.04652 0.02805 0.94004
 H347 H 0.04699 -0.02410 1.06472
 H348 H 0.05131 0.05584 1.03906
 Zr349 Zr 0.51996 0.48149 0.53020
 O350 O 0.54401 0.49047 0.55544
 O351 O 0.51433 0.44613 0.53686
 O352 O 0.50529 0.47875 0.56179
 O353 O 0.56130 0.47500 0.49020
 O354 O 0.47166 0.49910 0.55810
 O355 O 0.55272 0.46621 0.52597
 O356 O 0.48685 0.43587 0.51122
 O357 O 0.48433 0.47778 0.52389
 O358 O 0.51642 0.46823 0.49855
 O359 O 0.50609 0.51483 0.53312
 O360 O 0.53717 0.50539 0.50925
 Zr361 Zr 0.48242 0.52204 0.47250
 Zr362 Zr 0.47080 0.51119 0.52524
 Zr363 Zr 0.53183 0.49244 0.47754
 Zr364 Zr 0.48106 0.46579 0.49180
 O365 O 0.56195 0.51149 0.46916
 O366 O 0.44856 0.45447 0.50380
 O367 O 0.49653 0.48874 0.46921
 O368 O 0.46566 0.49825 0.49357
 O369 O 0.48587 0.53576 0.50403
 O370 O 0.51802 0.52558 0.47889
 C371 C 0.50052 0.43154 0.52765
 C372 C 0.56607 0.46587 0.50923
 C373 C 0.48642 0.48698 0.56931
 O374 O 0.43926 0.49364 0.53163
 O375 O 0.44295 0.53157 0.51367
 O376 O 0.45064 0.53906 0.47747
 C377 C 0.43806 0.54061 0.49466
 O378 O 0.54695 0.53968 0.53627
 Zr379 Zr 0.52139 0.53799 0.51068
 O380 O 0.48792 0.55726 0.46558
 O381 O 0.46744 0.53952 0.54641
 O382 O 0.51016 0.56268 0.53340
 O383 O 0.55285 0.55118 0.49784
 O384 O 0.51330 0.56858 0.49267
 C385 C 0.50023 0.57246 0.47565
 O386 O 0.45694 0.51370 0.44832
 O387 O 0.53713 0.46286 0.45836
 O388 O 0.49555 0.52194 0.44021
 O389 O 0.52874 0.50083 0.44385
 O390 O 0.49211 0.43953 0.47063
 O391 O 0.45831 0.46366 0.46397
 C392 C 0.51356 0.51221 0.43245
 H393 H 0.52387 0.45300 0.49707
 H394 H 0.44899 0.49682 0.48968
 H395 H 0.52573 0.53608 0.46818
 H396 H 0.50854 0.52064 0.54821
 H397 H 0.44656 0.43800 0.49992
 H398 H 0.43120 0.50263 0.54283
 H399 H 0.45228 0.53767 0.55363
 H400 H 0.51957 0.57692 0.53114
 H401 H 0.48188 0.42588 0.47298
 H402 H 0.55225 0.46505 0.45113
 H403 H 0.57007 0.50239 0.45807
 H404 H 0.55419 0.56762 0.50202
 H405 H 0.45045 0.44837 0.46406
 H406 H 0.45395 0.52795 0.43934
 H407 H 0.54730 0.47619 0.56426
 H408 H 0.55193 0.55597 0.53817
 Zr409 Zr 0.47611 0.99764 0.53955
 O410 O 0.45203 0.98101 0.56053
 O411 O 0.47884 1.03054 0.55302
 O412 O 0.49002 0.99418 0.57191
 O413 O 0.43613 1.01266 0.49851
 O414 O 0.52510 0.97713 0.56726
 O415 O 0.44289 1.01264 0.53571
 O416 O 0.50634 1.04852 0.53205
 O417 O 0.51161 1.00465 0.53673
 O418 O 0.47982 1.01853 0.51129
 O419 O 0.49208 0.96519 0.53768
 O420 O 0.46095 0.97872 0.51355
 Zr421 Zr 0.51764 0.97424 0.47877
 Zr422 Zr 0.52729 0.97246 0.53310
 Zr423 Zr 0.46654 0.99936 0.48526
 Zr424 Zr 0.51507 1.02449 0.50794
 O425 O 0.43755 0.98142 0.47203
 O426 O 0.54630 1.03404 0.52443
 O427 O 0.50175 1.00688 0.48046
 O428 O 0.53238 0.99312 0.50484
 O429 O 0.51421 0.95302 0.50692
 O430 O 0.48223 0.96733 0.48187
 C431 C 0.49176 1.04785 0.54778
 C432 C 0.43037 1.01700 0.51832
 C433 C 0.50942 0.98591 0.57920
 O434 O 0.55788 0.98924 0.54431
 O435 O 0.55638 0.95628 0.51995
 O436 O 0.55009 0.95786 0.48270
 C437 C 0.56220 0.95239 0.50004
 O438 O 0.45240 0.93858 0.53320
 Zr439 Zr 0.47876 0.94739 0.51051
 O440 O 0.51487 0.94114 0.46557
 O441 O 0.53151 0.94001 0.54938
 O442 O 0.49059 0.91838 0.52937
 O443 O 0.44883 0.93564 0.49315
 O444 O 0.48967 0.92227 0.48841
 C445 C 0.50353 0.92317 0.47212
 O446 O 0.54298 0.98999 0.45853
 O447 O 0.46046 1.03250 0.47092
 O448 O 0.50513 0.98069 0.44622
 O449 O 0.47064 0.99880 0.45100
 O450 O 0.50323 1.05484 0.49120
 O451 O 0.53865 1.03481 0.48310
 C452 C 0.48661 0.99081 0.43895
 H453 H 0.47160 1.03345 0.51196
 H454 H 0.54903 0.99625 0.50246
 H455 H 0.47547 0.95917 0.46906
 H456 H 0.48962 0.95584 0.55129
 H457 H 0.54722 1.05117 0.52412
 H458 H 0.56607 0.97813 0.55430
 H459 H 0.54638 0.94081 0.55777
 H460 H 0.48209 0.90458 0.52397
 H461 H 0.51235 1.06806 0.49699
 H462 H 0.44565 1.03148 0.46245
 H463 H 0.42918 0.99256 0.46221
 H464 H 0.44849 0.91852 0.49448
 H465 H 0.54561 1.04999 0.48680
 H466 H 0.54725 0.97852 0.44742
 H467 H 0.44751 0.99248 0.57154
 H468 H 0.44839 0.92196 0.53198
 Zr469 Zr -0.02408 0.49696 1.03888
 O470 O -0.04816 0.48034 1.05988
 O471 O -0.02134 0.52986 1.05234
 O472 O -0.01016 0.49353 1.07124
 O473 O -0.06405 0.51201 0.99785
 O474 O 0.02489 0.47644 1.06660
 O475 O -0.05729 0.51199 1.03504
 O476 O 0.00619 0.54781 1.03137
 O477 O 0.01142 0.50393 1.03606
 O478 O -0.02036 0.51785 1.01062
 O479 O -0.00815 0.46449 1.03702
 O480 O -0.03926 0.47805 1.01289
 Zr481 Zr 0.01742 0.47350 0.97811
 Zr482 Zr 0.02707 0.47173 1.03244
 Zr483 Zr -0.03365 0.49868 0.98460
 Zr484 Zr 0.01490 0.52376 1.00727
 O485 O -0.06266 0.48077 0.97136
 O486 O 0.04614 0.53329 1.02376
 O487 O 0.00156 0.50616 0.97980
 O488 O 0.03218 0.49238 1.00417
 O489 O 0.01398 0.45229 1.00626
 O490 O -0.01800 0.46664 0.98121
 C491 C -0.00840 0.54716 1.04710
 C492 C -0.06981 0.51636 1.01766
 C493 C 0.00924 0.48526 1.07853
 O494 O 0.05768 0.48848 1.04365
 O495 O 0.05616 0.45555 1.01930
 O496 O 0.04987 0.45711 0.98206
 C497 C 0.06199 0.45166 0.99940
 O498 O -0.04781 0.43789 1.03259
 Zr499 Zr -0.02149 0.44670 1.00986
 O500 O 0.01457 0.44040 0.96489
 O501 O 0.03125 0.43928 1.04873
 O502 O -0.00964 0.41768 1.02868
 O503 O -0.05147 0.43500 0.99256
 O504 O -0.01068 0.42159 0.98771
 C505 C 0.00315 0.42247 0.97141
 O506 O 0.04279 0.48919 0.95787
 O507 O -0.03971 0.53182 0.97025
 O508 O 0.00494 0.48000 0.94556
 O509 O -0.02954 0.49813 0.95034
 O510 O 0.00309 0.55412 0.99051
 O511 O 0.03850 0.53407 0.98244
 C512 C -0.01356 0.49015 0.93829
 H513 H -0.02856 0.53277 1.01129
 H514 H 0.04883 0.49549 1.00180
 H515 H -0.02477 0.45849 0.96841
 H516 H -0.01061 0.45515 1.05064
 H517 H 0.04707 0.55042 1.02346
 H518 H 0.06586 0.47736 1.05365
 H519 H 0.04612 0.44006 1.05712
 H520 H -0.01814 0.40388 1.02329
 H521 H 0.01221 0.56734 0.99631
 H522 H -0.05452 0.53082 0.96178
 H523 H -0.07101 0.49191 0.96153
 H524 H -0.05184 0.41788 0.99388
 H525 H 0.04547 0.54924 0.98614
 H526 H 0.04704 0.47771 0.94676
 H527 H -0.05268 0.49182 1.07088
 H528 H -0.05181 0.42127 1.03138
 Zr529 Zr -0.02366 0.48840 0.47504
 O530 O -0.04609 0.49459 0.44759
 O531 O -0.01814 0.45271 0.47309
 O532 O -0.00704 0.48348 0.44466
 O533 O -0.06749 0.48522 0.51335
 O534 O 0.02662 0.50427 0.44802
 O535 O -0.05690 0.47327 0.47940
 O536 O 0.00720 0.44472 0.50156
 O537 O 0.01151 0.48553 0.48381
 O538 O -0.02233 0.47813 0.50826
 O539 O -0.00917 0.52141 0.46900
 O540 O -0.04194 0.51382 0.49199
 Zr541 Zr 0.01055 0.53430 0.52968
 Zr542 Zr 0.02554 0.51883 0.47937
 Zr543 Zr -0.03872 0.50396 0.52534
 Zr544 Zr 0.01253 0.47649 0.51727
 O545 O -0.06914 0.52340 0.52951
 O546 O 0.04550 0.46440 0.50826
 O547 O -0.00404 0.50127 0.53607
 O548 O 0.02837 0.50884 0.51264
 O549 O 0.00930 0.54495 0.49651
 O550 O -0.02453 0.53696 0.52078
 C551 C -0.00548 0.43895 0.48493
 C552 C -0.07119 0.47431 0.49540
 C553 C 0.01235 0.49137 0.43729
 O554 O 0.05718 0.50099 0.47697
 O555 O 0.05286 0.54041 0.49009
 O556 O 0.04287 0.55102 0.52462
 C557 C 0.05660 0.55117 0.50813
 O558 O -0.04991 0.54494 0.46070
 Zr559 Zr -0.02573 0.54622 0.48750
 O560 O 0.00517 0.57003 0.53143
 O561 O 0.03072 0.54531 0.45535
 O562 O -0.01319 0.56865 0.46226
 O563 O -0.05761 0.56047 0.49709
 O564 O -0.01799 0.57845 0.50145
 C565 C -0.00592 0.58409 0.51851
 O566 O 0.03424 0.52862 0.55626
 O567 O -0.04555 0.47622 0.54765
 O568 O -0.00481 0.53697 0.56099
 O569 O -0.03793 0.51526 0.55793
 O570 O -0.00017 0.45242 0.54104
 O571 O 0.03377 0.47690 0.54624
 C572 C -0.02343 0.52774 0.56881
 H573 H -0.03007 0.46307 0.51119
 H574 H 0.04476 0.50792 0.51765
 H575 H -0.03276 0.54834 0.52966
 H576 H -0.01059 0.52588 0.45322
 H577 H 0.04702 0.44833 0.51408
 H578 H 0.06615 0.50907 0.46534
 H579 H 0.04632 0.54299 0.44930
 H580 H -0.02279 0.58279 0.46204
 H581 H 0.00992 0.43863 0.54096
 H582 H -0.06113 0.47881 0.55364
 H583 H -0.07811 0.51530 0.54112
 H584 H -0.05851 0.57635 0.49068
 H585 H 0.04142 0.46173 0.54831
 H586 H 0.03673 0.54367 0.56356
 H587 H -0.04893 0.47950 0.44047
 H588 H -0.05487 0.56082 0.45658
 Zr589 Zr 0.47748 -0.01148 -0.02367
 O590 O 0.45506 -0.00553 -0.05118
 O591 O 0.48313 -0.04717 -0.02543
 O592 O 0.49412 -0.01650 -0.05402
 O593 O 0.43363 -0.01456 0.01462
 O594 O 0.52772 0.00442 -0.05077
 O595 O 0.44427 -0.02665 -0.01927
 O596 O 0.50849 -0.05491 0.00307
 O597 O 0.51266 -0.01419 -0.01489
 O598 O 0.47885 -0.02157 0.00959
 O599 O 0.49186 0.02155 -0.02987
 O600 O 0.45912 0.01398 -0.00686
 Zr601 Zr 0.51153 0.03483 0.03074
 Zr602 Zr 0.52658 0.01913 -0.01949
 Zr603 Zr 0.46236 0.00430 0.02654
 Zr604 Zr 0.51371 -0.02304 0.01861
 O605 O 0.43189 0.02367 0.03063
 O606 O 0.54672 -0.03508 0.00968
 O607 O 0.49705 0.00179 0.03728
 O608 O 0.52945 0.00934 0.01382
 O609 O 0.51026 0.04530 -0.00247
 O610 O 0.47645 0.03732 0.02183
 C611 C 0.49583 -0.06083 -0.01352
 C612 C 0.42996 -0.02555 -0.00329
 C613 C 0.51348 -0.00858 -0.06144
 O614 O 0.55829 0.00138 -0.02179
 O615 O 0.55382 0.04089 -0.00888
 O616 O 0.54379 0.05167 0.02558
 C617 C 0.55751 0.05179 0.00909
 O618 O 0.45108 0.04493 -0.03831
 Zr619 Zr 0.47522 0.04641 -0.01150
 O620 O 0.50600 0.07054 0.03236
 O621 O 0.53168 0.04550 -0.04365
 O622 O 0.48773 0.06877 -0.03680
 O623 O 0.44327 0.06057 -0.00200
 O624 O 0.48280 0.07873 0.00234
 C625 C 0.49483 0.08450 0.01938
 O626 O 0.53527 0.02937 0.05733
 O627 O 0.45562 -0.02337 0.04897
 O628 O 0.49616 0.03759 0.06204
 O629 O 0.46312 0.01577 0.05906
 O630 O 0.50109 -0.04702 0.04250
 O631 O 0.53494 -0.02240 0.04758
 C632 C 0.47757 0.02834 0.06990
 H633 H 0.47114 -0.03664 0.01259
 H634 H 0.54584 0.00850 0.01884
 H635 H 0.46817 0.04872 0.03065
 H636 H 0.49043 0.02593 -0.04567
 H637 H 0.54830 -0.05111 0.01558
 H638 H 0.56723 0.00943 -0.03346
 H639 H 0.54729 0.04320 -0.04968
 H640 H 0.47810 0.08287 -0.03710
 H641 H 0.51122 -0.06077 0.04249
 H642 H 0.44003 -0.02078 0.05495
 H643 H 0.42293 0.01559 0.04227
 H644 H 0.44231 0.07642 -0.00848
 H645 H 0.54264 -0.03754 0.04973
 H646 H 0.53769 0.04446 0.06457
 H647 H 0.45227 -0.02067 -0.05821
 H648 H 0.44609 0.06079 -0.04252
 Zr649 Zr 0.53315 0.51104 -0.03449
 O650 O 0.55757 0.49543 -0.05491
 O651 O 0.53156 0.54472 -0.04790
 O652 O 0.52049 0.50887 -0.06734
 O653 O 0.57241 0.52227 0.00803
 O654 O 0.48447 0.49272 -0.06373
 O655 O 0.56693 0.52486 -0.02930
 O656 O 0.50399 0.56177 -0.02738
 O657 O 0.49786 0.51873 -0.03247
 O658 O 0.52942 0.53029 -0.00602
 O659 O 0.51576 0.47887 -0.03346
 O660 O 0.54654 0.49007 -0.00840
 Zr661 Zr 0.48858 0.48502 0.02476
 Zr662 Zr 0.48073 0.48678 -0.02976
 Zr663 Zr 0.54096 0.50910 0.02003
 Zr664 Zr 0.49431 0.53684 -0.00342
 O665 O 0.56894 0.48976 0.03358
 O666 O 0.46363 0.54824 -0.01989
 O667 O 0.50598 0.51728 0.02412
 O668 O 0.47551 0.50582 -0.00137
 O669 O 0.49204 0.46545 -0.00360
 O670 O 0.52377 0.47732 0.02244
 C671 C 0.51868 0.56176 -0.04298
 C672 C 0.57910 0.52758 -0.01148
 C673 C 0.50107 0.50118 -0.07520
 O674 O 0.45150 0.50533 -0.04169
 O675 O 0.45058 0.47053 -0.01784
 O676 O 0.45550 0.46965 0.01957
 C677 C 0.44388 0.46543 0.00173
 O678 O 0.55416 0.45082 -0.02818
 Zr679 Zr 0.52731 0.45902 -0.00631
 O680 O 0.48907 0.45110 0.03724
 O681 O 0.47536 0.45540 -0.04652
 O682 O 0.51495 0.43160 -0.02614
 O683 O 0.55599 0.44533 0.01185
 O684 O 0.51413 0.43285 0.01486
 C685 C 0.49962 0.43319 0.03062
 O686 O 0.46357 0.50047 0.04463
 O687 O 0.54767 0.54118 0.03517
 O688 O 0.50080 0.48823 0.05772
 O689 O 0.53613 0.50587 0.05411
 O690 O 0.50730 0.56602 0.01360
 O691 O 0.47085 0.54627 0.02130
 C692 C 0.51974 0.49704 0.06561
 H693 H 0.53826 0.54504 -0.00636
 H694 H 0.45892 0.50921 0.00059
 H695 H 0.52978 0.46807 0.03517
 H696 H 0.51829 0.47017 -0.04706
 H697 H 0.46339 0.56535 -0.01921
 H698 H 0.44303 0.49505 -0.05199
 H699 H 0.46083 0.45713 -0.05534
 H700 H 0.52254 0.41722 -0.02068
 H701 H 0.49884 0.57976 0.00780
 H702 H 0.56217 0.53936 0.04400
 H703 H 0.57743 0.50004 0.04387
 H704 H 0.55546 0.42829 0.01038
 H705 H 0.46491 0.56201 0.01800
 H706 H 0.45834 0.48844 0.05535
 H707 H 0.56282 0.50749 -0.06559
 H708 H 0.55741 0.43404 -0.02705
 Zr709 Zr 0.03361 1.00946 0.46634
 O710 O 0.05795 0.99351 0.44608
 O711 O 0.03234 1.04307 0.45275
 O712 O 0.02099 1.00719 0.43347
 O713 O 0.07285 1.02077 0.50885
 O714 O -0.01515 0.99132 0.43711
 O715 O 0.06745 1.02312 0.47151
 O716 O 0.00489 1.06050 0.47311
 O717 O -0.00163 1.01744 0.46823
 O718 O 0.02996 1.02894 0.49467
 O719 O 0.01599 0.97742 0.46753
 O720 O 0.04680 0.98858 0.49258
 Zr721 Zr -0.01127 0.98418 0.52564
 Zr722 Zr -0.01898 0.98562 0.47110
 Zr723 Zr 0.04130 1.00786 0.52088
 Zr724 Zr -0.00511 1.03578 0.49715
 O725 O 0.06913 0.98840 0.53458
 O726 O -0.03564 1.04728 0.48048
 O727 O 0.00636 1.01632 0.52484
 O728 O -0.02413 1.00489 0.49936
 O729 O -0.00788 0.96439 0.49742
 O730 O 0.02388 0.97621 0.52345
 C731 C 0.01963 1.06027 0.45756
 C732 C 0.07960 1.02592 0.48933
 C733 C 0.00152 0.99960 0.42562
 O734 O -0.04808 1.00427 0.45901
 O735 O -0.04926 0.96965 0.48305
 O736 O -0.04442 0.96899 0.52048
 C737 C -0.05603 0.96472 0.50264
 O738 O 0.05417 0.94912 0.47306
 Zr739 Zr 0.02735 0.95768 0.49483
 O740 O -0.01102 0.95036 0.53836
 O741 O -0.02452 0.95416 0.45451
 O742 O 0.01482 0.93020 0.47517
 O743 O 0.05590 0.94391 0.51311
 O744 O 0.01396 0.93177 0.51615
 C745 C -0.00058 0.93233 0.53189
 O746 O -0.03622 0.99995 0.54535
 O747 O 0.04819 1.03999 0.53585
 O748 O 0.00090 0.98757 0.55861
 O749 O 0.03638 1.00489 0.55496
 O750 O 0.00802 1.06497 0.51407
 O751 O -0.02860 1.04555 0.52171
 C752 C 0.01989 0.99628 0.56648
 H753 H 0.03889 1.04363 0.49428
 H754 H -0.04070 1.00842 0.50125
 H755 H 0.02980 0.96701 0.53625
 H756 H 0.01849 0.96862 0.45399
 H757 H -0.03575 1.06440 0.48103
 H758 H -0.05658 0.99399 0.44875
 H759 H -0.03901 0.95593 0.44565
 H760 H 0.02229 0.91580 0.48073
 H761 H -0.00032 1.07874 0.50815
 H762 H 0.06268 1.03812 0.54471
 H763 H 0.07767 0.99868 0.54482
 H764 H 0.05525 0.92686 0.51176
 H765 H -0.03444 1.06130 0.51827
 H766 H -0.04156 0.98803 0.55613
 H767 H 0.06332 1.00545 0.43533
 H768 H 0.05729 0.93232 0.47430
 Zr769 Zr 0.73182 0.26914 0.21993
 O770 O 0.74108 0.29303 0.19464
 O771 O 0.69635 0.26399 0.21337
 O772 O 0.72882 0.25448 0.18836
 O773 O 0.72590 0.31053 0.25990
 O774 O 0.74878 0.22063 0.19204
 O775 O 0.71696 0.30207 0.22415
 O776 O 0.68579 0.23664 0.23905
 O777 O 0.72768 0.23358 0.22628
 O778 O 0.71855 0.26576 0.25161
 O779 O 0.76500 0.25487 0.21696
 O780 O 0.75596 0.28605 0.24082
 Zr781 Zr 0.77199 0.23114 0.27759
 Zr782 Zr 0.76094 0.21965 0.22487
 Zr783 Zr 0.74298 0.28087 0.27256
 Zr784 Zr 0.71569 0.23045 0.25839
 O785 O 0.76243 0.31073 0.28089
 O786 O 0.70394 0.19813 0.24640
 O787 O 0.73886 0.24564 0.28093
 O788 O 0.74797 0.21467 0.25657
 O789 O 0.78573 0.23442 0.24603
 O790 O 0.77597 0.26667 0.27116
 C791 C 0.68160 0.25038 0.22264
 C792 C 0.71680 0.31541 0.24089
 C793 C 0.73680 0.23552 0.18084
 O794 O 0.74301 0.18832 0.21858
 O795 O 0.78106 0.19160 0.23643
 O796 O 0.78868 0.19921 0.27261
 C797 C 0.79008 0.18663 0.25542
 O798 O 0.79037 0.29541 0.21373
 Zr799 Zr 0.78838 0.26988 0.23934
 O800 O 0.80729 0.23624 0.28447
 O801 O 0.78920 0.21596 0.20363
 O802 O 0.81292 0.25834 0.21660
 O803 O 0.80198 0.30116 0.25212
 O804 O 0.81891 0.26144 0.25732
 C805 C 0.82265 0.24835 0.27436
 O806 O 0.76338 0.20575 0.30179
 O807 O 0.71347 0.28656 0.29178
 O808 O 0.77204 0.24424 0.30988
 O809 O 0.75134 0.27767 0.30626
 O810 O 0.68959 0.24180 0.27962
 O811 O 0.71332 0.20772 0.28622
 C812 C 0.76252 0.26234 0.31766
 H813 H 0.70341 0.27340 0.25312
 H814 H 0.74635 0.19803 0.26048
 H815 H 0.78657 0.27425 0.28185
 H816 H 0.77082 0.25724 0.20185
 H817 H 0.68743 0.19634 0.25032
 H818 H 0.75188 0.18016 0.20735
 H819 H 0.78716 0.20082 0.19644
 H820 H 0.82729 0.26756 0.21883
 H821 H 0.67580 0.23174 0.27731
 H822 H 0.71586 0.30164 0.29900
 H823 H 0.75345 0.31896 0.29199
 H824 H 0.81844 0.30230 0.24790
 H825 H 0.69792 0.20004 0.28616
 H826 H 0.77761 0.20259 0.31075
 H827 H 0.72682 0.29651 0.18584
 H828 H 0.80673 0.30015 0.21177
 Zr829 Zr 0.74716 0.72607 0.71075
 O830 O 0.73057 0.70190 0.68988
 O831 O 0.78001 0.72896 0.69714
 O832 O 0.74354 0.73992 0.67837
 O833 O 0.76255 0.68627 0.75183
 O834 O 0.72627 0.77486 0.68301
 O835 O 0.76233 0.69295 0.71461
 O836 O 0.79790 0.75662 0.71792
 O837 O 0.75395 0.76159 0.71344
 O838 O 0.76815 0.72996 0.73890
 O839 O 0.71458 0.74181 0.71273
 O840 O 0.72843 0.71085 0.73689
 Zr841 Zr 0.72370 0.76753 0.77153
 Zr842 Zr 0.72166 0.77705 0.71718
 Zr843 Zr 0.74915 0.71662 0.76506
 Zr844 Zr 0.77390 0.76523 0.74212
 O845 O 0.73146 0.68757 0.77851
 O846 O 0.78318 0.79648 0.72550
 O847 O 0.75646 0.75186 0.76972
 O848 O 0.74241 0.78233 0.74533
 O849 O 0.70238 0.76392 0.74349
 O850 O 0.71702 0.73209 0.76856
 C851 C 0.79727 0.74200 0.70225
 C852 C 0.76681 0.68048 0.73202
 C853 C 0.73514 0.75925 0.67107
 O854 O 0.73820 0.80773 0.70582
 O855 O 0.70533 0.80604 0.73031
 O856 O 0.70708 0.79985 0.76757
 C857 C 0.70147 0.81188 0.75021
 O858 O 0.68820 0.70204 0.71741
 Zr859 Zr 0.69697 0.72844 0.74002
 O860 O 0.69066 0.76451 0.78493
 O861 O 0.68911 0.78102 0.70101
 O862 O 0.66779 0.74009 0.72132
 O863 O 0.68551 0.69844 0.75746
 O864 O 0.67188 0.73913 0.76228
 C865 C 0.67275 0.75299 0.77853
 O866 O 0.73934 0.79302 0.79161
 O867 O 0.78242 0.71078 0.77924
 O868 O 0.73040 0.75516 0.80408
 O869 O 0.74874 0.72080 0.79932
 O870 O 0.80441 0.75363 0.75876
 O871 O 0.78418 0.78891 0.76684
 C872 C 0.74070 0.73674 0.81136
 H873 H 0.78312 0.72183 0.73818
 H874 H 0.74544 0.79900 0.74764
 H875 H 0.70896 0.72530 0.78143
 H876 H 0.70520 0.73928 0.69916
 H877 H 0.80031 0.79750 0.72572
 H878 H 0.72699 0.81581 0.69584
 H879 H 0.68977 0.79588 0.69260
 H880 H 0.65405 0.73153 0.72680
 H881 H 0.81756 0.76281 0.75287
 H882 H 0.78154 0.69599 0.78774
 H883 H 0.74270 0.67932 0.78831
 H884 H 0.66838 0.69797 0.75623
 H885 H 0.79931 0.79596 0.76304
 H886 H 0.72788 0.79723 0.80277
 H887 H 0.74204 0.69742 0.67884
 H888 H 0.67160 0.69796 0.71871
 Zr889 Zr 0.23803 0.22712 0.77453
 O890 O 0.24404 0.20476 0.80207
 O891 O 0.20228 0.23258 0.77627
 O892 O 0.23293 0.24374 0.80486
 O893 O 0.23518 0.18327 0.73631
 O894 O 0.25374 0.27739 0.80154
 O895 O 0.22303 0.19386 0.77019
 O896 O 0.19446 0.25788 0.74773
 O897 O 0.23519 0.26226 0.76569
 O898 O 0.22796 0.22842 0.74126
 O899 O 0.27102 0.24162 0.78069
 O900 O 0.26360 0.20886 0.75773
 Zr901 Zr 0.28429 0.26130 0.72004
 Zr902 Zr 0.26847 0.27630 0.77026
 Zr903 Zr 0.25393 0.21205 0.72433
 Zr904 Zr 0.22636 0.26325 0.73219
 O905 O 0.27345 0.18168 0.72028
 O906 O 0.21416 0.29618 0.74111
 O907 O 0.25129 0.24670 0.71354
 O908 O 0.25869 0.27911 0.73694
 O909 O 0.29475 0.26008 0.75326
 O910 O 0.28692 0.22625 0.72901
 C911 C 0.18858 0.24519 0.76433
 C912 C 0.22420 0.17955 0.75423
 C913 C 0.24078 0.26312 0.81224
 O914 O 0.25057 0.30791 0.77251
 O915 O 0.29014 0.30360 0.75960
 O916 O 0.30100 0.29360 0.72515
 C917 C 0.30105 0.30731 0.74162
 O918 O 0.29457 0.20096 0.78919
 Zr919 Zr 0.29598 0.22508 0.76234
 O920 O 0.32006 0.25589 0.71843
 O921 O 0.29482 0.28152 0.79439
 O922 O 0.31829 0.23769 0.78761
 O923 O 0.31028 0.19319 0.75289
 O924 O 0.32831 0.23276 0.74847
 C925 C 0.33405 0.24478 0.73141
 O926 O 0.27878 0.28499 0.69342
 O927 O 0.22629 0.20516 0.70193
 O928 O 0.28712 0.24595 0.68877
 O929 O 0.26541 0.21284 0.69179
 O930 O 0.20246 0.25054 0.70830
 O931 O 0.22693 0.28449 0.70321
 C932 C 0.27794 0.22734 0.68093
 H933 H 0.21292 0.22065 0.73828
 H934 H 0.25780 0.29548 0.73190
 H935 H 0.29836 0.21802 0.72019
 H936 H 0.27540 0.24021 0.79649
 H937 H 0.19811 0.29769 0.73521
 H938 H 0.25858 0.31689 0.78415
 H939 H 0.29245 0.29711 0.80039
 H940 H 0.33244 0.22811 0.78791
 H941 H 0.18864 0.26059 0.70831
 H942 H 0.22895 0.18960 0.69597
 H943 H 0.26542 0.17269 0.70866
 H944 H 0.32613 0.19229 0.75938
 H945 H 0.21174 0.29212 0.70106
 H946 H 0.29388 0.28746 0.68618
 H947 H 0.22889 0.20191 0.80911
 H948 H 0.31046 0.19606 0.79341
 Zr949 Zr 0.25985 0.78324 0.28352
 O950 O 0.24379 0.80746 0.30381
 O951 O 0.29344 0.78195 0.29717
 O952 O 0.25751 0.77051 0.31636
 O953 O 0.27121 0.82261 0.24110
 O954 O 0.24171 0.73438 0.31263
 O955 O 0.27347 0.81709 0.27844
 O956 O 0.31097 0.75459 0.27678
 O957 O 0.26789 0.74804 0.28157
 O958 O 0.27942 0.77971 0.25521
 O959 O 0.22782 0.76558 0.28226
 O960 O 0.23900 0.79647 0.25728
 Zr961 Zr 0.23478 0.73855 0.22410
 Zr962 Zr 0.23608 0.73066 0.27864
 Zr963 Zr 0.25837 0.79110 0.22900
 Zr964 Zr 0.28632 0.74468 0.25267
 O965 O 0.23891 0.81893 0.21533
 O966 O 0.29785 0.71413 0.26926
 O967 O 0.26691 0.75622 0.22498
 O968 O 0.25545 0.72564 0.25039
 O969 O 0.21489 0.74181 0.25230
 O970 O 0.22675 0.77364 0.22635
 C971 C 0.31068 0.76926 0.29237
 C972 C 0.27630 0.82930 0.26065
 C973 C 0.24993 0.75102 0.32416
 O974 O 0.25477 0.70157 0.29067
 O975 O 0.22015 0.70044 0.26660
 O976 O 0.21959 0.70539 0.22918
 C977 C 0.21527 0.69374 0.24700
 O978 O 0.19943 0.80371 0.27676
 Zr979 Zr 0.20811 0.77699 0.25495
 O980 O 0.20098 0.73877 0.21134
 O981 O 0.20458 0.72502 0.29519
 O982 O 0.18059 0.76434 0.27456
 O983 O 0.19432 0.80555 0.23671
 O984 O 0.18226 0.76362 0.23356
 C985 C 0.18289 0.74915 0.21780
 O986 O 0.25068 0.71371 0.20438
 O987 O 0.29056 0.79808 0.21408
 O988 O 0.23821 0.75084 0.19116
 O989 O 0.25548 0.78631 0.19489
 O990 O 0.31557 0.75793 0.23584
 O991 O 0.29620 0.72133 0.22805
 C992 C 0.24690 0.76986 0.18333
 H993 H 0.29411 0.78866 0.25564
 H994 H 0.25901 0.70909 0.24846
 H995 H 0.21756 0.77959 0.21356
 H996 H 0.21896 0.76802 0.29579
 H997 H 0.31498 0.71404 0.26872
 H998 H 0.24446 0.69301 0.30090
 H999 H 0.20635 0.71050 0.30402
 H1000 H 0.16618 0.77179 0.26899
 H1001 H 0.32935 0.74959 0.24176
 H1002 H 0.28870 0.81258 0.20525
 H1003 H 0.24920 0.82751 0.20511
 H1004 H 0.17726 0.80486 0.23804
 H1005 H 0.31197 0.71553 0.23148
 H1006 H 0.23880 0.70839 0.19357
 H1007 H 0.25571 0.81281 0.31458
 H1008 H 0.18262 0.80678 0.27551
 Zr1009 Zr 0.23110 0.77051 0.71927
 O1010 O 0.23980 0.79447 0.69384
 O1011 O 0.19569 0.76471 0.71290
 O1012 O 0.22823 0.75570 0.68775
 O1013 O 0.22476 0.81197 0.75912
 O1014 O 0.24878 0.72221 0.69146
 O1015 O 0.21574 0.80322 0.72345
 O1016 O 0.18572 0.73730 0.73874
 O1017 O 0.22757 0.73492 0.72578
 O1018 O 0.21805 0.76705 0.75104
 O1019 O 0.26450 0.75677 0.71619
 O1020 O 0.25508 0.78788 0.73998
 Zr1021 Zr 0.27220 0.73339 0.77687
 Zr1022 Zr 0.26105 0.72153 0.72425
 Zr1023 Zr 0.24235 0.78263 0.77181
 Zr1024 Zr 0.21581 0.73173 0.75797
 O1025 O 0.26136 0.81283 0.77995
 O1026 O 0.20453 0.69915 0.74621
 O1027 O 0.23885 0.74736 0.78033
 O1028 O 0.24833 0.71647 0.75604
 O1029 O 0.28572 0.73677 0.74523
 O1030 O 0.27556 0.76896 0.77029
 C1031 C 0.18122 0.75088 0.72229
 C1032 C 0.21549 0.81664 0.74013
 C1033 C 0.23652 0.73687 0.68026
 O1034 O 0.24355 0.68993 0.71811
 O1035 O 0.28158 0.69379 0.73583
 O1036 O 0.28929 0.70166 0.77194
 C1037 C 0.29074 0.68901 0.75480
 O1038 O 0.28919 0.79768 0.71266
 Zr1039 Zr 0.28775 0.77225 0.73839
 O1040 O 0.30746 0.73910 0.78352
 O1041 O 0.28930 0.71818 0.70294
 O1042 O 0.31236 0.76101 0.71558
 O1043 O 0.30087 0.80382 0.75096
 O1044 O 0.31851 0.76443 0.75626
 C1045 C 0.32255 0.75146 0.77332
 O1046 O 0.26415 0.70799 0.80124
 O1047 O 0.21284 0.78790 0.79114
 O1048 O 0.27223 0.74663 0.80911
 O1049 O 0.25094 0.77970 0.80547
 O1050 O 0.18963 0.74276 0.77927
 O1051 O 0.21396 0.70910 0.78592
 C1052 C 0.26246 0.76460 0.81686
 H1053 H 0.20280 0.77444 0.75258
 H1054 H 0.24698 0.69982 0.76002
 H1055 H 0.28609 0.77675 0.78089
 H1056 H 0.27020 0.75919 0.70105
 H1057 H 0.18809 0.69710 0.75022
 H1058 H 0.25249 0.68186 0.70688
 H1059 H 0.28746 0.70300 0.69580
 H1060 H 0.32659 0.77047 0.71770
 H1061 H 0.17600 0.73247 0.77708
 H1062 H 0.21502 0.80304 0.79829
 H1063 H 0.25229 0.82095 0.79104
 H1064 H 0.31729 0.80522 0.74666
 H1065 H 0.19868 0.70119 0.78599
 H1066 H 0.27848 0.70511 0.81013
 H1067 H 0.22544 0.79766 0.68511
 H1068 H 0.30545 0.80268 0.71060
 Zr1069 Zr 0.24739 0.22643 0.21104
 O1070 O 0.23097 0.20235 0.18996
 O1071 O 0.28037 0.22934 0.19769
 O1072 O 0.24405 0.24039 0.17867
 O1073 O 0.26231 0.18642 0.25209
 O1074 O 0.22681 0.27536 0.18329
 O1075 O 0.26249 0.19328 0.21490
 O1076 O 0.29812 0.25688 0.21872
 O1077 O 0.25424 0.26192 0.21391
 O1078 O 0.26813 0.23015 0.23937
 O1079 O 0.21483 0.24225 0.21279
 O1080 O 0.22838 0.21115 0.23694
 Zr1081 Zr 0.22345 0.26769 0.27176
 Zr1082 Zr 0.22195 0.27745 0.21743
 Zr1083 Zr 0.24884 0.21675 0.26531
 Zr1084 Zr 0.27392 0.26539 0.24278
 O1085 O 0.23094 0.18770 0.27849
 O1086 O 0.28344 0.29670 0.22641
 O1087 O 0.25620 0.25195 0.27017
 O1088 O 0.24245 0.28255 0.24578
 O1089 O 0.20240 0.26425 0.24352
 O1090 O 0.21671 0.23228 0.26861
 C1091 C 0.29760 0.24235 0.20297
 C1092 C 0.26678 0.18073 0.23229
 C1093 C 0.23572 0.25976 0.17137
 O1094 O 0.23869 0.30810 0.20630
 O1095 O 0.20561 0.30645 0.23054
 O1096 O 0.20700 0.30009 0.26779
 C1097 C 0.20160 0.31222 0.25043
 O1098 O 0.18836 0.20246 0.21715
 Zr1099 Zr 0.19693 0.22880 0.23987
 O1100 O 0.19024 0.26477 0.28479
 O1101 O 0.18954 0.28159 0.20105
 O1102 O 0.16796 0.24051 0.22089
 O1103 O 0.18520 0.19882 0.25718
 O1104 O 0.17160 0.23958 0.26185
 C1105 C 0.17234 0.25341 0.27813
 O1106 O 0.23897 0.29303 0.29210
 O1107 O 0.28197 0.21075 0.27975
 O1108 O 0.22982 0.25515 0.30432
 O1109 O 0.24814 0.22079 0.29958
 O1110 O 0.30427 0.25362 0.25960
 O1111 O 0.28403 0.28890 0.26770
 C1112 C 0.24003 0.23670 0.31161
 H1113 H 0.28309 0.22200 0.23874
 H1114 H 0.24550 0.29920 0.24818
 H1115 H 0.20850 0.22548 0.28138
 H1116 H 0.20557 0.23979 0.19914
 H1117 H 0.30058 0.29769 0.22678
 H1118 H 0.22760 0.31627 0.19627
 H1119 H 0.19031 0.29648 0.19269
 H1120 H 0.15415 0.23195 0.22622
 H1121 H 0.31749 0.26280 0.25386
 H1122 H 0.28096 0.19592 0.28820
 H1123 H 0.24206 0.17937 0.28836
 H1124 H 0.16808 0.19841 0.25579
 H1125 H 0.29922 0.29592 0.26408
 H1126 H 0.22740 0.29722 0.30317
 H1127 H 0.24253 0.19790 0.17900
 H1128 H 0.17174 0.19836 0.21831
 Zr1129 Zr 0.73953 0.72709 0.27445
 O1130 O 0.74552 0.70478 0.30204
 O1131 O 0.70379 0.73261 0.27619
 O1132 O 0.73440 0.74378 0.30474
 O1133 O 0.73667 0.68316 0.23631
 O1134 O 0.75524 0.77741 0.30138
 O1135 O 0.72451 0.69382 0.27017
 O1136 O 0.69600 0.75790 0.24763
 O1137 O 0.73672 0.76222 0.26556
 O1138 O 0.72945 0.72834 0.24118
 O1139 O 0.77253 0.74157 0.28060
 O1140 O 0.76508 0.70878 0.25768
 Zr1141 Zr 0.78582 0.76113 0.21992
 Zr1142 Zr 0.77002 0.77623 0.27011
 Zr1143 Zr 0.75541 0.71192 0.22428
 Zr1144 Zr 0.72789 0.76316 0.23205
 O1145 O 0.77491 0.68153 0.22025
 O1146 O 0.71573 0.79614 0.24088
 O1147 O 0.75281 0.74655 0.21343
 O1148 O 0.76024 0.77900 0.23679
 O1149 O 0.79627 0.75996 0.25313
 O1150 O 0.78841 0.72609 0.22894
 C1151 C 0.69011 0.74526 0.26426
 C1152 C 0.72570 0.67947 0.25425
 C1153 C 0.74225 0.76317 0.31209
 O1154 O 0.75216 0.80788 0.27230
 O1155 O 0.79172 0.80349 0.25941
 O1156 O 0.80257 0.79342 0.22498
 C1157 C 0.80264 0.80716 0.24144
 O1158 O 0.79604 0.70091 0.28916
 Zr1159 Zr 0.79748 0.72497 0.26227
 O1160 O 0.82158 0.75567 0.21831
 O1161 O 0.79636 0.78145 0.29425
 O1162 O 0.81979 0.73760 0.28752
 O1163 O 0.81174 0.69305 0.25287
 O1164 O 0.82981 0.73259 0.24839
 C1165 C 0.83557 0.74458 0.23131
 O1166 O 0.78035 0.78480 0.19327
 O1167 O 0.72775 0.70501 0.20191
 O1168 O 0.78860 0.74574 0.18865
 O1169 O 0.76686 0.71266 0.19173
 O1170 O 0.70396 0.75041 0.20822
 O1171 O 0.72849 0.78432 0.20302
 C1172 C 0.77938 0.72713 0.18084
 H1173 H 0.71440 0.72058 0.23823
 H1174 H 0.75936 0.79536 0.23172
 H1175 H 0.79984 0.71784 0.22013
 H1176 H 0.77690 0.74019 0.29640
 H1177 H 0.69969 0.79765 0.23497
 H1178 H 0.76018 0.81686 0.28394
 H1179 H 0.79400 0.79706 0.30023
 H1180 H 0.83393 0.72801 0.28784
 H1181 H 0.69016 0.76048 0.20820
 H1182 H 0.73040 0.68944 0.19597
 H1183 H 0.76686 0.67252 0.20865
 H1184 H 0.82760 0.69215 0.25936
 H1185 H 0.71331 0.79194 0.20084
 H1186 H 0.79546 0.78723 0.18603
 H1187 H 0.73037 0.70196 0.30907
 H1188 H 0.81192 0.69598 0.29338
 Zr1189 Zr 0.75999 0.28293 0.78406
 O1190 O 0.74404 0.30717 0.80440
 O1191 O 0.79363 0.28160 0.79761
 O1192 O 0.75773 0.27020 0.81690
 O1193 O 0.77121 0.32231 0.74160
 O1194 O 0.74189 0.23408 0.81321
 O1195 O 0.77361 0.31678 0.77893
 O1196 O 0.81106 0.25424 0.77715
 O1197 O 0.76800 0.24773 0.78207
 O1198 O 0.77946 0.27940 0.75568
 O1199 O 0.72795 0.26529 0.78288
 O1200 O 0.73906 0.29617 0.75788
 Zr1201 Zr 0.73469 0.23827 0.72469
 Zr1202 Zr 0.73618 0.23037 0.77922
 Zr1203 Zr 0.75833 0.29080 0.72953
 Zr1204 Zr 0.78633 0.24437 0.75310
 O1205 O 0.73884 0.31864 0.71592
 O1206 O 0.79789 0.21380 0.76964
 O1207 O 0.76683 0.25592 0.72547
 O1208 O 0.75545 0.22534 0.75091
 O1209 O 0.71490 0.24153 0.75296
 O1210 O 0.72669 0.27337 0.72697
 C1211 C 0.81083 0.26890 0.79275
 C1212 C 0.77636 0.32900 0.76113
 C1213 C 0.75015 0.25071 0.82472
 O1214 O 0.75490 0.20128 0.79121
 O1215 O 0.72022 0.20014 0.76723
 O1216 O 0.71953 0.20510 0.72981
 C1217 C 0.71528 0.19344 0.74764
 O1218 O 0.69958 0.30344 0.77748
 Zr1219 Zr 0.70816 0.27672 0.75564
 O1220 O 0.70084 0.23852 0.71204
 O1221 O 0.70472 0.22473 0.79585
 O1222 O 0.68069 0.26409 0.77533
 O1223 O 0.69434 0.30529 0.73744
 O1224 O 0.68222 0.26338 0.73433
 C1225 C 0.68279 0.24891 0.71856
 O1226 O 0.75049 0.21343 0.70490
 O1227 O 0.79048 0.29778 0.71452
 O1228 O 0.73802 0.25056 0.69174
 O1229 O 0.75534 0.28602 0.69543
 O1230 O 0.81553 0.25761 0.73619
 O1231 O 0.79612 0.22103 0.72844
 C1232 C 0.74671 0.26958 0.68389
 H1233 H 0.79415 0.28834 0.75607
 H1234 H 0.75899 0.20879 0.74897
 H1235 H 0.71746 0.27932 0.71421
 H1236 H 0.71914 0.26773 0.79644
 H1237 H 0.81502 0.21370 0.76905
 H1238 H 0.74462 0.19272 0.80147
 H1239 H 0.70651 0.21021 0.80467
 H1240 H 0.66627 0.27156 0.76980
 H1241 H 0.82932 0.24926 0.74206
 H1242 H 0.78859 0.31228 0.70570
 H1243 H 0.74911 0.32722 0.70567
 H1244 H 0.67728 0.30462 0.73882
 H1245 H 0.81190 0.21522 0.73181
 H1246 H 0.73856 0.20812 0.69413
 H1247 H 0.75600 0.31249 0.81514
 H1248 H 0.68276 0.30653 0.77628
 C1249 C 0.42386 1.01120 0.29527
 C1250 C 0.43548 1.00989 0.31199
 C1251 C 0.44854 1.00709 0.33234
 C1252 C 0.45166 1.02577 0.34646
 C1253 C 0.46223 1.02237 0.36720
 C1254 C 0.46975 1.00028 0.37395
 C1255 C 0.46719 0.98174 0.35960
 C1256 C 0.45664 0.98514 0.33885
 C1257 C 0.47771 0.99629 0.39636
 C1258 C 0.48281 0.99339 0.41558
 H1259 H 0.44531 1.04277 0.34170
 H1260 H 0.46385 1.03679 0.37824
 H1261 H 0.47267 0.96453 0.36471
 H1262 H 0.45417 0.97052 0.32816
 C1263 C -0.07599 0.51093 0.79456
 C1264 C -0.06436 0.50960 0.81127
 C1265 C -0.05131 0.50677 0.83162
 C1266 C -0.04832 0.52538 0.84583
 C1267 C -0.03781 0.52191 0.86660
 C1268 C -0.03024 0.49982 0.87328
 C1269 C -0.03265 0.48135 0.85883
 C1270 C -0.04314 0.48482 0.83806
 C1271 C -0.02235 0.49575 0.89569
 C1272 C -0.01732 0.49278 0.91492
 H1273 H -0.05472 0.54238 0.84114
 H1274 H -0.03630 0.53628 0.87771
 H1275 H -0.02713 0.46414 0.86387
 H1276 H -0.04551 0.47025 0.82729
 C1277 C 0.07505 0.00032 0.79183
 C1278 C 0.06357 0.00226 0.80804
 C1279 C 0.05072 0.00556 0.82777
 C1280 C 0.03957 -0.01318 0.83815
 C1281 C 0.02900 -0.01025 0.85841
 C1282 C 0.02950 0.01143 0.86836
 C1283 C 0.04007 0.03032 0.85766
 C1284 C 0.05062 0.02739 0.83740
 C1285 C 0.02180 0.01345 0.89062
 C1286 C 0.01688 0.01391 0.90980
 H1287 H 0.03965 -0.03015 0.83093
 H1288 H 0.02116 -0.02505 0.86668
 H1289 H 0.04085 0.04707 0.86533
 H1290 H 0.05930 0.04198 0.82956
 C1291 C 0.57710 0.49967 0.29205
 C1292 C 0.56541 0.50162 0.30812
 C1293 C 0.55227 0.50497 0.32766
 C1294 C 0.55192 0.52685 0.33717
 C1295 C 0.54106 0.52984 0.35727
 C1296 C 0.53043 0.51097 0.36792
 C1297 C 0.53016 0.48923 0.35807
 C1298 C 0.54105 0.48624 0.33798
 C1299 C 0.52248 0.51304 0.39009
 C1300 C 0.51742 0.51356 0.40922
 H1301 H 0.56065 0.54144 0.32938
 H1302 H 0.54167 0.54664 0.36486
 H1303 H 0.52228 0.47444 0.36632
 H1304 H 0.54131 0.46923 0.33085
 C1305 C 0.58282 0.49973 0.21083
 C1306 C 0.57364 0.49907 0.19282
 C1307 C 0.56195 0.49822 0.17164
 C1308 C 0.55972 0.47719 0.16069
 C1309 C 0.54844 0.47640 0.14009
 C1310 C 0.53921 0.49660 0.13038
 C1311 C 0.54117 0.51757 0.14148
 C1312 C 0.55244 0.51836 0.16207
 C1313 C 0.52997 0.49630 0.10815
 C1314 C 0.52399 0.49640 0.08899
 H1315 H 0.56690 0.46148 0.16795
 H1316 H 0.54733 0.46014 0.13156
 H1317 H 0.53439 0.53337 0.13403
 H1318 H 0.55396 0.53470 0.17041
 C1319 C 0.08215 1.00032 0.71201
 C1320 C 0.07302 0.99941 0.69398
 C1321 C 0.06144 0.99832 0.67276
 C1322 C 0.05153 1.01826 0.66317
 C1323 C 0.04042 1.01727 0.64251
 C1324 C 0.03904 0.99630 0.63135
 C1325 C 0.04867 0.97629 0.64108
 C1326 C 0.05978 0.97729 0.66175
 C1327 C 0.02994 0.99584 0.60907
 C1328 C 0.02405 0.99580 0.58989
 H1329 H 0.05260 1.03461 0.67154
 H1330 H 0.03332 1.03292 0.63505
 H1331 H 0.04800 0.96005 0.63252
 H1332 H 0.06729 0.96173 0.66901
 C1333 C -0.08254 0.51478 0.71295
 C1334 C -0.07422 0.51843 0.69510
 C1335 C -0.06376 0.52281 0.67400
 C1336 C -0.04187 0.51381 0.66971
 C1337 C -0.03197 0.51740 0.64905
 C1338 C -0.04382 0.53011 0.63253
 C1339 C -0.06553 0.53946 0.63695
 C1340 C -0.07544 0.53587 0.65762
 C1341 C -0.03501 0.53132 0.61045
 C1342 C -0.02881 0.53078 0.59159
 H1343 H -0.03263 0.50371 0.68222
 H1344 H -0.01534 0.50979 0.64578
 H1345 H -0.07504 0.54904 0.62426
 H1346 H -0.09234 0.54295 0.66071
 C1347 C 0.41770 0.01527 0.21366
 C1348 C 0.42614 0.01898 0.19587
 C1349 C 0.43675 0.02345 0.17485
 C1350 C 0.45870 0.01453 0.17070
 C1351 C 0.46874 0.01817 0.15010
 C1352 C 0.45695 0.03084 0.13352
 C1353 C 0.43518 0.04012 0.13781
 C1354 C 0.42514 0.03648 0.15842
 C1355 C 0.46588 0.03205 0.11148
 C1356 C 0.47215 0.03147 0.09265
 H1357 H 0.46788 0.00445 0.18326
 H1358 H 0.48541 0.01061 0.14694
 H1359 H 0.42572 0.04967 0.12506
 H1360 H 0.40818 0.04350 0.16140
 C1361 C 0.29813 0.38640 -0.00638
 C1362 C 0.31611 0.39717 -0.00462
 C1363 C 0.33787 0.40952 -0.00210
 C1364 C 0.35618 0.39946 0.01013
 C1365 C 0.37746 0.41113 0.01230
 C1366 C 0.38059 0.43299 0.00230
 C1367 C 0.36222 0.44313 -0.00977
 C1368 C 0.34094 0.43146 -0.01194
 C1369 C 0.40292 0.44451 0.00342
 C1370 C 0.42164 0.45409 0.00338
 H1371 H 0.35407 0.38252 0.01783
 H1372 H 0.39152 0.40300 0.02155
 H1373 H 0.36442 0.45994 -0.01771
 H1374 H 0.32698 0.43945 -0.02143
 C1375 C -0.20202 0.88626 0.49406
 C1376 C -0.18403 0.89699 0.49594
 C1377 C -0.16225 0.90927 0.49859
 C1378 C -0.14401 0.89913 0.51084
 C1379 C -0.12271 0.91073 0.51309
 C1380 C -0.11947 0.93260 0.50316
 C1381 C -0.13778 0.94283 0.49107
 C1382 C -0.15909 0.93123 0.48881
 C1383 C -0.09710 0.94402 0.50432
 C1384 C -0.07834 0.95351 0.50430
 H1385 H -0.14619 0.88217 0.51848
 H1386 H -0.10869 0.90253 0.52235
 H1387 H -0.13550 0.95966 0.48317
 H1388 H -0.17300 0.93929 0.47930
 C1389 C -0.20829 0.11629 0.99997
 C1390 C -0.19033 0.10582 0.99884
 C1391 C -0.16841 0.09424 0.99701
 C1392 C -0.16333 0.07463 1.01012
 C1393 C -0.14177 0.06390 1.00868
 C1394 C -0.12513 0.07269 0.99414
 C1395 C -0.13027 0.09221 0.98092
 C1396 C -0.15183 0.10293 0.98236
 C1397 C -0.10269 0.06190 0.99332
 C1398 C -0.08412 0.05241 0.99358
 H1399 H -0.17593 0.06776 1.02155
 H1400 H -0.13801 0.04887 1.01905
 H1401 H -0.11757 0.09923 0.96966
 H1402 H -0.15551 0.11811 0.97216
 C1403 C 0.29267 0.61731 0.49962
 C1404 C 0.31062 0.60684 0.49842
 C1405 C 0.33250 0.59521 0.49650
 C1406 C 0.33692 0.57462 0.50836
 C1407 C 0.35839 0.56376 0.50680
 C1408 C 0.37562 0.57339 0.49338
 C1409 C 0.37115 0.59391 0.48140
 C1410 C 0.34967 0.60477 0.48296
 C1411 C 0.39798 0.56248 0.49253
 C1412 C 0.41650 0.55287 0.49279
 H1413 H 0.32385 0.56706 0.51892
 H1414 H 0.36164 0.54795 0.51622
 H1415 H 0.38431 0.60160 0.47103
 H1416 H 0.34650 0.62071 0.47372
 C1417 C 0.20624 0.62185 0.50162
 C1418 C 0.18691 0.61392 0.50354
 C1419 C 0.16390 0.60423 0.50594
 C1420 C 0.16079 0.58302 0.51717
 C1421 C 0.13860 0.57326 0.51900
 C1422 C 0.11932 0.58463 0.50967
 C1423 C 0.12239 0.60598 0.49865
 C1424 C 0.14459 0.61575 0.49682
 C1425 C 0.09672 0.57368 0.51018
 C1426 C 0.07814 0.56384 0.50982
 H1427 H 0.17553 0.57391 0.52429
 H1428 H 0.13654 0.55667 0.52741
 H1429 H 0.10769 0.61489 0.49120
 H1430 H 0.14673 0.63214 0.48808
 C1431 C 0.70689 0.12290 0.00164
 C1432 C 0.68754 0.11504 0.00370
 C1433 C 0.66447 0.10553 0.00617
 C1434 C 0.66023 0.08814 0.02208
 C1435 C 0.63805 0.07837 0.02399
 C1436 C 0.61988 0.08594 0.01004
 C1437 C 0.62405 0.10352 -0.00568
 C1438 C 0.64624 0.11329 -0.00759
 C1439 C 0.59744 0.07467 0.01084
 C1440 C 0.57896 0.06463 0.01065
 H1441 H 0.67414 0.08195 0.03282
 H1442 H 0.63515 0.06468 0.03610
 H1443 H 0.61025 0.10942 -0.01670
 H1444 H 0.64924 0.12668 -0.01998
 C1445 C 0.71143 0.88336 0.49194
 C1446 C 0.69230 0.89170 0.49203
 C1447 C 0.66951 0.90183 0.49226
 C1448 C 0.66665 0.92546 0.48739
 C1449 C 0.64466 0.93542 0.48811
 C1450 C 0.62533 0.92183 0.49367
 C1451 C 0.62816 0.89815 0.49838
 C1452 C 0.65016 0.88819 0.49767
 C1453 C 0.60282 0.93234 0.49528
 C1454 C 0.58416 0.94135 0.49712
 H1455 H 0.68144 0.93622 0.48322
 H1456 H 0.64276 0.95376 0.48452
 H1457 H 0.61341 0.88745 0.50279
 H1458 H 0.65211 0.86991 0.50149
 C1459 C 0.21157 0.38333 0.99181
 C1460 C 0.19242 0.39161 0.99183
 C1461 C 0.16959 0.40166 0.99196
 C1462 C 0.16685 0.42555 0.98857
 C1463 C 0.14480 0.43540 0.98918
 C1464 C 0.12530 0.42143 0.99316
 C1465 C 0.12801 0.39750 0.99641
 C1466 C 0.15007 0.38765 0.99580
 C1467 C 0.10271 0.43178 0.99470
 C1468 C 0.08399 0.44069 0.99649
 H1469 H 0.18177 0.43659 0.98562
 H1470 H 0.14299 0.45392 0.98674
 H1471 H 0.11312 0.38651 0.99960
 H1472 H 0.15192 0.36917 0.99848
 C1473 C -0.00728 0.29249 0.42361
 C1474 C -0.00819 0.30786 0.43650
 C1475 C -0.00855 0.32770 0.45009
 C1476 C -0.02920 0.33982 0.45229
 C1477 C -0.02875 0.36170 0.46155
 C1478 C -0.00764 0.37142 0.46852
 C1479 C 0.01285 0.35883 0.46729
 C1480 C 0.01239 0.33695 0.45805
 C1481 C -0.00671 0.39506 0.47488
 C1482 C -0.00601 0.41511 0.47955
 H1483 H -0.04540 0.33291 0.44585
 H1484 H -0.04465 0.37144 0.46235
 H1485 H 0.02925 0.36633 0.47253
 H1486 H 0.02849 0.32780 0.45606
 C1487 C 0.49406 -0.20742 -0.07435
 C1488 C 0.49329 -0.19211 -0.06138
 C1489 C 0.49306 -0.17230 -0.04775
 C1490 C 0.47234 -0.16043 -0.04504
 C1491 C 0.47278 -0.13851 -0.03587
 C1492 C 0.49395 -0.12849 -0.02951
 C1493 C 0.51454 -0.14083 -0.03122
 C1494 C 0.51410 -0.16275 -0.04037
 C1495 C 0.49478 -0.10479 -0.02330
 C1496 C 0.49539 -0.08470 -0.01877
 H1497 H 0.45606 -0.16758 -0.05105
 H1498 H 0.45680 -0.12897 -0.03470
 H1499 H 0.53099 -0.13308 -0.02644
 H1500 H 0.53024 -0.17169 -0.04276
 C1501 C -0.00324 -0.22058 1.08564
 C1502 C -0.00341 -0.20335 1.07435
 C1503 C -0.00300 -0.18156 1.06294
 C1504 C 0.01829 -0.17172 1.05709
 C1505 C 0.01929 -0.14879 1.04955
 C1506 C -0.00100 -0.13577 1.04799
 C1507 C -0.02238 -0.14584 1.05316
 C1508 C -0.02337 -0.16876 1.06070
 C1509 C 0.00010 -0.11194 1.04151
 C1510 C 0.00058 -0.09201 1.03573
 H1511 H 0.03416 -0.18145 1.05915
 H1512 H 0.03586 -0.14106 1.04551
 H1513 H -0.03813 -0.13582 1.05191
 H1514 H -0.03983 -0.17619 1.06556
 C1515 C 0.49640 0.28012 0.58666
 C1516 C 0.49627 0.29731 0.57531
 C1517 C 0.49672 0.31903 0.56378
 C1518 C 0.47639 0.33191 0.56153
 C1519 C 0.47745 0.35475 0.55378
 C1520 C 0.49883 0.36467 0.54841
 C1521 C 0.51907 0.35157 0.54998
 C1522 C 0.51801 0.32872 0.55773
 C1523 C 0.50000 0.38843 0.54169
 C1524 C 0.50056 0.40831 0.53574
 H1525 H 0.45993 0.32460 0.56654
 H1526 H 0.46173 0.36484 0.55252
 H1527 H 0.53565 0.35918 0.54578
 H1528 H 0.53384 0.31892 0.55979
 C1529 C 0.48361 1.19703 0.60425
 C1530 C 0.48128 1.17703 0.59981
 C1531 C 0.48014 1.15322 0.59409
 C1532 C 0.46523 1.14613 0.57706
 C1533 C 0.46654 1.12362 0.56940
 C1534 C 0.48277 1.10828 0.57875
 C1535 C 0.49709 1.11511 0.59631
 C1536 C 0.49576 1.13761 0.60400
 C1537 C 0.48608 1.08636 0.56894
 C1538 C 0.48890 1.06849 0.55973
 H1539 H 0.45327 1.15821 0.56920
 H1540 H 0.45552 1.11845 0.55569
 H1541 H 0.50979 1.10335 0.60350
 H1542 H 0.50750 1.14310 0.61705
 C1543 C -0.01629 0.69639 1.10335
 C1544 C -0.01875 0.67640 1.09895
 C1545 C -0.02001 0.65257 1.09328
 C1546 C -0.03474 0.64557 1.07609
 C1547 C -0.03347 0.62305 1.06845
 C1548 C -0.01744 0.60761 1.07800
 C1549 C -0.00331 0.61436 1.09573
 C1550 C -0.00461 0.63687 1.10338
 C1551 C -0.01411 0.58568 1.06821
 C1552 C -0.01127 0.56781 1.05903
 H1553 H -0.04652 0.65772 1.06807
 H1554 H -0.04433 0.61794 1.05461
 H1555 H 0.00923 0.60253 1.10306
 H1556 H 0.00699 0.64230 1.11656
 C1557 C 0.50548 0.71330 -0.09747
 C1558 C 0.50994 0.69330 -0.09399
 C1559 C 0.51485 0.66949 -0.08917
 C1560 C 0.53326 0.66370 -0.07483
 C1561 C 0.53631 0.64074 -0.06789
 C1562 C 0.52098 0.62360 -0.07534
 C1563 C 0.50314 0.62926 -0.09039
 C1564 C 0.50009 0.65222 -0.09732
 C1565 C 0.52149 0.60104 -0.06523
 C1566 C 0.52079 0.58271 -0.05559
 H1567 H 0.54467 0.67701 -0.06836
 H1568 H 0.54995 0.63653 -0.05601
 H1569 H 0.49101 0.61613 -0.09598
 H1570 H 0.48573 0.65662 -0.10832
 C1571 C 0.00774 1.21160 0.40258
 C1572 C 0.01235 1.19165 0.40612
 C1573 C 0.01728 1.16786 0.41103
 C1574 C 0.00304 1.15053 0.40221
 C1575 C 0.00588 1.12757 0.40926
 C1576 C 0.02299 1.12199 0.42508
 C1577 C 0.03786 1.13920 0.43320
 C1578 C 0.03502 1.16215 0.42615
 C1579 C 0.02310 1.09945 0.43525
 C1580 C 0.02206 1.08116 0.44492
 H1581 H -0.01082 1.15487 0.39061
 H1582 H -0.00590 1.11439 0.40314
 H1583 H 0.05093 1.13504 0.44567
 H1584 H 0.04600 1.17551 0.43314
 C1585 C 0.76166 0.67464 0.95522
 C1586 C 0.76038 0.68625 0.93848
 C1587 C 0.75759 0.69926 0.91809
 C1588 C 0.77611 0.70178 0.90367
 C1589 C 0.77262 0.71222 0.88287
 C1590 C 0.75061 0.72021 0.87638
 C1591 C 0.73225 0.71827 0.89104
 C1592 C 0.73574 0.70784 0.91184
 C1593 C 0.74647 0.72805 0.85396
 C1594 C 0.74343 0.73304 0.83472
 H1595 H 0.79302 0.69505 0.90821
 H1596 H 0.78690 0.71337 0.87159
 H1597 H 0.71510 0.72411 0.88615
 H1598 H 0.72124 0.70583 0.92278
 C1599 C 0.26092 0.17433 0.45541
 C1600 C 0.25955 0.18592 0.43867
 C1601 C 0.25666 0.19893 0.41829
 C1602 C 0.27528 0.20200 0.40407
 C1603 C 0.27177 0.21249 0.38330
 C1604 C 0.24964 0.21998 0.37663
 C1605 C 0.23115 0.21747 0.39109
 C1606 C 0.23466 0.20700 0.41187
 C1607 C 0.24555 0.22787 0.35421
 C1608 C 0.24260 0.23292 0.33498
 H1609 H 0.29232 0.19568 0.40875
 H1610 H 0.28615 0.21408 0.37217
 H1611 H 0.21391 0.22292 0.38605
 H1612 H 0.22009 0.20457 0.42264
 C1613 C 0.74982 0.32483 0.45850
 C1614 C 0.75183 0.31329 0.44235
 C1615 C 0.75523 0.30036 0.42270
 C1616 C 0.77707 0.30040 0.41302
 C1617 C 0.78008 0.28974 0.39284
 C1618 C 0.76128 0.27890 0.38227
 C1619 C 0.73960 0.27827 0.39227
 C1620 C 0.73658 0.28896 0.41245
 C1621 C 0.76335 0.27110 0.36005
 C1622 C 0.76387 0.26612 0.34090
 H1623 H 0.79159 0.30928 0.42075
 H1624 H 0.79682 0.29064 0.38513
 H1625 H 0.72485 0.27023 0.38409
 H1626 H 0.71960 0.28892 0.41971
 C1627 C 0.25021 0.82653 0.95810
 C1628 C 0.25220 0.81517 0.94184
 C1629 C 0.25555 0.80243 0.92206
 C1630 C 0.23694 0.79086 0.91191
 C1631 C 0.23989 0.78031 0.89166
 C1632 C 0.26147 0.78125 0.88148
 C1633 C 0.28024 0.79226 0.89193
 C1634 C 0.27729 0.80279 0.91219
 C1635 C 0.26345 0.77349 0.85924
 C1636 C 0.26389 0.76849 0.84008
 H1637 H 0.22004 0.79058 0.91933
 H1638 H 0.22517 0.77212 0.88358
 H1639 H 0.29690 0.79339 0.88408
 H1640 H 0.29178 0.81179 0.91984
 C1641 C 0.25004 0.83292 0.03800
 C1642 C 0.24929 0.82367 0.05598
 C1643 C 0.24841 0.81195 0.07717
 C1644 C 0.26868 0.80303 0.08703
 C1645 C 0.26788 0.79180 0.10766
 C1646 C 0.24678 0.78931 0.11851
 C1647 C 0.22646 0.79795 0.10851
 C1648 C 0.22726 0.80918 0.08788
 C1649 C 0.24640 0.78010 0.14077
 C1650 C 0.24641 0.77413 0.15994
 H1651 H 0.28512 0.80497 0.07890
 H1652 H 0.28376 0.78548 0.11533
 H1653 H 0.21009 0.79642 0.11684
 H1654 H 0.21145 0.81591 0.08040
 C1655 C 0.74975 0.33207 0.53830
 C1656 C 0.74901 0.32296 0.55635
 C1657 C 0.74813 0.31139 0.57761
 C1658 C 0.72700 0.30873 0.58836
 C1659 C 0.72620 0.29760 0.60903
 C1660 C 0.74652 0.28894 0.61904
 C1661 C 0.76760 0.29133 0.60815
 C1662 C 0.76839 0.30247 0.58748
 C1663 C 0.74614 0.27978 0.64131
 C1664 C 0.74618 0.27384 0.66049
 H1665 H 0.71119 0.31547 0.58087
 H1666 H 0.70984 0.29614 0.61739
 H1667 H 0.78348 0.28500 0.61581
 H1668 H 0.78483 0.30432 0.57931
 C1669 C 0.26500 0.16801 0.53702
 C1670 C 0.26872 0.17637 0.55483
 C1671 C 0.27317 0.18688 0.57588
 C1672 C 0.26448 0.20891 0.58001
 C1673 C 0.26809 0.21885 0.60064
 C1674 C 0.28052 0.20688 0.61728
 C1675 C 0.28957 0.18502 0.61301
 C1676 C 0.28596 0.17508 0.59237
 C1677 C 0.28169 0.21573 0.63933
 C1678 C 0.28109 0.22196 0.65818
 H1679 H 0.25459 0.21824 0.56741
 H1680 H 0.26071 0.23560 0.60379
 H1681 H 0.29892 0.17542 0.62580
 H1682 H 0.29279 0.15805 0.58941
 C1683 C 0.76574 0.66812 0.03683
 C1684 C 0.76955 0.67642 0.05466
 C1685 C 0.77412 0.68685 0.07573
 C1686 C 0.76568 0.70898 0.07989
 C1687 C 0.76940 0.71885 0.10053
 C1688 C 0.78170 0.70672 0.11715
 C1689 C 0.79051 0.68477 0.11285
 C1690 C 0.78677 0.67489 0.09221
 C1691 C 0.78298 0.71554 0.13922
 C1692 C 0.78246 0.72175 0.15808
 H1693 H 0.75589 0.71843 0.06730
 H1694 H 0.76221 0.73567 0.10370
 H1695 H 0.79975 0.67504 0.12563
 H1696 H 0.79342 0.65779 0.08922
 C1697 C 0.13625 0.54810 0.25562
 C1698 C 0.14705 0.56605 0.25374
 C1699 C 0.15943 0.58777 0.25106
 C1700 C 0.18159 0.59071 0.26048
 C1701 C 0.19329 0.61195 0.25818
 C1702 C 0.18295 0.63042 0.24641
 C1703 C 0.16088 0.62741 0.23683
 C1704 C 0.14918 0.60617 0.23913
 C1705 C 0.19447 0.65274 0.24526
 C1706 C 0.20401 0.67146 0.24529
 H1707 H 0.18973 0.57667 0.26974
 H1708 H 0.21027 0.61406 0.26581
 H1709 H 0.15259 0.64155 0.22783
 H1710 H 0.13207 0.60416 0.23176
 C1711 C 0.63647 0.04772 0.75634
 C1712 C 0.64730 0.06565 0.75445
 C1713 C 0.65966 0.08737 0.75175
 C1714 C 0.68164 0.09048 0.76150
 C1715 C 0.69329 0.11175 0.75920
 C1716 C 0.68310 0.13007 0.74711
 C1717 C 0.66121 0.12688 0.73719
 C1718 C 0.64956 0.10562 0.73948
 C1719 C 0.69456 0.15241 0.74593
 C1720 C 0.70406 0.17115 0.74595
 H1721 H 0.68966 0.07656 0.77103
 H1722 H 0.71013 0.11400 0.76709
 H1723 H 0.65303 0.14091 0.72792
 H1724 H 0.63258 0.10348 0.73185
 C1725 C 0.86666 0.04123 0.25082
 C1726 C 0.85610 0.05912 0.25198
 C1727 C 0.84440 0.08096 0.25384
 C1728 C 0.82452 0.08580 0.24104
 C1729 C 0.81367 0.10728 0.24250
 C1730 C 0.82260 0.12407 0.25677
 C1731 C 0.84240 0.11917 0.26969
 C1732 C 0.85325 0.09768 0.26823
 C1733 C 0.81173 0.14645 0.25757
 C1734 C 0.80220 0.16499 0.25728
 H1735 H 0.81753 0.07308 0.22982
 H1736 H 0.79842 0.11087 0.23237
 H1737 H 0.84954 0.13199 0.28072
 H1738 H 0.86864 0.09418 0.27819
 C1739 C 0.36683 0.54341 0.74985
 C1740 C 0.35646 0.56140 0.75105
 C1741 C 0.34504 0.58338 0.75299
 C1742 C 0.32250 0.58656 0.74458
 C1743 C 0.31175 0.60807 0.74622
 C1744 C 0.32343 0.62655 0.75629
 C1745 C 0.34591 0.62332 0.76483
 C1746 C 0.35666 0.60181 0.76320
 C1747 C 0.31257 0.64894 0.75704
 C1748 C 0.30300 0.66746 0.75672
 H1749 H 0.31332 0.57249 0.73665
 H1750 H 0.29440 0.61036 0.73945
 H1751 H 0.35519 0.63746 0.77255
 H1752 H 0.37410 0.59959 0.76976
 C1753 C 0.37144 0.45699 0.74810
 C1754 C 0.36365 0.43761 0.74630
 C1755 C 0.35423 0.41448 0.74407
 C1756 C 0.36134 0.39666 0.75862
 C1757 C 0.35170 0.37442 0.75686
 C1758 C 0.33491 0.36980 0.74051
 C1759 C 0.32799 0.38756 0.72580
 C1760 C 0.33764 0.40980 0.72755
 C1761 C 0.32375 0.34732 0.73978
 C1762 C 0.31380 0.32881 0.74001
 H1763 H 0.37413 0.40000 0.77147
 H1764 H 0.35708 0.36093 0.76846
 H1765 H 0.31490 0.38432 0.71319
 H1766 H 0.33196 0.42340 0.71620
 C1767 C 0.87346 0.95652 0.24900
 C1768 C 0.86561 0.93720 0.24684
 C1769 C 0.85607 0.91418 0.24425
 C1770 C 0.86572 0.89533 0.25597
 C1771 C 0.85597 0.87316 0.25400
 C1772 C 0.83652 0.86963 0.24024
 C1773 C 0.82705 0.88843 0.22831
 C1774 C 0.83680 0.91060 0.23028
 C1775 C 0.82538 0.84714 0.23954
 C1776 C 0.81542 0.82864 0.23979
 H1777 H 0.88059 0.89782 0.26684
 H1778 H 0.86337 0.85885 0.26346
 H1779 H 0.81192 0.88602 0.21776
 H1780 H 0.82913 0.92499 0.22114
 C1781 C 0.63290 0.96122 0.75823
 C1782 C 0.64099 0.94201 0.75799
 C1783 C 0.65072 0.91906 0.75752
 C1784 C 0.66553 0.91120 0.77461
 C1785 C 0.67533 0.88913 0.77387
 C1786 C 0.67037 0.87477 0.75604
 C1787 C 0.65544 0.88258 0.73904
 C1788 C 0.64564 0.90463 0.73978
 C1789 C 0.68111 0.85235 0.75475
 C1790 C 0.69028 0.83376 0.75307
 H1791 H 0.66962 0.92217 0.78842
 H1792 H 0.68690 0.88337 0.78708
 H1793 H 0.65152 0.87171 0.72512
 H1794 H 0.63425 0.91047 0.72645
 C1795 C 0.13305 0.46161 0.25790
 C1796 C 0.14130 0.44245 0.25792
 C1797 C 0.15128 0.41961 0.25783
 C1798 C 0.13787 0.40054 0.25123
 C1799 C 0.14772 0.37850 0.25063
 C1800 C 0.17107 0.37535 0.25665
 C1801 C 0.18443 0.39438 0.26341
 C1802 C 0.17457 0.41642 0.26401
 C1803 C 0.18154 0.35283 0.25511
 C1804 C 0.19054 0.33417 0.25332
 H1805 H 0.11986 0.40275 0.24638
 H1806 H 0.13721 0.36398 0.24528
 H1807 H 0.20251 0.39223 0.26801
 H1808 H 0.18516 0.43099 0.26911
 C1809 C 0.04151 0.24349 0.82447
 C1810 C 0.05688 0.24245 0.81157
 C1811 C 0.07680 0.24189 0.79806
 C1812 C 0.08583 0.26266 0.78946
 C1813 C 0.10785 0.26309 0.78044
 C1814 C 0.12079 0.24276 0.78009
 C1815 C 0.11129 0.22178 0.78768
 C1816 C 0.08928 0.22135 0.79670
 C1817 C 0.14454 0.24379 0.77399
 C1818 C 0.16466 0.24457 0.76952
 H1819 H 0.07641 0.27868 0.79081
 H1820 H 0.11518 0.27939 0.77471
 H1821 H 0.12130 0.20602 0.78756
 H1822 H 0.08254 0.20531 0.80366
 C1823 C 0.54338 0.74477 0.32513
 C1824 C 0.55872 0.74369 0.31220
 C1825 C 0.57856 0.74301 0.29860
 C1826 C 0.58782 0.76373 0.29014
 C1827 C 0.60977 0.76394 0.28098
 C1828 C 0.62241 0.74343 0.28034
 C1829 C 0.61267 0.72252 0.28780
 C1830 C 0.59073 0.72231 0.29697
 C1831 C 0.64612 0.74420 0.27410
 C1832 C 0.66621 0.74480 0.26953
 H1833 H 0.57864 0.77986 0.29169
 H1834 H 0.61729 0.78019 0.27534
 H1835 H 0.62245 0.70662 0.28746
 H1836 H 0.58381 0.70629 0.30382
 C1837 C 0.53008 0.24764 0.16384
 C1838 C 0.54723 0.24756 0.17523
 C1839 C 0.56893 0.24800 0.18681
 C1840 C 0.57918 0.26931 0.19187
 C1841 C 0.60205 0.27013 0.19960
 C1842 C 0.61460 0.24964 0.20215
 C1843 C 0.60412 0.22827 0.19778
 C1844 C 0.58126 0.22745 0.19004
 C1845 C 0.63841 0.25049 0.20877
 C1846 C 0.65833 0.25076 0.21464
 H1847 H 0.56980 0.28529 0.18904
 H1848 H 0.61010 0.28671 0.20302
 H1849 H 0.61379 0.21236 0.19979
 H1850 H 0.57352 0.21095 0.18580
 C1851 C 0.02962 0.74569 0.66395
 C1852 C 0.04675 0.74559 0.67538
 C1853 C 0.06845 0.74617 0.68695
 C1854 C 0.08153 0.72597 0.68910
 C1855 C 0.10441 0.72722 0.69674
 C1856 C 0.11416 0.74866 0.70209
 C1857 C 0.10085 0.76876 0.70064
 C1858 C 0.07797 0.76751 0.69301
 C1859 C 0.13798 0.75004 0.70860
 C1860 C 0.15791 0.75076 0.71438
 H1861 H 0.07435 0.70948 0.68408
 H1862 H 0.11465 0.71161 0.69790
 H1863 H 0.10834 0.78539 0.70482
 H1864 H 0.06802 0.78325 0.69101
 C1865 C 0.94656 0.73328 0.64583
 C1866 C 0.92651 0.73111 0.65018
 C1867 C 0.90264 0.73015 0.65581
 C1868 C 0.89525 0.71489 0.67245
 C1869 C 0.87272 0.71631 0.68009
 C1870 C 0.85766 0.73302 0.67111
 C1871 C 0.86478 0.74771 0.65392
 C1872 C 0.88731 0.74627 0.64625
 C1873 C 0.83575 0.73639 0.68097
 C1874 C 0.81790 0.73921 0.69023
 H1875 H 0.90712 0.70254 0.68004
 H1876 H 0.86732 0.70500 0.69352
 H1877 H 0.85325 0.76078 0.64703
 H1878 H 0.89303 0.75828 0.63351
 C1879 C 0.44694 0.23498 0.14626
 C1880 C 0.42693 0.23270 0.15073
 C1881 C 0.40311 0.23153 0.15650
 C1882 C 0.39597 0.21628 0.17325
 C1883 C 0.37345 0.21746 0.18096
 C1884 C 0.35814 0.23391 0.17193
 C1885 C 0.36502 0.24860 0.15464
 C1886 C 0.38754 0.24740 0.14691
 C1887 C 0.33619 0.23703 0.18180
 C1888 C 0.31829 0.23968 0.19103
 H1889 H 0.40802 0.20412 0.18086
 H1890 H 0.36823 0.20616 0.19446
 H1891 H 0.35329 0.26147 0.14770
 H1892 H 0.39306 0.25940 0.13407
 C1893 C 0.46234 0.75811 0.34681
 C1894 C 0.44227 0.76238 0.34341
 C1895 C 0.41838 0.76700 0.33867
 C1896 C 0.40131 0.75199 0.34685
 C1897 C 0.37829 0.75471 0.33994
 C1898 C 0.37237 0.77245 0.32489
 C1899 C 0.38930 0.78804 0.31742
 C1900 C 0.41232 0.78533 0.32433
 C1901 C 0.34982 0.77261 0.31475
 C1902 C 0.33154 0.77163 0.30506
 H1903 H 0.40592 0.73768 0.35785
 H1904 H 0.36533 0.74239 0.34555
 H1905 H 0.38489 0.80162 0.30554
 H1906 H 0.42548 0.79691 0.31784
 C1907 C 0.96226 0.25617 0.84743
 C1908 C 0.94227 0.26072 0.84394
 C1909 C 0.91847 0.26568 0.83912
 C1910 C 0.91273 0.28384 0.82446
 C1911 C 0.88977 0.28684 0.81750
 C1912 C 0.87256 0.27171 0.82525
 C1913 C 0.87817 0.25416 0.84061
 C1914 C 0.90114 0.25116 0.84757
 C1915 C 0.85001 0.27206 0.81509
 C1916 C 0.83172 0.27120 0.80541
 H1917 H 0.92609 0.29505 0.81776
 H1918 H 0.88559 0.30026 0.80538
 H1919 H 0.86499 0.24219 0.84643
 H1920 H 0.90550 0.23699 0.85882
 C1921 C 0.57618 0.99892 0.72158
 C1922 C 0.56398 0.99525 0.70564
 C1923 C 0.55044 0.99203 0.68571
 C1924 C 0.55247 0.97165 0.67384
 C1925 C 0.54170 0.96977 0.65309
 C1926 C 0.52884 0.98826 0.64408
 C1927 C 0.52625 1.00838 0.65623
 C1928 C 0.53701 1.01025 0.67698
 C1929 C 0.52034 0.98740 0.62161
 C1930 C 0.51453 0.98676 0.60243
 H1931 H 0.56301 0.95754 0.68028
 H1932 H 0.54404 0.95421 0.64378
 H1933 H 0.51657 1.02289 0.64936
 H1934 H 0.53551 1.02621 0.68587
 C1935 C 0.07626 0.49897 1.22075
 C1936 C 0.06406 0.49523 1.20482
 C1937 C 0.05050 0.49190 1.18492
 C1938 C 0.05253 0.47146 1.17314
 C1939 C 0.04171 0.46946 1.15243
 C1940 C 0.02880 0.48789 1.14336
 C1941 C 0.02621 0.50807 1.15543
 C1942 C 0.03702 0.51006 1.17614
 C1943 C 0.02024 0.48691 1.12092
 C1944 C 0.01439 0.48619 1.10175
 H1945 H 0.06310 0.45740 1.17961
 H1946 H 0.04405 0.45386 1.14318
 H1947 H 0.01649 0.52253 1.14852
 H1948 H 0.03552 0.52605 1.18497
 C1949 C -0.07706 -0.00630 1.21082
 C1950 C -0.06618 -0.01064 1.19469
 C1951 C -0.05388 -0.01507 1.17482
 C1952 C -0.06280 -0.03101 1.15972
 C1953 C -0.05245 -0.03332 1.13925
 C1954 C -0.03310 -0.01974 1.13379
 C1955 C -0.02371 -0.00436 1.14919
 C1956 C -0.03406 -0.00205 1.16965
 C1957 C -0.02480 -0.01935 1.11156
 C1958 C -0.01907 -0.01761 1.09260
 H1959 H -0.07821 -0.04104 1.16345
 H1960 H -0.06007 -0.04502 1.12739
 H1961 H -0.00896 0.00647 1.14506
 H1962 H -0.02711 0.01046 1.18111
 C1963 C 0.42303 0.49570 0.71006
 C1964 C 0.43395 0.49126 0.69398
 C1965 C 0.44631 0.48664 0.67419
 C1966 C 0.46606 0.49970 0.66890
 C1967 C 0.47647 0.49714 0.64850
 C1968 C 0.46722 0.48148 0.63330
 C1969 C 0.44794 0.46786 0.63890
 C1970 C 0.43753 0.47042 0.65930
 C1971 C 0.47554 0.48162 0.61109
 C1972 C 0.48129 0.48317 0.59213
 H1973 H 0.47291 0.51242 0.68020
 H1974 H 0.49116 0.50801 0.64425
 H1975 H 0.44042 0.45593 0.62718
 H1976 H 0.42217 0.46034 0.66313
 C1977 C 0.42925 0.49819 -0.21442
 C1978 C 0.44323 0.49697 -0.19943
 C1979 C 0.45876 0.49708 -0.18057
 C1980 C 0.46845 0.51808 -0.17358
 C1981 C 0.48052 0.51913 -0.15342
 C1982 C 0.48299 0.49915 -0.14016
 C1983 C 0.47412 0.47797 -0.14757
 C1984 C 0.46201 0.47694 -0.16772
 C1985 C 0.49172 0.50079 -0.11786
 C1986 C 0.49715 0.50153 -0.09860
 H1987 H 0.46581 0.53383 -0.18326
 H1988 H 0.48700 0.53565 -0.14775
 H1989 H 0.47564 0.46247 -0.13732
 H1990 H 0.45437 0.46067 -0.17279
 C1991 C -0.07027 0.99657 0.28634
 C1992 C -0.05628 0.99537 0.30133
 C1993 C -0.04077 0.99547 0.32020
 C1994 C -0.03107 1.01646 0.32721
 C1995 C -0.01902 1.01749 0.34739
 C1996 C -0.01655 0.99751 0.36064
 C1997 C -0.02543 0.97634 0.35321
 C1998 C -0.03752 0.97532 0.33306
 C1999 C -0.00782 0.99914 0.38295
 C2000 C -0.00238 0.99989 0.40221
 H2001 H -0.03370 1.03222 0.31755
 H2002 H -0.01252 1.03401 0.35306
 H2003 H -0.02391 0.96083 0.36345
 H2004 H -0.04516 0.95906 0.32797
 C2005 C 0.08085 0.49860 0.29781
 C2006 C 0.06982 0.49406 0.31408
 C2007 C 0.05716 0.48940 0.33401
 C2008 C 0.06686 0.47538 0.35085
 C2009 C 0.05578 0.47284 0.37109
 C2010 C 0.03490 0.48424 0.37463
 C2011 C 0.02486 0.49770 0.35756
 C2012 C 0.03593 0.50025 0.33733
 C2013 C 0.02544 0.48461 0.39647
 C2014 C 0.01866 0.48657 0.41504
 H2015 H 0.08333 0.46703 0.34859
 H2016 H 0.06393 0.46266 0.38421
 H2017 H 0.00892 0.50690 0.36015
 H2018 H 0.02832 0.51127 0.32453
 C2019 C 0.58120 -0.00171 -0.20128
 C2020 C 0.57029 -0.00625 -0.18494
 C2021 C 0.55780 -0.01088 -0.16491
 C2022 C 0.56774 -0.02464 -0.14802
 C2023 C 0.55682 -0.02713 -0.12770
 C2024 C 0.53583 -0.01593 -0.12414
 C2025 C 0.52554 -0.00273 -0.14126
 C2026 C 0.53647 -0.00024 -0.16157
 C2027 C 0.52649 -0.01549 -0.10225
 C2028 C 0.51977 -0.01346 -0.08367
 H2029 H 0.58430 -0.03283 -0.15030
 H2030 H 0.56516 -0.03710 -0.11454
 H2031 H 0.50951 0.00631 -0.13866
 H2032 H 0.52865 0.01059 -0.17441
 C2033 C 0.71970 0.61428 -0.00344
 C2034 C 0.70338 0.60105 -0.00360
 C2035 C 0.68328 0.58611 -0.00540
 C2036 C 0.67603 0.57819 -0.02613
 C2037 C 0.65552 0.56526 -0.02839
 C2038 C 0.64211 0.56015 -0.00993
 C2039 C 0.64956 0.56775 0.01085
 C2040 C 0.67005 0.58070 0.01311
 C2041 C 0.62025 0.54799 -0.01219
 C2042 C 0.60161 0.53834 -0.01285
 H2043 H 0.68600 0.58241 -0.04061
 H2044 H 0.64995 0.55959 -0.04455
 H2045 H 0.63931 0.56400 0.02525
 H2046 H 0.67532 0.58685 0.02918
 C2047 C 0.21955 1.11361 0.49686
 C2048 C 0.20338 1.10020 0.49673
 C2049 C 0.18345 1.08503 0.49499
 C2050 C 0.17588 1.07750 0.47422
 C2051 C 0.15551 1.06435 0.47206
 C2052 C 0.14254 1.05863 0.49067
 C2053 C 0.15031 1.06583 0.51148
 C2054 C 0.17067 1.07900 0.51364
 C2055 C 0.12074 1.04635 0.48853
 C2056 C 0.10212 1.03665 0.48793
 H2057 H 0.18550 1.08220 0.45964
 H2058 H 0.14967 1.05902 0.45587
 H2059 H 0.14039 1.06162 0.52600
 H2060 H 0.17619 1.08484 0.52976
 C2061 C 0.20761 -0.11650 1.00229
 C2062 C 0.19052 -0.10528 1.00580
 C2063 C 0.16962 -0.09230 1.00917
 C2064 C 0.16862 -0.06873 1.00329
 C2065 C 0.14785 -0.05659 1.00501
 C2066 C 0.12787 -0.06790 1.01261
 C2067 C 0.12896 -0.09137 1.01885
 C2068 C 0.14974 -0.10351 1.01714
 C2069 C 0.10602 -0.05581 1.01269
 C2070 C 0.08769 -0.04579 1.01188
 H2071 H 0.18377 -0.05985 0.99698
 H2072 H 0.14725 -0.03850 0.99998
 H2073 H 0.11365 -0.10040 1.02460
 H2074 H 0.15018 -0.12175 1.02161
 C2075 C 0.70725 0.38231 0.50217
 C2076 C 0.69022 0.39364 0.50560
 C2077 C 0.66940 0.40679 0.50891
 C2078 C 0.64945 0.39575 0.51691
 C2079 C 0.62877 0.40805 0.51859
 C2080 C 0.62784 0.43151 0.51229
 C2081 C 0.64789 0.44265 0.50463
 C2082 C 0.66858 0.43035 0.50295
 C2083 C 0.60608 0.44375 0.51235
 C2084 C 0.58783 0.45390 0.51151
 H2085 H 0.64976 0.37752 0.52145
 H2086 H 0.61339 0.39915 0.52439
 H2087 H 0.64742 0.46072 0.49955
 H2088 H 0.68379 0.43909 0.49660
 C2089 C -0.21208 0.38726 0.49954
 C2090 C -0.19538 0.39998 0.50045
 C2091 C -0.17464 0.41412 0.49999
 C2092 C -0.15560 0.40839 0.51362
 C2093 C -0.13471 0.42067 0.51168
 C2094 C -0.13263 0.43871 0.49602
 C2095 C -0.15174 0.44462 0.48254
 C2096 C -0.17265 0.43233 0.48447
 C2097 C -0.11100 0.45131 0.49425
 C2098 C -0.09280 0.46179 0.49388
 H2099 H -0.15677 0.39419 0.52548
 H2100 H -0.12011 0.41598 0.52228
 H2101 H -0.15043 0.45858 0.47043
 H2102 H -0.18714 0.43675 0.47363
 C2103 C 0.28848 -0.11172 -0.00009
 C2104 C 0.30529 -0.09918 0.00104
 C2105 C 0.32618 -0.08524 0.00081
 C2106 C 0.34548 -0.09193 0.01368
 C2107 C 0.36647 -0.07978 0.01188
 C2108 C 0.36838 -0.06093 -0.00291
 C2109 C 0.34901 -0.05408 -0.01563
 C2110 C 0.32801 -0.06623 -0.01382
 C2111 C 0.39008 -0.04844 -0.00453
 C2112 C 0.40832 -0.03803 -0.00483
 H2113 H 0.34442 -0.10675 0.02484
 H2114 H 0.38126 -0.08521 0.02189
 H2115 H 0.35020 -0.03948 -0.02704
 H2116 H 0.31332 -0.06106 -0.02409
 C2117 C 0.29817 1.11211 0.50183
 C2118 C 0.31355 1.09875 0.50660
 C2119 C 0.33230 1.08307 0.51187
 C2120 C 0.33201 1.06062 0.50355
 C2121 C 0.35099 1.04603 0.50727
 C2122 C 0.37039 1.05374 0.51936
 C2123 C 0.37046 1.07601 0.52810
 C2124 C 0.35147 1.09060 0.52439
 C2125 C 0.39106 1.03983 0.52080
 C2126 C 0.40879 1.02889 0.52062
 H2127 H 0.31737 1.05461 0.49377
 H2128 H 0.35081 1.02898 0.50019
 H2129 H 0.38544 1.08231 0.53725
 H2130 H 0.35199 1.10794 0.53083
 C2131 C -0.20165 0.61201 1.00151
 C2132 C -0.18635 0.59854 1.00623
 C2133 C -0.16767 0.58275 1.01144
 C2134 C -0.14857 0.59006 1.02418
 C2135 C -0.12965 0.57537 1.02782
 C2136 C -0.12969 0.55325 1.01879
 C2137 C -0.14903 0.54575 1.00647
 C2138 C -0.16795 0.56043 1.00283
 C2139 C -0.10907 0.53928 1.02018
 C2140 C -0.09137 0.52829 1.01996
 H2141 H -0.14807 0.60729 1.03085
 H2142 H -0.11472 0.58152 1.03714
 H2143 H -0.14919 0.52881 0.99916
 H2144 H -0.18254 0.55459 0.99286
 C2145 C -0.00200 0.72166 0.59236
 C2146 C -0.00223 0.70882 0.57712
 C2147 C -0.00255 0.69167 0.56053
 C2148 C 0.01820 0.68125 0.55482
 C2149 C 0.01766 0.66089 0.54290
 C2150 C -0.00363 0.65101 0.53674
 C2151 C -0.02433 0.66222 0.54124
 C2152 C -0.02379 0.68258 0.55317
 C2153 C -0.00438 0.62786 0.52895
 C2154 C -0.00506 0.60797 0.52375
 H2155 H 0.03467 0.68801 0.56077
 H2156 H 0.03372 0.65215 0.53968
 H2157 H -0.04087 0.65450 0.53673
 H2158 H -0.03992 0.69036 0.55783
 C2159 C 0.49809 0.22250 0.09274
 C2160 C 0.49783 0.20949 0.07762
 C2161 C 0.49754 0.19221 0.06117
 C2162 C 0.51834 0.18196 0.05535
 C2163 C 0.51790 0.16156 0.04349
 C2164 C 0.49665 0.15146 0.03750
 C2165 C 0.47589 0.16248 0.04214
 C2166 C 0.47633 0.18288 0.05400
 C2167 C 0.49607 0.12830 0.02975
 C2168 C 0.49553 0.10839 0.02457
 H2169 H 0.53479 0.18891 0.06114
 H2170 H 0.53402 0.15296 0.04017
 H2171 H 0.45938 0.15460 0.03776
 H2172 H 0.46016 0.19054 0.05874
 C2173 C 0.00548 0.20912 0.89069
 C2174 C 0.00338 0.19420 0.90457
 C2175 C 0.00135 0.17575 0.92051
 C2176 C 0.02070 0.16920 0.93334
 C2177 C 0.01961 0.14949 0.94695
 C2178 C -0.00084 0.13636 0.94775
 C2179 C -0.02044 0.14336 0.93550
 C2180 C -0.01934 0.16307 0.92188
 C2181 C -0.00096 0.11445 0.95916
 C2182 C -0.00079 0.09551 0.96765
 H2183 H 0.03682 0.17885 0.93223
 H2184 H 0.03490 0.14403 0.95621
 H2185 H -0.03625 0.13314 0.93587
 H2186 H -0.03433 0.16796 0.91188
 C2187 C 0.50646 0.70970 0.39049
 C2188 C 0.50420 0.69457 0.40414
 C2189 C 0.50206 0.67592 0.41985
 C2190 C 0.48154 0.66289 0.42061
 C2191 C 0.48040 0.64307 0.43408
 C2192 C 0.49977 0.63630 0.44678
 C2193 C 0.52002 0.64976 0.44656
 C2194 C 0.52117 0.66958 0.43310
 C2195 C 0.49965 0.61437 0.45815
 C2196 C 0.49983 0.59544 0.46666
 H2197 H 0.46675 0.66761 0.41028
 H2198 H 0.46474 0.63260 0.43401
 H2199 H 0.53515 0.64449 0.45618
 H2200 H 0.53715 0.67950 0.43246
 C2201 C 0.51662 0.78784 0.38866
 C2202 C 0.51629 0.80421 0.40045
 C2203 C 0.51533 0.82407 0.41401
 C2204 C 0.53079 0.84252 0.41062
 C2205 C 0.52887 0.86253 0.42288
 C2206 C 0.51149 0.86406 0.43848
 C2207 C 0.49624 0.84547 0.44209
 C2208 C 0.49816 0.82547 0.42984
 C2209 C 0.50887 0.88491 0.45038
 C2210 C 0.50647 0.90243 0.46029
 H2211 H 0.54404 0.84158 0.39830
 H2212 H 0.54069 0.87689 0.41999
 H2213 H 0.48273 0.84658 0.45413
 H2214 H 0.48607 0.81128 0.43244
 C2215 C 0.01449 0.28716 0.88759
 C2216 C 0.01424 0.30356 0.89934
 C2217 C 0.01348 0.32344 0.91290
 C2218 C 0.02966 0.34137 0.91004
 C2219 C 0.02807 0.36137 0.92236
 C2220 C 0.01030 0.36341 0.93751
 C2221 C -0.00568 0.34534 0.94057
 C2222 C -0.00410 0.32535 0.92825
 C2223 C 0.00806 0.38426 0.94949
 C2224 C 0.00591 0.40176 0.95948
 H2225 H 0.04323 0.34002 0.89809
 H2226 H 0.04046 0.37532 0.91989
 H2227 H -0.01950 0.34685 0.95225
 H2228 H -0.01673 0.31157 0.93045
 C2229 C 0.48303 0.29455 0.11229
 C2230 C 0.48067 0.31189 0.10137
 C2231 C 0.47977 0.33265 0.08826
 C2232 C 0.47796 0.35400 0.09848
 C2233 C 0.48068 0.37442 0.08615
 C2234 C 0.48527 0.37344 0.06367
 C2235 C 0.48630 0.35211 0.05329
 C2236 C 0.48357 0.33168 0.06562
 C2237 C 0.49026 0.39427 0.05159
 C2238 C 0.49469 0.41193 0.04182
 H2239 H 0.47532 0.35483 0.11605
 H2240 H 0.47994 0.39091 0.09426
 H2241 H 0.48991 0.35127 0.03590
 H2242 H 0.48527 0.31518 0.05769
 C2243 C -0.01736 0.79337 0.61304
 C2244 C -0.01975 0.81090 0.60240
 C2245 C -0.02069 0.83185 0.58957
 C2246 C -0.02109 0.85311 0.60014
 C2247 C -0.01836 0.87360 0.58791
 C2248 C -0.01517 0.87277 0.56517
 C2249 C -0.01556 0.85156 0.55450
 C2250 C -0.01830 0.83106 0.56672
 C2251 C -0.01014 0.89358 0.55307
 C2252 C -0.00564 0.91117 0.54323
 H2253 H -0.02264 0.85379 0.61786
 H2254 H -0.01800 0.88999 0.59625
 H2255 H -0.01303 0.85084 0.53690
 H2256 H -0.01768 0.81463 0.55852
 C2257 C 0.24908 0.32655 0.02890
 C2258 C 0.24541 0.31441 0.04489
 C2259 C 0.24218 0.30091 0.06486
 C2260 C 0.22175 0.30291 0.07670
 C2261 C 0.21983 0.29213 0.09745
 C2262 C 0.23833 0.27931 0.10651
 C2263 C 0.25850 0.27676 0.09439
 C2264 C 0.26041 0.28752 0.07363
 C2265 C 0.23740 0.27077 0.12897
 C2266 C 0.23668 0.26492 0.14815
 H2267 H 0.20762 0.31340 0.07023
 H2268 H 0.20423 0.29444 0.10674
 H2269 H 0.27302 0.26711 0.10128
 H2270 H 0.27640 0.28605 0.06476
 C2271 C 0.74862 0.82631 0.52879
 C2272 C 0.74485 0.81409 0.54471
 C2273 C 0.74152 0.80052 0.56462
 C2274 C 0.72115 0.80268 0.57652
 C2275 C 0.71919 0.79185 0.59725
 C2276 C 0.73758 0.77880 0.60620
 C2277 C 0.75768 0.77608 0.59402
 C2278 C 0.75964 0.78690 0.57329
 C2279 C 0.73666 0.77023 0.62866
 C2280 C 0.73599 0.76439 0.64784
 H2281 H 0.70713 0.81336 0.57014
 H2282 H 0.70365 0.79429 0.60659
 H2283 H 0.77211 0.76625 0.60083
 H2284 H 0.77558 0.78529 0.56437
 C2285 C 0.24495 0.67346 0.53947
 C2286 C 0.24052 0.68432 0.55559
 C2287 C 0.23593 0.69662 0.57542
 C2288 C 0.24879 0.71652 0.58056
 C2289 C 0.24627 0.72691 0.60097
 C2290 C 0.23085 0.71747 0.61634
 C2291 C 0.21745 0.69801 0.61090
 C2292 C 0.21996 0.68763 0.59049
 C2293 C 0.23104 0.72584 0.63853
 C2294 C 0.23264 0.73165 0.65747
 H2295 H 0.26131 0.72354 0.56913
 H2296 H 0.25697 0.74175 0.60509
 H2297 H 0.20572 0.69035 0.62274
 H2298 H 0.21005 0.67214 0.58678
 C2299 C 0.74398 0.17248 0.03982
 C2300 C 0.73965 0.18337 0.05595
 C2301 C 0.73525 0.19567 0.07582
 C2302 C 0.71929 0.18678 0.09095
 C2303 C 0.71703 0.19711 0.11142
 C2304 C 0.73067 0.21641 0.11686
 C2305 C 0.74607 0.22576 0.10143
 C2306 C 0.74834 0.21543 0.08096
 C2307 C 0.73109 0.22469 0.13908
 C2308 C 0.73283 0.23041 0.15804
 H2309 H 0.70921 0.17141 0.08724
 H2310 H 0.70530 0.18952 0.12331
 H2311 H 0.75695 0.24047 0.10554
 H2312 H 0.76087 0.22236 0.06948
 C2313 C 0.74690 0.17912 0.96425
 C2314 C 0.74569 0.19303 0.94918
 C2315 C 0.74579 0.20846 0.93023
 C2316 C 0.72570 0.21146 0.91725
 C2317 C 0.72675 0.22348 0.89705
 C2318 C 0.74791 0.23255 0.88971
 C2319 C 0.76783 0.23031 0.90308
 C2320 C 0.76676 0.21832 0.92330
 C2321 C 0.74960 0.24128 0.86739
 C2322 C 0.75040 0.24675 0.84814
 H2323 H 0.70945 0.20368 0.92227
 H2324 H 0.71129 0.22482 0.88672
 H2325 H 0.78434 0.23695 0.89748
 H2326 H 0.78248 0.21588 0.93307
 C2327 C 0.24723 0.67954 0.46377
 C2328 C 0.24590 0.69340 0.44867
 C2329 C 0.24586 0.70879 0.42969
 C2330 C 0.22575 0.71155 0.41669
 C2331 C 0.22670 0.72357 0.39647
 C2332 C 0.24777 0.73286 0.38915
 C2333 C 0.26770 0.73085 0.40254
 C2334 C 0.26673 0.71887 0.42277
 C2335 C 0.24940 0.74159 0.36683
 C2336 C 0.25017 0.74705 0.34757
 H2337 H 0.20958 0.70361 0.42171
 H2338 H 0.21124 0.72473 0.38613
 H2339 H 0.28415 0.73766 0.39695
 H2340 H 0.28247 0.71662 0.43256
 C2341 C 0.74833 0.83125 0.45172
 C2342 C 0.74387 0.82031 0.43540
 C2343 C 0.73935 0.80775 0.41540
 C2344 C 0.75005 0.78644 0.41218
 C2345 C 0.74770 0.77546 0.39190
 C2346 C 0.73458 0.78569 0.37468
 C2347 C 0.72332 0.80666 0.37813
 C2348 C 0.72567 0.81763 0.39841
 C2349 C 0.73515 0.77628 0.35284
 C2350 C 0.73729 0.76952 0.33429
 H2351 H 0.76082 0.77868 0.42509
 H2352 H 0.75678 0.75944 0.38940
 H2353 H 0.71341 0.81494 0.36489
 H2354 H 0.71744 0.83417 0.40059
 C2355 C 0.24826 0.33116 0.95177
 C2356 C 0.24361 0.32019 0.93550
 C2357 C 0.23884 0.30762 0.91557
 C2358 C 0.24947 0.28629 0.91225
 C2359 C 0.24686 0.27530 0.89200
 C2360 C 0.23356 0.28551 0.87491
 C2361 C 0.22235 0.30650 0.87847
 C2362 C 0.22496 0.31749 0.89872
 C2363 C 0.23392 0.27612 0.85305
 C2364 C 0.23591 0.26939 0.83448
 H2365 H 0.26038 0.27854 0.92505
 H2366 H 0.25591 0.25927 0.88941
 H2367 H 0.21230 0.31478 0.86533
 H2368 H 0.21677 0.33404 0.90097
 C2369 C 0.86324 0.46941 0.75339
 C2370 C 0.84992 0.45316 0.75355
 C2371 C 0.83488 0.43313 0.75532
 C2372 C 0.82716 0.42567 0.77607
 C2373 C 0.81416 0.40521 0.77828
 C2374 C 0.80878 0.39205 0.75974
 C2375 C 0.81618 0.39971 0.73894
 C2376 C 0.82920 0.42016 0.73674
 C2377 C 0.79663 0.37019 0.76193
 C2378 C 0.78702 0.35153 0.76255
 H2379 H 0.83160 0.43544 0.79061
 H2380 H 0.80867 0.39946 0.79446
 H2381 H 0.81223 0.38964 0.72448
 H2382 H 0.83519 0.42559 0.72064
 C2383 C 0.36333 0.96970 0.25373
 C2384 C 0.35001 0.95344 0.25376
 C2385 C 0.33496 0.93341 0.25537
 C2386 C 0.32691 0.92600 0.27601
 C2387 C 0.31388 0.90554 0.27808
 C2388 C 0.30881 0.89232 0.25951
 C2389 C 0.31654 0.89993 0.23881
 C2390 C 0.32958 0.92038 0.23674
 C2391 C 0.29661 0.87047 0.26157
 C2392 C 0.28697 0.85183 0.26211
 H2393 H 0.33110 0.93581 0.29058
 H2394 H 0.30812 0.89983 0.29418
 H2395 H 0.31282 0.88983 0.22432
 H2396 H 0.33584 0.92577 0.22073
 C2397 C 0.13235 0.95789 0.74781
 C2398 C 0.14359 0.94085 0.74425
 C2399 C 0.15663 0.92000 0.74079
 C2400 C 0.14538 0.90005 0.73309
 C2401 C 0.15760 0.87934 0.73129
 C2402 C 0.18119 0.87840 0.73716
 C2403 C 0.19253 0.89846 0.74449
 C2404 C 0.18031 0.91916 0.74630
 C2405 C 0.19337 0.85663 0.73702
 C2406 C 0.20350 0.83837 0.73783
 H2407 H 0.12707 0.90038 0.72890
 H2408 H 0.14855 0.86397 0.72575
 H2409 H 0.21070 0.89798 0.74924
 H2410 H 0.18921 0.93438 0.75240
 C2411 C 0.63478 0.45735 0.24848
 C2412 C 0.64597 0.44025 0.24497
 C2413 C 0.65891 0.41934 0.24155
 C2414 C 0.64770 0.39963 0.23328
 C2415 C 0.65978 0.37883 0.23150
 C2416 C 0.68319 0.37756 0.23797
 C2417 C 0.69450 0.39738 0.24588
 C2418 C 0.68242 0.41817 0.24766
 C2419 C 0.69518 0.35568 0.23783
 C2420 C 0.70510 0.33731 0.23862
 H2421 H 0.62951 0.40020 0.22863
 H2422 H 0.65075 0.36364 0.22551
 H2423 H 0.71253 0.39665 0.25109
 H2424 H 0.69129 0.43320 0.25421
 C2425 C 0.63948 0.53809 0.25118
 C2426 C 0.65225 0.55475 0.25056
 C2427 C 0.66648 0.57540 0.25154
 C2428 C 0.67103 0.58853 0.23245
 C2429 C 0.68331 0.60949 0.23389
 C2430 C 0.69104 0.61751 0.25443
 C2431 C 0.68670 0.60425 0.27349
 C2432 C 0.67445 0.58330 0.27205
 C2433 C 0.70320 0.63940 0.25579
 C2434 C 0.71340 0.65775 0.25593
 H2435 H 0.66481 0.58277 0.21653
 H2436 H 0.68655 0.61956 0.21901
 H2437 H 0.69256 0.61021 0.28946
 H2438 H 0.67086 0.57343 0.28697
 C2439 C 0.13757 0.03845 0.75083
 C2440 C 0.15043 0.05505 0.75009
 C2441 C 0.16476 0.07564 0.75089
 C2442 C 0.17614 0.08149 0.77065
 C2443 C 0.18839 0.10244 0.77222
 C2444 C 0.18930 0.11773 0.75406
 C2445 C 0.17816 0.11175 0.73421
 C2446 C 0.16590 0.09081 0.73264
 C2447 C 0.20158 0.13954 0.75559
 C2448 C 0.21185 0.15786 0.75583
 H2449 H 0.17519 0.07005 0.78496
 H2450 H 0.19693 0.10680 0.78764
 H2451 H 0.17876 0.12339 0.72002
 H2452 H 0.15700 0.08665 0.71735
 C2453 C 0.36169 0.04839 0.24876
 C2454 C 0.34836 0.06379 0.24399
 C2455 C 0.33273 0.08258 0.23873
 C2456 C 0.34030 0.10171 0.22615
 C2457 C 0.32576 0.12073 0.22246
 C2458 C 0.30351 0.12076 0.23127
 C2459 C 0.29575 0.10141 0.24343
 C2460 C 0.31029 0.08239 0.24712
 C2461 C 0.28964 0.14144 0.22983
 C2462 C 0.27870 0.15917 0.23001
 H2463 H 0.35763 0.10215 0.21965
 H2464 H 0.33210 0.13567 0.21326
 H2465 H 0.27871 0.10130 0.25057
 H2466 H 0.30424 0.06778 0.25696
 C2467 C 0.86168 0.54809 0.74824
 C2468 C 0.84834 0.56350 0.74350
 C2469 C 0.83270 0.58230 0.73828
 C2470 C 0.84023 0.60139 0.72564
 C2471 C 0.82570 0.62043 0.72199
 C2472 C 0.80349 0.62049 0.73090
 C2473 C 0.79577 0.60117 0.74312
 C2474 C 0.81031 0.58214 0.74678
 C2475 C 0.78964 0.64119 0.72950
 C2476 C 0.77872 0.65892 0.72971
 H2477 H 0.85753 0.60181 0.71906
 H2478 H 0.83201 0.63535 0.71274
 H2479 H 0.77877 0.60108 0.75034
 H2480 H 0.80430 0.56755 0.75666
 C2481 C 0.97307 0.74742 0.15723
 C2482 C 0.96031 0.74720 0.17255
 C2483 C 0.94323 0.74694 0.18923
 C2484 C 0.93376 0.72577 0.19635
 C2485 C 0.91341 0.72542 0.20833
 C2486 C 0.90257 0.74623 0.21312
 C2487 C 0.91284 0.76742 0.20720
 C2488 C 0.93319 0.76777 0.19523
 C2489 C 0.87940 0.74576 0.22091
 C2490 C 0.85948 0.74528 0.22610
 H2491 H 0.94125 0.70959 0.19146
 H2492 H 0.90540 0.70896 0.21264
 H2493 H 0.90438 0.78357 0.21065
 H2494 H 0.94024 0.78419 0.18947
 C2495 C 0.47212 0.24798 0.65802
 C2496 C 0.45919 0.24770 0.67321
 C2497 C 0.44194 0.24737 0.68973
 C2498 C 0.43183 0.26818 0.69571
 C2499 C 0.41139 0.26777 0.70755
 C2500 C 0.40110 0.24655 0.71335
 C2501 C 0.41199 0.22577 0.70857
 C2502 C 0.43243 0.22618 0.69673
 C2503 C 0.37790 0.24605 0.72106
 C2504 C 0.35797 0.24553 0.72621
 H2505 H 0.43891 0.28462 0.69004
 H2506 H 0.40290 0.28390 0.71099
 H2507 H 0.40397 0.20930 0.71280
 H2508 H 0.43997 0.21002 0.69184
 C2509 C 0.45916 0.75745 0.85926
 C2510 C 0.44422 0.75555 0.84538
 C2511 C 0.42577 0.75368 0.82943
 C2512 C 0.41358 0.73277 0.82741
 C2513 C 0.39389 0.73169 0.81377
 C2514 C 0.38642 0.75151 0.80214
 C2515 C 0.39906 0.77221 0.80358
 C2516 C 0.41875 0.77329 0.81723
 C2517 C 0.36452 0.75126 0.79072
 C2518 C 0.34558 0.75127 0.78222
 H2519 H 0.41883 0.71758 0.83693
 H2520 H 0.38405 0.71568 0.81290
 H2521 H 0.39324 0.78767 0.79481
 H2522 H 0.42802 0.78956 0.81883
 C2523 C 0.95961 0.25405 0.35985
 C2524 C 0.94454 0.25172 0.34615
 C2525 C 0.92596 0.24953 0.33039
 C2526 C 0.92011 0.26839 0.31661
 C2527 C 0.90033 0.26729 0.30308
 C2528 C 0.88645 0.24733 0.30332
 C2529 C 0.89274 0.22818 0.31654
 C2530 C 0.91251 0.22928 0.33008
 C2531 C 0.86454 0.24738 0.29189
 C2532 C 0.84562 0.24772 0.28335
 H2533 H 0.93036 0.28417 0.31689
 H2534 H 0.89544 0.28225 0.29305
 H2535 H 0.88194 0.21276 0.31697
 H2536 H 0.91685 0.21468 0.34082
 C2537 C 0.03561 0.26588 0.35993
 C2538 C 0.05212 0.26564 0.34828
 C2539 C 0.07223 0.26486 0.33499
 C2540 C 0.09099 0.27966 0.33938
 C2541 C 0.11124 0.27784 0.32742
 C2542 C 0.11270 0.26120 0.31112
 C2543 C 0.09381 0.24663 0.30651
 C2544 C 0.07357 0.24845 0.31847
 C2545 C 0.13377 0.25865 0.29950
 C2546 C 0.15145 0.25630 0.28980
 H2547 H 0.09009 0.29230 0.35225
 H2548 H 0.12582 0.28913 0.33108
 H2549 H 0.09487 0.23370 0.29392
 H2550 H 0.05914 0.23686 0.31509
 C2551 C 0.53744 0.76494 0.86258
 C2552 C 0.55389 0.76449 0.85087
 C2553 C 0.57381 0.76355 0.83735
 C2554 C 0.57546 0.74621 0.82175
 C2555 C 0.59545 0.74450 0.80940
 C2556 C 0.61378 0.76014 0.81269
 C2557 C 0.61202 0.77766 0.82810
 C2558 C 0.59202 0.77936 0.84045
 C2559 C 0.63459 0.75783 0.80061
 C2560 C 0.65207 0.75568 0.79055
 H2561 H 0.56146 0.73386 0.81936
 H2562 H 0.59674 0.73088 0.79752
 H2563 H 0.62617 0.78978 0.83073
 H2564 H 0.59088 0.79276 0.85258
 C2565 C 0.54392 0.23260 0.63729
 C2566 C 0.56143 0.23009 0.64793
 C2567 C 0.58237 0.22902 0.66076
 C2568 C 0.58153 0.23115 0.68363
 C2569 C 0.60201 0.23381 0.69590
 C2570 C 0.62325 0.23438 0.68523
 C2571 C 0.62413 0.23144 0.66246
 C2572 C 0.60366 0.22879 0.65020
 C2573 C 0.64404 0.23938 0.69738
 C2574 C 0.66163 0.24386 0.70724
 H2575 H 0.56506 0.23163 0.69184
 H2576 H 0.60125 0.23615 0.71351
 H2577 H 0.64055 0.23194 0.65414
 H2578 H 0.60438 0.22744 0.63247
 C2579 C 0.04447 0.73186 0.13600
 C2580 C 0.06198 0.72946 0.14667
 C2581 C 0.08288 0.72857 0.15957
 C2582 C 0.10422 0.72870 0.14909
 C2583 C 0.12461 0.73155 0.16144
 C2584 C 0.12359 0.73434 0.18422
 C2585 C 0.10231 0.73342 0.19481
 C2586 C 0.08192 0.73055 0.18246
 C2587 C 0.14427 0.73949 0.19647
 C2588 C 0.16179 0.74406 0.20641
 H2589 H 0.10503 0.72747 0.13135
 H2590 H 0.14106 0.73232 0.15318
 H2591 H 0.10144 0.73563 0.21243
 H2592 H 0.06540 0.73077 0.19060
   
