data_POSCAR
  _audit_creation_date              2014-09-24
  _audit_creation_method            'ToBaCCo'
  _symmetry_space_group_name_H-M    'P1'
  _symmetry_Int_Tables_number       1
  _symmetry_cell_setting            triclinic
  loop_
  _symmetry_equiv_pos_as_xyz
 x,y,z
_cell_length_a 38.6418
_cell_length_b 38.5874
_cell_length_c 38.9288
_cell_angle_alpha 89.749700
_cell_angle_beta 90.147600
_cell_angle_gamma 89.931800
loop_
  _atom_site_label
  _atom_site_type_symbol
  _atom_site_fract_x
  _atom_site_fract_y
  _atom_site_fract_z
N1 N 0.30916 0.42424 0.92531
 N2 N 0.44100 0.82006 0.43760
 N3 N 0.94326 0.92826 0.82570
 N4 N 0.43804 -0.06504 0.31150
 N5 N 0.81350 0.30925 0.31735
 N6 N -0.18781 0.80713 0.81905
 N7 N 0.93605 0.33376 0.42590
 N8 N 0.43304 0.42083 0.80737
 N9 N 0.81179 0.93430 0.93663
 N10 N 0.31000 0.82584 0.32407
 N11 N 0.81331 0.45494 0.43494
 N12 N 0.93045 0.80123 -0.05483
 N13 N 0.31368 0.30425 0.80747
 N14 N 0.19202 0.57219 0.56337
 N15 N 0.55064 0.67697 0.06347
 N16 N 0.69094 0.18494 0.68747
 N17 N 1.06577 0.07252 0.18761
 N18 N 0.06526 0.17220 1.06547
 N19 N 0.18539 0.68507 0.68656
 N20 N 1.18329 0.19514 0.18386
 N21 N 0.70115 1.07634 0.56420
 N22 N 0.54953 0.55899 0.17979
 N23 N 0.66901 0.67977 0.18012
 N24 N 0.17998 0.06167 1.07776
 N25 N 0.57813 0.18469 0.56263
 N26 N 0.06452 0.56309 0.67584
 N27 N 0.67471 0.56338 0.06782
 N28 N 0.06776 0.69197 0.57083
 N29 N 0.58037 1.05969 0.67904
 N30 N 0.43339 0.30646 0.93140
 N31 N 0.93008 0.44522 0.30652
 N32 N 0.32477 0.94783 0.44392
 O33 O 0.25273 0.58148 0.69171
 O34 O 0.31305 0.56516 0.69504
 O35 O 0.20965 0.48693 0.64796
 O36 O 0.21447 0.42971 0.66233
 O37 O 0.15801 0.53568 0.72778
 O38 O 0.16594 0.53855 0.78954
 O39 O 0.29287 0.40175 0.75581
 O40 O 0.29168 0.40838 0.69323
 O41 O 0.33814 0.49625 0.78930
 O42 O 0.32367 0.55880 0.77854
 O43 O 0.25193 0.45479 0.83429
 O44 O 0.19162 0.45850 0.82562
 O45 O 0.24695 0.40550 0.79202
 O46 O 0.18372 0.42389 0.78603
 O47 O 0.28987 0.49978 0.83301
 O48 O 0.28729 0.56018 0.81517
 O49 O 0.33945 0.44827 0.75559
 O50 O 0.33636 0.44617 0.69731
 O51 O 0.20681 0.58461 0.72811
 O52 O 0.20423 0.57687 0.78928
 O53 O 0.16028 0.48860 0.69278
 O54 O 0.17446 0.42842 0.70359
 O55 O 0.24919 0.53064 0.64712
 O56 O 0.31044 0.52550 0.65956
 Zr57 Zr 0.27090 0.53030 0.69672
 O58 O 0.30232 0.50293 0.73170
 Zr59 Zr 0.21062 0.46943 0.69942
 O60 O 0.23914 0.43941 0.73501
 Zr61 Zr 0.20645 0.53614 0.75322
 O62 O 0.23537 0.50948 0.79091
 Zr63 Zr 0.29213 0.44949 0.72901
 O64 O 0.26393 0.47651 0.69029
 Zr65 Zr 0.28843 0.51696 0.78187
 O66 O 0.25949 0.54722 0.74682
 Zr67 Zr 0.22809 0.45594 0.78531
 O68 O 0.19585 0.48282 0.74995
 O69 O 0.21820 0.52261 0.70329
 O70 O 0.28099 0.46346 0.77927
 C71 C 0.22740 0.59772 0.70562
 C72 C 0.22524 0.51233 0.63314
 C73 C 0.14480 0.51502 0.70534
 C74 C 0.27269 0.38930 0.77904
 C75 C 0.35292 0.46900 0.77762
 C76 C 0.27534 0.47406 0.84805
 H77 H 0.32692 0.50786 0.72670
 H78 H 0.22861 0.51724 0.81411
 H79 H 0.20407 0.53661 0.68719
 H80 H 0.23363 0.41469 0.73133
 H81 H 0.28618 0.41866 0.67049
 H82 H 0.22724 0.41023 0.67303
 H83 H 0.26517 0.55954 0.82787
 H84 H 0.22731 0.58796 0.78913
 H85 H 0.33535 0.46632 0.68164
 H86 H 0.30609 0.50370 0.64694
 H87 H 0.18352 0.48274 0.82686
 H88 H 0.15328 0.51630 0.78805
 H89 H 0.31136 0.57973 0.71583
 H90 H 0.34147 0.55273 0.76136
 H91 H 0.15971 0.43347 0.72371
 H92 H 0.18788 0.40476 0.76970
 O93 O 0.29030 -0.07396 0.27471
 O94 O 0.28492 -0.06325 0.21275
 O95 O 0.34652 0.01698 0.30616
 O96 O 0.33930 0.07490 0.30155
 O97 O 0.25862 -0.01814 0.36120
 O98 O 0.19501 -0.00937 0.35128
 O99 O 0.24649 0.10846 0.21850
 O100 O 0.31061 0.09807 0.22605
 O101 O 0.20585 0.02208 0.17870
 O102 O 0.20541 -0.04098 0.19555
 O103 O 0.16435 0.07118 0.26366
 O104 O 0.17889 0.06449 0.32935
 O105 O 0.21263 0.11431 0.26585
 O106 O 0.21339 0.10401 0.32492
 O107 O 0.16049 0.02771 0.22465
 O108 O 0.16859 -0.03591 0.23215
 O109 O 0.25095 0.05978 0.17529
 O110 O 0.30806 0.05856 0.18431
 O111 O 0.24862 -0.06897 0.31560
 O112 O 0.19163 -0.05229 0.31903
 O113 O 0.30094 0.02274 0.35672
 O114 O 0.29834 0.08200 0.34134
 O115 O 0.34141 -0.02900 0.27005
 O116 O 0.32698 -0.02886 0.21014
 Zr117 Zr 0.29075 -0.02445 0.25051
 O118 O 0.26096 0.00676 0.21709
 Zr119 Zr 0.29710 0.04023 0.30618
 O120 O 0.26608 0.07355 0.27630
 Zr121 Zr 0.23297 -0.01705 0.31300
 O122 O 0.19959 0.01269 0.28157
 Zr123 Zr 0.27149 0.05979 0.22470
 O124 O 0.30543 0.02830 0.25421
 Zr125 Zr 0.20830 0.00177 0.22932
 O126 O 0.23787 -0.03196 0.26114
 Zr127 Zr 0.21337 0.06481 0.28712
 O128 O 0.24480 0.03538 0.32080
 O129 O 0.28528 -0.01222 0.30192
 O130 O 0.21904 0.05420 0.23498
 C131 C 0.27148 -0.08634 0.29918
 C132 C 0.35860 -0.01009 0.29115
 C133 C 0.28435 -0.00058 0.37321
 C134 C 0.22502 0.12537 0.23752
 C135 C 0.22501 0.04397 0.16242
 C136 C 0.14848 0.05477 0.23963
 H137 H 0.26588 -0.00038 0.19324
 H138 H 0.17524 0.00862 0.28811
 H139 H 0.29993 -0.02733 0.31654
 H140 H 0.27279 0.09794 0.28023
 H141 H 0.33212 0.08636 0.23378
 H142 H 0.33072 0.09649 0.29067
 H143 H 0.15361 -0.03011 0.25187
 H144 H 0.18578 -0.06036 0.29563
 H145 H 0.31291 0.03389 0.17960
 H146 H 0.34124 -0.00756 0.21060
 H147 H 0.15793 0.05142 0.32267
 H148 H 0.20169 0.01174 0.36404
 H149 H 0.26215 -0.07423 0.21685
 H150 H 0.22514 -0.03936 0.17950
 H151 H 0.27644 0.08126 0.35447
 H152 H 0.23679 0.11440 0.32505
 O153 O 0.57274 0.69572 0.25367
 O154 O 0.55597 0.70295 0.31478
 O155 O 0.48531 0.64575 0.21161
 O156 O 0.42595 0.65504 0.21784
 O157 O 0.52570 0.72830 0.15843
 O158 O 0.52547 0.79182 0.16622
 O159 O 0.39247 0.75777 0.29199
 O160 O 0.39520 0.69392 0.28785
 O161 O 0.47957 0.79176 0.33605
 O162 O 0.54057 0.78452 0.32467
 O163 O 0.44151 0.83391 0.24062
 O164 O 0.44704 0.81350 0.17926
 O165 O 0.39350 0.79086 0.24354
 O166 O 0.40649 0.78066 0.18319
 O167 O 0.47834 0.83510 0.28625
 O168 O 0.53652 0.82762 0.28255
 O169 O 0.43750 0.75059 0.33827
 O170 O 0.43452 0.69119 0.33054
 O171 O 0.57433 0.73074 0.20654
 O172 O 0.56488 0.79214 0.20220
 O173 O 0.48098 0.68997 0.16140
 O174 O 0.42213 0.69510 0.17393
 O175 O 0.52429 0.64843 0.25553
 O176 O 0.51893 0.66517 0.31423
 Zr177 Zr 0.52173 0.70016 0.27237
 O178 O 0.49114 0.73446 0.30113
 Zr179 Zr 0.46213 0.69566 0.21124
 O180 O 0.42920 0.73086 0.23681
 Zr181 Zr 0.52523 0.75459 0.20625
 O182 O 0.49571 0.79170 0.23299
 Zr183 Zr 0.43833 0.72758 0.28981
 O184 O 0.46864 0.68941 0.26459
 Zr185 Zr 0.50151 0.78571 0.28647
 O186 O 0.53544 0.75167 0.25965
 Zr187 Zr 0.44304 0.78207 0.22378
 O188 O 0.47264 0.74677 0.19463
 O189 O 0.51457 0.70384 0.21966
 O190 O 0.44912 0.77872 0.27696
 C191 C 0.58812 0.70876 0.22739
 C192 C 0.50939 0.63251 0.23066
 C193 C 0.50609 0.70452 0.14562
 C194 C 0.37948 0.78091 0.27164
 C195 C 0.45525 0.77510 0.35163
 C196 C 0.45590 0.84927 0.26614
 H197 H 0.49663 0.73049 0.32566
 H198 H 0.50265 0.81527 0.22570
 H199 H 0.52938 0.68792 0.20634
 H200 H 0.40465 0.72601 0.23149
 H201 H 0.40410 0.67080 0.28132
 H202 H 0.40362 0.66559 0.22452
 H203 H 0.55397 0.82071 0.26543
 H204 H 0.57886 0.79059 0.22349
 H205 H 0.45794 0.68837 0.34043
 H206 H 0.49649 0.65296 0.31223
 H207 H 0.46652 0.82973 0.18269
 H208 H 0.50390 0.78837 0.15290
 H209 H 0.57255 0.72183 0.30995
 H210 H 0.56262 0.77902 0.31301
 H211 H 0.42319 0.71757 0.16162
 H212 H 0.39043 0.76124 0.18771
 O213 O -0.09131 0.73497 0.80755
 O214 O -0.07578 0.67798 0.81163
 O215 O 0.00287 0.78281 0.85160
 O216 O 0.05735 0.79061 0.83744
 O217 O -0.04603 0.82822 0.75862
 O218 O -0.04957 0.81177 0.70147
 O219 O 0.09144 0.69469 0.76206
 O220 O 0.08229 0.69884 0.81912
 O221 O 0.00565 0.64627 0.71849
 O222 O -0.05832 0.65422 0.72599
 O223 O 0.04176 0.73118 0.67087
 O224 O 0.04050 0.79213 0.67894
 O225 O 0.08898 0.73181 0.71654
 O226 O 0.07420 0.79757 0.71871
 O227 O -0.00151 0.69134 0.67261
 O228 O -0.06337 0.69129 0.68963
 O229 O 0.04678 0.64758 0.76037
 O230 O 0.03969 0.66210 0.82471
 O231 O -0.09358 0.77806 0.76743
 O232 O -0.08359 0.77046 0.70486
 O233 O -0.00583 0.83093 0.80130
 O234 O 0.05810 0.81864 0.79124
 O235 O -0.04160 0.74419 0.85415
 O236 O -0.03337 0.68062 0.84496
 Zr237 Zr -0.03974 0.71874 0.80623
 O238 O -0.01045 0.68467 0.77576
 Zr239 Zr 0.01853 0.78179 0.80017
 O240 O 0.05164 0.74956 0.77163
 Zr241 Zr -0.04476 0.77636 0.74276
 O242 O -0.01364 0.74604 0.71023
 Zr243 Zr 0.04181 0.69708 0.78254
 O244 O 0.01283 0.72947 0.81524
 Zr245 Zr -0.02037 0.69372 0.72330
 O246 O -0.05384 0.72388 0.75404
 Zr247 Zr 0.03939 0.75524 0.71927
 O248 O 0.00789 0.78991 0.74774
 O249 O -0.03385 0.77113 0.79471
 O250 O 0.03227 0.70301 0.73008
 C251 C -0.10707 0.75927 0.79141
 C252 C -0.02212 0.76778 0.86728
 C253 C -0.02969 0.84439 0.78234
 C254 C 0.10458 0.70923 0.73559
 C255 C 0.03132 0.63310 0.73496
 C256 C 0.02326 0.70723 0.65723
 H257 H -0.01534 0.66041 0.78229
 H258 H -0.02019 0.75096 0.68613
 H259 H -0.04853 0.78619 0.80916
 H260 H 0.07596 0.75563 0.77675
 H261 H 0.07406 0.71368 0.83810
 H262 H 0.07424 0.77150 0.83524
 H263 H -0.06231 0.71176 0.67429
 H264 H -0.09646 0.74906 0.71069
 H265 H 0.02510 0.64209 0.81829
 H266 H -0.01243 0.68696 0.85821
 H267 H 0.01724 0.79241 0.66831
 H268 H -0.02612 0.82125 0.69750
 H269 H -0.08283 0.67167 0.78801
 H270 H -0.05177 0.63800 0.74465
 H271 H 0.05068 0.83299 0.77140
 H272 H 0.09314 0.79237 0.73510
 O273 O -0.04895 -0.11095 0.02162
 O274 O -0.05098 -0.09692 0.07922
 O275 O -0.09219 -0.02164 -0.02812
 O276 O -0.08066 0.03531 -0.03100
 O277 O 0.00405 -0.06450 -0.06951
 O278 O 0.05718 -0.07392 -0.05361
 O279 O -0.00588 0.07282 0.06017
 O280 O -0.06173 0.06016 0.06241
 O281 O 0.03936 -0.01864 0.11267
 O282 O 0.03851 -0.07784 0.10301
 O283 O 0.08779 0.02548 0.02769
 O284 O 0.08217 0.01915 -0.03159
 O285 O 0.04112 0.07084 0.02513
 O286 O 0.03985 0.05660 -0.03886
 O287 O 0.08655 -0.01733 0.06803
 O288 O 0.07134 -0.08292 0.06240
 O289 O 0.00512 0.02892 0.10672
 O290 O -0.06283 0.01642 0.09729
 O291 O -0.00770 -0.11305 -0.01999
 O292 O 0.05739 -0.10094 -0.00797
 O293 O -0.04019 -0.02579 -0.07346
 O294 O -0.03462 0.03799 -0.06063
 O295 O -0.09570 -0.06054 0.01587
 O296 O -0.08420 -0.05467 0.07808
 Zr297 Zr -0.04643 -0.06003 0.03920
 O298 O -0.01563 -0.03063 0.07280
 Zr299 Zr -0.04143 -0.00226 -0.02418
 O300 O -0.01324 0.03143 0.00793
 Zr301 Zr 0.01761 -0.06436 -0.01753
 O302 O 0.05017 -0.03214 0.01188
 Zr303 Zr -0.02290 0.02162 0.06032
 O304 O -0.05597 -0.00757 0.02799
 Zr305 Zr 0.03717 -0.04000 0.06357
 O306 O 0.00612 -0.07397 0.03432
 Zr307 Zr 0.03980 0.02075 0.00259
 O308 O 0.01174 -0.01166 -0.03159
 O309 O -0.03497 -0.05433 -0.01282
 O310 O 0.02973 0.01275 0.05428
 C311 C -0.03267 -0.12639 -0.00242
 C312 C -0.10858 -0.04420 -0.01002
 C313 C -0.01983 -0.04882 -0.08634
 C314 C 0.02074 0.08655 0.04623
 C315 C 0.02753 0.01034 0.12320
 C316 C 0.10123 0.00827 0.05272
 H317 H -0.02187 -0.03566 0.09692
 H318 H 0.07469 -0.03763 0.00709
 H319 H -0.04940 -0.06881 -0.02812
 H320 H -0.01921 0.05556 0.00165
 H321 H -0.08053 0.05240 0.04694
 H322 H -0.07931 0.05078 -0.01089
 H323 H 0.09129 -0.07664 0.04778
 H324 H 0.04846 -0.11759 0.00928
 H325 H -0.05217 0.01032 0.11965
 H326 H -0.09750 -0.03336 0.07275
 H327 H 0.07479 0.00469 -0.05121
 H328 H 0.07223 -0.05322 -0.05346
 H329 H -0.02782 -0.10755 0.08204
 H330 H 0.01477 -0.07975 0.11222
 H331 H -0.01323 0.03260 -0.07349
 H332 H 0.02129 0.07377 -0.03484
 O333 O 0.00815 0.61179 0.52399
 O334 O -0.05305 0.60080 0.51404
 O335 O 0.04521 0.52400 0.57400
 O336 O 0.04811 0.46696 0.56524
 O337 O 0.09918 0.56542 0.48472
 O338 O 0.08905 0.56332 0.42453
 O339 O -0.03549 0.42964 0.47253
 O340 O -0.03386 0.43840 0.53318
 O341 O -0.08133 0.51962 0.43168
 O342 O -0.06759 0.57829 0.42800
 O343 O 0.01250 0.47322 0.39084
 O344 O 0.07446 0.47948 0.40724
 O345 O 0.01178 0.42878 0.43782
 O346 O 0.07331 0.44368 0.44500
 O347 O -0.03360 0.50984 0.38885
 O348 O -0.02477 0.57740 0.39680
 O349 O -0.08288 0.47599 0.47112
 O350 O -0.07410 0.47872 0.53343
 O351 O 0.05039 0.61325 0.48327
 O352 O 0.04933 0.60043 0.42236
 O353 O 0.09715 0.52612 0.52851
 O354 O 0.08525 0.46294 0.52324
 O355 O 0.00111 0.56302 0.57071
 O356 O -0.05777 0.56207 0.55167
 Zr357 Zr -0.01427 0.56235 0.51885
 O358 O -0.04474 0.53128 0.48656
 Zr359 Zr 0.04769 0.50295 0.52410
 O360 O 0.01931 0.46869 0.49267
 Zr361 Zr 0.04984 0.56311 0.46229
 O362 O 0.02269 0.53113 0.42781
 Zr363 Zr -0.03415 0.47866 0.49616
 O364 O -0.00610 0.50977 0.53147
 Zr365 Zr -0.03057 0.53851 0.43494
 O366 O -0.00338 0.57354 0.46697
 Zr367 Zr 0.03158 0.47908 0.44102
 O368 O 0.06243 0.51100 0.47260
 O369 O 0.03865 0.55483 0.51398
 O370 O -0.02183 0.48623 0.44481
 C371 C 0.03331 0.62667 0.50814
 C372 C 0.02493 0.54679 0.58729
 C373 C 0.11261 0.54957 0.51054
 C374 C -0.01523 0.41484 0.45085
 C375 C -0.09680 0.49483 0.44738
 C376 C -0.01450 0.48575 0.37613
 H377 H -0.06925 0.53735 0.49056
 H378 H 0.02964 0.53626 0.40392
 H379 H 0.05235 0.56937 0.52984
 H380 H 0.02455 0.44446 0.49922
 H381 H -0.02335 0.44815 0.55425
 H382 H 0.03423 0.44677 0.55794
 H383 H -0.01181 0.56738 0.37732
 H384 H 0.02631 0.61169 0.42293
 H385 H -0.08862 0.49949 0.52951
 H386 H -0.05787 0.53920 0.56330
 H387 H 0.07108 0.49858 0.39054
 H388 H 0.10026 0.54026 0.42563
 H389 H -0.04796 0.61396 0.49276
 H390 H -0.07779 0.58275 0.45084
 H391 H 0.10063 0.46765 0.50346
 H392 H 0.06931 0.42898 0.46549
 O393 O 0.42828 -0.00979 0.45151
 O394 O 0.43876 0.05237 0.44550
 O395 O 0.52196 -0.04842 0.40021
 O396 O 0.57998 -0.04217 0.40906
 O397 O 0.48304 -0.09269 0.49154
 O398 O 0.49498 -0.07692 0.55304
 O399 O 0.60964 0.05323 0.48475
 O400 O 0.59736 0.03874 0.42443
 O401 O 0.52582 0.09416 0.52717
 O402 O 0.45902 0.08051 0.51815
 O403 O 0.56507 0.01514 0.57825
 O404 O 0.56884 -0.05098 0.56658
 O405 O 0.61208 0.01866 0.53216
 O406 O 0.61102 -0.04120 0.53440
 O407 O 0.51865 0.05138 0.57525
 O408 O 0.45993 0.05053 0.56088
 O409 O 0.56123 0.09564 0.48069
 O410 O 0.55726 0.08058 0.42306
 O411 O 0.43369 -0.04570 0.49778
 O412 O 0.45165 -0.04567 0.55438
 O413 O 0.52470 -0.09320 0.45034
 O414 O 0.58551 -0.07693 0.45481
 O415 O 0.47475 -0.01300 0.40003
 O416 O 0.47302 0.04822 0.40472
 Zr417 Zr 0.47766 0.01382 0.44691
 O418 O 0.50697 0.05211 0.47220
 Zr419 Zr 0.54354 -0.04193 0.44959
 O420 O 0.57513 -0.00652 0.47675
 Zr421 Zr 0.48557 -0.04200 0.51200
 O422 O 0.51300 -0.00542 0.54099
 Zr423 Zr 0.56014 0.04412 0.46381
 O424 O 0.53058 0.00896 0.43411
 Zr425 Zr 0.50074 0.04546 0.52518
 O426 O 0.46903 0.00889 0.50010
 Zr427 Zr 0.56600 -0.01033 0.53003
 O428 O 0.53861 -0.04958 0.50302
 O429 O 0.49084 -0.03673 0.45929
 O430 O 0.55355 0.04033 0.51681
 C431 C 0.41608 -0.03150 0.47369
 C432 C 0.49441 -0.03597 0.38621
 C433 C 0.50005 -0.10757 0.46727
 C434 C 0.62458 0.04218 0.51225
 C435 C 0.54817 0.10925 0.50768
 C436 C 0.54419 0.03766 0.59118
 H437 H 0.49961 0.07550 0.46472
 H438 H 0.50747 -0.00983 0.56540
 H439 H 0.47569 -0.05277 0.44646
 H440 H 0.59985 -0.01047 0.47149
 H441 H 0.58554 0.02768 0.40471
 H442 H 0.60044 -0.02882 0.41662
 H443 H 0.45907 0.02865 0.57417
 H444 H 0.44006 -0.02289 0.55628
 H445 H 0.53251 0.08510 0.41853
 H446 H 0.49526 0.04722 0.39219
 H447 H 0.55017 -0.04712 0.58348
 H448 H 0.51551 -0.09088 0.54677
 H449 H 0.42773 0.05230 0.46842
 H450 H 0.46775 0.10124 0.50590
 H451 H 0.58263 -0.08904 0.47710
 H452 H 0.61489 -0.05168 0.51163
 O453 O 0.40651 0.47550 -0.05419
 O454 O 0.41316 0.53809 -0.05812
 O455 O 0.50575 0.44222 -0.09704
 O456 O 0.56169 0.44961 -0.08411
 O457 O 0.46186 0.39619 -0.00835
 O458 O 0.46716 0.41358 0.05396
 O459 O 0.58289 0.54485 -0.01049
 O460 O 0.57224 0.53267 -0.07104
 O461 O 0.49432 0.58564 0.02871
 O462 O 0.42881 0.56924 0.01497
 O463 O 0.53449 0.51002 0.08153
 O464 O 0.53927 0.44429 0.07431
 O465 O 0.58372 0.51056 0.03723
 O466 O 0.58054 0.44902 0.04284
 O467 O 0.48608 0.54322 0.07636
 O468 O 0.42796 0.53895 0.05841
 O469 O 0.53351 0.58710 -0.01469
 O470 O 0.53039 0.57492 -0.07051
 O471 O 0.40954 0.44036 -0.00718
 O472 O 0.42234 0.44337 0.05093
 O473 O 0.50698 0.39758 -0.04583
 O474 O 0.56615 0.41761 -0.03765
 O475 O 0.45699 0.47522 -0.10117
 O476 O 0.44996 0.53750 -0.09585
 Zr477 Zr 0.45442 0.50225 -0.05429
 O478 O 0.48037 0.54195 -0.02740
 Zr479 Zr 0.52240 0.44962 -0.04632
 O480 O 0.55034 0.48622 -0.01771
 Zr481 Zr 0.45975 0.44735 0.01162
 O482 O 0.48385 0.48530 0.04214
 Zr483 Zr 0.53408 0.53599 -0.03229
 O484 O 0.50821 0.49958 -0.06358
 Zr485 Zr 0.47111 0.53575 0.02530
 O486 O 0.44244 0.49766 -0.00168
 Zr487 Zr 0.53756 0.48212 0.03480
 O488 O 0.51353 0.44180 0.00652
 O489 O 0.46892 0.45238 -0.04058
 O490 O 0.52451 0.53231 0.02028
 C491 C 0.39361 0.45303 -0.03324
 C492 C 0.47905 0.45345 -0.11328
 C493 C 0.48197 0.38202 -0.03075
 C494 C 0.59707 0.53334 0.01711
 C495 C 0.51795 0.60091 0.01081
 C496 C 0.51225 0.53192 0.09323
 H497 H 0.47296 0.56498 -0.03591
 H498 H 0.47709 0.48128 0.06631
 H499 H 0.45591 0.43537 -0.05446
 H500 H 0.57535 0.48282 -0.02175
 H501 H 0.56097 0.52270 -0.09162
 H502 H 0.57926 0.46686 -0.07724
 H503 H 0.42750 0.51721 0.07194
 H504 H 0.40971 0.46570 0.05107
 H505 H 0.51343 0.56649 -0.08752
 H506 H 0.47109 0.53504 -0.10996
 H507 H 0.51867 0.44765 0.08895
 H508 H 0.48925 0.40118 0.05009
 H509 H 0.40109 0.53759 -0.03573
 H510 H 0.43769 0.59006 0.00299
 H511 H 0.56295 0.40640 -0.01495
 H512 H 0.59259 0.44673 0.02059
 O513 O 0.80203 0.36552 0.51507
 O514 O 0.80285 0.35186 0.57369
 O515 O 0.84952 0.27857 0.46759
 O516 O 0.84227 0.22078 0.46763
 O517 O 0.75792 0.32105 0.42547
 O518 O 0.69886 0.31609 0.43770
 O519 O 0.76565 0.18028 0.55729
 O520 O 0.82087 0.19533 0.56076
 O521 O 0.71518 0.27032 0.60556
 O522 O 0.71308 0.32837 0.59532
 O523 O 0.67101 0.22382 0.51850
 O524 O 0.68018 0.22488 0.45936
 O525 O 0.72002 0.17937 0.52029
 O526 O 0.72345 0.19443 0.45474
 O527 O 0.66907 0.26662 0.55844
 O528 O 0.68247 0.33283 0.55281
 O529 O 0.75200 0.22449 0.60266
 O530 O 0.81951 0.23991 0.59423
 O531 O 0.76026 0.36568 0.47364
 O532 O 0.69688 0.35058 0.47998
 O533 O 0.79844 0.27833 0.42206
 O534 O 0.79675 0.21418 0.43680
 O535 O 0.85055 0.31810 0.51088
 O536 O 0.83874 0.31102 0.57350
 Zr537 Zr 0.80117 0.31467 0.53402
 O538 O 0.77069 0.28430 0.56727
 Zr539 Zr 0.80040 0.25570 0.47197
 O540 O 0.77311 0.22104 0.50403
 Zr541 Zr 0.73852 0.31531 0.47518
 O542 O 0.70688 0.28192 0.50422
 Zr543 Zr 0.78057 0.23217 0.55652
 O544 O 0.81324 0.26244 0.52447
 Zr545 Zr 0.71782 0.29098 0.55608
 O546 O 0.74807 0.32608 0.52720
 Zr547 Zr 0.72001 0.22934 0.49639
 O548 O 0.74733 0.26277 0.46236
 O549 O 0.79110 0.30743 0.48213
 O550 O 0.72777 0.23840 0.54838
 C551 C 0.78492 0.38014 0.49079
 C552 C 0.86417 0.30282 0.48484
 C553 C 0.78103 0.30394 0.40928
 C554 C 0.74029 0.16494 0.54266
 C555 C 0.72837 0.24252 0.61779
 C556 C 0.65586 0.24076 0.54241
 H557 H 0.77594 0.29003 0.59146
 H558 H 0.68236 0.28657 0.49850
 H559 H 0.80504 0.32284 0.46728
 H560 H 0.78026 0.19709 0.49852
 H561 H 0.83953 0.20339 0.54532
 H562 H 0.84054 0.20479 0.48745
 H563 H 0.66340 0.32592 0.53729
 H564 H 0.70256 0.36618 0.49932
 H565 H 0.80817 0.24622 0.61609
 H566 H 0.85337 0.29065 0.56826
 H567 H 0.67120 0.24852 0.45515
 H568 H 0.69925 0.29307 0.42657
 H569 H 0.77948 0.36232 0.57475
 H570 H 0.73677 0.33344 0.60353
 H571 H 0.77626 0.21875 0.42215
 H572 H 0.74065 0.17642 0.46088
 O573 O 0.82409 0.74244 -0.04515
 O574 O 0.80818 0.68762 -0.04846
 O575 O 0.73001 0.78863 -0.09474
 O576 O 0.67421 0.78974 -0.08231
 O577 O 0.77969 0.84191 -0.01384
 O578 O 0.78270 0.83656 0.04582
 O579 O 0.64495 0.70589 0.01376
 O580 O 0.64907 0.70216 -0.04406
 O581 O 0.74177 0.66413 0.05118
 O582 O 0.79714 0.67923 0.05102
 O583 O 0.69429 0.75963 0.09211
 O584 O 0.69438 0.81754 0.07547
 O585 O 0.64614 0.75342 0.04809
 O586 O 0.66077 0.81782 0.03518
 O587 O 0.72914 0.71223 0.09196
 O588 O 0.79662 0.72645 0.08034
 O589 O 0.69352 0.66102 0.01768
 O590 O 0.69372 0.66770 -0.04889
 O591 O 0.82753 0.79083 -0.01209
 O592 O 0.81700 0.79529 0.05050
 O593 O 0.73367 0.83994 -0.05040
 O594 O 0.67077 0.82505 -0.04000
 O595 O 0.77444 0.74992 -0.09309
 O596 O 0.76224 0.68593 -0.07551
 Zr597 Zr 0.77217 0.72840 -0.04272
 O598 O 0.74587 0.69871 -0.00570
 Zr599 Zr 0.71273 0.78991 -0.04369
 O600 O 0.68158 0.76120 -0.00944
 Zr601 Zr 0.77829 0.79409 0.01201
 O602 O 0.74868 0.76874 0.05001
 Zr603 Zr 0.69269 0.70771 -0.01171
 O604 O 0.71895 0.73602 -0.05078
 Zr605 Zr 0.75654 0.71543 0.04472
 O606 O 0.78798 0.74064 0.00793
 Zr607 Zr 0.69544 0.77564 0.04066
 O608 O 0.72517 0.80611 0.00636
 O609 O 0.76566 0.78150 -0.03813
 O610 O 0.70359 0.72233 0.03837
 C611 C 0.84066 0.76806 -0.03251
 C612 C 0.75592 0.77323 -0.10844
 C613 C 0.75996 0.85520 -0.03705
 C614 C 0.63143 0.72615 0.03611
 C615 C 0.71512 0.64833 0.03984
 C616 C 0.70661 0.73223 0.10620
 H617 H 0.75229 0.67416 -0.00909
 H618 H 0.75526 0.77691 0.07317
 H619 H 0.78039 0.79491 -0.05411
 H620 H 0.65686 0.76562 -0.01448
 H621 H 0.65435 0.71509 -0.06541
 H622 H 0.65738 0.77164 -0.07575
 H623 H 0.78591 0.73413 0.10208
 H624 H 0.82992 0.77319 0.04887
 H625 H 0.71096 0.65021 -0.04154
 H626 H 0.74374 0.69319 -0.09167
 H627 H 0.71858 0.82205 0.08238
 H628 H 0.75940 0.84718 0.04708
 H629 H 0.81182 0.67778 -0.02523
 H630 H 0.81439 0.68473 0.03307
 H631 H 0.67746 0.84299 -0.02314
 H632 H 0.64108 0.81004 0.02086
 O633 O 1.09317 0.22540 0.24097
 O634 O 1.07880 0.23496 0.30396
 O635 O 1.01144 0.16652 0.20531
 O636 O 0.95286 0.17036 0.20141
 O637 O 1.04591 0.25760 0.15176
 O638 O 1.03089 0.32088 0.16178
 O639 O 0.90562 0.25979 0.28175
 O640 O 0.91994 0.19781 0.27574
 O641 O 0.98292 0.30815 0.32834
 O642 O 1.04292 0.30882 0.32399
 O643 O 0.94499 0.34672 0.23532
 O644 O 0.95414 0.32833 0.17244
 O645 O 0.90289 0.29654 0.23598
 O646 O 0.91573 0.29240 0.17734
 O647 O 0.98237 0.35242 0.28017
 O648 O 1.04343 0.34875 0.27877
 O649 O 0.94900 0.26002 0.32904
 O650 O 0.95740 0.20008 0.31922
 O651 O 1.09106 0.26950 0.20202
 O652 O 1.07385 0.32372 0.19514
 O653 O 1.01081 0.21031 0.15324
 O654 O 0.94870 0.21139 0.16059
 O655 O 1.04859 0.17323 0.25033
 O656 O 1.04868 0.19195 0.30650
 Zr657 Zr 1.04320 0.22542 0.26371
 O658 O 1.00703 0.25295 0.29333
 Zr659 Zr 0.98551 0.21441 0.20091
 O660 O 0.94737 0.24301 0.22729
 Zr661 Zr 1.03858 0.28218 0.19978
 O662 O 1.00375 0.31332 0.22755
 Zr663 Zr 0.95608 0.23867 0.28029
 O664 O 0.99237 0.20725 0.25425
 Zr665 Zr 1.00970 0.30563 0.28084
 O666 O 1.04873 0.27868 0.25320
 Zr667 Zr 0.95340 0.29621 0.21666
 O668 O 0.98820 0.26700 0.18634
 O669 O 1.03594 0.22954 0.21105
 O670 O 0.95910 0.29145 0.26971
 C671 C 1.10683 0.24482 0.21757
 C672 C 1.03449 0.15529 0.22656
 C673 C 1.03351 0.22966 0.13859
 C674 C 0.88979 0.28216 0.26264
 C675 C 0.96091 0.28761 0.34280
 C676 C 0.95815 0.36369 0.26048
 H677 H 1.01223 0.24915 0.31795
 H678 H 1.00735 0.33790 0.22122
 H679 H 1.05262 0.21502 0.19831
 H680 H 0.92390 0.23490 0.22120
 H681 H 0.93289 0.17745 0.26717
 H682 H 0.92977 0.17775 0.20951
 H683 H 1.06635 0.33981 0.27174
 H684 H 1.06815 0.34022 0.21364
 H685 H 0.97849 0.20379 0.33316
 H686 H 1.02624 0.17990 0.30914
 H687 H 0.96926 0.34837 0.17744
 H688 H 1.01353 0.31184 0.14536
 H689 H 1.09489 0.25319 0.29588
 H690 H 1.06539 0.29899 0.31695
 H691 H 0.95067 0.23304 0.14699
 H692 H 0.90931 0.26769 0.17549
 O693 O 0.81403 0.90940 0.75174
 O694 O 0.82164 0.92141 0.69359
 O695 O 0.85628 1.00716 0.79432
 O696 O 0.84281 1.06344 0.78815
 O697 O 0.76866 0.96044 0.83857
 O698 O 0.70790 0.95972 0.82342
 O699 O 0.76610 1.08857 0.69660
 O700 O 0.82385 1.07884 0.69832
 O701 O 0.72615 0.99438 0.65248
 O702 O 0.73665 0.93142 0.66868
 O703 O 0.67475 1.03690 0.73200
 O704 O 0.68097 1.04057 0.79304
 O705 O 0.71894 1.08661 0.73149
 O706 O 0.71832 1.07705 0.79643
 O707 O 0.67936 0.99050 0.69645
 O708 O 0.69782 0.92983 0.70307
 O709 O 0.76021 1.04231 0.65344
 O710 O 0.82743 1.03262 0.66519
 O711 O 0.77220 0.90910 0.79285
 O712 O 0.71107 0.91923 0.78778
 O713 O 0.80517 1.00667 0.83838
 O714 O 0.79610 1.06711 0.81917
 O715 O 0.86096 0.96056 0.75890
 O716 O 0.85473 0.96355 0.69557
 Zr717 Zr 0.81369 0.95985 0.73123
 O718 O 0.78288 0.98515 0.69384
 Zr719 Zr 0.80505 1.02385 0.78710
 O720 O 0.77493 1.05255 0.75209
 Zr721 Zr 0.74913 0.95855 0.78784
 O722 O 0.71595 0.98476 0.75343
 Zr723 Zr 0.78669 1.03877 0.70116
 O724 O 0.82061 1.01370 0.73630
 Zr725 Zr 0.73056 0.97376 0.70261
 O726 O 0.76161 0.94473 0.73699
 Zr727 Zr 0.72263 1.03871 0.75795
 O728 O 0.75252 1.01243 0.79579
 O729 O 0.80100 0.97036 0.78192
 O730 O 0.73447 1.02734 0.70725
 C731 C 0.79639 0.89445 0.77548
 C732 C 0.87264 0.98086 0.78250
 C733 C 0.79016 0.98114 0.85333
 C734 C 0.73871 1.10183 0.70952
 C735 C 0.73783 1.02242 0.63889
 C736 C 0.66270 1.01610 0.70918
 H737 H 0.79011 0.97845 0.67046
 H738 H 0.69183 0.97772 0.75812
 H739 H 0.81518 0.95678 0.79835
 H740 H 0.77901 1.07744 0.75638
 H741 H 0.84383 1.07129 0.71249
 H742 H 0.83701 1.07984 0.76942
 H743 H 0.68165 0.93237 0.72256
 H744 H 0.71419 0.90614 0.76619
 H745 H 0.81777 1.02281 0.64378
 H746 H 0.86554 0.98654 0.69893
 H747 H 0.67247 1.01660 0.79606
 H748 H 0.70774 0.98325 0.83347
 H749 H 0.79850 0.91181 0.68833
 H750 H 0.75433 0.93770 0.65142
 H751 H 0.77443 1.06245 0.83189
 H752 H 0.73620 1.09481 0.79193
 O753 O 0.78299 0.40440 0.26770
 O754 O 0.78454 0.40828 0.20711
 O755 O 0.82446 0.50643 0.29531
 O756 O 0.80786 0.56090 0.29527
 O757 O 0.73251 0.46060 0.34592
 O758 O 0.67296 0.45949 0.32989
 O759 O 0.73819 0.57943 0.19584
 O760 O 0.79561 0.56762 0.20106
 O761 O 0.69603 0.48343 0.15752
 O762 O 0.69975 0.42380 0.17601
 O763 O 0.64398 0.53513 0.23331
 O764 O 0.64813 0.54232 0.29221
 O765 O 0.69079 0.58237 0.23032
 O766 O 0.68951 0.57555 0.29724
 O767 O 0.64736 0.48659 0.20057
 O768 O 0.66407 0.42400 0.21385
 O769 O 0.73166 0.53022 0.15647
 O770 O 0.79760 0.52051 0.16957
 O771 O 0.73666 0.40660 0.30364
 O772 O 0.67491 0.41848 0.29537
 O773 O 0.77431 0.50198 0.34279
 O774 O 0.76171 0.56355 0.32223
 O775 O 0.82875 0.45677 0.26425
 O776 O 0.81960 0.44927 0.20258
 Zr777 Zr 0.78006 0.45150 0.23995
 O778 O 0.75065 0.47556 0.20076
 Zr779 Zr 0.77220 0.51961 0.29157
 O780 O 0.74433 0.54727 0.25413
 Zr781 Zr 0.71460 0.45616 0.29495
 O782 O 0.68280 0.48201 0.25880
 Zr783 Zr 0.75661 0.52940 0.20468
 O784 O 0.78853 0.50541 0.24190
 Zr785 Zr 0.69762 0.46708 0.20915
 O786 O 0.72733 0.43863 0.24542
 Zr787 Zr 0.69150 0.53594 0.25985
 O788 O 0.71927 0.51038 0.29984
 O789 O 0.76717 0.46601 0.28948
 O790 O 0.70378 0.52068 0.21034
 C791 C 0.76334 0.39123 0.29102
 C792 C 0.84139 0.48043 0.28390
 C793 C 0.75684 0.47892 0.35915
 C794 C 0.71145 0.59500 0.20746
 C795 C 0.70905 0.51017 0.14270
 C796 C 0.63148 0.51369 0.21138
 H797 H 0.75790 0.46705 0.17799
 H798 H 0.65830 0.47645 0.26351
 H799 H 0.78205 0.45367 0.30626
 H800 H 0.74952 0.57218 0.25693
 H801 H 0.81485 0.55992 0.21613
 H802 H 0.80832 0.57223 0.27246
 H803 H 0.64558 0.43027 0.23022
 H804 H 0.67933 0.40292 0.27571
 H805 H 0.78859 0.50717 0.14984
 H806 H 0.83018 0.47260 0.20169
 H807 H 0.64159 0.51896 0.30041
 H808 H 0.67242 0.48373 0.33811
 H809 H 0.76143 0.39724 0.20652
 H810 H 0.72330 0.42285 0.16620
 H811 H 0.74230 0.55737 0.33764
 H812 H 0.70640 0.59359 0.29054
 O813 O 0.51069 0.13994 0.70965
 O814 O 0.44753 0.14676 0.71008
 O815 O 0.54744 0.22720 0.65964
 O816 O 0.54736 0.28546 0.66619
 O817 O 0.59048 0.19327 0.75767
 O818 O 0.57068 0.20131 0.81665
 O819 O 0.45122 0.32328 0.73612
 O820 O 0.46473 0.30768 0.67864
 O821 O 0.40406 0.24327 0.78331
 O822 O 0.40930 0.18238 0.78276
 O823 O 0.48447 0.28299 0.83401
 O824 O 0.54977 0.28213 0.82498
 O825 O 0.48531 0.32673 0.78373
 O826 O 0.54695 0.32010 0.78906
 O827 O 0.44663 0.23793 0.83326
 O828 O 0.44868 0.17453 0.81952
 O829 O 0.40648 0.27710 0.73538
 O830 O 0.42429 0.26725 0.67653
 O831 O 0.54507 0.14368 0.75709
 O832 O 0.53470 0.16033 0.81533
 O833 O 0.59308 0.22970 0.71163
 O834 O 0.57983 0.29112 0.71245
 O835 O 0.50540 0.18584 0.65891
 O836 O 0.44565 0.18146 0.66939
 Zr837 Zr 0.48379 0.18773 0.70788
 O838 O 0.44682 0.21997 0.73115
 Zr839 Zr 0.54289 0.25084 0.70829
 O840 O 0.50867 0.28537 0.73273
 Zr841 Zr 0.53819 0.19505 0.77331
 O842 O 0.50319 0.22668 0.80031
 Zr843 Zr 0.45778 0.27210 0.71954
 O844 O 0.49191 0.23965 0.69246
 Zr845 Zr 0.45205 0.21646 0.78449
 O846 O 0.48671 0.18088 0.76130
 Zr847 Zr 0.51114 0.27874 0.78652
 O848 O 0.54892 0.24732 0.76209
 O849 O 0.53482 0.19917 0.72016
 O850 O 0.46017 0.26845 0.77307
 C851 C 0.53362 0.12772 0.73059
 C852 C 0.52998 0.20295 0.64493
 C853 C 0.60671 0.20774 0.73261
 C854 C 0.46313 0.33935 0.76236
 C855 C 0.39100 0.26551 0.76202
 C856 C 0.46085 0.26395 0.84780
 H857 H 0.42321 0.21325 0.72399
 H858 H 0.50686 0.22234 0.82510
 H859 H 0.55136 0.18457 0.70735
 H860 H 0.51393 0.30946 0.72582
 H861 H 0.47770 0.29537 0.66047
 H862 H 0.53404 0.30662 0.67169
 H863 H 0.46734 0.17765 0.83667
 H864 H 0.51318 0.14684 0.81202
 H865 H 0.40885 0.24720 0.68040
 H866 H 0.44393 0.20398 0.65724
 H867 H 0.54504 0.26380 0.84218
 H868 H 0.58320 0.22344 0.81334
 H869 H 0.45147 0.13437 0.73209
 H870 H 0.41220 0.16802 0.76203
 H871 H 0.58953 0.28987 0.73599
 H872 H 0.55109 0.32819 0.76530
 O873 O 0.34688 0.76947 0.47192
 O874 O 0.33693 0.70729 0.48271
 O875 O 0.25790 0.80248 0.42010
 O876 O 0.19990 0.79774 0.42789
 O877 O 0.29609 0.85880 0.50422
 O878 O 0.29093 0.85185 0.56661
 O879 O 0.16527 0.71988 0.52435
 O880 O 0.17510 0.72128 0.46190
 O881 O 0.25734 0.67801 0.56472
 O882 O 0.31697 0.69504 0.56608
 O883 O 0.20829 0.77064 0.60411
 O884 O 0.21269 0.83332 0.58557
 O885 O 0.16350 0.76751 0.55852
 O886 O 0.17507 0.82887 0.54969
 O887 O 0.24735 0.72656 0.60650
 O888 O 0.31315 0.73578 0.59849
 O889 O 0.21322 0.67440 0.52613
 O890 O 0.21432 0.67951 0.46584
 O891 O 0.34598 0.81187 0.51243
 O892 O 0.33176 0.81634 0.57055
 O893 O 0.25295 0.85431 0.46444
 O894 O 0.19309 0.83877 0.46743
 O895 O 0.29838 0.75975 0.42432
 O896 O 0.30048 0.70169 0.44360
 Zr897 Zr 0.29783 0.74518 0.47632
 O898 O 0.26754 0.71402 0.50894
 Zr899 Zr 0.23500 0.80334 0.46932
 O900 O 0.20210 0.77518 0.50231
 Zr901 Zr 0.29497 0.81110 0.53068
 O902 O 0.26514 0.78272 0.56615
 Zr903 Zr 0.21430 0.72222 0.49992
 O904 O 0.24479 0.74991 0.46364
 Zr905 Zr 0.27478 0.72950 0.56004
 O906 O 0.30824 0.75823 0.52772
 Zr907 Zr 0.21272 0.78912 0.55349
 O908 O 0.24238 0.82039 0.52018
 O909 O 0.28751 0.79775 0.47951
 O910 O 0.22209 0.73592 0.55079
 C911 C 0.36102 0.79453 0.48873
 C912 C 0.28183 0.78311 0.40746
 C913 C 0.27717 0.87091 0.47970
 C914 C 0.15014 0.73995 0.54614
 C915 C 0.23265 0.66156 0.54985
 C916 C 0.22234 0.74447 0.61900
 H917 H 0.27440 0.68961 0.50543
 H918 H 0.27021 0.79041 0.58980
 H919 H 0.30198 0.81163 0.46367
 H920 H 0.17764 0.77935 0.49600
 H921 H 0.18602 0.72861 0.44005
 H922 H 0.17895 0.78615 0.43689
 H923 H 0.30421 0.75203 0.61594
 H924 H 0.34029 0.79267 0.57561
 H925 H 0.23786 0.66947 0.46594
 H926 H 0.27734 0.69944 0.43286
 H927 H 0.23120 0.83037 0.60294
 H928 H 0.26862 0.86364 0.56202
 H929 H 0.35009 0.71363 0.50361
 H930 H 0.31878 0.68161 0.54458
 H931 H 0.19442 0.85297 0.48850
 H932 H 0.16052 0.82403 0.52933
 O933 O 0.34069 0.24710 0.95337
 O934 O 0.33358 0.18298 0.96163
 O935 O 0.25243 0.27521 0.89663
 O936 O 0.19328 0.26687 0.90195
 O937 O 0.28230 0.33123 0.98326
 O938 O 0.27039 0.32063 1.04649
 O939 O 0.15961 0.18381 0.98801
 O940 O 0.17465 0.19103 0.92714
 O941 O 0.23982 0.14861 1.03964
 O942 O 0.30864 0.16170 1.03000
 O943 O 0.19986 0.23202 1.07868
 O944 O 0.19656 0.29596 1.05994
 O945 O 0.15512 0.22408 1.03027
 O946 O 0.15786 0.28561 1.02642
 O947 O 0.24734 0.19729 1.08247
 O948 O 0.30433 0.19366 1.07174
 O949 O 0.20846 0.14111 0.99084
 O950 O 0.21448 0.14971 0.93253
 O951 O 0.33409 0.28671 0.99601
 O952 O 0.31534 0.29255 1.05108
 O953 O 0.24159 0.32560 0.94133
 O954 O 0.18405 0.30793 0.94176
 O955 O 0.29575 0.23536 0.90186
 O956 O 0.30343 0.17873 0.91808
 Zr957 Zr 0.29334 0.21923 0.95302
 O958 O 0.26273 0.18377 0.98083
 Zr959 Zr 0.22677 0.27357 0.94456
 O960 O 0.19424 0.24191 0.97476
 Zr961 Zr 0.28196 0.28264 1.00920
 O962 O 0.25385 0.24911 1.04133
 Zr963 Zr 0.21004 0.19037 0.96871
 O964 O 0.24115 0.22157 0.93656
 Zr965 Zr 0.26637 0.19659 1.03271
 O966 O 0.29934 0.23079 1.00540
 Zr967 Zr 0.20135 0.25225 1.02764
 O968 O 0.22941 0.28795 0.99678
 O969 O 0.27897 0.27094 0.95737
 O970 O 0.21405 0.20037 1.02123
 C971 C 0.35188 0.27175 0.97275
 C972 C 0.27834 0.25785 0.88486
 C973 C 0.26423 0.34309 0.95786
 C974 C 0.14344 0.19847 1.01282
 C975 C 0.21912 0.13100 1.02030
 C976 C 0.22070 0.21182 1.09534
 H977 H 0.27062 0.15976 0.97677
 H978 H 0.25843 0.25632 1.06525
 H979 H 0.29354 0.28618 0.94290
 H980 H 0.16986 0.24499 0.96765
 H981 H 0.18747 0.19920 0.90663
 H982 H 0.17166 0.25605 0.91031
 H983 H 0.31000 0.21786 1.07779
 H984 H 0.32568 0.26999 1.05756
 H985 H 0.23872 0.14154 0.93284
 H986 H 0.28101 0.17309 0.90711
 H987 H 0.21477 0.29417 1.07778
 H988 H 0.24991 0.33360 1.03808
 H989 H 0.34578 0.19021 0.98282
 H990 H 0.29933 0.13832 1.02524
 H991 H 0.18122 0.31795 0.96495
 H992 H 0.14789 0.28456 1.00303
 C993 C 0.30826 0.33689 0.78985
 C994 C 0.27826 0.35405 0.79228
 H995 H 0.32935 0.34828 0.77539
 H996 H 0.25702 0.34264 0.80644
 C997 C 0.30487 -0.14123 0.30662
 C998 C 0.27587 -0.12259 0.31074
 H999 H 0.32563 -0.13068 0.29111
 H1000 H 0.25499 -0.13328 0.32594
 C1001 C 0.79734 0.84081 0.81138
 C1002 C 0.80551 0.85806 0.78248
 H1003 H 0.78081 0.85314 0.83019
 H1004 H 0.82146 0.84560 0.76333
 C1005 C 0.45159 0.90110 0.30290
 C1006 C 0.44497 0.88530 0.27294
 H1007 H 0.46697 0.88745 0.32198
 H1008 H 0.42974 0.89836 0.25341
 C1009 C -0.04058 0.89496 0.81935
 C1010 C -0.04034 0.88048 0.78810
 H1011 H -0.03010 0.88029 0.84079
 H1012 H -0.05136 0.89425 0.76639
 C1013 C -0.04762 -0.17060 -0.04432
 C1014 C -0.04619 -0.16047 -0.01166
 H1015 H -0.03391 -0.15591 -0.06381
 H1016 H -0.06053 -0.17473 0.00765
 C1017 C -0.05502 0.36624 0.44173
 C1018 C -0.02338 0.37980 0.43892
 H1019 H -0.07483 0.38037 0.45553
 H1020 H -0.00344 0.36579 0.42523
 C1021 C 0.45501 -0.15108 0.45669
 C1022 C 0.48842 -0.14176 0.45498
 H1023 H 0.43729 -0.13514 0.47133
 H1024 H 0.50629 -0.15701 0.43989
 C1025 C 0.44183 0.33608 -0.04767
 C1026 C 0.47439 0.34698 -0.04345
 H1027 H 0.42085 0.35096 -0.03655
 H1028 H 0.49530 0.33253 -0.05514
 C1029 C 0.79506 0.42498 0.44768
 C1030 C 0.79692 0.41472 0.48043
 H1031 H 0.78074 0.40926 0.42950
 H1032 H 0.81169 0.42976 0.49874
 C1033 C 0.80092 0.90243 -0.04717
 C1034 C 0.76890 0.88962 -0.05063
 H1035 H 0.81988 0.88760 -0.03271
 H1036 H 0.74956 0.90356 -0.06540
 C1037 C 0.80015 0.29611 0.34949
 C1038 C 0.78934 0.31681 0.37467
 H1039 H 0.80257 0.26859 0.35482
 H1040 H 0.78734 0.34447 0.37050
 C1041 C 0.79992 0.78714 -0.15188
 C1042 C 0.76658 0.78636 -0.14252
 H1043 H 0.81881 0.77357 -0.13614
 H1044 H 0.74760 0.80031 -0.15776
 C1045 C 0.28901 0.43339 0.89522
 C1046 C 0.28835 0.46579 0.88271
 H1047 H 0.27578 0.41305 0.88127
 H1048 H 0.30184 0.48613 0.89637
 C1049 C 0.30232 -0.04228 0.41612
 C1050 C 0.29870 -0.00932 0.40679
 H1051 H 0.28960 -0.06243 0.40139
 H1052 H 0.31229 0.01064 0.42091
 C1053 C -0.05228 -0.05514 -0.14125
 C1054 C -0.02344 -0.05943 -0.12254
 H1055 H -0.07345 -0.04015 -0.13071
 H1056 H -0.00212 -0.07402 -0.13326
 C1057 C -0.05833 0.46655 0.33476
 C1058 C -0.02492 0.46956 0.34354
 H1059 H -0.07763 0.47927 0.35049
 H1060 H -0.00521 0.45646 0.32873
 C1061 C 0.45075 -0.04815 0.34209
 C1062 C 0.48367 -0.05055 0.35290
 H1063 H 0.43247 -0.03372 0.35756
 H1064 H 0.50239 -0.06525 0.33829
 C1065 C 0.44088 0.43826 -0.16091
 C1066 C 0.47271 0.43882 -0.14741
 H1067 H 0.41992 0.45063 -0.14711
 H1068 H 0.49395 0.42619 -0.16047
 C1069 C 0.45443 0.81249 0.40368
 C1070 C 0.44655 0.78295 0.38755
 H1071 H 0.47012 0.83163 0.39053
 H1072 H 0.43135 0.76355 0.40085
 C1073 C -0.06164 0.78294 0.91386
 C1074 C -0.02929 0.78009 0.90208
 H1075 H -0.08272 0.77287 0.89842
 H1076 H -0.00792 0.79087 0.91656
 C1077 C 0.33854 0.80383 0.31412
 C1078 C 0.34740 0.79911 0.28130
 H1079 H 0.35368 0.79120 0.33407
 H1080 H 0.33283 0.81214 0.26124
 C1081 C -0.15428 0.79888 0.80492
 C1082 C -0.14257 0.76644 0.80261
 H1083 H -0.13753 0.81981 0.79658
 H1084 H -0.15805 0.74509 0.81209
 C1085 C 0.90704 0.31440 0.43945
 C1086 C 0.89770 0.31615 0.47269
 H1087 H 0.89104 0.29980 0.42179
 H1088 H 0.91305 0.33108 0.49060
 C1089 C 0.89610 0.79902 -0.04036
 C1090 C 0.87704 0.77039 -0.04317
 H1091 H 0.88533 0.82141 -0.02745
 H1092 H 0.88794 0.74783 -0.05561
 C1093 C -0.15621 -0.04979 -0.05215
 C1094 C -0.14412 -0.05360 -0.01997
 H1095 H -0.14040 -0.03634 -0.07091
 H1096 H -0.15954 -0.06700 -0.00091
 C1097 C -0.15155 0.46102 0.44674
 C1098 C -0.13319 0.48895 0.43732
 H1099 H -0.13929 0.44189 0.46324
 H1100 H -0.14498 0.50863 0.42123
 C1101 C 0.35919 -0.03763 0.44512
 C1102 C 0.37957 -0.04179 0.47253
 H1103 H 0.36900 -0.02381 0.42287
 H1104 H 0.36966 -0.05501 0.49504
 C1105 C 0.34198 0.44136 -0.06906
 C1106 C 0.35840 0.43969 -0.03883
 H1107 H 0.35406 0.45513 -0.09019
 H1108 H 0.34645 0.42613 -0.01754
 C1109 C 0.40128 0.42943 0.78974
 C1110 C 0.38744 0.46120 0.79124
 H1111 H 0.38748 0.40921 0.77617
 H1112 H 0.40082 0.48169 0.80476
 C1113 C 0.40545 -0.05339 0.29699
 C1114 C 0.39414 -0.02060 0.30028
 H1115 H 0.38864 -0.07222 0.28489
 H1116 H 0.41036 -0.00139 0.31251
 C1117 C 0.09658 0.55432 0.69278
 C1118 C 0.11032 0.52263 0.69123
 H1119 H 0.11013 0.57436 0.70688
 H1120 H 0.09711 0.50247 0.67705
 C1121 C 0.09612 0.05566 0.20218
 C1122 C 0.11503 0.06943 0.22782
 H1123 H 0.10496 0.03170 0.19077
 H1124 H 0.10712 0.09345 0.23958
 C1125 C 0.63800 0.69868 0.18906
 C1126 C 0.62316 0.69568 0.22010
 H1127 H 0.62546 0.71431 0.16944
 H1128 H 0.63571 0.68048 0.23999
 C1129 C 0.15349 0.70202 0.69581
 C1130 C 0.13972 0.69792 0.72694
 H1131 H 0.13987 0.71730 0.67662
 H1132 H 0.15363 0.68300 0.74617
 C1133 C 0.60882 0.19790 0.54613
 C1134 C 0.62130 0.22954 0.55322
 H1135 H 0.62323 0.18093 0.52924
 H1136 H 0.60699 0.24686 0.56976
 C1137 C 0.58208 0.68653 0.04571
 C1138 C 0.59699 0.71767 0.04984
 H1139 H 0.59467 0.66742 0.02967
 H1140 H 0.58448 0.73716 0.06543
 C1141 C 0.14964 0.04972 0.05954
 C1142 C 0.13533 0.01870 0.06611
 H1143 H 0.13736 0.06697 0.04112
 H1144 H 0.14773 0.00116 0.08410
 C1145 C 0.16088 0.55510 0.55178
 C1146 C 0.14755 0.56088 0.52052
 H1147 H 0.14705 0.53851 0.56961
 H1148 H 0.16147 0.57707 0.50245
 C1149 C 0.67138 0.05627 0.55348
 C1150 C 0.65763 0.05888 0.52182
 H1151 H 0.65912 0.03934 0.57209
 H1152 H 0.66968 0.07561 0.50293
 C1153 C 0.64432 0.54448 0.05766
 C1154 C 0.63068 0.54805 0.02622
 H1155 H 0.63145 0.52823 0.07646
 H1156 H 0.64350 0.56401 0.00717
 C1157 C 0.04739 0.05779 0.15903
 C1158 C 0.04278 0.02379 0.15505
 H1159 H 0.03637 0.07528 0.13998
 H1160 H 0.05359 0.00561 0.17343
 C1161 C 0.05877 0.55068 0.64118
 C1162 C 0.02917 0.55602 0.62383
 H1163 H 0.07977 0.53750 0.62821
 H1164 H 0.00775 0.56920 0.63597
 C1165 C 0.57752 0.04644 0.64447
 C1166 C 0.54786 0.04825 0.62702
 H1167 H 0.60009 0.03551 0.63205
 H1168 H 0.52512 0.05925 0.63900
 C1169 C 0.54585 0.54433 0.14579
 C1170 C 0.51593 0.54516 0.12847
 H1171 H 0.56818 0.53265 0.13363
 H1172 H 0.49335 0.55700 0.13996
 C1173 C 0.21045 0.55803 0.59251
 C1174 C 0.21184 0.52396 0.59963
 H1175 H 0.22189 0.57592 0.61065
 H1176 H 0.19921 0.50537 0.58305
 C1177 C 0.18653 0.04949 0.11227
 C1178 C 0.21786 0.05213 0.12638
 H1179 H 0.16547 0.03882 0.12731
 H1180 H 0.23890 0.06309 0.11155
 C1181 C 0.70976 0.19689 0.65766
 C1182 C 0.71372 0.23052 0.65058
 H1183 H 0.72049 0.17792 0.64016
 H1184 H 0.70230 0.24963 0.66742
 C1185 C 0.68832 0.68967 0.14980
 C1186 C 0.69201 0.72276 0.13995
 H1187 H 0.69930 0.66948 0.13388
 H1188 H 0.68047 0.74315 0.15516
 C1189 C 0.54394 0.69207 0.09668
 C1190 C 0.51251 0.69187 0.11072
 H1191 H 0.56516 0.70353 0.11092
 H1192 H 0.49115 0.67989 0.09719
 C1193 C 0.06029 0.70372 0.60540
 C1194 C 0.03016 0.69711 0.62137
 H1195 H 0.08015 0.71765 0.61937
 H1196 H 0.00987 0.68303 0.60832
 C1197 C 0.52845 0.58852 0.18930
 C1198 C 0.52381 0.59818 0.22204
 H1199 H 0.51746 0.60452 0.16906
 H1200 H 0.53556 0.58314 0.24253
 C1201 C 0.04463 0.59163 0.68942
 C1202 C 0.04548 0.60007 0.72286
 H1203 H 0.03066 0.60833 0.67175
 H1204 H 0.06013 0.58451 0.74098
 C1205 C 0.05861 0.13742 0.05343
 C1206 C 0.02736 0.12285 0.05557
 H1207 H 0.07974 0.12246 0.04273
 H1208 H 0.00606 0.13740 0.06640
 C1209 C 0.04772 0.66447 0.55574
 C1210 C 0.04628 0.65952 0.52172
 H1211 H 0.03563 0.64563 0.57259
 H1212 H 0.05958 0.67706 0.50445
 C1213 C 0.56215 0.15306 0.55080
 C1214 C 0.56145 0.14356 0.51776
 H1215 H 0.55063 0.13595 0.56975
 H1216 H 0.57346 0.15971 0.49837
 C1217 C 0.53189 0.64616 0.05326
 C1218 C 0.53011 0.63578 0.02050
 H1219 H 0.52021 0.63011 0.07301
 H1220 H 0.54221 0.65135 0.00069
 C1221 C 0.70553 0.11110 0.55037
 C1222 C 0.73551 0.12828 0.55287
 H1223 H 0.68369 0.12392 0.53823
 H1224 H 0.75743 0.11566 0.56499
 C1225 C 0.67943 0.59776 0.05390
 C1226 C 0.71022 0.61313 0.05331
 H1227 H 0.65732 0.61134 0.04309
 H1228 H 0.73250 0.60006 0.06428
 C1229 C 0.19164 0.65013 0.69874
 C1230 C 0.22193 0.63377 0.69450
 H1231 H 0.17076 0.63636 0.71137
 H1232 H 0.24327 0.64664 0.68183
 C1233 C 0.20291 0.16489 0.19371
 C1234 C 0.21188 0.15913 0.22628
 H1235 H 0.20956 0.14594 0.17429
 H1236 H 0.20431 0.17757 0.24580
 C1237 C 0.69898 1.15116 0.70148
 C1238 C 0.73045 1.13715 0.69827
 H1239 H 0.67880 1.13633 0.71402
 H1240 H 0.75089 1.15153 0.68569
 C1241 C 0.67476 0.64597 0.19531
 C1242 C 0.70534 0.62994 0.19357
 H1243 H 0.65357 0.63300 0.20825
 H1244 H 0.72677 0.64238 0.18059
 C1245 C 0.55855 0.08821 0.68908
 C1246 C 0.55102 0.09510 0.72186
 H1247 H 0.54866 0.10535 0.66918
 H1248 H 0.56179 0.07925 0.74229
 C1249 C 1.05820 0.10840 0.19317
 C1250 C 1.04621 0.11953 0.22312
 H1251 H 1.05813 0.12588 0.17124
 H1252 H 1.04583 0.10254 0.24533
 C1253 C 0.19810 0.60778 0.55282
 C1254 C 0.22717 0.62523 0.56044
 H1255 H 0.17803 0.62126 0.53857
 H1256 H 0.24781 0.61285 0.57477
 C1257 C 0.19825 0.09209 1.06585
 C1258 C 0.20460 0.09791 1.03262
 H1259 H 0.20713 0.11080 1.08463
 H1260 H 0.19531 0.07961 1.01370
 C1261 C 0.20530 0.69873 0.65841
 C1262 C 0.20680 0.73265 0.65124
 H1263 H 0.21815 0.68067 0.64140
 H1264 H 0.19304 0.75121 0.66693
 C1265 C 0.18634 0.20830 1.14919
 C1266 C 0.21588 0.20450 1.13196
 H1267 H 0.16418 0.22021 1.13672
 H1268 H 0.23793 0.19307 1.14503
 C1269 C 0.69416 0.55253 0.09777
 C1270 C 0.69515 0.51945 0.10863
 H1271 H 0.70697 0.57222 0.11297
 H1272 H 0.68211 0.49944 0.09414
 C1273 C 0.72035 1.06583 0.59473
 C1274 C 0.72293 1.03259 0.60514
 H1275 H 0.73200 1.08571 0.61057
 H1276 H 0.71098 1.01239 0.59001
 C1277 C 0.56968 0.19697 0.59652
 C1278 C 0.53809 0.19330 0.60961
 H1279 H 0.58968 0.20884 0.61210
 H1280 H 0.51791 0.18095 0.59470
 C1281 C 1.04732 0.18488 0.09558
 C1282 C 1.04805 0.21828 0.10541
 H1283 H 1.03375 0.16634 0.11162
 H1284 H 1.06168 0.23733 0.09013
 C1285 C 0.65865 0.20164 0.69629
 C1286 C 0.64261 0.19625 0.72644
 H1287 H 0.64626 0.21789 0.67707
 H1288 H 0.65484 0.18045 0.74606
 C1289 C 1.15404 0.20474 0.20460
 C1290 C 1.14161 0.23700 0.20463
 H1291 H 1.14094 0.18471 0.21925
 H1292 H 1.15471 0.25682 0.18977
 C1293 C 0.10058 0.70047 0.55517
 C1294 C 0.11532 0.73147 0.55905
 H1295 H 0.11355 0.68105 0.53979
 H1296 H 0.10207 0.75112 0.57386
 C1297 C 0.09600 0.18971 1.05365
 C1298 C 0.10971 0.18398 1.02255
 H1299 H 0.10924 0.20701 1.07115
 H1300 H 0.09715 0.16656 1.00472
 C1301 C 0.58042 0.55097 0.19943
 C1302 C 0.59698 0.52048 0.19645
 H1303 H 0.59132 0.57079 0.21586
 H1304 H 0.58592 0.50031 0.18062
 C1305 C 0.61092 1.05195 0.69894
 C1306 C 0.62787 1.02196 0.69531
 H1307 H 0.62129 1.07170 0.71580
 H1308 H 0.61718 1.00196 0.67898
 C1309 C 0.89478 0.44812 0.29477
 C1310 C 0.87769 0.47813 0.29464
 H1311 H 0.88159 0.42504 0.28584
 H1312 H 0.89012 0.50146 0.30385
 C1313 C 0.91473 0.93877 0.80401
 C1314 C 0.90537 0.97191 0.79985
 H1315 H 0.89959 0.91880 0.79149
 H1316 H 0.91947 0.99213 0.81306
 C1317 C 0.34420 0.28394 0.80037
 C1318 C 0.35681 0.28078 0.76868
 H1319 H 0.35763 0.27152 0.82162
 H1320 H 0.34356 0.29335 0.74745
 C1321 C 0.84364 0.29119 0.30491
 C1322 C 0.85512 0.29432 0.27265
 H1323 H 0.85841 0.27555 0.32298
 H1324 H 0.84061 0.30959 0.25417
 C1325 C 0.40771 0.80586 0.44746
 C1326 C 0.39643 0.80552 0.47995
 H1327 H 0.39062 0.79600 0.42765
 H1328 H 0.41226 0.81637 0.50019
 C1329 C 0.40067 0.28919 0.93677
 C1330 C 0.38700 0.28527 0.96795
 H1331 H 0.38636 0.27971 0.91473
 H1332 H 0.40031 0.29562 0.99016
 C1333 C 0.80089 0.47081 0.40354
 C1334 C 0.76734 0.47041 0.39443
 H1335 H 0.81958 0.48079 0.38531
 H1336 H 0.74816 0.45928 0.41143
 C1337 C 0.79748 0.94290 0.90335
 C1338 C 0.80033 0.97443 0.88924
 H1339 H 0.78496 0.92259 0.88872
 H1340 H 0.81313 0.99497 0.90321
 C1341 C 0.29385 0.81982 0.35710
 C1342 C 0.29258 0.78832 0.37163
 H1343 H 0.28400 0.84174 0.37143
 H1344 H 0.30316 0.76616 0.35828
 C1345 C 0.29470 0.29695 0.83850
 C1346 C 0.29072 0.26466 0.85009
 H1347 H 0.28490 0.31832 0.85368
 H1348 H 0.30151 0.24317 0.83583
 C1349 C 0.45158 0.30073 0.89944
 C1350 C 0.44865 0.27059 0.88286
 H1351 H 0.46644 0.32161 0.88805
 H1352 H 0.43429 0.24969 0.89479
 C1353 C 0.94987 0.32643 0.39209
 C1354 C 0.94800 0.29510 0.37768
 H1355 H 0.96228 0.34715 0.37783
 H1356 H 0.93563 0.27407 0.39141
 C1357 C 0.45068 0.38885 0.79961
 C1358 C 0.44927 0.37420 0.76855
 H1359 H 0.46451 0.37564 0.82011
 H1360 H 0.43550 0.38688 0.74775
 C1361 C 0.94927 0.41461 0.29722
 C1362 C 0.94358 0.39804 0.26749
 H1363 H 0.96734 0.40369 0.31567
 H1364 H 0.92586 0.40884 0.24868
 C1365 C 0.31686 0.91672 0.46289
 C1366 C 0.28439 0.90554 0.46651
 H1367 H 0.33787 0.90082 0.47269
 H1368 H 0.26300 0.92022 0.45582
 C1369 C 0.30207 0.39209 0.94328
 C1370 C 0.27032 0.37846 0.94498
 H1371 H 0.32344 0.37778 0.95462
 H1372 H 0.24880 0.39182 0.93292
 C1373 C 0.80392 0.34260 0.30253
 C1374 C 0.77205 0.35642 0.30504
 H1375 H 0.82347 0.35697 0.28855
 H1376 H 0.75209 0.34248 0.31880
   
