data_POSCAR
  _audit_creation_date              2014-09-24
  _audit_creation_method            'ToBaCCo'
  _symmetry_space_group_name_H-M    'P1'
  _symmetry_Int_Tables_number       1
  _symmetry_cell_setting            triclinic
  loop_
  _symmetry_equiv_pos_as_xyz
 x,y,z
_cell_length_a 55.0503
_cell_length_b 55.2137
_cell_length_c 55.0854
_cell_angle_alpha 90.119400
_cell_angle_beta 89.933700
_cell_angle_gamma 90.099100
loop_
  _atom_site_label
  _atom_site_type_symbol
  _atom_site_fract_x
  _atom_site_fract_y
  _atom_site_fract_z
C1 C 0.36171 0.32628 0.34547
 C2 C 0.34363 0.32670 0.36342
 C3 C 0.32609 0.34465 0.36321
 C4 C 0.32643 0.36241 0.34505
 C5 C 0.34428 0.36199 0.32733
 C6 C 0.36203 0.34381 0.32755
 C7 C 0.38017 0.31025 0.34041
 N8 N 0.39158 0.31770 0.31991
 C9 C 0.38069 0.33817 0.31189
 C10 C 0.33935 0.38049 0.31137
 N11 N 0.31899 0.39202 0.31904
 C12 C 0.31095 0.38116 0.33958
 C13 C 0.31014 0.33979 0.38183
 N14 N 0.31762 0.31938 0.39324
 C15 C 0.33805 0.31124 0.38219
 H16 H 0.38457 0.29409 0.35055
 H17 H 0.38565 0.34784 0.29554
 H18 H 0.34947 0.38484 0.29510
 H19 H 0.29468 0.38621 0.34942
 H20 H 0.29397 0.34998 0.38633
 H21 H 0.34772 0.29491 0.38709
 C22 C 0.36377 0.82854 -0.15470
 C23 C 0.34575 0.82864 -0.13668
 C24 C 0.32799 0.84634 -0.13677
 C25 C 0.32799 0.86415 -0.15486
 C26 C 0.34575 0.86407 -0.17266
 C27 C 0.36378 0.84614 -0.17258
 C28 C 0.38239 0.81276 -0.15986
 N29 N 0.39365 0.82039 -0.18042
 C30 C 0.38245 0.84076 -0.18834
 C31 C 0.34040 0.88255 -0.18853
 N32 N 0.31987 0.89371 -0.18072
 C33 C 0.31214 0.88261 -0.16015
 C34 C 0.31212 0.84118 -0.11816
 N35 N 0.31987 0.82082 -0.10687
 C36 C 0.34040 0.81300 -0.11799
 H37 H 0.38696 0.79664 -0.14973
 H38 H 0.38718 0.85055 -0.20470
 H39 H 0.35030 0.88718 -0.20488
 H40 H 0.29588 0.88717 -0.15008
 H41 H 0.29581 0.85113 -0.11362
 H42 H 0.35026 0.79675 -0.11320
 C43 C 0.86284 0.32842 -0.15527
 C44 C 0.84462 0.32847 -0.13743
 C45 C 0.82694 0.34630 -0.13752
 C46 C 0.82726 0.36432 -0.15544
 C47 C 0.84525 0.36425 -0.17301
 C48 C 0.86312 0.34622 -0.17293
 C49 C 0.88152 0.31267 -0.16049
 N50 N 0.89298 0.32054 -0.18084
 C51 C 0.88189 0.34104 -0.18858
 C52 C 0.84042 0.38293 -0.18876
 N53 N 0.81993 0.39430 -0.18115
 C54 C 0.81173 0.38311 -0.16080
 C55 C 0.81097 0.34114 -0.11897
 N56 N 0.81858 0.32068 -0.10772
 C57 C 0.83910 0.31279 -0.11882
 H58 H 0.88609 0.29636 -0.15062
 H59 H 0.88667 0.35115 -0.20470
 H60 H 0.85075 0.38747 -0.20484
 H61 H 0.79537 0.38794 -0.15102
 H62 H 0.79476 0.35121 -0.11437
 H63 H 0.84891 0.29652 -0.11399
 C64 C 0.86386 0.82742 0.34476
 C65 C 0.84593 0.82784 0.36282
 C66 C 0.82831 0.84569 0.36270
 C67 C 0.82844 0.86340 0.34447
 C68 C 0.84619 0.86299 0.32662
 C69 C 0.86402 0.84486 0.32676
 C70 C 0.88233 0.81142 0.33973
 N71 N 0.89365 0.81875 0.31911
 C72 C 0.88264 0.83918 0.31103
 C73 C 0.84115 0.88149 0.31070
 N74 N 0.82083 0.89306 0.31849
 C75 C 0.81292 0.88217 0.33911
 C76 C 0.81258 0.84076 0.38154
 N77 N 0.82031 0.82043 0.39292
 C78 C 0.84067 0.81239 0.38166
 H79 H 0.88675 0.79535 0.35002
 H80 H 0.88747 0.84880 0.29460
 H81 H 0.85125 0.88582 0.29440
 H82 H 0.79675 0.88722 0.34912
 H83 H 0.79637 0.85080 0.38627
 H84 H 0.85057 0.79617 0.38640
 C85 C 0.63767 0.67186 0.34648
 C86 C 0.65576 0.67171 0.36436
 C87 C 0.67348 0.65394 0.36413
 C88 C 0.67330 0.63606 0.34599
 C89 C 0.65541 0.63621 0.32834
 C90 C 0.63749 0.65423 0.32858
 C91 C 0.61911 0.68773 0.34143
 N92 N 0.60777 0.68011 0.32095
 C93 C 0.61881 0.65966 0.31294
 C94 C 0.66045 0.61766 0.31240
 N95 N 0.68091 0.60634 0.31998
 C96 C 0.68892 0.61739 0.34048
 C97 C 0.68939 0.65912 0.38271
 N98 N 0.68168 0.67953 0.39408
 C99 C 0.66116 0.68736 0.38305
 H100 H 0.61462 0.70394 0.35154
 H101 H 0.61395 0.64990 0.29658
 H102 H 0.65031 0.61314 0.29619
 H103 H 0.70524 0.61252 0.35025
 H104 H 0.70568 0.64915 0.38721
 H105 H 0.65131 0.70362 0.38793
 C106 C 0.63554 0.17309 -0.15615
 C107 C 0.65339 0.17306 -0.13799
 C108 C 0.67114 0.15530 -0.13788
 C109 C 0.67126 0.13734 -0.15593
 C110 C 0.65363 0.13738 -0.17381
 C111 C 0.63568 0.15534 -0.17393
 C112 C 0.61695 0.18882 -0.16160
 N113 N 0.60594 0.18099 -0.18222
 C114 C 0.61723 0.16053 -0.18989
 C115 C 0.65891 0.11883 -0.18965
 N116 N 0.67933 0.10758 -0.18179
 C117 C 0.68703 0.11871 -0.16119
 C118 C 0.68674 0.16054 -0.11907
 N119 N 0.67887 0.18097 -0.10788
 C120 C 0.65851 0.18879 -0.11925
 H121 H 0.61214 0.20509 -0.15170
 H122 H 0.61281 0.15046 -0.20618
 H123 H 0.64897 0.11434 -0.20598
 H124 H 0.70326 0.11396 -0.15119
 H125 H 0.70298 0.15064 -0.11422
 H126 H 0.64852 0.20502 -0.11464
 C127 C 0.13609 0.67228 -0.15599
 C128 C 0.15400 0.67239 -0.13791
 C129 C 0.17175 0.65463 -0.13771
 C130 C 0.17179 0.63651 -0.15562
 C131 C 0.15408 0.63643 -0.17344
 C132 C 0.13614 0.65440 -0.17363
 C133 C 0.11751 0.68799 -0.16147
 N134 N 0.10641 0.68004 -0.18198
 C135 C 0.11763 0.65951 -0.18957
 C136 C 0.15927 0.61774 -0.18913
 N137 N 0.17970 0.60651 -0.18125
 C138 C 0.18750 0.61780 -0.16078
 C139 C 0.18741 0.66004 -0.11899
 N140 N 0.17956 0.68056 -0.10795
 C141 C 0.15917 0.68827 -0.11933
 H142 H 0.11277 0.70435 -0.15167
 H143 H 0.11314 0.64935 -0.20578
 H144 H 0.14924 0.61311 -0.20538
 H145 H 0.20375 0.61311 -0.15079
 H146 H 0.20365 0.65017 -0.11408
 H147 H 0.14917 0.70453 -0.11482
 C148 C 0.13619 0.17052 0.34472
 C149 C 0.15410 0.17027 0.36280
 C150 C 0.17177 0.15245 0.36268
 C151 C 0.17174 0.13463 0.34449
 C152 C 0.15404 0.13488 0.32668
 C153 C 0.13617 0.15293 0.32678
 C154 C 0.11768 0.18642 0.33947
 N155 N 0.10655 0.17884 0.31884
 C156 C 0.11769 0.15837 0.31093
 C157 C 0.15918 0.11640 0.31070
 N158 N 0.17957 0.10499 0.31842
 C159 C 0.18740 0.11596 0.33905
 C160 C 0.18750 0.15748 0.38145
 N161 N 0.17975 0.17787 0.39283
 C162 C 0.15937 0.18583 0.38162
 H163 H 0.11302 0.20264 0.34953
 H164 H 0.11316 0.14850 0.29456
 H165 H 0.14915 0.11204 0.29438
 H166 H 0.20362 0.11105 0.34899
 H167 H 0.20370 0.14743 0.38606
 H168 H 0.14953 0.20210 0.38647
 C169 C 0.63506 0.33130 0.65329
 C170 C 0.65314 0.33137 0.63533
 C171 C 0.67095 0.34912 0.63548
 C172 C 0.67090 0.36701 0.65358
 C173 C 0.65305 0.36693 0.67129
 C174 C 0.63503 0.34898 0.67114
 C175 C 0.61651 0.31541 0.65862
 N176 N 0.60537 0.32308 0.67920
 C177 C 0.61650 0.34358 0.68701
 C178 C 0.65837 0.38530 0.68734
 N179 N 0.67900 0.39643 0.67977
 C180 C 0.68681 0.38546 0.65916
 C181 C 0.68692 0.34384 0.61698
 N182 N 0.67919 0.32337 0.60572
 C183 C 0.65859 0.31559 0.61674
 H184 H 0.61188 0.29908 0.64873
 H185 H 0.61195 0.35342 0.70340
 H186 H 0.64840 0.38973 0.70369
 H187 H 0.70326 0.39013 0.64944
 H188 H 0.70329 0.35375 0.61252
 H189 H 0.64874 0.29928 0.61196
 C190 C 0.63501 0.82934 1.15510
 C191 C 0.65269 0.82940 1.13674
 C192 C 0.67045 0.84717 1.13648
 C193 C 0.67079 0.86508 1.15452
 C194 C 0.65337 0.86505 1.17265
 C195 C 0.63535 0.84706 1.17294
 C196 C 0.61654 0.81350 1.16074
 N197 N 0.60574 0.82118 1.18151
 C198 C 0.61707 0.84168 1.18915
 C199 C 0.65914 0.88355 1.18845
 N200 N 0.67957 0.89462 1.18028
 C201 C 0.68684 0.88351 1.15956
 C202 C 0.68606 0.84192 1.11771
 N203 N 0.67820 0.82141 1.10664
 C204 C 0.65782 0.81359 1.11806
 H205 H 0.61169 0.79722 1.15085
 H206 H 0.61281 0.85161 1.20556
 H207 H 0.64965 0.88820 1.20504
 H208 H 0.70299 0.88803 1.14929
 H209 H 0.70232 0.85187 1.11295
 H210 H 0.64796 0.79722 1.11353
 C211 C 0.13541 0.32730 1.15317
 C212 C 0.15345 0.32749 1.13518
 C213 C 0.17098 0.34548 1.13516
 C214 C 0.17071 0.36350 1.15310
 C215 C 0.15292 0.36333 1.17088
 C216 C 0.13515 0.34511 1.17091
 C217 C 0.11709 0.31119 1.15853
 N218 N 0.10578 0.31883 1.17907
 C219 C 0.11665 0.33953 1.18679
 C220 C 0.15811 0.38196 1.18672
 N221 N 0.17855 0.39327 1.17892
 C222 C 0.18640 0.38217 1.15840
 C223 C 0.18702 0.34030 1.11671
 N224 N 0.17960 0.31964 1.10561
 C225 C 0.15911 0.31165 1.11670
 H226 H 0.11280 0.29482 1.14858
 H227 H 0.11184 0.34939 1.20311
 H228 H 0.14824 0.38653 1.20310
 H229 H 0.20271 0.38685 1.14846
 H230 H 0.20324 0.35042 1.11216
 H231 H 0.14950 0.29515 1.11206
 C232 C 0.13636 0.82940 0.65328
 C233 C 0.15419 0.82905 0.63510
 C234 C 0.17215 0.84662 0.63476
 C235 C 0.17253 0.86475 0.65261
 C236 C 0.15493 0.86509 0.67058
 C237 C 0.13672 0.84730 0.67092
 C238 C 0.11770 0.81379 0.65897
 N239 N 0.10685 0.82180 0.67956
 C240 C 0.11829 0.84227 0.68705
 C241 C 0.16068 0.88367 0.68626
 N242 N 0.18130 0.89451 0.67820
 C243 C 0.18870 0.88311 0.65764
 C244 C 0.18781 0.84093 0.61614
 N245 N 0.17977 0.82038 0.60529
 C246 C 0.15923 0.81294 0.61668
 H247 H 0.11277 0.79742 0.64929
 H248 H 0.11397 0.85234 0.70335
 H249 H 0.15102 0.88854 0.70269
 H250 H 0.20498 0.88734 0.64746
 H251 H 0.20425 0.85055 0.61125
 H252 H 0.14913 0.79667 0.61236
 C253 C 0.36410 0.67173 0.65436
 C254 C 0.34624 0.67169 0.63624
 C255 C 0.32844 0.65395 0.63613
 C256 C 0.32827 0.63603 0.65412
 C257 C 0.34589 0.63606 0.67203
 C258 C 0.36393 0.65404 0.67216
 C259 C 0.38269 0.68753 0.65978
 N260 N 0.39370 0.67984 0.68037
 C261 C 0.38242 0.65939 0.68810
 C262 C 0.34039 0.61751 0.68778
 N263 N 0.31992 0.60637 0.67982
 C264 C 0.31235 0.61751 0.65927
 C265 C 0.31274 0.65917 0.61746
 N266 N 0.32060 0.67961 0.60633
 C267 C 0.34105 0.68742 0.61760
 H268 H 0.38750 0.70378 0.64991
 H269 H 0.38691 0.64952 0.70443
 H270 H 0.35011 0.61282 0.70418
 H271 H 0.29614 0.61290 0.64916
 H272 H 0.29646 0.64921 0.61277
 H273 H 0.35097 0.70372 0.61296
 C274 C 0.36360 0.16832 1.15313
 C275 C 0.34568 0.16841 1.13506
 C276 C 0.32785 0.15071 1.13492
 C277 C 0.32768 0.13272 1.15282
 C278 C 0.34535 0.13262 1.17067
 C279 C 0.36343 0.15054 1.17082
 C280 C 0.38217 0.18411 1.15866
 N281 N 0.39315 0.17631 1.17922
 C282 C 0.38189 0.15581 1.18682
 C283 C 0.33976 0.11412 1.18645
 N284 N 0.31916 0.10313 1.17856
 C285 C 0.31163 0.11433 1.15800
 C286 C 0.31202 0.15611 1.11642
 N287 N 0.31983 0.17663 1.10541
 C288 C 0.34038 0.18432 1.11659
 H289 H 0.38695 0.20045 1.14892
 H290 H 0.38633 0.14588 1.20313
 H291 H 0.34950 0.10944 1.20285
 H292 H 0.29533 0.10994 1.14794
 H293 H 0.29566 0.14624 1.11180
 H294 H 0.35026 0.20066 1.11204
 C295 C 0.86295 0.67125 1.15274
 C296 C 0.84471 0.67115 1.13500
 C297 C 0.82710 0.65323 1.13512
 C298 C 0.82750 0.63519 1.15297
 C299 C 0.84548 0.63528 1.17051
 C300 C 0.86333 0.65344 1.17040
 C301 C 0.88144 0.68724 1.15791
 N302 N 0.89295 0.67952 1.17822
 C303 C 0.88207 0.65890 1.18601
 C304 C 0.84046 0.61660 1.18628
 N305 N 0.81992 0.60534 1.17868
 C306 C 0.81184 0.61651 1.15834
 C307 C 0.81094 0.65844 1.11684
 N308 N 0.81836 0.67906 1.10572
 C309 C 0.83896 0.68698 1.11662
 H310 H 0.88576 0.70360 1.14802
 H311 H 0.88706 0.64904 1.20222
 H312 H 0.85053 0.61194 1.20247
 H313 H 0.79544 0.61185 1.14857
 H314 H 0.79466 0.64836 1.11240
 H315 H 0.84862 0.70342 1.11190
 C316 C 0.86381 0.17443 0.65414
 C317 C 0.84586 0.17454 0.63612
 C318 C 0.82804 0.15683 0.63594
 C319 C 0.82795 0.13878 0.65380
 C320 C 0.84567 0.13866 0.67162
 C321 C 0.86373 0.15662 0.67179
 C322 C 0.88243 0.19019 0.65951
 N323 N 0.89360 0.18235 0.67998
 C324 C 0.88236 0.16185 0.68764
 C325 C 0.84025 0.11997 0.68724
 N326 N 0.81974 0.10889 0.67929
 C327 C 0.81206 0.12020 0.65887
 C328 C 0.81230 0.16224 0.61733
 N329 N 0.82018 0.18275 0.60634
 C330 C 0.84068 0.19043 0.61763
 H331 H 0.88703 0.20645 0.64958
 H332 H 0.88702 0.15188 0.70389
 H333 H 0.85007 0.11514 0.70354
 H334 H 0.79580 0.11566 0.64881
 H335 H 0.79597 0.15241 0.61250
 H336 H 0.85071 0.20670 0.61316
 C337 C 0.32654 0.36326 0.65417
 C338 C 0.32670 0.34507 0.63637
 C339 C 0.34460 0.32748 0.63659
 C340 C 0.36256 0.32785 0.65462
 C341 C 0.36240 0.34580 0.67220
 C342 C 0.34428 0.36362 0.67197
 C343 C 0.31063 0.38181 0.65922
 N344 N 0.31834 0.39330 0.67960
 C345 C 0.33887 0.38237 0.68754
 C346 C 0.38103 0.34091 0.68807
 N347 N 0.39241 0.32047 0.68049
 C348 C 0.38131 0.31234 0.66008
 C349 C 0.33949 0.31145 0.61811
 N350 N 0.31898 0.31894 0.60677
 C351 C 0.31102 0.33945 0.61774
 H352 H 0.29435 0.38621 0.64919
 H353 H 0.34873 0.38737 0.70380
 H354 H 0.38558 0.35111 0.70423
 H355 H 0.38620 0.29600 0.65034
 H356 H 0.34959 0.29525 0.61365
 H357 H 0.29467 0.34916 0.61286
 C358 C 0.32823 0.86230 0.15486
 C359 C 0.32836 0.84429 0.13684
 C360 C 0.34625 0.82668 0.13687
 C361 C 0.36423 0.82685 0.15488
 C362 C 0.36409 0.84462 0.17264
 C363 C 0.34599 0.86244 0.17262
 C364 C 0.31238 0.88085 0.16017
 N365 N 0.32017 0.89209 0.18066
 C366 C 0.34069 0.88101 0.18842
 C367 C 0.38270 0.83957 0.18846
 N368 N 0.39405 0.81919 0.18071
 C369 C 0.38297 0.81126 0.16021
 C370 C 0.34116 0.81087 0.11821
 N371 N 0.32066 0.81849 0.10694
 C372 C 0.31268 0.83888 0.11813
 H373 H 0.29606 0.88551 0.15028
 H374 H 0.35069 0.88571 0.20466
 H375 H 0.38722 0.84960 0.20474
 H376 H 0.38782 0.79500 0.15034
 H377 H 0.35127 0.79473 0.11357
 H378 H 0.29635 0.84865 0.11333
 C379 C 0.82870 0.36235 0.15463
 C380 C 0.82868 0.34442 0.13653
 C381 C 0.84649 0.32674 0.13642
 C382 C 0.86451 0.32672 0.15438
 C383 C 0.86454 0.34440 0.17222
 C384 C 0.84653 0.36232 0.17235
 C385 C 0.81297 0.38097 0.16008
 N386 N 0.82088 0.39208 0.18059
 C387 C 0.84137 0.38086 0.18824
 C388 C 0.88320 0.33911 0.18794
 N389 N 0.89437 0.31870 0.18003
 C390 C 0.88314 0.31097 0.15953
 C391 C 0.84129 0.31103 0.11773
 N392 N 0.82080 0.31875 0.10654
 C393 C 0.81292 0.33913 0.11784
 H394 H 0.79665 0.38575 0.15025
 H395 H 0.85144 0.38545 0.20447
 H396 H 0.88795 0.34895 0.20429
 H397 H 0.88775 0.29475 0.14948
 H398 H 0.85134 0.29486 0.11301
 H399 H 0.79660 0.34897 0.11313
 C400 C 0.82912 0.86569 0.65482
 C401 C 0.82910 0.84766 0.63683
 C402 C 0.84683 0.82989 0.63691
 C403 C 0.86477 0.82990 0.65495
 C404 C 0.86478 0.84768 0.67269
 C405 C 0.84686 0.86568 0.67262
 C406 C 0.81340 0.88434 0.66010
 N407 N 0.82121 0.89551 0.68061
 C408 C 0.84164 0.88429 0.68841
 C409 C 0.88329 0.84242 0.68858
 N410 N 0.89443 0.82191 0.68086
 C411 C 0.88331 0.81410 0.66033
 C412 C 0.84155 0.81405 0.61832
 N413 N 0.82111 0.82181 0.60706
 C414 C 0.81334 0.84231 0.61818
 H415 H 0.79712 0.88909 0.65019
 H416 H 0.85160 0.88890 0.70471
 H417 H 0.88789 0.85240 0.70486
 H418 H 0.88800 0.79777 0.65048
 H419 H 0.85149 0.79777 0.61377
 H420 H 0.79706 0.85218 0.61340
 C421 C 0.67332 0.63774 0.65602
 C422 C 0.67339 0.65554 0.63790
 C423 C 0.65556 0.67320 0.63768
 C424 C 0.63744 0.67330 0.65560
 C425 C 0.63738 0.65573 0.67349
 C426 C 0.65543 0.63785 0.67371
 C427 C 0.68906 0.61919 0.66147
 N428 N 0.68111 0.60816 0.68197
 C429 C 0.66058 0.61938 0.68961
 C430 C 0.61862 0.66102 0.68915
 N431 N 0.60738 0.68133 0.68115
 C432 C 0.61868 0.68899 0.66067
 C433 C 0.66090 0.68877 0.61893
 N434 N 0.68147 0.68096 0.60788
 C435 C 0.68927 0.66067 0.61928
 H436 H 0.70540 0.61438 0.65164
 H437 H 0.65047 0.61482 0.70583
 H438 H 0.61391 0.65118 0.70546
 H439 H 0.61394 0.70513 0.65063
 H440 H 0.65096 0.70493 0.61401
 H441 H 0.70559 0.65073 0.61478
 C442 C 0.67355 0.13636 0.15556
 C443 C 0.67335 0.15421 0.13743
 C444 C 0.65526 0.17162 0.13730
 C445 C 0.63716 0.17144 0.15523
 C446 C 0.63737 0.15384 0.17307
 C447 C 0.65565 0.13622 0.17324
 C448 C 0.68947 0.11792 0.16102
 N449 N 0.68159 0.10676 0.18150
 C450 C 0.66094 0.11778 0.18911
 C451 C 0.61853 0.15880 0.18873
 N452 N 0.60699 0.17896 0.18080
 C453 C 0.61818 0.18683 0.16034
 C454 C 0.66023 0.18727 0.11853
 N455 N 0.68084 0.17978 0.10732
 C456 C 0.68903 0.15961 0.11867
 H457 H 0.70586 0.11326 0.15120
 H458 H 0.65080 0.11309 0.20527
 H459 H 0.61397 0.14885 0.20502
 H460 H 0.61320 0.20293 0.15033
 H461 H 0.64990 0.20322 0.11376
 H462 H 0.70547 0.14996 0.11393
 C463 C 0.17183 0.63537 0.15375
 C464 C 0.17197 0.65317 0.13565
 C465 C 0.15431 0.67097 0.13552
 C466 C 0.13627 0.67120 0.15351
 C467 C 0.13612 0.65361 0.17141
 C468 C 0.15404 0.63557 0.17153
 C469 C 0.18754 0.61680 0.15908
 N470 N 0.17970 0.60578 0.17963
 C471 C 0.15925 0.61706 0.18741
 C472 C 0.11745 0.65911 0.18712
 N473 N 0.10639 0.67953 0.17916
 C474 C 0.11772 0.68708 0.15864
 C475 C 0.15977 0.68656 0.11681
 N476 N 0.18026 0.67861 0.10573
 C477 C 0.18788 0.65821 0.11705
 H478 H 0.20380 0.61206 0.14909
 H479 H 0.14933 0.61248 0.20375
 H480 H 0.11259 0.64939 0.20348
 H481 H 0.11320 0.70323 0.14853
 H482 H 0.15001 0.70286 0.11200
 H483 H 0.20414 0.64817 0.11253
 C484 C 0.17117 0.13519 0.65550
 C485 C 0.17110 0.15305 0.63745
 C486 C 0.15341 0.17084 0.63754
 C487 C 0.13554 0.17099 0.65572
 C488 C 0.13561 0.15334 0.67354
 C489 C 0.15354 0.13533 0.67343
 C490 C 0.18693 0.11659 0.66069
 N491 N 0.17925 0.10555 0.68128
 C492 C 0.15886 0.11682 0.68924
 C493 C 0.11712 0.15869 0.68949
 N494 N 0.10591 0.17911 0.68175
 C495 C 0.11697 0.18679 0.66114
 C496 C 0.15865 0.18645 0.61878
 N497 N 0.17904 0.17852 0.60746
 C498 C 0.18680 0.15812 0.61869
 H499 H 0.20313 0.11178 0.65064
 H500 H 0.14900 0.11230 0.70562
 H501 H 0.11258 0.14880 0.70582
 H502 H 0.11219 0.20301 0.65124
 H503 H 0.14881 0.20273 0.61407
 H504 H 0.20300 0.14808 0.61397
 C505 C 0.32919 0.63423 0.34642
 C506 C 0.32945 0.65233 0.36427
 C507 C 0.34729 0.67002 0.36398
 C508 C 0.36514 0.66979 0.34579
 C509 C 0.36488 0.65189 0.32813
 C510 C 0.34677 0.63399 0.32845
 C511 C 0.31310 0.61582 0.34142
 N512 N 0.32052 0.60448 0.32086
 C513 C 0.34107 0.61538 0.31277
 C514 C 0.38334 0.65699 0.31206
 N515 N 0.39470 0.67749 0.31958
 C516 C 0.38377 0.68546 0.34015
 C517 C 0.34207 0.68603 0.38247
 N518 N 0.32156 0.67841 0.39380
 C519 C 0.31371 0.65783 0.38286
 H520 H 0.29684 0.61147 0.35157
 H521 H 0.35068 0.61053 0.29631
 H522 H 0.38775 0.64691 0.29578
 H523 H 0.38865 0.70182 0.34986
 H524 H 0.35198 0.70239 0.38694
 H525 H 0.29737 0.64798 0.38760
 C526 C 0.33001 0.13422 0.84581
 C527 C 0.32957 0.15202 0.86400
 C528 C 0.34708 0.17005 0.86431
 C529 C 0.36523 0.17052 0.84645
 C530 C 0.36566 0.15295 0.82849
 C531 C 0.34793 0.13469 0.82816
 C532 C 0.31445 0.11554 0.84013
 N533 N 0.32251 0.10476 0.81951
 C534 C 0.34296 0.11628 0.81203
 C535 C 0.38421 0.15880 0.81279
 N536 N 0.39493 0.17942 0.82083
 C537 C 0.38352 0.18676 0.84139
 C538 C 0.34130 0.18565 0.88294
 N539 N 0.32076 0.17751 0.89381
 C540 C 0.31342 0.15697 0.88243
 H541 H 0.29807 0.11054 0.84980
 H542 H 0.35306 0.11204 0.79570
 H543 H 0.38915 0.14922 0.79635
 H544 H 0.38773 0.20306 0.85149
 H545 H 0.35085 0.20211 0.88782
 H546 H 0.29718 0.14679 0.88676
 C547 C 0.82974 0.63668 0.84796
 C548 C 0.82965 0.65483 0.86577
 C549 C 0.84736 0.67265 0.86560
 C550 C 0.86539 0.67253 0.84762
 C551 C 0.86549 0.65462 0.83000
 C552 C 0.84754 0.63655 0.83017
 C553 C 0.81388 0.61810 0.84279
 N554 N 0.82165 0.60678 0.82235
 C555 C 0.84219 0.61786 0.81447
 C556 C 0.88404 0.65996 0.81408
 N557 N 0.89505 0.68061 0.82169
 C558 C 0.88383 0.68845 0.84216
 C559 C 0.84189 0.68871 0.88393
 N560 N 0.82132 0.68103 0.89509
 C561 C 0.81368 0.66035 0.88419
 H562 H 0.79754 0.61363 0.85276
 H563 H 0.85203 0.61307 0.79813
 H564 H 0.88878 0.65002 0.79780
 H565 H 0.88829 0.70486 0.85196
 H566 H 0.85172 0.70513 0.88832
 H567 H 0.79732 0.65051 0.88891
 C568 C 0.82943 0.13589 0.34799
 C569 C 0.82941 0.15424 0.36563
 C570 C 0.84725 0.17194 0.36533
 C571 C 0.86533 0.17153 0.34739
 C572 C 0.86534 0.15343 0.32996
 C573 C 0.84728 0.13549 0.33027
 C574 C 0.81350 0.11733 0.34292
 N575 N 0.82131 0.10578 0.32261
 C576 C 0.84192 0.11669 0.31473
 C577 C 0.88393 0.15842 0.31401
 N578 N 0.89510 0.17906 0.32139
 C579 C 0.88394 0.18722 0.34176
 C580 C 0.84186 0.18819 0.38353
 N581 N 0.82124 0.18072 0.39476
 C582 C 0.81348 0.16000 0.38401
 H583 H 0.79709 0.11301 0.35285
 H584 H 0.85182 0.11171 0.29848
 H585 H 0.88852 0.14818 0.29788
 H586 H 0.88862 0.20375 0.35129
 H587 H 0.85182 0.20455 0.38782
 H588 H 0.79707 0.15029 0.38883
 C589 C 0.66998 0.36406 0.34562
 C590 C 0.66979 0.34605 0.36353
 C591 C 0.65190 0.32838 0.36337
 C592 C 0.63398 0.32850 0.34531
 C593 C 0.63417 0.34628 0.32763
 C594 C 0.65227 0.36416 0.32779
 C595 C 0.68596 0.38253 0.34038
 N596 N 0.67834 0.39370 0.31987
 C597 C 0.65777 0.38266 0.31202
 C598 C 0.61569 0.34107 0.31165
 N599 N 0.60437 0.32061 0.31925
 C600 C 0.61536 0.31277 0.33979
 C601 C 0.65705 0.31249 0.38187
 N602 N 0.67757 0.32013 0.39315
 C603 C 0.68551 0.34061 0.38214
 H604 H 0.70231 0.38711 0.35029
 H605 H 0.64792 0.38728 0.29569
 H606 H 0.61126 0.35104 0.29536
 H607 H 0.61054 0.29643 0.34953
 H608 H 0.64699 0.29625 0.38636
 H609 H 0.70188 0.35038 0.38694
 C610 C 0.67192 0.86604 0.84617
 C611 C 0.67182 0.84810 0.86414
 C612 C 0.65400 0.83040 0.86409
 C613 C 0.63604 0.83041 0.84608
 C614 C 0.63612 0.84812 0.82831
 C615 C 0.65419 0.86607 0.82836
 C616 C 0.68783 0.88456 0.84098
 N617 N 0.68017 0.89575 0.82049
 C618 C 0.65965 0.88465 0.81261
 C619 C 0.61750 0.84279 0.81249
 N620 N 0.60626 0.82235 0.82028
 C621 C 0.61741 0.81464 0.84078
 C622 C 0.65923 0.81462 0.88267
 N623 N 0.67974 0.82235 0.89386
 C624 C 0.68761 0.84280 0.88273
 H625 H 0.70410 0.88913 0.85101
 H626 H 0.64983 0.88939 0.79628
 H627 H 0.61283 0.85262 0.79616
 H628 H 0.61275 0.79841 0.85075
 H629 H 0.64928 0.79834 0.88733
 H630 H 0.70394 0.85271 0.88736
 C631 C 0.17170 0.36423 0.84715
 C632 C 0.17190 0.34624 0.86505
 C633 C 0.15417 0.32845 0.86514
 C634 C 0.13603 0.32841 0.84732
 C635 C 0.13583 0.34616 0.82959
 C636 C 0.15381 0.36421 0.82950
 C637 C 0.18749 0.38281 0.84185
 N638 N 0.17961 0.39402 0.82146
 C639 C 0.15905 0.38285 0.81374
 C640 C 0.11709 0.34073 0.81395
 N641 N 0.10606 0.32021 0.82180
 C642 C 0.11746 0.31252 0.84218
 C643 C 0.15972 0.31261 0.88357
 N644 N 0.18034 0.32041 0.89454
 C645 C 0.18795 0.34095 0.88341
 H646 H 0.20384 0.38740 0.85174
 H647 H 0.14909 0.38757 0.79750
 H648 H 0.11219 0.35056 0.79769
 H649 H 0.11300 0.29624 0.85215
 H650 H 0.14995 0.29624 0.88826
 H651 H 0.20429 0.35092 0.88788
 C652 C 0.17127 0.86325 0.34667
 C653 C 0.17117 0.84503 0.36435
 C654 C 0.15336 0.82729 0.36401
 C655 C 0.13540 0.82757 0.34597
 C656 C 0.13551 0.84558 0.32851
 C657 C 0.15355 0.86352 0.32886
 C658 C 0.18722 0.88179 0.34169
 N659 N 0.17957 0.89321 0.32132
 C660 C 0.15902 0.88225 0.31333
 C661 C 0.11700 0.84054 0.31251
 N662 N 0.10573 0.81996 0.31988
 C663 C 0.11678 0.81188 0.34030
 C664 C 0.15865 0.81121 0.38232
 N665 N 0.17916 0.81884 0.39363
 C666 C 0.18696 0.83947 0.38283
 H667 H 0.20355 0.88618 0.35171
 H668 H 0.14925 0.88714 0.29702
 H669 H 0.11249 0.85072 0.29638
 H670 H 0.11199 0.79544 0.34987
 H671 H 0.14869 0.79486 0.38666
 H672 H 0.20329 0.84928 0.38771
 O673 O 0.25217 1.02237 0.21901
 O674 O 0.21852 0.97559 0.25262
 O675 O 0.21885 1.02281 0.25242
 O676 O 0.25168 0.97518 0.21911
 O677 O 0.28017 0.97525 0.24737
 O678 O 0.24730 1.02287 0.28071
 O679 O 0.24699 0.97564 0.28091
 O680 O 0.28062 1.02245 0.24731
 Cu681 Cu 0.23242 0.99900 0.23294
 Cu682 Cu 0.26664 0.99905 0.26694
 C683 C 0.27201 1.03042 0.22753
 C684 C 0.22716 0.96758 0.27238
 C685 C 0.22757 1.03100 0.27211
 C686 C 0.27142 0.96706 0.22769
 O687 O 0.28032 0.47644 0.74820
 O688 O 0.24739 0.52397 0.78165
 O689 O 0.24677 0.47670 0.78138
 O690 O 0.28074 0.52369 0.74830
 O691 O 0.25241 0.52389 0.71988
 O692 O 0.21846 0.47688 0.75294
 O693 O 0.21906 0.52412 0.75324
 O694 O 0.25199 0.47668 0.71979
 Cu695 Cu 0.26666 0.50016 0.76776
 Cu696 Cu 0.23262 0.50043 0.73360
 C697 C 0.27165 0.46842 0.72842
 C698 C 0.22773 0.53220 0.77300
 C699 C 0.22697 0.46872 0.77269
 C700 C 0.27222 0.53186 0.72856
 O701 O 0.75371 -0.02399 0.28174
 O702 O 0.72106 0.02380 0.24855
 O703 O 0.71999 -0.02340 0.24886
 O704 O 0.75407 0.02328 0.28219
 O705 O 0.78247 0.02304 0.25378
 O706 O 0.74830 -0.02370 0.22035
 O707 O 0.74947 0.02350 0.22015
 O708 O 0.78205 -0.02424 0.25327
 Cu709 Cu 0.73436 -0.00003 0.26821
 Cu710 Cu 0.76845 -0.00039 0.23403
 C711 C 0.77334 -0.03233 0.27298
 C712 C 0.72981 0.03183 0.22880
 C713 C 0.72843 -0.03155 0.22904
 C714 C 0.77391 0.03120 0.27357
 O715 O 0.75329 0.47720 0.78152
 O716 O 0.72081 0.52504 0.74846
 O717 O 0.72035 0.47788 0.74784
 O718 O 0.75420 0.52445 0.78168
 O719 O 0.78269 0.52435 0.75336
 O720 O 0.74889 0.47771 0.71957
 O721 O 0.74930 0.52492 0.72013
 O722 O 0.78185 0.47709 0.75326
 Cu723 Cu 0.73430 0.50116 0.76774
 Cu724 Cu 0.76858 0.50099 0.73374
 C725 C 0.77298 0.46893 0.77290
 C726 C 0.72959 0.53315 0.72879
 C727 C 0.72896 0.46983 0.72804
 C728 C 0.77408 0.53242 0.77315
 O729 O 0.24572 0.47560 0.21942
 O730 O 0.27997 0.52242 0.25240
 O731 O 0.27928 0.47523 0.25245
 O732 O 0.24608 0.52277 0.21967
 O733 O 0.21795 0.52302 0.24836
 O734 O 0.25115 0.47543 0.28113
 O735 O 0.25188 0.52265 0.28112
 O736 O 0.21757 0.47578 0.24808
 Cu737 Cu 0.26560 0.49899 0.23309
 Cu738 Cu 0.23180 0.49926 0.26758
 C739 C 0.22596 0.46765 0.22822
 C740 C 0.27165 0.53055 0.27229
 C741 C 0.27074 0.46717 0.27226
 C742 C 0.22647 0.53103 0.22852
 O743 O 0.74761 1.02578 0.78075
 O744 O 0.78091 0.97854 0.74732
 O745 O 0.78103 1.02579 0.74747
 O746 O 0.74739 0.97854 0.78052
 O747 O 0.71911 0.97854 0.75204
 O748 O 0.75275 1.02578 0.71901
 O749 O 0.75262 0.97854 0.71886
 O750 O 0.71932 1.02576 0.75228
 Cu751 Cu 0.76709 1.00215 0.76688
 Cu752 Cu 0.73310 1.00217 0.73267
 C753 C 0.72789 1.03387 0.77207
 C754 C 0.77233 0.97043 0.72753
 C755 C 0.77248 1.03390 0.72772
 C756 C 0.72764 0.97044 0.77181
 O757 O 0.74873 0.52286 0.28124
 O758 O 0.78142 0.47527 0.24765
 O759 O 0.78198 0.52254 0.24778
 O760 O 0.74833 0.47560 0.28132
 O761 O 0.71980 0.47581 0.25310
 O762 O 0.75344 0.52261 0.21957
 O763 O 0.75287 0.47539 0.21946
 O764 O 0.72022 0.52300 0.25301
 Cu765 Cu 0.76801 0.49904 0.26734
 Cu766 Cu 0.73371 0.49922 0.23344
 C767 C 0.72901 0.53110 0.27271
 C768 C 0.77261 0.46717 0.22796
 C769 C 0.77330 0.53064 0.22808
 C770 C 0.72843 0.46769 0.27281
 O771 O 0.24838 -0.02437 0.71813
 O772 O 0.28203 0.02256 0.75167
 O773 O 0.28204 -0.02467 0.75114
 O774 O 0.24850 0.02285 0.71855
 O775 O 0.22026 0.02255 0.74713
 O776 O 0.25383 -0.02479 0.77974
 O777 O 0.25377 0.02239 0.78022
 O778 O 0.22019 -0.02464 0.74675
 Cu779 Cu 0.26809 -0.00088 0.73198
 Cu780 Cu 0.23416 -0.00115 0.76635
 C781 C 0.22866 -0.03255 0.72683
 C782 C 0.27351 0.03053 0.77155
 C783 C 0.27353 -0.03284 0.77091
 C784 C 0.22877 0.03082 0.72740
 O785 O 0.25274 0.21769 0.97604
 O786 O 0.21921 0.25071 1.02343
 O787 O 0.21943 0.25096 0.97615
 O788 O 0.25273 0.21766 1.02331
 O789 O 0.28111 0.24605 1.02352
 O790 O 0.24783 0.27933 0.97636
 O791 O 0.24758 0.27910 1.02360
 O792 O 0.28113 0.24606 0.97622
 Cu793 Cu 0.23316 0.23138 0.99971
 Cu794 Cu 0.26729 0.26550 0.99994
 C795 C 0.27254 0.22633 0.96804
 C796 C 0.22777 0.27045 1.03160
 C797 C 0.22806 0.27074 0.96821
 C798 C 0.27249 0.22627 1.03147
 O799 O 0.24877 0.78079 0.47576
 O800 O 0.28237 0.74815 0.52328
 O801 O 0.28260 0.74801 0.47592
 O802 O 0.24888 0.78122 0.52307
 O803 O 0.22067 0.75267 0.52317
 O804 O 0.25439 0.71945 0.47606
 O805 O 0.25413 0.71962 0.52334
 O806 O 0.22060 0.75220 0.47592
 Cu807 Cu 0.26851 0.76743 0.49949
 Cu808 Cu 0.23461 0.73310 0.49963
 C809 C 0.22904 0.77196 0.46774
 C810 C 0.27383 0.72842 0.53144
 C811 C 0.27412 0.72816 0.46793
 C812 C 0.22914 0.77252 0.53118
 O813 O 0.28118 0.75215 -0.02414
 O814 O 0.24754 0.71876 0.02290
 O815 O 0.24783 0.71885 -0.02445
 O816 O 0.28091 0.75204 0.02322
 O817 O 0.25251 0.78031 0.02329
 O818 O 0.21944 0.74713 -0.02439
 O819 O 0.21916 0.74704 0.02296
 O820 O 0.25279 0.78044 -0.02406
 Cu821 Cu 0.26723 0.73260 -0.00061
 Cu822 Cu 0.23311 0.76658 -0.00056
 C823 C 0.27258 0.77187 -0.03217
 C824 C 0.22775 0.72732 0.03101
 C825 C 0.22811 0.72746 -0.03260
 C826 C 0.27223 0.77170 0.03145
 O827 O 0.21729 0.24632 0.47647
 O828 O 0.25042 0.27991 0.52387
 O829 O 0.25050 0.27976 0.47652
 O830 O 0.21708 0.24658 0.52388
 O831 O 0.24556 0.21840 0.52396
 O832 O 0.27895 0.25154 0.47657
 O833 O 0.27890 0.25172 0.52390
 O834 O 0.24576 0.21813 0.47661
 Cu835 Cu 0.23094 0.26598 0.50018
 Cu836 Cu 0.26516 0.23210 0.50028
 C837 C 0.22603 0.22663 0.46839
 C838 C 0.27021 0.27141 0.53199
 C839 C 0.27029 0.27119 0.46841
 C840 C 0.22577 0.22697 0.53207
 O841 O 0.74596 0.78148 0.97677
 O842 O 0.77893 0.74820 1.02413
 O843 O 0.77926 0.74825 0.97690
 O844 O 0.74532 0.78112 1.02405
 O845 O 0.71700 0.75268 1.02369
 O846 O 0.75092 0.71983 0.97643
 O847 O 0.75063 0.71973 1.02369
 O848 O 0.71758 0.75309 0.97633
 Cu849 Cu 0.76521 0.76765 1.00050
 Cu850 Cu 0.73115 0.73347 0.99999
 C851 C 0.72628 0.77287 0.96844
 C852 C 0.77034 0.72837 1.03198
 C853 C 0.77079 0.72851 0.96863
 C854 C 0.72551 0.77239 1.03197
 O855 O 0.74643 0.28200 0.47586
 O856 O 0.77969 0.24926 0.52346
 O857 O 0.77983 0.24882 0.47619
 O858 O 0.74633 0.28243 0.52318
 O859 O 0.71796 0.25403 0.52340
 O860 O 0.75146 0.22043 0.47632
 O861 O 0.75133 0.22085 0.52363
 O862 O 0.71804 0.25362 0.47607
 Cu863 Cu 0.76592 0.26850 0.49964
 Cu864 Cu 0.73182 0.23437 0.49986
 C865 C 0.72666 0.27328 0.46783
 C866 C 0.77108 0.22958 0.53168
 C867 C 0.77128 0.22899 0.46823
 C868 C 0.72656 0.27385 0.53136
 O869 O 0.78078 0.25220 -0.02449
 O870 O 0.74814 0.21842 0.02305
 O871 O 0.74749 0.21881 -0.02439
 O872 O 0.78092 0.25228 0.02290
 O873 O 0.75227 0.28029 0.02333
 O874 O 0.71891 0.24689 -0.02395
 O875 O 0.71949 0.24643 0.02344
 O876 O 0.75219 0.28026 -0.02405
 Cu877 Cu 0.76721 0.23260 -0.00078
 Cu878 Cu 0.73282 0.26628 -0.00027
 C879 C 0.77194 0.27185 -0.03243
 C880 C 0.72839 0.22682 0.03144
 C881 C 0.72763 0.22732 -0.03232
 C882 C 0.77215 0.27185 0.03125
 O883 O 0.78069 0.75474 0.47686
 O884 O 0.74789 0.72131 0.52444
 O885 O 0.74800 0.72085 0.47712
 O886 O 0.78094 0.75489 0.52419
 O887 O 0.75223 0.78285 0.52419
 O888 O 0.71925 0.74877 0.47701
 O889 O 0.71915 0.74924 0.52440
 O890 O 0.75198 0.78269 0.47680
 Cu891 Cu 0.76728 0.73514 0.50066
 Cu892 Cu 0.73274 0.76870 0.50060
 C893 C 0.77181 0.77426 0.46864
 C894 C 0.72803 0.72970 0.53258
 C895 C 0.72814 0.72913 0.46897
 C896 C 0.77211 0.77452 0.53228
 O897 O 1.02492 0.28084 0.24832
 O898 O 0.97773 0.24767 0.28207
 O899 O 1.02512 0.24766 0.28171
 O900 O 0.97754 0.28079 0.24867
 O901 O 0.97736 0.25235 0.22034
 O902 O 1.02484 0.21928 0.25334
 O903 O 0.97755 0.21925 0.25372
 O904 O 1.02466 0.25242 0.21998
 Cu905 Cu 1.00136 0.26711 0.26806
 Cu906 Cu 1.00109 0.23296 0.23399
 C907 C 1.03285 0.27218 0.22849
 C908 C 0.96956 0.22791 0.27352
 C909 C 1.03310 0.22790 0.27303
 C910 C 0.96931 0.27209 0.22898
 O911 O 0.47614 0.25290 0.71861
 O912 O 0.52401 0.22028 0.75165
 O913 O 0.47669 0.21955 0.75174
 O914 O 0.52351 0.25332 0.71816
 O915 O 0.52334 0.28166 0.74658
 O916 O 0.47657 0.24785 0.78020
 O917 O 0.52390 0.24862 0.78006
 O918 O 0.47600 0.28122 0.74705
 Cu919 Cu 0.50011 0.23366 0.73216
 Cu920 Cu 0.49994 0.26771 0.76634
 C921 C 0.46786 0.27252 0.72733
 C922 C 0.53213 0.22898 0.77138
 C923 C 0.46863 0.22804 0.77159
 C924 C 0.53144 0.27314 0.72675
 O925 O -0.02441 0.28106 0.75365
 O926 O 0.02305 0.24789 0.72028
 O927 O -0.02431 0.24788 0.72020
 O928 O 0.02297 0.28133 0.75347
 O929 O 0.02290 0.25310 0.78188
 O930 O -0.02444 0.21960 0.74857
 O931 O 0.02295 0.21963 0.74866
 O932 O -0.02452 0.25279 0.78201
 Cu933 Cu -0.00068 0.26739 0.73404
 Cu934 Cu -0.00076 0.23343 0.76815
 C935 C -0.03263 0.27245 0.77337
 C936 C 0.03112 0.22820 0.72891
 C937 C -0.03250 0.22819 0.72881
 C938 C 0.03105 0.27280 0.77323
 O939 O 0.47473 0.27918 0.25147
 O940 O 0.52264 0.24641 0.21837
 O941 O 0.47524 0.24578 0.21819
 O942 O 0.52207 0.27963 0.25178
 O943 O 0.52219 0.25137 0.28016
 O944 O 0.47535 0.21755 0.24660
 O945 O 0.52271 0.21817 0.24677
 O946 O 0.47485 0.25095 0.27988
 Cu947 Cu 0.49865 0.26560 0.23208
 Cu948 Cu 0.49877 0.23165 0.26621
 C949 C 0.46661 0.27056 0.27122
 C950 C 0.53091 0.22683 0.22707
 C951 C 0.46727 0.22601 0.22680
 C952 C 0.53016 0.27115 0.27157
 O953 O 0.97704 0.75297 0.71901
 O954 O 1.02454 0.71976 0.75199
 O955 O 0.97720 0.71953 0.75210
 O956 O 1.02440 0.75302 0.71872
 O957 O 1.02448 0.78127 0.74723
 O958 O 0.97734 0.74776 0.78062
 O959 O 1.02469 0.74803 0.78048
 O960 O 0.97716 0.78120 0.74754
 Cu961 Cu 1.00079 0.73347 0.73257
 Cu962 Cu 1.00092 0.76742 0.76685
 C963 C 0.96898 0.77266 0.72777
 C964 C 1.03274 0.72834 0.77174
 C965 C 0.96921 0.72805 0.77196
 C966 C 1.03251 0.77274 0.72739
 O967 O 0.52445 0.78014 0.24783
 O968 O 0.47727 0.74632 0.28086
 O969 O 0.52462 0.74664 0.28085
 O970 O 0.47713 0.77951 0.24756
 O971 O 0.47743 0.75127 0.21904
 O972 O 0.52498 0.71843 0.25231
 O973 O 0.47760 0.71807 0.25236
 O974 O 0.52481 0.75195 0.21927
 Cu975 Cu 0.50084 0.76600 0.26716
 Cu976 Cu 0.50125 0.73208 0.23286
 C977 C 0.53270 0.77173 0.22803
 C978 C 0.46934 0.72656 0.27213
 C979 C 0.53294 0.72704 0.27214
 C980 C 0.46913 0.77087 0.22775
 O981 O 0.02281 0.75165 0.28067
 O982 O -0.02443 0.71836 0.24712
 O983 O 0.02296 0.71834 0.24734
 O984 O -0.02455 0.75202 0.28015
 O985 O -0.02422 0.78014 0.25163
 O986 O 0.02331 0.74651 0.21888
 O987 O -0.02406 0.74651 0.21863
 O988 O 0.02314 0.77984 0.25222
 Cu989 Cu -0.00085 0.73225 0.26669
 Cu990 Cu -0.00041 0.76608 0.23246
 C991 C 0.03108 0.77130 0.27205
 C992 C -0.03234 0.72687 0.22727
 C993 C 0.03129 0.72683 0.22762
 C994 C -0.03253 0.77169 0.27137
 O995 O 0.52343 0.75538 0.78003
 O996 O 0.47636 0.72139 0.74700
 O997 O 0.52370 0.72181 0.74701
 O998 O 0.47610 0.75499 0.78002
 O999 O 0.47592 0.78304 0.75143
 O1000 O 0.52363 0.74983 0.71839
 O1001 O 0.47621 0.74940 0.71838
 O1002 O 0.52334 0.78343 0.75145
 Cu1003 Cu 0.49991 0.73557 0.76640
 Cu1004 Cu 0.49975 0.76926 0.73202
 C1005 C 0.53148 0.77505 0.77127
 C1006 C 0.46821 0.72972 0.72718
 C1007 C 0.53185 0.73027 0.72721
 C1008 C 0.46784 0.77454 0.77125
 C1009 C 0.42183 0.27199 0.28973
 C1010 C 0.42335 0.28170 0.31612
 C1011 C 0.41141 0.30524 0.30756
 C1012 C 0.40942 0.29577 0.28148
 C1013 C 0.43614 0.31688 0.30234
 C1014 C 0.44854 0.29304 0.31054
 C1015 C 0.44676 0.28345 0.28435
 C1016 C 0.43460 0.30710 0.27597
 H1017 H 0.41621 0.25343 0.28433
 H1018 H 0.41862 0.27132 0.33269
 H1019 H 0.39300 0.29711 0.26988
 H1020 H 0.44157 0.33548 0.30779
 H1021 H 0.46488 0.29179 0.32225
 H1022 H 0.43942 0.31740 0.25936
 C1023 C 0.42320 0.77568 0.78991
 C1024 C 0.42479 0.78540 0.81629
 C1025 C 0.41252 0.80879 0.80776
 C1026 C 0.41043 0.79930 0.78171
 C1027 C 0.43705 0.82077 0.80239
 C1028 C 0.44979 0.79707 0.81053
 C1029 C 0.44797 0.78743 0.78436
 C1030 C 0.43546 0.81092 0.77603
 H1031 H 0.41778 0.75704 0.78456
 H1032 H 0.42044 0.77485 0.83286
 H1033 H 0.39393 0.80041 0.77020
 H1034 H 0.44230 0.83943 0.80779
 H1035 H 0.46623 0.79603 0.82213
 H1036 H 0.44007 0.82125 0.75938
 C1037 C -0.07727 0.29089 0.77449
 C1038 C -0.09010 0.28272 0.79818
 C1039 C -0.08808 0.30874 0.80763
 C1040 C -0.07576 0.31724 0.78415
 C1041 C -0.06358 0.30354 0.81965
 C1042 C -0.06508 0.27721 0.80984
 C1043 C -0.05253 0.28551 0.78627
 C1044 C -0.05077 0.31165 0.79586
 H1045 H -0.08263 0.28548 0.75582
 H1046 H -0.10658 0.27116 0.79933
 H1047 H -0.08008 0.33371 0.77350
 H1048 H -0.05839 0.30900 0.83834
 H1049 H -0.06048 0.26065 0.82024
 H1050 H -0.03436 0.32331 0.79478
 C1051 C -0.05049 0.79463 0.31047
 C1052 C -0.06287 0.81845 0.30213
 C1053 C -0.08759 0.80685 0.30742
 C1054 C -0.07569 0.78334 0.31616
 C1055 C -0.08967 0.79723 0.28142
 C1056 C -0.06444 0.80847 0.27582
 C1057 C -0.05231 0.78485 0.28435
 C1058 C -0.07726 0.77348 0.28982
 H1059 H -0.03414 0.79342 0.32217
 H1060 H -0.05739 0.83708 0.30744
 H1061 H -0.08026 0.77293 0.33276
 H1062 H -0.10608 0.79850 0.26981
 H1063 H -0.05961 0.81864 0.25913
 H1064 H -0.08292 0.75489 0.28456
 C1065 C 0.55079 0.70459 0.31145
 C1066 C 0.56329 0.68076 0.30322
 C1067 C 0.58796 0.69246 0.30856
 C1068 C 0.57592 0.71599 0.31715
 C1069 C 0.59009 0.70191 0.28252
 C1070 C 0.56496 0.69053 0.27689
 C1071 C 0.55270 0.71416 0.28530
 C1072 C 0.57758 0.72567 0.29080
 H1073 H 0.53438 0.70582 0.32312
 H1074 H 0.55787 0.66216 0.30859
 H1075 H 0.58053 0.72641 0.33377
 H1076 H 0.60657 0.70059 0.27097
 H1077 H 0.56025 0.68020 0.26024
 H1078 H 0.58319 0.74424 0.28548
 C1079 C 0.55006 0.18985 0.79384
 C1080 C 0.57519 0.18424 0.78240
 C1081 C 0.58719 0.19276 0.80604
 C1082 C 0.56253 0.19798 0.81779
 C1083 C 0.58934 0.21878 0.79671
 C1084 C 0.57684 0.21059 0.77283
 C1085 C 0.55194 0.21598 0.78436
 C1086 C 0.56417 0.22430 0.80810
 H1087 H 0.53365 0.17820 0.79254
 H1088 H 0.57967 0.16776 0.77176
 H1089 H 0.55708 0.19253 0.83641
 H1090 H 0.60581 0.23033 0.79809
 H1091 H 0.58245 0.21599 0.75425
 H1092 H 0.55943 0.24087 0.81850
 C1093 C 1.07733 0.70965 0.77306
 C1094 C 1.08993 0.71782 0.79688
 C1095 C 1.08768 0.69183 0.80627
 C1096 C 1.07558 0.68332 0.78268
 C1097 C 1.06307 0.69718 0.81808
 C1098 C 1.06482 0.72348 0.80834
 C1099 C 1.05249 0.71518 0.78464
 C1100 C 1.05050 0.68907 0.79417
 H1101 H 1.08292 0.71499 0.75445
 H1102 H 1.10645 0.72929 0.79820
 H1103 H 1.07997 0.66679 0.77207
 H1104 H 1.05765 0.69179 0.83672
 H1105 H 1.06019 0.74009 0.81873
 H1106 H 1.03403 0.67750 0.79293
 C1107 C 1.07758 0.20904 0.27423
 C1108 C 1.09029 0.21694 0.29809
 C1109 C 1.08788 0.19088 0.30727
 C1110 C 1.07566 0.18266 0.28364
 C1111 C 1.06334 0.19632 0.31918
 C1112 C 1.06524 0.22269 0.30964
 C1113 C 1.05281 0.21466 0.28592
 C1114 C 1.05065 0.18849 0.29524
 H1115 H 1.08316 0.21450 0.25565
 H1116 H 1.10690 0.22828 0.29945
 H1117 H 1.07990 0.16618 0.27288
 H1118 H 1.05792 0.19081 0.33779
 H1119 H 1.06074 0.23925 0.32017
 H1120 H 1.03410 0.17704 0.29395
 C1121 C 0.57584 0.29229 0.72491
 C1122 C 0.58825 0.28433 0.70092
 C1123 C 0.58577 0.31033 0.69163
 C1124 C 0.57381 0.31860 0.71539
 C1125 C 0.56107 0.30474 0.68012
 C1126 C 0.56309 0.27843 0.68975
 C1127 C 0.55093 0.28654 0.71361
 C1128 C 0.54867 0.31265 0.70418
 H1129 H 0.58165 0.28696 0.74343
 H1130 H 0.60484 0.27304 0.69936
 H1131 H 0.57830 0.33518 0.72589
 H1132 H 0.55545 0.31012 0.66156
 H1133 H 0.55848 0.26180 0.67936
 H1134 H 0.53214 0.32405 0.70566
 C1135 C 0.57716 0.79092 0.22652
 C1136 C 0.58966 0.78309 0.20251
 C1137 C 0.58718 0.80914 0.19338
 C1138 C 0.57518 0.81731 0.21715
 C1139 C 0.56253 0.80363 0.18174
 C1140 C 0.56453 0.77727 0.19122
 C1141 C 0.55229 0.78522 0.21510
 C1142 C 0.55005 0.81140 0.20583
 H1143 H 0.58291 0.78546 0.24502
 H1144 H 0.60626 0.77180 0.20095
 H1145 H 0.57955 0.83381 0.22784
 H1146 H 0.55694 0.80914 0.16321
 H1147 H 0.55995 0.76071 0.18072
 H1148 H 0.53352 0.82278 0.20732
 C1149 C 1.05013 0.29450 0.18883
 C1150 C 1.06258 0.31853 0.19668
 C1151 C 1.08724 0.30697 0.19113
 C1152 C 1.07526 0.28325 0.18287
 C1153 C 1.08976 0.29779 0.21721
 C1154 C 1.06462 0.30900 0.22308
 C1155 C 1.05240 0.28518 0.21504
 C1156 C 1.07728 0.27384 0.20930
 H1157 H 1.03359 0.29302 0.17742
 H1158 H 1.05698 0.33703 0.19122
 H1159 H 1.07961 0.27263 0.16631
 H1160 H 1.10637 0.29935 0.22852
 H1161 H 1.06003 0.31942 0.23972
 H1162 H 1.08305 0.25537 0.21472
 C1163 C 1.06415 0.77773 0.69041
 C1164 C 1.06238 0.80403 0.68075
 C1165 C 1.08717 0.80938 0.69218
 C1166 C 1.08939 0.78337 0.70152
 C1167 C 1.07537 0.81783 0.71595
 C1168 C 1.05013 0.81211 0.70482
 C1169 C 1.05214 0.78599 0.71428
 C1170 C 1.07713 0.79150 0.72552
 H1171 H 1.05934 0.76113 0.68006
 H1172 H 1.05678 0.80945 0.66220
 H1173 H 1.10586 0.77190 0.69994
 H1174 H 1.08009 0.83439 0.72638
 H1175 H 1.03372 0.82369 0.70632
 H1176 H 1.08292 0.78614 0.74404
 C1177 C 0.45057 0.69003 0.70503
 C1178 C 0.42542 0.68438 0.71643
 C1179 C 0.41343 0.69249 0.69270
 C1180 C 0.43812 0.69778 0.68100
 C1181 C 0.41119 0.71861 0.70185
 C1182 C 0.42365 0.71081 0.72580
 C1183 C 0.44855 0.71627 0.71429
 C1184 C 0.43634 0.72420 0.69047
 H1185 H 0.46702 0.67852 0.70647
 H1186 H 0.42082 0.66793 0.72704
 H1187 H 0.44363 0.69216 0.66244
 H1188 H 0.39468 0.73001 0.70033
 H1189 H 0.41796 0.71639 0.74433
 H1190 H 0.44103 0.74068 0.67994
 C1191 C 0.44988 0.18647 0.20423
 C1192 C 0.42468 0.18064 0.21545
 C1193 C 0.41279 0.18893 0.19173
 C1194 C 0.43753 0.19439 0.18020
 C1195 C 0.41043 0.21496 0.20109
 C1196 C 0.42278 0.20699 0.22504
 C1197 C 0.44772 0.21261 0.21371
 C1198 C 0.43562 0.22072 0.18989
 H1199 H 0.46635 0.17499 0.20565
 H1200 H 0.42009 0.16410 0.22590
 H1201 H 0.44314 0.18894 0.16162
 H1202 H 0.39389 0.22632 0.19958
 H1203 H 0.41698 0.21239 0.24358
 H1204 H 0.44031 0.23730 0.17953
 C1205 C -0.07697 0.72519 0.20865
 C1206 C -0.07532 0.71560 0.18223
 C1207 C -0.08726 0.69197 0.19067
 C1208 C -0.08938 0.70132 0.21678
 C1209 C -0.06254 0.68043 0.19589
 C1210 C -0.05013 0.70436 0.18781
 C1211 C -0.05204 0.71385 0.21403
 C1212 C -0.06420 0.69011 0.22229
 H1213 H -0.08265 0.74371 0.21410
 H1214 H -0.07998 0.72603 0.16568
 H1215 H -0.10584 0.69986 0.22834
 H1216 H -0.05705 0.66187 0.19039
 H1217 H -0.03374 0.70575 0.17614
 H1218 H -0.05944 0.67977 0.23887
 C1219 C -0.06474 0.19161 0.72369
 C1220 C -0.08979 0.20314 0.71810
 C1221 C -0.08759 0.19390 0.69196
 C1222 C -0.06305 0.18202 0.69724
 C1223 C -0.07535 0.21744 0.68367
 C1224 C -0.07705 0.22690 0.71013
 C1225 C -0.05227 0.21526 0.71559
 C1226 C -0.05033 0.20587 0.68934
 H1227 H -0.06016 0.18116 0.74025
 H1228 H -0.10632 0.20182 0.72958
 H1229 H -0.05774 0.16343 0.69167
 H1230 H -0.07965 0.22814 0.66720
 H1231 H -0.08253 0.24546 0.71565
 H1232 H -0.03386 0.20712 0.67776
 C1233 C 0.31009 0.44889 0.29441
 C1234 C 0.30193 0.43660 0.31840
 C1235 C 0.30678 0.41190 0.30669
 C1236 C 0.31530 0.42372 0.28299
 C1237 C 0.28060 0.41012 0.29748
 C1238 C 0.27546 0.43528 0.30887
 C1239 C 0.28380 0.44733 0.28508
 C1240 C 0.28881 0.42241 0.27355
 H1241 H 0.32199 0.46508 0.29302
 H1242 H 0.30758 0.44199 0.33698
 H1243 H 0.33176 0.41885 0.27241
 H1244 H 0.26881 0.39386 0.29895
 H1245 H 0.25897 0.44024 0.31938
 H1246 H 0.28321 0.41685 0.25501
 C1247 C 0.31028 -0.06486 0.77562
 C1248 C 0.32006 -0.06311 0.80199
 C1249 C 0.30820 -0.08762 0.80737
 C1250 C 0.29879 -0.08988 0.78131
 C1251 C 0.28462 -0.07552 0.81587
 C1252 C 0.29616 -0.05054 0.81010
 C1253 C 0.28660 -0.05254 0.78393
 C1254 C 0.27498 -0.07729 0.78949
 H1255 H 0.32066 -0.06025 0.75896
 H1256 H 0.33872 -0.05771 0.80739
 H1257 H 0.30007 -0.10637 0.76982
 H1258 H 0.27398 -0.07984 0.83243
 H1259 H 0.29495 -0.03411 0.82169
 H1260 H 0.25635 -0.08285 0.78414
 C1261 C 0.77709 0.43659 0.80929
 C1262 C 0.78242 0.41156 0.79764
 C1263 C 0.80846 0.41328 0.80724
 C1264 C 0.80343 0.43780 0.81924
 C1265 C 0.81734 0.42540 0.78382
 C1266 C 0.79097 0.42419 0.77400
 C1267 C 0.78577 0.44895 0.78577
 C1268 C 0.81193 0.45041 0.79551
 H1269 H 0.76045 0.44140 0.81961
 H1270 H 0.77062 0.39527 0.79872
 H1271 H 0.80880 0.44295 0.83797
 H1272 H 0.83390 0.42086 0.77327
 H1273 H 0.78565 0.41886 0.75530
 H1274 H 0.82382 0.46663 0.79451
 C1275 C 0.79122 -0.07713 0.27398
 C1276 C 0.81775 -0.07596 0.28335
 C1277 C 0.80924 -0.08798 0.30695
 C1278 C 0.78303 -0.08967 0.29781
 C1279 C 0.80447 -0.06340 0.31895
 C1280 C 0.81259 -0.05090 0.29504
 C1281 C 0.78626 -0.05232 0.28576
 C1282 C 0.77795 -0.06458 0.30946
 H1283 H 0.78555 -0.08251 0.25540
 H1284 H 0.83413 -0.08061 0.27256
 H1285 H 0.77121 -0.10592 0.29913
 H1286 H 0.81017 -0.05819 0.33757
 H1287 H 0.82450 -0.03471 0.29379
 H1288 H 0.76150 -0.05969 0.32004
 C1289 C 0.29502 0.54961 0.68930
 C1290 C 0.28376 0.57472 0.68370
 C1291 C 0.30744 0.58663 0.69226
 C1292 C 0.31900 0.56198 0.69750
 C1293 C 0.29796 0.58874 0.71833
 C1294 C 0.27406 0.57637 0.71007
 C1295 C 0.28541 0.55151 0.71547
 C1296 C 0.30919 0.56363 0.72386
 H1297 H 0.29367 0.53328 0.67759
 H1298 H 0.27334 0.57935 0.66712
 H1299 H 0.33763 0.55651 0.69207
 H1300 H 0.29939 0.60515 0.72992
 H1301 H 0.25547 0.58202 0.71545
 H1302 H 0.31950 0.55886 0.74049
 C1303 C 0.27385 1.07469 0.20850
 C1304 C 0.29781 1.08712 0.21656
 C1305 C 0.30721 1.08462 0.19051
 C1306 C 0.28348 1.07269 0.18211
 C1307 C 0.31876 1.06003 0.19601
 C1308 C 0.30901 1.06204 0.22238
 C1309 C 0.28517 1.04988 0.21419
 C1310 C 0.29472 1.04763 0.18801
 H1311 H 0.25529 1.08044 0.21386
 H1312 H 0.29930 1.10367 0.22794
 H1313 H 0.27294 1.07703 0.16553
 H1314 H 0.33736 1.05445 0.19060
 H1315 H 0.31933 1.05746 0.23904
 H1316 H 0.29330 1.03114 0.17653
 C1317 C 0.79554 0.54844 0.18856
 C1318 C 0.78406 0.57347 0.18311
 C1319 C 0.80779 0.58552 0.19132
 C1320 C 0.81957 0.56095 0.19641
 C1321 C 0.79868 0.58760 0.21752
 C1322 C 0.77473 0.57509 0.20961
 C1323 C 0.78630 0.55030 0.21487
 C1324 C 0.81013 0.56255 0.22291
 H1325 H 0.79412 0.53209 0.17688
 H1326 H 0.77337 0.57803 0.16668
 H1327 H 0.83815 0.55558 0.19071
 H1328 H 0.80018 0.60403 0.22907
 H1329 H 0.75619 0.58065 0.21525
 H1330 H 0.82069 0.55785 0.23939
 C1331 C 0.77406 1.07851 0.70944
 C1332 C 0.79792 1.09095 0.71772
 C1333 C 0.80737 1.08902 0.69162
 C1334 C 0.78373 1.07705 0.68304
 C1335 C 0.81905 1.06440 0.69672
 C1336 C 0.80928 1.06586 0.72311
 C1337 C 0.78554 1.05367 0.71469
 C1338 C 0.79512 1.05196 0.68849
 H1339 H 0.75545 1.08405 0.71488
 H1340 H 0.79929 1.10730 0.72939
 H1341 H 0.77327 1.08172 0.66650
 H1342 H 0.83769 1.05905 0.69123
 H1343 H 0.81963 1.06106 0.73968
 H1344 H 0.79383 1.03568 0.67670
 C1345 C 0.68988 0.54937 0.29537
 C1346 C 0.69820 0.56179 0.31927
 C1347 C 0.69317 0.58643 0.30759
 C1348 C 0.68451 0.57447 0.28399
 C1349 C 0.71928 0.58824 0.29811
 C1350 C 0.72459 0.56314 0.30946
 C1351 C 0.71610 0.55096 0.28576
 C1352 C 0.71091 0.57581 0.27428
 H1353 H 0.67802 0.53314 0.29411
 H1354 H 0.69272 0.55648 0.33791
 H1355 H 0.66796 0.57920 0.27355
 H1356 H 0.73103 0.60455 0.29945
 H1357 H 0.74118 0.55828 0.31979
 H1358 H 0.71635 0.58131 0.25567
 C1359 C 0.68843 1.05173 0.79442
 C1360 C 0.69639 1.06429 0.81839
 C1361 C 0.69123 1.08882 0.80657
 C1362 C 0.68288 1.07673 0.78291
 C1363 C 0.71740 1.09094 0.79735
 C1364 C 0.72287 1.06590 0.80881
 C1365 C 0.71471 1.05359 0.78505
 C1366 C 0.70937 1.07836 0.77347
 H1367 H 0.67677 1.03536 0.79309
 H1368 H 0.69079 1.05895 0.83699
 H1369 H 0.66642 1.08113 0.77219
 H1370 H 0.72896 1.10737 0.79876
 H1371 H 0.73942 1.06123 0.81929
 H1372 H 0.71493 1.08387 0.75490
 C1373 C 0.18845 0.55044 0.79534
 C1374 C 0.19652 0.56312 0.81922
 C1375 C 0.19149 0.58760 0.80724
 C1376 C 0.18304 0.57540 0.78368
 C1377 C 0.21766 0.58949 0.79797
 C1378 C 0.22299 0.56450 0.80959
 C1379 C 0.21473 0.55208 0.78592
 C1380 C 0.20952 0.57680 0.77419
 H1381 H 0.17668 0.53414 0.79414
 H1382 H 0.19091 0.55793 0.83786
 H1383 H 0.16660 0.57982 0.77294
 H1384 H 0.22932 0.60587 0.79925
 H1385 H 0.23953 0.55979 0.82007
 H1386 H 0.21508 0.58216 0.75557
 C1387 C 0.18828 1.04911 0.29456
 C1388 C 0.19640 1.06163 0.31849
 C1389 C 0.19131 1.08618 0.30669
 C1390 C 0.18280 1.07414 0.28307
 C1391 C 0.21745 1.08817 0.29736
 C1392 C 0.22284 1.06311 0.30880
 C1393 C 0.21453 1.05083 0.28508
 C1394 C 0.20926 1.07562 0.27351
 H1395 H 0.17653 1.03279 0.29328
 H1396 H 0.19085 1.05631 0.33711
 H1397 H 0.16631 1.07863 0.27243
 H1398 H 0.22910 1.10455 0.29871
 H1399 H 0.23941 1.05836 0.31921
 H1400 H 0.21477 1.08110 0.25492
 C1401 C 0.70966 0.42559 0.72587
 C1402 C 0.68332 0.42770 0.71620
 C1403 C 0.69173 0.41588 0.69242
 C1404 C 0.71775 0.41332 0.70186
 C1405 C 0.69744 0.44055 0.68109
 C1406 C 0.68940 0.45282 0.70517
 C1407 C 0.71554 0.45047 0.71475
 C1408 C 0.72376 0.43844 0.69087
 H1409 H 0.71490 0.41970 0.74440
 H1410 H 0.66663 0.42320 0.72656
 H1411 H 0.72905 0.39676 0.70028
 H1412 H 0.69214 0.44625 0.66253
 H1413 H 0.67799 0.46931 0.70667
 H1414 H 0.74050 0.44306 0.68061
 C1415 C 0.70516 -0.04893 0.18985
 C1416 C 0.71609 -0.07413 0.18394
 C1417 C 0.69236 -0.08582 0.19270
 C1418 C 0.68113 -0.06106 0.19826
 C1419 C 0.70208 -0.08812 0.21863
 C1420 C 0.72604 -0.07598 0.21018
 C1421 C 0.71501 -0.05102 0.21589
 C1422 C 0.69118 -0.06291 0.22449
 H1423 H 0.70657 -0.03257 0.17825
 H1424 H 0.72630 -0.07882 0.16720
 H1425 H 0.66251 -0.05538 0.19311
 H1426 H 0.70059 -0.10454 0.23012
 H1427 H 0.74463 -0.08184 0.21528
 H1428 H 0.68110 -0.05809 0.24127
 C1429 C 0.22416 0.42326 0.20946
 C1430 C 0.20028 0.41078 0.21762
 C1431 C 0.19085 0.41299 0.19157
 C1432 C 0.21451 0.42503 0.18312
 C1433 C 0.17920 0.43757 0.19705
 C1434 C 0.18897 0.43583 0.22340
 C1435 C 0.21272 0.44806 0.21510
 C1436 C 0.20315 0.45005 0.18895
 H1437 H 0.24276 0.41764 0.21478
 H1438 H 0.19889 0.39430 0.22905
 H1439 H 0.22499 0.42053 0.16650
 H1440 H 0.16056 0.44300 0.19167
 H1441 H 0.17863 0.44049 0.24007
 H1442 H 0.20447 0.46646 0.17740
 C1443 C 0.20577 -0.04993 0.68745
 C1444 C 0.21700 -0.07500 0.68142
 C1445 C 0.19335 -0.08693 0.69002
 C1446 C 0.18180 -0.06234 0.69565
 C1447 C 0.20291 -0.08933 0.71599
 C1448 C 0.22680 -0.07690 0.70773
 C1449 C 0.21549 -0.05208 0.71354
 C1450 C 0.19173 -0.06425 0.72192
 H1451 H 0.20709 -0.03348 0.67597
 H1452 H 0.22742 -0.07940 0.66474
 H1453 H 0.16316 -0.05680 0.69041
 H1454 H 0.20153 -0.10584 0.72738
 H1455 H 0.24541 -0.08261 0.71293
 H1456 H 0.18150 -0.05963 0.73868
 C1457 C 0.30702 0.27581 0.43641
 C1458 C 0.29568 0.28116 0.41125
 C1459 C 0.30515 0.30719 0.41315
 C1460 C 0.31682 0.30213 0.43785
 C1461 C 0.28153 0.31579 0.42512
 C1462 C 0.27182 0.28945 0.42368
 C1463 C 0.28329 0.28423 0.44859
 C1464 C 0.29289 0.31037 0.45028
 H1465 H 0.31736 0.25928 0.44125
 H1466 H 0.29704 0.26948 0.39488
 H1467 H 0.33547 0.30760 0.44323
 H1468 H 0.27110 0.33229 0.42037
 H1469 H 0.25321 0.28402 0.41812
 H1470 H 0.29161 0.32216 0.46659
 C1471 C 0.27422 0.79040 -0.07675
 C1472 C 0.28380 0.81676 -0.07509
 C1473 C 0.30749 0.80836 -0.08707
 C1474 C 0.29814 0.78230 -0.08919
 C1475 C 0.31913 0.80317 -0.06238
 C1476 C 0.29513 0.81122 -0.04994
 C1477 C 0.28565 0.78505 -0.05185
 C1478 C 0.30945 0.77682 -0.06405
 H1479 H 0.25564 0.78493 -0.08239
 H1480 H 0.27329 0.83325 -0.07971
 H1481 H 0.29959 0.77076 -0.10565
 H1482 H 0.33774 0.80869 -0.05693
 H1483 H 0.29377 0.82287 -0.03356
 H1484 H 0.31985 0.76029 -0.05930
 C1485 C 0.80843 0.27687 -0.06466
 C1486 C 0.79692 0.28224 -0.08974
 C1487 C 0.80625 0.30832 -0.08780
 C1488 C 0.81807 0.30324 -0.06317
 C1489 C 0.78264 0.31673 -0.07567
 C1490 C 0.77307 0.29034 -0.07714
 C1491 C 0.78471 0.28510 -0.05230
 C1492 C 0.79416 0.31129 -0.05058
 H1493 H 0.81890 0.26038 -0.05995
 H1494 H 0.79826 0.27063 -0.10616
 H1495 H 0.83672 0.30880 -0.05787
 H1496 H 0.77209 0.33319 -0.08030
 H1497 H 0.75447 0.28483 -0.08262
 H1498 H 0.79291 0.32302 -0.03423
 C1499 C 0.79002 0.77540 0.42390
 C1500 C 0.78174 0.79901 0.41121
 C1501 C 0.80785 0.80847 0.41299
 C1502 C 0.81642 0.78507 0.42521
 C1503 C 0.80274 0.82045 0.43757
 C1504 C 0.77633 0.81066 0.43627
 C1505 C 0.78475 0.78717 0.44869
 C1506 C 0.81096 0.79676 0.45025
 H1507 H 0.78459 0.75677 0.41854
 H1508 H 0.77007 0.80015 0.39484
 H1509 H 0.83296 0.77455 0.42062
 H1510 H 0.80822 0.83911 0.44273
 H1511 H 0.75973 0.82104 0.44104
 H1512 H 0.82275 0.79570 0.46655
 C1513 C 0.72490 0.29278 0.57586
 C1514 C 0.71536 0.31911 0.57404
 C1515 C 0.69163 0.31077 0.58602
 C1516 C 0.70095 0.28475 0.58831
 C1517 C 0.68003 0.30531 0.56135
 C1518 C 0.70406 0.31329 0.54891
 C1519 C 0.71350 0.28716 0.55098
 C1520 C 0.68967 0.27900 0.56317
 H1521 H 0.74346 0.28741 0.58157
 H1522 H 0.72586 0.33567 0.57860
 H1523 H 0.69945 0.27337 0.60483
 H1524 H 0.66144 0.31073 0.55582
 H1525 H 0.70547 0.32479 0.53246
 H1526 H 0.67926 0.26240 0.55850
 C1527 C 0.70276 0.81152 1.04970
 C1528 C 0.67880 0.80341 1.06219
 C1529 C 0.69047 0.80882 1.08684
 C1530 C 0.71412 0.81728 1.07480
 C1531 C 0.69989 0.78283 1.08901
 C1532 C 0.68856 0.77712 1.06388
 C1533 C 0.71232 0.78543 1.05165
 C1534 C 0.72377 0.79100 1.07651
 H1535 H 0.70407 0.82308 1.03329
 H1536 H 0.66017 0.80878 1.05676
 H1537 H 0.72462 0.83385 1.07934
 H1538 H 0.69849 0.77139 1.10549
 H1539 H 0.67822 0.76049 1.05917
 H1540 H 0.74237 0.78569 1.08214
 C1541 C 0.22575 0.28939 1.07611
 C1542 C 0.21597 0.31562 1.07418
 C1543 C 0.19225 0.30709 1.08603
 C1544 C 0.20179 0.28116 1.08843
 C1545 C 0.18084 0.30148 1.06130
 C1546 C 0.20487 0.30966 1.04899
 C1547 C 0.21454 0.28363 1.05117
 C1548 C 0.19072 0.27526 1.06324
 H1549 H 0.24432 0.28420 1.08193
 H1550 H 0.22630 0.33228 1.07875
 H1551 H 0.20030 0.26980 1.10496
 H1552 H 0.16223 0.30672 1.05567
 H1553 H 0.20627 0.32113 1.03253
 H1554 H 0.18050 0.25856 1.05854
 C1555 C 0.18958 0.79500 0.54867
 C1556 C 0.18384 0.78397 0.57391
 C1557 C 0.19226 0.80773 0.58567
 C1558 C 0.19764 0.81906 0.56088
 C1559 C 0.21836 0.79845 0.58795
 C1560 C 0.21025 0.77445 0.57574
 C1561 C 0.21580 0.78560 0.55075
 C1562 C 0.22403 0.80946 0.56272
 H1563 H 0.17800 0.79344 0.53226
 H1564 H 0.16723 0.77356 0.57863
 H1565 H 0.19219 0.83755 0.55523
 H1566 H 0.22984 0.80009 0.60443
 H1567 H 0.21566 0.75600 0.58157
 H1568 H 0.24067 0.81979 0.55792
 C1569 C 0.29635 0.68929 0.54931
 C1570 C 0.32024 0.69740 0.56189
 C1571 C 0.30841 0.69212 0.58650
 C1572 C 0.28481 0.68366 0.57437
 C1573 C 0.29904 0.71814 0.58862
 C1574 C 0.31054 0.72372 0.56354
 C1575 C 0.28684 0.71542 0.55121
 C1576 C 0.27522 0.70998 0.57603
 H1577 H 0.29511 0.67767 0.53289
 H1578 H 0.33889 0.69196 0.55652
 H1579 H 0.27426 0.66713 0.57889
 H1580 H 0.30036 0.72965 0.60511
 H1581 H 0.32096 0.74030 0.55887
 H1582 H 0.25660 0.71537 0.58159
 C1583 C 0.29507 0.18691 1.04873
 C1584 C 0.31906 0.19489 1.06118
 C1585 C 0.30745 0.18934 1.08583
 C1586 C 0.28375 0.18099 1.07382
 C1587 C 0.29808 0.21532 1.08833
 C1588 C 0.30936 0.22118 1.06322
 C1589 C 0.28556 0.21301 1.05101
 C1590 C 0.27415 0.20729 1.07586
 H1591 H 0.29369 0.17547 1.03219
 H1592 H 0.33767 0.18953 1.05560
 H1593 H 0.27326 0.16440 1.07824
 H1594 H 0.29954 0.22665 1.10494
 H1595 H 0.31973 0.23782 1.05866
 H1596 H 0.25558 0.21260 1.08164
 C1597 C 0.79312 0.68907 1.04918
 C1598 C 0.81712 0.69724 1.06151
 C1599 C 0.80568 0.69160 1.08622
 C1600 C 0.78198 0.68306 1.07434
 C1601 C 0.79612 0.71751 1.08876
 C1602 C 0.80723 0.72344 1.06360
 C1603 C 0.78343 0.71509 1.05150
 C1604 C 0.77218 0.70930 1.07641
 H1605 H 0.79175 0.67761 1.03265
 H1606 H 0.83574 0.69201 1.05583
 H1607 H 0.77166 0.66639 1.07885
 H1608 H 0.79758 0.72886 1.10535
 H1609 H 0.81746 0.74016 1.05899
 H1610 H 0.75360 0.71447 1.08227
 C1611 C 0.78973 0.22821 0.57631
 C1612 C 0.78159 0.20438 0.58874
 C1613 C 0.80770 0.19508 0.58659
 C1614 C 0.81615 0.21869 0.57462
 C1615 C 0.80243 0.18341 0.56190
 C1616 C 0.77602 0.19302 0.56360
 C1617 C 0.78429 0.21673 0.55141
 C1618 C 0.81052 0.20731 0.54948
 H1619 H 0.78429 0.24674 0.58196
 H1620 H 0.77004 0.20295 0.60521
 H1621 H 0.83272 0.22919 0.57925
 H1622 H 0.80791 0.16485 0.55643
 H1623 H 0.75941 0.18262 0.55886
 H1624 H 0.82218 0.20865 0.53307
 C1625 C 0.70614 0.68944 0.45108
 C1626 C 0.68214 0.69722 0.43858
 C1627 C 0.69396 0.69206 0.41392
 C1628 C 0.71766 0.68392 0.42596
 C1629 C 0.70307 0.71820 0.41186
 C1630 C 0.69156 0.72365 0.43697
 C1631 C 0.71536 0.71571 0.44923
 C1632 C 0.72700 0.71038 0.42437
 H1633 H 0.70752 0.67786 0.46747
 H1634 H 0.66355 0.69154 0.44397
 H1635 H 0.72832 0.66751 0.42132
 H1636 H 0.70161 0.72967 0.39541
 H1637 H 0.68097 0.74010 0.44168
 H1638 H 0.74555 0.71601 0.41879
 C1639 C 0.72281 0.19090 -0.06468
 C1640 C 0.69638 0.18120 -0.06329
 C1641 C 0.69126 0.19311 -0.08785
 C1642 C 0.71740 0.20248 -0.08971
 C1643 C 0.68277 0.21657 -0.07559
 C1644 C 0.68824 0.20497 -0.05057
 C1645 C 0.71449 0.21446 -0.05221
 C1646 C 0.70921 0.22616 -0.07698
 H1647 H 0.73938 0.18048 -0.06000
 H1648 H 0.69084 0.16258 -0.05810
 H1649 H 0.72905 0.20125 -0.10612
 H1650 H 0.66624 0.22708 -0.08016
 H1651 H 0.67648 0.20611 -0.03422
 H1652 H 0.71470 0.24476 -0.08236
 C1653 C 0.22339 0.69084 -0.06471
 C1654 C 0.19694 0.68119 -0.06332
 C1655 C 0.19193 0.69287 -0.08801
 C1656 C 0.21809 0.70219 -0.08986
 C1657 C 0.18342 0.71646 -0.07600
 C1658 C 0.18879 0.70508 -0.05086
 C1659 C 0.21505 0.71453 -0.05249
 C1660 C 0.20988 0.72601 -0.07739
 H1661 H 0.23992 0.68045 -0.05987
 H1662 H 0.19137 0.66262 -0.05799
 H1663 H 0.22979 0.70080 -0.10622
 H1664 H 0.16693 0.72695 -0.08073
 H1665 H 0.17696 0.70639 -0.03457
 H1666 H 0.21541 0.74455 -0.08291
 C1667 C 0.18960 0.22168 0.43610
 C1668 C 0.20125 0.21630 0.41104
 C1669 C 0.19191 0.19022 0.41286
 C1670 C 0.17994 0.19531 0.43745
 C1671 C 0.21545 0.18181 0.42504
 C1672 C 0.22501 0.20819 0.42368
 C1673 C 0.21324 0.21345 0.44849
 C1674 C 0.20377 0.18726 0.45010
 H1675 H 0.17911 0.23818 0.44084
 H1676 H 0.20001 0.22789 0.39465
 H1677 H 0.16126 0.18976 0.44266
 H1678 H 0.22602 0.16535 0.42038
 H1679 H 0.24365 0.21370 0.41828
 H1680 H 0.20494 0.17556 0.46642
 C1681 C 0.30819 0.43636 0.72352
 C1682 C 0.29667 0.41130 0.71808
 C1683 C 0.30604 0.41319 0.69196
 C1684 C 0.31788 0.43779 0.69711
 C1685 C 0.28245 0.42521 0.68349
 C1686 C 0.27285 0.42379 0.70992
 C1687 C 0.28450 0.44860 0.71523
 C1688 C 0.29399 0.45028 0.68900
 H1689 H 0.31863 0.44115 0.74008
 H1690 H 0.29798 0.39496 0.72969
 H1691 H 0.33653 0.44310 0.69158
 H1692 H 0.27193 0.42052 0.66696
 H1693 H 0.25423 0.41830 0.71541
 H1694 H 0.29276 0.46656 0.67728
 C1695 C 0.27608 0.93497 0.19098
 C1696 C 0.30248 0.93650 0.18121
 C1697 C 0.30767 0.91192 0.19294
 C1698 C 0.28157 0.90993 0.20238
 C1699 C 0.31621 0.92400 0.21654
 C1700 C 0.31067 0.94902 0.20510
 C1701 C 0.28446 0.94725 0.21468
 C1702 C 0.28980 0.92246 0.22620
 H1703 H 0.25947 0.93969 0.18062
 H1704 H 0.30795 0.94182 0.16257
 H1705 H 0.26995 0.89353 0.20105
 H1706 H 0.33277 0.91942 0.22702
 H1707 H 0.32240 0.96534 0.20635
 H1708 H 0.28438 0.91695 0.24481
 C1709 C 0.77704 0.43516 0.19115
 C1710 C 0.80342 0.43658 0.18131
 C1711 C 0.80852 0.41195 0.19296
 C1712 C 0.78243 0.41006 0.20247
 C1713 C 0.81718 0.42392 0.21657
 C1714 C 0.81173 0.44901 0.20521
 C1715 C 0.78554 0.44734 0.21486
 C1716 C 0.79079 0.42249 0.22630
 H1717 H 0.76043 0.43999 0.18085
 H1718 H 0.80886 0.44193 0.16267
 H1719 H 0.77073 0.39373 0.20113
 H1720 H 0.83375 0.41924 0.22700
 H1721 H 0.82355 0.46527 0.20647
 H1722 H 0.78540 0.41696 0.24491
 C1723 C 0.77721 0.93846 0.69079
 C1724 C 0.80366 0.93996 0.68117
 C1725 C 0.80874 0.91536 0.69288
 C1726 C 0.78258 0.91339 0.70217
 C1727 C 0.81717 0.92737 0.71655
 C1728 C 0.81173 0.95243 0.70513
 C1729 C 0.78547 0.95068 0.71455
 C1730 C 0.79071 0.92586 0.72606
 H1731 H 0.76066 0.94323 0.68034
 H1732 H 0.80924 0.94531 0.66257
 H1733 H 0.77095 0.89701 0.70074
 H1734 H 0.83367 0.92273 0.72710
 H1735 H 0.82349 0.96873 0.70648
 H1736 H 0.78518 0.92032 0.74463
 C1737 C 0.72502 0.56519 0.69218
 C1738 C 0.69862 0.56372 0.68248
 C1739 C 0.69349 0.58833 0.69426
 C1740 C 0.71960 0.59028 0.70365
 C1741 C 0.68492 0.57635 0.71786
 C1742 C 0.69039 0.55127 0.70636
 C1743 C 0.71662 0.55299 0.71587
 C1744 C 0.71133 0.57782 0.72747
 H1745 H 0.74161 0.56040 0.68177
 H1746 H 0.69313 0.55836 0.66384
 H1747 H 0.73127 0.60664 0.70232
 H1748 H 0.66836 0.58102 0.72837
 H1749 H 0.67862 0.53498 0.70761
 H1750 H 0.71678 0.58336 0.74607
 C1751 C 0.72545 0.06373 0.19204
 C1752 C 0.69909 0.06227 0.18222
 C1753 C 0.69398 0.08696 0.19386
 C1754 C 0.72005 0.08889 0.20335
 C1755 C 0.68528 0.07509 0.21748
 C1756 C 0.69074 0.04996 0.20613
 C1757 C 0.71691 0.05165 0.21576
 C1758 C 0.71165 0.07656 0.22720
 H1759 H 0.74208 0.05885 0.18173
 H1760 H 0.69368 0.05684 0.16358
 H1761 H 0.73177 0.10521 0.20199
 H1762 H 0.66871 0.07982 0.22793
 H1763 H 0.67890 0.03371 0.20740
 H1764 H 0.71701 0.08217 0.24581
 C1765 C 0.18988 0.56315 0.22389
 C1766 C 0.20141 0.58815 0.21821
 C1767 C 0.19190 0.58600 0.19218
 C1768 C 0.18003 0.56148 0.19756
 C1769 C 0.21543 0.57384 0.18361
 C1770 C 0.22516 0.57552 0.20995
 C1771 C 0.21350 0.55079 0.21549
 C1772 C 0.20386 0.54887 0.18935
 H1773 H 0.17952 0.55855 0.24057
 H1774 H 0.20019 0.60462 0.22973
 H1775 H 0.16134 0.55616 0.19220
 H1776 H 0.22591 0.57829 0.16699
 H1777 H 0.24382 0.58104 0.21525
 H1778 H 0.20499 0.53247 0.17771
 C1779 C 0.22351 0.06285 0.69091
 C1780 C 0.19701 0.06121 0.68151
 C1781 C 0.19185 0.08577 0.69341
 C1782 C 0.21806 0.08787 0.70249
 C1783 C 0.18363 0.07369 0.71707
 C1784 C 0.18915 0.04867 0.70547
 C1785 C 0.21547 0.05056 0.71468
 C1786 C 0.21014 0.07533 0.72638
 H1787 H 0.24002 0.05820 0.68031
 H1788 H 0.19134 0.05586 0.66293
 H1789 H 0.22959 0.10432 0.70106
 H1790 H 0.16716 0.07824 0.72777
 H1791 H 0.17750 0.03230 0.70682
 H1792 H 0.21576 0.08087 0.74493
 C1793 C 0.30894 0.56191 0.27675
 C1794 C 0.29804 0.58713 0.28254
 C1795 C 0.30774 0.58489 0.30848
 C1796 C 0.31897 0.56012 0.30298
 C1797 C 0.28400 0.57323 0.31725
 C1798 C 0.27407 0.57502 0.29100
 C1799 C 0.28510 0.55004 0.28535
 C1800 C 0.29493 0.54801 0.31140
 H1801 H 0.31904 0.55704 0.25998
 H1802 H 0.29955 0.60354 0.27101
 H1803 H 0.33759 0.55445 0.30817
 H1804 H 0.27379 0.57796 0.33397
 H1805 H 0.25550 0.58088 0.28587
 H1806 H 0.29351 0.53168 0.32303
 C1807 C 0.29219 0.07506 0.77350
 C1808 C 0.28402 0.08722 0.79754
 C1809 C 0.31013 0.08510 0.80685
 C1810 C 0.31861 0.07341 0.78305
 C1811 C 0.30488 0.06035 0.81823
 C1812 C 0.27848 0.06202 0.80859
 C1813 C 0.28678 0.05011 0.78468
 C1814 C 0.31300 0.04819 0.79412
 H1815 H 0.28675 0.08085 0.75500
 H1816 H 0.27245 0.10359 0.79916
 H1817 H 0.33519 0.07820 0.77262
 H1818 H 0.31036 0.05475 0.83677
 H1819 H 0.26187 0.05714 0.81894
 H1820 H 0.32468 0.03189 0.79258
 C1821 C 0.79668 0.55007 0.81261
 C1822 C 0.82074 0.56238 0.80454
 C1823 C 0.80921 0.58706 0.80983
 C1824 C 0.78545 0.57521 0.81826
 C1825 C 0.79989 0.58918 0.78374
 C1826 C 0.81109 0.56404 0.77815
 C1827 C 0.78723 0.55199 0.78641
 C1828 C 0.77591 0.57687 0.79186
 H1829 H 0.79522 0.53374 0.82425
 H1830 H 0.83932 0.55687 0.81002
 H1831 H 0.77495 0.57988 0.83482
 H1832 H 0.80143 0.60558 0.77222
 H1833 H 0.82148 0.55924 0.76155
 H1834 H 0.75736 0.58257 0.78644
 C1835 C 0.79638 0.04902 0.31302
 C1836 C 0.82047 0.06131 0.30501
 C1837 C 0.80889 0.08600 0.31016
 C1838 C 0.78511 0.07417 0.31853
 C1839 C 0.79970 0.08801 0.28401
 C1840 C 0.81095 0.06286 0.27857
 C1841 C 0.78706 0.05082 0.28676
 C1842 C 0.77569 0.07573 0.29207
 H1843 H 0.79488 0.03273 0.32471
 H1844 H 0.83902 0.05583 0.31061
 H1845 H 0.77454 0.07892 0.33503
 H1846 H 0.80128 0.10437 0.27244
 H1847 H 0.82142 0.05800 0.26203
 H1848 H 0.75717 0.08139 0.28653
 C1849 C 0.72315 0.43592 0.30962
 C1850 C 0.69675 0.43787 0.31930
 C1851 C 0.69116 0.41331 0.30759
 C1852 C 0.71725 0.41089 0.29823
 C1853 C 0.68290 0.42536 0.28395
 C1854 C 0.68885 0.45037 0.29537
 C1855 C 0.71505 0.44817 0.28588
 C1856 C 0.70930 0.42340 0.27437
 H1857 H 0.73981 0.44047 0.32001
 H1858 H 0.69131 0.44337 0.33792
 H1859 H 0.72858 0.39434 0.29962
 H1860 H 0.66629 0.42094 0.27344
 H1861 H 0.67741 0.46685 0.29406
 H1862 H 0.71468 0.41770 0.25579
 C1863 C 0.69077 0.93857 0.77649
 C1864 C 0.70206 0.91347 0.78198
 C1865 C 0.69259 0.91553 0.80806
 C1866 C 0.68097 0.94016 0.80286
 C1867 C 0.71625 0.92748 0.81662
 C1868 C 0.72594 0.92589 0.79024
 C1869 C 0.71453 0.95073 0.78488
 C1870 C 0.70493 0.95257 0.81106
 H1871 H 0.68044 0.94333 0.75988
 H1872 H 0.70066 0.89708 0.77037
 H1873 H 0.66234 0.94558 0.80830
 H1874 H 0.72669 0.92285 0.83318
 H1875 H 0.74455 0.92028 0.78484
 H1876 H 0.70625 0.96889 0.82279
 C1877 C 0.18999 0.43691 0.77742
 C1878 C 0.20127 0.41179 0.78283
 C1879 C 0.19192 0.41381 0.80896
 C1880 C 0.18030 0.43846 0.80384
 C1881 C 0.21563 0.42574 0.81742
 C1882 C 0.22520 0.42417 0.79100
 C1883 C 0.21380 0.44903 0.78573
 C1884 C 0.20431 0.45084 0.81196
 H1885 H 0.17960 0.44171 0.76086
 H1886 H 0.19981 0.39541 0.77120
 H1887 H 0.16170 0.44389 0.80937
 H1888 H 0.22616 0.42110 0.83393
 H1889 H 0.24378 0.41855 0.78552
 H1890 H 0.20569 0.46714 0.82371
 C1891 C 0.19022 0.93593 0.27734
 C1892 C 0.20143 0.91080 0.28281
 C1893 C 0.19208 0.91293 0.30893
 C1894 C 0.18055 0.93760 0.30374
 C1895 C 0.21582 0.92478 0.31738
 C1896 C 0.22540 0.92312 0.29096
 C1897 C 0.21407 0.94800 0.28561
 C1898 C 0.20459 0.94992 0.31184
 H1899 H 0.17985 0.94071 0.26077
 H1900 H 0.19991 0.89440 0.27124
 H1901 H 0.16196 0.94310 0.30926
 H1902 H 0.22629 0.92010 0.33392
 H1903 H 0.24395 0.91743 0.28549
 H1904 H 0.20603 0.96625 0.32353
 C1905 C 0.43570 0.27695 0.69078
 C1906 C 0.41054 0.28228 0.70225
 C1907 C 0.41237 0.30830 0.69282
 C1908 C 0.43706 0.30326 0.68104
 C1909 C 0.42438 0.31695 0.71640
 C1910 C 0.42302 0.29063 0.72605
 C1911 C 0.44793 0.28543 0.71446
 C1912 C 0.44954 0.31156 0.70491
 H1913 H 0.44055 0.26040 0.68039
 H1914 H 0.39417 0.27058 0.70094
 H1915 H 0.44239 0.30871 0.66239
 H1916 H 0.41963 0.33347 0.72688
 H1917 H 0.41751 0.28523 0.74467
 H1918 H 0.46584 0.32337 0.70613
 C1919 C 0.43721 0.77550 0.19097
 C1920 C 0.41200 0.78082 0.20232
 C1921 C 0.41394 0.80687 0.19303
 C1922 C 0.43869 0.80184 0.18135
 C1923 C 0.42584 0.81540 0.21671
 C1924 C 0.42436 0.78904 0.22623
 C1925 C 0.44932 0.78385 0.21476
 C1926 C 0.45105 0.81001 0.20533
 H1927 H 0.44210 0.75898 0.18054
 H1928 H 0.39562 0.76916 0.20087
 H1929 H 0.44412 0.80737 0.16276
 H1930 H 0.42108 0.83187 0.22725
 H1931 H 0.41874 0.78357 0.24479
 H1932 H 0.46736 0.82179 0.20670
 C1933 C 0.93728 0.30867 0.22412
 C1934 C 0.93889 0.31823 0.19771
 C1935 C 0.91421 0.30648 0.19251
 C1936 C 0.91214 0.29725 0.21863
 C1937 C 0.92624 0.28289 0.18409
 C1938 C 0.95137 0.29434 0.18964
 C1939 C 0.94952 0.28498 0.21587
 C1940 C 0.92463 0.27343 0.21051
 H1941 H 0.94203 0.31912 0.24069
 H1942 H 0.94430 0.33679 0.19218
 H1943 H 0.89568 0.29865 0.23020
 H1944 H 0.92161 0.27234 0.16756
 H1945 H 0.96776 0.29302 0.17796
 H1946 H 0.91903 0.25490 0.21600
 C1947 C 0.93703 0.77769 0.69108
 C1948 C 0.91190 0.78332 0.70246
 C1949 C 0.91415 0.80936 0.69319
 C1950 C 0.93882 0.80403 0.68149
 C1951 C 0.92618 0.81771 0.71687
 C1952 C 0.92439 0.79136 0.72637
 C1953 C 0.94927 0.78587 0.71486
 C1954 C 0.95131 0.81202 0.70546
 H1955 H 0.94170 0.76113 0.68063
 H1956 H 0.89537 0.77186 0.70102
 H1957 H 0.94431 0.80950 0.66289
 H1958 H 0.92163 0.83424 0.72742
 H1959 H 0.91872 0.78594 0.74493
 H1960 H 0.96777 0.82359 0.70682
 C1961 C 0.56180 0.27632 0.30849
 C1962 C 0.58701 0.28204 0.29731
 C1963 C 0.58471 0.30805 0.30672
 C1964 C 0.55995 0.30263 0.31823
 C1965 C 0.57284 0.31642 0.28301
 C1966 C 0.57468 0.29009 0.27337
 C1967 C 0.54972 0.28450 0.28468
 C1968 C 0.54763 0.31063 0.29422
 H1969 H 0.55706 0.25972 0.31881
 H1970 H 0.60352 0.27063 0.29880
 H1971 H 0.55435 0.30805 0.33682
 H1972 H 0.57747 0.33297 0.27259
 H1973 H 0.58048 0.28471 0.25482
 H1974 H 0.53119 0.32215 0.29281
 C1975 C 0.56344 0.81190 0.77604
 C1976 C 0.56177 0.82166 0.80242
 C1977 C 0.58645 0.81004 0.80772
 C1978 C 0.58858 0.80061 0.78164
 C1979 C 0.57439 0.78646 0.81619
 C1980 C 0.54927 0.79778 0.81054
 C1981 C 0.55119 0.78822 0.78435
 C1982 C 0.57607 0.77681 0.78981
 H1983 H 0.55873 0.82220 0.75942
 H1984 H 0.55635 0.84024 0.80787
 H1985 H 0.60507 0.80199 0.77010
 H1986 H 0.57896 0.77603 0.83276
 H1987 H 0.53285 0.79649 0.82219
 H1988 H 0.58170 0.75826 0.78441
 C1989 C 0.06295 0.30958 0.77794
 C1990 C 0.06144 0.31933 0.80433
 C1991 C 0.08619 0.30779 0.80943
 C1992 C 0.08816 0.29837 0.78333
 C1993 C 0.07428 0.28417 0.81799
 C1994 C 0.04907 0.29541 0.81253
 C1995 C 0.05083 0.28586 0.78633
 C1996 C 0.07579 0.27452 0.79159
 H1997 H 0.05809 0.31988 0.76137
 H1998 H 0.05599 0.33789 0.80982
 H1999 H 0.10455 0.29981 0.77167
 H2000 H 0.07902 0.27376 0.83452
 H2001 H 0.03276 0.29405 0.82431
 H2002 H 0.08143 0.25599 0.78615
 C2003 C 0.06280 0.77605 0.30895
 C2004 C 0.08805 0.78161 0.29778
 C2005 C 0.08597 0.80760 0.30731
 C2006 C 0.06118 0.80233 0.31881
 C2007 C 0.07415 0.81616 0.28364
 C2008 C 0.07577 0.78986 0.27388
 C2009 C 0.05078 0.78443 0.28519
 C2010 C 0.04891 0.81053 0.29484
 H2011 H 0.05794 0.75945 0.31921
 H2012 H 0.10447 0.77006 0.29921
 H2013 H 0.05563 0.80772 0.33742
 H2014 H 0.07891 0.83272 0.27329
 H2015 H 0.08151 0.78452 0.25530
 H2016 H 0.03256 0.82219 0.29349
 C2017 C 0.57660 0.71208 0.72615
 C2018 C 0.57520 0.68561 0.71684
 C2019 C 0.58738 0.69382 0.69319
 C2020 C 0.58924 0.71999 0.70228
 C2021 C 0.56276 0.69874 0.68126
 C2022 C 0.55013 0.69088 0.70520
 C2023 C 0.55177 0.71716 0.71442
 C2024 C 0.56415 0.72521 0.69068
 H2025 H 0.58203 0.71778 0.74471
 H2026 H 0.57983 0.66927 0.72756
 H2027 H 0.60565 0.73162 0.70088
 H2028 H 0.55752 0.69299 0.66267
 H2029 H 0.53379 0.67914 0.70652
 H2030 H 0.55940 0.74160 0.68007
 C2031 C 0.57583 0.20905 0.22597
 C2032 C 0.57472 0.18263 0.21646
 C2033 C 0.58683 0.19114 0.19290
 C2034 C 0.58841 0.21726 0.20218
 C2035 C 0.56218 0.19589 0.18097
 C2036 C 0.54960 0.18772 0.20483
 C2037 C 0.55096 0.21395 0.21425
 C2038 C 0.56329 0.22230 0.19058
 H2039 H 0.58118 0.21467 0.24458
 H2040 H 0.57950 0.16626 0.22707
 H2041 H 0.60470 0.22907 0.20088
 H2042 H 0.55703 0.19022 0.16233
 H2043 H 0.53338 0.17581 0.20605
 H2044 H 0.55838 0.23871 0.18008
 C2045 C 0.04941 0.70416 0.18844
 C2046 C 0.07462 0.71548 0.18294
 C2047 C 0.08652 0.69192 0.19153
 C2048 C 0.06176 0.68030 0.19668
 C2049 C 0.08845 0.70139 0.21761
 C2050 C 0.07608 0.72517 0.20933
 C2051 C 0.05111 0.71376 0.21463
 C2052 C 0.06322 0.69010 0.22305
 H2053 H 0.03310 0.70543 0.17667
 H2054 H 0.07938 0.72588 0.16639
 H2055 H 0.05632 0.66171 0.19122
 H2056 H 0.10482 0.70003 0.22926
 H2057 H 0.08171 0.74373 0.21473
 H2058 H 0.05833 0.67981 0.23965
 C2059 C 0.07579 0.20970 0.72734
 C2060 C 0.07413 0.18331 0.71781
 C2061 C 0.08612 0.19164 0.69412
 C2062 C 0.08825 0.21772 0.70341
 C2063 C 0.06142 0.19682 0.68248
 C2064 C 0.04897 0.18884 0.70647
 C2065 C 0.05088 0.21503 0.71590
 C2066 C 0.06308 0.22319 0.69210
 H2067 H 0.08144 0.21520 0.74589
 H2068 H 0.07875 0.16685 0.72835
 H2069 H 0.10472 0.22926 0.70194
 H2070 H 0.05596 0.19126 0.66389
 H2071 H 0.03258 0.17719 0.70786
 H2072 H 0.05833 0.23970 0.68167
 C2073 C 0.42471 0.70772 0.27372
 C2074 C 0.42639 0.68141 0.28335
 C2075 C 0.41446 0.68990 0.30704
 C2076 C 0.41230 0.71589 0.29765
 C2077 C 0.43919 0.69526 0.31860
 C2078 C 0.45158 0.68714 0.29461
 C2079 C 0.44964 0.71324 0.28509
 C2080 C 0.43748 0.72154 0.30889
 H2081 H 0.41901 0.71306 0.25516
 H2082 H 0.42173 0.66484 0.27291
 H2083 H 0.39583 0.72737 0.29911
 H2084 H 0.44469 0.68987 0.33719
 H2085 H 0.46799 0.67554 0.29322
 H2086 H 0.44223 0.73815 0.31925
 C2087 C 0.45139 0.20520 0.81102
 C2088 C 0.42606 0.21603 0.81688
 C2089 C 0.41445 0.19224 0.80835
 C2090 C 0.43931 0.18110 0.80285
 C2091 C 0.41203 0.20165 0.78233
 C2092 C 0.42411 0.22568 0.79055
 C2093 C 0.44918 0.21474 0.78488
 C2094 C 0.43735 0.19084 0.77654
 H2095 H 0.46782 0.20680 0.82257
 H2096 H 0.42132 0.22632 0.83354
 H2097 H 0.44512 0.16262 0.80817
 H2098 H 0.39553 0.19996 0.77089
 H2099 H 0.41812 0.24413 0.78527
 H2100 H 0.44218 0.18063 0.75984
 C2101 C 0.95177 0.70556 0.81144
 C2102 C 0.92660 0.71673 0.81728
 C2103 C 0.91468 0.69301 0.80896
 C2104 C 0.93941 0.68154 0.80348
 C2105 C 0.91231 0.70225 0.78287
 C2106 C 0.92469 0.72620 0.79089
 C2107 C 0.94962 0.71494 0.78525
 C2108 C 0.93750 0.69111 0.77710
 H2109 H 0.96825 0.70705 0.82296
 H2110 H 0.92206 0.72722 0.83387
 H2111 H 0.94501 0.66303 0.80893
 H2112 H 0.89577 0.70067 0.77148
 H2113 H 0.91890 0.74467 0.78549
 H2114 H 0.94219 0.68074 0.76046
 C2115 C 0.92499 0.20911 0.27538
 C2116 C 0.92677 0.18287 0.28517
 C2117 C 0.91483 0.19147 0.30881
 C2118 C 0.91259 0.21740 0.29926
 C2119 C 0.93954 0.19698 0.32033
 C2120 C 0.95194 0.18873 0.29638
 C2121 C 0.94992 0.21477 0.28670
 C2122 C 0.93776 0.22320 0.31045
 H2123 H 0.91928 0.21432 0.25679
 H2124 H 0.92216 0.16622 0.27483
 H2125 H 0.89608 0.22884 0.30066
 H2126 H 0.94507 0.19172 0.33896
 H2127 H 0.96838 0.17719 0.29506
 H2128 H 0.94248 0.23989 0.32069
 C2129 C 0.30954 0.29405 0.54988
 C2130 C 0.30137 0.31797 0.56226
 C2131 C 0.30658 0.30645 0.58698
 C2132 C 0.31511 0.28283 0.57506
 C2133 C 0.28047 0.29703 0.58905
 C2134 C 0.27497 0.30823 0.56387
 C2135 C 0.28333 0.28451 0.55173
 C2136 C 0.28869 0.27318 0.57666
 H2137 H 0.32127 0.29269 0.53353
 H2138 H 0.30684 0.33653 0.55679
 H2139 H 0.33168 0.27244 0.57975
 H2140 H 0.26886 0.29848 0.60547
 H2141 H 0.25836 0.31853 0.55907
 H2142 H 0.28327 0.25466 0.58232
 C2143 C 0.27685 0.80821 0.06369
 C2144 C 0.28221 0.79678 0.08879
 C2145 C 0.30833 0.80621 0.08696
 C2146 C 0.30326 0.81797 0.06232
 C2147 C 0.31692 0.78270 0.07485
 C2148 C 0.29050 0.77304 0.07622
 C2149 C 0.28527 0.78460 0.05137
 C2150 C 0.31150 0.79416 0.04976
 H2151 H 0.26028 0.81856 0.05890
 H2152 H 0.27051 0.79807 0.10517
 H2153 H 0.30876 0.83658 0.05706
 H2154 H 0.33346 0.77225 0.07953
 H2155 H 0.28504 0.75447 0.08167
 H2156 H 0.32331 0.79296 0.03346
 C2157 C 0.81141 0.29454 0.04934
 C2158 C 0.80312 0.31828 0.06200
 C2159 C 0.80838 0.30651 0.08659
 C2160 C 0.81703 0.28306 0.07439
 C2161 C 0.78233 0.29694 0.08855
 C2162 C 0.77677 0.30838 0.06349
 C2163 C 0.78525 0.28483 0.05109
 C2164 C 0.79067 0.27327 0.07589
 H2165 H 0.82315 0.29342 0.03298
 H2166 H 0.80849 0.33693 0.05674
 H2167 H 0.83364 0.27267 0.07893
 H2168 H 0.77071 0.29814 0.10498
 H2169 H 0.76011 0.31865 0.05881
 H2170 H 0.78535 0.25465 0.08134
 C2171 C 0.81141 0.79722 0.55009
 C2172 C 0.80329 0.82110 0.56259
 C2173 C 0.80857 0.80948 0.58724
 C2174 C 0.81704 0.78590 0.57520
 C2175 C 0.78246 0.80008 0.58936
 C2176 C 0.77688 0.81137 0.56424
 C2177 C 0.78519 0.78768 0.55199
 C2178 C 0.79063 0.77627 0.57686
 H2179 H 0.82307 0.79591 0.53369
 H2180 H 0.80876 0.83968 0.55717
 H2181 H 0.83361 0.77546 0.57978
 H2182 H 0.77091 0.80147 0.60583
 H2183 H 0.76026 0.82169 0.55952
 H2184 H 0.78522 0.75773 0.58247
 C2185 C 0.27589 0.70910 0.42353
 C2186 C 0.29979 0.71715 0.41100
 C2187 C 0.30923 0.69120 0.41344
 C2188 C 0.28556 0.68284 0.42552
 C2189 C 0.32085 0.69686 0.43806
 C2190 C 0.31108 0.72312 0.43608
 C2191 C 0.28730 0.71492 0.44836
 C2192 C 0.29688 0.68886 0.45059
 H2193 H 0.25730 0.71434 0.41783
 H2194 H 0.30121 0.72843 0.39440
 H2195 H 0.27509 0.66621 0.42113
 H2196 H 0.33948 0.69156 0.44358
 H2197 H 0.32141 0.73980 0.44064
 H2198 H 0.29555 0.67746 0.46711
 C2199 C 0.27455 0.20756 0.92344
 C2200 C 0.29852 0.21583 0.91120
 C2201 C 0.30803 0.18988 0.91345
 C2202 C 0.28430 0.18130 0.92523
 C2203 C 0.31942 0.19534 0.93822
 C2204 C 0.30958 0.22157 0.93642
 C2205 C 0.28574 0.21318 0.94842
 C2206 C 0.29537 0.18712 0.95046
 H2207 H 0.25599 0.21281 0.91763
 H2208 H 0.30004 0.22729 0.89473
 H2209 H 0.27397 0.16467 0.92052
 H2210 H 0.33802 0.19004 0.94385
 H2211 H 0.31982 0.23824 0.94122
 H2212 H 0.29394 0.17556 0.96686
 C2213 C 0.81057 0.70621 0.95160
 C2214 C 0.80278 0.68214 0.93923
 C2215 C 0.80846 0.69355 0.91455
 C2216 C 0.81662 0.71732 0.92646
 C2217 C 0.78236 0.70273 0.91191
 C2218 C 0.77638 0.69164 0.93704
 C2219 C 0.78435 0.71551 0.94917
 C2220 C 0.79020 0.72673 0.92429
 H2221 H 0.82192 0.70777 0.96817
 H2222 H 0.80823 0.66366 0.94492
 H2223 H 0.83325 0.72781 0.92202
 H2224 H 0.77113 0.70107 0.89526
 H2225 H 0.75972 0.68124 0.94159
 H2226 H 0.78480 0.74518 0.91842
 C2227 C 0.79040 0.22674 0.42378
 C2228 C 0.81681 0.21727 0.42587
 C2229 C 0.80851 0.19343 0.41419
 C2230 C 0.78242 0.20266 0.41164
 C2231 C 0.80294 0.18224 0.43900
 C2232 C 0.81088 0.20638 0.45113
 C2233 C 0.78467 0.21575 0.44880
 C2234 C 0.77656 0.19180 0.43691
 H2235 H 0.78502 0.24515 0.41778
 H2236 H 0.83343 0.22768 0.42125
 H2237 H 0.77108 0.20091 0.39508
 H2238 H 0.80837 0.16379 0.44482
 H2239 H 0.82234 0.20805 0.46762
 H2240 H 0.75989 0.18148 0.44164
 C2241 C 0.70797 0.27464 0.42321
 C2242 C 0.68156 0.28421 0.42491
 C2243 C 0.69004 0.30779 0.41291
 C2244 C 0.71614 0.29845 0.41074
 C2245 C 0.69536 0.31948 0.43758
 C2246 C 0.68723 0.29560 0.45004
 C2247 C 0.71344 0.28614 0.44809
 C2248 C 0.72175 0.30982 0.43587
 H2249 H 0.71336 0.25610 0.41756
 H2250 H 0.66496 0.27374 0.42030
 H2251 H 0.72768 0.29983 0.39426
 H2252 H 0.68991 0.33805 0.44304
 H2253 H 0.67558 0.29430 0.46645
 H2254 H 0.73838 0.32020 0.44058
 C2255 C 0.72509 0.79170 0.92397
 C2256 C 0.70124 0.78371 0.91131
 C2257 C 0.69196 0.80974 0.91361
 C2258 C 0.71557 0.81805 0.92580
 C2259 C 0.68009 0.80433 0.93817
 C2260 C 0.68971 0.77800 0.93634
 C2261 C 0.71342 0.78613 0.94874
 C2262 C 0.70401 0.81228 0.95082
 H2263 H 0.74369 0.78629 0.91839
 H2264 H 0.69990 0.77231 0.89474
 H2265 H 0.72615 0.83459 0.92137
 H2266 H 0.66146 0.80980 0.94356
 H2267 H 0.67922 0.76142 0.94088
 H2268 H 0.70527 0.82379 0.96732
 C2269 C 0.22625 0.28981 0.92383
 C2270 C 0.20226 0.28178 0.91146
 C2271 C 0.19289 0.30776 0.91403
 C2272 C 0.21664 0.31611 0.92593
 C2273 C 0.18140 0.30217 0.93873
 C2274 C 0.19110 0.27589 0.93662
 C2275 C 0.21496 0.28406 0.94873
 C2276 C 0.20545 0.31015 0.95108
 H2277 H 0.24480 0.28451 0.91796
 H2278 H 0.20073 0.27046 0.89485
 H2279 H 0.22709 0.33271 0.92145
 H2280 H 0.16282 0.30752 0.94441
 H2281 H 0.18076 0.25924 0.94121
 H2282 H 0.20690 0.32158 0.96762
 C2283 C 0.21011 0.77338 0.42321
 C2284 C 0.18361 0.78269 0.42511
 C2285 C 0.19181 0.80642 0.41323
 C2286 C 0.21798 0.79734 0.41085
 C2287 C 0.19716 0.81800 0.43794
 C2288 C 0.18933 0.79398 0.45029
 C2289 C 0.21562 0.78478 0.44813
 C2290 C 0.22363 0.80861 0.43602
 H2291 H 0.21566 0.75493 0.41742
 H2292 H 0.16709 0.77211 0.42052
 H2293 H 0.22940 0.79894 0.39431
 H2294 H 0.19156 0.83649 0.44355
 H2295 H 0.17780 0.79247 0.46676
 H2296 H 0.24018 0.81912 0.44069
 C2297 C 0.70598 0.69027 0.55080
 C2298 C 0.71745 0.68504 0.57595
 C2299 C 0.69373 0.69332 0.58794
 C2300 C 0.68196 0.69820 0.56326
 C2301 C 0.70285 0.71948 0.58981
 C2302 C 0.72680 0.71151 0.57735
 C2303 C 0.71522 0.71654 0.55245
 C2304 C 0.69140 0.72465 0.56466
 H2305 H 0.70739 0.67850 0.53450
 H2306 H 0.72811 0.66868 0.58069
 H2307 H 0.66338 0.69247 0.55792
 H2308 H 0.70136 0.73115 0.60618
 H2309 H 0.74535 0.71719 0.58288
 H2310 H 0.68082 0.74104 0.55983
 C2311 C 0.71041 0.22534 0.07633
 C2312 C 0.68409 0.21539 0.07516
 C2313 C 0.69300 0.19203 0.08722
 C2314 C 0.71903 0.20176 0.08884
 C2315 C 0.69807 0.18022 0.06254
 C2316 C 0.68950 0.20388 0.05003
 C2317 C 0.71562 0.21375 0.05143
 C2318 C 0.72438 0.19028 0.06369
 H2319 H 0.71567 0.24400 0.08174
 H2320 H 0.66748 0.22571 0.07994
 H2321 H 0.73084 0.20068 0.10512
 H2322 H 0.69276 0.16153 0.05732
 H2323 H 0.67758 0.20489 0.03383
 H2324 H 0.74105 0.18010 0.05877
 C2325 C 0.20510 0.68803 0.04881
 C2326 C 0.21640 0.68248 0.07397
 C2327 C 0.19272 0.69098 0.08592
 C2328 C 0.18112 0.69617 0.06122
 C2329 C 0.20216 0.71701 0.08801
 C2330 C 0.22606 0.70882 0.07560
 C2331 C 0.21466 0.71417 0.05069
 C2332 C 0.19088 0.72249 0.06285
 H2333 H 0.20645 0.67635 0.03244
 H2334 H 0.22684 0.66597 0.07864
 H2335 H 0.16250 0.69070 0.05576
 H2336 H 0.20073 0.72858 0.10446
 H2337 H 0.24465 0.71424 0.08125
 H2338 H 0.18054 0.73904 0.05808
 C2339 C 0.20332 0.18776 0.55028
 C2340 C 0.21485 0.18238 0.57537
 C2341 C 0.19126 0.19086 0.58748
 C2342 C 0.17943 0.19589 0.56285
 C2343 C 0.20063 0.21693 0.58935
 C2344 C 0.22445 0.20875 0.57678
 C2345 C 0.21283 0.21393 0.55193
 C2346 C 0.18913 0.22225 0.56425
 H2347 H 0.20456 0.17599 0.53396
 H2348 H 0.22540 0.16592 0.58002
 H2349 H 0.16077 0.19034 0.55758
 H2350 H 0.19931 0.22859 0.60574
 H2351 H 0.24307 0.21425 0.58224
 H2352 H 0.17870 0.23875 0.55948
   
