data_POSCAR
  _audit_creation_date              2014-09-24
  _audit_creation_method            'ToBaCCo'
  _symmetry_space_group_name_H-M    'P1'
  _symmetry_Int_Tables_number       1
  _symmetry_cell_setting            triclinic
  loop_
  _symmetry_equiv_pos_as_xyz
 x,y,z
_cell_length_a 76.5894
_cell_length_b 76.5670
_cell_length_c 76.5731
_cell_angle_alpha 90.027100
_cell_angle_beta 90.046000
_cell_angle_gamma 90.030200
loop_
  _atom_site_label
  _atom_site_type_symbol
  _atom_site_fract_x
  _atom_site_fract_y
  _atom_site_fract_z
C1 C 0.10032 0.01513 0.22944
 H2 H 0.09984 0.02548 0.23905
 C3 C 0.09074 0.01659 0.21395
 H4 H 0.08278 0.02808 0.21181
 C5 C 0.11183 -0.01209 0.22032
 H6 H 0.12042 -0.02303 0.22255
 C7 C 0.10247 -0.01120 0.20473
 H8 H 0.10386 -0.02167 0.19533
 N9 N 0.11063 0.00096 0.23231
 C10 C 0.12136 -0.00265 0.28806
 H11 H 0.13544 -0.00359 0.28730
 C12 C 0.11306 -0.00404 0.30417
 H13 H 0.12093 -0.00596 0.31575
 C14 C 0.09419 0.00070 0.27362
 H15 H 0.08692 0.00230 0.26163
 C16 C 0.08530 -0.00062 0.28954
 H17 H 0.07118 0.00013 0.28963
 Zn18 Zn 0.12508 0.00036 0.25238
 N19 N 0.11192 -0.00022 0.27323
 C20 C 0.13844 0.03227 0.26526
 N21 N 0.13935 0.02054 0.25196
 C22 C 0.14939 0.02365 0.23765
 C23 C 0.15906 0.03909 0.23635
 C24 C 0.14791 0.04782 0.26453
 C25 C 0.12931 -0.03531 0.25461
 C26 C 0.13778 -0.05138 0.25511
 C27 C 0.16528 -0.03635 0.25120
 C28 C 0.15619 -0.02050 0.25079
 N29 N 0.13851 -0.02033 0.25231
 H30 H 0.13006 0.02983 0.27632
 H31 H 0.14963 0.01425 0.22710
 H32 H 0.16683 0.04139 0.22477
 H33 H 0.14680 0.05701 0.27522
 H34 H 0.11527 -0.03473 0.25602
 H35 H 0.12990 -0.06300 0.25687
 H36 H 0.17936 -0.03605 0.24988
 H37 H 0.16327 -0.00839 0.24932
 C38 C 0.09478 -0.00306 0.30509
 C39 C 0.09188 0.00336 0.20126
 C40 C 0.15610 -0.05221 0.25335
 C41 C 0.15829 0.05149 0.24987
 C42 C 0.39851 0.01504 0.77192
 H43 H 0.39937 0.02576 0.76277
 C44 C 0.40748 0.01585 0.78783
 H45 H 0.41537 0.02723 0.79074
 C46 C 0.38660 -0.01250 0.77948
 H47 H 0.37810 -0.02333 0.77647
 C48 C 0.39535 -0.01225 0.79544
 H49 H 0.39358 -0.02310 0.80434
 N50 N 0.38829 0.00101 0.76808
 C51 C 0.37957 -0.00089 0.71190
 H52 H 0.36551 -0.00217 0.71218
 C53 C 0.38838 -0.00139 0.69602
 H54 H 0.38090 -0.00301 0.68413
 C55 C 0.40621 0.00261 0.72729
 H56 H 0.41307 0.00398 0.73955
 C57 C 0.41560 0.00219 0.71161
 H58 H 0.42968 0.00336 0.71197
 Zn59 Zn 0.37459 0.00114 0.74747
 N60 N 0.38850 0.00124 0.72710
 C61 C 0.36211 0.03349 0.73505
 N62 N 0.36045 0.02144 0.74798
 C63 C 0.34993 0.02440 0.76197
 C64 C 0.34059 0.04004 0.76335
 C65 C 0.35301 0.04922 0.73586
 C66 C 0.37048 -0.03438 0.74365
 C67 C 0.36212 -0.05049 0.74263
 C68 C 0.33451 -0.03585 0.74693
 C69 C 0.34346 -0.01991 0.74784
 N70 N 0.36115 -0.01954 0.74641
 H71 H 0.37086 0.03118 0.72425
 H72 H 0.34910 0.01475 0.77226
 H73 H 0.33246 0.04224 0.77470
 H74 H 0.35476 0.05865 0.72548
 H75 H 0.38453 -0.03365 0.74238
 H76 H 0.36992 -0.06210 0.74058
 H77 H 0.32044 -0.03595 0.74825
 H78 H 0.33627 -0.00792 0.74975
 C79 C 0.40664 0.00019 0.69568
 C80 C 0.40582 0.00213 0.79991
 C81 C 0.34390 -0.05143 0.74438
 C82 C 0.34220 0.05278 0.75023
 C83 C 0.89844 0.51522 0.27140
 H84 H 0.89945 0.52585 0.26214
 C85 C 0.90737 0.51611 0.28733
 H86 H 0.91534 0.52747 0.29005
 C87 C 0.88627 0.48788 0.27915
 H88 H 0.87769 0.47709 0.27620
 C89 C 0.89494 0.48818 0.29515
 H90 H 0.89299 0.47736 0.30404
 N91 N 0.88812 0.50126 0.26764
 C92 C 0.87972 0.49884 0.21141
 H93 H 0.86565 0.49756 0.21163
 C94 C 0.88861 0.49821 0.19557
 H95 H 0.88118 0.49650 0.18366
 C96 C 0.90628 0.50247 0.22690
 H97 H 0.91307 0.50394 0.23918
 C98 C 0.91574 0.50193 0.21127
 H99 H 0.92982 0.50312 0.21169
 Zn100 Zn 0.87454 0.50126 0.24693
 N101 N 0.88857 0.50109 0.22663
 C102 C 0.86220 0.53351 0.23407
 N103 N 0.86048 0.52161 0.24715
 C104 C 0.84986 0.52473 0.26103
 C105 C 0.84045 0.54035 0.26214
 C106 C 0.85303 0.54921 0.23461
 C107 C 0.87020 0.46570 0.24349
 C108 C 0.86171 0.44964 0.24264
 C109 C 0.83420 0.46457 0.24661
 C110 C 0.84327 0.48043 0.24735
 N111 N 0.86098 0.48065 0.24601
 H112 H 0.87102 0.53107 0.22336
 H113 H 0.84898 0.51520 0.27143
 H114 H 0.83223 0.54266 0.27339
 H115 H 0.85480 0.55851 0.22412
 H116 H 0.88426 0.46630 0.24228
 H117 H 0.86943 0.43795 0.24079
 H118 H 0.82012 0.46460 0.24785
 H119 H 0.83617 0.49250 0.24905
 C120 C 0.90687 0.49982 0.19531
 C121 C 0.90556 0.50252 0.29961
 C122 C 0.84348 0.44888 0.24431
 C123 C 0.84209 0.55291 0.24885
 C124 C 0.60034 0.51605 0.72854
 H125 H 0.59982 0.52644 0.73810
 C126 C 0.59081 0.51743 0.71301
 H127 H 0.58285 0.52890 0.71080
 C128 C 0.61190 0.48879 0.71958
 H129 H 0.62047 0.47786 0.72191
 C130 C 0.60259 0.48960 0.70396
 H131 H 0.60401 0.47908 0.69462
 N132 N 0.61063 0.50189 0.73151
 C133 C 0.62072 0.49832 0.78735
 H134 H 0.63479 0.49721 0.78675
 C135 C 0.61224 0.49718 0.80338
 H136 H 0.61997 0.49527 0.81506
 C137 C 0.59375 0.50193 0.77261
 H138 H 0.58662 0.50355 0.76053
 C139 C 0.58468 0.50087 0.78844
 H140 H 0.57058 0.50183 0.78838
 Zn141 Zn 0.62487 0.50130 0.75172
 N142 N 0.61147 0.50079 0.77241
 C143 C 0.63803 0.53319 0.76478
 N144 N 0.63914 0.52149 0.75147
 C145 C 0.64937 0.52464 0.73730
 C146 C 0.65902 0.54011 0.73616
 C147 C 0.64746 0.54875 0.76420
 C148 C 0.62903 0.46562 0.75407
 C149 C 0.63750 0.44955 0.75462
 C150 C 0.66502 0.46454 0.75089
 C151 C 0.65597 0.48040 0.75042
 N152 N 0.63827 0.48060 0.75182
 H153 H 0.62951 0.53072 0.77572
 H154 H 0.64977 0.51526 0.72674
 H155 H 0.66694 0.54245 0.72469
 H156 H 0.64619 0.55792 0.77490
 H157 H 0.61498 0.46621 0.75537
 H158 H 0.62978 0.43783 0.75632
 H159 H 0.67911 0.46459 0.74967
 H160 H 0.66309 0.49250 0.74897
 C161 C 0.59397 0.49846 0.80411
 C162 C 0.59199 0.50413 0.70040
 C163 C 0.65574 0.44882 0.75298
 C164 C 0.65803 0.55247 0.74969
 C165 C 0.27065 0.10014 0.98446
 H166 H 0.26108 0.09963 0.97408
 C167 C 0.28601 0.09033 0.98321
 H168 H 0.28808 0.08218 0.97184
 C169 C 0.27982 0.11190 1.01158
 H170 H 0.27765 0.12066 1.02241
 C171 C 0.29526 0.10232 1.01089
 H172 H 0.30463 0.10372 1.02140
 N173 N 0.26786 0.11066 0.99850
 C174 C 0.21222 0.12172 1.00198
 H175 H 0.21305 0.13580 1.00282
 C176 C 0.19607 0.11349 1.00337
 H177 H 0.18452 0.12143 1.00521
 C178 C 0.22651 0.09446 0.99882
 H179 H 0.23846 0.08712 0.99730
 C180 C 0.21055 0.08564 1.00015
 H181 H 0.21038 0.07152 0.99948
 Zn182 Zn 0.24792 0.12526 0.99893
 N183 N 0.22700 0.11220 0.99963
 C184 C 0.23511 0.13812 0.96683
 N185 N 0.24841 0.13925 0.97856
 C186 C 0.26274 0.14921 0.97526
 C187 C 0.26410 0.15852 0.95960
 C188 C 0.23589 0.14722 0.95109
 C189 C 0.24562 0.12977 1.03450
 C190 C 0.24524 0.13831 1.05055
 C191 C 0.24960 0.16570 1.03545
 C192 C 0.24988 0.15654 1.01963
 N193 N 0.24808 0.13888 1.01950
 H194 H 0.22403 0.12981 0.96943
 H195 H 0.27329 0.14963 0.98466
 H196 H 0.27570 0.16621 0.95714
 H197 H 0.22521 0.14591 0.94191
 H198 H 0.24401 0.11574 1.03396
 H199 H 0.24334 0.13049 1.06218
 H200 H 0.25116 0.17976 1.03513
 H201 H 0.25150 0.16355 1.00749
 C202 C 0.19505 0.09520 1.00248
 C203 C 0.29863 0.09147 0.99650
 C204 C 0.24730 0.15660 1.05134
 C205 C 0.25060 0.15747 0.94720
 C206 C 0.72983 0.39853 0.98615
 H207 H 0.73900 0.39938 0.97545
 C208 C 0.71402 0.40766 0.98537
 H209 H 0.71121 0.41564 0.97404
 C210 C 0.72211 0.38655 1.01360
 H211 H 0.72501 0.37797 1.02439
 C212 C 0.70624 0.39545 1.01339
 H213 H 0.69732 0.39371 1.02420
 N214 N 0.73354 0.38822 1.00013
 C215 C 0.78970 0.37942 1.00224
 H216 H 0.78943 0.36534 1.00342
 C217 C 0.80557 0.38827 1.00287
 H218 H 0.81747 0.38081 1.00449
 C219 C 0.77430 0.40605 0.99887
 H220 H 0.76204 0.41289 0.99751
 C221 C 0.78997 0.41547 0.99942
 H222 H 0.78959 0.42956 0.99834
 Zn223 Zn 0.75409 0.37444 1.00000
 N224 N 0.77451 0.38833 1.00012
 C225 C 0.76667 0.36197 0.96767
 N226 N 0.75363 0.36040 0.97961
 C227 C 0.73958 0.34996 0.97653
 C228 C 0.73828 0.34058 0.96090
 C229 C 0.76593 0.35282 0.95194
 C230 C 0.75766 0.36997 1.03553
 C231 C 0.75841 0.36147 1.05157
 C232 C 0.75401 0.33402 1.03656
 C233 C 0.75338 0.34315 1.02074
 N234 N 0.75496 0.36083 1.02057
 H235 H 0.77751 0.37065 0.97008
 H236 H 0.72922 0.34919 0.98610
 H237 H 0.72690 0.33250 0.95862
 H238 H 0.77640 0.35448 0.94261
 H239 H 0.75907 0.38402 1.03495
 H240 H 0.76043 0.36932 1.06317
 H241 H 0.75254 0.31995 1.03628
 H242 H 0.75154 0.33610 1.00865
 C243 C 0.80589 0.40655 1.00141
 C244 C 0.70191 0.40606 0.99907
 C245 C 0.75644 0.34317 1.05242
 C246 C 0.75152 0.34206 0.94828
 C247 C 0.22922 0.89847 0.48622
 H248 H 0.23848 0.89929 0.47559
 C249 C 0.21334 0.90744 0.48520
 H250 H 0.21056 0.91528 0.47377
 C251 C 0.22137 0.88670 0.51373
 H252 H 0.22426 0.87826 0.52463
 C253 C 0.20543 0.89545 0.51328
 H254 H 0.19642 0.89374 0.52403
 N255 N 0.23291 0.88833 0.50033
 C256 C 0.28907 0.87982 0.50277
 H257 H 0.28881 0.86576 0.50414
 C258 C 0.30493 0.88868 0.50332
 H259 H 0.31682 0.88125 0.50508
 C260 C 0.27366 0.90639 0.49898
 H261 H 0.26140 0.91320 0.49747
 C262 C 0.28932 0.91583 0.49944
 H263 H 0.28894 0.92990 0.49816
 Zn264 Zn 0.25354 0.87469 0.50046
 N265 N 0.27388 0.88868 0.50047
 C266 C 0.26627 0.86207 0.46828
 N267 N 0.25325 0.86043 0.48023
 C268 C 0.23931 0.84983 0.47722
 C269 C 0.23808 0.84040 0.46161
 C270 C 0.26560 0.85286 0.45259
 C271 C 0.25701 0.87076 0.53605
 C272 C 0.25810 0.86244 0.55217
 C273 C 0.25433 0.83473 0.53752
 C274 C 0.25334 0.84363 0.52158
 N275 N 0.25449 0.86136 0.52121
 H276 H 0.27702 0.87087 0.47064
 H277 H 0.22896 0.84901 0.48679
 H278 H 0.22677 0.83221 0.45936
 H279 H 0.27605 0.85460 0.44323
 H280 H 0.25809 0.88483 0.53531
 H281 H 0.25999 0.87029 0.56378
 H282 H 0.25328 0.82063 0.53762
 H283 H 0.25164 0.83640 0.50958
 C284 C 0.30524 0.90694 0.50160
 C285 C 0.20113 0.90586 0.49881
 C286 C 0.25669 0.84418 0.55311
 C287 C 0.25128 0.84198 0.44897
 C288 C 0.77055 0.59961 0.48469
 H289 H 0.76092 0.59909 0.47436
 C290 C 0.78595 0.58988 0.48331
 H291 H 0.78798 0.58178 0.47191
 C292 C 0.77983 0.61136 0.51178
 H293 H 0.77770 0.62008 0.52264
 C294 C 0.79532 0.60185 0.51097
 H295 H 0.80475 0.60328 0.52142
 N296 N 0.76781 0.61010 0.49877
 C297 C 0.71218 0.62121 0.50254
 H298 H 0.71308 0.63528 0.50349
 C299 C 0.69600 0.61305 0.50391
 H300 H 0.68449 0.62102 0.50583
 C301 C 0.72634 0.59391 0.49912
 H302 H 0.73826 0.58654 0.49748
 C303 C 0.71034 0.58516 0.50041
 H304 H 0.71010 0.57104 0.49961
 Zn305 Zn 0.74784 0.62467 0.49931
 N306 N 0.72691 0.61164 0.50007
 C307 C 0.73484 0.63775 0.46737
 N308 N 0.74823 0.63874 0.47899
 C309 C 0.76253 0.64875 0.47571
 C310 C 0.76371 0.65833 0.46021
 C311 C 0.73544 0.64711 0.45178
 C312 C 0.74577 0.62929 0.53494
 C313 C 0.74536 0.63797 0.55092
 C314 C 0.74937 0.66527 0.53560
 C315 C 0.74970 0.65601 0.51984
 N316 N 0.74808 0.63832 0.51985
 H317 H 0.72378 0.62939 0.46995
 H318 H 0.77315 0.64906 0.48503
 H319 H 0.77527 0.66610 0.45778
 H320 H 0.72467 0.64595 0.44269
 H321 H 0.74429 0.61524 0.53452
 H322 H 0.74359 0.63041 0.56273
 H323 H 0.75074 0.67934 0.53538
 H324 H 0.75117 0.66297 0.50766
 C325 C 0.69489 0.59478 0.50285
 C326 C 0.79866 0.59106 0.49652
 C327 C 0.74721 0.65621 0.55143
 C328 C 0.75007 0.65749 0.44794
 C329 C 0.01523 0.23018 0.10061
 H330 H 0.02589 0.23943 0.09982
 C331 C 0.01612 0.21438 0.09146
 H332 H 0.02748 0.21165 0.08352
 C333 C -0.01221 0.22228 0.11248
 H334 H -0.02304 0.22511 0.12104
 C335 C -0.01189 0.20643 0.10355
 H336 H -0.02267 0.19743 0.10524
 N337 N 0.00121 0.23380 0.11089
 C338 C -0.00117 0.28988 0.12013
 H339 H -0.00244 0.28946 0.13420
 C340 C -0.00177 0.30584 0.11147
 H341 H -0.00347 0.31760 0.11915
 C342 C 0.00243 0.27476 0.09338
 H343 H 0.00390 0.26256 0.08643
 C344 C 0.00193 0.29051 0.08411
 H345 H 0.00313 0.29016 0.07003
 Zn346 Zn 0.00125 0.25428 0.12480
 N347 N 0.00106 0.27479 0.11108
 C348 C 0.03351 0.26697 0.13732
 N349 N 0.02163 0.25384 0.13883
 C350 C 0.02479 0.23975 0.14917
 C351 C 0.04046 0.23848 0.15849
 C352 C 0.04926 0.26626 0.14642
 C353 C -0.03428 0.25766 0.12927
 C354 C -0.05030 0.25837 0.13782
 C355 C -0.03528 0.25391 0.16522
 C356 C -0.01946 0.25332 0.15610
 N357 N -0.01931 0.25497 0.13842
 H358 H 0.03103 0.27785 0.12872
 H359 H 0.01528 0.22933 0.14988
 H360 H 0.04281 0.22706 0.16649
 H361 H 0.05855 0.27680 0.14481
 H362 H -0.03373 0.25912 0.11523
 H363 H -0.06202 0.26036 0.13016
 H364 H -0.03520 0.25241 0.17928
 H365 H -0.00736 0.25148 0.16314
 C366 C -0.00016 0.30642 0.09316
 C367 C 0.00248 0.20219 0.09300
 C368 C -0.05100 0.25637 0.15603
 C369 C 0.05301 0.25181 0.15706
 C370 C 0.01370 0.76957 0.39972
 H371 H 0.02408 0.76001 0.40012
 C372 C 0.01516 0.78505 0.40933
 H373 H 0.02668 0.78721 0.41724
 C374 C -0.01361 0.77862 0.38834
 H375 H -0.02459 0.77637 0.37979
 C376 C -0.01272 0.79418 0.39774
 H377 H -0.02323 0.80354 0.39642
 N378 N -0.00051 0.76668 0.38945
 C379 C -0.00418 0.71097 0.37844
 H380 H -0.00532 0.71181 0.36438
 C381 C -0.00532 0.69480 0.38666
 H382 H -0.00727 0.68324 0.37874
 C383 C -0.00046 0.72525 0.40566
 H384 H 0.00121 0.73720 0.41298
 C385 C -0.00152 0.70926 0.41446
 H386 H -0.00051 0.70908 0.42856
 Zn387 Zn -0.00111 0.74668 0.37489
 N388 N -0.00166 0.72575 0.38794
 C389 C 0.03078 0.73384 0.36155
 N390 N 0.01911 0.74719 0.36069
 C391 C 0.02234 0.76158 0.35080
 C392 C 0.03785 0.76293 0.34126
 C393 C 0.04638 0.73462 0.35222
 C394 C -0.03677 0.74440 0.37050
 C395 C -0.05282 0.74408 0.36197
 C396 C -0.03773 0.74843 0.33458
 C397 C -0.02190 0.74864 0.34373
 N398 N -0.02177 0.74684 0.36139
 H399 H 0.02825 0.72270 0.36981
 H400 H 0.01298 0.77217 0.35059
 H401 H 0.04025 0.77458 0.33362
 H402 H 0.05552 0.72388 0.35330
 H403 H -0.03622 0.74277 0.38452
 H404 H -0.06446 0.74221 0.36978
 H405 H -0.03740 0.75000 0.32053
 H406 H -0.00978 0.75024 0.33671
 C407 C -0.00398 0.69375 0.40492
 C408 C 0.00188 0.79769 0.40828
 C409 C -0.05362 0.74618 0.34368
 C410 C 0.05018 0.74937 0.34201
 C411 C 0.51381 0.26862 0.89961
 H412 H 0.52427 0.25914 0.90017
 C413 C 0.51498 0.28409 0.90927
 H414 H 0.52637 0.28635 0.91735
 C415 C 0.48658 0.27740 0.88787
 H416 H 0.47573 0.27504 0.87918
 C417 C 0.48718 0.29297 0.89730
 H418 H 0.47660 0.30222 0.89585
 N419 N 0.49976 0.26558 0.88917
 C420 C 0.49672 0.20976 0.87869
 H421 H 0.49578 0.21043 0.86460
 C422 C 0.49555 0.19367 0.88707
 H423 H 0.49378 0.18202 0.87926
 C424 C 0.49991 0.22437 0.90580
 H425 H 0.50136 0.23641 0.91301
 C426 C 0.49879 0.20848 0.91477
 H427 H 0.49956 0.20846 0.92888
 Zn428 Zn 0.49944 0.24545 0.87479
 N429 N 0.49898 0.22466 0.88806
 C430 C 0.53155 0.23278 0.86185
 N431 N 0.51973 0.24598 0.86068
 C432 C 0.52285 0.26022 0.85054
 C433 C 0.53838 0.26157 0.84104
 C434 C 0.54718 0.23356 0.85257
 C435 C 0.46384 0.24277 0.87038
 C436 C 0.44781 0.24209 0.86182
 C437 C 0.46284 0.24623 0.83440
 C438 C 0.47868 0.24680 0.84353
 N439 N 0.47882 0.24525 0.86123
 H440 H 0.52911 0.22178 0.87030
 H441 H 0.51337 0.27069 0.85009
 H442 H 0.54068 0.27309 0.83319
 H443 H 0.55643 0.22295 0.85389
 H444 H 0.46439 0.24135 0.88442
 H445 H 0.43608 0.24020 0.86947
 H446 H 0.46294 0.24757 0.82032
 H447 H 0.49078 0.24844 0.83648
 C448 C 0.49657 0.19285 0.90536
 C449 C 0.50159 0.29658 0.90806
 C450 C 0.44712 0.24389 0.84359
 C451 C 0.55087 0.24816 0.84209
 C452 C 0.51488 0.72946 0.60177
 H453 H 0.52549 0.73876 0.60089
 C454 C 0.51579 0.71366 0.59262
 H455 H 0.52711 0.71098 0.58460
 C456 C 0.48756 0.72144 0.61382
 H457 H 0.47677 0.72424 0.62243
 C458 C 0.48790 0.70558 0.60491
 H459 H 0.47718 0.69653 0.60667
 N460 N 0.50091 0.73304 0.61212
 C461 C 0.49829 0.78916 0.62095
 H462 H 0.49701 0.78882 0.63502
 C463 C 0.49762 0.80507 0.61219
 H464 H 0.49587 0.81692 0.61970
 C465 C 0.50199 0.77390 0.59427
 H466 H 0.50351 0.76168 0.58738
 C467 C 0.50141 0.78961 0.58493
 H468 H 0.50261 0.78931 0.57085
 Zn469 Zn 0.50083 0.75362 0.62587
 N470 N 0.50060 0.77402 0.61198
 C471 C 0.53304 0.76653 0.63825
 N472 N 0.52118 0.75342 0.63997
 C473 C 0.52435 0.73952 0.65055
 C474 C 0.54003 0.73843 0.65990
 C475 C 0.54879 0.76601 0.64736
 C476 C 0.46528 0.75690 0.63005
 C477 C 0.44920 0.75784 0.63845
 C478 C 0.46401 0.75395 0.66606
 C479 C 0.47990 0.75312 0.65707
 N480 N 0.48018 0.75440 0.63936
 H481 H 0.53056 0.77726 0.62945
 H482 H 0.51486 0.72909 0.65144
 H483 H 0.54240 0.72715 0.66809
 H484 H 0.55806 0.77653 0.64556
 H485 H 0.46594 0.75808 0.61599
 H486 H 0.43755 0.75970 0.63067
 H487 H 0.46398 0.75279 0.68015
 H488 H 0.49194 0.75143 0.66423
 C489 C 0.49924 0.80548 0.59393
 C490 C 0.50221 0.70140 0.59425
 C491 C 0.44836 0.75628 0.65670
 C492 C 0.55257 0.75174 0.65824
 C493 C 0.90122 0.98700 0.72852
 H494 H 0.90222 0.97645 0.73786
 C495 C 0.91032 0.98638 0.71357
 H496 H 0.91871 0.97528 0.71106
 C497 C 0.88825 1.01429 0.72103
 H498 H 0.87931 1.02487 0.72356
 C499 C 0.89808 1.01427 0.70453
 H500 H 0.89620 1.02516 0.69571
 N501 N 0.88989 1.00154 0.73215
 C502 C 0.87980 1.00602 0.78893
 H503 H 0.86587 1.00823 0.78819
 C504 C 0.88784 1.00614 0.80439
 H505 H 0.88019 1.00852 0.81603
 C506 C 0.90630 1.00045 0.77352
 H507 H 0.91335 0.99813 0.76153
 C508 C 0.91579 1.00041 0.79037
 H509 H 0.92972 0.99802 0.79025
 Zn510 Zn 0.87584 1.00166 0.75259
 N511 N 0.88946 1.00272 0.77320
 C512 C 0.86404 0.96993 0.76688
 N513 N 0.86231 0.98088 0.75300
 C514 C 0.85193 0.97661 0.73921
 C515 C 0.84268 0.96082 0.73914
 C516 C 0.85504 0.95413 0.76738
 C517 C 0.87029 1.03719 0.75526
 C518 C 0.86143 1.05305 0.75465
 C519 C 0.83469 1.03728 0.74895
 C520 C 0.84412 1.02163 0.74971
 N521 N 0.86166 1.02192 0.75252
 H522 H 0.87265 0.97324 0.77754
 H523 H 0.85102 0.98537 0.72817
 H524 H 0.83457 0.95761 0.72801
 H525 H 0.85678 0.94566 0.77856
 H526 H 0.88423 1.03702 0.75758
 H527 H 0.86872 1.06501 0.75660
 H528 H 0.82079 1.03684 0.74642
 H529 H 0.83746 1.00933 0.74779
 C530 C 0.90695 1.00288 0.80542
 C531 C 0.90870 1.00080 0.70061
 C532 C 0.84342 1.05329 0.75125
 C533 C 0.84424 0.94930 0.75336
 C534 C 0.39923 0.48788 0.22807
 H535 H 0.40028 0.47729 0.23736
 C536 C 0.40890 0.48742 0.21256
 H537 H 0.41746 0.47645 0.21009
 C538 C 0.38639 0.51476 0.21979
 H539 H 0.37733 0.52523 0.22234
 C540 C 0.39579 0.51486 0.20423
 H541 H 0.39390 0.52557 0.19521
 N542 N 0.38829 0.50147 0.23142
 C543 C 0.37873 0.50574 0.28736
 H544 H 0.36474 0.50763 0.28669
 C545 C 0.38715 0.50600 0.30347
 H546 H 0.37947 0.50816 0.31514
 C547 C 0.40548 0.50040 0.27277
 H548 H 0.41253 0.49822 0.26076
 C549 C 0.41447 0.50050 0.28870
 H550 H 0.42844 0.49836 0.28876
 Zn551 Zn 0.37425 0.50154 0.25185
 N552 N 0.38787 0.50268 0.27246
 C553 C 0.36271 0.46967 0.26604
 N554 N 0.36080 0.48070 0.25225
 C555 C 0.35037 0.47643 0.23850
 C556 C 0.34126 0.46056 0.23838
 C557 C 0.35386 0.45378 0.26648
 C558 C 0.36877 0.53702 0.25440
 C559 C 0.35998 0.55291 0.25376
 C560 C 0.33316 0.53723 0.24814
 C561 C 0.34253 0.52154 0.24893
 N562 N 0.36007 0.52178 0.25172
 H563 H 0.37138 0.47296 0.27666
 H564 H 0.34932 0.48526 0.22752
 H565 H 0.33312 0.45735 0.22727
 H566 H 0.35576 0.44525 0.27760
 H567 H 0.38271 0.53680 0.25669
 H568 H 0.36732 0.56484 0.25567
 H569 H 0.31925 0.53685 0.24563
 H570 H 0.33582 0.50927 0.24705
 C571 C 0.40523 0.50313 0.30436
 C572 C 0.40718 0.50104 0.20036
 C573 C 0.34196 0.55321 0.25039
 C574 C 0.34303 0.44895 0.25250
 C575 C 0.60016 0.98872 0.27319
 H576 H 0.59865 0.97771 0.26445
 C577 C 0.59167 0.98899 0.28850
 H578 H 0.58328 0.97813 0.29192
 C579 C 0.61376 1.01619 0.27875
 H580 H 0.62264 1.02654 0.27530
 C581 C 0.60464 1.01712 0.29563
 H582 H 0.60700 1.02843 0.30380
 N583 N 0.61144 1.00293 0.26835
 C584 C 0.61747 1.00478 0.21180
 H585 H 0.63144 1.00680 0.21140
 C586 C 0.60795 1.00419 0.19630
 H587 H 0.61479 1.00586 0.18404
 C588 C 0.59184 0.99990 0.22841
 H589 H 0.58565 0.99822 0.24097
 C590 C 0.58177 0.99917 0.21316
 H591 H 0.56785 0.99690 0.21417
 Zn592 Zn 0.62430 1.00209 0.24716
 N593 N 0.60941 1.00234 0.22741
 C594 C 0.63530 0.96976 0.23348
 N595 N 0.63772 0.98123 0.24684
 C596 C 0.64884 0.97751 0.26020
 C597 C 0.65823 0.96182 0.26029
 C598 C 0.64439 0.95402 0.23304
 C599 C 0.62993 1.03746 0.24266
 C600 C 0.63882 1.05333 0.24280
 C601 C 0.66561 1.03765 0.24853
 C602 C 0.65613 1.02201 0.24821
 N603 N 0.63856 1.02227 0.24570
 H604 H 0.62610 0.97262 0.22320
 H605 H 0.65030 0.98667 0.27086
 H606 H 0.66698 0.95908 0.27106
 H607 H 0.64213 0.94515 0.22225
 H608 H 0.61595 1.03726 0.24061
 H609 H 0.63143 1.06520 0.24070
 H610 H 0.67953 1.03714 0.25095
 H611 H 0.66278 1.00977 0.25039
 C612 C 0.58988 1.00111 0.19680
 C613 C 0.59398 1.00405 0.30062
 C614 C 0.65690 1.05370 0.24612
 C615 C 0.65602 0.94981 0.24656
 C616 C 0.10023 0.48918 0.77178
 H617 H 0.09873 0.47809 0.76315
 C618 C 0.09128 0.48966 0.78771
 H619 H 0.08280 0.47889 0.79118
 C620 C 0.11351 0.51644 0.77794
 H621 H 0.12246 0.52672 0.77438
 C622 C 0.10483 0.51746 0.79388
 H623 H 0.10715 0.52868 0.80219
 N624 N 0.11103 0.50252 0.76717
 C625 C 0.11756 0.50363 0.71064
 H626 H 0.13157 0.50543 0.71036
 C627 C 0.10819 0.50303 0.69505
 H628 H 0.11517 0.50446 0.68285
 C629 C 0.09168 0.49939 0.72704
 H630 H 0.08533 0.49799 0.73955
 C631 C 0.08176 0.49867 0.71169
 H632 H 0.06779 0.49668 0.71259
 Zn633 Zn 0.12401 0.50141 0.74608
 N634 N 0.10930 0.50152 0.72619
 C635 C 0.13512 0.46890 0.73290
 N636 N 0.13739 0.48054 0.74613
 C637 C 0.14842 0.47706 0.75962
 C638 C 0.15793 0.46145 0.75997
 C639 C 0.14434 0.45322 0.73271
 C640 C 0.12988 0.53674 0.74145
 C641 C 0.13897 0.55250 0.74136
 C642 C 0.16562 0.53658 0.74694
 C643 C 0.15598 0.52104 0.74686
 N644 N 0.13838 0.52147 0.74452
 H645 H 0.12598 0.47158 0.72252
 H646 H 0.14975 0.48636 0.77018
 H647 H 0.16663 0.45891 0.77082
 H648 H 0.14223 0.44421 0.72201
 H649 H 0.11588 0.53668 0.73953
 H650 H 0.13179 0.56450 0.73927
 H651 H 0.17956 0.53604 0.74922
 H652 H 0.16253 0.50875 0.74904
 C653 C 0.09006 0.50030 0.69540
 C654 C 0.09357 0.50395 0.79902
 C655 C 0.15705 0.55262 0.74443
 C656 C 0.15593 0.44927 0.74635
 C657 C 0.77088 0.90022 0.01319
 H658 H 0.76153 0.90106 0.02374
 C659 C 0.78629 0.91007 0.01384
 H660 H 0.78862 0.91857 0.02491
 C661 C 0.77944 0.88772 -0.01376
 H662 H 0.77704 0.87873 -0.02434
 C663 C 0.79489 0.89731 -0.01368
 H664 H 0.80399 0.89563 -0.02437
 N665 N 0.76772 0.88937 -0.00053
 C666 C 0.71192 0.87936 -0.00552
 H667 H 0.71272 0.86542 -0.00768
 C668 C 0.69574 0.88763 -0.00572
 H669 H 0.68416 0.87987 -0.00812
 C670 C 0.72622 0.90615 0.00051
 H671 H 0.73815 0.91328 0.00296
 C672 C 0.71022 0.91498 0.00049
 H673 H 0.71002 0.92890 0.00296
 Zn674 Zn 0.74740 0.87514 -0.00092
 N675 N 0.72671 0.88859 -0.00214
 C676 C 0.73291 0.86319 0.03065
 N677 N 0.74687 0.86153 0.01980
 C678 C 0.76064 0.85116 0.02414
 C679 C 0.76059 0.84186 0.03989
 C680 C 0.73230 0.85414 0.04640
 C681 C 0.74524 0.86981 -0.03648
 C682 C 0.74608 0.86106 -0.05240
 C683 C 0.75169 0.83423 -0.03677
 C684 C 0.75071 0.84354 -0.02106
 N685 N 0.74783 0.86108 -0.02125
 H686 H 0.72228 0.87180 0.02731
 H687 H 0.77174 0.85030 0.01546
 H688 H 0.77171 0.83377 0.04316
 H689 H 0.72105 0.85583 0.05479
 H690 H 0.74286 0.88373 -0.03622
 H691 H 0.74424 0.86843 -0.06432
 H692 H 0.75427 0.82033 -0.03642
 H693 H 0.75250 0.83681 -0.00880
 C694 C 0.69467 0.90564 -0.00244
 C695 C 0.79857 0.90863 0.00026
 C696 C 0.74955 0.84306 -0.05274
 C697 C 0.74628 0.84335 0.05129
 C698 C 0.27089 0.39941 0.51199
 H699 H 0.26158 0.40017 0.52259
 C700 C 0.28625 0.40932 0.51261
 H701 H 0.28860 0.41778 0.52370
 C702 C 0.27936 0.38707 0.48493
 H703 H 0.27693 0.37812 0.47432
 C704 C 0.29477 0.39673 0.48498
 H705 H 0.30382 0.39514 0.47425
 N706 N 0.26770 0.38861 0.49824
 C707 C 0.21186 0.37843 0.49375
 H708 H 0.21262 0.36447 0.49172
 C709 C 0.19568 0.38672 0.49359
 H710 H 0.18407 0.37897 0.49135
 C711 C 0.22625 0.40526 0.49936
 H712 H 0.23821 0.41240 0.50161
 C713 C 0.21026 0.41412 0.49936
 H714 H 0.21011 0.42808 0.50165
 Zn715 Zn 0.24744 0.37428 0.49795
 N716 N 0.22669 0.38767 0.49690
 C717 C 0.23330 0.36215 0.52963
 N718 N 0.24717 0.36063 0.51865
 C719 C 0.26106 0.35037 0.52283
 C720 C 0.26124 0.34102 0.53855
 C721 C 0.23292 0.35304 0.54537
 C722 C 0.24512 0.36894 0.46237
 C723 C 0.24594 0.36019 0.44645
 C724 C 0.25174 0.33340 0.46208
 C725 C 0.25076 0.34272 0.47779
 N726 N 0.24780 0.36024 0.47760
 H727 H 0.22257 0.37068 0.52642
 H728 H 0.27209 0.34962 0.51404
 H729 H 0.27245 0.33300 0.54168
 H730 H 0.22173 0.35461 0.55387
 H731 H 0.24267 0.38286 0.46263
 H732 H 0.24403 0.36754 0.43453
 H733 H 0.25438 0.31951 0.46244
 H734 H 0.25263 0.33600 0.49005
 C735 C 0.19467 0.40478 0.49665
 C736 C 0.29847 0.40800 0.49897
 C737 C 0.24950 0.34220 0.44611
 C738 C 0.24703 0.34235 0.55009
 C739 C 0.22864 0.60007 0.01224
 H740 H 0.23728 0.59855 0.02332
 C741 C 0.21267 0.59115 0.01182
 H742 H 0.20931 0.58270 0.02264
 C743 C 0.22246 0.61333 -0.01498
 H744 H 0.22604 0.62226 -0.02527
 C745 C 0.20648 0.60470 -0.01598
 H746 H 0.19825 0.60709 -0.02723
 N747 N 0.23325 0.61084 -0.00109
 C748 C 0.28981 0.61732 -0.00219
 H749 H 0.29010 0.63132 -0.00404
 C750 C 0.30538 0.60796 -0.00150
 H751 H 0.31759 0.61495 -0.00291
 C752 C 0.27338 0.59145 0.00211
 H753 H 0.26086 0.58510 0.00351
 C754 C 0.28871 0.58153 0.00292
 H755 H 0.28781 0.56757 0.00498
 Zn756 Zn 0.25438 0.62379 -0.00002
 N757 N 0.27424 0.60906 -0.00009
 C758 C 0.26758 0.63490 0.03250
 N759 N 0.25439 0.63724 0.02083
 C760 C 0.24098 0.64836 0.02429
 C761 C 0.24068 0.65787 0.03991
 C762 C 0.26781 0.64412 0.04819
 C763 C 0.25898 0.62952 -0.03538
 C764 C 0.25914 0.63855 -0.05117
 C765 C 0.25379 0.66531 -0.03531
 C766 C 0.25379 0.65572 -0.01975
 N767 N 0.25599 0.63810 -0.02013
 H768 H 0.27789 0.62569 0.02985
 H769 H 0.23046 0.64974 0.01496
 H770 H 0.22989 0.66664 0.04243
 H771 H 0.27847 0.64195 0.05722
 H772 H 0.26079 0.61551 -0.03528
 H773 H 0.26118 0.63132 -0.06314
 H774 H 0.25164 0.67928 -0.03481
 H775 H 0.25167 0.66234 -0.00748
 C776 C 0.30502 0.58984 0.00132
 C777 C 0.20125 0.59344 -0.00245
 C778 C 0.25623 0.65666 -0.05133
 C779 C 0.25425 0.65580 0.05211
 C780 C 0.72864 0.10144 0.51146
 H781 H 0.73738 0.10000 0.52247
 C782 C 0.71271 0.09245 0.51117
 H783 H 0.70936 0.08401 0.52200
 C784 C 0.72221 0.11455 0.48419
 H785 H 0.72567 0.12343 0.47383
 C786 C 0.70627 0.10584 0.48336
 H787 H 0.69786 0.10806 0.47221
 N788 N 0.73312 0.11216 0.49801
 C789 C 0.78966 0.11838 0.49618
 H790 H 0.79002 0.13238 0.49432
 C791 C 0.80517 0.10890 0.49662
 H792 H 0.81741 0.11580 0.49501
 C793 C 0.77310 0.09263 0.50071
 H794 H 0.76056 0.08637 0.50228
 C795 C 0.78836 0.08260 0.50128
 H796 H 0.78738 0.06865 0.50333
 Zn797 Zn 0.75428 0.12507 0.49876
 N798 N 0.77407 0.11024 0.49851
 C799 C 0.76791 0.13630 0.53106
 N800 N 0.75459 0.13863 0.51954
 C801 C 0.74121 0.14974 0.52316
 C802 C 0.74105 0.15921 0.53881
 C803 C 0.76830 0.14548 0.54677
 C804 C 0.75859 0.13043 0.46335
 C805 C 0.75847 0.13923 0.44744
 C806 C 0.75293 0.16615 0.46296
 C807 C 0.75322 0.15679 0.47866
 N808 N 0.75565 0.13919 0.47851
 H809 H 0.77820 0.12710 0.52828
 H810 H 0.73057 0.15111 0.51396
 H811 H 0.73027 0.16795 0.54147
 H812 H 0.77905 0.14329 0.55569
 H813 H 0.76055 0.11644 0.46363
 H814 H 0.76046 0.13185 0.43555
 H815 H 0.75059 0.18009 0.46329
 H816 H 0.75111 0.16354 0.49087
 C817 C 0.80470 0.09078 0.49941
 C818 C 0.70127 0.09462 0.49696
 C819 C 0.75531 0.15729 0.44704
 C820 C 0.75474 0.15710 0.55088
 C821 C 0.98831 0.72843 0.90070
 H822 H 0.97731 0.73714 0.90229
 C823 C 0.98865 0.71310 0.90917
 H824 H 0.97786 0.70964 0.91761
 C825 C 1.01569 0.72295 0.88696
 H826 H 1.02599 0.72646 0.87803
 C827 C 1.01671 0.70606 0.89604
 H828 H 1.02801 0.69792 0.89362
 N829 N 1.00245 0.73333 0.88936
 C830 C 1.00416 0.79076 0.88283
 H831 H 1.00621 0.79105 0.86885
 C832 C 1.00363 0.80564 0.89188
 H833 H 1.00536 0.81787 0.88499
 C834 C 0.99969 0.77338 0.90831
 H835 H 0.99806 0.76085 0.91458
 C836 C 0.99898 0.78954 0.91890
 H837 H 0.99680 0.78838 0.93282
 Zn838 Zn 1.00150 0.75456 0.87656
 N839 N 1.00174 0.77428 0.89146
 C840 C 0.96918 0.76818 0.86556
 N841 N 0.98066 0.75485 0.86312
 C842 C 0.97701 0.74157 0.85189
 C843 C 0.96139 0.74153 0.84237
 C844 C 0.95351 0.76869 0.85633
 C845 C 1.03683 0.75924 0.87092
 C846 C 1.05264 0.75938 0.86195
 C847 C 1.03689 0.75392 0.83514
 C848 C 1.02130 0.75394 0.84467
 N849 N 1.02162 0.75620 0.86229
 H850 H 0.97200 0.77841 0.87484
 H851 H 0.98619 0.73093 0.85043
 H852 H 0.95872 0.73084 0.83351
 H853 H 0.94463 0.77945 0.85859
 H854 H 1.03668 0.76108 0.88492
 H855 H 1.06459 0.76144 0.86924
 H856 H 1.03645 0.75170 0.82119
 H857 H 1.00905 0.75177 0.83802
 C858 C 1.00059 0.80525 0.91106
 C859 C 1.00371 0.70102 0.90677
 C860 C 1.05288 0.75640 0.84386
 C861 C 0.94939 0.75525 0.84455
 C862 C 0.48922 0.22868 0.39918
 H863 H 0.47825 0.23747 0.40058
 C864 C 0.48949 0.21286 0.40835
 H865 H 0.47870 0.20964 0.41688
 C866 C 0.51637 0.22202 0.38600
 H867 H 0.52669 0.22534 0.37703
 C868 C 0.51719 0.20618 0.39489
 H869 H 0.52830 0.19771 0.39269
 N870 N 0.50262 0.23300 0.38835
 C871 C 0.50480 0.28948 0.38162
 H872 H 0.50672 0.28968 0.36762
 C873 C 0.50436 0.30510 0.39093
 H874 H 0.50603 0.31726 0.38393
 C875 C 0.50007 0.27321 0.40751
 H876 H 0.49840 0.26075 0.41388
 C877 C 0.49949 0.28860 0.41738
 H878 H 0.49734 0.28778 0.43132
 Zn879 Zn 0.50192 0.25404 0.37526
 N880 N 0.50235 0.27398 0.38991
 C881 C 0.46969 0.26777 0.36405
 N882 N 0.48109 0.25434 0.36180
 C883 C 0.47734 0.24091 0.35077
 C884 C 0.46171 0.24082 0.34128
 C885 C 0.45400 0.26823 0.35483
 C886 C 0.53733 0.25808 0.36961
 C887 C 0.55316 0.25780 0.36068
 C888 C 0.53735 0.25225 0.33392
 C889 C 0.52175 0.25268 0.34342
 N890 N 0.52208 0.25519 0.36100
 H891 H 0.47257 0.27811 0.37317
 H892 H 0.48645 0.23019 0.34946
 H893 H 0.45895 0.23000 0.33259
 H894 H 0.44519 0.27908 0.35695
 H895 H 0.53720 0.26012 0.38360
 H896 H 0.56513 0.25976 0.36795
 H897 H 0.53688 0.24984 0.32000
 H898 H 0.50947 0.25063 0.33678
 C899 C 0.50143 0.30484 0.40904
 C900 C 0.50365 0.20136 0.40623
 C901 C 0.55337 0.25455 0.34263
 C902 C 0.44978 0.25464 0.34327
 C903 C 0.98627 0.27049 0.59992
 H904 H 0.97574 0.26113 0.59885
 C905 C 0.98573 0.28599 0.59021
 H906 H 0.97472 0.28827 0.58163
 C907 C 1.01306 0.27897 0.61282
 H908 H 1.02353 0.27648 0.62191
 C909 C 1.01309 0.29452 0.60339
 H910 H 1.02382 0.30353 0.60536
 N911 N 0.99985 0.26725 0.61090
 C912 C 1.00417 0.21130 0.62052
 H913 H 1.00603 0.21198 0.63451
 C914 C 1.00446 0.19517 0.61213
 H915 H 1.00662 0.18352 0.61983
 C916 C 0.99891 0.22585 0.59372
 H917 H 0.99675 0.23786 0.58664
 C918 C 0.99904 0.20991 0.58475
 H919 H 0.99695 0.20983 0.57077
 Zn920 Zn 1.00002 0.24681 0.62496
 N921 N 1.00114 0.22619 0.61135
 C922 C 0.96818 0.23257 0.63655
 N923 N 0.97924 0.24635 0.63848
 C924 C 0.97510 0.26001 0.64905
 C925 C 0.95933 0.26006 0.65831
 C926 C 0.95239 0.23205 0.64555
 C927 C 1.03553 0.24446 0.63036
 C928 C 1.05143 0.24496 0.63916
 C929 C 1.03578 0.25007 0.66608
 C930 C 1.02010 0.24943 0.65669
 N931 N 1.02031 0.24695 0.63910
 H932 H 0.97138 0.22202 0.62778
 H933 H 0.98395 0.27098 0.65012
 H934 H 0.95622 0.27109 0.66658
 H935 H 0.94384 0.22095 0.64365
 H936 H 1.03529 0.24237 0.61639
 H937 H 1.06329 0.24316 0.63168
 H938 H 1.03529 0.25231 0.68004
 H939 H 1.00783 0.25113 0.66342
 C940 C 1.00166 0.19426 0.59403
 C941 C 0.99926 0.29836 0.59191
 C942 C 1.05183 0.24801 0.65729
 C943 C 0.94770 0.24594 0.65656
 C944 C 0.48561 0.76911 0.10125
 H945 H 0.47495 0.75987 0.10046
 C946 C 0.48501 0.78461 0.09155
 H947 H 0.47385 0.78712 0.08323
 C948 C 0.51281 0.77730 0.11348
 H949 H 0.52348 0.77472 0.12232
 C950 C 0.51277 0.79284 0.10404
 H951 H 0.52358 0.80182 0.10568
 N952 N 0.49942 0.76573 0.11191
 C953 C 0.50376 0.70979 0.12172
 H954 H 0.50594 0.71050 0.13566
 C955 C 0.50377 0.69363 0.11336
 H956 H 0.50606 0.68199 0.12104
 C957 C 0.49789 0.72428 0.09502
 H958 H 0.49559 0.73627 0.08796
 C959 C 0.49775 0.70831 0.08609
 H960 H 0.49531 0.70821 0.07216
 Zn961 Zn 0.49968 0.74537 0.12609
 N962 N 0.50056 0.72466 0.11258
 C963 C 0.46802 0.73122 0.13831
 N964 N 0.47904 0.74509 0.13984
 C965 C 0.47491 0.75898 0.15012
 C966 C 0.45919 0.75919 0.15946
 C967 C 0.45229 0.73086 0.14741
 C968 C 0.53526 0.74279 0.13124
 C969 C 0.55125 0.74369 0.13987
 C970 C 0.53587 0.74987 0.16670
 C971 C 0.52008 0.74880 0.15752
 N972 N 0.52012 0.74563 0.14003
 H973 H 0.47120 0.72048 0.12977
 H974 H 0.48371 0.77001 0.15087
 H975 H 0.45608 0.77041 0.16748
 H976 H 0.44376 0.71969 0.14582
 H977 H 0.53489 0.74020 0.11736
 H978 H 0.56311 0.74167 0.13245
 H979 H 0.53563 0.75271 0.18055
 H980 H 0.50789 0.75082 0.16430
 C981 C 0.50051 0.69268 0.09534
 C982 C 0.49872 0.79676 0.09295
 C983 C 0.55175 0.74750 0.15780
 C984 C 0.44760 0.74499 0.15810
 O985 O -0.01213 0.99003 0.95502
 O986 O 0.01749 0.99866 0.95465
 O987 O -0.01379 0.95243 0.99696
 O988 O -0.00820 0.95176 1.02549
 O989 O -0.05275 0.99380 0.99397
 O990 O -0.05235 1.02389 1.00099
 O991 O 0.03115 1.00007 1.04249
 O992 O 0.03264 0.97224 1.03097
 O993 O 0.03593 1.03513 1.00065
 O994 O 0.02337 1.03769 0.97327
 O995 O -0.00459 1.04165 1.03666
 O996 O -0.03287 1.02775 1.04152
 O997 O 0.00718 1.01442 1.05266
 O998 O -0.02442 1.00616 1.05345
 O999 O 0.00904 1.05128 1.01211
 O1000 O -0.00052 1.05032 0.98071
 O1001 O 0.04604 1.01146 1.01548
 O1002 O 0.04553 0.98139 1.00390
 O1003 O -0.03594 1.00480 0.96499
 O1004 O -0.03925 1.03284 0.97896
 O1005 O -0.04270 0.96982 1.00833
 O1006 O -0.02756 0.96799 1.03684
 O1007 O -0.00110 0.96216 0.97189
 O1008 O 0.02844 0.97565 0.97188
 Zr1009 Zr 0.00441 0.98859 0.97694
 O1010 O 0.02111 1.00490 0.99146
 Zr1011 Zr -0.01603 0.97492 1.01269
 O1012 O 0.00036 0.99017 1.02870
 Zr1013 Zr -0.03056 1.00984 0.99152
 O1014 O -0.01523 1.02670 1.00697
 Zr1015 Zr 0.02454 0.99437 1.01651
 O1016 O 0.00897 0.97707 1.00152
 Zr1017 Zr 0.00958 1.02933 0.99564
 O1018 O -0.00636 1.01385 0.97917
 Zr1019 Zr -0.01038 1.01526 1.03145
 O1020 O -0.02778 0.99942 1.01681
 O1021 O -0.02021 0.98505 0.98793
 O1022 O 0.01416 1.01923 1.02047
 C1023 C -0.02713 0.99724 0.95285
 C1024 C -0.00763 0.95007 0.98151
 C1025 C -0.05494 0.97882 1.00120
 C1026 C 0.02255 1.00793 1.05457
 C1027 C 0.04804 1.02657 1.00850
 C1028 C 0.00291 1.05356 1.02754
 H1029 H 0.03236 1.00609 0.98522
 H1030 H -0.02126 1.03805 1.00809
 H1031 H -0.02784 0.97750 0.98071
 H1032 H 0.00191 0.98426 1.04007
 H1033 H 0.02991 0.96188 1.02372
 H1034 H 0.00251 0.95462 1.03211
 H1035 H -0.01069 1.05519 0.98702
 H1036 H -0.03001 1.03620 0.97058
 H1037 H 0.05586 0.98191 1.01171
 H1038 H 0.02710 0.96787 0.96161
 H1039 H -0.03668 1.03655 1.03287
 H1040 H -0.05396 1.02026 1.01329
 H1041 H 0.01694 0.98992 0.94509
 H1042 H 0.01958 1.03000 0.96360
 H1043 H -0.03666 0.97683 1.03933
 H1044 H -0.01851 0.99553 1.05780
 O1045 O 0.48756 0.49038 0.45428
 O1046 O 0.51716 0.49913 0.45399
 O1047 O 0.48601 0.45245 0.49591
 O1048 O 0.49150 0.45158 0.52446
 O1049 O 0.44690 0.49374 0.49319
 O1050 O 0.44722 0.52379 0.50046
 O1051 O 0.53074 0.49992 0.54184
 O1052 O 0.53227 0.47214 0.53016
 O1053 O 0.53549 0.53525 0.50030
 O1054 O 0.52293 0.53802 0.47293
 O1055 O 0.49486 0.54139 0.53631
 O1056 O 0.46659 0.52735 0.54101
 O1057 O 0.50672 0.51413 0.55210
 O1058 O 0.47515 0.50573 0.55282
 O1059 O 0.50854 0.55125 0.51188
 O1060 O 0.49900 0.55053 0.48046
 O1061 O 0.54562 0.51148 0.51495
 O1062 O 0.54518 0.48150 0.50316
 O1063 O 0.46371 0.50501 0.46433
 O1064 O 0.46030 0.53293 0.47850
 O1065 O 0.45700 0.46967 0.50736
 O1066 O 0.47209 0.46768 0.53589
 O1067 O 0.49868 0.46243 0.47093
 O1068 O 0.52817 0.47601 0.47104
 Zr1069 Zr 0.50409 0.48883 0.47619
 O1070 O 0.52073 0.50507 0.49087
 Zr1071 Zr 0.48364 0.47482 0.51181
 O1072 O 0.49997 0.48999 0.52796
 Zr1073 Zr 0.46904 0.50987 0.49091
 O1074 O 0.48431 0.52665 0.50649
 Zr1075 Zr 0.52415 0.49435 0.51583
 O1076 O 0.50866 0.47713 0.50068
 Zr1077 Zr 0.50914 0.52944 0.49522
 O1078 O 0.49325 0.51404 0.47862
 Zr1079 Zr 0.48916 0.51503 0.53088
 O1080 O 0.47182 0.49925 0.51611
 O1081 O 0.47947 0.48514 0.48713
 O1082 O 0.51370 0.51915 0.51997
 C1083 C 0.47255 0.49756 0.45215
 C1084 C 0.49220 0.45023 0.48045
 C1085 C 0.44475 0.47869 0.50028
 C1086 C 0.52211 0.50769 0.55395
 C1087 C 0.54760 0.52665 0.50808
 C1088 C 0.50237 0.55339 0.52732
 H1089 H 0.53198 0.50633 0.48464
 H1090 H 0.47826 0.53798 0.50769
 H1091 H 0.47188 0.47762 0.47984
 H1092 H 0.50153 0.48401 0.53929
 H1093 H 0.52958 0.46182 0.52283
 H1094 H 0.50220 0.45442 0.53111
 H1095 H 0.48882 0.55532 0.48680
 H1096 H 0.46956 0.53640 0.47018
 H1097 H 0.55550 0.48198 0.51098
 H1098 H 0.52687 0.46832 0.46070
 H1099 H 0.46281 0.53625 0.53245
 H1100 H 0.44558 0.52004 0.51272
 H1101 H 0.51664 0.49047 0.44436
 H1102 H 0.51916 0.53040 0.46319
 H1103 H 0.46297 0.47648 0.53843
 H1104 H 0.48108 0.49508 0.55709
 O1105 O 0.50539 -0.03610 0.53204
 O1106 O 0.53307 -0.02249 0.53474
 O1107 O 0.46953 0.00669 0.53765
 O1108 O 0.46376 0.03195 0.52435
 O1109 O 0.46334 -0.03043 0.49517
 O1110 O 0.47769 -0.03428 0.46799
 O1111 O 0.51411 0.05212 0.48999
 O1112 O 0.50431 0.05272 0.51830
 O1113 O 0.55154 0.01167 0.48711
 O1114 O 0.55269 -0.01702 0.49592
 O1115 O 0.51154 0.01402 0.44945
 O1116 O 0.48095 0.00665 0.44874
 O1117 O 0.50033 0.04176 0.46574
 O1118 O 0.47135 0.02693 0.46185
 O1119 O 0.53561 -0.00002 0.45969
 O1120 O 0.53865 -0.02892 0.47497
 O1121 O 0.54122 0.03614 0.50043
 O1122 O 0.52837 0.03644 0.52994
 O1123 O 0.49187 -0.04655 0.50766
 O1124 O 0.50012 -0.04656 0.47727
 O1125 O 0.45299 -0.00629 0.50904
 O1126 O 0.45385 0.02456 0.49949
 O1127 O 0.49310 -0.00825 0.54794
 O1128 O 0.52310 0.00410 0.54664
 Zr1129 Zr 0.50999 -0.00959 0.52632
 O1130 O 0.52671 0.00582 0.51090
 Zr1131 Zr 0.47471 0.01048 0.51092
 O1132 O 0.49013 0.02715 0.49544
 Zr1133 Zr 0.48989 -0.02483 0.49090
 O1134 O 0.50554 -0.00967 0.47416
 Zr1135 Zr 0.51507 0.03019 0.50640
 O1136 O 0.49883 0.01538 0.52319
 Zr1137 Zr 0.52984 -0.00513 0.48604
 O1138 O 0.51481 -0.02186 0.50212
 Zr1139 Zr 0.49468 0.01534 0.47111
 O1140 O 0.47769 -0.00070 0.48598
 O1141 O 0.48550 -0.01395 0.51533
 O1142 O 0.51940 0.01961 0.48166
 C1143 C 0.49849 -0.04845 0.52298
 C1144 C 0.47816 -0.00088 0.54992
 C1145 C 0.45102 -0.02149 0.50221
 C1146 C 0.50763 0.05402 0.47463
 C1147 C 0.55345 0.02716 0.49330
 C1148 C 0.52680 0.00735 0.44748
 H1149 H 0.53809 0.00701 0.51692
 H1150 H 0.50671 -0.01583 0.46288
 H1151 H 0.47798 -0.02138 0.52277
 H1152 H 0.48417 0.03855 0.49430
 H1153 H 0.49898 0.04883 0.52943
 H1154 H 0.47120 0.04217 0.52175
 H1155 H 0.53132 -0.03147 0.46463
 H1156 H 0.51181 -0.04890 0.48228
 H1157 H 0.53393 0.04805 0.52848
 H1158 H 0.52138 -0.00211 0.55787
 H1159 H 0.48519 -0.00523 0.44593
 H1160 H 0.47001 -0.02479 0.46375
 H1161 H 0.53110 -0.02742 0.54656
 H1162 H 0.54905 -0.02373 0.50634
 H1163 H 0.45082 0.01853 0.48846
 H1164 H 0.46865 0.03702 0.46944
 O1165 O -0.03612 0.46946 0.99523
 O1166 O -0.02256 0.46682 0.96754
 O1167 O 0.00666 0.46385 1.03111
 O1168 O 0.03193 0.47715 1.03689
 O1169 O -0.03042 0.50630 1.03731
 O1170 O -0.03430 0.53348 1.02298
 O1171 O 0.05206 0.51157 0.98654
 O1172 O 0.05266 0.48325 0.99631
 O1173 O 0.01157 0.51448 0.94910
 O1174 O -0.01712 0.50568 0.94795
 O1175 O 0.01401 0.55211 0.98915
 O1176 O 0.00672 0.55283 1.01969
 O1177 O 0.04177 0.53580 1.00037
 O1178 O 0.02690 0.53962 1.02938
 O1179 O -0.00007 0.54188 0.96507
 O1180 O -0.02897 0.52661 0.96202
 O1181 O 0.03604 0.50116 0.95941
 O1182 O 0.03634 0.47164 0.97225
 O1183 O -0.04657 0.49380 1.00877
 O1184 O -0.04657 0.52423 1.00051
 O1185 O -0.00628 0.49244 1.04766
 O1186 O 0.02458 0.50201 1.04681
 O1187 O -0.00829 0.45357 1.00751
 O1188 O 0.00402 0.45491 0.97751
 Zr1189 Zr -0.00964 0.47521 0.99063
 O1190 O 0.00574 0.49067 0.97392
 Zr1191 Zr 0.01047 0.49059 1.02593
 O1192 O 0.02713 0.50609 1.01053
 Zr1193 Zr -0.02485 0.51060 1.01075
 O1194 O -0.00969 0.52737 0.99513
 Zr1195 Zr 0.03013 0.49516 0.98557
 O1196 O 0.01533 0.47834 1.00181
 Zr1197 Zr -0.00519 0.51552 0.97081
 O1198 O -0.02191 0.49941 0.98582
 Zr1199 Zr 0.01534 0.53042 1.00599
 O1200 O -0.00070 0.51553 1.02297
 O1201 O -0.01396 0.48618 1.01513
 O1202 O 0.01957 0.51991 0.98126
 C1203 C -0.04847 0.47848 1.00214
 C1204 C -0.00092 0.45159 1.02246
 C1205 C -0.02147 0.49925 1.04963
 C1206 C 0.05400 0.52691 0.99306
 C1207 C 0.02704 0.50829 0.94718
 C1208 C 0.00732 0.55409 0.97389
 H1209 H 0.00692 0.48466 0.96253
 H1210 H -0.01583 0.53866 0.99397
 H1211 H -0.02139 0.47872 1.02264
 H1212 H 0.03853 0.50722 1.01649
 H1213 H 0.04877 0.47213 1.00164
 H1214 H 0.04213 0.47974 1.02943
 H1215 H -0.03151 0.53694 0.96936
 H1216 H -0.04894 0.51920 0.98883
 H1217 H 0.04794 0.47310 0.96668
 H1218 H -0.00220 0.44368 0.97922
 H1219 H -0.00521 0.55556 1.01555
 H1220 H -0.02479 0.53774 1.03065
 H1221 H -0.02750 0.45500 0.96949
 H1222 H -0.02382 0.49525 0.95158
 H1223 H 0.01853 0.51302 1.04987
 H1224 H 0.03704 0.53208 1.03203
 O1225 O 0.00590 0.44599 0.50681
 O1226 O -0.00265 0.44619 0.47711
 O1227 O 0.04466 0.48681 0.50915
 O1228 O 0.04628 0.51536 0.50412
 O1229 O 0.00294 0.48457 0.54789
 O1230 O -0.02694 0.49246 0.54727
 O1231 O -0.00084 0.53435 0.46468
 O1232 O 0.02650 0.52171 0.46314
 O1233 O -0.03753 0.49394 0.45895
 O1234 O -0.04089 0.46627 0.47087
 O1235 O -0.04308 0.52930 0.49994
 O1236 O -0.02940 0.53345 0.52829
 O1237 O -0.01520 0.54461 0.48862
 O1238 O -0.00721 0.54461 0.52039
 O1239 O -0.05347 0.50518 0.48603
 O1240 O -0.05349 0.47362 0.49489
 O1241 O -0.01330 0.50817 0.44932
 O1242 O 0.01625 0.49528 0.44969
 O1243 O -0.00874 0.45615 0.53062
 O1244 O -0.03642 0.47083 0.53377
 O1245 O 0.02745 0.49820 0.53811
 O1246 O 0.03028 0.52688 0.52346
 O1247 O 0.03437 0.46218 0.49599
 O1248 O 0.02092 0.46280 0.46643
 Zr1249 Zr 0.00808 0.46802 0.49048
 O1250 O -0.00763 0.48330 0.47384
 Zr1251 Zr 0.02267 0.50312 0.51151
 O1252 O 0.00811 0.51981 0.49525
 Zr1253 Zr -0.01298 0.48285 0.52550
 O1254 O -0.02919 0.49901 0.51025
 Zr1255 Zr 0.00373 0.50806 0.47087
 O1256 O 0.02039 0.49231 0.48635
 Zr1257 Zr -0.03199 0.48811 0.48522
 O1258 O -0.01718 0.47095 0.50107
 Zr1259 Zr -0.01695 0.52319 0.50585
 O1260 O -0.00174 0.50784 0.52317
 O1261 O 0.01176 0.47862 0.51527
 O1262 O -0.02106 0.51268 0.48112
 C1263 C -0.00145 0.44389 0.52176
 C1264 C 0.04667 0.47142 0.50275
 C1265 C 0.01815 0.49127 0.55022
 C1266 C -0.00838 0.54654 0.47339
 C1267 C -0.02867 0.50184 0.44709
 C1268 C -0.05527 0.52062 0.49234
 H1269 H -0.00896 0.47729 0.46247
 H1270 H -0.04054 0.50039 0.51621
 H1271 H 0.01905 0.47110 0.52285
 H1272 H 0.01442 0.53100 0.49394
 H1273 H 0.03653 0.51398 0.46579
 H1274 H 0.04378 0.52202 0.49336
 H1275 H -0.05814 0.47981 0.50522
 H1276 H -0.03989 0.46262 0.52441
 H1277 H 0.01608 0.50327 0.43950
 H1278 H 0.02835 0.45228 0.46768
 H1279 H -0.03832 0.52491 0.53205
 H1280 H -0.02291 0.50461 0.54913
 H1281 H 0.00576 0.43635 0.47761
 H1282 H -0.03359 0.45630 0.47459
 H1283 H 0.02152 0.52948 0.53260
 H1284 H 0.00354 0.54880 0.51457
 O1285 O 0.50555 0.94576 0.00854
 O1286 O 0.49711 0.94588 -0.02116
 O1287 O 0.54425 0.98667 0.01090
 O1288 O 0.54583 1.01521 0.00593
 O1289 O 0.50242 0.98440 0.04956
 O1290 O 0.47253 0.99225 0.04884
 O1291 O 0.49885 1.03400 -0.03377
 O1292 O 0.52620 1.02140 -0.03520
 O1293 O 0.46222 0.99354 -0.03954
 O1294 O 0.45885 0.96590 -0.02755
 O1295 O 0.45651 1.02900 0.00134
 O1296 O 0.47003 1.03325 0.02970
 O1297 O 0.48442 1.04432 -0.00989
 O1298 O 0.49231 1.04434 0.02195
 O1299 O 0.44618 1.00485 -0.01255
 O1300 O 0.44616 0.97330 -0.00360
 O1301 O 0.48646 1.00780 -0.04911
 O1302 O 0.51602 0.99494 -0.04862
 O1303 O 0.49080 0.95592 0.03229
 O1304 O 0.46311 0.97060 0.03534
 O1305 O 0.52694 0.99803 0.03982
 O1306 O 0.52975 1.02672 0.02514
 O1307 O 0.53405 0.96199 -0.00222
 O1308 O 0.52067 0.96251 -0.03182
 Zr1309 Zr 0.50776 0.96777 -0.00781
 O1310 O 0.49208 0.98299 -0.02452
 Zr1311 Zr 0.52223 1.00292 0.01321
 O1312 O 0.50771 1.01956 -0.00314
 Zr1313 Zr 0.48657 0.98262 0.02712
 O1314 O 0.47039 0.99874 0.01178
 Zr1315 Zr 0.50343 1.00774 -0.02750
 O1316 O 0.52005 0.99206 -0.01194
 Zr1317 Zr 0.46767 0.98779 -0.01323
 O1318 O 0.48246 0.97068 0.00270
 Zr1319 Zr 0.48262 1.02292 0.00737
 O1320 O 0.49777 1.00763 0.02478
 O1321 O 0.51135 0.97841 0.01698
 O1322 O 0.47860 1.01236 -0.01735
 C1323 C 0.49814 0.94366 0.02346
 C1324 C 0.54632 0.97127 0.00452
 C1325 C 0.51762 0.99112 0.05192
 C1326 C 0.49127 1.04622 -0.02510
 C1327 C 0.47111 1.00144 -0.05138
 C1328 C 0.44436 1.02030 -0.00630
 H1329 H 0.49079 0.97695 -0.03588
 H1330 H 0.45902 1.00012 0.01770
 H1331 H 0.51863 0.97090 0.02458
 H1332 H 0.51401 1.03075 -0.00445
 H1333 H 0.53623 1.01369 -0.03250
 H1334 H 0.54340 1.02176 -0.00492
 H1335 H 0.44145 0.97953 0.00670
 H1336 H 0.45967 0.96237 0.02597
 H1337 H 0.51587 1.00291 -0.05883
 H1338 H 0.52813 0.95201 -0.03052
 H1339 H 0.46117 1.02466 0.03351
 H1340 H 0.47653 1.00441 0.05068
 H1341 H 0.50554 0.93606 -0.02063
 H1342 H 0.46615 0.95594 -0.02378
 H1343 H 0.52098 1.02929 0.03428
 H1344 H 0.50303 1.04858 0.01612
 O1345 O 0.54104 0.46165 0.00483
 O1346 O 0.52784 0.45860 0.03274
 O1347 O 0.49819 0.45537 -0.03066
 O1348 O 0.47244 0.46796 -0.03591
 O1349 O 0.53404 0.49882 -0.03676
 O1350 O 0.53753 0.52590 -0.02213
 O1351 O 0.45198 0.50173 0.01483
 O1352 O 0.45195 0.47342 0.00475
 O1353 O 0.49268 0.50539 0.05185
 O1354 O 0.52156 0.49709 0.05274
 O1355 O 0.48910 0.54309 0.01212
 O1356 O 0.49628 0.54405 -0.01863
 O1357 O 0.46177 0.52630 0.00123
 O1358 O 0.47600 0.53066 -0.02795
 O1359 O 0.50359 0.53306 0.03603
 O1360 O 0.53290 0.51842 0.03872
 O1361 O 0.46844 0.49154 0.04165
 O1362 O 0.46873 0.46204 0.02863
 O1363 O 0.55076 0.48634 -0.00863
 O1364 O 0.55024 0.51663 0.00009
 O1365 O 0.51013 0.48446 -0.04703
 O1366 O 0.47908 0.49312 -0.04579
 O1367 O 0.51346 0.44524 -0.00722
 O1368 O 0.50143 0.44607 0.02293
 Zr1369 Zr 0.51448 0.46679 0.00984
 O1370 O 0.49888 0.48177 0.02682
 Zr1371 Zr 0.49368 0.48194 -0.02515
 O1372 O 0.47682 0.49695 -0.00948
 Zr1373 Zr 0.52869 0.50268 -0.01011
 O1374 O 0.51333 0.51898 0.00579
 Zr1375 Zr 0.47428 0.48578 0.01542
 O1376 O 0.48933 0.46941 -0.00107
 Zr1377 Zr 0.50929 0.50685 0.03004
 O1378 O 0.52624 0.49124 0.01475
 Zr1379 Zr 0.48816 0.52150 -0.00486
 O1380 O 0.50434 0.50710 -0.02209
 O1381 O 0.51831 0.47804 -0.01460
 O1382 O 0.48437 0.51072 0.01981
 C1383 C 0.55308 0.47100 -0.00221
 C1384 C 0.50610 0.44321 -0.02217
 C1385 C 0.52512 0.49171 -0.04907
 C1386 C 0.44976 0.51715 0.00859
 C1387 C 0.47733 0.49891 0.05383
 C1388 C 0.49582 0.54513 0.02736
 H1389 H 0.49792 0.47567 0.03817
 H1390 H 0.51922 0.53040 0.00699
 H1391 H 0.52581 0.47085 -0.02228
 H1392 H 0.46534 0.49788 -0.01531
 H1393 H 0.45603 0.46240 -0.00066
 H1394 H 0.46221 0.47043 -0.02845
 H1395 H 0.53514 0.52886 0.03145
 H1396 H 0.55281 0.51154 0.01169
 H1397 H 0.45715 0.46321 0.03431
 H1398 H 0.50792 0.43502 0.02109
 H1399 H 0.50797 0.54731 -0.01422
 H1400 H 0.52787 0.53004 -0.02964
 H1401 H 0.53305 0.44693 0.03064
 H1402 H 0.52854 0.48690 0.04897
 H1403 H 0.48473 0.50438 -0.04871
 H1404 H 0.46602 0.52287 -0.03055
 O1405 O -0.01047 0.04422 0.51178
 O1406 O -0.00173 0.04447 0.48218
 O1407 O -0.04838 0.00259 0.51342
 O1408 O -0.04927 -0.02596 0.50786
 O1409 O -0.00711 0.00536 0.55252
 O1410 O 0.02292 -0.00188 0.55226
 O1411 O -0.00096 -0.04341 0.46875
 O1412 O -0.02870 -0.03174 0.46713
 O1413 O 0.03440 -0.00181 0.46400
 O1414 O 0.03717 0.02556 0.47652
 O1415 O 0.04053 -0.03778 0.50470
 O1416 O 0.02648 -0.04248 0.53293
 O1417 O 0.01323 -0.05363 0.49282
 O1418 O 0.00486 -0.05430 0.52437
 O1419 O 0.05038 -0.01334 0.49102
 O1420 O 0.04965 0.01809 0.50049
 O1421 O 0.01064 -0.01648 0.45382
 O1422 O -0.01934 -0.00474 0.45421
 O1423 O 0.00415 0.03421 0.53568
 O1424 O 0.03208 0.02007 0.53913
 O1425 O -0.03117 -0.00887 0.54243
 O1426 O -0.03319 -0.03740 0.52734
 O1427 O -0.03840 0.02754 0.50068
 O1428 O -0.02485 0.02738 0.47118
 Zr1429 Zr -0.01202 0.02228 0.49528
 O1430 O 0.00422 0.00760 0.47869
 Zr1431 Zr -0.02604 -0.01332 0.51578
 O1432 O -0.01087 -0.02948 0.49949
 Zr1433 Zr 0.00901 0.00763 0.53039
 O1434 O 0.02578 -0.00797 0.51517
 Zr1435 Zr -0.00650 -0.01738 0.47528
 O1436 O -0.02372 -0.00223 0.49073
 Zr1437 Zr 0.02857 0.00329 0.49033
 O1438 O 0.01318 0.01990 0.50616
 Zr1439 Zr 0.01417 -0.03238 0.51033
 O1440 O -0.00161 -0.01759 0.52763
 O1441 O -0.01571 0.01137 0.51992
 O1442 O 0.01829 -0.02150 0.48577
 C1443 C -0.00330 0.04637 0.52681
 C1444 C -0.05059 0.01804 0.50721
 C1445 C -0.02215 -0.00175 0.55467
 C1446 C 0.00677 -0.05552 0.47742
 C1447 C 0.02581 -0.00959 0.45186
 C1448 C 0.05253 -0.02877 0.49722
 H1449 H 0.00549 0.01382 0.46743
 H1450 H 0.03710 -0.00915 0.52125
 H1451 H -0.02322 0.01866 0.52750
 H1452 H -0.01686 -0.04082 0.49794
 H1453 H -0.03901 -0.02442 0.46981
 H1454 H -0.04642 -0.03267 0.49721
 H1455 H 0.05443 0.01178 0.51069
 H1456 H 0.03552 0.02841 0.52988
 H1457 H -0.01885 -0.01257 0.44390
 H1458 H -0.03253 0.03771 0.47246
 H1459 H 0.03534 -0.03389 0.53675
 H1460 H 0.01918 -0.01414 0.55391
 H1461 H -0.01039 0.05410 0.48267
 H1462 H 0.02953 0.03529 0.48022
 H1463 H -0.02439 -0.03994 0.53647
 H1464 H -0.00580 -0.05858 0.51844
 O1465 O 0.78997 0.24720 0.21610
 O1466 O 0.77661 0.21935 0.21355
 O1467 O 0.74702 0.28267 0.20968
 O1468 O 0.72148 0.28823 0.22260
 O1469 O 0.78356 0.28957 0.25247
 O1470 O 0.78723 0.27548 0.27987
 O1471 O 0.70140 0.23816 0.25732
 O1472 O 0.70105 0.24770 0.22888
 O1473 O 0.74213 0.20102 0.26096
 O1474 O 0.77091 0.20007 0.25240
 O1475 O 0.73912 0.24141 0.29825
 O1476 O 0.74632 0.27215 0.29863
 O1477 O 0.71150 0.25213 0.28158
 O1478 O 0.72591 0.28130 0.28537
 O1479 O 0.75333 0.21731 0.28830
 O1480 O 0.78245 0.21438 0.27343
 O1481 O 0.71769 0.21113 0.24742
 O1482 O 0.71758 0.22360 0.21772
 O1483 O 0.80003 0.26108 0.24044
 O1484 O 0.79985 0.25311 0.27087
 O1485 O 0.75946 0.29956 0.23824
 O1486 O 0.72858 0.29857 0.24746
 O1487 O 0.76223 0.25911 0.19979
 O1488 O 0.75008 0.22902 0.20123
 Zr1489 Zr 0.76345 0.24241 0.22158
 O1490 O 0.74800 0.22572 0.23700
 Zr1491 Zr 0.74292 0.27768 0.23641
 O1492 O 0.72624 0.26229 0.25191
 Zr1493 Zr 0.77815 0.26300 0.25696
 O1494 O 0.76298 0.24734 0.27369
 Zr1495 Zr 0.72351 0.23723 0.24115
 O1496 O 0.73836 0.25341 0.22433
 Zr1497 Zr 0.75874 0.22289 0.26198
 O1498 O 0.77551 0.23794 0.24595
 Zr1499 Zr 0.73787 0.25805 0.27639
 O1500 O 0.75388 0.27504 0.26150
 O1501 O 0.76747 0.26705 0.23238
 O1502 O 0.73389 0.23321 0.26603
 C1503 C 0.80216 0.25434 0.22521
 C1504 C 0.75481 0.27399 0.19759
 C1505 C 0.77458 0.30174 0.24519
 C1506 C 0.69936 0.24469 0.27265
 C1507 C 0.72668 0.19900 0.25472
 C1508 C 0.74581 0.22618 0.30038
 H1509 H 0.74695 0.21427 0.23108
 H1510 H 0.76903 0.24632 0.28504
 H1511 H 0.77492 0.27456 0.22495
 H1512 H 0.71479 0.26816 0.25289
 H1513 H 0.70501 0.25293 0.21774
 H1514 H 0.71126 0.28085 0.22537
 H1515 H 0.78482 0.22180 0.28374
 H1516 H 0.80227 0.24135 0.26608
 H1517 H 0.70601 0.21796 0.21914
 H1518 H 0.75641 0.23068 0.19007
 H1519 H 0.75811 0.26788 0.30171
 H1520 H 0.77765 0.28317 0.28389
 H1521 H 0.78167 0.22125 0.20177
 H1522 H 0.77782 0.20371 0.24212
 H1523 H 0.73441 0.30167 0.25858
 H1524 H 0.71592 0.28387 0.27759
 O1525 O 0.75491 0.71735 0.70999
 O1526 O 0.78263 0.71451 0.72345
 O1527 O 0.71917 0.71124 0.75276
 O1528 O 0.71365 0.72419 0.77832
 O1529 O 0.71283 0.75397 0.71622
 O1530 O 0.72711 0.78132 0.71272
 O1531 O 0.76411 0.75842 0.79862
 O1532 O 0.75421 0.73009 0.79892
 O1533 O 0.80124 0.76193 0.75812
 O1534 O 0.80226 0.75325 0.72929
 O1535 O 0.76125 0.79941 0.76100
 O1536 O 0.73065 0.80016 0.75385
 O1537 O 0.75035 0.78280 0.78859
 O1538 O 0.72115 0.78676 0.77401
 O1539 O 0.78526 0.78936 0.74674
 O1540 O 0.78819 0.77440 0.71768
 O1541 O 0.79102 0.74828 0.78243
 O1542 O 0.77824 0.71869 0.78240
 O1543 O 0.74132 0.74181 0.69987
 O1544 O 0.74949 0.77222 0.70017
 O1545 O 0.70262 0.73989 0.74030
 O1546 O 0.70363 0.74917 0.77124
 O1547 O 0.74268 0.70113 0.73763
 O1548 O 0.77275 0.70232 0.74994
 Zr1549 Zr 0.75961 0.72278 0.73653
 O1550 O 0.77642 0.73806 0.75203
 Zr1551 Zr 0.72443 0.73791 0.75694
 O1552 O 0.73992 0.75324 0.77372
 Zr1553 Zr 0.73941 0.75833 0.72179
 O1554 O 0.75515 0.77493 0.73706
 Zr1555 Zr 0.76488 0.74226 0.77650
 O1556 O 0.74856 0.72561 0.76158
 Zr1557 Zr 0.77948 0.76305 0.74136
 O1558 O 0.76435 0.74712 0.72452
 Zr1559 Zr 0.74442 0.77770 0.76217
 O1560 O 0.72733 0.76298 0.74604
 O1561 O 0.73510 0.73379 0.73242
 O1562 O 0.76914 0.76713 0.76619
 C1563 C 0.74794 0.72652 0.69777
 C1564 C 0.72774 0.69908 0.74498
 C1565 C 0.70057 0.74680 0.72515
 C1566 C 0.75773 0.77380 0.80070
 C1567 C 0.80319 0.75562 0.77354
 C1568 C 0.77648 0.80148 0.75430
 H1569 H 0.78781 0.73206 0.75311
 H1570 H 0.75628 0.78628 0.73104
 H1571 H 0.72756 0.72642 0.72493
 H1572 H 0.73404 0.75426 0.78517
 H1573 H 0.74889 0.71899 0.79492
 H1574 H 0.72107 0.72682 0.78855
 H1575 H 0.78082 0.78472 0.71525
 H1576 H 0.76119 0.76731 0.69775
 H1577 H 0.78385 0.72003 0.79400
 H1578 H 0.77097 0.69116 0.74361
 H1579 H 0.73471 0.80301 0.74192
 H1580 H 0.71940 0.78536 0.72226
 H1581 H 0.78064 0.70274 0.71840
 H1582 H 0.79854 0.74299 0.72236
 H1583 H 0.70058 0.76026 0.76535
 H1584 H 0.71861 0.77912 0.78412
 O1585 O 0.23809 0.25972 0.70001
 O1586 O 0.24674 0.23011 0.69991
 O1587 O 0.19990 0.26146 0.74147
 O1588 O 0.19886 0.25603 0.77000
 O1589 O 0.24109 0.30060 0.73880
 O1590 O 0.27111 0.30039 0.74626
 O1591 O 0.24701 0.21707 0.78790
 O1592 O 0.21935 0.21535 0.77590
 O1593 O 0.28279 0.21218 0.74680
 O1594 O 0.28552 0.22439 0.71921
 O1595 O 0.28857 0.25312 0.78237
 O1596 O 0.27446 0.28123 0.78697
 O1597 O 0.26124 0.24114 0.79809
 O1598 O 0.25274 0.27273 0.79861
 O1599 O 0.29863 0.23940 0.75803
 O1600 O 0.29796 0.24849 0.72653
 O1601 O 0.25893 0.20207 0.76131
 O1602 O 0.22908 0.20225 0.74911
 O1603 O 0.25261 0.28367 0.71009
 O1604 O 0.28039 0.28722 0.72442
 O1605 O 0.21699 0.29051 0.75290
 O1606 O 0.21485 0.27555 0.78147
 O1607 O 0.20995 0.24863 0.71659
 O1608 O 0.22362 0.21913 0.71691
 Zr1609 Zr 0.23636 0.24329 0.72201
 O1610 O 0.25254 0.22676 0.73687
 Zr1611 Zr 0.22215 0.26390 0.75748
 O1612 O 0.23724 0.24770 0.77379
 Zr1613 Zr 0.25727 0.27847 0.73671
 O1614 O 0.27396 0.26333 0.75246
 Zr1615 Zr 0.24169 0.22346 0.76179
 O1616 O 0.22455 0.23883 0.74646
 Zr1617 Zr 0.27686 0.23843 0.74133
 O1618 O 0.26154 0.25419 0.72456
 Zr1619 Zr 0.26223 0.25860 0.77681
 O1620 O 0.24652 0.27583 0.76186
 O1621 O 0.23258 0.26796 0.73282
 O1622 O 0.26644 0.23400 0.76605
 C1623 C 0.24529 0.27474 0.69788
 C1624 C 0.19773 0.25519 0.72604
 C1625 C 0.22601 0.30274 0.74582
 C1626 C 0.25474 0.22577 0.80001
 C1627 C 0.27420 0.20011 0.75467
 C1628 C 0.30067 0.24570 0.77343
 H1629 H 0.25388 0.21545 0.73074
 H1630 H 0.28526 0.26945 0.75368
 H1631 H 0.22511 0.27551 0.72545
 H1632 H 0.23118 0.24619 0.78509
 H1633 H 0.20911 0.21794 0.76843
 H1634 H 0.20167 0.24536 0.77670
 H1635 H 0.30264 0.25881 0.73275
 H1636 H 0.28391 0.27794 0.71613
 H1637 H 0.22953 0.19199 0.75701
 H1638 H 0.21592 0.22037 0.70656
 H1639 H 0.28324 0.28514 0.77835
 H1640 H 0.26721 0.30215 0.75846
 H1641 H 0.23811 0.23057 0.69024
 H1642 H 0.27793 0.22803 0.70942
 H1643 H 0.22361 0.28472 0.78403
 H1644 H 0.24214 0.26673 0.80290
 O1645 O 0.20955 0.74818 0.28286
 O1646 O 0.22280 0.72029 0.28538
 O1647 O 0.25257 0.78358 0.28892
 O1648 O 0.27808 0.78901 0.27588
 O1649 O 0.21589 0.79034 0.24625
 O1650 O 0.21196 0.77618 0.21899
 O1651 O 0.29783 0.73874 0.24120
 O1652 O 0.29837 0.74831 0.26963
 O1653 O 0.25695 0.70174 0.23771
 O1654 O 0.22823 0.70085 0.24651
 O1655 O 0.26011 0.74186 0.20048
 O1656 O 0.25292 0.77262 0.19994
 O1657 O 0.28779 0.75279 0.21698
 O1658 O 0.27330 0.78192 0.21318
 O1659 O 0.24567 0.71792 0.21049
 O1660 O 0.21658 0.71519 0.22553
 O1661 O 0.28149 0.71176 0.25115
 O1662 O 0.28177 0.72430 0.28088
 O1663 O 0.19937 0.76196 0.25853
 O1664 O 0.19941 0.75379 0.22805
 O1665 O 0.24007 0.80036 0.26032
 O1666 O 0.27094 0.79925 0.25102
 O1667 O 0.23739 0.76005 0.29896
 O1668 O 0.24944 0.72993 0.29752
 Zr1669 Zr 0.23600 0.74328 0.27722
 O1670 O 0.25128 0.72648 0.26175
 Zr1671 Zr 0.25655 0.77844 0.26218
 O1672 O 0.27312 0.76295 0.24667
 Zr1673 Zr 0.22118 0.76375 0.24185
 O1674 O 0.23624 0.74804 0.22507
 Zr1675 Zr 0.27580 0.73790 0.25746
 O1676 O 0.26110 0.75420 0.27431
 Zr1677 Zr 0.24041 0.72363 0.23682
 O1678 O 0.22378 0.73873 0.25293
 Zr1679 Zr 0.26139 0.75866 0.22224
 O1680 O 0.24547 0.77572 0.23716
 O1681 O 0.23199 0.76788 0.26637
 O1682 O 0.26529 0.73385 0.23264
 C1683 C 0.19732 0.75530 0.27381
 C1684 C 0.24484 0.77495 0.30108
 C1685 C 0.22493 0.80252 0.25341
 C1686 C 0.29990 0.74528 0.22589
 C1687 C 0.27242 0.69967 0.24385
 C1688 C 0.25331 0.72666 0.19840
 H1689 H 0.25233 0.71504 0.26767
 H1690 H 0.23015 0.74699 0.21374
 H1691 H 0.22461 0.77545 0.27381
 H1692 H 0.28459 0.76879 0.24564
 H1693 H 0.29447 0.75359 0.28077
 H1694 H 0.28823 0.78151 0.27319
 H1695 H 0.21423 0.72254 0.21518
 H1696 H 0.19688 0.74213 0.23302
 H1697 H 0.29330 0.71858 0.27940
 H1698 H 0.24317 0.73164 0.30872
 H1699 H 0.24111 0.76835 0.19691
 H1700 H 0.22160 0.78368 0.21477
 H1701 H 0.21782 0.72224 0.29718
 H1702 H 0.22141 0.70453 0.25683
 H1703 H 0.26505 0.80236 0.23994
 H1704 H 0.28334 0.78450 0.22089
 O1705 O 0.20129 0.73920 0.75940
 O1706 O 0.20135 0.74797 0.72982
 O1707 O 0.24253 0.70074 0.76109
 O1708 O 0.27109 0.69957 0.75589
 O1709 O 0.24005 0.74194 0.80045
 O1710 O 0.24760 0.77193 0.80027
 O1711 O 0.28941 0.74764 0.71716
 O1712 O 0.27725 0.72009 0.71531
 O1713 O 0.24836 0.78366 0.71207
 O1714 O 0.22083 0.78658 0.72425
 O1715 O 0.28390 0.78928 0.75316
 O1716 O 0.28824 0.77500 0.78139
 O1717 O 0.29955 0.76181 0.74129
 O1718 O 0.29997 0.75342 0.77276
 O1719 O 0.25967 0.79945 0.73934
 O1720 O 0.22819 0.79897 0.74835
 O1721 O 0.26286 0.75976 0.70203
 O1722 O 0.25058 0.72998 0.70211
 O1723 O 0.21143 0.75354 0.78344
 O1724 O 0.22580 0.78128 0.78707
 O1725 O 0.25392 0.71772 0.79031
 O1726 O 0.28251 0.71541 0.77552
 O1727 O 0.21774 0.71102 0.74827
 O1728 O 0.21821 0.72473 0.71885
 Zr1729 Zr 0.22332 0.73739 0.74305
 O1730 O 0.23835 0.75349 0.72660
 Zr1731 Zr 0.25864 0.72291 0.76375
 O1732 O 0.27509 0.73796 0.74768
 Zr1733 Zr 0.23805 0.75814 0.77832
 O1734 O 0.25390 0.77479 0.76326
 Zr1735 Zr 0.26323 0.74251 0.72339
 O1736 O 0.24772 0.72543 0.73865
 Zr1737 Zr 0.24287 0.77777 0.73832
 O1738 O 0.22598 0.76253 0.75402
 Zr1739 Zr 0.27820 0.76293 0.75862
 O1740 O 0.26313 0.74724 0.77574
 O1741 O 0.23404 0.73348 0.76775
 O1742 O 0.26756 0.76724 0.73397
 C1743 C 0.19919 0.74634 0.77446
 C1744 C 0.22711 0.69870 0.75474
 C1745 C 0.24695 0.72680 0.80257
 C1746 C 0.30152 0.75528 0.72594
 C1747 C 0.25623 0.77503 0.70003
 C1748 C 0.27504 0.80142 0.74571
 H1749 H 0.23225 0.75487 0.71528
 H1750 H 0.25516 0.78608 0.76939
 H1751 H 0.22662 0.72602 0.77525
 H1752 H 0.28636 0.73183 0.74622
 H1753 H 0.26971 0.70989 0.71786
 H1754 H 0.27787 0.70237 0.74528
 H1755 H 0.23437 0.80357 0.75872
 H1756 H 0.21758 0.78487 0.77775
 H1757 H 0.25852 0.73038 0.69190
 H1758 H 0.20779 0.71714 0.72002
 H1759 H 0.27979 0.78403 0.78509
 H1760 H 0.25978 0.76800 0.80205
 H1761 H 0.19162 0.73942 0.73022
 H1762 H 0.21097 0.77910 0.72793
 H1763 H 0.28512 0.72419 0.78466
 H1764 H 0.30406 0.74263 0.76694
 O1765 O 0.25528 0.21633 0.20886
 O1766 O 0.28298 0.21351 0.22236
 O1767 O 0.21951 0.21018 0.25164
 O1768 O 0.21392 0.22311 0.27716
 O1769 O 0.21317 0.25291 0.21509
 O1770 O 0.22742 0.28027 0.21159
 O1771 O 0.26433 0.25738 0.29755
 O1772 O 0.25448 0.22903 0.29781
 O1773 O 0.30150 0.26096 0.25708
 O1774 O 0.30258 0.25231 0.22826
 O1775 O 0.26144 0.29838 0.25992
 O1776 O 0.23087 0.29909 0.25276
 O1777 O 0.25055 0.28175 0.28750
 O1778 O 0.22136 0.28565 0.27290
 O1779 O 0.28549 0.28839 0.24568
 O1780 O 0.28848 0.27340 0.21663
 O1781 O 0.29128 0.24728 0.28138
 O1782 O 0.27854 0.21768 0.28132
 O1783 O 0.24168 0.24079 0.19876
 O1784 O 0.24983 0.27121 0.19909
 O1785 O 0.20294 0.23881 0.23914
 O1786 O 0.20391 0.24808 0.27010
 O1787 O 0.24304 0.20007 0.23653
 O1788 O 0.27311 0.20131 0.24884
 Zr1789 Zr 0.25995 0.22175 0.23542
 O1790 O 0.27672 0.23706 0.25095
 Zr1791 Zr 0.22473 0.23685 0.25581
 O1792 O 0.24019 0.25217 0.27262
 Zr1793 Zr 0.23973 0.25729 0.22069
 O1794 O 0.25542 0.27390 0.23599
 Zr1795 Zr 0.26515 0.24123 0.27542
 O1796 O 0.24887 0.22456 0.26046
 Zr1797 Zr 0.27977 0.26205 0.24030
 O1798 O 0.26468 0.24611 0.22344
 Zr1799 Zr 0.24466 0.27664 0.26107
 O1800 O 0.22762 0.26192 0.24492
 O1801 O 0.23543 0.23273 0.23130
 O1802 O 0.26939 0.26611 0.26512
 C1803 C 0.24832 0.22551 0.19665
 C1804 C 0.22810 0.19801 0.24388
 C1805 C 0.20091 0.24573 0.22399
 C1806 C 0.25794 0.27276 0.29962
 C1807 C 0.30345 0.25464 0.27250
 C1808 C 0.27667 0.30049 0.25323
 H1809 H 0.28812 0.23107 0.25205
 H1810 H 0.25654 0.28526 0.22997
 H1811 H 0.22791 0.22536 0.22379
 H1812 H 0.23429 0.25318 0.28406
 H1813 H 0.24918 0.21793 0.29381
 H1814 H 0.22135 0.22569 0.28739
 H1815 H 0.28111 0.28372 0.21419
 H1816 H 0.26153 0.26629 0.19666
 H1817 H 0.28413 0.21902 0.29293
 H1818 H 0.27134 0.19014 0.24252
 H1819 H 0.23492 0.30195 0.24084
 H1820 H 0.21970 0.28431 0.22113
 H1821 H 0.28100 0.20174 0.21731
 H1822 H 0.29891 0.24200 0.22139
 H1823 H 0.20084 0.25916 0.26420
 H1824 H 0.21883 0.27803 0.28301
 O1825 O 0.74712 0.71827 0.28915
 O1826 O 0.71924 0.71575 0.27581
 O1827 O 0.78261 0.71253 0.24627
 O1828 O 0.78804 0.72569 0.22080
 O1829 O 0.78917 0.75504 0.28315
 O1830 O 0.77494 0.78225 0.28712
 O1831 O 0.73780 0.76030 0.20100
 O1832 O 0.74741 0.73192 0.20038
 O1833 O 0.70066 0.76344 0.24176
 O1834 O 0.69972 0.75461 0.27045
 O1835 O 0.74075 0.80088 0.23895
 O1836 O 0.77144 0.80149 0.24620
 O1837 O 0.75177 0.78452 0.21120
 O1838 O 0.78084 0.78834 0.22585
 O1839 O 0.71678 0.79075 0.25323
 O1840 O 0.71398 0.77554 0.28223
 O1841 O 0.71078 0.75015 0.21720
 O1842 O 0.72341 0.72049 0.21685
 O1843 O 0.76081 0.74259 0.29949
 O1844 O 0.75254 0.77304 0.29956
 O1845 O 0.79927 0.74110 0.25894
 O1846 O 0.79823 0.75055 0.22809
 O1847 O 0.75907 0.70234 0.26131
 O1848 O 0.72897 0.70374 0.24914
 Zr1849 Zr 0.74224 0.72403 0.26271
 O1850 O 0.72545 0.73952 0.24743
 Zr1851 Zr 0.77741 0.73926 0.24235
 O1852 O 0.76193 0.75480 0.22579
 Zr1853 Zr 0.76259 0.75939 0.27776
 O1854 O 0.74689 0.77619 0.26271
 Zr1855 Zr 0.73692 0.74394 0.22296
 O1856 O 0.75322 0.72708 0.23765
 Zr1857 Zr 0.72251 0.76440 0.25838
 O1858 O 0.73761 0.74825 0.27501
 Zr1859 Zr 0.75757 0.77917 0.23761
 O1860 O 0.77462 0.76423 0.25353
 O1861 O 0.76680 0.73494 0.26686
 O1862 O 0.73278 0.76871 0.23355
 C1863 C 0.75420 0.72727 0.30144
 C1864 C 0.77399 0.70031 0.25393
 C1865 C 0.80139 0.74793 0.27412
 C1866 C 0.74434 0.77563 0.19901
 C1867 C 0.69863 0.75733 0.22626
 C1868 C 0.72554 0.80291 0.24571
 H1869 H 0.71403 0.73355 0.24632
 H1870 H 0.74581 0.78749 0.26885
 H1871 H 0.77436 0.72749 0.27423
 H1872 H 0.76780 0.75590 0.21435
 H1873 H 0.75272 0.72078 0.20425
 H1874 H 0.78060 0.72843 0.21062
 H1875 H 0.72133 0.78589 0.28467
 H1876 H 0.74089 0.76801 0.30202
 H1877 H 0.71773 0.72199 0.20530
 H1878 H 0.73069 0.69252 0.25537
 H1879 H 0.76721 0.80439 0.25805
 H1880 H 0.78250 0.78651 0.27754
 H1881 H 0.72120 0.70393 0.28074
 H1882 H 0.70339 0.74422 0.27718
 H1883 H 0.80132 0.76161 0.23406
 H1884 H 0.78346 0.78069 0.21577
 O1885 O 0.75229 0.28384 0.78825
 O1886 O 0.78006 0.28634 0.77473
 O1887 O 0.71652 0.28994 0.74550
 O1888 O 0.71057 0.27684 0.72016
 O1889 O 0.71014 0.24726 0.78231
 O1890 O 0.72430 0.21992 0.78589
 O1891 O 0.76089 0.24233 0.69970
 O1892 O 0.75112 0.27072 0.69931
 O1893 O 0.79823 0.23896 0.74011
 O1894 O 0.79944 0.24749 0.76890
 O1895 O 0.75797 0.20154 0.73733
 O1896 O 0.72747 0.20091 0.74472
 O1897 O 0.74690 0.21810 0.70982
 O1898 O 0.71778 0.21441 0.72465
 O1899 O 0.78215 0.21157 0.75138
 O1900 O 0.78527 0.22647 0.78054
 O1901 O 0.78797 0.25256 0.71577
 O1902 O 0.77523 0.28214 0.71572
 O1903 O 0.73870 0.25943 0.79850
 O1904 O 0.74686 0.22896 0.79823
 O1905 O 0.69983 0.26137 0.75829
 O1906 O 0.70060 0.25197 0.72732
 O1907 O 0.74017 0.29997 0.76051
 O1908 O 0.77016 0.29860 0.74826
 Zr1909 Zr 0.75693 0.27824 0.76172
 O1910 O 0.77354 0.26284 0.74617
 Zr1911 Zr 0.72153 0.26320 0.74150
 O1912 O 0.73684 0.24777 0.72467
 Zr1913 Zr 0.73664 0.24282 0.77664
 O1914 O 0.75216 0.22610 0.76132
 Zr1915 Zr 0.76185 0.25861 0.72175
 O1916 O 0.74571 0.27537 0.73672
 Zr1917 Zr 0.77653 0.23787 0.75689
 O1918 O 0.76162 0.25391 0.77378
 Zr1919 Zr 0.74125 0.22333 0.73627
 O1920 O 0.72437 0.23816 0.75247
 O1921 O 0.73238 0.26736 0.76596
 O1922 O 0.76602 0.23376 0.73211
 C1923 C 0.74534 0.27473 0.80053
 C1924 C 0.72524 0.30209 0.75316
 C1925 C 0.69785 0.25447 0.77345
 C1926 C 0.75435 0.22700 0.69767
 C1927 C 0.80017 0.24526 0.72468
 C1928 C 0.77327 0.19947 0.74387
 H1929 H 0.78496 0.26880 0.74503
 H1930 H 0.75328 0.21475 0.76735
 H1931 H 0.72492 0.27480 0.77344
 H1932 H 0.73088 0.24676 0.71326
 H1933 H 0.74584 0.28184 0.70329
 H1934 H 0.71803 0.27435 0.70993
 H1935 H 0.77794 0.21610 0.78292
 H1936 H 0.75857 0.23390 0.80061
 H1937 H 0.78079 0.28075 0.70410
 H1938 H 0.76854 0.30977 0.75461
 H1939 H 0.73159 0.19808 0.75663
 H1940 H 0.71656 0.21582 0.77637
 H1941 H 0.77819 0.29812 0.77980
 H1942 H 0.79586 0.25783 0.77576
 H1943 H 0.69745 0.24096 0.73333
 H1944 H 0.71526 0.22197 0.71449
 N1945 N 0.06552 1.02083 1.16465
 C1946 C 0.06693 1.00787 1.15266
 N1947 N 0.07623 0.99338 1.15670
 N1948 N 0.08397 0.99193 1.17220
 C1949 C 0.08269 1.00488 1.18427
 N1950 N 0.07327 1.01936 1.18018
 C1951 C 0.05895 1.00940 1.13577
 C1952 C 0.05254 1.01013 1.12141
 C1953 C 0.04516 1.01035 1.10418
 N1954 N 0.05387 1.00289 1.09070
 N1955 N 0.04677 1.00236 1.07482
 C1956 C 0.03071 1.00927 1.07188
 N1957 N 0.02205 1.01681 1.08541
 N1958 N 0.02915 1.01734 1.10129
 N1959 N 0.56546 0.52126 0.66376
 C1960 C 0.56689 0.50823 0.65185
 N1961 N 0.57629 0.49382 0.65594
 N1962 N 0.58409 0.49250 0.67142
 C1963 C 0.58278 0.50552 0.68342
 N1964 N 0.57327 0.51993 0.67927
 C1965 C 0.55883 0.50961 0.63500
 C1966 C 0.55234 0.51022 0.62067
 C1967 C 0.54488 0.51031 0.60348
 N1968 N 0.55357 0.50286 0.58998
 N1969 N 0.54641 0.50224 0.57414
 C1970 C 0.53030 0.50905 0.57125
 N1971 N 0.52165 0.51657 0.58479
 N1972 N 0.52881 0.51718 0.60065
 N1973 N 0.44205 0.00112 0.66276
 C1974 C 0.43299 -0.00098 0.64768
 N1975 N 0.41541 -0.00272 0.64834
 N1976 N 0.40712 -0.00238 0.66360
 C1977 C 0.41607 -0.00028 0.67879
 N1978 N 0.43373 0.00145 0.67806
 C1979 C 0.44173 -0.00114 0.63112
 C1980 C 0.44855 -0.00121 0.61694
 C1981 C 0.45618 -0.00118 0.59984
 N1982 N 0.44766 0.00645 0.58632
 N1983 N 0.45463 0.00647 0.57039
 C1984 C 0.47035 -0.00118 0.56743
 N1985 N 0.47884 -0.00884 0.58100
 N1986 N 0.47186 -0.00885 0.59694
 N1987 N -0.08414 0.49671 1.14802
 C1988 C -0.06658 0.49861 1.14742
 N1989 N -0.05760 0.50085 1.16253
 N1990 N -0.06598 0.50117 1.17779
 C1991 C -0.08362 0.49929 1.17846
 N1992 N -0.09249 0.49704 1.16325
 C1993 C -0.05778 0.49851 1.13088
 C1994 C -0.05094 0.49851 1.11671
 C1995 C -0.04334 0.49864 1.09959
 N1996 N -0.02737 0.49156 1.09675
 N1997 N -0.02042 0.49168 1.08080
 C1998 C -0.02922 0.49886 1.06716
 N1999 N -0.04521 0.50592 1.07007
 N2000 N -0.05216 0.50579 1.08601
 N2001 N -0.08115 0.49101 0.34361
 C2002 C -0.07138 0.50500 0.34825
 N2003 N -0.06905 0.51814 0.33661
 N2004 N -0.07637 0.51731 0.32082
 C2005 C -0.08629 0.50332 0.31608
 N2006 N -0.08846 0.49020 0.32786
 C2007 C -0.06377 0.50581 0.36536
 C2008 C -0.05762 0.50597 0.37986
 C2009 C -0.05049 0.50558 0.39720
 N2010 N -0.03447 0.51236 0.40051
 N2011 N -0.02761 0.51136 0.41648
 C2012 C -0.03653 0.50354 0.42967
 N2013 N -0.05261 0.49683 0.42631
 N2014 N -0.05946 0.49784 0.41034
 N2015 N 0.41973 0.99029 -0.15542
 C2016 C 0.42899 1.00452 -0.15046
 N2017 N 0.43093 1.01795 -0.16185
 N2018 N 0.42373 1.01716 -0.17770
 C2019 C 0.41436 1.00292 -0.18272
 N2020 N 0.41255 0.98951 -0.17123
 C2021 C 0.43644 1.00531 -0.13328
 C2022 C 0.44248 1.00546 -0.11874
 C2023 C 0.44952 1.00509 -0.10137
 N2024 N 0.46550 1.01191 -0.09798
 N2025 N 0.47228 1.01094 -0.08198
 C2026 C 0.46332 1.00310 -0.06883
 N2027 N 0.44728 0.99635 -0.07226
 N2028 N 0.44050 0.99732 -0.08826
 N2029 N 0.55914 0.49751 -0.16237
 C2030 C 0.56850 0.49500 -0.14754
 N2031 N 0.58609 0.49360 -0.14856
 N2032 N 0.59410 0.49468 -0.16393
 C2033 C 0.58486 0.49721 -0.17887
 N2034 N 0.56719 0.49858 -0.17778
 C2035 C 0.56005 0.49409 -0.13086
 C2036 C 0.55349 0.49343 -0.11658
 C2037 C 0.54621 0.49282 -0.09934
 N2038 N 0.55506 0.49989 -0.08572
 N2039 N 0.54838 0.49942 -0.06968
 C2040 C 0.53263 0.49183 -0.06670
 N2041 N 0.52381 0.48473 -0.08038
 N2042 N 0.53050 0.48520 -0.09644
 N2043 N 0.06029 -0.00501 0.33892
 C2044 C 0.06981 -0.00760 0.35364
 N2045 N 0.08741 -0.00872 0.35244
 N2046 N 0.09527 -0.00731 0.33701
 C2047 C 0.08585 -0.00469 0.32219
 N2048 N 0.06817 -0.00360 0.32346
 C2049 C 0.06152 -0.00875 0.37039
 C2050 C 0.05502 -0.00951 0.38470
 C2051 C 0.04772 -0.01006 0.40193
 N2052 N 0.05644 -0.00277 0.41551
 N2053 N 0.04956 -0.00286 0.43148
 C2054 C 0.03373 -0.01029 0.43442
 N2055 N 0.02505 -0.01766 0.42080
 N2056 N 0.03194 -0.01756 0.40482
 N2057 N 0.16103 1.06085 1.00435
 C2058 C 0.14636 1.07045 1.00682
 N2059 N 0.14765 1.08805 1.00789
 N2060 N 0.16312 1.09585 1.00655
 C2061 C 0.17790 1.08635 1.00406
 N2062 N 0.17654 1.06867 1.00301
 C2063 C 0.12957 1.06222 1.00788
 C2064 C 0.11524 1.05575 1.00857
 C2065 C 0.09800 1.04845 1.00905
 N2066 N 0.08448 1.05713 1.00163
 N2067 N 0.06850 1.05026 1.00168
 C2068 C 0.06549 1.03449 1.00919
 N2069 N 0.07906 1.02585 1.01669
 N2070 N 0.09505 1.03273 1.01663
 N2071 N 0.66067 0.56061 0.50430
 C2072 C 0.64605 0.57026 0.50687
 N2073 N 0.64744 0.58784 0.50815
 N2074 N 0.66297 0.59556 0.50692
 C2075 C 0.67769 0.58600 0.50433
 N2076 N 0.67622 0.56835 0.50307
 C2077 C 0.62921 0.56213 0.50782
 C2078 C 0.61485 0.55572 0.50843
 C2079 C 0.59759 0.54846 0.50884
 N2080 N 0.58409 0.55721 0.50145
 N2081 N 0.56810 0.55037 0.50144
 C2082 C 0.56506 0.53455 0.50885
 N2083 N 0.57860 0.52585 0.51632
 N2084 N 0.59460 0.53270 0.51633
 N2085 N 0.65742 0.42042 0.01096
 C2086 C 0.65257 0.42975 -0.00326
 N2087 N 0.66397 0.43159 -0.01667
 N2088 N 0.67974 0.42424 -0.01590
 C2089 C 0.68465 0.41480 -0.00168
 N2090 N 0.67315 0.41308 0.01172
 C2091 C 0.63543 0.43727 -0.00409
 C2092 C 0.62089 0.44329 -0.00436
 C2093 C 0.60349 0.45023 -0.00424
 N2094 N 0.59023 0.44091 0.00290
 N2095 N 0.57413 0.44747 0.00344
 C2096 C 0.57075 0.46359 -0.00314
 N2097 N 0.58405 0.47287 -0.01032
 N2098 N 0.60015 0.46630 -0.01085
 N2099 N 0.16316 -0.06899 0.48249
 C2100 C 0.15162 -0.07085 0.49579
 N2101 N 0.15638 -0.08008 0.51010
 N2102 N 0.17215 -0.08730 0.51108
 C2103 C 0.18379 -0.08556 0.49780
 N2104 N 0.17897 -0.07623 0.48348
 C2105 C 0.13448 -0.06337 0.49477
 C2106 C 0.11995 -0.05731 0.49440
 C2107 C 0.10259 -0.05026 0.49449
 N2108 N 0.08931 -0.05939 0.50182
 N2109 N 0.07330 -0.05263 0.50250
 C2110 C 0.07003 -0.03650 0.49589
 N2111 N 0.08336 -0.02743 0.48849
 N2112 N 0.09938 -0.03419 0.48781
 N2113 N 0.35255 -0.08412 0.50469
 C2114 C 0.35320 -0.06656 0.50273
 N2115 N 0.33811 -0.05757 0.50045
 N2116 N 0.32283 -0.06593 0.50014
 C2117 C 0.32212 -0.08357 0.50208
 N2118 N 0.33730 -0.09246 0.50437
 C2119 C 0.36975 -0.05779 0.50282
 C2120 C 0.38393 -0.05096 0.50283
 C2121 C 0.40105 -0.04336 0.50273
 N2122 N 0.40390 -0.02739 0.50984
 N2123 N 0.41986 -0.02044 0.50975
 C2124 C 0.43349 -0.02924 0.50258
 N2125 N 0.43057 -0.04524 0.49550
 N2126 N 0.41462 -0.05218 0.49559
 N2127 N -0.14679 0.41549 1.00449
 C2128 C -0.14617 0.43307 1.00279
 N2129 N -0.16127 0.44208 1.00068
 N2130 N -0.17654 0.43371 1.00030
 C2131 C -0.17723 0.41604 1.00198
 N2132 N -0.16203 0.40713 1.00410
 C2133 C -0.12963 0.44188 1.00294
 C2134 C -0.11547 0.44875 1.00298
 C2135 C -0.09837 0.45640 1.00286
 N2136 N -0.09560 0.47249 1.00975
 N2137 N -0.07967 0.47951 1.00960
 C2138 C -0.06598 0.47066 1.00260
 N2139 N -0.06882 0.45455 0.99574
 N2140 N -0.08474 0.44754 0.99589
 N2141 N -0.16504 0.56413 0.47932
 C2142 C -0.15305 0.56556 0.49228
 N2143 N -0.15697 0.57506 0.50666
 N2144 N -0.17238 0.58298 0.50804
 C2145 C -0.18446 0.58168 0.49510
 N2146 N -0.18048 0.57206 0.48070
 C2147 C -0.13625 0.55741 0.49081
 C2148 C -0.12194 0.55088 0.49014
 C2149 C -0.10478 0.54339 0.48997
 N2150 N -0.09120 0.55214 0.49723
 N2151 N -0.07536 0.54498 0.49777
 C2152 C -0.07257 0.52880 0.49106
 N2153 N -0.08618 0.52009 0.48371
 N2154 N -0.10203 0.52726 0.48318
 N2155 N 0.33487 1.06423 -0.02035
 C2156 C 0.34677 1.06560 -0.00729
 N2157 N 0.34280 1.07518 0.00703
 N2158 N 0.32744 1.08321 0.00826
 C2159 C 0.31545 1.08197 -0.00477
 N2160 N 0.31948 1.07228 -0.01911
 C2161 C 0.36352 1.05734 -0.00860
 C2162 C 0.37779 1.05073 -0.00913
 C2163 C 0.39493 1.04317 -0.00912
 N2164 N 0.40847 1.05192 -0.00179
 N2165 N 0.42428 1.04472 -0.00110
 C2166 C 0.42708 1.02850 -0.00771
 N2167 N 0.41350 1.01979 -0.01512
 N2168 N 0.39767 1.02701 -0.01580
 N2169 N 0.01852 1.16429 1.06757
 C2170 C 0.00515 1.15280 1.06937
 N2171 N -0.00912 1.15759 1.07862
 N2172 N -0.00999 1.17333 1.08594
 C2173 C 0.00336 1.18491 1.08428
 N2174 N 0.01764 1.18007 1.07490
 C2175 C 0.00607 1.13566 1.06183
 C2176 C 0.00632 1.12113 1.05578
 C2177 C 0.00608 1.10374 1.04880
 N2178 N -0.00128 1.09053 1.05801
 N2179 N -0.00211 1.07449 1.05133
 C2180 C 0.00438 1.07110 1.03518
 N2181 N 0.01181 1.08435 1.02600
 N2182 N 0.01263 1.10040 1.03270
 N2183 N 0.51807 0.66373 0.56836
 C2184 C 0.50477 0.65218 0.57024
 N2185 N 0.49061 0.65684 0.57973
 N2186 N 0.48978 0.67252 0.58719
 C2187 C 0.50307 0.68417 0.58543
 N2188 N 0.51723 0.67945 0.57583
 C2189 C 0.50562 0.63513 0.56251
 C2190 C 0.50584 0.62066 0.55629
 C2191 C 0.50555 0.60335 0.54910
 N2192 N 0.49816 0.59006 0.55817
 N2193 N 0.49732 0.57408 0.55130
 C2194 C 0.50382 0.57087 0.53513
 N2195 N 0.51127 0.58420 0.52610
 N2196 N 0.51211 0.60018 0.53297
 N2197 N -0.00470 0.65963 0.43919
 C2198 C -0.00725 0.64495 0.42961
 N2199 N -0.00876 0.64626 0.41204
 N2200 N -0.00776 0.66177 0.40427
 C2201 C -0.00519 0.67656 0.41375
 N2202 N -0.00371 0.67517 0.43139
 C2203 C -0.00802 0.62812 0.43781
 C2204 C -0.00852 0.61379 0.44428
 C2205 C -0.00887 0.59655 0.45161
 N2206 N -0.00163 0.58300 0.44281
 N2207 N -0.00167 0.56701 0.44967
 C2208 C -0.00897 0.56403 0.46554
 N2209 N -0.01627 0.57763 0.47430
 N2210 N -0.01623 0.59362 0.46743
 N2211 N 0.49523 1.15915 -0.05998
 C2212 C 0.49287 1.14435 -0.06942
 N2213 N 0.49171 1.14544 -0.08703
 N2214 N 0.49286 1.16086 -0.09497
 C2215 C 0.49523 1.17577 -0.08562
 N2216 N 0.49637 1.17459 -0.06794
 C2217 C 0.49197 1.12762 -0.06105
 C2218 C 0.49137 1.11334 -0.05447
 C2219 C 0.49094 1.09614 -0.04707
 N2220 N 0.49816 1.08254 -0.05580
 N2221 N 0.49807 1.06658 -0.04888
 C2222 C 0.49073 1.06368 -0.03300
 N2223 N 0.48345 1.07733 -0.02432
 N2224 N 0.48355 1.09330 -0.03124
 N2225 N 0.51828 0.33322 -0.06508
 C2226 C 0.50517 0.34503 -0.06654
 N2227 N 0.49085 0.34087 -0.07605
 N2228 N 0.48968 0.32542 -0.08393
 C2229 C 0.50278 0.31352 -0.08261
 N2230 N 0.51710 0.31774 -0.07298
 C2231 C 0.50645 0.36189 -0.05844
 C2232 C 0.50706 0.37623 -0.05195
 C2233 C 0.50729 0.39343 -0.04451
 N2234 N 0.49943 0.40686 -0.05294
 N2235 N 0.49919 0.42277 -0.04589
 C2236 C 0.50680 0.42578 -0.03015
 N2237 N 0.51471 0.41230 -0.02175
 N2238 N 0.51495 0.39639 -0.02881
 N2239 N 0.01944 -0.16565 0.43455
 C2240 C 0.00642 -0.15371 0.43323
 N2241 N -0.00811 -0.15781 0.42402
 N2242 N -0.00959 -0.17331 0.41629
 C2243 C 0.00341 -0.18533 0.41748
 N2244 N 0.01796 -0.18118 0.42681
 C2245 C 0.00798 -0.13681 0.44118
 C2246 C 0.00874 -0.12244 0.44757
 C2247 C 0.00900 -0.10519 0.45492
 N2248 N 0.00164 -0.09169 0.44615
 N2249 N 0.00117 -0.07580 0.45321
 C2250 C 0.00804 -0.07286 0.46930
 N2251 N 0.01548 -0.08640 0.47803
 N2252 N 0.01594 -0.10231 0.47096
 N2253 N 0.50020 -0.16144 0.55865
 C2254 C 0.49791 -0.14641 0.56775
 N2255 N 0.49600 -0.14716 0.58531
 N2256 N 0.49637 -0.16246 0.59354
 C2257 C 0.49867 -0.17759 0.58455
 N2258 N 0.50056 -0.17677 0.56691
 C2259 C 0.49778 -0.12981 0.55908
 C2260 C 0.49774 -0.11560 0.55233
 C2261 C 0.49783 -0.09845 0.54478
 N2262 N 0.50480 -0.08484 0.55373
 N2263 N 0.50492 -0.06888 0.54682
 C2264 C 0.49805 -0.06599 0.53072
 N2265 N 0.49105 -0.07965 0.52180
 N2266 N 0.49093 -0.09562 0.52872
 N2267 N 0.00072 0.33870 1.05837
 C2268 C -0.00127 0.35375 1.06750
 N2269 N -0.00293 0.35301 1.08508
 N2270 N -0.00261 0.33771 1.09331
 C2271 C -0.00061 0.32252 1.08430
 N2272 N 0.00103 0.32337 1.06662
 C2273 C -0.00139 0.37035 1.05883
 C2274 C -0.00143 0.38454 1.05204
 C2275 C -0.00135 0.40166 1.04443
 N2276 N 0.00631 0.41516 1.05296
 N2277 N 0.00638 0.43109 1.04599
 C2278 C -0.00125 0.43408 1.03026
 N2279 N -0.00895 0.42052 1.02176
 N2280 N -0.00901 0.40458 1.02873
 N2281 N 0.75476 0.30905 0.08447
 C2282 C 0.75696 0.31828 0.09943
 N2283 N 0.75910 0.33580 0.09851
 N2284 N 0.75901 0.34387 0.08313
 C2285 C 0.75677 0.33479 0.06800
 N2286 N 0.75468 0.31715 0.06906
 C2287 C 0.75674 0.30978 0.11611
 C2288 C 0.75648 0.30311 0.13037
 C2289 C 0.75607 0.29562 0.14753
 N2290 N 0.76372 0.27997 0.15071
 N2291 N 0.76336 0.27310 0.16669
 C2292 C 0.75538 0.28166 0.18003
 N2293 N 0.74775 0.29734 0.17678
 N2294 N 0.74811 0.30420 0.16080
 N2295 N 0.25625 0.80983 0.58715
 C2296 C 0.25872 0.81933 0.60189
 N2297 N 0.26063 0.83687 0.60064
 N2298 N 0.26008 0.84468 0.58513
 C2299 C 0.25758 0.83527 0.57027
 N2300 N 0.25571 0.81766 0.57160
 C2301 C 0.25890 0.81111 0.61872
 C2302 C 0.25888 0.80460 0.63305
 C2303 C 0.25860 0.79719 0.65025
 N2304 N 0.26577 0.78130 0.65332
 N2305 N 0.26521 0.77433 0.66925
 C2306 C 0.25747 0.78302 0.68264
 N2307 N 0.25036 0.79896 0.67952
 N2308 N 0.25093 0.80593 0.66359
 N2309 N 0.74873 0.69136 0.58463
 C2310 C 0.74645 0.68224 0.59963
 N2311 N 0.74437 0.66470 0.59883
 N2312 N 0.74457 0.65650 0.58350
 C2313 C 0.74686 0.66552 0.56839
 N2314 N 0.74892 0.68314 0.56927
 C2315 C 0.74649 0.69086 0.61625
 C2316 C 0.74661 0.69758 0.63047
 C2317 C 0.74688 0.70504 0.64764
 N2318 N 0.75396 0.69602 0.66113
 N2319 N 0.75422 0.70285 0.67713
 C2320 C 0.74739 0.71892 0.68018
 N2321 N 0.74028 0.72792 0.66664
 N2322 N 0.74002 0.72109 0.65063
 N2323 N 0.24904 0.19083 0.08331
 C2324 C 0.24685 0.18165 0.09828
 N2325 N 0.24477 0.16412 0.09741
 N2326 N 0.24488 0.15599 0.08205
 C2327 C 0.24709 0.16503 0.06690
 N2328 N 0.24915 0.18267 0.06791
 C2329 C 0.24696 0.19020 0.11494
 C2330 C 0.24710 0.19684 0.12921
 C2331 C 0.24736 0.20423 0.14642
 N2332 N 0.25443 0.19516 0.15988
 N2333 N 0.25467 0.20192 0.17591
 C2334 C 0.24780 0.21796 0.17903
 N2335 N 0.24071 0.22701 0.16551
 N2336 N 0.24048 0.22025 0.14947
 N2337 N 0.24012 0.17279 0.90264
 C2338 C 0.25466 0.18188 0.89831
 N2339 N 0.26783 0.18322 0.91008
 N2340 N 0.26651 0.17563 0.92569
 C2341 C 0.25197 0.16643 0.93009
 N2342 N 0.23881 0.16521 0.91823
 C2343 C 0.25604 0.18972 0.88135
 C2344 C 0.25671 0.19606 0.86696
 C2345 C 0.25691 0.20339 0.84972
 N2346 N 0.24952 0.19461 0.83623
 N2347 N 0.24905 0.20164 0.82033
 C2348 C 0.25595 0.21771 0.81737
 N2349 N 0.26342 0.22644 0.83090
 N2350 N 0.26389 0.21941 0.84682
 N2351 N 0.76679 0.68415 0.41123
 C2352 C 0.75346 0.68307 0.39961
 N2353 N 0.73900 0.67385 0.40391
 N2354 N 0.73789 0.66590 0.41933
 C2355 C 0.75121 0.66685 0.43103
 N2356 N 0.76568 0.67618 0.42668
 C2357 C 0.75468 0.69121 0.38279
 C2358 C 0.75526 0.69773 0.36848
 C2359 C 0.75545 0.70516 0.35129
 N2360 N 0.76227 0.72127 0.34849
 N2361 N 0.76201 0.72827 0.33256
 C2362 C 0.75490 0.71942 0.31892
 N2363 N 0.74813 0.70328 0.32178
 N2364 N 0.74839 0.69628 0.33770
 N2365 N 0.26156 0.82713 0.40421
 C2366 C 0.24728 0.81757 0.40004
 N2367 N 0.23436 0.81572 0.41200
 N2368 N 0.23568 0.82329 0.42763
 C2369 C 0.24997 0.83297 0.43186
 N2370 N 0.26288 0.83469 0.41981
 C2371 C 0.24583 0.80983 0.38302
 C2372 C 0.24503 0.80362 0.36857
 C2373 C 0.24453 0.79647 0.35125
 N2374 N 0.23675 0.78087 0.34814
 N2375 N 0.23671 0.77408 0.33211
 C2376 C 0.24445 0.78266 0.31865
 N2377 N 0.25219 0.79831 0.32181
 N2378 N 0.25223 0.80509 0.33784
 N2379 N 0.73454 0.31575 0.91138
 C2380 C 0.74749 0.31749 0.89944
 N2381 N 0.76181 0.32702 0.90359
 N2382 N 0.76312 0.33464 0.91916
 C2383 C 0.75018 0.33303 0.93119
 N2384 N 0.73587 0.32338 0.92698
 C2385 C 0.74605 0.30967 0.88245
 C2386 C 0.74527 0.30340 0.86802
 C2387 C 0.74481 0.29622 0.85071
 N2388 N 0.73789 0.28018 0.84776
 N2389 N 0.73792 0.27339 0.83172
 C2390 C 0.74487 0.28240 0.81812
 N2391 N 0.75174 0.29848 0.82113
 N2392 N 0.75171 0.30527 0.83715
 N2393 N 0.83570 0.40135 0.24124
 C2394 C 0.81820 0.40025 0.24345
 N2395 N 0.80886 0.41511 0.24581
 N2396 N 0.81682 0.43060 0.24599
 C2397 C 0.83441 0.43177 0.24382
 N2398 N 0.84365 0.41681 0.24142
 C2399 C 0.80984 0.38349 0.24357
 C2400 C 0.80329 0.36917 0.24375
 C2401 C 0.79592 0.35195 0.24407
 N2402 N 0.78004 0.34880 0.23688
 N2403 N 0.77327 0.33277 0.23718
 C2404 C 0.78216 0.31935 0.24465
 N2405 N 0.79806 0.32256 0.25181
 N2406 N 0.80483 0.33859 0.25151
 N2407 N 0.30959 0.91449 0.74564
 C2408 C 0.31904 0.89975 0.74299
 N2409 N 0.33651 0.90102 0.74066
 N2410 N 0.34432 0.91655 0.74100
 C2411 C 0.33498 0.93140 0.74368
 N2412 N 0.31742 0.93005 0.74597
 C2413 C 0.31082 0.88291 0.74302
 C2414 C 0.30433 0.86857 0.74317
 C2415 C 0.29694 0.85135 0.74353
 N2416 N 0.30589 0.83797 0.75089
 N2417 N 0.29899 0.82200 0.75144
 C2418 C 0.28291 0.81888 0.74462
 N2419 N 0.27401 0.83232 0.73721
 N2420 N 0.28091 0.84829 0.73666
 N2421 N 0.19028 0.91579 0.25223
 C2422 C 0.18104 0.90083 0.25428
 N2423 N 0.16349 0.90171 0.25606
 N2424 N 0.15539 0.91707 0.25579
 C2425 C 0.16448 0.93222 0.25371
 N2426 N 0.18215 0.93119 0.25196
 C2427 C 0.18958 0.88417 0.25434
 C2428 C 0.19623 0.86991 0.25431
 C2429 C 0.20363 0.85272 0.25414
 N2430 N 0.19469 0.83927 0.24686
 N2431 N 0.20146 0.82325 0.24670
 C2432 C 0.21738 0.82013 0.25385
 N2433 N 0.22630 0.83364 0.26116
 N2434 N 0.21952 0.84967 0.26132
 N2435 N 0.66359 0.40131 0.75588
 C2436 C 0.68114 0.40031 0.75400
 N2437 N 0.69047 0.41521 0.75184
 N2438 N 0.68245 0.43066 0.75157
 C2439 C 0.66483 0.43174 0.75343
 N2440 N 0.65560 0.41674 0.75560
 C2441 C 0.68957 0.38360 0.75406
 C2442 C 0.69619 0.36933 0.75404
 C2443 C 0.70364 0.35216 0.75390
 N2444 N 0.71931 0.34908 0.76154
 N2445 N 0.72616 0.33308 0.76139
 C2446 C 0.71756 0.31964 0.75361
 N2447 N 0.70185 0.32278 0.74599
 N2448 N 0.69501 0.33877 0.74615
 N2449 N 0.68480 0.58912 0.73299
 C2450 C 0.68356 0.60084 0.74621
 N2451 N 0.67421 0.59663 0.76061
 N2452 N 0.66629 0.58119 0.76175
 C2453 C 0.66740 0.56939 0.74854
 N2454 N 0.67686 0.57366 0.73414
 C2455 C 0.69167 0.61768 0.74495
 C2456 C 0.69817 0.63201 0.74432
 C2457 C 0.70559 0.64921 0.74405
 N2458 N 0.69710 0.66267 0.75180
 N2459 N 0.70411 0.67860 0.75196
 C2460 C 0.71985 0.68160 0.74439
 N2461 N 0.72830 0.66809 0.73660
 N2462 N 0.72129 0.65216 0.73643
 N2463 N 0.18497 0.08799 0.23271
 C2464 C 0.18393 0.09977 0.24590
 N2465 N 0.17475 0.09563 0.26043
 N2466 N 0.16678 0.08023 0.26173
 C2467 C 0.16769 0.06837 0.24855
 N2468 N 0.17699 0.07256 0.23401
 C2469 C 0.19207 0.11659 0.24446
 C2470 C 0.19857 0.13090 0.24368
 C2471 C 0.20599 0.14811 0.24326
 N2472 N 0.19748 0.16162 0.25091
 N2473 N 0.20447 0.17755 0.25096
 C2474 C 0.22022 0.18052 0.24337
 N2475 N 0.22869 0.16696 0.23567
 N2476 N 0.22169 0.15102 0.23563
 N2477 N 0.32748 0.09764 0.74023
 C2478 C 0.31790 0.10172 0.75452
 N2479 N 0.31602 0.08967 0.76736
 N2480 N 0.32357 0.07404 0.76596
 C2481 C 0.33326 0.06990 0.75167
 N2482 N 0.33502 0.08204 0.73884
 C2483 C 0.31009 0.11869 0.75597
 C2484 C 0.30380 0.13310 0.75666
 C2485 C 0.29652 0.15037 0.75688
 N2486 N 0.28061 0.15336 0.76403
 N2487 N 0.27360 0.16928 0.76355
 C2488 C 0.28226 0.18275 0.75591
 N2489 N 0.29823 0.17972 0.74884
 N2490 N 0.30524 0.16380 0.74932
 N2491 N 0.82711 0.59752 0.23813
 C2492 C 0.81738 0.60170 0.25229
 N2493 N 0.81549 0.58981 0.26527
 N2494 N 0.82317 0.57423 0.26414
 C2495 C 0.83301 0.56998 0.24998
 N2496 N 0.83478 0.58196 0.23701
 C2497 C 0.80949 0.61866 0.25352
 C2498 C 0.80315 0.63305 0.25417
 C2499 C 0.79584 0.65031 0.25450
 N2500 N 0.78017 0.65331 0.26215
 N2501 N 0.77326 0.66928 0.26209
 C2502 C 0.78179 0.68279 0.25436
 N2503 N 0.79751 0.67973 0.24675
 N2504 N 0.80441 0.66376 0.24682
 N2505 N 0.90153 0.25933 0.16399
 C2506 C 0.90050 0.25681 0.18145
 N2507 N 0.91539 0.25426 0.19071
 N2508 N 0.93084 0.25423 0.18270
 C2509 C 0.93194 0.25672 0.16515
 N2510 N 0.91695 0.25929 0.15600
 C2511 C 0.88377 0.25654 0.18985
 C2512 C 0.86949 0.25624 0.19643
 C2513 C 0.85230 0.25579 0.20383
 N2514 N 0.83891 0.24848 0.19482
 N2515 N 0.82291 0.24808 0.20160
 C2516 C 0.81975 0.25499 0.21762
 N2517 N 0.83319 0.26233 0.22661
 N2518 N 0.84920 0.26273 0.21982
 N2519 N 0.40085 0.75985 0.66423
 C2520 C 0.39968 0.75779 0.68175
 N2521 N 0.41448 0.75535 0.69118
 N2522 N 0.42999 0.75496 0.68328
 C2523 C 0.43124 0.75698 0.66568
 N2524 N 0.41633 0.75945 0.65636
 C2525 C 0.38289 0.75784 0.69003
 C2526 C 0.36858 0.75774 0.69656
 C2527 C 0.35138 0.75743 0.70397
 N2528 N 0.33799 0.74995 0.69511
 N2529 N 0.32204 0.74942 0.70203
 C2530 C 0.31895 0.75638 0.71804
 N2531 N 0.33239 0.76391 0.72687
 N2532 N 0.34834 0.76444 0.71994
 N2533 N 0.39967 0.24058 0.83551
 C2534 C 0.39868 0.24276 0.81799
 N2535 N 0.41358 0.24523 0.80875
 N2536 N 0.42901 0.24552 0.81682
 C2537 C 0.43007 0.24336 0.83442
 N2538 N 0.41507 0.24087 0.84356
 C2539 C 0.38198 0.24281 0.80952
 C2540 C 0.36771 0.24299 0.80288
 C2541 C 0.35055 0.24342 0.79539
 N2542 N 0.34753 0.23666 0.77930
 N2543 N 0.33158 0.23725 0.77236
 C2544 C 0.31813 0.24458 0.78128
 N2545 N 0.32120 0.25129 0.79741
 N2546 N 0.33714 0.25071 0.80435
 N2547 N 0.91446 0.74816 0.30943
 C2548 C 0.89947 0.74604 0.31858
 N2549 N 0.90031 0.74391 0.33610
 N2550 N 0.91566 0.74391 0.34425
 C2551 C 0.93083 0.74606 0.33525
 N2552 N 0.92984 0.74817 0.31761
 C2553 C 0.88283 0.74625 0.30999
 C2554 C 0.86861 0.74648 0.30326
 C2555 C 0.85146 0.74685 0.29574
 N2556 N 0.83802 0.75415 0.30463
 N2557 N 0.82204 0.75444 0.29776
 C2558 C 0.81896 0.74742 0.28176
 N2559 N 0.83246 0.74010 0.27289
 N2560 N 0.84845 0.73980 0.27977
 N2561 N 0.09442 0.73883 0.32591
 C2562 C 0.09871 0.75346 0.31695
 N2563 N 0.08702 0.76671 0.31594
 N2564 N 0.07151 0.76537 0.32372
 C2565 C 0.06715 0.75074 0.33280
 N2566 N 0.07893 0.73750 0.33368
 C2567 C 0.11562 0.75493 0.30902
 C2568 C 0.13000 0.75571 0.30268
 C2569 C 0.14727 0.75614 0.29545
 N2570 N 0.16082 0.74914 0.30444
 N2571 N 0.17681 0.74903 0.29760
 C2572 C 0.17979 0.75591 0.28153
 N2573 N 0.16618 0.76296 0.27258
 N2574 N 0.15019 0.76307 0.27943
 N2575 N 0.58756 0.26533 0.81570
 C2576 C 0.59940 0.25223 0.81702
 N2577 N 0.59525 0.23776 0.82630
 N2578 N 0.57977 0.23644 0.83408
 C2579 C 0.56785 0.24952 0.83289
 N2580 N 0.57206 0.26399 0.82350
 C2581 C 0.61629 0.25369 0.80904
 C2582 C 0.63064 0.25449 0.80264
 C2583 C 0.64788 0.25496 0.79532
 N2584 N 0.65073 0.26214 0.77940
 N2585 N 0.66670 0.26213 0.77248
 C2586 C 0.68034 0.25493 0.78125
 N2587 N 0.67742 0.24779 0.79722
 N2588 N 0.66147 0.24781 0.80413
 N2589 N 0.58974 0.73528 0.68447
 C2590 C 0.60158 0.74831 0.68254
 N2591 N 0.59728 0.76251 0.67293
 N2592 N 0.58165 0.76363 0.66540
 C2593 C 0.56971 0.75061 0.66719
 N2594 N 0.57408 0.73641 0.67692
 C2595 C 0.61862 0.74707 0.69028
 C2596 C 0.63307 0.74644 0.69649
 C2597 C 0.65039 0.74612 0.70366
 N2598 N 0.66386 0.75337 0.69476
 N2599 N 0.67989 0.75347 0.70154
 C2600 C 0.68298 0.74633 0.71747
 N2601 N 0.66946 0.73904 0.72635
 N2602 N 0.65343 0.73894 0.71956
 N2603 N 0.09010 0.23483 0.18306
 C2604 C 0.10198 0.24787 0.18137
 N2605 N 0.09772 0.26223 0.17198
 N2606 N 0.08210 0.26352 0.16445
 C2607 C 0.07014 0.25050 0.16601
 N2608 N 0.07446 0.23613 0.17552
 C2609 C 0.11899 0.24646 0.18910
 C2610 C 0.13344 0.24571 0.19532
 C2611 C 0.15075 0.24525 0.20248
 N2612 N 0.16425 0.25245 0.19359
 N2613 N 0.18028 0.25248 0.20038
 C2614 C 0.18333 0.24530 0.21630
 N2615 N 0.16978 0.23806 0.22516
 N2616 N 0.15375 0.23804 0.21837
 N2617 N -0.08662 1.00345 0.85233
 C2618 C -0.06932 1.00012 0.85371
 N2619 N -0.05977 0.99785 0.83898
 N2620 N -0.06735 0.99884 0.82332
 C2621 C -0.08476 1.00214 0.82183
 N2622 N -0.09418 1.00443 0.83670
 C2623 C -0.06135 0.99901 0.87064
 C2624 C -0.05510 0.99824 0.88508
 C2625 C -0.04808 0.99758 0.90245
 N2626 N -0.03246 0.98985 0.90560
 N2627 N -0.02588 0.98954 0.92171
 C2628 C -0.03471 0.99691 0.93522
 N2629 N -0.05037 1.00457 0.93202
 N2630 N -0.05695 1.00488 0.91591
 N2631 N 0.43925 0.49806 0.33840
 C2632 C 0.42992 0.50061 0.35323
 N2633 N 0.41265 0.50417 0.35203
 N2634 N 0.40491 0.50510 0.33649
 C2635 C 0.41413 0.50252 0.32156
 N2636 N 0.43148 0.49899 0.32283
 C2637 C 0.43807 0.49950 0.37007
 C2638 C 0.44441 0.49873 0.38446
 C2639 C 0.45151 0.49806 0.40180
 N2640 N 0.44264 0.50527 0.41531
 N2641 N 0.44926 0.50492 0.43140
 C2642 C 0.46496 0.49731 0.43453
 N2643 N 0.47379 0.49004 0.42097
 N2644 N 0.46717 0.49039 0.40487
 N2645 N 0.56722 -0.00845 0.33773
 C2646 C 0.56965 0.00529 0.34865
 N2647 N 0.58004 0.01864 0.34352
 N2648 N 0.58779 0.01826 0.32798
 C2649 C 0.58550 0.00452 0.31693
 N2650 N 0.57499 -0.00882 0.32215
 C2651 C 0.56172 0.00563 0.36562
 C2652 C 0.55539 0.00612 0.38002
 C2653 C 0.54817 0.00676 0.39730
 N2654 N 0.55712 -0.00008 0.41096
 N2655 N 0.55041 0.00036 0.42700
 C2656 C 0.53455 0.00771 0.42994
 N2657 N 0.52564 0.01462 0.41623
 N2658 N 0.53236 0.01418 0.40018
 N2659 N 0.06686 0.49212 0.83756
 C2660 C 0.06933 0.50614 0.84812
 N2661 N 0.07954 0.51945 0.84253
 N2662 N 0.08709 0.51877 0.82689
 C2663 C 0.08473 0.50475 0.81624
 N2664 N 0.07442 0.49144 0.82189
 C2665 C 0.06165 0.50678 0.86519
 C2666 C 0.05548 0.50743 0.87966
 C2667 C 0.04838 0.50816 0.89699
 N2668 N 0.03239 0.51517 0.89988
 N2669 N 0.02570 0.51552 0.91594
 C2670 C 0.03482 0.50892 0.92966
 N2671 N 0.05087 0.50200 0.92672
 N2672 N 0.05755 0.50165 0.91066
 N2673 N 0.05395 0.49406 0.66375
 C2674 C 0.06243 0.49558 0.64828
 N2675 N 0.07981 0.49879 0.64827
 N2676 N 0.08849 0.50038 0.66325
 C2677 C 0.08013 0.49885 0.67882
 N2678 N 0.06266 0.49566 0.67876
 C2679 C 0.05330 0.49395 0.63198
 C2680 C 0.04641 0.49288 0.61786
 C2681 C 0.03911 0.49206 0.60061
 N2682 N 0.04826 0.49853 0.58693
 N2683 N 0.04161 0.49807 0.57087
 C2684 C 0.02557 0.49110 0.56792
 N2685 N 0.01643 0.48457 0.58165
 N2686 N 0.02310 0.48503 0.59774
 N2687 N 0.55364 0.99421 0.16544
 C2688 C 0.56193 0.99607 0.14990
 N2689 N 0.57922 0.99975 0.14977
 N2690 N 0.58800 1.00146 0.16467
 C2691 C 0.57983 0.99959 0.18031
 N2692 N 0.56244 0.99593 0.18038
 C2693 C 0.55271 0.99427 0.13368
 C2694 C 0.54579 0.99308 0.11958
 C2695 C 0.53851 0.99215 0.10233
 N2696 N 0.54767 0.99854 0.08863
 N2697 N 0.54104 0.99800 0.07257
 C2698 C 0.52501 0.99102 0.06963
 N2699 N 0.51584 0.98456 0.08338
 N2700 N 0.52249 0.98511 0.09948
 N2701 N 0.42310 0.51398 0.15668
 C2702 C 0.43329 0.50025 0.15218
 N2703 N 0.43516 0.48681 0.16356
 N2704 N 0.42703 0.48708 0.17896
 C2705 C 0.41673 0.50080 0.18351
 N2706 N 0.41498 0.51424 0.17204
 C2707 C 0.44153 0.49985 0.13536
 C2708 C 0.44809 0.49974 0.12104
 C2709 C 0.45555 0.49970 0.10385
 N2710 N 0.44663 0.49264 0.09027
 N2711 N 0.45350 0.49257 0.07430
 C2712 C 0.46951 0.49962 0.07133
 N2713 N 0.47839 0.50674 0.08496
 N2714 N 0.47151 0.50680 0.10095
 N2715 N -0.07586 0.01275 0.65741
 C2716 C -0.06562 -0.00105 0.65329
 N2717 N -0.06375 -0.01420 0.66501
 N2718 N -0.07193 -0.01355 0.68037
 C2719 C -0.08231 0.00024 0.68457
 N2720 N -0.08402 0.01338 0.67273
 C2721 C -0.05730 -0.00180 0.63651
 C2722 C -0.05071 -0.00209 0.62221
 C2723 C -0.04326 -0.00216 0.60501
 N2724 N -0.02748 0.00530 0.60199
 N2725 N -0.02077 0.00550 0.58594
 C2726 C -0.02963 -0.00170 0.57235
 N2727 N -0.04544 -0.00914 0.57542
 N2728 N -0.05215 -0.00934 0.59147
 N2729 N -0.15795 0.92530 0.98761
 C2730 C -0.15357 0.93535 1.00149
 N2731 N -0.16496 0.93689 1.01496
 N2732 N -0.18027 0.92857 1.01455
 C2733 C -0.18470 0.91840 1.00067
 N2734 N -0.17322 0.91699 0.98721
 C2735 C -0.13682 0.94375 1.00202
 C2736 C -0.12252 0.95037 1.00213
 C2737 C -0.10531 0.95780 1.00203
 N2738 N -0.10230 0.97350 0.99443
 N2739 N -0.08623 0.98019 0.99408
 C2740 C -0.07262 0.97136 1.00127
 N2741 N -0.07570 0.95563 1.00886
 N2742 N -0.09176 0.94895 1.00921
 N2743 N 0.33489 0.43632 0.51367
 C2744 C 0.34625 0.43487 0.50017
 N2745 N 0.34186 0.42486 0.48626
 N2746 N 0.32662 0.41651 0.48586
 C2747 C 0.31517 0.41782 0.49936
 N2748 N 0.31961 0.42795 0.51327
 C2749 C 0.36299 0.44332 0.50071
 C2750 C 0.37726 0.44998 0.50085
 C2751 C 0.39445 0.45747 0.50083
 N2752 N 0.40802 0.44861 0.50795
 N2753 N 0.42406 0.45536 0.50769
 C2754 C 0.42709 0.47117 0.50026
 N2755 N 0.41346 0.48001 0.49312
 N2756 N 0.39741 0.47325 0.49337
 N2757 N 0.33663 0.55375 0.00764
 C2758 C 0.35211 0.56226 0.00624
 N2759 N 0.35213 0.57966 0.00309
 N2760 N 0.33716 0.58833 0.00146
 C2761 C 0.32159 0.57994 0.00286
 N2762 N 0.32163 0.56245 0.00600
 C2763 C 0.36839 0.55311 0.00780
 C2764 C 0.38249 0.54618 0.00875
 C2765 C 0.39969 0.53878 0.00934
 N2766 N 0.41337 0.54791 0.00283
 N2767 N 0.42935 0.54108 0.00287
 C2768 C 0.43223 0.52487 0.00946
 N2769 N 0.41850 0.51575 0.01606
 N2770 N 0.40249 0.52260 0.01601
 N2771 N -0.16389 0.05445 0.50538
 C2772 C -0.14837 0.06281 0.50362
 N2773 N -0.14826 0.08018 0.50034
 N2774 N -0.16317 0.08897 0.49891
 C2775 C -0.17879 0.08074 0.50068
 N2776 N -0.17885 0.06327 0.50394
 C2777 C -0.13215 0.05356 0.50510
 C2778 C -0.11807 0.04659 0.50606
 C2779 C -0.10087 0.03920 0.50675
 N2780 N -0.08711 0.04850 0.50067
 N2781 N -0.07109 0.04177 0.50102
 C2782 C -0.06825 0.02551 0.50748
 N2783 N -0.08207 0.01621 0.51362
 N2784 N -0.09812 0.02296 0.51327
 N2785 N 0.66298 0.06768 0.50911
 C2786 C 0.65232 0.07001 0.49515
 N2787 N 0.65775 0.08022 0.48179
 N2788 N 0.67335 0.08790 0.48236
 C2789 C 0.68410 0.08567 0.49631
 N2790 N 0.67860 0.07536 0.50968
 C2791 C 0.63530 0.06218 0.49463
 C2792 C 0.62087 0.05591 0.49405
 C2793 C 0.60358 0.04870 0.49339
 N2794 N 0.58989 0.05783 0.49990
 N2795 N 0.57386 0.05108 0.49957
 C2796 C 0.57096 0.03499 0.49267
 N2797 N 0.58469 0.02591 0.48608
 N2798 N 0.60073 0.03267 0.48640
 N2799 N 0.16378 0.56677 1.00936
 C2800 C 0.15302 0.56948 0.99555
 N2801 N 0.15838 0.57999 0.98240
 N2802 N 0.17400 0.58760 0.98304
 C2803 C 0.18489 0.58504 0.99685
 N2804 N 0.17943 0.57439 1.00999
 C2805 C 0.13597 0.56170 0.99496
 C2806 C 0.12152 0.55546 0.99432
 C2807 C 0.10420 0.54831 0.99357
 N2808 N 0.09055 0.55732 1.00031
 N2809 N 0.07450 0.55062 0.99987
 C2810 C 0.07154 0.53469 0.99262
 N2811 N 0.08524 0.52573 0.98581
 N2812 N 0.10130 0.53244 0.98625
 N2813 N 0.14695 0.41186 0.49579
 C2814 C 0.14566 0.42911 0.49949
 N2815 N 0.16045 0.43852 0.50208
 N2816 N 0.17605 0.43087 0.50105
 C2817 C 0.17742 0.41354 0.49737
 N2818 N 0.16253 0.40423 0.49476
 C2819 C 0.12878 0.43715 0.50069
 C2820 C 0.11438 0.44343 0.50154
 C2821 C 0.09704 0.45048 0.50228
 N2822 N 0.09410 0.46652 0.50919
 N2823 N 0.07800 0.47311 0.50955
 C2824 C 0.06430 0.46388 0.50304
 N2825 N 0.06731 0.44780 0.49619
 N2826 N 0.08340 0.44121 0.49583
 N2827 N 0.66029 0.93912 0.00352
 C2828 C 0.64556 0.92969 0.00069
 N2829 N 0.64694 0.91254 -0.00338
 N2830 N 0.66255 0.90501 -0.00452
 C2831 C 0.67739 0.91433 -0.00165
 N2832 N 0.67593 0.93156 0.00238
 C2833 C 0.62864 0.93761 0.00204
 C2834 C 0.61420 0.94378 0.00300
 C2835 C 0.59681 0.95068 0.00387
 N2836 N 0.58320 0.94130 -0.00251
 N2837 N 0.56706 0.94777 -0.00207
 C2838 C 0.56398 0.96383 0.00480
 N2839 N 0.57764 0.97316 0.01125
 N2840 N 0.59378 0.96669 0.01081
 N2841 N -0.00537 0.83629 0.94655
 C2842 C -0.00391 0.85170 0.93795
 N2843 N -0.00083 0.85158 0.92055
 N2844 N 0.00070 0.83655 0.91197
 C2845 C -0.00078 0.82101 0.92042
 N2846 N -0.00384 0.82122 0.93794
 C2847 C -0.00545 0.86805 0.94697
 C2848 C -0.00646 0.88223 0.95375
 C2849 C -0.00720 0.89953 0.96092
 N2850 N -0.00118 0.91320 0.95144
 N2851 N -0.00153 0.92930 0.95797
 C2852 C -0.00794 0.93232 0.97422
 N2853 N -0.01403 0.91861 0.98369
 N2854 N -0.01368 0.90246 0.97714
 N2855 N 0.49493 0.33667 0.44492
 C2856 C 0.49678 0.35210 0.43643
 N2857 N 0.50034 0.35202 0.41911
 N2858 N 0.50193 0.33700 0.41051
 C2859 C 0.50006 0.32147 0.41889
 N2860 N 0.49653 0.32161 0.43630
 C2861 C 0.49509 0.36843 0.44546
 C2862 C 0.49395 0.38257 0.45229
 C2863 C 0.49303 0.39983 0.45954
 N2864 N 0.49895 0.41360 0.45015
 N2865 N 0.49846 0.42967 0.45679
 C2866 C 0.49200 0.43254 0.47304
 N2867 N 0.48601 0.41871 0.48242
 N2868 N 0.48651 0.40261 0.47577
 N2869 N -0.01485 0.33379 0.56361
 C2870 C -0.00172 0.34548 0.56579
 N2871 N 0.01176 0.34139 0.57647
 N2872 N 0.01209 0.32612 0.58477
 C2873 C -0.00104 0.31431 0.58275
 N2874 N -0.01451 0.31849 0.57192
 C2875 C -0.00218 0.36221 0.55733
 C2876 C -0.00226 0.37648 0.55065
 C2877 C -0.00217 0.39365 0.54313
 N2878 N -0.00948 0.40723 0.55182
 N2879 N -0.00917 0.42324 0.54503
 C2880 C -0.00148 0.42625 0.52934
 N2881 N 0.00586 0.41262 0.52067
 N2882 N 0.00555 0.39660 0.52747
 N2883 N 0.51152 0.84038 0.07671
 C2884 C 0.49757 0.84497 0.06686
 N2885 N 0.48400 0.83367 0.06532
 N2886 N 0.48438 0.81826 0.07344
 C2887 C 0.49834 0.81363 0.08341
 N2888 N 0.51189 0.82501 0.08482
 C2889 C 0.49711 0.86180 0.05862
 C2890 C 0.49705 0.87613 0.05207
 C2891 C 0.49723 0.89335 0.04465
 N2892 N 0.50504 0.89635 0.02904
 N2893 N 0.50542 0.91240 0.02232
 C2894 C 0.49806 0.92601 0.03101
 N2895 N 0.49028 0.92295 0.04665
 N2896 N 0.48990 0.90690 0.05336
 N2897 N 0.50120 0.64497 0.08805
 C2898 C 0.49743 0.64373 0.07082
 N2899 N 0.49484 0.65856 0.06148
 N2900 N 0.49592 0.67414 0.06919
 C2901 C 0.49967 0.67545 0.08651
 N2902 N 0.50228 0.66052 0.09575
 C2903 C 0.49629 0.62688 0.06268
 C2904 C 0.49556 0.61250 0.05629
 C2905 C 0.49505 0.59520 0.04909
 N2906 N 0.48766 0.59219 0.03327
 N2907 N 0.48763 0.57616 0.02646
 C2908 C 0.49497 0.56261 0.03525
 N2909 N 0.50229 0.56567 0.05112
 N2910 N 0.50230 0.58169 0.05792
 N2911 N 0.00285 0.14658 0.58667
 C2912 C -0.00062 0.14535 0.56938
 N2913 N -0.00316 0.16017 0.56001
 N2914 N -0.00231 0.17575 0.56776
 C2915 C 0.00112 0.17705 0.58515
 N2916 N 0.00369 0.16213 0.59440
 C2917 C -0.00163 0.12849 0.56124
 C2918 C -0.00233 0.11409 0.55490
 C2919 C -0.00293 0.09675 0.54780
 N2920 N -0.01057 0.09364 0.53213
 N2921 N -0.01088 0.07754 0.52552
 C2922 C -0.00358 0.06401 0.53438
 N2923 N 0.00401 0.06717 0.55010
 N2924 N 0.00431 0.08327 0.55670
 N2925 N 0.49152 0.16341 0.43368
 C2926 C 0.50545 0.15271 0.43142
 N2927 N 0.51878 0.15801 0.42110
 N2928 N 0.51821 0.17350 0.41324
 C2929 C 0.50429 0.18430 0.41539
 N2930 N 0.49096 0.17894 0.42581
 C2931 C 0.50595 0.13577 0.43941
 C2932 C 0.50654 0.12139 0.44579
 C2933 C 0.50721 0.10413 0.45305
 N2934 N 0.51446 0.10132 0.46897
 N2935 N 0.51487 0.08529 0.47575
 C2936 C 0.50809 0.07153 0.46681
 N2937 N 0.50092 0.07440 0.45084
 N2938 N 0.50052 0.09041 0.44406
 N2939 N -0.00857 0.66385 0.93357
 C2940 C 0.00517 0.65296 0.93106
 N2941 N 0.01844 0.65813 0.92060
 N2942 N 0.01799 0.67368 0.91286
 C2943 C 0.00426 0.68470 0.91523
 N2944 N -0.00900 0.67944 0.92581
 C2945 C 0.00556 0.63598 0.93898
 C2946 C 0.00609 0.62157 0.94530
 C2947 C 0.00674 0.60429 0.95252
 N2948 N 0.01418 0.60140 0.96833
 N2949 N 0.01462 0.58534 0.97505
 C2950 C 0.00769 0.57164 0.96614
 N2951 N 0.00033 0.57459 0.95027
 N2952 N -0.00011 0.59063 0.94356
 N2953 N 0.25002 0.69184 0.91604
 C2954 C 0.25236 0.68309 0.90082
 N2955 N 0.25623 0.66584 0.90130
 N2956 N 0.25762 0.65755 0.91651
 C2957 C 0.25524 0.66619 0.93184
 N2958 N 0.25142 0.68353 0.93129
 C2959 C 0.25070 0.69178 0.88431
 C2960 C 0.24951 0.69845 0.87010
 C2961 C 0.24844 0.70570 0.85285
 N2962 N 0.25495 0.69667 0.83910
 N2963 N 0.25426 0.70334 0.82306
 C2964 C 0.24700 0.71926 0.82020
 N2965 N 0.24042 0.72827 0.83401
 N2966 N 0.24112 0.72158 0.85008
 N2967 N 0.74831 0.19188 0.41394
 C2968 C 0.75053 0.18290 0.39883
 N2969 N 0.75458 0.16570 0.39954
 N2970 N 0.75625 0.15768 0.41486
 C2971 C 0.75398 0.16654 0.43008
 N2972 N 0.74998 0.18383 0.42930
 C2973 C 0.74870 0.19134 0.38220
 C2974 C 0.74742 0.19783 0.36792
 C2975 C 0.74635 0.20494 0.35062
 N2976 N 0.75303 0.19590 0.33695
 N2977 N 0.75255 0.20257 0.32090
 C2978 C 0.74534 0.21849 0.31794
 N2979 N 0.73856 0.22749 0.33165
 N2980 N 0.73904 0.22081 0.34773
 N2981 N 0.25672 0.30754 0.41310
 C2982 C 0.25465 0.31651 0.39796
 N2983 N 0.25077 0.33374 0.39862
 N2984 N 0.24907 0.34181 0.41392
 C2985 C 0.25114 0.33296 0.42916
 N2986 N 0.25501 0.31564 0.42844
 C2987 C 0.25633 0.30798 0.38136
 C2988 C 0.25741 0.30142 0.36708
 C2989 C 0.25820 0.29423 0.34979
 N2990 N 0.25156 0.30332 0.33614
 N2991 N 0.25176 0.29657 0.32011
 C2992 C 0.25865 0.28050 0.31716
 N2993 N 0.26539 0.27145 0.33086
 N2994 N 0.26518 0.27821 0.34691
 N2995 N 0.75088 0.83467 0.89977
 C2996 C 0.75465 0.81741 0.89909
 N2997 N 0.75662 0.80841 0.91422
 N2998 N 0.75494 0.81649 0.92956
 C2999 C 0.75118 0.83383 0.93031
 N3000 N 0.74920 0.84272 0.91508
 C3001 C 0.75629 0.80890 0.88247
 C3002 C 0.75734 0.80237 0.86819
 C3003 C 0.75810 0.79520 0.85089
 N3004 N 0.76506 0.77919 0.84798
 N3005 N 0.76524 0.77245 0.83191
 C3006 C 0.75848 0.78153 0.81824
 N3007 N 0.75160 0.79759 0.82122
 N3008 N 0.75143 0.80432 0.83726
 N3009 N 0.73160 0.82800 0.09462
 C3010 C 0.74540 0.81839 0.10008
 N3011 N 0.75948 0.81673 0.08947
 N3012 N 0.75975 0.82449 0.07389
 C3013 C 0.74595 0.83421 0.06837
 N3014 N 0.73188 0.83575 0.07907
 C3015 C 0.74519 0.81052 0.11709
 C3016 C 0.74482 0.80423 0.13152
 C3017 C 0.74435 0.79703 0.14882
 N3018 N 0.75125 0.80602 0.16242
 N3019 N 0.75100 0.79931 0.17847
 C3020 C 0.74376 0.78339 0.18148
 N3021 N 0.73678 0.77444 0.16782
 N3022 N 0.73704 0.78116 0.15177
 N3023 N 0.23290 0.32670 0.59350
 C3024 C 0.24683 0.31718 0.59879
 N3025 N 0.26082 0.31567 0.58804
 N3026 N 0.26087 0.32351 0.57248
 C3027 C 0.24694 0.33314 0.56714
 N3028 N 0.23296 0.33452 0.57798
 C3029 C 0.24684 0.30923 0.61577
 C3030 C 0.24659 0.30290 0.63018
 C3031 C 0.24616 0.29569 0.64748
 N3032 N 0.25330 0.30458 0.66104
 N3033 N 0.25286 0.29797 0.67712
 C3034 C 0.24521 0.28226 0.68022
 N3035 N 0.23803 0.27341 0.66662
 N3036 N 0.23847 0.28002 0.65052
 N3037 N 0.74148 0.18528 0.58791
 C3038 C 0.75493 0.18301 0.59921
 N3039 N 0.76834 0.17245 0.59461
 N3040 N 0.76829 0.16438 0.57921
 C3041 C 0.75484 0.16653 0.56782
 N3042 N 0.74144 0.17720 0.57248
 C3043 C 0.75484 0.19123 0.61607
 C3044 C 0.75491 0.19778 0.63040
 C3045 C 0.75501 0.20522 0.64761
 N3046 N 0.74794 0.19632 0.66118
 N3047 N 0.74793 0.20320 0.67717
 C3048 C 0.75503 0.21918 0.68015
 N3049 N 0.76216 0.22804 0.66654
 N3050 N 0.76217 0.22116 0.65054
 N3051 N 0.24081 0.68436 0.08878
 C3052 C 0.25417 0.68214 0.10020
 N3053 N 0.26756 0.67147 0.09581
 N3054 N 0.26759 0.66325 0.08049
 C3055 C 0.25424 0.66535 0.06898
 N3056 N 0.24085 0.67612 0.07343
 C3057 C 0.25399 0.69052 0.11698
 C3058 C 0.25399 0.69718 0.13125
 C3059 C 0.25402 0.70472 0.14842
 N3060 N 0.24671 0.69598 0.16196
 N3061 N 0.24666 0.70291 0.17792
 C3062 C 0.25398 0.71880 0.18090
 N3063 N 0.26135 0.72751 0.16731
 N3064 N 0.26139 0.72056 0.15134
 N3065 N 0.19223 0.58515 0.75116
 C3066 C 0.18355 0.60040 0.74874
 N3067 N 0.16636 0.59996 0.74464
 N3068 N 0.15805 0.58477 0.74310
 C3069 C 0.16661 0.56943 0.74556
 N3070 N 0.18390 0.56993 0.74961
 C3071 C 0.19226 0.61689 0.75058
 C3072 C 0.19892 0.63110 0.75191
 C3073 C 0.20611 0.64836 0.75312
 N3074 N 0.22226 0.65106 0.75989
 N3075 N 0.22891 0.66715 0.76066
 C3076 C 0.21961 0.68104 0.75470
 N3077 N 0.20343 0.67825 0.74799
 N3078 N 0.19679 0.66220 0.74724
 N3079 N 0.69140 0.08568 0.25278
 C3080 C 0.68253 0.10087 0.25081
 N3081 N 0.66527 0.10033 0.24703
 N3082 N 0.65708 0.08508 0.24538
 C3083 C 0.66581 0.06975 0.24741
 N3084 N 0.68319 0.07040 0.25112
 C3085 C 0.69115 0.11742 0.25260
 C3086 C 0.69777 0.13166 0.25382
 C3087 C 0.70502 0.14892 0.25479
 N3088 N 0.72113 0.15167 0.26162
 N3089 N 0.72794 0.16770 0.26194
 C3090 C 0.71885 0.18150 0.25547
 N3091 N 0.70268 0.17867 0.24874
 N3092 N 0.69589 0.16267 0.24842
 N3093 N 0.83467 0.10073 0.75044
 C3094 C 0.81741 0.10131 0.74667
 N3095 N 0.80852 0.08613 0.74453
 N3096 N 0.81671 0.07083 0.74606
 C3097 C 0.83406 0.07019 0.74982
 N3098 N 0.84283 0.08547 0.75197
 C3099 C 0.80879 0.11787 0.74515
 C3100 C 0.80215 0.13212 0.74419
 C3101 C 0.79488 0.14938 0.74350
 N3102 N 0.77891 0.15224 0.73640
 N3103 N 0.77211 0.16826 0.73624
 C3104 C 0.78106 0.18195 0.74316
 N3105 N 0.79708 0.17902 0.75019
 N3106 N 0.80387 0.16302 0.75034
 N3107 N 0.33346 0.60069 0.24954
 C3108 C 0.31619 0.60136 0.24584
 N3109 N 0.30721 0.58622 0.24376
 N3110 N 0.31532 0.57088 0.24527
 C3111 C 0.33268 0.57015 0.24896
 N3112 N 0.34155 0.58539 0.25105
 C3113 C 0.30765 0.61797 0.24438
 C3114 C 0.30110 0.63225 0.24348
 C3115 C 0.29391 0.64954 0.24290
 N3116 N 0.27778 0.65245 0.23617
 N3117 N 0.27103 0.66850 0.23618
 C3118 C 0.28018 0.68216 0.24288
 N3119 N 0.29636 0.67918 0.24952
 N3120 N 0.30310 0.66316 0.24950
 N3121 N 0.32843 0.40514 0.26658
 C3122 C 0.31876 0.39978 0.25278
 N3123 N 0.31681 0.41060 0.23889
 N3124 N 0.32436 0.42630 0.23882
 C3125 C 0.33414 0.43173 0.25262
 N3126 N 0.33597 0.42081 0.26650
 C3127 C 0.31108 0.38267 0.25279
 C3128 C 0.30491 0.36818 0.25303
 C3129 C 0.29780 0.35082 0.25338
 N3130 N 0.28205 0.34771 0.26082
 N3131 N 0.27542 0.33161 0.26101
 C3132 C 0.28435 0.31807 0.25381
 N3133 N 0.30016 0.32124 0.24643
 N3134 N 0.30678 0.33734 0.24625
 N3135 N 0.82903 0.90577 0.76767
 C3136 C 0.81935 0.90044 0.75386
 N3137 N 0.81760 0.91119 0.73989
 N3138 N 0.82535 0.92680 0.73975
 C3139 C 0.83514 0.93219 0.75356
 N3140 N 0.83677 0.92135 0.76752
 C3141 C 0.81147 0.88342 0.75394
 C3142 C 0.80516 0.86899 0.75418
 C3143 C 0.79792 0.85169 0.75452
 N3144 N 0.80682 0.83815 0.74740
 N3145 N 0.80009 0.82210 0.74756
 C3146 C 0.78424 0.81903 0.75490
 N3147 N 0.77538 0.83262 0.76209
 N3148 N 0.78212 0.84868 0.76192
 N3149 N 0.68411 0.91263 0.25958
 C3150 C 0.68176 0.90141 0.24606
 N3151 N 0.67117 0.90611 0.23270
 N3152 N 0.66314 0.92153 0.23285
 C3153 C 0.66538 0.93284 0.24636
 N3154 N 0.67607 0.92808 0.25972
 C3155 C 0.68993 0.88454 0.24602
 C3156 C 0.69644 0.87021 0.24582
 C3157 C 0.70385 0.85298 0.24555
 N3158 N 0.69503 0.83939 0.25267
 N3159 N 0.70187 0.82339 0.25252
 C3160 C 0.71773 0.82043 0.24518
 N3161 N 0.72651 0.83407 0.23799
 N3162 N 0.71966 0.85008 0.23815
 N3163 N 0.17174 0.40567 0.73301
 C3164 C 0.18232 0.40124 0.74648
 N3165 N 0.18443 0.41261 0.75990
 N3166 N 0.17617 0.42795 0.75985
 C3167 C 0.16550 0.43243 0.74638
 N3168 N 0.16350 0.42097 0.73296
 C3169 C 0.19069 0.38448 0.74666
 C3170 C 0.19732 0.37020 0.74658
 C3171 C 0.20476 0.35300 0.74639
 N3172 N 0.22056 0.35008 0.73897
 N3173 N 0.22732 0.33404 0.73868
 C3174 C 0.21847 0.32038 0.74574
 N3175 N 0.20264 0.32337 0.75313
 N3176 N 0.19589 0.33940 0.75343
 N3177 N 0.10027 0.75630 0.83495
 C3178 C 0.10084 0.75226 0.81774
 N3179 N 0.08566 0.74986 0.80892
 N3180 N 0.07038 0.75136 0.81713
 C3181 C 0.06975 0.75534 0.83443
 N3182 N 0.08502 0.75779 0.84313
 C3183 C 0.11739 0.75049 0.80916
 C3184 C 0.13162 0.74920 0.80259
 C3185 C 0.14889 0.74803 0.79543
 N3186 N 0.15171 0.74043 0.77968
 N3187 N 0.16779 0.73965 0.77306
 C3188 C 0.18156 0.74642 0.78199
 N3189 N 0.17867 0.75396 0.79778
 N3190 N 0.16261 0.75473 0.80439
 N3191 N 0.60076 0.25346 0.33378
 C3192 C 0.60127 0.24940 0.31658
 N3193 N 0.58606 0.24726 0.30774
 N3194 N 0.57080 0.24905 0.31594
 C3195 C 0.57023 0.25308 0.33323
 N3196 N 0.58554 0.25525 0.34195
 C3197 C 0.61779 0.24747 0.30798
 C3198 C 0.63201 0.24615 0.30137
 C3199 C 0.64926 0.24507 0.29416
 N3200 N 0.65202 0.23796 0.27817
 N3201 N 0.66805 0.23751 0.27140
 C3202 C 0.68184 0.24414 0.28042
 N3203 N 0.67901 0.25115 0.29645
 N3204 N 0.66301 0.25159 0.30321
 N3205 N 0.58508 0.75548 0.19202
 C3206 C 0.60013 0.75329 0.18295
 N3207 N 0.59931 0.74905 0.16580
 N3208 N 0.58394 0.74713 0.15791
 C3209 C 0.56878 0.74933 0.16686
 N3210 N 0.56967 0.75355 0.18410
 C3211 C 0.61681 0.75521 0.19129
 C3212 C 0.63113 0.75648 0.19773
 C3213 C 0.64845 0.75749 0.20483
 N3214 N 0.66215 0.75117 0.19559
 N3215 N 0.67819 0.75145 0.20231
 C3216 C 0.68111 0.75811 0.21849
 N3217 N 0.66736 0.76454 0.22769
 N3218 N 0.65130 0.76424 0.22096
 N3219 N 0.08391 0.25364 0.69189
 C3220 C 0.09907 0.25179 0.68294
 N3221 N 0.09846 0.24857 0.66557
 N3222 N 0.08319 0.24729 0.65736
 C3223 C 0.06789 0.24915 0.66618
 N3224 N 0.06860 0.25235 0.68366
 C3225 C 0.11565 0.25312 0.69157
 C3226 C 0.12993 0.25400 0.69815
 C3227 C 0.14726 0.25469 0.70528
 N3228 N 0.16090 0.24847 0.69589
 N3229 N 0.17700 0.24882 0.70246
 C3230 C 0.18003 0.25543 0.71864
 N3231 N 0.16633 0.26171 0.72800
 N3232 N 0.15021 0.26136 0.72143
 N3233 N 0.90976 0.25925 0.68344
 C3234 C 0.89891 0.24537 0.68149
 N3235 N 0.90411 0.23168 0.67160
 N3236 N 0.91966 0.23185 0.66385
 C3237 C 0.93061 0.24571 0.66567
 N3238 N 0.92534 0.25941 0.67567
 C3239 C 0.88191 0.24529 0.68940
 C3240 C 0.86750 0.24504 0.69574
 C3241 C 0.85024 0.24472 0.70302
 N3242 N 0.84733 0.23769 0.71901
 N3243 N 0.83132 0.23760 0.72581
 C3244 C 0.81766 0.24449 0.71683
 N3245 N 0.82061 0.25145 0.70079
 N3246 N 0.83662 0.25154 0.69399
 N3247 N 0.40407 0.73101 0.17358
 C3248 C 0.39882 0.74497 0.18309
 N3249 N 0.40964 0.75892 0.18465
 N3250 N 0.42522 0.75891 0.17687
 C3251 C 0.43053 0.74496 0.16726
 N3252 N 0.41962 0.73101 0.16582
 C3253 C 0.38181 0.74505 0.19097
 C3254 C 0.36739 0.74493 0.19728
 C3255 C 0.35010 0.74473 0.20451
 N3256 N 0.33659 0.75180 0.19552
 N3257 N 0.32054 0.75175 0.20224
 C3258 C 0.31745 0.74457 0.21816
 N3259 N 0.33101 0.73742 0.22710
 N3260 N 0.34706 0.73748 0.22038
 N3261 N 0.40631 0.26861 0.32762
 C3262 C 0.40162 0.25521 0.31707
 N3263 N 0.41277 0.24162 0.31492
 N3264 N 0.42815 0.24146 0.32311
 C3265 C 0.43290 0.25486 0.33376
 N3266 N 0.42165 0.26844 0.33579
 C3267 C 0.38481 0.25524 0.30875
 C3268 C 0.37053 0.25539 0.30213
 C3269 C 0.35335 0.25553 0.29461
 N3270 N 0.33970 0.24864 0.30351
 N3271 N 0.32376 0.24859 0.29655
 C3272 C 0.32090 0.25548 0.28045
 N3273 N 0.33460 0.26244 0.27159
 N3274 N 0.35056 0.26249 0.27857
 N3275 N 0.91254 0.74251 0.81587
 C3276 C 0.90132 0.75601 0.81819
 N3277 N 0.90590 0.76926 0.82897
 N3278 N 0.92122 0.76904 0.83720
 C3279 C 0.93253 0.75554 0.83499
 N3280 N 0.92789 0.74229 0.82411
 C3281 C 0.88454 0.75609 0.80982
 C3282 C 0.87026 0.75627 0.80317
 C3283 C 0.85309 0.75644 0.79565
 N3284 N 0.83943 0.74959 0.80456
 N3285 N 0.82349 0.74956 0.79759
 C3286 C 0.82065 0.75643 0.78148
 N3287 N 0.83436 0.76336 0.77261
 N3288 N 0.85031 0.76338 0.77959
   
