data_POSCAR
  _audit_creation_date              2014-09-24
  _audit_creation_method            'ToBaCCo'
  _symmetry_space_group_name_H-M    'P1'
  _symmetry_Int_Tables_number       1
  _symmetry_cell_setting            triclinic
  loop_
  _symmetry_equiv_pos_as_xyz
 x,y,z
_cell_length_a 37.0908
_cell_length_b 36.7841
_cell_length_c 36.8450
_cell_angle_alpha 90.303600
_cell_angle_beta 89.754000
_cell_angle_gamma 90.552500
loop_
  _atom_site_label
  _atom_site_type_symbol
  _atom_site_fract_x
  _atom_site_fract_y
  _atom_site_fract_z
C1 C 0.12628 -0.00088 0.25513
 C2 C 0.36916 0.00175 0.74923
 C3 C 0.87686 0.50196 0.25160
 C4 C 0.63521 0.49648 0.74813
 C5 C 0.25395 0.12613 0.99831
 C6 C 0.75464 0.37255 0.99474
 C7 C 0.24237 0.87012 0.49265
 C8 C 0.75547 0.62651 0.50068
 C9 C -0.01203 0.25175 0.13992
 C10 C -0.00284 0.75356 0.37388
 C11 C 0.50948 0.24114 0.86544
 C12 C 0.51141 0.76100 0.63242
 C13 C 0.88434 0.99972 0.75580
 C14 C 0.37796 0.49978 0.25067
 C15 C 0.62183 0.99840 0.24284
 C16 C 0.12191 0.50094 0.74991
 C17 C 0.75792 0.88224 0.00336
 C18 C 0.25185 0.38400 0.49315
 C19 C 0.25143 0.61765 -0.00769
 C20 C 0.74323 0.11809 0.49680
 C21 C 1.00886 0.75622 0.88376
 C22 C 0.49259 0.25832 0.38528
 C23 C 1.00915 0.25596 0.62022
 C24 C 0.49674 0.74339 0.12752
 O25 O -0.09469 0.98568 0.98478
 O26 O -0.09740 1.04705 1.00546
 O27 O -0.01076 0.99354 0.90243
 O28 O 0.04707 1.00533 0.89950
 O29 O -0.01276 0.90534 0.98314
 O30 O 0.00564 0.90260 1.04459
 O31 O 0.08405 1.08126 1.00535
 O32 O 0.05651 1.08943 0.94816
 O33 O -0.00076 1.08390 1.08134
 O34 O -0.05651 1.05093 1.08977
 O35 O 0.07747 1.00176 1.08476
 O36 O 0.08671 0.94455 1.05088
 O37 O 0.10781 1.02997 1.02927
 O38 O 0.10997 0.96695 1.00721
 O39 O 0.02728 1.02702 1.10943
 O40 O -0.03707 1.00460 1.10959
 O41 O 0.02546 1.11039 1.03211
 O42 O 0.00800 1.11437 0.96966
 O43 O -0.07113 0.93517 1.01062
 O44 O -0.04042 0.92667 1.06729
 O45 O 0.01306 0.93080 0.93314
 O46 O 0.07234 0.96364 0.93014
 O47 O -0.06191 1.01722 0.92681
 O48 O -0.07223 1.07143 0.96156
 Zr49 Zr -0.05104 1.02278 0.98265
 O50 O -0.02078 1.05670 1.01738
 Zr51 Zr 0.02263 0.98571 0.94762
 O52 O 0.05611 1.01893 0.98019
 Zr53 Zr -0.01692 0.94878 1.01980
 O54 O 0.01544 0.97939 1.05559
 Zr55 Zr 0.03000 1.06751 0.99415
 O56 O -0.00175 1.03654 0.95734
 Zr57 Zr -0.00919 1.02953 1.06589
 O58 O -0.04370 0.99721 1.03308
 Zr59 Zr 0.06445 0.99292 1.03007
 O60 O 0.03395 0.95798 0.99596
 O61 O -0.02736 0.97336 0.97019
 O62 O 0.04104 1.04264 1.04354
 C63 C -0.09729 0.95308 0.99710
 C64 C -0.04272 1.00639 0.89978
 C65 C -0.00022 0.90361 0.95068
 C66 C 0.11030 1.06297 1.01841
 C67 C 0.01224 1.11147 1.06443
 C68 C 0.05966 1.01514 1.11147
 H69 H -0.03456 1.07913 1.02192
 H70 H 0.01911 0.96540 1.07806
 H71 H -0.04257 0.95847 0.95370
 H72 H 0.07895 1.02393 0.96712
 H73 H 0.04359 1.07996 0.92657
 H74 H 0.06264 1.02617 0.90645
 H75 H -0.02301 0.98333 1.11741
 H76 H -0.05803 0.94469 1.07630
 H77 H -0.01609 1.11858 0.98038
 H78 H -0.05362 1.08158 0.94505
 H79 H 0.07086 0.93587 1.07074
 H80 H 0.03042 0.90034 1.03479
 H81 H -0.10066 1.03630 1.02984
 H82 H -0.06655 1.06877 1.07267
 H83 H 0.07751 0.94275 0.94608
 H84 H 0.11672 0.98009 0.98480
 O85 O 0.58232 0.58061 0.49195
 O86 O 0.54961 0.58938 0.43711
 O87 O 0.49863 0.59035 0.57252
 O88 O 0.44678 0.56353 0.58573
 O89 O 0.57502 0.50324 0.57807
 O90 O 0.58117 0.44689 0.54711
 O91 O 0.39958 0.49025 0.48212
 O92 O 0.39869 0.55091 0.50316
 O93 O 0.47938 0.48877 0.39946
 O94 O 0.54161 0.50443 0.39552
 O95 O 0.47707 0.40860 0.48242
 O96 O 0.49745 0.40691 0.54500
 O97 O 0.42262 0.44021 0.50916
 O98 O 0.45577 0.43322 0.56760
 O99 O 0.50187 0.43114 0.43062
 O100 O 0.56306 0.46220 0.42163
 O101 O 0.42980 0.51535 0.42399
 O102 O 0.42355 0.57422 0.45456
 O103 O 0.60586 0.52888 0.51531
 O104 O 0.60411 0.46601 0.50001
 O105 O 0.52615 0.53033 0.60354
 O106 O 0.46270 0.51027 0.60464
 O107 O 0.52479 0.61339 0.52156
 O108 O 0.50443 0.61421 0.45985
 Zr109 Zr 0.52704 0.56861 0.48563
 O110 O 0.49316 0.53710 0.45186
 Zr111 Zr 0.48945 0.53527 0.56026
 O112 O 0.45298 0.50321 0.52970
 Zr113 Zr 0.56065 0.49466 0.52352
 O114 O 0.52747 0.46000 0.49229
 Zr115 Zr 0.44401 0.52636 0.47851
 O116 O 0.47653 0.56131 0.51113
 Zr117 Zr 0.51545 0.48550 0.44305
 O118 O 0.55176 0.51880 0.47275
 Zr119 Zr 0.47720 0.45309 0.51809
 O120 O 0.51227 0.48382 0.55171
 O121 O 0.53898 0.54530 0.53536
 O122 O 0.46557 0.47538 0.46754
 C123 C 0.60890 0.56122 0.50249
 C124 C 0.51244 0.61660 0.55406
 C125 C 0.55776 0.51648 0.60538
 C126 C 0.39661 0.45789 0.49499
 C127 C 0.44725 0.50118 0.39724
 C128 C 0.48758 0.40541 0.44938
 H129 H 0.48975 0.55011 0.42876
 H130 H 0.53981 0.43659 0.48846
 H131 H 0.55533 0.56070 0.55022
 H132 H 0.43009 0.50033 0.54326
 H133 H 0.40798 0.57122 0.51830
 H134 H 0.42414 0.55520 0.57415
 H135 H 0.56738 0.43913 0.43451
 H136 H 0.60651 0.47476 0.47475
 H137 H 0.44004 0.58164 0.43474
 H138 H 0.48032 0.61773 0.47088
 H139 H 0.52051 0.40033 0.53322
 H140 H 0.56236 0.43780 0.56401
 H141 H 0.56564 0.57029 0.42734
 H142 H 0.53346 0.52957 0.39129
 H143 H 0.47542 0.48731 0.60965
 H144 H 0.43480 0.44832 0.57426
 O145 O 0.51992 -0.00011 0.38601
 O146 O 0.45933 -0.01727 0.38302
 O147 O 0.51094 0.09576 0.45739
 O148 O 0.50034 0.10881 0.51395
 O149 O 0.59720 0.01430 0.47302
 O150 O 0.59615 -0.04436 0.49982
 O151 O 0.41498 0.01257 0.55920
 O152 O 0.41319 0.06540 0.52388
 O153 O 0.41432 -0.07518 0.49034
 O154 O 0.45114 -0.09242 0.43466
 O155 O 0.49397 -0.07084 0.57143
 O156 O 0.54638 -0.03733 0.58273
 O157 O 0.46181 -0.01056 0.59100
 O158 O 0.52760 0.01282 0.59337
 O159 O 0.47141 -0.10222 0.52319
 O160 O 0.49076 -0.11399 0.46312
 O161 O 0.38954 -0.02097 0.50588
 O162 O 0.39086 0.03768 0.47566
 O163 O 0.56903 -0.02063 0.41615
 O164 O 0.57333 -0.07300 0.45622
 O165 O 0.57226 0.06800 0.49000
 O166 O 0.53607 0.08026 0.54653
 O167 O 0.49209 0.06402 0.40766
 O168 O 0.43629 0.03084 0.40041
 Zr169 Zr 0.48249 0.01129 0.42720
 O170 O 0.44554 -0.01703 0.46014
 Zr171 Zr 0.51697 0.05633 0.49776
 O172 O 0.48040 0.03086 0.53366
 Zr173 Zr 0.55261 -0.02166 0.47116
 O174 O 0.51854 -0.05066 0.50693
 Zr175 Zr 0.43362 0.01491 0.50586
 O176 O 0.46783 0.04491 0.47117
 Zr177 Zr 0.46961 -0.06379 0.48112
 O178 O 0.50531 -0.03801 0.44395
 Zr179 Zr 0.50296 -0.01806 0.55144
 O180 O 0.54136 0.00936 0.51808
 O181 O 0.53082 0.02627 0.45191
 O182 O 0.45472 -0.03323 0.52648
 C183 C 0.55215 -0.01240 0.38693
 C184 C 0.50111 0.09357 0.42405
 C185 C 0.59939 0.04822 0.48135
 C186 C 0.42950 0.00181 0.58862
 C187 C 0.38735 -0.05507 0.49913
 C188 C 0.48258 -0.10015 0.55612
 H189 H 0.42384 -0.02307 0.44580
 H190 H 0.53157 -0.07257 0.51476
 H191 H 0.54709 0.03978 0.43527
 H192 H 0.47458 0.04750 0.55397
 H193 H 0.42398 0.08432 0.50808
 H194 H 0.47703 0.10577 0.52674
 H195 H 0.51540 -0.11586 0.47305
 H196 H 0.55679 -0.08329 0.43772
 H197 H 0.38547 0.02145 0.45486
 H198 H 0.42702 0.05125 0.41525
 H199 H 0.56035 -0.05391 0.56696
 H200 H 0.59811 -0.03064 0.52293
 H201 H 0.46660 -0.04294 0.38560
 H202 H 0.42953 -0.07995 0.42547
 H203 H 0.55634 0.06526 0.55504
 H204 H 0.51142 0.03315 0.59968
 O205 O -0.07723 0.42352 1.00082
 O206 O -0.04599 0.40964 0.94466
 O207 O 0.00988 0.42214 1.07706
 O208 O 0.06256 0.45208 1.08455
 O209 O -0.06738 0.50981 1.07909
 O210 O -0.07547 0.56268 1.04186
 O211 O 0.10376 0.51425 0.97442
 O212 O 0.10565 0.45650 1.00248
 O213 O 0.02099 0.50280 0.89519
 O214 O -0.04424 0.48464 0.89882
 O215 O 0.02174 0.59462 0.96766
 O216 O 0.00451 0.60183 1.03277
 O217 O 0.08007 0.56709 0.99556
 O218 O 0.05028 0.58246 1.05235
 O219 O -0.00297 0.56424 0.91982
 O220 O -0.06005 0.53393 0.91422
 O221 O 0.07265 0.48269 0.92099
 O222 O 0.08109 0.42801 0.95606
 O223 O -0.10044 0.47630 1.02283
 O224 O -0.10146 0.53605 0.99918
 O225 O -0.01764 0.48464 1.10425
 O226 O 0.04397 0.50626 1.10150
 O227 O -0.01886 0.39463 1.02972
 O228 O -0.00099 0.38664 0.96887
 Zr229 Zr -0.02250 0.43520 0.99049
 O230 O 0.01018 0.46258 0.95263
 Zr231 Zr 0.01749 0.47653 1.05988
 O232 O 0.05166 0.50651 1.02475
 Zr233 Zr -0.05581 0.51215 1.02312
 O234 O -0.02500 0.54304 0.98613
 Zr235 Zr 0.05975 0.47750 0.97627
 O236 O 0.02881 0.44558 1.01296
 Zr237 Zr -0.01397 0.51198 0.93939
 O238 O -0.04887 0.48275 0.97441
 Zr239 Zr 0.02598 0.55449 1.00831
 O240 O -0.00636 0.52670 1.04715
 O241 O -0.03270 0.46338 1.03843
 O242 O 0.03653 0.52629 0.96024
 C243 C -0.10344 0.44295 1.01262
 C244 C -0.00485 0.39431 1.06141
 C245 C -0.04920 0.49868 1.10643
 C246 C 0.10631 0.54808 0.98316
 C247 C 0.05369 0.49175 0.89350
 C248 C 0.00986 0.59299 0.93492
 H249 H 0.01320 0.44679 0.93108
 H250 H -0.03822 0.56546 0.98036
 H251 H -0.04803 0.44940 1.05555
 H252 H 0.07486 0.51163 1.03694
 H253 H 0.09695 0.43706 1.01893
 H254 H 0.08450 0.46239 1.07305
 H255 H -0.06958 0.55320 0.93033
 H256 H -0.10442 0.52433 0.97511
 H257 H 0.06376 0.41746 0.93854
 H258 H 0.02413 0.38527 0.97768
 H259 H -0.01798 0.60786 1.01987
 H260 H -0.05680 0.57303 1.05814
 H261 H -0.06442 0.42643 0.93530
 H262 H -0.03146 0.46198 0.89248
 H263 H 0.03239 0.53037 1.10285
 H264 H 0.06855 0.56626 1.06291
 O265 O 0.02618 0.40242 0.51867
 O266 O 0.00572 0.39969 0.45781
 O267 O 0.10657 0.48577 0.51686
 O268 O 0.11073 0.54371 0.50146
 O269 O 0.02373 0.48788 0.60131
 O270 O -0.03724 0.50127 0.60314
 O271 O 0.00852 0.58223 0.42574
 O272 O 0.06455 0.55442 0.41846
 O273 O -0.06893 0.49967 0.42170
 O274 O -0.07981 0.44456 0.44928
 O275 O -0.07338 0.57666 0.50389
 O276 O -0.04150 0.58650 0.56134
 O277 O -0.01504 0.60704 0.47718
 O278 O 0.00308 0.60866 0.54146
 O279 O -0.09872 0.52430 0.48255
 O280 O -0.09589 0.45731 0.50011
 O281 O -0.01889 0.52546 0.39647
 O282 O 0.04316 0.50467 0.39319
 O283 O -0.00020 0.42585 0.56941
 O284 O -0.05834 0.45609 0.57704
 O285 O 0.07449 0.51314 0.57698
 O286 O 0.08033 0.57084 0.54402
 O287 O 0.08301 0.43525 0.48964
 O288 O 0.04972 0.42642 0.43365
 Zr289 Zr 0.02796 0.44660 0.48283
 O290 O -0.00588 0.47709 0.44918
 Zr291 Zr 0.06222 0.52073 0.52172
 O292 O 0.03097 0.55452 0.48856
 Zr293 Zr -0.01060 0.48061 0.55671
 O294 O -0.04506 0.51375 0.52636
 Zr295 Zr 0.01812 0.52805 0.43954
 O296 O 0.05389 0.49616 0.47046
 Zr297 Zr -0.05457 0.48906 0.47580
 O298 O -0.02281 0.45382 0.50762
 Zr299 Zr -0.01924 0.56328 0.51366
 O300 O 0.01338 0.53211 0.54856
 O301 O 0.03918 0.47041 0.53292
 O302 O -0.03164 0.53963 0.46363
 C303 C 0.01394 0.39964 0.55119
 C304 C 0.10934 0.45368 0.50321
 C305 C 0.05565 0.50138 0.60389
 C306 C -0.00339 0.60911 0.44435
 C307 C -0.05145 0.51337 0.39478
 C308 C -0.10057 0.55745 0.49357
 H309 H -0.01035 0.46341 0.42646
 H310 H -0.06750 0.51727 0.54043
 H311 H 0.05504 0.45559 0.54839
 H312 H 0.04444 0.57741 0.48417
 H313 H 0.08567 0.54109 0.42766
 H314 H 0.10418 0.56077 0.48198
 H315 H -0.10475 0.47083 0.52160
 H316 H -0.06489 0.43620 0.56004
 H317 H 0.03039 0.48176 0.38704
 H318 H 0.06735 0.44484 0.42501
 H319 H -0.06135 0.57042 0.56970
 H320 H -0.03089 0.52744 0.60451
 H321 H -0.01845 0.39591 0.46876
 H322 H -0.06048 0.42990 0.43813
 H323 H 0.06335 0.57732 0.56377
 H324 H 0.02566 0.61572 0.52884
 O325 O 0.59671 0.96244 0.00837
 O326 O 0.60187 1.02535 -0.01028
 O327 O 0.51759 0.97530 0.09649
 O328 O 0.46012 0.98535 0.10289
 O329 O 0.50926 0.88662 0.01217
 O330 O 0.48677 0.88794 -0.04906
 O331 O 0.42276 1.06661 0.00264
 O332 O 0.45464 1.07053 0.05991
 O333 O 0.50514 1.07012 -0.07624
 O334 O 0.55932 1.03281 -0.08845
 O335 O 0.42127 0.99247 -0.08035
 O336 O 0.41162 0.93188 -0.04928
 O337 O 0.39514 1.01686 -0.02191
 O338 O 0.38987 0.95435 -0.00447
 O339 O 0.47167 1.01710 -0.10598
 O340 O 0.53267 0.99191 -0.11269
 O341 O 0.48064 1.09491 -0.02530
 O342 O 0.50176 1.09684 0.03499
 O343 O 0.56778 0.91408 -0.01755
 O344 O 0.53457 0.90911 -0.07215
 O345 O 0.48976 0.91221 0.06495
 O346 O 0.43217 0.94632 0.07229
 O347 O 0.56982 0.99423 0.06975
 O348 O 0.58267 1.04790 0.03735
 Zr349 Zr 0.55599 1.00198 0.01504
 O350 O 0.52584 1.03901 -0.01557
 Zr351 Zr 0.48187 0.96750 0.05281
 O352 O 0.44853 1.00277 0.02350
 Zr353 Zr 0.51460 0.93113 -0.02300
 O354 O 0.48319 0.96492 -0.05586
 Zr355 Zr 0.47673 1.05076 0.01068
 O356 O 0.50904 1.01730 0.04370
 Zr357 Zr 0.51041 1.01449 -0.06469
 O358 O 0.54400 0.97865 -0.03579
 Zr359 Zr 0.43644 0.97910 -0.02718
 O360 O 0.46598 0.94186 0.00417
 O361 O 0.52963 0.95346 0.02693
 O362 O 0.46213 1.02836 -0.03917
 C363 C 0.59598 0.93003 -0.00514
 C364 C 0.55074 0.98579 0.09769
 C365 C 0.49963 0.88478 0.04559
 C366 C 0.39498 1.04955 -0.00999
 C367 C 0.49307 1.09719 -0.05778
 C368 C 0.43839 1.00724 -0.10688
 H369 H 0.54065 1.06111 -0.01960
 H370 H 0.47750 0.95230 -0.07889
 H371 H 0.54482 0.93754 0.04199
 H372 H 0.42664 1.00796 0.03796
 H373 H 0.46979 1.06104 0.07974
 H374 H 0.44658 1.00780 0.09798
 H375 H 0.51828 0.97008 -0.11921
 H376 H 0.55105 0.92768 -0.08255
 H377 H 0.52650 1.09893 0.02512
 H378 H 0.56516 1.05968 0.05388
 H379 H 0.42374 0.92606 -0.07253
 H380 H 0.46304 0.88566 -0.03686
 H381 H 0.60386 1.01392 -0.03458
 H382 H 0.56927 1.05238 -0.07281
 H383 H 0.42516 0.92600 0.05597
 H384 H 0.38679 0.96430 0.02033
 O385 O 0.49580 0.41146 -0.07258
 O386 O 0.43964 0.44098 -0.08085
 O387 O 0.57079 0.50070 -0.08341
 O388 O 0.58140 0.55379 -0.05650
 O389 O 0.58254 0.42433 0.00422
 O390 O 0.55161 0.41503 0.06021
 O391 O 0.47757 0.59442 0.01717
 O392 O 0.49834 0.59629 -0.04340
 O393 O 0.39953 0.50989 0.01958
 O394 O 0.39856 0.44689 0.00443
 O395 O 0.48304 0.51538 0.09970
 O396 O 0.54596 0.49938 0.10030
 O397 O 0.50603 0.57266 0.06689
 O398 O 0.56571 0.54252 0.07398
 O399 O 0.43303 0.48672 0.07795
 O400 O 0.42582 0.42623 0.04569
 O401 O 0.42142 0.56056 -0.00815
 O402 O 0.45055 0.56928 -0.06577
 O403 O 0.52391 0.38942 -0.02270
 O404 O 0.50586 0.38906 0.03992
 O405 O 0.60422 0.47466 -0.02439
 O406 O 0.60245 0.53791 -0.00382
 O407 O 0.52161 0.47110 -0.10597
 O408 O 0.45917 0.48799 -0.10579
 Zr409 Zr 0.48678 0.46663 -0.06069
 O410 O 0.45195 0.49858 -0.02881
 Zr411 Zr 0.55919 0.50891 -0.02819
 O412 O 0.52739 0.54343 0.00436
 Zr413 Zr 0.52734 0.43478 0.01249
 O414 O 0.49474 0.46605 0.04747
 Zr415 Zr 0.47604 0.54949 -0.01847
 O416 O 0.50952 0.51891 -0.05380
 Zr417 Zr 0.44475 0.47558 0.02285
 O418 O 0.47599 0.44087 -0.01080
 Zr419 Zr 0.51755 0.51814 0.05447
 O420 O 0.55258 0.48515 0.02326
 O421 O 0.53713 0.45767 -0.03807
 O422 O 0.46651 0.52721 0.03274
 C423 C 0.51013 0.38557 -0.05446
 C424 C 0.55307 0.48565 -0.10948
 C425 C 0.60826 0.44322 -0.01008
 C426 C 0.49073 0.59821 0.04916
 C427 C 0.39567 0.54178 0.00614
 C428 C 0.45129 0.50190 0.10364
 H429 H 0.42876 0.50073 -0.04167
 H430 H 0.49202 0.45316 0.07079
 H431 H 0.55274 0.44239 -0.05365
 H432 H 0.53969 0.56724 0.00714
 H433 H 0.51316 0.58772 -0.06412
 H434 H 0.56956 0.57591 -0.04709
 H435 H 0.44076 0.42094 0.06717
 H436 H 0.48141 0.38478 0.03000
 H437 H 0.43295 0.55075 -0.07416
 H438 H 0.46935 0.51259 -0.11006
 H439 H 0.53619 0.47508 0.10653
 H440 H 0.56765 0.43471 0.06927
 H441 H 0.43101 0.42430 -0.06162
 H442 H 0.39401 0.45461 -0.02079
 H443 H 0.60797 0.52554 0.01927
 H444 H 0.57124 0.56391 0.05871
 O445 O -0.02248 0.02476 0.60411
 O446 O 0.03825 0.00687 0.60494
 O447 O -0.02333 0.10547 0.51976
 O448 O -0.01414 0.10961 0.46177
 O449 O -0.10626 0.01854 0.52306
 O450 O -0.10651 -0.04264 0.50711
 O451 O 0.06739 0.00855 0.42217
 O452 O 0.07267 0.06615 0.44927
 O453 O 0.07490 -0.06760 0.50293
 O454 O 0.04866 -0.07970 0.55888
 O455 O -0.00888 -0.07569 0.42851
 O456 O -0.06556 -0.04613 0.41966
 O457 O 0.01739 -0.01869 0.39857
 O458 O -0.04789 0.00113 0.39892
 O459 O 0.01556 -0.09994 0.47931
 O460 O -0.00106 -0.09841 0.54664
 O461 O 0.09811 -0.01629 0.47749
 O462 O 0.09883 0.04693 0.49902
 O463 O -0.07188 -0.00519 0.58246
 O464 O -0.07854 -0.06368 0.55065
 O465 O -0.08454 0.06954 0.49574
 O466 O -0.05253 0.07569 0.43614
 O467 O 0.00453 0.08316 0.56966
 O468 O 0.06055 0.05114 0.57806
 Zr469 Zr 0.01199 0.02761 0.55875
 O470 O 0.04604 -0.00534 0.52714
 Zr471 Zr -0.02936 0.05977 0.48598
 O472 O 0.00448 0.02985 0.45108
 Zr473 Zr -0.06068 -0.01442 0.52691
 O474 O -0.03001 -0.04786 0.49227
 Zr475 Zr 0.05387 0.01902 0.47632
 O476 O 0.02229 0.05381 0.50908
 Zr477 Zr 0.02094 -0.05543 0.51536
 O478 O -0.01096 -0.02458 0.55190
 Zr479 Zr -0.01909 -0.02159 0.44268
 O480 O -0.05459 0.00953 0.47530
 O481 O -0.03861 0.03686 0.53665
 O482 O 0.03130 -0.03199 0.46497
 C483 C -0.05381 0.01015 0.60815
 C484 C -0.00879 0.10926 0.55108
 C485 C -0.11029 0.05015 0.50933
 C486 C 0.04978 -0.00612 0.39601
 C487 C 0.10093 -0.04903 0.48883
 C488 C 0.00338 -0.10235 0.44676
 H489 H 0.06898 -0.00884 0.54015
 H490 H -0.04329 -0.07105 0.48882
 H491 H -0.05389 0.05248 0.55223
 H492 H 0.00825 0.04331 0.42819
 H493 H 0.06282 0.08727 0.46267
 H494 H 0.00781 0.10488 0.44724
 H495 H -0.02217 -0.10830 0.53341
 H496 H -0.06101 -0.06976 0.56982
 H497 H 0.10662 0.03373 0.52090
 H498 H 0.06854 0.06901 0.55963
 H499 H -0.07485 -0.06425 0.43719
 H500 H -0.10912 -0.03546 0.48141
 H501 H 0.02903 -0.01824 0.60830
 H502 H 0.06001 -0.05980 0.57302
 H503 H -0.07282 0.05873 0.43114
 H504 H -0.03368 0.02194 0.38946
 O505 O 0.72048 0.15039 0.26564
 O506 O 0.78155 0.15237 0.24750
 O507 O 0.71888 0.22582 0.35578
 O508 O 0.73420 0.28300 0.36562
 O509 O 0.63636 0.23132 0.27402
 O510 O 0.63425 0.25329 0.21435
 O511 O 0.80932 0.33435 0.26444
 O512 O 0.81567 0.30277 0.32028
 O513 O 0.81544 0.25844 0.18220
 O514 O 0.78498 0.20236 0.16665
 O515 O 0.73107 0.33444 0.18500
 O516 O 0.67393 0.33877 0.21824
 O517 O 0.75820 0.35956 0.24249
 O518 O 0.69440 0.35743 0.26516
 O519 O 0.75788 0.28747 0.15539
 O520 O 0.73853 0.22191 0.14820
 O521 O 0.83950 0.28001 0.23483
 O522 O 0.84260 0.25579 0.29499
 O523 O 0.66984 0.17420 0.24098
 O524 O 0.66073 0.21140 0.18782
 O525 O 0.66020 0.25479 0.32594
 O526 O 0.69185 0.31233 0.33752
 O527 O 0.74603 0.17815 0.32756
 O528 O 0.80306 0.17485 0.29479
 Zr529 Zr 0.75453 0.19559 0.27368
 O530 O 0.78765 0.23048 0.24281
 Zr531 Zr 0.71475 0.26481 0.31471
 O532 O 0.74716 0.30290 0.28687
 Zr533 Zr 0.68065 0.23070 0.23812
 O534 O 0.71058 0.26824 0.20685
 Zr535 Zr 0.79617 0.27921 0.27159
 O536 O 0.76600 0.24272 0.30431
 Zr537 Zr 0.76136 0.24633 0.19504
 O538 O 0.73009 0.20713 0.22349
 Zr539 Zr 0.72202 0.31532 0.23760
 O540 O 0.68781 0.27982 0.26711
 O541 O 0.70431 0.21647 0.28694
 O542 O 0.77219 0.29456 0.22301
 C543 C 0.68885 0.14729 0.25198
 C544 C 0.73209 0.19368 0.35558
 C545 C 0.63371 0.24270 0.30690
 C546 C 0.79117 0.36149 0.25284
 C547 C 0.84184 0.27055 0.20132
 C548 C 0.74512 0.31986 0.15674
 H549 H 0.81045 0.21784 0.23740
 H550 H 0.69699 0.27386 0.18460
 H551 H 0.68909 0.19925 0.30096
 H552 H 0.75128 0.32470 0.30216
 H553 H 0.80727 0.28695 0.34033
 H554 H 0.75278 0.30185 0.36085
 H555 H 0.71698 0.23598 0.14150
 H556 H 0.67938 0.19517 0.17759
 H557 H 0.84754 0.23269 0.28215
 H558 H 0.81052 0.19142 0.31472
 H559 H 0.66580 0.32434 0.19703
 H560 H 0.63177 0.27796 0.22488
 H561 H 0.77258 0.15166 0.22224
 H562 H 0.80278 0.19117 0.18296
 H563 H 0.67249 0.32015 0.32097
 H564 H 0.70867 0.36438 0.28678
 O565 O 0.76983 0.67714 0.67396
 O566 O 0.82449 0.66908 0.70688
 O567 O 0.69015 0.66721 0.75863
 O568 O 0.67779 0.69402 0.81126
 O569 O 0.68339 0.75524 0.68184
 O570 O 0.71523 0.81049 0.67376
 O571 O 0.77988 0.76834 0.85726
 O572 O 0.75876 0.70725 0.85817
 O573 O 0.86148 0.77070 0.77693
 O574 O 0.86568 0.75387 0.71439
 O575 O 0.77920 0.85015 0.77741
 O576 O 0.71660 0.85068 0.75800
 O577 O 0.75295 0.81806 0.83364
 O578 O 0.69523 0.82524 0.80070
 O579 O 0.83007 0.82779 0.75140
 O580 O 0.83974 0.79513 0.69175
 O581 O 0.83776 0.74275 0.82656
 O582 O 0.80805 0.68521 0.83434
 O583 O 0.74330 0.72733 0.65062
 O584 O 0.76204 0.79006 0.65090
 O585 O 0.65895 0.72731 0.73118
 O586 O 0.65796 0.74676 0.79461
 O587 O 0.74071 0.64426 0.73231
 O588 O 0.80200 0.64397 0.75247
 Zr589 Zr 0.77618 0.68935 0.72953
 O590 O 0.80972 0.72131 0.76320
 Zr591 Zr 0.70224 0.72241 0.76770
 O592 O 0.73265 0.75507 0.80373
 Zr593 Zr 0.73796 0.76279 0.69533
 O594 O 0.76922 0.79784 0.72805
 Zr595 Zr 0.78351 0.73220 0.81273
 O596 O 0.75119 0.69674 0.78050
 Zr597 Zr 0.81829 0.77280 0.74019
 O598 O 0.78859 0.73910 0.70409
 Zr599 Zr 0.74404 0.80513 0.77877
 O600 O 0.71043 0.77382 0.74417
 O601 O 0.72655 0.71225 0.71779
 O602 O 0.79438 0.78323 0.79053
 C603 C 0.75694 0.69545 0.64747
 C604 C 0.70848 0.64100 0.74497
 C605 C 0.65659 0.74174 0.69961
 C606 C 0.76679 0.80047 0.86011
 C607 C 0.86408 0.75755 0.80899
 C608 C 0.81152 0.85368 0.76547
 H609 H 0.83270 0.70847 0.76671
 H610 H 0.77276 0.82110 0.71517
 H611 H 0.71145 0.69677 0.70174
 H612 H 0.71925 0.75800 0.82679
 H613 H 0.74457 0.68628 0.84885
 H614 H 0.68892 0.70319 0.83391
 H615 H 0.82540 0.81675 0.68556
 H616 H 0.78630 0.77953 0.64757
 H617 H 0.82577 0.67617 0.81642
 H618 H 0.79091 0.64018 0.77666
 H619 H 0.72833 0.85751 0.73482
 H620 H 0.69889 0.82024 0.69268
 H621 H 0.83405 0.68826 0.69062
 H622 H 0.87012 0.72898 0.72324
 H623 H 0.65341 0.77015 0.78235
 H624 H 0.68827 0.80972 0.82148
 O625 O 0.32096 0.17767 0.74552
 O626 O 0.33530 0.21445 0.69364
 O627 O 0.32000 0.25846 0.83148
 O628 O 0.29237 0.31049 0.84262
 O629 O 0.23464 0.17987 0.82450
 O630 O 0.18262 0.17353 0.78521
 O631 O 0.23125 0.36032 0.73826
 O632 O 0.28992 0.35966 0.76737
 O633 O 0.23970 0.28818 0.65067
 O634 O 0.25908 0.22384 0.64479
 O635 O 0.15137 0.27999 0.72345
 O636 O 0.14279 0.25518 0.78377
 O637 O 0.17867 0.33389 0.75670
 O638 O 0.16493 0.29659 0.81175
 O639 O 0.17961 0.25780 0.67328
 O640 O 0.21287 0.20122 0.66128
 O641 O 0.26311 0.33590 0.68251
 O642 O 0.31552 0.34246 0.71595
 O643 O 0.26860 0.15190 0.76554
 O644 O 0.20991 0.15196 0.74041
 O645 O 0.25896 0.22881 0.85368
 O646 O 0.23801 0.29027 0.85712
 O647 O 0.34933 0.23545 0.78219
 O648 O 0.35776 0.25806 0.72172
 Zr649 Zr 0.30959 0.23375 0.74118
 O650 O 0.28222 0.26982 0.70671
 Zr651 Zr 0.26756 0.26737 0.81342
 O652 O 0.23836 0.30451 0.78247
 Zr653 Zr 0.23289 0.19610 0.76942
 O654 O 0.20228 0.23029 0.73584
 Zr655 Zr 0.26777 0.31702 0.73549
 O656 O 0.29927 0.28308 0.76859
 Zr657 Zr 0.23273 0.24691 0.69038
 O658 O 0.26201 0.20884 0.72175
 Zr659 Zr 0.19107 0.27892 0.76368
 O660 O 0.21821 0.24304 0.79858
 O661 O 0.28103 0.21890 0.78744
 O662 O 0.21910 0.29491 0.71711
 C663 C 0.30168 0.15000 0.75508
 C664 C 0.34817 0.24633 0.81547
 C665 C 0.24522 0.19678 0.85332
 C666 C 0.19768 0.36144 0.74692
 C667 C 0.25191 0.32105 0.65313
 C668 C 0.15181 0.27039 0.68996
 H669 H 0.29772 0.27554 0.68559
 H670 H 0.17997 0.21729 0.72865
 H671 H 0.29466 0.20218 0.80312
 H672 H 0.23340 0.32650 0.79712
 H673 H 0.31046 0.34943 0.78091
 H674 H 0.28253 0.33355 0.83341
 H675 H 0.19233 0.19097 0.67517
 H676 H 0.22172 0.15176 0.71627
 H677 H 0.32925 0.32414 0.70208
 H678 H 0.36048 0.28153 0.73474
 H679 H 0.13810 0.23266 0.76972
 H680 H 0.17208 0.19054 0.80316
 H681 H 0.31733 0.19908 0.68080
 H682 H 0.28236 0.23677 0.64154
 H683 H 0.21437 0.27758 0.85798
 H684 H 0.17847 0.31781 0.82139
 O685 O 0.17695 0.82631 0.23511
 O686 O 0.16918 0.79478 0.17885
 O687 O 0.16405 0.73697 0.31087
 O688 O 0.19137 0.68573 0.32388
 O689 O 0.24959 0.81679 0.32350
 O690 O 0.30735 0.82435 0.29493
 O691 O 0.26510 0.64329 0.22117
 O692 O 0.20417 0.64181 0.24009
 O693 O 0.26983 0.72656 0.14137
 O694 O 0.25425 0.78954 0.13971
 O695 O 0.34747 0.72363 0.22634
 O696 O 0.34771 0.74098 0.28911
 O697 O 0.31437 0.66674 0.24967
 O698 O 0.32021 0.69882 0.30993
 O699 O 0.32633 0.75010 0.17517
 O700 O 0.29553 0.81080 0.16746
 O701 O 0.24269 0.67554 0.16333
 O702 O 0.18407 0.66693 0.19073
 O703 O 0.22661 0.84936 0.26339
 O704 O 0.28905 0.84957 0.24791
 O705 O 0.22166 0.76618 0.34564
 O706 O 0.24288 0.70297 0.34501
 O707 O 0.14280 0.76641 0.26137
 O708 O 0.14376 0.74836 0.19877
 Zr709 Zr 0.18832 0.77075 0.22698
 O710 O 0.22047 0.73821 0.19283
 Zr711 Zr 0.21928 0.73045 0.30080
 O712 O 0.25206 0.69557 0.26975
 Zr713 Zr 0.26050 0.80424 0.26887
 O714 O 0.29573 0.77274 0.23699
 Zr715 Zr 0.23023 0.68800 0.21774
 O716 O 0.19469 0.71906 0.25043
 Zr717 Zr 0.27190 0.76180 0.18647
 O718 O 0.23816 0.79685 0.21689
 Zr719 Zr 0.30207 0.72132 0.26056
 O720 O 0.27055 0.75470 0.29501
 O721 O 0.20993 0.78104 0.27793
 O722 O 0.28122 0.71083 0.20900
 C723 C 0.19534 0.85271 0.24900
 C724 C 0.13858 0.75161 0.29266
 C725 C 0.23489 0.79841 0.34923
 C726 C 0.29682 0.64044 0.23464
 C727 C 0.25746 0.69408 0.13767
 C728 C 0.35152 0.73573 0.19396
 H729 H 0.20822 0.73530 0.16922
 H730 H 0.31900 0.78579 0.23445
 H731 H 0.19397 0.79652 0.29294
 H732 H 0.25451 0.67215 0.28249
 H733 H 0.18326 0.65077 0.25424
 H734 H 0.19980 0.66358 0.31126
 H735 H 0.31727 0.81597 0.18215
 H736 H 0.28053 0.85291 0.22274
 H737 H 0.17639 0.68486 0.17250
 H738 H 0.13992 0.72356 0.20846
 H739 H 0.35310 0.76578 0.28022
 H740 H 0.31493 0.80536 0.31217
 H741 H 0.18854 0.81134 0.17020
 H742 H 0.22974 0.78046 0.13398
 H743 H 0.26522 0.71642 0.35142
 H744 H 0.30530 0.67700 0.31513
 O745 O 0.32090 0.82871 0.74619
 O746 O 0.33332 0.79722 0.80135
 O747 O 0.32152 0.73925 0.66876
 O748 O 0.29164 0.68797 0.65976
 O749 O 0.23783 0.81971 0.66611
 O750 O 0.18432 0.82919 0.70257
 O751 O 0.22763 0.64762 0.76779
 O752 O 0.28673 0.64529 0.74183
 O753 O 0.23345 0.72830 0.84889
 O754 O 0.25453 0.79207 0.84974
 O755 O 0.14868 0.72928 0.77354
 O756 O 0.14209 0.74770 0.71144
 O757 O 0.17653 0.67206 0.74488
 O758 O 0.16482 0.70497 0.68710
 O759 O 0.17610 0.75562 0.82218
 O760 O 0.21046 0.81430 0.82844
 O761 O 0.25701 0.67758 0.82294
 O762 O 0.31200 0.66856 0.79037
 O763 O 0.26952 0.85267 0.72323
 O764 O 0.21004 0.85465 0.74626
 O765 O 0.26250 0.76885 0.64142
 O766 O 0.23863 0.70690 0.64356
 O767 O 0.34981 0.76716 0.71617
 O768 O 0.35520 0.75066 0.77851
 Zr769 Zr 0.30846 0.77329 0.75545
 O770 O 0.27914 0.74093 0.79268
 Zr771 Zr 0.26790 0.73354 0.68537
 O772 O 0.23720 0.69948 0.71927
 Zr773 Zr 0.23343 0.80824 0.72205
 O774 O 0.20093 0.77746 0.75777
 Zr775 Zr 0.26460 0.69123 0.76821
 O776 O 0.29761 0.72178 0.73241
 Zr777 Zr 0.22965 0.76534 0.80525
 O778 O 0.26090 0.80003 0.77129
 Zr779 Zr 0.18970 0.72648 0.73427
 O780 O 0.21859 0.75902 0.69679
 O781 O 0.28176 0.78399 0.70732
 O782 O 0.21578 0.71498 0.78291
 C783 C 0.30226 0.85543 0.73421
 C784 C 0.34954 0.75255 0.68431
 C785 C 0.24954 0.80087 0.63902
 C786 C 0.19476 0.64540 0.75724
 C787 C 0.24464 0.69531 0.85027
 C788 C 0.14852 0.74169 0.80613
 H789 H 0.29368 0.73736 0.81474
 H790 H 0.17867 0.79106 0.76314
 H791 H 0.29654 0.79908 0.69065
 H792 H 0.23237 0.67628 0.70645
 H793 H 0.30699 0.65417 0.72654
 H794 H 0.28243 0.66595 0.67213
 H795 H 0.18876 0.82153 0.81484
 H796 H 0.22087 0.85708 0.77068
 H797 H 0.32295 0.68660 0.80707
 H798 H 0.35671 0.72545 0.76911
 H799 H 0.13823 0.77208 0.72213
 H800 H 0.17417 0.81063 0.68583
 H801 H 0.31507 0.81317 0.81270
 H802 H 0.27776 0.78000 0.85434
 H803 H 0.21614 0.72068 0.63996
 H804 H 0.17856 0.68335 0.67929
 O805 O 0.25834 0.17784 0.16770
 O806 O 0.31250 0.16789 0.20016
 O807 O 0.17860 0.16944 0.25211
 O808 O 0.16173 0.19855 0.30124
 O809 O 0.17678 0.25760 0.17231
 O810 O 0.20864 0.31274 0.16647
 O811 O 0.26995 0.26710 0.35060
 O812 O 0.24682 0.20808 0.35205
 O813 O 0.35084 0.27026 0.27244
 O814 O 0.35778 0.25446 0.21212
 O815 O 0.27062 0.35032 0.27330
 O816 O 0.21023 0.35414 0.25373
 O817 O 0.24165 0.31688 0.32857
 O818 O 0.18438 0.32568 0.29211
 O819 O 0.32102 0.32763 0.24661
 O820 O 0.33015 0.29359 0.18581
 O821 O 0.32559 0.24188 0.32106
 O822 O 0.29332 0.18231 0.32562
 O823 O 0.23382 0.22887 0.14388
 O824 O 0.25700 0.29150 0.14545
 O825 O 0.14921 0.23065 0.22060
 O826 O 0.14735 0.25115 0.28580
 O827 O 0.22871 0.14547 0.22579
 O828 O 0.29048 0.14462 0.24669
 Zr829 Zr 0.26508 0.18991 0.22308
 O830 O 0.29892 0.22104 0.25711
 Zr831 Zr 0.19083 0.22492 0.25938
 O832 O 0.22152 0.25583 0.29667
 Zr833 Zr 0.23002 0.26460 0.18846
 O834 O 0.26052 0.29897 0.22241
 Zr835 Zr 0.27175 0.23165 0.30600
 O836 O 0.23873 0.19766 0.27325
 Zr837 Zr 0.30874 0.27274 0.23491
 O838 O 0.27962 0.23940 0.19807
 Zr839 Zr 0.23442 0.30605 0.27278
 O840 O 0.20114 0.27623 0.23646
 O841 O 0.21645 0.21423 0.21041
 O842 O 0.28396 0.28280 0.28484
 C843 C 0.24577 0.19631 0.14121
 C844 C 0.19661 0.14274 0.23892
 C845 C 0.14911 0.24451 0.18855
 C846 C 0.25620 0.29871 0.35430
 C847 C 0.35227 0.25711 0.30450
 C848 C 0.30297 0.35360 0.26127
 H849 H 0.32167 0.20785 0.26089
 H850 H 0.26472 0.32233 0.20987
 H851 H 0.20130 0.19881 0.19437
 H852 H 0.20778 0.25851 0.31957
 H853 H 0.23052 0.18865 0.34294
 H854 H 0.17564 0.20232 0.32379
 H855 H 0.31827 0.31702 0.18095
 H856 H 0.27939 0.27786 0.14049
 H857 H 0.31531 0.17663 0.31151
 H858 H 0.27832 0.14031 0.27027
 H859 H 0.21939 0.35842 0.22886
 H860 H 0.19188 0.32262 0.18495
 H861 H 0.32293 0.18691 0.18424
 H862 H 0.35861 0.22789 0.21587
 H863 H 0.14165 0.27300 0.27142
 H864 H 0.17765 0.31154 0.31393
 O865 O 0.81712 0.67260 0.24385
 O866 O 0.82542 0.70379 0.18790
 O867 O 0.82652 0.76180 0.32050
 O868 O 0.79722 0.81145 0.33530
 O869 O 0.73986 0.68016 0.33038
 O870 O 0.68427 0.67150 0.29913
 O871 O 0.72701 0.85402 0.23049
 O872 O 0.78665 0.85641 0.25153
 O873 O 0.72576 0.77252 0.14932
 O874 O 0.74255 0.70941 0.14653
 O875 O 0.64504 0.77192 0.23228
 O876 O 0.64361 0.75486 0.29522
 O877 O 0.67678 0.83014 0.25712
 O878 O 0.66905 0.79789 0.31643
 O879 O 0.66800 0.74536 0.18153
 O880 O 0.70072 0.68722 0.17204
 O881 O 0.75242 0.82306 0.17317
 O882 O 0.80978 0.83154 0.20290
 O883 O 0.76715 0.64848 0.27078
 O884 O 0.70524 0.64728 0.25234
 O885 O 0.76767 0.73035 0.35380
 O886 O 0.74556 0.79331 0.35407
 O887 O 0.84927 0.73291 0.27083
 O888 O 0.84977 0.75058 0.20861
 Zr889 Zr 0.80478 0.72771 0.23588
 O890 O 0.77354 0.76023 0.20164
 Zr891 Zr 0.77112 0.76678 0.30990
 O892 O 0.73891 0.80156 0.27871
 Zr893 Zr 0.73191 0.69285 0.27541
 O894 O 0.69746 0.72433 0.24322
 Zr895 Zr 0.76245 0.80992 0.22752
 O896 O 0.79717 0.77898 0.26038
 Zr897 Zr 0.72265 0.73615 0.19341
 O898 O 0.75569 0.70109 0.22407
 Zr899 Zr 0.68946 0.77549 0.26752
 O900 O 0.72029 0.74210 0.30212
 O901 O 0.78187 0.71660 0.28625
 O902 O 0.71192 0.78678 0.21670
 C903 C 0.79898 0.64583 0.25723
 C904 C 0.85267 0.74803 0.30213
 C905 C 0.75384 0.69829 0.35674
 C906 C 0.69479 0.85658 0.24306
 C907 C 0.73866 0.80495 0.14665
 C908 C 0.64185 0.75883 0.20009
 H909 H 0.78662 0.76360 0.17848
 H910 H 0.67453 0.71084 0.23997
 H911 H 0.79757 0.70139 0.30152
 H912 H 0.73577 0.82486 0.29178
 H913 H 0.80697 0.84772 0.26642
 H914 H 0.78944 0.83364 0.32262
 H915 H 0.68028 0.67978 0.18775
 H916 H 0.71564 0.64386 0.22778
 H917 H 0.81768 0.81458 0.18361
 H918 H 0.85320 0.77537 0.21868
 H919 H 0.63834 0.73036 0.28528
 H920 H 0.67533 0.69025 0.31622
 H921 H 0.80646 0.68702 0.17874
 H922 H 0.76701 0.71915 0.14156
 H923 H 0.72303 0.77965 0.35932
 H924 H 0.68413 0.81928 0.32284
 O925 O 0.77892 0.22498 0.64342
 O926 O 0.76277 0.28656 0.64160
 O927 O 0.86246 0.22994 0.72830
 O928 O 0.86558 0.24284 0.78612
 O929 O 0.78099 0.14325 0.72645
 O930 O 0.71953 0.14126 0.74634
 O931 O 0.76165 0.32029 0.82310
 O932 O 0.82010 0.32618 0.79617
 O933 O 0.68787 0.32386 0.74003
 O934 O 0.67970 0.29010 0.68194
 O935 O 0.68140 0.24106 0.81780
 O936 O 0.71306 0.18402 0.82760
 O937 O 0.73665 0.26928 0.84758
 O938 O 0.75769 0.20542 0.85017
 O939 O 0.65794 0.26667 0.76722
 O940 O 0.65635 0.24622 0.70334
 O941 O 0.73780 0.34924 0.76565
 O942 O 0.79981 0.35198 0.74665
 O943 O 0.75183 0.17490 0.66755
 O944 O 0.69747 0.16449 0.70032
 O945 O 0.83039 0.16845 0.75340
 O946 O 0.83392 0.20126 0.81232
 O947 O 0.83897 0.25315 0.67653
 O948 O 0.80735 0.30893 0.66677
 Zr949 Zr 0.78389 0.26086 0.68796
 O950 O 0.75044 0.29551 0.71842
 Zr951 Zr 0.81734 0.22336 0.76217
 O952 O 0.78591 0.25702 0.79596
 Zr953 Zr 0.74502 0.18714 0.72282
 O954 O 0.71019 0.21860 0.75521
 Zr955 Zr 0.77384 0.30569 0.76931
 O956 O 0.80942 0.27420 0.73728
 Zr957 Zr 0.70145 0.26910 0.73046
 O958 O 0.73312 0.23594 0.69597
 Zr959 Zr 0.73556 0.23172 0.80450
 O960 O 0.76859 0.19622 0.77390
 O961 O 0.79485 0.21114 0.71182
 O962 O 0.72398 0.28161 0.78073
 C963 C 0.76464 0.19314 0.64070
 C964 C 0.86546 0.24198 0.69584
 C965 C 0.81288 0.14134 0.73984
 C966 C 0.74756 0.30245 0.84953
 C967 C 0.70552 0.35099 0.75339
 C968 C 0.65534 0.25469 0.79982
 H969 H 0.74664 0.31808 0.70460
 H970 H 0.68743 0.20495 0.75901
 H971 H 0.81045 0.19589 0.69620
 H972 H 0.79878 0.26191 0.81894
 H973 H 0.84130 0.31717 0.78252
 H974 H 0.85904 0.26310 0.80252
 H975 H 0.64930 0.22367 0.71616
 H976 H 0.68732 0.18327 0.68427
 H977 H 0.78920 0.35649 0.72254
 H978 H 0.82427 0.31827 0.68540
 H979 H 0.69439 0.17463 0.81082
 H980 H 0.72989 0.13860 0.77089
 H981 H 0.73741 0.27823 0.63953
 H982 H 0.69482 0.31107 0.67444
 H983 H 0.81722 0.18090 0.81804
 H984 H 0.77940 0.21926 0.85775
 C985 C 0.10382 0.99982 1.22082
 C986 C 0.08206 1.02741 1.21234
 C987 C 0.06330 1.02906 1.17714
 C988 C 0.07812 1.01589 1.14662
 H989 H 0.07739 1.04898 1.23188
 H990 H 0.03744 1.04245 1.17632
 H991 H 0.10681 0.97751 1.20172
 H992 H 0.10508 1.00483 1.14721
 C993 C 0.61238 0.50106 0.71406
 C994 C 0.62696 0.49755 0.68069
 C995 C 0.60773 0.50086 0.64587
 C996 C 0.57518 0.51569 0.64139
 H997 H 0.65494 0.48983 0.67827
 H998 H 0.62214 0.49064 0.62236
 H999 H 0.58433 0.50837 0.71697
 H1000 H 0.56068 0.52700 0.66427
 C1001 C 0.39740 -0.00252 0.71929
 C1002 C 0.38950 0.00211 0.68425
 C1003 C 0.41619 -0.00265 0.65485
 C1004 C 0.40615 0.00428 0.62086
 H1005 H 0.36250 0.01022 0.67696
 H1006 H 0.44342 -0.01111 0.66082
 H1007 H 0.42430 -0.01134 0.72637
 H1008 H 0.37873 0.01310 0.61609
 C1009 C -0.10376 0.50020 1.21497
 C1010 C -0.06864 0.49316 1.20972
 C1011 C -0.05149 0.49042 1.17326
 C1012 C -0.06657 0.50214 1.14238
 H1013 H -0.05166 0.48753 1.23276
 H1014 H -0.02489 0.47856 1.17225
 H1015 H -0.12117 0.50347 1.19179
 H1016 H -0.09246 0.51533 1.14284
 C1017 C -0.09914 0.50100 0.28519
 C1018 C -0.07451 0.52657 0.29377
 C1019 C -0.05532 0.52688 0.32898
 C1020 C -0.07046 0.51445 0.35976
 H1021 H -0.06753 0.54746 0.27437
 H1022 H -0.02863 0.53905 0.32961
 H1023 H -0.10386 0.47923 0.30438
 H1024 H -0.09799 0.50437 0.35955
 C1025 C 0.38849 1.00322 -0.21445
 C1026 C 0.41237 1.02919 -0.20510
 C1027 C 0.43198 1.02810 -0.17025
 C1028 C 0.41796 1.01248 -0.14045
 H1029 H 0.41952 1.05023 -0.22437
 H1030 H 0.45865 1.04031 -0.16942
 H1031 H 0.38402 0.98110 -0.19567
 H1032 H 0.39037 1.00263 -0.14045
 C1033 C 0.61095 0.49324 -0.21835
 C1034 C 0.62506 0.49480 -0.18477
 C1035 C 0.60484 0.49454 -0.15021
 C1036 C 0.57024 0.48457 -0.14579
 H1037 H 0.65384 0.49892 -0.18195
 H1038 H 0.62045 0.50257 -0.12666
 H1039 H 0.58216 0.48971 -0.22175
 H1040 H 0.55447 0.47489 -0.16857
 C1041 C 0.10200 0.00243 0.28838
 C1042 C 0.07440 -0.02047 0.29547
 C1043 C 0.05393 -0.01947 0.33004
 C1044 C 0.06898 -0.00806 0.36113
 H1045 H 0.06639 -0.04052 0.27538
 H1046 H 0.02653 -0.02990 0.33002
 H1047 H 0.10797 0.02375 0.30785
 H1048 H 0.09704 0.00031 0.36152
 C1049 C 0.22089 1.10155 1.00034
 C1050 C 0.21123 1.08287 1.03001
 C1051 C 0.17542 1.06522 1.03274
 C1052 C 0.14579 1.08105 1.01951
 H1053 H 0.22951 1.08095 1.05274
 H1054 H 0.17344 1.03944 1.04668
 H1055 H 0.20275 1.10106 0.97728
 H1056 H 0.14777 1.10802 1.00789
 C1057 C 0.72173 0.60376 0.50848
 C1058 C 0.71063 0.57563 0.48799
 C1059 C 0.67488 0.55823 0.49350
 C1060 C 0.64512 0.57781 0.49982
 H1061 H 0.72808 0.56485 0.46700
 H1062 H 0.67258 0.52916 0.48912
 H1063 H 0.70383 0.61302 0.52991
 H1064 H 0.64693 0.60724 0.50021
 C1065 C 0.71985 0.39446 -0.00326
 C1066 C 0.68805 0.37852 0.00506
 C1067 C 0.65247 0.39628 0.00533
 C1068 C 0.64499 0.42796 -0.01063
 H1069 H 0.68769 0.35025 0.01304
 H1070 H 0.63092 0.38112 0.01841
 H1071 H 0.72086 0.42274 -0.01113
 H1072 H 0.66588 0.44315 -0.02462
 C1073 C 0.20897 -0.10613 0.48926
 C1074 C 0.17589 -0.12036 0.49534
 C1075 C 0.14137 -0.10086 0.49526
 C1076 C 0.13667 -0.06617 0.48577
 H1077 H 0.17355 -0.14863 0.50299
 H1078 H 0.11829 -0.11679 0.50420
 H1079 H 0.21217 -0.07792 0.48166
 H1080 H 0.15906 -0.04983 0.47605
 C1081 C 0.27716 -0.10744 0.49389
 C1082 C 0.30916 -0.12439 0.49641
 C1083 C 0.34501 -0.10676 0.49512
 C1084 C 0.35102 -0.07145 0.50137
 H1085 H 0.30933 -0.15382 0.49757
 H1086 H 0.36759 -0.12443 0.48956
 H1087 H 0.27600 -0.07821 0.49111
 H1088 H 0.32889 -0.05374 0.50837
 C1089 C -0.21180 0.39675 0.99522
 C1090 C -0.20549 0.42368 1.01917
 C1091 C -0.16991 0.44227 1.02137
 C1092 C -0.13899 0.42493 1.01404
 H1093 H -0.22684 0.43299 1.03691
 H1094 H -0.16932 0.47052 1.02979
 H1095 H -0.19005 0.38929 0.97701
 H1096 H -0.13952 0.39614 1.00775
 C1097 C -0.21159 0.60354 0.49163
 C1098 C -0.20115 0.57477 0.51096
 C1099 C -0.16634 0.55643 0.50417
 C1100 C -0.13611 0.57490 0.49555
 H1101 H -0.21856 0.56409 0.53210
 H1102 H -0.16488 0.52764 0.50997
 H1103 H -0.19403 0.61276 0.46987
 H1104 H -0.13670 0.60428 0.49380
 C1105 C 0.28839 1.10423 -0.00074
 C1106 C 0.32079 1.12098 -0.00332
 C1107 C 0.35572 1.10245 -0.00146
 C1108 C 0.35997 1.06773 -0.01097
 H1109 H 0.32192 1.15034 -0.00542
 H1110 H 0.37895 1.11877 0.00624
 H1111 H 0.28661 1.07512 0.00320
 H1112 H 0.33719 1.05194 -0.02076
 C1113 C -0.01166 1.21801 1.11559
 C1114 C 0.01059 1.21370 1.08695
 C1115 C 0.01480 1.17868 1.06750
 C1116 C 0.01060 1.14645 1.08389
 H1117 H 0.02616 1.23656 1.07688
 H1118 H 0.02270 1.17970 1.03919
 H1119 H -0.02768 1.19491 1.12448
 H1120 H 0.00417 1.14535 1.11255
 C1121 C 0.50953 0.72608 0.60977
 C1122 C 0.50762 0.69332 0.62563
 C1123 C 0.50550 0.65815 0.60618
 C1124 C 0.51483 0.65286 0.57132
 H1125 H 0.50608 0.69206 0.65497
 H1126 H 0.49680 0.63515 0.62235
 H1127 H 0.51077 0.72808 0.58052
 H1128 H 0.52520 0.67511 0.55515
 C1129 C -0.00927 0.71895 0.39569
 C1130 C 0.00641 0.71113 0.42739
 C1131 C 0.00118 0.67574 0.44537
 C1132 C -0.00248 0.64465 0.42660
 H1133 H 0.02320 0.73106 0.44106
 H1134 H 0.00366 0.67502 0.47465
 H1135 H -0.02638 0.69842 0.38314
 H1136 H -0.00102 0.64482 0.39723
 C1137 C 0.50716 1.20679 -0.11153
 C1138 C 0.50899 1.17374 -0.12725
 C1139 C 0.50714 1.13856 -0.10822
 C1140 C 0.49392 1.13353 -0.07467
 H1141 H 0.51333 1.17214 -0.15631
 H1142 H 0.51627 1.11531 -0.12377
 H1143 H 0.50396 1.20923 -0.08241
 H1144 H 0.48349 1.15620 -0.05916
 C1145 C 0.50748 0.27521 -0.11063
 C1146 C 0.49821 0.30768 -0.12426
 C1147 C 0.49733 0.34263 -0.10429
 C1148 C 0.51144 0.34902 -0.07137
 H1149 H 0.48996 0.30923 -0.15234
 H1150 H 0.48502 0.36481 -0.11880
 H1151 H 0.51605 0.27328 -0.08269
 H1152 H 0.52454 0.32758 -0.05658
 C1153 C 0.00510 -0.21195 0.39573
 C1154 C -0.00846 -0.20423 0.42867
 C1155 C -0.00181 -0.16905 0.44708
 C1156 C 0.00208 -0.13793 0.42872
 H1157 H -0.02464 -0.22412 0.44305
 H1158 H -0.00364 -0.16840 0.47643
 H1159 H 0.02172 -0.19161 0.38235
 H1160 H -0.00001 -0.13792 0.39941
 C1161 C 0.50889 -0.20502 0.60908
 C1162 C 0.48381 -0.20089 0.58321
 C1163 C 0.47882 -0.16676 0.56300
 C1164 C 0.48444 -0.13375 0.57763
 H1165 H 0.46700 -0.22373 0.57527
 H1166 H 0.46919 -0.16922 0.53538
 H1167 H 0.52629 -0.18217 0.61589
 H1168 H 0.49251 -0.13122 0.60576
 C1169 C -0.00770 0.28662 1.11792
 C1170 C 0.00470 0.31811 1.13234
 C1171 C 0.00734 0.35325 1.11292
 C1172 C -0.00710 0.35923 1.08032
 H1173 H 0.01388 0.31853 1.16018
 H1174 H 0.02122 0.37529 1.12679
 H1175 H -0.01739 0.28569 1.09034
 H1176 H -0.02171 0.33790 1.06632
 C1177 C 0.75813 0.34589 0.02607
 C1178 C 0.75203 0.35615 0.06039
 C1179 C 0.75486 0.33100 0.09113
 C1180 C 0.74589 0.34277 0.12425
 H1181 H 0.74361 0.38377 0.06588
 H1182 H 0.76303 0.30312 0.08665
 H1183 H 0.76723 0.31845 0.02063
 H1184 H 0.73719 0.37067 0.12771
 C1185 C 0.24042 0.84882 0.52795
 C1186 C 0.23643 0.86654 0.55978
 C1187 C 0.23573 0.84942 0.59581
 C1188 C 0.24908 0.81656 0.60247
 H1189 H 0.23288 0.89574 0.55955
 H1190 H 0.22534 0.86570 0.61803
 H1191 H 0.24321 0.81959 0.52703
 H1192 H 0.26084 0.80060 0.58079
 C1193 C 0.76341 0.64918 0.53453
 C1194 C 0.74131 0.67569 0.54594
 C1195 C 0.74410 0.69397 0.58167
 C1196 C 0.75745 0.67797 0.61131
 H1197 H 0.71951 0.68414 0.52853
 H1198 H 0.73177 0.72045 0.58407
 H1199 H 0.78578 0.64135 0.55149
 H1200 H 0.76798 0.65067 0.60957
 C1201 C 0.25436 0.15217 0.03065
 C1202 C 0.22557 0.17058 0.04249
 C1203 C 0.22631 0.19055 0.07732
 C1204 C 0.24475 0.17801 0.10581
 H1205 H 0.20098 0.17060 0.02674
 H1206 H 0.20969 0.21446 0.08013
 H1207 H 0.27924 0.15498 0.04580
 H1208 H 0.25865 0.15230 0.10374
 C1209 C 0.25288 0.14440 0.96151
 C1210 C 0.24959 0.18008 0.95598
 C1211 C 0.24972 0.19635 0.91958
 C1212 C 0.24222 0.17835 0.88854
 H1213 H 0.24883 0.19883 0.97863
 H1214 H 0.25608 0.22514 0.91884
 H1215 H 0.25553 0.12633 0.93837
 H1216 H 0.23359 0.15019 0.88870
 C1217 C 0.74814 0.65050 0.46801
 C1218 C 0.77120 0.67676 0.45726
 C1219 C 0.76842 0.69585 0.42218
 C1220 C 0.75429 0.68029 0.39238
 H1221 H 0.79364 0.68423 0.47457
 H1222 H 0.78112 0.72241 0.42033
 H1223 H 0.72506 0.64391 0.45120
 H1224 H 0.74350 0.65287 0.39360
 C1225 C 0.24461 0.84626 0.45884
 C1226 C 0.22264 0.81806 0.45128
 C1227 C 0.22290 0.79951 0.41549
 C1228 C 0.23297 0.81647 0.38482
 H1229 H 0.20441 0.80767 0.47179
 H1230 H 0.21353 0.77156 0.41442
 H1231 H 0.26389 0.85474 0.43833
 H1232 H 0.24045 0.84496 0.38538
 C1233 C 0.75465 0.35264 0.95848
 C1234 C 0.73401 0.32343 0.95095
 C1235 C 0.73422 0.30514 0.91513
 C1236 C 0.74436 0.32173 0.88433
 H1237 H 0.71785 0.31110 0.97216
 H1238 H 0.72562 0.27692 0.91443
 H1239 H 0.77140 0.36389 0.93713
 H1240 H 0.75123 0.35036 0.88420
 C1241 C 0.85201 0.46872 0.25283
 C1242 C 0.86581 0.43500 0.25236
 C1243 C 0.84502 0.40075 0.25545
 C1244 C 0.80934 0.39729 0.25071
 H1245 H 0.89484 0.43211 0.25119
 H1246 H 0.86082 0.37674 0.26069
 H1247 H 0.82318 0.47241 0.25510
 H1248 H 0.79324 0.42056 0.24368
 C1249 C 0.34520 0.96761 0.74914
 C1250 C 0.32173 0.95836 0.72300
 C1251 C 0.30393 0.92197 0.72183
 C1252 C 0.32012 0.89154 0.73343
 H1253 H 0.31463 0.97790 0.70247
 H1254 H 0.27733 0.92024 0.70991
 H1255 H 0.34976 0.94764 0.77007
 H1256 H 0.34763 0.89291 0.74310
 C1257 C 0.14443 0.96215 0.25694
 C1258 C 0.17993 0.95614 0.25998
 C1259 C 0.19564 0.91916 0.26092
 C1260 C 0.17887 0.88906 0.24831
 H1261 H 0.19850 0.97877 0.26312
 H1262 H 0.22279 0.91717 0.27137
 H1263 H 0.12621 0.93903 0.25601
 H1264 H 0.15258 0.89076 0.23593
 C1265 C 0.65618 0.46106 0.74503
 C1266 C 0.68601 0.45358 0.76401
 C1267 C 0.70375 0.41760 0.76355
 C1268 C 0.68707 0.38634 0.75414
 H1269 H 0.69869 0.47476 0.78009
 H1270 H 0.73150 0.41700 0.77251
 H1271 H 0.64417 0.43998 0.72832
 H1272 H 0.65896 0.38616 0.74654
 C1273 C 0.65837 0.53084 0.75207
 C1274 C 0.68763 0.53862 0.73184
 C1275 C 0.70646 0.57441 0.73312
 C1276 C 0.69023 0.60527 0.74356
 H1277 H 0.69875 0.51803 0.71410
 H1278 H 0.73415 0.57537 0.72371
 H1279 H 0.64841 0.55128 0.77071
 H1280 H 0.66205 0.60496 0.75121
 C1281 C 0.15270 0.03136 0.25486
 C1282 C 0.17212 0.04149 0.22568
 C1283 C 0.19198 0.07664 0.22443
 C1284 C 0.17848 0.10687 0.23963
 H1285 H 0.17283 0.02416 0.20184
 H1286 H 0.21662 0.07807 0.20862
 H1287 H 0.15512 0.04785 0.27921
 H1288 H 0.15243 0.10557 0.25302
 C1289 C 0.34814 0.03713 0.74471
 C1290 C 0.32089 0.04697 0.76671
 C1291 C 0.30314 0.08312 0.76568
 C1292 C 0.31939 0.11393 0.75424
 H1293 H 0.31072 0.02755 0.78632
 H1294 H 0.27623 0.08451 0.77709
 H1295 H 0.35777 0.05636 0.72467
 H1296 H 0.34704 0.11320 0.74478
 C1297 C 0.85446 0.53656 0.25353
 C1298 C 0.86715 0.56863 0.24113
 C1299 C 0.84845 0.60391 0.24307
 C1300 C 0.81566 0.60952 0.25741
 H1301 H 0.89348 0.56962 0.22837
 H1302 H 0.86314 0.62665 0.23143
 H1303 H 0.82882 0.53537 0.26757
 H1304 H 0.80027 0.58737 0.26911
 C1305 C 0.95151 0.25334 0.15860
 C1306 C 0.94383 0.27719 0.18517
 C1307 C 0.90769 0.27986 0.20174
 C1308 C 0.87731 0.27217 0.18353
 H1309 H 0.96503 0.29412 0.19647
 H1310 H 0.90635 0.28868 0.22980
 H1311 H 0.93029 0.23545 0.14875
 H1312 H 0.87843 0.26519 0.15496
 C1313 C 0.48058 0.76271 0.65992
 C1314 C 0.44671 0.75429 0.65053
 C1315 C 0.41571 0.75889 0.67516
 C1316 C 0.38287 0.75053 0.66282
 H1317 H 0.44151 0.74392 0.62346
 H1318 H 0.41960 0.76863 0.70269
 H1319 H 0.48553 0.77412 0.68666
 H1320 H 0.38010 0.74053 0.63519
 C1321 C 0.47843 0.23952 0.83847
 C1322 C 0.44428 0.24023 0.85002
 C1323 C 0.41365 0.23931 0.82489
 C1324 C 0.38057 0.24462 0.83801
 H1325 H 0.43895 0.24240 0.87893
 H1326 H 0.41814 0.23549 0.79604
 H1327 H 0.48398 0.23699 0.80965
 H1328 H 0.37704 0.24948 0.86688
 C1329 C 0.96323 0.75974 0.35167
 C1330 C 0.93117 0.76492 0.36804
 C1331 C 0.89612 0.76610 0.34937
 C1332 C 0.88917 0.74912 0.31788
 H1333 H 0.93007 0.76782 0.39724
 H1334 H 0.87437 0.77900 0.36414
 H1335 H 0.96456 0.75779 0.32236
 H1336 H 0.91034 0.73482 0.30359
 C1337 C 0.02953 0.74725 0.34902
 C1338 C 0.06239 0.74168 0.36306
 C1339 C 0.09618 0.73818 0.34224
 C1340 C 0.10223 0.75231 0.30926
 H1341 H 0.06521 0.73963 0.39217
 H1342 H 0.11821 0.72588 0.35679
 H1343 H 0.02631 0.74854 0.31987
 H1344 H 0.08094 0.76607 0.29496
 C1345 C 0.54576 0.24173 0.84616
 C1346 C 0.55423 0.26516 0.81955
 C1347 C 0.58997 0.26634 0.80179
 C1348 C 0.62021 0.25577 0.81828
 H1349 H 0.53387 0.28308 0.80903
 H1350 H 0.59122 0.27694 0.77444
 H1351 H 0.56594 0.22288 0.85543
 H1352 H 0.61950 0.24699 0.84626
 C1353 C 0.54741 0.76113 0.65210
 C1354 C 0.57882 0.76107 0.63378
 C1355 C 0.61460 0.75885 0.65102
 C1356 C 0.62047 0.74291 0.68309
 H1357 H 0.57847 0.76370 0.60451
 H1358 H 0.63717 0.76954 0.63554
 H1359 H 0.54755 0.75987 0.68145
 H1360 H 0.59832 0.73060 0.69796
 C1361 C 0.01798 0.24693 0.16747
 C1362 C 0.05238 0.24855 0.15688
 C1363 C 0.08283 0.24269 0.18137
 C1364 C 0.11591 0.24564 0.16747
 H1365 H 0.05837 0.25500 0.12882
 H1366 H 0.07849 0.23750 0.20999
 H1367 H 0.01151 0.24004 0.19534
 H1368 H 0.11909 0.25176 0.13882
 C1369 C -0.09550 1.00130 0.79169
 C1370 C -0.05966 0.99999 0.79628
 C1371 C -0.04261 0.99880 0.83271
 C1372 C -0.05928 1.00897 0.86360
 H1373 H -0.04205 0.99751 0.77295
 H1374 H -0.01507 0.98936 0.83378
 H1375 H -0.11290 1.00122 0.81532
 H1376 H -0.08601 1.02036 0.86291
 C1377 C 0.39964 0.50519 0.28551
 C1378 C 0.42804 0.48510 0.29507
 C1379 C 0.44547 0.48749 0.33125
 C1380 C 0.42900 0.49950 0.36164
 H1381 H 0.43969 0.46649 0.27559
 H1382 H 0.47271 0.47730 0.33289
 H1383 H 0.38924 0.52460 0.30502
 H1384 H 0.40125 0.50822 0.36086
 C1385 C 0.59742 0.00167 0.27611
 C1386 C 0.57321 -0.02379 0.28578
 C1387 C 0.55396 -0.02164 0.32077
 C1388 C 0.57146 -0.01622 0.35217
 H1389 H 0.56674 -0.04598 0.26744
 H1390 H 0.52508 -0.02628 0.32077
 H1391 H 0.60254 0.02389 0.29498
 H1392 H 0.60068 -0.01508 0.35238
 C1393 C 0.09788 0.50427 0.78329
 C1394 C 0.07136 0.48083 0.79177
 C1395 C 0.05280 0.48307 0.82718
 C1396 C 0.07119 0.48931 0.85785
 H1397 H 0.06279 0.46026 0.77246
 H1398 H 0.02407 0.47756 0.82818
 H1399 H 0.10501 0.52504 0.80312
 H1400 H 0.10038 0.49096 0.85708
 C1401 C 0.10190 0.49396 0.71450
 C1402 C 0.06877 0.50599 0.70705
 C1403 C 0.05258 0.50183 0.67071
 C1404 C 0.07216 0.50362 0.64003
 H1405 H 0.05268 0.51877 0.72799
 H1406 H 0.02347 0.49980 0.66931
 H1407 H 0.11674 0.48043 0.69303
 H1408 H 0.10088 0.50912 0.64124
 C1409 C 0.60218 0.99041 0.20723
 C1410 C 0.56737 0.99736 0.20051
 C1411 C 0.55020 0.99035 0.16479
 C1412 C 0.56854 0.98929 0.13325
 H1413 H 0.55033 1.00815 0.22180
 H1414 H 0.52105 0.98844 0.16447
 H1415 H 0.61839 0.97911 0.18558
 H1416 H 0.59734 0.99415 0.13281
 C1417 C 0.40088 0.49802 0.21603
 C1418 C 0.38485 0.49160 0.18382
 C1419 C 0.40286 0.48972 0.14803
 C1420 C 0.43535 0.50394 0.14044
 H1421 H 0.35606 0.48629 0.18352
 H1422 H 0.38731 0.47717 0.12645
 H1423 H 0.42966 0.50282 0.21760
 H1424 H 0.45074 0.51763 0.16141
 C1425 C -0.09192 -0.00029 0.72178
 C1426 C -0.07420 0.02899 0.70916
 C1427 C -0.05669 0.02904 0.67293
 C1428 C -0.07070 0.01083 0.64446
 H1429 H -0.07274 0.05353 0.72547
 H1430 H -0.03299 0.04608 0.66930
 H1431 H -0.09083 -0.02509 0.70581
 H1432 H -0.09594 -0.00391 0.64758
 C1433 C -0.20618 0.90247 1.00491
 C1434 C -0.19773 0.93062 0.98326
 C1435 C -0.16244 0.94958 0.98391
 C1436 C -0.13219 0.93399 0.99560
 H1437 H -0.21784 0.94142 0.96520
 H1438 H -0.16144 0.97699 0.97336
 H1439 H -0.18635 0.89257 1.02382
 H1440 H -0.13249 0.90598 1.00439
 C1441 C 0.28682 0.40552 0.49893
 C1442 C 0.29604 0.43447 0.47859
 C1443 C 0.33126 0.45388 0.48084
 C1444 C 0.36137 0.43890 0.49387
 H1445 H 0.27675 0.44484 0.45935
 H1446 H 0.33255 0.48098 0.46953
 H1447 H 0.30581 0.39526 0.51847
 H1448 H 0.36083 0.41122 0.50361
 C1449 C 0.28512 0.59387 -0.00718
 C1450 C 0.31805 0.60967 -0.00657
 C1451 C 0.35306 0.59090 -0.00662
 C1452 C 0.35902 0.55760 0.00658
 H1453 H 0.31979 0.63906 -0.00789
 H1454 H 0.37566 0.60697 -0.01644
 H1455 H 0.28242 0.56453 -0.00709
 H1456 H 0.33698 0.54180 0.01797
 C1457 C -0.22189 0.09643 0.49637
 C1458 C -0.18997 0.11426 0.49579
 C1459 C -0.15419 0.09743 0.49545
 C1460 C -0.14711 0.06484 0.50940
 H1461 H -0.18986 0.14368 0.49412
 H1462 H -0.13232 0.11411 0.48500
 H1463 H -0.22296 0.06701 0.49687
 H1464 H -0.16853 0.04861 0.52137
 C1465 C 0.70958 0.09390 0.49732
 C1466 C 0.70113 0.06973 0.47122
 C1467 C 0.66570 0.05058 0.47026
 C1468 C 0.63504 0.06649 0.48128
 H1469 H 0.72065 0.06359 0.45019
 H1470 H 0.66478 0.02354 0.45851
 H1471 H 0.69011 0.09846 0.51887
 H1472 H 0.63579 0.09451 0.49048
 C1473 C 0.21652 0.59523 0.99228
 C1474 C 0.20723 0.57086 0.96663
 C1475 C 0.17176 0.55157 0.96707
 C1476 C 0.14154 0.56702 0.97997
 H1477 H 0.22646 0.56388 0.94559
 H1478 H 0.17054 0.52442 0.95563
 H1479 H 0.19739 0.60040 1.01397
 H1480 H 0.14242 0.59506 0.98906
 C1481 C 0.21936 0.40921 0.49224
 C1482 C 0.20874 0.43029 0.52002
 C1483 C 0.17400 0.44977 0.51962
 C1484 C 0.14473 0.43592 0.50305
 H1485 H 0.22561 0.43359 0.54365
 H1486 H 0.17198 0.47458 0.53541
 H1487 H 0.20348 0.40986 0.46765
 H1488 H 0.14621 0.40969 0.48965
 C1489 C 0.72645 0.90860 0.00310
 C1490 C 0.69261 0.89670 -0.00093
 C1491 C 0.66170 0.92135 0.00100
 C1492 C 0.62887 0.90824 -0.00609
 H1493 H 0.68773 0.86793 -0.00562
 H1494 H 0.66572 0.94979 0.00785
 H1495 H 0.73128 0.93721 0.00874
 H1496 H 0.62581 0.87983 -0.01371
 C1497 C 0.00877 0.79294 0.90294
 C1498 C -0.01323 0.80145 0.93059
 C1499 C -0.01343 0.83777 0.94801
 C1500 C -0.00135 0.86828 0.93187
 H1501 H -0.03059 0.78073 0.94220
 H1502 H -0.02453 0.83916 0.97521
 H1503 H 0.02667 0.81382 0.89248
 H1504 H 0.00803 0.86786 0.90406
 C1505 C 0.49386 0.29427 0.40558
 C1506 C 0.47066 0.30377 0.43184
 C1507 C 0.47165 0.34015 0.44895
 C1508 C 0.48372 0.36987 0.43153
 H1509 H 0.45142 0.28412 0.44223
 H1510 H 0.46168 0.34231 0.47654
 H1511 H 0.51415 0.31387 0.39707
 H1512 H 0.49165 0.36833 0.40327
 C1513 C 0.00767 0.28912 0.59583
 C1514 C 0.03462 0.30017 0.57414
 C1515 C 0.03327 0.33547 0.55515
 C1516 C 0.01648 0.36442 0.56957
 H1517 H 0.05807 0.28323 0.57033
 H1518 H 0.04770 0.33794 0.52966
 H1519 H -0.01635 0.30564 0.59719
 H1520 H 0.00452 0.36269 0.59638
 C1521 C 0.49742 0.77693 0.10334
 C1522 C 0.49878 0.81035 0.11838
 C1523 C 0.49673 0.84502 0.09871
 C1524 C 0.50108 0.84882 0.06286
 H1525 H 0.49976 0.81268 0.14770
 H1526 H 0.49237 0.86889 0.11544
 H1527 H 0.49514 0.77365 0.07425
 H1528 H 0.50709 0.82561 0.04582
 C1529 C 0.49475 0.70862 0.10464
 C1530 C 0.50342 0.67614 0.11862
 C1531 C 0.50265 0.64084 0.09934
 C1532 C 0.48865 0.63454 0.06637
 H1533 H 0.51324 0.67502 0.14620
 H1534 H 0.51462 0.61857 0.11399
 H1535 H 0.48470 0.71027 0.07719
 H1536 H 0.47596 0.65608 0.05136
 C1537 C 0.00943 0.22073 0.59843
 C1538 C 0.00980 0.18872 0.61590
 C1539 C 0.00849 0.15283 0.59841
 C1540 C -0.00726 0.14619 0.56647
 H1541 H 0.01206 0.18865 0.64522
 H1542 H 0.01915 0.13057 0.61409
 H1543 H 0.00846 0.22163 0.56907
 H1544 H -0.01944 0.16801 0.55136
 C1545 C 0.49356 0.22569 0.41043
 C1546 C 0.49404 0.19213 0.39631
 C1547 C 0.49832 0.15980 0.41871
 C1548 C 0.49923 0.12705 0.40297
 H1549 H 0.49217 0.18867 0.36710
 H1550 H 0.50016 0.16271 0.44795
 H1551 H 0.49594 0.22964 0.43951
 H1552 H 0.49634 0.12459 0.37377
 C1553 C 0.01236 0.72519 0.91084
 C1554 C 0.00938 0.69043 0.90022
 C1555 C 0.01380 0.65964 0.92518
 C1556 C 0.00989 0.62580 0.91231
 H1557 H 0.00293 0.68447 0.87216
 H1558 H 0.01890 0.66453 0.95374
 H1559 H 0.01931 0.73125 0.93879
 H1560 H 0.00398 0.62188 0.88373
 C1561 C 0.25274 0.64119 0.95824
 C1562 C 0.22851 0.66693 0.95035
 C1563 C 0.22941 0.68818 0.91603
 C1564 C 0.24375 0.67535 0.88502
 H1565 H 0.20776 0.67339 0.97005
 H1566 H 0.21632 0.71436 0.91611
 H1567 H 0.27423 0.63600 0.93898
 H1568 H 0.25459 0.64814 0.88428
 C1569 C 0.74260 0.14143 0.46284
 C1570 C 0.71586 0.16413 0.45455
 C1571 C 0.71546 0.18475 0.42014
 C1572 C 0.73116 0.17266 0.38946
 H1573 H 0.69426 0.16857 0.47389
 H1574 H 0.70087 0.21010 0.42006
 H1575 H 0.76484 0.13878 0.44390
 H1576 H 0.74355 0.14615 0.38869
 C1577 C 0.25503 0.36431 0.45675
 C1578 C 0.22683 0.34758 0.44087
 C1579 C 0.22837 0.33271 0.40377
 C1580 C 0.25682 0.31476 0.39079
 H1581 H 0.20067 0.34779 0.45403
 H1582 H 0.20423 0.33467 0.38746
 H1583 H 0.28076 0.36476 0.44264
 H1584 H 0.27951 0.30909 0.40822
 C1585 C 0.75826 0.85810 0.96939
 C1586 C 0.75222 0.87175 0.93618
 C1587 C 0.75316 0.85131 0.90151
 C1588 C 0.76731 0.81820 0.89632
 H1589 H 0.74484 0.90002 0.93382
 H1590 H 0.74202 0.86556 0.87854
 H1591 H 0.76560 0.82986 0.97217
 H1592 H 0.77942 0.80374 0.91858
 C1593 C 0.75411 0.85923 0.03759
 C1594 C 0.75372 0.87511 0.07057
 C1595 C 0.75156 0.85596 0.10561
 C1596 C 0.73848 0.82219 0.11047
 H1597 H 0.75712 0.90436 0.07229
 H1598 H 0.76061 0.87158 0.12892
 H1599 H 0.75217 0.82993 0.03524
 H1600 H 0.72792 0.80672 0.08775
 C1601 C 0.24643 0.35534 0.52275
 C1602 C 0.25199 0.36245 0.55800
 C1603 C 0.24669 0.33511 0.58690
 C1604 C 0.25393 0.34484 0.62111
 H1605 H 0.26155 0.38923 0.56591
 H1606 H 0.23782 0.30771 0.58038
 H1607 H 0.23630 0.32860 0.51522
 H1608 H 0.26302 0.37252 0.62632
 C1609 C 0.74369 0.14122 0.53126
 C1610 C 0.74450 0.12506 0.56389
 C1611 C 0.74685 0.14399 0.59907
 C1612 C 0.76259 0.17654 0.60420
 H1613 H 0.74232 0.09569 0.56516
 H1614 H 0.73684 0.12883 0.62220
 H1615 H 0.74473 0.17058 0.52928
 H1616 H 0.77409 0.19127 0.58150
 C1617 C 0.25187 0.64067 0.02696
 C1618 C 0.25134 0.62439 0.05962
 C1619 C 0.24963 0.64301 0.09510
 C1620 C 0.26009 0.67742 0.10122
 H1621 H 0.25008 0.59496 0.06058
 H1622 H 0.24037 0.62651 0.11761
 H1623 H 0.25174 0.67003 0.02507
 H1624 H 0.27103 0.69373 0.07935
 C1625 C 0.14322 0.53614 0.74663
 C1626 C 0.12656 0.56809 0.74280
 C1627 C 0.14521 0.60347 0.74281
 C1628 C 0.17721 0.60955 0.75857
 H1629 H 0.09761 0.56858 0.73942
 H1630 H 0.13090 0.62570 0.73041
 H1631 H 0.17229 0.53544 0.74887
 H1632 H 0.19126 0.58794 0.77220
 C1633 C 0.64267 0.03410 0.23917
 C1634 C 0.62556 0.06555 0.23271
 C1635 C 0.64251 0.10218 0.23331
 C1636 C 0.67379 0.11004 0.24975
 H1637 H 0.59691 0.06473 0.22721
 H1638 H 0.62709 0.12395 0.22148
 H1639 H 0.67142 0.03418 0.24401
 H1640 H 0.68898 0.08879 0.26267
 C1641 C 0.85947 0.03240 0.75531
 C1642 C 0.83768 0.04050 0.72754
 C1643 C 0.81785 0.07527 0.72605
 C1644 C 0.83158 0.10620 0.73999
 H1645 H 0.83440 0.02138 0.70533
 H1646 H 0.79247 0.07560 0.71166
 H1647 H 0.86058 0.05101 0.77822
 H1648 H 0.85817 0.10613 0.75204
 C1649 C 0.35357 0.53277 0.24703
 C1650 C 0.36838 0.56609 0.24332
 C1651 C 0.34865 0.60061 0.24293
 C1652 C 0.31410 0.60443 0.23334
 H1653 H 0.39752 0.56867 0.24315
 H1654 H 0.36453 0.62449 0.24993
 H1655 H 0.32459 0.52954 0.24905
 H1656 H 0.29838 0.58118 0.22427
 C1657 C 0.35602 0.46464 0.25466
 C1658 C 0.37165 0.43200 0.25015
 C1659 C 0.35329 0.39626 0.25114
 C1660 C 0.31991 0.39001 0.26373
 H1661 H 0.39989 0.43103 0.24283
 H1662 H 0.36885 0.37375 0.24059
 H1663 H 0.32768 0.46629 0.26146
 H1664 H 0.30421 0.41185 0.27532
 C1665 C 0.86269 0.96442 0.75627
 C1666 C 0.87971 0.93234 0.75829
 C1667 C 0.86195 0.89645 0.75716
 C1668 C 0.82789 0.89023 0.76759
 H1669 H 0.90892 0.93217 0.75882
 H1670 H 0.87863 0.87394 0.74859
 H1671 H 0.83361 0.96524 0.75393
 H1672 H 0.81156 0.91221 0.77802
 C1673 C 0.64731 0.96696 0.24980
 C1674 C 0.67376 0.95740 0.22674
 C1675 C 0.69280 0.92236 0.22922
 C1676 C 0.67677 0.89204 0.24180
 H1677 H 0.68105 0.97524 0.20455
 H1678 H 0.71973 0.92109 0.21783
 H1679 H 0.64183 0.94960 0.27290
 H1680 H 0.64907 0.89282 0.25116
 C1681 C 0.14715 0.46938 0.75606
 C1682 C 0.17458 0.46158 0.73346
 C1683 C 0.19479 0.42739 0.73556
 C1684 C 0.17897 0.39630 0.74603
 H1685 H 0.18202 0.48040 0.71215
 H1686 H 0.22232 0.42743 0.72566
 H1687 H 0.14106 0.45091 0.77814
 H1688 H 0.15067 0.39590 0.75344
 C1689 C 0.04261 0.75571 0.86002
 C1690 C 0.04792 0.73322 0.83174
 C1691 C 0.08267 0.73158 0.81182
 C1692 C 0.11451 0.74070 0.82680
 H1693 H 0.02596 0.71640 0.82184
 H1694 H 0.08174 0.72204 0.78398
 H1695 H 0.06486 0.77289 0.86863
 H1696 H 0.11607 0.74846 0.85511
 C1697 C 0.52626 0.25650 0.36159
 C1698 C 0.55889 0.25631 0.37725
 C1699 C 0.59341 0.25487 0.35788
 C1700 C 0.59786 0.24218 0.32405
 H1701 H 0.56064 0.25886 0.40652
 H1702 H 0.61658 0.26389 0.37343
 H1703 H 0.52380 0.25551 0.33234
 H1704 H 0.57522 0.23175 0.30862
 C1705 C 0.53126 0.74440 0.15005
 C1706 C 0.56357 0.74220 0.13343
 C1707 C 0.59901 0.74346 0.15145
 C1708 C 0.60542 0.75862 0.18396
 H1709 H 0.56427 0.73792 0.10431
 H1710 H 0.62126 0.73248 0.13588
 H1711 H 0.52948 0.74761 0.17922
 H1712 H 0.58369 0.77085 0.19930
 C1713 C 0.04334 0.25762 0.64296
 C1714 C 0.05267 0.28578 0.66423
 C1715 C 0.08764 0.28700 0.68342
 C1716 C 0.11794 0.27273 0.66935
 H1717 H 0.03389 0.30774 0.66863
 H1718 H 0.08830 0.30052 0.70960
 H1719 H 0.06195 0.23517 0.64064
 H1720 H 0.11784 0.26153 0.64210
 C1721 C 0.97505 0.25555 0.64348
 C1722 C 0.94264 0.25302 0.62723
 C1723 C 0.90745 0.25317 0.64561
 C1724 C 0.90191 0.24270 0.67986
 H1725 H 0.94158 0.25225 0.59784
 H1726 H 0.88468 0.26037 0.62889
 H1727 H 0.97706 0.25777 0.67272
 H1728 H 0.92422 0.23376 0.69632
 C1729 C 0.46247 0.74550 0.15036
 C1730 C 0.45312 0.72200 0.17655
 C1731 C 0.41701 0.72238 0.19399
 C1732 C 0.38733 0.73371 0.17672
 H1733 H 0.47234 0.70231 0.18598
 H1734 H 0.41484 0.71187 0.22132
 H1735 H 0.44322 0.76619 0.14310
 H1736 H 0.38901 0.74220 0.14868
 C1737 C 0.45868 0.25730 0.36219
 C1738 C 0.42638 0.24801 0.37634
 C1739 C 0.39208 0.24647 0.35633
 C1740 C 0.38720 0.25983 0.32304
 H1741 H 0.42468 0.23975 0.40445
 H1742 H 0.36957 0.23394 0.37049
 H1743 H 0.46092 0.26567 0.33420
 H1744 H 0.40895 0.27328 0.30867
 C1745 C 0.97423 0.75350 0.86143
 C1746 C 0.94234 0.74411 0.87651
 C1747 C 0.90706 0.74328 0.85781
 C1748 C 0.90007 0.75943 0.82610
 H1749 H 0.94170 0.73564 0.90459
 H1750 H 0.88541 0.72930 0.87199
 H1751 H 0.97540 0.76197 0.83338
 H1752 H 0.92106 0.77421 0.81185
   
