data_POSCAR
  _audit_creation_date              2014-09-24
  _audit_creation_method            'ToBaCCo'
  _symmetry_space_group_name_H-M    'P1'
  _symmetry_Int_Tables_number       1
  _symmetry_cell_setting            triclinic
  loop_
  _symmetry_equiv_pos_as_xyz
 x,y,z
_cell_length_a 44.5694
_cell_length_b 49.9058
_cell_length_c 49.0602
_cell_angle_alpha 90.016000
_cell_angle_beta 89.789100
_cell_angle_gamma 90.113200
loop_
  _atom_site_label
  _atom_site_type_symbol
  _atom_site_fract_x
  _atom_site_fract_y
  _atom_site_fract_z
O1 O 0.35267 0.38329 0.02659
 O2 O 0.38784 0.34048 -0.02562
 O3 O 0.35083 0.38109 -0.02716
 O4 O 0.38943 0.34245 0.02628
 O5 O 0.35006 0.31563 0.02971
 O6 O 0.31264 0.35307 -0.02495
 O7 O 0.34925 0.31262 -0.02331
 O8 O 0.31334 0.35632 0.02767
 Cu9 Cu 0.37390 0.36489 -0.00020
 Cu10 Cu 0.32743 0.33168 0.00254
 C11 C 0.32694 0.37715 0.03592
 C12 C 0.37481 0.31901 -0.03284
 C13 C 0.32515 0.37352 -0.03545
 C14 C 0.37645 0.32224 0.03675
 O15 O 0.61136 0.65596 -0.02667
 O16 O 0.64524 0.61357 0.02644
 O17 O 0.61005 0.65491 0.02652
 O18 O 0.64685 0.61469 -0.02703
 O19 O 0.68615 0.64149 -0.02534
 O20 O 0.64944 0.68173 0.02783
 O21 O 0.68494 0.64015 0.02715
 O22 O 0.65058 0.68296 -0.02498
 Cu23 Cu 0.62443 0.63205 -0.00034
 Cu24 Cu 0.67169 0.66429 0.00129
 C25 C 0.62513 0.67683 -0.03477
 C26 C 0.67095 0.61962 0.03571
 C27 C 0.62345 0.67525 0.03626
 C28 C 0.67294 0.62117 -0.03534
 O29 O 0.65122 0.38170 0.97502
 O30 O 0.61360 0.34353 1.02946
 O31 O 0.65221 0.38234 1.02840
 O32 O 0.61313 0.34230 0.97625
 O33 O 0.65034 0.31321 0.97644
 O34 O 0.68967 0.35358 1.02779
 O35 O 0.65086 0.31450 1.02947
 O36 O 0.68873 0.35285 0.97526
 Cu37 Cu 0.62880 0.36540 1.00225
 Cu38 Cu 0.67359 0.33057 1.00221
 C39 C 0.67644 0.37386 0.96595
 C40 C 0.62583 0.32252 1.03885
 C41 C 0.67773 0.37484 1.03704
 C42 C 0.62507 0.32085 0.96748
 O43 O 0.35203 0.61402 0.97426
 O44 O 0.38877 0.65875 1.02361
 O45 O 0.35237 0.61800 1.02756
 O46 O 0.38841 0.65557 0.97157
 O47 O 0.34945 0.68289 0.97013
 O48 O 0.31277 0.64419 1.02476
 O49 O 0.34905 0.68523 1.02326
 O50 O 0.31356 0.64180 0.97183
 Cu51 Cu 0.37418 0.63364 0.99933
 Cu52 Cu 0.32726 0.66622 0.99735
 C53 C 0.32669 0.62043 0.96454
 C54 C 0.37521 0.67963 1.03169
 C55 C 0.32630 0.62461 1.03577
 C56 C 0.37530 0.67598 0.96182
 O57 O -0.02391 0.39131 0.35070
 O58 O 0.02857 0.34989 0.39004
 O59 O 0.03391 0.38696 0.35240
 O60 O -0.02961 0.35371 0.38750
 O61 O -0.02752 0.32096 0.35742
 O62 O 0.02971 0.35786 0.31874
 O63 O 0.03063 0.32090 0.35603
 O64 O -0.02846 0.35865 0.32054
 Cu65 Cu 0.00238 0.37356 0.37347
 Cu66 Cu 0.00092 0.33647 0.33496
 C67 C -0.03541 0.38184 0.32913
 C68 C 0.03894 0.32861 0.37948
 C69 C 0.04191 0.37851 0.32902
 C70 C -0.03880 0.33108 0.37888
 O71 O 0.03023 0.64834 0.61400
 O72 O -0.03222 0.61217 0.64727
 O73 O -0.02862 0.65080 0.61172
 O74 O 0.02630 0.61092 0.65108
 O75 O 0.02400 0.64085 0.68415
 O76 O -0.02793 0.68153 0.64397
 O77 O -0.03359 0.64300 0.67949
 O78 O 0.02968 0.67800 0.64734
 Cu79 Cu -0.00095 0.62753 0.62768
 Cu80 Cu -0.00206 0.66386 0.66697
 C81 C 0.04064 0.66940 0.62507
 C82 C -0.04354 0.62142 0.66912
 C83 C -0.03747 0.67325 0.62110
 C84 C 0.03415 0.61904 0.67459
 O85 O 1.03092 0.60963 0.35654
 O86 O 0.97021 0.64942 0.38805
 O87 O 0.97162 0.61180 0.35265
 O88 O 1.02707 0.64920 0.39344
 O89 O 1.03786 0.67385 0.35745
 O90 O 0.97436 0.64339 0.32130
 O91 O 0.97935 0.68147 0.35807
 O92 O 1.03133 0.63713 0.32130
 Cu93 Cu 1.00007 0.62663 0.37583
 Cu94 Cu 1.00600 0.66221 0.33639
 C95 C 1.04058 0.61606 0.33299
 C96 C 0.96527 0.67276 0.37884
 C97 C 0.96276 0.62184 0.33028
 C98 C 1.04243 0.66766 0.38220
 O99 O 0.96870 0.35555 0.60575
 O100 O 1.02852 0.39004 0.64400
 O101 O 1.02772 0.35339 0.60689
 O102 O 0.97066 0.39281 0.64359
 O103 O 0.96552 0.36010 0.67361
 O104 O 1.02619 0.32299 0.63944
 O105 O 1.02373 0.36021 0.67700
 O106 O 0.96848 0.32301 0.63629
 Cu107 Cu 0.99896 0.37601 0.62171
 Cu108 Cu 0.99573 0.33847 0.65980
 C109 C 0.95896 0.33309 0.61424
 C110 C 1.03582 0.38126 0.66733
 C111 C 1.03716 0.33158 0.61712
 C112 C 0.95843 0.38314 0.66484
 O113 O 0.38042 0.02517 0.34011
 O114 O 0.34290 -0.02688 0.38114
 O115 O 0.38106 -0.02708 0.34116
 O116 O 0.34263 0.02536 0.38058
 O117 O 0.30503 0.02448 0.35145
 O118 O 0.34362 -0.02784 0.31186
 O119 O 0.30523 -0.02737 0.35205
 O120 O 0.34312 0.02403 0.31066
 Cu121 Cu 0.36553 -0.00074 0.36369
 Cu122 Cu 0.32047 -0.00170 0.32856
 C123 C 0.36828 0.03332 0.31825
 C124 C 0.31760 -0.03597 0.37361
 C125 C 0.36895 -0.03642 0.31977
 C126 C 0.31716 0.03375 0.37287
 O127 O 0.65412 -0.02531 0.61736
 O128 O 0.61763 0.02634 0.65968
 O129 O 0.65351 0.02756 0.61749
 O130 O 0.61807 -0.02494 0.65954
 O131 O 0.65770 -0.02511 0.68652
 O132 O 0.69325 0.02708 0.64426
 O133 O 0.65744 0.02741 0.68642
 O134 O 0.69353 -0.02450 0.64449
 Cu135 Cu 0.63201 0.00087 0.63556
 Cu136 Cu 0.67937 0.00127 0.66824
 C137 C 0.68009 -0.03369 0.62373
 C138 C 0.63129 0.03544 0.68036
 C139 C 0.67945 0.03619 0.62368
 C140 C 0.63176 -0.03371 0.68033
 O141 O 0.39002 0.97343 0.65480
 O142 O 0.35050 1.02571 0.61582
 O143 O 0.38932 1.02579 0.65525
 O144 O 0.35151 0.97321 0.61526
 O145 O 0.31418 0.97291 0.64500
 O146 O 0.35237 1.02479 0.68529
 O147 O 0.31334 1.02456 0.64570
 O148 O 0.35294 0.97277 0.68472
 Cu149 Cu 0.37406 0.99964 0.63226
 Cu150 Cu 0.32954 0.99869 0.66822
 C151 C 0.37819 0.96417 0.67646
 C152 C 0.32506 1.03391 0.62407
 C153 C 0.37736 1.03420 0.67718
 C154 C 0.32630 0.96421 0.62328
 O155 O 0.65163 1.02549 0.38366
 O156 O 0.61092 0.97531 0.34288
 O157 O 0.65001 0.97281 0.38295
 O158 O 0.61298 1.02712 0.34493
 O159 O 0.64863 1.02501 0.31358
 O160 O 0.68784 0.97381 0.35382
 O161 O 0.64922 0.97294 0.31424
 O162 O 0.68799 1.02570 0.35311
 Cu163 Cu 0.62774 0.99998 0.36676
 Cu164 Cu 0.67214 0.99934 0.33069
 C165 C 0.67658 1.03465 0.37509
 C166 C 0.62313 0.96567 0.32161
 C167 C 0.67554 0.96438 0.37514
 C168 C 0.62434 1.03502 0.32257
 C169 C 0.81658 0.78403 0.48466
 C170 C 0.81670 0.78435 0.51353
 C171 C 0.79785 0.80246 0.52727
 C172 C 0.78005 0.82082 0.51300
 C173 C 0.78009 0.82047 0.48420
 C174 C 0.79795 0.80171 0.47042
 H175 H 0.79877 0.80200 0.44832
 H176 H 0.79820 0.80329 0.54935
 C177 C 0.18093 0.21345 0.48814
 C178 C 0.18361 0.21498 0.51696
 C179 C 0.20204 0.19645 0.53049
 C180 C 0.21739 0.17638 0.51620
 C181 C 0.21494 0.17502 0.48758
 C182 C 0.19701 0.19367 0.47394
 H183 H 0.19471 0.19211 0.45200
 H184 H 0.20385 0.19715 0.55252
 C185 C 0.19016 0.77950 0.51868
 C186 C 0.18608 0.78036 0.48990
 C187 C 0.20136 0.80020 0.47484
 C188 C 0.21986 0.81920 0.48745
 C189 C 0.22386 0.81818 0.51590
 C190 C 0.20954 0.79814 0.53102
 H191 H 0.21226 0.79800 0.55298
 H192 H 0.19799 0.80161 0.45302
 C193 C 0.80921 0.22102 0.51083
 C194 C 0.81005 0.22058 0.48199
 C195 C 0.79313 0.20121 0.46804
 C196 C 0.77649 0.18163 0.48207
 C197 C 0.77569 0.18228 0.51090
 C198 C 0.79163 0.20221 0.52490
 H199 H 0.79194 0.20199 0.54700
 H200 H 0.79376 0.20078 0.44595
 C201 C 0.48732 0.82948 0.79349
 C202 C 0.51909 0.83083 0.79471
 C203 C 0.53436 0.81357 0.81245
 C204 C 0.51897 0.79565 0.82959
 C205 C 0.48711 0.79518 0.82928
 C206 C 0.47186 0.81184 0.81091
 H207 H 0.44755 0.81135 0.81038
 H208 H 0.55865 0.81434 0.81323
 C209 C 0.48315 0.16983 0.20676
 C210 C 0.51455 0.17209 0.20996
 C211 C 0.53052 0.19114 0.19482
 C212 C 0.51603 0.20770 0.17591
 C213 C 0.48460 0.20502 0.17202
 C214 C 0.46858 0.18635 0.18785
 H215 H 0.44459 0.18420 0.18500
 H216 H 0.55463 0.19269 0.19740
 C217 C 0.51735 0.16710 0.79774
 C218 C 0.48550 0.16721 0.79740
 C219 C 0.46984 0.18366 0.81578
 C220 C 0.48502 0.20053 0.83401
 C221 C 0.51679 0.20182 0.83300
 C222 C 0.53246 0.18483 0.81520
 H223 H 0.55678 0.18523 0.81518
 H224 H 0.44553 0.18306 0.81613
 C225 C 0.51399 0.83298 0.20210
 C226 C 0.48217 0.83203 0.20192
 C227 C 0.46749 0.81491 0.18361
 C228 C 0.48360 0.79789 0.16618
 C229 C 0.51535 0.79705 0.16813
 C230 C 0.53010 0.81496 0.18566
 H231 H 0.55441 0.81507 0.18624
 H232 H 0.44319 0.81509 0.18272
 C233 C 0.77469 0.48411 0.81811
 C234 C 0.77221 0.51230 0.81782
 C235 C 0.78737 0.52691 0.79766
 C236 C 0.80652 0.51436 0.77884
 C237 C 0.80984 0.48607 0.77972
 C238 C 0.79314 0.47133 0.79892
 H239 H 0.79594 0.44978 0.80011
 H240 H 0.78534 0.54856 0.79750
 C241 C 0.23046 0.48805 0.18405
 C242 C 0.22967 0.51637 0.18523
 C243 C 0.21229 0.52883 0.20554
 C244 C 0.19480 0.51377 0.22380
 C245 C 0.19523 0.48549 0.22226
 C246 C 0.21363 0.47301 0.20279
 H247 H 0.21334 0.45134 0.20105
 H248 H 0.21102 0.55052 0.20617
 C249 C 0.77766 0.51382 0.18073
 C250 C 0.78118 0.48572 0.17971
 C251 C 0.80068 0.47335 0.19821
 C252 C 0.81770 0.48833 0.21687
 C253 C 0.81416 0.51659 0.21771
 C254 C 0.79365 0.52879 0.19995
 H255 H 0.79111 0.55040 0.20020
 H256 H 0.80364 0.45181 0.19723
 C257 C 0.21774 0.50994 0.82365
 C258 C 0.21825 0.48156 0.82188
 C259 C 0.20115 0.46880 0.80165
 C260 C 0.18284 0.48340 0.78395
 C261 C 0.18194 0.51161 0.78591
 C262 C 0.19986 0.52453 0.80539
 H263 H 0.19878 0.54617 0.80718
 H264 H 0.20123 0.44711 0.80026
 C265 C 0.28395 0.42644 0.09640
 C266 C 0.31531 0.42203 0.09738
 C267 C 0.32943 0.40670 0.07701
 C268 C 0.31246 0.39439 0.05650
 C269 C 0.28129 0.39792 0.05616
 C270 C 0.26719 0.41396 0.07565
 C271 C 0.26980 0.44330 0.11819
 C272 C 0.23947 0.45125 0.11745
 C273 C 0.22712 0.46629 0.13866
 C274 C 0.24458 0.47357 0.16111
 C275 C 0.27480 0.46604 0.16206
 C276 C 0.28777 0.45173 0.14036
 C277 C 0.33215 0.43214 0.11916
 C278 C 0.31854 0.44609 0.14053
 H279 H 0.35610 0.42857 0.12009
 H280 H 0.33241 0.45290 0.15727
 H281 H 0.35347 0.40347 0.07769
 H282 H 0.26780 0.38840 0.04057
 H283 H 0.20371 0.47203 0.13775
 H284 H 0.28822 0.47155 0.17958
 H285 H 0.24312 0.41582 0.07447
 H286 H 0.22502 0.44625 0.10060
 C287 C 0.71254 0.57231 0.09802
 C288 C 0.72926 0.58101 0.07506
 C289 C 0.71553 0.59672 0.05498
 C290 C 0.68489 0.60270 0.05663
 C291 C 0.66787 0.59268 0.07840
 C292 C 0.68154 0.57785 0.09906
 C293 C 0.72856 0.55718 0.11992
 C294 C 0.71528 0.55115 0.14534
 C295 C 0.73138 0.53733 0.16524
 C296 C 0.76058 0.52853 0.15987
 C297 C 0.77426 0.53480 0.13497
 C298 C 0.75876 0.54962 0.11526
 C299 C 0.75939 0.57361 0.07207
 C300 C 0.77359 0.55764 0.09140
 H301 H 0.77205 0.57991 0.05429
 H302 H 0.79680 0.55210 0.08797
 H303 H 0.72854 0.60389 0.03772
 H304 H 0.64408 0.59690 0.07976
 H305 H 0.72091 0.53313 0.18474
 H306 H 0.79725 0.52864 0.13129
 H307 H 0.66750 0.57071 0.11549
 H308 H 0.69280 0.55745 0.15041
 C309 C 0.72122 0.41968 0.90373
 C310 C 0.68956 0.41733 0.90382
 C311 C 0.67504 0.40280 0.92453
 C312 C 0.69171 0.38938 0.94446
 C313 C 0.72310 0.39067 0.94363
 C314 C 0.73774 0.40581 0.92368
 C315 C 0.73578 0.43629 0.88195
 C316 C 0.76668 0.44243 0.88184
 C317 C 0.77911 0.45810 0.86111
 C318 C 0.76115 0.46773 0.83997
 C319 C 0.73054 0.46149 0.83959
 C320 C 0.71754 0.44669 0.86089
 C321 C 0.67266 0.42896 0.88293
 C322 C 0.68643 0.44278 0.86157
 H323 H 0.64845 0.42691 0.88281
 H324 H 0.67242 0.45103 0.84564
 H325 H 0.65075 0.40132 0.92475
 H326 H 0.73636 0.38026 0.95875
 H327 H 0.80285 0.46279 0.86154
 H328 H 0.71680 0.46851 0.82287
 H329 H 0.76193 0.40609 0.92402
 H330 H 0.78148 0.43576 0.89779
 C331 C 0.28129 0.57030 0.90691
 C332 C 0.29864 0.59244 0.89789
 C333 C 0.31359 0.60871 0.91689
 C334 C 0.31209 0.60281 0.94472
 C335 C 0.29589 0.58046 0.95366
 C336 C 0.28057 0.56434 0.93502
 C337 C 0.26457 0.55418 0.88606
 C338 C 0.24469 0.53323 0.89303
 C339 C 0.22939 0.51905 0.87283
 C340 C 0.23396 0.52498 0.84520
 C341 C 0.25328 0.54605 0.83805
 C342 C 0.26830 0.56083 0.85819
 C343 C 0.30105 0.59816 0.87003
 C344 C 0.28655 0.58247 0.85059
 H345 H 0.31453 0.61496 0.86312
 H346 H 0.28929 0.58764 0.82927
 H347 H 0.32642 0.62596 0.91008
 H348 H 0.29476 0.57571 0.97519
 H349 H 0.21384 0.50339 0.87882
 H350 H 0.25648 0.55099 0.81670
 H351 H 0.26839 0.54737 0.94302
 H352 H 0.24026 0.52776 0.91392
 C353 C 0.10166 0.28069 0.42396
 C354 C 0.07310 0.28656 0.43516
 C355 C 0.05314 0.30307 0.42086
 C356 C 0.06053 0.31244 0.39479
 C357 C 0.08808 0.30552 0.38306
 C358 C 0.10866 0.29008 0.39758
 C359 C 0.12276 0.26386 0.44030
 C360 C 0.15296 0.25997 0.43281
 C361 C 0.17170 0.24397 0.44865
 C362 C 0.16075 0.23111 0.47209
 C363 C 0.13061 0.23476 0.47961
 C364 C 0.11199 0.25188 0.46459
 C365 C 0.06429 0.27518 0.46005
 C366 C 0.08301 0.25759 0.47405
 H367 H 0.04229 0.27939 0.46847
 H368 H 0.07492 0.24881 0.49291
 H369 H 0.03138 0.30786 0.42954
 H370 H 0.09381 0.31235 0.36273
 H371 H 0.19494 0.24165 0.44258
 H372 H 0.12176 0.22460 0.49744
 H373 H 0.12957 0.28524 0.38761
 H374 H 0.16268 0.26952 0.41513
 C375 C 0.10977 0.71557 0.58536
 C376 C 0.10422 0.68890 0.57699
 C377 C 0.08176 0.67369 0.59005
 C378 C 0.06524 0.68456 0.61185
 C379 C 0.07200 0.71051 0.62091
 C380 C 0.09390 0.72582 0.60792
 C381 C 0.13213 0.73189 0.56970
 C382 C 0.13610 0.75949 0.57427
 C383 C 0.15559 0.77435 0.55805
 C384 C 0.17212 0.76215 0.53711
 C385 C 0.16945 0.73438 0.53311
 C386 C 0.14869 0.71939 0.54856
 C387 C 0.12112 0.67768 0.55571
 C388 C 0.14328 0.69244 0.54215
 H389 H 0.11719 0.65714 0.54946
 H390 H 0.15569 0.68287 0.52581
 H391 H 0.07714 0.65344 0.58323
 H392 H 0.05991 0.71931 0.63788
 H393 H 0.15699 0.79579 0.56131
 H394 H 0.18215 0.72485 0.51691
 H395 H 0.09799 0.74560 0.61593
 H396 H 0.12352 0.77030 0.58950
 C397 C 0.90280 0.72287 0.42181
 C398 C 0.89576 0.69568 0.41659
 C399 C 0.91644 0.67932 0.40280
 C400 C 0.94336 0.69006 0.39276
 C401 C 0.94951 0.71733 0.39646
 C402 C 0.92964 0.73356 0.41104
 C403 C 0.88102 0.73921 0.43808
 C404 C 0.88777 0.76513 0.44775
 C405 C 0.86680 0.77943 0.46310
 C406 C 0.83859 0.76841 0.46877
 C407 C 0.83141 0.74282 0.45908
 C408 C 0.85283 0.72775 0.44472
 C409 C 0.86795 0.68518 0.42468
 C410 C 0.84661 0.70109 0.43777
 H411 H 0.86236 0.66447 0.42035
 H412 H 0.82521 0.69218 0.44319
 H413 H 0.91134 0.65833 0.39936
 H414 H 0.97013 0.72597 0.38862
 H415 H 0.87252 0.79922 0.47055
 H416 H 0.80954 0.73435 0.46362
 H417 H 0.93551 0.75441 0.41342
 H418 H 0.90930 0.77443 0.44418
 C419 C 0.89309 0.28818 0.56973
 C420 C 0.92055 0.27623 0.57748
 C421 C 0.94170 0.29103 0.59234
 C422 C 0.93671 0.31811 0.59826
 C423 C 0.91043 0.33047 0.58916
 C424 C 0.88863 0.31563 0.57529
 C425 C 0.87039 0.27118 0.55528
 C426 C 0.84081 0.27978 0.55019
 C427 C 0.82061 0.26317 0.53641
 C428 C 0.82979 0.23811 0.52674
 C429 C 0.85873 0.22895 0.53246
 C430 C 0.87882 0.24500 0.54720
 C431 C 0.92702 0.24982 0.56987
 C432 C 0.90693 0.23479 0.55439
 H433 H 0.94822 0.24080 0.57547
 H434 H 0.91324 0.21463 0.54850
 H435 H 0.96243 0.28167 0.59883
 H436 H 0.90646 0.35148 0.59338
 H437 H 0.79798 0.27012 0.53271
 H438 H 0.86542 0.20916 0.52563
 H439 H 0.86866 0.32599 0.56882
 H440 H 0.83279 0.29904 0.55703
 C441 C 0.41433 0.09142 0.26845
 C442 C 0.41953 0.09032 0.29689
 C443 C 0.40465 0.07116 0.31297
 C444 C 0.38372 0.05358 0.30133
 C445 C 0.37772 0.05538 0.27336
 C446 C 0.39291 0.07392 0.25705
 C447 C 0.43154 0.11149 0.25185
 C448 C 0.43008 0.11265 0.22316
 C449 C 0.44682 0.13160 0.20866
 C450 C 0.46521 0.14994 0.22235
 C451 C 0.46642 0.14925 0.25088
 C452 C 0.45050 0.12977 0.26562
 C453 C 0.43919 0.10858 0.30917
 C454 C 0.45391 0.12820 0.29394
 H455 H 0.44297 0.10791 0.33097
 H456 H 0.46865 0.14205 0.30443
 H457 H 0.40900 0.07021 0.33468
 H458 H 0.36153 0.04209 0.26395
 H459 H 0.44565 0.13178 0.18660
 H460 H 0.47986 0.16390 0.26164
 H461 H 0.38740 0.07435 0.23568
 H462 H 0.41660 0.09885 0.21151
 C463 C 0.58651 0.09307 0.73087
 C464 C 0.57450 0.06699 0.72752
 C465 C 0.58900 0.04851 0.71043
 C466 C 0.61623 0.05514 0.69782
 C467 C 0.62905 0.08035 0.70228
 C468 C 0.61423 0.09930 0.71839
 C469 C 0.56947 0.11266 0.74813
 C470 C 0.57711 0.14002 0.74979
 C471 C 0.56014 0.15755 0.76580
 C472 C 0.53546 0.14821 0.78089
 C473 C 0.52811 0.12086 0.77978
 C474 C 0.54405 0.10336 0.76270
 C475 C 0.54856 0.05932 0.74172
 C476 C 0.53412 0.07690 0.75951
 H477 H 0.53959 0.03924 0.73944
 H478 H 0.51439 0.06989 0.77036
 H479 H 0.57955 0.02868 0.70746
 H480 H 0.65032 0.08553 0.69288
 H481 H 0.56612 0.17859 0.76611
 H482 H 0.50946 0.11328 0.79175
 H483 H 0.62498 0.11849 0.72115
 H484 H 0.59561 0.14837 0.73835
 C485 C 0.42412 0.90345 0.72278
 C486 C 0.40074 0.91865 0.73477
 C487 C 0.38560 0.93806 0.71939
 C488 C 0.39393 0.94329 0.69230
 C489 C 0.41755 0.92867 0.68063
 C490 C 0.43240 0.90892 0.69558
 C491 C 0.43959 0.88281 0.73993
 C492 C 0.46186 0.86549 0.72958
 C493 C 0.47649 0.84744 0.74673
 C494 C 0.46963 0.84650 0.77463
 C495 C 0.44653 0.86270 0.78486
 C496 C 0.43139 0.88064 0.76775
 C497 C 0.39299 0.91481 0.76218
 C498 C 0.40828 0.89650 0.77842
 H499 H 0.37519 0.92653 0.77139
 H500 H 0.40183 0.89467 0.79966
 H501 H 0.36767 0.94953 0.72875
 H502 H 0.42449 0.93238 0.65979
 H503 H 0.49379 0.83461 0.73834
 H504 H 0.44093 0.86184 0.80637
 H505 H 0.45048 0.89844 0.68557
 H506 H 0.46835 0.86560 0.70839
 C507 C 0.57541 0.91098 0.27009
 C508 C 0.60201 0.90269 0.28331
 C509 C 0.61785 0.92079 0.29988
 C510 C 0.60649 0.94649 0.30476
 C511 C 0.57924 0.95414 0.29307
 C512 C 0.56395 0.93671 0.27570
 C513 C 0.56008 0.89165 0.25139
 C514 C 0.53636 0.89922 0.23419
 C515 C 0.52229 0.88034 0.21760
 C516 C 0.53078 0.85328 0.21835
 C517 C 0.55542 0.84582 0.23439
 C518 C 0.57051 0.86491 0.25038
 C519 C 0.61213 0.87627 0.28041
 C520 C 0.59621 0.85757 0.26495
 H521 H 0.63225 0.86976 0.29081
 H522 H 0.60452 0.83720 0.26391
 H523 H 0.63865 0.91474 0.30948
 H524 H 0.57013 0.97390 0.29693
 H525 H 0.50436 0.88688 0.20434
 H526 H 0.56271 0.82511 0.23457
 H527 H 0.54304 0.94357 0.26718
 H528 H 0.52868 0.91967 0.23296
 C529 C 0.42103 0.26566 0.91307
 C530 C 0.39498 0.27925 0.90414
 C531 C 0.37930 0.29614 0.92216
 C532 C 0.39027 0.30076 0.94844
 C533 C 0.41672 0.28830 0.95687
 C534 C 0.43185 0.27074 0.93953
 C535 C 0.43673 0.24734 0.89355
 C536 C 0.46050 0.23053 0.90143
 C537 C 0.47531 0.21470 0.88224
 C538 C 0.46734 0.21570 0.85463
 C539 C 0.44257 0.23120 0.84683
 C540 C 0.42692 0.24663 0.86616
 C541 C 0.38541 0.27657 0.87710
 C542 C 0.40149 0.26115 0.85834
 H543 H 0.36567 0.28716 0.87014
 H544 H 0.39367 0.26033 0.83746
 H545 H 0.35914 0.30634 0.91553
 H546 H 0.42555 0.29203 0.97708
 H547 H 0.49347 0.20193 0.88893
 H548 H 0.43577 0.23153 0.82564
 H549 H 0.45226 0.26183 0.94700
 H550 H 0.46782 0.22915 0.92231
 C551 C 0.58430 0.72862 0.90577
 C552 C 0.57476 0.70166 0.90836
 C553 C 0.58801 0.68488 0.92788
 C554 C 0.61135 0.69433 0.94447
 C555 C 0.62147 0.72075 0.94117
 C556 C 0.60811 0.73773 0.92219
 C557 C 0.56872 0.74621 0.88554
 C558 C 0.57462 0.77387 0.88323
 C559 C 0.55880 0.78960 0.86473
 C560 C 0.53691 0.77820 0.84786
 C561 C 0.53147 0.75053 0.84939
 C562 C 0.54650 0.73467 0.86862
 C563 C 0.55226 0.69157 0.89131
 C564 C 0.53877 0.70760 0.87158
 H565 H 0.54510 0.67088 0.89311
 H566 H 0.52156 0.69882 0.85881
 H567 H 0.58037 0.66433 0.92996
 H568 H 0.63955 0.72850 0.95361
 H569 H 0.56317 0.81095 0.86407
 H570 H 0.51473 0.74155 0.83624
 H571 H 0.61690 0.75781 0.92063
 H572 H 0.59077 0.78392 0.89597
 C573 C 0.42136 0.73245 0.08628
 C574 C 0.39406 0.72021 0.09442
 C575 C 0.37839 0.70369 0.07612
 C576 C 0.39058 0.69790 0.05045
 C577 C 0.41825 0.70894 0.04289
 C578 C 0.43338 0.72627 0.06044
 C579 C 0.43698 0.75054 0.10603
 C580 C 0.46188 0.76640 0.09869
 C581 C 0.47629 0.78227 0.11804
 C582 C 0.46686 0.78216 0.14536
 C583 C 0.44114 0.76745 0.15257
 C584 C 0.42580 0.75215 0.13300
 C585 C 0.38324 0.72378 0.12102
 C586 C 0.39921 0.73880 0.14012
 H587 H 0.36255 0.71418 0.12741
 H588 H 0.39035 0.74034 0.16066
 H589 H 0.35731 0.69450 0.08216
 H590 H 0.42806 0.70428 0.02322
 H591 H 0.49515 0.79450 0.11168
 H592 H 0.43319 0.76777 0.17348
 H593 H 0.45473 0.73408 0.05367
 H594 H 0.47029 0.76711 0.07805
 C595 C 0.58101 0.27776 0.10221
 C596 C 0.60511 0.26626 0.08741
 C597 C 0.62001 0.28117 0.06721
 C598 C 0.61073 0.30726 0.06081
 C599 C 0.58663 0.31850 0.07525
 C600 C 0.57201 0.30405 0.09575
 C601 C 0.56542 0.26100 0.12333
 C602 C 0.54205 0.27084 0.14000
 C603 C 0.52692 0.25385 0.15804
 C604 C 0.53450 0.22666 0.15966
 C605 C 0.55886 0.21705 0.14440
 C606 C 0.57438 0.23396 0.12639
 C607 C 0.61371 0.23973 0.09232
 C608 C 0.59841 0.22382 0.11113
 H609 H 0.63212 0.23092 0.08097
 H610 H 0.60545 0.20320 0.11369
 H611 H 0.63839 0.27216 0.05597
 H612 H 0.57900 0.33860 0.07072
 H613 H 0.50859 0.26173 0.17016
 H614 H 0.56497 0.19607 0.14582
 H615 H 0.55346 0.31367 0.10594
 H616 H 0.53491 0.29145 0.13924
 C617 C 0.27671 0.09341 0.57855
 C618 C 0.30848 0.09386 0.57913
 C619 C 0.32421 0.07398 0.59345
 C620 C 0.30869 0.05436 0.60836
 C621 C 0.27725 0.05457 0.60861
 C622 C 0.26141 0.07368 0.59375
 C623 C 0.26077 0.11446 0.56237
 C624 C 0.22948 0.11414 0.55819
 C625 C 0.21568 0.13427 0.54305
 C626 C 0.23262 0.15524 0.53196
 C627 C 0.26367 0.15596 0.53607
 C628 C 0.27797 0.13529 0.55044
 C629 C 0.32427 0.11448 0.56601
 C630 C 0.30931 0.13508 0.55249
 H631 H 0.34856 0.11501 0.56666
 H632 H 0.32252 0.15083 0.54307
 H633 H 0.34854 0.07424 0.59368
 H634 H 0.26484 0.03968 0.62012
 H635 H 0.19163 0.13353 0.53994
 H636 H 0.27669 0.17243 0.52777
 H637 H 0.23726 0.07289 0.59480
 H638 H 0.21535 0.09834 0.56605
 C639 C 0.72152 0.09590 0.41913
 C640 C 0.69186 0.08842 0.42619
 C641 C 0.67742 0.06761 0.41205
 C642 C 0.69148 0.05483 0.38983
 C643 C 0.72054 0.06309 0.38231
 C644 C 0.73545 0.08312 0.39685
 C645 C 0.73643 0.11770 0.43521
 C646 C 0.76683 0.12475 0.43170
 C647 C 0.77959 0.14534 0.44706
 C648 C 0.76239 0.15965 0.46610
 C649 C 0.73207 0.15289 0.46963
 C650 C 0.71928 0.13155 0.45504
 C651 C 0.67649 0.10223 0.44681
 C652 C 0.68967 0.12372 0.46049
 H653 H 0.65367 0.09671 0.45207
 H654 H 0.67665 0.13406 0.47593
 H655 H 0.65478 0.06199 0.41791
 H656 H 0.73207 0.05392 0.36522
 H657 H 0.80313 0.15004 0.44417
 H658 H 0.71835 0.16432 0.48364
 H659 H 0.75764 0.08861 0.38999
 H660 H 0.78126 0.11433 0.41755
 C661 C 0.72486 0.90616 0.57570
 C662 C 0.69315 0.90637 0.57755
 C663 C 0.67851 0.92652 0.59258
 C664 C 0.69514 0.94581 0.60687
 C665 C 0.72654 0.94506 0.60566
 C666 C 0.74126 0.92567 0.59015
 C667 C 0.73965 0.88463 0.55915
 C668 C 0.77080 0.88407 0.55413
 C669 C 0.78357 0.86336 0.53896
 C670 C 0.76571 0.84270 0.52858
 C671 C 0.73472 0.84293 0.53341
 C672 C 0.72147 0.86413 0.54795
 C673 C 0.67634 0.88607 0.56505
 C674 C 0.69023 0.86512 0.55103
 H675 H 0.65207 0.88607 0.56661
 H676 H 0.67625 0.84962 0.54216
 H677 H 0.65422 0.92669 0.59388
 H678 H 0.73982 0.95969 0.61663
 H679 H 0.80756 0.86340 0.53530
 H680 H 0.72097 0.82666 0.52579
 H681 H 0.76545 0.92606 0.59017
 H682 H 0.78567 0.89953 0.56143
 C683 C 0.27299 0.90336 0.42128
 C684 C 0.30441 0.90708 0.42338
 C685 C 0.31874 0.92722 0.40814
 C686 C 0.30238 0.94325 0.39005
 C687 C 0.27141 0.93909 0.38747
 C688 C 0.25682 0.91953 0.40296
 C689 C 0.25848 0.88197 0.43826
 C690 C 0.22718 0.87784 0.43908
 C691 C 0.21482 0.85751 0.45513
 C692 C 0.23329 0.84077 0.47061
 C693 C 0.26442 0.84452 0.46978
 C694 C 0.27707 0.86532 0.45431
 C695 C 0.32142 0.89039 0.44025
 C696 C 0.30810 0.86968 0.45506
 H697 H 0.34549 0.89311 0.44173
 H698 H 0.32228 0.85709 0.46756
 H699 H 0.34278 0.93002 0.40993
 H700 H 0.25832 0.95116 0.37357
 H701 H 0.19068 0.85490 0.45560
 H702 H 0.27883 0.83112 0.48110
 H703 H 0.23300 0.91723 0.40002
 H704 H 0.21183 0.89022 0.42778
 C705 C 0.10092 0.42464 0.71451
 C706 C 0.07593 0.41239 0.72737
 C707 C 0.05531 0.39754 0.71191
 C708 C 0.05830 0.39588 0.68352
 C709 C 0.08228 0.40899 0.67063
 C710 C 0.10354 0.42300 0.68591
 C711 C 0.12295 0.43954 0.73187
 C712 C 0.15039 0.44959 0.72169
 C713 C 0.17004 0.46351 0.73872
 C714 C 0.16237 0.46838 0.76594
 C715 C 0.13569 0.45780 0.77655
 C716 C 0.11624 0.44299 0.75988
 C717 C 0.07120 0.41565 0.75541
 C718 C 0.09054 0.43116 0.77120
 H719 H 0.05188 0.40655 0.76522
 H720 H 0.08559 0.43352 0.79271
 H721 H 0.03631 0.38801 0.72186
 H722 H 0.08474 0.40816 0.64867
 H723 H 0.19124 0.47064 0.73061
 H724 H 0.13035 0.46085 0.79791
 H725 H 0.12149 0.43280 0.67495
 H726 H 0.15729 0.44648 0.70083
 C727 C 0.10676 0.56959 0.29006
 C728 C 0.08241 0.58130 0.27601
 C729 C 0.06100 0.59638 0.29029
 C730 C 0.06261 0.59909 0.31868
 C731 C 0.08563 0.58615 0.33286
 C732 C 0.10766 0.57172 0.31873
 C733 C 0.13023 0.55517 0.27370
 C734 C 0.15734 0.54589 0.28502
 C735 C 0.17860 0.53285 0.26873
 C736 C 0.17289 0.52810 0.24112
 C737 C 0.14643 0.53776 0.22949
 C738 C 0.12539 0.55168 0.24539
 C739 C 0.07936 0.57771 0.24784
 C740 C 0.10003 0.56270 0.23297
 H741 H 0.06047 0.58639 0.23717
 H742 H 0.09647 0.56022 0.21127
 H743 H 0.04278 0.60584 0.27932
 H744 H 0.08705 0.58782 0.35484
 H745 H 0.19951 0.52635 0.27772
 H746 H 0.14249 0.53470 0.20791
 H747 H 0.12508 0.56232 0.33055
 H748 H 0.16276 0.54900 0.30620
 C749 C 0.90399 0.42968 0.28224
 C750 C 0.89458 0.40462 0.29281
 C751 C 0.91472 0.38874 0.30766
 C752 C 0.94353 0.39827 0.31352
 C753 C 0.95225 0.42373 0.30453
 C754 C 0.93285 0.43922 0.28881
 C755 C 0.88248 0.44528 0.26511
 C756 C 0.89107 0.46814 0.25014
 C757 C 0.87021 0.48186 0.23426
 C758 C 0.84005 0.47377 0.23373
 C759 C 0.83150 0.45060 0.24801
 C760 C 0.85259 0.43594 0.26301
 C761 C 0.86498 0.39593 0.28906
 C762 C 0.84420 0.41164 0.27516
 H763 H 0.85759 0.37695 0.29750
 H764 H 0.82140 0.40429 0.27325
 H765 H 0.90779 0.36927 0.31528
 H766 H 0.97438 0.43142 0.30927
 H767 H 0.87772 0.49883 0.22229
 H768 H 0.80842 0.44375 0.24706
 H769 H 0.94065 0.45870 0.28233
 H770 H 0.91394 0.47528 0.24985
 C771 C 0.88697 0.57746 0.71110
 C772 C 0.90269 0.59845 0.72428
 C773 C 0.92457 0.61313 0.71012
 C774 C 0.93196 0.60679 0.68308
 C775 C 0.91658 0.58588 0.67004
 C776 C 0.89424 0.57147 0.68378
 C777 C 0.86418 0.56193 0.72726
 C778 C 0.84632 0.54138 0.71597
 C779 C 0.82666 0.52656 0.73239
 C780 C 0.82468 0.53165 0.76045
 C781 C 0.84131 0.55284 0.77157
 C782 C 0.86074 0.56806 0.75527
 C783 C 0.89720 0.60420 0.75177
 C784 C 0.87697 0.58909 0.76703
 H785 H 0.90929 0.62024 0.76184
 H786 H 0.87406 0.59392 0.78842
 H787 H 0.93656 0.62902 0.72054
 H788 H 0.92192 0.58056 0.64917
 H789 H 0.81352 0.51062 0.72333
 H790 H 0.83981 0.55695 0.79324
 H791 H 0.88339 0.55543 0.67284
 H792 H 0.84733 0.53635 0.69460
 C793 C 0.71723 0.57524 0.90394
 C794 C 0.68657 0.57058 0.90983
 C795 C 0.67212 0.58538 0.93043
 C796 C 0.68738 0.60589 0.94444
 C797 C 0.71750 0.61110 0.93758
 C798 C 0.73227 0.59591 0.91785
 C799 C 0.73209 0.55856 0.88242
 C800 C 0.76315 0.55971 0.87714
 C801 C 0.77583 0.54428 0.85643
 C802 C 0.75796 0.52746 0.84037
 C803 C 0.72706 0.52599 0.84552
 C804 C 0.71417 0.54076 0.86696
 C805 C 0.67034 0.55174 0.89461
 C806 C 0.68367 0.53763 0.87320
 H807 H 0.64677 0.54831 0.89889
 H808 H 0.67000 0.52372 0.86165
 H809 H 0.64870 0.58135 0.93495
 H810 H 0.73000 0.62684 0.94771
 H811 H 0.79979 0.54554 0.85280
 H812 H 0.71297 0.51366 0.83270
 H813 H 0.75531 0.60103 0.91348
 H814 H 0.77809 0.57214 0.88891
 C815 C 0.27904 0.41648 0.90291
 C816 C 0.30862 0.42389 0.91015
 C817 C 0.32385 0.40975 0.93069
 C818 C 0.31028 0.38773 0.94385
 C819 C 0.28123 0.38005 0.93585
 C820 C 0.26585 0.39417 0.91581
 C821 C 0.26311 0.43259 0.88165
 C822 C 0.23290 0.42806 0.87467
 C823 C 0.21883 0.44386 0.85515
 C824 C 0.23443 0.46449 0.84184
 C825 C 0.26469 0.46900 0.84831
 C826 C 0.27890 0.45362 0.86851
 C827 C 0.32286 0.44520 0.89668
 C828 C 0.30847 0.45950 0.87607
 H829 H 0.34560 0.45081 0.90202
 H830 H 0.32053 0.47572 0.86620
 H831 H 0.34640 0.41584 0.93621
 H832 H 0.27003 0.36310 0.94524
 H833 H 0.19536 0.44025 0.85076
 H834 H 0.27695 0.48484 0.83801
 H835 H 0.24371 0.38711 0.91067
 H836 H 0.21947 0.41280 0.88439
 C837 C 0.28339 0.58112 0.09937
 C838 C 0.31374 0.57597 0.09266
 C839 C 0.32774 0.59012 0.07132
 C840 C 0.31230 0.61025 0.05700
 C841 C 0.28247 0.61589 0.06450
 C842 C 0.26818 0.60149 0.08520
 C843 C 0.26896 0.56493 0.12161
 C844 C 0.23821 0.56682 0.12816
 C845 C 0.22579 0.55112 0.14887
 C846 C 0.24364 0.53331 0.16375
 C847 C 0.27435 0.53158 0.15773
 C848 C 0.28692 0.54663 0.13633
 C849 C 0.33009 0.55705 0.10757
 C850 C 0.31712 0.54306 0.12925
 H851 H 0.35342 0.55324 0.10263
 H852 H 0.33082 0.52885 0.14032
 H853 H 0.35092 0.58569 0.06625
 H854 H 0.26984 0.63136 0.05417
 H855 H 0.20198 0.55264 0.15310
 H856 H 0.28847 0.51849 0.16966
 H857 H 0.24533 0.60684 0.08995
 H858 H 0.22324 0.57989 0.11723
 C859 C 0.72379 0.42031 0.09680
 C860 C 0.69344 0.42593 0.09074
 C861 C 0.67850 0.41131 0.07040
 C862 C 0.69284 0.38998 0.05688
 C863 C 0.72258 0.38376 0.06394
 C864 C 0.73792 0.39881 0.08338
 C865 C 0.73927 0.43699 0.11788
 C866 C 0.77028 0.43515 0.12304
 C867 C 0.78363 0.45108 0.14298
 C868 C 0.76645 0.46899 0.15853
 C869 C 0.73553 0.47086 0.15364
 C870 C 0.72208 0.45574 0.13286
 C871 C 0.67796 0.44558 0.10555
 C872 C 0.69176 0.45968 0.12663
 H873 H 0.65460 0.44971 0.10117
 H874 H 0.67867 0.47431 0.13783
 H875 H 0.65535 0.41610 0.06576
 H876 H 0.73434 0.36734 0.05419
 H877 H 0.80761 0.44955 0.14614
 H878 H 0.72191 0.48409 0.16598
 H879 H 0.76064 0.39297 0.08795
 H880 H 0.78470 0.42196 0.11155
 C881 C 0.90151 0.72186 0.57706
 C882 C 0.90639 0.69495 0.56912
 C883 C 0.92730 0.67908 0.58322
 C884 C 0.94220 0.68912 0.60635
 C885 C 0.93599 0.71548 0.61485
 C886 C 0.91625 0.73167 0.60032
 C887 C 0.88001 0.73848 0.56089
 C888 C 0.87660 0.76626 0.56491
 C889 C 0.85618 0.78087 0.54941
 C890 C 0.83828 0.76819 0.52978
 C891 C 0.84140 0.74048 0.52577
 C892 C 0.86289 0.72580 0.54037
 C893 C 0.88970 0.68387 0.54772
 C894 C 0.86783 0.69874 0.53417
 H895 H 0.89308 0.66317 0.54178
 H896 H 0.85508 0.68909 0.51815
 H897 H 0.93114 0.65862 0.57666
 H898 H 0.94674 0.72392 0.63267
 H899 H 0.85452 0.80229 0.55263
 H900 H 0.82712 0.73028 0.51133
 H901 H 0.91242 0.75165 0.60796
 H902 H 0.88994 0.77718 0.57948
 C903 C 0.89447 0.28775 0.42244
 C904 C 0.91118 0.27532 0.40141
 C905 C 0.93237 0.29012 0.38647
 C906 C 0.93883 0.31694 0.39319
 C907 C 0.92310 0.32885 0.41493
 C908 C 0.90099 0.31459 0.42915
 C909 C 0.87146 0.27137 0.43736
 C910 C 0.85092 0.28252 0.45606
 C911 C 0.83038 0.26621 0.46988
 C912 C 0.83042 0.23836 0.46606
 C913 C 0.84994 0.22726 0.44662
 C914 C 0.86986 0.24357 0.43186
 C915 C 0.90742 0.24796 0.39600
 C916 C 0.88779 0.23227 0.41140
 H917 H 0.92047 0.23834 0.38010
 H918 H 0.88627 0.21105 0.40691
 H919 H 0.94470 0.28025 0.37024
 H920 H 0.92762 0.34936 0.42089
 H921 H 0.81429 0.27544 0.48347
 H922 H 0.84966 0.20582 0.44305
 H923 H 0.88973 0.32470 0.44572
 H924 H 0.85004 0.30380 0.45989
 C925 C 0.10420 0.28648 0.57612
 C926 C 0.08884 0.27565 0.59890
 C927 C 0.06742 0.29104 0.61287
 C928 C 0.05960 0.31679 0.60369
 C929 C 0.07425 0.32711 0.58049
 C930 C 0.09640 0.31231 0.56705
 C931 C 0.12702 0.26937 0.56189
 C932 C 0.14568 0.27898 0.54076
 C933 C 0.16526 0.26169 0.52707
 C934 C 0.16611 0.23435 0.53367
 C935 C 0.14899 0.22503 0.55577
 C936 C 0.12992 0.24234 0.57013
 C937 C 0.09411 0.24918 0.60703
 C938 C 0.11366 0.23269 0.59255
 H939 H 0.08220 0.24081 0.62436
 H940 H 0.11623 0.21209 0.59912
 H941 H 0.05607 0.28242 0.63040
 H942 H 0.06875 0.34679 0.57269
 H943 H 0.17906 0.26950 0.51067
 H944 H 0.14987 0.20401 0.56132
 H945 H 0.10666 0.32117 0.54925
 H946 H 0.14544 0.29970 0.53451
 C947 C 0.10622 0.71237 0.42677
 C948 C 0.08090 0.70132 0.44008
 C949 C 0.06114 0.68462 0.42561
 C950 C 0.06402 0.68175 0.39717
 C951 C 0.08785 0.69476 0.38373
 C952 C 0.10920 0.70919 0.39842
 C953 C 0.12761 0.72881 0.44309
 C954 C 0.15656 0.73524 0.43375
 C955 C 0.17558 0.75103 0.44958
 C956 C 0.16579 0.76188 0.47453
 C957 C 0.13667 0.75557 0.48377
 C958 C 0.11857 0.73753 0.46922
 C959 C 0.07450 0.70856 0.46712
 C960 C 0.09212 0.72739 0.48089
 H961 H 0.05475 0.70063 0.47727
 H962 H 0.08556 0.73333 0.50131
 H963 H 0.04208 0.67577 0.43610
 H964 H 0.09047 0.69324 0.36182
 H965 H 0.19804 0.75501 0.44210
 H966 H 0.12817 0.76422 0.50248
 H967 H 0.12723 0.71867 0.38721
 H968 H 0.16507 0.72758 0.41463
 C969 C 0.58771 0.90736 0.73003
 C970 C 0.57494 0.93308 0.72647
 C971 C 0.58926 0.95202 0.70972
 C972 C 0.61702 0.94624 0.69768
 C973 C 0.63057 0.92143 0.70242
 C974 C 0.61597 0.90202 0.71819
 C975 C 0.57081 0.88720 0.74677
 C976 C 0.57927 0.86006 0.74842
 C977 C 0.56240 0.84194 0.76387
 C978 C 0.53700 0.85044 0.77846
 C979 C 0.52883 0.87758 0.77737
 C980 C 0.54469 0.89565 0.76079
 C981 C 0.54836 0.93991 0.74010
 C982 C 0.53401 0.92183 0.75749
 H983 H 0.53880 0.95972 0.73769
 H984 H 0.51376 0.92820 0.76791
 H985 H 0.57920 0.97154 0.70655
 H986 H 0.65223 0.91690 0.69347
 H987 H 0.56903 0.82107 0.76417
 H988 H 0.50961 0.88453 0.78895
 H989 H 0.62728 0.88316 0.72116
 H990 H 0.59834 0.85231 0.73737
 C991 C 0.41569 0.90363 0.27298
 C992 C 0.39256 0.91897 0.26097
 C993 C 0.37691 0.93800 0.27654
 C994 C 0.38462 0.94272 0.30382
 C995 C 0.40789 0.92787 0.31556
 C996 C 0.42316 0.90848 0.30044
 C997 C 0.43193 0.88361 0.25562
 C998 C 0.45403 0.86624 0.26598
 C999 C 0.46955 0.84890 0.24867
 C1000 C 0.46372 0.84868 0.22062
 C1001 C 0.44078 0.86491 0.21029
 C1002 C 0.42475 0.88217 0.22756
 C1003 C 0.38571 0.91578 0.23332
 C1004 C 0.40177 0.89807 0.21688
 H1005 H 0.36809 0.92760 0.22408
 H1006 H 0.39606 0.89677 0.19546
 H1007 H 0.35925 0.94968 0.26717
 H1008 H 0.41432 0.93121 0.33656
 H1009 H 0.48664 0.83596 0.25712
 H1010 H 0.43596 0.86458 0.18865
 H1011 H 0.44102 0.89787 0.31051
 H1012 H 0.45972 0.86575 0.28731
 C1013 C 0.57873 0.09578 0.27677
 C1014 C 0.58943 0.07235 0.26369
 C1015 C 0.60525 0.05302 0.27863
 C1016 C 0.60899 0.05592 0.30681
 C1017 C 0.59711 0.07841 0.32001
 C1018 C 0.58244 0.09831 0.30517
 C1019 C 0.56292 0.11637 0.25991
 C1020 C 0.55502 0.14185 0.27006
 C1021 C 0.53989 0.16019 0.25359
 C1022 C 0.53161 0.15320 0.22705
 C1023 C 0.54016 0.12834 0.21640
 C1024 C 0.55636 0.11015 0.23241
 C1025 C 0.58343 0.06796 0.23604
 C1026 C 0.56656 0.08613 0.22092
 H1027 H 0.59127 0.04987 0.22609
 H1028 H 0.56190 0.08153 0.19976
 H1029 H 0.61372 0.03521 0.26855
 H1030 H 0.59951 0.08073 0.34186
 H1031 H 0.53408 0.17968 0.26173
 H1032 H 0.53448 0.12338 0.19552
 H1033 H 0.57364 0.11521 0.31634
 H1034 H 0.56069 0.14810 0.29045
 C1035 C 0.42262 0.09428 0.72506
 C1036 C 0.39982 0.07816 0.73681
 C1037 C 0.38478 0.05902 0.72092
 C1038 C 0.39271 0.05497 0.69352
 C1039 C 0.41573 0.07055 0.68206
 C1040 C 0.43043 0.09004 0.69752
 C1041 C 0.43803 0.11456 0.74274
 C1042 C 0.45968 0.13272 0.73271
 C1043 C 0.47427 0.15044 0.75028
 C1044 C 0.46798 0.15023 0.77830
 C1045 C 0.44552 0.13312 0.78830
 C1046 C 0.43041 0.11549 0.77077
 C1047 C 0.39261 0.08078 0.76449
 C1048 C 0.40788 0.09876 0.78119
 H1049 H 0.37526 0.06835 0.77352
 H1050 H 0.40186 0.09964 0.80260
 H1051 H 0.36733 0.04680 0.73011
 H1052 H 0.42235 0.06774 0.66098
 H1053 H 0.49103 0.16399 0.74208
 H1054 H 0.44036 0.13307 0.80992
 H1055 H 0.44807 0.10126 0.68764
 H1056 H 0.46570 0.13356 0.71142
 C1057 C 0.57913 0.72358 0.09702
 C1058 C 0.60325 0.73418 0.08154
 C1059 C 0.61808 0.71807 0.06230
 C1060 C 0.60856 0.69169 0.05741
 C1061 C 0.58430 0.68138 0.07238
 C1062 C 0.56985 0.69700 0.09204
 C1063 C 0.56380 0.74150 0.11724
 C1064 C 0.54082 0.73248 0.13481
 C1065 C 0.52604 0.75034 0.15211
 C1066 C 0.53348 0.77765 0.15209
 C1067 C 0.55744 0.78657 0.13585
 C1068 C 0.57273 0.76872 0.11861
 C1069 C 0.61189 0.76099 0.08478
 C1070 C 0.59665 0.77800 0.10259
 H1071 H 0.63028 0.76915 0.07286
 H1072 H 0.60372 0.79875 0.10385
 H1073 H 0.63651 0.72638 0.05052
 H1074 H 0.57648 0.66110 0.06893
 H1075 H 0.50814 0.74294 0.16510
 H1076 H 0.56355 0.80762 0.13601
 H1077 H 0.55116 0.68806 0.10271
 H1078 H 0.53382 0.71179 0.13543
 C1079 C 0.42366 0.27141 0.09242
 C1080 C 0.39525 0.28191 0.09971
 C1081 C 0.37956 0.29820 0.08126
 C1082 C 0.39275 0.30559 0.05641
 C1083 C 0.42165 0.29660 0.04998
 C1084 C 0.43687 0.27947 0.06761
 C1085 C 0.43897 0.25296 0.11195
 C1086 C 0.46470 0.23815 0.10488
 C1087 C 0.47871 0.22183 0.12407
 C1088 C 0.46811 0.22062 0.15101
 C1089 C 0.44148 0.23411 0.15779
 C1090 C 0.42649 0.24970 0.13829
 C1091 C 0.38319 0.27670 0.12560
 C1092 C 0.39893 0.26163 0.14478
 H1093 H 0.36165 0.28503 0.13139
 H1094 H 0.38907 0.25881 0.16480
 H1095 H 0.35745 0.30572 0.08648
 H1096 H 0.43220 0.30238 0.03093
 H1097 H 0.49824 0.21043 0.11793
 H1098 H 0.43254 0.23259 0.17832
 H1099 H 0.45909 0.27309 0.06170
 H1100 H 0.47404 0.23861 0.08456
 C1101 C 0.57933 0.27333 0.90705
 C1102 C 0.60294 0.26220 0.92257
 C1103 C 0.61803 0.27794 0.94189
 C1104 C 0.60943 0.30457 0.94670
 C1105 C 0.58562 0.31540 0.93172
 C1106 C 0.57081 0.30008 0.91208
 C1107 C 0.56390 0.25586 0.88652
 C1108 C 0.54136 0.26538 0.86893
 C1109 C 0.52685 0.24801 0.85097
 C1110 C 0.53412 0.22070 0.85032
 C1111 C 0.55741 0.21124 0.86684
 C1112 C 0.57243 0.22859 0.88474
 C1113 C 0.61096 0.23529 0.91914
 C1114 C 0.59576 0.21875 0.90090
 H1115 H 0.62895 0.22672 0.93110
 H1116 H 0.60246 0.19793 0.89938
 H1117 H 0.63613 0.26923 0.95363
 H1118 H 0.57848 0.33587 0.93509
 H1119 H 0.50943 0.25581 0.83785
 H1120 H 0.56332 0.19018 0.86621
 H1121 H 0.55257 0.30947 0.90134
 H1122 H 0.53459 0.28610 0.86872
 C1123 C 0.41991 0.72598 0.90314
 C1124 C 0.43114 0.72348 0.92999
 C1125 C 0.41700 0.70622 0.94863
 C1126 C 0.39080 0.69249 0.94141
 C1127 C 0.37883 0.69579 0.91532
 C1128 C 0.39339 0.71210 0.89621
 C1129 C 0.43631 0.74396 0.88361
 C1130 C 0.42936 0.74537 0.85564
 C1131 C 0.44574 0.76208 0.83820
 C1132 C 0.46911 0.77813 0.84823
 C1133 C 0.47558 0.77740 0.87620
 C1134 C 0.46032 0.75968 0.89363
 C1135 C 0.45581 0.73881 0.93832
 C1136 C 0.46961 0.75702 0.92073
 H1137 H 0.46420 0.73713 0.95896
 H1138 H 0.48831 0.76875 0.92828
 H1139 H 0.42573 0.70416 0.96913
 H1140 H 0.35829 0.68557 0.90970
 H1141 H 0.44045 0.76213 0.81667
 H1142 H 0.49320 0.79008 0.88429
 H1143 H 0.38324 0.71402 0.87637
 H1144 H 0.41192 0.73321 0.84673
 C1145 C 0.72247 0.90392 0.42084
 C1146 C 0.69092 0.90637 0.42324
 C1147 C 0.67570 0.92643 0.40868
 C1148 C 0.69137 0.94358 0.39097
 C1149 C 0.72250 0.94061 0.38811
 C1150 C 0.73790 0.92118 0.40290
 C1151 C 0.73798 0.88265 0.43710
 C1152 C 0.76944 0.87986 0.43764
 C1153 C 0.78280 0.85965 0.45299
 C1154 C 0.76523 0.84167 0.46806
 C1155 C 0.73392 0.84406 0.46756
 C1156 C 0.72023 0.86477 0.45276
 C1157 C 0.67473 0.88850 0.43972
 C1158 C 0.68901 0.86789 0.45381
 H1159 H 0.65056 0.89022 0.44144
 H1160 H 0.67543 0.85438 0.46601
 H1161 H 0.65156 0.92830 0.41069
 H1162 H 0.73511 0.95354 0.37451
 H1163 H 0.80704 0.85808 0.45324
 H1164 H 0.72025 0.82975 0.47861
 H1165 H 0.76180 0.91987 0.39971
 H1166 H 0.78418 0.89322 0.42666
 C1167 C 0.28039 0.90368 0.57699
 C1168 C 0.31208 0.90347 0.57879
 C1169 C 0.32705 0.92375 0.59327
 C1170 C 0.31075 0.94350 0.60722
 C1171 C 0.27935 0.94305 0.60633
 C1172 C 0.26430 0.92357 0.59123
 C1173 C 0.26529 0.88215 0.56075
 C1174 C 0.23428 0.88228 0.55523
 C1175 C 0.22118 0.86155 0.54036
 C1176 C 0.23857 0.84017 0.53089
 C1177 C 0.26942 0.83975 0.53612
 C1178 C 0.28304 0.86101 0.55023
 C1179 C 0.32853 0.88261 0.56685
 C1180 C 0.31426 0.86150 0.55343
 H1181 H 0.35277 0.88226 0.56844
 H1182 H 0.32792 0.84553 0.54504
 H1183 H 0.35134 0.92369 0.59445
 H1184 H 0.26639 0.95803 0.61715
 H1185 H 0.19730 0.86207 0.53632
 H1186 H 0.28279 0.82308 0.52885
 H1187 H 0.24011 0.92415 0.59140
 H1188 H 0.21984 0.89833 0.56188
 C1189 C 0.27079 0.09274 0.42115
 C1190 C 0.30240 0.09044 0.42256
 C1191 C 0.31735 0.07099 0.40696
 C1192 C 0.30138 0.05429 0.38913
 C1193 C 0.27021 0.05720 0.38706
 C1194 C 0.25503 0.07605 0.40294
 C1195 C 0.25561 0.11329 0.43866
 C1196 C 0.22415 0.11582 0.44034
 C1197 C 0.21115 0.13563 0.45659
 C1198 C 0.22911 0.15340 0.47145
 C1199 C 0.26038 0.15109 0.46998
 C1200 C 0.27371 0.13082 0.45428
 C1201 C 0.31895 0.10785 0.43915
 C1202 C 0.30495 0.12792 0.45429
 H1203 H 0.34317 0.10622 0.44009
 H1204 H 0.31878 0.14116 0.46648
 H1205 H 0.34154 0.06916 0.40834
 H1206 H 0.25742 0.04459 0.37337
 H1207 H 0.18693 0.13719 0.45752
 H1208 H 0.27434 0.16532 0.48076
 H1209 H 0.23105 0.07738 0.40043
 H1210 H 0.20920 0.10263 0.42948
 C1211 C 0.72271 0.09672 0.57500
 C1212 C 0.69163 0.09849 0.58085
 C1213 C 0.67736 0.07819 0.59600
 C1214 C 0.69400 0.05688 0.60674
 C1215 C 0.72497 0.05576 0.60192
 C1216 C 0.73916 0.07524 0.58602
 C1217 C 0.73693 0.11833 0.55810
 C1218 C 0.76670 0.11680 0.54842
 C1219 C 0.77899 0.13757 0.53291
 C1220 C 0.76207 0.16039 0.52700
 C1221 C 0.73248 0.16225 0.53649
 C1222 C 0.71947 0.14100 0.55117
 C1223 C 0.67526 0.12089 0.57230
 C1224 C 0.68905 0.14199 0.55838
 H1225 H 0.65155 0.12243 0.57702
 H1226 H 0.67555 0.15914 0.55273
 H1227 H 0.65352 0.07945 0.60028
 H1228 H 0.73821 0.03955 0.61026
 H1229 H 0.80186 0.13591 0.52554
 H1230 H 0.71939 0.17992 0.53172
 H1231 H 0.76306 0.07341 0.58307
 H1232 H 0.78067 0.09959 0.55221
 C1233 C 0.89580 0.58147 0.28208
 C1234 C 0.90096 0.57343 0.30932
 C1235 C 0.92270 0.58671 0.32509
 C1236 C 0.93913 0.60828 0.31422
 C1237 C 0.93317 0.61672 0.28753
 C1238 C 0.91187 0.60356 0.27166
 C1239 C 0.87359 0.56598 0.26545
 C1240 C 0.86875 0.57110 0.23759
 C1241 C 0.84896 0.55535 0.22260
 C1242 C 0.83318 0.53424 0.23491
 C1243 C 0.83701 0.52947 0.26289
 C1244 C 0.85761 0.54474 0.27805
 C1245 C 0.88446 0.55219 0.32060
 C1246 C 0.86300 0.53837 0.30540
 H1247 H 0.88819 0.54615 0.34153
 H1248 H 0.85091 0.52204 0.31505
 H1249 H 0.92682 0.58022 0.34583
 H1250 H 0.94533 0.63340 0.27865
 H1251 H 0.84660 0.55923 0.20098
 H1252 H 0.82474 0.51326 0.27256
 H1253 H 0.90843 0.61106 0.25131
 H1254 H 0.88057 0.58665 0.22672
 C1255 C 0.89647 0.42940 0.71232
 C1256 C 0.88781 0.40406 0.70199
 C1257 C 0.90827 0.38880 0.68666
 C1258 C 0.93657 0.39924 0.68008
 C1259 C 0.94436 0.42505 0.68870
 C1260 C 0.92469 0.43993 0.70488
 C1261 C 0.87488 0.44421 0.73021
 C1262 C 0.88314 0.46711 0.74519
 C1263 C 0.86222 0.48024 0.76161
 C1264 C 0.83227 0.47155 0.76271
 C1265 C 0.82414 0.44812 0.74869
 C1266 C 0.84539 0.43404 0.73309
 C1267 C 0.85866 0.39446 0.70655
 C1268 C 0.83762 0.40953 0.72107
 H1269 H 0.85181 0.37527 0.69829
 H1270 H 0.81516 0.40150 0.72356
 H1271 H 0.90203 0.36904 0.67938
 H1272 H 0.96609 0.43342 0.68349
 H1273 H 0.86950 0.49732 0.77350
 H1274 H 0.80130 0.44072 0.75017
 H1275 H 0.93179 0.45968 0.71110
 H1276 H 0.90580 0.47475 0.74502
 C1277 C 0.09570 0.57389 0.72406
 C1278 C 0.09635 0.57127 0.69531
 C1279 C 0.07572 0.58548 0.67920
 C1280 C 0.05512 0.60312 0.69130
 C1281 C 0.05503 0.60611 0.71972
 C1282 C 0.07486 0.59162 0.73592
 C1283 C 0.11772 0.55810 0.74058
 C1284 C 0.11750 0.55786 0.76932
 C1285 C 0.13848 0.54284 0.78376
 C1286 C 0.16030 0.52781 0.77002
 C1287 C 0.16102 0.52815 0.74145
 C1288 C 0.13949 0.54260 0.72666
 C1289 C 0.11797 0.55498 0.68283
 C1290 C 0.13937 0.54131 0.69813
 H1291 H 0.11865 0.55310 0.66082
 H1292 H 0.15585 0.52924 0.68747
 H1293 H 0.07626 0.58339 0.65720
 H1294 H 0.03938 0.61964 0.72953
 H1295 H 0.13753 0.54272 0.80583
 H1296 H 0.17835 0.51720 0.73074
 H1297 H 0.07373 0.59493 0.75762
 H1298 H 0.10108 0.56877 0.78107
 C1299 C 0.10788 0.42156 0.28177
 C1300 C 0.10710 0.42435 0.31049
 C1301 C 0.08543 0.41043 0.32591
 C1302 C 0.06508 0.39301 0.31316
 C1303 C 0.06670 0.38956 0.28483
 C1304 C 0.08766 0.40367 0.26930
 C1305 C 0.13047 0.43754 0.26591
 C1306 C 0.13125 0.43796 0.23719
 C1307 C 0.15245 0.45343 0.22334
 C1308 C 0.17354 0.46870 0.23766
 C1309 C 0.17333 0.46815 0.26623
 C1310 C 0.15149 0.45328 0.28043
 C1311 C 0.12815 0.44073 0.32361
 C1312 C 0.15019 0.45451 0.30894
 H1313 H 0.12778 0.44271 0.34561
 H1314 H 0.16611 0.46673 0.32007
 H1315 H 0.08466 0.41289 0.34786
 H1316 H 0.05133 0.37616 0.27450
 H1317 H 0.15220 0.45373 0.20126
 H1318 H 0.19007 0.47937 0.27738
 H1319 H 0.08774 0.40011 0.24763
 H1320 H 0.11538 0.42693 0.22500
   
