data_POSCAR
  _audit_creation_date              2014-09-24
  _audit_creation_method            'ToBaCCo'
  _symmetry_space_group_name_H-M    'P1'
  _symmetry_Int_Tables_number       1
  _symmetry_cell_setting            triclinic
  loop_
  _symmetry_equiv_pos_as_xyz
 x,y,z
_cell_length_a 55.9846
_cell_length_b 55.9937
_cell_length_c 55.9876
_cell_angle_alpha 90.002800
_cell_angle_beta 90.008200
_cell_angle_gamma 89.994600
loop_
  _atom_site_label
  _atom_site_type_symbol
  _atom_site_fract_x
  _atom_site_fract_y
  _atom_site_fract_z
C1 C 0.26784 1.04957 0.02083
 C2 C 0.26959 1.06148 -0.00117
 C3 C 0.26868 1.04944 -0.02316
 C4 C 0.26782 1.02404 -0.02309
 C5 C 0.26620 1.01146 -0.00110
 C6 C 0.26649 1.02418 0.02090
 C7 C 0.26765 1.01103 0.04231
 C8 C 0.26649 0.98627 0.04232
 C9 C 0.26491 0.97339 0.02089
 C10 C 0.26536 0.98597 -0.00109
 C11 C 0.27097 1.01079 -0.04420
 C12 C 0.27011 0.98601 -0.04417
 C13 C 0.26601 0.97311 -0.02301
 C14 C 0.26494 0.94765 -0.02286
 C15 C 0.26455 0.93580 -0.00073
 C16 C 0.26428 0.94818 0.02092
 H17 H 0.27032 1.01959 0.05938
 H18 H 0.26763 0.97731 0.05940
 H19 H 0.27512 1.01940 -0.06098
 H20 H 0.27369 0.97711 -0.06091
 H21 H 0.26925 1.08085 -0.00118
 H22 H 0.26317 0.91648 -0.00016
 C23 C 0.75877 0.54927 0.52057
 C24 C 0.75895 0.56139 0.49874
 C25 C 0.75830 0.54912 0.47699
 C26 C 0.75790 0.52385 0.47691
 C27 C 0.75771 0.51126 0.49892
 C28 C 0.75824 0.52400 0.52083
 C29 C 0.75896 0.51113 0.54237
 C30 C 0.75856 0.48629 0.54246
 C31 C 0.75747 0.47329 0.52101
 C32 C 0.75738 0.48588 0.49901
 C33 C 0.75842 0.51083 0.45545
 C34 C 0.75819 0.48599 0.45554
 C35 C 0.75737 0.47314 0.47709
 C36 C 0.75727 0.44786 0.47735
 C37 C 0.75735 0.43574 0.49919
 C38 C 0.75722 0.44802 0.52094
 H39 H 0.76017 0.52011 0.55943
 H40 H 0.75948 0.47739 0.55959
 H41 H 0.75938 0.51971 0.43832
 H42 H 0.75898 0.47698 0.43847
 H43 H 0.75912 0.58076 0.49868
 H44 H 0.75706 0.41636 0.49926
 C45 C 0.73884 0.97664 0.94890
 C46 C 0.73942 0.99835 0.93659
 C47 C 0.73861 1.02019 0.94864
 C48 C 0.73714 1.02048 0.97387
 C49 C 0.73692 0.99864 0.98672
 C50 C 0.73728 0.97665 0.97414
 C51 C 0.73483 0.95530 0.98701
 C52 C 0.73302 0.95544 1.01175
 C53 C 0.73442 0.97686 1.02490
 C54 C 0.73557 0.99879 1.01215
 C55 C 0.73467 1.04198 0.98649
 C56 C 0.73303 1.04215 1.01123
 C57 C 0.73451 1.02089 1.02462
 C58 C 0.73289 1.02104 1.04998
 C59 C 0.73101 0.99914 1.06205
 C60 C 0.73262 0.97705 1.05025
 H61 H 0.73359 0.93824 0.97803
 H62 H 0.72976 0.93846 1.02033
 H63 H 0.73333 1.05893 0.97732
 H64 H 0.72980 1.05922 1.01963
 H65 H 0.74076 0.99825 0.91725
 H66 H 0.73083 0.99925 1.08143
 C67 C 0.24201 0.52024 0.44838
 C68 C 0.24202 0.49843 0.43621
 C69 C 0.24238 0.47665 0.44844
 C70 C 0.24230 0.47653 0.47372
 C71 C 0.24229 0.49851 0.48636
 C72 C 0.24205 0.52045 0.47366
 C73 C 0.24111 0.54196 0.48657
 C74 C 0.24102 0.54200 0.51141
 C75 C 0.24180 0.52053 0.52439
 C76 C 0.24211 0.49855 0.51176
 C77 C 0.24148 0.45505 0.48669
 C78 C 0.24123 0.45508 0.51154
 C79 C 0.24183 0.47661 0.52445
 C80 C 0.24143 0.47682 0.54973
 C81 C 0.24114 0.49863 0.56189
 C82 C 0.24154 0.52041 0.54967
 H83 H 0.24011 0.55904 0.47760
 H84 H 0.23994 0.55911 0.52033
 H85 H 0.24065 0.43793 0.47776
 H86 H 0.24022 0.43800 0.52050
 H87 H 0.24220 0.49841 0.41683
 H88 H 0.24106 0.49866 0.58127
 C89 C 0.94825 0.26333 -0.02164
 C90 C 0.93644 0.26285 0.00050
 C91 C 0.94885 0.26251 0.02212
 C92 C 0.97407 0.26311 0.02207
 C93 C 0.98661 0.26368 0.00007
 C94 C 0.97371 0.26445 -0.02182
 C95 C 0.98655 0.26872 -0.04298
 C96 C 1.01132 0.26958 -0.04307
 C97 C 1.02462 0.26625 -0.02201
 C98 C 1.01210 0.26451 0.00000
 C99 C 0.98700 0.26452 0.04348
 C100 C 1.01177 0.26567 0.04342
 C101 C 1.02488 0.26467 0.02197
 C102 C 1.05027 0.26604 0.02183
 C103 C 1.06212 0.26786 -0.00020
 C104 C 1.05001 0.26703 -0.02215
 H105 H 0.97761 0.27243 -0.05968
 H106 H 1.01989 0.27385 -0.05983
 H107 H 0.97806 0.26553 0.06058
 H108 H 1.02039 0.26820 0.06049
 H109 H 0.91712 0.26146 0.00107
 H110 H 1.08149 0.26749 -0.00028
 C111 C 0.44880 0.74324 0.47880
 C112 C 0.43677 0.74151 0.50062
 C113 C 0.44910 0.74130 0.52235
 C114 C 0.47437 0.74226 0.52238
 C115 C 0.48686 0.74388 0.50038
 C116 C 0.47405 0.74439 0.47851
 C117 C 0.48683 0.74561 0.45693
 C118 C 0.51165 0.74662 0.45679
 C119 C 0.52473 0.74598 0.47821
 C120 C 0.51223 0.74477 0.50023
 C121 C 0.48749 0.74103 0.54375
 C122 C 0.51232 0.74209 0.54362
 C123 C 0.52505 0.74432 0.52210
 C124 C 0.55030 0.74554 0.52179
 C125 C 0.56233 0.74665 0.49994
 C126 C 0.55000 0.74670 0.47823
 H127 H 0.47779 0.74567 0.43986
 H128 H 0.52046 0.74793 0.43965
 H129 H 0.47870 0.73896 0.56084
 H130 H 0.52143 0.74084 0.56061
 H131 H 0.41740 0.74090 0.50070
 H132 H 0.58170 0.74739 0.49982
 C133 C 0.02127 0.76339 0.05089
 C134 C -0.00034 0.76485 0.06325
 C135 C -0.02248 0.76528 0.05137
 C136 C -0.02258 0.76575 0.02590
 C137 C -0.00073 0.76382 0.01311
 C138 C 0.02125 0.76268 0.02568
 C139 C 0.04271 0.76184 0.01271
 C140 C 0.04267 0.76173 -0.01209
 C141 C 0.02115 0.76253 -0.02498
 C142 C -0.00078 0.76382 -0.01235
 C143 C -0.04357 0.77036 0.01287
 C144 C -0.04361 0.77046 -0.01195
 C145 C -0.02266 0.76589 -0.02507
 C146 C -0.02262 0.76559 -0.05054
 C147 C -0.00054 0.76483 -0.06248
 C148 C 0.02109 0.76306 -0.05019
 H149 H 0.05987 0.76169 0.02159
 H150 H 0.05979 0.76150 -0.02103
 H151 H -0.06015 0.77484 0.02170
 H152 H -0.06020 0.77503 -0.02070
 H153 H 0.00024 0.76421 0.08260
 H154 H -0.00004 0.76415 -0.08184
 C155 C 0.52092 0.24291 0.44986
 C156 C 0.49913 0.24309 0.43766
 C157 C 0.47737 0.24485 0.44979
 C158 C 0.47722 0.24611 0.47505
 C159 C 0.49917 0.24560 0.48774
 C160 C 0.52109 0.24393 0.47512
 C161 C 0.54255 0.24267 0.48811
 C162 C 0.54257 0.24376 0.51293
 C163 C 0.52113 0.24606 0.52580
 C164 C 0.49918 0.24654 0.51311
 C165 C 0.45573 0.24742 0.48795
 C166 C 0.45575 0.24845 0.51278
 C167 C 0.47724 0.24776 0.52575
 C168 C 0.47742 0.24844 0.55102
 C169 C 0.49922 0.24840 0.56323
 C170 C 0.52100 0.24731 0.55105
 H171 H 0.55958 0.24055 0.47923
 H172 H 0.55962 0.24248 0.52193
 H173 H 0.43860 0.24751 0.47900
 H174 H 0.43866 0.24982 0.52169
 H175 H 0.49912 0.24241 0.41829
 H176 H 0.49923 0.24910 0.58260
 C177 C 1.05130 0.02190 0.24374
 C178 C 1.06339 -0.00009 0.24477
 C179 C 1.05135 -0.02163 0.24851
 C180 C 1.02630 -0.02159 0.25138
 C181 C 1.01343 0.00004 0.24885
 C182 C 1.02585 0.02180 0.24467
 C183 C 1.01237 0.04251 0.24001
 C184 C 0.98761 0.04243 0.24183
 C185 C 0.97516 0.02148 0.24771
 C186 C 0.98804 -0.00013 0.25042
 C187 C 1.01387 -0.04254 0.25735
 C188 C 0.98913 -0.04257 0.25940
 C189 C 0.97563 -0.02188 0.25475
 C190 C 0.95018 -0.02195 0.25585
 C191 C 0.93807 -0.00001 0.25442
 C192 C 0.95007 0.02147 0.25034
 H193 H 1.02074 0.05898 0.23442
 H194 H 0.97831 0.05898 0.23821
 H195 H 1.02318 -0.05909 0.26092
 H196 H 0.98081 -0.05902 0.26513
 H197 H 1.08274 -0.00055 0.24386
 H198 H 0.91872 0.00042 0.25528
 C199 C 0.44971 0.47788 0.75145
 C200 C 0.43752 0.49962 0.74991
 C201 C 0.44972 0.52135 0.74820
 C202 C 0.47501 0.52145 0.74778
 C203 C 0.48766 0.49955 0.74959
 C204 C 0.47498 0.47769 0.75158
 C205 C 0.48790 0.45631 0.75411
 C206 C 0.51274 0.45625 0.75383
 C207 C 0.52569 0.47757 0.75108
 C208 C 0.51305 0.49949 0.74942
 C209 C 0.48797 0.54278 0.74511
 C210 C 0.51283 0.54273 0.74504
 C211 C 0.52574 0.52135 0.74758
 C212 C 0.55103 0.52116 0.74785
 C213 C 0.56320 0.49937 0.74906
 C214 C 0.55097 0.47763 0.75045
 H215 H 0.47893 0.43937 0.75653
 H216 H 0.52168 0.43927 0.75606
 H217 H 0.47902 0.55976 0.74285
 H218 H 0.52181 0.55968 0.74272
 H219 H 0.41814 0.49962 0.75003
 H220 H 0.58258 0.49933 0.74894
 C221 C 1.02219 0.94893 0.76452
 C222 C 1.00004 0.93709 0.76445
 C223 C 0.97841 0.94949 0.76420
 C224 C 0.97844 0.97471 0.76434
 C225 C 1.00043 0.98727 0.76464
 C226 C 1.02233 0.97439 0.76547
 C227 C 1.04347 0.98727 0.76964
 C228 C 1.04351 1.01206 0.77046
 C229 C 1.02245 1.02533 0.76696
 C230 C 1.00047 1.01276 0.76514
 C231 C 0.95702 0.98763 0.76554
 C232 C 0.95705 1.01241 0.76614
 C233 C 0.97848 1.02551 0.76492
 C234 C 0.97855 1.05092 0.76570
 C235 C 1.00053 1.06283 0.76783
 C236 C 1.02252 1.05074 0.76765
 H237 H 1.06018 0.97835 0.77335
 H238 H 1.06026 1.02063 0.77481
 H239 H 0.93992 0.97871 0.76674
 H240 H 0.93996 1.02106 0.76847
 H241 H 0.99943 0.91777 0.76328
 H242 H 1.00061 1.08219 0.76723
 C243 C 0.52190 0.44940 0.24229
 C244 C 0.50001 0.43738 0.24233
 C245 C 0.47835 0.44972 0.24386
 C246 C 0.47841 0.47496 0.24501
 C247 C 0.50047 0.48746 0.24463
 C248 C 0.52230 0.47465 0.24320
 C249 C 0.54388 0.48745 0.24211
 C250 C 0.54410 0.51227 0.24308
 C251 C 0.52275 0.52533 0.24510
 C252 C 0.50070 0.51283 0.24544
 C253 C 0.45702 0.48805 0.24607
 C254 C 0.45724 0.51286 0.24700
 C255 C 0.47885 0.52564 0.24641
 C256 C 0.47923 0.55089 0.24696
 C257 C 0.50110 0.56294 0.24704
 C258 C 0.52280 0.55059 0.24620
 H259 H 0.56084 0.47840 0.24020
 H260 H 0.56124 0.52113 0.24193
 H261 H 0.43982 0.47925 0.24607
 H262 H 0.44022 0.52192 0.24819
 H263 H 0.49983 0.41801 0.24174
 H264 H 0.50124 0.58230 0.24766
 O265 O 0.25204 0.18761 0.21420
 O266 O 0.27783 0.18063 0.24766
 O267 O 0.18914 0.21599 0.24825
 O268 O 0.18048 0.24670 0.27228
 O269 O 0.21837 0.25011 0.18575
 O270 O 0.25159 0.27623 0.17926
 O271 O 0.25112 0.28218 0.30975
 O272 O 0.22331 0.24988 0.31551
 O273 O 0.31251 0.25011 0.28111
 O274 O 0.32024 0.22312 0.24743
 O275 O 0.28399 0.31100 0.24903
 O276 O 0.24980 0.31825 0.22159
 O277 O 0.25164 0.31078 0.28101
 O278 O 0.22466 0.31835 0.24710
 O279 O 0.31260 0.28228 0.24912
 O280 O 0.32002 0.24812 0.22168
 O281 O 0.28387 0.25078 0.30980
 O282 O 0.25512 0.22345 0.31723
 O283 O 0.25202 0.21655 0.18574
 O284 O 0.27806 0.24981 0.17923
 O285 O 0.18946 0.24960 0.21423
 O286 O 0.18356 0.27685 0.24796
 O287 O 0.21794 0.18744 0.24716
 O288 O 0.25212 0.17985 0.27351
 Zr289 Zr 0.25033 0.20649 0.24674
 O290 O 0.27236 0.22695 0.26933
 Zr291 Zr 0.20832 0.24828 0.24680
 O292 O 0.22864 0.27060 0.26938
 Zr293 Zr 0.25054 0.24868 0.20507
 O294 O 0.27270 0.27094 0.22569
 Zr295 Zr 0.25165 0.24991 0.29050
 O296 O 0.22914 0.22712 0.27014
 Zr297 Zr 0.29361 0.24994 0.24868
 O298 O 0.27354 0.22745 0.22588
 Zr299 Zr 0.25160 0.29186 0.24861
 O300 O 0.22920 0.27155 0.22587
 O301 O 0.22825 0.22633 0.22452
 O302 O 0.27400 0.27236 0.27101
 C303 C 0.25270 0.19456 0.19230
 C304 C 0.19598 0.19406 0.24811
 C305 C 0.19638 0.25049 0.19234
 C306 C 0.25133 0.30411 0.30296
 C307 C 0.30581 0.25061 0.30305
 C308 C 0.30592 0.30422 0.24923
 H309 H 0.28200 0.21615 0.27945
 H310 H 0.28259 0.28084 0.21495
 H311 H 0.21813 0.21617 0.21417
 H312 H 0.21781 0.28029 0.27942
 H313 H 0.21280 0.23629 0.31133
 H314 H 0.18620 0.25500 0.28678
 H315 H 0.31708 0.26132 0.21031
 H316 H 0.29075 0.23889 0.18493
 H317 H 0.24603 0.20943 0.31159
 H318 H 0.23820 0.18210 0.28417
 H319 H 0.26299 0.31527 0.21022
 H320 H 0.24060 0.28886 0.18494
 H321 H 0.29055 0.18641 0.23681
 H322 H 0.31644 0.21116 0.25985
 H323 H 0.18855 0.28847 0.23561
 H324 H 0.21281 0.31472 0.25969
 O325 O 0.74931 0.81278 0.21799
 O326 O 0.72352 0.81944 0.25125
 O327 O 0.81219 0.78420 0.25218
 O328 O 0.82105 0.75298 0.27532
 O329 O 0.78346 0.75123 0.18864
 O330 O 0.75052 0.72463 0.18187
 O331 O 0.75024 0.71743 0.31222
 O332 O 0.77796 0.74952 0.31849
 O333 O 0.68882 0.74935 0.28393
 O334 O 0.68124 0.77683 0.25031
 O335 O 0.71767 0.68892 0.25117
 O336 O 0.75174 0.68188 0.22397
 O337 O 0.74998 0.68889 0.28341
 O338 O 0.77724 0.68201 0.24918
 O339 O 0.68898 0.71757 0.25147
 O340 O 0.68142 0.75189 0.22448
 O341 O 0.71760 0.74846 0.31249
 O342 O 0.74611 0.77598 0.32029
 O343 O 0.74937 0.78440 0.18898
 O344 O 0.72368 0.75088 0.18203
 O345 O 0.81204 0.75132 0.21746
 O346 O 0.81790 0.72335 0.25069
 O347 O 0.78334 0.81271 0.25112
 O348 O 0.74885 0.81985 0.27732
 Zr349 Zr 0.75100 0.79357 0.25022
 O350 O 0.72893 0.77282 0.27244
 Zr351 Zr 0.79312 0.75191 0.24991
 O352 O 0.77284 0.72929 0.27215
 Zr353 Zr 0.75114 0.75196 0.20793
 O354 O 0.72899 0.72936 0.22830
 Zr355 Zr 0.74975 0.74977 0.29333
 O356 O 0.77225 0.77281 0.27339
 Zr357 Zr 0.70784 0.74998 0.25148
 O358 O 0.72795 0.77278 0.22899
 Zr359 Zr 0.75000 0.70817 0.25109
 O360 O 0.77240 0.72885 0.22860
 O361 O 0.77325 0.77412 0.22782
 O362 O 0.72751 0.72741 0.27361
 C363 C 0.74860 0.80626 0.19598
 C364 C 0.80530 0.80611 0.25230
 C365 C 0.80539 0.75096 0.19548
 C366 C 0.75014 0.69554 0.30540
 C367 C 0.69564 0.74859 0.30584
 C368 C 0.69571 0.69565 0.25137
 H369 H 0.71923 0.78348 0.28266
 H370 H 0.71915 0.71955 0.21742
 H371 H 0.78335 0.78453 0.21771
 H372 H 0.78367 0.71955 0.28214
 H373 H 0.78854 0.76313 0.31449
 H374 H 0.81521 0.74480 0.28984
 H375 H 0.68460 0.73897 0.21286
 H376 H 0.71089 0.76163 0.18782
 H377 H 0.75555 0.78991 0.31505
 H378 H 0.76279 0.81768 0.28796
 H379 H 0.73905 0.68542 0.21219
 H380 H 0.76166 0.71210 0.18747
 H381 H 0.71072 0.81363 0.24052
 H382 H 0.68474 0.78846 0.26314
 H383 H 0.81309 0.71200 0.23801
 H384 H 0.78881 0.68529 0.26212
 O385 O 0.74990 0.18702 0.78237
 O386 O 0.72463 0.17978 0.74915
 O387 O 0.81245 0.21625 0.74861
 O388 O 0.82169 0.24730 0.72588
 O389 O 0.78299 0.24933 0.81177
 O390 O 0.75001 0.27498 0.81871
 O391 O 0.74945 0.28154 0.68762
 O392 O 0.77701 0.25063 0.68087
 O393 O 0.68875 0.24992 0.71671
 O394 O 0.68066 0.22351 0.75023
 O395 O 0.71778 0.31075 0.74851
 O396 O 0.75129 0.31870 0.77494
 O397 O 0.74971 0.31039 0.71611
 O398 O 0.77762 0.31724 0.75064
 O399 O 0.68890 0.28231 0.74871
 O400 O 0.68206 0.24769 0.77657
 O401 O 0.71719 0.24994 0.68781
 O402 O 0.75035 0.22186 0.68088
 O403 O 0.74956 0.21548 0.81131
 O404 O 0.72307 0.24905 0.81778
 O405 O 0.81199 0.24933 0.78338
 O406 O 0.81730 0.27752 0.74969
 O407 O 0.78404 0.18726 0.74927
 O408 O 0.75077 0.18074 0.72238
 Zr409 Zr 0.75151 0.20626 0.75021
 O410 O 0.72886 0.22665 0.72819
 Zr411 Zr 0.79321 0.24837 0.75069
 O412 O 0.77279 0.27026 0.72783
 Zr413 Zr 0.75095 0.24799 0.79234
 O414 O 0.72900 0.27062 0.77182
 Zr415 Zr 0.74964 0.24944 0.70688
 O416 O 0.77259 0.22725 0.72721
 Zr417 Zr 0.70784 0.24976 0.74898
 O418 O 0.72809 0.22689 0.77127
 Zr419 Zr 0.74997 0.29152 0.74869
 O420 O 0.77214 0.27125 0.77174
 O421 O 0.77344 0.22601 0.77268
 O422 O 0.72741 0.27200 0.72645
 C423 C 0.74908 0.19358 0.80436
 C424 C 0.80593 0.19424 0.74846
 C425 C 0.80500 0.24990 0.80527
 C426 C 0.74950 0.30351 0.69420
 C427 C 0.69529 0.25006 0.69473
 C428 C 0.69580 0.30420 0.74852
 H429 H 0.71886 0.21581 0.71851
 H430 H 0.71921 0.28057 0.78262
 H431 H 0.78362 0.21575 0.78288
 H432 H 0.78352 0.27992 0.71767
 H433 H 0.78957 0.23937 0.68618
 H434 H 0.81616 0.25546 0.71124
 H435 H 0.68451 0.26146 0.78736
 H436 H 0.71086 0.23744 0.81241
 H437 H 0.73721 0.21058 0.68431
 H438 H 0.76233 0.18623 0.71018
 H439 H 0.73963 0.31456 0.78754
 H440 H 0.76039 0.28805 0.81286
 H441 H 0.71141 0.18568 0.75929
 H442 H 0.68480 0.21093 0.73854
 H443 H 0.81283 0.28840 0.76289
 H444 H 0.78838 0.31472 0.73686
 O445 O 0.24954 0.81032 0.78296
 O446 O 0.27542 0.81698 0.74952
 O447 O 0.18670 0.78191 0.74853
 O448 O 0.17775 0.75099 0.72504
 O449 O 0.21533 0.74842 0.81170
 O450 O 0.24835 0.72179 0.81829
 O451 O 0.24829 0.71522 0.68792
 O452 O 0.22069 0.74779 0.68194
 O453 O 0.30994 0.74691 0.71641
 O454 O 0.31768 0.77419 0.74997
 O455 O 0.28082 0.68657 0.74884
 O456 O 0.24676 0.67950 0.77616
 O457 O 0.24867 0.68677 0.71682
 O458 O 0.22142 0.67965 0.75084
 O459 O 0.30978 0.71495 0.74872
 O460 O 0.31722 0.74936 0.77600
 O461 O 0.28114 0.74620 0.68786
 O462 O 0.25280 0.77378 0.68007
 O463 O 0.24931 0.78152 0.81155
 O464 O 0.27505 0.74812 0.81837
 O465 O 0.18673 0.74879 0.78290
 O466 O 0.18076 0.72116 0.74941
 O467 O 0.21539 0.81057 0.75001
 O468 O 0.24967 0.81769 0.72350
 Zr469 Zr 0.24777 0.79128 0.75049
 O470 O 0.26979 0.77053 0.72810
 Zr471 Zr 0.20566 0.74961 0.75046
 O472 O 0.22584 0.72707 0.72810
 Zr473 Zr 0.24764 0.74928 0.79242
 O474 O 0.26977 0.72680 0.77196
 Zr475 Zr 0.24898 0.74758 0.70701
 O476 O 0.22657 0.77062 0.72713
 Zr477 Zr 0.29093 0.74749 0.74887
 O478 O 0.27084 0.77023 0.77149
 Zr479 Zr 0.24861 0.70587 0.74912
 O480 O 0.22626 0.72639 0.77169
 O481 O 0.22555 0.77162 0.77271
 O482 O 0.27116 0.72510 0.72666
 C483 C 0.25011 0.80347 0.80489
 C484 C 0.19344 0.80386 0.74884
 C485 C 0.19339 0.74824 0.80487
 C486 C 0.24844 0.69332 0.69483
 C487 C 0.30310 0.74620 0.69450
 C488 C 0.30283 0.69307 0.74864
 H489 H 0.27951 0.78119 0.71791
 H490 H 0.27959 0.71689 0.78278
 H491 H 0.21546 0.78193 0.78294
 H492 H 0.21498 0.71739 0.71808
 H493 H 0.21036 0.76158 0.68596
 H494 H 0.18360 0.74296 0.71044
 H495 H 0.31422 0.73618 0.78737
 H496 H 0.28788 0.75883 0.81260
 H497 H 0.24414 0.78805 0.68573
 H498 H 0.23567 0.81548 0.71294
 H499 H 0.25967 0.68273 0.78778
 H500 H 0.23709 0.70934 0.81271
 H501 H 0.28813 0.81110 0.76032
 H502 H 0.31399 0.78604 0.73741
 H503 H 0.18553 0.70969 0.76200
 H504 H 0.20979 0.68307 0.73798
 O505 O 0.24864 0.31163 0.71798
 O506 O 0.22269 0.31867 0.75119
 O507 O 0.31130 0.28324 0.75238
 O508 O 0.31998 0.25233 0.77605
 O509 O 0.28246 0.24938 0.68932
 O510 O 0.24924 0.22312 0.68280
 O511 O 0.24923 0.21718 0.81321
 O512 O 0.27698 0.24937 0.81915
 O513 O 0.18779 0.24959 0.78460
 O514 O 0.18041 0.27637 0.75045
 O515 O 0.21642 0.18829 0.75287
 O516 O 0.25030 0.18089 0.72526
 O517 O 0.24910 0.18840 0.78464
 O518 O 0.27591 0.18108 0.75035
 O519 O 0.18784 0.21704 0.75273
 O520 O 0.18033 0.25087 0.72521
 O521 O 0.21655 0.24860 0.81318
 O522 O 0.24524 0.27576 0.82084
 O523 O 0.24869 0.28297 0.68925
 O524 O 0.22265 0.24962 0.68269
 O525 O 0.31104 0.24985 0.71815
 O526 O 0.31686 0.22239 0.75170
 O527 O 0.28252 0.31181 0.75112
 O528 O 0.24813 0.31940 0.77717
 Zr529 Zr 0.25015 0.29275 0.75042
 O530 O 0.22804 0.27233 0.77287
 Zr531 Zr 0.29211 0.25097 0.75058
 O532 O 0.27176 0.22864 0.77303
 Zr533 Zr 0.25013 0.25071 0.70856
 O534 O 0.22788 0.22842 0.72918
 Zr535 Zr 0.24874 0.24939 0.79402
 O536 O 0.27130 0.27217 0.77384
 Zr537 Zr 0.20683 0.24937 0.75215
 O538 O 0.22702 0.27185 0.72941
 Zr539 Zr 0.24883 0.20740 0.75219
 O540 O 0.27130 0.22776 0.72950
 O541 O 0.27233 0.27299 0.72823
 O542 O 0.22639 0.22693 0.77454
 C543 C 0.24804 0.30491 0.69603
 C544 C 0.30446 0.30517 0.75228
 C545 C 0.30440 0.24906 0.69618
 C546 C 0.24932 0.19521 0.80656
 C547 C 0.19460 0.24911 0.80652
 C548 C 0.19449 0.19510 0.75310
 H549 H 0.21840 0.28317 0.78296
 H550 H 0.21798 0.21851 0.71845
 H551 H 0.28251 0.28320 0.71799
 H552 H 0.28259 0.21896 0.78307
 H553 H 0.28754 0.26294 0.81502
 H554 H 0.31416 0.24419 0.79059
 H555 H 0.18356 0.23788 0.71369
 H556 H 0.20992 0.26046 0.68844
 H557 H 0.25433 0.28979 0.81527
 H558 H 0.26199 0.31719 0.78793
 H559 H 0.23727 0.18408 0.71377
 H560 H 0.26013 0.21047 0.68862
 H561 H 0.21005 0.31297 0.74022
 H562 H 0.18402 0.28823 0.76303
 H563 H 0.31201 0.21089 0.73917
 H564 H 0.28767 0.18455 0.76306
 O565 O 0.75275 0.68752 0.71527
 O566 O 0.77863 0.68063 0.74874
 O567 O 0.68977 0.71558 0.74945
 O568 O 0.68089 0.74635 0.77331
 O569 O 0.71890 0.74987 0.68687
 O570 O 0.75199 0.77621 0.68047
 O571 O 0.75121 0.78193 0.81095
 O572 O 0.72369 0.74937 0.81663
 O573 O 0.81291 0.75026 0.78232
 O574 O 0.82078 0.72321 0.74862
 O575 O 0.78421 0.81096 0.75062
 O576 O 0.75017 0.81814 0.72282
 O577 O 0.75171 0.81057 0.78224
 O578 O 0.72483 0.81807 0.74820
 O579 O 0.81293 0.78234 0.75047
 O580 O 0.82051 0.74828 0.72290
 O581 O 0.78423 0.75106 0.81097
 O582 O 0.75578 0.72323 0.81835
 O583 O 0.75271 0.71651 0.68685
 O584 O 0.77859 0.74990 0.68041
 O585 O 0.68997 0.74906 0.71533
 O586 O 0.68393 0.77642 0.74903
 O587 O 0.71868 0.68713 0.74826
 O588 O 0.75287 0.67962 0.77454
 Zr589 Zr 0.75099 0.70634 0.74785
 O590 O 0.77290 0.72685 0.77050
 Zr591 Zr 0.70881 0.74796 0.74792
 O592 O 0.72898 0.77033 0.77054
 Zr593 Zr 0.75106 0.74860 0.70622
 O594 O 0.77311 0.77092 0.72690
 Zr595 Zr 0.75205 0.74969 0.79165
 O596 O 0.72968 0.72684 0.77124
 Zr597 Zr 0.79406 0.74994 0.74988
 O598 O 0.77411 0.72741 0.72702
 Zr599 Zr 0.75189 0.79170 0.74981
 O600 O 0.72959 0.77134 0.72702
 O601 O 0.72885 0.72612 0.72563
 O602 O 0.77431 0.77224 0.77219
 C603 C 0.75340 0.69451 0.69338
 C604 C 0.69670 0.69368 0.74928
 C605 C 0.69690 0.74998 0.69344
 C606 C 0.75135 0.80387 0.80418
 C607 C 0.80618 0.75102 0.80424
 C608 C 0.80616 0.80425 0.75088
 H609 H 0.78259 0.71610 0.78063
 H610 H 0.78300 0.78088 0.71621
 H611 H 0.71878 0.71591 0.71529
 H612 H 0.71809 0.77995 0.78056
 H613 H 0.71330 0.73568 0.81243
 H614 H 0.68665 0.75445 0.78790
 H615 H 0.81758 0.76155 0.71161
 H616 H 0.79134 0.73905 0.68611
 H617 H 0.74682 0.70915 0.81270
 H618 H 0.73899 0.68185 0.78525
 H619 H 0.76352 0.81531 0.71160
 H620 H 0.74099 0.78880 0.68621
 H621 H 0.79130 0.68646 0.73786
 H622 H 0.81708 0.71129 0.76113
 H623 H 0.68881 0.78800 0.73659
 H624 H 0.71295 0.81437 0.76074
 O625 O 0.24942 0.68738 0.28198
 O626 O 0.22404 0.68038 0.24876
 O627 O 0.31192 0.71674 0.24822
 O628 O 0.32143 0.74803 0.22609
 O629 O 0.28242 0.74950 0.31175
 O630 O 0.24947 0.77517 0.31874
 O631 O 0.24943 0.78232 0.18762
 O632 O 0.27677 0.75128 0.18081
 O633 O 0.18843 0.75070 0.21647
 O634 O 0.18027 0.72409 0.24985
 O635 O 0.21749 0.81129 0.24849
 O636 O 0.25072 0.81926 0.27497
 O637 O 0.24969 0.81106 0.21622
 O638 O 0.27743 0.81760 0.25109
 O639 O 0.18858 0.78288 0.24857
 O640 O 0.18158 0.74822 0.27626
 O641 O 0.21694 0.75109 0.18764
 O642 O 0.25000 0.72266 0.18068
 O643 O 0.24901 0.71572 0.31105
 O644 O 0.22246 0.74931 0.31757
 O645 O 0.31147 0.74940 0.28342
 O646 O 0.31687 0.77800 0.24994
 O647 O 0.28348 0.68778 0.24866
 O648 O 0.25014 0.68134 0.22201
 Zr649 Zr 0.25099 0.70679 0.24990
 O650 O 0.22847 0.72730 0.22789
 Zr651 Zr 0.29277 0.74885 0.25069
 O652 O 0.27248 0.77085 0.22785
 Zr653 Zr 0.25043 0.74831 0.29223
 O654 O 0.22859 0.77107 0.27174
 Zr655 Zr 0.24935 0.75016 0.20676
 O656 O 0.27218 0.72786 0.22707
 Zr657 Zr 0.20746 0.75034 0.24876
 O658 O 0.22759 0.72734 0.27103
 Zr659 Zr 0.24965 0.79205 0.24875
 O660 O 0.27170 0.77166 0.27180
 O661 O 0.27293 0.72638 0.27250
 O662 O 0.22712 0.77266 0.22638
 C663 C 0.24858 0.69384 0.30400
 C664 C 0.30536 0.69475 0.24779
 C665 C 0.30444 0.74989 0.30530
 C666 C 0.24960 0.80427 0.19428
 C667 C 0.19503 0.75117 0.19451
 C668 C 0.19551 0.80476 0.24843
 H669 H 0.21846 0.71654 0.21813
 H670 H 0.21879 0.78099 0.28255
 H671 H 0.28309 0.71603 0.28262
 H672 H 0.28328 0.78053 0.21778
 H673 H 0.28930 0.73999 0.18614
 H674 H 0.31585 0.75595 0.21133
 H675 H 0.18408 0.76189 0.28716
 H676 H 0.21030 0.73767 0.31215
 H677 H 0.23653 0.71166 0.18376
 H678 H 0.26150 0.68697 0.20970
 H679 H 0.23932 0.81487 0.28771
 H680 H 0.25987 0.78826 0.31298
 H681 H 0.21086 0.68625 0.25899
 H682 H 0.18437 0.71159 0.23807
 H683 H 0.31254 0.78867 0.26336
 H684 H 0.28817 0.81523 0.23726
 O685 O 0.74881 0.30942 0.28282
 O686 O 0.77489 0.31654 0.24964
 O687 O 0.68658 0.28050 0.24781
 O688 O 0.67791 0.24951 0.22450
 O689 O 0.71535 0.24679 0.31114
 O690 O 0.74879 0.22075 0.31772
 O691 O 0.74901 0.21482 0.18729
 O692 O 0.72112 0.24707 0.18139
 O693 O 0.81027 0.24752 0.21612
 O694 O 0.81754 0.27431 0.25010
 O695 O 0.78168 0.18629 0.24813
 O696 O 0.74769 0.17865 0.27530
 O697 O 0.74956 0.18626 0.21607
 O698 O 0.72238 0.17869 0.25001
 O699 O 0.81035 0.21496 0.24814
 O700 O 0.81744 0.24910 0.27566
 O701 O 0.78158 0.24646 0.18747
 O702 O 0.75283 0.27346 0.17972
 O703 O 0.74891 0.28050 0.31129
 O704 O 0.77505 0.24745 0.31800
 O705 O 0.68683 0.24718 0.28226
 O706 O 0.68133 0.21966 0.24860
 O707 O 0.71497 0.30943 0.24939
 O708 O 0.74947 0.31720 0.22353
 Zr709 Zr 0.74752 0.29053 0.25026
 O710 O 0.76981 0.27017 0.22782
 Zr711 Zr 0.70586 0.24842 0.24989
 O712 O 0.72635 0.22625 0.22745
 Zr713 Zr 0.74770 0.24836 0.29198
 O714 O 0.77014 0.22625 0.27145
 Zr715 Zr 0.74934 0.24710 0.20654
 O716 O 0.72662 0.26976 0.22673
 Zr717 Zr 0.79115 0.24728 0.24853
 O718 O 0.77075 0.26965 0.27123
 Zr719 Zr 0.74928 0.20521 0.24844
 O720 O 0.72665 0.22534 0.27106
 O721 O 0.72540 0.27056 0.27233
 O722 O 0.77172 0.22476 0.22612
 C723 C 0.74943 0.30248 0.30472
 C724 C 0.69312 0.30249 0.24796
 C725 C 0.69344 0.24634 0.30424
 C726 C 0.74927 0.19290 0.19411
 C727 C 0.80352 0.24701 0.19418
 C728 C 0.80361 0.19302 0.24799
 H729 H 0.77942 0.28105 0.21775
 H730 H 0.78003 0.21638 0.28224
 H731 H 0.71511 0.28070 0.28253
 H732 H 0.71562 0.21650 0.21737
 H733 H 0.71057 0.26067 0.18547
 H734 H 0.68394 0.24182 0.20980
 H735 H 0.81441 0.23593 0.28705
 H736 H 0.78780 0.25827 0.31227
 H737 H 0.74390 0.28756 0.18538
 H738 H 0.73571 0.31486 0.21269
 H739 H 0.76054 0.18195 0.28697
 H740 H 0.73778 0.20814 0.31203
 H741 H 0.78752 0.31084 0.26063
 H742 H 0.81368 0.28632 0.23773
 H743 H 0.68614 0.20822 0.26119
 H744 H 0.71074 0.18202 0.23714
 C745 C 0.26222 0.09395 0.08195
 C746 C 0.24677 0.07451 0.07924
 C747 C 0.24875 0.05959 0.05928
 C748 C 0.26644 0.06374 0.04179
 C749 C 0.28165 0.08363 0.04470
 C750 C 0.27965 0.09845 0.06466
 C751 C 0.25982 0.10992 0.10195
 C752 C 0.25811 0.12394 0.11820
 C753 C 0.25637 0.14142 0.13696
 C754 C 0.25599 0.13442 0.16096
 C755 C 0.25475 0.15165 0.17904
 C756 C 0.25390 0.17613 0.17330
 C757 C 0.25421 0.18291 0.14908
 C758 C 0.25544 0.16568 0.13109
 H759 H 0.23293 0.07111 0.09233
 H760 H 0.23588 0.04531 0.05712
 H761 H 0.29546 0.08750 0.03171
 H762 H 0.29162 0.11354 0.06650
 H763 H 0.25674 0.11567 0.16570
 H764 H 0.25452 0.14579 0.19747
 H765 H 0.25355 0.20154 0.14396
 H766 H 0.25576 0.17129 0.11258
 C767 C 0.75820 0.59359 0.58300
 C768 C 0.77802 0.59361 0.56774
 C769 C 0.77835 0.57884 0.54763
 C770 C 0.75891 0.56381 0.54266
 C771 C 0.73910 0.56376 0.55806
 C772 C 0.73879 0.57856 0.57819
 C773 C 0.75742 0.60980 0.60292
 C774 C 0.75680 0.62392 0.61916
 C775 C 0.75608 0.64143 0.63795
 C776 C 0.75597 0.66571 0.63213
 C777 C 0.75519 0.68293 0.65015
 C778 C 0.75452 0.67611 0.67435
 C779 C 0.75468 0.65161 0.68004
 C780 C 0.75546 0.63439 0.66193
 H781 H 0.79305 0.60529 0.57120
 H782 H 0.79365 0.57924 0.53580
 H783 H 0.72382 0.55252 0.55428
 H784 H 0.72329 0.57855 0.58977
 H785 H 0.75645 0.67136 0.61362
 H786 H 0.75507 0.70159 0.64507
 H787 H 0.75415 0.64571 0.69845
 H788 H 0.75554 0.61562 0.66662
 C789 C 0.73775 0.91623 0.09508
 C790 C 0.75319 0.91867 0.07560
 C791 C 0.75131 0.93850 0.06051
 C792 C 0.73373 0.95613 0.06452
 C793 C 0.71847 0.95346 0.08440
 C794 C 0.72038 0.93362 0.09940
 C795 C 0.74018 0.89641 0.11126
 C796 C 0.74203 0.88026 0.12538
 C797 C 0.74402 0.86156 0.14289
 C798 C 0.74469 0.83757 0.13588
 C799 C 0.74626 0.81952 0.15310
 C800 C 0.74715 0.82527 0.17758
 C801 C 0.74657 0.84948 0.18436
 C802 C 0.74501 0.86745 0.16714
 H803 H 0.76698 0.90550 0.07233
 H804 H 0.76422 0.94046 0.04624
 H805 H 0.70472 0.96655 0.08816
 H806 H 0.70841 0.93197 0.11452
 H807 H 0.74392 0.83283 0.11713
 H808 H 0.74669 0.80110 0.14723
 H809 H 0.74725 0.85460 0.20300
 H810 H 0.74449 0.88596 0.17276
 C811 C 0.24268 0.41448 0.59419
 C812 C 0.26196 0.41936 0.57901
 C813 C 0.26141 0.43943 0.56414
 C814 C 0.24150 0.45471 0.56426
 C815 C 0.22219 0.44965 0.57942
 C816 C 0.22275 0.42959 0.59426
 C817 C 0.24372 0.39466 0.61052
 C818 C 0.24451 0.37853 0.62477
 C819 C 0.24538 0.35988 0.64245
 C820 C 0.24593 0.33584 0.63562
 C821 C 0.24674 0.31788 0.65300
 C822 C 0.24701 0.32378 0.67746
 C823 C 0.24645 0.34805 0.68406
 C824 C 0.24564 0.36591 0.66668
 H825 H 0.27754 0.40789 0.57895
 H826 H 0.27660 0.44329 0.55280
 H827 H 0.20680 0.46137 0.57989
 H828 H 0.20782 0.42608 0.60606
 H829 H 0.24573 0.33098 0.61689
 H830 H 0.24719 0.29942 0.64727
 H831 H 0.24666 0.35330 0.70267
 H832 H 0.24521 0.38447 0.67216
 C833 C 0.74167 0.08283 0.90468
 C834 C 0.72234 0.06707 0.90281
 C835 C 0.72121 0.04686 0.91740
 C836 C 0.73935 0.04227 0.93408
 C837 C 0.75869 0.05815 0.93595
 C838 C 0.75981 0.07839 0.92134
 C839 C 0.74329 0.10292 0.88874
 C840 C 0.74451 0.11926 0.87477
 C841 C 0.74582 0.13810 0.85735
 C842 C 0.74669 0.13231 0.83307
 C843 C 0.74775 0.15035 0.81590
 C844 C 0.74795 0.17455 0.82275
 C845 C 0.74712 0.18021 0.84725
 C846 C 0.74605 0.16207 0.86443
 H847 H 0.70830 0.07025 0.88987
 H848 H 0.70627 0.03470 0.91560
 H849 H 0.77299 0.05469 0.94852
 H850 H 0.77493 0.09036 0.92279
 H851 H 0.74651 0.11381 0.82740
 H852 H 0.74840 0.14527 0.79725
 H853 H 0.74727 0.19863 0.85316
 H854 H 0.74537 0.16674 0.88320
 C855 C 0.24329 0.58288 0.40433
 C856 C 0.22351 0.56759 0.40388
 C857 C 0.22296 0.54739 0.41853
 C858 C 0.24214 0.54238 0.43388
 C859 C 0.26192 0.55780 0.43434
 C860 C 0.26246 0.57801 0.41966
 C861 C 0.24429 0.60293 0.38827
 C862 C 0.24506 0.61927 0.37426
 C863 C 0.24591 0.63816 0.35685
 C864 C 0.24633 0.63245 0.33254
 C865 C 0.24714 0.65056 0.31541
 C866 C 0.24754 0.67473 0.32233
 C867 C 0.24710 0.68031 0.34687
 C868 C 0.24629 0.66211 0.36400
 H869 H 0.20867 0.57109 0.39196
 H870 H 0.20767 0.53556 0.41781
 H871 H 0.27701 0.55399 0.44584
 H872 H 0.27793 0.58962 0.42001
 H873 H 0.24603 0.61397 0.32680
 H874 H 0.24747 0.64555 0.29673
 H875 H 0.24742 0.69870 0.35284
 H876 H 0.24598 0.66672 0.38279
 C877 C 0.25946 0.90380 0.91556
 C878 C 0.24600 0.92479 0.91712
 C879 C 0.24794 0.93949 0.93726
 C880 C 0.26360 0.93353 0.95612
 C881 C 0.27680 0.91212 0.95432
 C882 C 0.27485 0.89754 0.93419
 C883 C 0.25709 0.88811 0.89532
 C884 C 0.25542 0.87421 0.87895
 C885 C 0.25373 0.85673 0.86016
 C886 C 0.25354 0.86369 0.83614
 C887 C 0.25233 0.84643 0.81808
 C888 C 0.25133 0.82196 0.82385
 C889 C 0.25145 0.81524 0.84809
 C890 C 0.25265 0.83249 0.86605
 H891 H 0.23372 0.92961 0.90295
 H892 H 0.23656 0.95509 0.93841
 H893 H 0.28912 0.90687 0.96828
 H894 H 0.28529 0.88127 0.93322
 H895 H 0.25440 0.88243 0.83138
 H896 H 0.25223 0.85225 0.79964
 H897 H 0.25066 0.79662 0.85325
 H898 H 0.25282 0.82690 0.88458
 C899 C 0.75529 0.40354 0.41495
 C900 C 0.73623 0.41897 0.41989
 C901 C 0.73701 0.43377 0.44001
 C902 C 0.75692 0.43331 0.45527
 C903 C 0.77601 0.41788 0.45017
 C904 C 0.77522 0.40311 0.43007
 C905 C 0.75405 0.38734 0.39504
 C906 C 0.75311 0.37321 0.37882
 C907 C 0.75210 0.35567 0.36006
 C908 C 0.75163 0.36267 0.33606
 C909 C 0.75078 0.34542 0.31798
 C910 C 0.75039 0.32093 0.32372
 C911 C 0.75084 0.31416 0.34794
 C912 C 0.75169 0.33141 0.36593
 H913 H 0.72065 0.41930 0.40842
 H914 H 0.72199 0.44533 0.44390
 H915 H 0.79139 0.41716 0.46188
 H916 H 0.78998 0.39111 0.42650
 H917 H 0.75195 0.38143 0.33133
 H918 H 0.75042 0.35127 0.29955
 H919 H 0.75054 0.29551 0.35307
 H920 H 0.75205 0.32580 0.38445
 C921 C 0.09507 0.26014 0.08262
 C922 C 0.07560 0.24471 0.07998
 C923 C 0.06051 0.24680 0.06015
 C924 C 0.06453 0.26458 0.04273
 C925 C 0.08443 0.27980 0.04559
 C926 C 0.09941 0.27768 0.06541
 C927 C 0.11122 0.25761 0.10245
 C928 C 0.12538 0.25583 0.11858
 C929 C 0.14299 0.25404 0.13722
 C930 C 0.13609 0.25340 0.16124
 C931 C 0.15341 0.25218 0.17923
 C932 C 0.17788 0.25161 0.17339
 C933 C 0.18456 0.25215 0.14915
 C934 C 0.16723 0.25337 0.13124
 H935 H 0.07231 0.23079 0.09301
 H936 H 0.04622 0.23394 0.05802
 H937 H 0.08819 0.29368 0.03265
 H938 H 0.11451 0.28964 0.06720
 H939 H 0.11736 0.25396 0.16606
 H940 H 0.14762 0.25176 0.19768
 H941 H 0.20318 0.25171 0.14395
 H942 H 0.17277 0.25389 0.11270
 C943 C 0.59513 0.74734 0.58381
 C944 C 0.59628 0.72799 0.56801
 C945 C 0.58130 0.72720 0.54808
 C946 C 0.56492 0.74570 0.54382
 C947 C 0.56370 0.76500 0.55979
 C948 C 0.57872 0.76579 0.57975
 C949 C 0.61153 0.74862 0.60355
 C950 C 0.62580 0.74949 0.61964
 C951 C 0.64345 0.75027 0.63830
 C952 C 0.66768 0.75138 0.63233
 C953 C 0.68503 0.75152 0.65026
 C954 C 0.67839 0.75053 0.67449
 C955 C 0.65393 0.74961 0.68032
 C956 C 0.63659 0.74946 0.66232
 H957 H 0.60901 0.71370 0.57091
 H958 H 0.58261 0.71230 0.53581
 H959 H 0.55140 0.77958 0.55657
 H960 H 0.57780 0.78091 0.59178
 H961 H 0.67319 0.75198 0.61379
 H962 H 0.70365 0.75224 0.64508
 H963 H 0.64816 0.74880 0.69877
 H964 H 0.61787 0.74856 0.66713
 C965 C 0.08345 0.75671 0.90585
 C966 C 0.07007 0.77784 0.90572
 C967 C 0.05000 0.78004 0.92038
 C968 C 0.04320 0.76117 0.93541
 C969 C 0.05672 0.74003 0.93556
 C970 C 0.07681 0.73785 0.92088
 C971 C 0.10331 0.75412 0.88975
 C972 C 0.11949 0.75219 0.87569
 C973 C 0.13820 0.75024 0.85819
 C974 C 0.13226 0.74856 0.83399
 C975 C 0.15021 0.74755 0.81672
 C976 C 0.17446 0.74822 0.82339
 C977 C 0.18027 0.74959 0.84783
 C978 C 0.16223 0.75062 0.86511
 H979 H 0.07495 0.79247 0.89404
 H980 H 0.03961 0.79636 0.91989
 H981 H 0.05150 0.72518 0.94680
 H982 H 0.08694 0.72135 0.92097
 H983 H 0.11372 0.74828 0.82845
 H984 H 0.14504 0.74649 0.79811
 H985 H 0.19872 0.75019 0.85361
 H986 H 0.16701 0.75196 0.88381
 C987 C 0.58339 0.24214 0.40558
 C988 C 0.56768 0.22268 0.40547
 C989 C 0.54757 0.22273 0.42026
 C990 C 0.54307 0.24220 0.43541
 C991 C 0.55895 0.26163 0.43555
 C992 C 0.57906 0.26156 0.42074
 C993 C 0.60326 0.24264 0.38929
 C994 C 0.61945 0.24312 0.37510
 C995 C 0.63818 0.24375 0.35752
 C996 C 0.63228 0.24402 0.33326
 C997 C 0.65024 0.24478 0.31597
 C998 C 0.67447 0.24530 0.32271
 C999 C 0.68025 0.24498 0.34720
 C1000 C 0.66219 0.24422 0.36448
 H1001 H 0.57077 0.20765 0.39368
 H1002 H 0.53538 0.20772 0.41976
 H1003 H 0.55552 0.27695 0.44686
 H1004 H 0.59099 0.27679 0.42082
 H1005 H 0.61374 0.24367 0.32767
 H1006 H 0.64509 0.24501 0.29733
 H1007 H 0.69869 0.24539 0.35303
 H1008 H 0.66696 0.24404 0.38323
 C1009 C 0.91593 0.75980 0.09516
 C1010 C 0.93454 0.77518 0.10148
 C1011 C 0.95465 0.77725 0.08688
 C1012 C 0.95644 0.76415 0.06540
 C1013 C 0.93752 0.74860 0.05933
 C1014 C 0.91742 0.74654 0.07404
 C1015 C 0.89580 0.75713 0.11091
 C1016 C 0.87947 0.75515 0.12481
 C1017 C 0.86068 0.75314 0.14223
 C1018 C 0.86656 0.75123 0.16643
 C1019 C 0.84858 0.75017 0.18367
 C1020 C 0.82435 0.75102 0.17697
 C1021 C 0.81859 0.75263 0.15252
 C1022 C 0.83667 0.75371 0.13528
 H1023 H 0.93361 0.78547 0.11785
 H1024 H 0.96862 0.78953 0.09221
 H1025 H 0.93864 0.73730 0.04367
 H1026 H 0.90326 0.73429 0.06916
 H1027 H 0.88509 0.75080 0.17201
 H1028 H 0.85372 0.74891 0.20227
 H1029 H 0.80015 0.75337 0.14673
 H1030 H 0.83193 0.75524 0.11658
 C1031 C 0.41479 0.24883 0.59511
 C1032 C 0.41953 0.22922 0.58031
 C1033 C 0.43972 0.22923 0.56560
 C1034 C 0.45526 0.24892 0.56548
 C1035 C 0.45038 0.26856 0.58027
 C1036 C 0.43020 0.26853 0.59497
 C1037 C 0.39479 0.24838 0.61126
 C1038 C 0.37852 0.24810 0.62536
 C1039 C 0.35973 0.24793 0.64290
 C1040 C 0.33571 0.24827 0.63592
 C1041 C 0.31763 0.24847 0.65319
 C1042 C 0.32337 0.24835 0.67769
 C1043 C 0.34761 0.24789 0.68444
 C1044 C 0.36559 0.24768 0.66717
 H1045 H 0.40783 0.21381 0.58042
 H1046 H 0.44344 0.21380 0.55454
 H1047 H 0.46231 0.28379 0.58056
 H1048 H 0.42680 0.28372 0.60647
 H1049 H 0.33098 0.24849 0.61716
 H1050 H 0.29919 0.24885 0.64736
 H1051 H 0.35274 0.24779 0.70309
 H1052 H 0.38412 0.24744 0.67277
 C1053 C 0.90455 0.25803 0.91667
 C1054 C 0.92555 0.24458 0.91823
 C1055 C 0.94017 0.24643 0.93843
 C1056 C 0.93413 0.26200 0.95734
 C1057 C 0.91270 0.27516 0.95555
 C1058 C 0.89819 0.27329 0.93536
 C1059 C 0.88899 0.25581 0.89632
 C1060 C 0.87522 0.25428 0.87984
 C1061 C 0.85788 0.25277 0.86092
 C1062 C 0.86502 0.25260 0.83696
 C1063 C 0.84788 0.25161 0.81876
 C1064 C 0.82336 0.25081 0.82436
 C1065 C 0.81646 0.25090 0.84854
 C1066 C 0.83358 0.25187 0.86663
 H1067 H 0.93044 0.23240 0.90401
 H1068 H 0.95579 0.23508 0.93958
 H1069 H 0.90738 0.28740 0.96956
 H1070 H 0.88190 0.28371 0.93439
 H1071 H 0.88380 0.25332 0.83235
 H1072 H 0.85384 0.25154 0.80036
 H1073 H 0.79779 0.25026 0.85356
 H1074 H 0.82785 0.25203 0.88512
 C1075 C 0.40462 0.74630 0.41635
 C1076 C 0.40536 0.72551 0.43023
 C1077 C 0.42003 0.72442 0.45039
 C1078 C 0.43420 0.74408 0.45677
 C1079 C 0.43344 0.76490 0.44279
 C1080 C 0.41875 0.76597 0.42262
 C1081 C 0.38859 0.74770 0.39631
 C1082 C 0.37462 0.74868 0.37996
 C1083 C 0.35726 0.74962 0.36104
 C1084 C 0.33297 0.75076 0.36671
 C1085 C 0.31585 0.75107 0.34858
 C1086 C 0.32278 0.75025 0.32442
 C1087 C 0.34730 0.74930 0.31887
 C1088 C 0.36442 0.74897 0.33710
 H1089 H 0.39437 0.71026 0.42564
 H1090 H 0.42026 0.70833 0.46112
 H1091 H 0.44403 0.78033 0.44769
 H1092 H 0.41817 0.78221 0.41211
 H1093 H 0.32723 0.75124 0.38519
 H1094 H 0.29717 0.75182 0.35356
 H1095 H 0.35327 0.74861 0.30049
 H1096 H 0.38320 0.74805 0.33252
 C1097 C 0.09506 0.08371 0.24425
 C1098 C 0.07469 0.08273 0.25866
 C1099 C 0.05992 0.06259 0.25816
 C1100 C 0.06518 0.04309 0.24304
 C1101 C 0.08586 0.04440 0.22867
 C1102 C 0.10053 0.06456 0.22919
 C1103 C 0.11104 0.10380 0.24554
 C1104 C 0.12508 0.12009 0.24652
 C1105 C 0.14263 0.13883 0.24751
 C1106 C 0.13569 0.16285 0.24750
 C1107 C 0.15299 0.18090 0.24795
 C1108 C 0.17747 0.17511 0.24838
 C1109 C 0.18418 0.15087 0.24856
 C1110 C 0.16689 0.13292 0.24812
 H1111 H 0.07050 0.09731 0.27068
 H1112 H 0.04495 0.06188 0.27039
 H1113 H 0.09053 0.02996 0.21668
 H1114 H 0.11632 0.06509 0.21801
 H1115 H 0.11694 0.16762 0.24701
 H1116 H 0.14718 0.19935 0.24776
 H1117 H 0.20282 0.14571 0.24889
 H1118 H 0.17246 0.11438 0.24812
 C1119 C 0.59540 0.58355 0.74762
 C1120 C 0.57925 0.57979 0.76635
 C1121 C 0.56440 0.55970 0.76621
 C1122 C 0.56552 0.54328 0.74727
 C1123 C 0.58164 0.54723 0.72848
 C1124 C 0.59647 0.56731 0.72864
 C1125 C 0.61168 0.60343 0.74834
 C1126 C 0.62586 0.61962 0.74887
 C1127 C 0.64344 0.63836 0.74939
 C1128 C 0.63647 0.66237 0.74954
 C1129 C 0.65374 0.68044 0.74970
 C1130 C 0.67824 0.67468 0.74968
 C1131 C 0.68499 0.65045 0.74965
 C1132 C 0.66771 0.63247 0.74950
 H1133 H 0.57841 0.59215 0.78121
 H1134 H 0.55231 0.55672 0.78102
 H1135 H 0.58288 0.53463 0.71385
 H1136 H 0.60901 0.56997 0.71414
 H1137 H 0.61771 0.66711 0.74944
 H1138 H 0.64790 0.69887 0.74968
 H1139 H 0.70364 0.64532 0.74963
 H1140 H 0.67330 0.61394 0.74937
 C1141 C 0.91735 0.09487 0.75738
 C1142 C 0.93430 0.10004 0.77496
 C1143 C 0.95431 0.08542 0.77783
 C1144 C 0.95762 0.06506 0.76334
 C1145 C 0.94051 0.06027 0.74543
 C1146 C 0.92049 0.07498 0.74259
 C1147 C 0.89717 0.11050 0.75423
 C1148 C 0.88072 0.12424 0.75201
 C1149 C 0.86173 0.14145 0.74986
 C1150 C 0.86733 0.16564 0.74723
 C1151 C 0.84917 0.18271 0.74634
 C1152 C 0.82503 0.17585 0.74809
 C1153 C 0.81953 0.15140 0.75034
 C1154 C 0.83779 0.13433 0.75125
 H1155 H 0.93212 0.11547 0.78644
 H1156 H 0.96698 0.08980 0.79179
 H1157 H 0.94297 0.04558 0.73308
 H1158 H 0.90767 0.07104 0.72865
 H1159 H 0.88579 0.17136 0.74619
 H1160 H 0.85411 0.20132 0.74458
 H1161 H 0.80118 0.14549 0.75179
 H1162 H 0.83326 0.11564 0.75336
 C1163 C 0.41651 0.59474 0.24694
 C1164 C 0.43173 0.59459 0.26679
 C1165 C 0.45201 0.58006 0.26690
 C1166 C 0.45717 0.56545 0.24720
 C1167 C 0.44186 0.56563 0.22733
 C1168 C 0.42156 0.58019 0.22724
 C1169 C 0.39634 0.61063 0.24646
 C1170 C 0.37992 0.62454 0.24618
 C1171 C 0.36099 0.64189 0.24603
 C1172 C 0.36667 0.66618 0.24517
 C1173 C 0.34857 0.68331 0.24553
 C1174 C 0.32442 0.67639 0.24677
 C1175 C 0.31885 0.65187 0.24745
 C1176 C 0.33706 0.63473 0.24710
 H1177 H 0.42807 0.60592 0.28204
 H1178 H 0.46377 0.58026 0.28227
 H1179 H 0.44579 0.55469 0.21187
 H1180 H 0.41001 0.58032 0.21171
 H1181 H 0.38514 0.67191 0.24436
 H1182 H 0.35356 0.70198 0.24497
 H1183 H 0.30048 0.64591 0.24845
 H1184 H 0.33248 0.61595 0.24781
 C1185 C 0.08348 0.90487 0.75757
 C1186 C 0.08185 0.92608 0.74447
 C1187 C 0.06185 0.94089 0.74698
 C1188 C 0.04320 0.93481 0.76284
 C1189 C 0.04513 0.91325 0.77577
 C1190 C 0.06512 0.89856 0.77325
 C1191 C 0.10353 0.88904 0.75458
 C1192 C 0.11977 0.87504 0.75246
 C1193 C 0.13846 0.85750 0.75040
 C1194 C 0.16250 0.86424 0.75165
 C1195 C 0.18048 0.84688 0.75073
 C1196 C 0.17459 0.82250 0.74862
 C1197 C 0.15034 0.81601 0.74705
 C1198 C 0.13246 0.83338 0.74795
 H1199 H 0.09581 0.93097 0.73200
 H1200 H 0.06060 0.95664 0.73582
 H1201 H 0.03137 0.90792 0.78828
 H1202 H 0.06616 0.88214 0.78345
 H1203 H 0.16735 0.88287 0.75362
 H1204 H 0.19893 0.85252 0.75203
 H1205 H 0.14511 0.79747 0.74541
 H1206 H 0.11391 0.82795 0.74702
 C1207 C 0.58379 0.40442 0.24243
 C1208 C 0.57944 0.41972 0.26173
 C1209 C 0.55953 0.43478 0.26149
 C1210 C 0.54390 0.43475 0.24187
 C1211 C 0.54843 0.41948 0.22251
 C1212 C 0.56834 0.40443 0.22277
 C1213 C 0.60342 0.38789 0.24324
 C1214 C 0.61945 0.37355 0.24397
 C1215 C 0.63807 0.35588 0.24487
 C1216 C 0.66206 0.36277 0.24614
 C1217 C 0.68003 0.34544 0.24711
 C1218 C 0.67419 0.32097 0.24682
 C1219 C 0.64998 0.31430 0.24552
 C1220 C 0.63209 0.33164 0.24456
 H1221 H 0.59118 0.41970 0.27711
 H1222 H 0.55606 0.44619 0.27673
 H1223 H 0.53641 0.41908 0.20735
 H1224 H 0.57146 0.39254 0.20782
 H1225 H 0.66687 0.38151 0.24641
 H1226 H 0.69846 0.35122 0.24811
 H1227 H 0.64480 0.29567 0.24528
 H1228 H 0.61356 0.32613 0.24359
 C1229 C 0.90632 0.91635 0.25716
 C1230 C 0.90114 0.93577 0.27195
 C1231 C 0.91585 0.95590 0.27186
 C1232 C 0.93630 0.95690 0.25713
 C1233 C 0.94126 0.93714 0.24227
 C1234 C 0.92644 0.91702 0.24238
 C1235 C 0.89026 0.89631 0.25642
 C1236 C 0.87616 0.88005 0.25580
 C1237 C 0.85859 0.86132 0.25504
 C1238 C 0.83433 0.86725 0.25452
 C1239 C 0.81704 0.84930 0.25370
 C1240 C 0.82377 0.82507 0.25340
 C1241 C 0.84825 0.81927 0.25397
 C1242 C 0.86554 0.83731 0.25478
 H1243 H 0.88553 0.93548 0.28339
 H1244 H 0.91140 0.97059 0.28364
 H1245 H 0.95602 0.93761 0.22977
 H1246 H 0.93039 0.90223 0.23054
 H1247 H 0.82876 0.88578 0.25471
 H1248 H 0.79841 0.85446 0.25327
 H1249 H 0.85407 0.80083 0.25372
 H1250 H 0.88429 0.83254 0.25518
 C1251 C 0.40566 0.41532 0.75380
 C1252 C 0.42123 0.41891 0.73456
 C1253 C 0.43593 0.43909 0.73396
 C1254 C 0.43525 0.45577 0.75268
 C1255 C 0.41969 0.45203 0.77197
 C1256 C 0.40501 0.43186 0.77255
 C1257 C 0.38948 0.39537 0.75382
 C1258 C 0.37535 0.37913 0.75379
 C1259 C 0.35778 0.36039 0.75368
 C1260 C 0.36473 0.33638 0.75363
 C1261 C 0.34744 0.31833 0.75331
 C1262 C 0.32295 0.32412 0.75302
 C1263 C 0.31623 0.34836 0.75316
 C1264 C 0.33352 0.36631 0.75349
 H1265 H 0.42172 0.40633 0.71986
 H1266 H 0.44760 0.44190 0.71878
 H1267 H 0.41881 0.46484 0.78644
 H1268 H 0.39289 0.42935 0.78743
 H1269 H 0.38349 0.33161 0.75376
 H1270 H 0.35325 0.29988 0.75317
 H1271 H 0.29759 0.35352 0.75295
 H1272 H 0.32795 0.38484 0.75353
 C1273 C 0.09378 0.26035 0.91637
 C1274 C 0.07323 0.24634 0.91862
 C1275 C 0.05845 0.24885 0.93861
 C1276 C 0.06390 0.26560 0.95667
 C1277 C 0.08476 0.27953 0.95409
 C1278 C 0.09943 0.27700 0.93409
 C1279 C 0.10970 0.25714 0.89645
 C1280 C 0.12371 0.25472 0.88027
 C1281 C 0.14118 0.25221 0.86159
 C1282 C 0.13436 0.25310 0.83756
 C1283 C 0.15166 0.25169 0.81956
 C1284 C 0.17603 0.24947 0.82542
 C1285 C 0.18259 0.24822 0.84967
 C1286 C 0.16529 0.24960 0.86758
 H1287 H 0.06888 0.23313 0.90516
 H1288 H 0.04330 0.23695 0.94039
 H1289 H 0.08959 0.29271 0.96741
 H1290 H 0.11536 0.28790 0.93256
 H1291 H 0.11573 0.25514 0.83273
 H1292 H 0.14596 0.25269 0.80110
 H1293 H 0.20114 0.24643 0.85487
 H1294 H 0.17077 0.24891 0.88613
 C1295 C 0.59404 0.74744 0.41564
 C1296 C 0.59368 0.76718 0.43099
 C1297 C 0.57894 0.76711 0.45113
 C1298 C 0.56433 0.74734 0.45602
 C1299 C 0.56462 0.72764 0.44050
 C1300 C 0.57939 0.72772 0.42034
 C1301 C 0.61031 0.74707 0.39575
 C1302 C 0.62451 0.74691 0.37958
 C1303 C 0.64215 0.74690 0.36089
 C1304 C 0.66638 0.74601 0.36686
 C1305 C 0.68374 0.74645 0.34896
 C1306 C 0.67710 0.74781 0.32474
 C1307 C 0.65263 0.74853 0.31889
 C1308 C 0.63528 0.74809 0.33689
 H1309 H 0.60506 0.78245 0.42761
 H1310 H 0.57908 0.78234 0.46305
 H1311 H 0.55371 0.71211 0.44423
 H1312 H 0.57968 0.71229 0.40868
 H1313 H 0.67189 0.74508 0.38539
 H1314 H 0.70236 0.74579 0.35415
 H1315 H 0.64688 0.74954 0.30046
 H1316 H 0.61655 0.74880 0.33208
 C1317 C 0.91586 0.76146 0.90546
 C1318 C 0.91711 0.74791 0.92641
 C1319 C 0.93717 0.74956 0.94123
 C1320 C 0.95628 0.76496 0.93543
 C1321 C 0.95470 0.77839 0.91414
 C1322 C 0.93464 0.77674 0.89943
 C1323 C 0.89585 0.75908 0.88949
 C1324 C 0.87967 0.75725 0.87542
 C1325 C 0.86105 0.75525 0.85781
 C1326 C 0.86714 0.75370 0.83364
 C1327 C 0.84931 0.75217 0.81627
 C1328 C 0.82502 0.75216 0.82283
 C1329 C 0.81907 0.75363 0.84723
 C1330 C 0.83699 0.75517 0.86460
 H1331 H 0.90282 0.73573 0.93105
 H1332 H 0.93812 0.73802 0.95673
 H1333 H 0.96885 0.79056 0.90903
 H1334 H 0.93389 0.78724 0.88319
 H1335 H 0.88571 0.75379 0.82818
 H1336 H 0.85459 0.75111 0.79770
 H1337 H 0.80058 0.75373 0.85292
 H1338 H 0.83209 0.75641 0.88328
 C1339 C 0.41522 0.24762 0.40515
 C1340 C 0.42910 0.22685 0.40613
 C1341 C 0.44907 0.22581 0.42107
 C1342 C 0.45528 0.24552 0.43526
 C1343 C 0.44125 0.26629 0.43433
 C1344 C 0.42125 0.26731 0.41936
 C1345 C 0.39548 0.24899 0.38873
 C1346 C 0.37940 0.24990 0.37443
 C1347 C 0.36077 0.25067 0.35672
 C1348 C 0.36683 0.25116 0.33249
 C1349 C 0.34897 0.25130 0.31508
 C1350 C 0.32468 0.25093 0.32165
 C1351 C 0.31876 0.25066 0.34610
 C1352 C 0.33671 0.25051 0.36351
 H1353 H 0.42469 0.21157 0.39510
 H1354 H 0.45986 0.20975 0.42140
 H1355 H 0.44601 0.28177 0.44490
 H1356 H 0.41074 0.28354 0.41860
 H1357 H 0.38540 0.25128 0.32704
 H1358 H 0.35423 0.25158 0.29647
 H1359 H 0.30028 0.25040 0.35180
 H1360 H 0.33183 0.25011 0.38223
 C1361 C 0.08424 0.75921 0.09427
 C1362 C 0.07768 0.73981 0.07989
 C1363 C 0.05735 0.74125 0.06544
 C1364 C 0.04349 0.76216 0.06519
 C1365 C 0.05017 0.78155 0.07959
 C1366 C 0.07049 0.78010 0.09402
 C1367 C 0.10436 0.75737 0.11015
 C1368 C 0.12073 0.75595 0.12407
 C1369 C 0.13957 0.75441 0.14148
 C1370 C 0.16357 0.75458 0.13442
 C1371 C 0.18170 0.75340 0.15161
 C1372 C 0.17602 0.75204 0.17608
 C1373 C 0.15180 0.75181 0.18289
 C1374 C 0.13377 0.75299 0.16572
 H1375 H 0.08808 0.72349 0.08011
 H1376 H 0.05223 0.72602 0.05467
 H1377 H 0.03954 0.79772 0.07976
 H1378 H 0.07529 0.79513 0.10521
 H1379 H 0.16825 0.75572 0.11568
 H1380 H 0.20013 0.75366 0.14573
 H1381 H 0.14671 0.75081 0.20152
 H1382 H 0.11526 0.75288 0.17137
 C1383 C 0.58400 0.24845 0.59465
 C1384 C 0.56801 0.22927 0.59610
 C1385 C 0.54768 0.22877 0.58163
 C1386 C 0.54319 0.24740 0.56548
 C1387 C 0.55928 0.26659 0.56403
 C1388 C 0.57964 0.26708 0.57853
 C1389 C 0.60424 0.24938 0.61048
 C1390 C 0.62069 0.24997 0.62438
 C1391 C 0.63963 0.25043 0.64177
 C1392 C 0.63392 0.25101 0.66607
 C1393 C 0.65202 0.25099 0.68322
 C1394 C 0.67621 0.25038 0.67633
 C1395 C 0.68180 0.24997 0.65180
 C1396 C 0.66359 0.24997 0.63464
 H1397 H 0.57112 0.21485 0.60863
 H1398 H 0.53535 0.21393 0.58311
 H1399 H 0.55590 0.28126 0.55188
 H1400 H 0.59178 0.28210 0.57739
 H1401 H 0.61544 0.25136 0.67179
 H1402 H 0.64700 0.25138 0.70189
 H1403 H 0.70020 0.24953 0.64586
 H1404 H 0.66820 0.24951 0.61585
 C1405 C 0.90495 0.25649 0.08462
 C1406 C 0.92151 0.23853 0.07923
 C1407 C 0.93623 0.24069 0.05915
 C1408 C 0.93457 0.26091 0.04437
 C1409 C 0.91805 0.27892 0.04998
 C1410 C 0.90337 0.27674 0.07004
 C1411 C 0.88879 0.25378 0.10443
 C1412 C 0.87466 0.25174 0.12055
 C1413 C 0.85709 0.24963 0.13920
 C1414 C 0.86385 0.25050 0.16325
 C1415 C 0.84650 0.24932 0.18122
 C1416 C 0.82212 0.24732 0.17531
 C1417 C 0.81560 0.24614 0.15104
 C1418 C 0.83296 0.24730 0.13317
 H1419 H 0.92276 0.22270 0.09029
 H1420 H 0.94862 0.22646 0.05487
 H1421 H 0.91639 0.29451 0.03865
 H1422 H 0.89052 0.29068 0.07396
 H1423 H 0.88250 0.25232 0.16812
 H1424 H 0.85217 0.25026 0.19968
 H1425 H 0.79705 0.24453 0.14580
 H1426 H 0.82752 0.24662 0.11460
 C1427 C 0.40487 0.74098 0.58487
 C1428 C 0.40464 0.72147 0.56921
 C1429 C 0.41946 0.72135 0.54912
 C1430 C 0.43474 0.74069 0.54457
 C1431 C 0.43504 0.76015 0.56040
 C1432 C 0.42021 0.76026 0.58050
 C1433 C 0.38850 0.74170 0.60467
 C1434 C 0.37425 0.74237 0.62079
 C1435 C 0.35659 0.74323 0.63945
 C1436 C 0.33234 0.74312 0.63347
 C1437 C 0.31499 0.74409 0.65136
 C1438 C 0.32164 0.74520 0.67559
 C1439 C 0.34611 0.74524 0.68145
 C1440 C 0.36346 0.74427 0.66347
 H1441 H 0.39272 0.70655 0.57232
 H1442 H 0.41883 0.70632 0.53696
 H1443 H 0.44644 0.77539 0.55694
 H1444 H 0.42038 0.77553 0.59238
 H1445 H 0.32682 0.74230 0.61493
 H1446 H 0.29636 0.74396 0.64615
 H1447 H 0.35188 0.74603 0.69989
 H1448 H 0.38220 0.74436 0.66829
 C1449 C 0.26180 0.09369 0.91572
 C1450 C 0.24777 0.07313 0.91786
 C1451 C 0.25038 0.05816 0.93771
 C1452 C 0.26723 0.06343 0.95573
 C1453 C 0.28122 0.08426 0.95322
 C1454 C 0.27859 0.09912 0.93337
 C1455 C 0.25847 0.10983 0.89599
 C1456 C 0.25594 0.12400 0.87997
 C1457 C 0.25330 0.14161 0.86143
 C1458 C 0.25325 0.13486 0.83736
 C1459 C 0.25162 0.15223 0.81946
 C1460 C 0.25006 0.17662 0.82543
 C1461 C 0.24979 0.18314 0.84972
 C1462 C 0.25141 0.16576 0.86755
 H1463 H 0.23446 0.06893 0.90445
 H1464 H 0.23845 0.04303 0.93943
 H1465 H 0.29449 0.08894 0.96651
 H1466 H 0.28952 0.11503 0.93193
 H1467 H 0.25473 0.11621 0.83243
 H1468 H 0.25186 0.14655 0.80097
 H1469 H 0.24854 0.20170 0.85501
 H1470 H 0.25143 0.17119 0.88612
 C1471 C 0.75549 0.59337 0.41456
 C1472 C 0.73651 0.57793 0.41977
 C1473 C 0.73759 0.56310 0.43985
 C1474 C 0.75773 0.56354 0.45481
 C1475 C 0.77676 0.57895 0.44942
 C1476 C 0.77566 0.59374 0.42935
 C1477 C 0.75389 0.60969 0.39477
 C1478 C 0.75272 0.62394 0.37868
 C1479 C 0.75153 0.64167 0.36011
 C1480 C 0.75199 0.63498 0.33603
 C1481 C 0.75137 0.65245 0.31815
 C1482 C 0.75033 0.67685 0.32418
 C1483 C 0.74969 0.68331 0.34848
 C1484 C 0.75029 0.66584 0.36627
 H1485 H 0.72074 0.57764 0.40856
 H1486 H 0.72261 0.55158 0.44398
 H1487 H 0.79232 0.57966 0.46090
 H1488 H 0.79036 0.60574 0.42558
 H1489 H 0.75296 0.61630 0.33108
 H1490 H 0.75186 0.64683 0.29965
 H1491 H 0.74881 0.70187 0.35382
 H1492 H 0.74993 0.67122 0.38486
 C1493 C 0.73942 0.08248 0.09379
 C1494 C 0.75455 0.07952 0.07415
 C1495 C 0.75221 0.05949 0.05941
 C1496 C 0.73447 0.04214 0.06394
 C1497 C 0.71952 0.04533 0.08399
 C1498 C 0.72189 0.06537 0.09864
 C1499 C 0.74230 0.10251 0.10962
 C1500 C 0.74444 0.11881 0.12353
 C1501 C 0.74662 0.13760 0.14092
 C1502 C 0.74581 0.16160 0.13397
 C1503 C 0.74700 0.17969 0.15120
 C1504 C 0.74894 0.17394 0.17561
 C1505 C 0.75007 0.14972 0.18231
 C1506 C 0.74891 0.13174 0.16509
 H1507 H 0.76846 0.09247 0.07047
 H1508 H 0.76488 0.05714 0.04498
 H1509 H 0.70566 0.03249 0.08814
 H1510 H 0.71016 0.06742 0.11389
 H1511 H 0.74402 0.16632 0.11529
 H1512 H 0.74610 0.19812 0.14541
 H1513 H 0.75165 0.14460 0.20089
 H1514 H 0.74954 0.11321 0.17066
 C1515 C 0.24385 0.58295 0.59383
 C1516 C 0.22387 0.56792 0.59434
 C1517 C 0.22295 0.54779 0.57961
 C1518 C 0.24196 0.54257 0.56412
 C1519 C 0.26192 0.55776 0.56357
 C1520 C 0.26283 0.57790 0.57833
 C1521 C 0.24523 0.60289 0.61000
 C1522 C 0.24624 0.61913 0.62410
 C1523 C 0.24724 0.63792 0.64163
 C1524 C 0.24811 0.63207 0.66589
 C1525 C 0.24863 0.65008 0.68314
 C1526 C 0.24825 0.67430 0.67637
 C1527 C 0.24755 0.68002 0.65188
 C1528 C 0.24702 0.66192 0.63463
 H1529 H 0.20916 0.57156 0.60638
 H1530 H 0.20752 0.53614 0.58041
 H1531 H 0.27690 0.55379 0.55198
 H1532 H 0.27846 0.58931 0.57793
 H1533 H 0.24829 0.61355 0.67151
 H1534 H 0.24923 0.64497 0.70178
 H1535 H 0.24728 0.69845 0.64603
 H1536 H 0.24634 0.66664 0.61588
 C1537 C 0.74345 0.91388 0.90525
 C1538 C 0.72391 0.92934 0.90305
 C1539 C 0.72222 0.94953 0.91760
 C1540 C 0.74000 0.95441 0.93460
 C1541 C 0.75951 0.93878 0.93685
 C1542 C 0.76119 0.91856 0.92226
 C1543 C 0.74569 0.89389 0.88924
 C1544 C 0.74734 0.87766 0.87519
 C1545 C 0.74902 0.85896 0.85764
 C1546 C 0.75061 0.86493 0.83345
 C1547 C 0.75156 0.84702 0.81613
 C1548 C 0.75091 0.82277 0.82275
 C1549 C 0.74956 0.81691 0.84718
 C1550 C 0.74859 0.83492 0.86450
 H1551 H 0.71017 0.92597 0.88985
 H1552 H 0.70716 0.96150 0.91550
 H1553 H 0.77355 0.94247 0.94964
 H1554 H 0.77647 0.90682 0.92398
 H1555 H 0.75095 0.88348 0.82794
 H1556 H 0.75267 0.85224 0.79754
 H1557 H 0.74906 0.79845 0.85292
 H1558 H 0.74735 0.83010 0.88320
 C1559 C 0.24557 0.41413 0.40428
 C1560 C 0.22551 0.42907 0.40353
 C1561 C 0.22431 0.44918 0.41826
 C1562 C 0.24310 0.45449 0.43399
 C1563 C 0.26313 0.43940 0.43478
 C1564 C 0.26433 0.41927 0.42002
 C1565 C 0.24725 0.39422 0.38811
 C1566 C 0.24848 0.37801 0.37398
 C1567 C 0.24974 0.35929 0.35640
 C1568 C 0.25097 0.36523 0.33217
 C1569 C 0.25165 0.34730 0.31486
 C1570 C 0.25108 0.32304 0.32151
 C1571 C 0.25004 0.31723 0.34597
 C1572 C 0.24935 0.33526 0.36329
 H1573 H 0.21097 0.42536 0.39131
 H1574 H 0.20883 0.46075 0.41727
 H1575 H 0.27794 0.44345 0.44656
 H1576 H 0.28001 0.40795 0.42061
 H1577 H 0.25128 0.38377 0.32664
 H1578 H 0.25251 0.35248 0.29625
 H1579 H 0.24962 0.29877 0.35174
 H1580 H 0.24839 0.33046 0.38201
 C1581 C 0.25862 0.90472 0.08379
 C1582 C 0.24060 0.92120 0.07833
 C1583 C 0.24260 0.93570 0.05808
 C1584 C 0.26272 0.93391 0.04318
 C1585 C 0.28076 0.91743 0.04880
 C1586 C 0.27874 0.90296 0.06904
 C1587 C 0.25609 0.88884 0.10384
 C1588 C 0.25417 0.87491 0.12015
 C1589 C 0.25216 0.85749 0.13896
 C1590 C 0.25307 0.86443 0.16297
 C1591 C 0.25193 0.84720 0.18107
 C1592 C 0.24994 0.82278 0.17532
 C1593 C 0.24874 0.81610 0.15110
 C1594 C 0.24986 0.83333 0.13311
 H1595 H 0.22486 0.92258 0.08951
 H1596 H 0.22836 0.94807 0.05380
 H1597 H 0.29629 0.91567 0.03740
 H1598 H 0.29271 0.89017 0.07300
 H1599 H 0.25487 0.88310 0.16770
 H1600 H 0.25288 0.85297 0.19950
 H1601 H 0.24712 0.79753 0.14597
 H1602 H 0.24914 0.82776 0.11459
 C1603 C 0.75426 0.40421 0.58367
 C1604 C 0.77420 0.40327 0.56861
 C1605 C 0.77533 0.41787 0.54840
 C1606 C 0.75657 0.43365 0.54314
 C1607 C 0.73664 0.43461 0.55834
 C1608 C 0.73552 0.41998 0.57857
 C1609 C 0.75266 0.38818 0.60370
 C1610 C 0.75151 0.37416 0.62000
 C1611 C 0.75037 0.35669 0.63881
 C1612 C 0.74899 0.33245 0.63298
 C1613 C 0.74851 0.31521 0.65099
 C1614 C 0.74945 0.32197 0.67520
 C1615 C 0.75060 0.34644 0.68091
 C1616 C 0.75108 0.36368 0.66280
 H1617 H 0.78872 0.39102 0.57230
 H1618 H 0.79073 0.41676 0.53674
 H1619 H 0.72186 0.44643 0.55433
 H1620 H 0.71992 0.42071 0.59000
 H1621 H 0.74843 0.32684 0.61446
 H1622 H 0.74754 0.29658 0.64589
 H1623 H 0.75131 0.35228 0.69934
 H1624 H 0.75217 0.38241 0.66751
 C1625 C 0.08423 0.09447 0.76321
 C1626 C 0.06601 0.10000 0.77935
 C1627 C 0.04588 0.08538 0.78107
 C1628 C 0.04369 0.06468 0.76685
 C1629 C 0.06220 0.05940 0.75054
 C1630 C 0.08233 0.07412 0.74884
 C1631 C 0.10432 0.11033 0.76083
 C1632 C 0.12060 0.12430 0.75900
 C1633 C 0.13933 0.14180 0.75702
 C1634 C 0.13338 0.16600 0.75554
 C1635 C 0.15131 0.18327 0.75408
 C1636 C 0.17556 0.17658 0.75409
 C1637 C 0.18139 0.15214 0.75545
 C1638 C 0.16336 0.13487 0.75692
 H1639 H 0.06725 0.11578 0.79048
 H1640 H 0.03217 0.09009 0.79388
 H1641 H 0.06073 0.04440 0.73842
 H1642 H 0.09616 0.06989 0.73599
 H1643 H 0.11484 0.17157 0.75563
 H1644 H 0.14612 0.20187 0.75308
 H1645 H 0.19984 0.14636 0.75555
 H1646 H 0.16816 0.11617 0.75810
 C1647 C 0.58568 0.59428 0.24798
 C1648 C 0.56996 0.59560 0.22857
 C1649 C 0.54973 0.58102 0.22781
 C1650 C 0.54507 0.56488 0.24641
 C1651 C 0.56095 0.56349 0.26580
 C1652 C 0.58121 0.57811 0.26655
 C1653 C 0.60570 0.61035 0.24926
 C1654 C 0.62195 0.62446 0.25012
 C1655 C 0.64067 0.64207 0.25092
 C1656 C 0.63468 0.66629 0.25201
 C1657 C 0.65257 0.68365 0.25227
 C1658 C 0.67683 0.67705 0.25144
 C1659 C 0.68271 0.65260 0.25053
 C1660 C 0.66471 0.63523 0.25025
 H1661 H 0.57316 0.60816 0.21420
 H1662 H 0.53756 0.58245 0.21284
 H1663 H 0.55742 0.55137 0.28045
 H1664 H 0.59315 0.57708 0.28174
 H1665 H 0.61612 0.67178 0.25253
 H1666 H 0.64734 0.70225 0.25305
 H1667 H 0.70117 0.64688 0.24989
 H1668 H 0.66954 0.61652 0.24939
 C1669 C 0.09505 0.91552 0.24962
 C1670 C 0.09813 0.93326 0.26697
 C1671 C 0.08360 0.95354 0.26685
 C1672 C 0.06577 0.95621 0.24943
 C1673 C 0.06263 0.93829 0.23215
 C1674 C 0.07719 0.91800 0.23228
 C1675 C 0.11098 0.89539 0.24906
 C1676 C 0.12497 0.87903 0.24866
 C1677 C 0.14243 0.86021 0.24830
 C1678 C 0.16671 0.86601 0.24800
 C1679 C 0.18393 0.84799 0.24795
 C1680 C 0.17710 0.82378 0.24822
 C1681 C 0.15259 0.81810 0.24840
 C1682 C 0.13537 0.83623 0.24845
 H1683 H 0.11200 0.93158 0.28037
 H1684 H 0.08635 0.96726 0.28021
 H1685 H 0.04915 0.94023 0.21840
 H1686 H 0.07478 0.90446 0.21867
 H1687 H 0.17236 0.88452 0.24788
 H1688 H 0.20259 0.85306 0.24777
 H1689 H 0.14670 0.79968 0.24857
 H1690 H 0.11660 0.83155 0.24868
 C1691 C 0.59497 0.41489 0.75046
 C1692 C 0.59638 0.43125 0.76933
 C1693 C 0.58171 0.45145 0.76954
 C1694 C 0.56538 0.45542 0.75093
 C1695 C 0.56394 0.43891 0.73209
 C1696 C 0.57864 0.41870 0.73190
 C1697 C 0.61107 0.39485 0.74971
 C1698 C 0.62513 0.37853 0.74916
 C1699 C 0.64264 0.35969 0.74865
 C1700 C 0.66692 0.36549 0.74808
 C1701 C 0.68415 0.34746 0.74793
 C1702 C 0.67735 0.32324 0.74836
 C1703 C 0.65284 0.31757 0.74879
 C1704 C 0.63561 0.33570 0.74894
 H1705 H 0.60906 0.42857 0.78371
 H1706 H 0.58321 0.46411 0.78410
 H1707 H 0.55170 0.44190 0.71741
 H1708 H 0.57753 0.40626 0.71711
 H1709 H 0.67257 0.38400 0.74784
 H1710 H 0.70281 0.35254 0.74754
 H1711 H 0.64696 0.29915 0.74909
 H1712 H 0.61684 0.33101 0.74938
 C1713 C 0.90569 0.08374 0.24712
 C1714 C 0.92314 0.08177 0.26495
 C1715 C 0.93799 0.06170 0.26574
 C1716 C 0.93553 0.04350 0.24865
 C1717 C 0.91816 0.04569 0.23071
 C1718 C 0.90334 0.06574 0.22993
 C1719 C 0.88937 0.10357 0.24708
 C1720 C 0.87509 0.11966 0.24708
 C1721 C 0.85735 0.13823 0.24712
 C1722 C 0.86410 0.16229 0.24768
 C1723 C 0.84666 0.18019 0.24791
 C1724 C 0.82222 0.17420 0.24761
 C1725 C 0.81570 0.14992 0.24697
 C1726 C 0.83314 0.13211 0.24673
 H1727 H 0.92497 0.09552 0.27844
 H1728 H 0.95111 0.06012 0.27988
 H1729 H 0.91594 0.03174 0.21749
 H1730 H 0.88980 0.06703 0.21615
 H1731 H 0.88282 0.16720 0.24797
 H1732 H 0.85233 0.19867 0.24837
 H1733 H 0.79710 0.14463 0.24667
 H1734 H 0.82773 0.11354 0.24629
 C1735 C 0.40487 0.58344 0.74660
 C1736 C 0.42100 0.58016 0.76545
 C1737 C 0.43607 0.56022 0.76573
 C1738 C 0.43521 0.54346 0.74708
 C1739 C 0.41914 0.54695 0.72814
 C1740 C 0.40410 0.56687 0.72788
 C1741 C 0.38832 0.60313 0.74693
 C1742 C 0.37396 0.61918 0.74719
 C1743 C 0.35626 0.63785 0.74751
 C1744 C 0.36314 0.66188 0.74773
 C1745 C 0.34581 0.67989 0.74810
 C1746 C 0.32132 0.67408 0.74826
 C1747 C 0.31465 0.64983 0.74799
 C1748 C 0.33200 0.63189 0.74763
 H1749 H 0.42163 0.59277 0.78012
 H1750 H 0.44809 0.55760 0.78067
 H1751 H 0.41808 0.53408 0.71374
 H1752 H 0.39160 0.56915 0.71328
 H1753 H 0.38188 0.66669 0.74763
 H1754 H 0.35160 0.69834 0.74825
 H1755 H 0.29601 0.64465 0.74806
 H1756 H 0.32647 0.61334 0.74744
 C1757 C 0.91569 0.90573 0.76021
 C1758 C 0.93048 0.90471 0.78035
 C1759 C 0.95065 0.91932 0.78183
 C1760 C 0.95615 0.93519 0.76322
 C1761 C 0.94120 0.93627 0.74310
 C1762 C 0.92100 0.92163 0.74164
 C1763 C 0.89580 0.88959 0.75817
 C1764 C 0.87964 0.87545 0.75657
 C1765 C 0.86103 0.85783 0.75480
 C1766 C 0.86711 0.83364 0.75366
 C1767 C 0.84928 0.81627 0.75225
 C1768 C 0.82500 0.82285 0.75194
 C1769 C 0.81904 0.84727 0.75301
 C1770 C 0.83697 0.86464 0.75444
 H1771 H 0.92663 0.89235 0.79473
 H1772 H 0.96213 0.91812 0.79736
 H1773 H 0.94539 0.94817 0.72844
 H1774 H 0.90979 0.92241 0.72589
 H1775 H 0.88567 0.82817 0.75396
 H1776 H 0.85456 0.79768 0.75149
 H1777 H 0.80056 0.85297 0.75288
 H1778 H 0.83208 0.88334 0.75534
 C1779 C 0.41574 0.40576 0.24635
 C1780 C 0.42181 0.41994 0.26605
 C1781 C 0.44197 0.43467 0.26512
 C1782 C 0.45613 0.43540 0.24443
 C1783 C 0.44989 0.42124 0.22471
 C1784 C 0.42975 0.40654 0.22565
 C1785 C 0.39586 0.38953 0.24766
 C1786 C 0.37968 0.37535 0.24852
 C1787 C 0.36099 0.35773 0.24928
 C1788 C 0.33695 0.36459 0.24864
 C1789 C 0.31896 0.34723 0.24879
 C1790 C 0.32482 0.32278 0.24953
 C1791 C 0.34907 0.31616 0.25038
 C1792 C 0.36698 0.33351 0.25024
 H1793 H 0.41120 0.41932 0.28222
 H1794 H 0.44676 0.44523 0.28061
 H1795 H 0.46077 0.42143 0.20871
 H1796 H 0.42531 0.39551 0.21038
 H1797 H 0.33213 0.38331 0.24788
 H1798 H 0.30050 0.35297 0.24817
 H1799 H 0.35428 0.29754 0.25103
 H1800 H 0.38553 0.32801 0.25073
   
