data_POSCAR
  _audit_creation_date              2014-09-24
  _audit_creation_method            'ToBaCCo'
  _symmetry_space_group_name_H-M    'P1'
  _symmetry_Int_Tables_number       1
  _symmetry_cell_setting            triclinic
  loop_
  _symmetry_equiv_pos_as_xyz
 x,y,z
_cell_length_a 72.3802
_cell_length_b 72.2908
_cell_length_c 72.3106
_cell_angle_alpha 90.016900
_cell_angle_beta 90.073200
_cell_angle_gamma 89.992300
loop_
  _atom_site_label
  _atom_site_type_symbol
  _atom_site_fract_x
  _atom_site_fract_y
  _atom_site_fract_z
C1 C 0.30632 0.44492 0.92077
 C2 C 0.32233 0.45265 0.92847
 C3 C 0.33026 0.44480 0.94434
 C4 C 0.32209 0.42924 0.95252
 C5 C 0.30608 0.42151 0.94483
 C6 C 0.29819 0.42938 0.92897
 H7 H 0.32878 0.46449 0.92190
 H8 H 0.32837 0.42291 0.96460
 H9 H 0.28600 0.42318 0.92281
 C10 C 0.44609 0.82860 0.44578
 C11 C 0.43040 0.82054 0.45378
 C12 C 0.42233 0.80487 0.44570
 C13 C 0.43000 0.79721 0.42966
 C14 C 0.44568 0.80523 0.42163
 C15 C 0.45374 0.82089 0.42971
 H16 H 0.42421 0.82666 0.46600
 H17 H 0.42355 0.78530 0.42320
 H18 H 0.46568 0.82728 0.42328
 C19 C 0.94394 0.92091 0.80579
 C20 C 0.95218 0.92897 0.82138
 C21 C 0.94447 0.94489 0.82933
 C22 C 0.92853 0.95278 0.82159
 C23 C 0.92030 0.94473 0.80600
 C24 C 0.92803 0.92882 0.79809
 H25 H 0.96431 0.92261 0.82753
 H26 H 0.92232 0.96489 0.82789
 H27 H 0.92146 0.92239 0.78623
 C28 C 0.44440 -0.07881 0.30474
 C29 C 0.45267 -0.07075 0.32030
 C30 C 0.44499 -0.05483 0.32824
 C31 C 0.42906 -0.04693 0.32056
 C32 C 0.42077 -0.05497 0.30499
 C33 C 0.42847 -0.07089 0.29707
 H34 H 0.46479 -0.07708 0.32646
 H35 H 0.42290 -0.03483 0.32692
 H36 H 0.42185 -0.07733 0.28524
 C37 C 0.80497 0.30482 0.32833
 C38 C 0.82091 0.29705 0.32056
 C39 C 0.82908 0.30522 0.30503
 C40 C 0.82126 0.32114 0.29722
 C41 C 0.80533 0.32893 0.30498
 C42 C 0.79717 0.32074 0.32051
 H43 H 0.82716 0.28493 0.32683
 H44 H 0.82778 0.32767 0.28541
 H45 H 0.78505 0.32697 0.32674
 C46 C -0.19430 0.83048 0.80607
 C47 C -0.20248 0.82236 0.82166
 C48 C -0.19468 0.80647 0.82959
 C49 C -0.17872 0.79866 0.82186
 C50 C -0.17053 0.80675 0.80629
 C51 C -0.17834 0.82263 0.79839
 H52 H -0.21465 0.82860 0.82781
 H53 H -0.17246 0.78655 0.82814
 H54 H -0.17179 0.82904 0.78652
 C55 C 0.94539 0.32845 0.44484
 C56 C 0.92986 0.32022 0.45296
 C57 C 0.92210 0.30428 0.44511
 C58 C 0.92991 0.29654 0.42918
 C59 C 0.94543 0.30475 0.42103
 C60 C 0.95318 0.32068 0.42889
 H61 H 0.92360 0.32642 0.46508
 H62 H 0.92368 0.28442 0.42289
 H63 H 0.96498 0.32725 0.42240
 C64 C 0.44381 0.44336 0.83066
 C65 C 0.42798 0.45129 0.82276
 C66 C 0.42000 0.44338 0.80696
 C67 C 0.42789 0.42757 0.79902
 C68 C 0.44370 0.41962 0.80688
 C69 C 0.45168 0.42754 0.82268
 H70 H 0.42166 0.46335 0.82906
 H71 H 0.42153 0.42126 0.78698
 H72 H 0.46375 0.42117 0.82892
 C73 C 0.80384 0.92285 0.94590
 C74 C 0.81953 0.93094 0.95388
 C75 C 0.82755 0.94659 0.94577
 C76 C 0.81983 0.95419 0.92970
 C77 C 0.80414 0.94611 0.92170
 C78 C 0.79613 0.93046 0.92984
 H79 H 0.82574 0.92482 0.96609
 H80 H 0.82626 0.96607 0.92319
 H81 H 0.78422 0.92397 0.92344
 C82 C 0.30560 0.83012 0.30514
 C83 C 0.32156 0.82226 0.29746
 C84 C 0.32935 0.80638 0.30539
 C85 C 0.32115 0.79831 0.32096
 C86 C 0.30520 0.80614 0.32865
 C87 C 0.29742 0.82201 0.32072
 H88 H 0.32814 0.82867 0.28560
 H89 H 0.32737 0.78622 0.32730
 H90 H 0.28527 0.82824 0.32691
 C91 C 0.80653 0.42091 0.44475
 C92 C 0.82247 0.42880 0.45244
 C93 C 0.83055 0.44437 0.44419
 C94 C 0.82259 0.45208 0.42827
 C95 C 0.80665 0.44420 0.42057
 C96 C 0.79862 0.42864 0.42884
 H97 H 0.82876 0.42258 0.46457
 H98 H 0.82897 0.46394 0.42165
 H99 H 0.78648 0.42234 0.42269
 C100 C 0.94610 0.82819 -0.05393
 C101 C 0.93041 0.82010 -0.04594
 C102 C 0.92240 0.80440 -0.05400
 C103 C 0.93013 0.79672 -0.07001
 C104 C 0.94580 0.80477 -0.07802
 C105 C 0.95381 0.82047 -0.06995
 H106 H 0.92418 0.82624 -0.03375
 H107 H 0.92371 0.78479 -0.07647
 H108 H 0.96573 0.82689 -0.07639
 C109 C 0.30590 0.32928 0.80496
 C110 C 0.32181 0.32133 0.79732
 C111 C 0.32944 0.30536 0.80521
 C112 C 0.32110 0.29729 0.82071
 C113 C 0.30519 0.30523 0.82837
 C114 C 0.29758 0.32120 0.82047
 H115 H 0.32846 0.32777 0.78553
 H116 H 0.32720 0.28514 0.82704
 H117 H 0.28547 0.32755 0.82660
 C118 C 0.17238 0.55470 0.55363
 C119 C 0.18034 0.54664 0.56935
 C120 C 0.19601 0.55462 0.57748
 C121 C 0.20376 0.57063 0.56982
 C122 C 0.19582 0.57871 0.55409
 C123 C 0.18015 0.57071 0.54598
 H124 H 0.17410 0.53447 0.57550
 H125 H 0.21567 0.57703 0.57633
 H126 H 0.17377 0.57717 0.53404
 C127 C 0.57883 0.69531 0.05450
 C128 C 0.57087 0.70339 0.07020
 C129 C 0.55482 0.69579 0.07791
 C130 C 0.54670 0.68015 0.06987
 C131 C 0.55464 0.67205 0.05417
 C132 C 0.57068 0.67966 0.04647
 H133 H 0.57737 0.71528 0.07664
 H134 H 0.53450 0.67404 0.07605
 H135 H 0.57704 0.67318 0.03454
 C136 C 0.69536 0.19485 0.67142
 C137 C 0.70342 0.17911 0.67936
 C138 C 0.69580 0.17133 0.69540
 C139 C 0.68016 0.17938 0.70351
 C140 C 0.67210 0.19512 0.69557
 C141 C 0.67973 0.20286 0.67955
 H142 H 0.71530 0.17272 0.67283
 H143 H 0.67399 0.17320 0.71570
 H144 H 0.67328 0.21482 0.67319
 C145 C 1.07743 0.05362 0.19507
 C146 C 1.06931 0.06931 0.20300
 C147 C 1.05365 0.07730 0.19486
 C148 C 1.04606 0.06953 0.17881
 C149 C 1.05417 0.05382 0.17084
 C150 C 1.06984 0.04585 0.17901
 H151 H 1.07541 0.07555 0.21521
 H152 H 1.03415 0.07595 0.17233
 H153 H 1.07638 0.03391 0.17269
 C154 C 0.05573 0.17058 1.05585
 C155 C 0.07160 0.17841 1.04803
 C156 C 0.07937 0.19439 1.05577
 C157 C 0.07122 0.20258 1.07131
 C158 C 0.05533 0.19477 1.07916
 C159 C 0.04757 0.17878 1.07139
 H160 H 0.07811 0.17187 1.03621
 H161 H 0.07746 0.21476 1.07748
 H162 H 0.03548 0.17248 1.07763
 C163 C 0.17195 0.69626 0.69571
 C164 C 0.18011 0.68059 0.70368
 C165 C 0.19579 0.67263 0.69558
 C166 C 0.20336 0.68041 0.67954
 C167 C 0.19522 0.69608 0.67155
 C168 C 0.17954 0.70402 0.67967
 H169 H 0.17402 0.67435 0.71587
 H170 H 0.21527 0.67404 0.67306
 H171 H 0.17301 0.71593 0.67329
 C172 C 1.19602 0.17252 0.19549
 C173 C 1.20362 0.18031 0.17947
 C174 C 1.19556 0.19605 0.17155
 C175 C 1.17993 0.20405 0.17971
 C176 C 1.17233 0.19628 0.19573
 C177 C 1.18040 0.18054 0.20363
 H178 H 1.21548 0.17388 0.17294
 H179 H 1.17346 0.21601 0.17336
 H180 H 1.17428 0.17428 0.21580
 C181 C 0.67015 1.05629 0.55496
 C182 C 0.67832 1.04796 0.57045
 C183 C 0.69427 1.05563 0.57833
 C184 C 0.70210 1.07161 0.57068
 C185 C 0.69397 1.07998 0.55519
 C186 C 0.67801 1.07228 0.54731
 H187 H 0.67210 1.03578 0.57661
 H188 H 0.71426 1.07771 0.57702
 H189 H 0.67151 1.07892 0.53551
 C190 C 0.55338 0.55327 0.17303
 C191 C 0.56918 0.54544 0.18104
 C192 C 0.57700 0.55340 0.19689
 C193 C 0.56895 0.56916 0.20478
 C194 C 0.55314 0.57701 0.19678
 C195 C 0.54534 0.56903 0.18093
 H196 H 0.57564 0.53348 0.17470
 H197 H 0.57522 0.57557 0.21681
 H198 H 0.53335 0.57533 0.17450
 C199 C 0.67206 0.69617 0.19544
 C200 C 0.67960 0.70386 0.17935
 C201 C 0.69523 0.69585 0.17120
 C202 C 0.70336 0.68018 0.17920
 C203 C 0.69583 0.67248 0.19529
 C204 C 0.68021 0.68050 0.20342
 H205 H 0.67308 0.71577 0.17296
 H206 H 0.71523 0.67376 0.17269
 H207 H 0.67415 0.67432 0.21566
 C208 C 0.17004 0.05536 1.05455
 C209 C 0.17791 0.07132 1.04683
 C210 C 0.19386 0.07903 1.05467
 C211 C 0.20200 0.07075 1.07019
 C212 C 0.19417 0.05481 1.07792
 C213 C 0.17822 0.04710 1.07008
 H214 H 0.17144 0.07795 1.03502
 H215 H 0.21414 0.07692 1.07647
 H216 H 0.17199 0.03496 1.07631
 C217 C 0.57910 0.19515 0.55460
 C218 C 0.57091 0.20338 0.57010
 C219 C 0.55503 0.19557 0.57794
 C220 C 0.54731 0.17956 0.57023
 C221 C 0.55549 0.17131 0.55474
 C222 C 0.57137 0.17913 0.54691
 H223 H 0.57711 0.21556 0.57629
 H224 H 0.53524 0.17329 0.57652
 H225 H 0.57792 0.17254 0.53514
 C226 C 0.07706 0.55355 0.69690
 C227 C 0.06903 0.56934 0.70475
 C228 C 0.05320 0.57716 0.69676
 C229 C 0.04537 0.56914 0.68095
 C230 C 0.05338 0.55335 0.67308
 C231 C 0.06920 0.54554 0.68108
 H232 H 0.07533 0.57577 0.71675
 H233 H 0.03336 0.57542 0.67454
 H234 H 0.07564 0.53356 0.67477
 C235 C 0.67252 0.55435 0.05364
 C236 C 0.68025 0.57036 0.04595
 C237 C 0.69592 0.57840 0.05403
 C238 C 0.70390 0.57036 0.06976
 C239 C 0.69618 0.55435 0.07746
 C240 C 0.68051 0.54633 0.06937
 H241 H 0.67385 0.57678 0.03400
 H242 H 0.71580 0.57679 0.07624
 H243 H 0.67431 0.53416 0.07554
 C244 C 0.05493 0.69583 0.57819
 C245 C 0.07100 0.70344 0.57054
 C246 C 0.07904 0.69536 0.55488
 C247 C 0.07096 0.67969 0.54684
 C248 C 0.05489 0.67205 0.55447
 C249 C 0.04687 0.68015 0.57012
 H250 H 0.07744 0.71536 0.57699
 H251 H 0.07738 0.67321 0.53493
 H252 H 0.03465 0.67403 0.57626
 C253 C 0.55436 1.05470 0.67078
 C254 C 0.57000 1.04669 0.67897
 C255 C 0.57763 1.05444 0.69501
 C256 C 0.56957 1.07018 0.70294
 C257 C 0.55392 1.07823 0.69479
 C258 C 0.54631 1.07046 0.67873
 H259 H 0.57649 1.03472 0.67267
 H260 H 0.57572 1.07636 0.71516
 H261 H 0.53440 1.07688 0.67221
 C262 C 0.44490 0.32861 0.94478
 C263 C 0.45272 0.32084 0.92885
 C264 C 0.44500 0.30489 0.92101
 C265 C 0.42949 0.29665 0.92915
 C266 C 0.42166 0.30440 0.94507
 C267 C 0.42939 0.32036 0.95290
 H268 H 0.46451 0.32742 0.92236
 H269 H 0.42329 0.28452 0.92287
 H270 H 0.42310 0.32657 0.96501
 C271 C 0.94353 0.44315 0.33091
 C272 C 0.92775 0.45122 0.32304
 C273 C 0.91976 0.44346 0.30718
 C274 C 0.92758 0.42766 0.29914
 C275 C 0.94335 0.41958 0.30697
 C276 C 0.95134 0.42734 0.32284
 H277 H 0.92148 0.46327 0.32942
 H278 H 0.92121 0.42147 0.28705
 H279 H 0.96336 0.42087 0.32906
 C280 C 0.30475 0.94601 0.42137
 C281 C 0.29670 0.93041 0.42955
 C282 C 0.30438 0.92283 0.44565
 C283 C 0.32008 0.93092 0.45361
 C284 C 0.32815 0.94652 0.44544
 C285 C 0.32046 0.95408 0.42934
 H286 H 0.28477 0.92394 0.42318
 H287 H 0.32626 0.92482 0.46584
 H288 H 0.32692 0.96592 0.42280
 O289 O 0.24910 0.54960 0.72600
 O290 O 0.28066 0.54359 0.72849
 O291 O 0.22638 0.50150 0.70070
 O292 O 0.22716 0.46853 0.70804
 O293 O 0.20082 0.52390 0.74904
 O294 O 0.20772 0.52267 0.78128
 O295 O 0.27443 0.45203 0.75097
 O296 O 0.27063 0.45664 0.71999
 O297 O 0.29847 0.49890 0.77384
 O298 O 0.29209 0.53227 0.77251
 O299 O 0.25161 0.47656 0.79839
 O300 O 0.21827 0.47774 0.79177
 O301 O 0.25212 0.45193 0.77321
 O302 O 0.21816 0.45849 0.77166
 O303 O 0.27370 0.49895 0.79852
 O304 O 0.27170 0.53295 0.79141
 O305 O 0.29840 0.47642 0.75178
 O306 O 0.29207 0.48241 0.71823
 O307 O 0.22713 0.54975 0.74862
 O308 O 0.22854 0.54284 0.78139
 O309 O 0.20066 0.50155 0.72681
 O310 O 0.20755 0.46897 0.72850
 O311 O 0.24865 0.52377 0.70061
 O312 O 0.28194 0.51957 0.70801
 Zr313 Zr 0.26015 0.52272 0.72738
 O314 O 0.27786 0.50662 0.74398
 Zr315 Zr 0.22750 0.49030 0.72759
 O316 O 0.24409 0.47272 0.74376
 Zr317 Zr 0.22775 0.52287 0.76003
 O318 O 0.24396 0.50647 0.77784
 Zr319 Zr 0.27216 0.47854 0.73940
 O320 O 0.25561 0.49455 0.72122
 Zr321 Zr 0.27205 0.51095 0.77207
 O322 O 0.25582 0.52884 0.75557
 Zr323 Zr 0.23970 0.47831 0.77189
 O324 O 0.22157 0.49471 0.75575
 O325 O 0.23217 0.51825 0.73208
 O326 O 0.26774 0.48286 0.76755
 C327 C 0.23639 0.55749 0.73557
 C328 C 0.23575 0.51436 0.69284
 C329 C 0.19291 0.51445 0.73624
 C330 C 0.26538 0.44434 0.76414
 C331 C 0.30604 0.48554 0.76495
 C332 C 0.26472 0.48568 0.80610
 H333 H 0.29085 0.50953 0.74093
 H334 H 0.24089 0.50946 0.79081
 H335 H 0.22422 0.52615 0.72422
 H336 H 0.24129 0.45972 0.74053
 H337 H 0.26705 0.46221 0.70802
 H338 H 0.23821 0.47005 0.70017
 H339 H 0.26122 0.53088 0.79992
 H340 H 0.24068 0.54908 0.78046
 H341 H 0.30082 0.47187 0.71874
 H342 H 0.28082 0.52939 0.69848
 H343 H 0.21932 0.48908 0.79936
 H344 H 0.20200 0.51024 0.78106
 H345 H 0.28035 0.54879 0.74115
 H346 H 0.29962 0.53113 0.76116
 H347 H 0.20151 0.46981 0.74075
 H348 H 0.22005 0.45035 0.76083
 O349 O 0.20046 0.02373 0.24854
 O350 O 0.20651 0.02130 0.28013
 O351 O 0.24847 0.04908 0.22582
 O352 O 0.28137 0.04175 0.22647
 O353 O 0.22603 0.00068 0.20026
 O354 O 0.22744 -0.03159 0.20713
 O355 O 0.29800 -0.00104 0.27388
 O356 O 0.29338 0.02990 0.27005
 O357 O 0.25122 -0.02383 0.29802
 O358 O 0.21793 -0.02272 0.29158
 O359 O 0.27361 -0.04854 0.25104
 O360 O 0.27236 -0.04203 0.21771
 O361 O 0.29814 -0.02329 0.25152
 O362 O 0.29147 -0.02181 0.21752
 O363 O 0.25134 -0.04866 0.27323
 O364 O 0.21733 -0.04168 0.27120
 O365 O 0.27361 -0.00171 0.29792
 O366 O 0.26763 0.03179 0.29145
 O367 O 0.20032 0.00101 0.22661
 O368 O 0.20733 -0.03173 0.22800
 O369 O 0.24829 0.02296 0.20007
 O370 O 0.28090 0.02122 0.20688
 O371 O 0.22624 0.04918 0.24810
 O372 O 0.23045 0.04182 0.28142
 Zr373 Zr 0.22733 0.02241 0.25960
 O374 O 0.24349 0.00588 0.27732
 Zr375 Zr 0.25965 0.02219 0.22690
 O376 O 0.27728 0.00609 0.24350
 Zr377 Zr 0.22720 -0.01032 0.22719
 O378 O 0.24366 -0.02806 0.24342
 Zr379 Zr 0.27151 0.01051 0.27160
 O380 O 0.25544 0.02861 0.25503
 Zr381 Zr 0.23922 -0.02225 0.27154
 O382 O 0.22129 -0.00581 0.25529
 Zr383 Zr 0.27176 -0.02206 0.23913
 O384 O 0.25530 -0.00600 0.22097
 O385 O 0.23176 0.01766 0.23160
 O386 O 0.26726 -0.01768 0.26720
 C387 C 0.19258 0.01408 0.23586
 C388 C 0.23563 0.05694 0.23520
 C389 C 0.23539 0.01352 0.19235
 C390 C 0.30570 -0.01420 0.26480
 C391 C 0.26450 -0.01484 0.30562
 C392 C 0.26458 -0.05624 0.26421
 H393 H 0.24058 0.00896 0.29032
 H394 H 0.24070 -0.04105 0.24036
 H395 H 0.22383 0.02551 0.22367
 H396 H 0.29025 0.00934 0.24069
 H397 H 0.28782 0.04186 0.26641
 H398 H 0.27992 0.04962 0.23756
 H399 H 0.21944 -0.05024 0.26074
 H400 H 0.20115 -0.03084 0.24017
 H401 H 0.27816 0.03133 0.30022
 H402 H 0.22063 0.05134 0.28029
 H403 H 0.26099 -0.04955 0.21871
 H404 H 0.23983 -0.03130 0.20136
 H405 H 0.20131 0.00864 0.27980
 H406 H 0.21897 -0.01130 0.29903
 H407 H 0.27999 0.00899 0.20079
 H408 H 0.29959 -0.01097 0.21940
 O409 O 0.50086 0.70071 0.22622
 O410 O 0.46933 0.70677 0.22862
 O411 O 0.52359 0.74877 0.20083
 O412 O 0.52281 0.78176 0.20812
 O413 O 0.54922 0.72643 0.24914
 O414 O 0.54243 0.72778 0.28141
 O415 O 0.47566 0.79835 0.25099
 O416 O 0.47939 0.79370 0.22004
 O417 O 0.45163 0.75153 0.27390
 O418 O 0.45801 0.71818 0.27268
 O419 O 0.49861 0.77392 0.29848
 O420 O 0.53189 0.77274 0.29187
 O421 O 0.49802 0.79850 0.27324
 O422 O 0.53199 0.79190 0.27170
 O423 O 0.47648 0.75156 0.29864
 O424 O 0.47844 0.71754 0.29157
 O425 O 0.45166 0.77395 0.25178
 O426 O 0.45796 0.76792 0.21827
 O427 O 0.52287 0.70060 0.24886
 O428 O 0.52161 0.70762 0.28158
 O429 O 0.54934 0.74875 0.22691
 O430 O 0.54248 0.78134 0.22858
 O431 O 0.50134 0.72648 0.20075
 O432 O 0.46804 0.73075 0.20812
 Zr433 Zr 0.48986 0.72762 0.22752
 O434 O 0.47220 0.74376 0.24409
 Zr435 Zr 0.52251 0.76002 0.22769
 O436 O 0.50597 0.77764 0.24383
 Zr437 Zr 0.52233 0.72752 0.26018
 O438 O 0.50616 0.74397 0.27796
 Zr439 Zr 0.47790 0.77182 0.23946
 O440 O 0.49439 0.75577 0.22131
 Zr441 Zr 0.47806 0.73949 0.27220
 O442 O 0.49424 0.72157 0.25572
 Zr443 Zr 0.51042 0.77211 0.27197
 O444 O 0.52852 0.75567 0.25586
 O445 O 0.51785 0.73209 0.23222
 O446 O 0.48237 0.76757 0.26763
 C447 C 0.51355 0.69283 0.23583
 C448 C 0.51423 0.73588 0.19299
 C449 C 0.55709 0.73585 0.23633
 C450 C 0.48476 0.80607 0.26415
 C451 C 0.44403 0.76485 0.26495
 C452 C 0.48552 0.76482 0.30621
 H453 H 0.45920 0.74084 0.24104
 H454 H 0.50927 0.74100 0.29093
 H455 H 0.52576 0.72415 0.22438
 H456 H 0.50877 0.79063 0.24058
 H457 H 0.48296 0.78811 0.20808
 H458 H 0.51176 0.78020 0.20022
 H459 H 0.48893 0.71963 0.30010
 H460 H 0.50945 0.70141 0.28071
 H461 H 0.44921 0.77847 0.21875
 H462 H 0.46915 0.72094 0.19859
 H463 H 0.53092 0.76136 0.29940
 H464 H 0.54819 0.74020 0.28112
 H465 H 0.46962 0.70162 0.24130
 H466 H 0.45047 0.71927 0.26132
 H467 H 0.54857 0.78051 0.24082
 H468 H 0.53007 0.80004 0.26087
 O469 O 0.00061 0.70083 0.72622
 O470 O -0.03093 0.70691 0.72869
 O471 O 0.02334 0.74893 0.70093
 O472 O 0.02255 0.78191 0.70829
 O473 O 0.04901 0.72648 0.74916
 O474 O 0.04225 0.72774 0.78143
 O475 O -0.02453 0.79843 0.75131
 O476 O -0.02083 0.79385 0.72032
 O477 O -0.04853 0.75159 0.77413
 O478 O -0.04220 0.71822 0.77278
 O479 O -0.00149 0.77383 0.79868
 O480 O 0.03178 0.77267 0.79199
 O481 O -0.00215 0.79849 0.77353
 O482 O 0.03182 0.79192 0.77189
 O483 O -0.02363 0.75149 0.79882
 O484 O -0.02173 0.71749 0.79163
 O485 O -0.04853 0.77405 0.75207
 O486 O -0.04229 0.76810 0.71852
 O487 O 0.02265 0.70066 0.74882
 O488 O 0.02142 0.70758 0.78157
 O489 O 0.04911 0.74886 0.72698
 O490 O 0.04226 0.78145 0.72873
 O491 O 0.00107 0.72666 0.70083
 O492 O -0.03221 0.73094 0.70824
 Zr493 Zr -0.01038 0.72774 0.72760
 O494 O -0.02802 0.74386 0.74425
 Zr495 Zr 0.02229 0.76013 0.72782
 O496 O 0.00578 0.77772 0.74403
 Zr497 Zr 0.02213 0.72755 0.76022
 O498 O 0.00599 0.74396 0.77807
 Zr499 Zr -0.02231 0.77193 0.73969
 O500 O -0.00585 0.75591 0.72147
 Zr501 Zr -0.02212 0.73951 0.77233
 O502 O -0.00597 0.72162 0.75578
 Zr503 Zr 0.01027 0.77212 0.77215
 O504 O 0.02833 0.75571 0.75597
 O505 O 0.01761 0.73219 0.73228
 O506 O -0.01780 0.76760 0.76784
 C507 C 0.01332 0.69293 0.73579
 C508 C 0.01397 0.73606 0.69307
 C509 C 0.05687 0.73593 0.73636
 C510 C -0.01543 0.80610 0.76449
 C511 C -0.05613 0.76494 0.76524
 C512 C -0.01457 0.76472 0.80641
 H513 H -0.04103 0.74096 0.74120
 H514 H 0.00912 0.74095 0.79103
 H515 H 0.02552 0.72427 0.72442
 H516 H 0.00857 0.79072 0.74081
 H517 H -0.01728 0.78830 0.70835
 H518 H 0.01150 0.78036 0.70039
 H519 H -0.01121 0.71954 0.80014
 H520 H 0.00926 0.70137 0.78069
 H521 H -0.05102 0.77865 0.71904
 H522 H -0.03113 0.72114 0.69869
 H523 H 0.03081 0.76128 0.79950
 H524 H 0.04803 0.74015 0.78116
 H525 H -0.03062 0.70173 0.74135
 H526 H -0.04976 0.71937 0.76143
 H527 H 0.04835 0.78059 0.74097
 H528 H 0.02987 0.80009 0.76109
 O529 O -0.04912 -0.00116 -0.02395
 O530 O -0.04302 0.03041 -0.02147
 O531 O -0.00122 -0.02401 -0.04935
 O532 O 0.03177 -0.02321 -0.04207
 O533 O -0.02349 -0.04964 -0.00111
 O534 O -0.02213 -0.04287 0.03116
 O535 O 0.04841 0.02395 0.00099
 O536 O 0.04379 0.02022 -0.02997
 O537 O 0.00166 0.04802 0.02387
 O538 O -0.03165 0.04166 0.02262
 O539 O 0.02397 0.00092 0.04838
 O540 O 0.02279 -0.03241 0.04165
 O541 O 0.04854 0.00155 0.02318
 O542 O 0.04197 -0.03245 0.02153
 O543 O 0.00167 0.02311 0.04856
 O544 O -0.03230 0.02120 0.04146
 O545 O 0.02403 0.04800 0.00176
 O546 O 0.01805 0.04166 -0.03179
 O547 O -0.04925 -0.02322 -0.00137
 O548 O -0.04224 -0.02199 0.03138
 O549 O -0.00119 -0.04979 -0.02332
 O550 O 0.03136 -0.04295 -0.02165
 O551 O -0.02344 -0.00169 -0.04938
 O552 O -0.01908 0.03164 -0.04197
 Zr553 Zr -0.02225 0.00981 -0.02261
 O554 O -0.00610 0.02746 -0.00598
 Zr555 Zr 0.01008 -0.02293 -0.02249
 O556 O 0.02770 -0.00640 -0.00630
 Zr557 Zr -0.02237 -0.02273 0.00998
 O558 O -0.00592 -0.00658 0.02781
 Zr559 Zr 0.02192 0.02172 -0.01060
 O560 O 0.00586 0.00523 -0.02880
 Zr561 Zr -0.01037 0.02157 0.02210
 O562 O -0.02829 0.00540 0.00558
 Zr563 Zr 0.02219 -0.01087 0.02183
 O564 O 0.00574 -0.02895 0.00566
 O565 O -0.01781 -0.01822 -0.01796
 O566 O 0.01767 0.01723 0.01755
 C567 C -0.05700 -0.01387 -0.01437
 C568 C -0.01410 -0.01462 -0.05716
 C569 C -0.01409 -0.05754 -0.01392
 C570 C 0.05611 0.01485 0.01414
 C571 C 0.01494 0.05563 0.01494
 C572 C 0.01489 0.01403 0.05613
 H573 H -0.00901 0.04048 -0.00901
 H574 H -0.00889 -0.00969 0.04077
 H575 H -0.02575 -0.02614 -0.02581
 H576 H 0.04067 -0.00921 -0.00954
 H577 H 0.03824 0.01658 -0.04193
 H578 H 0.03016 -0.01217 -0.04999
 H579 H -0.03023 0.01068 0.04995
 H580 H -0.04844 -0.00982 0.03051
 H581 H 0.02857 0.05043 -0.03127
 H582 H -0.02890 0.03056 -0.05150
 H583 H 0.01144 -0.03141 0.04919
 H584 H -0.00973 -0.04865 0.03088
 H585 H -0.04820 0.03009 -0.00881
 H586 H -0.03055 0.04922 0.01127
 H587 H 0.03056 -0.04901 -0.00940
 H588 H 0.05009 -0.03052 0.01071
 O589 O 0.04929 0.52392 0.50087
 O590 O 0.04321 0.52135 0.46930
 O591 O 0.00127 0.54919 0.52361
 O592 O -0.03167 0.54180 0.52279
 O593 O 0.02374 0.50098 0.54934
 O594 O 0.02260 0.46872 0.54256
 O595 O -0.04814 0.49862 0.47569
 O596 O -0.04364 0.52963 0.47938
 O597 O -0.00132 0.47582 0.45171
 O598 O 0.03201 0.47724 0.45807
 O599 O -0.02349 0.45134 0.49875
 O600 O -0.02228 0.45810 0.53210
 O601 O -0.04815 0.47644 0.49810
 O602 O -0.04157 0.47814 0.53209
 O603 O -0.00118 0.45119 0.47661
 O604 O 0.03277 0.45840 0.47856
 O605 O -0.02380 0.49785 0.45169
 O606 O -0.01793 0.53144 0.45792
 O607 O 0.04953 0.50137 0.52297
 O608 O 0.04269 0.46858 0.52171
 O609 O 0.00136 0.52314 0.54943
 O610 O -0.03118 0.52141 0.54254
 O611 O 0.02347 0.54927 0.50130
 O612 O 0.01917 0.54178 0.46800
 Zr613 Zr 0.02242 0.52246 0.48986
 O614 O 0.00634 0.50576 0.47222
 Zr615 Zr -0.00989 0.52228 0.52256
 O616 O -0.02745 0.50600 0.50604
 Zr617 Zr 0.02271 0.48990 0.52242
 O618 O 0.00633 0.47200 0.50628
 Zr619 Zr -0.02170 0.51030 0.47792
 O620 O -0.00572 0.52857 0.49440
 Zr621 Zr 0.01075 0.47769 0.47814
 O622 O 0.02860 0.49430 0.49431
 Zr623 Zr -0.02180 0.47789 0.51054
 O624 O -0.00542 0.49414 0.52861
 O625 O 0.01801 0.51784 0.51789
 O626 O -0.01731 0.48216 0.48245
 C627 C 0.05721 0.51440 0.51362
 C628 C 0.01410 0.55704 0.51421
 C629 C 0.01427 0.51377 0.55721
 C630 C -0.05577 0.48544 0.48479
 C631 C -0.01468 0.48467 0.44409
 C632 C -0.01439 0.44360 0.48565
 H633 H 0.00923 0.50878 0.45920
 H634 H 0.00936 0.45904 0.50941
 H635 H 0.02591 0.52573 0.52581
 H636 H -0.04044 0.50920 0.50882
 H637 H -0.03812 0.54162 0.48296
 H638 H -0.03012 0.54969 0.51174
 H639 H 0.03073 0.44991 0.48909
 H640 H 0.04890 0.46948 0.50955
 H641 H -0.02846 0.53087 0.44916
 H642 H 0.02895 0.55134 0.46907
 H643 H -0.01094 0.45052 0.53106
 H644 H 0.01018 0.46892 0.54829
 H645 H 0.04844 0.50870 0.46965
 H646 H 0.03083 0.48856 0.45049
 H647 H -0.03034 0.50916 0.54860
 H648 H -0.04975 0.48894 0.53015
 O649 O 0.45137 -0.00118 0.47603
 O650 O 0.45739 0.03041 0.47849
 O651 O 0.49941 -0.02395 0.45080
 O652 O 0.53237 -0.02317 0.45820
 O653 O 0.47699 -0.04954 0.49903
 O654 O 0.47832 -0.04272 0.53130
 O655 O 0.54878 0.02421 0.50117
 O656 O 0.54428 0.02035 0.47021
 O657 O 0.50193 0.04823 0.52382
 O658 O 0.46863 0.04177 0.52254
 O659 O 0.52429 0.00122 0.54854
 O660 O 0.52320 -0.03211 0.54190
 O661 O 0.54892 0.00185 0.52340
 O662 O 0.54240 -0.03219 0.52180
 O663 O 0.50197 0.02339 0.54860
 O664 O 0.46803 0.02139 0.54147
 O665 O 0.52434 0.04819 0.50175
 O666 O 0.51848 0.04171 0.46822
 O667 O 0.45121 -0.02317 0.49868
 O668 O 0.45817 -0.02186 0.53144
 O669 O 0.49933 -0.04970 0.47686
 O670 O 0.53189 -0.04285 0.47867
 O671 O 0.47715 -0.00167 0.45067
 O672 O 0.48137 0.03166 0.45804
 Zr673 Zr 0.47822 0.00985 0.47743
 O674 O 0.49430 0.02757 0.49404
 Zr675 Zr 0.51060 -0.02284 0.47769
 O676 O 0.52816 -0.00624 0.49389
 Zr677 Zr 0.47808 -0.02261 0.51009
 O678 O 0.49446 -0.00638 0.52791
 Zr679 Zr 0.52234 0.02186 0.48950
 O680 O 0.50635 0.00530 0.47131
 Zr681 Zr 0.48997 0.02174 0.52213
 O682 O 0.47211 0.00550 0.50561
 Zr683 Zr 0.52259 -0.01064 0.52202
 O684 O 0.50621 -0.02880 0.50586
 O685 O 0.48270 -0.01816 0.48214
 O686 O 0.51803 0.01744 0.51766
 C687 C 0.44349 -0.01388 0.48562
 C688 C 0.48654 -0.01458 0.44293
 C689 C 0.48641 -0.05744 0.48622
 C690 C 0.55647 0.01515 0.51436
 C691 C 0.51520 0.05585 0.51487
 C692 C 0.51519 0.01436 0.55623
 H693 H 0.49137 0.04058 0.49097
 H694 H 0.49147 -0.00947 0.54088
 H695 H 0.47479 -0.02609 0.47428
 H696 H 0.54115 -0.00902 0.49069
 H697 H 0.53878 0.01666 0.45824
 H698 H 0.53080 -0.01213 0.45027
 H699 H 0.47009 0.01087 0.54997
 H700 H 0.45195 -0.00970 0.53054
 H701 H 0.52898 0.05051 0.46874
 H702 H 0.47156 0.03055 0.44850
 H703 H 0.51180 -0.03116 0.54937
 H704 H 0.49072 -0.04849 0.53104
 H705 H 0.45217 0.03008 0.49113
 H706 H 0.46974 0.04930 0.51118
 H707 H 0.53104 -0.04889 0.49092
 H708 H 0.55055 -0.03026 0.51100
 O709 O 0.50117 0.54906 0.02384
 O710 O 0.46961 0.54305 0.02131
 O711 O 0.52385 0.50097 0.04919
 O712 O 0.52319 0.46803 0.04184
 O713 O 0.54945 0.52339 0.00085
 O714 O 0.54260 0.52208 -0.03140
 O715 O 0.47592 0.45146 -0.00113
 O716 O 0.47968 0.45607 0.02984
 O717 O 0.45183 0.49836 -0.02396
 O718 O 0.45824 0.53169 -0.02274
 O719 O 0.49873 0.47589 -0.04849
 O720 O 0.53209 0.47716 -0.04189
 O721 O 0.49829 0.45133 -0.02330
 O722 O 0.53222 0.45794 -0.02175
 O723 O 0.47659 0.49824 -0.04866
 O724 O 0.47864 0.53229 -0.04163
 O725 O 0.45190 0.47589 -0.00190
 O726 O 0.45826 0.48186 0.03164
 O727 O 0.52313 0.54920 0.00120
 O728 O 0.52175 0.54224 -0.03155
 O729 O 0.54962 0.50109 0.02312
 O730 O 0.54279 0.46847 0.02138
 O731 O 0.50158 0.52324 0.04925
 O732 O 0.46831 0.51906 0.04179
 Zr733 Zr 0.49013 0.52218 0.02245
 O734 O 0.47245 0.50605 0.00585
 Zr735 Zr 0.52280 0.48979 0.02229
 O736 O 0.50624 0.47217 0.00612
 Zr737 Zr 0.52255 0.52231 -0.01018
 O738 O 0.50636 0.50587 -0.02799
 Zr739 Zr 0.47816 0.47798 0.01046
 O740 O 0.49468 0.49402 0.02863
 Zr741 Zr 0.47827 0.51035 -0.02224
 O742 O 0.49447 0.52827 -0.00573
 Zr743 Zr 0.51065 0.47773 -0.02201
 O744 O 0.52876 0.49416 -0.00587
 O745 O 0.51811 0.51772 0.01778
 O746 O 0.48260 0.48226 -0.01770
 C747 C 0.51386 0.55695 0.01425
 C748 C 0.51446 0.51383 0.05704
 C749 C 0.55735 0.51399 0.01368
 C750 C 0.48502 0.44375 -0.01426
 C751 C 0.44424 0.48503 -0.01504
 C752 C 0.48558 0.48495 -0.05621
 H753 H 0.45945 0.50897 0.00889
 H754 H 0.50944 0.50885 -0.04096
 H755 H 0.52603 0.52563 0.02565
 H756 H 0.50904 0.45918 0.00936
 H757 H 0.48328 0.46164 0.04181
 H758 H 0.51210 0.46950 0.04967
 H759 H 0.48908 0.53015 -0.05018
 H760 H 0.50959 0.54845 -0.03067
 H761 H 0.44950 0.47132 0.03113
 H762 H 0.46941 0.52889 0.05132
 H763 H 0.53100 0.48847 -0.04950
 H764 H 0.54832 0.50965 -0.03116
 H765 H 0.46996 0.54827 0.00866
 H766 H 0.45076 0.53063 -0.01135
 H767 H 0.54887 0.46936 0.00916
 H768 H 0.53036 0.44984 -0.01089
 O769 O 0.77480 0.29867 0.49917
 O770 O 0.77221 0.29265 0.53078
 O771 O 0.79968 0.25043 0.47645
 O772 O 0.79211 0.21749 0.47723
 O773 O 0.75162 0.27321 0.45079
 O774 O 0.71938 0.27220 0.45757
 O775 O 0.74896 0.20130 0.52441
 O776 O 0.77994 0.20557 0.52067
 O777 O 0.72662 0.24839 0.54844
 O778 O 0.72811 0.28169 0.54206
 O779 O 0.70187 0.22623 0.50133
 O780 O 0.70857 0.22736 0.46800
 O781 O 0.72679 0.20139 0.50197
 O782 O 0.72847 0.20793 0.46799
 O783 O 0.70191 0.24855 0.52353
 O784 O 0.70928 0.28251 0.52158
 O785 O 0.74851 0.22576 0.54843
 O786 O 0.78207 0.23136 0.54207
 O787 O 0.75221 0.29900 0.47712
 O788 O 0.71941 0.29236 0.47845
 O789 O 0.77364 0.25068 0.45066
 O790 O 0.77168 0.21810 0.45750
 O791 O 0.79993 0.27268 0.49877
 O792 O 0.79251 0.26849 0.53207
 Zr793 Zr 0.77318 0.27180 0.51022
 O794 O 0.75646 0.25581 0.52787
 Zr795 Zr 0.77275 0.23940 0.47751
 O796 O 0.75643 0.22193 0.49403
 Zr797 Zr 0.74058 0.27223 0.47769
 O798 O 0.72265 0.25595 0.49384
 Zr799 Zr 0.76081 0.22769 0.52215
 O800 O 0.77911 0.24358 0.50567
 Zr801 Zr 0.72843 0.26037 0.52198
 O802 O 0.74507 0.27814 0.50581
 Zr803 Zr 0.72838 0.22775 0.48955
 O804 O 0.74465 0.24404 0.47147
 O805 O 0.76847 0.26737 0.48220
 O806 O 0.73272 0.23224 0.51765
 C807 C 0.76532 0.30663 0.48641
 C808 C 0.80761 0.26324 0.48585
 C809 C 0.76435 0.26368 0.44291
 C810 C 0.73574 0.19373 0.51529
 C811 C 0.73546 0.23501 0.55607
 C812 C 0.69423 0.23538 0.51445
 H813 H 0.75953 0.25870 0.54088
 H814 H 0.70973 0.25905 0.49072
 H815 H 0.77638 0.27522 0.47429
 H816 H 0.75955 0.20891 0.49124
 H817 H 0.79193 0.21099 0.51700
 H818 H 0.80003 0.21901 0.48828
 H819 H 0.70076 0.28050 0.51106
 H820 H 0.72039 0.29859 0.49060
 H821 H 0.78146 0.22084 0.55085
 H822 H 0.80209 0.27824 0.53100
 H823 H 0.70109 0.23876 0.46903
 H824 H 0.71954 0.25978 0.45179
 H825 H 0.75963 0.29803 0.53036
 H826 H 0.73951 0.28055 0.54953
 H827 H 0.75945 0.21904 0.45142
 H828 H 0.73923 0.19970 0.46991
 O829 O 0.75114 0.77449 -0.04944
 O830 O 0.71954 0.77178 -0.04359
 O831 O 0.77360 0.79959 -0.00119
 O832 O 0.77285 0.79210 0.03173
 O833 O 0.79940 0.75139 -0.02372
 O834 O 0.79260 0.71911 -0.02266
 O835 O 0.72570 0.74900 0.04791
 O836 O 0.72937 0.77998 0.04345
 O837 O 0.70177 0.72631 0.00084
 O838 O 0.70823 0.72768 -0.03244
 O839 O 0.74876 0.70171 0.02326
 O840 O 0.78203 0.70840 0.02223
 O841 O 0.74811 0.72683 0.04800
 O842 O 0.78208 0.72848 0.04150
 O843 O 0.72668 0.70160 0.00083
 O844 O 0.72870 0.70885 -0.03313
 O845 O 0.70173 0.74829 0.02339
 O846 O 0.70802 0.78186 0.01761
 O847 O 0.77318 0.75190 -0.04963
 O848 O 0.77179 0.71907 -0.04290
 O849 O 0.79943 0.77355 -0.00132
 O850 O 0.79252 0.77167 0.03125
 O851 O 0.75136 0.79972 -0.02351
 O852 O 0.71810 0.79219 -0.01951
 Zr853 Zr 0.73999 0.77289 -0.02264
 O854 O 0.72233 0.75619 -0.00665
 Zr855 Zr 0.77259 0.77264 0.00987
 O856 O 0.75604 0.75636 0.02734
 Zr857 Zr 0.77251 0.74033 -0.02283
 O858 O 0.75634 0.72241 -0.00653
 Zr859 Zr 0.72796 0.76068 0.02146
 O860 O 0.74446 0.77896 0.00556
 Zr861 Zr 0.72824 0.72811 -0.01107
 O862 O 0.74443 0.74474 -0.02885
 Zr863 Zr 0.76054 0.72825 0.02166
 O864 O 0.77864 0.74450 0.00536
 O865 O 0.76797 0.76826 -0.01809
 O866 O 0.73248 0.73254 0.01705
 C867 C 0.76392 0.76501 -0.05732
 C868 C 0.76421 0.80748 -0.01403
 C869 C 0.80723 0.76419 -0.01422
 C870 C 0.73482 0.73585 0.05559
 C871 C 0.69412 0.73518 0.01416
 C872 C 0.73570 0.69398 0.01408
 H873 H 0.70933 0.75923 -0.00960
 H874 H 0.75947 0.70946 -0.00957
 H875 H 0.77590 0.77618 -0.02592
 H876 H 0.75880 0.75955 0.04035
 H877 H 0.73296 0.79198 0.03797
 H878 H 0.76176 0.79995 0.03022
 H879 H 0.73923 0.70037 -0.03107
 H880 H 0.75967 0.72003 -0.04919
 H881 H 0.69924 0.78130 0.02811
 H882 H 0.71919 0.80175 -0.02929
 H883 H 0.78108 0.70092 0.01082
 H884 H 0.79832 0.71930 -0.01022
 H885 H 0.72000 0.75917 -0.04891
 H886 H 0.70077 0.73909 -0.03140
 H887 H 0.79864 0.75946 0.03033
 H888 H 0.78014 0.73927 0.04968
 O889 O 1.00081 0.20048 0.22549
 O890 O 0.96925 0.20653 0.22794
 O891 O 1.02359 0.24860 0.20041
 O892 O 1.02267 0.28160 0.20782
 O893 O 1.04916 0.22611 0.24863
 O894 O 1.04232 0.22720 0.28088
 O895 O 0.97552 0.29794 0.25092
 O896 O 0.97933 0.29355 0.21992
 O897 O 0.95155 0.25099 0.27343
 O898 O 0.95794 0.21766 0.27205
 O899 O 0.99856 0.27324 0.29817
 O900 O 1.03187 0.27209 0.29150
 O901 O 0.99789 0.29795 0.27314
 O902 O 1.03187 0.29145 0.27150
 O903 O 0.97640 0.25092 0.29819
 O904 O 0.97837 0.21692 0.29095
 O905 O 0.95156 0.27350 0.25142
 O906 O 0.95795 0.26775 0.21787
 O907 O 1.02284 0.20025 0.24811
 O908 O 1.02151 0.20704 0.28089
 O909 O 1.04929 0.24857 0.22653
 O910 O 1.04238 0.28112 0.22827
 O911 O 1.00131 0.22634 0.20020
 O912 O 0.96801 0.23062 0.20754
 Zr913 Zr 0.98980 0.22736 0.22695
 O914 O 0.97213 0.24341 0.24361
 Zr915 Zr 1.02244 0.25978 0.22730
 O916 O 1.00590 0.27731 0.24355
 Zr917 Zr 1.02225 0.22709 0.25962
 O918 O 1.00608 0.24343 0.27749
 Zr919 Zr 0.97782 0.27151 0.23914
 O920 O 0.99432 0.25555 0.22090
 Zr921 Zr 0.97798 0.23898 0.27169
 O922 O 0.99417 0.22115 0.25511
 Zr923 Zr 1.01035 0.27161 0.27165
 O924 O 1.02844 0.25526 0.25545
 O925 O 1.01778 0.23182 0.23169
 O926 O 0.98230 0.26708 0.26729
 C927 C 1.01353 0.19255 0.23504
 C928 C 1.01424 0.23574 0.19250
 C929 C 1.05705 0.23563 0.23590
 C930 C 0.98459 0.30556 0.26415
 C931 C 0.94393 0.26432 0.26453
 C932 C 0.98545 0.26412 0.30584
 H933 H 0.95913 0.24051 0.24053
 H934 H 1.00919 0.24039 0.29045
 H935 H 1.02572 0.22393 0.22383
 H936 H 1.00868 0.29032 0.24039
 H937 H 0.98299 0.28808 0.20794
 H938 H 1.01169 0.27998 0.19984
 H939 H 0.98886 0.21897 0.29949
 H940 H 1.00935 0.20083 0.27996
 H941 H 0.94918 0.27828 0.21841
 H942 H 0.96911 0.22084 0.19798
 H943 H 1.03083 0.26073 0.29905
 H944 H 1.04807 0.23963 0.28070
 H945 H 0.96959 0.20125 0.24057
 H946 H 0.95043 0.21879 0.26067
 H947 H 1.04840 0.28030 0.24055
 H948 H 1.02991 0.29967 0.26075
 O949 O 0.70038 1.02387 0.74861
 O950 O 0.70635 1.02145 0.78022
 O951 O 0.74844 1.04915 0.72598
 O952 O 0.78137 1.04180 0.72678
 O953 O 0.72604 1.00079 0.70040
 O954 O 0.72742 0.96851 0.70728
 O955 O 0.79781 0.99898 0.77425
 O956 O 0.79326 1.02993 0.77036
 O957 O 0.75092 0.97630 0.79826
 O958 O 0.71765 0.97743 0.79169
 O959 O 0.77346 0.95153 0.75138
 O960 O 0.77227 0.95801 0.71801
 O961 O 0.79799 0.97673 0.75189
 O962 O 0.79142 0.97820 0.71786
 O963 O 0.75113 0.95145 0.77351
 O964 O 0.71713 0.95843 0.77134
 O965 O 0.77334 0.99839 0.79820
 O966 O 0.76745 1.03189 0.79167
 O967 O 0.70026 1.00114 0.72668
 O968 O 0.70724 0.96838 0.72811
 O969 O 0.74834 1.02304 0.70027
 O970 O 0.78092 1.02127 0.70716
 O971 O 0.72615 1.04928 0.74819
 O972 O 0.73030 1.04196 0.78154
 Zr973 Zr 0.72721 1.02252 0.75974
 O974 O 0.74330 1.00598 0.77751
 Zr975 Zr 0.75962 1.02226 0.72713
 O976 O 0.77719 1.00614 0.74378
 Zr977 Zr 0.72713 0.98978 0.72734
 O978 O 0.74353 0.97202 0.74363
 Zr979 Zr 0.77135 1.01058 0.77186
 O980 O 0.75534 1.02870 0.75524
 Zr981 Zr 0.73902 0.97786 0.77173
 O982 O 0.72115 0.99431 0.75543
 Zr983 Zr 0.77165 0.97799 0.73941
 O984 O 0.75526 0.99407 0.72120
 O985 O 0.73172 1.01776 0.73176
 O986 O 0.76707 0.98240 0.76747
 C987 C 0.69252 1.01423 0.73591
 C988 C 0.73557 1.05702 0.73531
 C989 C 0.73543 1.01362 0.69252
 C990 C 0.80552 0.98581 0.76519
 C991 C 0.76419 0.98528 0.80588
 C992 C 0.76440 0.94386 0.76454
 H993 H 0.74036 1.00908 0.79050
 H994 H 0.74056 0.95903 0.74057
 H995 H 0.72381 1.02560 0.72380
 H996 H 0.79017 1.00937 0.74101
 H997 H 0.78774 1.04189 0.76667
 H998 H 0.77984 1.04972 0.73783
 H999 H 0.71928 0.94985 0.76090
 H1000 H 0.70104 0.96929 0.74027
 H1001 H 0.77795 1.03142 0.80048
 H1002 H 0.72049 1.05148 0.78038
 H1003 H 0.76091 0.95048 0.71900
 H1004 H 0.73983 0.96879 0.70155
 H1005 H 0.70111 1.00881 0.77987
 H1006 H 0.71868 0.98885 0.79915
 H1007 H 0.78002 1.00902 0.70109
 H1008 H 0.79955 0.98904 0.71976
 O1009 O 0.70078 0.52420 0.24913
 O1010 O 0.70683 0.52175 0.28069
 O1011 O 0.74885 0.54949 0.22643
 O1012 O 0.78178 0.54211 0.22724
 O1013 O 0.72639 0.50127 0.20073
 O1014 O 0.72763 0.46899 0.20751
 O1015 O 0.79820 0.49903 0.27448
 O1016 O 0.79370 0.53004 0.27070
 O1017 O 0.75140 0.47628 0.29842
 O1018 O 0.71807 0.47764 0.29201
 O1019 O 0.77364 0.45171 0.25140
 O1020 O 0.77248 0.45840 0.21807
 O1021 O 0.79827 0.47682 0.25209
 O1022 O 0.79174 0.47849 0.21807
 O1023 O 0.75134 0.45159 0.27354
 O1024 O 0.71738 0.45876 0.27155
 O1025 O 0.77384 0.49835 0.29844
 O1026 O 0.76795 0.53191 0.29212
 O1027 O 0.70060 0.50159 0.22709
 O1028 O 0.70750 0.46884 0.22833
 O1029 O 0.74876 0.52344 0.20064
 O1030 O 0.78131 0.52167 0.20754
 O1031 O 0.72660 0.54960 0.24868
 O1032 O 0.73085 0.54218 0.28201
 Zr1033 Zr 0.72765 0.52282 0.26016
 O1034 O 0.74372 0.50616 0.27785
 Zr1035 Zr 0.76001 0.52259 0.22751
 O1036 O 0.77756 0.50637 0.24407
 Zr1037 Zr 0.72745 0.49019 0.22764
 O1038 O 0.74382 0.47233 0.24383
 Zr1039 Zr 0.77177 0.51071 0.27218
 O1040 O 0.75579 0.52894 0.25565
 Zr1041 Zr 0.73936 0.47807 0.27196
 O1042 O 0.72151 0.49464 0.25575
 Zr1043 Zr 0.77194 0.47825 0.23960
 O1044 O 0.75557 0.49444 0.22148
 O1045 O 0.73210 0.51814 0.23215
 O1046 O 0.76742 0.48256 0.26767
 C1047 C 0.69287 0.51462 0.23642
 C1048 C 0.73601 0.55736 0.23579
 C1049 C 0.73584 0.51406 0.19286
 C1050 C 0.80584 0.48583 0.26541
 C1051 C 0.76473 0.48518 0.30605
 C1052 C 0.76455 0.44399 0.26450
 H1053 H 0.74082 0.50921 0.29086
 H1054 H 0.74080 0.45937 0.24071
 H1055 H 0.72419 0.52601 0.22422
 H1056 H 0.79055 0.50957 0.24130
 H1057 H 0.78818 0.54203 0.26711
 H1058 H 0.78025 0.55000 0.23831
 H1059 H 0.71944 0.45024 0.26105
 H1060 H 0.70131 0.46970 0.24050
 H1061 H 0.77848 0.53138 0.30089
 H1062 H 0.72107 0.55174 0.28090
 H1063 H 0.76112 0.45088 0.21905
 H1064 H 0.74003 0.46925 0.20175
 H1065 H 0.70165 0.50908 0.28040
 H1066 H 0.71923 0.48897 0.29958
 H1067 H 0.78045 0.50942 0.20147
 H1068 H 0.79992 0.48928 0.22003
 O1069 O 0.54925 0.22537 0.74890
 O1070 O 0.54324 0.22767 0.78050
 O1071 O 0.50120 0.20026 0.72595
 O1072 O 0.46826 0.20763 0.72677
 O1073 O 0.52362 0.24869 0.70067
 O1074 O 0.52240 0.28091 0.70768
 O1075 O 0.45184 0.25041 0.77426
 O1076 O 0.45635 0.21944 0.77032
 O1077 O 0.49875 0.27296 0.79849
 O1078 O 0.53202 0.27172 0.79209
 O1079 O 0.47635 0.29785 0.75164
 O1080 O 0.47757 0.29142 0.71822
 O1081 O 0.45175 0.27272 0.75198
 O1082 O 0.45831 0.27134 0.71800
 O1083 O 0.49867 0.29783 0.77382
 O1084 O 0.53267 0.29072 0.77175
 O1085 O 0.47627 0.25094 0.79830
 O1086 O 0.48211 0.21742 0.79174
 O1087 O 0.54942 0.24814 0.72703
 O1088 O 0.54254 0.28090 0.72857
 O1089 O 0.50127 0.22650 0.70037
 O1090 O 0.46871 0.22821 0.70722
 O1091 O 0.52345 0.20000 0.74826
 O1092 O 0.51923 0.20721 0.78163
 Zr1093 Zr 0.52241 0.22672 0.75992
 O1094 O 0.50634 0.24326 0.77770
 Zr1095 Zr 0.49003 0.22715 0.72721
 O1096 O 0.47248 0.24327 0.74386
 Zr1097 Zr 0.52259 0.25957 0.72765
 O1098 O 0.50622 0.27732 0.74393
 Zr1099 Zr 0.47829 0.23875 0.77195
 O1100 O 0.49426 0.22063 0.75533
 Zr1101 Zr 0.51070 0.27139 0.77202
 O1102 O 0.52855 0.25493 0.75573
 Zr1103 Zr 0.47810 0.27142 0.73959
 O1104 O 0.49446 0.25535 0.72140
 O1105 O 0.51794 0.23158 0.73194
 O1106 O 0.48264 0.26693 0.76765
 C1107 C 0.55714 0.23502 0.73625
 C1108 C 0.51405 0.19233 0.73529
 C1109 C 0.51418 0.23594 0.69269
 C1110 C 0.44417 0.26363 0.76522
 C1111 C 0.48543 0.26403 0.80603
 C1112 C 0.48542 0.30547 0.76484
 H1113 H 0.50926 0.24013 0.79069
 H1114 H 0.50922 0.29031 0.74092
 H1115 H 0.52583 0.22376 0.72397
 H1116 H 0.45950 0.24008 0.74103
 H1117 H 0.46186 0.20748 0.76661
 H1118 H 0.46981 0.19967 0.73778
 H1119 H 0.53054 0.29936 0.76136
 H1120 H 0.54875 0.27993 0.74073
 H1121 H 0.47161 0.21790 0.80051
 H1122 H 0.52901 0.19766 0.78047
 H1123 H 0.48888 0.29901 0.71936
 H1124 H 0.50998 0.28073 0.70194
 H1125 H 0.54848 0.24031 0.78024
 H1126 H 0.53095 0.26028 0.79951
 H1127 H 0.46959 0.24048 0.70121
 H1128 H 0.45018 0.26050 0.71982
 O1129 O 0.25120 0.77470 0.45099
 O1130 O 0.21963 0.77208 0.45693
 O1131 O 0.27380 0.79992 0.49916
 O1132 O 0.27308 0.79249 0.53210
 O1133 O 0.29952 0.75171 0.47665
 O1134 O 0.29276 0.71942 0.47784
 O1135 O 0.22594 0.74943 0.54843
 O1136 O 0.22962 0.78040 0.54393
 O1137 O 0.20194 0.72666 0.50144
 O1138 O 0.20835 0.72800 0.46814
 O1139 O 0.24896 0.70208 0.52381
 O1140 O 0.28223 0.70878 0.52273
 O1141 O 0.24834 0.72724 0.54853
 O1142 O 0.28229 0.72887 0.54199
 O1143 O 0.22685 0.70196 0.50142
 O1144 O 0.22880 0.70916 0.46746
 O1145 O 0.20193 0.74869 0.52395
 O1146 O 0.20824 0.78226 0.51811
 O1147 O 0.27323 0.75210 0.45081
 O1148 O 0.27192 0.71930 0.45764
 O1149 O 0.29961 0.77390 0.49903
 O1150 O 0.29277 0.77206 0.53162
 O1151 O 0.25153 0.80002 0.47686
 O1152 O 0.21827 0.79253 0.48098
 Zr1153 Zr 0.24013 0.77321 0.47783
 O1154 O 0.22249 0.75653 0.49387
 Zr1155 Zr 0.27279 0.77300 0.51028
 O1156 O 0.25626 0.75675 0.52780
 Zr1157 Zr 0.27265 0.74062 0.47765
 O1158 O 0.25649 0.72274 0.49399
 Zr1159 Zr 0.22817 0.76107 0.52196
 O1160 O 0.24466 0.77932 0.50601
 Zr1161 Zr 0.22838 0.72845 0.48949
 O1162 O 0.24456 0.74504 0.47166
 Zr1163 Zr 0.26074 0.72863 0.52216
 O1164 O 0.27882 0.74485 0.50582
 O1165 O 0.26812 0.76856 0.48233
 O1166 O 0.23268 0.73292 0.51759
 C1167 C 0.26394 0.76517 0.44310
 C1168 C 0.26441 0.80779 0.48630
 C1169 C 0.30738 0.76453 0.48610
 C1170 C 0.23506 0.73627 0.55611
 C1171 C 0.19431 0.73556 0.51477
 C1172 C 0.23589 0.69435 0.51465
 H1173 H 0.20948 0.75957 0.49094
 H1174 H 0.25962 0.70978 0.49097
 H1175 H 0.27603 0.77646 0.47446
 H1176 H 0.25904 0.75996 0.54080
 H1177 H 0.23322 0.79238 0.53842
 H1178 H 0.26200 0.80036 0.53058
 H1179 H 0.23933 0.70068 0.46950
 H1180 H 0.25978 0.72022 0.45138
 H1181 H 0.19946 0.78171 0.52862
 H1182 H 0.21935 0.80208 0.47118
 H1183 H 0.28128 0.70129 0.51133
 H1184 H 0.29852 0.71967 0.49026
 H1185 H 0.22003 0.75945 0.45166
 H1186 H 0.20085 0.73938 0.46922
 H1187 H 0.29887 0.75984 0.53071
 H1188 H 0.28038 0.73970 0.55014
 O1189 O 0.25089 0.27414 0.95063
 O1190 O 0.21931 0.27178 0.95667
 O1191 O 0.27382 0.29923 0.99871
 O1192 O 0.27303 0.29187 1.03168
 O1193 O 0.29911 0.25083 0.97623
 O1194 O 0.29212 0.21859 0.97745
 O1195 O 0.22572 0.24917 1.04818
 O1196 O 0.22957 0.28011 1.04359
 O1197 O 0.20143 0.22649 1.00126
 O1198 O 0.20775 0.22777 0.96793
 O1199 O 0.24827 0.20163 1.02356
 O1200 O 0.28162 0.20806 1.02235
 O1201 O 0.24796 0.22682 1.04823
 O1202 O 0.28188 0.22816 1.04159
 O1203 O 0.22612 0.20163 1.00120
 O1204 O 0.22808 0.20879 0.96721
 O1205 O 0.20164 0.24851 1.02377
 O1206 O 0.20810 0.28203 1.01785
 O1207 O 0.27277 0.25139 0.95044
 O1208 O 0.27124 0.21861 0.95729
 O1209 O 0.29940 0.27303 0.99860
 O1210 O 0.29260 0.27131 1.03119
 O1211 O 0.25151 0.29948 0.97645
 O1212 O 0.21819 0.29226 0.98071
 Zr1213 Zr 0.23988 0.27276 0.97750
 O1214 O 0.22215 0.25623 0.99360
 Zr1215 Zr 0.27259 0.27235 1.00989
 O1216 O 0.25600 0.25623 1.02745
 Zr1217 Zr 0.27216 0.23994 0.97728
 O1218 O 0.25592 0.22218 0.99367
 Zr1219 Zr 0.22793 0.26075 1.02167
 O1220 O 0.24450 0.27887 1.00567
 Zr1221 Zr 0.22785 0.22810 0.98922
 O1222 O 0.24409 0.24456 0.97135
 Zr1223 Zr 0.26027 0.22807 1.02183
 O1224 O 0.27843 0.24415 1.00544
 O1225 O 0.26784 0.26791 0.98195
 O1226 O 0.23223 0.23256 1.01732
 C1227 C 0.26355 0.26451 0.94273
 C1228 C 0.26448 0.30716 0.98585
 C1229 C 0.30707 0.26359 0.98567
 C1230 C 0.23478 0.23597 1.05585
 C1231 C 0.19392 0.23541 1.01462
 C1232 C 0.23512 0.19399 1.01444
 H1233 H 0.20916 0.25935 0.99070
 H1234 H 0.25894 0.20920 0.99066
 H1235 H 0.27580 0.27574 0.97406
 H1236 H 0.25884 0.25943 1.04044
 H1237 H 0.23322 0.29207 1.03804
 H1238 H 0.26204 0.29984 1.03013
 H1239 H 0.23853 0.20021 0.96926
 H1240 H 0.25909 0.21961 0.95106
 H1241 H 0.19936 0.28155 1.02839
 H1242 H 0.21932 0.30180 0.97090
 H1243 H 0.28053 0.20052 1.01098
 H1244 H 0.29788 0.21879 0.98987
 H1245 H 0.21959 0.25914 0.95141
 H1246 H 0.20032 0.23920 0.96903
 H1247 H 0.29862 0.25905 1.03030
 H1248 H 0.28009 0.23902 1.04972
 C1249 C 0.29875 0.34634 0.79758
 C1250 C 0.29301 0.36085 0.79172
 C1251 C 0.28657 0.37809 0.78520
 C1252 C 0.28131 0.39301 0.77993
 C1253 C 0.27545 0.41069 0.77410
 C1254 C 0.27070 0.42597 0.76939
 C1255 C 0.29866 -0.15383 0.29810
 C1256 C 0.29276 -0.13941 0.29216
 C1257 C 0.28614 -0.12227 0.28554
 C1258 C 0.28076 -0.10743 0.28019
 C1259 C 0.27478 -0.08981 0.27427
 C1260 C 0.26996 -0.07458 0.26951
 C1261 C 0.79871 0.84650 0.79900
 C1262 C 0.79277 0.86088 0.79299
 C1263 C 0.78611 0.87797 0.78628
 C1264 C 0.78069 0.89277 0.78083
 C1265 C 0.77466 0.91034 0.77479
 C1266 C 0.76981 0.92554 0.76993
 C1267 C 0.45158 0.90416 0.29736
 C1268 C 0.45732 0.88965 0.29151
 C1269 C 0.46374 0.87240 0.28502
 C1270 C 0.46896 0.85747 0.27979
 C1271 C 0.47477 0.83976 0.27400
 C1272 C 0.47948 0.82446 0.26934
 C1273 C -0.04882 0.90392 0.79837
 C1274 C -0.04303 0.88945 0.79245
 C1275 C -0.03657 0.87225 0.78585
 C1276 C -0.03132 0.85737 0.78050
 C1277 C -0.02547 0.83971 0.77457
 C1278 C -0.02074 0.82446 0.76980
 C1279 C -0.04686 -0.15584 -0.04680
 C1280 C -0.04093 -0.14145 -0.04081
 C1281 C -0.03439 -0.12428 -0.03419
 C1282 C -0.02915 -0.10936 -0.02891
 C1283 C -0.02345 -0.09159 -0.02318
 C1284 C -0.01895 -0.07617 -0.01871
 C1285 C -0.04739 0.34548 0.45220
 C1286 C -0.04164 0.35999 0.45807
 C1287 C -0.03523 0.37723 0.46462
 C1288 C -0.03004 0.39216 0.46992
 C1289 C -0.02428 0.40987 0.47578
 C1290 C -0.01961 0.42518 0.48047
 C1291 C 0.45322 -0.15549 0.45295
 C1292 C 0.45922 -0.14115 0.45900
 C1293 C 0.46586 -0.12404 0.46569
 C1294 C 0.47117 -0.10917 0.47104
 C1295 C 0.47696 -0.09145 0.47686
 C1296 C 0.48151 -0.07606 0.48139
 C1297 C 0.45208 0.34566 -0.04787
 C1298 C 0.45780 0.36018 -0.04200
 C1299 C 0.46416 0.37744 -0.03544
 C1300 C 0.46932 0.39237 -0.03013
 C1301 C 0.47507 0.41007 -0.02424
 C1302 C 0.47974 0.42536 -0.01951
 C1303 C 0.79896 0.40423 0.45252
 C1304 C 0.79294 0.38997 0.45870
 C1305 C 0.78625 0.37296 0.46554
 C1306 C 0.78087 0.35816 0.47099
 C1307 C 0.77499 0.34051 0.47691
 C1308 C 0.77035 0.32518 0.48152
 C1309 C 0.79645 0.90599 -0.04655
 C1310 C 0.79061 0.89157 -0.04058
 C1311 C 0.78418 0.87436 -0.03402
 C1312 C 0.77904 0.85940 -0.02880
 C1313 C 0.77344 0.84158 -0.02314
 C1314 C 0.76902 0.82613 -0.01874
 C1315 C 0.79735 0.29717 0.34504
 C1316 C 0.79132 0.29107 0.35932
 C1317 C 0.78469 0.28434 0.37638
 C1318 C 0.77939 0.27895 0.39123
 C1319 C 0.77365 0.27311 0.40893
 C1320 C 0.76916 0.26855 0.42431
 C1321 C 0.79801 0.79923 -0.15463
 C1322 C 0.79184 0.79309 -0.14042
 C1323 C 0.78500 0.78626 -0.12347
 C1324 C 0.77953 0.78077 -0.10872
 C1325 C 0.77357 0.77477 -0.09113
 C1326 C 0.76891 0.77006 -0.07584
 C1327 C 0.29886 0.45226 0.90383
 C1328 C 0.29289 0.45809 0.88939
 C1329 C 0.28621 0.46458 0.87223
 C1330 C 0.28080 0.46983 0.85737
 C1331 C 0.27481 0.47567 0.83973
 C1332 C 0.27001 0.48039 0.82447
 C1333 C 0.29759 -0.04698 0.40416
 C1334 C 0.29186 -0.04143 0.38952
 C1335 C 0.28547 -0.03525 0.37214
 C1336 C 0.28026 -0.03023 0.35712
 C1337 C 0.27447 -0.02462 0.33934
 C1338 C 0.26977 -0.02004 0.32402
 C1339 C -0.04821 -0.04798 -0.15484
 C1340 C -0.04202 -0.04196 -0.14056
 C1341 C -0.03517 -0.03531 -0.12353
 C1342 C -0.02969 -0.02998 -0.10872
 C1343 C -0.02374 -0.02416 -0.09106
 C1344 C -0.01908 -0.01958 -0.07572
 C1345 C -0.04932 0.45010 0.34691
 C1346 C -0.04327 0.45603 0.36128
 C1347 C -0.03652 0.46269 0.37835
 C1348 C -0.03104 0.46813 0.39313
 C1349 C -0.02498 0.47421 0.41066
 C1350 C -0.02010 0.47914 0.42583
 C1351 C 0.45275 -0.04735 0.34498
 C1352 C 0.45892 -0.04143 0.35930
 C1353 C 0.46574 -0.03492 0.37638
 C1354 C 0.47119 -0.02970 0.39125
 C1355 C 0.47708 -0.02401 0.40896
 C1356 C 0.48167 -0.01950 0.42434
 C1357 C 0.45096 0.45044 -0.15340
 C1358 C 0.45703 0.45644 -0.13907
 C1359 C 0.46380 0.46316 -0.12203
 C1360 C 0.46930 0.46861 -0.10726
 C1361 C 0.47537 0.47466 -0.08972
 C1362 C 0.48023 0.47953 -0.07453
 C1363 C 0.45283 0.79804 0.40450
 C1364 C 0.45853 0.79230 0.38993
 C1365 C 0.46487 0.78588 0.37262
 C1366 C 0.47002 0.78065 0.35766
 C1367 C 0.47574 0.77483 0.33992
 C1368 C 0.48035 0.77011 0.32462
 C1369 C -0.04703 0.79761 0.90485
 C1370 C -0.04134 0.79189 0.89027
 C1371 C -0.03502 0.78552 0.87294
 C1372 C -0.02990 0.78034 0.85795
 C1373 C -0.02424 0.77459 0.84018
 C1374 C -0.01967 0.76993 0.82485
 C1375 C 0.34637 0.79899 0.29821
 C1376 C 0.36084 0.79306 0.29248
 C1377 C 0.37803 0.78643 0.28608
 C1378 C 0.39289 0.78104 0.28087
 C1379 C 0.41051 0.77505 0.27505
 C1380 C 0.42573 0.77022 0.27031
 C1381 C -0.15355 0.79934 0.79904
 C1382 C -0.13911 0.79339 0.79324
 C1383 C -0.12197 0.78672 0.78675
 C1384 C -0.10715 0.78128 0.78144
 C1385 C -0.08958 0.77523 0.77551
 C1386 C -0.07440 0.77036 0.77069
 C1387 C 0.90540 0.29660 0.45269
 C1388 C 0.89113 0.29049 0.45870
 C1389 C 0.87408 0.28374 0.46532
 C1390 C 0.85924 0.27836 0.47061
 C1391 C 0.84155 0.27254 0.47638
 C1392 C 0.82619 0.26803 0.48093
 C1393 C 0.90555 0.79691 -0.04656
 C1394 C 0.89116 0.79096 -0.04068
 C1395 C 0.87398 0.78440 -0.03419
 C1396 C 0.85905 0.77915 -0.02901
 C1397 C 0.84128 0.77345 -0.02339
 C1398 C 0.82586 0.76898 -0.01897
 C1399 C -0.15556 -0.04595 -0.04682
 C1400 C -0.14112 -0.04007 -0.04093
 C1401 C -0.12390 -0.03363 -0.03442
 C1402 C -0.10893 -0.02851 -0.02922
 C1403 C -0.09111 -0.02295 -0.02356
 C1404 C -0.07565 -0.01858 -0.01913
 C1405 C -0.15337 0.45138 0.45105
 C1406 C -0.13892 0.45732 0.45688
 C1407 C -0.12177 0.46394 0.46341
 C1408 C -0.10692 0.46931 0.46873
 C1409 C -0.08931 0.47527 0.47465
 C1410 C -0.07409 0.48007 0.47944
 C1411 C 0.34504 -0.04603 0.45287
 C1412 C 0.35947 -0.04016 0.45879
 C1413 C 0.37668 -0.03372 0.46535
 C1414 C 0.39163 -0.02859 0.47060
 C1415 C 0.40943 -0.02302 0.47633
 C1416 C 0.42486 -0.01863 0.48081
 C1417 C 0.34642 0.45165 -0.04881
 C1418 C 0.36092 0.45744 -0.04299
 C1419 C 0.37814 0.46389 -0.03647
 C1420 C 0.39303 0.46914 -0.03115
 C1421 C 0.41069 0.47498 -0.02523
 C1422 C 0.42592 0.47971 -0.02043
 C1423 C 0.40314 0.45089 0.79951
 C1424 C 0.38879 0.45691 0.79354
 C1425 C 0.37174 0.46365 0.78685
 C1426 C 0.35698 0.46912 0.78140
 C1427 C 0.33945 0.47521 0.77534
 C1428 C 0.32430 0.48010 0.77043
 C1429 C 0.40373 -0.04758 0.29785
 C1430 C 0.38923 -0.04170 0.29214
 C1431 C 0.37198 -0.03517 0.28577
 C1432 C 0.35706 -0.02990 0.28058
 C1433 C 0.33936 -0.02408 0.27479
 C1434 C 0.32408 -0.01940 0.27009
 C1435 C 0.09406 0.54631 0.70429
 C1436 C 0.10858 0.54058 0.71013
 C1437 C 0.12588 0.53424 0.71655
 C1438 C 0.14090 0.52915 0.72167
 C1439 C 0.15877 0.52360 0.72722
 C1440 C 0.17424 0.51921 0.73157
 C1441 C 0.09427 0.04624 0.20269
 C1442 C 0.10866 0.04040 0.20873
 C1443 C 0.12583 0.03397 0.21540
 C1444 C 0.14076 0.02883 0.22073
 C1445 C 0.15853 0.02324 0.22651
 C1446 C 0.17395 0.01884 0.23103
 C1447 C 0.65525 0.70359 0.20307
 C1448 C 0.64089 0.70943 0.20914
 C1449 C 0.62376 0.71586 0.21587
 C1450 C 0.60886 0.72099 0.22123
 C1451 C 0.59111 0.72659 0.22705
 C1452 C 0.57570 0.73102 0.23156
 C1453 C 0.15511 0.70363 0.70329
 C1454 C 0.14072 0.70946 0.70932
 C1455 C 0.12356 0.71589 0.71598
 C1456 C 0.10865 0.72104 0.72131
 C1457 C 0.09089 0.72666 0.72708
 C1458 C 0.07548 0.73110 0.73157
 C1459 C 0.59611 0.20244 0.54734
 C1460 C 0.61061 0.20824 0.54156
 C1461 C 0.62785 0.21468 0.53515
 C1462 C 0.64278 0.21989 0.52996
 C1463 C 0.66050 0.22564 0.52423
 C1464 C 0.67581 0.23025 0.51961
 C1465 C 0.59596 0.70238 0.04730
 C1466 C 0.61054 0.70801 0.04153
 C1467 C 0.62784 0.71428 0.03510
 C1468 C 0.64279 0.71940 0.02986
 C1469 C 0.66050 0.72513 0.02406
 C1470 C 0.67578 0.72982 0.01938
 C1471 C 0.15393 0.04851 0.04762
 C1472 C 0.13945 0.04268 0.04176
 C1473 C 0.12225 0.03615 0.03525
 C1474 C 0.10736 0.03085 0.02998
 C1475 C 0.08971 0.02494 0.02413
 C1476 C 0.07446 0.02018 0.01942
 C1477 C 0.15552 0.54726 0.54610
 C1478 C 0.14112 0.54133 0.54016
 C1479 C 0.12395 0.53477 0.53364
 C1480 C 0.10902 0.52951 0.52845
 C1481 C 0.09124 0.52377 0.52281
 C1482 C 0.07583 0.51926 0.51839
 C1483 C 0.65406 0.04941 0.54797
 C1484 C 0.63961 0.04352 0.54209
 C1485 C 0.62245 0.03689 0.53557
 C1486 C 0.60761 0.03148 0.53029
 C1487 C 0.59000 0.02544 0.52442
 C1488 C 0.57478 0.02057 0.51968
 C1489 C 0.65567 0.54686 0.04614
 C1490 C 0.64127 0.54092 0.04021
 C1491 C 0.62410 0.53434 0.03369
 C1492 C 0.60917 0.52908 0.02849
 C1493 C 0.59140 0.52334 0.02284
 C1494 C 0.57598 0.51884 0.01843
 C1495 C 0.04749 0.04697 0.15459
 C1496 C 0.04185 0.04118 0.14000
 C1497 C 0.03557 0.03475 0.12266
 C1498 C 0.03046 0.02954 0.10767
 C1499 C 0.02476 0.02379 0.08990
 C1500 C 0.02013 0.01916 0.07456
 C1501 C 0.04613 0.54594 0.65608
 C1502 C 0.04038 0.54007 0.64156
 C1503 C 0.03404 0.53362 0.62426
 C1504 C 0.02896 0.52848 0.60923
 C1505 C 0.02341 0.52288 0.59136
 C1506 C 0.01903 0.51849 0.57588
 C1507 C 0.54766 0.04783 0.65455
 C1508 C 0.54202 0.04199 0.63999
 C1509 C 0.53575 0.03546 0.62268
 C1510 C 0.53066 0.03016 0.60771
 C1511 C 0.52499 0.02429 0.58997
 C1512 C 0.52039 0.01958 0.57465
 C1513 C 0.54617 0.54591 0.15598
 C1514 C 0.54048 0.54008 0.14143
 C1515 C 0.53419 0.53367 0.12409
 C1516 C 0.52915 0.52855 0.10905
 C1517 C 0.52363 0.52297 0.09117
 C1518 C 0.51926 0.51858 0.07569
 C1519 C 0.20337 0.54711 0.59438
 C1520 C 0.20919 0.54115 0.60882
 C1521 C 0.21562 0.53458 0.62604
 C1522 C 0.22078 0.52933 0.64100
 C1523 C 0.22641 0.52363 0.65880
 C1524 C 0.23088 0.51916 0.67423
 C1525 C 0.20181 0.04707 0.09459
 C1526 C 0.20788 0.04091 0.10885
 C1527 C 0.21459 0.03413 0.12588
 C1528 C 0.21997 0.02872 0.14071
 C1529 C 0.22582 0.02287 0.15839
 C1530 C 0.23043 0.01833 0.17375
 C1531 C 0.70245 0.20207 0.65429
 C1532 C 0.70812 0.20782 0.63971
 C1533 C 0.71445 0.21421 0.62240
 C1534 C 0.71962 0.21939 0.60744
 C1535 C 0.72540 0.22514 0.58972
 C1536 C 0.73011 0.22979 0.57443
 C1537 C 0.70224 0.70302 0.15401
 C1538 C 0.70784 0.70872 0.13939
 C1539 C 0.71411 0.71506 0.12204
 C1540 C 0.71922 0.72021 0.10704
 C1541 C 0.72493 0.72595 0.08928
 C1542 C 0.72958 0.73060 0.07398
 C1543 C 0.54738 0.70330 0.09478
 C1544 C 0.54143 0.70921 0.10917
 C1545 C 0.53482 0.71572 0.12634
 C1546 C 0.52951 0.72091 0.14125
 C1547 C 0.52370 0.72657 0.15901
 C1548 C 0.51914 0.73103 0.17440
 C1549 C 0.04739 0.70335 0.59501
 C1550 C 0.04138 0.70929 0.60937
 C1551 C 0.03469 0.71582 0.62649
 C1552 C 0.02933 0.72105 0.64138
 C1553 C 0.02348 0.72673 0.65911
 C1554 C 0.01889 0.73121 0.67449
 C1555 C 0.54571 0.59398 0.20406
 C1556 C 0.53984 0.60848 0.20982
 C1557 C 0.53339 0.62578 0.21618
 C1558 C 0.52825 0.64080 0.22125
 C1559 C 0.52267 0.65867 0.22678
 C1560 C 0.51828 0.67415 0.23113
 C1561 C 0.04576 0.59414 0.70403
 C1562 C 0.03986 0.60864 0.70976
 C1563 C 0.03335 0.62593 0.71608
 C1564 C 0.02814 0.64094 0.72114
 C1565 C 0.02249 0.65879 0.72666
 C1566 C 0.01807 0.67426 0.73103
 C1567 C 0.04845 0.15352 0.04860
 C1568 C 0.04264 0.13901 0.04279
 C1569 C 0.03616 0.12178 0.03630
 C1570 C 0.03089 0.10687 0.03101
 C1571 C 0.02503 0.08921 0.02512
 C1572 C 0.02028 0.07396 0.02033
 C1573 C 0.04733 0.65522 0.54698
 C1574 C 0.04131 0.64085 0.54106
 C1575 C 0.03464 0.62370 0.53452
 C1576 C 0.02930 0.60880 0.52930
 C1577 C 0.02350 0.59105 0.52360
 C1578 C 0.01896 0.57565 0.51910
 C1579 C 0.54828 0.15418 0.54760
 C1580 C 0.54253 0.13960 0.54193
 C1581 C 0.53611 0.12227 0.53563
 C1582 C 0.53090 0.10729 0.53051
 C1583 C 0.52511 0.08955 0.52480
 C1584 C 0.52043 0.07424 0.52015
 C1585 C 0.54704 0.65523 0.04671
 C1586 C 0.54100 0.64085 0.04082
 C1587 C 0.53433 0.62369 0.03432
 C1588 C 0.52900 0.60877 0.02913
 C1589 C 0.52321 0.59100 0.02349
 C1590 C 0.51869 0.57558 0.01905
 C1591 C 0.70100 0.09610 0.54841
 C1592 C 0.70700 0.11056 0.54269
 C1593 C 0.71374 0.12773 0.53630
 C1594 C 0.71923 0.14259 0.53111
 C1595 C 0.72535 0.16020 0.52531
 C1596 C 0.73027 0.17542 0.52060
 C1597 C 0.70310 0.59553 0.04687
 C1598 C 0.70881 0.61011 0.04115
 C1599 C 0.71515 0.62743 0.03478
 C1600 C 0.72028 0.64242 0.02961
 C1601 C 0.72597 0.66019 0.02387
 C1602 C 0.73056 0.67553 0.01924
 C1603 C 0.20337 0.65579 0.70301
 C1604 C 0.20938 0.64140 0.70890
 C1605 C 0.21601 0.62423 0.71541
 C1606 C 0.22130 0.60930 0.72062
 C1607 C 0.22706 0.59153 0.72630
 C1608 C 0.23156 0.57611 0.73076
 C1609 C 0.20346 0.15558 0.20282
 C1610 C 0.20933 0.14111 0.20865
 C1611 C 0.21577 0.12384 0.21509
 C1612 C 0.22090 0.10885 0.22026
 C1613 C 0.22647 0.09102 0.22590
 C1614 C 0.23087 0.07557 0.23036
 C1615 C 0.70288 1.15533 0.70240
 C1616 C 0.70882 1.14092 0.70832
 C1617 C 0.71538 1.12373 0.71486
 C1618 C 0.72061 1.10880 0.72010
 C1619 C 0.72629 1.09103 0.72584
 C1620 C 0.73076 1.07562 0.73038
 C1621 C 0.70338 0.65564 0.20275
 C1622 C 0.70933 0.64124 0.20870
 C1623 C 0.71587 0.62407 0.21529
 C1624 C 0.72109 0.60915 0.22057
 C1625 C 0.72675 0.59138 0.22635
 C1626 C 0.73120 0.57597 0.23089
 C1627 C 0.54683 0.09421 0.70183
 C1628 C 0.54086 0.10860 0.70779
 C1629 C 0.53430 0.12575 0.71442
 C1630 C 0.52905 0.14064 0.71976
 C1631 C 0.52335 0.15838 0.72561
 C1632 C 0.51887 0.17375 0.73025
 C1633 C 1.04612 0.09417 0.20228
 C1634 C 1.04018 0.10858 0.20818
 C1635 C 1.03364 0.12578 0.21471
 C1636 C 1.02842 0.14072 0.21995
 C1637 C 1.02275 0.15850 0.22567
 C1638 C 1.01831 0.17393 0.23017
 C1639 C 0.20304 0.59585 0.54700
 C1640 C 0.20880 0.61044 0.54136
 C1641 C 0.21521 0.62777 0.53510
 C1642 C 0.22040 0.64277 0.53003
 C1643 C 0.22614 0.66055 0.52438
 C1644 C 0.23076 0.67590 0.51981
 C1645 C 0.20124 0.09606 1.04747
 C1646 C 0.20714 0.11055 1.04173
 C1647 C 0.21374 0.12777 1.03533
 C1648 C 0.21909 0.14267 1.03014
 C1649 C 0.22503 0.16034 1.02436
 C1650 C 0.22981 0.17561 1.01969
 C1651 C 0.20227 0.70331 0.65441
 C1652 C 0.20792 0.70905 0.63983
 C1653 C 0.21424 0.71544 0.62251
 C1654 C 0.21939 0.72062 0.60754
 C1655 C 0.22514 0.72637 0.58980
 C1656 C 0.22981 0.73103 0.57450
 C1657 C 0.20258 0.20326 1.15439
 C1658 C 0.20816 0.20899 1.13978
 C1659 C 0.21436 0.21536 1.12242
 C1660 C 0.21941 0.22051 1.10740
 C1661 C 0.22502 0.22621 1.08962
 C1662 C 0.22960 0.23082 1.07427
 C1663 C 0.70358 0.54686 0.09436
 C1664 C 0.70943 0.54090 0.10880
 C1665 C 0.71586 0.53431 0.12601
 C1666 C 0.72101 0.52904 0.14097
 C1667 C 0.72661 0.52331 0.15877
 C1668 C 0.73104 0.51884 0.17421
 C1669 C 0.70191 1.04778 0.59496
 C1670 C 0.70798 1.04152 0.60917
 C1671 C 0.71468 1.03459 0.62615
 C1672 C 0.72005 1.02907 0.64094
 C1673 C 0.72590 1.02310 0.65858
 C1674 C 0.73049 1.01848 0.67393
 C1675 C 0.54741 0.20324 0.59464
 C1676 C 0.54136 0.20929 0.60893
 C1677 C 0.53468 0.21592 0.62602
 C1678 C 0.52935 0.22119 0.64089
 C1679 C 0.52356 0.22686 0.65864
 C1680 C 0.51904 0.23126 0.67405
 C1681 C 1.04809 0.20205 0.09495
 C1682 C 1.04198 0.20819 0.10919
 C1683 C 1.03522 0.21497 0.12619
 C1684 C 1.02980 0.22039 0.14098
 C1685 C 1.02389 0.22626 0.15862
 C1686 C 1.01924 0.23085 0.17395
 C1687 C 0.65529 0.20257 0.70314
 C1688 C 0.64093 0.20846 0.70916
 C1689 C 0.62379 0.21495 0.71582
 C1690 C 0.60889 0.22014 0.72113
 C1691 C 0.59114 0.22578 0.72690
 C1692 C 0.57574 0.23022 0.73142
 C1693 C 1.15549 0.20366 0.20329
 C1694 C 1.14109 0.20949 0.20928
 C1695 C 1.12389 0.21588 0.21587
 C1696 C 1.10894 0.22098 0.22112
 C1697 C 1.09114 0.22653 0.22679
 C1698 C 1.07569 0.23089 0.23120
 C1699 C 0.09618 0.70247 0.54774
 C1700 C 0.11076 0.70815 0.54203
 C1701 C 0.12806 0.71450 0.53566
 C1702 C 0.14301 0.71967 0.53047
 C1703 C 0.16071 0.72546 0.52469
 C1704 C 0.17598 0.73019 0.52001
 C1705 C 0.09633 0.20173 1.04843
 C1706 C 0.11077 0.20759 1.04257
 C1707 C 0.12793 0.21413 1.03602
 C1708 C 0.14278 0.21943 1.03069
 C1709 C 0.16039 0.22532 1.02477
 C1710 C 0.17561 0.23008 1.01998
 C1711 C 0.59400 0.54619 0.20429
 C1712 C 0.60853 0.54048 0.21014
 C1713 C 0.62584 0.53420 0.21659
 C1714 C 0.64087 0.52918 0.22173
 C1715 C 0.65874 0.52369 0.22731
 C1716 C 0.67421 0.51935 0.23169
 C1717 C 0.59443 1.04697 0.70264
 C1718 C 0.60878 1.04104 0.70868
 C1719 C 0.62590 1.03448 0.71535
 C1720 C 0.64079 1.02923 0.72068
 C1721 C 0.65853 1.02352 0.72647
 C1722 C 0.67392 1.01904 0.73102
 C1723 C 0.90294 0.45108 0.29976
 C1724 C 0.88862 0.45717 0.29381
 C1725 C 0.87158 0.46396 0.28715
 C1726 C 0.85682 0.46946 0.28173
 C1727 C 0.83929 0.47555 0.27571
 C1728 C 0.82413 0.48043 0.27084
 C1729 C 0.90330 0.95214 0.79877
 C1730 C 0.88883 0.95805 0.79299
 C1731 C 0.87163 0.96462 0.78652
 C1732 C 0.85675 0.96994 0.78124
 C1733 C 0.83911 0.97583 0.77536
 C1734 C 0.82386 0.98055 0.77057
 C1735 C 0.34643 0.29787 0.79808
 C1736 C 0.36090 0.29188 0.79241
 C1737 C 0.37809 0.28517 0.78609
 C1738 C 0.39296 0.27974 0.78095
 C1739 C 0.41060 0.27374 0.77521
 C1740 C 0.42584 0.26893 0.77053
 C1741 C 0.84611 0.29792 0.29780
 C1742 C 0.86060 0.29208 0.29204
 C1743 C 0.87782 0.28556 0.28563
 C1744 C 0.89271 0.28025 0.28042
 C1745 C 0.91037 0.27437 0.27460
 C1746 C 0.92561 0.26962 0.26988
 C1747 C 0.40550 0.79738 0.45320
 C1748 C 0.39113 0.79143 0.45916
 C1749 C 0.37399 0.78485 0.46574
 C1750 C 0.35910 0.77958 0.47102
 C1751 C 0.34137 0.77385 0.47676
 C1752 C 0.32598 0.76936 0.48126
 C1753 C 0.40497 0.29671 0.95264
 C1754 C 0.39069 0.29060 0.95864
 C1755 C 0.37363 0.28388 0.96526
 C1756 C 0.35878 0.27854 0.97054
 C1757 C 0.34107 0.27277 0.97629
 C1758 C 0.32568 0.26831 0.98080
 C1759 C 0.79916 0.45144 0.40360
 C1760 C 0.79316 0.45723 0.38916
 C1761 C 0.78645 0.46372 0.37200
 C1762 C 0.78101 0.46901 0.35716
 C1763 C 0.77497 0.47492 0.33956
 C1764 C 0.77011 0.47974 0.32435
 C1765 C 0.79698 0.95313 0.90451
 C1766 C 0.79127 0.95870 0.88987
 C1767 C 0.78492 0.96489 0.87248
 C1768 C 0.77976 0.96992 0.85745
 C1769 C 0.77402 0.97552 0.83965
 C1770 C 0.76939 0.98009 0.82430
 C1771 C 0.29751 0.79856 0.34536
 C1772 C 0.29140 0.79253 0.35964
 C1773 C 0.28465 0.78586 0.37668
 C1774 C 0.27925 0.78051 0.39151
 C1775 C 0.27340 0.77469 0.40918
 C1776 C 0.26882 0.77010 0.42453
 C1777 C 0.29739 0.29768 0.84503
 C1778 C 0.29119 0.29168 0.85929
 C1779 C 0.28436 0.28504 0.87631
 C1780 C 0.27892 0.27972 0.89112
 C1781 C 0.27302 0.27394 0.90879
 C1782 C 0.26843 0.26940 0.92415
 C1783 C 0.45229 0.29762 0.90398
 C1784 C 0.45807 0.29179 0.88948
 C1785 C 0.46449 0.28527 0.87225
 C1786 C 0.46969 0.27997 0.85734
 C1787 C 0.47547 0.27407 0.83966
 C1788 C 0.48015 0.26932 0.82439
 C1789 C 0.95268 0.29749 0.40399
 C1790 C 0.95843 0.29167 0.38947
 C1791 C 0.96481 0.28517 0.37222
 C1792 C 0.96996 0.27989 0.35728
 C1793 C 0.97567 0.27404 0.33956
 C1794 C 0.98028 0.26934 0.32426
 C1795 C 0.45115 0.40276 0.79936
 C1796 C 0.45712 0.38840 0.79335
 C1797 C 0.46379 0.37133 0.78663
 C1798 C 0.46922 0.35654 0.78117
 C1799 C 0.47523 0.33898 0.77512
 C1800 C 0.48007 0.32379 0.77025
 C1801 C 0.95070 0.40273 0.29934
 C1802 C 0.95657 0.38839 0.29320
 C1803 C 0.96313 0.37134 0.28632
 C1804 C 0.96845 0.35656 0.28074
 C1805 C 0.97438 0.33902 0.27456
 C1806 C 0.97919 0.32385 0.26961
 C1807 C 0.29692 0.90603 0.45327
 C1808 C 0.29103 0.89167 0.45931
 C1809 C 0.28454 0.87451 0.46597
 C1810 C 0.27935 0.85960 0.47128
 C1811 C 0.27370 0.84183 0.47703
 C1812 C 0.26925 0.82641 0.48151
 C1813 C 0.29843 0.40481 0.95249
 C1814 C 0.29234 0.39055 0.95857
 C1815 C 0.28557 0.37351 0.96527
 C1816 C 0.28014 0.35870 0.97062
 C1817 C 0.27420 0.34104 0.97643
 C1818 C 0.26953 0.32570 0.98098
 C1819 C 0.79801 0.34595 0.29769
 C1820 C 0.79216 0.36044 0.29188
 C1821 C 0.78565 0.37767 0.28541
 C1822 C 0.78037 0.39259 0.28017
 C1823 C 0.77452 0.41029 0.27437
 C1824 C 0.76981 0.42558 0.26970
   
