data_POSCAR
  _audit_creation_date              2014-09-24
  _audit_creation_method            'ToBaCCo'
  _symmetry_space_group_name_H-M    'P1'
  _symmetry_Int_Tables_number       1
  _symmetry_cell_setting            triclinic
  loop_
  _symmetry_equiv_pos_as_xyz
 x,y,z
_cell_length_a 55.7259
_cell_length_b 55.9179
_cell_length_c 56.0458
_cell_angle_alpha 90.377000
_cell_angle_beta 90.175200
_cell_angle_gamma 90.759200
loop_
  _atom_site_label
  _atom_site_type_symbol
  _atom_site_fract_x
  _atom_site_fract_y
  _atom_site_fract_z
C1 C 0.71741 0.65537 0.99063
 H2 H 0.72191 0.65821 1.00924
 C3 C 0.69755 0.66678 0.98070
 H4 H 0.68694 0.67851 0.99177
 C5 C 0.72482 0.63538 0.95404
 H6 H 0.73481 0.62250 0.94384
 C7 C 0.70524 0.64632 0.94346
 H8 H 0.70087 0.64193 0.92510
 N9 N 0.73044 0.63984 0.97729
 C10 C 0.79758 0.62641 1.01415
 H11 H 0.79713 0.60721 1.01167
 C12 C 0.81618 0.63709 1.02707
 H13 H 0.83013 0.62588 1.03423
 C14 C 0.77937 0.66399 1.00816
 H15 H 0.76478 0.67426 1.00094
 C16 C 0.79789 0.67554 1.02095
 H17 H 0.79740 0.69472 1.02356
 Zn18 Zn 0.75439 0.62114 0.99184
 N19 N 0.77936 0.63977 1.00557
 C20 C 0.76748 0.57711 0.96865
 N21 N 0.76888 0.60142 0.96846
 C22 C 0.78118 0.61322 0.95114
 C23 C 0.79172 0.60068 0.93243
 C24 C 0.77797 0.56378 0.95031
 C25 C 0.74551 0.60839 1.03944
 C26 C 0.73411 0.59682 1.05829
 C27 C 0.71004 0.57458 1.02966
 C28 C 0.72187 0.58682 1.01130
 N29 N 0.73944 0.60316 1.01646
 H30 H 0.75813 0.56803 0.98288
 H31 H 0.78232 0.63255 0.95164
 H32 H 0.80104 0.61056 0.91865
 H33 H 0.77638 0.54447 0.95055
 H34 H 0.75886 0.62201 1.04337
 H35 H 0.73950 0.60168 1.07628
 H36 H 0.69617 0.56164 1.02490
 H37 H 0.71689 0.58342 0.99291
 C38 C 0.81628 0.66189 1.03108
 C39 C 0.69097 0.66186 0.95692
 C40 C 0.71598 0.57956 1.05373
 C41 C 0.79000 0.57562 0.93168
 C42 C 0.72122 0.32726 0.50604
 H43 H 0.73591 0.31655 0.49966
 C44 C 0.70225 0.31650 0.51870
 H45 H 0.70243 0.29746 0.52202
 C46 C 0.70332 0.36527 0.51033
 H47 H 0.70406 0.38436 0.50731
 C48 C 0.68435 0.35543 0.52305
 H49 H 0.67040 0.36713 0.52945
 N50 N 0.72155 0.35135 0.50264
 C51 C 0.77627 0.35647 0.45131
 H52 H 0.76546 0.36871 0.44128
 C53 C 0.79681 0.34738 0.44078
 H54 H 0.80099 0.35240 0.42261
 C55 C 0.78499 0.33669 0.48750
 H56 H 0.78070 0.33339 0.50601
 C57 C 0.80589 0.32714 0.47757
 H58 H 0.81745 0.31630 0.48852
 Zn59 Zn 0.74672 0.36977 0.48929
 N60 N 0.77095 0.35146 0.47443
 C61 C 0.77976 0.40346 0.50964
 N62 N 0.76164 0.38765 0.51435
 C63 C 0.75515 0.38271 0.53720
 C64 C 0.76679 0.39392 0.55633
 C65 C 0.79185 0.41526 0.52834
 C66 C 0.71943 0.37779 0.44893
 C67 C 0.70894 0.39026 0.43024
 C68 C 0.72388 0.42713 0.44784
 C69 C 0.73429 0.41386 0.46618
 N70 N 0.73226 0.38959 0.46611
 H71 H 0.78507 0.40663 0.49136
 H72 H 0.74133 0.36954 0.54079
 H73 H 0.76130 0.38949 0.57430
 H74 H 0.80629 0.42769 0.52424
 H75 H 0.71785 0.35849 0.44951
 H76 H 0.69920 0.38036 0.41658
 H77 H 0.72600 0.44640 0.44794
 H78 H 0.74415 0.42295 0.48025
 C79 C 0.81237 0.33315 0.45411
 C80 C 0.68385 0.33086 0.52790
 C81 C 0.71129 0.41526 0.42935
 C82 C 0.78548 0.41039 0.55210
 C83 C 0.21081 -0.16451 0.01603
 H84 H 0.22390 -0.17715 0.00970
 C85 C 0.18988 -0.17265 0.02751
 H86 H 0.18699 -0.19165 0.02999
 C87 C 0.19858 -0.12431 0.02068
 H88 H 0.20218 -0.10546 0.01804
 C89 C 0.17770 -0.13154 0.03210
 H90 H 0.16536 -0.11796 0.03804
 N91 N 0.21474 -0.14063 0.01315
 C92 C 0.26820 -0.14405 -0.03900
 H93 H 0.25886 -0.13078 -0.04917
 C94 C 0.28651 -0.15658 -0.04998
 H95 H 0.29035 -0.15299 -0.06855
 C96 C 0.27567 -0.16339 -0.00230
 H97 H 0.27174 -0.16536 0.01648
 C98 C 0.29447 -0.17628 -0.01264
 H99 H 0.30481 -0.18827 -0.00169
 Zn100 Zn 0.24166 -0.12571 -0.00096
 N101 N 0.26326 -0.14732 -0.01549
 C102 C 0.27753 -0.09384 0.01784
 N103 N 0.25866 -0.10850 0.02325
 C104 C 0.25244 -0.11267 0.04632
 C105 C 0.26501 -0.10167 0.06499
 C106 C 0.29054 -0.08224 0.03606
 C107 C 0.21468 -0.11722 -0.04103
 C108 C 0.20498 -0.10511 -0.06031
 C109 C 0.22319 -0.06857 -0.04514
 C110 C 0.23285 -0.08160 -0.02620
 N111 N 0.22884 -0.10559 -0.02483
 H112 H 0.28259 -0.09131 -0.00059
 H113 H 0.23797 -0.12498 0.05044
 H114 H 0.25962 -0.10536 0.08315
 H115 H 0.30547 -0.07060 0.03143
 H116 H 0.21146 -0.13625 -0.03924
 H117 H 0.19424 -0.11526 -0.07305
 H118 H 0.22696 -0.04954 -0.04592
 H119 H 0.24367 -0.07257 -0.01280
 C120 C 0.30045 -0.17243 -0.03669
 C121 C 0.17311 -0.15596 0.03587
 C122 C 0.20932 -0.08036 -0.06292
 C123 C 0.28434 -0.08619 0.06004
 C124 C 0.22915 0.16583 0.48492
 H125 H 0.24310 0.17548 0.49454
 C126 C 0.21118 0.17839 0.47292
 H127 H 0.21145 0.19775 0.47324
 C128 C 0.21159 0.12885 0.47276
 H129 H 0.21190 0.10950 0.47284
 C130 C 0.19370 0.14055 0.46033
 H131 H 0.18015 0.12998 0.45102
 N132 N 0.22914 0.14149 0.48425
 C133 C 0.27999 0.13332 0.53876
 H134 H 0.26921 0.11961 0.54712
 C135 C 0.29868 0.14391 0.55167
 H136 H 0.30155 0.13838 0.56993
 C137 C 0.29018 0.15593 0.50457
 H138 H 0.28701 0.16007 0.48601
 C139 C 0.30925 0.16702 0.51691
 H140 H 0.32064 0.17978 0.50772
 Zn141 Zn 0.25231 0.12176 0.49845
 N142 N 0.27607 0.13934 0.51562
 C143 C 0.28341 0.08635 0.47929
 N144 N 0.26782 0.10408 0.47395
 C145 C 0.26395 0.11068 0.45095
 C146 C 0.27533 0.09892 0.43224
 C147 C 0.29514 0.07394 0.46101
 C148 C 0.22238 0.11439 0.53662
 C149 C 0.21024 0.10242 0.55474
 C150 C 0.22325 0.06493 0.53782
 C151 C 0.23534 0.07772 0.51998
 N152 N 0.23513 0.10205 0.52009
 H153 H 0.28679 0.08188 0.49773
 H154 H 0.25234 0.12542 0.44696
 H155 H 0.27181 0.10456 0.41414
 H156 H 0.30736 0.05979 0.46560
 H157 H 0.22227 0.13372 0.53608
 H158 H 0.20071 0.11277 0.56797
 H159 H 0.22403 0.04560 0.53783
 H160 H 0.24513 0.06820 0.50638
 C161 C 0.31388 0.16073 0.54073
 C162 C 0.19342 0.16562 0.46009
 C163 C 0.21087 0.07737 0.55577
 C164 C 0.29110 0.08020 0.43708
 C165 C 0.16736 0.50112 0.21684
 H166 H 0.17958 0.50804 0.23030
 C167 C 0.17629 0.48927 0.19664
 H168 H 0.19547 0.48710 0.19470
 C169 C 0.12746 0.49524 0.20300
 H170 H 0.10842 0.49752 0.20573
 C171 C 0.13551 0.48337 0.18279
 H172 H 0.12237 0.47674 0.17001
 N173 N 0.14326 0.50350 0.21969
 C174 C 0.14664 0.55659 0.27215
 H175 H 0.13349 0.56664 0.26245
 C176 C 0.15937 0.56795 0.29043
 H177 H 0.15600 0.58666 0.29398
 C178 C 0.16559 0.51988 0.28039
 H179 H 0.16732 0.50095 0.27677
 C180 C 0.17866 0.53057 0.29912
 H181 H 0.19055 0.51975 0.30973
 Zn182 Zn 0.12795 0.51759 0.24615
 N183 N 0.14961 0.53290 0.26765
 C184 C 0.09745 0.49880 0.28234
 N185 N 0.11128 0.49325 0.26317
 C186 C 0.11486 0.47009 0.25667
 C187 C 0.10407 0.45149 0.26929
 C188 C 0.08605 0.48066 0.29539
 C189 C 0.11748 0.55733 0.21916
 C190 C 0.10425 0.57620 0.21010
 C191 C 0.06900 0.55978 0.22930
 C192 C 0.08303 0.54126 0.23821
 N193 N 0.10694 0.54073 0.23347
 H194 H 0.09539 0.51731 0.28759
 H195 H 0.12650 0.46586 0.24192
 H196 H 0.10727 0.43324 0.26370
 H197 H 0.07508 0.48541 0.31057
 H198 H 0.13647 0.55625 0.21537
 H199 H 0.11320 0.58948 0.19918
 H200 H 0.05009 0.56022 0.23363
 H201 H 0.07485 0.52758 0.24913
 C202 C 0.17510 0.55482 0.30470
 C203 C 0.16018 0.47996 0.17944
 C204 C 0.07973 0.57780 0.21539
 C205 C 0.08940 0.45660 0.28893
 C206 C -0.14712 0.05609 0.23386
 H207 H -0.13375 0.06645 0.24344
 C208 C -0.15925 0.06679 0.21514
 H209 H -0.15514 0.08535 0.21129
 C210 C -0.16719 0.01921 0.22644
 H211 H -0.16961 0.00046 0.23057
 C212 C -0.17975 0.02923 0.20729
 H213 H -0.19197 0.01797 0.19702
 N214 N -0.15090 0.03262 0.23898
 C215 C -0.12907 -0.00167 0.30485
 H216 H -0.11009 0.00153 0.30210
 C217 C -0.13680 -0.01302 0.32543
 H218 H -0.12350 -0.01827 0.33843
 C219 C -0.16904 0.00117 0.29066
 H220 H -0.18139 0.00666 0.27689
 C221 C -0.17766 -0.01033 0.31119
 H222 H -0.19675 -0.01362 0.31310
 Zn223 Zn -0.12963 0.01829 0.26104
 N224 N -0.14503 0.00489 0.28784
 C225 C -0.11906 0.05887 0.28749
 N226 N -0.10846 0.04216 0.27345
 C227 C -0.08445 0.04290 0.26919
 C228 C -0.07029 0.06161 0.27857
 C229 C -0.10571 0.07790 0.29698
 C230 C -0.11702 -0.02939 0.25207
 C231 C -0.10636 -0.04840 0.24015
 C232 C -0.08786 -0.02018 0.21321
 C233 C -0.09908 -0.00161 0.22561
 N234 N -0.11313 -0.00648 0.24484
 H235 H -0.13814 0.05762 0.29087
 H236 H -0.07626 0.02916 0.25844
 H237 H -0.05125 0.06213 0.27475
 H238 H -0.11470 0.09115 0.30778
 H239 H -0.12879 -0.03311 0.26688
 H240 H -0.10983 -0.06642 0.24633
 H241 H -0.07672 -0.01597 0.19798
 H242 H -0.09673 0.01668 0.21981
 C243 C -0.16134 -0.01782 0.32877
 C244 C -0.17528 0.05323 0.20092
 C245 C -0.09153 -0.04399 0.22044
 C246 C -0.08101 0.07960 0.29241
 C247 C 0.33596 0.50861 0.71957
 H248 H 0.32421 0.50090 0.73286
 C249 C 0.32629 0.52109 0.70021
 H250 H 0.30704 0.52296 0.69871
 C251 C 0.37540 0.51592 0.70538
 H252 H 0.39456 0.51394 0.70765
 C253 C 0.36663 0.52856 0.68607
 H254 H 0.37928 0.53605 0.67344
 N255 N 0.36018 0.50670 0.72190
 C256 C 0.35967 0.45333 0.77397
 H257 H 0.37311 0.44362 0.76426
 C258 C 0.34749 0.44183 0.79231
 H259 H 0.35152 0.42332 0.79592
 C260 C 0.33948 0.48947 0.78214
 H261 H 0.33703 0.50825 0.77845
 C262 C 0.32687 0.47861 0.80086
 H263 H 0.31462 0.48916 0.81142
 Zn264 Zn 0.37654 0.49238 0.74751
 N265 N 0.35577 0.47680 0.76936
 C266 C 0.40871 0.51129 0.78277
 N267 N 0.39361 0.51677 0.76454
 C268 C 0.38879 0.53992 0.75920
 C269 C 0.39953 0.55860 0.77206
 C270 C 0.42007 0.52953 0.79604
 C271 C 0.38554 0.45285 0.71955
 C272 C 0.39811 0.43401 0.70938
 C273 C 0.43458 0.45023 0.72683
 C274 C 0.42119 0.46875 0.73691
 N275 N 0.39701 0.46938 0.73352
 H276 H 0.41175 0.49276 0.78717
 H277 H 0.37610 0.54408 0.74530
 H278 H 0.39528 0.57683 0.76741
 H279 H 0.43203 0.52483 0.81048
 H280 H 0.36635 0.45398 0.71688
 H281 H 0.38841 0.42082 0.69876
 H282 H 0.45373 0.44970 0.73007
 H283 H 0.43007 0.48236 0.74763
 C284 C 0.33130 0.45459 0.80649
 C285 C 0.34182 0.53161 0.68341
 C286 C 0.42292 0.43231 0.71321
 C287 C 0.41542 0.55359 0.79078
 C288 C 0.66285 0.97431 0.72980
 H289 H 0.67366 0.98348 0.74314
 C290 C 0.67390 0.96253 0.71065
 H291 H 0.69328 0.96257 0.70942
 C292 C 0.62440 0.96334 0.71481
 H293 H 0.60508 0.96390 0.71651
 C294 C 0.63457 0.95121 0.69575
 H295 H 0.62282 0.94260 0.68280
 N296 N 0.63849 0.97424 0.73153
 C297 C 0.63482 1.02937 0.78229
 H298 H 0.62102 1.03809 0.77216
 C299 C 0.64653 1.04219 0.80028
 H300 H 0.64164 1.06068 0.80308
 C301 C 0.65652 0.99454 0.79164
 H302 H 0.65990 0.97579 0.78841
 C303 C 0.66871 1.00673 0.81007
 H304 H 0.68154 0.99712 0.82079
 Zn305 Zn 0.62048 0.98922 0.75568
 N306 N 0.63982 1.00597 0.77831
 C307 C 0.58537 0.97133 0.78833
 N308 N 0.60240 0.96538 0.77206
 C309 C 0.60816 0.94212 0.76810
 C310 C 0.59627 0.92379 0.78015
 C311 C 0.57283 0.95344 0.80073
 C312 C 0.61391 1.02741 0.72615
 C313 C 0.60255 1.04613 0.71464
 C314 C 0.56458 1.03129 0.72956
 C315 C 0.57678 1.01283 0.74102
 N316 N 0.60110 1.01162 0.73955
 H317 H 0.58159 0.98996 0.79176
 H318 H 0.62236 0.93764 0.75588
 H319 H 0.60125 0.90547 0.77654
 H320 H 0.55925 0.95850 0.81351
 H321 H 0.63320 1.02584 0.72506
 H322 H 0.61330 1.05875 0.70457
 H323 H 0.54528 1.03236 0.73133
 H324 H 0.56687 0.99980 0.75134
 C325 C 0.66342 1.03087 0.81492
 C326 C 0.65962 0.95060 0.69346
 C327 C 0.57760 1.04852 0.71655
 C328 C 0.57826 0.92926 0.79667
 C329 C 0.01030 0.21613 -0.16485
 H330 H 0.00165 0.22948 -0.17565
 C331 C 0.02290 0.19749 -0.17580
 H332 H 0.02399 0.19663 -0.19507
 C333 C 0.01968 0.20096 -0.12659
 H334 H 0.01841 0.20253 -0.10739
 C335 C 0.03257 0.18240 -0.13666
 H336 H 0.04098 0.16961 -0.12498
 N337 N 0.00938 0.21767 -0.14062
 C338 C -0.04453 0.26930 -0.13685
 H339 H -0.05364 0.25963 -0.12289
 C340 C -0.05668 0.28730 -0.14867
 H341 H -0.07511 0.29075 -0.14382
 C342 C -0.00920 0.27751 -0.15889
 H343 H 0.00950 0.27390 -0.16231
 C344 C -0.02074 0.29584 -0.17121
 H345 H -0.01079 0.30618 -0.18420
 Zn346 Zn -0.00499 0.24231 -0.12273
 N347 N -0.02120 0.26475 -0.14199
 C348 C 0.04277 0.25439 -0.11122
 N349 N 0.01956 0.25895 -0.10546
 C350 C 0.01412 0.27596 -0.08895
 C351 C 0.03246 0.28862 -0.07700
 C352 C 0.06155 0.26663 -0.09987
 C353 C -0.04444 0.21353 -0.11436
 C354 C -0.06284 0.20205 -0.10196
 C355 C -0.04547 0.21693 -0.06509
 C356 C -0.02745 0.22836 -0.07835
 N357 N -0.02758 0.22684 -0.10257
 H358 H 0.04689 0.24154 -0.12502
 H359 H -0.00446 0.27978 -0.08513
 H360 H 0.02778 0.30202 -0.06385
 H361 H 0.07982 0.26255 -0.10484
 H362 H -0.04387 0.21233 -0.13362
 H363 H -0.07615 0.19205 -0.11218
 H364 H -0.04506 0.21874 -0.04584
 H365 H -0.01352 0.23854 -0.06927
 C366 C -0.04473 0.30116 -0.16583
 C367 C 0.03464 0.18063 -0.16154
 C368 C -0.06390 0.20380 -0.07687
 C369 C 0.05659 0.28398 -0.08244
 C370 C 0.48173 0.22323 0.16163
 H371 H 0.49071 0.23672 0.17245
 C372 C 0.46994 0.20382 0.17250
 H373 H 0.46978 0.20250 0.19177
 C374 C 0.47108 0.20822 0.12332
 H375 H 0.47173 0.21004 0.10413
 C376 C 0.45895 0.18895 0.13331
 H377 H 0.45044 0.17593 0.12154
 N378 N 0.48179 0.22507 0.13742
 C379 C 0.53632 0.27731 0.13236
 H380 H 0.54511 0.26708 0.11864
 C381 C 0.54881 0.29618 0.14312
 H382 H 0.56718 0.29965 0.13776
 C383 C 0.50146 0.28616 0.15465
 H384 H 0.48278 0.28245 0.15853
 C385 C 0.51337 0.30543 0.16589
 H386 H 0.50373 0.31641 0.17852
 Zn387 Zn 0.49634 0.24953 0.11929
 N388 N 0.51302 0.27273 0.13803
 C389 C 0.47737 0.28166 0.08476
 N390 N 0.47192 0.26536 0.10190
 C391 C 0.44876 0.26110 0.10842
 C392 C 0.43001 0.27292 0.09726
 C393 C 0.45904 0.29385 0.07296
 C394 C 0.53486 0.22062 0.11207
 C395 C 0.55344 0.20899 0.10046
 C396 C 0.53798 0.22316 0.06287
 C397 C 0.51964 0.23476 0.07532
 N398 N 0.51878 0.23367 0.09955
 H399 H 0.49594 0.28534 0.08037
 H400 H 0.44469 0.24887 0.12270
 H401 H 0.41179 0.26911 0.10287
 H402 H 0.46371 0.30670 0.05931
 H403 H 0.53356 0.21982 0.13130
 H404 H 0.56624 0.19915 0.11099
 H405 H 0.53875 0.22455 0.04363
 H406 H 0.50639 0.24481 0.06565
 C407 C 0.53725 0.31091 0.15972
 C408 C 0.45811 0.18656 0.15818
 C409 C 0.55542 0.21040 0.07556
 C410 C 0.43495 0.28952 0.07923
 C411 C 0.98742 0.71523 0.66809
 H412 H 0.99542 0.72850 0.67988
 C413 C 0.97545 0.69517 0.67754
 H414 H 0.97421 0.69311 0.69669
 C415 C 0.97924 0.70156 0.62872
 H416 H 0.98085 0.70419 0.60968
 C417 C 0.96706 0.68162 0.63727
 H418 H 0.95951 0.66894 0.62455
 N419 N 0.98878 0.71805 0.64402
 C420 C 1.04352 0.76990 0.64374
 H421 H 1.05296 0.75952 0.63060
 C422 C 1.05570 0.78854 0.65523
 H423 H 1.07442 0.79164 0.65098
 C424 C 1.00753 0.77947 0.66383
 H425 H 0.98856 0.77618 0.66650
 C426 C 1.01909 0.79857 0.67570
 H427 H 1.00888 0.80983 0.68762
 Zn428 Zn 1.00357 0.74360 0.62760
 N429 N 1.01978 0.76586 0.64787
 C430 C 0.98531 0.77809 0.59514
 N431 N 0.97946 0.76025 0.61056
 C432 C 0.95612 0.75480 0.61540
 C433 C 0.93762 0.76696 0.60420
 C434 C 0.96726 0.79069 0.58335
 C435 C 1.04217 0.71483 0.61877
 C436 C 1.06091 0.70420 0.60643
 C437 C 1.04608 0.72178 0.57008
 C438 C 1.02761 0.73230 0.58324
 N439 N 1.02637 0.72907 0.60725
 H440 H 1.00397 0.78263 0.59209
 H441 H 0.95166 0.74127 0.62836
 H442 H 0.91924 0.76216 0.60843
 H443 H 0.97225 0.80475 0.57107
 H444 H 1.04056 0.71231 0.63782
 H445 H 1.07353 0.69338 0.61619
 H446 H 1.04715 0.72492 0.55108
 H447 H 1.01457 0.74325 0.57432
 C448 C 1.04340 0.80364 0.67092
 C449 C 0.96484 0.67823 0.66195
 C450 C 1.06329 0.70787 0.58182
 C451 C 0.94301 0.78514 0.58786
 C452 C 0.52980 0.70941 0.36675
 H453 H 0.52901 0.71146 0.38594
 C454 C 0.54208 0.69037 0.35686
 H455 H 0.55053 0.67774 0.36869
 C456 C 0.51954 0.72369 0.32835
 H457 H 0.51072 0.73683 0.31746
 C458 C 0.53154 0.70452 0.31758
 H459 H 0.53197 0.70304 0.29831
 N460 N 0.51926 0.72583 0.35256
 C461 C 0.46535 0.77771 0.35847
 H462 H 0.45695 0.76799 0.37282
 C463 C 0.45280 0.79610 0.34778
 H464 H 0.43476 0.79957 0.35393
 C465 C 0.49939 0.78580 0.33454
 H466 H 0.51781 0.78201 0.32997
 C467 C 0.48741 0.80453 0.32325
 H468 H 0.49682 0.81487 0.30986
 Zn469 Zn 0.50511 0.75048 0.37058
 N470 N 0.48827 0.77296 0.35194
 C471 C 0.55298 0.76280 0.38154
 N472 N 0.52979 0.76714 0.38754
 C473 C 0.52435 0.78377 0.40443
 C474 C 0.54268 0.79599 0.41678
 C475 C 0.57178 0.77469 0.39324
 C476 C 0.46593 0.72160 0.37955
 C477 C 0.44755 0.71041 0.39222
 C478 C 0.46538 0.72542 0.42881
 C479 C 0.48342 0.73654 0.41533
 N480 N 0.48301 0.73487 0.39110
 H481 H 0.55705 0.75027 0.36745
 H482 H 0.50577 0.78746 0.40840
 H483 H 0.53800 0.80893 0.43038
 H484 H 0.59005 0.77070 0.38823
 H485 H 0.46625 0.72031 0.36028
 H486 H 0.43388 0.70041 0.38250
 H487 H 0.46565 0.72732 0.44804
 H488 H 0.49748 0.74667 0.42423
 C489 C 0.46389 0.81029 0.33025
 C490 C 0.54331 0.68779 0.33199
 C491 C 0.44688 0.71251 0.41717
 C492 C 0.56680 0.79139 0.41129
 C493 C 0.36638 -0.01149 0.21681
 C494 C 0.37594 0.00225 0.23578
 C495 C 0.38448 0.02558 0.23149
 C496 C 0.38359 0.03521 0.20845
 C497 C 0.37395 0.02122 0.18973
 C498 C 0.36525 -0.00207 0.19366
 C499 C 0.37677 -0.00774 0.26015
 C500 C 0.38706 -0.03016 0.26409
 C501 C 0.38731 -0.04006 0.28701
 C502 C 0.37713 -0.02731 0.30605
 C503 C 0.36697 -0.00474 0.30253
 C504 C 0.36695 0.00495 0.27943
 H505 H 0.35964 -0.02941 0.22021
 H506 H 0.39189 0.03612 0.24611
 H507 H 0.39474 -0.03992 0.24925
 H508 H 0.35900 0.02223 0.27628
 H509 H 0.37316 0.02856 0.17192
 H510 H 0.37731 -0.03498 0.32375
 C511 C 0.13703 1.00572 0.71557
 C512 C 0.12755 0.99366 0.73540
 C513 C 0.11784 0.97051 0.73248
 C514 C 0.11806 0.95921 0.71007
 C515 C 0.12824 0.97123 0.69055
 C516 C 0.13765 0.99454 0.69304
 C517 C 0.12893 1.00481 0.75938
 C518 C 0.12015 1.02796 0.76328
 C519 C 0.12219 1.03883 0.78589
 C520 C 0.13373 1.02648 0.80434
 C521 C 0.14237 1.00330 0.80080
 C522 C 0.13965 0.99245 0.77830
 H523 H 0.14467 1.02349 0.71795
 H524 H 0.11041 0.96124 0.74775
 H525 H 0.11155 1.03731 0.74878
 H526 H 0.14650 0.97464 0.77524
 H527 H 0.12840 0.96253 0.67322
 H528 H 0.13533 1.03463 0.82187
 C529 C 0.63740 0.50915 0.20956
 C530 C 0.62732 0.49671 0.22887
 C531 C 0.61637 0.47426 0.22497
 C532 C 0.61560 0.46415 0.20200
 C533 C 0.62589 0.47675 0.18289
 C534 C 0.63685 0.49925 0.18645
 C535 C 0.62876 0.50704 0.25319
 C536 C 0.62057 0.53030 0.25759
 C537 C 0.62243 0.54048 0.28048
 C538 C 0.63307 0.52725 0.29884
 C539 C 0.64127 0.50394 0.29483
 C540 C 0.63880 0.49383 0.27191
 H541 H 0.64595 0.52641 0.21269
 H542 H 0.60864 0.46464 0.23988
 H543 H 0.61259 0.54031 0.24317
 H544 H 0.64523 0.47596 0.26841
 H545 H 0.62538 0.46894 0.16516
 H546 H 0.63453 0.53495 0.31657
 C547 C 0.86505 0.48079 0.71189
 C548 C 0.87450 0.49383 0.73137
 C549 C 0.88439 0.51677 0.72773
 C550 C 0.88500 0.52666 0.70477
 C551 C 0.87543 0.51335 0.68552
 C552 C 0.86531 0.49051 0.68884
 C553 C 0.87351 0.48361 0.75563
 C554 C 0.88235 0.46061 0.75989
 C555 C 0.88053 0.45041 0.78263
 C556 C 0.86952 0.46334 0.80105
 C557 C 0.86092 0.48650 0.79724
 C558 C 0.86316 0.49660 0.77444
 H559 H 0.85721 0.46323 0.71482
 H560 H 0.89165 0.52678 0.74277
 H561 H 0.89057 0.45068 0.74547
 H562 H 0.85630 0.51430 0.77107
 H563 H 0.87571 0.52090 0.66779
 H564 H 0.86821 0.45554 0.81865
 C565 C 0.21430 0.36672 -0.00879
 C566 C 0.23332 0.37762 0.00392
 C567 C 0.22882 0.38891 0.02589
 C568 C 0.20538 0.38975 0.03501
 C569 C 0.18661 0.37858 0.02210
 C570 C 0.19082 0.36695 0.00027
 C571 C 0.25782 0.37762 -0.00612
 C572 C 0.26187 0.38666 -0.02909
 C573 C 0.28483 0.38605 -0.03919
 C574 C 0.30380 0.37631 -0.02608
 C575 C 0.30019 0.36736 -0.00298
 C576 C 0.27704 0.36819 0.00694
 H577 H 0.21791 0.35798 -0.02569
 H578 H 0.24351 0.39751 0.03549
 H579 H 0.24705 0.39398 -0.03914
 H580 H 0.27380 0.36120 0.02464
 H581 H 0.16854 0.37894 0.02909
 H582 H 0.32152 0.37580 -0.03394
 C583 C 0.71504 0.13133 1.00886
 C584 C 0.73455 0.12032 0.99762
 C585 C 0.73147 0.11004 0.97486
 C586 C 0.70924 0.11122 0.96314
 C587 C 0.69012 0.12291 0.97431
 C588 C 0.69273 0.13288 0.99723
 C589 C 0.75846 0.12083 1.00917
 C590 C 0.76121 0.11322 1.03283
 C591 C 0.78350 0.11548 1.04439
 C592 C 0.80304 0.12565 1.03213
 C593 C 0.80073 0.13289 1.00830
 C594 C 0.77836 0.13022 0.99688
 H595 H 0.71753 0.13940 1.02634
 H596 H 0.74645 0.10142 0.96621
 H597 H 0.74591 0.10584 1.04229
 H598 H 0.77612 0.13625 0.97869
 H599 H 0.67293 0.12375 0.96529
 H600 H 0.82027 0.12739 1.04102
 C601 C 0.22453 0.63818 0.50847
 C602 C 0.24421 0.62885 0.49603
 C603 C 0.24103 0.62028 0.47261
 C604 C 0.21860 0.62163 0.46136
 C605 C 0.19928 0.63165 0.47373
 C606 C 0.20197 0.63984 0.49734
 C607 C 0.26841 0.62933 0.50696
 C608 C 0.27227 0.61974 0.52974
 C609 C 0.29527 0.62050 0.54010
 C610 C 0.31422 0.63155 0.52759
 C611 C 0.31066 0.64114 0.50482
 C612 C 0.28769 0.63977 0.49454
 H613 H 0.22709 0.64495 0.52647
 H614 H 0.25615 0.61295 0.46303
 H615 H 0.25743 0.61142 0.53914
 H616 H 0.28459 0.64731 0.47706
 H617 H 0.18193 0.63263 0.46505
 H618 H 0.33203 0.63220 0.53536
 C619 C 0.72385 0.86418 0.49606
 C620 C 0.74256 0.87281 0.51078
 C621 C 0.73754 0.88015 0.53425
 C622 C 0.71401 0.87899 0.54306
 C623 C 0.69556 0.87018 0.52814
 C624 C 0.70021 0.86273 0.50466
 C625 C 0.76736 0.87455 0.50157
 C626 C 0.77208 0.88692 0.48034
 C627 C 0.79568 0.88950 0.47194
 C628 C 0.81449 0.87902 0.48481
 C629 C 0.81006 0.86625 0.50588
 C630 C 0.78637 0.86430 0.51425
 H631 H 0.72780 0.85852 0.47798
 H632 H 0.75195 0.88702 0.54548
 H633 H 0.75739 0.89503 0.47077
 H634 H 0.78257 0.85466 0.53055
 H635 H 0.67737 0.86925 0.53483
 H636 H 0.83271 0.88070 0.47832
 C637 C 0.00335 0.23642 0.36560
 C638 C 0.01712 0.25469 0.37655
 C639 C 0.04056 0.24992 0.38434
 C640 C 0.05035 0.22713 0.38106
 C641 C 0.03654 0.20930 0.36949
 C642 C 0.01304 0.21367 0.36181
 C643 C 0.00715 0.27895 0.37914
 C644 C -0.01555 0.28216 0.38935
 C645 C -0.02577 0.30495 0.39040
 C646 C -0.01293 0.32463 0.38119
 C647 C 0.00987 0.32175 0.37097
 C648 C 0.01983 0.29880 0.37021
 H649 H -0.01467 0.24018 0.35949
 H650 H 0.05105 0.26393 0.39306
 H651 H -0.02541 0.26680 0.39606
 H652 H 0.03722 0.29614 0.36208
 H653 H 0.04389 0.19163 0.36704
 H654 H -0.02085 0.34221 0.38176
 C655 C 0.99602 0.73479 0.14845
 C656 C 0.98255 0.75253 0.13714
 C657 C 0.96004 0.74666 0.12721
 C658 C 0.95092 0.72317 0.12847
 C659 C 0.96424 0.70588 0.14064
 C660 C 0.98681 0.71140 0.15052
 C661 C 0.99224 0.77713 0.13515
 C662 C 1.01437 0.78128 0.12392
 C663 C 1.02344 0.80467 0.12138
 C664 C 1.01025 0.82385 0.13071
 C665 C 0.98826 0.81998 0.14235
 C666 C 0.97925 0.79648 0.14426
 H667 H 1.01346 0.73936 0.15592
 H668 H 0.95003 0.76028 0.11797
 H669 H 1.02422 0.76627 0.11681
 H670 H 0.96225 0.79310 0.15302
 H671 H 0.95741 0.68770 0.14170
 H672 H 1.01723 0.84192 0.12911
 C673 C 0.51127 0.20983 0.64151
 C674 C 0.49964 0.22936 0.63116
 C675 C 0.47673 0.22613 0.62103
 C676 C 0.46521 0.20370 0.62162
 C677 C 0.47674 0.18452 0.63268
 C678 C 0.49979 0.18732 0.64258
 C679 C 0.51088 0.25344 0.63194
 C680 C 0.53370 0.25749 0.62206
 C681 C 0.54427 0.28045 0.62279
 C682 C 0.53199 0.29909 0.63427
 C683 C 0.50917 0.29535 0.64416
 C684 C 0.49861 0.27245 0.64268
 H685 H 0.52888 0.21245 0.64943
 H686 H 0.46783 0.24118 0.61292
 H687 H 0.54291 0.24285 0.61343
 H688 H 0.48103 0.26921 0.65031
 H689 H 0.46790 0.16717 0.63310
 H690 H 0.53991 0.31687 0.63491
 C691 C 0.48549 0.71081 0.87682
 C692 C 0.49865 0.73013 0.88668
 C693 C 0.52187 0.72637 0.89559
 C694 C 0.53208 0.70361 0.89442
 C695 C 0.51878 0.68453 0.88441
 C696 C 0.49549 0.68788 0.87553
 C697 C 0.48851 0.75447 0.88679
 C698 C 0.46557 0.75848 0.89617
 C699 C 0.45560 0.78137 0.89548
 C700 C 0.46882 0.80029 0.88535
 C701 C 0.49188 0.79668 0.87606
 C702 C 0.50162 0.77364 0.87694
 H703 H 0.46768 0.71382 0.86975
 H704 H 0.53207 0.74125 0.90311
 H705 H 0.45543 0.74373 0.90376
 H706 H 0.51926 0.77042 0.86961
 H707 H 0.52673 0.66698 0.88342
 H708 H 0.46108 0.81795 0.88479
 C709 C 0.42986 -0.12912 0.30672
 N710 N 0.41946 -0.14362 0.32307
 N711 N 0.43024 -0.16344 0.33009
 C712 C 0.45201 -0.16959 0.32125
 N713 N 0.46230 -0.15515 0.30458
 N714 N 0.45140 -0.13531 0.29741
 C715 C 0.41843 -0.10646 0.30062
 N716 N 0.42625 -0.09293 0.28209
 N717 N 0.41613 -0.07197 0.27745
 C718 C 0.39800 -0.06369 0.29131
 N719 N 0.39021 -0.07732 0.30974
 N720 N 0.40016 -0.09831 0.31424
 C721 C 0.92121 0.36151 0.80643
 N722 N 0.94279 0.35468 0.79767
 N723 N 0.95351 0.33523 0.80605
 C724 C 0.94300 0.32188 0.82343
 N725 N 0.92129 0.32865 0.83185
 N726 N 0.91065 0.34807 0.82358
 C727 C 0.90998 0.38385 0.79894
 N728 N 0.89110 0.39243 0.81142
 N729 N 0.88154 0.41335 0.80590
 C730 C 0.89036 0.42650 0.78756
 N731 N 0.90905 0.41775 0.77479
 N732 N 0.91876 0.39684 0.78044
 C733 C 0.07597 1.12483 0.81086
 N734 N 0.05938 1.13553 0.79681
 N735 N 0.04643 1.15363 0.80526
 C736 C 0.04950 1.16149 0.82811
 N737 N 0.06627 1.15087 0.84191
 N738 N 0.07923 1.13297 0.83347
 C739 C 0.08931 1.10382 0.80283
 N740 N 0.10554 1.09397 0.81776
 N741 N 0.11641 1.07376 0.81194
 C742 C 0.11154 1.06248 0.79094
 N743 N 0.09558 1.07258 0.77572
 N744 N 0.08463 1.09288 0.78156
 C745 C 0.58105 0.62911 0.30515
 N746 N 0.58492 0.63743 0.32761
 N747 N 0.57318 0.65629 0.33576
 C748 C 0.55707 0.66771 0.32183
 N749 N 0.55343 0.65967 0.29913
 N750 N 0.56517 0.64063 0.29095
 C751 C 0.59296 0.60714 0.29744
 N752 N 0.58819 0.59669 0.27597
 N753 N 0.59797 0.57577 0.27022
 C754 C 0.61279 0.56452 0.28576
 N755 N 0.61771 0.57525 0.30703
 N756 N 0.60802 0.59609 0.31274
 C757 C 0.57195 0.37413 0.18256
 N758 N 0.55114 0.36695 0.19306
 N759 N 0.54020 0.34663 0.18623
 C760 C 0.54976 0.33272 0.16877
 N761 N 0.57070 0.33990 0.15860
 N762 N 0.58153 0.36017 0.16529
 C763 C 0.58352 0.39714 0.18850
 N764 N 0.60122 0.40578 0.17427
 N765 N 0.61142 0.42697 0.17873
 C766 C 0.60447 0.44035 0.19770
 N767 N 0.58691 0.43161 0.21215
 N768 N 0.57652 0.41042 0.20757
 C769 C 0.07711 0.86742 0.69365
 N770 N 0.05548 0.86087 0.70286
 N771 N 0.04488 0.84032 0.69620
 C772 C 0.05560 0.82554 0.68020
 N773 N 0.07738 0.83207 0.67139
 N774 N 0.08787 0.85257 0.67791
 C775 C 0.08821 0.89080 0.69906
 N776 N 0.10662 0.89889 0.68540
 N777 N 0.11620 0.92051 0.68913
 C778 C 0.10789 0.93486 0.70679
 N779 N 0.08964 0.92665 0.72071
 N780 N 0.07988 0.90505 0.71683
 C781 C 0.92778 0.61669 0.68460
 N782 N 0.94200 0.62909 0.70023
 N783 N 0.95353 0.64898 0.69336
 C784 C 0.95132 0.65704 0.67061
 N785 N 0.93687 0.64469 0.65525
 N786 N 0.92535 0.62498 0.66208
 C787 C 0.91590 0.59403 0.69093
 N788 N 0.90266 0.58227 0.67416
 N789 N 0.89269 0.56111 0.67881
 C790 C 0.89551 0.55074 0.70043
 N791 N 0.90858 0.56265 0.71740
 N792 N 0.91865 0.58391 0.71273
 C793 C 0.42225 0.12609 0.18490
 N794 N 0.43823 0.13828 0.19893
 N795 N 0.44931 0.15794 0.19084
 C796 C 0.44487 0.16596 0.16841
 N797 N 0.42863 0.15387 0.15469
 N798 N 0.41756 0.13439 0.16275
 C799 C 0.41116 0.10340 0.19236
 N800 N 0.39638 0.09155 0.17695
 N801 N 0.38738 0.07016 0.18238
 C802 C 0.39275 0.05966 0.20344
 N803 N 0.40730 0.07169 0.21910
 N804 N 0.41640 0.09317 0.21363
 C805 C 0.30564 0.42337 -0.13051
 N806 N 0.32208 0.41218 -0.14423
 N807 N 0.32957 0.42187 -0.16452
 C808 C 0.32105 0.44322 -0.17194
 N809 N 0.30435 0.45435 -0.15829
 N810 N 0.29673 0.44456 -0.13797
 C811 C 0.29911 0.41321 -0.10730
 N812 N 0.28071 0.42201 -0.09421
 N813 N 0.27580 0.41312 -0.07271
 C814 C 0.28927 0.39531 -0.06344
 N815 N 0.30756 0.38651 -0.07664
 N816 N 0.31232 0.39523 -0.09816
 C817 C 0.81785 0.94343 0.38940
 N818 N 0.84126 0.94834 0.38491
 N819 N 0.84760 0.96078 0.36578
 C820 C 0.83087 0.96887 0.35026
 N821 N 0.80733 0.96399 0.35476
 N822 N 0.80092 0.95152 0.37402
 C823 C 0.81153 0.92940 0.41058
 N824 N 0.78835 0.92485 0.41665
 N825 N 0.78320 0.91213 0.43609
 C826 C 0.80103 0.90344 0.45010
 N827 N 0.82413 0.90804 0.44388
 N828 N 0.82927 0.92075 0.42455
 C829 C 0.80018 0.08165 1.13777
 N830 N 0.79290 0.05943 1.14455
 N831 N 0.80023 0.05037 1.16527
 C832 C 0.81504 0.06321 1.18004
 N833 N 0.82172 0.08564 1.17333
 N834 N 0.81455 0.09462 1.15264
 C835 C 0.79447 0.09104 1.11405
 N836 N 0.80706 0.11007 1.10556
 N837 N 0.80330 0.11798 1.08355
 C838 C 0.78664 0.10730 1.06919
 N839 N 0.77375 0.08843 1.07780
 N840 N 0.77769 0.08035 1.09979
 C841 C 0.31794 0.57257 0.62577
 N842 N 0.30224 0.55810 0.63756
 N843 N 0.30956 0.54522 0.65614
 C844 C 0.33287 0.54623 0.66342
 N845 N 0.34836 0.56087 0.65165
 N846 N 0.34106 0.57376 0.63326
 C847 C 0.31090 0.58608 0.60456
 N848 N 0.32738 0.60037 0.59379
 N849 N 0.32211 0.61164 0.57369
 C850 C 0.30013 0.60912 0.56343
 N851 N 0.28345 0.59503 0.57439
 N852 N 0.28873 0.58370 0.59460
 C853 C 0.20073 0.58566 0.36842
 N854 N 0.18554 0.59763 0.35400
 N855 N 0.17819 0.58807 0.33343
 C856 C 0.18559 0.56608 0.32642
 N857 N 0.20109 0.55420 0.34074
 N858 N 0.20859 0.56384 0.36134
 C859 C 0.20672 0.59560 0.39201
 N860 N 0.22394 0.58585 0.40595
 N861 N 0.22815 0.59442 0.42787
 C862 C 0.21510 0.61284 0.43668
 N863 N 0.19801 0.62259 0.42262
 N864 N 0.19397 0.61420 0.40070
 C865 C 0.68980 0.06669 0.87422
 N866 N 0.67449 0.07739 0.85895
 N867 N 0.66660 0.06597 0.83954
 C868 C 0.67349 0.04326 0.83456
 N869 N 0.68920 0.03267 0.84972
 N870 N 0.69722 0.04417 0.86918
 C871 C 0.69640 0.07886 0.89661
 N872 N 0.71335 0.06999 0.91148
 N873 N 0.71796 0.08060 0.93243
 C874 C 0.70562 0.10029 0.93932
 N875 N 0.68886 0.10917 0.92430
 N876 N 0.68441 0.09872 0.90335
 C877 C 0.68755 0.91559 0.63346
 N878 N 0.66479 0.91127 0.64086
 N879 N 0.65629 0.92208 0.66017
 C880 C 0.67015 0.93767 0.67296
 N881 N 0.69314 0.94173 0.66582
 N882 N 0.70168 0.93092 0.64635
 C883 C 0.69566 0.90486 0.61097
 N884 N 0.71766 0.90987 0.60173
 N885 N 0.72383 0.90124 0.58038
 C886 C 0.70820 0.88739 0.56748
 N887 N 0.68639 0.88222 0.57698
 N888 N 0.68026 0.89076 0.59826
 C889 C 0.18228 0.44090 0.11933
 N890 N 0.15876 0.44269 0.12500
 N891 N 0.15198 0.45511 0.14404
 C892 C 0.16840 0.46630 0.15830
 N893 N 0.19206 0.46446 0.15271
 N894 N 0.19888 0.45202 0.13352
 C895 C 0.18901 0.42726 0.09796
 N896 N 0.21212 0.42596 0.09046
 N897 N 0.21750 0.41388 0.07059
 C898 C 0.19999 0.40267 0.05754
 N899 N 0.17698 0.40398 0.06526
 N900 N 0.17161 0.41601 0.08501
 C901 C -0.11949 0.31797 0.42665
 N902 N -0.12797 0.30576 0.44582
 N903 N -0.14979 0.31019 0.45445
 C904 C -0.16397 0.32680 0.44407
 N905 N -0.15544 0.33874 0.42479
 N906 N -0.13366 0.33447 0.41629
 C907 C -0.09516 0.31425 0.41748
 N908 N -0.08552 0.33009 0.40186
 N909 N -0.06344 0.32717 0.39345
 C910 C -0.05016 0.30819 0.40018
 N911 N -0.05986 0.29224 0.41576
 N912 N -0.08192 0.29527 0.42435
 C913 C 0.36395 0.80185 0.93301
 N914 N 0.35656 0.79367 0.95460
 N915 N 0.33607 0.80127 0.96413
 C916 C 0.32218 0.81720 0.95235
 N917 N 0.32954 0.82496 0.93063
 N918 N 0.34998 0.81751 0.92119
 C919 C 0.38732 0.79545 0.92297
 N920 N 0.39638 0.80832 0.90457
 N921 N 0.41796 0.80364 0.89580
 C922 C 0.43132 0.78577 0.90494
 N923 N 0.42215 0.77263 0.92319
 N924 N 0.40057 0.77747 0.93215
 C925 C 1.11029 0.82465 0.07258
 N926 N 1.12470 0.80742 0.06350
 N927 N 1.14474 0.81337 0.05180
 C928 C 1.15101 0.83675 0.04874
 N929 N 1.13650 0.85379 0.05789
 N930 N 1.11661 0.84789 0.06955
 C931 C 1.08807 0.81885 0.08543
 N932 N 1.07472 0.83685 0.09444
 N933 N 1.05436 0.83223 0.10590
 C934 C 1.04643 0.80940 0.10886
 N935 N 1.05985 0.79130 0.09985
 N936 N 1.08031 0.79593 0.08835
 C937 C 0.62839 0.30504 0.57158
 N938 N 0.63507 0.32841 0.57190
 N939 N 0.65277 0.33631 0.55812
 C940 C 0.66466 0.32119 0.54343
 N941 N 0.65824 0.29762 0.54329
 N942 N 0.64031 0.28969 0.55705
 C943 C 0.60780 0.29737 0.58609
 N944 N 0.59791 0.27510 0.58409
 N945 N 0.57807 0.26937 0.59621
 C946 C 0.56742 0.28568 0.61073
 N947 N 0.57766 0.30774 0.61289
 N948 N 0.59739 0.31346 0.60084
 C949 C 0.37561 0.18471 0.57725
 N950 N 0.36964 0.19447 0.55594
 N951 N 0.34979 0.18728 0.54442
 C952 C 0.33516 0.17014 0.55385
 N953 N 0.34111 0.16071 0.57530
 N954 N 0.36092 0.16779 0.58672
 C955 C 0.39826 0.19089 0.58936
 N956 N 0.40572 0.17746 0.60796
 N957 N 0.42681 0.18184 0.61837
 C958 C 0.44126 0.19993 0.61072
 N959 N 0.43364 0.21364 0.59230
 N960 N 0.41256 0.20914 0.58173
 C961 C 0.86992 0.69151 0.07533
 N962 N 0.86506 0.66771 0.07523
 N963 N 0.84802 0.65853 0.06116
 C964 C 0.83505 0.67273 0.04660
 N965 N 0.83972 0.69668 0.04682
 N966 N 0.85695 0.70590 0.06086
 C967 C 0.88962 0.70081 0.09029
 N968 N 0.89759 0.72381 0.08873
 N969 N 0.91667 0.73124 0.10134
 C970 C 0.92844 0.71596 0.11597
 N971 N 0.92010 0.69313 0.11769
 N972 N 0.90113 0.68572 0.10513
 C973 C 0.62556 0.68490 0.92852
 N974 N 0.63894 0.66849 0.91689
 N975 N 0.65996 0.66176 0.92568
 C976 C 0.66845 0.67105 0.94654
 N977 N 0.65513 0.68768 0.95812
 N978 N 0.63409 0.69454 0.94923
 C979 C 0.60169 0.69074 0.91932
 N980 N 0.58883 0.70902 0.92862
 N981 N 0.56679 0.71343 0.92052
 C982 C 0.55677 0.69956 0.90303
 N983 N 0.56975 0.68138 0.89376
 N984 N 0.59178 0.67711 0.90169
 C985 C 0.13796 0.19796 0.42191
 N986 N 0.14541 0.17567 0.41629
 N987 N 0.16334 0.16577 0.42818
 C988 C 0.17464 0.17775 0.44619
 N989 N 0.16752 0.20033 0.45159
 N990 N 0.14940 0.21023 0.43971
 C991 C 0.11665 0.20734 0.40991
 N992 N 0.10634 0.22811 0.41692
 N993 N 0.08562 0.23494 0.40725
 C994 C 0.07447 0.22121 0.39030
 N995 N 0.08514 0.20075 0.38308
 N996 N 0.10576 0.19396 0.39267
 C997 C 0.54421 0.10772 0.68562
 N998 N 0.53087 0.08891 0.69359
 N999 N 0.54138 0.07007 0.70341
 C1000 C 0.56566 0.06925 0.70548
 N1001 N 0.57893 0.08809 0.69743
 N1002 N 0.56843 0.10696 0.68774
 C1003 C 0.53271 0.12850 0.67474
 N1004 N 0.54583 0.14826 0.66896
 N1005 N 0.53541 0.16703 0.65890
 C1006 C 0.51149 0.16670 0.65413
 N1007 N 0.49844 0.14690 0.65998
 N1008 N 0.50881 0.12819 0.67012
 C1009 C 1.04020 0.63606 0.19063
 N1010 N 1.02883 0.61644 0.19953
 N1011 N 1.04134 0.59797 0.20749
 C1012 C 1.06570 0.59831 0.20668
 N1013 N 1.07702 0.61799 0.19778
 N1014 N 1.06453 0.63651 0.18993
 C1015 C 1.02638 0.65612 0.18125
 N1016 N 1.03754 0.67660 0.17415
 N1017 N 1.02498 0.69441 0.16483
 C1018 C 1.00079 0.69236 0.16216
 N1019 N 0.98970 0.67190 0.16946
 N1020 N 1.00221 0.65417 0.17887
 C1021 C 0.94064 0.89839 0.18490
 N1022 N 0.94711 0.92127 0.17967
 N1023 N 0.93682 0.93961 0.19078
 C1024 C 0.91973 0.93578 0.20763
 N1025 N 0.91327 0.91286 0.21275
 N1026 N 0.92349 0.89454 0.20161
 C1027 C 0.95240 0.87810 0.17320
 N1028 N 0.94517 0.85529 0.17776
 N1029 N 0.95631 0.83685 0.16772
 C1030 C 0.97516 0.84047 0.15279
 N1031 N 0.98224 0.86333 0.14819
 N1032 N 0.97108 0.88178 0.15815
 C1033 C 0.46008 0.37357 0.68533
 N1034 N 0.47228 0.39310 0.69370
 N1035 N 0.46056 0.41176 0.70261
 C1036 C 0.43618 0.41168 0.70334
 N1037 N 0.42406 0.39211 0.69494
 N1038 N 0.43576 0.37342 0.68615
 C1039 C 0.47289 0.35306 0.67523
 N1040 N 0.46082 0.33267 0.66907
 N1041 N 0.47234 0.31424 0.65947
 C1042 C 0.49637 0.31551 0.65554
 N1043 N 0.50839 0.33593 0.66180
 N1044 N 0.49691 0.35431 0.67150
 C1045 C 0.44754 0.61022 0.82944
 N1046 N 0.45510 0.58744 0.83242
 N1047 N 0.44483 0.56939 0.82033
 C1048 C 0.42668 0.57345 0.80469
 N1049 N 0.41913 0.59628 0.80182
 N1050 N 0.42932 0.61429 0.81395
 C1051 C 0.45932 0.63025 0.84218
 N1052 N 0.45102 0.65288 0.84005
 N1053 N 0.46222 0.67115 0.85093
 C1054 C 0.48222 0.66752 0.86430
 N1055 N 0.49036 0.64482 0.86650
 N1056 N 0.47913 0.62655 0.85570
 C1057 C -0.04097 0.13773 0.31982
 N1058 N -0.02975 0.11852 0.31025
 N1059 N -0.04241 0.10009 0.30142
 C1060 C -0.06678 0.10010 0.30197
 N1061 N -0.07793 0.11937 0.31154
 N1062 N -0.06529 0.13784 0.32027
 C1063 C -0.02701 0.15780 0.33002
 N1064 N -0.03808 0.17777 0.33808
 N1065 N -0.02540 0.19569 0.34790
 C1066 C -0.00117 0.19425 0.35014
 N1067 N 0.00982 0.17427 0.34195
 N1068 N -0.00282 0.15642 0.33206
 C1069 C 0.05697 0.40010 0.32654
 N1070 N 0.05000 0.42299 0.33038
 N1071 N 0.06038 0.44102 0.31863
 C1072 C 0.07804 0.43681 0.30250
 N1073 N 0.08497 0.41389 0.29879
 N1074 N 0.07469 0.39591 0.31058
 C1075 C 0.04524 0.38002 0.33889
 N1076 N 0.05338 0.35743 0.33590
 N1077 N 0.04237 0.33903 0.34637
 C1078 C 0.02272 0.34243 0.36020
 N1079 N 0.01467 0.36510 0.36326
 N1080 N 0.02573 0.38354 0.35285
 C1081 C 0.54232 0.87348 0.83232
 N1082 N 0.53461 0.89636 0.83440
 N1083 N 0.54606 0.91414 0.82325
 C1084 C 0.56560 0.90972 0.80952
 N1085 N 0.57325 0.88681 0.80756
 N1086 N 0.56188 0.86907 0.81874
 C1087 C 0.52954 0.85371 0.84418
 N1088 N 0.53796 0.83107 0.84280
 N1089 N 0.52616 0.81301 0.85308
 C1090 C 0.50541 0.81686 0.86510
 N1091 N 0.49708 0.83957 0.86651
 N1092 N 0.50890 0.85764 0.85628
 C1093 C 0.68172 0.54646 0.10890
 N1094 N 0.67618 0.54061 0.08597
 N1095 N 0.68732 0.55142 0.06789
 C1096 C 0.70457 0.56844 0.07198
 N1097 N 0.71002 0.57412 0.09504
 N1098 N 0.69884 0.56342 0.11309
 C1099 C 0.66965 0.53454 0.12892
 N1100 N 0.67379 0.54196 0.15170
 N1101 N 0.66319 0.53094 0.16994
 C1102 C 0.64811 0.51200 0.16613
 N1103 N 0.64396 0.50467 0.14330
 N1104 N 0.65447 0.51574 0.12504
 C1105 C 0.17889 1.04174 0.61353
 N1106 N 0.18657 1.02922 0.59421
 N1107 N 0.19663 1.04046 0.57578
 C1108 C 0.19927 1.06466 0.57590
 N1109 N 0.19147 1.07710 0.59523
 N1110 N 0.18153 1.06588 0.61368
 C1111 C 0.16811 1.02948 0.63406
 N1112 N 0.16283 1.04186 0.65426
 N1113 N 0.15319 1.03079 0.67298
 C1114 C 0.14836 1.00692 0.67222
 N1115 N 0.15363 0.99460 0.65195
 N1116 N 0.16336 1.00563 0.63326
 C1117 C 0.18308 0.95482 0.87926
 N1118 N 0.19520 0.96694 0.89667
 N1119 N 0.20384 0.95549 0.91557
 C1120 C 0.20053 0.93146 0.91797
 N1121 N 0.18828 0.91950 0.90044
 N1122 N 0.17980 0.93089 0.88148
 C1123 C 0.17327 0.96738 0.85854
 N1124 N 0.16416 0.95493 0.83961
 N1125 N 0.15469 0.96630 0.82108
 C1126 C 0.15381 0.99056 0.82084
 N1127 N 0.16303 1.00296 0.83977
 N1128 N 0.17264 0.99161 0.85822
 C1129 C 0.68222 0.45291 0.37168
 N1130 N 0.68342 0.42870 0.37107
 N1131 N 0.69257 0.41681 0.38942
 C1132 C 0.70093 0.42862 0.40910
 N1133 N 0.69976 0.45287 0.40964
 N1134 N 0.69053 0.46477 0.39132
 C1135 C 0.67191 0.46605 0.35155
 N1136 N 0.66860 0.48998 0.35322
 N1137 N 0.65896 0.50192 0.33516
 C1138 C 0.65231 0.49046 0.31467
 N1139 N 0.65578 0.46650 0.31298
 N1140 N 0.66534 0.45452 0.33110
 C1141 C 0.82150 0.44289 0.61003
 N1142 N 0.80556 0.42473 0.61355
 N1143 N 0.79420 0.41447 0.59514
 C1144 C 0.79832 0.42190 0.57245
 N1145 N 0.81438 0.44002 0.56895
 N1146 N 0.82570 0.45035 0.58739
 C1147 C 0.83353 0.45463 0.63042
 N1148 N 0.84778 0.47416 0.62708
 N1149 N 0.85805 0.48529 0.64562
 C1150 C 0.85459 0.47735 0.66823
 N1151 N 0.84048 0.45764 0.67151
 N1152 N 0.83013 0.44652 0.65297
 C1153 C 0.32160 -0.05268 0.11662
 N1154 N 0.30573 -0.07075 0.12081
 N1155 N 0.29407 -0.08142 0.10281
 C1156 C 0.29782 -0.07451 0.07989
 N1157 N 0.31386 -0.05652 0.07572
 N1158 N 0.32547 -0.04577 0.09375
 C1159 C 0.33373 -0.04027 0.13657
 N1160 N 0.34745 -0.02050 0.13257
 N1161 N 0.35766 -0.00864 0.15069
 C1162 C 0.35465 -0.01607 0.17355
 N1163 N 0.34110 -0.03603 0.17750
 N1164 N 0.33080 -0.04787 0.15936
 C1165 C 0.32478 0.04459 0.38030
 N1166 N 0.31144 0.06428 0.37635
 N1167 N 0.30087 0.07554 0.39441
 C1168 C 0.30322 0.06762 0.41716
 N1169 N 0.31668 0.04793 0.42110
 N1170 N 0.32723 0.03661 0.40301
 C1171 C 0.33607 0.03201 0.36022
 N1172 N 0.34824 0.01148 0.36380
 N1173 N 0.35810 -0.00008 0.34551
 C1174 C 0.35624 0.00841 0.32290
 N1175 N 0.34411 0.02902 0.31940
 N1176 N 0.33420 0.04057 0.33768
 C1177 C 0.81944 0.53761 0.87414
 N1178 N 0.81772 0.56177 0.87343
 N1179 N 0.80845 0.57377 0.89174
 C1180 C 0.80047 0.56213 0.91146
 N1181 N 0.80215 0.53792 0.91209
 N1182 N 0.81151 0.52590 0.89381
 C1183 C 0.82988 0.52438 0.85404
 N1184 N 0.83371 0.50055 0.85569
 N1185 N 0.84347 0.48859 0.83762
 C1186 C 0.84973 0.49992 0.81714
 N1187 N 0.84576 0.52378 0.81547
 N1188 N 0.83607 0.53579 0.83359
 C1189 C 0.12227 0.67923 0.54557
 N1190 N 0.12165 0.67972 0.56974
 N1191 N 0.10284 0.68869 0.58114
 C1192 C 0.08394 0.69763 0.56886
 N1193 N 0.08462 0.69719 0.54463
 N1194 N 0.10340 0.68809 0.53320
 C1195 C 0.14302 0.66921 0.53307
 N1196 N 0.14262 0.66621 0.50904
 N1197 N 0.16135 0.65691 0.49777
 C1198 C 0.18127 0.65033 0.51002
 N1199 N 0.18166 0.65346 0.53408
 N1200 N 0.16288 0.66266 0.54539
 C1201 C 0.61385 0.17812 1.04153
 N1202 N 0.61346 0.18085 1.06558
 N1203 N 0.59486 0.19103 1.07625
 C1204 C 0.57591 0.19896 1.06335
 N1205 N 0.57635 0.19629 1.03923
 N1206 N 0.59495 0.18600 1.02853
 C1207 C 0.63438 0.16667 1.02994
 N1208 N 0.63392 0.16150 1.00625
 N1209 N 0.65246 0.15082 0.99591
 C1210 C 0.67222 0.14496 1.00879
 N1211 N 0.67267 0.15026 1.03247
 N1212 N 0.65410 0.16085 1.04285
 C1213 C 0.88022 0.17336 0.95933
 N1214 N 0.89830 0.18474 0.97132
 N1215 N 0.91664 0.19462 0.95955
 C1216 C 0.91776 0.19343 0.93529
 N1217 N 0.89962 0.18182 0.92348
 N1218 N 0.88125 0.17207 0.93520
 C1219 C 0.85970 0.16281 0.97210
 N1220 N 0.84024 0.15445 0.95986
 N1221 N 0.82152 0.14501 0.97134
 C1222 C 0.82156 0.14343 0.99552
 N1223 N 0.84110 0.15176 1.00773
 N1224 N 0.85978 0.16133 0.99626
 C1225 C 0.38902 0.68255 0.45494
 N1226 N 0.40893 0.69055 0.46672
 N1227 N 0.42736 0.70004 0.45480
 C1228 C 0.42665 0.70175 0.43063
 N1229 N 0.40670 0.69368 0.41894
 N1230 N 0.38825 0.68431 0.43084
 C1231 C 0.36863 0.67210 0.46795
 N1232 N 0.34793 0.66630 0.45633
 N1233 N 0.32946 0.65664 0.46804
 C1234 C 0.33101 0.65230 0.49181
 N1235 N 0.35177 0.65816 0.50339
 N1236 N 0.37020 0.66792 0.49171
 C1237 C 0.62353 0.82463 0.44890
 N1238 N 0.60047 0.82750 0.45603
 N1239 N 0.58242 0.81722 0.44395
 C1240 C 0.58673 0.80360 0.42431
 N1241 N 0.60983 0.80087 0.41716
 N1242 N 0.62788 0.81119 0.42919
 C1243 C 0.64345 0.83523 0.46277
 N1244 N 0.66653 0.83305 0.45539
 N1245 N 0.68458 0.84201 0.46848
 C1246 C 0.68026 0.85340 0.48949
 N1247 N 0.65713 0.85564 0.49671
 N1248 N 0.63909 0.84676 0.48362
 C1249 C 0.11349 0.32061 -0.04822
 N1250 N 0.09050 0.32380 -0.04099
 N1251 N 0.07239 0.31230 -0.05187
 C1252 C 0.07657 0.29710 -0.07037
 N1253 N 0.09961 0.29400 -0.07756
 N1254 N 0.11770 0.30553 -0.06673
 C1255 C 0.13352 0.33297 -0.03600
 N1256 N 0.15643 0.33040 -0.04373
 N1257 N 0.17462 0.34130 -0.03238
 C1258 C 0.17063 0.35515 -0.01281
 N1259 N 0.14766 0.35771 -0.00519
 N1260 N 0.12948 0.34687 -0.01655
 C1261 C 0.37804 0.32475 0.04560
 N1262 N 0.37406 0.31086 0.06497
 N1263 N 0.39216 0.29982 0.07562
 C1264 C 0.41499 0.30221 0.06739
 N1265 N 0.41895 0.31623 0.04805
 N1266 N 0.40082 0.32725 0.03734
 C1267 C 0.35792 0.33640 0.03348
 N1268 N 0.36161 0.34873 0.01304
 N1269 N 0.34330 0.35870 0.00167
 C1270 C 0.32057 0.35681 0.01026
 N1271 N 0.31695 0.34459 0.03085
 N1272 N 0.33526 0.33455 0.04221
 C1273 C 0.88685 0.82129 0.55397
 N1274 N 0.88226 0.80539 0.57159
 N1275 N 0.90011 0.79404 0.58232
 C1276 C 0.92331 0.79813 0.57593
 N1277 N 0.92789 0.81415 0.55833
 N1278 N 0.91001 0.82548 0.54753
 C1279 C 0.86702 0.83338 0.54185
 N1280 N 0.87134 0.84815 0.52321
 N1281 N 0.85327 0.85867 0.51194
 C1282 C 0.83017 0.85491 0.51886
 N1283 N 0.82592 0.84019 0.53762
 N1284 N 0.84398 0.82962 0.54887
   
