data_POSCAR
  _audit_creation_date              2014-09-24
  _audit_creation_method            'ToBaCCo'
  _symmetry_space_group_name_H-M    'P1'
  _symmetry_Int_Tables_number       1
  _symmetry_cell_setting            triclinic
  loop_
  _symmetry_equiv_pos_as_xyz
 x,y,z
_cell_length_a 59.3629
_cell_length_b 59.3549
_cell_length_c 59.4421
_cell_angle_alpha 90.011800
_cell_angle_beta 90.009500
_cell_angle_gamma 90.014300
loop_
  _atom_site_label
  _atom_site_type_symbol
  _atom_site_fract_x
  _atom_site_fract_y
  _atom_site_fract_z
C1 C 0.36290 0.33481 0.33523
 N2 N 0.35343 0.32558 0.35388
 C3 C 0.33478 0.33485 0.36336
 N4 N 0.32556 0.35354 0.35392
 C5 C 0.33480 0.36301 0.33526
 N6 N 0.35345 0.35351 0.32601
 C7 C 0.36310 0.83472 -0.16567
 N8 N 0.35350 0.85336 -0.17490
 C9 C 0.33479 0.86285 -0.16569
 N10 N 0.32570 0.85340 -0.14693
 C11 C 0.33503 0.83480 -0.13743
 N12 N 0.35370 0.82558 -0.14691
 C13 C 0.86262 0.33516 -0.16549
 N14 N 0.85319 0.32597 -0.14680
 C15 C 0.83453 0.33524 -0.13734
 N16 N 0.82527 0.35388 -0.14684
 C17 C 0.83443 0.36334 -0.16557
 N18 N 0.85313 0.35381 -0.17476
 C19 C 0.86330 0.83441 0.33468
 N20 N 0.85378 0.85310 0.32548
 C21 C 0.83515 0.86262 0.33475
 N22 N 0.82598 0.85323 0.35346
 C23 C 0.83524 0.83458 0.36294
 N24 N 0.85386 0.82528 0.35343
 C25 C 0.63715 0.66523 0.33503
 N26 N 0.64662 0.67442 0.35372
 C27 C 0.66526 0.66512 0.36319
 N28 N 0.67449 0.64645 0.35369
 C29 C 0.66525 0.63704 0.33500
 N30 N 0.64661 0.64656 0.32577
 C31 C 0.63695 0.16538 -0.16593
 N32 N 0.64637 0.17454 -0.14718
 C33 C 0.66503 0.16533 -0.13769
 N34 N 0.67436 0.14672 -0.14718
 C35 C 0.66526 0.13725 -0.16593
 N36 N 0.64655 0.14673 -0.17514
 C37 C 0.13750 0.66481 -0.16527
 N38 N 0.14696 0.67402 -0.14660
 C39 C 0.16562 0.66477 -0.13715
 N40 N 0.17488 0.64612 -0.14665
 C41 C 0.16569 0.63664 -0.16537
 N42 N 0.14698 0.64616 -0.17454
 C43 C 0.13702 0.16538 0.33418
 N44 N 0.14659 0.14672 0.32495
 C45 C 0.16525 0.13717 0.33420
 N46 N 0.17433 0.14658 0.35298
 C47 C 0.16503 0.16520 0.36248
 N48 N 0.14642 0.17449 0.35296
 C49 C 0.63701 0.33472 0.66484
 N50 N 0.64648 0.35339 0.67409
 C51 C 0.66515 0.36289 0.66486
 N52 N 0.67438 0.35345 0.64620
 C53 C 0.66514 0.33478 0.63671
 N54 N 0.64647 0.32551 0.64617
 C55 C 0.63698 0.83478 1.16569
 N56 N 0.64655 0.85346 1.17489
 C57 C 0.66524 0.86297 1.16566
 N58 N 0.67436 0.85350 1.14693
 C59 C 0.66506 0.83486 1.13745
 N60 N 0.64641 0.82561 1.14695
 C61 C 0.13684 0.33438 1.16542
 N62 N 0.14632 0.32524 1.14670
 C63 C 0.16493 0.33455 1.13719
 N64 N 0.17415 0.35325 1.14663
 C65 C 0.16493 0.36267 1.16532
 N66 N 0.14632 0.35312 1.17459
 C67 C 0.13702 0.83457 0.66578
 N68 N 0.14659 0.85322 0.67502
 C69 C 0.16527 0.86276 0.66581
 N70 N 0.17437 0.85334 0.64704
 C71 C 0.16506 0.83473 0.63752
 N72 N 0.14643 0.82545 0.64701
 C73 C 0.36294 0.66520 0.66512
 N74 N 0.35347 0.64653 0.67436
 C75 C 0.33481 0.63703 0.66512
 N76 N 0.32557 0.64647 0.64645
 C77 C 0.33481 0.66515 0.63698
 N78 N 0.35348 0.67442 0.64646
 C79 C 0.36287 0.16536 1.16577
 N80 N 0.35329 0.14671 1.17500
 C81 C 0.33461 0.13717 1.16579
 N82 N 0.32549 0.14659 1.14704
 C83 C 0.33480 0.16521 1.13752
 N84 N 0.35344 0.17448 1.14701
 C85 C 0.86262 0.66482 1.16533
 N86 N 0.85317 0.67404 1.14667
 C87 C 0.83449 0.66479 1.13722
 N88 N 0.82522 0.64614 1.14671
 C89 C 0.83440 0.63666 1.16542
 N90 N 0.85312 0.64618 1.17459
 C91 C 0.86289 0.16531 0.66549
 N92 N 0.85331 0.14667 0.67473
 C93 C 0.83462 0.13714 0.66552
 N94 N 0.82551 0.14656 0.64676
 C95 C 0.83483 0.16516 0.63724
 N96 N 0.85348 0.17443 0.64672
 C97 C 0.33461 0.36262 0.66549
 N98 N 0.35328 0.35315 0.67472
 C99 C 0.36275 0.33447 0.66548
 N100 N 0.35327 0.32523 0.64683
 C101 C 0.33460 0.33447 0.63737
 N102 N 0.32536 0.35315 0.64683
 C103 C 0.33504 0.86377 0.16497
 N104 N 0.35375 0.85433 0.17418
 C105 C 0.36324 0.83567 0.16493
 N106 N 0.35377 0.82641 0.14628
 C107 C 0.33506 0.83562 0.13684
 N108 N 0.32579 0.85428 0.14632
 C109 C 0.83531 0.36290 0.16482
 N110 N 0.85396 0.35340 0.17406
 C111 C 0.86340 0.33469 0.16484
 N112 N 0.85390 0.32544 0.14619
 C113 C 0.83524 0.33472 0.13673
 N114 N 0.82604 0.35342 0.14618
 C115 C 0.83520 0.86367 0.66526
 N116 N 0.85389 0.85422 0.67449
 C117 C 0.86337 0.83555 0.66526
 N118 N 0.85390 0.82628 0.64661
 C119 C 0.83521 0.83550 0.63716
 N120 N 0.82595 0.85417 0.64661
 C121 C 0.66516 0.63724 0.66552
 N122 N 0.64651 0.64674 0.67478
 C123 C 0.63705 0.66542 0.66555
 N124 N 0.64651 0.67464 0.64689
 C125 C 0.66516 0.66537 0.63740
 N126 N 0.67439 0.64669 0.64686
 C127 C 0.66474 0.13649 0.16455
 N128 N 0.67400 0.14598 0.14592
 C129 C 0.66475 0.16466 0.13646
 N130 N 0.64605 0.17388 0.14590
 C131 C 0.63657 0.16461 0.16453
 N132 N 0.64604 0.14594 0.17376
 C133 C 0.16495 0.63717 0.16500
 N134 N 0.17421 0.64664 0.14635
 C135 C 0.16500 0.66533 0.13691
 N136 N 0.14633 0.67460 0.14637
 C137 C 0.13685 0.66536 0.16501
 N138 N 0.14629 0.64666 0.17423
 C139 C 0.16476 0.13609 0.66509
 N140 N 0.14606 0.14554 0.67430
 C141 C 0.13656 0.16418 0.66504
 N142 N 0.14603 0.17342 0.64639
 C143 C 0.16472 0.16420 0.63695
 N144 N 0.17400 0.14555 0.64644
 C145 C 0.33495 0.63743 0.33477
 N146 N 0.35361 0.64693 0.32552
 C147 C 0.36307 0.66562 0.33475
 N148 N 0.35362 0.67485 0.35341
 C149 C 0.33496 0.66558 0.36289
 N150 N 0.32573 0.64689 0.35343
 C151 C 0.33500 0.13624 0.83515
 N152 N 0.32574 0.14573 0.85379
 C153 C 0.33499 0.16440 0.86326
 N154 N 0.35369 0.17364 0.85382
 C155 C 0.36317 0.16438 0.83518
 N156 N 0.35369 0.14570 0.82594
 C157 C 0.83519 0.63711 0.83511
 N158 N 0.85385 0.64661 0.82586
 C159 C 0.86329 0.66532 0.83506
 N160 N 0.85381 0.67458 0.85370
 C161 C 0.83516 0.66531 0.86318
 N162 N 0.82594 0.64660 0.85375
 C163 C 0.83516 0.13662 0.33457
 N164 N 0.85386 0.14607 0.32536
 C165 C 0.86338 0.16471 0.33464
 N166 N 0.85393 0.17394 0.35331
 C167 C 0.83523 0.16472 0.36275
 N168 N 0.82594 0.14608 0.35325
 C169 C 0.66526 0.36271 0.33446
 N170 N 0.67449 0.35325 0.35312
 C171 C 0.66524 0.33458 0.36258
 N172 N 0.64657 0.32532 0.35312
 C173 C 0.63710 0.33456 0.33445
 N174 N 0.64658 0.35323 0.32522
 C175 C 0.66512 0.86381 0.83520
 N176 N 0.67439 0.85433 0.85383
 C177 C 0.66513 0.83566 0.86330
 N178 N 0.64642 0.82644 0.85387
 C179 C 0.63693 0.83570 0.83524
 N180 N 0.64641 0.85436 0.82600
 C181 C 0.16473 0.36273 0.83505
 N182 N 0.17396 0.35324 0.85369
 C183 C 0.16475 0.33451 0.86308
 N184 N 0.14611 0.32524 0.85357
 C185 C 0.13664 0.33451 0.83492
 N186 N 0.14609 0.35324 0.82576
 C187 C 0.16491 0.86368 0.33499
 N188 N 0.14623 0.85419 0.32577
 C189 C 0.13676 0.83552 0.33502
 N190 N 0.14624 0.82630 0.35368
 C191 C 0.16492 0.83555 0.36313
 N192 N 0.17416 0.85422 0.35365
 O193 O 0.24756 1.02282 0.27861
 O194 O 0.27858 0.97887 0.24771
 O195 O 0.27861 1.02282 0.24776
 O196 O 0.24759 0.97887 0.27863
 O197 O 0.22128 0.97886 0.25229
 O198 O 0.25231 1.02282 0.22141
 O199 O 0.25227 0.97887 0.22136
 O200 O 0.22125 1.02281 0.25226
 Cu201 Cu 0.26574 1.00085 0.26584
 Cu202 Cu 0.23412 1.00084 0.23417
 C203 C 0.22921 1.03030 0.27059
 C204 C 0.27061 0.97139 0.22937
 C205 C 0.27065 1.03031 0.22942
 C206 C 0.22926 0.97138 0.27063
 O207 O 0.25206 0.52194 0.72164
 O208 O 0.22106 0.47808 0.75266
 O209 O 0.22115 0.52203 0.75264
 O210 O 0.25202 0.47799 0.72171
 O211 O 0.27839 0.47800 0.74799
 O212 O 0.24753 0.52203 0.77891
 O213 O 0.24744 0.47807 0.77894
 O214 O 0.27844 0.52194 0.74792
 Cu215 Cu 0.23391 0.50001 0.73451
 Cu216 Cu 0.26561 0.50001 0.76609
 C217 C 0.27044 0.52941 0.72959
 C218 C 0.22907 0.47060 0.77098
 C219 C 0.22919 0.52953 0.77094
 C220 C 0.27037 0.47050 0.72968
 O221 O 0.75225 -0.02239 0.27831
 O222 O 0.72122 0.02148 0.24732
 O223 O 0.72121 -0.02247 0.24743
 O224 O 0.75224 0.02155 0.27823
 O225 O 0.77854 0.02150 0.25188
 O226 O 0.74751 -0.02253 0.22109
 O227 O 0.74753 0.02142 0.22097
 O228 O 0.77855 -0.02244 0.25196
 Cu229 Cu 0.73407 -0.00045 0.26548
 Cu230 Cu 0.76568 -0.00052 0.23381
 C231 C 0.77059 -0.02988 0.27031
 C232 C 0.72919 0.02892 0.22897
 C233 C 0.72917 -0.03000 0.22911
 C234 C 0.77058 0.02902 0.27021
 O235 O 0.75246 0.47785 0.77877
 O236 O 0.72151 0.52187 0.74792
 O237 O 0.72152 0.47792 0.74779
 O238 O 0.75250 0.52180 0.77884
 O239 O 0.77886 0.52184 0.75254
 O240 O 0.74787 0.47797 0.72150
 O241 O 0.74786 0.52192 0.72162
 O242 O 0.77881 0.47789 0.75247
 Cu243 Cu 0.73434 0.49985 0.76598
 Cu244 Cu 0.76601 0.49991 0.73438
 C245 C 0.77080 0.47037 0.77078
 C246 C 0.72951 0.52939 0.72962
 C247 C 0.72951 0.47048 0.72945
 C248 C 0.77086 0.52930 0.77088
 O249 O 0.24756 0.47801 0.22152
 O250 O 0.27856 0.52203 0.25235
 O251 O 0.27851 0.47808 0.25248
 O252 O 0.24758 0.52196 0.22141
 O253 O 0.22123 0.52204 0.24771
 O254 O 0.25216 0.47817 0.27877
 O255 O 0.25221 0.52212 0.27865
 O256 O 0.22121 0.47809 0.24781
 Cu257 Cu 0.26571 0.50001 0.23429
 Cu258 Cu 0.23404 0.50011 0.26589
 C259 C 0.22920 0.47055 0.22951
 C260 C 0.27057 0.52957 0.27065
 C261 C 0.27051 0.47065 0.27082
 C262 C 0.22923 0.52947 0.22937
 O263 O 0.72145 0.97889 0.75237
 O264 O 0.75238 1.02281 0.72135
 O265 O 0.75242 0.97886 0.72143
 O266 O 0.72136 1.02284 0.75224
 O267 O 0.74769 1.02295 0.77857
 O268 O 0.77875 0.97897 0.74776
 O269 O 0.77870 1.02292 0.74768
 O270 O 0.74778 0.97900 0.77870
 Cu271 Cu 0.73424 1.00084 0.73419
 Cu272 Cu 0.76589 1.00097 0.76583
 C273 C 0.72944 0.97146 0.77072
 C274 C 0.77071 1.03035 0.72933
 C275 C 0.77077 0.97143 0.72944
 C276 C 0.72933 1.03038 0.77055
 O277 O 0.75249 0.52207 0.22111
 O278 O 0.72161 0.47804 0.25200
 O279 O 0.72157 0.52198 0.25210
 O280 O 0.75260 0.47812 0.22109
 O281 O 0.77896 0.47814 0.24739
 O282 O 0.74794 0.52199 0.27839
 O283 O 0.74796 0.47805 0.27830
 O284 O 0.77886 0.52209 0.24740
 Cu285 Cu 0.73441 0.50005 0.23392
 Cu286 Cu 0.76609 0.50007 0.26552
 C287 C 0.77083 0.52958 0.22909
 C288 C 0.72962 0.47054 0.27031
 C289 C 0.72957 0.52946 0.27043
 C290 C 0.77096 0.47066 0.22906
 O291 O 0.24758 -0.02290 0.72151
 O292 O 0.27859 0.02107 0.75242
 O293 O 0.27864 -0.02288 0.75237
 O294 O 0.24759 0.02105 0.72150
 O295 O 0.22129 0.02102 0.74785
 O296 O 0.25234 -0.02291 0.77872
 O297 O 0.25229 0.02103 0.77877
 O298 O 0.22128 -0.02292 0.74786
 Cu299 Cu 0.26575 -0.00091 0.73429
 Cu300 Cu 0.23415 -0.00095 0.76596
 C301 C 0.22925 -0.03040 0.72952
 C302 C 0.27062 0.02854 0.77077
 C303 C 0.27068 -0.03038 0.77070
 C304 C 0.22925 0.02852 0.72951
 O305 O 0.24752 0.27824 0.97810
 O306 O 0.27859 0.24744 1.02203
 O307 O 0.27854 0.24731 0.97814
 O308 O 0.24755 0.27834 1.02198
 O309 O 0.22125 0.25194 1.02205
 O310 O 0.25224 0.22092 0.97822
 O311 O 0.25229 0.22104 1.02210
 O312 O 0.22122 0.25185 0.97817
 Cu313 Cu 0.26570 0.26550 1.00005
 Cu314 Cu 0.23410 0.23377 1.00014
 C315 C 0.22918 0.27020 0.97065
 C316 C 0.27063 0.22909 1.02955
 C317 C 0.27058 0.22893 0.97072
 C318 C 0.22922 0.27032 1.02949
 O319 O 0.24758 0.77906 0.47819
 O320 O 0.27850 0.74794 0.52201
 O321 O 0.27856 0.74809 0.47812
 O322 O 0.24751 0.77889 0.52208
 O323 O 0.22118 0.75253 0.52194
 O324 O 0.25222 0.72172 0.47799
 O325 O 0.25217 0.72158 0.52187
 O326 O 0.22124 0.75270 0.47806
 Cu327 Cu 0.26569 0.76615 0.50011
 Cu328 Cu 0.23404 0.73447 0.49995
 C329 C 0.22924 0.77108 0.47066
 C330 C 0.27050 0.72956 0.52940
 C331 C 0.27058 0.72975 0.47057
 C332 C 0.22916 0.77086 0.52950
 O333 O 0.25250 0.77887 0.02176
 O334 O 0.22171 0.74764 -0.02210
 O335 O 0.22156 0.74784 0.02178
 O336 O 0.25261 0.77869 -0.02212
 O337 O 0.27900 0.75240 -0.02194
 O338 O 0.24794 0.72155 0.02197
 O339 O 0.24810 0.72134 -0.02191
 O340 O 0.27888 0.75258 0.02194
 Cu341 Cu 0.23443 0.76592 -0.00019
 Cu342 Cu 0.26615 0.73431 0.00004
 C343 C 0.27084 0.77094 0.02932
 C344 C 0.22976 0.72927 -0.02948
 C345 C 0.22956 0.72954 0.02935
 C346 C 0.27099 0.77070 -0.02952
 O347 O 0.27834 0.25200 0.47823
 O348 O 0.24737 0.22085 0.52198
 O349 O 0.24735 0.22103 0.47809
 O350 O 0.27831 0.25188 0.52211
 O351 O 0.25195 0.27820 0.52219
 O352 O 0.22100 0.24736 0.47818
 O353 O 0.22101 0.24717 0.52207
 O354 O 0.25198 0.27833 0.47831
 Cu355 Cu 0.26550 0.23378 0.50010
 Cu356 Cu 0.23383 0.26542 0.50020
 C357 C 0.27034 0.27037 0.47081
 C358 C 0.22902 0.22880 0.52948
 C359 C 0.22900 0.22904 0.47064
 C360 C 0.27030 0.27020 0.52964
 O361 O 0.77847 0.74767 1.02220
 O362 O 0.74772 0.77891 0.97834
 O363 O 0.74758 0.77872 1.02222
 O364 O 0.77864 0.74787 0.97831
 O365 O 0.75224 0.72158 0.97810
 O366 O 0.72117 0.75243 1.02202
 O367 O 0.72132 0.75261 0.97813
 O368 O 0.75207 0.72138 1.02199
 Cu369 Cu 0.76576 0.76595 1.00029
 Cu370 Cu 0.73404 0.73434 1.00004
 C371 C 0.77041 0.72930 1.02956
 C372 C 0.72937 0.77098 0.97077
 C373 C 0.72919 0.77073 1.02960
 C374 C 0.77063 0.72957 0.97073
 O375 O 0.74789 0.27838 0.47776
 O376 O 0.77885 0.24749 0.52172
 O377 O 0.77889 0.24743 0.47783
 O378 O 0.74787 0.27845 0.52165
 O379 O 0.72154 0.25208 0.52166
 O380 O 0.75256 0.22106 0.47783
 O381 O 0.75252 0.22112 0.52172
 O382 O 0.72156 0.25201 0.47777
 Cu383 Cu 0.76603 0.26560 0.49974
 Cu384 Cu 0.73439 0.23391 0.49975
 C385 C 0.72955 0.27036 0.47028
 C386 C 0.77086 0.22914 0.52921
 C387 C 0.77091 0.22906 0.47036
 C388 C 0.72952 0.27045 0.52912
 O389 O 0.77840 0.25245 -0.02229
 O390 O 0.74751 0.22130 0.02154
 O391 O 0.74745 0.22145 -0.02235
 O392 O 0.77853 0.25225 0.02159
 O393 O 0.75220 0.27860 0.02176
 O394 O 0.72111 0.24779 -0.02220
 O395 O 0.72118 0.24765 0.02169
 O396 O 0.75207 0.27880 -0.02213
 Cu397 Cu 0.76563 0.23420 -0.00039
 Cu398 Cu 0.73398 0.26587 -0.00020
 C399 C 0.77040 0.27083 -0.02967
 C400 C 0.72917 0.22927 0.02907
 C401 C 0.72909 0.22947 -0.02976
 C402 C 0.77057 0.27057 0.02916
 O403 O 0.77896 0.75231 0.47838
 O404 O 0.74789 0.72150 0.52230
 O405 O 0.74794 0.72138 0.47841
 O406 O 0.77888 0.75248 0.52226
 O407 O 0.75257 0.77884 0.52214
 O408 O 0.72162 0.74775 0.47830
 O409 O 0.72157 0.74787 0.52218
 O410 O 0.75265 0.77868 0.47825
 Cu411 Cu 0.76607 0.73426 0.50035
 Cu412 Cu 0.73445 0.76595 0.50021
 C413 C 0.77100 0.77065 0.47083
 C414 C 0.72954 0.72954 0.52972
 C415 C 0.72961 0.72937 0.47089
 C416 C 0.77090 0.77086 0.52967
 O417 O 1.02261 0.22108 0.25210
 O418 O 0.97863 0.25199 0.22115
 O419 O 1.02258 0.25205 0.22116
 O420 O 0.97866 0.22103 0.25211
 O421 O 0.97864 0.24740 0.27840
 O422 O 1.02255 0.27841 0.24746
 O423 O 0.97861 0.27835 0.24745
 O424 O 1.02259 0.24744 0.27840
 Cu425 Cu 1.00062 0.23388 0.23398
 Cu426 Cu 1.00060 0.26556 0.26559
 C427 C 1.03009 0.22909 0.27043
 C428 C 0.97113 0.27034 0.22913
 C429 C 1.03005 0.27041 0.22914
 C430 C 0.97117 0.22903 0.27043
 O431 O 0.52211 0.27816 0.74767
 O432 O 0.47831 0.24713 0.77876
 O433 O 0.52225 0.24718 0.77860
 O434 O 0.47817 0.27812 0.74785
 O435 O 0.47808 0.25178 0.72153
 O436 O 0.52217 0.22083 0.75229
 O437 O 0.47823 0.22079 0.75245
 O438 O 0.52202 0.25181 0.72136
 Cu439 Cu 0.50022 0.26530 0.76588
 Cu440 Cu 0.50012 0.23364 0.73425
 C441 C 0.52952 0.27017 0.72932
 C442 C 0.47081 0.22877 0.77080
 C443 C 0.52972 0.22884 0.77058
 C444 C 0.47062 0.27013 0.72954
 O445 O -0.02235 0.27832 0.75196
 O446 O 0.02149 0.24710 0.72115
 O447 O -0.02245 0.24726 0.72110
 O448 O 0.02158 0.27814 0.75203
 O449 O 0.02145 0.25185 0.77839
 O450 O -0.02258 0.22097 0.74746
 O451 O 0.02136 0.22081 0.74751
 O452 O -0.02249 0.25203 0.77832
 Cu453 Cu -0.00042 0.26536 0.73390
 Cu454 Cu -0.00058 0.23376 0.76558
 C455 C -0.02989 0.27040 0.77029
 C456 C 0.02890 0.22874 0.72918
 C457 C -0.03002 0.22895 0.72911
 C458 C 0.02901 0.27016 0.77039
 O459 O 0.47770 0.27829 0.25224
 O460 O 0.52147 0.24731 0.22108
 O461 O 0.47752 0.24735 0.22126
 O462 O 0.52164 0.27826 0.25205
 O463 O 0.52173 0.25189 0.27832
 O464 O 0.47761 0.22097 0.24754
 O465 O 0.52155 0.22093 0.24735
 O466 O 0.47779 0.25192 0.27852
 Cu467 Cu 0.49957 0.26546 0.23400
 Cu468 Cu 0.49968 0.23377 0.26558
 C469 C 0.47029 0.27029 0.27059
 C470 C 0.52897 0.22894 0.22901
 C471 C 0.47005 0.22900 0.22925
 C472 C 0.52919 0.27024 0.27033
 O473 O 1.02254 0.77888 0.74775
 O474 O 0.97854 0.74799 0.77868
 O475 O 1.02247 0.74784 0.77861
 O476 O 0.97860 0.77902 0.74779
 O477 O 0.97848 0.75271 0.72144
 O478 O 1.02235 0.72154 0.75225
 O479 O 0.97841 0.72169 0.75232
 O480 O 1.02242 0.75258 0.72139
 Cu481 Cu 1.00055 0.76609 0.76587
 Cu482 Cu 1.00040 0.73448 0.73419
 C483 C 1.02998 0.77089 0.72940
 C484 C 0.97098 0.72967 0.77067
 C485 C 1.02988 0.72947 0.77059
 C486 C 0.97106 0.77108 0.72946
 O487 O 0.52225 0.72193 0.25226
 O488 O 0.47842 0.75298 0.22126
 O489 O 0.52237 0.75290 0.22132
 O490 O 0.47832 0.72200 0.25219
 O491 O 0.47833 0.74835 0.27849
 O492 O 0.52238 0.77925 0.24763
 O493 O 0.47843 0.77933 0.24756
 O494 O 0.52227 0.74828 0.27857
 Cu495 Cu 0.50034 0.73479 0.23410
 Cu496 Cu 0.50035 0.76646 0.26572
 C497 C 0.52972 0.72991 0.27061
 C498 C 0.47096 0.77134 0.22923
 C499 C 0.52988 0.77124 0.22932
 C500 C 0.47082 0.73001 0.27050
 O501 O -0.02237 0.77875 0.25254
 O502 O 0.02161 0.74796 0.22150
 O503 O -0.02233 0.74779 0.22159
 O504 O 0.02157 0.77891 0.25247
 O505 O 0.02171 0.75255 0.27876
 O506 O -0.02219 0.72143 0.24788
 O507 O 0.02175 0.72160 0.24779
 O508 O -0.02224 0.75239 0.27883
 Cu509 Cu -0.00039 0.76601 0.23438
 Cu510 Cu -0.00023 0.73433 0.26597
 C511 C -0.02980 0.77072 0.27088
 C512 C 0.02917 0.72963 0.22945
 C513 C -0.02973 0.72940 0.22957
 C514 C 0.02911 0.77093 0.27078
 O515 O 0.52171 0.75294 0.77896
 O516 O 0.47788 0.72186 0.74794
 O517 O 0.52182 0.72191 0.74806
 O518 O 0.47777 0.75288 0.77885
 O519 O 0.47780 0.77919 0.75251
 O520 O 0.52185 0.74822 0.72173
 O521 O 0.47791 0.74817 0.72161
 O522 O 0.52175 0.77925 0.75262
 Cu523 Cu 0.49979 0.73474 0.76611
 Cu524 Cu 0.49983 0.76636 0.73446
 C525 C 0.52920 0.77129 0.77097
 C526 C 0.47043 0.72982 0.72959
 C527 C 0.52933 0.72989 0.72974
 C528 C 0.47028 0.77121 0.77083
 C529 C 0.41969 0.30306 0.30348
 C530 C 0.41058 0.29394 0.32318
 C531 C 0.39231 0.30442 0.33370
 C532 C 0.38285 0.32418 0.32460
 C533 C 0.39235 0.33336 0.30493
 C534 C 0.41063 0.32284 0.29445
 C535 C 0.43787 0.29173 0.29214
 C536 C 0.45283 0.28205 0.28242
 H537 H 0.41745 0.27860 0.33029
 H538 H 0.38546 0.29689 0.34882
 H539 H 0.38554 0.34853 0.29745
 H540 H 0.41753 0.33001 0.27917
 C541 C 0.41931 0.80380 0.80333
 C542 C 0.41007 0.82342 0.79417
 C543 C 0.39167 0.83383 0.80453
 C544 C 0.38213 0.82472 0.82429
 C545 C 0.39187 0.80508 0.83351
 C546 C 0.41027 0.79474 0.82307
 C547 C 0.43762 0.79257 0.79211
 C548 C 0.45269 0.78294 0.78250
 H549 H 0.41693 0.83056 0.77886
 H550 H 0.38484 0.84890 0.79684
 H551 H 0.38521 0.79747 0.84867
 H552 H 0.41729 0.77952 0.83030
 C553 C -0.08055 0.30336 0.80290
 C554 C -0.08969 0.32305 0.79373
 C555 C -0.10798 0.33359 0.80416
 C556 C -0.11741 0.32452 0.82392
 C557 C -0.10789 0.30486 0.83315
 C558 C -0.08960 0.29436 0.82268
 C559 C -0.06235 0.29199 0.79163
 C560 C -0.04737 0.28225 0.78199
 H561 H -0.08283 0.33013 0.77839
 H562 H -0.11485 0.34869 0.79659
 H563 H -0.11469 0.29741 0.84833
 H564 H -0.08267 0.27910 0.82989
 C565 C -0.08064 0.80330 0.30358
 C566 C -0.08971 0.79423 0.32331
 C567 C -0.10806 0.80463 0.33378
 C568 C -0.11772 0.82433 0.32461
 C569 C -0.10815 0.83345 0.30486
 C570 C -0.08981 0.82298 0.29447
 C571 C -0.06238 0.79204 0.29232
 C572 C -0.04735 0.78241 0.28265
 H573 H -0.08275 0.77897 0.33050
 H574 H -0.11475 0.79702 0.34893
 H575 H -0.11492 0.84856 0.29721
 H576 H -0.08292 0.83012 0.27917
 C577 C 0.58036 0.69707 0.30336
 C578 C 0.58944 0.67732 0.29426
 C579 C 0.60772 0.66678 0.30471
 C580 C 0.61721 0.67589 0.32443
 C581 C 0.60774 0.69562 0.33359
 C582 C 0.58946 0.70612 0.32310
 C583 C 0.56217 0.70842 0.29206
 C584 C 0.54721 0.71813 0.28238
 H585 H 0.58255 0.67019 0.27895
 H586 H 0.61454 0.65163 0.29719
 H587 H 0.61458 0.70310 0.34874
 H588 H 0.58259 0.72143 0.33027
 C589 C 0.58072 0.19627 0.80307
 C590 C 0.58996 0.17665 0.79391
 C591 C 0.60837 0.16624 0.80428
 C592 C 0.61792 0.17537 0.82403
 C593 C 0.60818 0.19502 0.83324
 C594 C 0.58978 0.20535 0.82281
 C595 C 0.56240 0.20749 0.79185
 C596 C 0.54733 0.21711 0.78225
 H597 H 0.58309 0.16949 0.77861
 H598 H 0.61519 0.15117 0.79660
 H599 H 0.61485 0.20264 0.84840
 H600 H 0.58276 0.22057 0.83002
 C601 C 1.08060 0.69657 0.80316
 C602 C 1.08973 0.67687 0.79401
 C603 C 1.10804 0.66635 0.80442
 C604 C 1.11751 0.67544 0.82416
 C605 C 1.10799 0.69511 0.83338
 C606 C 1.08968 0.70559 0.82293
 C607 C 1.06238 0.70791 0.79191
 C608 C 1.04739 0.71764 0.78228
 H609 H 1.08285 0.66977 0.77868
 H610 H 1.11491 0.65124 0.79685
 H611 H 1.11481 0.70257 0.84855
 H612 H 1.08276 0.72086 0.83014
 C613 C 1.08095 0.19646 0.30307
 C614 C 1.09017 0.17682 0.29391
 C615 C 1.10852 0.16636 0.30431
 C616 C 1.11804 0.17544 0.32410
 C617 C 1.10833 0.19510 0.33330
 C618 C 1.08998 0.20550 0.32284
 C619 C 1.06268 0.20773 0.29181
 C620 C 1.04765 0.21737 0.28216
 H621 H 1.08331 0.16970 0.27859
 H622 H 1.11532 0.15127 0.29663
 H623 H 1.11499 0.20269 0.34848
 H624 H 1.08298 0.22073 0.33005
 C625 C 0.58017 0.30296 0.69651
 C626 C 0.58926 0.32273 0.70558
 C627 C 0.60755 0.33324 0.69513
 C628 C 0.61704 0.32409 0.67544
 C629 C 0.60756 0.30435 0.66629
 C630 C 0.58927 0.29388 0.67679
 C631 C 0.56197 0.29164 0.70782
 C632 C 0.54700 0.28194 0.71752
 H633 H 0.58236 0.32988 0.72087
 H634 H 0.61438 0.34840 0.70264
 H635 H 0.61440 0.29684 0.65117
 H636 H 0.58238 0.27856 0.66965
 C637 C 0.58082 0.80381 0.19674
 C638 C 0.58988 0.79471 0.17702
 C639 C 0.60826 0.80507 0.16657
 C640 C 0.61797 0.82475 0.17574
 C641 C 0.60841 0.83390 0.19548
 C642 C 0.59003 0.82347 0.20587
 C643 C 0.56252 0.79258 0.20799
 C644 C 0.54746 0.78295 0.21762
 H645 H 0.58288 0.77947 0.16983
 H646 H 0.61495 0.79744 0.15142
 H647 H 0.61521 0.84900 0.20314
 H648 H 0.58315 0.83063 0.22116
 C649 C 1.08083 0.30317 0.19650
 C650 C 1.08994 0.32289 0.20560
 C651 C 1.10826 0.33340 0.19521
 C652 C 1.11787 0.32428 0.17548
 C653 C 1.10826 0.30453 0.16633
 C654 C 1.08994 0.29410 0.17680
 C655 C 1.06258 0.29186 0.20776
 C656 C 1.04757 0.28218 0.21741
 H657 H 1.08301 0.33004 0.22089
 H658 H 1.11499 0.34854 0.20285
 H659 H 1.11499 0.29692 0.15120
 H660 H 1.08302 0.27880 0.16962
 C661 C 1.08089 0.80350 0.69680
 C662 C 1.09010 0.82315 0.70597
 C663 C 1.10847 0.83360 0.69560
 C664 C 1.11801 0.82451 0.67582
 C665 C 1.10830 0.80485 0.66661
 C666 C 1.08993 0.79446 0.67705
 C667 C 1.06260 0.79225 0.70804
 C668 C 1.04755 0.78261 0.71768
 H669 H 1.08323 0.83027 0.72129
 H670 H 1.11528 0.84868 0.70329
 H671 H 1.11497 0.79726 0.65144
 H672 H 1.08293 0.77923 0.66983
 C673 C 0.41977 0.69698 0.69682
 C674 C 0.41068 0.70605 0.67709
 C675 C 0.39239 0.69557 0.66659
 C676 C 0.38290 0.67585 0.67574
 C677 C 0.39238 0.66671 0.69544
 C678 C 0.41067 0.67723 0.70590
 C679 C 0.43797 0.70832 0.70813
 C680 C 0.45294 0.71803 0.71782
 H681 H 0.41757 0.72137 0.66994
 H682 H 0.38555 0.70307 0.65145
 H683 H 0.38555 0.65156 0.70295
 H684 H 0.41756 0.67009 0.72120
 C685 C 0.41905 0.19639 0.19676
 C686 C 0.40999 0.20544 0.17702
 C687 C 0.39160 0.19506 0.16659
 C688 C 0.38189 0.17541 0.17581
 C689 C 0.39145 0.16631 0.19557
 C690 C 0.40984 0.17676 0.20593
 C691 C 0.43737 0.20764 0.20797
 C692 C 0.45244 0.21728 0.21758
 H693 H 0.41699 0.22067 0.16979
 H694 H 0.38491 0.20266 0.15143
 H695 H 0.38464 0.15124 0.20326
 H696 H 0.41672 0.16963 0.22123
 C697 C -0.08046 0.69655 0.19693
 C698 C -0.08954 0.70558 0.17718
 C699 C -0.10786 0.69512 0.16671
 C700 C -0.11739 0.67544 0.17591
 C701 C -0.10792 0.66633 0.19564
 C702 C -0.08961 0.67684 0.20607
 C703 C -0.06224 0.70788 0.20821
 C704 C -0.04724 0.71759 0.21785
 H705 H -0.08261 0.72086 0.16999
 H706 H -0.11468 0.70259 0.15156
 H707 H -0.11479 0.65122 0.20319
 H708 H -0.08273 0.66973 0.22138
 C709 C -0.08094 0.19635 0.69651
 C710 C -0.08999 0.20539 0.67676
 C711 C -0.10837 0.19501 0.66631
 C712 C -0.11809 0.17536 0.67553
 C713 C -0.10855 0.16627 0.69530
 C714 C -0.09017 0.17672 0.70568
 C715 C -0.06265 0.20761 0.70775
 C716 C -0.04760 0.21724 0.71739
 H717 H -0.08298 0.22061 0.66954
 H718 H -0.11504 0.20260 0.65114
 H719 H -0.11536 0.15119 0.70299
 H720 H -0.08330 0.16960 0.72099
 C721 C 0.30319 0.41993 0.30361
 C722 C 0.29408 0.41083 0.32332
 C723 C 0.30451 0.39251 0.33380
 C724 C 0.32422 0.38300 0.32467
 C725 C 0.33340 0.39249 0.30499
 C726 C 0.32293 0.41081 0.29454
 C727 C 0.29191 0.43815 0.29230
 C728 C 0.28225 0.45315 0.28261
 H729 H 0.27877 0.41774 0.33045
 H730 H 0.29697 0.38567 0.34892
 H731 H 0.34854 0.38564 0.29749
 H732 H 0.33010 0.41770 0.27926
 C733 C 0.30351 -0.08116 0.80327
 C734 C 0.29450 -0.09025 0.82301
 C735 C 0.30496 -0.10857 0.83346
 C736 C 0.32467 -0.11819 0.82426
 C737 C 0.33373 -0.10860 0.80449
 C738 C 0.32319 -0.09028 0.79412
 C739 C 0.29218 -0.06292 0.79203
 C740 C 0.28247 -0.04791 0.78241
 H741 H 0.27924 -0.08332 0.83022
 H742 H 0.29739 -0.11528 0.84862
 H743 H 0.34884 -0.11533 0.79682
 H744 H 0.33030 -0.08337 0.77881
 C745 C 0.80341 0.41946 0.80337
 C746 C 0.82309 0.41029 0.79426
 C747 C 0.83353 0.39192 0.80464
 C748 C 0.82439 0.38234 0.82437
 C749 C 0.80469 0.39201 0.83353
 C750 C 0.79432 0.41038 0.82308
 C751 C 0.79217 0.43775 0.79212
 C752 C 0.78253 0.45280 0.78248
 H753 H 0.83025 0.41719 0.77898
 H754 H 0.84864 0.38515 0.79700
 H755 H 0.79706 0.38531 0.84867
 H756 H 0.77906 0.41735 0.83025
 C757 C 0.80341 -0.08055 0.30305
 C758 C 0.79439 -0.08958 0.32284
 C759 C 0.80487 -0.10787 0.33334
 C760 C 0.82453 -0.11742 0.32413
 C761 C 0.83361 -0.10800 0.30437
 C762 C 0.82310 -0.08971 0.29392
 C763 C 0.79207 -0.06235 0.29175
 C764 C 0.78237 -0.04738 0.28208
 H765 H 0.77912 -0.08264 0.33003
 H766 H 0.79740 -0.11465 0.34851
 H767 H 0.84871 -0.11489 0.29682
 H768 H 0.83020 -0.08287 0.27858
 C769 C 0.30315 0.58013 0.69681
 C770 C 0.29405 0.58922 0.67709
 C771 C 0.30449 0.60753 0.66659
 C772 C 0.32421 0.61704 0.67573
 C773 C 0.33338 0.60757 0.69542
 C774 C 0.32290 0.58926 0.70588
 C775 C 0.29186 0.56191 0.70813
 C776 C 0.28219 0.54692 0.71782
 H777 H 0.27874 0.58230 0.66995
 H778 H 0.29696 0.61435 0.65147
 H779 H 0.34852 0.61443 0.70292
 H780 H 0.33007 0.58238 0.72117
 C781 C 0.30342 1.08113 0.19685
 C782 C 0.32309 1.09029 0.20601
 C783 C 0.33359 1.10863 0.19562
 C784 C 0.32451 1.11819 0.17585
 C785 C 0.30482 1.10853 0.16665
 C786 C 0.29439 1.09019 0.17710
 C787 C 0.29211 1.06287 0.20809
 C788 C 0.28242 1.04785 0.21772
 H789 H 0.33020 1.08341 0.22132
 H790 H 0.34869 1.11540 0.20330
 H791 H 0.29724 1.11522 0.15148
 H792 H 0.27914 1.08323 0.16989
 C793 C 0.80339 0.58052 0.19648
 C794 C 0.79427 0.58963 0.17679
 C795 C 0.80463 0.60800 0.16634
 C796 C 0.82436 0.61765 0.17547
 C797 C 0.83353 0.60805 0.19518
 C798 C 0.82309 0.58968 0.20556
 C799 C 0.79216 0.56222 0.20773
 C800 C 0.78254 0.54716 0.21737
 H801 H 0.77899 0.58267 0.16963
 H802 H 0.79698 0.61472 0.15122
 H803 H 0.84866 0.61481 0.20281
 H804 H 0.83028 0.58276 0.22083
 C805 C 0.80342 1.08113 0.69664
 C806 C 0.82310 1.09030 0.70577
 C807 C 0.83360 1.10862 0.69537
 C808 C 0.82452 1.11817 0.67560
 C809 C 0.80482 1.10851 0.66641
 C810 C 0.79439 1.09018 0.67689
 C811 C 0.79212 1.06289 0.70791
 C812 C 0.78245 1.04788 0.71757
 H813 H 0.83022 1.08342 0.72109
 H814 H 0.84871 1.11539 0.70303
 H815 H 0.79723 1.11519 0.65124
 H816 H 0.77913 1.08322 0.66969
 C817 C 0.69686 0.58016 0.30323
 C818 C 0.70596 0.58921 0.32298
 C819 C 0.69553 0.60751 0.33350
 C820 C 0.67584 0.61706 0.32437
 C821 C 0.66667 0.60762 0.30465
 C822 C 0.67714 0.58932 0.29417
 C823 C 0.70814 0.56195 0.29190
 C824 C 0.71781 0.54696 0.28220
 H825 H 0.72125 0.58227 0.33012
 H826 H 0.70306 0.61431 0.34865
 H827 H 0.65154 0.61450 0.29715
 H828 H 0.66998 0.58247 0.27886
 C829 C 0.69652 1.08121 0.80306
 C830 C 0.70554 1.09033 0.82280
 C831 C 0.69508 1.10866 0.83323
 C832 C 0.67538 1.11828 0.82403
 C833 C 0.66631 1.10867 0.80427
 C834 C 0.67683 1.09033 0.79391
 C835 C 0.70784 1.06296 0.79184
 C836 C 0.71754 1.04793 0.78224
 H837 H 0.72080 1.08340 0.83002
 H838 H 0.70266 1.11539 0.84839
 H839 H 0.65119 1.11539 0.79659
 H840 H 0.66972 1.08340 0.77860
 C841 C 0.19666 0.58048 0.80357
 C842 C 0.17697 0.58965 0.79448
 C843 C 0.16654 0.60802 0.80487
 C844 C 0.17572 0.61763 0.82458
 C845 C 0.19543 0.60797 0.83371
 C846 C 0.20579 0.58959 0.82326
 C847 C 0.20788 0.56218 0.79231
 C848 C 0.21749 0.54712 0.78267
 H849 H 0.16978 0.58273 0.77921
 H850 H 0.15142 0.61479 0.79723
 H851 H 0.20309 0.61469 0.84883
 H852 H 0.22106 0.58263 0.83042
 C853 C 0.19644 1.08111 0.30316
 C854 C 0.20543 1.09016 0.32294
 C855 C 0.19500 1.10850 0.33338
 C856 C 0.17534 1.11818 0.32415
 C857 C 0.16630 1.10864 0.30435
 C858 C 0.17680 1.09029 0.29397
 C859 C 0.20775 1.06286 0.29193
 C860 C 0.21744 1.04784 0.28230
 H861 H 0.22066 1.08319 0.33018
 H862 H 0.20255 1.11518 0.34857
 H863 H 0.15122 1.11542 0.29664
 H864 H 0.16971 1.08342 0.27864
 C865 C 0.69680 0.41977 0.69662
 C866 C 0.67705 0.41064 0.70566
 C867 C 0.66657 0.39234 0.69519
 C868 C 0.67575 0.38287 0.67549
 C869 C 0.69547 0.39238 0.66638
 C870 C 0.70592 0.41068 0.67690
 C871 C 0.70810 0.43798 0.70795
 C872 C 0.71776 0.45297 0.71766
 H873 H 0.66988 0.41752 0.72095
 H874 H 0.65142 0.38548 0.70267
 H875 H 0.70301 0.38556 0.65126
 H876 H 0.72123 0.41760 0.66978
 C877 C 0.69641 -0.08090 0.19662
 C878 C 0.67674 -0.09005 0.20578
 C879 C 0.66625 -0.10841 0.19543
 C880 C 0.67533 -0.11802 0.17569
 C881 C 0.69502 -0.10838 0.16648
 C882 C 0.70544 -0.09001 0.17690
 C883 C 0.70771 -0.06262 0.20784
 C884 C 0.71740 -0.04757 0.21744
 H885 H 0.66963 -0.08313 0.22108
 H886 H 0.65114 -0.11517 0.20312
 H887 H 0.70261 -0.11510 0.15133
 H888 H 0.72070 -0.08306 0.16968
 C889 C 0.19650 0.41969 0.19691
 C890 C 0.17683 0.41049 0.20605
 C891 C 0.16637 0.39214 0.19563
 C892 C 0.17550 0.38269 0.17590
 C893 C 0.19515 0.39228 0.16669
 C894 C 0.20556 0.41063 0.17715
 C895 C 0.20778 0.43796 0.20817
 C896 C 0.21744 0.45299 0.21781
 H897 H 0.16970 0.41735 0.22136
 H898 H 0.15128 0.38523 0.20318
 H899 H 0.20264 0.38547 0.15154
 H900 H 0.22082 0.41760 0.16996
 C901 C 0.19648 -0.08121 0.69690
 C902 C 0.20549 -0.09026 0.67714
 C903 C 0.19505 -0.10859 0.66667
 C904 C 0.17537 -0.11826 0.67588
 C905 C 0.16631 -0.10871 0.69566
 C906 C 0.17681 -0.09038 0.70605
 C907 C 0.20779 -0.06296 0.70816
 C908 C 0.21748 -0.04794 0.71779
 H909 H 0.22073 -0.08329 0.66993
 H910 H 0.20262 -0.11527 0.65150
 H911 H 0.15121 -0.11549 0.70334
 H912 H 0.16971 -0.08350 0.72138
 C913 C 0.30309 0.30319 0.42019
 C914 C 0.29401 0.32294 0.41110
 C915 C 0.30447 0.33343 0.39282
 C916 C 0.32417 0.32425 0.38332
 C917 C 0.33331 0.30452 0.39280
 C918 C 0.32281 0.29408 0.41108
 C919 C 0.29177 0.29188 0.43838
 C920 C 0.28209 0.28218 0.45334
 H921 H 0.27872 0.33012 0.41800
 H922 H 0.29697 0.34859 0.38599
 H923 H 0.34844 0.29699 0.38595
 H924 H 0.32995 0.27876 0.41796
 C925 C 0.30364 0.80329 -0.08035
 C926 C 0.32336 0.79420 -0.08949
 C927 C 0.33377 0.80460 -0.10786
 C928 C 0.32454 0.82426 -0.11738
 C929 C 0.30485 0.83343 -0.10785
 C930 C 0.29449 0.82299 -0.08949
 C931 C 0.29241 0.79203 -0.06208
 C932 C 0.28276 0.78240 -0.04705
 H933 H 0.33057 0.77892 -0.08257
 H934 H 0.34889 0.79707 -0.11473
 H935 H 0.29728 0.84853 -0.11471
 H936 H 0.27920 0.83015 -0.08256
 C937 C 0.80299 0.30365 -0.08039
 C938 C 0.79383 0.32334 -0.08954
 C939 C 0.80423 0.33381 -0.10787
 C940 C 0.82397 0.32468 -0.11733
 C941 C 0.83320 0.30503 -0.10779
 C942 C 0.82276 0.29460 -0.08947
 C943 C 0.79173 0.29234 -0.06216
 C944 C 0.78210 0.28264 -0.04717
 H945 H 0.77850 0.33046 -0.08267
 H946 H 0.79666 0.34890 -0.11475
 H947 H 0.84837 0.29753 -0.11461
 H948 H 0.82997 0.27934 -0.08253
 C949 C 0.80373 0.80315 0.42000
 C950 C 0.79466 0.82290 0.41089
 C951 C 0.80506 0.83331 0.39253
 C952 C 0.82470 0.82405 0.38298
 C953 C 0.83384 0.80434 0.39247
 C954 C 0.82340 0.79396 0.41083
 C955 C 0.79245 0.79193 0.43826
 C956 C 0.78278 0.78232 0.45329
 H957 H 0.77941 0.83012 0.41783
 H958 H 0.79756 0.84846 0.38569
 H959 H 0.84893 0.79675 0.38558
 H960 H 0.83053 0.77865 0.41773
 C961 C 0.69679 0.30317 0.57982
 C962 C 0.67705 0.29406 0.58891
 C963 C 0.66657 0.30449 0.60722
 C964 C 0.67573 0.32420 0.61673
 C965 C 0.69545 0.33337 0.60725
 C966 C 0.70589 0.32290 0.58895
 C967 C 0.70808 0.29188 0.56160
 C968 C 0.71776 0.28221 0.54662
 H969 H 0.66988 0.27876 0.58200
 H970 H 0.65143 0.29696 0.61405
 H971 H 0.70297 0.34851 0.61411
 H972 H 0.72119 0.33007 0.58206
 C973 C 0.69651 0.80332 1.08042
 C974 C 0.67681 0.79419 1.08958
 C975 C 0.66638 0.80460 1.10793
 C976 C 0.67558 0.82430 1.11742
 C977 C 0.69524 0.83350 1.10788
 C978 C 0.70562 0.82305 1.08953
 C979 C 0.70776 0.79206 1.06216
 C980 C 0.71742 0.78243 1.04714
 H981 H 0.66963 0.77889 1.08268
 H982 H 0.65128 0.79705 1.11481
 H983 H 0.70278 0.84864 1.11472
 H984 H 0.72090 0.83024 1.08259
 C985 C 0.19652 0.30301 1.08023
 C986 C 0.17683 0.29385 1.08938
 C987 C 0.16636 0.30426 1.10771
 C988 C 0.17550 0.32399 1.11718
 C989 C 0.19516 0.33323 1.10765
 C990 C 0.20558 0.32278 1.08932
 C991 C 0.20780 0.29174 1.06199
 C992 C 0.21747 0.28208 1.04700
 H993 H 0.16969 0.27852 1.08250
 H994 H 0.15127 0.29668 1.11458
 H995 H 0.20266 0.34839 1.11447
 H996 H 0.22085 0.32999 1.08239
 C997 C 0.19649 0.80335 0.58039
 C998 C 0.20560 0.82306 0.58953
 C999 C 0.19523 0.83346 0.60792
 C1000 C 0.17557 0.82423 0.61745
 C1001 C 0.16638 0.80454 0.60792
 C1002 C 0.17680 0.79419 0.58953
 C1003 C 0.20774 0.79213 0.56210
 C1004 C 0.21740 0.78253 0.54706
 H1005 H 0.22087 0.83027 0.58261
 H1006 H 0.20277 0.84858 0.61479
 H1007 H 0.15128 0.79697 0.61479
 H1008 H 0.16962 0.77890 0.58260
 C1009 C 0.30318 0.69677 0.58010
 C1010 C 0.32292 0.70587 0.58920
 C1011 C 0.33340 0.69543 0.60750
 C1012 C 0.32422 0.67573 0.61700
 C1013 C 0.30450 0.66657 0.60752
 C1014 C 0.29407 0.67704 0.58921
 C1015 C 0.29189 0.70807 0.56188
 C1016 C 0.28223 0.71776 0.54690
 H1017 H 0.33010 0.72116 0.58230
 H1018 H 0.34855 0.70296 0.61434
 H1019 H 0.29697 0.65144 0.61437
 H1020 H 0.27876 0.66988 0.58232
 C1021 C 0.30333 0.19660 1.08042
 C1022 C 0.32303 0.20576 1.08956
 C1023 C 0.33346 0.19540 1.10794
 C1024 C 0.32427 0.17571 1.11747
 C1025 C 0.30461 0.16648 1.10794
 C1026 C 0.29422 0.17688 1.08956
 C1027 C 0.29207 0.20781 1.06214
 C1028 C 0.28240 0.21742 1.04710
 H1029 H 0.33020 0.22105 1.08264
 H1030 H 0.34856 0.20297 1.11481
 H1031 H 0.29707 0.15136 1.11480
 H1032 H 0.27895 0.16967 1.08264
 C1033 C 0.80293 0.69643 1.08030
 C1034 C 0.82272 0.70546 1.08936
 C1035 C 0.83317 0.69502 1.10768
 C1036 C 0.82392 0.67537 1.11723
 C1037 C 0.80415 0.66627 1.10777
 C1038 C 0.79375 0.67675 1.08946
 C1039 C 0.79168 0.70774 1.06207
 C1040 C 0.78207 0.71746 1.04707
 H1041 H 0.82995 0.72071 1.08243
 H1042 H 0.84835 0.70249 1.11449
 H1043 H 0.79657 0.65118 1.11466
 H1044 H 0.77840 0.66964 1.08259
 C1045 C 0.80344 0.19658 0.58010
 C1046 C 0.79428 0.17689 0.58926
 C1047 C 0.80464 0.16648 0.60765
 C1048 C 0.82433 0.17567 0.61717
 C1049 C 0.83356 0.19532 0.60762
 C1050 C 0.82316 0.20569 0.58924
 C1051 C 0.79221 0.20781 0.56181
 C1052 C 0.78258 0.21744 0.54677
 H1053 H 0.77899 0.16972 0.58234
 H1054 H 0.79707 0.15138 0.61453
 H1055 H 0.84869 0.20286 0.61448
 H1056 H 0.83037 0.22096 0.58230
 C1057 C 0.69691 0.69665 0.42014
 C1058 C 0.70600 0.67692 0.41100
 C1059 C 0.69556 0.66647 0.39267
 C1060 C 0.67586 0.67567 0.38319
 C1061 C 0.66670 0.69537 0.39272
 C1062 C 0.67718 0.70577 0.41105
 C1063 C 0.70821 0.70791 0.43838
 C1064 C 0.71787 0.71759 0.45338
 H1065 H 0.72130 0.66974 0.41789
 H1066 H 0.70308 0.65134 0.38580
 H1067 H 0.65157 0.70291 0.38589
 H1068 H 0.67003 0.72107 0.41797
 C1069 C 0.69643 0.19688 -0.08062
 C1070 C 0.67671 0.20597 -0.08977
 C1071 C 0.66631 0.19556 -0.10813
 C1072 C 0.67553 0.17589 -0.11764
 C1073 C 0.69522 0.16673 -0.10811
 C1074 C 0.70559 0.17718 -0.08974
 C1075 C 0.70767 0.20815 -0.06234
 C1076 C 0.71732 0.21778 -0.04731
 H1077 H 0.66951 0.22125 -0.08285
 H1078 H 0.65118 0.20308 -0.11501
 H1079 H 0.70279 0.15162 -0.11496
 H1080 H 0.72088 0.17003 -0.08281
 C1081 C 0.19721 0.69640 -0.08022
 C1082 C 0.20638 0.67672 -0.08938
 C1083 C 0.19596 0.66624 -0.10771
 C1084 C 0.17621 0.67534 -0.11715
 C1085 C 0.16697 0.69499 -0.10760
 C1086 C 0.17743 0.70543 -0.08928
 C1087 C 0.20847 0.70771 -0.06199
 C1088 C 0.21808 0.71743 -0.04699
 H1089 H 0.22172 0.66961 -0.08252
 H1090 H 0.20354 0.65115 -0.11460
 H1091 H 0.15179 0.70247 -0.11440
 H1092 H 0.17021 0.72069 -0.08234
 C1093 C 0.19641 0.19655 0.41968
 C1094 C 0.17674 0.20572 0.41050
 C1095 C 0.16634 0.19538 0.39210
 C1096 C 0.17552 0.17569 0.38257
 C1097 C 0.19516 0.16645 0.39214
 C1098 C 0.20552 0.17684 0.41054
 C1099 C 0.20764 0.20776 0.43799
 C1100 C 0.21728 0.21736 0.45306
 H1101 H 0.16957 0.22101 0.41742
 H1102 H 0.15125 0.20296 0.38520
 H1103 H 0.20269 0.15132 0.38528
 H1104 H 0.22077 0.16962 0.41749
 C1105 C 0.30299 0.41961 0.69706
 C1106 C 0.29389 0.41048 0.67735
 C1107 C 0.30431 0.39214 0.66690
 C1108 C 0.32401 0.38263 0.67607
 C1109 C 0.33318 0.39213 0.69576
 C1110 C 0.32271 0.41048 0.70617
 C1111 C 0.29172 0.43788 0.70832
 C1112 C 0.28208 0.45293 0.71796
 H1113 H 0.27860 0.41740 0.67019
 H1114 H 0.29679 0.38529 0.65178
 H1115 H 0.34831 0.38528 0.70328
 H1116 H 0.32988 0.41739 0.72145
 C1117 C 0.30334 0.92064 0.19666
 C1118 C 0.29422 0.91150 0.17697
 C1119 C 0.30467 0.89320 0.16647
 C1120 C 0.32442 0.88374 0.17558
 C1121 C 0.33361 0.89326 0.19525
 C1122 C 0.32312 0.91156 0.20571
 C1123 C 0.29205 0.93886 0.20796
 C1124 C 0.28238 0.95387 0.21763
 H1125 H 0.27889 0.91838 0.16984
 H1126 H 0.29713 0.88633 0.15136
 H1127 H 0.34878 0.88644 0.20273
 H1128 H 0.33030 0.91848 0.22098
 C1129 C 0.80370 0.41989 0.19639
 C1130 C 0.79462 0.41078 0.17666
 C1131 C 0.80505 0.39244 0.16621
 C1132 C 0.82473 0.38291 0.17539
 C1133 C 0.83389 0.39240 0.19509
 C1134 C 0.82341 0.41075 0.20551
 C1135 C 0.79241 0.43813 0.20766
 C1136 C 0.78273 0.45314 0.21731
 H1137 H 0.77934 0.41771 0.16949
 H1138 H 0.79754 0.38561 0.15107
 H1139 H 0.84900 0.38553 0.20263
 H1140 H 0.83056 0.41764 0.22081
 C1141 C 0.80352 0.92061 0.69685
 C1142 C 0.82327 0.91151 0.70594
 C1143 C 0.83375 0.89318 0.69552
 C1144 C 0.82459 0.88366 0.67584
 C1145 C 0.80487 0.89314 0.66669
 C1146 C 0.79442 0.91147 0.67715
 C1147 C 0.79223 0.93886 0.70811
 C1148 C 0.78255 0.95388 0.71775
 H1149 H 0.83043 0.91843 0.72122
 H1150 H 0.84890 0.88635 0.70303
 H1151 H 0.79735 0.88628 0.65157
 H1152 H 0.77912 0.91836 0.66999
 C1153 C 0.69681 0.58026 0.69706
 C1154 C 0.70586 0.58935 0.67733
 C1155 C 0.69543 0.60769 0.66689
 C1156 C 0.67576 0.61723 0.67609
 C1157 C 0.66664 0.60776 0.69581
 C1158 C 0.67712 0.58941 0.70621
 C1159 C 0.70810 0.56199 0.70830
 C1160 C 0.71777 0.54695 0.71792
 H1161 H 0.72113 0.58242 0.67013
 H1162 H 0.70291 0.61452 0.65174
 H1163 H 0.65154 0.61463 0.70336
 H1164 H 0.66999 0.58252 0.72151
 C1165 C 0.69643 0.07961 0.19622
 C1166 C 0.70555 0.08874 0.17652
 C1167 C 0.69509 0.10705 0.16603
 C1168 C 0.67535 0.11651 0.17515
 C1169 C 0.66616 0.10699 0.19481
 C1170 C 0.67666 0.08869 0.20526
 C1171 C 0.70774 0.06140 0.20752
 C1172 C 0.71742 0.04642 0.21720
 H1173 H 0.72088 0.08187 0.16940
 H1174 H 0.70263 0.11391 0.15093
 H1175 H 0.65100 0.11381 0.20230
 H1176 H 0.66948 0.08178 0.22053
 C1177 C 0.19655 0.58021 0.19662
 C1178 C 0.20566 0.58932 0.17691
 C1179 C 0.19524 0.60765 0.16644
 C1180 C 0.17553 0.61716 0.17558
 C1181 C 0.16635 0.60767 0.19526
 C1182 C 0.17682 0.58934 0.20569
 C1183 C 0.20783 0.56198 0.20791
 C1184 C 0.21749 0.54698 0.21759
 H1185 H 0.22097 0.58241 0.16977
 H1186 H 0.20277 0.61449 0.15132
 H1187 H 0.15121 0.61452 0.20276
 H1188 H 0.16964 0.58244 0.22097
 C1189 C 0.19648 0.07925 0.69681
 C1190 C 0.20558 0.08836 0.67710
 C1191 C 0.19512 0.10665 0.66660
 C1192 C 0.17539 0.11613 0.67572
 C1193 C 0.16622 0.10664 0.69541
 C1194 C 0.17673 0.08835 0.70587
 C1195 C 0.20779 0.06103 0.70812
 C1196 C 0.21747 0.04604 0.71778
 H1197 H 0.22090 0.08147 0.66997
 H1198 H 0.20265 0.11349 0.65148
 H1199 H 0.15107 0.11347 0.70290
 H1200 H 0.16956 0.08145 0.72115
 C1201 C 0.30330 0.58044 0.30322
 C1202 C 0.32300 0.58959 0.29408
 C1203 C 0.33348 0.60794 0.30449
 C1204 C 0.32435 0.61742 0.32420
 C1205 C 0.30468 0.60789 0.33339
 C1206 C 0.29424 0.58954 0.32295
 C1207 C 0.29200 0.56217 0.29197
 C1208 C 0.28233 0.54713 0.28235
 H1209 H 0.33013 0.58270 0.27878
 H1210 H 0.34859 0.61481 0.29694
 H1211 H 0.29719 0.61472 0.34853
 H1212 H 0.27896 0.58261 0.33014
 C1213 C 0.30334 0.07932 0.80348
 C1214 C 0.29421 0.08845 0.82317
 C1215 C 0.30465 0.10677 0.83366
 C1216 C 0.32439 0.11625 0.82455
 C1217 C 0.33359 0.10674 0.80488
 C1218 C 0.32310 0.08842 0.79443
 C1219 C 0.29205 0.06108 0.79218
 C1220 C 0.28238 0.04607 0.78251
 H1221 H 0.27889 0.08156 0.83029
 H1222 H 0.29711 0.11363 0.84876
 H1223 H 0.34875 0.11357 0.79740
 H1224 H 0.33029 0.08150 0.77916
 C1225 C 0.80358 0.58009 0.80357
 C1226 C 0.79449 0.58921 0.82328
 C1227 C 0.80492 0.60756 0.83373
 C1228 C 0.82461 0.61709 0.82455
 C1229 C 0.83377 0.60758 0.80487
 C1230 C 0.82330 0.58923 0.79446
 C1231 C 0.79228 0.56184 0.79230
 C1232 C 0.78261 0.54682 0.78264
 H1233 H 0.77920 0.58229 0.83045
 H1234 H 0.79741 0.61441 0.84885
 H1235 H 0.84889 0.61444 0.79733
 H1236 H 0.83045 0.58232 0.77917
 C1237 C 0.80338 0.07979 0.30285
 C1238 C 0.79430 0.08889 0.32258
 C1239 C 0.80478 0.10719 0.33308
 C1240 C 0.82451 0.11667 0.32394
 C1241 C 0.83364 0.10719 0.30423
 C1242 C 0.82312 0.08890 0.29377
 C1243 C 0.79206 0.06157 0.29156
 C1244 C 0.78236 0.04656 0.28191
 H1245 H 0.77899 0.08200 0.32973
 H1246 H 0.79728 0.11402 0.34822
 H1247 H 0.84879 0.11403 0.29673
 H1248 H 0.83027 0.08200 0.27848
 C1249 C 0.69694 0.41967 0.30290
 C1250 C 0.67722 0.41054 0.29378
 C1251 C 0.66673 0.39220 0.30418
 C1252 C 0.67587 0.38271 0.32388
 C1253 C 0.69556 0.39222 0.33307
 C1254 C 0.70601 0.41056 0.32262
 C1255 C 0.70823 0.43794 0.29166
 C1256 C 0.71789 0.45298 0.28203
 H1257 H 0.67008 0.41744 0.27849
 H1258 H 0.65161 0.38534 0.29664
 H1259 H 0.70307 0.38539 0.34820
 H1260 H 0.72130 0.41748 0.32981
 C1261 C 0.69678 0.92070 0.80350
 C1262 C 0.67699 0.91162 0.79448
 C1263 C 0.66651 0.89331 0.80493
 C1264 C 0.67573 0.88379 0.82458
 C1265 C 0.69550 0.89325 0.83367
 C1266 C 0.70594 0.91157 0.82317
 C1267 C 0.70806 0.93894 0.79219
 C1268 C 0.71771 0.95394 0.78250
 H1269 H 0.66979 0.91854 0.77922
 H1270 H 0.65133 0.88649 0.79747
 H1271 H 0.70306 0.88639 0.84876
 H1272 H 0.72128 0.91844 0.83027
 C1273 C 0.19635 0.41979 0.80361
 C1274 C 0.17663 0.41066 0.79447
 C1275 C 0.16616 0.39230 0.80484
 C1276 C 0.17531 0.38277 0.82452
 C1277 C 0.19499 0.39229 0.83373
 C1278 C 0.20543 0.41066 0.82332
 C1279 C 0.20764 0.43805 0.79237
 C1280 C 0.21732 0.45307 0.78273
 H1281 H 0.16949 0.41758 0.77919
 H1282 H 0.15104 0.38544 0.79729
 H1283 H 0.20250 0.38543 0.84885
 H1284 H 0.22071 0.41757 0.83051
 C1285 C 0.19655 0.92059 0.30331
 C1286 C 0.17680 0.91146 0.29425
 C1287 C 0.16633 0.89314 0.30470
 C1288 C 0.17551 0.88366 0.32438
 C1289 C 0.19523 0.89317 0.33351
 C1290 C 0.20567 0.91149 0.32302
 C1291 C 0.20783 0.93883 0.29202
 C1292 C 0.21749 0.95384 0.28235
 H1293 H 0.16962 0.91835 0.27897
 H1294 H 0.15118 0.88629 0.29720
 H1295 H 0.20277 0.88634 0.34863
 H1296 H 0.22098 0.91841 0.33016
 C1297 C 0.41972 0.30282 0.69703
 C1298 C 0.41059 0.32253 0.70616
 C1299 C 0.39225 0.33301 0.69576
 C1300 C 0.38274 0.32387 0.67606
 C1301 C 0.39225 0.30417 0.66687
 C1302 C 0.41059 0.29374 0.67731
 C1303 C 0.43799 0.29154 0.70826
 C1304 C 0.45304 0.28187 0.71787
 H1305 H 0.41750 0.32968 0.72145
 H1306 H 0.38539 0.34814 0.70329
 H1307 H 0.38541 0.29667 0.65174
 H1308 H 0.41751 0.27845 0.67013
 C1309 C 0.42022 0.80408 0.19652
 C1310 C 0.41109 0.82380 0.20562
 C1311 C 0.39275 0.83427 0.19519
 C1312 C 0.38326 0.82510 0.17550
 C1313 C 0.39278 0.80540 0.16634
 C1314 C 0.41111 0.79498 0.17680
 C1315 C 0.43845 0.79279 0.20780
 C1316 C 0.45345 0.78311 0.21747
 H1317 H 0.41798 0.83097 0.22090
 H1318 H 0.38589 0.84940 0.20271
 H1319 H 0.38593 0.79788 0.15121
 H1320 H 0.41802 0.77968 0.16964
 C1321 C 0.92031 0.30300 0.19646
 C1322 C 0.91116 0.29388 0.17677
 C1323 C 0.89283 0.30432 0.16630
 C1324 C 0.88338 0.32407 0.17543
 C1325 C 0.89291 0.33326 0.19509
 C1326 C 0.91124 0.32277 0.20552
 C1327 C 0.93856 0.29172 0.20773
 C1328 C 0.95358 0.28207 0.21739
 H1329 H 0.91803 0.27855 0.16964
 H1330 H 0.88596 0.29678 0.15120
 H1331 H 0.88610 0.34843 0.20258
 H1332 H 0.91817 0.32996 0.22078
 C1333 C 0.92031 0.80390 0.69686
 C1334 C 0.91118 0.82362 0.70598
 C1335 C 0.89285 0.83411 0.69555
 C1336 C 0.88337 0.82496 0.67584
 C1337 C 0.89289 0.80527 0.66667
 C1338 C 0.91121 0.79483 0.67713
 C1339 C 0.93855 0.79260 0.70813
 C1340 C 0.95355 0.78289 0.71777
 H1341 H 0.91807 0.83077 0.72127
 H1342 H 0.88599 0.84923 0.70308
 H1343 H 0.88606 0.79776 0.65153
 H1344 H 0.91813 0.77954 0.66996
 C1345 C 0.58012 0.30291 0.30288
 C1346 C 0.58924 0.29382 0.32259
 C1347 C 0.60758 0.30426 0.33304
 C1348 C 0.61711 0.32395 0.32387
 C1349 C 0.60761 0.33310 0.30417
 C1350 C 0.58927 0.32262 0.29376
 C1351 C 0.56184 0.29163 0.29163
 C1352 C 0.54679 0.28198 0.28202
 H1353 H 0.58231 0.27854 0.32977
 H1354 H 0.61443 0.29675 0.34817
 H1355 H 0.61447 0.34822 0.29664
 H1356 H 0.58236 0.32977 0.27848
 C1357 C 0.57994 0.80406 0.80367
 C1358 C 0.58906 0.82380 0.79458
 C1359 C 0.60740 0.83428 0.80500
 C1360 C 0.61691 0.82511 0.82468
 C1361 C 0.60740 0.80541 0.83384
 C1362 C 0.58906 0.79497 0.82338
 C1363 C 0.56171 0.79276 0.79239
 C1364 C 0.54671 0.78307 0.78273
 H1365 H 0.58215 0.83096 0.77930
 H1366 H 0.61425 0.84942 0.79748
 H1367 H 0.61426 0.79789 0.84895
 H1368 H 0.58216 0.77966 0.83054
 C1369 C 0.07980 0.30282 0.80314
 C1370 C 0.08892 0.29368 0.82283
 C1371 C 0.10722 0.30413 0.83335
 C1372 C 0.11669 0.32389 0.82427
 C1373 C 0.10719 0.33309 0.80460
 C1374 C 0.08890 0.32260 0.79412
 C1375 C 0.06157 0.29154 0.79182
 C1376 C 0.04656 0.28189 0.78214
 H1377 H 0.08203 0.27834 0.82993
 H1378 H 0.11406 0.29657 0.84846
 H1379 H 0.11402 0.34827 0.79715
 H1380 H 0.08199 0.32980 0.77886
 C1381 C 0.07985 0.80378 0.30342
 C1382 C 0.08896 0.79472 0.32315
 C1383 C 0.10727 0.80519 0.33361
 C1384 C 0.11677 0.82490 0.32444
 C1385 C 0.10728 0.83402 0.30473
 C1386 C 0.08896 0.82351 0.29431
 C1387 C 0.06162 0.79245 0.29214
 C1388 C 0.04663 0.78274 0.28250
 H1389 H 0.08205 0.77943 0.33032
 H1390 H 0.11411 0.79770 0.34875
 H1391 H 0.11413 0.84916 0.29720
 H1392 H 0.08207 0.83064 0.27901
 C1393 C 0.58017 0.69715 0.69718
 C1394 C 0.58929 0.67743 0.70629
 C1395 C 0.60760 0.66692 0.69587
 C1396 C 0.61709 0.67605 0.67616
 C1397 C 0.60758 0.69575 0.66698
 C1398 C 0.58927 0.70621 0.67745
 C1399 C 0.56192 0.70845 0.70843
 C1400 C 0.54689 0.71813 0.71806
 H1401 H 0.58239 0.67029 0.72159
 H1402 H 0.61445 0.65179 0.70339
 H1403 H 0.61442 0.70325 0.65185
 H1404 H 0.58236 0.72150 0.67027
 C1405 C 0.57964 0.19623 0.19618
 C1406 C 0.58874 0.17647 0.20522
 C1407 C 0.60706 0.16600 0.19478
 C1408 C 0.61657 0.17520 0.17512
 C1409 C 0.60708 0.19493 0.16600
 C1410 C 0.58876 0.20536 0.17649
 C1411 C 0.56143 0.20753 0.20749
 C1412 C 0.54645 0.21720 0.21720
 H1413 H 0.58183 0.16929 0.22049
 H1414 H 0.61389 0.15084 0.20227
 H1415 H 0.61394 0.20248 0.15090
 H1416 H 0.58187 0.22069 0.16936
 C1417 C 0.07996 0.69703 0.19668
 C1418 C 0.08903 0.67725 0.20571
 C1419 C 0.10734 0.66676 0.19527
 C1420 C 0.11687 0.67597 0.17562
 C1421 C 0.10742 0.69573 0.16652
 C1422 C 0.08911 0.70617 0.17701
 C1423 C 0.06172 0.70830 0.20798
 C1424 C 0.04671 0.71793 0.21767
 H1425 H 0.08211 0.67005 0.22097
 H1426 H 0.11416 0.65159 0.20274
 H1427 H 0.11429 0.70329 0.15143
 H1428 H 0.08223 0.72151 0.16990
 C1429 C 0.07962 0.19586 0.69660
 C1430 C 0.08877 0.17616 0.70574
 C1431 C 0.10709 0.16566 0.69533
 C1432 C 0.11656 0.17478 0.67561
 C1433 C 0.10703 0.19445 0.66640
 C1434 C 0.08870 0.20490 0.67685
 C1435 C 0.06140 0.20718 0.70786
 C1436 C 0.04640 0.21690 0.71749
 H1437 H 0.08189 0.16904 0.72105
 H1438 H 0.11396 0.15056 0.70288
 H1439 H 0.11385 0.20193 0.65125
 H1440 H 0.08178 0.22017 0.66966
 C1441 C 0.41998 0.69732 0.30312
 C1442 C 0.41087 0.70642 0.32283
 C1443 C 0.39255 0.69596 0.33330
 C1444 C 0.38305 0.67624 0.32415
 C1445 C 0.39254 0.66709 0.30445
 C1446 C 0.41086 0.67758 0.29402
 C1447 C 0.43823 0.70861 0.29186
 C1448 C 0.45326 0.71827 0.28222
 H1449 H 0.41777 0.72172 0.32999
 H1450 H 0.38571 0.70348 0.34843
 H1451 H 0.38570 0.65194 0.29694
 H1452 H 0.41776 0.67042 0.27874
 C1453 C 0.42011 0.19603 0.80357
 C1454 C 0.41099 0.20514 0.82327
 C1455 C 0.39267 0.19470 0.83374
 C1456 C 0.38317 0.17497 0.82460
 C1457 C 0.39268 0.16579 0.80493
 C1458 C 0.41100 0.17627 0.79450
 C1459 C 0.43833 0.20733 0.79227
 C1460 C 0.45331 0.21701 0.78259
 H1461 H 0.41788 0.22046 0.83041
 H1462 H 0.38581 0.20224 0.84885
 H1463 H 0.38584 0.15063 0.79743
 H1464 H 0.41791 0.16910 0.77922
 C1465 C 0.92017 0.69701 0.80337
 C1466 C 0.91108 0.67724 0.79433
 C1467 C 0.89277 0.66675 0.80478
 C1468 C 0.88326 0.67595 0.82444
 C1469 C 0.89273 0.69570 0.83355
 C1470 C 0.91104 0.70615 0.82306
 C1471 C 0.93841 0.70830 0.79208
 C1472 C 0.95343 0.71795 0.78242
 H1473 H 0.91800 0.67004 0.77907
 H1474 H 0.88595 0.65157 0.79730
 H1475 H 0.88587 0.70325 0.84865
 H1476 H 0.91792 0.72149 0.83018
 C1477 C 0.92037 0.19632 0.30307
 C1478 C 0.91121 0.17661 0.29395
 C1479 C 0.89287 0.16615 0.30437
 C1480 C 0.88339 0.17530 0.32407
 C1481 C 0.89293 0.19498 0.33326
 C1482 C 0.91128 0.20541 0.32280
 C1483 C 0.93862 0.20761 0.29181
 C1484 C 0.95364 0.21727 0.28216
 H1485 H 0.91809 0.16946 0.27866
 H1486 H 0.88599 0.15103 0.29683
 H1487 H 0.88611 0.20249 0.34839
 H1488 H 0.91821 0.22069 0.32998
 C1489 C 0.30297 0.30283 0.58046
 C1490 C 0.32270 0.29373 0.58958
 C1491 C 0.33317 0.30417 0.60790
 C1492 C 0.32400 0.32387 0.61739
 C1493 C 0.30429 0.33304 0.60790
 C1494 C 0.29386 0.32256 0.58958
 C1495 C 0.29170 0.29156 0.56222
 C1496 C 0.28204 0.28191 0.54719
 H1497 H 0.32987 0.27844 0.58267
 H1498 H 0.34831 0.29664 0.61474
 H1499 H 0.29677 0.34818 0.61474
 H1500 H 0.27857 0.32973 0.58268
 C1501 C 0.30343 0.80386 0.08001
 C1502 C 0.29427 0.82356 0.08915
 C1503 C 0.30470 0.83408 0.10744
 C1504 C 0.32446 0.82499 0.11689
 C1505 C 0.33369 0.80532 0.10737
 C1506 C 0.32321 0.79484 0.08908
 C1507 C 0.29216 0.79252 0.06181
 C1508 C 0.28253 0.78279 0.04682
 H1509 H 0.27892 0.83066 0.08228
 H1510 H 0.29713 0.84918 0.11430
 H1511 H 0.34887 0.79785 0.11418
 H1512 H 0.33043 0.77957 0.08216
 C1513 C 0.80344 0.30312 0.07990
 C1514 C 0.79443 0.32292 0.08898
 C1515 C 0.80492 0.33337 0.10727
 C1516 C 0.82459 0.32413 0.11678
 C1517 C 0.83366 0.30436 0.10732
 C1518 C 0.82313 0.29394 0.08902
 C1519 C 0.79209 0.29188 0.06168
 C1520 C 0.78237 0.28226 0.04668
 H1521 H 0.77917 0.33015 0.08207
 H1522 H 0.79748 0.34856 0.11409
 H1523 H 0.84876 0.29677 0.11417
 H1524 H 0.83021 0.27859 0.08214
 C1525 C 0.80357 0.80372 0.58034
 C1526 C 0.82334 0.79468 0.58943
 C1527 C 0.83381 0.80516 0.60772
 C1528 C 0.82461 0.82486 0.61720
 C1529 C 0.80487 0.83397 0.60773
 C1530 C 0.79443 0.82344 0.58944
 C1531 C 0.79229 0.79238 0.56214
 C1532 C 0.78263 0.78267 0.54716
 H1533 H 0.83053 0.77939 0.58254
 H1534 H 0.84898 0.79768 0.61454
 H1535 H 0.79732 0.84909 0.61457
 H1536 H 0.77910 0.83056 0.58255
 C1537 C 0.30333 0.69718 0.41979
 C1538 C 0.32302 0.70633 0.41066
 C1539 C 0.33350 0.69591 0.39234
 C1540 C 0.32437 0.67617 0.38287
 C1541 C 0.30469 0.66695 0.39238
 C1542 C 0.29426 0.67741 0.41070
 C1543 C 0.29204 0.70843 0.43803
 C1544 C 0.28236 0.71806 0.45304
 H1545 H 0.33016 0.72165 0.41754
 H1546 H 0.34861 0.70347 0.38548
 H1547 H 0.29720 0.65179 0.38556
 H1548 H 0.27899 0.67021 0.41762
 C1549 C 0.30330 0.19614 0.92006
 C1550 C 0.32307 0.20521 0.91098
 C1551 C 0.33356 0.19474 0.89270
 C1552 C 0.32438 0.17503 0.88320
 C1553 C 0.30464 0.16589 0.89267
 C1554 C 0.29419 0.17640 0.91095
 C1555 C 0.29201 0.20746 0.93825
 C1556 C 0.28233 0.21715 0.95323
 H1557 H 0.33024 0.22051 0.91788
 H1558 H 0.34872 0.20224 0.88588
 H1559 H 0.29711 0.15076 0.88582
 H1560 H 0.27887 0.16926 0.91782
 C1561 C 0.80344 0.69695 0.92001
 C1562 C 0.82313 0.70612 0.91087
 C1563 C 0.83363 0.69569 0.89258
 C1564 C 0.82454 0.67592 0.88313
 C1565 C 0.80487 0.66669 0.89265
 C1566 C 0.79441 0.67716 0.91094
 C1567 C 0.79212 0.70822 0.93822
 C1568 C 0.78242 0.71786 0.95322
 H1569 H 0.83024 0.72147 0.91774
 H1570 H 0.84874 0.70326 0.88571
 H1571 H 0.79740 0.65150 0.88585
 H1572 H 0.77914 0.66995 0.91786
 C1573 C 0.80362 0.19634 0.41965
 C1574 C 0.79449 0.17663 0.41051
 C1575 C 0.80492 0.16616 0.39220
 C1576 C 0.82465 0.17531 0.38273
 C1577 C 0.83385 0.19499 0.39226
 C1578 C 0.82338 0.20543 0.41057
 C1579 C 0.79234 0.20763 0.43787
 C1580 C 0.78267 0.21730 0.45286
 H1581 H 0.77917 0.16948 0.41739
 H1582 H 0.79737 0.15104 0.38533
 H1583 H 0.84900 0.20250 0.38544
 H1584 H 0.83057 0.22071 0.41749
 C1585 C 0.69686 0.30298 0.41949
 C1586 C 0.70596 0.32272 0.41039
 C1587 C 0.69553 0.33318 0.39207
 C1588 C 0.67583 0.32399 0.38256
 C1589 C 0.66667 0.30428 0.39205
 C1590 C 0.67714 0.29386 0.41037
 C1591 C 0.70814 0.29172 0.43773
 C1592 C 0.71780 0.28208 0.45275
 H1593 H 0.72125 0.32991 0.41729
 H1594 H 0.70305 0.34832 0.38523
 H1595 H 0.65154 0.29674 0.38520
 H1596 H 0.66998 0.27856 0.41727
 C1597 C 0.69679 0.80390 0.92010
 C1598 C 0.70596 0.82360 0.91096
 C1599 C 0.69552 0.83412 0.89268
 C1600 C 0.67574 0.82503 0.88325
 C1601 C 0.66651 0.80536 0.89276
 C1602 C 0.67699 0.79488 0.91104
 C1603 C 0.70807 0.79256 0.93830
 C1604 C 0.71770 0.78283 0.95327
 H1605 H 0.72131 0.83070 0.91782
 H1606 H 0.70309 0.84922 0.88582
 H1607 H 0.65132 0.79790 0.88597
 H1608 H 0.66978 0.77961 0.91796
 C1609 C 0.19641 0.30282 0.91992
 C1610 C 0.17672 0.29367 0.91075
 C1611 C 0.16624 0.30412 0.89245
 C1612 C 0.17535 0.32389 0.88304
 C1613 C 0.19501 0.33311 0.89259
 C1614 C 0.20545 0.32262 0.91089
 C1615 C 0.20770 0.29154 0.93814
 C1616 C 0.21739 0.28190 0.95314
 H1617 H 0.16960 0.27832 0.91758
 H1618 H 0.15114 0.29655 0.88556
 H1619 H 0.20249 0.34830 0.88582
 H1620 H 0.22071 0.32983 0.91784
 C1621 C 0.19657 0.80389 0.41998
 C1622 C 0.20570 0.82361 0.41086
 C1623 C 0.19526 0.83409 0.39256
 C1624 C 0.17552 0.82496 0.38309
 C1625 C 0.16632 0.80527 0.39261
 C1626 C 0.17680 0.79482 0.41090
 C1627 C 0.20786 0.79258 0.43819
 C1628 C 0.21751 0.78288 0.45317
 H1629 H 0.22103 0.83074 0.41773
 H1630 H 0.20281 0.84922 0.38570
 H1631 H 0.15116 0.79777 0.38579
 H1632 H 0.16961 0.77954 0.41781
 C1633 C 0.69678 0.69695 0.58049
 C1634 C 0.70585 0.67720 0.58958
 C1635 C 0.69542 0.66674 0.60790
 C1636 C 0.67574 0.67595 0.61742
 C1637 C 0.66661 0.69568 0.60795
 C1638 C 0.67708 0.70610 0.58963
 C1639 C 0.70807 0.70821 0.56226
 C1640 C 0.71775 0.71784 0.54725
 H1641 H 0.72112 0.67000 0.58266
 H1642 H 0.70292 0.65158 0.61473
 H1643 H 0.65150 0.70324 0.61481
 H1644 H 0.66994 0.72142 0.58274
 C1645 C 0.69646 0.19641 0.07969
 C1646 C 0.70557 0.17668 0.08879
 C1647 C 0.69511 0.16616 0.10706
 C1648 C 0.67537 0.17529 0.11652
 C1649 C 0.66620 0.19500 0.10704
 C1650 C 0.67670 0.20547 0.08877
 C1651 C 0.70777 0.20774 0.06151
 C1652 C 0.71744 0.21745 0.04655
 H1653 H 0.72089 0.16954 0.08192
 H1654 H 0.70264 0.15102 0.11390
 H1655 H 0.65104 0.20249 0.11385
 H1656 H 0.66953 0.22077 0.08188
 C1657 C 0.19674 0.69694 0.08007
 C1658 C 0.17704 0.70610 0.08919
 C1659 C 0.16653 0.69568 0.10749
 C1660 C 0.17562 0.67592 0.11695
 C1661 C 0.19530 0.66670 0.10745
 C1662 C 0.20577 0.67716 0.08916
 C1663 C 0.20806 0.70820 0.06186
 C1664 C 0.21777 0.71783 0.04687
 H1665 H 0.16993 0.72143 0.08231
 H1666 H 0.15142 0.70324 0.11434
 H1667 H 0.20277 0.65153 0.11427
 H1668 H 0.22104 0.66995 0.08225
 C1669 C 0.19634 0.19592 0.58011
 C1670 C 0.20550 0.17623 0.58925
 C1671 C 0.19507 0.16571 0.60754
 C1672 C 0.17531 0.17481 0.61698
 C1673 C 0.16608 0.19447 0.60746
 C1674 C 0.17655 0.20494 0.58917
 C1675 C 0.20762 0.20726 0.56192
 C1676 C 0.21728 0.21698 0.54695
 H1677 H 0.22085 0.16912 0.58239
 H1678 H 0.20265 0.15061 0.61440
 H1679 H 0.15090 0.20194 0.61426
 H1680 H 0.16934 0.22021 0.58225
   
