data_POSCAR
  _audit_creation_date              2014-09-24
  _audit_creation_method            'ToBaCCo'
  _symmetry_space_group_name_H-M    'P1'
  _symmetry_Int_Tables_number       1
  _symmetry_cell_setting            triclinic
  loop_
  _symmetry_equiv_pos_as_xyz
 x,y,z
_cell_length_a 86.1260
_cell_length_b 85.5885
_cell_length_c 87.7894
_cell_angle_alpha 89.936500
_cell_angle_beta 89.963600
_cell_angle_gamma 89.864400
loop_
  _atom_site_label
  _atom_site_type_symbol
  _atom_site_fract_x
  _atom_site_fract_y
  _atom_site_fract_z
N1 N 0.36512 0.32160 0.33417
 N2 N 0.36332 0.33093 0.32242
 C3 C 0.37506 0.32857 0.31254
 C4 C 0.38477 0.31708 0.31839
 C5 C 0.37803 0.31297 0.33217
 H6 H 0.37628 0.33468 0.30183
 H7 H 0.38198 0.30411 0.34005
 Cu8 Cu 0.34557 0.34490 0.32078
 Cu9 Cu 0.35025 0.32090 0.35085
 Cu10 Cu 0.32116 0.34880 0.35063
 N11 N 0.33097 0.36218 0.32220
 N12 N 0.32146 0.36367 0.33382
 C13 C 0.31252 0.37640 0.33170
 C14 C 0.31664 0.38334 0.31798
 C15 C 0.32842 0.37393 0.31230
 H16 H 0.30353 0.38014 0.33948
 H17 H 0.33469 0.37542 0.30174
 N18 N 0.32293 0.33266 0.36657
 N19 N 0.33409 0.32209 0.36667
 C20 C 0.33200 0.31249 0.37865
 C21 C 0.31884 0.31719 0.38651
 C22 C 0.31342 0.33005 0.37849
 H23 H 0.33928 0.30254 0.38119
 H24 H 0.30319 0.33692 0.38101
 H25 H 0.33101 0.32989 0.33961
 H26 H 0.34463 0.34433 0.34840
 N27 N 0.36534 0.82258 -0.16565
 N28 N 0.36305 0.83144 -0.17767
 C29 C 0.37459 0.82896 -0.18774
 C30 C 0.38475 0.81788 -0.18175
 C31 C 0.37842 0.81421 -0.16761
 H32 H 0.37532 0.83472 -0.19867
 H33 H 0.38271 0.80582 -0.15942
 Cu34 Cu 0.34505 0.84514 -0.17932
 Cu35 Cu 0.35066 0.82178 -0.14881
 Cu36 Cu 0.32163 0.84966 -0.14884
 N37 N 0.33066 0.86264 -0.17765
 N38 N 0.32176 0.86449 -0.16564
 C39 C 0.31295 0.87734 -0.16751
 C40 C 0.31640 0.88399 -0.18157
 C41 C 0.32779 0.87424 -0.18763
 H42 H 0.30449 0.88130 -0.15928
 H43 H 0.33352 0.87530 -0.19853
 N44 N 0.32349 0.83358 -0.13289
 N45 N 0.33459 0.82294 -0.13286
 C46 C 0.33245 0.81329 -0.12093
 C47 C 0.31933 0.81805 -0.11302
 C48 C 0.31398 0.83098 -0.12098
 H49 H 0.33966 0.80326 -0.11847
 H50 H 0.30379 0.83788 -0.11845
 H51 H 0.33132 0.83047 -0.15973
 H52 H 0.34517 0.84511 -0.15161
 N53 N 0.86446 0.32176 -0.16592
 N54 N 0.86283 0.33109 -0.17769
 C55 C 0.87455 0.32855 -0.18753
 C56 C 0.88409 0.31695 -0.18162
 C57 C 0.87726 0.31295 -0.16786
 H58 H 0.87593 0.33465 -0.19823
 H59 H 0.88108 0.30406 -0.15995
 Cu60 Cu 0.84532 0.34536 -0.17938
 Cu61 Cu 0.84962 0.32133 -0.14922
 Cu62 Cu 0.82137 0.35007 -0.14938
 N63 N 0.83115 0.36302 -0.17798
 N64 N 0.82195 0.36490 -0.16620
 C65 C 0.81321 0.37776 -0.16831
 C66 C 0.81705 0.38439 -0.18228
 C67 C 0.82858 0.37462 -0.18804
 H68 H 0.80448 0.38169 -0.16035
 H69 H 0.83459 0.37568 -0.19879
 N70 N 0.82272 0.33392 -0.13341
 N71 N 0.83350 0.32294 -0.13338
 C72 C 0.83113 0.31342 -0.12139
 C73 C 0.81822 0.31863 -0.11344
 C74 C 0.81320 0.33166 -0.12144
 H75 H 0.83805 0.30319 -0.11890
 H76 H 0.80324 0.33888 -0.11885
 H77 H 0.83066 0.33077 -0.16032
 H78 H 0.84477 0.34483 -0.15171
 N79 N 0.86501 0.82204 0.33401
 N80 N 0.86312 0.83144 0.32232
 C81 C 0.87483 0.82925 0.31239
 C82 C 0.88465 0.81781 0.31815
 C83 C 0.87800 0.81355 0.33193
 H84 H 0.87602 0.83546 0.30173
 H85 H 0.88205 0.80465 0.33972
 Cu86 Cu 0.84529 0.84531 0.32085
 Cu87 Cu 0.85022 0.82115 0.35078
 Cu88 Cu 0.82130 0.84930 0.35086
 N89 N 0.83077 0.86262 0.32233
 N90 N 0.82152 0.86423 0.33411
 C91 C 0.81257 0.87695 0.33210
 C92 C 0.81632 0.88378 0.31819
 C93 C 0.82801 0.87426 0.31236
 H94 H 0.80379 0.88069 0.34010
 H95 H 0.83406 0.87554 0.30165
 N96 N 0.82308 0.83308 0.36672
 N97 N 0.83408 0.82233 0.36668
 C98 C 0.83194 0.81274 0.37866
 C99 C 0.81894 0.81766 0.38667
 C100 C 0.81365 0.83061 0.37871
 H101 H 0.83911 0.80268 0.38114
 H102 H 0.80357 0.83764 0.38133
 H103 H 0.83100 0.83027 0.33983
 H104 H 0.84479 0.84456 0.34853
 N105 N 0.63519 0.67814 0.33372
 N106 N 0.63710 0.66878 0.32202
 C107 C 0.62542 0.67102 0.31208
 C108 C 0.61560 0.68244 0.31784
 C109 C 0.62222 0.68666 0.33163
 H110 H 0.62428 0.66483 0.30142
 H111 H 0.61816 0.69553 0.33944
 Cu112 Cu 0.65487 0.65489 0.32055
 Cu113 Cu 0.64996 0.67896 0.35048
 Cu114 Cu 0.67899 0.65094 0.35046
 N115 N 0.66928 0.63750 0.32210
 N116 N 0.67870 0.63599 0.33376
 C117 C 0.68757 0.62320 0.33174
 C118 C 0.68349 0.61624 0.31805
 C119 C 0.67180 0.62571 0.31227
 H120 H 0.69649 0.61944 0.33959
 H121 H 0.66562 0.62428 0.30166
 N122 N 0.67721 0.66715 0.36631
 N123 N 0.66610 0.67778 0.36635
 C124 C 0.66820 0.68736 0.37833
 C125 C 0.68128 0.68256 0.38625
 C126 C 0.68667 0.66969 0.37825
 H127 H 0.66094 0.69734 0.38084
 H128 H 0.69683 0.66275 0.38082
 H129 H 0.66917 0.67000 0.33944
 H130 H 0.65549 0.65561 0.34821
 N131 N 0.63473 0.17791 -0.16603
 N132 N 0.63558 0.16737 -0.17688
 C133 C 0.62399 0.16981 -0.18690
 C134 C 0.61534 0.18257 -0.18207
 C135 C 0.62256 0.18738 -0.16877
 H136 H 0.62197 0.16281 -0.19695
 H137 H 0.61939 0.19721 -0.16171
 Cu138 Cu 0.65181 0.15151 -0.17684
 Cu139 Cu 0.64962 0.17879 -0.14935
 Cu140 Cu 0.67858 0.15051 -0.14906
 N141 N 0.66815 0.13577 -0.17658
 N142 N 0.67845 0.13533 -0.16555
 C143 C 0.68831 0.12338 -0.16803
 C144 C 0.68406 0.11586 -0.18142
 C145 C 0.67114 0.12415 -0.18649
 H146 H 0.69795 0.12062 -0.16066
 H147 H 0.66439 0.12196 -0.19663
 N148 N 0.67679 0.16689 -0.13338
 N149 N 0.66580 0.17765 -0.13348
 C150 C 0.66801 0.18735 -0.12160
 C151 C 0.68104 0.18249 -0.11362
 C152 C 0.68627 0.16946 -0.12146
 H153 H 0.66089 0.19745 -0.11917
 H154 H 0.69633 0.16243 -0.11876
 H155 H 0.66779 0.16846 -0.16083
 H156 H 0.65503 0.15535 -0.14940
 N157 N 0.13518 0.67832 -0.16633
 N158 N 0.13719 0.66902 -0.17806
 C159 C 0.12557 0.67128 -0.18807
 C160 C 0.11568 0.68266 -0.18233
 C161 C 0.12222 0.68683 -0.16848
 H162 H 0.12452 0.66514 -0.19877
 H163 H 0.11809 0.69565 -0.16066
 Cu164 Cu 0.15498 0.65514 -0.17949
 Cu165 Cu 0.14989 0.67915 -0.14952
 Cu166 Cu 0.17885 0.65109 -0.14938
 N167 N 0.16928 0.63767 -0.17779
 N168 N 0.17859 0.63612 -0.16605
 C169 C 0.18741 0.62327 -0.16797
 C170 C 0.18341 0.61633 -0.18169
 C171 C 0.17183 0.62586 -0.18759
 H172 H 0.19622 0.61947 -0.16003
 H173 H 0.16575 0.62447 -0.19826
 N174 N 0.17706 0.66734 -0.13359
 N175 N 0.16598 0.67800 -0.13360
 C176 C 0.16815 0.68768 -0.12171
 C177 C 0.18126 0.68291 -0.11380
 C178 C 0.18657 0.66995 -0.12170
 H179 H 0.16096 0.69773 -0.11928
 H180 H 0.19674 0.66302 -0.11914
 H181 H 0.16918 0.67013 -0.16045
 H182 H 0.15539 0.65573 -0.15183
 N183 N 0.13533 0.17868 0.33396
 N184 N 0.13622 0.16830 0.32298
 C185 C 0.12456 0.17081 0.31308
 C186 C 0.11586 0.18343 0.31812
 C187 C 0.12310 0.18814 0.33142
 H188 H 0.12244 0.16380 0.30308
 H189 H 0.11980 0.19779 0.33869
 Cu190 Cu 0.15214 0.15217 0.32299
 Cu191 Cu 0.15008 0.17915 0.35073
 Cu192 Cu 0.17856 0.15029 0.35102
 N193 N 0.16819 0.13614 0.32324
 N194 N 0.17836 0.13535 0.33435
 C195 C 0.18788 0.12310 0.33199
 C196 C 0.18346 0.11574 0.31865
 C197 C 0.17093 0.12440 0.31340
 H198 H 0.19742 0.11991 0.33939
 H199 H 0.16417 0.12222 0.30328
 N200 N 0.17686 0.16653 0.36688
 N201 N 0.16614 0.17757 0.36672
 C202 C 0.16848 0.18718 0.37864
 C203 C 0.18124 0.18191 0.38676
 C204 C 0.18623 0.16878 0.37895
 H205 H 0.16148 0.19736 0.38114
 H206 H 0.19627 0.16168 0.38156
 H207 H 0.16820 0.16858 0.33939
 H208 H 0.15510 0.15557 0.35050
 N209 N 0.63515 0.32209 0.66609
 N210 N 0.63605 0.33226 0.67724
 C211 C 0.62431 0.32974 0.68707
 C212 C 0.61554 0.31731 0.68181
 C213 C 0.62282 0.31276 0.66843
 H214 H 0.62230 0.33649 0.69728
 H215 H 0.61958 0.30320 0.66107
 Cu216 Cu 0.65244 0.34783 0.67800
 Cu217 Cu 0.65020 0.32149 0.64954
 Cu218 Cu 0.67895 0.34972 0.64984
 N219 N 0.66828 0.36398 0.67750
 N220 N 0.67854 0.36471 0.66645
 C221 C 0.68804 0.37689 0.66890
 C222 C 0.68352 0.38428 0.68224
 C223 C 0.67091 0.37571 0.68737
 H224 H 0.69766 0.37997 0.66161
 H225 H 0.66412 0.37786 0.69751
 N226 N 0.67746 0.33355 0.63396
 N227 N 0.66650 0.32283 0.63381
 C228 C 0.66879 0.31335 0.62177
 C229 C 0.68187 0.31831 0.61395
 C230 C 0.68702 0.33118 0.62204
 H231 H 0.66166 0.30336 0.61911
 H232 H 0.69705 0.33827 0.61949
 H233 H 0.66831 0.33151 0.66131
 H234 H 0.65533 0.34505 0.65047
 N235 N 0.63503 0.82179 1.16621
 N236 N 0.63588 0.83211 1.17724
 C237 C 0.62415 0.82963 1.18710
 C238 C 0.61546 0.81708 1.18197
 C239 C 0.62277 0.81242 1.16865
 H240 H 0.62209 0.83647 1.19724
 H241 H 0.61958 0.80279 1.16135
 Cu242 Cu 0.65223 0.84775 1.17767
 Cu243 Cu 0.64994 0.82116 1.14959
 Cu244 Cu 0.67886 0.84931 1.14967
 N245 N 0.66827 0.86373 1.17729
 N246 N 0.67862 0.86425 1.16631
 C247 C 0.68825 0.87634 1.16874
 C248 C 0.68371 0.88389 1.18198
 C249 C 0.67097 0.87550 1.18709
 H250 H 0.69792 0.87928 1.16143
 H251 H 0.66412 0.87781 1.19715
 N252 N 0.67715 0.83313 1.13381
 N253 N 0.66613 0.82245 1.13377
 C254 C 0.66833 0.81289 1.12178
 C255 C 0.68136 0.81776 1.11385
 C256 C 0.68664 0.83063 1.12186
 H257 H 0.66117 0.80288 1.11924
 H258 H 0.69674 0.83760 1.11928
 H259 H 0.66813 0.83128 1.16116
 H260 H 0.65525 0.84471 1.15014
 N261 N 0.13383 0.32304 1.16500
 N262 N 0.13539 0.33255 1.17663
 C263 C 0.12426 0.32943 1.18696
 C264 C 0.11517 0.31731 1.18152
 C265 C 0.12163 0.31358 1.16750
 H266 H 0.12286 0.33560 1.19760
 H267 H 0.11791 0.30455 1.15973
 Cu268 Cu 0.15176 0.34814 1.17712
 Cu269 Cu 0.14767 0.32380 1.14746
 Cu270 Cu 0.17897 0.34913 1.14966
 N271 N 0.16782 0.36406 1.17686
 N272 N 0.17852 0.36427 1.16620
 C273 C 0.18824 0.37626 1.16878
 C274 C 0.18340 0.38403 1.18180
 C275 C 0.17038 0.37591 1.18661
 H276 H 0.19818 0.37898 1.16175
 H277 H 0.16328 0.37844 1.19645
 N278 N 0.17699 0.33302 1.13374
 N279 N 0.16497 0.32355 1.13276
 C280 C 0.16701 0.31396 1.12077
 C281 C 0.18098 0.31759 1.11376
 C282 C 0.18696 0.32974 1.12237
 H283 H 0.15901 0.30484 1.11757
 H284 H 0.19779 0.33578 1.12053
 H285 H 0.16641 0.33139 1.16003
 H286 H 0.15542 0.34687 1.14955
 N287 N 0.13551 0.82129 0.66577
 N288 N 0.13572 0.83194 0.67652
 C289 C 0.12394 0.82928 0.68627
 C290 C 0.11581 0.81629 0.68131
 C291 C 0.12349 0.81157 0.66822
 H292 H 0.12140 0.83633 0.69617
 H293 H 0.12075 0.80167 0.66111
 Cu294 Cu 0.15173 0.84792 0.67706
 Cu295 Cu 0.15075 0.82076 0.64938
 Cu296 Cu 0.17907 0.84950 0.64974
 N297 N 0.16747 0.86417 0.67690
 N298 N 0.17830 0.86452 0.66637
 C299 C 0.18788 0.87661 0.66912
 C300 C 0.18281 0.88422 0.68213
 C301 C 0.16982 0.87595 0.68676
 H302 H 0.19772 0.87964 0.66211
 H303 H 0.16272 0.87827 0.69666
 N304 N 0.17791 0.83325 0.63392
 N305 N 0.16721 0.82224 0.63384
 C306 C 0.16967 0.81282 0.62179
 C307 C 0.18249 0.81818 0.61385
 C308 C 0.18740 0.83116 0.62190
 H309 H 0.16260 0.80282 0.61897
 H310 H 0.19735 0.83838 0.61937
 H311 H 0.16843 0.83139 0.66135
 H312 H 0.15559 0.84436 0.64974
 N313 N 0.36619 0.67713 0.66462
 N314 N 0.36536 0.66663 0.67551
 C315 C 0.37656 0.66947 0.68582
 C316 C 0.38492 0.68243 0.68114
 C317 C 0.37795 0.68699 0.66761
 H318 H 0.37839 0.66268 0.69605
 H319 H 0.38127 0.69663 0.66034
 Cu320 Cu 0.34987 0.65011 0.67526
 Cu321 Cu 0.35235 0.67680 0.64717
 Cu322 Cu 0.32106 0.65152 0.64922
 N323 N 0.33279 0.63528 0.67542
 N324 N 0.32150 0.63600 0.66540
 C325 C 0.31123 0.62455 0.66828
 C326 C 0.31632 0.61615 0.68085
 C327 C 0.33005 0.62336 0.68507
 H328 H 0.30077 0.62259 0.66177
 H329 H 0.33752 0.62018 0.69446
 N330 N 0.32289 0.66796 0.63361
 N331 N 0.33493 0.67740 0.63268
 C332 C 0.33288 0.68716 0.62081
 C333 C 0.31887 0.68368 0.61384
 C334 C 0.31288 0.67143 0.62233
 H335 H 0.34093 0.69626 0.61764
 H336 H 0.30206 0.66539 0.62041
 H337 H 0.33434 0.66826 0.66029
 H338 H 0.34457 0.65367 0.64803
 N339 N 0.36543 0.17832 1.16555
 N340 N 0.36397 0.16893 1.17730
 C341 C 0.37577 0.17144 1.18702
 C342 C 0.38519 0.18309 1.18109
 C343 C 0.37821 0.18713 1.16740
 H344 H 0.37721 0.16534 1.19771
 H345 H 0.38188 0.19609 1.15951
 Cu346 Cu 0.34651 0.15471 1.17922
 Cu347 Cu 0.35020 0.17905 1.14920
 Cu348 Cu 0.32130 0.15116 1.15002
 N349 N 0.33205 0.13735 1.17791
 N350 N 0.32207 0.13614 1.16667
 C351 C 0.31317 0.12344 1.16894
 C352 C 0.31787 0.11623 1.18231
 C353 C 0.32992 0.12541 1.18767
 H354 H 0.30397 0.11973 1.16140
 H355 H 0.33640 0.12375 1.19809
 N356 N 0.32258 0.16736 1.13414
 N357 N 0.33370 0.17792 1.13377
 C358 C 0.33134 0.18746 1.12180
 C359 C 0.31808 0.18270 1.11419
 C360 C 0.31284 0.16991 1.12240
 H361 H 0.33856 0.19738 1.11906
 H362 H 0.30263 0.16300 1.12008
 H363 H 0.33154 0.16992 1.16090
 H364 H 0.34496 0.15553 1.15161
 N365 N 0.86508 0.67859 1.16632
 N366 N 0.86448 0.66782 1.17697
 C367 C 0.87630 0.66999 1.18677
 C368 C 0.88481 0.68282 1.18200
 C369 C 0.87730 0.68798 1.16898
 H370 H 0.87839 0.66295 1.19679
 H371 H 0.88049 0.69780 1.16189
 Cu372 Cu 0.84828 0.65205 1.17702
 Cu373 Cu 0.85009 0.67956 1.14973
 Cu374 Cu 0.82131 0.65121 1.14946
 N375 N 0.83220 0.63615 1.17670
 N376 N 0.82170 0.63588 1.16587
 C377 C 0.81201 0.62383 1.16831
 C378 C 0.81665 0.61606 1.18142
 C379 C 0.82952 0.62427 1.18643
 H380 H 0.80220 0.62109 1.16114
 H381 H 0.83642 0.62181 1.19643
 N382 N 0.82289 0.66771 1.13388
 N383 N 0.83383 0.67848 1.13398
 C384 C 0.83156 0.68823 1.12214
 C385 C 0.81856 0.68339 1.11416
 C386 C 0.81338 0.67034 1.12199
 H387 H 0.83866 0.69832 1.11973
 H388 H 0.80335 0.66330 1.11931
 H389 H 0.83215 0.66894 1.16122
 H390 H 0.84491 0.65595 1.14964
 N391 N 0.86491 0.17849 0.66647
 N392 N 0.86450 0.16755 0.67697
 C393 C 0.87622 0.16985 0.68685
 C394 C 0.88442 0.18298 0.68234
 C395 C 0.87688 0.18814 0.66933
 H396 H 0.87843 0.16270 0.69677
 H397 H 0.87986 0.19815 0.66242
 Cu398 Cu 0.84832 0.15172 0.67694
 Cu399 Cu 0.84984 0.17952 0.64994
 Cu400 Cu 0.82113 0.15116 0.64955
 N401 N 0.83226 0.13577 0.67656
 N402 N 0.82164 0.13568 0.66583
 C403 C 0.81184 0.12372 0.66828
 C404 C 0.81653 0.11582 0.68130
 C405 C 0.82956 0.12385 0.68623
 H406 H 0.80190 0.12116 0.66123
 H407 H 0.83655 0.12124 0.69613
 N408 N 0.82262 0.16780 0.63408
 N409 N 0.83356 0.17856 0.63421
 C410 C 0.83138 0.18826 0.62231
 C411 C 0.81842 0.18342 0.61428
 C412 C 0.81319 0.17039 0.62211
 H413 H 0.83855 0.19830 0.61985
 H414 H 0.80323 0.16330 0.61932
 H415 H 0.83186 0.16884 0.66159
 H416 H 0.84459 0.15597 0.64978
 N417 N 0.32112 0.36405 0.66580
 N418 N 0.33121 0.36319 0.67698
 C419 C 0.32870 0.37511 0.68667
 C420 C 0.31634 0.38395 0.68131
 C421 C 0.31184 0.37652 0.66800
 H422 H 0.33542 0.37718 0.69686
 H423 H 0.30240 0.37977 0.66054
 Cu424 Cu 0.34673 0.34668 0.67798
 Cu425 Cu 0.32065 0.34891 0.64936
 Cu426 Cu 0.34927 0.32051 0.64932
 N427 N 0.36337 0.33132 0.67690
 N428 N 0.36430 0.32111 0.66578
 C429 C 0.37673 0.31184 0.66807
 C430 C 0.38405 0.31654 0.68133
 C431 C 0.37523 0.32895 0.68661
 H432 H 0.38018 0.30241 0.66061
 H433 H 0.37712 0.33558 0.69690
 N434 N 0.33303 0.32178 0.63363
 N435 N 0.32208 0.33258 0.63368
 C436 C 0.31253 0.33014 0.62179
 C437 C 0.31769 0.31716 0.61383
 C438 C 0.33074 0.31219 0.62170
 H439 H 0.30250 0.33725 0.61919
 H440 H 0.33784 0.30210 0.61917
 H441 H 0.33097 0.33063 0.66100
 H442 H 0.34421 0.34417 0.65045
 N443 N 0.32171 0.86405 0.16529
 N444 N 0.33147 0.86302 0.17674
 C445 C 0.32871 0.87481 0.18652
 C446 C 0.31653 0.88375 0.18094
 C447 C 0.31241 0.87651 0.16741
 H448 H 0.33510 0.87668 0.19695
 H449 H 0.30310 0.87983 0.15980
 Cu450 Cu 0.34666 0.84624 0.17814
 Cu451 Cu 0.32144 0.84884 0.14885
 Cu452 Cu 0.34997 0.82033 0.14932
 N453 N 0.36361 0.83126 0.17709
 N454 N 0.36480 0.82107 0.16596
 C455 C 0.37734 0.81199 0.16837
 C456 C 0.38447 0.81680 0.18170
 C457 C 0.37541 0.82908 0.18690
 H458 H 0.38101 0.80262 0.16094
 H459 H 0.37711 0.83573 0.19722
 N460 N 0.33392 0.82155 0.13343
 N461 N 0.32304 0.83242 0.13324
 C462 C 0.31363 0.82991 0.12125
 C463 C 0.31882 0.81682 0.11347
 C464 C 0.33173 0.81186 0.12155
 H465 H 0.30365 0.83703 0.11849
 H466 H 0.33882 0.80171 0.11920
 H467 H 0.33138 0.83038 0.16057
 H468 H 0.34498 0.84397 0.15055
 N469 N 0.82143 0.36397 0.16511
 N470 N 0.83106 0.36286 0.17666
 C471 C 0.82835 0.37472 0.18636
 C472 C 0.81631 0.38379 0.18063
 C473 C 0.81225 0.37655 0.16708
 H474 H 0.83463 0.37649 0.19686
 H475 H 0.80312 0.37997 0.15932
 Cu476 Cu 0.84599 0.34585 0.17834
 Cu477 Cu 0.82111 0.34870 0.14873
 Cu478 Cu 0.84983 0.32049 0.14913
 N479 N 0.86345 0.33146 0.17691
 N480 N 0.86482 0.32148 0.16562
 C481 C 0.87752 0.31258 0.16788
 C482 C 0.88455 0.31724 0.18131
 C483 C 0.87530 0.32929 0.18669
 H484 H 0.88130 0.30334 0.16034
 H485 H 0.87680 0.33572 0.19718
 N486 N 0.83363 0.32142 0.13339
 N487 N 0.82269 0.33221 0.13320
 C488 C 0.81325 0.32961 0.12125
 C489 C 0.81852 0.31654 0.11350
 C490 C 0.83147 0.31167 0.12157
 H491 H 0.80324 0.33668 0.11846
 H492 H 0.83862 0.30157 0.11922
 H493 H 0.83103 0.33032 0.16034
 H494 H 0.84468 0.34423 0.15073
 N495 N 0.82171 0.86469 0.66501
 N496 N 0.83261 0.86485 0.67546
 C497 C 0.82989 0.87675 0.68513
 C498 C 0.81656 0.88453 0.68048
 C499 C 0.81171 0.87648 0.66765
 H500 H 0.83709 0.87953 0.69482
 H501 H 0.80151 0.87882 0.66085
 Cu502 Cu 0.84922 0.84938 0.67560
 Cu503 Cu 0.82117 0.84911 0.64890
 Cu504 Cu 0.84993 0.82075 0.64931
 N505 N 0.86496 0.83303 0.67588
 N506 N 0.86513 0.82184 0.66565
 C507 C 0.87699 0.81204 0.66864
 C508 C 0.88476 0.81739 0.68142
 C509 C 0.87675 0.83074 0.68571
 H510 H 0.87977 0.80181 0.66195
 H511 H 0.87917 0.83810 0.69541
 N512 N 0.83356 0.82161 0.63370
 N513 N 0.82258 0.83238 0.63355
 C514 C 0.81307 0.82971 0.62168
 C515 C 0.81827 0.81660 0.61394
 C516 C 0.83131 0.81181 0.62192
 H517 H 0.80306 0.83678 0.61890
 H518 H 0.83851 0.80175 0.61952
 H519 H 0.83241 0.83189 0.66124
 H520 H 0.84470 0.84434 0.64860
 N521 N 0.67824 0.63613 0.66575
 N522 N 0.66844 0.63707 0.67718
 C523 C 0.67111 0.62513 0.68685
 C524 C 0.68327 0.61620 0.68118
 C525 C 0.68747 0.62360 0.66774
 H526 H 0.66471 0.62319 0.69727
 H527 H 0.69678 0.62035 0.66011
 Cu528 Cu 0.65344 0.65402 0.67874
 Cu529 Cu 0.67865 0.65149 0.64942
 Cu530 Cu 0.64997 0.67984 0.64986
 N531 N 0.63622 0.66872 0.67757
 N532 N 0.63499 0.67888 0.66641
 C533 C 0.62238 0.68788 0.66875
 C534 C 0.61524 0.68308 0.68210
 C535 C 0.62437 0.67085 0.68736
 H536 H 0.61871 0.69723 0.66129
 H537 H 0.62272 0.66423 0.69772
 N538 N 0.66618 0.67885 0.63407
 N539 N 0.67712 0.66805 0.63392
 C540 C 0.68656 0.67061 0.62196
 C541 C 0.68133 0.68368 0.61414
 C542 C 0.66837 0.68858 0.62220
 H543 H 0.69656 0.66351 0.61920
 H544 H 0.66120 0.69865 0.61979
 H545 H 0.66865 0.66988 0.66108
 H546 H 0.65512 0.65618 0.65115
 N547 N 0.67788 0.13487 0.16543
 N548 N 0.66723 0.13530 0.17614
 C549 C 0.66976 0.12350 0.18600
 C550 C 0.68272 0.11518 0.18123
 C551 C 0.68756 0.12281 0.16812
 H552 H 0.66268 0.12117 0.19590
 H553 H 0.69756 0.12004 0.16119
 Cu554 Cu 0.65117 0.15131 0.17613
 Cu555 Cu 0.67861 0.15011 0.14896
 Cu556 Cu 0.65039 0.17910 0.14906
 N557 N 0.63547 0.16769 0.17615
 N558 N 0.63522 0.17847 0.16549
 C559 C 0.62334 0.18833 0.16815
 C560 C 0.61566 0.18349 0.18121
 C561 C 0.62374 0.17033 0.18596
 H562 H 0.62072 0.19845 0.16124
 H563 H 0.62125 0.16317 0.19580
 N564 N 0.66676 0.17771 0.13342
 N565 N 0.67741 0.16660 0.13331
 C566 C 0.68690 0.16884 0.12131
 C567 C 0.68204 0.18203 0.11350
 C568 C 0.66924 0.18733 0.12151
 H569 H 0.69683 0.16161 0.11865
 H570 H 0.66222 0.19746 0.11887
 H571 H 0.66811 0.16810 0.16089
 H572 H 0.65533 0.15557 0.14894
 N573 N 0.17837 0.63585 0.16524
 N574 N 0.16871 0.63682 0.17678
 C575 C 0.17142 0.62485 0.18639
 C576 C 0.18346 0.61586 0.18057
 C577 C 0.18756 0.62326 0.16711
 H578 H 0.16512 0.62292 0.19687
 H579 H 0.19677 0.61998 0.15938
 Cu580 Cu 0.15378 0.65380 0.17861
 Cu581 Cu 0.17866 0.65122 0.14895
 Cu582 Cu 0.15004 0.67954 0.14963
 N583 N 0.13650 0.66844 0.17746
 N584 N 0.13517 0.67856 0.16627
 C585 C 0.12254 0.68752 0.16867
 C586 C 0.11550 0.68273 0.18207
 C587 C 0.12471 0.67056 0.18732
 H588 H 0.11878 0.69684 0.16120
 H589 H 0.12317 0.66398 0.19772
 N590 N 0.16615 0.67859 0.13375
 N591 N 0.17706 0.66778 0.13350
 C592 C 0.18646 0.67036 0.12151
 C593 C 0.18122 0.68346 0.11377
 C594 C 0.16829 0.68835 0.12190
 H595 H 0.19643 0.66325 0.11870
 H596 H 0.16115 0.69847 0.11957
 H597 H 0.16881 0.66966 0.16081
 H598 H 0.15515 0.65594 0.15104
 N599 N 0.17837 0.13600 0.66653
 N600 N 0.16884 0.13752 0.67812
 C601 C 0.17133 0.12577 0.68804
 C602 C 0.18311 0.11633 0.68238
 C603 C 0.18727 0.12325 0.66868
 H604 H 0.16506 0.12432 0.69861
 H605 H 0.19629 0.11951 0.66093
 Cu606 Cu 0.15438 0.15489 0.67948
 Cu607 Cu 0.17876 0.15090 0.64976
 Cu608 Cu 0.14980 0.17900 0.64945
 N609 N 0.13666 0.16887 0.67783
 N610 N 0.13492 0.17827 0.66613
 C611 C 0.12199 0.18688 0.66813
 C612 C 0.11520 0.18266 0.68187
 C613 C 0.12490 0.17115 0.68768
 H614 H 0.11806 0.19580 0.66030
 H615 H 0.12362 0.16495 0.69833
 N616 N 0.16604 0.17772 0.63366
 N617 N 0.17711 0.16704 0.63382
 C618 C 0.18663 0.16948 0.62189
 C619 C 0.18131 0.18231 0.61377
 C620 C 0.16821 0.18720 0.62161
 H621 H 0.19677 0.16248 0.61938
 H622 H 0.16100 0.19720 0.61897
 H623 H 0.16888 0.16995 0.66065
 H624 H 0.15523 0.15561 0.65182
 N625 N 0.32193 0.63564 0.33321
 N626 N 0.33314 0.63571 0.32305
 C627 C 0.33079 0.62398 0.31310
 C628 C 0.31733 0.61616 0.31721
 C629 C 0.31205 0.62394 0.33003
 H630 H 0.33818 0.62145 0.30344
 H631 H 0.30178 0.62131 0.33664
 Cu632 Cu 0.34947 0.65136 0.32364
 Cu633 Cu 0.32093 0.65077 0.34973
 Cu634 Cu 0.34988 0.67882 0.35095
 N635 N 0.36539 0.66747 0.32419
 N636 N 0.36552 0.67810 0.33496
 C637 C 0.37745 0.68792 0.33258
 C638 C 0.38529 0.68325 0.31957
 C639 C 0.37727 0.67019 0.31456
 H640 H 0.37995 0.69796 0.33961
 H641 H 0.37988 0.66320 0.30462
 N642 N 0.33302 0.67764 0.36612
 N643 N 0.32193 0.66705 0.36561
 C644 C 0.31210 0.66947 0.37732
 C645 C 0.31727 0.68215 0.38567
 C646 C 0.33055 0.68704 0.37817
 H647 H 0.30191 0.66250 0.37959
 H648 H 0.33772 0.69694 0.38106
 H649 H 0.33243 0.66847 0.33836
 H650 H 0.34438 0.65539 0.35065
 N651 N 0.32195 0.13551 0.83431
 N652 N 0.33289 0.13553 0.82387
 C653 C 0.33027 0.12380 0.81401
 C654 C 0.31698 0.11593 0.81854
 C655 C 0.31203 0.12373 0.83149
 H656 H 0.33746 0.12119 0.80427
 H657 H 0.30180 0.12130 0.83822
 Cu658 Cu 0.34905 0.15135 0.82419
 Cu659 Cu 0.32109 0.15093 0.85063
 Cu660 Cu 0.34970 0.17954 0.85055
 N661 N 0.36500 0.16739 0.82391
 N662 N 0.36502 0.17854 0.83419
 C663 C 0.37684 0.18837 0.83131
 C664 C 0.38469 0.18312 0.81852
 C665 C 0.37681 0.16975 0.81414
 H666 H 0.37950 0.19857 0.83807
 H667 H 0.37931 0.16246 0.80442
 N668 N 0.33314 0.17846 0.86608
 N669 N 0.32229 0.16759 0.86612
 C670 C 0.31275 0.17005 0.87805
 C671 C 0.31782 0.18308 0.88594
 C672 C 0.33078 0.18809 0.87798
 H673 H 0.30287 0.16284 0.88081
 H674 H 0.33785 0.19816 0.88054
 H675 H 0.33213 0.16852 0.83875
 H676 H 0.34455 0.15597 0.85120
 N677 N 0.82206 0.63598 0.83373
 N678 N 0.83286 0.63637 0.82315
 C679 C 0.83047 0.62458 0.81329
 C680 C 0.81743 0.61637 0.81788
 C681 C 0.81239 0.62398 0.83091
 H682 H 0.83750 0.62234 0.80333
 H683 H 0.80246 0.62100 0.83785
 Cu684 Cu 0.84886 0.65236 0.82305
 Cu685 Cu 0.82129 0.65112 0.85026
 Cu686 Cu 0.85021 0.67919 0.85101
 N687 N 0.86524 0.66796 0.82395
 N688 N 0.86572 0.67837 0.83492
 C689 C 0.87800 0.68780 0.83271
 C690 C 0.88568 0.68308 0.81962
 C691 C 0.87721 0.67042 0.81438
 H692 H 0.88087 0.69759 0.83993
 H693 H 0.87953 0.66356 0.80431
 N694 N 0.83352 0.67812 0.86633
 N695 N 0.82251 0.66743 0.86607
 C696 C 0.81282 0.66990 0.87788
 C697 C 0.81795 0.68277 0.88600
 C698 C 0.83112 0.68765 0.87830
 H699 H 0.80275 0.66283 0.88037
 H700 H 0.83831 0.69758 0.88104
 H701 H 0.83239 0.66896 0.83885
 H702 H 0.84490 0.65559 0.85038
 N703 N 0.82176 0.13517 0.33448
 N704 N 0.83212 0.13574 0.32351
 C705 C 0.82959 0.12385 0.31379
 C706 C 0.81693 0.11535 0.31893
 C707 C 0.81229 0.12294 0.33212
 H708 H 0.83643 0.12160 0.30372
 H709 H 0.80260 0.11997 0.33939
 Cu710 Cu 0.84769 0.15213 0.32283
 Cu711 Cu 0.82113 0.15046 0.35088
 Cu712 Cu 0.84900 0.17964 0.35016
 N713 N 0.86354 0.16826 0.32285
 N714 N 0.86390 0.17908 0.33346
 C715 C 0.87587 0.18876 0.33073
 C716 C 0.88352 0.18374 0.31773
 C717 C 0.87534 0.17067 0.31306
 H718 H 0.87891 0.19860 0.33783
 H719 H 0.87770 0.16355 0.30317
 N720 N 0.83294 0.17817 0.36610
 N721 N 0.82242 0.16699 0.36643
 C722 C 0.81313 0.16919 0.37859
 C723 C 0.81799 0.18242 0.38629
 C724 C 0.83058 0.18780 0.37801
 H725 H 0.80331 0.16191 0.38143
 H726 H 0.83751 0.19799 0.38046
 H727 H 0.83109 0.16855 0.33875
 H728 H 0.84442 0.15592 0.35017
 N729 N 0.67827 0.36427 0.33394
 N730 N 0.66757 0.36417 0.32328
 C731 C 0.67038 0.37589 0.31342
 C732 C 0.68355 0.38382 0.31816
 C733 C 0.68822 0.37605 0.33125
 H734 H 0.66330 0.37850 0.30359
 H735 H 0.69824 0.37859 0.33822
 Cu736 Cu 0.65106 0.34870 0.32338
 Cu737 Cu 0.67862 0.34907 0.35045
 Cu738 Cu 0.64954 0.32113 0.35062
 N739 N 0.63496 0.33281 0.32345
 N740 N 0.63443 0.32211 0.33418
 C741 C 0.62237 0.31255 0.33156
 C742 C 0.61486 0.31746 0.31845
 C743 C 0.62323 0.33038 0.31361
 H744 H 0.61951 0.30255 0.33855
 H745 H 0.62095 0.33749 0.30369
 N746 N 0.66590 0.32209 0.36625
 N747 N 0.67699 0.33270 0.36618
 C748 C 0.68646 0.33011 0.37813
 C749 C 0.68109 0.31726 0.38614
 C750 C 0.66802 0.31250 0.37823
 H751 H 0.69656 0.33707 0.38078
 H752 H 0.66077 0.30257 0.38082
 H753 H 0.66746 0.33143 0.33864
 H754 H 0.65510 0.34453 0.35057
 N755 N 0.67784 0.86437 0.83403
 N756 N 0.66724 0.86417 0.82329
 C757 C 0.66997 0.87601 0.81351
 C758 C 0.68296 0.88411 0.81843
 C759 C 0.68762 0.87632 0.83152
 H760 H 0.66301 0.87852 0.80357
 H761 H 0.69750 0.87898 0.83862
 Cu762 Cu 0.65095 0.84846 0.82317
 Cu763 Cu 0.67827 0.84906 0.85045
 Cu764 Cu 0.64921 0.82105 0.85056
 N765 N 0.63475 0.83264 0.82327
 N766 N 0.63406 0.82208 0.83412
 C767 C 0.62188 0.81264 0.83156
 C768 C 0.61449 0.81746 0.81834
 C769 C 0.62304 0.83020 0.81338
 H770 H 0.61884 0.80279 0.83867
 H771 H 0.62090 0.83718 0.80333
 N772 N 0.66564 0.82198 0.86619
 N773 N 0.67672 0.83260 0.86611
 C774 C 0.68624 0.83000 0.87802
 C775 C 0.68093 0.81711 0.88602
 C776 C 0.66784 0.81235 0.87814
 H777 H 0.69633 0.83697 0.88062
 H778 H 0.66059 0.80241 0.88073
 H779 H 0.66715 0.83135 0.83876
 H780 H 0.65469 0.84450 0.85050
 N781 N 0.17838 0.36457 0.83413
 N782 N 0.16770 0.36448 0.82345
 C783 C 0.17045 0.37627 0.81367
 C784 C 0.18359 0.38422 0.81845
 C785 C 0.18829 0.37640 0.83150
 H786 H 0.16339 0.37890 0.80383
 H787 H 0.19829 0.37894 0.83848
 Cu788 Cu 0.15131 0.34888 0.82343
 Cu789 Cu 0.17878 0.34927 0.85057
 Cu790 Cu 0.14969 0.32130 0.85060
 N791 N 0.13517 0.33301 0.82339
 N792 N 0.13456 0.32233 0.83413
 C793 C 0.12250 0.31277 0.83142
 C794 C 0.11509 0.31769 0.81824
 C795 C 0.12350 0.33060 0.81347
 H796 H 0.11957 0.30278 0.83837
 H797 H 0.12128 0.33771 0.80353
 N798 N 0.16607 0.32220 0.86625
 N799 N 0.17717 0.33280 0.86621
 C800 C 0.18670 0.33013 0.87810
 C801 C 0.18137 0.31722 0.88606
 C802 C 0.16826 0.31252 0.87817
 H803 H 0.19684 0.33704 0.88070
 H804 H 0.16102 0.30256 0.88071
 H805 H 0.16769 0.33169 0.83872
 H806 H 0.15527 0.34477 0.85062
 N807 N 0.17831 0.86386 0.33242
 N808 N 0.16840 0.86250 0.32113
 C809 C 0.17057 0.87431 0.31124
 C810 C 0.18257 0.88357 0.31656
 C811 C 0.18721 0.87654 0.33004
 H812 H 0.16413 0.87583 0.30077
 H813 H 0.19636 0.88036 0.33759
 Cu814 Cu 0.15395 0.84516 0.32003
 Cu815 Cu 0.17893 0.84902 0.34926
 Cu816 Cu 0.14981 0.82123 0.35020
 N817 N 0.13628 0.83127 0.32196
 N818 N 0.13465 0.82199 0.33377
 C819 C 0.12177 0.81334 0.33195
 C820 C 0.11490 0.81738 0.31821
 C821 C 0.12448 0.82885 0.31221
 H822 H 0.11797 0.80445 0.33986
 H823 H 0.12314 0.83489 0.30148
 N824 N 0.16629 0.82243 0.36570
 N825 N 0.17746 0.83295 0.36530
 C826 C 0.18712 0.83046 0.37712
 C827 C 0.18179 0.81776 0.38540
 C828 C 0.16855 0.81299 0.37778
 H829 H 0.19734 0.83736 0.37945
 H830 H 0.16129 0.80312 0.38058
 H831 H 0.16873 0.83005 0.33864
 H832 H 0.15534 0.84458 0.34767
 C833 C 0.25774 0.96712 0.23737
 C834 C 0.24709 0.95924 0.24659
 C835 C 0.23780 0.96709 0.25717
 C836 C 0.23895 0.98354 0.25847
 C837 C 0.24958 0.99180 0.24906
 C838 C 0.25907 0.98356 0.23852
 C839 C 0.26943 0.99200 0.22929
 C840 C 0.27066 1.00817 0.23051
 C841 C 0.26128 1.01661 0.24072
 C842 C 0.25066 1.00834 0.25013
 C843 C 0.22960 0.99197 0.26871
 C844 C 0.23082 1.00813 0.26992
 C845 C 0.24114 1.01657 0.26064
 C846 C 0.24237 1.03302 0.26172
 C847 C 0.25298 1.04093 0.25246
 C848 C 0.26234 1.03308 0.24193
 H849 H 0.27669 0.98619 0.22097
 H850 H 0.27909 1.01398 0.22335
 H851 H 0.22118 0.98617 0.27588
 H852 H 0.22356 1.01392 0.27824
 H853 H 0.24632 0.94661 0.24579
 H854 H 0.25366 1.05357 0.25318
 C855 C 0.25849 0.53346 0.73907
 C856 C 0.24946 0.54126 0.74990
 C857 C 0.24061 0.53317 0.76065
 C858 C 0.24078 0.51666 0.76074
 C859 C 0.24983 0.50851 0.74979
 C860 C 0.25869 0.51693 0.73887
 C861 C 0.26724 0.50859 0.72790
 C862 C 0.26745 0.49232 0.72789
 C863 C 0.25907 0.48376 0.73880
 C864 C 0.25001 0.49192 0.74974
 C865 C 0.23238 0.50809 0.77164
 C866 C 0.23255 0.49183 0.77158
 C867 C 0.24112 0.48351 0.76063
 C868 C 0.24129 0.46698 0.76042
 C869 C 0.25035 0.45916 0.74964
 C870 C 0.25922 0.46724 0.73890
 H871 H 0.27377 0.51457 0.71914
 H872 H 0.27418 0.48651 0.71915
 H873 H 0.22566 0.51389 0.78039
 H874 H 0.22596 0.48584 0.78031
 H875 H 0.24932 0.55394 0.74997
 H876 H 0.25048 0.44648 0.74958
 C877 C 0.75910 -0.03344 0.26098
 C878 C 0.75004 -0.04131 0.25028
 C879 C 0.74100 -0.03327 0.23962
 C880 C 0.74097 -0.01676 0.23953
 C881 C 0.75004 -0.00855 0.25038
 C882 C 0.75914 -0.01691 0.26117
 C883 C 0.76777 -0.00853 0.27200
 C884 C 0.76776 0.00774 0.27205
 C885 C 0.75912 0.01626 0.26127
 C886 C 0.75002 0.00804 0.25044
 C887 C 0.73237 -0.00825 0.22872
 C888 C 0.73233 0.00802 0.22880
 C889 C 0.74090 0.01639 0.23967
 C890 C 0.74088 0.03292 0.23989
 C891 C 0.74999 0.04080 0.25055
 C892 C 0.75911 0.03278 0.26117
 H893 H 0.77454 -0.01449 0.28062
 H894 H 0.77452 0.01358 0.28072
 H895 H 0.72567 -0.01409 0.22001
 H896 H 0.72558 0.01396 0.22015
 H897 H 0.75003 -0.05399 0.25023
 H898 H 0.75000 0.05348 0.25058
 C899 C 0.74273 0.53337 0.73762
 C900 C 0.75266 0.54136 0.74745
 C901 C 0.76202 0.53352 0.75799
 C902 C 0.76148 0.51700 0.75881
 C903 C 0.75157 0.50865 0.74877
 C904 C 0.74220 0.51686 0.73810
 C905 C 0.73289 0.50834 0.72794
 C906 C 0.73255 0.49208 0.72839
 C907 C 0.74148 0.48372 0.73904
 C908 C 0.75119 0.49206 0.74926
 C909 C 0.77077 0.50859 0.76913
 C910 C 0.77020 0.49234 0.76978
 C911 C 0.76063 0.48383 0.75985
 C912 C 0.76013 0.46730 0.76025
 C913 C 0.75048 0.45932 0.75013
 C914 C 0.74126 0.46721 0.73953
 H915 H 0.72591 0.51415 0.71939
 H916 H 0.72529 0.48613 0.72019
 H917 H 0.77864 0.51449 0.77680
 H918 H 0.77742 0.48651 0.77813
 H919 H 0.75294 0.55404 0.74706
 H920 H 0.75023 0.44664 0.75043
 C921 C 0.24252 0.53290 0.23690
 C922 C 0.25242 0.54102 0.24667
 C923 C 0.26162 0.53331 0.25744
 C924 C 0.26102 0.51681 0.25850
 C925 C 0.25117 0.50834 0.24851
 C926 C 0.24191 0.51641 0.23765
 C927 C 0.23266 0.50776 0.22755
 C928 C 0.23229 0.49151 0.22822
 C929 C 0.24111 0.48329 0.23905
 C930 C 0.25075 0.49176 0.24923
 C931 C 0.27025 0.50854 0.26898
 C932 C 0.26966 0.49230 0.26985
 C933 C 0.26012 0.48367 0.25999
 C934 C 0.25962 0.46715 0.26060
 C935 C 0.25002 0.45903 0.25053
 C936 C 0.24089 0.46678 0.23976
 H937 H 0.22576 0.51345 0.21886
 H938 H 0.22510 0.48546 0.22004
 H939 H 0.27811 0.51453 0.27659
 H940 H 0.27683 0.48657 0.27829
 H941 H 0.25278 0.55369 0.24605
 H942 H 0.24979 0.44636 0.25097
 C943 C 0.74071 0.96692 0.76068
 C944 C 0.74950 0.95894 0.74978
 C945 C 0.75835 0.96687 0.73891
 C946 C 0.75837 0.98340 0.73877
 C947 C 0.74960 0.99171 0.74984
 C948 C 0.74078 0.98344 0.76088
 C949 C 0.73252 0.99190 0.77197
 C950 C 0.73260 1.00817 0.77203
 C951 C 0.74090 1.01661 0.76097
 C952 C 0.74964 1.00831 0.74987
 C953 C 0.76667 0.99184 0.72770
 C954 C 0.76671 1.00811 0.72773
 C955 C 0.75846 1.01656 0.73882
 C956 C 0.75853 1.03308 0.73900
 C957 C 0.74979 1.04106 0.74993
 C958 C 0.74099 1.03315 0.76085
 H959 H 0.72601 0.98601 0.78082
 H960 H 0.72615 1.01406 0.78092
 H961 H 0.77312 0.98594 0.71882
 H962 H 0.77322 1.01400 0.71889
 H963 H 0.74946 0.94626 0.74977
 H964 H 0.74987 1.05374 0.74995
 C965 C 0.74075 0.53294 0.26045
 C966 C 0.74974 0.54097 0.24979
 C967 C 0.75878 0.53312 0.23901
 C968 C 0.75880 0.51659 0.23871
 C969 C 0.74979 0.50822 0.24953
 C970 C 0.74078 0.51641 0.26050
 C971 C 0.73231 0.50788 0.27136
 C972 C 0.73235 0.49161 0.27126
 C973 C 0.74083 0.48325 0.26025
 C974 C 0.74979 0.49162 0.24939
 C975 C 0.76733 0.50823 0.22775
 C976 C 0.76730 0.49196 0.22758
 C977 C 0.75876 0.48342 0.23839
 C978 C 0.75870 0.46690 0.23838
 C979 C 0.74977 0.45886 0.24910
 C980 C 0.74087 0.46672 0.25998
 H981 H 0.72566 0.51371 0.28014
 H982 H 0.72574 0.48565 0.27997
 H983 H 0.77403 0.51420 0.21909
 H984 H 0.77397 0.48612 0.21882
 H985 H 0.74970 0.55366 0.24988
 H986 H 0.74978 0.44618 0.24900
 C987 C 0.25803 -0.03320 0.76216
 C988 C 0.24808 -0.04113 0.75228
 C989 C 0.23877 -0.03321 0.74176
 C990 C 0.23938 -0.01670 0.74100
 C991 C 0.24932 -0.00842 0.75106
 C992 C 0.25865 -0.01669 0.76172
 C993 C 0.26800 -0.00821 0.77189
 C994 C 0.26837 0.00805 0.77150
 C995 C 0.25944 0.01648 0.76090
 C996 C 0.24974 0.00818 0.75063
 C997 C 0.23009 -0.00824 0.73072
 C998 C 0.23071 0.00800 0.73010
 C999 C 0.24031 0.01645 0.74005
 C1000 C 0.24083 0.03297 0.73970
 C1001 C 0.25046 0.04092 0.74985
 C1002 C 0.25962 0.03301 0.76049
 H1003 H 0.27498 -0.01408 0.78041
 H1004 H 0.27567 0.01397 0.77969
 H1005 H 0.22216 -0.01407 0.72306
 H1006 H 0.22350 0.01387 0.72178
 H1007 H 0.24773 -0.05380 0.75265
 H1008 H 0.25069 0.05360 0.74959
 C1009 C 0.26010 0.24037 0.96788
 C1010 C 0.24918 0.24946 0.96013
 C1011 C 0.23829 0.25859 0.96787
 C1012 C 0.23814 0.25861 0.98398
 C1013 C 0.24918 0.24945 0.99206
 C1014 C 0.26024 0.24032 0.98399
 C1015 C 0.27128 0.23163 0.99222
 C1016 C 0.27125 0.23159 1.00808
 C1017 C 0.26020 0.24026 1.01631
 C1018 C 0.24916 0.24943 1.00824
 C1019 C 0.22709 0.26729 0.99221
 C1020 C 0.22709 0.26728 1.00807
 C1021 C 0.23813 0.25859 1.01630
 C1022 C 0.23829 0.25857 1.03241
 C1023 C 0.24916 0.24942 1.04016
 C1024 C 0.26005 0.24028 1.03242
 H1025 H 0.28014 0.22486 0.98647
 H1026 H 0.28007 0.22477 1.01384
 H1027 H 0.21826 0.27410 0.98646
 H1028 H 0.21825 0.27407 1.01383
 H1029 H 0.24919 0.24946 0.94777
 H1030 H 0.24918 0.24945 1.05253
 C1031 C 0.25990 0.74032 0.46743
 C1032 C 0.24910 0.74960 0.45973
 C1033 C 0.23898 0.75960 0.46748
 C1034 C 0.23957 0.76036 0.48357
 C1035 C 0.25037 0.75086 0.49161
 C1036 C 0.26060 0.74082 0.48352
 C1037 C 0.27147 0.73185 0.49168
 C1038 C 0.27214 0.73252 0.50752
 C1039 C 0.26197 0.74217 0.51580
 C1040 C 0.25106 0.75155 0.50777
 C1041 C 0.22962 0.77025 0.49183
 C1042 C 0.23047 0.77111 0.50764
 C1043 C 0.24101 0.76180 0.51585
 C1044 C 0.24205 0.76266 0.53192
 C1045 C 0.25282 0.75332 0.53961
 C1046 C 0.26268 0.74305 0.53188
 H1047 H 0.27966 0.72432 0.48588
 H1048 H 0.28088 0.72553 0.51320
 H1049 H 0.22110 0.77749 0.48613
 H1050 H 0.22279 0.77923 0.51334
 H1051 H 0.24869 0.74917 0.44738
 H1052 H 0.25336 0.75387 0.55195
 C1053 C 0.23912 0.74127 -0.03256
 C1054 C 0.25015 0.75027 -0.04024
 C1055 C 0.26118 0.75911 -0.03241
 C1056 C 0.26135 0.75894 -0.01630
 C1057 C 0.25012 0.75000 -0.00830
 C1058 C 0.23891 0.74116 -0.01645
 C1059 C 0.22766 0.73275 -0.00827
 C1060 C 0.22760 0.73269 0.00759
 C1061 C 0.23880 0.74102 0.01589
 C1062 C 0.25007 0.74991 0.00788
 C1063 C 0.27259 0.76722 -0.00801
 C1064 C 0.27255 0.76713 0.00785
 C1065 C 0.26128 0.75874 0.01602
 C1066 C 0.26105 0.75869 0.03213
 C1067 C 0.24994 0.74981 0.03981
 C1068 C 0.23888 0.74100 0.03200
 H1069 H 0.21868 0.72624 -0.01407
 H1070 H 0.21858 0.72612 0.01329
 H1071 H 0.28162 0.77379 -0.01371
 H1072 H 0.28154 0.77364 0.01364
 H1073 H 0.25016 0.75039 -0.05260
 H1074 H 0.24987 0.74979 0.05217
 C1075 C 0.26005 0.25941 0.53228
 C1076 C 0.24911 0.25032 0.53998
 C1077 C 0.23875 0.24068 0.53221
 C1078 C 0.23918 0.24011 0.51610
 C1079 C 0.25010 0.24943 0.50807
 C1080 C 0.26060 0.25910 0.51618
 C1081 C 0.27161 0.26786 0.50802
 C1082 C 0.27214 0.26738 0.49218
 C1083 C 0.26168 0.25811 0.48388
 C1084 C 0.25065 0.24891 0.49189
 C1085 C 0.22897 0.23056 0.50783
 C1086 C 0.22966 0.22987 0.49200
 C1087 C 0.24033 0.23900 0.48379
 C1088 C 0.24124 0.23826 0.46770
 C1089 C 0.25211 0.24745 0.46002
 C1090 C 0.26221 0.25741 0.46778
 H1091 H 0.28004 0.27507 0.51383
 H1092 H 0.28099 0.27419 0.48651
 H1093 H 0.22036 0.22346 0.51353
 H1094 H 0.22176 0.22203 0.48628
 H1095 H 0.24880 0.25063 0.55234
 H1096 H 0.25254 0.24704 0.44767
 C1097 C 0.76021 0.74067 0.96777
 C1098 C 0.74926 0.74977 0.96005
 C1099 C 0.73840 0.75892 0.96783
 C1100 C 0.73838 0.75903 0.98394
 C1101 C 0.74951 0.74993 0.99198
 C1102 C 0.76048 0.74073 0.98387
 C1103 C 0.77160 0.73210 0.99206
 C1104 C 0.77175 0.73220 1.00792
 C1105 C 0.76080 0.74095 1.01620
 C1106 C 0.74966 0.75005 1.00816
 C1107 C 0.72742 0.76777 0.99222
 C1108 C 0.72759 0.76790 1.00808
 C1109 C 0.73870 0.75927 1.01627
 C1110 C 0.73901 0.75935 1.03238
 C1111 C 0.74999 0.75030 1.04009
 C1112 C 0.76083 0.74112 1.03231
 H1113 H 0.78039 0.72527 0.98627
 H1114 H 0.78063 0.72543 1.01363
 H1115 H 0.71853 0.77453 0.98651
 H1116 H 0.71883 0.77477 1.01387
 H1117 H 0.74920 0.74974 0.94769
 H1118 H 0.75011 0.75039 1.05245
 C1119 C 0.75852 0.23877 0.46787
 C1120 C 0.74767 0.24800 0.46016
 C1121 C 0.73762 0.25809 0.46789
 C1122 C 0.73820 0.25888 0.48398
 C1123 C 0.74923 0.24966 0.49202
 C1124 C 0.75950 0.23962 0.48394
 C1125 C 0.77022 0.23052 0.49216
 C1126 C 0.77103 0.23140 0.50797
 C1127 C 0.76083 0.24104 0.51623
 C1128 C 0.74985 0.25031 0.50818
 C1129 C 0.72779 0.26828 0.49225
 C1130 C 0.72835 0.26886 0.50809
 C1131 C 0.73938 0.26011 0.51627
 C1132 C 0.74001 0.26059 0.53236
 C1133 C 0.75099 0.25153 0.54007
 C1134 C 0.76134 0.24177 0.53233
 H1135 H 0.77809 0.22259 0.48646
 H1136 H 0.77974 0.22439 0.51367
 H1137 H 0.71896 0.27513 0.48657
 H1138 H 0.71995 0.27616 0.51388
 H1139 H 0.74721 0.24751 0.44782
 H1140 H 0.75134 0.25193 0.55243
 C1141 C 0.76004 0.25990 -0.03266
 C1142 C 0.74912 0.25079 -0.04032
 C1143 C 0.73886 0.24102 -0.03252
 C1144 C 0.73936 0.24034 -0.01643
 C1145 C 0.75026 0.24966 -0.00843
 C1146 C 0.76068 0.25945 -0.01657
 C1147 C 0.77167 0.26822 -0.00844
 C1148 C 0.77222 0.26770 0.00740
 C1149 C 0.76182 0.25835 0.01571
 C1150 C 0.75084 0.24910 0.00774
 C1151 C 0.72919 0.23073 -0.00812
 C1152 C 0.72993 0.22999 0.00771
 C1153 C 0.74058 0.23914 0.01588
 C1154 C 0.74152 0.23840 0.03196
 C1155 C 0.75234 0.24765 0.03960
 C1156 C 0.76237 0.25766 0.03180
 H1157 H 0.78005 0.27550 -0.01425
 H1158 H 0.78103 0.27456 0.01304
 H1159 H 0.72056 0.22365 -0.01378
 H1160 H 0.72204 0.22213 0.01346
 H1161 H 0.74872 0.25121 -0.05267
 H1162 H 0.75281 0.24722 0.05194
 C1163 C 0.73893 0.74102 0.46751
 C1164 C 0.74990 0.75004 0.45979
 C1165 C 0.76087 0.75902 0.46756
 C1166 C 0.76104 0.75895 0.48367
 C1167 C 0.74988 0.74996 0.49172
 C1168 C 0.73874 0.74100 0.48363
 C1169 C 0.72754 0.73255 0.49185
 C1170 C 0.72749 0.73257 0.50772
 C1171 C 0.73867 0.74099 0.51596
 C1172 C 0.74987 0.74993 0.50790
 C1173 C 0.77223 0.76736 0.49192
 C1174 C 0.77224 0.76729 0.50778
 C1175 C 0.76106 0.75883 0.51599
 C1176 C 0.76091 0.75877 0.53211
 C1177 C 0.74985 0.74986 0.53983
 C1178 C 0.73880 0.74100 0.53207
 H1179 H 0.71861 0.72594 0.48610
 H1180 H 0.71852 0.72598 0.51346
 H1181 H 0.78118 0.77399 0.48618
 H1182 H 0.78120 0.77386 0.51354
 H1183 H 0.74992 0.75008 0.44742
 H1184 H 0.74983 0.74984 0.55220
 C1185 C 1.03280 0.24023 0.26005
 C1186 C 1.04064 0.24989 0.24979
 C1187 C 1.03270 0.25981 0.23982
 C1188 C 1.01628 0.26027 0.24013
 C1189 C 1.00809 0.25025 0.25023
 C1190 C 1.01637 0.24012 0.26017
 C1191 C 1.00803 0.23031 0.27006
 C1192 C 0.99186 0.23018 0.26998
 C1193 C 0.98342 0.24020 0.26036
 C1194 C 0.99159 0.25038 0.25040
 C1195 C 1.00783 0.27033 0.23054
 C1196 C 0.99167 0.27070 0.23095
 C1197 C 0.98330 0.26066 0.24060
 C1198 C 0.96686 0.26071 0.24088
 C1199 C 0.95904 0.25046 0.25060
 C1200 C 0.96700 0.24021 0.26023
 H1201 H 1.01391 0.22255 0.27790
 H1202 H 0.98606 0.22214 0.27759
 H1203 H 1.01364 0.27808 0.22265
 H1204 H 0.98581 0.27895 0.22358
 H1205 H 1.05325 0.24974 0.24962
 H1206 H 0.94644 0.25041 0.25063
 C1207 C 0.46700 0.26012 0.73982
 C1208 C 0.45913 0.24995 0.74957
 C1209 C 0.46704 0.23975 0.75929
 C1210 C 0.48347 0.23973 0.75944
 C1211 C 0.49168 0.24986 0.74946
 C1212 C 0.48343 0.26006 0.73956
 C1213 C 0.49181 0.27002 0.72984
 C1214 C 0.50797 0.26974 0.72956
 C1215 C 0.51639 0.25984 0.73932
 C1216 C 0.50818 0.24981 0.74939
 C1217 C 0.49190 0.22975 0.76912
 C1218 C 0.50807 0.22991 0.76926
 C1219 C 0.51644 0.23974 0.75942
 C1220 C 0.53287 0.23997 0.75942
 C1221 C 0.54074 0.24974 0.74929
 C1222 C 0.53282 0.25954 0.73921
 H1223 H 0.48596 0.27813 0.72231
 H1224 H 0.51379 0.27744 0.72163
 H1225 H 0.48607 0.22173 0.77674
 H1226 H 0.51394 0.22220 0.77716
 H1227 H 0.44653 0.24997 0.74961
 H1228 H 0.55334 0.24973 0.74928
 C1229 C 0.03294 0.26005 0.75990
 C1230 C 0.04074 0.25058 0.74942
 C1231 C 0.03275 0.24073 0.73948
 C1232 C 0.01633 0.24028 0.73990
 C1233 C 0.00820 0.24996 0.75036
 C1234 C 0.01652 0.25988 0.76041
 C1235 C 0.00824 0.26905 0.77093
 C1236 C -0.00792 0.26872 0.77141
 C1237 C -0.01641 0.25915 0.76145
 C1238 C -0.00829 0.24959 0.75088
 C1239 C 0.00785 0.23051 0.73012
 C1240 C -0.00829 0.22997 0.73079
 C1241 C -0.01661 0.23947 0.74100
 C1242 C -0.03302 0.23892 0.74187
 C1243 C -0.04078 0.24843 0.75234
 C1244 C -0.03280 0.25855 0.76202
 H1245 H 0.01418 0.27650 0.77898
 H1246 H -0.01368 0.27591 0.77983
 H1247 H 0.01362 0.22312 0.72188
 H1248 H -0.01416 0.22194 0.72325
 H1249 H 0.05333 0.25077 0.74912
 H1250 H -0.05337 0.24810 0.75282
 C1251 C 0.46722 0.24134 0.23884
 C1252 C 0.45927 0.25047 0.24949
 C1253 C 0.46715 0.25956 0.26018
 C1254 C 0.48356 0.25958 0.26036
 C1255 C 0.49184 0.25043 0.24957
 C1256 C 0.48365 0.24129 0.23875
 C1257 C 0.49210 0.23257 0.22799
 C1258 C 0.50827 0.23255 0.22804
 C1259 C 0.51661 0.24126 0.23885
 C1260 C 0.50833 0.25044 0.24961
 C1261 C 0.49190 0.26826 0.27119
 C1262 C 0.50806 0.26829 0.27121
 C1263 C 0.51650 0.25962 0.26041
 C1264 C 0.53292 0.25964 0.26028
 C1265 C 0.54087 0.25049 0.24967
 C1266 C 0.53304 0.24131 0.23903
 H1267 H 0.48627 0.22575 0.21935
 H1268 H 0.51418 0.22571 0.21944
 H1269 H 0.48599 0.27506 0.27983
 H1270 H 0.51388 0.27511 0.27986
 H1271 H 0.44667 0.25049 0.24947
 H1272 H 0.55348 0.25052 0.24969
 C1273 C 1.03293 0.73980 0.75970
 C1274 C 1.04081 0.74887 0.74899
 C1275 C 1.03292 0.75868 0.73887
 C1276 C 1.01650 0.75945 0.73938
 C1277 C 1.00830 0.75017 0.75012
 C1278 C 1.01654 0.74032 0.76034
 C1279 C 1.00823 0.73154 0.77113
 C1280 C 0.99209 0.73218 0.77172
 C1281 C 0.98365 0.74162 0.76154
 C1282 C 0.99182 0.75084 0.75073
 C1283 C 1.00808 0.76915 0.72943
 C1284 C 0.99195 0.77000 0.73020
 C1285 C 0.98357 0.76087 0.74067
 C1286 C 0.96717 0.76167 0.74160
 C1287 C 0.95934 0.75247 0.75226
 C1288 C 0.96725 0.74241 0.76212
 H1289 H 1.01414 0.72416 0.77930
 H1290 H 0.98631 0.72534 0.78040
 H1291 H 1.01388 0.77623 0.72096
 H1292 H 0.98612 0.77796 0.72251
 H1293 H 1.05340 0.74842 0.74864
 H1294 H 0.94675 0.75294 0.75271
 C1295 C 0.46723 0.76216 0.24209
 C1296 C 0.45937 0.75289 0.25269
 C1297 C 0.46725 0.74277 0.26253
 C1298 C 0.48364 0.74194 0.26196
 C1299 C 0.49185 0.75124 0.25124
 C1300 C 0.48363 0.76139 0.24125
 C1301 C 0.49205 0.77068 0.23095
 C1302 C 0.50818 0.76979 0.23020
 C1303 C 0.51656 0.75994 0.24005
 C1304 C 0.50832 0.75053 0.25065
 C1305 C 0.49205 0.73239 0.27206
 C1306 C 0.50818 0.73166 0.27144
 C1307 C 0.51653 0.74053 0.26076
 C1308 C 0.53292 0.73995 0.26013
 C1309 C 0.54083 0.74915 0.24954
 C1310 C 0.53297 0.75913 0.23956
 H1311 H 0.48629 0.77880 0.22339
 H1312 H 0.51401 0.77696 0.22181
 H1313 H 0.48626 0.72549 0.28068
 H1314 H 0.51406 0.72415 0.27951
 H1315 H 0.44678 0.75334 0.25312
 H1316 H 0.55343 0.74868 0.24920
 C1317 C 0.03283 0.73825 0.24201
 C1318 C 0.04066 0.74823 0.25196
 C1319 C 0.03272 0.75843 0.26165
 C1320 C 0.01631 0.75882 0.26143
 C1321 C 0.00812 0.74877 0.25139
 C1322 C 0.01639 0.73836 0.24172
 C1323 C 0.00801 0.72800 0.23245
 C1324 C -0.00815 0.72806 0.23240
 C1325 C -0.01658 0.73848 0.24162
 C1326 C -0.00838 0.74885 0.25132
 C1327 C 0.00787 0.76861 0.27128
 C1328 C -0.00829 0.76874 0.27115
 C1329 C -0.01664 0.75903 0.26123
 C1330 C -0.03306 0.75881 0.26127
 C1331 C -0.04093 0.74858 0.25162
 C1332 C -0.03301 0.73848 0.24181
 H1333 H 0.01386 0.71954 0.22531
 H1334 H -0.01397 0.71965 0.22521
 H1335 H 0.01368 0.77615 0.27934
 H1336 H -0.01417 0.77638 0.27910
 H1337 H 0.05327 0.74815 0.25211
 H1338 H -0.05354 0.74855 0.25168
 C1339 C 0.46638 0.73952 0.74106
 C1340 C 0.45852 0.74959 0.75096
 C1341 C 0.46644 0.75965 0.76075
 C1342 C 0.48287 0.75979 0.76068
 C1343 C 0.49107 0.74965 0.75068
 C1344 C 0.48281 0.73941 0.74089
 C1345 C 0.49118 0.72898 0.73162
 C1346 C 0.50735 0.72877 0.73172
 C1347 C 0.51579 0.73900 0.74108
 C1348 C 0.50758 0.74944 0.75078
 C1349 C 0.49129 0.76938 0.77066
 C1350 C 0.50745 0.76916 0.77078
 C1351 C 0.51583 0.75938 0.76088
 C1352 C 0.53225 0.75886 0.76112
 C1353 C 0.54012 0.74863 0.75141
 C1354 C 0.53223 0.73873 0.74143
 H1355 H 0.48531 0.72069 0.72435
 H1356 H 0.51315 0.72032 0.72454
 H1357 H 0.48547 0.77702 0.77866
 H1358 H 0.51330 0.77661 0.77889
 H1359 H 0.44592 0.74962 0.75103
 H1360 H 0.55272 0.74843 0.75157
 C1361 C 0.42408 0.29513 0.29659
 C1362 C 0.41529 0.30648 0.28887
 C1363 C 0.40276 0.31383 0.29602
 C1364 C 0.39871 0.31002 0.31110
 C1365 C 0.40784 0.29900 0.31897
 C1366 C 0.42035 0.29162 0.31178
 C1367 C 0.43639 0.28628 0.28846
 C1368 C 0.43740 0.26997 0.29008
 C1369 C 0.44785 0.26136 0.28127
 C1370 C 0.45761 0.26891 0.27083
 C1371 C 0.45703 0.28523 0.26951
 C1372 C 0.44649 0.29386 0.27826
 H1373 H 0.39604 0.32218 0.28953
 H1374 H 0.40529 0.29587 0.33063
 H1375 H 0.44804 0.24874 0.28226
 H1376 H 0.46438 0.29120 0.26137
 H1377 H 0.42705 0.28306 0.31808
 H1378 H 0.42964 0.26378 0.29768
 H1379 H 0.41775 0.30928 0.27708
 H1380 H 0.44605 0.30642 0.27686
 C1381 C 0.42336 0.79624 0.79655
 C1382 C 0.41492 0.80805 0.78911
 C1383 C 0.40245 0.81547 0.79637
 C1384 C 0.39801 0.81122 0.81128
 C1385 C 0.40694 0.79979 0.81888
 C1386 C 0.41941 0.79244 0.81162
 C1387 C 0.43555 0.78721 0.78832
 C1388 C 0.43664 0.77093 0.79031
 C1389 C 0.44717 0.76214 0.78177
 C1390 C 0.45689 0.76941 0.77111
 C1391 C 0.45617 0.78568 0.76931
 C1392 C 0.44561 0.79453 0.77787
 H1393 H 0.39614 0.82424 0.79001
 H1394 H 0.40430 0.79623 0.83040
 H1395 H 0.44744 0.74957 0.78316
 H1396 H 0.46348 0.79146 0.76100
 H1397 H 0.42588 0.78361 0.81779
 H1398 H 0.42891 0.76487 0.79803
 H1399 H 0.41756 0.81120 0.77745
 H1400 H 0.44516 0.80705 0.77618
 C1401 C -0.07639 0.29483 0.79715
 C1402 C -0.08541 0.30573 0.78907
 C1403 C -0.09805 0.31311 0.79602
 C1404 C -0.10196 0.30979 0.81124
 C1405 C -0.09264 0.29921 0.81944
 C1406 C -0.08002 0.29181 0.81247
 C1407 C -0.06391 0.28593 0.78933
 C1408 C -0.06247 0.26974 0.79171
 C1409 C -0.05180 0.26099 0.78329
 C1410 C -0.04228 0.26825 0.77244
 C1411 C -0.04332 0.28446 0.77034
 C1412 C -0.05403 0.29325 0.77874
 H1413 H -0.10495 0.32110 0.78928
 H1414 H -0.09511 0.29647 0.83122
 H1415 H -0.05132 0.24844 0.78486
 H1416 H -0.03622 0.29021 0.76184
 H1417 H -0.07314 0.28363 0.81906
 H1418 H -0.07007 0.26372 0.79958
 H1419 H -0.08305 0.30814 0.77718
 H1420 H -0.05481 0.30571 0.77675
 C1421 C -0.07605 0.79601 0.29629
 C1422 C -0.08546 0.80658 0.28823
 C1423 C -0.09800 0.81394 0.29540
 C1424 C -0.10138 0.81092 0.31080
 C1425 C -0.09158 0.80077 0.31898
 C1426 C -0.07908 0.79339 0.31180
 C1427 C -0.06388 0.78688 0.28828
 C1428 C -0.06265 0.77070 0.29077
 C1429 C -0.05220 0.76172 0.28234
 C1430 C -0.04265 0.76875 0.27138
 C1431 C -0.04355 0.78495 0.26907
 C1432 C -0.05409 0.79396 0.27747
 H1433 H -0.10529 0.82161 0.28868
 H1434 H -0.09361 0.79834 0.33090
 H1435 H -0.05183 0.74919 0.28407
 H1436 H -0.03641 0.79052 0.26048
 H1437 H -0.07187 0.78547 0.31834
 H1438 H -0.07023 0.76488 0.29882
 H1439 H -0.08352 0.80869 0.27622
 H1440 H -0.05475 0.80642 0.27539
 C1441 C 0.57613 0.70389 0.29593
 C1442 C 0.58541 0.69308 0.28803
 C1443 C 0.59802 0.68588 0.29521
 C1444 C 0.60162 0.68929 0.31048
 C1445 C 0.59200 0.69972 0.31850
 C1446 C 0.57943 0.70696 0.31130
 C1447 C 0.56380 0.71275 0.28786
 C1448 C 0.56252 0.72899 0.28991
 C1449 C 0.55199 0.73769 0.28128
 C1450 C 0.54244 0.73032 0.27057
 C1451 C 0.54328 0.71406 0.26881
 C1452 C 0.55391 0.70532 0.27738
 H1453 H 0.60516 0.67799 0.28861
 H1454 H 0.59421 0.70248 0.33032
 H1455 H 0.55160 0.75027 0.28262
 H1456 H 0.53606 0.70823 0.26048
 H1457 H 0.57235 0.71510 0.31772
 H1458 H 0.57012 0.73506 0.29772
 H1459 H 0.58328 0.69064 0.27612
 H1460 H 0.55457 0.69281 0.27566
 C1461 C 0.57649 0.20460 0.79550
 C1462 C 0.58006 0.20817 0.81072
 C1463 C 0.59251 0.20086 0.81804
 C1464 C 0.60170 0.18980 0.81033
 C1465 C 0.59790 0.18598 0.79521
 C1466 C 0.58544 0.19329 0.78789
 C1467 C 0.56414 0.21332 0.78729
 C1468 C 0.55424 0.20570 0.77694
 C1469 C 0.54352 0.21424 0.76830
 C1470 C 0.54249 0.23051 0.76993
 C1471 C 0.55211 0.23808 0.78046
 C1472 C 0.56280 0.22958 0.78909
 H1473 H 0.59493 0.20396 0.82974
 H1474 H 0.60476 0.17766 0.78884
 H1475 H 0.53637 0.20826 0.76002
 H1476 H 0.55168 0.25068 0.78164
 H1477 H 0.58313 0.19048 0.77609
 H1478 H 0.55496 0.19317 0.77537
 H1479 H 0.57325 0.21668 0.81695
 H1480 H 0.57046 0.23583 0.79671
 C1481 C 1.07624 0.70404 0.79564
 C1482 C 1.07961 0.70729 0.81096
 C1483 C 1.09218 0.70009 0.81819
 C1484 C 1.10173 0.68951 0.81026
 C1485 C 1.09805 0.68593 0.79505
 C1486 C 1.08544 0.69309 0.78783
 C1487 C 1.06391 0.71284 0.78752
 C1488 C 1.05393 0.70533 0.77719
 C1489 C 1.04327 0.71400 0.76860
 C1490 C 1.04249 0.73028 0.77020
 C1491 C 1.05215 0.73775 0.78075
 C1492 C 1.06271 0.72911 0.78939
 H1493 H 1.09445 0.70301 0.82996
 H1494 H 1.10511 0.67791 0.78851
 H1495 H 1.03598 0.70810 0.76037
 H1496 H 1.05181 0.75034 0.78195
 H1497 H 1.08324 0.69051 0.77596
 H1498 H 1.05455 0.69280 0.77560
 H1499 H 1.07259 0.71553 0.81731
 H1500 H 1.07041 0.73525 0.79706
 C1501 C 1.07654 0.20495 0.29610
 C1502 C 1.08014 0.20852 0.31131
 C1503 C 1.09270 0.20133 0.31858
 C1504 C 1.10199 0.19043 0.31077
 C1505 C 1.09807 0.18649 0.29572
 C1506 C 1.08549 0.19367 0.28846
 C1507 C 1.06413 0.21363 0.28794
 C1508 C 1.05415 0.20597 0.27769
 C1509 C 1.04338 0.21450 0.26909
 C1510 C 1.04244 0.23079 0.27060
 C1511 C 1.05210 0.23838 0.28107
 C1512 C 1.06279 0.22990 0.28970
 H1513 H 1.09513 0.20439 0.33028
 H1514 H 1.10493 0.17817 0.28932
 H1515 H 1.03611 0.20847 0.26094
 H1516 H 1.05168 0.25098 0.28220
 H1517 H 1.08314 0.19078 0.27668
 H1518 H 1.05486 0.19344 0.27617
 H1519 H 1.07329 0.21697 0.31757
 H1520 H 1.07048 0.23616 0.29729
 C1521 C 0.57637 0.29530 0.70359
 C1522 C 0.58523 0.30648 0.71140
 C1523 C 0.59778 0.31379 0.70427
 C1524 C 0.60176 0.31012 0.68914
 C1525 C 0.59261 0.29924 0.68122
 C1526 C 0.58008 0.29191 0.68836
 C1527 C 0.56399 0.28650 0.71161
 C1528 C 0.56277 0.27025 0.70967
 C1529 C 0.55212 0.26164 0.71820
 C1530 C 0.54239 0.26910 0.72875
 C1531 C 0.54325 0.28536 0.73048
 C1532 C 0.55395 0.29401 0.72194
 H1533 H 0.60457 0.32201 0.71080
 H1534 H 0.59513 0.29628 0.66950
 H1535 H 0.55177 0.24906 0.71692
 H1536 H 0.53599 0.29127 0.73875
 H1537 H 0.57333 0.28350 0.68198
 H1538 H 0.57052 0.26408 0.70202
 H1539 H 0.58281 0.30917 0.72321
 H1540 H 0.55455 0.30653 0.72359
 C1541 C 0.57651 0.79486 0.20390
 C1542 C 0.58519 0.80627 0.21160
 C1543 C 0.59765 0.81368 0.20441
 C1544 C 0.60172 0.80984 0.18935
 C1545 C 0.59276 0.79872 0.18154
 C1546 C 0.58031 0.79133 0.18873
 C1547 C 0.56419 0.78603 0.21197
 C1548 C 0.56309 0.76976 0.21014
 C1549 C 0.55241 0.76115 0.21863
 C1550 C 0.54258 0.76862 0.22908
 C1551 C 0.54333 0.78491 0.23069
 C1552 C 0.55403 0.79356 0.22217
 H1553 H 0.60429 0.82210 0.21085
 H1554 H 0.59537 0.79562 0.16988
 H1555 H 0.55211 0.74856 0.21740
 H1556 H 0.53596 0.79084 0.23885
 H1557 H 0.57369 0.78275 0.18243
 H1558 H 0.57091 0.76359 0.20257
 H1559 H 0.58269 0.80909 0.22337
 H1560 H 0.55451 0.80610 0.22370
 C1561 C 1.07640 0.29519 0.20396
 C1562 C 1.08582 0.30584 0.21183
 C1563 C 1.09832 0.31307 0.20454
 C1564 C 1.10166 0.30989 0.18916
 C1565 C 1.09204 0.29944 0.18122
 C1566 C 1.07957 0.29217 0.18854
 C1567 C 1.06395 0.28654 0.21206
 C1568 C 1.06230 0.27037 0.20986
 C1569 C 1.05159 0.26185 0.21842
 C1570 C 1.04224 0.26933 0.22929
 C1571 C 1.04348 0.28555 0.23123
 C1572 C 1.05425 0.29410 0.22267
 H1573 H 1.10552 0.32089 0.21111
 H1574 H 1.09411 0.29681 0.16934
 H1575 H 1.05092 0.24931 0.21692
 H1576 H 1.03646 0.29148 0.23968
 H1577 H 1.07239 0.28415 0.18213
 H1578 H 1.06976 0.26419 0.20195
 H1579 H 1.08383 0.30821 0.22379
 H1580 H 1.05516 0.30658 0.22450
 C1581 C 1.07697 0.79372 0.70312
 C1582 C 1.08103 0.78999 0.68804
 C1583 C 1.09351 0.79742 0.68091
 C1584 C 1.10222 0.80877 0.68868
 C1585 C 1.09798 0.81267 0.70367
 C1586 C 1.08552 0.80523 0.71080
 C1587 C 1.06444 0.78506 0.71110
 C1588 C 1.05425 0.79277 0.72115
 C1589 C 1.04341 0.78430 0.72967
 C1590 C 1.04252 0.76800 0.72821
 C1591 C 1.05235 0.76035 0.71788
 C1592 C 1.06317 0.76878 0.70937
 H1593 H 1.09630 0.79420 0.66931
 H1594 H 1.10452 0.82118 0.71010
 H1595 H 1.03606 0.79037 0.73775
 H1596 H 1.05198 0.74775 0.71677
 H1597 H 1.08289 0.80816 0.72252
 H1598 H 1.05485 0.80531 0.72260
 H1599 H 1.07457 0.78127 0.68177
 H1600 H 1.07099 0.76247 0.70191
 C1601 C 0.42312 0.70421 0.70463
 C1602 C 0.41532 0.71213 0.69286
 C1603 C 0.40307 0.70500 0.68510
 C1604 C 0.39830 0.68980 0.68895
 C1605 C 0.40632 0.68177 0.70052
 C1606 C 0.41859 0.68888 0.70824
 C1607 C 0.43532 0.71221 0.71369
 C1608 C 0.43582 0.71031 0.72959
 C1609 C 0.44642 0.71871 0.73835
 C1610 C 0.45675 0.72917 0.73142
 C1611 C 0.45659 0.73085 0.71552
 C1612 C 0.44600 0.72239 0.70671
 H1613 H 0.39710 0.71158 0.67635
 H1614 H 0.40316 0.66998 0.70365
 H1615 H 0.44626 0.71741 0.75062
 H1616 H 0.46437 0.73902 0.70999
 H1617 H 0.42452 0.68238 0.71709
 H1618 H 0.42760 0.70279 0.73535
 H1619 H 0.41834 0.72404 0.68998
 H1620 H 0.44602 0.72397 0.69447
 C1621 C 0.42419 0.20563 0.20265
 C1622 C 0.41580 0.19396 0.21032
 C1623 C 0.40339 0.18643 0.20322
 C1624 C 0.39902 0.19039 0.18827
 C1625 C 0.40772 0.20176 0.18045
 C1626 C 0.42014 0.20930 0.18757
 C1627 C 0.43646 0.21454 0.21073
 C1628 C 0.43733 0.23086 0.20914
 C1629 C 0.44781 0.23950 0.21786
 C1630 C 0.45773 0.23197 0.22820
 C1631 C 0.45721 0.21566 0.22955
 C1632 C 0.44669 0.20700 0.22087
 H1633 H 0.39702 0.17780 0.20968
 H1634 H 0.40488 0.20504 0.16889
 H1635 H 0.44786 0.25211 0.21690
 H1636 H 0.46459 0.20970 0.23770
 H1637 H 0.42651 0.21809 0.18129
 H1638 H 0.42944 0.23704 0.20166
 H1639 H 0.41847 0.19103 0.22203
 H1640 H 0.44634 0.19444 0.22230
 C1641 C -0.07631 0.70365 0.20515
 C1642 C -0.08421 0.71189 0.19367
 C1643 C -0.09663 0.70504 0.18594
 C1644 C -0.10145 0.68979 0.18955
 C1645 C -0.09326 0.68141 0.20075
 C1646 C -0.08083 0.68826 0.20846
 C1647 C -0.06405 0.71142 0.21426
 C1648 C -0.06365 0.70945 0.23015
 C1649 C -0.05303 0.71773 0.23899
 C1650 C -0.04258 0.72812 0.23213
 C1651 C -0.04261 0.72983 0.21624
 C1652 C -0.05324 0.72151 0.20736
 H1653 H -0.10268 0.71188 0.17744
 H1654 H -0.09642 0.66954 0.20362
 H1655 H -0.05327 0.71640 0.25126
 H1656 H -0.03472 0.73792 0.21077
 H1657 H -0.07479 0.68152 0.21706
 H1658 H -0.07197 0.70198 0.23584
 H1659 H -0.08112 0.72384 0.19100
 H1660 H -0.05317 0.72313 0.19512
 C1661 C -0.07700 0.20429 0.70565
 C1662 C -0.08528 0.21260 0.69446
 C1663 C -0.09765 0.20563 0.68675
 C1664 C -0.10207 0.19019 0.69008
 C1665 C -0.09363 0.18181 0.70109
 C1666 C -0.08124 0.18876 0.70877
 C1667 C -0.06458 0.21207 0.71459
 C1668 C -0.06352 0.20961 0.73039
 C1669 C -0.05272 0.21783 0.73909
 C1670 C -0.04274 0.22866 0.73219
 C1671 C -0.04348 0.23091 0.71637
 C1672 C -0.05426 0.22262 0.70763
 H1673 H -0.10399 0.21251 0.67848
 H1674 H -0.09656 0.16985 0.70383
 H1675 H -0.05248 0.21612 0.75131
 H1676 H -0.03602 0.23939 0.71088
 H1677 H -0.07498 0.18198 0.71719
 H1678 H -0.07146 0.20179 0.73615
 H1679 H -0.08251 0.22467 0.69199
 H1680 H -0.05468 0.22464 0.69546
 C1681 C 0.29490 0.42309 0.29638
 C1682 C 0.30619 0.41429 0.28862
 C1683 C 0.31342 0.40157 0.29570
 C1684 C 0.30954 0.39734 0.31072
 C1685 C 0.29853 0.40642 0.31859
 C1686 C 0.29130 0.41913 0.31150
 C1687 C 0.28621 0.43570 0.28840
 C1688 C 0.27004 0.43703 0.29030
 C1689 C 0.26154 0.44785 0.28178
 C1690 C 0.26902 0.45764 0.27129
 C1691 C 0.28520 0.45672 0.26967
 C1692 C 0.29374 0.44585 0.27819
 H1693 H 0.32176 0.39487 0.28920
 H1694 H 0.29534 0.40371 0.33020
 H1695 H 0.24903 0.44822 0.28298
 H1696 H 0.29113 0.46402 0.26144
 H1697 H 0.28280 0.42582 0.31785
 H1698 H 0.26386 0.42922 0.29787
 H1699 H 0.30906 0.41689 0.27688
 H1700 H 0.30619 0.44520 0.27658
 C1701 C 0.29413 -0.07722 0.79736
 C1702 C 0.30609 -0.08530 0.78983
 C1703 C 0.31366 -0.09785 0.79686
 C1704 C 0.30943 -0.10276 0.81163
 C1705 C 0.29776 -0.09426 0.81930
 C1706 C 0.29024 -0.08170 0.81227
 C1707 C 0.28515 -0.06478 0.78941
 C1708 C 0.26895 -0.06384 0.79122
 C1709 C 0.26026 -0.05302 0.78289
 C1710 C 0.26757 -0.04287 0.77260
 C1711 C 0.28377 -0.04345 0.77103
 C1712 C 0.29250 -0.05428 0.77939
 H1713 H 0.32260 -0.10383 0.79046
 H1714 H 0.29415 -0.09728 0.83072
 H1715 H 0.24774 -0.05289 0.78408
 H1716 H 0.28958 -0.03586 0.76297
 H1717 H 0.28128 -0.07554 0.81850
 H1718 H 0.26287 -0.07191 0.79862
 H1719 H 0.30928 -0.08227 0.77827
 H1720 H 0.30497 -0.05459 0.77784
 C1721 C 0.79542 0.42320 0.79608
 C1722 C 0.80737 0.41494 0.78874
 C1723 C 0.81473 0.40236 0.79596
 C1724 C 0.81028 0.39763 0.81072
 C1725 C 0.79859 0.40630 0.81819
 C1726 C 0.79131 0.41889 0.81098
 C1727 C 0.78667 0.43567 0.78795
 C1728 C 0.77045 0.43674 0.78954
 C1729 C 0.76197 0.44759 0.78107
 C1730 C 0.76950 0.45765 0.77085
 C1731 C 0.78570 0.45690 0.76943
 C1732 C 0.79424 0.44604 0.77796
 H1733 H 0.82365 0.39622 0.78968
 H1734 H 0.79483 0.40341 0.82959
 H1735 H 0.74943 0.44781 0.78209
 H1736 H 0.79167 0.46437 0.76137
 H1737 H 0.78233 0.42520 0.81706
 H1738 H 0.76421 0.42874 0.79687
 H1739 H 0.81072 0.41784 0.77719
 H1740 H 0.80672 0.44560 0.77656
 C1741 C 0.79438 -0.07741 0.29691
 C1742 C 0.80641 -0.08549 0.28951
 C1743 C 0.81386 -0.09807 0.29661
 C1744 C 0.80942 -0.10299 0.31132
 C1745 C 0.79764 -0.09451 0.31885
 C1746 C 0.79025 -0.08191 0.31174
 C1747 C 0.78557 -0.06496 0.28884
 C1748 C 0.76931 -0.06422 0.29012
 C1749 C 0.76080 -0.05347 0.28153
 C1750 C 0.76836 -0.04315 0.27160
 C1751 C 0.78461 -0.04352 0.27057
 C1752 C 0.79316 -0.05431 0.27914
 H1753 H 0.82283 -0.10407 0.29028
 H1754 H 0.79389 -0.09755 0.33022
 H1755 H 0.74824 -0.05350 0.28228
 H1756 H 0.79061 -0.03580 0.26277
 H1757 H 0.78120 -0.07575 0.31785
 H1758 H 0.76309 -0.07240 0.29728
 H1759 H 0.80974 -0.08244 0.27799
 H1760 H 0.80567 -0.05450 0.27802
 C1761 C 0.29326 0.57753 0.70285
 C1762 C 0.30578 0.58508 0.70995
 C1763 C 0.31337 0.59748 0.70275
 C1764 C 0.30861 0.60264 0.68828
 C1765 C 0.29626 0.59489 0.68106
 C1766 C 0.28869 0.58248 0.68826
 C1767 C 0.28451 0.56510 0.71098
 C1768 C 0.26820 0.56473 0.71026
 C1769 C 0.25982 0.55394 0.71889
 C1770 C 0.26754 0.54325 0.72835
 C1771 C 0.28382 0.54327 0.72882
 C1772 C 0.29224 0.55407 0.72016
 H1773 H 0.32273 0.60320 0.70874
 H1774 H 0.29239 0.59836 0.66984
 H1775 H 0.24725 0.55424 0.71856
 H1776 H 0.28997 0.53525 0.73623
 H1777 H 0.27922 0.57677 0.68239
 H1778 H 0.26187 0.57321 0.70351
 H1779 H 0.30943 0.58173 0.72130
 H1780 H 0.30480 0.55396 0.72084
 C1781 C 0.29710 1.07693 0.20525
 C1782 C 0.31250 1.08129 0.20837
 C1783 C 0.31934 1.09385 0.20073
 C1784 C 0.31097 1.10231 0.18972
 C1785 C 0.29577 1.09762 0.18621
 C1786 C 0.28889 1.08512 0.19392
 C1787 C 0.28933 1.06450 0.21435
 C1788 C 0.27870 1.05419 0.20753
 C1789 C 0.27037 1.04350 0.21640
 C1790 C 0.27264 1.04278 0.23221
 C1791 C 0.28357 1.05272 0.23898
 C1792 C 0.29185 1.06345 0.23015
 H1793 H 0.33119 1.09695 0.20348
 H1794 H 0.28895 1.10393 0.17786
 H1795 H 0.26182 1.03608 0.21099
 H1796 H 0.28535 1.05249 0.25119
 H1797 H 0.27694 1.08223 0.19136
 H1798 H 0.27665 1.05455 0.19537
 H1799 H 0.31926 1.07502 0.21680
 H1800 H 0.29976 1.07135 0.23582
 C1801 C 0.79394 0.57702 0.20309
 C1802 C 0.80612 0.58485 0.21045
 C1803 C 0.81364 0.59736 0.20336
 C1804 C 0.80916 0.60233 0.18872
 C1805 C 0.79720 0.59424 0.18124
 C1806 C 0.78968 0.58174 0.18834
 C1807 C 0.78513 0.56460 0.21113
 C1808 C 0.76885 0.56416 0.21014
 C1809 C 0.76036 0.55343 0.21872
 C1810 C 0.76797 0.54285 0.22839
 C1811 C 0.78424 0.54295 0.22916
 C1812 C 0.79276 0.55371 0.22056
 H1813 H 0.82273 0.60328 0.20955
 H1814 H 0.79352 0.59756 0.16992
 H1815 H 0.74780 0.55366 0.21819
 H1816 H 0.79028 0.53502 0.23676
 H1817 H 0.78049 0.57580 0.18227
 H1818 H 0.76261 0.57256 0.20322
 H1819 H 0.80951 0.58164 0.22191
 H1820 H 0.80530 0.55368 0.22147
 C1821 C 0.79357 1.07691 0.70293
 C1822 C 0.80572 1.08476 0.71034
 C1823 C 0.81331 1.09723 0.70326
 C1824 C 0.80893 1.10215 0.68858
 C1825 C 0.79697 1.09407 0.68107
 C1826 C 0.78938 1.08162 0.68816
 C1827 C 0.78477 1.06445 0.71093
 C1828 C 0.76848 1.06396 0.70992
 C1829 C 0.76002 1.05322 0.71853
 C1830 C 0.76766 1.04269 0.72822
 C1831 C 0.78393 1.04277 0.72892
 C1832 C 0.79242 1.05354 0.72031
 H1833 H 0.82235 1.10319 0.70948
 H1834 H 0.79337 1.09735 0.66971
 H1835 H 0.74745 1.05344 0.71803
 H1836 H 0.78999 1.03486 0.73651
 H1837 H 0.78018 1.07568 0.68209
 H1838 H 0.76222 1.07232 0.70297
 H1839 H 0.80905 1.08160 0.72183
 H1840 H 0.80496 1.05354 0.72120
 C1841 C 0.70536 0.57658 0.29652
 C1842 C 0.70934 0.58088 0.31145
 C1843 C 0.70204 0.59353 0.31853
 C1844 C 0.69057 0.60222 0.31085
 C1845 C 0.68626 0.59758 0.29608
 C1846 C 0.69356 0.58491 0.28900
 C1847 C 0.71417 0.56415 0.28846
 C1848 C 0.70662 0.55356 0.27873
 C1849 C 0.71520 0.54281 0.27014
 C1850 C 0.73145 0.54249 0.27117
 C1851 C 0.73898 0.55276 0.28115
 C1852 C 0.73043 0.56344 0.28976
 H1853 H 0.70557 0.59654 0.32996
 H1854 H 0.67749 0.60390 0.28975
 H1855 H 0.70924 0.53512 0.26231
 H1856 H 0.75154 0.55283 0.28189
 H1857 H 0.69034 0.58200 0.27743
 H1858 H 0.69410 0.55376 0.27758
 H1859 H 0.71823 0.57454 0.31762
 H1860 H 0.73661 0.57161 0.29694
 C1861 C 0.70666 1.07748 0.79722
 C1862 C 0.71171 1.08298 0.81143
 C1863 C 0.70423 1.09552 0.81850
 C1864 C 0.69137 1.10291 0.81161
 C1865 C 0.68615 1.09711 0.79748
 C1866 C 0.69372 1.08462 0.79039
 C1867 C 0.71533 1.06492 0.78915
 C1868 C 0.70748 1.05368 0.78036
 C1869 C 0.71580 1.04280 0.77168
 C1870 C 0.73208 1.04287 0.77177
 C1871 C 0.73992 1.05372 0.78090
 C1872 C 0.73165 1.06462 0.78951
 H1873 H 0.70868 1.09933 0.82939
 H1874 H 0.67640 1.10231 0.79161
 H1875 H 0.70955 1.03467 0.76451
 H1876 H 0.75250 1.05408 0.78094
 H1877 H 0.68968 1.08085 0.77932
 H1878 H 0.69492 1.05349 0.77997
 H1879 H 0.72152 1.07760 0.81711
 H1880 H 0.73808 1.07325 0.79592
 C1881 C 0.20526 0.57656 0.79696
 C1882 C 0.20929 0.58095 0.81184
 C1883 C 0.20200 0.59364 0.81888
 C1884 C 0.19049 0.60226 0.81119
 C1885 C 0.18613 0.59753 0.79646
 C1886 C 0.19342 0.58483 0.78944
 C1887 C 0.21407 0.56414 0.78891
 C1888 C 0.20650 0.55353 0.77920
 C1889 C 0.21509 0.54287 0.77051
 C1890 C 0.23134 0.54264 0.77144
 C1891 C 0.23888 0.55288 0.78143
 C1892 C 0.23034 0.56349 0.79013
 H1893 H 0.20559 0.59673 0.83027
 H1894 H 0.17734 0.60380 0.79012
 H1895 H 0.20911 0.53518 0.76269
 H1896 H 0.25144 0.55298 0.78212
 H1897 H 0.19017 0.58185 0.77789
 H1898 H 0.19398 0.55368 0.77811
 H1899 H 0.21822 0.57466 0.81801
 H1900 H 0.23652 0.57166 0.79730
 C1901 C 0.20597 1.07655 0.29706
 C1902 C 0.20919 1.08028 0.31231
 C1903 C 0.20166 1.09278 0.31943
 C1904 C 0.19075 1.10188 0.31144
 C1905 C 0.18715 1.09781 0.29634
 C1906 C 0.19468 1.08531 0.28923
 C1907 C 0.21495 1.06419 0.28908
 C1908 C 0.20773 1.05420 0.27853
 C1909 C 0.21654 1.04354 0.27006
 C1910 C 0.23267 1.04262 0.27208
 C1911 C 0.23983 1.05225 0.28290
 C1912 C 0.23107 1.06289 0.29135
 H1913 H 0.20449 1.09531 0.33116
 H1914 H 0.17882 1.10452 0.28981
 H1915 H 0.21084 1.03632 0.26163
 H1916 H 0.25230 1.05184 0.28444
 H1917 H 0.19205 1.08287 0.27740
 H1918 H 0.19532 1.05481 0.27665
 H1919 H 0.21762 1.07359 0.31874
 H1920 H 0.23702 1.07058 0.29918
 C1921 C 0.70582 0.42340 0.70397
 C1922 C 0.69427 0.41491 0.71164
 C1923 C 0.68687 0.40236 0.70453
 C1924 C 0.69085 0.39803 0.68957
 C1925 C 0.70214 0.40681 0.68179
 C1926 C 0.70955 0.41932 0.68892
 C1927 C 0.71463 0.43579 0.71198
 C1928 C 0.73086 0.43653 0.71052
 C1929 C 0.73940 0.44725 0.71903
 C1930 C 0.73189 0.45751 0.72908
 C1931 C 0.71566 0.45713 0.73030
 C1932 C 0.70708 0.44637 0.72178
 H1933 H 0.67833 0.39586 0.71095
 H1934 H 0.70537 0.40402 0.67021
 H1935 H 0.75195 0.44724 0.71814
 H1936 H 0.70971 0.46483 0.73816
 H1937 H 0.71828 0.42578 0.68266
 H1938 H 0.73703 0.42838 0.70327
 H1939 H 0.69131 0.41763 0.72334
 H1940 H 0.69457 0.44614 0.72303
 C1941 C 0.70600 -0.07686 0.20348
 C1942 C 0.71016 -0.08139 0.18866
 C1943 C 0.70280 -0.09397 0.18161
 C1944 C 0.69108 -0.10232 0.18922
 C1945 C 0.68668 -0.09754 0.20392
 C1946 C 0.69405 -0.08495 0.21097
 C1947 C 0.71473 -0.06442 0.21150
 C1948 C 0.70706 -0.05368 0.22104
 C1949 C 0.71555 -0.04298 0.22969
 C1950 C 0.73182 -0.04282 0.22888
 C1951 C 0.73945 -0.05316 0.21902
 C1952 C 0.73100 -0.06384 0.21038
 H1953 H 0.70641 -0.09714 0.17023
 H1954 H 0.67779 -0.10369 0.21022
 H1955 H 0.70949 -0.03517 0.23738
 H1956 H 0.75202 -0.05329 0.21839
 H1957 H 0.69075 -0.08190 0.22249
 H1958 H 0.69453 -0.05376 0.22201
 H1959 H 0.71920 -0.07524 0.18253
 H1960 H 0.73726 -0.07210 0.20333
 C1961 C 0.20584 0.42293 0.20380
 C1962 C 0.20987 0.41867 0.18886
 C1963 C 0.20244 0.40622 0.18164
 C1964 C 0.19079 0.39772 0.18920
 C1965 C 0.18651 0.40223 0.20402
 C1966 C 0.19395 0.41469 0.21123
 C1967 C 0.21458 0.43529 0.21195
 C1968 C 0.20692 0.44590 0.22163
 C1969 C 0.21540 0.45663 0.23027
 C1970 C 0.23165 0.45696 0.22929
 C1971 C 0.23928 0.44667 0.21937
 C1972 C 0.23084 0.43596 0.21075
 H1973 H 0.20591 0.40326 0.17016
 H1974 H 0.17769 0.39594 0.21027
 H1975 H 0.20935 0.46438 0.23802
 H1976 H 0.25184 0.44665 0.21863
 H1977 H 0.19074 0.41753 0.22283
 H1978 H 0.19439 0.44573 0.22268
 H1979 H 0.21885 0.42494 0.18277
 H1980 H 0.23709 0.42778 0.20360
 C1981 C 0.20404 -0.07692 0.70523
 C1982 C 0.18858 -0.08109 0.70832
 C1983 C 0.18164 -0.09355 0.70068
 C1984 C 0.18998 -0.10212 0.68973
 C1985 C 0.20533 -0.09773 0.68639
 C1986 C 0.21228 -0.08529 0.69407
 C1987 C 0.21185 -0.06453 0.71423
 C1988 C 0.20935 -0.06350 0.73003
 C1989 C 0.21763 -0.05279 0.73880
 C1990 C 0.22856 -0.04287 0.73199
 C1991 C 0.23086 -0.04358 0.71617
 C1992 C 0.22250 -0.05425 0.70735
 H1993 H 0.16975 -0.09647 0.70340
 H1994 H 0.21217 -0.10417 0.67817
 H1995 H 0.21587 -0.05257 0.75101
 H1996 H 0.23941 -0.03617 0.71074
 H1997 H 0.22430 -0.08258 0.69164
 H1998 H 0.20146 -0.07142 0.73573
 H1999 H 0.18186 -0.07477 0.71673
 H2000 H 0.22455 -0.05466 0.69519
 C2001 C 0.29766 0.29385 0.42482
 C2002 C 0.31289 0.29017 0.42035
 C2003 C 0.31984 0.29791 0.40809
 C2004 C 0.31172 0.30954 0.40001
 C2005 C 0.29660 0.31346 0.40472
 C2006 C 0.28965 0.30571 0.41698
 C2007 C 0.28981 0.28477 0.43702
 C2008 C 0.27979 0.29215 0.44747
 C2009 C 0.27136 0.28333 0.45803
 C2010 C 0.27285 0.26701 0.45838
 C2011 C 0.28316 0.25967 0.44827
 C2012 C 0.29159 0.26845 0.43773
 H2013 H 0.33155 0.29467 0.40496
 H2014 H 0.28990 0.32222 0.39872
 H2015 H 0.26326 0.28917 0.46558
 H2016 H 0.28427 0.24706 0.44821
 H2017 H 0.27781 0.30865 0.41998
 H2018 H 0.27827 0.30471 0.44728
 H2019 H 0.31944 0.28123 0.42628
 H2020 H 0.29899 0.26238 0.42970
 C2021 C 0.29784 0.79503 -0.07470
 C2022 C 0.31284 0.79078 -0.07946
 C2023 C 0.31989 0.79840 -0.09172
 C2024 C 0.31212 0.81046 -0.09953
 C2025 C 0.29725 0.81493 -0.09451
 C2026 C 0.29020 0.80732 -0.08224
 C2027 C 0.28974 0.78601 -0.06263
 C2028 C 0.28021 0.79354 -0.05186
 C2029 C 0.27143 0.78482 -0.04150
 C2030 C 0.27210 0.76845 -0.04170
 C2031 C 0.28192 0.76092 -0.05211
 C2032 C 0.29071 0.76961 -0.06244
 H2033 H 0.33140 0.79469 -0.09510
 H2034 H 0.29080 0.82404 -0.10026
 H2035 H 0.26372 0.79080 -0.03367
 H2036 H 0.28240 0.74828 -0.05256
 H2037 H 0.27854 0.81070 -0.07900
 H2038 H 0.27932 0.80616 -0.05165
 H2039 H 0.31909 0.78148 -0.07375
 H2040 H 0.29772 0.76344 -0.07074
 C2041 C 0.79639 0.29605 -0.07509
 C2042 C 0.81161 0.29208 -0.07939
 C2043 C 0.81879 0.29962 -0.09163
 C2044 C 0.81093 0.31131 -0.09987
 C2045 C 0.79588 0.31561 -0.09524
 C2046 C 0.78870 0.30807 -0.08300
 C2047 C 0.78819 0.28704 -0.06308
 C2048 C 0.77827 0.29452 -0.05262
 C2049 C 0.76954 0.28576 -0.04224
 C2050 C 0.77066 0.26941 -0.04211
 C2051 C 0.78081 0.26195 -0.05227
 C2052 C 0.78953 0.27067 -0.06262
 H2053 H 0.83048 0.29617 -0.09465
 H2054 H 0.78941 0.32448 -0.10131
 H2055 H 0.76159 0.29168 -0.03460
 H2056 H 0.78162 0.24932 -0.05247
 H2057 H 0.77689 0.31125 -0.08009
 H2058 H 0.77708 0.30711 -0.05265
 H2059 H 0.81792 0.28305 -0.07336
 H2060 H 0.79684 0.26454 -0.07070
 C2061 C 0.79748 0.79480 0.42510
 C2062 C 0.81254 0.79064 0.42044
 C2063 C 0.81962 0.79825 0.40818
 C2064 C 0.81179 0.81019 0.40025
 C2065 C 0.79689 0.81464 0.40521
 C2066 C 0.78982 0.80703 0.41748
 C2067 C 0.78938 0.78582 0.43719
 C2068 C 0.77976 0.79339 0.44785
 C2069 C 0.77098 0.78472 0.45825
 C2070 C 0.77175 0.76834 0.45821
 C2071 C 0.78168 0.76078 0.44790
 C2072 C 0.79045 0.76943 0.43753
 H2073 H 0.83118 0.79465 0.40490
 H2074 H 0.79043 0.82371 0.39942
 H2075 H 0.76322 0.79072 0.46601
 H2076 H 0.78224 0.74814 0.44760
 H2077 H 0.77812 0.81037 0.42064
 H2078 H 0.77880 0.80601 0.44796
 H2079 H 0.81882 0.78141 0.42623
 H2080 H 0.79755 0.76323 0.42933
 C2081 C 0.70363 0.29610 0.57530
 C2082 C 0.71138 0.30787 0.58341
 C2083 C 0.70424 0.31523 0.59579
 C2084 C 0.68917 0.31101 0.60036
 C2085 C 0.68129 0.29946 0.59202
 C2086 C 0.68843 0.29211 0.57964
 C2087 C 0.71175 0.28730 0.56308
 C2088 C 0.71037 0.27096 0.56231
 C2089 C 0.71907 0.26240 0.55181
 C2090 C 0.72925 0.26999 0.54179
 C2091 C 0.73037 0.28633 0.54216
 C2092 C 0.72167 0.29494 0.55272
 H2093 H 0.71077 0.32393 0.60198
 H2094 H 0.66963 0.29598 0.59506
 H2095 H 0.71826 0.24977 0.55181
 H2096 H 0.73833 0.29234 0.53463
 H2097 H 0.68209 0.28320 0.57351
 H2098 H 0.70306 0.26471 0.57028
 H2099 H 0.72319 0.31102 0.58053
 H2100 H 0.72289 0.30752 0.55296
 C2101 C 0.70277 0.79500 1.07535
 C2102 C 0.68770 0.79092 1.07999
 C2103 C 0.68065 0.79850 1.09228
 C2104 C 0.68851 0.81032 1.10026
 C2105 C 0.70343 0.81467 1.09535
 C2106 C 0.71047 0.80710 1.08305
 C2107 C 0.71081 0.78608 1.06314
 C2108 C 0.72049 0.79368 1.05256
 C2109 C 0.72915 0.78504 1.04201
 C2110 C 0.72820 0.76869 1.04183
 C2111 C 0.71824 0.76111 1.05207
 C2112 C 0.70959 0.76971 1.06259
 H2113 H 0.66906 0.79498 1.09554
 H2114 H 0.70991 0.82364 1.10120
 H2115 H 0.73698 0.79105 1.03434
 H2116 H 0.71759 0.74847 1.05223
 H2117 H 0.72218 0.81036 1.07991
 H2118 H 0.72157 0.80628 1.05262
 H2119 H 0.68137 0.78179 1.07416
 H2120 H 0.70247 0.76347 1.07073
 C2121 C 0.20240 0.29443 1.07543
 C2122 C 0.21034 0.30618 1.08340
 C2123 C 0.20332 0.31381 1.09567
 C2124 C 0.18818 0.30990 1.10031
 C2125 C 0.18012 0.29839 1.09208
 C2126 C 0.18715 0.29073 1.07981
 C2127 C 0.21035 0.28549 1.06320
 C2128 C 0.20884 0.26915 1.06250
 C2129 C 0.21739 0.26050 1.05193
 C2130 C 0.22752 0.26800 1.04181
 C2131 C 0.22874 0.28433 1.04212
 C2132 C 0.22020 0.29302 1.05272
 H2133 H 0.20997 0.32255 1.10167
 H2134 H 0.16839 0.29515 1.09512
 H2135 H 0.21651 0.24787 1.05198
 H2136 H 0.23669 0.29027 1.03452
 H2137 H 0.18067 0.28187 1.07376
 H2138 H 0.20158 0.26298 1.07057
 H2139 H 0.22218 0.30914 1.08045
 H2140 H 0.22151 0.30559 1.05291
 C2141 C 0.20509 0.79741 0.57500
 C2142 C 0.19414 0.78890 0.58349
 C2143 C 0.18657 0.79574 0.59590
 C2144 C 0.18980 0.81123 0.60013
 C2145 C 0.20041 0.81987 0.59137
 C2146 C 0.20796 0.81305 0.57894
 C2147 C 0.21416 0.78969 0.56273
 C2148 C 0.23021 0.79237 0.56147
 C2149 C 0.23910 0.78409 0.55090
 C2150 C 0.23214 0.77300 0.54136
 C2151 C 0.21607 0.77055 0.54229
 C2152 C 0.20714 0.77887 0.55285
 H2153 H 0.17856 0.78869 0.60244
 H2154 H 0.20297 0.83192 0.59411
 H2155 H 0.25154 0.78594 0.55052
 H2156 H 0.21055 0.76185 0.53517
 H2157 H 0.21614 0.81999 0.57247
 H2158 H 0.23602 0.80038 0.56910
 H2159 H 0.19184 0.77677 0.58090
 H2160 H 0.19478 0.77664 0.55347
 C2161 C 0.29785 0.70694 0.57534
 C2162 C 0.31322 0.71025 0.57957
 C2163 C 0.32008 0.70262 0.59195
 C2164 C 0.31173 0.69149 0.60042
 C2165 C 0.29641 0.68803 0.59602
 C2166 C 0.28957 0.69565 0.58364
 C2167 C 0.29015 0.71583 0.56292
 C2168 C 0.27989 0.70841 0.55277
 C2169 C 0.27149 0.71715 0.54209
 C2170 C 0.27330 0.73342 0.54130
 C2171 C 0.28391 0.74076 0.55105
 C2172 C 0.29228 0.73206 0.56172
 H2173 H 0.33193 0.70553 0.59484
 H2174 H 0.28952 0.67966 0.60228
 H2175 H 0.26319 0.71130 0.53480
 H2176 H 0.28529 0.75333 0.55075
 H2177 H 0.27761 0.69303 0.58084
 H2178 H 0.27813 0.69590 0.55332
 H2179 H 0.31996 0.71878 0.57331
 H2180 H 0.29990 0.73816 0.56950
 C2181 C 0.29650 0.20504 1.07551
 C2182 C 0.31162 0.20909 1.07997
 C2183 C 0.31869 0.20170 1.09236
 C2184 C 0.31081 0.19006 1.10061
 C2185 C 0.29581 0.18576 1.09591
 C2186 C 0.28875 0.19315 1.08350
 C2187 C 0.28845 0.21381 1.06322
 C2188 C 0.27870 0.20611 1.05280
 C2189 C 0.27000 0.21465 1.04220
 C2190 C 0.27095 0.23100 1.04184
 C2191 C 0.28099 0.23867 1.05191
 C2192 C 0.28971 0.23017 1.06245
 H2193 H 0.33032 0.20520 1.09546
 H2194 H 0.28931 0.17694 1.10199
 H2195 H 0.26212 0.20857 1.03466
 H2196 H 0.28166 0.25131 1.05193
 H2197 H 0.27700 0.18991 1.08049
 H2198 H 0.27759 0.19351 1.05304
 H2199 H 0.31798 0.21806 1.07390
 H2200 H 0.29690 0.23647 1.07047
 C2201 C 0.79730 0.70603 1.07551
 C2202 C 0.81231 0.71023 1.08024
 C2203 C 0.81930 0.70273 1.09263
 C2204 C 0.81143 0.69088 1.10060
 C2205 C 0.79656 0.68646 1.09563
 C2206 C 0.78959 0.69394 1.08324
 C2207 C 0.78932 0.71480 1.06315
 C2208 C 0.77968 0.70706 1.05266
 C2209 C 0.77094 0.71556 1.04206
 C2210 C 0.77181 0.73191 1.04171
 C2211 C 0.78178 0.73963 1.05182
 C2212 C 0.79048 0.73117 1.06241
 H2213 H 0.83085 0.70630 1.09593
 H2214 H 0.79009 0.67747 1.10148
 H2215 H 0.76309 0.70944 1.03451
 H2216 H 0.78237 0.75227 1.05186
 H2217 H 0.77793 0.69058 1.08004
 H2218 H 0.77865 0.69446 1.05286
 H2219 H 0.81865 0.71935 1.07438
 H2220 H 0.79756 0.73751 1.07049
 C2221 C 0.79730 0.20610 0.57554
 C2222 C 0.81243 0.21003 0.58012
 C2223 C 0.81937 0.20253 0.59254
 C2224 C 0.81135 0.19089 0.60066
 C2225 C 0.79636 0.18672 0.59584
 C2226 C 0.78942 0.19424 0.58345
 C2227 C 0.78939 0.21496 0.56320
 C2228 C 0.77939 0.20739 0.55291
 C2229 C 0.77077 0.21603 0.54233
 C2230 C 0.77213 0.23234 0.54175
 C2231 C 0.78245 0.23987 0.55166
 C2232 C 0.79102 0.23127 0.56226
 H2233 H 0.83099 0.20594 0.59576
 H2234 H 0.78974 0.17793 0.60184
 H2235 H 0.76266 0.21005 0.53494
 H2236 H 0.78344 0.25248 0.55154
 H2237 H 0.77766 0.19111 0.58039
 H2238 H 0.77799 0.19483 0.55325
 H2239 H 0.81890 0.21897 0.57414
 H2240 H 0.79839 0.23749 0.57017
 C2241 C 0.70261 0.70546 0.42468
 C2242 C 0.71029 0.69324 0.41709
 C2243 C 0.70328 0.68564 0.40481
 C2244 C 0.68840 0.69008 0.39981
 C2245 C 0.68056 0.70205 0.40767
 C2246 C 0.68759 0.70965 0.41994
 C2247 C 0.71064 0.71437 0.43686
 C2248 C 0.70953 0.73076 0.43729
 C2249 C 0.71820 0.73934 0.44777
 C2250 C 0.72807 0.73173 0.45810
 C2251 C 0.72890 0.71536 0.45803
 C2252 C 0.72021 0.70674 0.44753
 H2253 H 0.70976 0.67656 0.39906
 H2254 H 0.66902 0.70568 0.40433
 H2255 H 0.71762 0.75198 0.44751
 H2256 H 0.73665 0.70931 0.46577
 H2257 H 0.68128 0.71888 0.42569
 H2258 H 0.70248 0.73701 0.42908
 H2259 H 0.72197 0.68988 0.42030
 H2260 H 0.72121 0.69413 0.44756
 C2261 C 0.70268 0.20539 -0.07538
 C2262 C 0.71049 0.19349 -0.08332
 C2263 C 0.70338 0.18589 -0.09553
 C2264 C 0.68829 0.19004 -0.10016
 C2265 C 0.68036 0.20173 -0.09201
 C2266 C 0.68747 0.20930 -0.07976
 C2267 C 0.71073 0.21425 -0.06317
 C2268 C 0.70903 0.23057 -0.06222
 C2269 C 0.71763 0.23914 -0.05169
 C2270 C 0.72808 0.23160 -0.04188
 C2271 C 0.72954 0.21529 -0.04247
 C2272 C 0.72087 0.20667 -0.05297
 H2273 H 0.70993 0.17705 -0.10155
 H2274 H 0.66867 0.20512 -0.09507
 H2275 H 0.71655 0.25176 -0.05153
 H2276 H 0.73774 0.20931 -0.03514
 H2277 H 0.68106 0.21828 -0.07374
 H2278 H 0.70155 0.23681 -0.07006
 H2279 H 0.72232 0.19038 -0.08042
 H2280 H 0.72232 0.19411 -0.05331
 C2281 C 0.20281 0.70595 -0.07558
 C2282 C 0.21046 0.69371 -0.08316
 C2283 C 0.20339 0.68609 -0.09540
 C2284 C 0.18849 0.69053 -0.10036
 C2285 C 0.18072 0.70257 -0.09254
 C2286 C 0.18780 0.71019 -0.08031
 C2287 C 0.21084 0.71483 -0.06338
 C2288 C 0.20980 0.73122 -0.06294
 C2289 C 0.21846 0.73975 -0.05241
 C2290 C 0.22825 0.73207 -0.04204
 C2291 C 0.22899 0.71570 -0.04212
 C2292 C 0.22033 0.70714 -0.05268
 H2293 H 0.20983 0.67698 -0.10114
 H2294 H 0.16918 0.70621 -0.09586
 H2295 H 0.21794 0.75239 -0.05265
 H2296 H 0.23668 0.70960 -0.03435
 H2297 H 0.18153 0.71945 -0.07457
 H2298 H 0.20281 0.73750 -0.07117
 H2299 H 0.22213 0.69033 -0.07996
 H2300 H 0.22127 0.69452 -0.05265
 C2301 C 0.20395 0.20340 0.42510
 C2302 C 0.19306 0.21183 0.41644
 C2303 C 0.18545 0.20478 0.40418
 C2304 C 0.18858 0.18915 0.40030
 C2305 C 0.19913 0.18061 0.40926
 C2306 C 0.20672 0.18765 0.42152
 C2307 C 0.21310 0.21129 0.43716
 C2308 C 0.22912 0.20843 0.43843
 C2309 C 0.23808 0.21674 0.44885
 C2310 C 0.23122 0.22806 0.45826
 C2311 C 0.21517 0.23074 0.45728
 C2312 C 0.20616 0.22235 0.44687
 H2313 H 0.17748 0.21178 0.39750
 H2314 H 0.20161 0.16847 0.40683
 H2315 H 0.25049 0.21467 0.44928
 H2316 H 0.20971 0.23960 0.46427
 H2317 H 0.21486 0.18079 0.42816
 H2318 H 0.23485 0.20019 0.43092
 H2319 H 0.19083 0.22405 0.41881
 H2320 H 0.19382 0.22467 0.44624
 C2321 C 0.29431 0.42357 0.70270
 C2322 C 0.29036 0.41922 0.68778
 C2323 C 0.29770 0.40657 0.68074
 C2324 C 0.30916 0.39792 0.68847
 C2325 C 0.31339 0.40255 0.70327
 C2326 C 0.30605 0.41522 0.71029
 C2327 C 0.28557 0.43608 0.71070
 C2328 C 0.29320 0.44662 0.72042
 C2329 C 0.28469 0.45735 0.72909
 C2330 C 0.26844 0.45774 0.72811
 C2331 C 0.26084 0.44758 0.71809
 C2332 C 0.26931 0.43689 0.70941
 H2333 H 0.29426 0.40355 0.66928
 H2334 H 0.32209 0.39620 0.70965
 H2335 H 0.29071 0.46497 0.73695
 H2336 H 0.24828 0.44758 0.71739
 H2337 H 0.30919 0.41813 0.72188
 H2338 H 0.30572 0.44635 0.72155
 H2339 H 0.28149 0.42556 0.68156
 H2340 H 0.26308 0.42878 0.70222
 C2341 C 0.29386 0.92305 0.20234
 C2342 C 0.30498 0.91421 0.21030
 C2343 C 0.31250 0.90163 0.20330
 C2344 C 0.30909 0.89757 0.18815
 C2345 C 0.29823 0.90666 0.18008
 C2346 C 0.29072 0.91924 0.18708
 C2347 C 0.28497 0.93558 0.21020
 C2348 C 0.26889 0.93709 0.20781
 C2349 C 0.26020 0.94789 0.21617
 C2350 C 0.26739 0.95745 0.22703
 C2351 C 0.28348 0.95625 0.22923
 C2352 C 0.29221 0.94546 0.22084
 H2353 H 0.32069 0.89490 0.20996
 H2354 H 0.29542 0.90405 0.16835
 H2355 H 0.24774 0.94843 0.21453
 H2356 H 0.28918 0.96331 0.23778
 H2357 H 0.28238 0.92596 0.18056
 H2358 H 0.26290 0.92947 0.19994
 H2359 H 0.30750 0.91668 0.22214
 H2360 H 0.30458 0.94466 0.22287
 C2361 C 0.79369 0.42308 0.20214
 C2362 C 0.80557 0.41487 0.20965
 C2363 C 0.81308 0.40235 0.20258
 C2364 C 0.80887 0.39765 0.18780
 C2365 C 0.79719 0.40609 0.18015
 C2366 C 0.78969 0.41864 0.18724
 C2367 C 0.78495 0.43559 0.21017
 C2368 C 0.76870 0.43653 0.20882
 C2369 C 0.76026 0.44726 0.21750
 C2370 C 0.76788 0.45734 0.22759
 C2371 C 0.78411 0.45679 0.22867
 C2372 C 0.79259 0.44604 0.22001
 H2373 H 0.82194 0.39618 0.20891
 H2374 H 0.79368 0.40298 0.16873
 H2375 H 0.74771 0.44736 0.21673
 H2376 H 0.79015 0.46431 0.23661
 H2377 H 0.78070 0.42484 0.18107
 H2378 H 0.76244 0.42849 0.20158
 H2379 H 0.80874 0.41780 0.22124
 H2380 H 0.80509 0.44568 0.22122
 C2381 C 0.79353 0.92332 0.70240
 C2382 C 0.78908 0.91850 0.68775
 C2383 C 0.79668 0.90608 0.68056
 C2384 C 0.80892 0.89816 0.68785
 C2385 C 0.81360 0.90323 0.70237
 C2386 C 0.80600 0.91565 0.70955
 C2387 C 0.78466 0.93565 0.71057
 C2388 C 0.79229 0.94660 0.71986
 C2389 C 0.78376 0.95727 0.72859
 C2390 C 0.76748 0.95722 0.72812
 C2391 C 0.75986 0.94658 0.71857
 C2392 C 0.76835 0.93594 0.70984
 H2393 H 0.79286 0.90271 0.66931
 H2394 H 0.82290 0.89741 0.70842
 H2395 H 0.78982 0.96522 0.73609
 H2396 H 0.74729 0.94622 0.71825
 H2397 H 0.80958 0.91891 0.72094
 H2398 H 0.80483 0.94675 0.72057
 H2399 H 0.77966 0.92432 0.68184
 H2400 H 0.76211 0.92750 0.70302
 C2401 C 0.70620 0.57691 0.70240
 C2402 C 0.70960 0.58107 0.68728
 C2403 C 0.70195 0.59360 0.68031
 C2404 C 0.69073 0.60231 0.68829
 C2405 C 0.68703 0.59785 0.70329
 C2406 C 0.69467 0.58531 0.71025
 C2407 C 0.71527 0.56453 0.71027
 C2408 C 0.70805 0.55411 0.72044
 C2409 C 0.71689 0.54343 0.72887
 C2410 C 0.73309 0.54295 0.72720
 C2411 C 0.74028 0.55305 0.71679
 C2412 C 0.73147 0.56369 0.70836
 H2413 H 0.70499 0.59647 0.66869
 H2414 H 0.67853 0.60426 0.70987
 H2415 H 0.71118 0.53589 0.73704
 H2416 H 0.75279 0.55301 0.71554
 H2417 H 0.69193 0.58254 0.72198
 H2418 H 0.69559 0.55439 0.72206
 H2419 H 0.71826 0.57468 0.68085
 H2420 H 0.73742 0.57172 0.70082
 C2421 C 0.70542 0.07648 0.20363
 C2422 C 0.69327 0.08455 0.21088
 C2423 C 0.68574 0.09695 0.20356
 C2424 C 0.69019 0.10156 0.18880
 C2425 C 0.70212 0.09324 0.18145
 C2426 C 0.70963 0.08086 0.18877
 C2427 C 0.71428 0.06418 0.21185
 C2428 C 0.73056 0.06371 0.21080
 C2429 C 0.73912 0.05306 0.21945
 C2430 C 0.73158 0.04261 0.22927
 C2431 C 0.71531 0.04270 0.23007
 C2432 C 0.70672 0.05339 0.22140
 H2433 H 0.67669 0.10310 0.20966
 H2434 H 0.70577 0.09627 0.17004
 H2435 H 0.75168 0.05324 0.21882
 H2436 H 0.70932 0.03482 0.23772
 H2437 H 0.71880 0.07471 0.18280
 H2438 H 0.73675 0.07200 0.20373
 H2439 H 0.68988 0.08158 0.22241
 H2440 H 0.69418 0.05336 0.22233
 C2441 C 0.20611 0.57624 0.20141
 C2442 C 0.20943 0.58040 0.18628
 C2443 C 0.20189 0.59307 0.17943
 C2444 C 0.19086 0.60189 0.18756
 C2445 C 0.18726 0.59744 0.20257
 C2446 C 0.19478 0.58477 0.20941
 C2447 C 0.21512 0.56377 0.20921
 C2448 C 0.20788 0.55346 0.21947
 C2449 C 0.21670 0.54285 0.22799
 C2450 C 0.23290 0.54233 0.22633
 C2451 C 0.24010 0.55226 0.21576
 C2452 C 0.23130 0.56283 0.20724
 H2453 H 0.20486 0.59596 0.16779
 H2454 H 0.17892 0.60394 0.20926
 H2455 H 0.21098 0.53543 0.23626
 H2456 H 0.25261 0.55217 0.21450
 H2457 H 0.19211 0.58200 0.22115
 H2458 H 0.19542 0.55382 0.22113
 H2459 H 0.21795 0.57391 0.17975
 H2460 H 0.23725 0.57077 0.19962
 C2461 C 0.20508 0.07685 0.70416
 C2462 C 0.20855 0.08066 0.68897
 C2463 C 0.20120 0.09326 0.68182
 C2464 C 0.19021 0.10237 0.68969
 C2465 C 0.18641 0.09823 0.70476
 C2466 C 0.19376 0.08562 0.71190
 C2467 C 0.21393 0.06442 0.71219
 C2468 C 0.20652 0.05419 0.72241
 C2469 C 0.21518 0.04339 0.73087
 C2470 C 0.23136 0.04262 0.72921
 C2471 C 0.23874 0.05256 0.71878
 C2472 C 0.23011 0.06332 0.71031
 H2473 H 0.20430 0.09587 0.67016
 H2474 H 0.17806 0.10493 0.71124
 H2475 H 0.20934 0.03598 0.73907
 H2476 H 0.25125 0.05231 0.71756
 H2477 H 0.19096 0.08308 0.72367
 H2478 H 0.19406 0.05471 0.72403
 H2479 H 0.21705 0.07396 0.68264
 H2480 H 0.23619 0.07123 0.70276
 C2481 C 0.29581 0.57761 0.29381
 C2482 C 0.28742 0.58638 0.30456
 C2483 C 0.29443 0.59877 0.31226
 C2484 C 0.31001 0.60271 0.30939
 C2485 C 0.31846 0.59379 0.29879
 C2486 C 0.31144 0.58138 0.29110
 C2487 C 0.28804 0.56516 0.28486
 C2488 C 0.29079 0.56388 0.26912
 C2489 C 0.28263 0.55305 0.26039
 C2490 C 0.27163 0.54319 0.26720
 C2491 C 0.26907 0.54417 0.28295
 C2492 C 0.27727 0.55502 0.29173
 H2493 H 0.28751 0.60550 0.32019
 H2494 H 0.33052 0.59633 0.29641
 H2495 H 0.28454 0.55266 0.24819
 H2496 H 0.26041 0.53686 0.28836
 H2497 H 0.31825 0.57474 0.28299
 H2498 H 0.29879 0.57169 0.26344
 H2499 H 0.27528 0.58397 0.30667
 H2500 H 0.27502 0.55562 0.30385
 C2501 C 0.29440 0.07725 0.79627
 C2502 C 0.30622 0.08559 0.78883
 C2503 C 0.31366 0.09804 0.79609
 C2504 C 0.30944 0.10243 0.81097
 C2505 C 0.29777 0.09393 0.81846
 C2506 C 0.29034 0.08150 0.81121
 C2507 C 0.28576 0.06474 0.78819
 C2508 C 0.26952 0.06379 0.78958
 C2509 C 0.26116 0.05292 0.78108
 C2510 C 0.26883 0.04272 0.77109
 C2511 C 0.28507 0.04327 0.76999
 C2512 C 0.29348 0.05418 0.77851
 H2513 H 0.32247 0.10439 0.78987
 H2514 H 0.29431 0.09682 0.82997
 H2515 H 0.24861 0.05276 0.78193
 H2516 H 0.29115 0.03560 0.76221
 H2517 H 0.28139 0.07520 0.81731
 H2518 H 0.26321 0.07187 0.79679
 H2519 H 0.30942 0.08280 0.77721
 H2520 H 0.30599 0.05450 0.77736
 C2521 C 0.79615 0.57766 0.79457
 C2522 C 0.78780 0.58619 0.80553
 C2523 C 0.79476 0.59861 0.81326
 C2524 C 0.81022 0.60279 0.81019
 C2525 C 0.81866 0.59405 0.79945
 C2526 C 0.81172 0.58162 0.79174
 C2527 C 0.78841 0.56524 0.78555
 C2528 C 0.79107 0.56414 0.76979
 C2529 C 0.78297 0.55330 0.76100
 C2530 C 0.77210 0.54328 0.76778
 C2531 C 0.76961 0.54410 0.78355
 C2532 C 0.77775 0.55494 0.79238
 H2533 H 0.78786 0.60518 0.82134
 H2534 H 0.83066 0.59677 0.79696
 H2535 H 0.78483 0.55304 0.74880
 H2536 H 0.76106 0.53666 0.78894
 H2537 H 0.81854 0.57512 0.78354
 H2538 H 0.79896 0.57209 0.76413
 H2539 H 0.77572 0.58359 0.80778
 H2540 H 0.77555 0.55543 0.80452
 C2541 C 0.79449 0.07626 0.29721
 C2542 C 0.80645 0.08439 0.28975
 C2543 C 0.81390 0.09689 0.29688
 C2544 C 0.80958 0.10156 0.31165
 C2545 C 0.79789 0.09315 0.31924
 C2546 C 0.79044 0.08067 0.31210
 C2547 C 0.78566 0.06391 0.28914
 C2548 C 0.76939 0.06332 0.29039
 C2549 C 0.76086 0.05268 0.28178
 C2550 C 0.76840 0.04235 0.27182
 C2551 C 0.78465 0.04255 0.27084
 C2552 C 0.79323 0.05322 0.27946
 H2553 H 0.82278 0.10308 0.29060
 H2554 H 0.79436 0.09622 0.33067
 H2555 H 0.74830 0.05281 0.28250
 H2556 H 0.79064 0.03479 0.26306
 H2557 H 0.78140 0.07450 0.31822
 H2558 H 0.76320 0.07153 0.29755
 H2559 H 0.80969 0.08144 0.27819
 H2560 H 0.80575 0.05330 0.27839
 C2561 C 0.70627 0.42270 0.29625
 C2562 C 0.69413 0.41476 0.28892
 C2563 C 0.68667 0.40226 0.29607
 C2564 C 0.69115 0.39740 0.31074
 C2565 C 0.70313 0.40553 0.31815
 C2566 C 0.71060 0.41802 0.31099
 C2567 C 0.71494 0.43519 0.28818
 C2568 C 0.73123 0.43573 0.28904
 C2569 C 0.73958 0.44648 0.28035
 C2570 C 0.73183 0.45700 0.27074
 C2571 C 0.71556 0.45685 0.27015
 C2572 C 0.70717 0.44605 0.27884
 H2573 H 0.67762 0.39623 0.28990
 H2574 H 0.70683 0.40229 0.32949
 H2575 H 0.75216 0.44628 0.28073
 H2576 H 0.70940 0.46473 0.26261
 H2577 H 0.71980 0.42402 0.31700
 H2578 H 0.73758 0.42738 0.29594
 H2579 H 0.69071 0.41790 0.27745
 H2580 H 0.69462 0.44601 0.27805
 C2581 C 0.70562 0.92325 0.79688
 C2582 C 0.69344 0.91541 0.78951
 C2583 C 0.68596 0.90286 0.79656
 C2584 C 0.69047 0.89784 0.81117
 C2585 C 0.70242 0.90595 0.81866
 C2586 C 0.70990 0.91849 0.81160
 C2587 C 0.71442 0.93567 0.78885
 C2588 C 0.73072 0.93605 0.78976
 C2589 C 0.73920 0.94674 0.78111
 C2590 C 0.73157 0.95732 0.77147
 C2591 C 0.71530 0.95735 0.77086
 C2592 C 0.70678 0.94662 0.77950
 H2593 H 0.67689 0.89691 0.79035
 H2594 H 0.70612 0.90261 0.82998
 H2595 H 0.75177 0.94643 0.78155
 H2596 H 0.70924 0.96531 0.76332
 H2597 H 0.71910 0.92443 0.81766
 H2598 H 0.73696 0.92762 0.79665
 H2599 H 0.69001 0.91865 0.77806
 H2600 H 0.69424 0.94670 0.77866
 C2601 C 0.20636 0.42304 0.79651
 C2602 C 0.19418 0.41513 0.78921
 C2603 C 0.18667 0.40268 0.79639
 C2604 C 0.19116 0.39783 0.81105
 C2605 C 0.20314 0.40597 0.81847
 C2606 C 0.21064 0.41842 0.81128
 C2607 C 0.21512 0.43544 0.78840
 C2608 C 0.23140 0.43593 0.78935
 C2609 C 0.23983 0.44669 0.78073
 C2610 C 0.23216 0.45723 0.77108
 C2611 C 0.21589 0.45709 0.77037
 C2612 C 0.20742 0.44631 0.77900
 H2613 H 0.17760 0.39668 0.79024
 H2614 H 0.20682 0.40274 0.82982
 H2615 H 0.25240 0.44648 0.78121
 H2616 H 0.20979 0.46499 0.76280
 H2617 H 0.21985 0.42441 0.81727
 H2618 H 0.23769 0.42756 0.79626
 H2619 H 0.19077 0.41824 0.77772
 H2620 H 0.19488 0.44629 0.77813
 C2621 C 0.20314 0.92288 0.29346
 C2622 C 0.21133 0.91488 0.30494
 C2623 C 0.20453 0.90235 0.31266
 C2624 C 0.18942 0.89746 0.30904
 C2625 C 0.18109 0.90567 0.29783
 C2626 C 0.18786 0.91826 0.29015
 C2627 C 0.21084 0.93542 0.28446
 C2628 C 0.20844 0.93649 0.26865
 C2629 C 0.21668 0.94733 0.25993
 C2630 C 0.22745 0.95737 0.26681
 C2631 C 0.22961 0.95662 0.28264
 C2632 C 0.22131 0.94582 0.29140
 H2633 H 0.21133 0.89621 0.32114
 H2634 H 0.16933 0.90239 0.29495
 H2635 H 0.21503 0.94755 0.24770
 H2636 H 0.23806 0.96407 0.28814
 H2637 H 0.18113 0.92433 0.28157
 H2638 H 0.20068 0.92851 0.26288
 H2639 H 0.22321 0.91794 0.30761
 H2640 H 0.22328 0.94543 0.30357
 C2641 C 0.42330 0.29546 0.70380
 C2642 C 0.41873 0.31081 0.70731
 C2643 C 0.40616 0.31773 0.69984
 C2644 C 0.39790 0.30949 0.68865
 C2645 C 0.40275 0.29431 0.68481
 C2646 C 0.41529 0.28736 0.69233
 C2647 C 0.43571 0.28757 0.71272
 C2648 C 0.44622 0.27723 0.70567
 C2649 C 0.45691 0.26875 0.71438
 C2650 C 0.45737 0.27058 0.73025
 C2651 C 0.44721 0.28120 0.73725
 C2652 C 0.43650 0.28962 0.72858
 H2653 H 0.40291 0.32954 0.70290
 H2654 H 0.39658 0.28757 0.67634
 H2655 H 0.46452 0.26042 0.70882
 H2656 H 0.44724 0.28257 0.74952
 H2657 H 0.41835 0.27543 0.68952
 H2658 H 0.44599 0.27552 0.69345
 H2659 H 0.42483 0.31746 0.71591
 H2660 H 0.42839 0.29724 0.73441
 C2661 C 0.42370 0.79636 0.20473
 C2662 C 0.41582 0.78801 0.19334
 C2663 C 0.40329 0.79476 0.18561
 C2664 C 0.39833 0.80998 0.18916
 C2665 C 0.40648 0.81847 0.20024
 C2666 C 0.41904 0.81177 0.20790
 C2667 C 0.43603 0.78871 0.21395
 C2668 C 0.43669 0.79122 0.22976
 C2669 C 0.44738 0.78313 0.23874
 C2670 C 0.45761 0.77231 0.23213
 C2671 C 0.45726 0.77000 0.21631
 C2672 C 0.44662 0.77820 0.20727
 H2673 H 0.39720 0.78783 0.17723
 H2674 H 0.40314 0.83031 0.20308
 H2675 H 0.44735 0.78494 0.25095
 H2676 H 0.46493 0.76155 0.21103
 H2677 H 0.42504 0.81862 0.21642
 H2678 H 0.42852 0.79898 0.23531
 H2679 H 0.41894 0.77603 0.19078
 H2680 H 0.44651 0.77614 0.19511
 C2681 C 0.92341 0.29611 0.20446
 C2682 C 0.91576 0.28814 0.19266
 C2683 C 0.90340 0.29513 0.18490
 C2684 C 0.89833 0.31023 0.18881
 C2685 C 0.90623 0.31836 0.20033
 C2686 C 0.91864 0.31139 0.20804
 C2687 C 0.93567 0.28817 0.21354
 C2688 C 0.93610 0.28996 0.22945
 C2689 C 0.94672 0.28151 0.23821
 C2690 C 0.95717 0.27113 0.23127
 C2691 C 0.95702 0.26952 0.21537
 C2692 C 0.94643 0.27804 0.20657
 H2693 H 0.89751 0.28847 0.17618
 H2694 H 0.90282 0.33010 0.20345
 H2695 H 0.94648 0.28269 0.25050
 H2696 H 0.96481 0.26135 0.20983
 H2697 H 0.92445 0.31794 0.21691
 H2698 H 0.92780 0.29742 0.23522
 H2699 H 0.91896 0.27627 0.18978
 H2700 H 0.94648 0.27652 0.19433
 C2701 C 0.92358 0.79620 0.70463
 C2702 C 0.91954 0.81186 0.70739
 C2703 C 0.90708 0.81878 0.69973
 C2704 C 0.89838 0.81022 0.68908
 C2705 C 0.90268 0.79468 0.68602
 C2706 C 0.91512 0.78775 0.69372
 C2707 C 0.93593 0.78842 0.71372
 C2708 C 0.94603 0.77745 0.70702
 C2709 C 0.95669 0.76916 0.71596
 C2710 C 0.95754 0.77183 0.73170
 C2711 C 0.94776 0.78305 0.73833
 C2712 C 0.93708 0.79127 0.72945
 H2713 H 0.90428 0.83084 0.70221
 H2714 H 0.89620 0.78769 0.67799
 H2715 H 0.96397 0.76036 0.71069
 H2716 H 0.94808 0.78507 0.75051
 H2717 H 0.91777 0.77559 0.69149
 H2718 H 0.94551 0.77509 0.69492
 H2719 H 0.92598 0.81876 0.71555
 H2720 H 0.92928 0.79939 0.73502
 C2721 C 0.57607 0.29519 0.29642
 C2722 C 0.58027 0.29112 0.31136
 C2723 C 0.59269 0.29850 0.31856
 C2724 C 0.60122 0.31015 0.31101
 C2725 C 0.59677 0.31450 0.29618
 C2726 C 0.58433 0.30710 0.28897
 C2727 C 0.56381 0.28635 0.28828
 C2728 C 0.55330 0.29397 0.27850
 C2729 C 0.54270 0.28535 0.26986
 C2730 C 0.54242 0.26899 0.27092
 C2731 C 0.55261 0.26140 0.28095
 C2732 C 0.56316 0.26999 0.28959
 H2733 H 0.59560 0.29495 0.33003
 H2734 H 0.60310 0.32333 0.28994
 H2735 H 0.53507 0.29136 0.26199
 H2736 H 0.55270 0.24877 0.28172
 H2737 H 0.58152 0.31035 0.27737
 H2738 H 0.55345 0.30657 0.27735
 H2739 H 0.57398 0.28213 0.31746
 H2740 H 0.57127 0.26375 0.29682
 C2741 C 0.57563 0.79514 0.79640
 C2742 C 0.57937 0.79169 0.81160
 C2743 C 0.59180 0.79911 0.81877
 C2744 C 0.60081 0.81019 0.81092
 C2745 C 0.59680 0.81394 0.79582
 C2746 C 0.58434 0.80651 0.78864
 C2747 C 0.56336 0.78619 0.78837
 C2748 C 0.55315 0.79359 0.77812
 C2749 C 0.54249 0.78482 0.76970
 C2750 C 0.54184 0.76854 0.77143
 C2751 C 0.55173 0.76119 0.78193
 C2752 C 0.56236 0.76992 0.79033
 H2753 H 0.59435 0.79607 0.83046
 H2754 H 0.60350 0.82231 0.78934
 H2755 H 0.53504 0.79065 0.76152
 H2756 H 0.55152 0.74861 0.78327
 H2757 H 0.58188 0.80926 0.77684
 H2758 H 0.55357 0.80612 0.77647
 H2759 H 0.57272 0.78315 0.81794
 H2760 H 0.57024 0.76384 0.79791
 C2761 C 0.07647 0.29548 0.79581
 C2762 C 0.08512 0.30706 0.78830
 C2763 C 0.09751 0.31442 0.79563
 C2764 C 0.10152 0.31039 0.81066
 C2765 C 0.09261 0.29906 0.81828
 C2766 C 0.08024 0.29170 0.81094
 C2767 C 0.06420 0.28672 0.78760
 C2768 C 0.06322 0.27040 0.78917
 C2769 C 0.05257 0.26188 0.78058
 C2770 C 0.04262 0.26948 0.77033
 C2771 C 0.04325 0.28579 0.76897
 C2772 C 0.05395 0.29436 0.77755
 H2773 H 0.10415 0.32297 0.78934
 H2774 H 0.09518 0.29578 0.82991
 H2775 H 0.05240 0.24926 0.78159
 H2776 H 0.03578 0.29182 0.76095
 H2777 H 0.07365 0.28297 0.81709
 H2778 H 0.07112 0.26414 0.79659
 H2779 H 0.08267 0.31004 0.77655
 H2780 H 0.05438 0.30693 0.77618
 C2781 C 0.07565 0.79516 0.29688
 C2782 C 0.07913 0.79227 0.31225
 C2783 C 0.09164 0.79973 0.31927
 C2784 C 0.10100 0.81023 0.31105
 C2785 C 0.09722 0.81344 0.29578
 C2786 C 0.08468 0.80600 0.28879
 C2787 C 0.06339 0.78613 0.28898
 C2788 C 0.05345 0.79336 0.27837
 C2789 C 0.04295 0.78446 0.26988
 C2790 C 0.04221 0.76823 0.27192
 C2791 C 0.05182 0.76105 0.28276
 C2792 C 0.06226 0.76992 0.29126
 H2793 H 0.09402 0.79709 0.33109
 H2794 H 0.10416 0.82135 0.28902
 H2795 H 0.03574 0.79015 0.26142
 H2796 H 0.05154 0.74849 0.28431
 H2797 H 0.08242 0.80830 0.27686
 H2798 H 0.05399 0.80585 0.27647
 H2799 H 0.07225 0.78410 0.31882
 H2800 H 0.06993 0.76398 0.29916
 C2801 C 0.57595 0.70374 0.70497
 C2802 C 0.58367 0.71187 0.69330
 C2803 C 0.59622 0.70505 0.68566
 C2804 C 0.60137 0.68997 0.68956
 C2805 C 0.59340 0.68170 0.70096
 C2806 C 0.58082 0.68849 0.70855
 C2807 C 0.56354 0.71152 0.71401
 C2808 C 0.56305 0.70961 0.72991
 C2809 C 0.55233 0.71791 0.73868
 C2810 C 0.54184 0.72828 0.73177
 C2811 C 0.54199 0.72994 0.71586
 C2812 C 0.55270 0.72157 0.70704
 H2813 H 0.60216 0.71182 0.67704
 H2814 H 0.59688 0.66998 0.70409
 H2815 H 0.55254 0.71664 0.75096
 H2816 H 0.53413 0.73806 0.71033
 H2817 H 0.57497 0.68183 0.71732
 H2818 H 0.57140 0.70220 0.73567
 H2819 H 0.58039 0.72373 0.69043
 H2820 H 0.55269 0.72317 0.69481
 C2821 C 0.57685 0.20614 0.20310
 C2822 C 0.58126 0.21030 0.18824
 C2823 C 0.59374 0.20286 0.18111
 C2824 C 0.60210 0.19103 0.18865
 C2825 C 0.59752 0.18670 0.20345
 C2826 C 0.58503 0.19416 0.21058
 C2827 C 0.56439 0.21488 0.21112
 C2828 C 0.55378 0.20716 0.22071
 C2829 C 0.54304 0.21569 0.22931
 C2830 C 0.54268 0.23205 0.22839
 C2831 C 0.55294 0.23974 0.21851
 C2832 C 0.56365 0.23125 0.20992
 H2833 H 0.59679 0.20644 0.16969
 H2834 H 0.60375 0.17778 0.20970
 H2835 H 0.53534 0.20959 0.23705
 H2836 H 0.55295 0.25238 0.21784
 H2837 H 0.58207 0.19086 0.22213
 H2838 H 0.55399 0.19455 0.22175
 H2839 H 0.57506 0.21936 0.18212
 H2840 H 0.57180 0.23755 0.20282
 C2841 C 0.07633 0.70337 0.20519
 C2842 C 0.08130 0.68815 0.20880
 C2843 C 0.09382 0.68136 0.20111
 C2844 C 0.10165 0.68960 0.18960
 C2845 C 0.09638 0.70463 0.18565
 C2846 C 0.08388 0.71144 0.19337
 C2847 C 0.06403 0.71116 0.21435
 C2848 C 0.05307 0.72115 0.20747
 C2849 C 0.04242 0.72950 0.21637
 C2850 C 0.04248 0.72791 0.23229
 C2851 C 0.05311 0.71763 0.23912
 C2852 C 0.06377 0.70935 0.23026
 H2853 H 0.09737 0.66966 0.20427
 H2854 H 0.10219 0.71137 0.17692
 H2855 H 0.03444 0.73752 0.21091
 H2856 H 0.05346 0.71640 0.25140
 H2857 H 0.08050 0.72326 0.19045
 H2858 H 0.05290 0.72269 0.19522
 H2859 H 0.07556 0.68151 0.21766
 H2860 H 0.07222 0.70201 0.23595
 C2861 C 0.07585 0.20448 0.70367
 C2862 C 0.07933 0.20768 0.68835
 C2863 C 0.09185 0.20033 0.68117
 C2864 C 0.10123 0.18963 0.68915
 C2865 C 0.09741 0.18606 0.70434
 C2866 C 0.08486 0.19339 0.71151
 C2867 C 0.06356 0.21341 0.71175
 C2868 C 0.05368 0.20604 0.72231
 C2869 C 0.04311 0.21482 0.73089
 C2870 C 0.04222 0.23108 0.72901
 C2871 C 0.05179 0.23839 0.71823
 C2872 C 0.06231 0.22965 0.70964
 H2873 H 0.09423 0.20321 0.66940
 H2874 H 0.10431 0.17792 0.71091
 H2875 H 0.03596 0.20902 0.73932
 H2876 H 0.05141 0.25096 0.71682
 H2877 H 0.08259 0.19082 0.72338
 H2878 H 0.05432 0.19354 0.72410
 H2879 H 0.07244 0.21600 0.68194
 H2880 H 0.06994 0.23570 0.70181
 C2881 C 0.42382 0.70658 0.29798
 C2882 C 0.41564 0.69480 0.29029
 C2883 C 0.40329 0.68708 0.29736
 C2884 C 0.39883 0.69096 0.31230
 C2885 C 0.40724 0.70253 0.32009
 C2886 C 0.41958 0.71024 0.31301
 C2887 C 0.43614 0.71558 0.29005
 C2888 C 0.43698 0.73189 0.29177
 C2889 C 0.44762 0.74060 0.28331
 C2890 C 0.45768 0.73321 0.27301
 C2891 C 0.45723 0.71689 0.27157
 C2892 C 0.44658 0.70814 0.28006
 H2893 H 0.39705 0.67835 0.29092
 H2894 H 0.40430 0.70569 0.33165
 H2895 H 0.44768 0.75321 0.28441
 H2896 H 0.46479 0.71099 0.26355
 H2897 H 0.42578 0.71911 0.31932
 H2898 H 0.42897 0.73801 0.29917
 H2899 H 0.41845 0.69188 0.27861
 H2900 H 0.44632 0.69558 0.27861
 C2901 C 0.42332 0.20468 0.79544
 C2902 C 0.41488 0.21295 0.80652
 C2903 C 0.40247 0.20591 0.81414
 C2904 C 0.39822 0.19043 0.81087
 C2905 C 0.40684 0.18208 0.79996
 C2906 C 0.41925 0.18911 0.79236
 C2907 C 0.43569 0.21258 0.78651
 C2908 C 0.43667 0.21028 0.77069
 C2909 C 0.44740 0.21862 0.76200
 C2910 C 0.45742 0.22936 0.76893
 C2911 C 0.45674 0.23147 0.78476
 C2912 C 0.44599 0.22311 0.79350
 H2913 H 0.39600 0.21279 0.82231
 H2914 H 0.40403 0.17009 0.79725
 H2915 H 0.44757 0.21708 0.74975
 H2916 H 0.46420 0.23993 0.79026
 H2917 H 0.42565 0.18236 0.78402
 H2918 H 0.42868 0.20252 0.76493
 H2919 H 0.41754 0.22506 0.80895
 H2920 H 0.44553 0.22509 0.80567
 C2921 C 0.92439 0.70595 0.79793
 C2922 C 0.91601 0.69433 0.79023
 C2923 C 0.90365 0.68670 0.79735
 C2924 C 0.89938 0.69051 0.81236
 C2925 C 0.90806 0.70183 0.82020
 C2926 C 0.92041 0.70946 0.81307
 C2927 C 0.93655 0.71502 0.78986
 C2928 C 0.93724 0.73134 0.79156
 C2929 C 0.94769 0.74014 0.78296
 C2930 C 0.95772 0.73281 0.77259
 C2931 C 0.95735 0.71649 0.77111
 C2932 C 0.94687 0.70766 0.77971
 H2933 H 0.89722 0.67814 0.79088
 H2934 H 0.90529 0.70492 0.83183
 H2935 H 0.94767 0.75274 0.78407
 H2936 H 0.96485 0.71067 0.76299
 H2937 H 0.92681 0.71821 0.81937
 H2938 H 0.92927 0.73737 0.79907
 H2939 H 0.91865 0.69152 0.77848
 H2940 H 0.94667 0.69510 0.77825
 C2941 C 0.92285 0.20488 0.29545
 C2942 C 0.91845 0.18948 0.29199
 C2943 C 0.90580 0.18257 0.29932
 C2944 C 0.89727 0.19087 0.31033
 C2945 C 0.90186 0.20616 0.31400
 C2946 C 0.91448 0.21309 0.30663
 C2947 C 0.93547 0.21267 0.28680
 C2948 C 0.94579 0.22301 0.29404
 C2949 C 0.95666 0.23146 0.28553
 C2950 C 0.95745 0.22960 0.26968
 C2951 C 0.94759 0.21887 0.26252
 C2952 C 0.93671 0.21049 0.27098
 H2953 H 0.90274 0.17072 0.29630
 H2954 H 0.89547 0.21298 0.32227
 H2955 H 0.96411 0.23979 0.29122
 H2956 H 0.94796 0.21741 0.25027
 H2957 H 0.91736 0.22508 0.30934
 H2958 H 0.94526 0.22477 0.30625
 H2959 H 0.92477 0.18278 0.28355
 H2960 H 0.92882 0.20280 0.26501
 C2961 C 0.29613 0.29470 0.57536
 C2962 C 0.28827 0.30649 0.58341
 C2963 C 0.29534 0.31393 0.59575
 C2964 C 0.31044 0.30976 0.60031
 C2965 C 0.31841 0.29820 0.59203
 C2966 C 0.31133 0.29075 0.57971
 C2967 C 0.28812 0.28592 0.56310
 C2968 C 0.28952 0.26957 0.56235
 C2969 C 0.28090 0.26106 0.55179
 C2970 C 0.27079 0.26872 0.54172
 C2971 C 0.26970 0.28506 0.54207
 C2972 C 0.27832 0.29361 0.55267
 H2973 H 0.28876 0.32265 0.60190
 H2974 H 0.33012 0.29482 0.59505
 H2975 H 0.28170 0.24843 0.55179
 H2976 H 0.26180 0.29111 0.53448
 H2977 H 0.31775 0.28184 0.57361
 H2978 H 0.29677 0.26328 0.57036
 H2979 H 0.27645 0.30960 0.58051
 H2980 H 0.27711 0.30620 0.55290
 C2981 C 0.29744 0.79393 0.07510
 C2982 C 0.28979 0.80620 0.08265
 C2983 C 0.29682 0.81378 0.09492
 C2984 C 0.31168 0.80929 0.09995
 C2985 C 0.31947 0.79725 0.09214
 C2986 C 0.31243 0.78966 0.07987
 C2987 C 0.28942 0.78507 0.06289
 C2988 C 0.29040 0.76868 0.06248
 C2989 C 0.28170 0.76017 0.05196
 C2990 C 0.27195 0.76786 0.04159
 C2991 C 0.27126 0.78424 0.04164
 C2992 C 0.27996 0.79278 0.05218
 H2993 H 0.29038 0.82290 0.10067
 H2994 H 0.33099 0.79358 0.09550
 H2995 H 0.28217 0.74752 0.05223
 H2996 H 0.26359 0.79035 0.03387
 H2997 H 0.31870 0.78039 0.07415
 H2998 H 0.29736 0.76238 0.07073
 H2999 H 0.27814 0.80961 0.07941
 H3000 H 0.27907 0.80540 0.05214
 C3001 C 0.79780 0.29378 0.07476
 C3002 C 0.78967 0.30547 0.08270
 C3003 C 0.79647 0.31302 0.09512
 C3004 C 0.81155 0.30905 0.09989
 C3005 C 0.81980 0.29761 0.09172
 C3006 C 0.81301 0.29007 0.07930
 C3007 C 0.79007 0.28484 0.06244
 C3008 C 0.79188 0.26853 0.06164
 C3009 C 0.78342 0.25982 0.05111
 C3010 C 0.77305 0.26722 0.04112
 C3011 C 0.77161 0.28355 0.04148
 C3012 C 0.78008 0.29230 0.05203
 H3013 H 0.78969 0.32167 0.10117
 H3014 H 0.83151 0.29439 0.09489
 H3015 H 0.78454 0.24721 0.05110
 H3016 H 0.76353 0.28944 0.03394
 H3017 H 0.81964 0.28125 0.07328
 H3018 H 0.79930 0.26240 0.06962
 H3019 H 0.77784 0.30842 0.07964
 H3020 H 0.77859 0.30486 0.05225
 C3021 C 0.79707 0.79374 0.57544
 C3022 C 0.78933 0.80591 0.58306
 C3023 C 0.79627 0.81345 0.59540
 C3024 C 0.81114 0.80901 0.60044
 C3025 C 0.81898 0.79701 0.59264
 C3026 C 0.81203 0.78947 0.58029
 C3027 C 0.78917 0.78499 0.56307
 C3028 C 0.79028 0.76861 0.56245
 C3029 C 0.78167 0.76017 0.55182
 C3030 C 0.77185 0.76792 0.54154
 C3031 C 0.77109 0.78428 0.54174
 C3032 C 0.77971 0.79276 0.55240
 H3033 H 0.78977 0.82250 0.60117
 H3034 H 0.83049 0.79334 0.59604
 H3035 H 0.78221 0.74752 0.55195
 H3036 H 0.76340 0.79044 0.53403
 H3037 H 0.81836 0.78025 0.57455
 H3038 H 0.79727 0.76225 0.57063
 H3039 H 0.77767 0.80929 0.57978
 H3040 H 0.77874 0.80538 0.55249
 C3041 C 0.29556 0.70434 0.42433
 C3042 C 0.31100 0.70777 0.42042
 C3043 C 0.31812 0.70034 0.40808
 C3044 C 0.30997 0.68934 0.39931
 C3045 C 0.29468 0.68555 0.40354
 C3046 C 0.28756 0.69297 0.41591
 C3047 C 0.28755 0.71323 0.43656
 C3048 C 0.27736 0.70575 0.44674
 C3049 C 0.26886 0.71444 0.45737
 C3050 C 0.27047 0.73073 0.45798
 C3051 C 0.28093 0.73817 0.44813
 C3052 C 0.28943 0.72951 0.43755
 H3053 H 0.33003 0.70331 0.40544
 H3054 H 0.28801 0.67715 0.39710
 H3055 H 0.26068 0.70856 0.46477
 H3056 H 0.28213 0.75076 0.44834
 H3057 H 0.27560 0.69017 0.41856
 H3058 H 0.27580 0.69321 0.44631
 H3059 H 0.31756 0.71626 0.42690
 H3060 H 0.29698 0.73565 0.42971
 C3061 C 0.29653 0.20527 0.92479
 C3062 C 0.28875 0.19338 0.91688
 C3063 C 0.29575 0.18600 0.90445
 C3064 C 0.31070 0.19035 0.89962
 C3065 C 0.31861 0.20200 0.90778
 C3066 C 0.31161 0.20938 0.92021
 C3067 C 0.28854 0.21401 0.93711
 C3068 C 0.28975 0.23037 0.93782
 C3069 C 0.28104 0.23884 0.94838
 C3070 C 0.27104 0.23114 0.95849
 C3071 C 0.27016 0.21478 0.95819
 C3072 C 0.27888 0.20627 0.94761
 H3073 H 0.28921 0.17719 0.89843
 H3074 H 0.33021 0.20553 0.90458
 H3075 H 0.28168 0.25148 0.94833
 H3076 H 0.26233 0.20867 0.96579
 H3077 H 0.31795 0.21840 0.92618
 H3078 H 0.29689 0.23669 0.92976
 H3079 H 0.27700 0.19016 0.91996
 H3080 H 0.27784 0.19367 0.94742
 C3081 C 0.79631 0.70512 0.92464
 C3082 C 0.81147 0.70909 0.92023
 C3083 C 0.81856 0.70169 0.90787
 C3084 C 0.81067 0.69010 0.89960
 C3085 C 0.79563 0.68586 0.90426
 C3086 C 0.78853 0.69328 0.91663
 C3087 C 0.78828 0.71395 0.93691
 C3088 C 0.77843 0.70634 0.94733
 C3089 C 0.76984 0.71496 0.95796
 C3090 C 0.77101 0.73130 0.95834
 C3091 C 0.78116 0.73887 0.94829
 C3092 C 0.78975 0.73029 0.93771
 H3093 H 0.83021 0.70517 0.90479
 H3094 H 0.78911 0.67710 0.89814
 H3095 H 0.76189 0.70896 0.96551
 H3096 H 0.78202 0.75149 0.94830
 H3097 H 0.77674 0.69013 0.91958
 H3098 H 0.77716 0.69376 0.94708
 H3099 H 0.81783 0.71803 0.92630
 H3100 H 0.79703 0.73653 0.92970
 C3101 C 0.79554 0.20387 0.42489
 C3102 C 0.79281 0.18811 0.42133
 C3103 C 0.80032 0.18107 0.40900
 C3104 C 0.81077 0.18961 0.39995
 C3105 C 0.81387 0.20523 0.40381
 C3106 C 0.80634 0.21228 0.41614
 C3107 C 0.78647 0.21176 0.43707
 C3108 C 0.79346 0.22276 0.44678
 C3109 C 0.78452 0.23110 0.45734
 C3110 C 0.76849 0.22848 0.45843
 C3111 C 0.76157 0.21725 0.44902
 C3112 C 0.77046 0.20895 0.43847
 H3113 H 0.79786 0.16894 0.40655
 H3114 H 0.82175 0.21221 0.39705
 H3115 H 0.79002 0.23991 0.46434
 H3116 H 0.74915 0.21527 0.44952
 H3117 H 0.80854 0.22450 0.41846
 H3118 H 0.80579 0.22510 0.44603
 H3119 H 0.78475 0.18125 0.42802
 H3120 H 0.76466 0.20080 0.43097
 C3121 C 0.70211 0.29433 0.42475
 C3122 C 0.68684 0.29076 0.42038
 C3123 C 0.67992 0.29840 0.40804
 C3124 C 0.68813 0.30977 0.39976
 C3125 C 0.70326 0.31362 0.40439
 C3126 C 0.71017 0.30598 0.41674
 C3127 C 0.70994 0.28533 0.43703
 C3128 C 0.71997 0.29275 0.44738
 C3129 C 0.72844 0.28398 0.45798
 C3130 C 0.72695 0.26767 0.45846
 C3131 C 0.71659 0.26030 0.44847
 C3132 C 0.70814 0.26903 0.43789
 H3133 H 0.66816 0.29529 0.40501
 H3134 H 0.71000 0.32223 0.39827
 H3135 H 0.73655 0.28985 0.46545
 H3136 H 0.71547 0.24769 0.44853
 H3137 H 0.72204 0.30884 0.41967
 H3138 H 0.72148 0.30530 0.44709
 H3139 H 0.68024 0.28198 0.42647
 H3140 H 0.70071 0.26293 0.42994
 C3141 C 0.70219 0.79441 0.92470
 C3142 C 0.68713 0.79035 0.92004
 C3143 C 0.68014 0.79789 0.90768
 C3144 C 0.68804 0.80967 0.89965
 C3145 C 0.70296 0.81400 0.90457
 C3146 C 0.70995 0.80646 0.91693
 C3147 C 0.71016 0.78555 0.93699
 C3148 C 0.71987 0.79318 0.94750
 C3149 C 0.72850 0.78458 0.95811
 C3150 C 0.72749 0.76823 0.95844
 C3151 C 0.71746 0.76063 0.94831
 C3152 C 0.70884 0.76919 0.93772
 H3153 H 0.66856 0.79437 0.90442
 H3154 H 0.70948 0.82294 0.89869
 H3155 H 0.73637 0.79062 0.96569
 H3156 H 0.71672 0.74799 0.94827
 H3157 H 0.72166 0.80971 0.92008
 H3158 H 0.72102 0.80577 0.94731
 H3159 H 0.68076 0.78126 0.92592
 H3160 H 0.70168 0.76293 0.92965
 C3161 C 0.20252 0.29430 0.92464
 C3162 C 0.18742 0.29035 0.92000
 C3163 C 0.18048 0.29795 0.90766
 C3164 C 0.18847 0.30968 0.89963
 C3165 C 0.20344 0.31388 0.90453
 C3166 C 0.21038 0.30627 0.91687
 C3167 C 0.21039 0.28539 0.93694
 C3168 C 0.22004 0.29297 0.94753
 C3169 C 0.22856 0.28431 0.95818
 C3170 C 0.22748 0.26797 0.95846
 C3171 C 0.21749 0.26042 0.94825
 C3172 C 0.20900 0.26904 0.93762
 H3173 H 0.16887 0.29454 0.90442
 H3174 H 0.21002 0.32278 0.89865
 H3175 H 0.23639 0.29030 0.96584
 H3176 H 0.21669 0.24779 0.94819
 H3177 H 0.22212 0.30941 0.92002
 H3178 H 0.22123 0.30556 0.94738
 H3179 H 0.18099 0.28133 0.92590
 H3180 H 0.20187 0.26283 0.92948
 C3181 C 0.20322 0.79538 0.42416
 C3182 C 0.18787 0.79182 0.42002
 C3183 C 0.18086 0.79924 0.40761
 C3184 C 0.18901 0.81043 0.39902
 C3185 C 0.20423 0.81427 0.40340
 C3186 C 0.21125 0.80683 0.41581
 C3187 C 0.21114 0.78657 0.43653
 C3188 C 0.22152 0.79406 0.44650
 C3189 C 0.23007 0.78541 0.45713
 C3190 C 0.22829 0.76915 0.45806
 C3191 C 0.21759 0.76172 0.44848
 C3192 C 0.20906 0.77033 0.43786
 H3193 H 0.16905 0.79613 0.40476
 H3194 H 0.21094 0.82272 0.39704
 H3195 H 0.23846 0.79131 0.46428
 H3196 H 0.21625 0.74914 0.44888
 H3197 H 0.22317 0.80967 0.41855
 H3198 H 0.22323 0.80658 0.44589
 H3199 H 0.18129 0.78321 0.42634
 H3200 H 0.20135 0.76415 0.43023
 C3201 C 0.70236 0.70610 0.57527
 C3202 C 0.71003 0.69386 0.58285
 C3203 C 0.70313 0.68645 0.59530
 C3204 C 0.68837 0.69110 0.60049
 C3205 C 0.68056 0.70312 0.59268
 C3206 C 0.68748 0.71053 0.58021
 C3207 C 0.71030 0.71484 0.56291
 C3208 C 0.70933 0.73123 0.56236
 C3209 C 0.71802 0.73966 0.55176
 C3210 C 0.72779 0.73188 0.54146
 C3211 C 0.72843 0.71551 0.54160
 C3212 C 0.71970 0.70704 0.55221
 H3213 H 0.70958 0.67733 0.60103
 H3214 H 0.66913 0.70693 0.59618
 H3215 H 0.71758 0.75231 0.55193
 H3216 H 0.73609 0.70934 0.53388
 H3217 H 0.68119 0.71979 0.57448
 H3218 H 0.70242 0.73760 0.57058
 H3219 H 0.72162 0.69034 0.57948
 H3220 H 0.72057 0.69442 0.55226
 C3221 C 0.70478 0.20352 0.07512
 C3222 C 0.69383 0.21190 0.08374
 C3223 C 0.68622 0.20484 0.09601
 C3224 C 0.68943 0.18925 0.09996
 C3225 C 0.70011 0.18075 0.09111
 C3226 C 0.70769 0.18780 0.07883
 C3227 C 0.71379 0.21140 0.06291
 C3228 C 0.72982 0.20860 0.06148
 C3229 C 0.73863 0.21690 0.05088
 C3230 C 0.73163 0.22812 0.04146
 C3231 C 0.71558 0.23073 0.04258
 C3232 C 0.70672 0.22239 0.05318
 H3233 H 0.67820 0.21179 0.10265
 H3234 H 0.70269 0.16866 0.09367
 H3235 H 0.75105 0.21493 0.05036
 H3236 H 0.71002 0.23954 0.03558
 H3237 H 0.71590 0.18096 0.07228
 H3238 H 0.73568 0.20046 0.06898
 H3239 H 0.69153 0.22410 0.08135
 H3240 H 0.69437 0.22470 0.05393
 C3241 C 0.20228 0.70616 0.07508
 C3242 C 0.18735 0.71049 0.07998
 C3243 C 0.18042 0.70298 0.09238
 C3244 C 0.18826 0.69097 0.10018
 C3245 C 0.20307 0.68643 0.09504
 C3246 C 0.20999 0.69394 0.08266
 C3247 C 0.21021 0.71491 0.06272
 C3248 C 0.21961 0.70710 0.05204
 C3249 C 0.22838 0.71555 0.04146
 C3250 C 0.22780 0.73192 0.04135
 C3251 C 0.21803 0.73972 0.05163
 C3252 C 0.20928 0.73130 0.06219
 H3253 H 0.16893 0.70667 0.09583
 H3254 H 0.20956 0.67733 0.10077
 H3255 H 0.23605 0.70936 0.03375
 H3256 H 0.21764 0.75237 0.05183
 H3257 H 0.22161 0.69051 0.07933
 H3258 H 0.22044 0.69447 0.05208
 H3259 H 0.18104 0.71975 0.07426
 H3260 H 0.20235 0.73767 0.07041
 C3261 C 0.20272 0.20482 0.57514
 C3262 C 0.18743 0.20855 0.57939
 C3263 C 0.18039 0.20107 0.59175
 C3264 C 0.18848 0.18967 0.60015
 C3265 C 0.20364 0.18564 0.59562
 C3266 C 0.21067 0.19313 0.58327
 C3267 C 0.21072 0.21372 0.56290
 C3268 C 0.22092 0.20621 0.55273
 C3269 C 0.22953 0.21489 0.54220
 C3270 C 0.22800 0.23120 0.54160
 C3271 C 0.21752 0.23867 0.55143
 C3272 C 0.20893 0.23002 0.56195
 H3273 H 0.16863 0.20432 0.59472
 H3274 H 0.21030 0.17701 0.60183
 H3275 H 0.23776 0.20897 0.53486
 H3276 H 0.21639 0.25128 0.55130
 H3277 H 0.22255 0.19015 0.58043
 H3278 H 0.22245 0.19365 0.55310
 H3279 H 0.18092 0.21733 0.57320
 H3280 H 0.20139 0.23619 0.56980
   
