data_POSCAR
  _audit_creation_date              2014-09-24
  _audit_creation_method            'ToBaCCo'
  _symmetry_space_group_name_H-M    'P1'
  _symmetry_Int_Tables_number       1
  _symmetry_cell_setting            triclinic
  loop_
  _symmetry_equiv_pos_as_xyz
 x,y,z
_cell_length_a 53.3427
_cell_length_b 53.2734
_cell_length_c 53.3738
_cell_angle_alpha 89.969100
_cell_angle_beta 90.002800
_cell_angle_gamma 89.980000
loop_
  _atom_site_label
  _atom_site_type_symbol
  _atom_site_fract_x
  _atom_site_fract_y
  _atom_site_fract_z
C1 C 0.35932 1.36117 0.32701
 C2 C 0.33785 1.37187 0.33780
 C3 C 0.32717 1.36107 0.35926
 C4 C 0.33802 1.33960 0.36993
 C5 C 0.35946 1.32892 0.35916
 C6 C 0.37011 1.33971 0.33774
 H7 H 0.32932 1.38833 0.32935
 H8 H 0.32966 1.33102 0.38637
 H9 H 0.38656 1.33122 0.32928
 C10 C 0.35890 0.86022 0.82762
 C11 C 0.33741 0.87086 0.83836
 C12 C 0.32672 0.86008 0.85982
 C13 C 0.33760 0.83865 0.87054
 C14 C 0.35909 0.82801 0.85980
 C15 C 0.36974 0.83881 0.83836
 H16 H 0.32890 0.88728 0.82983
 H17 H 0.32924 0.83008 0.88698
 H18 H 0.38620 0.83040 0.82989
 C19 C 0.85913 1.36048 0.82794
 C20 C 0.86996 1.33908 0.83870
 C21 C 0.85927 1.32825 0.86009
 C22 C 0.83775 1.33886 0.87079
 C23 C 0.82687 1.36029 0.86006
 C24 C 0.83761 1.37111 0.83863
 H25 H 0.88644 1.33068 0.83026
 H26 H 0.82935 1.33026 0.88720
 H27 H 0.82910 1.38752 0.83010
 C28 C 0.85989 0.86018 0.32688
 C29 C 0.83842 0.87086 0.33769
 C30 C 0.82778 0.86007 0.35915
 C31 C 0.83863 0.83865 0.36984
 C32 C 0.86007 0.82796 0.35908
 C33 C 0.87071 0.83874 0.33763
 H34 H 0.82981 0.88729 0.32928
 H35 H 0.83023 0.83013 0.38628
 H36 H 0.88715 0.83024 0.32918
 C37 C 0.63907 0.63897 0.32849
 C38 C 0.66055 0.62817 0.33909
 C39 C 0.67143 0.63886 0.36045
 C40 C 0.66078 0.66032 0.37126
 C41 C 0.63930 0.67114 0.36068
 C42 C 0.62843 0.66044 0.33931
 H43 H 0.66897 0.61174 0.33054
 H44 H 0.66938 0.66878 0.38762
 H45 H 0.61199 0.66898 0.33093
 C46 C 0.63953 0.13942 0.82683
 C47 C 0.66103 0.12860 0.83745
 C48 C 0.67180 0.13919 0.85894
 C49 C 0.66105 0.16056 0.86983
 C50 C 0.63958 0.17139 0.85925
 C51 C 0.62881 0.16081 0.83777
 H52 H 0.66955 0.11221 0.82890
 H53 H 0.66955 0.16892 0.88629
 H54 H 0.61234 0.16940 0.82946
 C55 C 1.13898 0.63905 0.82870
 C56 C 1.12825 0.66046 0.83952
 C57 C 1.13899 0.67113 0.86097
 C58 C 1.16044 0.66034 0.87162
 C59 C 1.17118 0.63893 0.86082
 C60 C 1.16043 0.62827 0.83937
 H61 H 1.11183 0.66900 0.83108
 H62 H 1.16895 0.66878 0.88804
 H63 H 1.16893 0.61188 0.83081
 C64 C 1.14121 0.14020 0.32641
 C65 C 1.16275 0.12946 0.33702
 C66 C 1.17355 0.14012 0.35848
 C67 C 1.16276 0.16150 0.36934
 C68 C 1.14125 0.17225 0.35876
 C69 C 1.13047 0.16159 0.33733
 H70 H 1.17123 0.11304 0.32845
 H71 H 1.17121 0.16996 0.38579
 H72 H 1.11396 0.17012 0.32903
 C73 C 0.64083 1.36055 0.67217
 C74 C 0.66235 1.37123 0.66152
 C75 C 0.67308 1.36052 0.64004
 C76 C 0.66221 1.33916 0.62923
 C77 C 0.64070 1.32849 0.63989
 C78 C 0.63001 1.33921 0.66133
 H79 H 0.67085 1.38759 0.67012
 H80 H 0.67061 1.33063 0.61278
 H81 H 0.61353 1.33077 0.66974
 C82 C 0.63937 0.86069 1.17171
 C83 C 0.66079 0.87144 1.16098
 C84 C 0.67156 0.86069 1.13958
 C85 C 0.66084 0.83920 1.12889
 C86 C 0.63941 0.82844 1.13961
 C87 C 0.62867 0.83921 1.16101
 H88 H 0.66926 0.88788 1.16945
 H89 H 0.66936 0.83069 1.11251
 H90 H 0.61227 0.83070 1.16950
 C91 C 1.14095 1.35979 1.17355
 C92 C 1.13020 1.33841 1.16266
 C93 C 1.14090 1.32779 1.14117
 C94 C 1.16234 1.33857 1.13050
 C95 C 1.17316 1.35995 1.14134
 C96 C 1.16243 1.37057 1.16286
 H97 H 1.11374 1.32986 1.17102
 H98 H 1.17073 1.33014 1.11401
 H99 H 1.17092 1.38698 1.17141
 C100 C 1.13936 0.86111 0.67132
 C101 C 1.12869 0.83965 0.66053
 C102 C 1.13942 0.82900 0.63907
 C103 C 1.16080 0.83985 0.62836
 C104 C 1.17149 0.86131 0.63913
 C105 C 1.16074 0.87195 0.66059
 H106 H 1.11232 0.83107 0.66901
 H107 H 1.16931 0.83143 0.61193
 H108 H 1.16919 0.88838 0.66911
 C109 C 0.35918 0.63969 0.67236
 C110 C 0.36987 0.66115 0.66159
 C111 C 0.35909 0.67193 0.64021
 C112 C 0.33761 0.66121 0.62956
 C113 C 0.32687 0.63973 0.64031
 C114 C 0.33770 0.62896 0.66171
 H115 H 0.38634 0.66961 0.67000
 H116 H 0.32914 0.66977 0.61316
 H117 H 0.32929 0.61250 0.67026
 C118 C 0.36123 0.13844 1.17087
 C119 C 0.33975 0.12773 1.16021
 C120 C 0.32897 0.13849 1.13881
 C121 C 0.33971 0.15992 1.12804
 C122 C 0.36118 0.17064 1.13870
 C123 C 0.37195 0.15988 1.16009
 H124 H 0.33125 0.11133 1.16875
 H125 H 0.33117 0.16845 1.11168
 H126 H 0.38838 0.16838 1.16854
 C127 C 0.86023 0.63947 1.17303
 C128 C 0.87097 0.66093 1.16223
 C129 C 0.86025 0.67166 1.14079
 C130 C 0.83881 0.66091 1.13009
 C131 C 0.82805 0.63948 1.14084
 C132 C 0.83877 0.62874 1.16228
 H133 H 0.88741 0.66946 1.17064
 H134 H 0.83034 0.66939 1.11366
 H135 H 0.83023 0.61230 1.17073
 C136 C 0.85827 0.14044 0.67367
 C137 C 0.83676 0.12974 0.66297
 C138 C 0.82602 0.14046 0.64149
 C139 C 0.83685 0.16187 0.63070
 C140 C 0.85833 0.17257 0.64137
 C141 C 0.86903 0.16185 0.66282
 H142 H 0.82826 0.11330 0.67149
 H143 H 0.82846 0.17037 0.61422
 H144 H 0.88553 0.17034 0.67118
 C145 C 1.36083 0.35986 0.67174
 C146 C 1.33943 0.37070 0.66105
 C147 C 1.32868 0.36012 0.63956
 C148 C 1.33938 0.33871 0.62871
 C149 C 1.36081 0.32782 0.63938
 C150 C 1.37154 0.33844 0.66089
 H151 H 1.33097 0.38710 0.66961
 H152 H 1.33084 0.33040 0.61224
 H153 H 1.38795 0.32991 0.66937
 C154 C 1.36039 0.85906 1.17203
 C155 C 1.33899 0.86993 1.16135
 C156 C 1.32815 0.85932 1.13992
 C157 C 1.33877 0.83784 1.12911
 C158 C 1.36019 0.82693 1.13977
 C159 C 1.37100 0.83758 1.16122
 H160 H 1.33060 0.88639 1.16988
 H161 H 1.33017 0.82950 1.11268
 H162 H 1.38741 0.82903 1.16969
 C163 C 0.86075 0.35933 1.17175
 C164 C 0.87146 0.33789 1.16096
 C165 C 0.86067 0.32715 1.13954
 C166 C 0.83918 0.33795 1.12890
 C167 C 0.82847 0.35939 1.13970
 C168 C 0.83928 0.37008 1.16110
 H169 H 0.88792 0.32943 1.16942
 H170 H 0.83060 0.32954 1.11250
 H171 H 0.83082 0.38651 1.16962
 C172 C 0.86044 0.86056 0.67165
 C173 C 0.83898 0.87136 0.66102
 C174 C 0.82817 0.86071 0.63959
 C175 C 0.83887 0.83929 0.62876
 C176 C 0.86034 0.82848 0.63938
 C177 C 0.87113 0.83913 0.66080
 H178 H 0.83053 0.88776 0.66958
 H179 H 0.83034 0.83087 0.61235
 H180 H 0.88757 0.83059 0.66920
 C181 C 0.63969 0.63931 0.67224
 C182 C 0.66110 0.62860 0.66142
 C183 C 0.67178 0.63941 0.64001
 C184 C 0.66101 0.66092 0.62938
 C185 C 0.63960 0.67164 0.64018
 C186 C 0.62893 0.66081 0.66159
 H187 H 0.66960 0.61214 0.66984
 H188 H 0.66945 0.66947 0.61297
 H189 H 0.61254 0.66928 0.67013
 C190 C 0.63969 1.14034 1.17182
 C191 C 0.66113 1.12960 1.16111
 C192 C 0.67189 1.14032 1.13970
 C193 C 0.66116 1.16179 1.12894
 C194 C 0.63969 1.17257 1.13963
 C195 C 0.62896 1.16180 1.16107
 H196 H 0.66961 1.11316 1.16961
 H197 H 0.66970 1.17022 1.11252
 H198 H 0.61252 1.17024 1.16958
 C199 C 0.13988 0.64086 1.17333
 C200 C 0.12917 0.66240 1.16263
 C201 C 0.13985 0.67315 1.14115
 C202 C 0.16122 0.66230 1.13036
 C203 C 0.17193 0.64079 1.14103
 C204 C 0.16125 0.63006 1.16249
 H205 H 0.11277 0.67093 1.17116
 H206 H 0.16971 0.67070 1.11389
 H207 H 0.16975 0.61356 1.17086
 C208 C 0.13959 1.14030 0.67175
 C209 C 0.16096 1.12955 0.66090
 C210 C 0.17164 1.14034 0.63948
 C211 C 0.16091 1.16187 0.62886
 C212 C 0.13952 1.17267 0.63968
 C213 C 0.12886 1.16184 0.66113
 H214 H 0.16944 1.11306 0.66930
 H215 H 0.16941 1.17035 0.61244
 H216 H 0.11247 1.17029 0.66974
 C217 C 1.36029 0.64055 0.32819
 C218 C 1.37102 0.66202 0.33890
 C219 C 1.36035 0.67274 0.36040
 C220 C 1.33896 0.66191 0.37118
 C221 C 1.32824 0.64045 0.36046
 C222 C 1.33892 0.62977 0.33899
 H223 H 1.38740 0.67051 0.33032
 H224 H 1.33047 0.67031 0.38764
 H225 H 1.33044 0.61333 0.33053
 C226 C 1.35983 1.14112 0.82752
 C227 C 1.33845 1.13031 0.83829
 C228 C 1.32778 1.14091 0.85980
 C229 C 1.33853 1.16231 0.87061
 C230 C 1.35993 1.17317 0.85987
 C231 C 1.37058 1.16253 0.83832
 H232 H 1.32996 1.11391 0.82976
 H233 H 1.33006 1.17064 0.88712
 H234 H 1.38698 1.17103 0.82979
 C235 C 0.86054 0.63918 0.82839
 C236 C 0.87129 0.66061 0.83915
 C237 C 0.86061 0.67130 0.86062
 C238 C 0.83921 0.66052 0.87137
 C239 C 0.82844 0.63910 0.86062
 C240 C 0.83914 0.62842 0.83915
 H241 H 0.88768 0.66913 0.83065
 H242 H 0.83076 0.66897 0.88781
 H243 H 0.83063 0.61201 0.83065
 C244 C 0.86136 1.13879 0.32902
 C245 C 0.83992 1.12808 0.33977
 C246 C 0.82923 1.13880 0.36122
 C247 C 0.84004 1.16020 0.37196
 C248 C 0.86148 1.17093 0.36123
 C249 C 0.87215 1.16020 0.33978
 H250 H 0.83138 1.11170 0.33125
 H251 H 0.83158 1.16870 0.38838
 H252 H 0.88856 1.16869 0.33128
 C253 C 0.64034 0.35922 0.32670
 C254 C 0.66182 0.36999 0.33738
 C255 C 0.67263 0.35927 0.35879
 C256 C 0.66195 0.33781 0.36957
 C257 C 0.64048 0.32700 0.35894
 C258 C 0.62967 0.33774 0.33752
 H259 H 0.67028 0.38646 0.32892
 H260 H 0.67052 0.32941 0.38599
 H261 H 0.61319 0.32924 0.32912
 C262 C 0.63947 0.86063 0.82822
 C263 C 0.66094 0.87138 0.83887
 C264 C 0.67179 0.86062 0.86024
 C265 C 0.66111 0.83913 0.87098
 C266 C 0.63965 0.82837 0.86035
 C267 C 0.62882 0.83914 0.83899
 H268 H 0.66936 0.88784 0.83037
 H269 H 0.66968 0.83063 0.88735
 H270 H 0.61237 0.83065 0.83058
 C271 C 0.13961 0.36058 0.82689
 C272 C 0.12887 0.33911 0.83765
 C273 C 0.13955 0.32837 0.85911
 C274 C 0.16096 0.33914 0.86985
 C275 C 0.17173 0.36059 0.85913
 C276 C 0.16104 0.37132 0.83768
 H277 H 0.11245 0.33056 0.82921
 H278 H 0.16941 0.33066 0.88629
 H279 H 0.16959 0.38777 0.82925
 C280 C 0.13968 0.86070 0.32715
 C281 C 0.12898 0.83922 0.33794
 C282 C 0.13976 0.82847 0.35934
 C283 C 0.16122 0.83923 0.37000
 C284 C 0.17193 0.86069 0.35925
 C285 C 0.16115 0.87144 0.33785
 H286 H 0.11253 0.83068 0.32956
 H287 H 0.16974 0.83073 0.38639
 H288 H 0.16965 0.88790 0.32940
 O289 O 0.97564 0.90932 0.87548
 O290 O 0.97567 0.88001 0.84631
 C291 C 0.96712 0.90047 0.85510
 C292 C 0.94665 0.91381 0.84185
 C293 C 0.93807 0.90531 0.81848
 H294 H 0.94723 0.88952 0.80955
 O295 O 1.02425 1.09062 0.87507
 O296 O 1.02432 1.11990 0.84585
 C297 C 1.03283 1.09945 0.85470
 C298 C 1.05337 1.08612 0.84158
 C299 C 1.06206 1.09465 0.81825
 H300 H 1.05291 1.11041 0.80926
 O301 O 0.87540 0.97562 0.90915
 O302 O 0.84606 0.97547 0.88004
 C303 C 0.85498 0.96699 0.90044
 C304 C 0.84187 0.94650 0.91390
 C305 C 0.81850 0.93773 0.90552
 H306 H 0.80975 0.94633 0.88933
 O307 O 1.12472 1.02447 0.90932
 O308 O 1.15399 1.02449 0.88015
 C309 C 1.14512 1.03304 0.90053
 C310 C 1.15827 1.05357 0.91383
 C311 C 1.18159 1.06231 0.90529
 H312 H 1.19055 1.05320 0.88952
 O313 O 0.90963 0.87527 0.97580
 O314 O 0.88041 0.84599 0.97580
 C315 C 0.90082 0.85483 0.96728
 C316 C 0.91415 0.84161 0.94683
 C317 C 0.90566 0.81820 0.93823
 H318 H 0.88992 0.80922 0.94739
 O319 O 1.09051 1.12481 0.97540
 O320 O 1.11971 1.15410 0.97535
 C321 C 1.09931 1.14522 0.96682
 C322 C 1.08599 1.15838 0.94628
 C323 C 1.09449 1.18175 0.93757
 H324 H 1.11026 1.19074 0.94667
 O325 O 0.90951 1.02465 0.87469
 O326 O 0.88033 1.02458 0.84542
 C327 C 0.90067 1.03323 0.85430
 C328 C 0.91389 1.05390 0.84123
 C329 C 0.90524 1.06288 0.81803
 H330 H 0.88905 1.05424 0.80933
 O331 O 1.09041 0.97552 0.87504
 O332 O 1.11951 0.97549 0.84570
 C333 C 1.09915 0.96693 0.85464
 C334 C 1.08579 0.94637 0.84159
 C335 C 1.09411 0.93766 0.81818
 H336 H 1.11017 0.94641 0.80933
 O337 O 1.02457 0.87509 0.90995
 O338 O 1.02464 0.84563 0.88094
 C339 C 1.03317 0.85463 0.90127
 C340 C 1.05369 0.84155 0.91469
 C341 C 1.06238 0.81808 0.90641
 H342 H 1.05367 0.80923 0.89035
 O343 O 0.97541 1.12503 0.90938
 O344 O 0.97540 1.15447 0.88033
 C345 C 0.96685 1.14550 0.90067
 C346 C 0.94630 1.15856 0.91404
 C347 C 0.93742 1.18192 0.90561
 H348 H 0.94603 1.19074 0.88947
 O349 O 0.87509 1.09029 0.97546
 O350 O 0.84575 1.11947 0.97546
 C351 C 0.85467 1.09909 0.96689
 C352 C 0.84159 1.08581 0.94630
 C353 C 0.81822 1.09429 0.93759
 H354 H 0.80915 1.10999 0.94677
 O355 O 1.12522 0.90964 0.97580
 O356 O 1.15456 0.88047 0.97577
 C357 C 1.14561 0.90084 0.96717
 C358 C 1.15861 0.91410 0.94649
 C359 C 1.18187 0.90553 0.93756
 H360 H 1.19066 0.88938 0.94622
 O361 O 0.97534 1.09085 0.87489
 O362 O 0.97534 1.12015 0.84569
 C363 C 0.96677 1.09973 0.85452
 C364 C 0.94619 1.08647 0.84138
 C365 C 0.93729 1.09515 0.81816
 H366 H 0.94631 1.11103 0.80924
 O367 O 1.02451 0.90929 0.87544
 O368 O 1.02459 0.87998 0.84627
 C369 C 1.03307 0.90045 0.85506
 C370 C 1.05351 0.91382 0.84184
 C371 C 1.06206 0.90540 0.81843
 H372 H 1.05290 0.88965 0.80946
 O373 O 1.12473 0.97552 0.90937
 O374 O 1.15398 0.97547 0.88017
 C375 C 1.14513 0.96693 0.90058
 C376 C 1.15831 0.94639 0.91390
 C377 C 1.18157 0.93757 0.90528
 H378 H 1.19046 0.94663 0.88943
 O379 O 0.87531 1.02454 0.90911
 O380 O 0.84596 1.02448 0.88001
 C381 C 0.85485 1.03305 0.90037
 C382 C 0.84166 1.05352 0.91377
 C383 C 0.81830 1.06228 0.90531
 H384 H 0.80961 1.05367 0.88912
 O385 O 0.90944 1.12465 0.97546
 O386 O 0.88023 1.15395 0.97547
 C387 C 0.90063 1.14508 0.96693
 C388 C 0.91390 1.15830 0.94643
 C389 C 0.90532 1.18166 0.93776
 H390 H 0.88955 1.19061 0.94692
 O391 O 1.09076 0.87541 0.97598
 O392 O 1.11996 0.84608 0.97596
 C393 C 1.09953 0.85496 0.96746
 C394 C 1.08615 0.84175 0.94703
 C395 C 1.09455 0.81828 0.93850
 H396 H 1.11026 0.80926 0.94769
 O397 O 1.09040 1.02451 0.87499
 O398 O 1.11952 1.02452 0.84566
 C399 C 1.09915 1.03309 0.85458
 C400 C 1.08579 1.05366 0.84148
 C401 C 1.09425 1.06250 0.81815
 H402 H 1.11040 1.05385 0.80939
 O403 O 0.90973 0.97564 0.87486
 O404 O 0.88057 0.97549 0.84558
 C405 C 0.90097 0.96698 0.85450
 C406 C 0.91434 0.94637 0.84150
 C407 C 0.90600 0.93758 0.81814
 H408 H 0.88994 0.94629 0.80927
 O409 O 1.02434 1.12502 0.90932
 O410 O 1.02438 1.15446 0.88026
 C411 C 1.03294 1.14547 0.90060
 C412 C 1.05351 1.15854 0.91394
 C413 C 1.06232 1.18191 0.90548
 H414 H 1.05366 1.19069 0.88935
 O415 O 0.97565 0.87494 0.90981
 O416 O 0.97568 0.84549 0.88080
 C417 C 0.96711 0.85447 0.90112
 C418 C 0.94658 0.84138 0.91449
 C419 C 0.93781 0.81798 0.90613
 H420 H 0.94648 0.80915 0.89003
 O421 O 1.12495 1.09052 0.97543
 O422 O 1.15430 1.11967 0.97538
 C423 C 1.14537 1.09928 0.96684
 C424 C 1.15844 1.08594 0.94629
 C425 C 1.18176 1.09444 0.93745
 H426 H 1.19052 1.11060 0.94609
 O427 O 0.87538 0.90974 0.97569
 O428 O 0.84604 0.88059 0.97569
 C429 C 0.85497 0.90096 0.96711
 C430 C 0.84189 0.91425 0.94651
 C431 C 0.81851 0.90577 0.93788
 H432 H 0.80946 0.89010 0.94712
 Cu433 Cu 1.00009 0.89509 0.89559
 Cu434 Cu 1.00015 0.85982 0.86066
 Cu435 Cu 0.99982 1.10495 0.89508
 Cu436 Cu 0.99987 1.14019 0.86010
 Cu437 Cu 0.89542 1.00012 0.89485
 Cu438 Cu 0.86030 0.99999 0.85982
 Cu439 Cu 1.10464 1.00001 0.89510
 Cu440 Cu 1.13969 0.99999 0.85998
 C441 C 0.93482 0.93450 0.85308
 H442 H 0.94112 0.94094 0.87127
 C443 C 0.91775 0.91705 0.80648
 C444 C 1.06519 1.06546 0.85291
 H445 H 1.05880 1.05901 0.87107
 C446 C 1.08251 1.08300 0.80641
 C447 C 0.85330 0.93477 0.93455
 H448 H 0.87149 0.94119 0.94089
 C449 C 0.80668 0.91736 0.91738
 C450 C 1.14698 1.06535 0.93449
 H451 H 1.12883 1.05893 0.94096
 C452 C 1.19347 1.08275 0.91694
 C453 C 0.93477 0.85292 0.93500
 H454 H 0.94118 0.87114 0.94131
 C455 C 0.91735 0.80625 0.91788
 C456 C 1.06533 1.14705 0.93449
 H457 H 1.05889 1.12887 0.94089
 C458 C 1.08281 1.19365 0.91716
 C459 C 0.93451 1.06569 0.85262
 H460 H 0.94104 1.05911 0.87068
 C461 C 0.91681 1.08350 0.80634
 C462 C 1.06534 0.93447 0.85314
 H463 H 1.05905 0.94084 0.87136
 C464 C 1.08236 0.91718 0.80646
 C465 C 1.06556 0.85311 0.93516
 H466 H 1.05920 0.87138 0.94141
 C467 C 1.08281 0.80631 0.91819
 C468 C 0.93455 1.14703 0.93460
 H469 H 0.94104 1.12884 0.94097
 C470 C 0.91692 1.19360 0.91734
 C471 C 0.85302 1.06527 0.93441
 H472 H 0.87120 1.05885 0.94080
 C473 C 0.80643 1.08266 0.91710
 C474 C 1.14711 0.93468 0.93467
 H475 H 1.12900 0.94116 0.94120
 C476 C 1.19349 0.91713 0.91693
 O477 O 1.02445 0.90929 1.12499
 O478 O 1.02450 0.88004 1.15424
 C479 C 1.03299 0.90050 1.14540
 C480 C 1.05344 0.91388 1.15859
 C481 C 1.06212 0.90538 1.18193
 H482 H 1.05303 0.88956 1.19089
 O483 O 0.97579 1.09078 1.12470
 O484 O 0.97567 1.12007 1.15388
 C485 C 0.96721 1.09960 1.14508
 C486 C 0.94677 1.08619 1.15829
 C487 C 0.93826 1.09457 1.18173
 H488 H 0.94745 1.11030 1.19071
 O489 O 0.87533 1.02451 1.09095
 O490 O 0.84604 1.02461 1.12010
 C491 C 0.85492 1.03311 1.09970
 C492 C 0.84177 1.05360 1.08627
 C493 C 0.81844 1.06246 1.09472
 H494 H 0.80973 1.05392 1.11095
 O495 O 1.12463 0.97562 1.09108
 O496 O 1.15395 0.97563 1.12022
 C497 C 1.14508 0.96708 1.09984
 C498 C 1.15830 0.94661 1.08649
 C499 C 1.18166 0.93792 1.09500
 H500 H 1.19059 0.94701 1.11080
 O501 O 1.09098 0.87531 1.02485
 O502 O 1.12020 0.84601 1.02488
 C503 C 1.09980 0.85488 1.03343
 C504 C 1.08651 0.84170 1.05397
 C505 C 1.09511 0.81838 1.06276
 H506 H 1.11094 0.80944 1.05372
 O507 O 0.90946 1.12466 1.02434
 O508 O 0.88025 1.15397 1.02434
 C509 C 0.90066 1.14510 1.03287
 C510 C 0.91398 1.15832 1.05334
 C511 C 0.90544 1.18170 1.06198
 H512 H 0.88965 1.19065 1.05284
 O513 O 0.90963 0.97547 1.12523
 O514 O 0.88050 0.97547 1.15455
 C515 C 0.90084 0.96686 1.14562
 C516 C 0.91413 0.94621 1.15866
 C517 C 0.90563 0.93733 1.18196
 H518 H 0.88950 0.94601 1.19072
 O519 O 1.09038 1.02467 1.12538
 O520 O 1.11956 1.02471 1.15465
 C521 C 1.09920 1.03330 1.14574
 C522 C 1.08596 1.05399 1.15875
 C523 C 1.09452 1.06292 1.18199
 H524 H 1.11067 1.05425 1.19075
 O525 O 0.97570 0.87485 1.09059
 O526 O 0.97568 0.84544 1.11968
 C527 C 0.96713 0.85440 1.09933
 C528 C 0.94657 0.84134 1.08599
 C529 C 0.93773 0.81798 1.09444
 H530 H 0.94640 0.80916 1.11055
 O531 O 1.02464 1.12522 1.09037
 O532 O 1.02457 1.15467 1.11939
 C533 C 1.03318 1.14569 1.09907
 C534 C 1.05376 1.15876 1.08574
 C535 C 1.06269 1.18205 1.09426
 H536 H 1.05409 1.19081 1.11044
 O537 O 0.87533 0.90976 1.02461
 O538 O 0.84598 0.88061 1.02462
 C539 C 0.85490 0.90100 1.03316
 C540 C 0.84179 0.91431 1.05370
 C541 C 0.81839 0.90586 1.06231
 H542 H 0.80934 0.89019 1.05308
 O543 O 1.12482 1.09044 1.02434
 O544 O 1.15420 1.11956 1.02434
 C545 C 1.14524 1.09919 1.03291
 C546 C 1.15830 1.08582 1.05349
 C547 C 1.18174 1.09413 1.06216
 H548 H 1.19062 1.11017 1.05339
 O549 O 1.02467 1.09102 1.12488
 O550 O 1.02460 1.12033 1.15405
 C551 C 1.03319 1.09990 1.14526
 C552 C 1.05371 1.08661 1.15847
 C553 C 1.06252 1.09526 1.18172
 H554 H 1.05349 1.11115 1.19060
 O555 O 0.97557 0.90916 1.12495
 O556 O 0.97556 0.87990 1.15419
 C557 C 0.96699 0.90033 1.14533
 C558 C 0.94645 0.91364 1.15847
 C559 C 0.93769 0.90506 1.18177
 H560 H 0.94677 0.88923 1.19072
 O561 O 1.12442 1.02454 1.09080
 O562 O 1.15376 1.02460 1.11991
 C563 C 1.14485 1.03310 1.09951
 C564 C 1.15804 1.05353 1.08607
 C565 C 1.18148 1.06208 1.09442
 H566 H 1.19048 1.05291 1.11016
 O567 O 0.87535 0.97559 1.09090
 O568 O 0.84604 0.97559 1.12004
 C569 C 0.85492 0.96705 1.09965
 C570 C 0.84176 0.94659 1.08623
 C571 C 0.81837 0.93784 1.09461
 H572 H 0.80961 0.94646 1.11077
 O573 O 1.09063 1.12496 1.02429
 O574 O 1.11985 1.15423 1.02428
 C575 C 1.09945 1.14538 1.03284
 C576 C 1.08619 1.15857 1.05337
 C577 C 1.09482 1.18186 1.06214
 H578 H 1.11063 1.19080 1.05305
 O579 O 0.90958 0.87527 1.02466
 O580 O 0.88036 0.84600 1.02467
 C581 C 0.90076 0.85484 1.03321
 C582 C 0.91407 0.84161 1.05370
 C583 C 0.90552 0.81824 1.06239
 H584 H 0.88973 0.80930 1.05328
 O585 O 1.09021 0.97565 1.12532
 O586 O 1.11938 0.97564 1.15460
 C587 C 1.09901 0.96707 1.14571
 C588 C 1.08570 0.94647 1.15879
 C589 C 1.09415 0.93766 1.18213
 H590 H 1.11025 0.94637 1.19092
 O591 O 0.90979 1.02447 1.12512
 O592 O 0.88068 1.02456 1.15446
 C593 C 0.90106 1.03308 1.14552
 C594 C 0.91446 1.05364 1.15855
 C595 C 0.90620 1.06232 1.18199
 H596 H 0.89016 1.05356 1.19086
 O597 O 0.97570 1.12514 1.09035
 O598 O 0.97557 1.15459 1.11937
 C599 C 0.96705 1.14558 1.09904
 C600 C 0.94646 1.15860 1.08566
 C601 C 0.93762 1.18198 1.09405
 H602 H 0.94627 1.19081 1.11015
 O603 O 1.02466 0.87493 1.09069
 O604 O 1.02469 0.84553 1.11979
 C605 C 1.03328 0.85451 1.09947
 C606 C 1.05394 0.84148 1.08621
 C607 C 1.06284 0.81816 1.09475
 H608 H 1.05417 0.80938 1.11088
 O609 O 1.12518 0.90981 1.02474
 O610 O 1.15454 0.88066 1.02477
 C611 C 1.14559 0.90104 1.03333
 C612 C 1.15862 0.91437 1.05391
 C613 C 1.18197 0.90593 1.06271
 H614 H 1.19080 0.88983 1.05401
 O615 O 0.87520 1.09022 1.02440
 O616 O 0.84587 1.11941 1.02440
 C617 C 0.85480 1.09903 1.03298
 C618 C 0.84174 1.08579 1.05361
 C619 C 0.81841 1.09435 1.06229
 H620 H 0.80936 1.11002 1.05304
 Cu621 Cu 1.00009 0.89498 1.10488
 Cu622 Cu 1.00011 0.85977 1.13990
 Cu623 Cu 1.00022 1.10512 1.10466
 Cu624 Cu 1.00008 1.14038 1.13959
 Cu625 Cu 0.89540 0.89544 1.00019
 Cu626 Cu 0.86024 0.86038 1.00019
 Cu627 Cu 1.10513 0.89548 1.00034
 Cu628 Cu 1.14026 0.86038 1.00034
 Cu629 Cu 0.89522 1.10451 0.99991
 Cu630 Cu 0.86008 1.13963 0.99992
 Cu631 Cu 1.10481 1.10476 0.99987
 Cu632 Cu 1.13996 1.13982 0.99983
 Cu633 Cu 0.89545 1.00001 1.10514
 Cu634 Cu 0.86039 1.00007 1.14024
 Cu635 Cu 1.10446 1.00011 1.10525
 Cu636 Cu 1.13959 1.00015 1.14029
 C637 C 1.06519 0.93459 1.14730
 H638 H 1.05881 0.94103 1.12914
 C639 C 1.08248 0.91711 1.19384
 C640 C 0.93491 1.06556 1.14698
 H641 H 0.94116 1.05922 1.12874
 C642 C 0.91798 1.08277 1.19372
 C643 C 0.85314 1.06526 1.06556
 H644 H 0.87130 1.05879 1.05917
 C645 C 0.80663 1.08285 1.08286
 C646 C 1.14706 0.93486 1.06579
 H647 H 1.12889 0.94124 1.05934
 C648 C 1.19363 0.91758 1.08326
 C649 C 1.06577 0.85297 1.06567
 H650 H 1.05925 0.87111 1.05921
 C651 C 1.08342 0.80647 1.08316
 C652 C 0.93466 1.14704 1.06515
 H653 H 0.94113 1.12885 1.05882
 C654 C 0.91710 1.19366 1.08233
 C655 C 0.93469 0.93437 1.14720
 H656 H 0.94113 0.94087 1.12908
 C657 C 0.91728 0.91675 1.19365
 C658 C 1.06540 1.06582 1.14728
 H659 H 1.05893 1.05926 1.12920
 C660 C 1.08294 1.08356 1.19362
 C661 C 0.93475 0.85287 1.06547
 H662 H 0.94122 0.87106 1.05909
 C663 C 0.91720 0.80629 1.08276
 C664 C 1.06550 1.14730 1.06514
 H665 H 1.05896 1.12917 1.05870
 C666 C 1.08323 1.19374 1.08260
 C667 C 0.85319 0.93483 1.06562
 H668 H 0.87140 0.94122 1.05929
 C669 C 0.80655 0.91746 1.08277
 C670 C 1.14672 1.06536 1.06543
 H671 H 1.12848 1.05908 1.05910
 C672 C 1.19347 1.08238 1.08263
 O673 O 0.97619 0.40906 0.37518
 O674 O 0.97619 0.37970 0.34606
 C675 C 0.96764 0.40016 0.35482
 C676 C 0.94711 0.41343 0.34161
 C677 C 0.93850 0.40486 0.31827
 H678 H 0.94769 0.38910 0.30934
 O679 O 1.02470 0.59048 0.37495
 O680 O 1.02466 0.61973 0.34570
 C681 C 1.03325 0.59932 0.35457
 C682 C 1.05384 0.58608 0.34145
 C683 C 1.06263 0.59476 0.31822
 H684 H 1.05350 0.61057 0.30928
 O685 O 0.87556 0.47499 0.40899
 O686 O 0.84629 0.47489 0.37981
 C687 C 0.85517 0.46638 0.40022
 C688 C 0.84202 0.44587 0.41362
 C689 C 0.81875 0.43698 0.40508
 H690 H 0.81009 0.44551 0.38881
 O691 O 1.12489 0.52446 0.40935
 O692 O 1.15424 0.52453 0.38025
 C693 C 1.14531 0.53306 0.40062
 C694 C 1.15842 0.55359 0.41398
 C695 C 1.18179 0.56227 0.40553
 H696 H 1.19080 0.55314 0.38980
 O697 O 0.90984 0.37521 0.47586
 O698 O 0.88077 0.34579 0.47578
 C699 C 0.90117 0.35473 0.46730
 C700 C 0.91461 0.34157 0.44687
 C701 C 0.90624 0.31810 0.43833
 H702 H 0.89053 0.30907 0.44750
 O703 O 1.09063 0.62489 0.47540
 O704 O 1.11976 0.65425 0.47532
 C705 C 1.09939 0.64532 0.46679
 C706 C 1.08608 0.65842 0.44623
 C707 C 1.09457 0.68179 0.43750
 H708 H 1.11030 0.69082 0.44663
 O709 O 0.90983 0.52404 0.37469
 O710 O 0.88072 0.52403 0.34535
 C711 C 0.90106 0.53264 0.35429
 C712 C 0.91436 0.55328 0.34123
 C713 C 0.90586 0.56215 0.31794
 H714 H 0.88972 0.55349 0.30917
 O715 O 1.09075 0.47542 0.37498
 O716 O 1.11997 0.47544 0.34575
 C717 C 1.09960 0.46682 0.35463
 C718 C 1.08643 0.44613 0.34159
 C719 C 1.09508 0.43728 0.31837
 H720 H 1.11080 0.44646 0.30937
 O721 O 1.02514 0.37482 0.40964
 O722 O 1.02517 0.34533 0.38066
 C723 C 1.03373 0.35435 0.40097
 C724 C 1.05432 0.34131 0.41433
 C725 C 1.06324 0.31799 0.40586
 H726 H 1.05464 0.30921 0.38971
 O727 O 0.97570 0.62475 0.40923
 O728 O 0.97562 0.65414 0.38012
 C729 C 0.96708 0.64518 0.40047
 C730 C 0.94649 0.65824 0.41378
 C731 C 0.93766 0.68160 0.40531
 H732 H 0.94633 0.69041 0.38920
 O733 O 0.87529 0.58990 0.47518
 O734 O 0.84592 0.61904 0.47506
 C735 C 0.85488 0.59864 0.46657
 C736 C 0.84181 0.58529 0.44604
 C737 C 0.81842 0.59371 0.43739
 H738 H 0.80934 0.60939 0.44659
 O739 O 1.12537 0.40969 0.47562
 O740 O 1.15475 0.38055 0.47572
 C741 C 1.14580 0.40091 0.46708
 C742 C 1.15886 0.41417 0.44646
 C743 C 1.18220 0.40565 0.43771
 H744 H 1.19125 0.38993 0.44689
 O745 O 0.97578 0.59037 0.37495
 O746 O 0.97570 0.61961 0.34569
 C747 C 0.96719 0.59917 0.35456
 C748 C 0.94668 0.58582 0.34141
 C749 C 0.93793 0.59439 0.31811
 H750 H 0.94702 0.61021 0.30916
 O751 O 1.02510 0.40902 0.37514
 O752 O 1.02516 0.37969 0.34601
 C753 C 1.03368 0.40015 0.35479
 C754 C 1.05421 0.41349 0.34163
 C755 C 1.06316 0.40488 0.31840
 H756 H 1.05465 0.38858 0.30976
 O757 O 1.12516 0.47551 0.40921
 O758 O 1.15452 0.47553 0.38012
 C759 C 1.14562 0.46697 0.40049
 C760 C 1.15879 0.44647 0.41389
 C761 C 1.18212 0.43766 0.40541
 H762 H 1.19079 0.44625 0.38918
 O763 O 0.87546 0.52393 0.40895
 O764 O 0.84618 0.52392 0.37978
 C765 C 0.85503 0.53247 0.40017
 C766 C 0.84184 0.55295 0.41355
 C767 C 0.81845 0.56168 0.40514
 H768 H 0.80971 0.55303 0.38899
 O769 O 0.90948 0.62442 0.47515
 O770 O 0.88024 0.65369 0.47502
 C771 C 0.90066 0.64483 0.46654
 C772 C 0.91399 0.65802 0.44606
 C773 C 0.90545 0.68139 0.43735
 H774 H 0.88965 0.69035 0.44644
 O775 O 1.09117 0.37520 0.47570
 O776 O 1.12041 0.34593 0.47580
 C777 C 1.10001 0.35477 0.46721
 C778 C 1.08676 0.34155 0.44669
 C779 C 1.09539 0.31823 0.43797
 H780 H 1.11121 0.30930 0.44707
 O781 O 1.09083 0.52444 0.37476
 O782 O 1.12003 0.52452 0.34552
 C783 C 1.09963 0.53306 0.35438
 C784 C 1.08630 0.55367 0.34130
 C785 C 1.09487 0.56266 0.31806
 H786 H 1.11108 0.55409 0.30934
 O787 O 0.90994 0.47505 0.37473
 O788 O 0.88085 0.47494 0.34538
 C789 C 0.90123 0.46642 0.35433
 C790 C 0.91465 0.44585 0.34132
 C791 C 0.90628 0.43698 0.31798
 H792 H 0.89014 0.44560 0.30916
 O793 O 1.02463 0.62486 0.40924
 O794 O 1.02458 0.65425 0.38013
 C795 C 1.03316 0.64533 0.40049
 C796 C 1.05368 0.65847 0.41383
 C797 C 1.06247 0.68184 0.40533
 H798 H 1.05382 0.69059 0.38917
 O799 O 0.97620 0.37491 0.40974
 O800 O 0.97617 0.34540 0.38079
 C801 C 0.96762 0.35443 0.40110
 C802 C 0.94709 0.34137 0.41453
 C803 C 0.93840 0.31790 0.40624
 H804 H 0.94711 0.30905 0.39018
 O805 O 1.12502 0.59056 0.47552
 O806 O 1.15430 0.61977 0.47543
 C807 C 1.14542 0.59935 0.46693
 C808 C 1.15852 0.58597 0.44642
 C809 C 1.18189 0.59442 0.43767
 H810 H 1.19066 0.61056 0.44634
 O811 O 0.87528 0.40935 0.47565
 O812 O 0.84606 0.38008 0.47557
 C813 C 0.85495 0.40048 0.46700
 C814 C 0.84193 0.41367 0.44629
 C815 C 0.81865 0.40508 0.43749
 H816 H 0.80960 0.38938 0.44669
 Cu817 Cu 1.00066 0.39489 0.39533
 Cu818 Cu 1.00066 0.35957 0.36047
 Cu819 Cu 1.00021 0.60469 0.39502
 Cu820 Cu 1.00013 0.63987 0.35997
 Cu821 Cu 0.89562 0.49951 0.39475
 Cu822 Cu 0.86059 0.49944 0.35963
 Cu823 Cu 1.10497 0.49996 0.39497
 Cu824 Cu 1.14013 0.50001 0.35997
 C825 C 0.93523 0.43409 0.35285
 H826 H 0.94156 0.44058 0.37101
 C827 C 0.91808 0.41648 0.30632
 C828 C 1.06564 0.56537 0.35271
 H829 H 1.05917 0.55880 0.37079
 C830 C 1.08317 0.58323 0.30639
 C831 C 0.85333 0.43423 0.43438
 H832 H 0.87145 0.44074 0.44084
 C833 C 0.80692 0.41658 0.41689
 C834 C 1.14706 0.56540 0.43458
 H835 H 1.12888 0.55902 0.44098
 C836 C 1.19365 0.58270 0.41722
 C837 C 0.93520 0.35293 0.43501
 H838 H 0.94155 0.37120 0.44127
 C839 C 0.91797 0.30614 0.41801
 C840 C 1.06548 0.64704 0.43443
 H841 H 1.05905 0.62886 0.44085
 C842 C 1.08292 0.69364 0.41704
 C843 C 0.93492 0.56510 0.35269
 H844 H 0.94135 0.55861 0.37083
 C845 C 0.91751 0.58272 0.30624
 C846 C 1.06584 0.43427 0.35293
 H847 H 1.05929 0.44078 0.37100
 C848 C 1.08362 0.41664 0.30664
 C849 C 1.06606 0.35280 0.43490
 H850 H 1.05952 0.37095 0.44131
 C851 C 1.08379 0.30632 0.41754
 C852 C 0.93467 0.64673 0.43430
 H853 H 0.94114 0.62854 0.44070
 C854 C 0.91713 0.69331 0.41697
 C855 C 0.85325 0.56475 0.43415
 H856 H 0.87146 0.55837 0.44051
 C857 C 0.80660 0.58207 0.41694
 C858 C 1.14744 0.43474 0.43457
 H859 H 1.12929 0.44120 0.44099
 C860 C 1.19396 0.41724 0.41718
 O861 O 1.02467 0.40949 0.62470
 O862 O 1.02477 0.38027 0.65399
 C863 C 1.03326 0.40070 0.64510
 C864 C 1.05377 0.41405 0.65823
 C865 C 1.06246 0.40552 0.68156
 H866 H 1.05333 0.38974 0.69054
 O867 O 0.97547 0.59066 0.62443
 O868 O 0.97537 0.61994 0.65361
 C869 C 0.96689 0.59948 0.64480
 C870 C 0.94643 0.58612 0.65800
 C871 C 0.93784 0.59457 0.68139
 H872 H 0.94699 0.61033 0.69036
 O873 O 0.87520 0.52431 0.59050
 O874 O 0.84591 0.52440 0.61966
 C875 C 0.85478 0.53290 0.59925
 C876 C 0.84163 0.55337 0.58581
 C877 C 0.81827 0.56218 0.59422
 H878 H 0.80955 0.55360 0.61043
 O879 O 1.12499 0.47587 0.59060
 O880 O 1.15424 0.47589 0.61981
 C881 C 1.14541 0.46734 0.59941
 C882 C 1.15862 0.44684 0.58609
 C883 C 1.18200 0.43822 0.59458
 H884 H 1.19097 0.44739 0.61031
 O885 O 1.09104 0.37536 0.52458
 O886 O 1.12029 0.34609 0.52471
 C887 C 1.09985 0.35495 0.53319
 C888 C 1.08651 0.34177 0.55368
 C889 C 1.09502 0.31839 0.56239
 H890 H 1.11081 0.30942 0.55330
 O891 O 0.90945 0.62449 0.52401
 O892 O 0.88021 0.65377 0.52390
 C893 C 0.90061 0.64494 0.53248
 C894 C 0.91389 0.65819 0.55294
 C895 C 0.90536 0.68161 0.56150
 H896 H 0.88962 0.69057 0.55232
 O897 O 0.90961 0.47543 0.62486
 O898 O 0.88049 0.47543 0.65419
 C899 C 0.90087 0.46686 0.64528
 C900 C 0.91424 0.44632 0.65840
 C901 C 0.90580 0.43753 0.68174
 H902 H 0.88964 0.44620 0.69047
 O903 O 1.09052 0.52472 0.62488
 O904 O 1.11959 0.52480 0.65426
 C905 C 1.09921 0.53331 0.64530
 C906 C 1.08576 0.55382 0.65836
 C907 C 1.09402 0.56253 0.68179
 H908 H 1.11010 0.55383 0.69064
 O909 O 0.97577 0.37500 0.59048
 O910 O 0.97583 0.34567 0.61966
 C911 C 0.96722 0.35458 0.59931
 C912 C 0.94658 0.34147 0.58612
 C913 C 0.93771 0.31823 0.59481
 H914 H 0.94682 0.30924 0.61058
 O915 O 1.02436 0.62501 0.59006
 O916 O 1.02428 0.65442 0.61912
 C917 C 1.03288 0.64548 0.59879
 C918 C 1.05342 0.65861 0.58550
 C919 C 1.06205 0.68203 0.59394
 H920 H 1.05283 0.69107 0.60961
 O921 O 0.87510 0.40938 0.52459
 O922 O 0.84586 0.38013 0.52456
 C923 C 0.85470 0.40054 0.53313
 C924 C 0.84157 0.41385 0.55369
 C925 C 0.81828 0.40530 0.56258
 H926 H 0.80954 0.38911 0.55396
 O927 O 1.12501 0.59069 0.52443
 O928 O 1.15426 0.61993 0.52439
 C929 C 1.14538 0.59954 0.53300
 C930 C 1.15847 0.58631 0.55363
 C931 C 1.18178 0.59488 0.56238
 H932 H 1.19080 0.61061 0.55321
 O933 O 1.02435 0.59073 0.62449
 O934 O 1.02428 0.62001 0.65369
 C935 C 1.03285 0.59958 0.64488
 C936 C 1.05333 0.58625 0.65811
 C937 C 1.06183 0.59468 0.68154
 H938 H 1.05259 0.61039 0.69052
 O939 O 0.97576 0.40935 0.62479
 O940 O 0.97582 0.38016 0.65410
 C941 C 0.96723 0.40055 0.64521
 C942 C 0.94667 0.41387 0.65833
 C943 C 0.93797 0.40537 0.68168
 H944 H 0.94711 0.38961 0.69070
 O945 O 1.12499 0.52482 0.59072
 O946 O 1.15423 0.52491 0.61993
 C947 C 1.14537 0.53344 0.59953
 C948 C 1.15849 0.55399 0.58617
 C949 C 1.18179 0.56285 0.59468
 H950 H 1.19049 0.55426 0.61089
 O951 O 0.87525 0.47537 0.59059
 O952 O 0.84598 0.47538 0.61976
 C953 C 0.85485 0.46681 0.59939
 C954 C 0.84172 0.44624 0.58612
 C955 C 0.81843 0.43747 0.59470
 H956 H 0.80948 0.44659 0.61047
 O957 O 1.09064 0.62504 0.52426
 O958 O 1.11974 0.65443 0.52424
 C959 C 1.09936 0.64551 0.53278
 C960 C 1.08594 0.65867 0.55322
 C961 C 1.09433 0.68208 0.56196
 H962 H 1.11049 0.69085 0.55335
 O963 O 0.90948 0.37503 0.52473
 O964 O 0.88039 0.34563 0.52470
 C965 C 0.90073 0.35457 0.53329
 C966 C 0.91405 0.34145 0.55385
 C967 C 0.90543 0.31820 0.56283
 H968 H 0.88916 0.30953 0.55432
 O969 O 1.09070 0.47575 0.62493
 O970 O 1.11978 0.47576 0.65429
 C971 C 1.09944 0.46716 0.64534
 C972 C 1.08612 0.44655 0.65840
 C973 C 1.09457 0.43772 0.68173
 H974 H 1.11070 0.44638 0.69051
 O975 O 0.90953 0.52440 0.62481
 O976 O 0.88041 0.52447 0.65413
 C977 C 0.90077 0.53302 0.64520
 C978 C 0.91412 0.55359 0.65824
 C979 C 0.90577 0.56233 0.68163
 H980 H 0.88969 0.55361 0.69046
 O981 O 0.97544 0.62497 0.59004
 O982 O 0.97532 0.65441 0.61908
 C983 C 0.96682 0.64542 0.59873
 C984 C 0.94629 0.65847 0.58532
 C985 C 0.93748 0.68188 0.59365
 H986 H 0.94612 0.69073 0.60974
 O987 O 1.02473 0.37504 0.59047
 O988 O 1.02482 0.34569 0.61961
 C989 C 1.03336 0.35463 0.59925
 C990 C 1.05396 0.34156 0.58595
 C991 C 1.06278 0.31818 0.59441
 H992 H 1.05408 0.30937 0.61050
 O993 O 1.12538 0.40975 0.52454
 O994 O 1.15477 0.38062 0.52467
 C995 C 1.14580 0.40102 0.53316
 C996 C 1.15885 0.41443 0.55368
 C997 C 1.18224 0.40605 0.56246
 H998 H 1.19106 0.38992 0.55381
 O999 O 0.87516 0.59008 0.52409
 O1000 O 0.84580 0.61923 0.52398
 C1001 C 0.85473 0.59887 0.53261
 C1002 C 0.84163 0.58562 0.55321
 C1003 C 0.81827 0.59414 0.56186
 H1004 H 0.80922 0.60982 0.55262
 Cu1005 Cu 1.00023 0.39514 0.60468
 Cu1006 Cu 1.00032 0.36000 0.63977
 Cu1007 Cu 0.99991 0.60491 0.60433
 Cu1008 Cu 0.99980 0.64015 0.63930
 Cu1009 Cu 0.89532 0.39519 0.50023
 Cu1010 Cu 0.86034 0.35997 0.50013
 Cu1011 Cu 1.10532 0.39543 0.50010
 Cu1012 Cu 1.14050 0.36037 0.50024
 Cu1013 Cu 0.89528 0.60429 0.49962
 Cu1014 Cu 0.86009 0.63936 0.49947
 Cu1015 Cu 1.10491 0.60486 0.49991
 Cu1016 Cu 1.13996 0.64003 0.49984
 Cu1017 Cu 0.89532 0.49988 0.60477
 Cu1018 Cu 0.86026 0.49992 0.63988
 Cu1019 Cu 1.10488 0.50030 0.60486
 Cu1020 Cu 1.13989 0.50034 0.64002
 C1021 C 1.06556 0.43473 0.64693
 H1022 H 1.05917 0.44119 0.62877
 C1023 C 1.08287 0.41719 0.69344
 C1024 C 0.93461 0.56547 0.64670
 H1025 H 0.94092 0.55907 0.62850
 C1026 C 0.91751 0.58282 0.69334
 C1027 C 0.85303 0.56508 0.56515
 H1028 H 0.87121 0.55864 0.55879
 C1029 C 0.80645 0.58257 0.58237
 C1030 C 1.14732 0.43499 0.56548
 H1031 H 1.12912 0.44132 0.55906
 C1032 C 1.19395 0.41782 0.58291
 C1033 C 1.06582 0.35307 0.56543
 H1034 H 1.05937 0.37127 0.55904
 C1035 C 1.08331 0.30646 0.58276
 C1036 C 0.93451 0.64691 0.56482
 H1037 H 0.94096 0.62869 0.55853
 C1038 C 0.91702 0.69359 0.58186
 C1039 C 0.93483 0.43450 0.64698
 H1040 H 0.94122 0.44094 0.62881
 C1041 C 0.91753 0.41706 0.69353
 C1042 C 1.06526 0.56567 0.64680
 H1043 H 1.05902 0.55929 0.62857
 C1044 C 1.08217 0.58296 0.69352
 C1045 C 0.93478 0.35280 0.56548
 H1046 H 0.94129 0.37090 0.55891
 C1047 C 0.91712 0.30646 0.58333
 C1048 C 1.06533 0.64722 0.56498
 H1049 H 1.05899 0.62900 0.55859
 C1050 C 1.08251 0.69390 0.58233
 C1051 C 0.85300 0.43447 0.56546
 H1052 H 0.87112 0.44093 0.55897
 C1053 C 0.80658 0.41698 0.58310
 C1054 C 1.14711 0.56571 0.56550
 H1055 H 1.12898 0.55922 0.55906
 C1056 C 1.19358 0.58330 0.58291
 O1057 O 0.47562 0.90916 0.37524
 O1058 O 0.47572 0.87993 0.34600
 C1059 C 0.46713 0.90035 0.35483
 C1060 C 0.44666 0.91372 0.34161
 C1061 C 0.43786 0.90515 0.31832
 H1062 H 0.44644 0.88887 0.30970
 O1063 O 0.52485 1.09129 0.37526
 O1064 O 0.52497 1.12041 0.34587
 C1065 C 0.53345 1.09999 0.35483
 C1066 C 0.55389 1.08649 0.34174
 C1067 C 0.56267 1.09486 0.31837
 H1068 H 0.55409 1.11107 0.30960
 O1069 O 0.37543 0.97578 0.40900
 O1070 O 0.34627 0.97578 0.37971
 C1071 C 0.35505 0.96723 0.40014
 C1072 C 0.34185 0.94671 0.41347
 C1073 C 0.31852 0.93794 0.40495
 H1074 H 0.30983 0.94660 0.38876
 O1075 O 0.62482 1.02447 0.40964
 O1076 O 0.65414 1.02441 0.38051
 C1077 C 0.64528 1.03296 0.40089
 C1078 C 0.65852 1.05339 0.41426
 C1079 C 0.68197 1.06190 0.40586
 H1080 H 0.69095 1.05269 0.39016
 O1081 O 0.40937 0.87508 0.47529
 O1082 O 0.38008 0.84587 0.47527
 C1083 C 0.40052 0.85466 0.46676
 C1084 C 0.41389 0.84142 0.44633
 C1085 C 0.40536 0.81809 0.43750
 H1086 H 0.38912 0.80941 0.44606
 O1087 O 0.59111 1.12515 0.47542
 O1088 O 0.62038 1.15437 0.47542
 C1089 C 0.59998 1.14554 0.46684
 C1090 C 0.58674 1.15873 0.44627
 C1091 C 0.59539 1.18202 0.43746
 H1092 H 0.61124 1.19093 0.44651
 O1093 O 0.41009 1.02465 0.37489
 O1094 O 0.38111 1.02470 0.34541
 C1095 C 0.40145 1.03324 0.35443
 C1096 C 0.41488 1.05380 0.34140
 C1097 C 0.40667 1.06241 0.31791
 H1098 H 0.39068 1.05360 0.30902
 O1099 O 0.59043 0.97563 0.37525
 O1100 O 0.61958 0.97556 0.34596
 C1101 C 0.59919 0.96704 0.35485
 C1102 C 0.58583 0.94651 0.34176
 C1103 C 0.59421 0.93779 0.31837
 H1104 H 0.61029 0.94651 0.30956
 O1105 O 0.52451 0.87494 0.40977
 O1106 O 0.52468 0.84554 0.38070
 C1107 C 0.53316 0.85451 0.40107
 C1108 C 0.55368 0.84143 0.41450
 C1109 C 0.56246 0.81801 0.40619
 H1110 H 0.55383 0.80917 0.39008
 O1111 O 0.47592 1.12586 0.40932
 O1112 O 0.47597 1.15513 0.38009
 C1113 C 0.46734 1.14626 0.40044
 C1114 C 0.44668 1.15934 0.41363
 C1115 C 0.43779 1.18265 0.40505
 H1116 H 0.44650 1.19145 0.38896
 O1117 O 0.37502 1.09110 0.47465
 O1118 O 0.34567 1.12026 0.47451
 C1119 C 0.35463 1.09987 0.46600
 C1120 C 0.34163 1.08650 0.44541
 C1121 C 0.31838 1.09503 0.43639
 H1122 H 0.30959 1.11125 0.44491
 O1123 O 0.62490 0.90959 0.47586
 O1124 O 0.65423 0.88041 0.47600
 C1125 C 0.64532 0.90077 0.46734
 C1126 C 0.65839 0.91402 0.44671
 C1127 C 0.68165 0.90542 0.43778
 H1128 H 0.69041 0.88923 0.44642
 O1129 O 0.47600 1.09117 0.37534
 O1130 O 0.47606 1.12029 0.34595
 C1131 C 0.46751 1.09988 0.35487
 C1132 C 0.44712 1.08642 0.34166
 C1133 C 0.43865 1.09473 0.31816
 H1134 H 0.44782 1.11046 0.30915
 O1135 O 0.52449 0.90935 0.37547
 O1136 O 0.52464 0.88011 0.34624
 C1137 C 0.53309 0.90057 0.35510
 C1138 C 0.55353 0.91397 0.34194
 C1139 C 0.56214 0.90555 0.31855
 H1140 H 0.55299 0.88980 0.30956
 O1141 O 0.62466 0.97553 0.40966
 O1142 O 0.65395 0.97544 0.38050
 C1143 C 0.64505 0.96691 0.40088
 C1144 C 0.65818 0.94635 0.41419
 C1145 C 0.68143 0.93752 0.40557
 H1146 H 0.69036 0.94660 0.38976
 O1147 O 0.37545 1.02475 0.40889
 O1148 O 0.34634 1.02479 0.37955
 C1149 C 0.35511 1.03336 0.39996
 C1150 C 0.34192 1.05398 0.41311
 C1151 C 0.31867 1.06273 0.40440
 H1152 H 0.30977 1.05356 0.38863
 O1153 O 0.40941 1.12542 0.47476
 O1154 O 0.38020 1.15473 0.47464
 C1155 C 0.40063 1.14586 0.46619
 C1156 C 0.41402 1.15907 0.44576
 C1157 C 0.40544 1.18238 0.43696
 H1158 H 0.38957 1.19130 0.44597
 O1159 O 0.59048 0.87533 0.47592
 O1160 O 0.61967 0.84600 0.47609
 C1161 C 0.59930 0.85486 0.46746
 C1162 C 0.58603 0.84164 0.44696
 C1163 C 0.59452 0.81821 0.43840
 H1164 H 0.61023 0.80921 0.44762
 O1165 O 0.59048 1.02463 0.37533
 O1166 O 0.61966 1.02458 0.34606
 C1167 C 0.59930 1.03320 0.35494
 C1168 C 0.58609 1.05383 0.34182
 C1169 C 0.59457 1.06244 0.31845
 H1170 H 0.61022 1.05316 0.30942
 O1171 O 0.40989 0.97564 0.37483
 O1172 O 0.38087 0.97566 0.34540
 C1173 C 0.40117 0.96704 0.35441
 C1174 C 0.41443 0.94635 0.34143
 C1175 C 0.40593 0.93754 0.31813
 H1176 H 0.39025 0.94673 0.30905
 O1177 O 0.52488 1.12563 0.40957
 O1178 O 0.52501 1.15491 0.38035
 C1179 C 0.53355 1.14600 0.40074
 C1180 C 0.55420 1.15902 0.41400
 C1181 C 0.56315 1.18230 0.40544
 H1182 H 0.55451 1.19108 0.38930
 O1183 O 0.47559 0.87490 0.40968
 O1184 O 0.47570 0.84552 0.38058
 C1185 C 0.46707 0.85446 0.40090
 C1186 C 0.44647 0.84136 0.41412
 C1187 C 0.43772 0.81803 0.40559
 H1188 H 0.44691 0.80898 0.38991
 O1189 O 0.62524 1.09055 0.47569
 O1190 O 0.65467 1.11961 0.47568
 C1191 C 0.64571 1.09923 0.46716
 C1192 C 0.65879 1.08577 0.44670
 C1193 C 0.68224 1.09404 0.43800
 H1194 H 0.69111 1.11012 0.44670
 O1195 O 0.37526 0.90970 0.47509
 O1196 O 0.34583 0.88063 0.47510
 C1197 C 0.35483 0.90098 0.46651
 C1198 C 0.34179 0.91431 0.44592
 C1199 C 0.31845 0.90584 0.43717
 H1200 H 0.30939 0.89012 0.44631
 Cu1201 Cu 0.50004 0.89501 0.39547
 Cu1202 Cu 0.50021 0.85982 0.36046
 Cu1203 Cu 0.50040 1.10560 0.39532
 Cu1204 Cu 0.50051 1.14063 0.36014
 Cu1205 Cu 0.39562 1.00020 0.39483
 Cu1206 Cu 0.36073 1.00024 0.35956
 Cu1207 Cu 0.60466 1.00007 0.39538
 Cu1208 Cu 0.63977 1.00000 0.36032
 C1209 C 0.43496 0.93447 0.35288
 H1210 H 0.44139 0.94095 0.37101
 C1211 C 0.41748 0.91693 0.30644
 C1212 C 0.56558 1.06582 0.35320
 H1213 H 0.55916 1.05950 0.37139
 C1214 C 0.58301 1.08296 0.30658
 C1215 C 0.35321 0.93491 0.43410
 H1216 H 0.37137 0.94132 0.44054
 C1217 C 0.30669 0.91750 0.41667
 C1218 C 0.64721 1.06528 0.43484
 H1219 H 0.62896 1.05904 0.44119
 C1220 C 0.69397 1.08223 0.41758
 C1221 C 0.43459 0.85277 0.43465
 H1222 H 0.44103 0.87093 0.44110
 C1223 C 0.41715 0.80626 0.41711
 C1224 C 0.56599 1.14752 0.43457
 H1225 H 0.55943 1.12940 0.44104
 C1226 C 0.58374 1.19394 0.41704
 C1227 C 0.43526 1.06579 0.35301
 H1228 H 0.44147 1.05949 0.37128
 C1229 C 0.41843 1.08286 0.30615
 C1230 C 0.56534 0.93461 0.35327
 H1231 H 0.55901 0.94098 0.37147
 C1232 C 0.58248 0.91730 0.30663
 C1233 C 0.56545 0.85297 0.43504
 H1234 H 0.55901 0.87120 0.44132
 C1235 C 0.58288 0.80625 0.41802
 C1236 C 0.43480 1.14784 0.43413
 H1237 H 0.44130 1.12969 0.44060
 C1238 C 0.41715 1.19430 0.41659
 C1239 C 0.35312 1.06583 0.43377
 H1240 H 0.37121 1.05938 0.44037
 C1241 C 0.30676 1.08327 0.41587
 C1242 C 0.64694 0.93463 0.43491
 H1243 H 0.62884 0.94113 0.44143
 C1244 C 0.69329 0.91704 0.41719
 O1245 O 0.52373 0.90968 0.62477
 O1246 O 0.52370 0.88052 0.65411
 C1247 C 0.53223 0.90093 0.64522
 C1248 C 0.55269 0.91432 0.65840
 C1249 C 0.56131 0.90584 0.68177
 H1250 H 0.55217 0.89006 0.69075
 O1251 O 0.47520 1.09149 0.62412
 O1252 O 0.47509 1.12080 0.65328
 C1253 C 0.46657 1.10036 0.64445
 C1254 C 0.44601 1.08707 0.65758
 C1255 C 0.43727 1.09565 0.68086
 H1256 H 0.44638 1.11145 0.68981
 O1257 O 0.37498 1.02518 0.58999
 O1258 O 0.34557 1.02526 0.61903
 C1259 C 0.35452 1.03375 0.59866
 C1260 C 0.34139 1.05422 0.58518
 C1261 C 0.31801 1.06301 0.59356
 H1262 H 0.30926 1.05442 0.60975
 O1263 O 0.62416 0.97601 0.59087
 O1264 O 0.65332 0.97593 0.62015
 C1265 C 0.64453 0.96742 0.59972
 C1266 C 0.65776 0.94692 0.58641
 C1267 C 0.68116 0.93834 0.59489
 H1268 H 0.69011 0.94752 0.61062
 O1269 O 0.59035 0.87546 0.52479
 O1270 O 0.61956 0.84616 0.52501
 C1271 C 0.59913 0.85506 0.53345
 C1272 C 0.58574 0.84192 0.55395
 C1273 C 0.59425 0.81857 0.56270
 H1274 H 0.61005 0.80958 0.55364
 O1275 O 0.40924 1.12545 0.52361
 O1276 O 0.38004 1.15476 0.52354
 C1277 C 0.40043 1.14589 0.53213
 C1278 C 0.41373 1.15909 0.55263
 C1279 C 0.40521 1.18249 0.56126
 H1280 H 0.38944 1.19146 0.55213
 O1281 O 0.40924 0.97624 0.62451
 O1282 O 0.37997 0.97628 0.65368
 C1283 C 0.40036 0.96767 0.64487
 C1284 C 0.41353 0.94701 0.65801
 C1285 C 0.40490 0.93830 0.68130
 H1286 H 0.38921 0.94756 0.69027
 O1287 O 0.58979 1.02503 0.62506
 O1288 O 0.61879 1.02498 0.65451
 C1289 C 0.59849 1.03361 0.64549
 C1290 C 0.58517 1.05426 0.65847
 C1291 C 0.59355 1.06306 0.68182
 H1292 H 0.60960 1.05431 0.69068
 O1293 O 0.47499 0.87513 0.59045
 O1294 O 0.47488 0.84582 0.61964
 C1295 C 0.46639 0.85470 0.59923
 C1296 C 0.44589 0.84158 0.58585
 C1297 C 0.43699 0.81826 0.59435
 H1298 H 0.44555 0.80951 0.61055
 O1299 O 0.52429 1.12572 0.58991
 O1300 O 0.52425 1.15518 0.61892
 C1301 C 0.53288 1.14616 0.59864
 C1302 C 0.55355 1.15916 0.58537
 C1303 C 0.56243 1.18250 0.59384
 H1304 H 0.55374 1.19134 0.60991
 O1305 O 0.37523 0.90988 0.52398
 O1306 O 0.34579 0.88083 0.52402
 C1307 C 0.35477 0.90121 0.53253
 C1308 C 0.34165 0.91464 0.55299
 C1309 C 0.31824 0.90625 0.56161
 H1310 H 0.30920 0.89053 0.55245
 O1311 O 0.62516 1.09083 0.52461
 O1312 O 0.65457 1.11991 0.52467
 C1313 C 0.64554 1.09959 0.53328
 C1314 C 0.65844 1.08632 0.55402
 C1315 C 0.68165 1.09488 0.56309
 H1316 H 0.69048 1.11103 0.55449
 O1317 O 0.52408 1.09147 0.62438
 O1318 O 0.52403 1.12078 0.65354
 C1319 C 0.53256 1.10031 0.64479
 C1320 C 0.55297 1.08693 0.65808
 C1321 C 0.56160 1.09545 0.68144
 H1322 H 0.55251 1.11130 0.69034
 O1323 O 0.47485 0.90958 0.62468
 O1324 O 0.47474 0.88043 0.65403
 C1325 C 0.46622 0.90084 0.64509
 C1326 C 0.44570 0.91430 0.65814
 C1327 C 0.43678 0.90584 0.68143
 H1328 H 0.44528 0.88958 0.69018
 O1329 O 0.62431 1.02497 0.59094
 O1330 O 0.65345 1.02492 0.62025
 C1331 C 0.64469 1.03350 0.59983
 C1332 C 0.65796 1.05403 0.58659
 C1333 C 0.68117 1.06282 0.59535
 H1334 H 0.68997 1.05375 0.61125
 O1335 O 0.37509 0.97622 0.59004
 O1336 O 0.34566 0.97625 0.61906
 C1337 C 0.35464 0.96766 0.59873
 C1338 C 0.34155 0.94712 0.58535
 C1339 C 0.31814 0.93841 0.59372
 H1340 H 0.30935 0.94712 0.60981
 O1341 O 0.59076 1.12513 0.52427
 O1342 O 0.62002 1.15436 0.52433
 C1343 C 0.59956 1.14556 0.53280
 C1344 C 0.58617 1.15881 0.55320
 C1345 C 0.59475 1.18214 0.56190
 H1346 H 0.61060 1.19104 0.55285
 O1347 O 0.40931 0.87525 0.52415
 O1348 O 0.38001 0.84606 0.52418
 C1349 C 0.40041 0.85488 0.53275
 C1350 C 0.41361 0.84172 0.55335
 C1351 C 0.40500 0.81839 0.56208
 H1352 H 0.38926 0.80942 0.55290
 O1353 O 0.58974 0.97602 0.62511
 O1354 O 0.61876 0.97594 0.65454
 C1355 C 0.59842 0.96741 0.64555
 C1356 C 0.58502 0.94684 0.65860
 C1357 C 0.59340 0.93805 0.68198
 H1358 H 0.60950 0.94674 0.69079
 O1359 O 0.40923 1.02526 0.62441
 O1360 O 0.37998 1.02537 0.65360
 C1361 C 0.40038 1.03392 0.64474
 C1362 C 0.41366 1.05456 0.65778
 C1363 C 0.40516 1.06344 0.68107
 H1364 H 0.38902 1.05479 0.68984
 O1365 O 0.47534 1.12578 0.58971
 O1366 O 0.47524 1.15524 0.61872
 C1367 C 0.46674 1.14625 0.59837
 C1368 C 0.44619 1.15931 0.58497
 C1369 C 0.43739 1.18270 0.59335
 H1370 H 0.44605 1.19152 0.60945
 O1371 O 0.52392 0.87523 0.59058
 O1372 O 0.52389 0.84590 0.61976
 C1373 C 0.53251 0.85482 0.59941
 C1374 C 0.55316 0.84175 0.58618
 C1375 C 0.56198 0.81839 0.59469
 H1376 H 0.55328 0.80959 0.61079
 O1377 O 0.62466 0.90986 0.52477
 O1378 O 0.65402 0.88071 0.52497
 C1379 C 0.64505 0.90112 0.53343
 C1380 C 0.65806 0.91454 0.55397
 C1381 C 0.68146 0.90621 0.56274
 H1382 H 0.69033 0.89011 0.55407
 O1383 O 0.37499 1.09101 0.52356
 O1384 O 0.34564 1.12018 0.52347
 C1385 C 0.35455 1.09979 0.53207
 C1386 C 0.34143 1.08650 0.55261
 C1387 C 0.31804 1.09500 0.56123
 H1388 H 0.30901 1.11069 0.55201
 Cu1389 Cu 0.49936 0.89531 0.60469
 Cu1390 Cu 0.49930 0.86023 0.63982
 Cu1391 Cu 0.49974 1.10569 0.60411
 Cu1392 Cu 0.49964 1.14096 0.63903
 Cu1393 Cu 0.39523 0.89538 0.49961
 Cu1394 Cu 0.35997 0.86043 0.49965
 Cu1395 Cu 0.60469 0.89550 0.50031
 Cu1396 Cu 0.63981 0.86038 0.50055
 Cu1397 Cu 0.39508 1.10531 0.49915
 Cu1398 Cu 0.35994 1.14042 0.49903
 Cu1399 Cu 0.60515 1.10498 0.49999
 Cu1400 Cu 0.64036 1.13999 0.50002
 Cu1401 Cu 0.39508 1.00073 0.60434
 Cu1402 Cu 0.35986 1.00079 0.63928
 Cu1403 Cu 0.60408 1.00051 0.60507
 Cu1404 Cu 0.63900 1.00043 0.64032
 C1405 C 0.56451 0.93499 0.64709
 H1406 H 0.55818 0.94141 0.62890
 C1407 C 0.58168 0.91755 0.69369
 C1408 C 0.43424 1.06636 0.64632
 H1409 H 0.44067 1.05986 0.62820
 C1410 C 0.41683 1.08400 0.69275
 C1411 C 0.35282 1.06595 0.56456
 H1412 H 0.37101 1.05953 0.55823
 C1413 C 0.30620 1.08341 0.58172
 C1414 C 0.64649 0.93506 0.56579
 H1415 H 0.62827 0.94136 0.55937
 C1416 C 0.69315 0.91798 0.58320
 C1417 C 0.56504 0.85324 0.56566
 H1418 H 0.55859 0.87141 0.55922
 C1419 C 0.58254 0.80667 0.58308
 C1420 C 0.43438 1.14778 0.56445
 H1421 H 0.44083 1.12958 0.55812
 C1422 C 0.41690 1.19443 0.58162
 C1423 C 0.43409 0.93503 0.64671
 H1424 H 0.44062 0.94143 0.62858
 C1425 C 0.41637 0.91771 0.69315
 C1426 C 0.56473 1.06618 0.64688
 H1427 H 0.55840 1.05973 0.62871
 C1428 C 0.58189 1.08365 0.69346
 C1429 C 0.43421 0.85302 0.56520
 H1430 H 0.44072 0.87118 0.55878
 C1431 C 0.41653 0.80653 0.58259
 C1432 C 0.56541 1.14760 0.56490
 H1433 H 0.55891 1.12944 0.55850
 C1434 C 0.58305 1.19411 0.58223
 C1435 C 0.35304 0.93525 0.56483
 H1436 H 0.37126 0.94160 0.55851
 C1437 C 0.30636 0.91797 0.58198
 C1438 C 0.64688 1.06574 0.56577
 H1439 H 0.62881 1.05928 0.55912
 C1440 C 0.69315 1.08326 0.58377
 O1441 O 0.47561 0.40884 0.87567
 O1442 O 0.47557 0.37955 0.84649
 C1443 C 0.46707 0.40002 0.85528
 C1444 C 0.44663 0.41339 0.84204
 C1445 C 0.43803 0.40488 0.81868
 H1446 H 0.44718 0.38908 0.80976
 O1447 O 0.52439 0.59049 0.87583
 O1448 O 0.52453 0.61973 0.84657
 C1449 C 0.53299 0.59927 0.85544
 C1450 C 0.55345 0.58585 0.84229
 C1451 C 0.56210 0.59431 0.81892
 H1452 H 0.55299 0.61011 0.80995
 O1453 O 0.37520 0.47529 0.90923
 O1454 O 0.34599 0.47531 0.87999
 C1455 C 0.35478 0.46678 0.90042
 C1456 C 0.34152 0.44636 0.91381
 C1457 C 0.31818 0.43760 0.90530
 H1458 H 0.30956 0.44617 0.88904
 O1459 O 0.62468 0.52385 0.90976
 O1460 O 0.65392 0.52388 0.88055
 C1461 C 0.64510 0.53239 0.90096
 C1462 C 0.65832 0.55286 0.91430
 C1463 C 0.68169 0.56148 0.90581
 H1464 H 0.69064 0.55233 0.89005
 O1465 O 0.40892 0.37527 0.97576
 O1466 O 0.37975 0.34595 0.97577
 C1467 C 0.40015 0.35482 0.96724
 C1468 C 0.41350 0.34157 0.94679
 C1469 C 0.40490 0.31824 0.93808
 H1470 H 0.38904 0.30935 0.94711
 O1471 O 0.59085 0.62428 0.97585
 O1472 O 0.62007 0.65355 0.97584
 C1473 C 0.59966 0.64472 0.96731
 C1474 C 0.58631 0.65796 0.94686
 C1475 C 0.59482 0.68136 0.93822
 H1476 H 0.61062 0.69030 0.94731
 O1477 O 0.40974 0.52421 0.87507
 O1478 O 0.38069 0.52430 0.84568
 C1479 C 0.40103 0.53285 0.85467
 C1480 C 0.41437 0.55348 0.84167
 C1481 C 0.40596 0.56232 0.81833
 H1482 H 0.38989 0.55360 0.80950
 O1483 O 0.59030 0.47496 0.87541
 O1484 O 0.61940 0.47498 0.84606
 C1485 C 0.59905 0.46640 0.85499
 C1486 C 0.58574 0.44581 0.84192
 C1487 C 0.59415 0.43708 0.81856
 H1488 H 0.61023 0.44584 0.80977
 O1489 O 0.52441 0.37443 0.91015
 O1490 O 0.52441 0.34499 0.88112
 C1491 C 0.53297 0.35396 0.90145
 C1492 C 0.55352 0.34086 0.91480
 C1493 C 0.56232 0.31748 0.90636
 H1494 H 0.55364 0.30870 0.89024
 O1495 O 0.47549 0.62502 0.90998
 O1496 O 0.47556 0.65440 0.88086
 C1497 C 0.46694 0.64546 0.90119
 C1498 C 0.44631 0.65854 0.91443
 C1499 C 0.43743 0.68187 0.90589
 H1500 H 0.44610 0.69066 0.88977
 O1501 O 0.37488 0.59025 0.97562
 O1502 O 0.34553 0.61941 0.97546
 C1503 C 0.35450 0.59901 0.96697
 C1504 C 0.34150 0.58562 0.94640
 C1505 C 0.31808 0.59394 0.93765
 H1506 H 0.30920 0.61000 0.94635
 O1507 O 0.62504 0.40896 0.97593
 O1508 O 0.65433 0.37974 0.97597
 C1509 C 0.64543 0.40012 0.96735
 C1510 C 0.65846 0.41340 0.94670
 C1511 C 0.68173 0.40486 0.93777
 H1512 H 0.69053 0.38869 0.94641
 O1513 O 0.47552 0.59065 0.87567
 O1514 O 0.47561 0.61988 0.84640
 C1515 C 0.46704 0.59946 0.85524
 C1516 C 0.44659 0.58611 0.84201
 C1517 C 0.43793 0.59466 0.81866
 H1518 H 0.44702 0.61050 0.80974
 O1519 O 0.52447 0.40869 0.87569
 O1520 O 0.52449 0.37941 0.84650
 C1521 C 0.53303 0.39985 0.85531
 C1522 C 0.55351 0.41320 0.84212
 C1523 C 0.56218 0.40474 0.81875
 H1524 H 0.55309 0.38894 0.80978
 O1525 O 0.62460 0.47490 0.90974
 O1526 O 0.65384 0.47489 0.88053
 C1527 C 0.64500 0.46633 0.90092
 C1528 C 0.65817 0.44576 0.91420
 C1529 C 0.68145 0.43699 0.90558
 H1530 H 0.69035 0.44611 0.88977
 O1531 O 0.37543 0.52421 0.90938
 O1532 O 0.34622 0.52429 0.88014
 C1533 C 0.35504 0.53279 0.90056
 C1534 C 0.34183 0.55327 0.91390
 C1535 C 0.31841 0.56184 0.90546
 H1536 H 0.30945 0.55266 0.88973
 O1537 O 0.40914 0.62468 0.97569
 O1538 O 0.37994 0.65399 0.97556
 C1539 C 0.40036 0.64512 0.96710
 C1540 C 0.41373 0.65831 0.94664
 C1541 C 0.40515 0.68163 0.93787
 H1542 H 0.38931 0.69057 0.94691
 O1543 O 0.59064 0.37468 0.97605
 O1544 O 0.61977 0.34529 0.97612
 C1545 C 0.59939 0.35420 0.96756
 C1546 C 0.58604 0.34101 0.94709
 C1547 C 0.59454 0.31763 0.93840
 H1548 H 0.61033 0.30864 0.94749
 O1549 O 0.59026 0.52397 0.87552
 O1550 O 0.61936 0.52402 0.84617
 C1551 C 0.59901 0.53259 0.85512
 C1552 C 0.58569 0.55322 0.84208
 C1553 C 0.59410 0.56199 0.81872
 H1554 H 0.61017 0.55324 0.80990
 O1555 O 0.40973 0.47519 0.87510
 O1556 O 0.38068 0.47522 0.84570
 C1557 C 0.40100 0.46661 0.85469
 C1558 C 0.41435 0.44598 0.84169
 C1559 C 0.40598 0.43717 0.81833
 H1560 H 0.38991 0.44588 0.80946
 O1561 O 0.52445 0.62489 0.91008
 O1562 O 0.52457 0.65428 0.88097
 C1563 C 0.53310 0.64531 0.90133
 C1564 C 0.55372 0.65831 0.91465
 C1565 C 0.56252 0.68171 0.90625
 H1566 H 0.55381 0.69058 0.89019
 O1567 O 0.47545 0.37457 0.91008
 O1568 O 0.47540 0.34513 0.88105
 C1569 C 0.46682 0.35415 0.90135
 C1570 C 0.44614 0.34119 0.91463
 C1571 C 0.43724 0.31786 0.90616
 H1572 H 0.44593 0.30902 0.89009
 O1573 O 0.62513 0.58983 0.97590
 O1574 O 0.65450 0.61894 0.97587
 C1575 C 0.64555 0.59857 0.96732
 C1576 C 0.65860 0.58519 0.94678
 C1577 C 0.68197 0.59358 0.93799
 H1578 H 0.69081 0.60969 0.94667
 O1579 O 0.37468 0.40976 0.97573
 O1580 O 0.34538 0.38056 0.97572
 C1581 C 0.35430 0.40094 0.96714
 C1582 C 0.34129 0.41418 0.94648
 C1583 C 0.31795 0.40571 0.93774
 H1584 H 0.30884 0.39006 0.94695
 Cu1585 Cu 0.50000 0.39455 0.89582
 Cu1586 Cu 0.49997 0.35930 0.86088
 Cu1587 Cu 0.49994 0.60485 0.89583
 Cu1588 Cu 0.50008 0.64003 0.86078
 Cu1589 Cu 0.39545 0.49970 0.89511
 Cu1590 Cu 0.36048 0.49979 0.85992
 Cu1591 Cu 0.60453 0.49942 0.89552
 Cu1592 Cu 0.63956 0.49945 0.86038
 C1593 C 0.43483 0.43410 0.85326
 H1594 H 0.44115 0.44055 0.87144
 C1595 C 0.41770 0.41661 0.80668
 C1596 C 0.56521 0.56514 0.85360
 H1597 H 0.55886 0.55873 0.87178
 C1598 C 0.58243 0.58253 0.80700
 C1599 C 0.35278 0.43467 0.93456
 H1600 H 0.37094 0.44108 0.94099
 C1601 C 0.30626 0.41727 0.91714
 C1602 C 0.64705 0.56468 0.93495
 H1603 H 0.62886 0.55834 0.94137
 C1604 C 0.69365 0.58185 0.91750
 C1605 C 0.43428 0.35276 0.93510
 H1606 H 0.44079 0.37092 0.94150
 C1607 C 0.41662 0.30625 0.91775
 C1608 C 0.56560 0.64672 0.93511
 H1609 H 0.55915 0.62852 0.94145
 C1610 C 0.58307 0.69337 0.91791
 C1611 C 0.43484 0.56536 0.85323
 H1612 H 0.44118 0.55889 0.87140
 C1613 C 0.41762 0.58290 0.80668
 C1614 C 0.56526 0.43390 0.85342
 H1615 H 0.55890 0.44030 0.87160
 C1616 C 0.58250 0.41656 0.80682
 C1617 C 0.56537 0.35234 0.93532
 H1618 H 0.55893 0.37053 0.94170
 C1619 C 0.58283 0.30573 0.91803
 C1620 C 0.43447 0.64705 0.93496
 H1621 H 0.44096 0.62889 0.94141
 C1622 C 0.41683 0.69354 0.91747
 C1623 C 0.35310 0.56513 0.93453
 H1624 H 0.37132 0.55884 0.94093
 C1625 C 0.30640 0.58217 0.91718
 C1626 C 0.64696 0.43400 0.93492
 H1627 H 0.62885 0.44045 0.94144
 C1628 C 0.69336 0.41653 0.91719
 O1629 O 0.52412 0.40918 1.12525
 O1630 O 0.52399 0.37987 1.15445
 C1631 C 0.53262 0.40028 1.14564
 C1632 C 0.55319 0.41348 1.15881
 C1633 C 0.56195 0.40481 1.18207
 H1634 H 0.55281 0.38902 1.19101
 O1635 O 0.47522 0.59049 1.12463
 O1636 O 0.47527 0.61974 1.15385
 C1637 C 0.46667 0.59934 1.14500
 C1638 C 0.44610 0.58611 1.15817
 C1639 C 0.43745 0.59471 1.18149
 H1640 H 0.44666 0.61046 1.19042
 O1641 O 0.37455 0.52446 1.09078
 O1642 O 0.34529 0.52456 1.11997
 C1643 C 0.35416 0.53307 1.09956
 C1644 C 0.34104 0.55361 1.08617
 C1645 C 0.31775 0.56253 1.09468
 H1646 H 0.30904 0.55398 1.11090
 O1647 O 0.62459 0.47497 1.09105
 O1648 O 0.65381 0.47498 1.12028
 C1649 C 0.64499 0.46643 1.09987
 C1650 C 0.65821 0.44594 1.08655
 C1651 C 0.68159 0.43729 1.09502
 H1652 H 0.69054 0.44642 1.11079
 O1653 O 0.59061 0.37483 1.02491
 O1654 O 0.61972 0.34543 1.02506
 C1655 C 0.59933 0.35440 1.03354
 C1656 C 0.58590 0.34131 1.05404
 C1657 C 0.59431 0.31793 1.06288
 H1658 H 0.61050 0.30916 1.05431
 O1659 O 0.40900 0.62471 1.02453
 O1660 O 0.37984 0.65406 1.02447
 C1661 C 0.40022 0.64517 1.03304
 C1662 C 0.41359 0.65833 1.05352
 C1663 C 0.40507 0.68166 1.06238
 H1664 H 0.38883 0.69037 1.05383
 O1665 O 0.40899 0.47554 1.12505
 O1666 O 0.37992 0.47555 1.15442
 C1667 C 0.40027 0.46697 1.14548
 C1668 C 0.41365 0.44641 1.15857
 C1669 C 0.40522 0.43764 1.18192
 H1670 H 0.38909 0.44634 1.19068
 O1671 O 0.59014 0.52394 1.12520
 O1672 O 0.61918 0.52401 1.15460
 C1673 C 0.59883 0.53255 1.14561
 C1674 C 0.58542 0.55313 1.15861
 C1675 C 0.59372 0.56188 1.18201
 H1676 H 0.60978 0.55317 1.19088
 O1677 O 0.47528 0.37504 1.09066
 O1678 O 0.47511 0.34559 1.11971
 C1679 C 0.46665 0.35458 1.09934
 C1680 C 0.44617 0.34152 1.08589
 C1681 C 0.43754 0.31800 1.09411
 H1682 H 0.44627 0.30910 1.11015
 O1683 O 0.52430 0.62473 1.09036
 O1684 O 0.52435 0.65411 1.11944
 C1685 C 0.53293 0.64515 1.09912
 C1686 C 0.55355 0.65819 1.08583
 C1687 C 0.56232 0.68159 1.09422
 H1688 H 0.55358 0.69044 1.11026
 O1689 O 0.37452 0.40963 1.02468
 O1690 O 0.34525 0.38041 1.02469
 C1691 C 0.35413 0.40079 1.03327
 C1692 C 0.34104 0.41402 1.05390
 C1693 C 0.31779 0.40537 1.06275
 H1694 H 0.30881 0.38960 1.05364
 O1695 O 0.62512 0.58989 1.02482
 O1696 O 0.65449 0.61902 1.02485
 C1697 C 0.64553 0.59865 1.03342
 C1698 C 0.65854 0.58532 1.05405
 C1699 C 0.68185 0.59379 1.06293
 H1700 H 0.69067 0.60992 1.05426
 O1701 O 0.52413 0.59026 1.12463
 O1702 O 0.52419 0.61952 1.15384
 C1703 C 0.53267 0.59906 1.14503
 C1704 C 0.55309 0.58566 1.15827
 C1705 C 0.56162 0.59411 1.18168
 H1706 H 0.55244 0.60988 1.19062
 O1707 O 0.47521 0.40939 1.12500
 O1708 O 0.47503 0.38009 1.15420
 C1709 C 0.46656 0.40055 1.14535
 C1710 C 0.44602 0.41390 1.15847
 C1711 C 0.43734 0.40543 1.18183
 H1712 H 0.44646 0.38966 1.19084
 O1713 O 0.62464 0.52391 1.09107
 O1714 O 0.65384 0.52397 1.12032
 C1715 C 0.64503 0.53249 1.09990
 C1716 C 0.65823 0.55300 1.08658
 C1717 C 0.68154 0.56171 1.09515
 H1718 H 0.69045 0.55259 1.11097
 O1719 O 0.37454 0.47551 1.09089
 O1720 O 0.34528 0.47551 1.12008
 C1721 C 0.35415 0.46693 1.09970
 C1722 C 0.34103 0.44636 1.08640
 C1723 C 0.31778 0.43742 1.09499
 H1724 H 0.30912 0.44598 1.11123
 O1725 O 0.59076 0.62424 1.02469
 O1726 O 0.61998 0.65352 1.02473
 C1727 C 0.59955 0.64468 1.03323
 C1728 C 0.58616 0.65790 1.05364
 C1729 C 0.59463 0.68130 1.06228
 H1730 H 0.61043 0.69026 1.05318
 O1731 O 0.40907 0.37545 1.02461
 O1732 O 0.37994 0.34609 1.02463
 C1733 C 0.40033 0.35499 1.03313
 C1734 C 0.41373 0.34176 1.05355
 C1735 C 0.40540 0.31825 1.06201
 H1736 H 0.38972 0.30922 1.05279
 O1737 O 0.59031 0.47496 1.12543
 O1738 O 0.61939 0.47497 1.15481
 C1739 C 0.59904 0.46639 1.14587
 C1740 C 0.58568 0.44583 1.15895
 C1741 C 0.59420 0.43687 1.18221
 H1742 H 0.61042 0.44543 1.19093
 O1743 O 0.40893 0.52452 1.12503
 O1744 O 0.37985 0.52462 1.15439
 C1745 C 0.40021 0.53315 1.14543
 C1746 C 0.41361 0.55374 1.15843
 C1747 C 0.40520 0.56265 1.18175
 H1748 H 0.38904 0.55406 1.19056
 O1749 O 0.47534 0.62477 1.09020
 O1750 O 0.47538 0.65414 1.11931
 C1751 C 0.46679 0.64521 1.09897
 C1752 C 0.44619 0.65833 1.08572
 C1753 C 0.43744 0.68166 1.09428
 H1754 H 0.44663 0.69069 1.10996
 O1755 O 0.52421 0.37502 1.09075
 O1756 O 0.52407 0.34559 1.11982
 C1757 C 0.53272 0.35454 1.09951
 C1758 C 0.55333 0.34141 1.08629
 C1759 C 0.56199 0.31802 1.09481
 H1760 H 0.55278 0.30899 1.11050
 O1761 O 0.62503 0.40908 1.02485
 O1762 O 0.65432 0.37986 1.02497
 C1763 C 0.64542 0.40028 1.03347
 C1764 C 0.65847 0.41363 1.05403
 C1765 C 0.68185 0.40523 1.06279
 H1766 H 0.69069 0.38913 1.05409
 O1767 O 0.37468 0.59034 1.02454
 O1768 O 0.34537 0.61954 1.02443
 C1769 C 0.35425 0.59916 1.03305
 C1770 C 0.34112 0.58592 1.05363
 C1771 C 0.31783 0.59454 1.06237
 H1772 H 0.30885 0.61030 1.05320
 Cu1773 Cu 0.49971 0.39509 1.10500
 Cu1774 Cu 0.49952 0.35983 1.13997
 Cu1775 Cu 0.49975 0.60464 1.10452
 Cu1776 Cu 0.49981 0.63983 1.13953
 Cu1777 Cu 0.39470 0.39548 1.00019
 Cu1778 Cu 0.35963 0.36032 1.00021
 Cu1779 Cu 0.60493 0.39483 1.00042
 Cu1780 Cu 0.63998 0.35964 1.00054
 Cu1781 Cu 0.39484 0.60456 1.00011
 Cu1782 Cu 0.35972 0.63968 0.99996
 Cu1783 Cu 0.60506 0.60412 1.00031
 Cu1784 Cu 0.64021 0.63919 1.00032
 Cu1785 Cu 0.39467 0.50001 1.10502
 Cu1786 Cu 0.35966 0.50006 1.14016
 Cu1787 Cu 0.60450 0.49944 1.10527
 Cu1788 Cu 0.63948 0.49949 1.14045
 C1789 C 0.56502 0.43415 1.14754
 H1790 H 0.55858 0.44071 1.12944
 C1791 C 0.58247 0.41635 1.19391
 C1792 C 0.43421 0.56547 1.14693
 H1793 H 0.44057 0.55895 1.12878
 C1794 C 0.41699 0.58315 1.19341
 C1795 C 0.35244 0.56529 1.06550
 H1796 H 0.37056 0.55876 1.05907
 C1797 C 0.30602 0.58301 1.08290
 C1798 C 0.64693 0.43415 1.06589
 H1799 H 0.62874 0.44050 1.05947
 C1800 C 0.69355 0.41694 1.08329
 C1801 C 0.56526 0.35278 1.06574
 H1802 H 0.55889 0.37097 1.05928
 C1803 C 0.58249 0.30615 1.08326
 C1804 C 0.43430 0.64695 1.06518
 H1805 H 0.44074 0.62879 1.05871
 C1806 C 0.41686 0.69345 1.08277
 C1807 C 0.43421 0.43456 1.14712
 H1808 H 0.44058 0.44098 1.12894
 C1809 C 0.41694 0.41716 1.19369
 C1810 C 0.56495 0.56500 1.14701
 H1811 H 0.55868 0.55860 1.12880
 C1812 C 0.58194 0.58238 1.19368
 C1813 C 0.43428 0.35313 1.06545
 H1814 H 0.44059 0.37142 1.05924
 C1815 C 0.41715 0.30623 1.08229
 C1816 C 0.56546 0.64662 1.06539
 H1817 H 0.55904 0.62841 1.05905
 C1818 C 0.58286 0.69329 1.08257
 C1819 C 0.35237 0.43467 1.06570
 H1820 H 0.37046 0.44121 1.05920
 C1821 C 0.30602 0.41692 1.08330
 C1822 C 0.64701 0.56477 1.06587
 H1823 H 0.62886 0.55837 1.05937
 C1824 C 0.69348 0.58211 1.08349
 C1825 C 1.11208 1.11221 1.26310
 C1826 C 1.10990 1.08629 1.25945
 C1827 C 1.10028 1.07693 1.23693
 C1828 C 1.13117 1.13036 1.30510
 C1829 C 1.09487 1.11945 1.22167
 C1830 C 1.10450 1.12875 1.24418
 C1831 C 1.12239 1.12192 1.28605
 C1832 C 1.09270 1.09342 1.21776
 H1833 H 1.11569 1.07331 1.27398
 H1834 H 1.09859 1.05681 1.23458
 H1835 H 1.08957 1.13262 1.20715
 H1836 H 1.10620 1.14885 1.24676
 C1837 C 1.11010 0.61094 0.76369
 C1838 C 1.10810 0.58505 0.75975
 C1839 C 1.09889 0.57590 0.73698
 C1840 C 1.12857 0.62876 0.80606
 C1841 C 1.09355 0.61857 0.72209
 C1842 C 1.10276 0.62766 0.74485
 C1843 C 1.12005 0.62045 0.78687
 C1844 C 1.09155 0.59257 0.71788
 H1845 H 1.11372 0.57195 0.77423
 H1846 H 1.09733 0.55580 0.73438
 H1847 H 1.08842 0.63186 0.70762
 H1848 H 1.10435 0.64774 0.74766
 C1849 C 0.61058 1.11182 0.76328
 C1850 C 0.60832 1.08592 0.75950
 C1851 C 0.59883 1.07672 0.73687
 C1852 C 0.62954 1.12968 0.80545
 C1853 C 0.59369 1.11934 0.72179
 C1854 C 0.60319 1.12849 0.74441
 C1855 C 0.62082 1.12137 0.78633
 C1856 C 0.59146 1.09334 0.71773
 H1857 H 0.61397 1.07285 0.77400
 H1858 H 0.59708 1.05662 0.73440
 H1859 H 0.58854 1.13260 0.70729
 H1860 H 0.60496 1.14857 0.74710
 C1861 C 0.60998 0.61065 1.26369
 C1862 C 0.60792 0.58474 1.25988
 C1863 C 0.59868 0.57549 1.23716
 C1864 C 0.62855 0.62863 1.30594
 C1865 C 0.59345 0.61810 1.22205
 C1866 C 0.60269 0.62729 1.24475
 C1867 C 0.61997 0.62025 1.28680
 C1868 C 0.59138 0.59209 1.21798
 H1869 H 0.61351 0.57169 1.27442
 H1870 H 0.59706 0.55539 1.23466
 H1871 H 0.58835 0.63134 1.20752
 H1872 H 0.60433 0.64737 1.24747
 C1873 C 0.88849 0.88825 1.26335
 C1874 C 0.89058 0.91417 1.25959
 C1875 C 0.90007 0.92349 1.23699
 C1876 C 0.86974 0.87010 1.30550
 C1877 C 0.90549 0.88093 1.22187
 C1878 C 0.89600 0.87167 1.24446
 C1879 C 0.87835 0.87857 1.28639
 C1880 C 0.90760 0.90696 1.21785
 H1881 H 0.88484 0.92717 1.27411
 H1882 H 0.90171 0.94360 1.23455
 H1883 H 0.91075 0.86774 1.20737
 H1884 H 0.89435 0.85157 1.24712
 C1885 C 0.88860 0.38890 0.76328
 C1886 C 0.89620 0.37223 0.74451
 C1887 C 0.90578 0.38137 0.72191
 C1888 C 0.86963 0.37095 0.80541
 C1889 C 0.90030 0.42400 0.73681
 C1890 C 0.89072 0.41480 0.75942
 C1891 C 0.87833 0.37933 0.78631
 C1892 C 0.90788 0.40738 0.71778
 H1893 H 0.89455 0.35214 0.74726
 H1894 H 0.91110 0.36811 0.70749
 H1895 H 0.90193 0.44410 0.73427
 H1896 H 0.88492 0.42787 0.77384
 C1897 C 0.38757 0.88932 0.76288
 C1898 C 0.41348 0.89108 0.75913
 C1899 C 0.42290 0.90041 0.73650
 C1900 C 0.36931 0.87072 0.80505
 C1901 C 0.38046 0.90632 0.72135
 C1902 C 0.37110 0.89699 0.74396
 C1903 C 0.37778 0.87930 0.78594
 C1904 C 0.40648 0.90811 0.71734
 H1905 H 0.42639 0.88520 0.77366
 H1906 H 0.44300 0.90180 0.73406
 H1907 H 0.36734 0.91173 0.70683
 H1908 H 0.35101 0.89559 0.74662
 C1909 C 0.38810 0.38902 1.26349
 C1910 C 0.39025 0.41492 1.25963
 C1911 C 0.39978 0.42411 1.23701
 C1912 C 0.36920 0.37106 1.30564
 C1913 C 0.40517 0.38148 1.22208
 C1914 C 0.39563 0.37234 1.24470
 C1915 C 0.37787 0.37946 1.28654
 C1916 C 0.40730 0.40748 1.21795
 H1917 H 0.38450 0.42799 1.27408
 H1918 H 0.40145 0.44421 1.23447
 H1919 H 0.41043 0.36821 1.20765
 H1920 H 0.39395 0.35226 1.24745
 C1921 C 0.88741 1.11228 0.73697
 C1922 C 0.89511 1.12878 0.75584
 C1923 C 0.90482 1.11944 0.77831
 C1924 C 0.86828 1.13052 0.69499
 C1925 C 0.89925 1.07695 0.76310
 C1926 C 0.88955 1.08634 0.74062
 C1927 C 0.87705 1.12203 0.71403
 C1928 C 0.90695 1.09340 0.78223
 H1929 H 0.89345 1.14889 0.75325
 H1930 H 0.91022 1.13259 0.79281
 H1931 H 0.90090 1.05682 0.76546
 H1932 H 0.88368 1.07339 0.72612
 C1933 C 0.88884 0.61136 0.23655
 C1934 C 0.89632 0.62790 0.25547
 C1935 C 0.90575 0.61859 0.27807
 C1936 C 0.87013 0.62958 0.19439
 C1937 C 0.90031 0.57606 0.26288
 C1938 C 0.89089 0.58543 0.24027
 C1939 C 0.87874 0.62110 0.21350
 C1940 C 0.90783 0.59256 0.28205
 H1941 H 0.89470 0.64800 0.25284
 H1942 H 0.91100 0.63176 0.29260
 H1943 H 0.90193 0.55595 0.26530
 H1944 H 0.88516 0.57246 0.22573
 C1945 C 0.39032 1.11048 0.23587
 C1946 C 0.39256 1.08461 0.23989
 C1947 C 0.40186 1.07558 0.26268
 C1948 C 0.37167 1.12812 0.19349
 C1949 C 0.40684 1.11832 0.27743
 C1950 C 0.39754 1.12729 0.25466
 C1951 C 0.38026 1.11987 0.21269
 C1952 C 0.40905 1.09235 0.28173
 H1953 H 0.38704 1.07143 0.22545
 H1954 H 0.40359 1.05550 0.26535
 H1955 H 0.41186 1.13169 0.29186
 H1956 H 0.39577 1.14735 0.25178
 C1957 C 0.38879 0.61124 0.73696
 C1958 C 0.39106 0.58533 0.74070
 C1959 C 0.40060 0.57607 0.76330
 C1960 C 0.36976 0.62925 0.69487
 C1961 C 0.40576 0.61866 0.77842
 C1962 C 0.39621 0.62786 0.75583
 C1963 C 0.37851 0.62085 0.71394
 C1964 C 0.40801 0.59265 0.78244
 H1965 H 0.38539 0.57230 0.72619
 H1966 H 0.40235 0.55597 0.76575
 H1967 H 0.41094 0.63188 0.79292
 H1968 H 0.39443 0.64795 0.75317
 C1969 C 1.11044 0.88921 0.73632
 C1970 C 1.10317 0.87248 0.75519
 C1971 C 1.09391 0.88158 0.77793
 C1972 C 1.12894 0.87140 0.69396
 C1973 C 1.09910 0.92425 0.76300
 C1974 C 1.10835 0.91510 0.74024
 C1975 C 1.12041 0.87970 0.71315
 C1976 C 1.09181 0.90757 0.78211
 H1977 H 1.10482 0.85241 0.75239
 H1978 H 1.08882 0.86828 0.79241
 H1979 H 1.09745 0.94434 0.76558
 H1980 H 1.11392 0.92820 0.72575
 C1981 C 1.11260 0.38805 0.23709
 C1982 C 1.08668 0.38979 0.24078
 C1983 C 1.07720 0.39914 0.26337
 C1984 C 1.13103 0.36960 0.19493
 C1985 C 1.11959 0.40508 0.27860
 C1986 C 1.12901 0.39572 0.25604
 C1987 C 1.12246 0.37809 0.21404
 C1988 C 1.09356 0.40689 0.28254
 H1989 H 1.07381 0.38390 0.22622
 H1990 H 1.05708 0.40055 0.26575
 H1991 H 1.13267 0.41051 0.29314
 H1992 H 1.14911 0.39433 0.25343
 C1993 C 0.61057 0.88910 0.23662
 C1994 C 0.60330 0.87244 0.25554
 C1995 C 0.59408 0.88162 0.27825
 C1996 C 0.62898 0.87109 0.19430
 C1997 C 0.59931 0.92424 0.26319
 C1998 C 0.60853 0.91500 0.24046
 C1999 C 0.62049 0.87949 0.21347
 C2000 C 0.59199 0.90763 0.28235
 H2001 H 0.60493 0.85236 0.25280
 H2002 H 0.58897 0.86837 0.29277
 H2003 H 0.59768 0.94434 0.26571
 H2004 H 0.61411 0.92806 0.22592
 C2005 C 0.61135 0.38866 0.73695
 C2006 C 0.60391 0.37191 0.75573
 C2007 C 0.59435 0.38097 0.77837
 C2008 C 0.63033 0.37091 0.69475
 C2009 C 0.59953 0.42365 0.76348
 C2010 C 0.60908 0.41454 0.74084
 C2011 C 0.62162 0.37919 0.71388
 C2012 C 0.59211 0.40695 0.78253
 H2013 H 0.60568 0.35184 0.75296
 H2014 H 0.58916 0.36765 0.79279
 H2015 H 0.59778 0.44374 0.76603
 H2016 H 0.61476 0.42767 0.72640
 C2017 C 1.26376 1.11005 1.11064
 C2018 C 1.24481 1.10294 1.12730
 C2019 C 1.22200 1.09387 1.11819
 C2020 C 1.30628 1.12818 1.12851
 C2021 C 1.23702 1.09896 1.07562
 C2022 C 1.25985 1.10803 1.08479
 C2023 C 1.28702 1.11980 1.12018
 C2024 C 1.21783 1.09179 1.09224
 H2025 H 1.24760 1.10456 1.14734
 H2026 H 1.20746 1.08888 1.13144
 H2027 H 1.23445 1.09733 1.05556
 H2028 H 1.27442 1.11349 1.07173
 C2029 C 1.26331 0.61175 0.61167
 C2030 C 1.25949 0.58583 0.60976
 C2031 C 1.23688 0.57653 0.60028
 C2032 C 1.30548 0.62986 0.63044
 C2033 C 1.22188 0.61910 0.59450
 C2034 C 1.24448 0.62835 0.60399
 C2035 C 1.28636 0.62142 0.62182
 C2036 C 1.21779 0.59308 0.59258
 H2037 H 1.27396 0.57282 0.61563
 H2038 H 1.23438 0.55642 0.59878
 H2039 H 1.20742 0.63231 0.58910
 H2040 H 1.24719 0.64845 0.60549
 C2041 C 0.76261 1.11192 0.61304
 C2042 C 0.75914 1.10989 0.58712
 C2043 C 0.73660 1.10050 0.57755
 C2044 C 0.80467 1.13055 0.63156
 C2045 C 0.72096 1.09506 0.61985
 C2046 C 0.74349 1.10446 0.62936
 C2047 C 0.78560 1.12196 0.62297
 C2048 C 0.71724 1.09298 0.59382
 H2049 H 0.77383 1.11561 0.57432
 H2050 H 0.73439 1.09889 0.55745
 H2051 H 0.70629 1.08981 0.63285
 H2052 H 0.74592 1.10606 0.64945
 C2053 C 0.76326 0.61051 1.11217
 C2054 C 0.75958 0.60848 1.08628
 C2055 C 0.73694 0.59916 1.07690
 C2056 C 0.80547 0.62904 1.13039
 C2057 C 0.72161 0.59381 1.11933
 C2058 C 0.74424 0.60314 1.12865
 C2059 C 0.78634 0.62050 1.12192
 C2060 C 0.71769 0.59173 1.09334
 H2061 H 0.77419 0.61414 1.07336
 H2062 H 0.73456 0.59755 1.05682
 H2063 H 0.70702 0.58863 1.13245
 H2064 H 0.74684 0.60475 1.14872
 C2065 C 1.26313 0.88847 0.88809
 C2066 C 1.24409 0.89591 0.87165
 C2067 C 1.22151 0.90531 0.88103
 C2068 C 1.30532 0.86991 0.86975
 C2069 C 1.23691 0.89989 0.92342
 C2070 C 1.25951 0.89050 0.91398
 C2071 C 1.28620 0.87845 0.87828
 C2072 C 1.21764 0.90740 0.90703
 H2073 H 1.24665 0.89431 0.85158
 H2074 H 1.20691 0.91055 0.86794
 H2075 H 1.23458 0.90151 0.94351
 H2076 H 1.27414 0.88479 0.92687
 C2077 C 1.26369 0.38891 0.38825
 C2078 C 1.24493 0.37228 0.39600
 C2079 C 1.22234 0.38148 0.40556
 C2080 C 1.30581 0.37089 0.36925
 C2081 C 1.23722 0.42408 0.39976
 C2082 C 1.25982 0.41482 0.39020
 C2083 C 1.28672 0.37929 0.37798
 C2084 C 1.21820 0.40750 0.40750
 H2085 H 1.24768 0.35219 0.39447
 H2086 H 1.20793 0.36825 0.41100
 H2087 H 1.23468 0.44419 0.40127
 H2088 H 1.27424 0.42786 0.38428
 C2089 C 0.76296 0.88867 0.38817
 C2090 C 0.75937 0.89058 0.41408
 C2091 C 0.73674 0.89983 0.42358
 C2092 C 0.80520 0.87042 0.36969
 C2093 C 0.72124 0.90530 0.38123
 C2094 C 0.74386 0.89605 0.37179
 C2095 C 0.78606 0.87884 0.37828
 C2096 C 0.71742 0.90731 0.40724
 H2097 H 0.77405 0.88491 0.42693
 H2098 H 0.73443 0.90138 0.44368
 H2099 H 0.70660 0.91052 0.36818
 H2100 H 0.74638 0.89452 0.35170
 C2101 C 0.76314 0.38830 0.88830
 C2102 C 0.74406 0.39567 0.87189
 C2103 C 0.72142 0.40489 0.88128
 C2104 C 0.80544 0.37004 0.86994
 C2105 C 0.73683 0.39942 0.92366
 C2106 C 0.75949 0.39020 0.91421
 C2107 C 0.78627 0.37846 0.87848
 C2108 C 0.71753 0.40688 0.90729
 H2109 H 0.74664 0.39414 0.85181
 H2110 H 0.70679 0.41009 0.86820
 H2111 H 0.73448 0.40097 0.94375
 H2112 H 0.77415 0.38455 0.92709
 C2113 C 0.73651 0.88915 1.11083
 C2114 C 0.74041 0.91507 1.10899
 C2115 C 0.76314 0.92433 1.09978
 C2116 C 0.69417 0.87109 1.12921
 C2117 C 0.77810 0.88173 1.09415
 C2118 C 0.75538 0.87253 1.10337
 C2119 C 0.71335 0.87951 1.12073
 C2120 C 0.78226 0.90775 1.09227
 H2121 H 0.72590 0.92810 1.11472
 H2122 H 0.76571 0.94444 1.09832
 H2123 H 0.79259 0.86850 1.08890
 H2124 H 0.75261 0.85243 1.10484
 C2125 C 0.73680 0.38866 0.61190
 C2126 C 0.75581 0.39610 0.62834
 C2127 C 0.77846 0.40535 0.61898
 C2128 C 0.69451 0.37033 0.63020
 C2129 C 0.76316 0.39980 0.57657
 C2130 C 0.74050 0.39054 0.58600
 C2131 C 0.71368 0.37878 0.62169
 C2132 C 0.78240 0.40731 0.59298
 H2133 H 0.75320 0.39459 0.64842
 H2134 H 0.79304 0.41060 0.63208
 H2135 H 0.76556 0.40132 0.55649
 H2136 H 0.72589 0.38484 0.57310
 C2137 C 0.23635 0.88980 0.61024
 C2138 C 0.24021 0.91571 0.60820
 C2139 C 0.26293 0.92493 0.59890
 C2140 C 0.19406 0.87178 0.62874
 C2141 C 0.27794 0.88230 0.59359
 C2142 C 0.25524 0.87314 0.60289
 C2143 C 0.21322 0.88020 0.62022
 C2144 C 0.28206 0.90831 0.59151
 H2145 H 0.22570 0.92877 0.61383
 H2146 H 0.26547 0.94503 0.59728
 H2147 H 0.29244 0.86904 0.58843
 H2148 H 0.25249 0.85305 0.60451
 C2149 C 0.23654 0.38817 1.11245
 C2150 C 0.25539 0.37166 1.10467
 C2151 C 0.27791 0.38100 1.09506
 C2152 C 0.19449 0.36990 1.13140
 C2153 C 0.26278 0.42350 1.10089
 C2154 C 0.24025 0.41411 1.11050
 C2155 C 0.21356 0.37841 1.12270
 C2156 C 0.28189 0.40704 1.09309
 H2157 H 0.25276 0.35155 1.10620
 H2158 H 0.29238 0.36784 1.08959
 H2159 H 0.26518 0.44363 1.09937
 H2160 H 0.22576 0.42706 1.11644
 C2161 C 0.73660 1.11078 0.88822
 C2162 C 0.74053 1.08488 0.89022
 C2163 C 0.76317 1.07569 0.89977
 C2164 C 0.69439 1.12872 0.86935
 C2165 C 0.77795 1.11834 0.90546
 C2166 C 0.75533 1.12747 0.89590
 C2167 C 0.71352 1.12034 0.87800
 C2168 C 0.78216 1.09233 0.90745
 H2169 H 0.72614 1.07180 0.88436
 H2170 H 0.76576 1.05559 0.90132
 H2171 H 0.79234 1.13161 0.91085
 H2172 H 0.75252 1.14755 0.89434
 C2173 C 0.73651 0.61033 0.38890
 C2174 C 0.75539 0.62697 0.39631
 C2175 C 0.77813 0.61778 0.40549
 C2176 C 0.69409 0.62841 0.37070
 C2177 C 0.76320 0.57517 0.39994
 C2178 C 0.74043 0.58442 0.39075
 C2179 C 0.71331 0.61997 0.37908
 C2180 C 0.78230 0.59176 0.40741
 H2181 H 0.75259 0.64706 0.39483
 H2182 H 0.79261 0.63102 0.41072
 H2183 H 0.76578 0.55506 0.40143
 H2184 H 0.72593 0.57138 0.38507
 C2185 C 0.23712 1.11167 0.38674
 C2186 C 0.25616 1.10411 0.37038
 C2187 C 0.27875 1.09481 0.37985
 C2188 C 0.19495 1.13020 0.36833
 C2189 C 0.26334 1.10054 0.42219
 C2190 C 0.24073 1.10984 0.41266
 C2191 C 0.21407 1.12165 0.37686
 C2192 C 0.28261 1.09292 0.40587
 H2193 H 0.25362 1.10558 0.35029
 H2194 H 0.29337 1.08948 0.36681
 H2195 H 0.26566 1.09907 0.44229
 H2196 H 0.22610 1.11564 0.42550
 C2197 C 0.23623 0.61011 0.88904
 C2198 C 0.25517 0.60288 0.87241
 C2199 C 0.27793 0.59369 0.88156
 C2200 C 0.19383 0.62851 0.87113
 C2201 C 0.26287 0.59885 0.92410
 C2202 C 0.24009 0.60804 0.91490
 C2203 C 0.21304 0.62001 0.87947
 C2204 C 0.28206 0.59160 0.90752
 H2205 H 0.25242 0.60453 0.85236
 H2206 H 0.29247 0.58864 0.86833
 H2207 H 0.26541 0.59722 0.94416
 H2208 H 0.22554 0.61358 0.92793
 C2209 C 1.11207 1.26329 1.11155
 C2210 C 1.12853 1.24432 1.10394
 C2211 C 1.11915 1.22177 1.09439
 C2212 C 1.13038 1.30531 1.13054
 C2213 C 1.07673 1.23712 1.09996
 C2214 C 1.08616 1.25968 1.10951
 C2215 C 1.12187 1.28627 1.12180
 C2216 C 1.09314 1.21790 1.09233
 H2217 H 1.14861 1.24687 1.10555
 H2218 H 1.13226 1.20720 1.08905
 H2219 H 1.05663 1.23479 1.09837
 H2220 H 1.07326 1.27426 1.11533
 C2221 C 1.11068 0.76398 0.61060
 C2222 C 1.10321 0.74507 0.62719
 C2223 C 1.09395 0.72234 0.61800
 C2224 C 1.12908 0.80636 0.62864
 C2225 C 1.09955 0.73735 0.57548
 C2226 C 1.10881 0.76010 0.58473
 C2227 C 1.12061 0.78716 0.62023
 C2228 C 1.09204 0.71821 0.59204
 H2229 H 1.10470 0.74783 0.64725
 H2230 H 1.08870 0.70784 0.63121
 H2231 H 1.09806 0.73481 0.55541
 H2232 H 1.11454 0.77463 0.57173
 C2233 C 0.61183 1.26384 0.61074
 C2234 C 0.62829 1.24476 0.60342
 C2235 C 0.61893 1.22215 0.59406
 C2236 C 0.63016 1.30598 0.62938
 C2237 C 0.57650 1.23762 0.59924
 C2238 C 0.58592 1.26026 0.60860
 C2239 C 0.62162 1.28689 0.62078
 C2240 C 0.59292 1.21830 0.59188
 H2241 H 0.64837 1.24729 0.60512
 H2242 H 0.63204 1.20750 0.58893
 H2243 H 0.55641 1.23530 0.59755
 H2244 H 0.57302 1.27492 0.61421
 C2245 C 0.61108 0.76339 1.11078
 C2246 C 0.62770 0.74442 1.10351
 C2247 C 0.61853 0.72169 1.09424
 C2248 C 0.62905 0.80578 1.12923
 C2249 C 0.57598 0.73682 1.09940
 C2250 C 0.58521 0.75957 1.10867
 C2251 C 0.62068 0.78657 1.12073
 C2252 C 0.59256 0.71761 1.09210
 H2253 H 0.64777 0.74713 1.10518
 H2254 H 0.63176 0.70713 1.08915
 H2255 H 0.55590 0.73432 1.09773
 H2256 H 0.57218 0.77414 1.11423
 C2257 C 0.88814 1.26345 0.88901
 C2258 C 0.91405 1.25977 0.89098
 C2259 C 0.92347 1.23710 0.90028
 C2260 C 0.86981 1.30568 0.87051
 C2261 C 0.88103 1.22177 0.90574
 C2262 C 0.87168 1.24442 0.89644
 C2263 C 0.87835 1.28655 0.87904
 C2264 C 0.90704 1.21783 0.90775
 H2265 H 0.92697 1.27439 0.88528
 H2266 H 0.94357 1.23470 0.90184
 H2267 H 0.86792 1.20716 0.91097
 H2268 H 0.85159 1.24703 0.89487
 C2269 C 0.88869 0.76317 0.38829
 C2270 C 0.91458 0.75943 0.39042
 C2271 C 0.92388 0.73677 0.39987
 C2272 C 0.87057 0.80539 0.36954
 C2273 C 0.88137 0.72158 0.40518
 C2274 C 0.87213 0.74422 0.39573
 C2275 C 0.87903 0.78626 0.37816
 C2276 C 0.90736 0.71757 0.40733
 H2277 H 0.92756 0.77399 0.38472
 H2278 H 0.94396 0.73432 0.40153
 H2279 H 0.86820 0.70703 0.41040
 H2280 H 0.85206 0.74688 0.39405
 C2281 C 0.38835 1.26407 0.38804
 C2282 C 0.41426 1.26045 0.39013
 C2283 C 0.42368 1.23780 0.39948
 C2284 C 0.37000 1.30633 0.36956
 C2285 C 0.38126 1.22236 0.40471
 C2286 C 0.37189 1.24499 0.39536
 C2287 C 0.37854 1.28718 0.37807
 C2288 C 0.40727 1.21849 0.40687
 H2289 H 0.42716 1.27512 0.38452
 H2290 H 0.44378 1.23546 0.40115
 H2291 H 0.36816 1.20772 0.40986
 H2292 H 0.35181 1.24755 0.39370
 C2293 C 0.38803 0.76327 0.88883
 C2294 C 0.41394 0.75964 0.89090
 C2295 C 0.42336 0.73701 0.90030
 C2296 C 0.36966 0.80546 0.87024
 C2297 C 0.38094 0.72160 0.90562
 C2298 C 0.37157 0.74422 0.89623
 C2299 C 0.37822 0.78634 0.87880
 C2300 C 0.40695 0.71772 0.90776
 H2301 H 0.42684 0.77428 0.88523
 H2302 H 0.44346 0.73466 0.90195
 H2303 H 0.36783 0.70698 0.91083
 H2304 H 0.35149 0.74678 0.89458
 C2305 C 1.11080 0.73610 0.89006
 C2306 C 1.12748 0.75498 0.89737
 C2307 C 1.11838 0.77774 0.90666
 C2308 C 1.12864 0.69374 0.87144
 C2309 C 1.07578 0.76280 0.90143
 C2310 C 1.08493 0.74002 0.89215
 C2311 C 1.12031 0.71293 0.88002
 C2312 C 1.09242 0.78193 0.90875
 H2313 H 1.14753 0.75218 0.89571
 H2314 H 1.13165 0.79223 0.91178
 H2315 H 1.05571 0.76538 0.90307
 H2316 H 1.07186 0.72552 0.88654
 C2317 C 1.11253 0.23673 0.38854
 C2318 C 1.12901 0.25567 0.39615
 C2319 C 1.11968 0.27822 0.40574
 C2320 C 1.13076 0.19473 0.36943
 C2321 C 1.07724 0.26292 0.40025
 C2322 C 1.08663 0.24037 0.39066
 C2323 C 1.12228 0.21376 0.37822
 C2324 C 1.09367 0.28213 0.40785
 H2325 H 1.14910 0.25310 0.39448
 H2326 H 1.13280 0.29277 0.41106
 H2327 H 1.05714 0.26528 0.40188
 H2328 H 1.07370 0.22581 0.38484
 C2329 C 0.61108 0.73612 0.38983
 C2330 C 0.62771 0.75499 0.39729
 C2331 C 0.61855 0.77772 0.40659
 C2332 C 0.62899 0.69377 0.37118
 C2333 C 0.57599 0.76276 0.40111
 C2334 C 0.58521 0.74002 0.39181
 C2335 C 0.62066 0.71296 0.37978
 C2336 C 0.59257 0.78189 0.40856
 H2337 H 0.64778 0.75221 0.39572
 H2338 H 0.63178 0.79222 0.41181
 H2339 H 0.55591 0.76533 0.40265
 H2340 H 0.57217 0.72552 0.38610
 C2341 C 0.61116 0.23597 0.88907
 C2342 C 0.62776 0.25484 0.89661
 C2343 C 0.61855 0.27744 0.90619
 C2344 C 0.62917 0.19389 0.86993
 C2345 C 0.57603 0.26234 0.90083
 C2346 C 0.58529 0.23973 0.89125
 C2347 C 0.62078 0.21296 0.87873
 C2348 C 0.59257 0.28148 0.90836
 H2349 H 0.64782 0.25217 0.89489
 H2350 H 0.63176 0.29194 0.91146
 H2351 H 0.55595 0.26480 0.90252
 H2352 H 0.57228 0.22522 0.88549
 C2353 C 0.88876 0.73644 1.11145
 C2354 C 0.91465 0.74018 1.10934
 C2355 C 0.92395 0.76283 1.09988
 C2356 C 0.87068 0.69424 1.13027
 C2357 C 0.88144 0.77802 1.09451
 C2358 C 0.87220 0.75539 1.10398
 C2359 C 0.87911 0.71336 1.12161
 C2360 C 0.90743 0.78203 1.09239
 H2361 H 0.92764 0.72562 1.11505
 H2362 H 0.94403 0.76526 1.09823
 H2363 H 0.86826 0.79257 1.08928
 H2364 H 0.85213 0.75273 1.10564
 C2365 C 0.88793 0.23704 0.61236
 C2366 C 0.88987 0.24065 0.58645
 C2367 C 0.89947 0.26316 0.57696
 C2368 C 0.86892 0.19506 0.63079
 C2369 C 0.90533 0.27848 0.61931
 C2370 C 0.89572 0.25598 0.62875
 C2371 C 0.87766 0.21409 0.62222
 C2372 C 0.90729 0.28235 0.59330
 H2373 H 0.88391 0.22609 0.57359
 H2374 H 0.90099 0.26549 0.55686
 H2375 H 0.91082 0.29303 0.63237
 H2376 H 0.89420 0.25343 0.64883
 C2377 C 0.38779 0.73673 0.61110
 C2378 C 0.37131 0.75569 0.60351
 C2379 C 0.38065 0.77833 0.59414
 C2380 C 0.36954 0.69451 0.62973
 C2381 C 0.42310 0.76310 0.59987
 C2382 C 0.41370 0.74045 0.60923
 C2383 C 0.37803 0.71365 0.62115
 C2384 C 0.40666 0.78231 0.59223
 H2385 H 0.35122 0.75306 0.60499
 H2386 H 0.36753 0.79288 0.58878
 H2387 H 0.44320 0.76552 0.59839
 H2388 H 0.42663 0.72588 0.61505
 C2389 C 0.38929 0.23582 1.11001
 C2390 C 0.41515 0.23979 1.10798
 C2391 C 0.42427 0.26264 1.09885
 C2392 C 0.37150 0.19331 1.12833
 C2393 C 0.38163 0.27757 1.09369
 C2394 C 0.37258 0.25473 1.10282
 C2395 C 0.37981 0.21256 1.11987
 C2396 C 0.40759 0.28180 1.09164
 H2397 H 0.42825 0.22525 1.11350
 H2398 H 0.44433 0.26527 1.09725
 H2399 H 0.36834 0.29208 1.08865
 H2400 H 0.35253 0.25189 1.10444
 C2401 C 1.11082 1.11158 0.73658
 C2402 C 1.10889 1.08565 0.74035
 C2403 C 1.09961 1.07630 0.76302
 C2404 C 1.12923 1.12980 0.69433
 C2405 C 1.09410 1.11884 0.77816
 C2406 C 1.10338 1.12813 0.75551
 C2407 C 1.12075 1.12131 0.71347
 C2408 C 1.09212 1.09281 0.78219
 H2409 H 1.11459 1.07267 0.72581
 H2410 H 1.09807 1.05618 0.76549
 H2411 H 1.08886 1.13202 0.79269
 H2412 H 1.10492 1.14823 0.75283
 C2413 C 1.11161 0.61239 0.23684
 C2414 C 1.10407 0.62879 0.25587
 C2415 C 1.09477 0.61930 0.27844
 C2416 C 1.13004 0.63091 0.19470
 C2417 C 1.10049 0.57689 0.26303
 C2418 C 1.10979 0.58643 0.24045
 C2419 C 1.12154 0.62231 0.21380
 C2420 C 1.09287 0.59323 0.28229
 H2421 H 1.10553 0.64891 0.25332
 H2422 H 1.08944 0.63236 0.29303
 H2423 H 1.09902 0.55675 0.26536
 H2424 H 1.11557 0.57357 0.22583
 C2425 C 0.61128 1.11127 0.23664
 C2426 C 0.62789 1.10369 0.25547
 C2427 C 0.61870 1.09436 0.27815
 C2428 C 0.62929 1.12989 0.19440
 C2429 C 0.57616 1.10006 0.26322
 C2430 C 0.58540 1.10939 0.24053
 C2431 C 0.62089 1.12131 0.21354
 C2432 C 0.59272 1.09247 0.28230
 H2433 H 0.64796 1.10518 0.25270
 H2434 H 0.63192 1.08903 0.29260
 H2435 H 0.55607 1.09859 0.26578
 H2436 H 0.57238 1.11520 0.22606
 C2437 C 0.61079 0.61080 0.73709
 C2438 C 0.60866 0.58489 0.74089
 C2439 C 0.59933 0.57564 0.76358
 C2440 C 0.62932 0.62884 0.69482
 C2441 C 0.59416 0.61825 0.77867
 C2442 C 0.60349 0.62743 0.75600
 C2443 C 0.62079 0.62042 0.71397
 C2444 C 0.59200 0.59224 0.78274
 H2445 H 0.61425 0.57185 0.72636
 H2446 H 0.59765 0.55554 0.76608
 H2447 H 0.58904 0.63148 0.79319
 H2448 H 0.60518 0.64752 0.75329
 C2449 C 0.88955 0.88881 0.73650
 C2450 C 0.89688 0.87216 0.75542
 C2451 C 0.90617 0.88134 0.77810
 C2452 C 0.87093 0.87088 0.69424
 C2453 C 0.90094 0.92395 0.76302
 C2454 C 0.89165 0.91472 0.74032
 C2455 C 0.87952 0.87922 0.71339
 C2456 C 0.90827 0.90735 0.78218
 H2457 H 0.89522 0.85207 0.75270
 H2458 H 0.91130 0.86809 0.79262
 H2459 H 0.90258 0.94405 0.76552
 H2460 H 0.88604 0.92777 0.72578
 C2461 C 0.88983 0.38790 0.23649
 C2462 C 0.89729 0.37134 0.25544
 C2463 C 0.90659 0.38063 0.27808
 C2464 C 0.87124 0.36974 0.19431
 C2465 C 0.90107 0.42317 0.26290
 C2466 C 0.89178 0.41383 0.24024
 C2467 C 0.87981 0.37819 0.21342
 C2468 C 0.90856 0.40667 0.28209
 H2469 H 0.89574 0.35124 0.25278
 H2470 H 0.91183 0.36745 0.29262
 H2471 H 0.90260 0.44329 0.26534
 H2472 H 0.88606 0.42681 0.22569
 C2473 C 0.38905 0.88811 0.23677
 C2474 C 0.41494 0.88994 0.24062
 C2475 C 0.42424 0.89941 0.26322
 C2476 C 0.37090 0.86945 0.19459
 C2477 C 0.38173 0.90531 0.27816
 C2478 C 0.37249 0.89584 0.25557
 C2479 C 0.37937 0.87802 0.21371
 C2480 C 0.40772 0.90719 0.28226
 H2481 H 0.42793 0.88403 0.22617
 H2482 H 0.44433 0.90087 0.26574
 H2483 H 0.36854 0.91077 0.29258
 H2484 H 0.35241 0.89439 0.25283
 C2485 C 0.38965 0.38820 0.73670
 C2486 C 0.39694 0.37160 0.75567
 C2487 C 0.40615 0.38083 0.77837
 C2488 C 0.37125 0.37016 0.69437
 C2489 C 0.40088 0.42341 0.76320
 C2490 C 0.39167 0.41412 0.74048
 C2491 C 0.37975 0.37854 0.71355
 C2492 C 0.40821 0.40685 0.78241
 H2493 H 0.39533 0.35150 0.75299
 H2494 H 0.41126 0.36762 0.79292
 H2495 H 0.40249 0.44352 0.76566
 H2496 H 0.38609 0.42713 0.72591
 C2497 C 1.11103 0.88868 1.26363
 C2498 C 1.10365 0.87209 1.24472
 C2499 C 1.09425 0.88133 1.22209
 C2500 C 1.12975 0.87057 1.30580
 C2501 C 1.09951 0.92390 1.23722
 C2502 C 1.10891 0.91460 1.25987
 C2503 C 1.12112 0.87902 1.28669
 C2504 C 1.09210 0.90735 1.21806
 H2505 H 1.10533 0.85199 1.24739
 H2506 H 1.08908 0.86812 1.20756
 H2507 H 1.09784 0.94401 1.23477
 H2508 H 1.11456 0.92761 1.27441
 C2509 C 1.11126 0.38864 0.76326
 C2510 C 1.10385 0.37208 0.74433
 C2511 C 1.09453 0.38136 0.72169
 C2512 C 1.12977 0.37045 0.80550
 C2513 C 1.09993 0.42391 0.73684
 C2514 C 1.10925 0.41457 0.75950
 C2515 C 1.12124 0.37893 0.78636
 C2516 C 1.09248 0.40739 0.71766
 H2517 H 1.10544 0.35198 0.74700
 H2518 H 1.08932 0.36818 0.70716
 H2519 H 1.09834 0.44402 0.73438
 H2520 H 1.11493 0.42755 0.77405
 C2521 C 0.61016 0.88915 0.76353
 C2522 C 0.60807 0.91507 0.75975
 C2523 C 0.59868 0.92436 0.73709
 C2524 C 0.62893 0.87107 0.80570
 C2525 C 0.59335 0.88178 0.72201
 C2526 C 0.60274 0.87255 0.74464
 C2527 C 0.62028 0.87950 0.78660
 C2528 C 0.59125 0.90779 0.71795
 H2529 H 0.61376 0.92809 0.77426
 H2530 H 0.59705 0.94446 0.73461
 H2531 H 0.58815 0.86856 0.70750
 H2532 H 0.60440 0.85245 0.74734
 C2533 C 0.61138 0.38746 1.26340
 C2534 C 0.60941 0.41341 1.25974
 C2535 C 0.59989 0.42285 1.23720
 C2536 C 0.63032 0.36914 1.30540
 C2537 C 0.59416 0.38037 1.22198
 C2538 C 0.60369 0.37099 1.24450
 C2539 C 0.62160 0.37766 1.28636
 C2540 C 0.59219 0.40642 1.21805
 H2541 H 0.61529 0.42633 1.27426
 H2542 H 0.59835 0.44298 1.23482
 H2543 H 0.58877 0.36725 1.20746
 H2544 H 0.60524 0.35087 1.24710
 C2545 C 0.89006 1.11066 1.26395
 C2546 C 0.89215 1.08477 1.25999
 C2547 C 0.90134 1.07565 1.23721
 C2548 C 0.87169 1.12845 1.30637
 C2549 C 0.90649 1.11834 1.22231
 C2550 C 0.89729 1.12740 1.24508
 C2551 C 0.88016 1.12014 1.28715
 C2552 C 0.90858 1.09235 1.21809
 H2553 H 0.88661 1.07165 1.27449
 H2554 H 0.90298 1.05556 1.23460
 H2555 H 0.91154 1.13166 1.20784
 H2556 H 0.89564 1.14748 1.24791
 C2557 C 0.88937 0.61094 0.76340
 C2558 C 0.89143 0.58504 0.75952
 C2559 C 0.90069 0.57584 0.73679
 C2560 C 0.87091 0.62884 0.80575
 C2561 C 0.90594 0.61848 0.72180
 C2562 C 0.89668 0.62762 0.74452
 C2563 C 0.87941 0.62049 0.78656
 C2564 C 0.90802 0.59248 0.71766
 H2565 H 0.88583 0.57196 0.77403
 H2566 H 0.90231 0.55574 0.73424
 H2567 H 0.91107 0.63176 0.70731
 H2568 H 0.89505 0.64770 0.74728
 C2569 C 0.38856 1.11261 0.76258
 C2570 C 0.39596 1.12916 0.74361
 C2571 C 0.40522 1.11985 0.72095
 C2572 C 0.37019 1.13076 0.80488
 C2573 C 0.39977 1.07732 0.73615
 C2574 C 0.39051 1.08668 0.75883
 C2575 C 0.37866 1.12233 0.78570
 C2576 C 0.40722 1.09382 0.71695
 H2577 H 0.39441 1.14926 0.74626
 H2578 H 0.41043 1.13303 0.70640
 H2579 H 0.40133 1.05720 0.73372
 H2580 H 0.38484 1.07370 0.77340
 C2581 C 0.38895 0.61189 1.26328
 C2582 C 0.39078 0.58595 1.25953
 C2583 C 0.39997 0.57655 1.23685
 C2584 C 0.37064 0.63014 1.30556
 C2585 C 0.40559 0.61906 1.22163
 C2586 C 0.39639 0.62840 1.24429
 C2587 C 0.37909 0.62166 1.28640
 C2588 C 0.40747 0.59301 1.21763
 H2589 H 0.38507 0.57300 1.27411
 H2590 H 0.40144 0.55642 1.23441
 H2591 H 0.41083 0.63221 1.20707
 H2592 H 0.39493 0.64851 1.24695
 C2593 C 1.11112 1.26354 0.88842
 C2594 C 1.12772 1.24465 0.89594
 C2595 C 1.11852 1.22199 0.90542
 C2596 C 1.12913 1.30578 0.86960
 C2597 C 1.07599 1.23708 0.89998
 C2598 C 1.08524 1.25974 0.89051
 C2599 C 1.12073 1.28664 0.87825
 C2600 C 1.09254 1.21793 0.90751
 H2601 H 1.14778 1.24735 0.89430
 H2602 H 1.13173 1.20749 0.91069
 H2603 H 1.05591 1.23460 0.90161
 H2604 H 1.07222 1.27426 0.88476
 C2605 C 1.11130 0.76357 0.38848
 C2606 C 1.08542 0.75975 0.39043
 C2607 C 1.07613 0.73706 0.39982
 C2608 C 1.12937 0.80586 0.36982
 C2609 C 1.11865 0.72199 0.40540
 C2610 C 1.12788 0.74466 0.39601
 C2611 C 1.12095 0.78669 0.37841
 C2612 C 1.09267 0.71790 0.40739
 H2613 H 1.07242 0.77427 0.38466
 H2614 H 1.05605 0.73456 0.40136
 H2615 H 1.13185 0.70748 0.41069
 H2616 H 1.14795 0.74737 0.39446
 C2617 C 0.61244 1.26356 0.38800
 C2618 C 0.62893 1.24460 0.39557
 C2619 C 0.61961 1.22204 0.40516
 C2620 C 0.63062 1.30565 0.36897
 C2621 C 0.57716 1.23735 0.39972
 C2622 C 0.58654 1.25992 0.39014
 C2623 C 0.62216 1.28657 0.37772
 C2624 C 0.59361 1.21813 0.40730
 H2625 H 0.64901 1.24717 0.39389
 H2626 H 0.63275 1.20747 0.41046
 H2627 H 0.55707 1.23500 0.40139
 H2628 H 0.57360 1.27450 0.38435
 C2629 C 0.61134 0.76341 0.88950
 C2630 C 0.58547 0.75962 0.89164
 C2631 C 0.57623 0.73690 0.90100
 C2632 C 0.62930 0.80573 0.87083
 C2633 C 0.61877 0.72175 0.90621
 C2634 C 0.62795 0.74445 0.89684
 C2635 C 0.62094 0.78655 0.87943
 C2636 C 0.59279 0.71769 0.90836
 H2637 H 0.57244 0.77418 0.88602
 H2638 H 0.55615 0.73443 0.90268
 H2639 H 0.63198 0.70720 0.91134
 H2640 H 0.64801 0.74714 0.89515
 C2641 C 0.88861 1.26356 1.11083
 C2642 C 0.91450 1.25981 1.10874
 C2643 C 0.92382 1.23714 1.09934
 C2644 C 0.87051 1.30577 1.12959
 C2645 C 0.88132 1.22195 1.09399
 C2646 C 0.87206 1.24461 1.10339
 C2647 C 0.87894 1.28664 1.12095
 C2648 C 0.90731 1.21794 1.09190
 H2649 H 0.92748 1.27437 1.11443
 H2650 H 0.94390 1.23470 1.09772
 H2651 H 0.86815 1.20740 1.08879
 H2652 H 0.85199 1.24727 1.10504
 C2653 C 0.88869 0.76362 0.61013
 C2654 C 0.87209 0.74470 0.60272
 C2655 C 0.88130 0.72200 0.59339
 C2656 C 0.87070 0.80589 0.62884
 C2657 C 0.92383 0.73709 0.59875
 C2658 C 0.91457 0.75981 0.60808
 C2659 C 0.87907 0.78674 0.62022
 C2660 C 0.90728 0.71792 0.59134
 H2661 H 0.85203 0.74742 0.60434
 H2662 H 0.86809 0.70747 0.58820
 H2663 H 0.94391 0.73459 0.59715
 H2664 H 0.92758 0.77434 0.61376
 C2665 C 0.38861 1.26431 0.61035
 C2666 C 0.37200 1.24543 0.60285
 C2667 C 0.38119 1.22279 0.59334
 C2668 C 0.37063 1.30646 0.62935
 C2669 C 0.42373 1.23787 0.59870
 C2670 C 0.41448 1.26051 0.60820
 C2671 C 0.37901 1.28736 0.62061
 C2672 C 0.40717 1.21872 0.59121
 H2673 H 0.35194 1.24813 0.60454
 H2674 H 0.36798 1.20829 0.58810
 H2675 H 0.44380 1.23538 0.59704
 H2676 H 0.42750 1.27502 0.61394
 C2677 C 0.38840 0.76326 1.11150
 C2678 C 0.39019 0.75951 1.08560
 C2679 C 0.39952 0.73685 1.07620
 C2680 C 0.36996 0.80552 1.12981
 C2681 C 0.40534 0.72165 1.11862
 C2682 C 0.39601 0.74429 1.12796
 C2683 C 0.37845 0.78636 1.12128
 C2684 C 0.40719 0.71766 1.09263
 H2685 H 0.38435 0.77409 1.07269
 H2686 H 0.40095 0.73442 1.05611
 H2687 H 0.41072 0.70710 1.13174
 H2688 H 0.39458 0.74694 1.14804
 C2689 C 0.88905 0.73621 0.88962
 C2690 C 0.87245 0.75515 0.89700
 C2691 C 0.88165 0.77786 0.90631
 C2692 C 0.87103 0.69391 0.87106
 C2693 C 0.92419 0.76275 0.90096
 C2694 C 0.91493 0.74003 0.89166
 C2695 C 0.87943 0.71307 0.87961
 C2696 C 0.90763 0.78193 0.90836
 H2697 H 0.85238 0.75244 0.89539
 H2698 H 0.86844 0.79240 0.91148
 H2699 H 0.94427 0.76525 0.90256
 H2700 H 0.92795 0.72547 0.88600
 C2701 C 0.88985 0.23595 0.39001
 C2702 C 0.91573 0.23982 0.39205
 C2703 C 0.92493 0.26260 0.40125
 C2704 C 0.87189 0.19355 0.37161
 C2705 C 0.88235 0.27765 0.40649
 C2706 C 0.87321 0.25488 0.39728
 C2707 C 0.88028 0.21275 0.38010
 C2708 C 0.90832 0.28178 0.40856
 H2709 H 0.92877 0.22527 0.38647
 H2710 H 0.94500 0.26515 0.40286
 H2711 H 0.86911 0.29218 0.41159
 H2712 H 0.85315 0.25212 0.39566
 C2713 C 0.38871 0.73641 0.38849
 C2714 C 0.39049 0.74020 0.41438
 C2715 C 0.39980 0.76288 0.42375
 C2716 C 0.37021 0.69415 0.37027
 C2717 C 0.40565 0.77800 0.38131
 C2718 C 0.39633 0.75535 0.37200
 C2719 C 0.37874 0.71330 0.37875
 C2720 C 0.40749 0.78204 0.40730
 H2721 H 0.38464 0.72566 0.42732
 H2722 H 0.40123 0.76535 0.44384
 H2723 H 0.41103 0.79252 0.36817
 H2724 H 0.39491 0.75266 0.35193
 C2725 C 0.38801 0.23658 0.88886
 C2726 C 0.41390 0.24020 0.89110
 C2727 C 0.42325 0.26279 0.90064
 C2728 C 0.36983 0.19450 0.86988
 C2729 C 0.38078 0.27815 0.90584
 C2730 C 0.37149 0.25558 0.89629
 C2731 C 0.37830 0.21357 0.87861
 C2732 C 0.40678 0.28204 0.90808
 H2733 H 0.42685 0.22561 0.88542
 H2734 H 0.44333 0.26513 0.90238
 H2735 H 0.36764 0.29274 0.91103
 H2736 H 0.35142 0.25301 0.89453
 C2737 C 1.11190 0.73673 1.11223
 C2738 C 1.12846 0.75564 1.10467
 C2739 C 1.11921 0.77823 1.09506
 C2740 C 1.12999 0.69456 1.13121
 C2741 C 1.07671 0.76307 1.10047
 C2742 C 1.08602 0.74047 1.11007
 C2743 C 1.12156 0.71368 1.12250
 C2744 C 1.09322 0.78224 1.09290
 H2745 H 1.14853 0.75299 1.10636
 H2746 H 1.13239 0.79275 1.08976
 H2747 H 1.05663 0.76549 1.09879
 H2748 H 1.07303 0.72594 1.11584
 C2749 C 1.11163 0.23647 0.61129
 C2750 C 1.12822 0.25540 0.60388
 C2751 C 1.11902 0.27809 0.59449
 C2752 C 1.12967 0.19413 0.62988
 C2753 C 1.07649 0.26299 0.59981
 C2754 C 1.08575 0.24028 0.60920
 C2755 C 1.12126 0.21332 0.62134
 C2756 C 1.09304 0.28217 0.59238
 H2757 H 1.14829 0.25269 0.60553
 H2758 H 1.13223 0.29262 0.58929
 H2759 H 1.05641 0.26548 0.59817
 H2760 H 1.07274 0.22574 0.61487
 C2761 C 0.61100 0.73668 0.61146
 C2762 C 0.62755 0.75568 0.60413
 C2763 C 0.61830 0.77838 0.59483
 C2764 C 0.62914 0.69430 0.62985
 C2765 C 0.57580 0.76317 0.60011
 C2766 C 0.58511 0.74045 0.60941
 C2767 C 0.62069 0.71350 0.62138
 C2768 C 0.59231 0.78240 0.59272
 H2769 H 0.64762 0.75300 0.60575
 H2770 H 0.63147 0.79295 0.58967
 H2771 H 0.55571 0.76563 0.59847
 H2772 H 0.57213 0.72586 0.61503
 C2773 C 0.61104 0.23622 1.11167
 C2774 C 0.60343 0.25509 1.12823
 C2775 C 0.59401 0.27775 1.11900
 C2776 C 0.62979 0.19397 1.12976
 C2777 C 0.59969 0.26273 1.07651
 C2778 C 0.60911 0.24005 1.08580
 C2779 C 0.62117 0.21312 1.12133
 C2780 C 0.59207 0.28186 1.09302
 H2781 H 0.60496 0.25236 1.14829
 H2782 H 0.58867 0.29224 1.13218
 H2783 H 0.59818 0.26525 1.05643
 H2784 H 0.61493 0.22555 1.07282
 C2785 C 1.26315 1.11151 0.88841
 C2786 C 1.25944 1.10943 0.91429
 C2787 C 1.23684 1.09996 0.92362
 C2788 C 1.30526 1.13035 0.87026
 C2789 C 1.22164 1.09454 0.88116
 C2790 C 1.24423 1.10401 0.87189
 C2791 C 1.28618 1.12168 0.87871
 C2792 C 1.21766 1.09244 0.90714
 H2793 H 1.27399 1.11517 0.92724
 H2794 H 1.23442 1.09832 0.94370
 H2795 H 1.20710 1.08928 0.86801
 H2796 H 1.24686 1.10566 0.85182
 C2797 C 1.26351 0.61124 0.38895
 C2798 C 1.25971 0.60916 0.41481
 C2799 C 1.23704 0.59976 0.42406
 C2800 C 1.30570 0.62995 0.37091
 C2801 C 1.22196 0.59442 0.38155
 C2802 C 1.24461 0.60382 0.37236
 C2803 C 1.28659 0.62133 0.37933
 C2804 C 1.21790 0.59232 0.40751
 H2805 H 1.27423 0.61484 0.42782
 H2806 H 1.23455 0.59812 0.44413
 H2807 H 1.20745 0.58922 0.36835
 H2808 H 1.24732 0.60547 0.35230
 C2809 C 0.76417 1.11011 0.38950
 C2810 C 0.74526 1.10286 0.37286
 C2811 C 0.72249 1.09368 0.38199
 C2812 C 0.80659 1.12845 0.37158
 C2813 C 0.73748 1.09892 0.42454
 C2814 C 0.76027 1.10810 0.41536
 C2815 C 0.78737 1.11999 0.37994
 C2816 C 0.71832 1.09164 0.40794
 H2817 H 0.74804 1.10446 0.35281
 H2818 H 0.70798 1.08860 0.36875
 H2819 H 0.73491 1.09733 0.44461
 H2820 H 0.77480 1.11366 0.42840
 C2821 C 0.76360 0.61011 0.88912
 C2822 C 0.75982 0.60805 0.91499
 C2823 C 0.73712 0.59876 0.92427
 C2824 C 0.80586 0.62865 0.87104
 C2825 C 0.72196 0.59348 0.88178
 C2826 C 0.74464 0.60277 0.87256
 C2827 C 0.78672 0.62010 0.87947
 C2828 C 0.71792 0.59139 0.90775
 H2829 H 0.77438 0.61368 0.92797
 H2830 H 0.73465 0.59713 0.94435
 H2831 H 0.70742 0.58834 0.86860
 H2832 H 0.74733 0.60441 0.85250
 C2833 C 1.26345 0.88888 1.11159
 C2834 C 1.25971 0.89109 1.08573
 C2835 C 1.23706 0.90056 1.07647
 C2836 C 1.30561 0.86995 1.12957
 C2837 C 1.22190 0.90574 1.11897
 C2838 C 1.24453 0.89627 1.12817
 C2839 C 1.28651 0.87867 1.12120
 C2840 C 1.21788 0.90795 1.09300
 H2841 H 1.27425 0.88543 1.07273
 H2842 H 1.23462 0.90228 1.05640
 H2843 H 1.20737 0.91091 1.13216
 H2844 H 1.24719 0.89453 1.14822
 C2845 C 1.26388 0.38942 0.61122
 C2846 C 1.26008 0.39148 0.58535
 C2847 C 1.23739 0.40084 0.57609
 C2848 C 1.30611 0.37068 0.62921
 C2849 C 1.22230 0.40620 0.61860
 C2850 C 1.24498 0.39684 0.62780
 C2851 C 1.28698 0.37932 0.62083
 C2852 C 1.21823 0.40827 0.59263
 H2853 H 1.27460 0.38580 0.57235
 H2854 H 1.23489 0.40246 0.55602
 H2855 H 1.20779 0.41139 0.63180
 H2856 H 1.24768 0.39520 0.64786
 C2857 C 0.76323 0.88981 0.61139
 C2858 C 0.75937 0.89188 0.58553
 C2859 C 0.73664 0.90116 0.57631
 C2860 C 0.80555 0.87120 0.62929
 C2861 C 0.72160 0.90643 0.61884
 C2862 C 0.74432 0.89714 0.62801
 C2863 C 0.78637 0.87979 0.62096
 C2864 C 0.71748 0.90851 0.59288
 H2865 H 0.77390 0.88626 0.57250
 H2866 H 0.73411 0.90279 0.55625
 H2867 H 0.70708 0.91156 0.63207
 H2868 H 0.74706 0.89549 0.64805
 C2869 C 0.76355 0.38854 1.11147
 C2870 C 0.75972 0.39066 1.08561
 C2871 C 0.73701 0.40002 1.07640
 C2872 C 0.80585 0.36988 1.12938
 C2873 C 0.72195 0.40525 1.11893
 C2874 C 0.74465 0.39589 1.12809
 C2875 C 0.78668 0.37847 1.12104
 C2876 C 0.71785 0.40738 1.09297
 H2877 H 0.77424 0.38504 1.07258
 H2878 H 0.73449 0.40168 1.05633
 H2879 H 0.70744 0.41039 1.13215
 H2880 H 0.74738 0.39421 1.14813
 C2881 C 0.73676 1.11157 1.11100
 C2882 C 0.75568 1.12808 1.10341
 C2883 C 0.77835 1.11874 1.09419
 C2884 C 0.69449 1.12985 1.12933
 C2885 C 0.76326 1.07623 1.10008
 C2886 C 0.74057 1.08563 1.10930
 C2887 C 0.71364 1.12134 1.12087
 C2888 C 0.78241 1.09270 1.09243
 H2889 H 0.75297 1.14820 1.10478
 H2890 H 0.79286 1.13190 1.08883
 H2891 H 0.76575 1.05610 1.09871
 H2892 H 0.72604 1.07268 1.11513
 C2893 C 0.73656 0.61096 0.61079
 C2894 C 0.74044 0.58504 0.60894
 C2895 C 0.76311 0.57576 0.59958
 C2896 C 0.69435 0.62902 0.62949
 C2897 C 0.77804 0.61834 0.59380
 C2898 C 0.75539 0.62757 0.60316
 C2899 C 0.71348 0.62061 0.62087
 C2900 C 0.78219 0.59232 0.59193
 H2901 H 0.72598 0.57202 0.61478
 H2902 H 0.76566 0.55564 0.59812
 H2903 H 0.79250 0.63156 0.58844
 H2904 H 0.75263 0.64767 0.60463
 C2905 C 0.23634 1.11181 0.61018
 C2906 C 0.24019 1.08589 0.60828
 C2907 C 0.26285 1.07660 0.59889
 C2908 C 0.19417 1.12990 0.62895
 C2909 C 0.27782 1.11918 0.59318
 C2910 C 0.25518 1.12842 0.60257
 C2911 C 0.21328 1.12147 0.62030
 C2912 C 0.28194 1.09316 0.59127
 H2913 H 0.22572 1.07287 0.61411
 H2914 H 0.26538 1.05649 0.59741
 H2915 H 0.29228 1.13240 0.58784
 H2916 H 0.25244 1.14851 0.60408
 C2917 C 0.23645 0.61188 1.11165
 C2918 C 0.24013 0.58594 1.10976
 C2919 C 0.26270 0.57650 1.10030
 C2920 C 0.19441 0.63024 1.13047
 C2921 C 0.27791 0.61898 1.09450
 C2922 C 0.25536 0.62836 1.10396
 C2923 C 0.21346 0.62170 1.12180
 C2924 C 0.28186 0.59293 1.09259
 H2925 H 0.22560 0.57302 1.11565
 H2926 H 0.26509 0.55637 1.09882
 H2927 H 0.29244 0.63210 1.08909
 H2928 H 0.25275 0.64848 1.10546
 C2929 C 0.73671 0.88907 0.88910
 C2930 C 0.74061 0.91499 0.89094
 C2931 C 0.76331 0.92424 0.90025
 C2932 C 0.69440 0.87105 0.87059
 C2933 C 0.77823 0.88163 0.90599
 C2934 C 0.75554 0.87244 0.89667
 C2935 C 0.71357 0.87945 0.87911
 C2936 C 0.78239 0.90764 0.90785
 H2937 H 0.72614 0.92803 0.88514
 H2938 H 0.76588 0.94435 0.90170
 H2939 H 0.79268 0.86839 0.91132
 H2940 H 0.75276 0.85234 0.89521
 C2941 C 0.73730 0.38797 0.38802
 C2942 C 0.74109 0.41390 0.38985
 C2943 C 0.76367 0.42326 0.39935
 C2944 C 0.69518 0.36978 0.36923
 C2945 C 0.77868 0.38072 0.40532
 C2946 C 0.75612 0.37142 0.39581
 C2947 C 0.71427 0.37825 0.37785
 C2948 C 0.78274 0.40675 0.40717
 H2949 H 0.72663 0.42689 0.38389
 H2950 H 0.76615 0.44338 0.40079
 H2951 H 0.79313 0.36754 0.41082
 H2952 H 0.75342 0.35132 0.39437
 C2953 C 0.23682 0.88917 0.38817
 C2954 C 0.25568 0.87255 0.39571
 C2955 C 0.27834 0.88176 0.40506
 C2956 C 0.19454 0.87111 0.36964
 C2957 C 0.26336 0.92436 0.39943
 C2958 C 0.24068 0.91509 0.39007
 C2959 C 0.21370 0.87953 0.37817
 C2960 C 0.28245 0.90778 0.40702
 H2961 H 0.25293 0.85246 0.39419
 H2962 H 0.29281 0.86853 0.41038
 H2963 H 0.26588 0.94447 0.40094
 H2964 H 0.22619 0.92812 0.38429
 C2965 C 0.23646 0.38901 0.88842
 C2966 C 0.25522 0.37237 0.89616
 C2967 C 0.27785 0.38155 0.90563
 C2968 C 0.19428 0.37101 0.86963
 C2969 C 0.26302 0.42417 0.89970
 C2970 C 0.24038 0.41492 0.89024
 C2971 C 0.21340 0.37940 0.87827
 C2972 C 0.28203 0.40756 0.90747
 H2973 H 0.25242 0.35227 0.89472
 H2974 H 0.29225 0.36830 0.91109
 H2975 H 0.26560 0.44427 0.90113
 H2976 H 0.22597 0.42797 0.88431
   
