data_POSCAR
  _audit_creation_date              2014-09-24
  _audit_creation_method            'ToBaCCo'
  _symmetry_space_group_name_H-M    'P1'
  _symmetry_Int_Tables_number       1
  _symmetry_cell_setting            triclinic
  loop_
  _symmetry_equiv_pos_as_xyz
 x,y,z
_cell_length_a 31.5010
_cell_length_b 31.5182
_cell_length_c 29.1784
_cell_angle_alpha 89.397400
_cell_angle_beta 90.599100
_cell_angle_gamma 90.224800
loop_
  _atom_site_label
  _atom_site_type_symbol
  _atom_site_fract_x
  _atom_site_fract_y
  _atom_site_fract_z
C1 C 0.38791 0.01540 0.29647
 C2 C 0.37054 0.05433 0.27242
 C3 C 0.34407 0.04585 0.23610
 C4 C 0.34097 -0.00205 0.22542
 C5 C 0.34893 -0.01222 0.30750
 C6 C 0.32511 -0.02303 0.27024
 C7 C 0.41179 -0.00840 0.25963
 C8 C 0.38768 -0.01754 0.22199
 H9 H 0.37405 0.08569 0.28715
 H10 H 0.32116 -0.00877 0.19471
 H11 H 0.34591 -0.02921 0.33993
 H12 H 0.44612 -0.01163 0.26016
 C13 C 0.10959 -0.01151 0.78753
 C14 C 0.12675 -0.05098 0.76616
 C15 C 0.15492 -0.04356 0.73174
 C16 C 0.15866 0.00427 0.71880
 C17 C 0.14874 0.01558 0.79995
 C18 C 0.17366 0.02579 0.76360
 C19 C 0.08817 0.01101 0.75076
 C20 C 0.11471 0.01973 0.71216
 H21 H 0.12208 -0.08198 0.78204
 H22 H 0.17977 0.00996 0.68919
 H23 H 0.15101 0.03280 0.83198
 H24 H 0.05386 0.01437 0.74930
 C25 C 0.61302 0.48878 0.29072
 C26 C 0.63003 0.44941 0.26926
 C27 C 0.65791 0.45665 0.23464
 C28 C 0.66172 0.50434 0.22141
 C29 C 0.65199 0.51624 0.30250
 C30 C 0.67659 0.52638 0.26586
 C31 C 0.59012 0.51218 0.25196
 C32 C 0.61518 0.52040 0.21509
 H33 H 0.62514 0.41839 0.28502
 H34 H 0.68229 0.51006 0.19135
 H35 H 0.65427 0.53378 0.33432
 H36 H 0.55590 0.51640 0.25111
 C37 C 0.88822 0.51551 0.79583
 C38 C 0.87060 0.55435 0.77189
 C39 C 0.84393 0.54577 0.73577
 C40 C 0.84103 0.49782 0.72506
 C41 C 0.84942 0.48773 0.80707
 C42 C 0.82555 0.47671 0.76997
 C43 C 0.91206 0.49183 0.75885
 C44 C 0.88781 0.48256 0.72136
 H45 H 0.87417 0.58574 0.78654
 H46 H 0.82106 0.49102 0.69448
 H47 H 0.84659 0.47079 0.83955
 H48 H 0.94641 0.48869 0.75924
 C49 C 0.28938 0.41971 1.00515
 C50 C 0.26906 0.39780 1.04608
 C51 C 0.23572 0.37153 1.03482
 C52 C 0.22617 0.36989 0.98311
 C53 C 0.30101 0.38347 0.97293
 C54 C 0.26877 0.35765 0.96088
 C55 C 0.25249 0.44301 0.98114
 C56 C 0.21857 0.41718 0.97069
 H57 H 0.28099 0.40156 1.08086
 H58 H 0.19942 0.34843 0.97411
 H59 H 0.33155 0.38127 0.95617
 H60 H 0.24937 0.47726 0.98273
 C61 C 0.78056 0.08168 0.98997
 C62 C 0.76021 0.10202 0.94765
 C63 C 0.72826 0.13016 0.95749
 C64 C 0.71825 0.13223 1.00912
 C65 C 0.79313 0.11948 1.01975
 C66 C 0.76112 0.14509 1.03120
 C67 C 0.74588 0.06047 1.01352
 C68 C 0.71050 0.08783 1.02314
 H69 H 0.77380 0.09905 0.91378
 H70 H 0.69197 0.15428 1.01696
 H71 H 0.82396 0.12244 1.03654
 H72 H 0.74295 0.02612 1.01410
 C73 C 0.28378 0.58339 0.48957
 C74 C 0.26324 0.60327 0.44714
 C75 C 0.23103 0.63116 0.45666
 C76 C 0.22103 0.63387 0.50811
 C77 C 0.29588 0.62133 0.51923
 C78 C 0.26368 0.64682 0.53035
 C79 C 0.24707 0.56104 0.51430
 C80 C 0.21339 0.58710 0.52306
 H81 H 0.27673 0.60002 0.41325
 H82 H 0.19439 0.65554 0.51579
 H83 H 0.32656 0.62443 0.53629
 H84 H 0.24435 0.52669 0.51571
 C85 C 0.78987 0.92003 0.50613
 C86 C 0.76933 0.89819 0.54698
 C87 C 0.73585 0.87212 0.53561
 C88 C 0.72642 0.87063 0.48382
 C89 C 0.80135 0.88375 0.47395
 C90 C 0.76903 0.85821 0.46166
 C91 C 0.75318 0.94359 0.48207
 C92 C 0.71912 0.91801 0.47151
 H93 H 0.78126 0.90181 0.58179
 H94 H 0.69959 0.84932 0.47468
 H95 H 0.83194 0.88130 0.45736
 H96 H 0.75026 0.97786 0.48375
 C97 C -0.00557 0.29294 0.40920
 C98 C 0.03061 0.29497 0.37422
 C99 C 0.03238 0.26090 0.34536
 C100 C -0.00120 0.22616 0.35677
 C101 C -0.04332 0.28553 0.38164
 C102 C -0.04187 0.24862 0.35296
 C103 C 0.00228 0.25209 0.43582
 C104 C 0.00519 0.21693 0.40941
 H105 H 0.05378 0.32054 0.37342
 H106 H 0.00082 0.19757 0.33499
 H107 H -0.06876 0.30862 0.37926
 H108 H 0.00592 0.25134 0.47283
 C109 C 0.00351 0.78641 0.08583
 C110 C -0.03644 0.78263 0.11475
 C111 C -0.03596 0.74974 0.14553
 C112 C 0.00321 0.72059 0.14112
 C113 C 0.03986 0.78599 0.12103
 C114 C 0.04053 0.75133 0.14959
 C115 C 0.00638 0.74477 0.06082
 C116 C 0.00595 0.71007 0.08891
 H117 H -0.06194 0.80571 0.11314
 H118 H 0.00289 0.69240 0.16425
 H119 H 0.06297 0.81153 0.12327
 H120 H 0.00578 0.74285 0.02368
 C121 C 0.50358 0.28657 0.58813
 C122 C 0.46348 0.28257 0.61675
 C123 C 0.46379 0.24946 0.64729
 C124 C 0.50313 0.22045 0.64298
 C125 C 0.53972 0.28606 0.62355
 C126 C 0.54041 0.25124 0.65185
 C127 C 0.50670 0.24509 0.56289
 C128 C 0.50614 0.21023 0.59071
 H129 H 0.43791 0.30557 0.61496
 H130 H 0.50277 0.19213 0.66592
 H131 H 0.56286 0.31157 0.62599
 H132 H 0.50618 0.24343 0.52574
 C133 C 0.49687 0.79194 0.91422
 C134 C 0.53379 0.79359 0.88013
 C135 C 0.53595 0.75928 0.85167
 C136 C 0.50224 0.72468 0.86270
 C137 C 0.45779 0.78437 0.88357
 C138 C 0.45985 0.74908 0.85644
 C139 C 0.50301 0.75330 0.93994
 C140 C 0.50632 0.71614 0.91269
 H141 H 0.55645 0.81958 0.87880
 H142 H 0.50467 0.69602 0.84108
 H143 H 0.43207 0.80712 0.88115
 H144 H 0.50636 0.75295 0.97698
 C145 C -0.23455 0.63858 0.95386
 C146 C -0.19574 0.62070 0.97765
 C147 C -0.20439 0.59405 1.01376
 C148 C -0.25234 0.59134 1.02458
 C149 C -0.26259 0.59998 0.94260
 C150 C -0.27363 0.57608 0.97965
 C151 C -0.25803 0.66244 0.99099
 C152 C -0.26730 0.63817 1.02849
 H153 H -0.16434 0.62419 0.96298
 H154 H -0.25917 0.57134 1.05511
 H155 H -0.27960 0.59730 0.91014
 H156 H -0.26093 0.69679 0.99073
 C157 C -0.26092 0.35914 0.46289
 C158 C -0.30033 0.37603 0.48475
 C159 C -0.29272 0.40407 0.51926
 C160 C -0.24480 0.40799 0.53171
 C161 C -0.23412 0.39845 0.45039
 C162 C -0.22377 0.42331 0.48674
 C163 C -0.23798 0.33771 0.49937
 C164 C -0.22911 0.36410 0.53805
 H165 H -0.33143 0.37137 0.46907
 H166 H -0.23897 0.42900 0.56136
 H167 H -0.21723 0.40100 0.41818
 H168 H -0.23460 0.30341 0.50072
 C169 C 0.23867 -0.13881 -0.03865
 C170 C 0.19910 -0.12143 -0.01774
 C171 C 0.20630 -0.09342 0.01684
 C172 C 0.25410 -0.09002 0.03041
 C173 C 0.26620 -0.09987 -0.05065
 C174 C 0.27625 -0.07510 -0.01410
 C175 C 0.26065 -0.16045 -0.00168
 C176 C 0.26921 -0.13408 0.03707
 H177 H 0.16818 -0.12613 -0.03383
 H178 H 0.25967 -0.06905 0.06016
 H179 H 0.28375 -0.09766 -0.08248
 H180 H 0.26392 -0.19476 -0.00037
 C181 C 0.26510 1.13803 0.45352
 C182 C 0.30410 1.12080 0.47760
 C183 C 0.29566 1.09423 0.51386
 C184 C 0.24773 1.09085 0.52439
 C185 C 0.23773 1.09894 0.44232
 C186 C 0.22692 1.07502 0.47948
 C187 C 0.24108 1.16167 0.49040
 C188 C 0.23199 1.13741 0.52794
 H189 H 0.33549 1.12446 0.46292
 H190 H 0.24106 1.07090 0.55501
 H191 H 0.22084 1.09589 0.40983
 H192 H 0.23769 1.19597 0.48998
 C193 C 0.16979 0.53987 0.24375
 C194 C 0.14774 0.51957 0.20287
 C195 C 0.12154 0.48618 0.21417
 C196 C 0.12001 0.47664 0.26588
 C197 C 0.13363 0.55142 0.27610
 C198 C 0.10781 0.51921 0.28818
 C199 C 0.19318 0.50293 0.26764
 C200 C 0.16735 0.46900 0.27814
 H201 H 0.15147 0.53147 0.16807
 H202 H 0.09853 0.44992 0.27493
 H203 H 0.13144 0.58192 0.29289
 H204 H 0.22744 0.49981 0.26592
 C205 C -0.16755 1.03080 0.26050
 C206 C -0.14734 1.01037 0.30284
 C207 C -0.11942 0.97823 0.29302
 C208 C -0.11736 0.96821 0.24140
 C209 C -0.12967 1.04311 0.23072
 C210 C -0.10427 1.01095 0.21925
 C211 C -0.18899 0.99622 0.23699
 C212 C -0.16181 0.96069 0.22737
 H213 H -0.15029 1.02394 0.33672
 H214 H -0.09543 0.94183 0.23359
 H215 H -0.12658 1.07388 0.21385
 H216 H -0.22337 0.99347 0.23641
 C217 C 0.33273 0.53269 -0.23969
 C218 C 0.35212 0.51153 -0.19736
 C219 C 0.38015 0.47949 -0.20711
 C220 C 0.38327 0.47015 -0.25861
 C221 C 0.37102 0.54509 -0.26873
 C222 C 0.39653 0.51300 -0.28001
 C223 C 0.31050 0.49641 -0.26523
 C224 C 0.33659 0.46279 -0.27414
 H225 H 0.34881 0.52478 -0.16338
 H226 H 0.40495 0.44358 -0.26645
 H227 H 0.37435 0.57592 -0.28537
 H228 H 0.27615 0.49371 -0.26684
 C229 C 0.67004 0.03971 -0.25520
 C230 C 0.64818 0.01944 -0.29617
 C231 C 0.62193 -0.01394 -0.28500
 C232 C 0.62024 -0.02354 -0.23327
 C233 C 0.63373 0.05126 -0.22305
 C234 C 0.60797 0.01902 -0.21098
 C235 C 0.69337 0.00283 -0.23121
 C236 C 0.66756 -0.03112 -0.22083
 H237 H 0.65194 0.03145 -0.33092
 H238 H 0.59877 -0.05029 -0.22432
 H239 H 0.63142 0.08178 -0.20632
 H240 H 0.72765 -0.00025 -0.23278
 C241 C 0.04094 0.24635 0.83632
 C242 C 0.04292 0.28305 0.87063
 C243 C 0.00857 0.28543 0.89901
 C244 C -0.02638 0.25216 0.88772
 C245 C 0.03291 0.20722 0.86670
 C246 C -0.00245 0.20950 0.89376
 C247 C 0.00242 0.25303 0.81055
 C248 C -0.03476 0.25658 0.83773
 H249 H 0.06906 0.30554 0.87199
 H250 H -0.05507 0.25479 0.90929
 H251 H 0.05547 0.18134 0.86907
 H252 H 0.00215 0.25648 0.77352
 C253 C 0.53683 0.25416 0.16336
 C254 C 0.53317 0.21439 0.13414
 C255 C 0.50016 0.21477 0.10347
 C256 C 0.47086 0.25386 0.10815
 C257 C 0.53618 0.29072 0.12842
 C258 C 0.50147 0.29144 0.09987
 C259 C 0.49513 0.25669 0.18844
 C260 C 0.46033 0.25626 0.16042
 H261 H 0.55619 0.18884 0.13584
 H262 H 0.44263 0.25357 0.08505
 H263 H 0.56159 0.31400 0.12637
 H264 H 0.49327 0.25598 0.22558
 C265 C 0.03667 0.75306 0.66306
 C266 C 0.03276 0.71304 0.63429
 C267 C -0.00029 0.71342 0.60365
 C268 C -0.02935 0.75270 0.60797
 C269 C 0.03621 0.78927 0.62772
 C270 C 0.00145 0.78997 0.59930
 C271 C -0.00495 0.75608 0.68817
 C272 C -0.03974 0.75562 0.66020
 H273 H 0.05581 0.68752 0.63600
 H274 H -0.05761 0.75237 0.58493
 H275 H 0.06175 0.81237 0.62536
 H276 H -0.00678 0.75559 0.72532
 C277 C 0.54370 0.74658 0.33845
 C278 C 0.54541 0.78347 0.37247
 C279 C 0.51127 0.78562 0.40112
 C280 C 0.47666 0.75208 0.39050
 C281 C 0.53599 0.70754 0.36884
 C282 C 0.50086 0.70969 0.39614
 C283 C 0.50288 0.75317 0.31157
 C284 C 0.46772 0.75670 0.33776
 H285 H 0.57126 0.80630 0.37346
 H286 H 0.44797 0.75446 0.41209
 H287 H 0.55863 0.68172 0.37103
 H288 H 0.50218 0.75574 0.27447
 B289 B -0.02672 0.02085 1.04230
 B290 B -0.05080 0.01484 0.99078
 B291 B -0.01211 0.05193 0.99670
 B292 B 0.02527 0.03179 1.03351
 B293 B 0.00903 -0.01794 1.04857
 B294 B -0.03833 -0.02765 1.02201
 B295 B 0.02079 -0.01782 0.95661
 B296 B 0.04520 -0.01168 1.00812
 B297 B 0.00596 -0.04813 1.00135
 B298 B -0.03109 -0.02820 0.96491
 B299 B -0.01477 0.02110 0.94988
 B300 B 0.03282 0.03091 0.97622
 B301 B 0.47566 0.52140 0.54420
 B302 B 0.45191 0.51555 0.49252
 B303 B 0.49092 0.55221 0.49880
 B304 B 0.52782 0.53176 0.53596
 B305 B 0.51092 0.48222 0.55092
 B306 B 0.46368 0.47298 0.52392
 B307 B 0.52343 0.48215 0.45906
 B308 B 0.54747 0.48804 0.51078
 B309 B 0.50789 0.45202 0.50369
 B310 B 0.47138 0.47229 0.46689
 B311 B 0.48832 0.52142 0.45199
 B312 B 0.53579 0.53079 0.47878
 B313 B 0.52551 0.96807 0.55151
 B314 B 0.54797 0.97624 0.49999
 B315 B 0.50762 0.94090 0.50494
 B316 B 0.47242 0.96038 0.54334
 B317 B 0.49149 1.00821 0.56059
 B318 B 0.53827 1.01768 0.53346
 B319 B 0.47700 1.01432 0.46836
 B320 B 0.45371 1.00646 0.52007
 B321 B 0.49429 1.04129 0.51491
 B322 B 0.52936 1.02189 0.47674
 B323 B 0.51033 0.97423 0.45971
 B324 B 0.46313 0.96493 0.48614
 B325 B 0.02511 0.46730 1.05082
 B326 B 0.04745 0.47533 0.99921
 B327 B 0.00694 0.44018 1.00423
 B328 B -0.02804 0.45987 1.04277
 B329 B -0.00870 0.50765 1.05997
 B330 B 0.03805 0.51684 1.03268
 B331 B -0.02334 0.51384 0.96782
 B332 B -0.04657 0.50602 1.01955
 B333 B -0.00581 0.54068 1.01427
 B334 B 0.02907 0.52109 0.97603
 B335 B 0.00973 0.47355 0.95904
 B336 B -0.03744 0.46450 0.98558
 B337 B 0.01751 0.52641 0.46032
 B338 B 0.04138 0.52195 0.51219
 B339 B 0.00063 0.55622 0.50542
 B340 B -0.03531 0.53440 0.46889
 B341 B -0.01675 0.48604 0.45453
 B342 B 0.03095 0.47859 0.48178
 B343 B -0.02904 0.48448 0.54697
 B344 B -0.05332 0.48985 0.49537
 B345 B -0.01277 0.45527 0.50199
 B346 B 0.02350 0.47706 0.53868
 B347 B 0.00476 0.52534 0.55307
 B348 B -0.04299 0.53272 0.52646
 B349 B 0.51802 0.02682 -0.03870
 B350 B 0.54199 0.02281 0.01316
 B351 B 0.50108 0.05687 0.00621
 B352 B 0.46520 0.03466 -0.03015
 B353 B 0.48394 -0.01377 -0.04416
 B354 B 0.53169 -0.02081 -0.01691
 B355 B 0.47169 -0.01474 0.04823
 B356 B 0.44737 -0.00980 -0.00336
 B357 B 0.48806 -0.04417 0.00355
 B358 B 0.52429 -0.02199 0.04002
 B359 B 0.50535 0.02630 0.05409
 B360 B 0.45755 0.03333 0.02743
 B361 B 0.48259 0.47878 -0.04526
 B362 B 0.45822 0.48828 0.00536
 B363 B 0.49660 0.45114 0.00248
 B364 B 0.53449 0.46877 -0.03433
 B365 B 0.51876 0.51725 -0.05364
 B366 B 0.47128 0.52885 -0.02926
 B367 B 0.53043 0.52269 0.03933
 B368 B 0.55459 0.51380 -0.01107
 B369 B 0.51609 0.55050 -0.00881
 B370 B 0.47861 0.53295 0.02832
 B371 B 0.49419 0.48435 0.04740
 B372 B 0.54162 0.47280 0.02310
 B373 B -0.01668 0.97724 0.45486
 B374 B -0.04081 0.98695 0.50559
 B375 B -0.00268 0.94960 0.50255
 B376 B 0.03522 0.96696 0.46565
 B377 B 0.01968 1.01545 0.44638
 B378 B -0.02765 1.02734 0.47089
 B379 B 0.03167 1.02093 0.53933
 B380 B 0.05561 1.01190 0.48886
 B381 B 0.01730 1.04881 0.49117
 B382 B -0.02012 1.03147 0.52847
 B383 B -0.00476 0.98280 0.54752
 B384 B 0.04253 0.97099 0.52307
 B385 B 0.77163 0.22346 0.20770
 B386 B 0.76569 0.19945 0.25925
 B387 B 0.80274 0.23818 0.25329
 B388 B 0.78248 0.27546 0.21646
 B389 B 0.73277 0.25914 0.20140
 B390 B 0.72310 0.21181 0.22802
 B391 B 0.73282 0.27090 0.29339
 B392 B 0.73895 0.29530 0.24186
 B393 B 0.70251 0.25606 0.24858
 B394 B 0.72254 0.21906 0.28508
 B395 B 0.77190 0.23545 0.30011
 B396 B 0.78156 0.28303 0.27376
 B397 B 0.71739 0.77545 0.69890
 B398 B 0.72561 0.79780 0.75046
 B399 B 0.69034 0.75738 0.74560
 B400 B 0.70987 0.72234 0.70702
 B401 B 0.75767 0.74156 0.68965
 B402 B 0.76705 0.78829 0.71686
 B403 B 0.76407 0.72697 0.78181
 B404 B 0.75608 0.70373 0.73011
 B405 B 0.79085 0.74440 0.73525
 B406 B 0.77143 0.77934 0.77351
 B407 B 0.72387 0.76013 0.79066
 B408 B 0.71464 0.71298 0.76419
 B409 B 0.27571 0.26722 0.78889
 B410 B 0.27159 0.29098 0.73693
 B411 B 0.30574 0.25019 0.74404
 B412 B 0.28360 0.21442 0.78052
 B413 B 0.23514 0.23314 0.79451
 B414 B 0.22803 0.28077 0.76710
 B415 B 0.23413 0.22066 0.70212
 B416 B 0.23913 0.19650 0.75379
 B417 B 0.20470 0.23709 0.74679
 B418 B 0.22681 0.27319 0.71020
 B419 B 0.27514 0.25429 0.69617
 B420 B 0.28226 0.20661 0.72296
 B421 B 0.22801 0.73316 0.29411
 B422 B 0.23740 0.70912 0.24326
 B423 B 0.19996 0.74714 0.24664
 B424 B 0.21746 0.78502 0.28347
 B425 B 0.26616 0.76962 0.30229
 B426 B 0.27805 0.72239 0.27760
 B427 B 0.27094 0.78182 0.20935
 B428 B 0.26218 0.80561 0.25996
 B429 B 0.29919 0.76746 0.25720
 B430 B 0.28174 0.73003 0.22000
 B431 B 0.23289 0.74526 0.20139
 B432 B 0.22108 0.79245 0.22603
 B433 B 0.27173 0.72480 0.70706
 B434 B 0.26565 0.70087 0.75862
 B435 B 0.30253 0.73974 0.75272
 B436 B 0.28226 0.77685 0.71566
 B437 B 0.23266 0.76021 0.70045
 B438 B 0.22319 0.71290 0.72716
 B439 B 0.23239 0.77227 0.79239
 B440 B 0.23850 0.79651 0.74081
 B441 B 0.20230 0.75705 0.74758
 B442 B 0.22238 0.72033 0.78424
 B443 B 0.27154 0.73703 0.79939
 B444 B 0.28115 0.78456 0.77289
 B445 B 0.21727 0.27517 0.19817
 B446 B 0.22504 0.29765 0.24974
 B447 B 0.18988 0.25716 0.24455
 B448 B 0.20978 0.22208 0.20630
 B449 B 0.25767 0.24135 0.18934
 B450 B 0.26676 0.28814 0.21653
 B451 B 0.26333 0.22691 0.28158
 B452 B 0.25583 0.20359 0.22985
 B453 B 0.29052 0.24431 0.23520
 B454 B 0.27069 0.27926 0.27326
 B455 B 0.22294 0.26003 0.29003
 B456 B 0.21402 0.21281 0.26355
 B457 B 0.77739 0.76847 0.28930
 B458 B 0.77314 0.79230 0.23738
 B459 B 0.80737 0.75156 0.24433
 B460 B 0.78543 0.71570 0.28084
 B461 B 0.73698 0.73426 0.29495
 B462 B 0.72965 0.78190 0.26761
 B463 B 0.73573 0.72181 0.20260
 B464 B 0.74096 0.69764 0.25424
 B465 B 0.70641 0.73815 0.24735
 B466 B 0.72831 0.77439 0.21072
 B467 B 0.77662 0.75562 0.19653
 B468 B 0.78392 0.70792 0.22328
 B469 B 0.72824 0.23307 0.79574
 B470 B 0.73772 0.20876 0.74506
 B471 B 0.70045 0.24698 0.74810
 B472 B 0.71804 0.28493 0.78481
 B473 B 0.76662 0.26935 0.80397
 B474 B 0.77830 0.22193 0.77957
 B475 B 0.77176 0.28104 0.71093
 B476 B 0.76296 0.30515 0.76135
 B477 B 0.79977 0.26678 0.75901
 B478 B 0.78224 0.22929 0.72193
 B479 B 0.73351 0.24469 0.70300
 B480 B 0.72188 0.29206 0.72734
 C481 C 0.47306 1.01071 0.37433
 C482 C 0.43165 0.98632 0.36526
 C483 C 0.41427 1.02474 0.33895
 C484 C 0.45574 1.04943 0.34752
 C485 C 0.39529 1.04284 0.38267
 C486 C 0.41212 1.00381 0.40896
 C487 C 0.45414 1.02765 0.41975
 C488 C 0.43736 1.06697 0.39282
 H489 H 0.50529 0.99775 0.36861
 H490 H 0.42966 0.95275 0.35420
 H491 H 0.47336 1.06805 0.32138
 H492 H 0.36308 1.05677 0.38415
 H493 H 0.39243 0.98367 0.43173
 H494 H 0.43987 1.10060 0.40336
 C495 C -0.06291 0.56697 0.89259
 C496 C -0.04421 0.54982 0.84726
 C497 C -0.08547 0.52493 0.83829
 C498 C -0.10478 0.54267 0.88202
 C499 C -0.06801 0.48647 0.86444
 C500 C -0.02679 0.51105 0.87389
 C501 C -0.04605 0.52757 0.91933
 C502 C -0.08787 0.50359 0.90814
 H503 H -0.06072 0.60056 0.90334
 H504 H -0.02656 0.56870 0.82135
 H505 H -0.13707 0.55642 0.88332
 H506 H -0.06972 0.45295 0.85316
 H507 H 0.00554 0.49832 0.86827
 H508 H -0.10765 0.48329 0.93067
 C509 C 0.06202 -0.06592 0.88220
 C510 C 0.04268 -0.04794 0.83672
 C511 C 0.08299 -0.02127 0.82910
 C512 C 0.10295 -0.03987 0.87306
 C513 C 0.06444 0.01575 0.85528
 C514 C 0.02400 -0.01053 0.86340
 C515 C 0.04383 -0.02805 0.90881
 C516 C 0.08481 -0.00225 0.89921
 H517 H 0.06109 -0.09977 0.89288
 H518 H 0.02570 -0.06645 0.81002
 H519 H 0.13579 -0.05234 0.87526
 H520 H 0.06521 0.04959 0.84431
 H521 H -0.00880 0.00128 0.85757
 H522 H 0.10399 0.01769 0.92260
 C523 C 0.56515 0.43406 0.38483
 C524 C 0.54613 0.45225 0.33931
 C525 C 0.58651 0.47890 0.33217
 C526 C 0.60619 0.46010 0.37611
 C527 C 0.56784 0.51584 0.35829
 C528 C 0.52731 0.48958 0.36598
 C529 C 0.54682 0.47186 0.41148
 C530 C 0.58792 0.49765 0.40228
 H531 H 0.56407 0.40016 0.39533
 H532 H 0.52934 0.43388 0.31237
 H533 H 0.63901 0.44760 0.37818
 H534 H 0.56875 0.54971 0.34745
 H535 H 0.49456 0.50142 0.35989
 H536 H 0.60703 0.51751 0.42581
 C537 C 0.53462 0.51892 0.13402
 C538 C 0.57411 0.49195 0.14498
 C539 C 0.59435 0.52962 0.16963
 C540 C 0.55480 0.55685 0.15922
 C541 C 0.61504 0.54513 0.12539
 C542 C 0.59501 0.50703 0.10050
 C543 C 0.55493 0.53379 0.08815
 C544 C 0.57496 0.57213 0.11353
 H545 H 0.50140 0.50836 0.13965
 H546 H 0.57372 0.45861 0.15768
 H547 H 0.53843 0.57743 0.18405
 H548 H 0.64843 0.55560 0.12313
 H549 H 0.61302 0.48494 0.07887
 H550 H 0.57499 0.60574 0.10181
 C551 C 0.09629 1.00434 0.60065
 C552 C 0.11624 1.04169 0.62681
 C553 C 0.09502 1.02675 0.66832
 C554 C 0.07563 0.99029 0.64560
 C555 C 0.05772 1.05382 0.65970
 C556 C 0.07720 1.06967 0.61402
 C557 C 0.05644 1.03176 0.58810
 C558 C 0.03607 1.01694 0.63420
 H559 H 0.11452 0.98194 0.57957
 H560 H 0.14999 1.05138 0.62627
 H561 H 0.07573 0.95746 0.65991
 H562 H 0.04302 1.07402 0.68610
 H563 H 0.07827 1.10360 0.60352
 H564 H 0.00288 1.00674 0.64071
 C565 C -0.07116 0.43351 0.62084
 C566 C -0.05059 0.44848 0.66659
 C567 C -0.09063 0.47452 0.67675
 C568 C -0.11163 0.45928 0.63250
 C569 C -0.07180 0.51315 0.65210
 C570 C -0.03181 0.48738 0.64133
 C571 C -0.05260 0.47282 0.59553
 C572 C -0.09306 0.49836 0.60758
 H573 H -0.07068 0.40020 0.60897
 H574 H -0.03331 0.42793 0.69158
 H575 H -0.14462 0.44741 0.63144
 H576 H -0.07202 0.54625 0.66480
 H577 H 0.00125 0.49879 0.64668
 H578 H -0.11190 0.52053 0.58606
 C579 C 0.42981 -0.06602 0.12172
 C580 C 0.44991 -0.05083 0.16761
 C581 C 0.40946 -0.02532 0.17748
 C582 C 0.38892 -0.04077 0.13306
 C583 C 0.42798 0.01357 0.15300
 C584 C 0.46837 -0.01168 0.14252
 C585 C 0.44805 -0.02648 0.09661
 C586 C 0.40720 -0.00145 0.10832
 H587 H 0.43081 -0.09930 0.10981
 H588 H 0.46728 -0.07119 0.19271
 H589 H 0.35612 -0.05313 0.13148
 H590 H 0.42725 0.04665 0.16572
 H591 H 0.50125 0.00016 0.14805
 H592 H 0.38829 0.02055 0.08666
 C593 C 0.36881 0.50152 0.00053
 C594 C 0.35263 0.46287 -0.02628
 C595 C 0.32946 0.44600 0.01601
 C596 C 0.34477 0.48506 0.04336
 C597 C 0.36929 0.42155 0.03180
 C598 C 0.39194 0.43721 -0.01142
 C599 C 0.40882 0.47593 0.01465
 C600 C 0.38553 0.46052 0.05835
 H601 H 0.36840 0.53490 -0.01195
 H602 H 0.33654 0.46580 -0.06002
 H603 H 0.32491 0.50463 0.06606
 H604 H 0.36898 0.38852 0.04519
 H605 H 0.40970 0.41493 -0.03281
 H606 H 0.39835 0.46054 0.09389
 C607 C -0.11352 0.96015 0.55897
 C608 C -0.15407 0.98504 0.54400
 C609 C -0.16985 0.94602 0.51690
 C610 C -0.13020 0.92123 0.53266
 C611 C -0.14662 0.96251 0.47444
 C612 C -0.13000 1.00108 0.50102
 C613 C -0.09023 0.97513 0.51512
 C614 C -0.10754 0.93649 0.48928
 H615 H -0.10055 0.96019 0.59445
 H616 H -0.17367 1.00490 0.56669
 H617 H -0.13074 0.88826 0.54624
 H618 H -0.16269 0.96542 0.44068
 H619 H -0.13009 1.03442 0.48836
 H620 H -0.09006 0.91402 0.46785
 C621 C -0.11510 0.06754 1.00610
 C622 C -0.14026 0.07913 0.96245
 C623 C -0.17909 0.05562 0.98219
 C624 C -0.15337 0.04317 1.02538
 C625 C -0.16509 0.01443 0.95870
 C626 C -0.12548 0.03801 0.93942
 C627 C -0.09990 0.02678 0.98334
 C628 C -0.13872 0.00230 1.00220
 H629 H -0.09574 0.09078 1.02538
 H630 H -0.14092 0.11092 0.94573
 H631 H -0.16592 0.04535 1.06056
 H632 H -0.18612 -0.00733 0.93915
 H633 H -0.11386 0.03542 0.90379
 H634 H -0.13820 -0.02972 1.01833
 C635 C 0.38788 0.56896 0.50681
 C636 C 0.36322 0.58048 0.46280
 C637 C 0.32409 0.55735 0.48220
 C638 C 0.34926 0.54496 0.52579
 C639 C 0.33799 0.51590 0.45921
 C640 C 0.37794 0.53909 0.44023
 C641 C 0.40301 0.52795 0.48451
 C642 C 0.36384 0.50385 0.50308
 H643 H 0.40718 0.59215 0.52621
 H644 H 0.36284 0.61216 0.44584
 H645 H 0.33635 0.54745 0.56078
 H646 H 0.31699 0.49420 0.43955
 H647 H 0.38989 0.53617 0.40476
 H648 H 0.36396 0.47192 0.51944
 C649 C 0.11461 0.54654 0.56462
 C650 C 0.15453 0.52538 0.54429
 C651 C 0.16902 0.56889 0.52555
 C652 C 0.12994 0.59029 0.54599
 C653 C 0.14474 0.56109 0.48053
 C654 C 0.12972 0.51754 0.49908
 C655 C 0.09005 0.53885 0.51926
 C656 C 0.10534 0.58239 0.50079
 H657 H 0.10224 0.54030 0.59953
 H658 H 0.17502 0.50194 0.56245
 H659 H 0.13026 0.62030 0.56554
 H660 H 0.15796 0.56805 0.44621
 H661 H 0.13065 0.48725 0.48018
 H662 H 0.08610 0.60655 0.48244
 C663 C 0.61584 0.04906 0.06472
 C664 C 0.65603 0.02899 0.04399
 C665 C 0.66810 0.07050 0.02438
 C666 C 0.63149 0.09192 0.04441
 C667 C 0.64562 0.06235 -0.01894
 C668 C 0.63067 0.01888 -0.00026
 C669 C 0.59063 0.04007 0.01980
 C670 C 0.60567 0.08351 0.00018
 H671 H 0.60491 0.04377 0.10037
 H672 H 0.67840 0.00742 0.06231
 H673 H 0.63350 0.12238 0.06311
 H674 H 0.65979 0.06904 -0.05289
 H675 H 0.63287 -0.01174 -0.01837
 H676 H 0.58686 0.10786 -0.01842
 C677 C 0.61583 0.95517 0.44133
 C678 C 0.65694 0.97835 0.45669
 C679 C 0.67494 0.93584 0.47414
 C680 C 0.63462 0.91244 0.45861
 C681 C 0.65580 0.94328 0.52162
 C682 C 0.63712 0.98578 0.50425
 C683 C 0.59632 0.96215 0.48913
 C684 C 0.61521 0.91974 0.50630
 H685 H 0.59976 0.96090 0.40782
 H686 H 0.67442 1.00234 0.43606
 H687 H 0.63415 0.88252 0.43896
 H688 H 0.67319 0.93849 0.55440
 H689 H 0.63912 1.01662 0.52206
 H690 H 0.59898 0.89524 0.52728
 C691 C 0.11456 0.41866 1.00553
 C692 C 0.13397 0.41124 0.95785
 C693 C 0.17429 0.43473 0.97329
 C694 C 0.15516 0.44227 1.02076
 C695 C 0.15624 0.47718 0.95572
 C696 C 0.11514 0.45392 0.94045
 C697 C 0.09568 0.46103 0.98823
 C698 C 0.13647 0.48471 1.00326
 H699 H 0.09823 0.39421 1.02650
 H700 H 0.13344 0.38122 0.93837
 H701 H 0.17255 0.43758 1.05356
 H702 H 0.17370 0.50112 0.93500
 H703 H 0.09906 0.45958 0.90693
 H704 H 0.13848 0.51561 1.02094
 C705 C -0.02437 0.36038 0.50730
 C706 C -0.04975 0.34903 0.46301
 C707 C -0.00909 0.33195 0.44074
 C708 C 0.01621 0.34184 0.48497
 C709 C 0.00117 0.37596 0.42131
 C710 C -0.03936 0.39316 0.44295
 C711 C -0.01405 0.40483 0.48709
 C712 C 0.02661 0.38601 0.46511
 H713 H -0.03502 0.35362 0.54277
 H714 H -0.08150 0.33367 0.46214
 H715 H 0.03959 0.32064 0.50222
 H716 H 0.01143 0.38392 0.38595
 H717 H -0.06183 0.41232 0.42240
 H718 H 0.05947 0.39888 0.46530
 C719 C 0.47681 -0.13893 0.01062
 C720 C 0.45181 -0.15128 -0.03362
 C721 C 0.49275 -0.16853 -0.05510
 C722 C 0.51769 -0.15759 -0.01095
 C723 C 0.50281 -0.12480 -0.07547
 C724 C 0.46202 -0.10741 -0.05452
 C725 C 0.48698 -0.09480 -0.01049
 C726 C 0.52791 -0.11375 -0.03172
 H727 H 0.46597 -0.14511 0.04613
 H728 H 0.42015 -0.16686 -0.03445
 H729 H 0.54109 -0.17831 0.00697
 H730 H 0.51325 -0.11744 -0.11090
 H731 H 0.43945 -0.08868 -0.07544
 H732 H 0.56068 -0.10066 -0.03160
 C733 C 0.02228 -0.14103 0.99134
 C734 C 0.04546 -0.15354 1.03672
 C735 C 0.00470 -0.17441 1.05471
 C736 C -0.01849 -0.16350 1.00944
 C737 C -0.00947 -0.13257 1.07554
 C738 C 0.03129 -0.11167 1.05831
 C739 C 0.00829 -0.09879 1.01315
 C740 C -0.03266 -0.12136 1.03057
 H741 H 0.03545 -0.14486 0.95654
 H742 H 0.07731 -0.16832 1.03891
 H743 H -0.03922 -0.18537 0.98966
 H744 H -0.02243 -0.12772 1.11034
 H745 H 0.05072 -0.09247 1.08198
 H746 H -0.06598 -0.11010 1.02841
 C747 C 0.53215 0.38824 0.56090
 C748 C 0.49110 0.36774 0.57791
 C749 C 0.50496 0.32579 0.55712
 C750 C 0.54599 0.34625 0.53933
 C751 C 0.48208 0.33692 0.51174
 C752 C 0.46823 0.37921 0.53281
 C753 C 0.50949 0.40135 0.51562
 C754 C 0.52314 0.35899 0.49385
 H755 H 0.55166 0.40726 0.58467
 H756 H 0.47799 0.37258 0.61264
 H757 H 0.57764 0.33105 0.54167
 H758 H 0.46120 0.31526 0.49187
 H759 H 0.43504 0.39083 0.53047
 H760 H 0.53641 0.35508 0.45911
 C761 C 0.47849 1.10355 0.57901
 C762 C 0.52119 1.12584 0.58920
 C763 C 0.50280 1.16699 0.56953
 C764 C 0.46022 1.14534 0.55922
 C765 C 0.51854 1.15588 0.52123
 C766 C 0.53684 1.11420 0.54093
 C767 C 0.49406 1.09127 0.53043
 C768 C 0.47589 1.13320 0.51075
 H769 H 0.46202 1.08315 0.60436
 H770 H 0.53991 1.12271 0.62150
 H771 H 0.42961 1.16020 0.56811
 H772 H 0.53583 1.17730 0.49738
 H773 H 0.56924 1.10275 0.53313
 H774 H 0.45785 1.13786 0.47828
 C775 C -0.02287 0.60366 1.07726
 C776 C 0.01977 0.62545 1.08894
 C777 C 0.00267 0.66668 1.06810
 C778 C -0.03985 0.64554 1.05628
 C779 C 0.01993 0.65489 1.02064
 C780 C 0.03693 0.61312 1.04151
 C781 C -0.00582 0.59071 1.02954
 C782 C -0.02267 0.63271 1.00866
 H783 H -0.04039 0.58366 1.10213
 H784 H 0.03733 0.62235 1.12198
 H785 H -0.07058 0.66098 1.06344
 H786 H 0.03829 0.67593 0.99736
 H787 H 0.06945 0.60119 1.03520
 H788 H -0.03959 0.63714 0.97548
 C789 C 0.47750 0.62572 -0.03227
 C790 C 0.50022 0.66652 -0.01736
 C791 C 0.51161 0.67511 -0.06560
 C792 C 0.48962 0.63714 -0.08193
 C793 C 0.55253 0.65326 -0.06032
 C794 C 0.54198 0.64155 -0.00973
 C795 C 0.51953 0.60032 -0.02556
 C796 C 0.53112 0.61178 -0.07625
 H797 H 0.44509 0.61688 -0.02088
 H798 H 0.48629 0.68936 0.00689
 H799 H 0.46789 0.63653 -0.11215
 H800 H 0.58301 0.66632 -0.07319
 H801 H 0.56355 0.64607 0.02010
 H802 H 0.54447 0.59111 -0.10300
 C803 C 0.04364 1.13961 0.48891
 C804 C 0.05430 1.15017 0.43801
 C805 C 0.01211 1.17412 0.43228
 C806 C 0.00162 1.16463 0.48305
 C807 C -0.01079 1.13365 0.41753
 C808 C 0.03132 1.10915 0.42308
 C809 C 0.02061 1.09858 0.47402
 C810 C -0.02136 1.12390 0.46809
 H811 H 0.06565 1.14344 0.51847
 H812 H 0.08546 1.16117 0.42494
 H813 H -0.01140 1.18686 0.50852
 H814 H -0.03323 1.13080 0.38811
 H815 H 0.04414 1.08756 0.39686
 H816 H -0.05324 1.11461 0.48074
 C817 C 0.76132 0.72358 0.87577
 C818 C 0.73656 0.68248 0.88524
 C819 C 0.77496 0.66489 0.91141
 C820 C 0.80004 0.70602 0.90242
 C821 C 0.79265 0.64551 0.86768
 C822 C 0.75363 0.66254 0.84155
 C823 C 0.77778 0.70425 0.83033
 C824 C 0.81713 0.68725 0.85709
 H825 H 0.74872 0.75594 0.88139
 H826 H 0.70302 0.68092 0.89652
 H827 H 0.81899 0.72360 0.92832
 H828 H 0.80627 0.61317 0.86638
 H829 H 0.73327 0.64281 0.81904
 H830 H 0.85074 0.68930 0.84633
 C831 C 0.25981 0.22310 0.37558
 C832 C 0.23567 0.18159 0.38479
 C833 C 0.27426 0.16447 0.41105
 C834 C 0.29871 0.20604 0.40234
 C835 C 0.29239 0.14554 0.36731
 C836 C 0.25319 0.16211 0.34107
 C837 C 0.27679 0.20421 0.33018
 C838 C 0.31627 0.18771 0.35704
 H839 H 0.24667 0.25524 0.38122
 H840 H 0.20211 0.17943 0.39593
 H841 H 0.31729 0.22381 0.42840
 H842 H 0.30653 0.11344 0.36585
 H843 H 0.23311 0.14232 0.31836
 H844 H 0.34989 0.19038 0.34644
 C845 C 0.74004 0.27383 0.38665
 C846 C 0.76630 0.31423 0.39497
 C847 C 0.72922 0.33266 0.42122
 C848 C 0.70258 0.29237 0.41341
 C849 C 0.71063 0.35274 0.37732
 C850 C 0.74831 0.33473 0.35110
 C851 C 0.72254 0.29380 0.34130
 C852 C 0.68461 0.31184 0.36798
 H853 H 0.75188 0.24104 0.39237
 H854 H 0.80016 0.31498 0.40593
 H855 H 0.68405 0.27528 0.44001
 H856 H 0.69810 0.38554 0.37527
 H857 H 0.76832 0.35397 0.32783
 H858 H 0.65075 0.31092 0.35725
 C859 C 0.23958 0.77566 0.88556
 C860 C 0.26595 0.81605 0.89358
 C861 C 0.22896 0.83467 0.91975
 C862 C 0.20219 0.79443 0.91223
 C863 C 0.21033 0.85460 0.87581
 C864 C 0.24791 0.83639 0.84964
 C865 C 0.22204 0.79543 0.84012
 C866 C 0.18419 0.81371 0.86674
 H867 H 0.25132 0.74287 0.89149
 H868 H 0.29981 0.81680 0.90453
 H869 H 0.18368 0.77753 0.93899
 H870 H 0.19793 0.88745 0.87368
 H871 H 0.26783 0.85557 0.82622
 H872 H 0.15031 0.81281 0.85611
 C873 C 0.31931 0.82769 0.13475
 C874 C 0.30318 0.80859 0.08901
 C875 C 0.27621 0.84604 0.08081
 C876 C 0.29141 0.86691 0.12242
 C877 C 0.23975 0.82663 0.10355
 C878 C 0.26630 0.78691 0.11452
 C879 C 0.28142 0.80689 0.16069
 C880 C 0.25408 0.84690 0.14862
 H881 H 0.35331 0.82853 0.14508
 H882 H 0.32324 0.79399 0.06242
 H883 H 0.30129 0.90060 0.12319
 H884 H 0.20685 0.82698 0.08939
 H885 H 0.25593 0.75382 0.10783
 H886 H 0.23179 0.86499 0.16998
 C887 C 0.76771 0.28535 0.61599
 C888 C 0.74124 0.32501 0.60454
 C889 C 0.77782 0.34423 0.58184
 C890 C 0.80473 0.30682 0.59048
 C891 C 0.79284 0.36537 0.62336
 C892 C 0.75535 0.34560 0.64949
 C893 C 0.78260 0.30566 0.66208
 C894 C 0.82064 0.32623 0.63618
 H895 H 0.75733 0.25222 0.60954
 H896 H 0.70841 0.32525 0.59021
 H897 H 0.82489 0.29202 0.56410
 H898 H 0.80282 0.39901 0.62385
 H899 H 0.73293 0.36388 0.67048
 H900 H 0.85458 0.32715 0.64673
 C901 C 0.24791 0.15656 0.64171
 C902 C 0.20874 0.13807 0.61685
 C903 C 0.22403 0.15896 0.57254
 C904 C 0.26275 0.17769 0.59714
 C905 C 0.19811 0.19907 0.58264
 C906 C 0.18309 0.17862 0.62842
 C907 C 0.22248 0.19708 0.65366
 C908 C 0.23710 0.21776 0.60784
 H909 H 0.26999 0.13770 0.66334
 H910 H 0.19680 0.10513 0.61817
 H911 H 0.29586 0.17734 0.58442
 H912 H 0.17759 0.21637 0.55763
 H913 H 0.14976 0.17923 0.64029
 H914 H 0.24863 0.25075 0.60245
 C915 C 0.74970 0.65772 0.14218
 C916 C 0.71050 0.63879 0.11779
 C917 C 0.72516 0.65970 0.07324
 C918 C 0.76395 0.67886 0.09737
 C919 C 0.69897 0.69960 0.08352
 C920 C 0.68456 0.67912 0.12952
 C921 C 0.72399 0.69804 0.15426
 C922 C 0.73802 0.71872 0.10824
 H923 H 0.77208 0.63909 0.16368
 H924 H 0.69912 0.60568 0.11945
 H925 H 0.79693 0.67877 0.08429
 H926 H 0.67806 0.71664 0.05868
 H927 H 0.65134 0.67946 0.14173
 H928 H 0.74920 0.75182 0.10270
 C929 C 0.25131 0.61977 0.24802
 C930 C 0.21287 0.60334 0.27505
 C931 C 0.19594 0.58007 0.23285
 C932 C 0.23479 0.59563 0.20528
 C933 C 0.17117 0.61975 0.21719
 C934 C 0.18689 0.64248 0.26033
 C935 C 0.22541 0.65960 0.23402
 C936 C 0.20992 0.63622 0.19042
 H937 H 0.28478 0.61956 0.26030
 H938 H 0.21601 0.58729 0.30878
 H939 H 0.25441 0.57592 0.18247
 H940 H 0.13806 0.61927 0.20398
 H941 H 0.16464 0.66008 0.28193
 H942 H 0.20970 0.64901 0.15487
 C943 C 0.75151 0.11950 0.74990
 C944 C 0.71285 0.10306 0.77653
 C945 C 0.69625 0.07987 0.73411
 C946 C 0.73534 0.09544 0.70696
 C947 C 0.67161 0.11957 0.71829
 C948 C 0.68699 0.14222 0.76163
 C949 C 0.72571 0.15934 0.73574
 C950 C 0.71061 0.13605 0.69194
 H951 H 0.78487 0.11928 0.76252
 H952 H 0.71574 0.08699 0.81028
 H953 H 0.75513 0.07574 0.68430
 H954 H 0.63862 0.11914 0.70473
 H955 H 0.66456 0.15981 0.78302
 H956 H 0.71069 0.14896 0.65644
 C957 C 0.78913 0.12504 0.31080
 C958 C 0.76548 0.08539 0.29173
 C959 C 0.80665 0.07131 0.26822
 C960 C 0.83024 0.11017 0.28775
 C961 C 0.79415 0.09688 0.22494
 C962 C 0.75329 0.11159 0.24815
 C963 C 0.77781 0.15045 0.26681
 C964 C 0.81857 0.13520 0.24403
 H965 H 0.78661 0.13680 0.34638
 H966 H 0.74375 0.06444 0.31141
 H967 H 0.86212 0.10968 0.30434
 H968 H 0.79629 0.08420 0.18983
 H969 H 0.72122 0.11205 0.23210
 H970 H 0.84181 0.15459 0.22473
 C971 C 0.28852 0.62648 0.81045
 C972 C 0.26524 0.58683 0.79088
 C973 C 0.30679 0.57295 0.76802
 C974 C 0.33000 0.61177 0.78803
 C975 C 0.29479 0.59856 0.72462
 C976 C 0.25359 0.61311 0.74719
 C977 C 0.27778 0.65196 0.76635
 C978 C 0.31887 0.63685 0.74418
 H979 H 0.28547 0.63815 0.84601
 H980 H 0.24331 0.56576 0.81016
 H981 H 0.36160 0.61112 0.80520
 H982 H 0.29746 0.58600 0.68950
 H983 H 0.22175 0.61354 0.73060
 H984 H 0.34228 0.65622 0.72515
 C985 C 0.33195 0.35496 0.74832
 C986 C 0.33993 0.37943 0.70307
 C987 C 0.31837 0.41849 0.72329
 C988 C 0.31047 0.39433 0.76837
 C989 C 0.27492 0.40389 0.70445
 C990 C 0.29625 0.36398 0.68433
 C991 C 0.28848 0.33955 0.72975
 C992 C 0.26700 0.37920 0.74971
 H993 H 0.35611 0.33583 0.76679
 H994 H 0.37002 0.37976 0.68361
 H995 H 0.31727 0.40764 0.80267
 H996 H 0.25149 0.42428 0.68614
 H997 H 0.29015 0.35148 0.64945
 H998 H 0.23665 0.38009 0.76853
 C999 C 0.79922 0.86618 0.18575
 C1000 C 0.77918 0.90634 0.20652
 C1001 C 0.82071 0.91838 0.22611
 C1002 C 0.84212 0.88178 0.20604
 C1003 C 0.81258 0.89588 0.26943
 C1004 C 0.76907 0.88097 0.25076
 C1005 C 0.79026 0.84095 0.23065
 C1006 C 0.83373 0.85597 0.25027
 H1007 H 0.79391 0.85527 0.15009
 H1008 H 0.75760 0.92874 0.18825
 H1009 H 0.87258 0.88377 0.18731
 H1010 H 0.81927 0.91001 0.30339
 H1011 H 0.73843 0.88316 0.26888
 H1012 H 0.85808 0.83714 0.26885
 C1013 C 0.70445 0.86551 0.80928
 C1014 C 0.72767 0.90659 0.79392
 C1015 C 0.68515 0.92463 0.77650
 C1016 C 0.66170 0.88434 0.79203
 C1017 C 0.69254 0.90551 0.72901
 C1018 C 0.73506 0.88682 0.74635
 C1019 C 0.71141 0.84605 0.76147
 C1020 C 0.66897 0.86493 0.74433
 H1021 H 0.71021 0.84945 0.84278
 H1022 H 0.75170 0.92403 0.81455
 H1023 H 0.63172 0.88382 0.81164
 H1024 H 0.68774 0.92289 0.69624
 H1025 H 0.76593 0.88883 0.72857
 H1026 H 0.64443 0.84862 0.72345
 C1027 C 0.23491 0.38665 0.24595
 C1028 C 0.19272 0.40566 0.22805
 C1029 C 0.18483 0.42468 0.27550
 C1030 C 0.22702 0.40632 0.29348
 C1031 C 0.16095 0.38445 0.29051
 C1032 C 0.16872 0.36516 0.24285
 C1033 C 0.21082 0.34596 0.26056
 C1034 C 0.20336 0.36532 0.30832
 H1035 H 0.26599 0.38849 0.22859
 H1036 H 0.18847 0.42320 0.19528
 H1037 H 0.25090 0.42355 0.31452
 H1038 H 0.13074 0.38397 0.30968
 H1039 H 0.14434 0.34909 0.22155
 H1040 H 0.20854 0.34909 0.34184
 C1041 C 0.14148 0.21111 0.80493
 C1042 C 0.12424 0.25191 0.82592
 C1043 C 0.08043 0.24199 0.80563
 C1044 C 0.09752 0.20102 0.78411
 C1045 C 0.09136 0.26688 0.76146
 C1046 C 0.13526 0.27698 0.78217
 C1047 C 0.15409 0.23604 0.76088
 C1048 C 0.10988 0.22599 0.73985
 H1049 H 0.16021 0.18849 0.82579
 H1050 H 0.13171 0.26231 0.86134
 H1051 H 0.08186 0.16942 0.78498
 H1052 H 0.07068 0.29034 0.74358
 H1053 H 0.14837 0.30973 0.78203
 H1054 H 0.10364 0.21517 0.70434
 C1055 C 0.64395 0.71202 0.30606
 C1056 C 0.62668 0.75280 0.32706
 C1057 C 0.58278 0.74244 0.30737
 C1058 C 0.59989 0.70151 0.28583
 C1059 C 0.59297 0.76722 0.26294
 C1060 C 0.63701 0.77776 0.28303
 C1061 C 0.65592 0.73686 0.26173
 C1062 C 0.61158 0.72638 0.24129
 H1063 H 0.66298 0.68960 0.32685
 H1064 H 0.63440 0.76341 0.36235
 H1065 H 0.58445 0.66981 0.28707
 H1066 H 0.57186 0.79042 0.24527
 H1067 H 0.64987 0.81061 0.28253
 H1068 H 0.60504 0.71537 0.20592
 C1069 C 0.60944 0.27237 0.25813
 C1070 C 0.59706 0.29582 0.21286
 C1071 C 0.57615 0.25522 0.19451
 C1072 C 0.58696 0.23176 0.23967
 C1073 C 0.61809 0.24114 0.17373
 C1074 C 0.63903 0.28175 0.19134
 C1075 C 0.65177 0.25847 0.23641
 C1076 C 0.62920 0.21769 0.21859
 H1077 H 0.60551 0.28533 0.29301
 H1078 H 0.58235 0.32770 0.21082
 H1079 H 0.56503 0.21094 0.25925
 H1080 H 0.62301 0.22839 0.13886
 H1081 H 0.65834 0.30128 0.16788
 H1082 H 0.64046 0.18438 0.22054
 C1083 C 0.10923 0.77250 0.75737
 C1084 C 0.09651 0.79539 0.71191
 C1085 C 0.07593 0.75442 0.69410
 C1086 C 0.08707 0.73151 0.73946
 C1087 C 0.11790 0.74052 0.67329
 C1088 C 0.13851 0.78150 0.69033
 C1089 C 0.15159 0.75880 0.73559
 C1090 C 0.12935 0.71762 0.71837
 H1091 H 0.10532 0.78576 0.79212
 H1092 H 0.08141 0.82708 0.70960
 H1093 H 0.06537 0.71067 0.75934
 H1094 H 0.12275 0.72743 0.63856
 H1095 H 0.15760 0.80101 0.66662
 H1096 H 0.14092 0.68442 0.72068
 C1097 C 0.86346 0.78691 0.70793
 C1098 C 0.90522 0.76971 0.72866
 C1099 C 0.91687 0.75251 0.68113
 C1100 C 0.87564 0.76981 0.66043
 C1101 C 0.89556 0.71008 0.69290
 C1102 C 0.88289 0.72721 0.74059
 C1103 C 0.84089 0.74425 0.71985
 C1104 C 0.85369 0.72725 0.67206
 H1105 H 0.85165 0.81944 0.71434
 H1106 H 0.92639 0.78794 0.75195
 H1107 H 0.87254 0.78744 0.62743
 H1108 H 0.91090 0.67934 0.68560
 H1109 H 0.88733 0.71023 0.77374
 H1110 H 0.83356 0.70988 0.64719
 C1111 C 0.38270 0.22665 0.24026
 C1112 C 0.39532 0.21040 0.19217
 C1113 C 0.41683 0.25295 0.18133
 C1114 C 0.40522 0.26928 0.22926
 C1115 C 0.37564 0.27079 0.16104
 C1116 C 0.35350 0.22812 0.17175
 C1117 C 0.34074 0.24426 0.21995
 C1118 C 0.36350 0.28703 0.20894
 H1119 H 0.38720 0.20906 0.27302
 H1120 H 0.41046 0.17976 0.18405
 H1121 H 0.42642 0.28698 0.25298
 H1122 H 0.37257 0.28904 0.12843
 H1123 H 0.33336 0.21122 0.14651
 H1124 H 0.35178 0.31945 0.21609
 C1125 C 0.38978 0.79460 0.25863
 C1126 C 0.40057 0.80514 0.30950
 C1127 C 0.42495 0.76321 0.31481
 C1128 C 0.41525 0.75282 0.26408
 C1129 C 0.38478 0.73986 0.32978
 C1130 C 0.35987 0.78172 0.32466
 C1131 C 0.34906 0.77112 0.27376
 C1132 C 0.37481 0.72940 0.27925
 H1133 H 0.39327 0.81673 0.22913
 H1134 H 0.41143 0.83630 0.32267
 H1135 H 0.43748 0.74018 0.23836
 H1136 H 0.38237 0.71729 0.35912
 H1137 H 0.33838 0.79417 0.35117
 H1138 H 0.36568 0.69752 0.26652
 C1139 C 0.86104 0.28196 0.82634
 C1140 C 0.88618 0.24036 0.83224
 C1141 C 0.92431 0.26209 0.81592
 C1142 C 0.90268 0.30308 0.81042
 C1143 C 0.91577 0.25059 0.76771
 C1144 C 0.87483 0.22814 0.78261
 C1145 C 0.84961 0.27025 0.77568
 C1146 C 0.89101 0.29242 0.75984
 H1147 H 0.84040 0.29554 0.85299
 H1148 H 0.88538 0.21874 0.86253
 H1149 H 0.91589 0.33352 0.82320
 H1150 H 0.93859 0.23646 0.74356
 H1151 H 0.86592 0.19573 0.77132
 H1152 H 0.89569 0.31385 0.72992
 C1153 C 0.53186 0.96614 0.64611
 C1154 C 0.55975 0.93230 0.67058
 C1155 C 0.59448 0.96644 0.67846
 C1156 C 0.56648 0.99958 0.65465
 C1157 C 0.61473 0.95473 0.63278
 C1158 C 0.57949 0.92140 0.62315
 C1159 C 0.55205 0.95610 0.59904
 C1160 C 0.58794 0.98891 0.60961
 H1161 H 0.49760 0.97074 0.65300
 H1162 H 0.54854 0.90885 0.69642
 H1163 H 0.56040 1.03235 0.66660
 H1164 H 0.64923 0.95098 0.62766
 H1165 H 0.58492 0.88882 0.61051
 H1166 H 0.60347 1.01405 0.58894
 C1167 C 0.03158 0.46568 1.14538
 C1168 C 0.05950 0.43201 1.17007
 C1169 C 0.09419 0.46623 1.17773
 C1170 C 0.06615 0.49920 1.15371
 C1171 C 0.11447 0.45428 1.13215
 C1172 C 0.07925 0.42087 1.12270
 C1173 C 0.05176 0.45542 1.09836
 C1174 C 0.08765 0.48831 1.10876
 H1175 H -0.00268 0.47027 1.15228
 H1176 H 0.04832 0.40868 1.19605
 H1177 H 0.06003 0.53203 1.16543
 H1178 H 0.14897 0.45057 1.12703
 H1179 H 0.08472 0.38823 1.11026
 H1180 H 0.10324 0.51336 1.08802
 C1181 C -0.08101 -0.00831 1.10754
 C1182 C -0.05447 -0.01613 1.15133
 C1183 C -0.08122 0.01666 1.17532
 C1184 C -0.10765 0.02492 1.13168
 C1185 C -0.05062 0.05271 1.16155
 C1186 C -0.02337 0.01959 1.13683
 C1187 C -0.04944 0.02723 1.09186
 C1188 C -0.07647 0.06047 1.11666
 H1189 H -0.09631 -0.03422 1.08785
 H1190 H -0.04523 -0.04768 1.16532
 H1191 H -0.14284 0.02627 1.13140
 H1192 H -0.03803 0.07747 1.18486
 H1193 H 0.01175 0.01804 1.14011
 H1194 H -0.08584 0.09237 1.10388
 C1195 C 0.42062 0.49335 0.60892
 C1196 C 0.44673 0.48556 0.65298
 C1197 C 0.42007 0.51874 0.67646
 C1198 C 0.39409 0.52699 0.63253
 C1199 C 0.45111 0.55443 0.66283
 C1200 C 0.47828 0.52090 0.63861
 C1201 C 0.45266 0.52848 0.59335
 C1202 C 0.42573 0.56215 0.61761
 H1203 H 0.40525 0.46745 0.58930
 H1204 H 0.45563 0.45401 0.66725
 H1205 H 0.35892 0.52868 0.63188
 H1206 H 0.46369 0.57920 0.68612
 H1207 H 0.51335 0.51903 0.64224
 H1208 H 0.41679 0.59407 0.60454
 C1209 C 0.43772 0.42614 -0.11646
 C1210 C 0.39665 0.45199 -0.12508
 C1211 C 0.41293 0.46748 -0.17144
 C1212 C 0.45375 0.44098 -0.16439
 C1213 C 0.43496 0.50565 -0.14913
 C1214 C 0.41735 0.49102 -0.10305
 C1215 C 0.45845 0.46542 -0.09339
 C1216 C 0.47541 0.47959 -0.14106
 H1217 H 0.43893 0.39286 -0.10377
 H1218 H 0.36431 0.43863 -0.12099
 H1219 H 0.46852 0.42037 -0.19033
 H1220 H 0.43448 0.53893 -0.16205
 H1221 H 0.40031 0.51409 -0.08185
 H1222 H 0.50799 0.49090 -0.14884
 C1223 C -0.06211 0.92477 0.38387
 C1224 C -0.10296 0.95093 0.37515
 C1225 C -0.08659 0.96610 0.32866
 C1226 C -0.04599 0.93929 0.33585
 C1227 C -0.06425 1.00417 0.35084
 C1228 C -0.08192 0.98987 0.39702
 C1229 C -0.04103 0.96397 0.40676
 C1230 C -0.02400 0.97782 0.35901
 H1231 H -0.06121 0.89153 0.39669
 H1232 H -0.13541 0.93791 0.37946
 H1233 H -0.03138 0.91844 0.31003
 H1234 H -0.06447 1.03741 0.33777
 H1235 H -0.09876 1.01310 0.41821
 H1236 H 0.00867 0.98884 0.35117
 C1237 C 0.07470 0.49774 0.39744
 C1238 C 0.05156 0.49178 0.35139
 C1239 C 0.08117 0.52476 0.33032
 C1240 C 0.10404 0.53121 0.37638
 C1241 C 0.05008 0.56080 0.34197
 C1242 C 0.02005 0.52740 0.36392
 C1243 C 0.04264 0.53333 0.41107
 C1244 C 0.07249 0.56675 0.38919
 H1245 H 0.08783 0.47036 0.41701
 H1246 H 0.04269 0.46072 0.33640
 H1247 H 0.13907 0.53172 0.38065
 H1248 H 0.03989 0.58662 0.31821
 H1249 H -0.01480 0.52632 0.35792
 H1250 H 0.08148 0.59816 0.40307
 C1251 C 0.52039 0.02653 -0.13498
 C1252 C 0.54966 0.06019 -0.15762
 C1253 C 0.58141 0.02460 -0.16878
 C1254 C 0.55256 -0.00865 -0.14700
 C1255 C 0.60432 0.03219 -0.12293
 C1256 C 0.57211 0.06728 -0.11061
 C1257 C 0.54302 0.03360 -0.08802
 C1258 C 0.57573 -0.00154 -0.10115
 H1259 H 0.48556 0.02468 -0.14085
 H1260 H 0.53887 0.08545 -0.18178
 H1261 H 0.54425 -0.04010 -0.16139
 H1262 H 0.63935 0.03353 -0.11878
 H1263 H 0.58052 0.09907 -0.09734
 H1264 H 0.58943 -0.02833 -0.08108
 C1265 C 0.62270 0.56441 0.01029
 C1266 C 0.66201 0.53708 0.02147
 C1267 C 0.68346 0.55503 -0.02125
 C1268 C 0.64417 0.58218 -0.03273
 C1269 C 0.66540 0.51870 -0.05060
 C1270 C 0.64318 0.50048 -0.00740
 C1271 C 0.60362 0.52786 -0.01810
 C1272 C 0.62530 0.54567 -0.06147
 H1273 H 0.60647 0.58599 0.03364
 H1274 H 0.67756 0.53238 0.05533
 H1275 H 0.64461 0.61620 -0.04300
 H1276 H 0.68354 0.49990 -0.07562
 H1277 H 0.64276 0.46645 0.00279
 H1278 H 0.61031 0.54922 -0.09586
 C1279 C 0.14428 0.99874 0.49265
 C1280 C 0.16643 1.01702 0.44941
 C1281 C 0.18427 1.05351 0.47869
 C1282 C 0.16289 1.03549 0.52146
 C1283 C 0.14483 1.08040 0.46716
 C1284 C 0.12620 1.04376 0.43846
 C1285 C 0.10460 1.02589 0.48184
 C1286 C 0.12346 1.06258 0.51019
 H1287 H 0.14402 0.96472 0.50290
 H1288 H 0.18470 0.99829 0.42443
 H1289 H 0.17826 1.03112 0.55548
 H1290 H 0.14517 1.11441 0.45687
 H1291 H 0.11120 1.04719 0.40406
 H1292 H 0.10716 1.08399 0.53364
 C1293 C 0.11489 -0.04270 1.06325
 C1294 C 0.12848 -0.08297 1.03787
 C1295 C 0.17080 -0.06210 1.02480
 C1296 C 0.15799 -0.02162 1.05075
 C1297 C 0.15039 -0.04357 0.98067
 C1298 C 0.10863 -0.06586 0.99313
 C1299 C 0.09424 -0.02585 1.01815
 C1300 C 0.13668 -0.00355 1.00626
 H1301 H 0.10087 -0.04143 1.09793
 H1302 H 0.12600 -0.11559 1.05209
 H1303 H 0.17858 -0.00344 1.07466
 H1304 H 0.16586 -0.04306 0.94672
 H1305 H 0.09018 -0.08592 0.96925
 H1306 H 0.14034 0.02958 0.99362
 C1307 C 0.63904 0.49487 0.50919
 C1308 C 0.66009 0.47635 0.55359
 C1309 C 0.67221 0.43573 0.52748
 C1310 C 0.65210 0.45471 0.48345
 C1311 C 0.62963 0.41549 0.54055
 C1312 C 0.61668 0.45591 0.56606
 C1313 C 0.59627 0.47320 0.52104
 C1314 C 0.61004 0.43301 0.49588
 H1315 H 0.64325 0.52798 0.49671
 H1316 H 0.68101 0.49411 0.57753
 H1317 H 0.66776 0.45505 0.44963
 H1318 H 0.62678 0.38289 0.55472
 H1319 H 0.60271 0.45733 0.60076
 H1320 H 0.59134 0.41322 0.47198
 C1321 C -0.12582 0.46014 0.44466
 C1322 C -0.14199 0.42065 0.47121
 C1323 C -0.18144 0.44553 0.48601
 C1324 C -0.16599 0.48472 0.45903
 C1325 C -0.15832 0.46054 0.52919
 C1326 C -0.11878 0.43543 0.51476
 C1327 C -0.10224 0.47473 0.48845
 C1328 C -0.14205 0.49994 0.50252
 H1329 H -0.11338 0.46095 0.40924
 H1330 H -0.14198 0.38766 0.45826
 H1331 H -0.18595 0.50498 0.43622
 H1332 H -0.17309 0.46208 0.56328
 H1333 H -0.10008 0.41318 0.53633
 H1334 H -0.14247 0.53323 0.51449
 C1335 C 0.38126 -0.06405 0.01591
 C1336 C 0.34168 -0.03855 0.02956
 C1337 C 0.31901 -0.05358 -0.01391
 C1338 C 0.35847 -0.07890 -0.02789
 C1339 C 0.33520 -0.01468 -0.04088
 C1340 C 0.35866 0.00057 0.00289
 C1341 C 0.39846 -0.02504 -0.01039
 C1342 C 0.37534 -0.03970 -0.05443
 H1343 H 0.39953 -0.08631 0.03790
 H1344 H 0.32661 -0.03678 0.06351
 H1345 H 0.35841 -0.11198 -0.04061
 H1346 H 0.31575 0.00564 -0.06414
 H1347 H 0.35834 0.03393 0.01469
 H1348 H 0.38834 -0.03930 -0.08962
 C1349 C 0.38487 1.04496 0.57135
 C1350 C 0.37303 1.08365 0.54109
 C1351 C 0.33033 1.06338 0.52808
 C1352 C 0.34110 1.02453 0.55903
 C1353 C 0.35075 1.04098 0.48739
 C1354 C 0.39296 1.06261 0.49955
 C1355 C 0.40556 1.02390 0.52927
 C1356 C 0.36246 1.00251 0.51772
 H1357 H 0.39817 1.04606 0.60665
 H1358 H 0.37595 1.11732 0.55089
 H1359 H 0.31935 1.00896 0.58376
 H1360 H 0.33542 1.03831 0.45321
 H1361 H 0.41211 1.08135 0.47546
 H1362 H 0.35782 0.96883 0.50809
 C1363 C -0.11564 0.54380 1.07116
 C1364 C -0.12725 0.58297 1.04154
 C1365 C -0.16990 0.56293 1.02784
 C1366 C -0.15934 0.52360 1.05815
 C1367 C -0.14919 0.54114 0.98690
 C1368 C -0.10706 0.56259 0.99974
 C1369 C -0.09468 0.52343 1.02884
 C1370 C -0.13771 0.50223 1.01660
 H1371 H -0.10256 0.54427 1.10658
 H1372 H -0.12435 0.61640 1.05226
 H1373 H -0.18125 0.50765 1.08244
 H1374 H -0.16433 0.53896 0.95258
 H1375 H -0.08771 0.58158 0.97600
 H1376 H -0.14231 0.46870 1.00636
 C1377 C 0.02524 0.61693 0.56542
 C1378 C 0.03767 0.66077 0.54663
 C1379 C -0.00288 0.67906 0.56797
 C1380 C -0.01542 0.63511 0.58586
 C1381 C -0.02727 0.67122 0.52274
 C1382 C 0.01329 0.65143 0.50131
 C1383 C 0.00103 0.60689 0.52011
 C1384 C -0.03978 0.62672 0.54090
 H1385 H 0.04724 0.59677 0.58580
 H1386 H 0.06994 0.67494 0.54880
 H1387 H -0.02755 0.62762 0.62064
 H1388 H -0.04918 0.69389 0.50541
 H1389 H 0.02528 0.65857 0.46643
 H1390 H -0.07281 0.61439 0.53904
 C1391 C 0.52585 0.11809 0.06565
 C1392 C 0.53800 0.16188 0.04650
 C1393 C 0.49749 0.18016 0.06798
 C1394 C 0.48523 0.13624 0.08624
 C1395 C 0.47288 0.17193 0.02296
 C1396 C 0.51340 0.15216 0.00139
 C1397 C 0.50142 0.10767 0.02058
 C1398 C 0.46066 0.12748 0.04151
 H1399 H 0.54807 0.09813 0.08597
 H1400 H 0.57025 0.17613 0.04836
 H1401 H 0.47333 0.12890 0.12115
 H1402 H 0.45079 0.19439 0.00559
 H1403 H 0.52517 0.15915 -0.03361
 H1404 H 0.42767 0.11501 0.03997
 C1405 C -0.03022 0.14782 0.99610
 C1406 C 0.01096 0.16762 0.97554
 C1407 C -0.01168 0.17453 0.92896
 C1408 C -0.05307 0.15627 0.94903
 C1409 C 0.00145 0.12992 0.91400
 C1410 C 0.02448 0.12327 0.96007
 C1411 C -0.01650 0.10287 0.98030
 C1412 C -0.03967 0.11168 0.93369
 H1413 H -0.04339 0.15569 1.03008
 H1414 H 0.03194 0.19092 0.99298
 H1415 H -0.08521 0.17007 0.94450
 H1416 H 0.01403 0.12010 0.88034
 H1417 H 0.05789 0.11252 0.96347
 H1418 H -0.06057 0.09042 0.91358
 C1419 C 0.52799 0.62337 0.46238
 C1420 C 0.50505 0.63014 0.41628
 C1421 C 0.49196 0.67473 0.43130
 C1422 C 0.51456 0.66775 0.47789
 C1423 C 0.45053 0.65657 0.45128
 C1424 C 0.46385 0.61201 0.43585
 C1425 C 0.48693 0.60310 0.48248
 C1426 C 0.47330 0.64803 0.49835
 H1427 H 0.56134 0.61243 0.46584
 H1428 H 0.51764 0.62034 0.38261
 H1429 H 0.53557 0.69100 0.49535
 H1430 H 0.41844 0.67049 0.44671
 H1431 H 0.44303 0.59086 0.41553
 H1432 H 0.46012 0.65588 0.53234
 C1433 C 0.46920 0.86894 0.46692
 C1434 C 0.49168 0.86338 0.42073
 C1435 C 0.50842 0.82022 0.43672
 C1436 C 0.48582 0.82502 0.48310
 C1437 C 0.54851 0.84118 0.45712
 C1438 C 0.53190 0.88431 0.44026
 C1439 C 0.50951 0.89119 0.48689
 C1440 C 0.52595 0.84736 0.50362
 H1441 H 0.43575 0.87920 0.47063
 H1442 H 0.47737 0.87061 0.38660
 H1443 H 0.46655 0.80021 0.50050
 H1444 H 0.58145 0.82940 0.45368
 H1445 H 0.55065 0.90646 0.41898
 H1446 H 0.54018 0.84030 0.53780
 C1447 C 0.02430 0.34631 1.00215
 C1448 C -0.01616 0.32455 0.98159
 C1449 C 0.00617 0.31979 0.93505
 C1450 C 0.04660 0.34018 0.95549
 C1451 C -0.01007 0.36328 0.91951
 C1452 C -0.03231 0.36877 0.96585
 C1453 C 0.00833 0.39046 0.98586
 C1454 C 0.03046 0.38361 0.93907
 H1455 H 0.03861 0.33884 1.03619
 H1456 H -0.03568 0.29988 0.99888
 H1457 H 0.07944 0.32817 0.95185
 H1458 H -0.02442 0.37097 0.88551
 H1459 H -0.06565 0.37934 0.96975
 H1460 H 0.04950 0.40566 0.91796
 C1461 C 0.47333 0.35765 0.00190
 C1462 C 0.51452 0.33495 0.01896
 C1463 C 0.49477 0.32803 0.06653
 C1464 C 0.45348 0.34926 0.04999
 C1465 C 0.51226 0.37111 0.08229
 C1466 C 0.53220 0.37800 0.03504
 C1467 C 0.49122 0.40098 0.01843
 C1468 C 0.47113 0.39232 0.06607
 H1469 H 0.45721 0.35156 -0.03137
 H1470 H 0.53248 0.31095 -0.00045
 H1471 H 0.42122 0.33647 0.05642
 H1472 H 0.52798 0.37900 0.11538
 H1473 H 0.56566 0.38785 0.02957
 H1474 H 0.45366 0.41419 0.08836
 C1475 C -0.02634 0.85631 0.50142
 C1476 C 0.01472 0.83347 0.51861
 C1477 C -0.00527 0.82650 0.56603
 C1478 C -0.04644 0.84785 0.54936
 C1479 C 0.01225 0.86949 0.58203
 C1480 C 0.03244 0.87640 0.53494
 C1481 C -0.00840 0.89953 0.51821
 C1482 C -0.02875 0.89082 0.56568
 H1483 H -0.04233 0.85038 0.46804
 H1484 H 0.03269 0.80946 0.49924
 H1485 H -0.07879 0.83517 0.55555
 H1486 H 0.02782 0.87728 0.61523
 H1487 H 0.06597 0.88613 0.52971
 H1488 H -0.04623 0.91269 0.58795
 C1489 C 0.23799 0.33775 0.14032
 C1490 C 0.24921 0.31636 0.09540
 C1491 C 0.21600 0.34406 0.07127
 C1492 C 0.20375 0.36424 0.11681
 C1493 C 0.18207 0.30909 0.07885
 C1494 C 0.21596 0.28151 0.10364
 C1495 C 0.20537 0.30161 0.15060
 C1496 C 0.17061 0.32875 0.12616
 H1497 H 0.26282 0.35349 0.16123
 H1498 H 0.28214 0.31054 0.08377
 H1499 H 0.19965 0.39867 0.12188
 H1500 H 0.15891 0.29768 0.05280
 H1501 H 0.22089 0.24730 0.09680
 H1502 H 0.13787 0.33389 0.13849
 C1503 C 0.71556 0.78199 0.60428
 C1504 C 0.68179 0.80991 0.57974
 C1505 C 0.71598 0.84463 0.57201
 C1506 C 0.74905 0.81659 0.59589
 C1507 C 0.70412 0.86480 0.61768
 C1508 C 0.67075 0.82957 0.62718
 C1509 C 0.70540 0.80209 0.65137
 C1510 C 0.73825 0.83800 0.64092
 H1511 H 0.72018 0.74776 0.59733
 H1512 H 0.65838 0.79873 0.55382
 H1513 H 0.78187 0.81051 0.58407
 H1514 H 0.70034 0.89927 0.62286
 H1515 H 0.63812 0.83498 0.63974
 H1516 H 0.76337 0.85354 0.66161
 C1517 C 0.31219 0.67485 0.63346
 C1518 C 0.27674 0.64371 0.61805
 C1519 C 0.26908 0.67002 0.57421
 C1520 C 0.30504 0.70057 0.58838
 C1521 C 0.23603 0.69691 0.59764
 C1522 C 0.24324 0.67049 0.64161
 C1523 C 0.27867 0.70201 0.65767
 C1524 C 0.27165 0.72796 0.61254
 H1525 H 0.34394 0.66545 0.64669
 H1526 H 0.27799 0.60854 0.61851
 H1527 H 0.33013 0.71302 0.56539
 H1528 H 0.20465 0.70621 0.58318
 H1529 H 0.21703 0.65533 0.66095
 H1530 H 0.27019 0.76305 0.60917
 C1531 C 0.77009 0.22643 0.11310
 C1532 C 0.80317 0.19911 0.08836
 C1533 C 0.76708 0.16842 0.07492
 C1534 C 0.73434 0.19523 0.09892
 C1535 C 0.77555 0.14222 0.11867
 C1536 C 0.81113 0.17350 0.13338
 C1537 C 0.77793 0.20059 0.15818
 C1538 C 0.74236 0.16891 0.14280
 H1539 H 0.76849 0.26151 0.10965
 H1540 H 0.82784 0.21161 0.06488
 H1541 H 0.70271 0.20438 0.08503
 H1542 H 0.77693 0.10706 0.11912
 H1543 H 0.84310 0.16422 0.14608
 H1544 H 0.71650 0.15364 0.16260
 C1545 C 0.72889 0.22574 0.89169
 C1546 C 0.69012 0.20406 0.91477
 C1547 C 0.71657 0.16323 0.92194
 C1548 C 0.75490 0.18527 0.89986
 C1549 C 0.70132 0.14709 0.87539
 C1550 C 0.67551 0.18814 0.86672
 C1551 C 0.71493 0.20889 0.84391
 C1552 C 0.74049 0.16781 0.85362
 H1553 H 0.74020 0.25829 0.89955
 H1554 H 0.66936 0.21881 0.94059
 H1555 H 0.78812 0.18473 0.91300
 H1556 H 0.68797 0.11478 0.87103
 H1557 H 0.64227 0.18935 0.85387
 H1558 H 0.76368 0.15088 0.83245
 C1559 C 0.22972 0.72598 0.38990
 C1560 C 0.19152 0.70398 0.41367
 C1561 C 0.21855 0.66353 0.42068
 C1562 C 0.25632 0.68586 0.39789
 C1563 C 0.20290 0.64691 0.37450
 C1564 C 0.17649 0.68763 0.36593
 C1565 C 0.21536 0.70875 0.34241
 C1566 C 0.24152 0.66798 0.35197
 H1567 H 0.24073 0.75869 0.39750
 H1568 H 0.17093 0.71863 0.43972
 H1569 H 0.28972 0.68579 0.41051
 H1570 H 0.18993 0.61439 0.37066
 H1571 H 0.14309 0.68840 0.35352
 H1572 H 0.26455 0.65116 0.33050
 C1573 C 0.77692 0.77087 0.38553
 C1574 C 0.81046 0.80019 0.40829
 C1575 C 0.77472 0.83181 0.41939
 C1576 C 0.74160 0.80290 0.39749
 C1577 C 0.78237 0.85478 0.37359
 C1578 C 0.81761 0.82269 0.36131
 C1579 C 0.78404 0.79354 0.33861
 C1580 C 0.74875 0.82613 0.35168
 H1581 H 0.77517 0.73605 0.39139
 H1582 H 0.83571 0.78945 0.43250
 H1583 H 0.71012 0.79451 0.41180
 H1584 H 0.78363 0.88979 0.36947
 H1585 H 0.84940 0.83121 0.34809
 H1586 H 0.72196 0.83978 0.33157
 C1587 C 0.27677 0.26984 0.88526
 C1588 C 0.31025 0.29985 0.90711
 C1589 C 0.27425 0.33098 0.91876
 C1590 C 0.24118 0.30139 0.89779
 C1591 C 0.28064 0.35377 0.87266
 C1592 C 0.31615 0.32219 0.85984
 C1593 C 0.28266 0.29236 0.83807
 C1594 C 0.24709 0.32444 0.85168
 H1595 H 0.27566 0.23502 0.89130
 H1596 H 0.33611 0.28967 0.93084
 H1597 H 0.21012 0.29257 0.91285
 H1598 H 0.28118 0.38878 0.86835
 H1599 H 0.34758 0.33112 0.84593
 H1600 H 0.21970 0.33752 0.83208
 C1601 C 0.74980 0.39369 0.75690
 C1602 C 0.76783 0.41610 0.80006
 C1603 C 0.80442 0.43387 0.77086
 C1604 C 0.78666 0.41222 0.72815
 C1605 C 0.83141 0.39459 0.78281
 C1606 C 0.79464 0.37603 0.81143
 C1607 C 0.77701 0.35415 0.76811
 C1608 C 0.81382 0.37292 0.73983
 H1609 H 0.71581 0.39332 0.74651
 H1610 H 0.74892 0.43446 0.82482
 H1611 H 0.78240 0.42746 0.69407
 H1612 H 0.86538 0.39498 0.79331
 H1613 H 0.79793 0.36123 0.84594
 H1614 H 0.83539 0.35643 0.71665
 C1615 C 0.24877 0.89433 0.25692
 C1616 C 0.26733 0.91617 0.30021
 C1617 C 0.30361 0.93431 0.27080
 C1618 C 0.28531 0.91324 0.22797
 C1619 C 0.33066 0.89486 0.28174
 C1620 C 0.29423 0.87594 0.31058
 C1621 C 0.27608 0.85464 0.26714
 C1622 C 0.31255 0.87380 0.23866
 H1623 H 0.21468 0.89408 0.24694
 H1624 H 0.24873 0.93419 0.32552
 H1625 H 0.28068 0.92884 0.19411
 H1626 H 0.36475 0.89525 0.29175
 H1627 H 0.29792 0.86073 0.34483
 H1628 H 0.33383 0.85782 0.21483
 C1629 C 0.24558 0.88801 0.74260
 C1630 C 0.22732 0.90905 0.69805
 C1631 C 0.18660 0.92131 0.72391
 C1632 C 0.20531 0.90120 0.76809
 C1633 C 0.16628 0.87879 0.71081
 C1634 C 0.20680 0.86571 0.68553
 C1635 C 0.22384 0.84533 0.73067
 C1636 C 0.18356 0.85920 0.75560
 H1637 H 0.27866 0.89211 0.75529
 H1638 H 0.24527 0.92988 0.67418
 H1639 H 0.20551 0.91676 0.80197
 H1640 H 0.13371 0.87597 0.69649
 H1641 H 0.20832 0.85168 0.65087
 H1642 H 0.16366 0.84056 0.77946
 C1643 C 0.68494 0.35869 0.25725
 C1644 C 0.70749 0.40022 0.27000
 C1645 C 0.68890 0.42102 0.22611
 C1646 C 0.66777 0.37893 0.21274
 C1647 C 0.72927 0.40824 0.19990
 C1648 C 0.74738 0.38654 0.24414
 C1649 C 0.72483 0.34433 0.23197
 C1650 C 0.70794 0.36535 0.18711
 H1651 H 0.66481 0.34015 0.28100
 H1652 H 0.70821 0.41547 0.30405
 H1653 H 0.63507 0.37668 0.19865
 H1654 H 0.74748 0.42892 0.17611
 H1655 H 0.78057 0.38995 0.25670
 H1656 H 0.70908 0.35161 0.15229
 C1657 C 0.71196 0.62560 0.30575
 C1658 C 0.67253 0.60853 0.27974
 C1659 C 0.69790 0.56921 0.26548
 C1660 C 0.73704 0.58560 0.29190
 C1661 C 0.71234 0.59193 0.22177
 C1662 C 0.68678 0.63136 0.23571
 C1663 C 0.72601 0.64874 0.26149
 C1664 C 0.75169 0.60910 0.24789
 H1665 H 0.71268 0.63865 0.34091
 H1666 H 0.63959 0.60833 0.29291
 H1667 H 0.75773 0.56628 0.31491
 H1668 H 0.71377 0.57689 0.18781
 H1669 H 0.66424 0.64952 0.21396
 H1670 H 0.78491 0.60894 0.23565
 C1671 C 0.20924 0.12443 0.80474
 C1672 C 0.17003 0.10775 0.77807
 C1673 C 0.19534 0.06837 0.76388
 C1674 C 0.23425 0.08435 0.79098
 C1675 C 0.21043 0.09122 0.72055
 C1676 C 0.18493 0.13070 0.73441
 C1677 C 0.22395 0.14770 0.76083
 C1678 C 0.24956 0.10800 0.74735
 H1679 H 0.20962 0.13730 0.83999
 H1680 H 0.13692 0.10766 0.79076
 H1681 H 0.25454 0.06476 0.81414
 H1682 H 0.21226 0.07633 0.68654
 H1683 H 0.16267 0.14909 0.71253
 H1684 H 0.28294 0.10774 0.73555
 C1685 C 0.31229 0.14308 0.25031
 C1686 C 0.29076 0.10087 0.26265
 C1687 C 0.31308 0.08042 0.22191
 C1688 C 0.33323 0.12312 0.20872
 C1689 C 0.27408 0.09104 0.19110
 C1690 C 0.25215 0.11243 0.23245
 C1691 C 0.27342 0.15552 0.22072
 C1692 C 0.29439 0.13480 0.17860
 H1693 H 0.33102 0.16234 0.27432
 H1694 H 0.28822 0.08561 0.29688
 H1695 H 0.36684 0.12607 0.19866
 H1696 H 0.25846 0.06922 0.16648
 H1697 H 0.21849 0.10774 0.24221
 H1698 H 0.29531 0.14804 0.14326
 C1699 C 0.81258 0.64313 0.74992
 C1700 C 0.79106 0.60104 0.76276
 C1701 C 0.81282 0.58032 0.72178
 C1702 C 0.83293 0.62292 0.70810
 C1703 C 0.77347 0.59096 0.69150
 C1704 C 0.75214 0.61260 0.73307
 C1705 C 0.77341 0.65558 0.72084
 C1706 C 0.79375 0.63461 0.67850
 H1707 H 0.83161 0.66242 0.77366
 H1708 H 0.78888 0.58592 0.79708
 H1709 H 0.86638 0.62575 0.69739
 H1710 H 0.75746 0.56911 0.66721
 H1711 H 0.71859 0.60805 0.74333
 H1712 H 0.79423 0.64769 0.64308
 C1713 C 0.87764 0.71102 0.20894
 C1714 C 0.88593 0.73531 0.16395
 C1715 C 0.93004 0.74758 0.18159
 C1716 C 0.92228 0.72328 0.22687
 C1717 C 0.91211 0.78824 0.20300
 C1718 C 0.86811 0.77608 0.18446
 C1719 C 0.85808 0.75192 0.22980
 C1720 C 0.90280 0.76394 0.24839
 H1721 H 0.86524 0.67803 0.21085
 H1722 H 0.87819 0.72322 0.12922
 H1723 H 0.94492 0.70127 0.24409
 H1724 H 0.92644 0.82042 0.20072
 H1725 H 0.84804 0.79827 0.16421
 H1726 H 0.91015 0.77589 0.28323
 C1727 C 0.36695 0.27474 0.68462
 C1728 C 0.41064 0.28716 0.70386
 C1729 C 0.42914 0.24666 0.68265
 C1730 C 0.38532 0.23413 0.66432
 C1731 C 0.42091 0.22223 0.72778
 C1732 C 0.40092 0.26274 0.74906
 C1733 C 0.35652 0.25050 0.72980
 C1734 C 0.37654 0.20974 0.70917
 H1735 H 0.34693 0.29672 0.66405
 H1736 H 0.42480 0.31943 0.70189
 H1737 H 0.37813 0.22204 0.62946
 H1738 H 0.44346 0.20032 0.74531
 H1739 H 0.40775 0.27470 0.78402
 H1740 H 0.36414 0.17674 0.71088
 C1741 C 0.36210 0.71225 0.81601
 C1742 C 0.40676 0.69894 0.80075
 C1743 C 0.42494 0.74023 0.82107
 C1744 C 0.38026 0.75329 0.83594
 C1745 C 0.41816 0.76305 0.77457
 C1746 C 0.39845 0.72196 0.75376
 C1747 C 0.35342 0.73556 0.76945
 C1748 C 0.37370 0.77647 0.78993
 H1749 H 0.34079 0.69132 0.83601
 H1750 H 0.42058 0.66681 0.80518
 H1751 H 0.37041 0.76575 0.86964
 H1752 H 0.44151 0.78411 0.75733
 H1753 H 0.40646 0.70895 0.71974
 H1754 H 0.36282 0.80983 0.78663
 C1755 C 0.86301 0.21095 0.31641
 C1756 C 0.90845 0.19960 0.30196
 C1757 C 0.92378 0.24011 0.32072
 C1758 C 0.88124 0.25204 0.33596
 C1759 C 0.91843 0.26219 0.27638
 C1760 C 0.89958 0.22131 0.25444
 C1761 C 0.85384 0.23407 0.26962
 C1762 C 0.87358 0.27538 0.29036
 H1763 H 0.84248 0.18961 0.33691
 H1764 H 0.92437 0.16863 0.30792
 H1765 H 0.87264 0.26399 0.37032
 H1766 H 0.94289 0.28332 0.26108
 H1767 H 0.90907 0.20832 0.22088
 H1768 H 0.86298 0.30887 0.28751
 C1769 C 0.11730 0.21854 0.28150
 C1770 C 0.11077 0.24109 0.32750
 C1771 C 0.06780 0.25768 0.31051
 C1772 C 0.07360 0.23502 0.26431
 C1773 C 0.08918 0.29776 0.29045
 C1774 C 0.13207 0.28127 0.30829
 C1775 C 0.13985 0.25883 0.26191
 C1776 C 0.09628 0.27513 0.24418
 H1777 H 0.12778 0.18514 0.27812
 H1778 H 0.11740 0.22687 0.36180
 H1779 H 0.04919 0.21566 0.24638
 H1780 H 0.07741 0.33072 0.29351
 H1781 H 0.15393 0.30012 0.32984
 H1782 H 0.08985 0.28930 0.20984
 C1783 C 0.61897 0.71827 0.78436
 C1784 C 0.61373 0.74050 0.83074
 C1785 C 0.57017 0.75681 0.81545
 C1786 C 0.57468 0.73448 0.76887
 C1787 C 0.59054 0.79718 0.79489
 C1788 C 0.63404 0.78098 0.81107
 C1789 C 0.64065 0.75885 0.76423
 C1790 C 0.59642 0.77489 0.74819
 H1791 H 0.62946 0.68494 0.78040
 H1792 H 0.62155 0.72615 0.86469
 H1793 H 0.54988 0.71502 0.75171
 H1794 H 0.57858 0.83001 0.79862
 H1795 H 0.65622 0.79997 0.83208
 H1796 H 0.58880 0.78921 0.71420
 C1797 C 0.62720 0.28214 0.71571
 C1798 C 0.62006 0.26174 0.66877
 C1799 C 0.57703 0.24446 0.68504
 C1800 C 0.58424 0.26467 0.73230
 C1801 C 0.59833 0.20332 0.70188
 C1802 C 0.64133 0.22078 0.68530
 C1803 C 0.65027 0.24134 0.73261
 C1804 C 0.60701 0.22364 0.74966
 H1805 H 0.63705 0.31566 0.72069
 H1806 H 0.62777 0.27710 0.63544
 H1807 H 0.56036 0.28281 0.75167
 H1808 H 0.58549 0.17101 0.69595
 H1809 H 0.66308 0.20315 0.66303
 H1810 H 0.60110 0.20785 0.78315
 C1811 C 0.14124 0.72133 0.18348
 C1812 C 0.09826 0.70347 0.19952
 C1813 C 0.07689 0.74468 0.18307
 C1814 C 0.11990 0.76238 0.16738
 C1815 C 0.08364 0.76435 0.23068
 C1816 C 0.10655 0.72325 0.24765
 C1817 C 0.14981 0.74138 0.23114
 C1818 C 0.12661 0.78225 0.21465
 H1819 H 0.16314 0.70400 0.16110
 H1820 H 0.08559 0.67119 0.19299
 H1821 H 0.12784 0.77816 0.13434
 H1822 H 0.05951 0.78213 0.25009
 H1823 H 0.10059 0.70704 0.28091
 H1824 H 0.13622 0.81576 0.22019
   
