data_POSCAR
  _audit_creation_date              2014-09-24
  _audit_creation_method            'ToBaCCo'
  _symmetry_space_group_name_H-M    'P1'
  _symmetry_Int_Tables_number       1
  _symmetry_cell_setting            triclinic
  loop_
  _symmetry_equiv_pos_as_xyz
 x,y,z
_cell_length_a 64.8314
_cell_length_b 64.6227
_cell_length_c 65.0184
_cell_angle_alpha 89.958100
_cell_angle_beta 90.425100
_cell_angle_gamma 90.785500
loop_
  _atom_site_label
  _atom_site_type_symbol
  _atom_site_fract_x
  _atom_site_fract_y
  _atom_site_fract_z
N1 N 0.16943 0.22007 0.22427
 N2 N 0.17385 0.20404 0.23583
 C3 C 0.15946 0.20202 0.25055
 C4 C 0.14517 0.21763 0.24814
 C5 C 0.15209 0.22880 0.23124
 H6 H 0.15929 0.18988 0.26197
 H7 H 0.14505 0.24221 0.22436
 Cu8 Cu 0.19766 0.18701 0.23020
 Cu9 Cu 0.18620 0.22811 0.20071
 Cu10 Cu 0.22879 0.19793 0.19051
 N11 N 0.22156 0.17019 0.22430
 N12 N 0.23367 0.17454 0.20874
 C13 C 0.24856 0.16029 0.20773
 C14 C 0.24569 0.14612 0.22353
 C15 C 0.22836 0.15300 0.23373
 H16 H 0.26035 0.16011 0.19608
 H17 H 0.22107 0.14594 0.24692
 N18 N 0.22131 0.22219 0.17383
 N19 N 0.20510 0.23366 0.17762
 C20 C 0.20388 0.24859 0.16319
 C21 C 0.22011 0.24644 0.14961
 C22 C 0.23082 0.22953 0.15695
 H23 H 0.19181 0.25993 0.16242
 H24 H 0.24449 0.22289 0.15042
 H25 H 0.19717 0.19892 0.19461
 H26 H 0.21339 0.21588 0.21163
 N27 N 0.67097 0.72077 0.72261
 N28 N 0.67358 0.70293 0.73188
 C29 C 0.65977 0.70100 0.74715
 C30 C 0.64775 0.71860 0.74746
 C31 C 0.65540 0.73080 0.73162
 H32 H 0.65836 0.68758 0.75699
 H33 H 0.65001 0.74581 0.72684
 Cu34 Cu 0.69421 0.68353 0.72273
 Cu35 Cu 0.68727 0.72921 0.69899
 Cu36 Cu 0.72822 0.69808 0.68624
 N37 N 0.71928 0.66826 0.71780
 N38 N 0.73254 0.67390 0.70362
 C39 C 0.74812 0.66034 0.70336
 C40 C 0.74446 0.64532 0.71824
 C41 C 0.72596 0.65097 0.72708
 H42 H 0.76106 0.66134 0.69302
 H43 H 0.71775 0.64302 0.73920
 N44 N 0.72111 0.72323 0.67063
 N45 N 0.70550 0.73507 0.67557
 C46 C 0.70412 0.75057 0.66182
 C47 C 0.71961 0.74848 0.64743
 C48 C 0.73010 0.73092 0.65359
 H49 H 0.69237 0.76224 0.66208
 H50 H 0.74314 0.72404 0.64611
 H51 H 0.69663 0.70029 0.68919
 H52 H 0.71296 0.71335 0.70936
 N53 N 0.33180 0.78012 0.72236
 N54 N 0.32721 0.79649 0.73328
 C55 C 0.34140 0.79896 0.74834
 C56 C 0.35572 0.78329 0.74679
 C57 C 0.34903 0.77163 0.73007
 H58 H 0.34139 0.81138 0.75945
 H59 H 0.35610 0.75797 0.72387
 Cu60 Cu 0.30325 0.81307 0.72660
 Cu61 Cu 0.31536 0.77123 0.69873
 Cu62 Cu 0.27203 0.79992 0.68704
 N63 N 0.27865 0.82876 0.72009
 N64 N 0.26645 0.82347 0.70472
 C65 C 0.25086 0.83695 0.70345
 C66 C 0.25335 0.85167 0.71889
 C67 C 0.27125 0.84581 0.72915
 H68 H 0.23883 0.83612 0.69190
 H69 H 0.27851 0.85338 0.74217
 N70 N 0.28030 0.77558 0.67098
 N71 N 0.29681 0.76470 0.67543
 C72 C 0.29860 0.74947 0.66146
 C73 C 0.28245 0.75078 0.64746
 C74 C 0.27116 0.76755 0.65406
 H75 H 0.31101 0.73849 0.66131
 H76 H 0.25735 0.77358 0.64702
 H77 H 0.30362 0.79994 0.69145
 H78 H 0.28792 0.78327 0.70902
 N79 N 0.82377 0.27741 0.22319
 N80 N 0.81877 0.29277 0.23528
 C81 C 0.83329 0.29497 0.25005
 C82 C 0.84833 0.28013 0.24714
 C83 C 0.84160 0.26927 0.22984
 H84 H 0.83290 0.30666 0.26189
 H85 H 0.84905 0.25646 0.22242
 Cu86 Cu 0.79404 0.30888 0.23050
 Cu87 Cu 0.80702 0.26928 0.19953
 Cu88 Cu 0.76386 0.29851 0.18923
 N89 N 0.77031 0.32573 0.22356
 N90 N 0.75861 0.32158 0.20748
 C91 C 0.74377 0.33585 0.20599
 C92 C 0.74624 0.34983 0.22200
 C93 C 0.76330 0.34286 0.23285
 H94 H 0.73233 0.33621 0.19384
 H95 H 0.77025 0.34980 0.24638
 N96 N 0.77165 0.27458 0.17248
 N97 N 0.78814 0.26347 0.17631
 C98 C 0.78957 0.24866 0.16183
 C99 C 0.77318 0.25053 0.14817
 C100 C 0.76215 0.26715 0.15551
 H101 H 0.80190 0.23761 0.16108
 H102 H 0.74827 0.27350 0.14892
 H103 H 0.79546 0.29852 0.19450
 H104 H 0.77943 0.28033 0.21031
 N105 N 0.82961 0.72707 0.27583
 N106 N 0.82466 0.71138 0.26389
 C107 C 0.83877 0.70994 0.24887
 C108 C 0.85341 0.72561 0.25151
 C109 C 0.84697 0.73617 0.26883
 H110 H 0.83857 0.69810 0.23715
 H111 H 0.85442 0.74938 0.27602
 Cu112 Cu 0.80065 0.69387 0.26940
 Cu113 Cu 0.81365 0.73415 0.29996
 Cu114 Cu 0.77183 0.70246 0.31150
 N115 N 0.77761 0.67580 0.27678
 N116 N 0.76644 0.67915 0.29319
 C117 C 0.75197 0.66411 0.29478
 C118 C 0.75416 0.65048 0.27849
 C119 C 0.77063 0.65849 0.26740
 H120 H 0.74093 0.66304 0.30711
 H121 H 0.77717 0.65215 0.25357
 N122 N 0.77976 0.72682 0.32816
 N123 N 0.79569 0.73887 0.32372
 C124 C 0.79732 0.75391 0.33797
 C125 C 0.78165 0.75130 0.35217
 C126 C 0.77082 0.73391 0.34537
 H127 H 0.80923 0.76575 0.33810
 H128 H 0.75743 0.72686 0.35243
 H129 H 0.80306 0.70422 0.30541
 H130 H 0.78584 0.72142 0.29005
 N131 N 0.32893 0.22610 -0.21947
 N132 N 0.32509 0.20994 -0.23115
 C133 C 0.33830 0.21005 -0.24702
 C134 C 0.35141 0.22719 -0.24515
 C135 C 0.34482 0.23701 -0.22737
 H136 H 0.33856 0.19814 -0.25867
 H137 H 0.35118 0.25085 -0.22034
 Cu138 Cu 0.30423 0.18939 -0.22376
 Cu139 Cu 0.31382 0.23103 -0.19423
 Cu140 Cu 0.26824 0.20278 -0.18934
 N141 N 0.27890 0.17340 -0.22048
 N142 N 0.26469 0.17896 -0.20738
 C143 C 0.24916 0.16494 -0.20778
 C144 C 0.25383 0.14966 -0.22191
 C145 C 0.27287 0.15566 -0.22971
 H146 H 0.23572 0.16565 -0.19811
 H147 H 0.28196 0.14753 -0.24089
 N148 N 0.27503 0.22720 -0.17232
 N149 N 0.29258 0.23764 -0.17383
 C150 C 0.29322 0.25246 -0.15928
 C151 C 0.27524 0.25123 -0.14790
 C152 C 0.26409 0.23503 -0.15671
 H153 H 0.30611 0.26297 -0.15681
 H154 H 0.24927 0.22906 -0.15185
 H155 H 0.29970 0.20236 -0.18854
 H156 H 0.28799 0.21933 -0.20855
 N157 N 0.67435 0.27171 -0.22607
 N158 N 0.68028 0.28569 -0.23953
 C159 C 0.66542 0.28781 -0.25393
 C160 C 0.64915 0.27435 -0.24930
 C161 C 0.65555 0.26442 -0.23141
 H162 H 0.66649 0.29847 -0.26669
 H163 H 0.64734 0.25263 -0.22286
 Cu164 Cu 0.70669 0.30005 -0.23676
 Cu165 Cu 0.69163 0.26338 -0.20298
 Cu166 Cu 0.73945 0.28770 -0.19867
 N167 N 0.72925 0.31855 -0.22861
 N168 N 0.74206 0.31352 -0.21377
 C169 C 0.75638 0.32859 -0.21150
 C170 C 0.75234 0.34413 -0.22564
 C171 C 0.73491 0.33713 -0.23626
 H172 H 0.76871 0.32816 -0.20025
 H173 H 0.72693 0.34484 -0.24867
 N174 N 0.72994 0.26605 -0.17959
 N175 N 0.71160 0.25705 -0.18091
 C176 C 0.70946 0.24364 -0.16518
 C177 C 0.72727 0.24434 -0.15327
 C178 C 0.73990 0.25875 -0.16292
 H179 H 0.69577 0.23439 -0.16234
 H180 H 0.75515 0.26376 -0.15810
 H181 H 0.70811 0.29104 -0.20051
 H182 H 0.71893 0.27015 -0.21682
 N183 N 0.17483 0.77258 0.27408
 N184 N 0.18009 0.78852 0.26264
 C185 C 0.16627 0.79041 0.24721
 C186 C 0.15151 0.77479 0.24902
 C187 C 0.15753 0.76377 0.26632
 H188 H 0.16676 0.80249 0.23573
 H189 H 0.14992 0.75038 0.27291
 Cu190 Cu 0.20420 0.80559 0.26920
 Cu191 Cu 0.19047 0.76473 0.29847
 Cu192 Cu 0.23306 0.79523 0.31111
 N193 N 0.22770 0.82298 0.27705
 N194 N 0.23906 0.81871 0.29327
 C195 C 0.25403 0.83320 0.29527
 C196 C 0.25199 0.84756 0.27948
 C197 C 0.23501 0.84042 0.26822
 H198 H 0.26527 0.83335 0.30762
 H199 H 0.22830 0.84735 0.25467
 N200 N 0.22449 0.77085 0.32729
 N201 N 0.20823 0.75929 0.32254
 C202 C 0.20614 0.74424 0.33675
 C203 C 0.22184 0.74638 0.35122
 C204 C 0.23318 0.76345 0.34463
 H205 H 0.19387 0.73277 0.33669
 H206 H 0.24670 0.77014 0.35195
 H207 H 0.20171 0.79419 0.30486
 H208 H 0.21842 0.77707 0.28916
 N209 N 0.47666 0.42570 0.47574
 N210 N 0.46172 0.43077 0.48822
 C211 C 0.45924 0.41569 0.50235
 C212 C 0.47349 0.40030 0.49856
 C213 C 0.48424 0.40730 0.48148
 H214 H 0.44797 0.41605 0.51449
 H215 H 0.49685 0.39981 0.47386
 Cu216 Cu 0.44705 0.45668 0.48498
 Cu217 Cu 0.48596 0.44389 0.45374
 Cu218 Cu 0.45730 0.48778 0.44470
 N219 N 0.42801 0.47810 0.47628
 N220 N 0.43216 0.49006 0.46048
 C221 C 0.41684 0.50361 0.45786
 C222 C 0.40208 0.50003 0.47281
 C223 C 0.40976 0.48362 0.48425
 H224 H 0.41663 0.51520 0.44588
 H225 H 0.40273 0.47626 0.49743
 N226 N 0.47989 0.47909 0.42676
 N227 N 0.49067 0.46222 0.42993
 C228 C 0.50428 0.46017 0.41452
 C229 C 0.50194 0.47656 0.40095
 C230 C 0.48630 0.48821 0.40930
 H231 H 0.51483 0.44746 0.41312
 H232 H 0.47985 0.50224 0.40309
 H233 H 0.47578 0.47158 0.46489
 H234 H 0.45701 0.45622 0.44908
 N235 N -0.02607 -0.07714 0.97346
 N236 N -0.04207 -0.07254 0.98477
 C237 C -0.04414 -0.08680 0.99975
 C238 C -0.02858 -0.10117 0.99778
 C239 C -0.01741 -0.09446 0.98087
 H240 H -0.05628 -0.08688 1.01103
 H241 H -0.00398 -0.10160 0.97434
 Cu242 Cu -0.05896 -0.04866 0.97855
 Cu243 Cu -0.01790 -0.06061 0.94968
 Cu244 Cu -0.04770 -0.01784 0.93850
 N245 N -0.07561 -0.02466 0.97199
 N246 N -0.07103 -0.01267 0.95632
 C247 C -0.08507 0.00238 0.95481
 C248 C -0.09937 -0.00023 0.97038
 C249 C -0.09279 -0.01761 0.98100
 H250 H -0.08502 0.01409 0.94295
 H251 H -0.10004 -0.02474 0.99418
 N252 N -0.02353 -0.02558 0.92223
 N253 N -0.01221 -0.04189 0.92633
 C254 C 0.00267 -0.04327 0.91204
 C255 C 0.00062 -0.02703 0.89823
 C256 C -0.01617 -0.01616 0.90530
 H257 H 0.01393 -0.05542 0.91155
 H258 H -0.02276 -0.00247 0.89853
 H259 H -0.02997 -0.03326 0.96010
 H260 H -0.04691 -0.04956 0.94313
 N261 N 1.02229 0.57490 0.97256
 N262 N 1.03807 0.57088 0.98463
 C263 C 1.03928 0.58536 0.99950
 C264 C 1.02339 0.59928 0.99662
 C265 C 1.01293 0.59202 0.97932
 H266 H 1.05106 0.58588 1.01133
 H267 H 0.99963 0.59876 0.97196
 Cu268 Cu 1.05573 0.54742 0.97917
 Cu269 Cu 1.01540 0.55812 0.94852
 Cu270 Cu 1.04668 0.51616 0.93875
 N271 N 1.07310 0.52373 0.97375
 N272 N 1.06948 0.51160 0.95789
 C273 C 1.08393 0.49685 0.95735
 C274 C 1.09743 0.49985 0.97376
 C275 C 1.08998 0.51710 0.98384
 H276 H 1.08470 0.48508 0.94559
 H277 H 1.09642 0.52441 0.99741
 N278 N 1.02284 0.52339 0.92123
 N279 N 1.01096 0.53934 0.92498
 C280 C 0.99640 0.54047 0.91016
 C281 C 0.99920 0.52447 0.89632
 C282 C 1.01615 0.51397 0.90391
 H283 H 0.98487 0.55234 0.90931
 H284 H 1.02319 0.50050 0.89727
 H285 H 1.02795 0.53097 0.95943
 H286 H 1.04492 0.54772 0.94318
 N287 N 0.52773 0.07940 0.47793
 N288 N 0.54421 0.07510 0.48890
 C289 C 0.54605 0.08894 0.50434
 C290 C 0.52983 0.10270 0.50295
 C291 C 0.51853 0.09603 0.48596
 H292 H 0.55846 0.08918 0.51552
 H293 H 0.50469 0.10280 0.47970
 Cu294 Cu 0.56184 0.05211 0.48145
 Cu295 Cu 0.51961 0.06370 0.45358
 Cu296 Cu 0.55020 0.02232 0.44043
 N297 N 0.57864 0.02846 0.47411
 N298 N 0.57391 0.01695 0.45807
 C299 C 0.58796 0.00197 0.45618
 C300 C 0.60241 0.00409 0.47189
 C301 C 0.59592 0.02113 0.48299
 H302 H 0.58775 -0.00942 0.44403
 H303 H 0.60324 0.02777 0.49648
 N304 N 0.52557 0.03022 0.42449
 N305 N 0.51393 0.04599 0.42950
 C306 C 0.49865 0.04771 0.41548
 C307 C 0.50073 0.03229 0.40087
 C308 C 0.51800 0.02150 0.40717
 H309 H 0.48710 0.05958 0.41572
 H310 H 0.52467 0.00830 0.39967
 H311 H 0.53287 0.03631 0.46288
 H312 H 0.54878 0.05371 0.44619
 N313 N -0.02315 0.07689 0.52496
 N314 N -0.03713 0.07040 0.51167
 C315 C -0.03872 0.08439 0.49637
 C316 C -0.02490 0.10055 0.50028
 C317 C -0.01534 0.09515 0.51863
 H318 H -0.04915 0.08282 0.48341
 H319 H -0.00351 0.10376 0.52684
 Cu320 Cu -0.05206 0.04444 0.51582
 Cu321 Cu -0.01529 0.06095 0.54905
 Cu322 Cu -0.04084 0.01413 0.55630
 N323 N -0.07099 0.02277 0.52507
 N324 N -0.06647 0.01098 0.54087
 C325 C -0.08177 -0.00295 0.54368
 C326 C -0.09690 0.00026 0.52885
 C327 C -0.08944 0.01680 0.51731
 H328 H -0.08175 -0.01450 0.55571
 H329 H -0.09672 0.02391 0.50412
 N330 N -0.01886 0.02436 0.57484
 N331 N -0.00943 0.04238 0.57231
 C332 C 0.00447 0.04513 0.58757
 C333 C 0.00374 0.02805 0.60043
 C334 C -0.01131 0.01521 0.59187
 H335 H 0.01429 0.05867 0.58928
 H336 H -0.01637 0.00027 0.59752
 H337 H -0.02279 0.03272 0.53697
 H338 H -0.04334 0.04540 0.55222
 N339 N 0.47562 0.57471 0.02272
 N340 N 0.45944 0.57003 0.01129
 C341 C 0.45784 0.58406 -0.00395
 C342 C 0.47388 0.59835 -0.00196
 C343 C 0.48486 0.59183 0.01517
 H344 H 0.44558 0.58417 -0.01529
 H345 H 0.49845 0.59907 0.02186
 Cu346 Cu 0.44156 0.54665 0.01809
 Cu347 Cu 0.48295 0.55883 0.04708
 Cu348 Cu 0.45118 0.51708 0.05959
 N349 N 0.42389 0.52321 0.02515
 N350 N 0.42761 0.51173 0.04141
 C351 C 0.41266 0.49715 0.04304
 C352 C 0.39873 0.49963 0.02694
 C353 C 0.40647 0.51634 0.01591
 H354 H 0.41181 0.48589 0.05531
 H355 H 0.39984 0.52317 0.00226
 N356 N 0.47582 0.52510 0.07596
 N357 N 0.48785 0.54097 0.07111
 C358 C 0.50298 0.54280 0.08529
 C359 C 0.50048 0.52734 0.09986
 C360 C 0.48305 0.51640 0.09338
 H361 H 0.51473 0.55480 0.08519
 H362 H 0.47605 0.50315 0.10083
 H363 H 0.46951 0.53109 0.03774
 H364 H 0.45336 0.54842 0.05375
 N365 N 0.52186 -0.07543 0.02746
 N366 N 0.53698 -0.07047 0.01498
 C367 C 0.53823 -0.08497 0.00022
 C368 C 0.52303 -0.09990 0.00354
 C369 C 0.51294 -0.09323 0.02103
 H370 H 0.54960 -0.08472 -0.01184
 H371 H 0.50016 -0.10077 0.02868
 Cu372 Cu 0.55390 -0.04575 0.01909
 Cu373 Cu 0.51523 -0.05869 0.05132
 Cu374 Cu 0.54798 -0.01731 0.06202
 N375 N 0.57355 -0.02414 0.02694
 N376 N 0.57116 -0.01303 0.04363
 C377 C 0.58692 0.00065 0.04530
 C378 C 0.60000 -0.00202 0.02876
 C379 C 0.59095 -0.01795 0.01744
 H380 H 0.58880 0.01152 0.05782
 H381 H 0.59654 -0.02459 0.00333
 N382 N 0.52367 -0.02412 0.07880
 N383 N 0.51117 -0.03988 0.07475
 C384 C 0.49638 -0.04073 0.08918
 C385 C 0.49970 -0.02471 0.10306
 C386 C 0.51718 -0.01452 0.09588
 H387 H 0.48426 -0.05234 0.08963
 H388 H 0.52480 -0.00120 0.10266
 H389 H 0.52764 -0.03091 0.04120
 H390 H 0.54540 -0.04860 0.05537
 N391 N 1.02503 0.42018 0.52650
 N392 N 1.04081 0.42512 0.51484
 C393 C 1.04135 0.41211 0.49874
 C394 C 1.02507 0.39807 0.50037
 C395 C 1.01505 0.40371 0.51828
 H396 H 1.05312 0.41252 0.48707
 H397 H 1.00164 0.39637 0.52504
 Cu398 Cu 1.06005 0.44712 0.52255
 Cu399 Cu 1.01953 0.43495 0.55199
 Cu400 Cu 1.04218 0.48396 0.55359
 N401 N 1.07653 0.47155 0.52923
 N402 N 1.06942 0.48603 0.54132
 C403 C 1.08354 0.50140 0.54293
 C404 C 1.10056 0.49624 0.53128
 C405 C 1.09547 0.47713 0.52280
 H406 H 1.08141 0.51533 0.55182
 H407 H 1.10482 0.46790 0.51274
 N408 N 1.01924 0.47536 0.57152
 N409 N 1.01097 0.45659 0.57132
 C410 C 0.99678 0.45518 0.58628
 C411 C 0.99621 0.47395 0.59658
 C412 C 1.01067 0.48635 0.58671
 H413 H 0.98801 0.44130 0.58982
 H414 H 1.01503 0.50208 0.59058
 H415 H 1.02785 0.46042 0.53618
 H416 H 1.04639 0.45301 0.55692
 C417 C 0.35323 -0.01866 0.25408
 C418 C 0.36313 0.00045 0.25094
 C419 C 0.35147 0.01829 0.24790
 C420 C 0.32981 0.01716 0.24799
 C421 C 0.32002 -0.00214 0.25101
 C422 C 0.33160 -0.02012 0.25412
 C423 C 0.38577 0.00184 0.25117
 C424 C 0.39679 -0.00058 0.23291
 C425 C 0.41844 0.00071 0.23302
 C426 C 0.42889 0.00442 0.25172
 C427 C 0.41798 0.00680 0.27016
 C428 C 0.39633 0.00550 0.26971
 H429 H 0.36240 -0.03239 0.25632
 H430 H 0.35930 0.03306 0.24587
 H431 H 0.38846 -0.00321 0.21862
 H432 H 0.38764 0.00705 0.28378
 H433 H 0.30333 -0.00316 0.25109
 H434 H 0.44558 0.00543 0.25191
 C435 C 0.14966 -0.02012 0.74780
 C436 C 0.13940 -0.00155 0.75128
 C437 C 0.15071 0.01683 0.75427
 C438 C 0.17237 0.01680 0.75375
 C439 C 0.18253 -0.00196 0.75035
 C440 C 0.17131 -0.02049 0.74733
 C441 C 0.11675 -0.00120 0.75094
 C442 C 0.10560 -0.00389 0.76914
 C443 C 0.08395 -0.00328 0.76884
 C444 C 0.07363 -0.00007 0.75002
 C445 C 0.08468 0.00265 0.73169
 C446 C 0.10631 0.00205 0.73231
 H447 H 0.14076 -0.03426 0.74553
 H448 H 0.14259 0.03119 0.75651
 H449 H 0.11384 -0.00610 0.78352
 H450 H 0.11510 0.00395 0.71830
 H451 H 0.19922 -0.00211 0.74988
 H452 H 0.05694 0.00045 0.74966
 C453 C 0.64652 0.48277 0.24838
 C454 C 0.63660 0.50160 0.25144
 C455 C 0.64825 0.51977 0.25441
 C456 C 0.66991 0.51926 0.25425
 C457 C 0.67971 0.50024 0.25117
 C458 C 0.66815 0.48191 0.24819
 C459 C 0.61395 0.50228 0.25106
 C460 C 0.60283 0.49973 0.26927
 C461 C 0.58116 0.50003 0.26896
 C462 C 0.57081 0.50295 0.25011
 C463 C 0.58183 0.50549 0.23172
 C464 C 0.60349 0.50510 0.23237
 H465 H 0.63732 0.46879 0.24626
 H466 H 0.64040 0.53432 0.25642
 H467 H 0.61109 0.49771 0.28366
 H468 H 0.61229 0.50672 0.21834
 H469 H 0.69640 0.49973 0.25095
 H470 H 0.55411 0.50325 0.24978
 C471 C 0.85139 0.48052 0.75031
 C472 C 0.86158 0.49938 0.74663
 C473 C 0.85018 0.51739 0.74353
 C474 C 0.82853 0.51670 0.74430
 C475 C 0.81846 0.49765 0.74796
 C476 C 0.82974 0.47946 0.75094
 C477 C 0.88425 0.50025 0.74626
 C478 C 0.89466 0.49862 0.72755
 C479 C 0.91631 0.49910 0.72710
 C480 C 0.92740 0.50125 0.74565
 C481 C 0.91712 0.50276 0.76454
 C482 C 0.89544 0.50226 0.76468
 H483 H 0.86037 0.46665 0.75242
 H484 H 0.85822 0.53197 0.74095
 H485 H 0.88588 0.49707 0.71337
 H486 H 0.88723 0.50312 0.77910
 H487 H 0.80177 0.49702 0.74856
 H488 H 0.94410 0.50164 0.74537
 C489 C 0.24843 0.35311 -0.01668
 C490 C 0.24605 0.36354 0.00202
 C491 C 0.24363 0.35230 0.02030
 C492 C 0.24364 0.33057 0.02004
 C493 C 0.24590 0.32027 0.00117
 C494 C 0.24829 0.33139 -0.01726
 C495 C 0.24618 0.38628 0.00246
 C496 C 0.22767 0.39702 0.00028
 C497 C 0.22767 0.41876 0.00051
 C498 C 0.24650 0.42956 0.00290
 C499 C 0.26518 0.41894 0.00504
 C500 C 0.26485 0.39721 0.00487
 H501 H 0.25011 0.36193 -0.03076
 H502 H 0.24209 0.36053 0.03471
 H503 H 0.21330 0.38841 -0.00140
 H504 H 0.27911 0.38875 0.00626
 H505 H 0.24585 0.30351 0.00083
 H506 H 0.24664 0.44632 0.00301
 C507 C 0.74856 0.14478 -0.01926
 C508 C 0.75026 0.13423 -0.00052
 C509 C 0.75177 0.14534 0.01793
 C510 C 0.75166 0.16707 0.01777
 C511 C 0.74999 0.17751 -0.00113
 C512 C 0.74841 0.16650 -0.01971
 C513 C 0.75067 0.11150 -0.00026
 C514 C 0.76918 0.10126 -0.00383
 C515 C 0.76976 0.07954 -0.00388
 C516 C 0.75143 0.06822 -0.00042
 C517 C 0.73272 0.07835 0.00310
 C518 C 0.73253 0.10009 0.00326
 H519 H 0.74759 0.13606 -0.03348
 H520 H 0.75289 0.13702 0.03236
 H521 H 0.78316 0.11028 -0.00630
 H522 H 0.71822 0.10819 0.00565
 H523 H 0.74994 0.19427 -0.00140
 H524 H 0.75170 0.05147 -0.00058
 C525 C 0.24746 0.64315 0.48265
 C526 C 0.25120 0.63267 0.50113
 C527 C 0.25494 0.64385 0.51922
 C528 C 0.25506 0.66559 0.51902
 C529 C 0.25124 0.67597 0.50039
 C530 C 0.24742 0.66488 0.48211
 C531 C 0.25126 0.60994 0.50156
 C532 C 0.26945 0.59932 0.49751
 C533 C 0.26971 0.57758 0.49798
 C534 C 0.25142 0.56663 0.50256
 C535 C 0.23306 0.57717 0.50664
 C536 C 0.23316 0.59890 0.50615
 H537 H 0.24484 0.63432 0.46869
 H538 H 0.25758 0.63556 0.53347
 H539 H 0.28344 0.60806 0.49426
 H540 H 0.21911 0.60728 0.50901
 H541 H 0.25129 0.69273 0.50011
 H542 H 0.25146 0.54987 0.50289
 C543 C 0.75354 0.85514 0.48203
 C544 C 0.74970 0.86577 0.50032
 C545 C 0.74585 0.85473 0.51845
 C546 C 0.74580 0.83299 0.51847
 C547 C 0.74967 0.82246 0.50000
 C548 C 0.75359 0.83339 0.48169
 C549 C 0.74997 0.88853 0.50057
 C550 C 0.73178 0.89942 0.49703
 C551 C 0.73191 0.92118 0.49720
 C552 C 0.75060 0.93186 0.50107
 C553 C 0.76896 0.92105 0.50472
 C554 C 0.76846 0.89931 0.50439
 H555 H 0.75630 0.86386 0.46805
 H556 H 0.74321 0.86314 0.53258
 H557 H 0.71750 0.89089 0.49436
 H558 H 0.78250 0.89070 0.50688
 H559 H 0.74970 0.80570 0.49988
 H560 H 0.75087 0.94862 0.50123
 C561 C -0.02159 0.25361 0.34989
 C562 C -0.00358 0.24893 0.36083
 C563 C 0.01447 0.24416 0.35023
 C564 C 0.01470 0.24417 0.32861
 C565 C -0.00355 0.24871 0.31778
 C566 C -0.02178 0.25341 0.32829
 C567 C -0.00351 0.24939 0.38343
 C568 C -0.00516 0.23093 0.39464
 C569 C -0.00481 0.23128 0.41623
 C570 C -0.00268 0.25036 0.42645
 C571 C -0.00102 0.26899 0.41536
 C572 C -0.00159 0.26833 0.39377
 H573 H -0.03552 0.25705 0.35827
 H574 H 0.02842 0.24096 0.35887
 H575 H -0.00647 0.21633 0.38652
 H576 H -0.00051 0.28253 0.38493
 H577 H -0.00356 0.24864 0.30113
 H578 H -0.00218 0.25067 0.44310
 C579 C -0.01775 0.74611 0.14556
 C580 C 0.00041 0.74818 0.13416
 C581 C 0.01943 0.75059 0.14430
 C582 C 0.02046 0.75098 0.16588
 C583 C 0.00213 0.74889 0.17716
 C584 C -0.01705 0.74647 0.16716
 C585 C -0.00055 0.74840 0.11157
 C586 C -0.00386 0.76704 0.10114
 C587 C -0.00484 0.76751 0.07956
 C588 C -0.00257 0.74896 0.06857
 C589 C 0.00071 0.73014 0.07888
 C590 C 0.00178 0.73003 0.10047
 H591 H -0.03242 0.74459 0.13757
 H592 H 0.03339 0.75208 0.13532
 H593 H -0.00538 0.78120 0.10989
 H594 H 0.00409 0.71564 0.10870
 H595 H 0.00277 0.74928 0.19381
 H596 H -0.00340 0.74916 0.05193
 C597 C 0.47881 0.25291 0.64906
 C598 C 0.49758 0.25406 0.63855
 C599 C 0.51615 0.25606 0.64958
 C600 C 0.51611 0.25698 0.67116
 C601 C 0.49718 0.25594 0.68153
 C602 C 0.47847 0.25382 0.67064
 C603 C 0.49785 0.25294 0.61596
 C604 C 0.49459 0.27081 0.60422
 C605 C 0.49527 0.27000 0.58265
 C606 C 0.49890 0.25094 0.57301
 C607 C 0.50208 0.23288 0.58462
 C608 C 0.50167 0.23408 0.60618
 H609 H 0.46451 0.25137 0.64043
 H610 H 0.53061 0.25660 0.64132
 H611 H 0.49205 0.28540 0.61195
 H612 H 0.50402 0.22032 0.61540
 H613 H 0.49701 0.25659 0.69818
 H614 H 0.49936 0.25018 0.55638
 C615 C 0.48444 0.75699 0.85327
 C616 C 0.50231 0.75215 0.86439
 C617 C 0.52059 0.74784 0.85398
 C618 C 0.52119 0.74853 0.83239
 C619 C 0.50311 0.75328 0.82139
 C620 C 0.48463 0.75742 0.83168
 C621 C 0.50173 0.75128 0.88696
 C622 C 0.49935 0.73220 0.89692
 C623 C 0.49822 0.73120 0.91846
 C624 C 0.49980 0.74962 0.92991
 C625 C 0.50232 0.76886 0.92007
 C626 C 0.50314 0.76953 0.89849
 H627 H 0.47028 0.75991 0.86148
 H628 H 0.53439 0.74429 0.86274
 H629 H 0.49838 0.71816 0.88784
 H630 H 0.50468 0.78424 0.89059
 H631 H 0.50340 0.75366 0.80474
 H632 H 0.49901 0.74898 0.94653
 C633 C 0.09031 0.22749 0.28419
 C634 C 0.09444 0.23985 0.26668
 C635 C 0.11231 0.23663 0.25508
 C636 C 0.12639 0.22120 0.26060
 C637 C 0.12229 0.20910 0.27809
 C638 C 0.10456 0.21215 0.28971
 C639 C 0.07095 0.23132 0.29604
 C640 C 0.06529 0.21974 0.31356
 C641 C 0.04709 0.22392 0.32403
 C642 C 0.03401 0.23972 0.31736
 C643 C 0.03950 0.25134 0.29994
 C644 C 0.05775 0.24724 0.28926
 C645 C 0.08071 0.25536 0.26080
 C646 C 0.06280 0.25901 0.27187
 H647 H 0.08386 0.26486 0.24741
 H648 H 0.05269 0.27120 0.26667
 H649 H 0.11510 0.24616 0.24167
 H650 H 0.13276 0.19716 0.28298
 H651 H 0.04310 0.21455 0.33727
 H652 H 0.02968 0.26379 0.29481
 H653 H 0.10236 0.20233 0.30294
 H654 H 0.07462 0.20734 0.31941
 C655 C 0.59551 0.73067 0.78642
 C656 C 0.59972 0.74342 0.76920
 C657 C 0.61684 0.73953 0.75676
 C658 C 0.63002 0.72298 0.76107
 C659 C 0.62592 0.71050 0.77827
 C660 C 0.60895 0.71426 0.79079
 C661 C 0.57679 0.73513 0.79904
 C662 C 0.57106 0.72328 0.81636
 C663 C 0.55319 0.72779 0.82727
 C664 C 0.54057 0.74421 0.82125
 C665 C 0.54632 0.75629 0.80424
 C666 C 0.56419 0.75187 0.79312
 C667 C 0.58673 0.75989 0.76434
 C668 C 0.56937 0.76402 0.77604
 H669 H 0.58998 0.76968 0.75118
 H670 H 0.55975 0.77687 0.77154
 H671 H 0.61961 0.74930 0.74351
 H672 H 0.63583 0.69775 0.78220
 H673 H 0.54901 0.71812 0.84024
 H674 H 0.53686 0.76924 0.79965
 H675 H 0.60663 0.70408 0.80373
 H676 H 0.58001 0.71035 0.82163
 C677 C 0.40986 0.77385 0.78474
 C678 C 0.40622 0.76155 0.76705
 C679 C 0.38859 0.76468 0.75484
 C680 C 0.37427 0.77994 0.75990
 C681 C 0.37789 0.79203 0.77754
 C682 C 0.39539 0.78906 0.78978
 C683 C 0.42898 0.77009 0.79728
 C684 C 0.43416 0.78156 0.81507
 C685 C 0.45217 0.77744 0.82616
 C686 C 0.46551 0.76180 0.81985
 C687 C 0.46048 0.75028 0.80219
 C688 C 0.44245 0.75430 0.79089
 C689 C 0.42019 0.74618 0.76160
 C690 C 0.43788 0.74262 0.77328
 H691 H 0.41739 0.73674 0.74807
 H692 H 0.44819 0.73053 0.76840
 H693 H 0.38621 0.75521 0.74129
 H694 H 0.36717 0.80383 0.78206
 H695 H 0.45581 0.78671 0.83961
 H696 H 0.47051 0.73794 0.79734
 H697 H 0.39723 0.79885 0.80311
 H698 H 0.42460 0.79384 0.82065
 C699 C -0.09722 0.27069 0.28279
 C700 C -0.10176 0.25798 0.26561
 C701 C -0.11974 0.26116 0.25391
 C702 C -0.13361 0.27694 0.25897
 C703 C -0.12894 0.28947 0.27613
 C704 C -0.11110 0.28643 0.28783
 C705 C -0.07784 0.26676 0.29486
 C706 C -0.07188 0.27856 0.31221
 C707 C -0.05373 0.27421 0.32295
 C708 C -0.04100 0.25803 0.31673
 C709 C -0.04676 0.24623 0.29946
 C710 C -0.06498 0.25045 0.28853
 C711 C -0.08835 0.24211 0.26016
 C712 C -0.07038 0.23842 0.27138
 H713 H -0.09181 0.23234 0.24699
 H714 H -0.06054 0.22593 0.26653
 H715 H -0.12274 0.25117 0.24086
 H716 H -0.13900 0.30179 0.28077
 H717 H -0.04950 0.28372 0.33607
 H718 H -0.03718 0.23351 0.29468
 H719 H -0.10853 0.29659 0.30076
 H720 H -0.08095 0.29123 0.31773
 C721 C -0.09148 0.73726 0.21595
 C722 C -0.10597 0.72192 0.20963
 C723 C -0.12395 0.71834 0.22113
 C724 C -0.12781 0.72975 0.23906
 C725 C -0.11342 0.74503 0.24516
 C726 C -0.09556 0.74875 0.23382
 C727 C -0.07234 0.74039 0.20343
 C728 C -0.05693 0.75517 0.20848
 C729 C -0.03919 0.75719 0.19660
 C730 C -0.03627 0.74459 0.17933
 C731 C -0.05165 0.73003 0.17397
 C732 C -0.06956 0.72782 0.18586
 C733 C -0.10239 0.71015 0.19196
 C734 C -0.08458 0.71302 0.18035
 H735 H -0.11349 0.69842 0.18708
 H736 H -0.08250 0.70341 0.16688
 H737 H -0.13485 0.70656 0.21603
 H738 H -0.11575 0.75413 0.25886
 H739 H -0.02773 0.76879 0.20087
 H740 H -0.04948 0.72009 0.16076
 H741 H -0.08514 0.76063 0.23944
 H742 H -0.05820 0.76531 0.22155
 C743 C 0.40351 0.24277 0.71813
 C744 C 0.39048 0.22588 0.71271
 C745 C 0.37309 0.22104 0.72466
 C746 C 0.36826 0.23275 0.74221
 C747 C 0.38097 0.24994 0.74706
 C748 C 0.39827 0.25486 0.73527
 C749 C 0.42247 0.24680 0.70554
 C750 C 0.43694 0.26261 0.71025
 C751 C 0.45483 0.26509 0.69864
 C752 C 0.45875 0.25201 0.68197
 C753 C 0.44421 0.23656 0.67681
 C754 C 0.42627 0.23374 0.68854
 C755 C 0.39498 0.21374 0.69551
 C756 C 0.41243 0.21763 0.68365
 H757 H 0.38494 0.20087 0.69124
 H758 H 0.41531 0.20765 0.67062
 H759 H 0.36354 0.20792 0.72019
 H760 H 0.37790 0.25964 0.76018
 H761 H 0.46574 0.27727 0.70278
 H762 H 0.44724 0.22622 0.66409
 H763 H 0.40740 0.26811 0.73999
 H764 H 0.43494 0.27304 0.72298
 C765 C 0.59256 0.26505 0.71806
 C766 C 0.60750 0.27937 0.71077
 C767 C 0.62616 0.28240 0.72158
 C768 C 0.63041 0.27132 0.73978
 C769 C 0.61541 0.25709 0.74684
 C770 C 0.59686 0.25400 0.73622
 C771 C 0.57279 0.26236 0.70615
 C772 C 0.55693 0.24855 0.71220
 C773 C 0.53871 0.24681 0.70075
 C774 C 0.53575 0.25870 0.68296
 C775 C 0.55152 0.27234 0.67665
 C776 C 0.56992 0.27428 0.68810
 C777 C 0.60372 0.29064 0.69274
 C778 C 0.58535 0.28815 0.68166
 H779 H 0.61515 0.30161 0.68710
 H780 H 0.58319 0.29729 0.66785
 H781 H 0.63728 0.29345 0.71562
 H782 H 0.61776 0.24816 0.76069
 H783 H 0.52692 0.23593 0.70576
 H784 H 0.54930 0.28175 0.66302
 H785 H 0.58612 0.24289 0.74257
 H786 H 0.55822 0.23896 0.72570
 C787 C 0.09736 0.76478 0.21083
 C788 C 0.10024 0.75313 0.22905
 C789 C 0.11794 0.75634 0.24128
 C790 C 0.13303 0.77109 0.23575
 C791 C 0.13022 0.78242 0.21754
 C792 C 0.11269 0.77935 0.20525
 C793 C 0.07801 0.76118 0.19845
 C794 C 0.07349 0.77216 0.18025
 C795 C 0.05499 0.76861 0.16959
 C796 C 0.04052 0.75401 0.17673
 C797 C 0.04504 0.74274 0.19463
 C798 C 0.06353 0.74625 0.20553
 C799 C 0.08538 0.73845 0.23507
 C800 C 0.06745 0.73507 0.22356
 H801 H 0.08760 0.72949 0.24899
 H802 H 0.05638 0.72361 0.22896
 H803 H 0.11972 0.74744 0.25527
 H804 H 0.14156 0.79377 0.21262
 H805 H 0.05180 0.77768 0.15596
 H806 H 0.03411 0.73118 0.20012
 H807 H 0.11145 0.78860 0.19150
 H808 H 0.08387 0.78373 0.17409
 C809 C 0.28078 0.09106 0.23632
 C810 C 0.28729 0.10513 0.22092
 C811 C 0.27593 0.12308 0.21696
 C812 C 0.25795 0.12734 0.22806
 C813 C 0.25165 0.11336 0.24339
 C814 C 0.26285 0.09552 0.24749
 C815 C 0.29322 0.07196 0.23992
 C816 C 0.28801 0.05696 0.25483
 C817 C 0.29993 0.03933 0.25741
 C818 C 0.31738 0.03611 0.24525
 C819 C 0.32282 0.05103 0.23048
 C820 C 0.31091 0.06883 0.22773
 C821 C 0.30503 0.10118 0.20948
 C822 C 0.31656 0.08343 0.21279
 H823 H 0.31004 0.11196 0.19769
 H824 H 0.33012 0.08106 0.20346
 H825 H 0.28119 0.13366 0.20514
 H826 H 0.23790 0.11601 0.25226
 H827 H 0.29559 0.02824 0.26916
 H828 H 0.33615 0.04860 0.22086
 H829 H 0.25709 0.08542 0.25940
 H830 H 0.27482 0.05850 0.26468
 C831 C 0.78018 0.59094 0.73216
 C832 C 0.78574 0.60399 0.71556
 C833 C 0.77422 0.62176 0.71122
 C834 C 0.75707 0.62689 0.72321
 C835 C 0.75187 0.61406 0.73987
 C836 C 0.76320 0.59638 0.74430
 C837 C 0.79255 0.57184 0.73596
 C838 C 0.78791 0.55757 0.75173
 C839 C 0.79967 0.53983 0.75441
 C840 C 0.81639 0.53582 0.74153
 C841 C 0.82129 0.55001 0.72590
 C842 C 0.80947 0.56786 0.72296
 C843 C 0.80271 0.59919 0.70330
 C844 C 0.81434 0.58156 0.70696
 H845 H 0.80704 0.60921 0.69063
 H846 H 0.82728 0.57853 0.69700
 H847 H 0.77857 0.63142 0.69831
 H848 H 0.73896 0.61757 0.74964
 H849 H 0.79574 0.52926 0.76675
 H850 H 0.83405 0.54692 0.71571
 H851 H 0.75832 0.58722 0.75729
 H852 H 0.77524 0.55970 0.76211
 C853 C 0.78688 0.40123 0.76586
 C854 C 0.76891 0.39708 0.75399
 C855 C 0.75773 0.37851 0.75680
 C856 C 0.76416 0.36379 0.77134
 C857 C 0.78203 0.36800 0.78302
 C858 C 0.79322 0.38639 0.78036
 C859 C 0.79835 0.42125 0.76241
 C860 C 0.81634 0.42689 0.77349
 C861 C 0.82645 0.44570 0.76970
 C862 C 0.81894 0.45943 0.75480
 C863 C 0.80104 0.45397 0.74368
 C864 C 0.79072 0.43509 0.74737
 C865 C 0.76218 0.41146 0.73936
 C866 C 0.77286 0.43003 0.73610
 H867 H 0.74843 0.40831 0.73024
 H868 H 0.76702 0.44063 0.72459
 H869 H 0.74400 0.37565 0.74762
 H870 H 0.78758 0.35710 0.79432
 H871 H 0.84006 0.44965 0.77870
 H872 H 0.79524 0.46434 0.73193
 H873 H 0.80679 0.38861 0.78983
 H874 H 0.82286 0.41708 0.78520
 C875 C 0.28811 -0.09785 0.26946
 C876 C 0.27092 -0.10250 0.25668
 C877 C 0.25923 -0.12066 0.25989
 C878 C 0.26410 -0.13444 0.27597
 C879 C 0.28125 -0.12965 0.28858
 C880 C 0.29307 -0.11173 0.28539
 C881 C 0.30007 -0.07819 0.26561
 C882 C 0.31760 -0.07225 0.27727
 C883 C 0.32791 -0.05356 0.27333
 C884 C 0.32104 -0.04030 0.25773
 C885 C 0.30381 -0.04620 0.24582
 C886 C 0.29335 -0.06497 0.24960
 C887 C 0.26531 -0.08890 0.24088
 C888 C 0.27622 -0.07051 0.23747
 H889 H 0.25213 -0.09244 0.23108
 H890 H 0.27113 -0.06044 0.22516
 H891 H 0.24615 -0.12371 0.24988
 H892 H 0.28580 -0.13969 0.30107
 H893 H 0.34108 -0.04928 0.28283
 H894 H 0.29859 -0.03619 0.23350
 H895 H 0.30593 -0.10901 0.29568
 H896 H 0.32355 -0.08170 0.28956
 C897 C 0.21610 -0.09587 0.73040
 C898 C 0.23388 -0.09957 0.74251
 C899 C 0.24597 -0.11702 0.73879
 C900 C 0.24084 -0.13108 0.72294
 C901 C 0.22302 -0.12731 0.71108
 C902 C 0.21085 -0.11006 0.71474
 C903 C 0.20381 -0.07685 0.73468
 C904 C 0.18584 -0.07174 0.72354
 C905 C 0.17524 -0.05361 0.72784
 C906 C 0.18223 -0.04008 0.74332
 C907 C 0.19992 -0.04516 0.75470
 C908 C 0.21070 -0.06335 0.75052
 C909 C 0.23968 -0.08573 0.75816
 C910 C 0.22837 -0.06800 0.76205
 H911 H 0.25329 -0.08856 0.76747
 H912 H 0.23360 -0.05772 0.77423
 H913 H 0.25951 -0.11933 0.74828
 H914 H 0.21826 -0.13761 0.69879
 H915 H 0.16173 -0.04994 0.71871
 H916 H 0.20526 -0.03496 0.76691
 H917 H 0.19748 -0.10811 0.70501
 H918 H 0.17978 -0.08141 0.71136
 C919 C 0.71054 0.40474 0.23278
 C920 C 0.72874 0.40111 0.24429
 C921 C 0.74019 0.38315 0.24086
 C922 C 0.73382 0.36854 0.22605
 C923 C 0.71556 0.37207 0.21491
 C924 C 0.70409 0.38985 0.21819
 C925 C 0.69902 0.42433 0.23658
 C926 C 0.68103 0.42963 0.22558
 C927 C 0.67105 0.44820 0.22948
 C928 C 0.67865 0.46199 0.24446
 C929 C 0.69648 0.45680 0.25559
 C930 C 0.70672 0.43821 0.25172
 C931 C 0.73549 0.41545 0.25911
 C932 C 0.72468 0.43356 0.26279
 H933 H 0.74939 0.41266 0.26799
 H934 H 0.73059 0.44417 0.27439
 H935 H 0.75422 0.38078 0.24963
 H936 H 0.70998 0.36108 0.20358
 H937 H 0.65751 0.45196 0.22044
 H938 H 0.70237 0.46721 0.26738
 H939 H 0.69024 0.39160 0.20911
 H940 H 0.67449 0.41981 0.21376
 C941 C 0.71912 0.59439 0.26595
 C942 C 0.71267 0.60826 0.28139
 C943 C 0.72406 0.62651 0.28532
 C944 C 0.74197 0.63129 0.27414
 C945 C 0.74826 0.61748 0.25883
 C946 C 0.73705 0.59933 0.25477
 C947 C 0.70662 0.57499 0.26233
 C948 C 0.71174 0.56021 0.24735
 C949 C 0.69976 0.54228 0.24474
 C950 C 0.68235 0.53856 0.25695
 C951 C 0.67698 0.55328 0.27177
 C952 C 0.68894 0.57138 0.27455
 C953 C 0.69495 0.60381 0.29287
 C954 C 0.68337 0.58577 0.28954
 H955 H 0.68999 0.61442 0.30469
 H956 H 0.66983 0.58303 0.29890
 H957 H 0.71882 0.63699 0.29711
 H958 H 0.76202 0.62049 0.24997
 H959 H 0.70404 0.53136 0.23294
 H960 H 0.66366 0.55048 0.28142
 H961 H 0.74279 0.58939 0.24287
 H962 H 0.72489 0.56213 0.23746
 C963 C 0.21961 0.09321 0.76498
 C964 C 0.21336 0.10650 0.78098
 C965 C 0.22440 0.12493 0.78500
 C966 C 0.24177 0.13049 0.77332
 C967 C 0.24773 0.11739 0.75727
 C968 C 0.23685 0.09905 0.75313
 C969 C 0.20764 0.07346 0.76148
 C970 C 0.21282 0.05899 0.74622
 C971 C 0.20134 0.04072 0.74375
 C972 C 0.18438 0.03635 0.75638
 C973 C 0.17901 0.05070 0.77154
 C974 C 0.19050 0.06910 0.77422
 C975 C 0.19621 0.10129 0.79300
 C976 C 0.18501 0.08303 0.78967
 H977 H 0.19139 0.11148 0.80524
 H978 H 0.17189 0.07970 0.79943
 H979 H 0.21950 0.13473 0.79748
 H980 H 0.26086 0.12123 0.74778
 H981 H 0.20564 0.03004 0.73175
 H982 H 0.16606 0.04737 0.78154
 H983 H 0.24227 0.08968 0.74062
 H984 H 0.22568 0.06141 0.73603
 C985 C 0.23295 0.28203 0.09469
 C986 C 0.21766 0.28854 0.10860
 C987 C 0.21367 0.27703 0.12653
 C988 C 0.22464 0.25891 0.13090
 C989 C 0.23986 0.25263 0.11708
 C990 C 0.24399 0.26397 0.09928
 C991 C 0.23651 0.29455 0.07556
 C992 C 0.25129 0.28931 0.06072
 C993 C 0.25366 0.30114 0.04292
 C994 C 0.24143 0.31853 0.03938
 C995 C 0.22692 0.32413 0.05423
 C996 C 0.22435 0.31228 0.07219
 C997 C 0.20633 0.30639 0.10448
 C998 C 0.20958 0.31799 0.08667
 H999 H 0.19464 0.31142 0.11514
 H1000 H 0.20030 0.33159 0.08414
 H1001 H 0.20196 0.28227 0.13702
 H1002 H 0.24858 0.23874 0.11977
 H1003 H 0.26523 0.29670 0.03189
 H1004 H 0.21727 0.33745 0.05158
 H1005 H 0.25579 0.25818 0.08929
 H1006 H 0.26116 0.27613 0.06247
 C1007 C 0.72990 0.78653 0.59357
 C1008 C 0.74188 0.76870 0.59705
 C1009 C 0.73859 0.75648 0.61464
 C1010 C 0.72347 0.76170 0.62905
 C1011 C 0.71184 0.77958 0.62564
 C1012 C 0.71497 0.79180 0.60821
 C1013 C 0.73365 0.79896 0.57441
 C1014 C 0.72228 0.81672 0.56932
 C1015 C 0.72629 0.82767 0.55124
 C1016 C 0.74172 0.82129 0.53774
 C1017 C 0.75316 0.80365 0.54268
 C1018 C 0.74921 0.79245 0.56079
 C1019 C 0.75705 0.76313 0.58294
 C1020 C 0.76067 0.77478 0.56524
 H1021 H 0.76627 0.74951 0.58560
 H1022 H 0.77258 0.76978 0.55482
 H1023 H 0.74779 0.74281 0.61692
 H1024 H 0.70020 0.78430 0.63641
 H1025 H 0.71704 0.84105 0.54767
 H1026 H 0.76531 0.79871 0.53250
 H1027 H 0.70550 0.80529 0.60654
 H1028 H 0.71013 0.82235 0.57896
 C1029 C 0.77071 0.78829 0.40637
 C1030 C 0.75887 0.77012 0.40257
 C1031 C 0.76242 0.75821 0.38491
 C1032 C 0.77768 0.76408 0.37072
 C1033 C 0.78922 0.78225 0.37447
 C1034 C 0.78583 0.79418 0.39199
 C1035 C 0.76660 0.80042 0.42556
 C1036 C 0.77776 0.81853 0.43093
 C1037 C 0.77344 0.82917 0.44904
 C1038 C 0.75789 0.82211 0.46230
 C1039 C 0.74665 0.80412 0.45707
 C1040 C 0.75092 0.79325 0.43893
 C1041 C 0.74355 0.76388 0.41644
 C1042 C 0.73963 0.77522 0.43418
 H1043 H 0.73444 0.74999 0.41354
 H1044 H 0.72761 0.76972 0.44441
 H1045 H 0.75332 0.74427 0.38239
 H1046 H 0.80097 0.78745 0.36388
 H1047 H 0.78256 0.84282 0.45284
 H1048 H 0.73442 0.79865 0.46706
 H1049 H 0.79524 0.80794 0.39391
 H1050 H 0.78998 0.82469 0.42148
 C1051 C 0.26029 0.28566 -0.09314
 C1052 C 0.27644 0.29251 -0.10611
 C1053 C 0.28104 0.28144 -0.12407
 C1054 C 0.26980 0.26347 -0.12941
 C1055 C 0.25357 0.25697 -0.11667
 C1056 C 0.24886 0.26786 -0.09883
 C1057 C 0.25629 0.29754 -0.07378
 C1058 C 0.24096 0.29166 -0.05958
 C1059 C 0.23827 0.30283 -0.04147
 C1060 C 0.25070 0.32019 -0.03700
 C1061 C 0.26576 0.32644 -0.05120
 C1062 C 0.26872 0.31521 -0.06942
 C1063 C 0.28803 0.31026 -0.10101
 C1064 C 0.28423 0.32138 -0.08309
 H1065 H 0.30035 0.31558 -0.11097
 H1066 H 0.29373 0.33492 -0.07979
 H1067 H 0.29344 0.28688 -0.13383
 H1068 H 0.24460 0.24317 -0.12019
 H1069 H 0.22635 0.29787 -0.03090
 H1070 H 0.27558 0.33974 -0.04778
 H1071 H 0.23631 0.26192 -0.08967
 H1072 H 0.23097 0.27841 -0.06203
 C1073 C 0.73916 0.21158 -0.09658
 C1074 C 0.72347 0.20459 -0.11026
 C1075 C 0.71975 0.21525 -0.12873
 C1076 C 0.73153 0.23285 -0.13397
 C1077 C 0.74729 0.23952 -0.12053
 C1078 C 0.75107 0.22909 -0.10211
 C1079 C 0.74230 0.20005 -0.07678
 C1080 C 0.75704 0.20613 -0.06185
 C1081 C 0.75906 0.19513 -0.04348
 C1082 C 0.74654 0.17774 -0.03952
 C1083 C 0.73197 0.17141 -0.05436
 C1084 C 0.72966 0.18247 -0.07282
 C1085 C 0.71154 0.18704 -0.10542
 C1086 C 0.71462 0.17618 -0.08716
 H1087 H 0.69958 0.18163 -0.11592
 H1088 H 0.70494 0.16273 -0.08413
 H1089 H 0.70773 0.20970 -0.13906
 H1090 H 0.75659 0.25308 -0.12403
 H1091 H 0.77058 0.20018 -0.03235
 H1092 H 0.72205 0.15813 -0.05130
 H1093 H 0.76333 0.23508 -0.09244
 H1094 H 0.76709 0.21938 -0.06393
 C1095 C 0.23160 0.70954 0.40595
 C1096 C 0.24380 0.72747 0.40227
 C1097 C 0.24061 0.73930 0.38442
 C1098 C 0.22538 0.73361 0.36993
 C1099 C 0.21344 0.71570 0.37358
 C1100 C 0.21647 0.70384 0.39128
 C1101 C 0.23536 0.69749 0.42534
 C1102 C 0.22393 0.67956 0.43060
 C1103 C 0.22793 0.66902 0.44892
 C1104 C 0.24342 0.67601 0.46251
 C1105 C 0.25495 0.69379 0.45737
 C1106 C 0.25102 0.70456 0.43902
 C1107 C 0.25908 0.73358 0.41643
 C1108 C 0.26264 0.72235 0.43438
 H1109 H 0.26845 0.74730 0.41361
 H1110 H 0.27464 0.72776 0.44484
 H1111 H 0.24999 0.75305 0.38202
 H1112 H 0.20167 0.71068 0.36275
 H1113 H 0.21863 0.65549 0.45263
 H1114 H 0.26716 0.69918 0.46760
 H1115 H 0.20677 0.69029 0.39314
 H1116 H 0.21175 0.67348 0.42088
 C1117 C 0.27178 0.71251 0.59380
 C1118 C 0.25989 0.73040 0.59704
 C1119 C 0.26335 0.74270 0.61456
 C1120 C 0.27854 0.73751 0.62913
 C1121 C 0.29011 0.71960 0.62595
 C1122 C 0.28682 0.70728 0.60858
 C1123 C 0.26781 0.69996 0.57473
 C1124 C 0.27905 0.68212 0.56987
 C1125 C 0.27484 0.67105 0.55186
 C1126 C 0.25933 0.67741 0.53820
 C1127 C 0.24802 0.69514 0.54290
 C1128 C 0.25217 0.70645 0.56093
 C1129 C 0.24463 0.73595 0.58278
 C1130 C 0.24082 0.72420 0.56516
 H1131 H 0.23548 0.74962 0.58528
 H1132 H 0.22884 0.72918 0.55461
 H1133 H 0.25426 0.75646 0.61664
 H1134 H 0.30178 0.71493 0.63690
 H1135 H 0.28401 0.65761 0.54846
 H1136 H 0.23583 0.70006 0.53258
 H1137 H 0.29623 0.69375 0.60709
 H1138 H 0.29125 0.67649 0.57964
 C1139 C 0.76098 0.21513 0.09291
 C1140 C 0.77614 0.20861 0.10720
 C1141 C 0.77989 0.22005 0.12525
 C1142 C 0.76882 0.23811 0.12937
 C1143 C 0.75370 0.24439 0.11520
 C1144 C 0.74981 0.23311 0.09728
 C1145 C 0.75772 0.20271 0.07364
 C1146 C 0.74316 0.20802 0.05838
 C1147 C 0.74111 0.19630 0.04046
 C1148 C 0.75343 0.17895 0.03724
 C1149 C 0.76771 0.17329 0.05249
 C1150 C 0.76998 0.18503 0.07056
 C1151 C 0.78758 0.19082 0.10334
 C1152 C 0.78459 0.17930 0.08541
 H1153 H 0.79917 0.18578 0.11429
 H1154 H 0.79395 0.16574 0.08309
 H1155 H 0.79150 0.21480 0.13603
 H1156 H 0.74492 0.25825 0.11772
 H1157 H 0.72974 0.20078 0.02907
 H1158 H 0.77745 0.16002 0.05007
 H1159 H 0.73808 0.23888 0.08702
 H1160 H 0.73326 0.22118 0.05988
 C1161 C 0.48426 0.34415 0.53313
 C1162 C 0.46863 0.35791 0.53917
 C1163 C 0.46512 0.37610 0.52786
 C1164 C 0.47696 0.38092 0.51042
 C1165 C 0.49232 0.36709 0.50443
 C1166 C 0.49594 0.34902 0.51556
 C1167 C 0.48761 0.32498 0.54568
 C1168 C 0.50291 0.31045 0.54106
 C1169 C 0.50535 0.29277 0.55312
 C1170 C 0.49264 0.28903 0.57012
 C1171 C 0.47746 0.30349 0.57499
 C1172 C 0.47487 0.32136 0.56294
 C1173 C 0.45659 0.35345 0.55647
 C1174 C 0.45961 0.33556 0.56806
 H1175 H 0.44460 0.36396 0.56112
 H1176 H 0.44985 0.33282 0.58128
 H1177 H 0.45315 0.38646 0.53277
 H1178 H 0.50174 0.37011 0.49109
 H1179 H 0.51742 0.28207 0.54923
 H1180 H 0.46744 0.30068 0.58800
 H1181 H 0.50796 0.33912 0.51009
 H1182 H 0.51323 0.31240 0.52826
 C1183 C -0.01912 0.84414 0.03488
 C1184 C -0.00773 0.84732 0.01663
 C1185 C -0.01077 0.86518 0.00472
 C1186 C -0.02508 0.88015 0.01064
 C1187 C -0.03616 0.87702 0.02887
 C1188 C -0.03326 0.85933 0.04082
 C1189 C -0.01564 0.82469 0.04698
 C1190 C -0.02639 0.81990 0.06519
 C1191 C -0.02277 0.80146 0.07573
 C1192 C -0.00834 0.78728 0.06847
 C1193 C 0.00255 0.79197 0.05044
 C1194 C -0.00102 0.81044 0.03966
 C1195 C 0.00658 0.83262 0.01030
 C1196 C 0.00989 0.81461 0.02158
 H1197 H 0.01534 0.83506 -0.00365
 H1198 H 0.02110 0.80371 0.01599
 H1199 H -0.00208 0.86721 -0.00931
 H1200 H -0.04714 0.88828 0.03409
 H1201 H -0.03157 0.79811 0.08946
 H1202 H 0.01395 0.78128 0.04483
 H1203 H -0.04228 0.85789 0.05463
 H1204 H -0.03777 0.83007 0.07149
 C1205 C 0.01092 0.65475 0.03138
 C1206 C 0.02694 0.64140 0.03756
 C1207 C 0.03080 0.62330 0.02633
 C1208 C 0.01896 0.61817 0.00882
 C1209 C 0.00297 0.63140 0.00288
 C1210 C -0.00102 0.64938 0.01395
 C1211 C 0.00755 0.67411 0.04357
 C1212 C -0.00784 0.68851 0.03855
 C1213 C -0.01008 0.70650 0.05012
 C1214 C 0.00288 0.71067 0.06702
 C1215 C 0.01807 0.69630 0.07233
 C1216 C 0.02053 0.67817 0.06075
 C1217 C 0.03913 0.64624 0.05483
 C1218 C 0.03599 0.66421 0.06616
 H1219 H 0.05137 0.63600 0.05961
 H1220 H 0.04591 0.66728 0.07933
 H1221 H 0.04314 0.61332 0.03130
 H1222 H -0.00653 0.62805 -0.01046
 H1223 H -0.02214 0.71717 0.04590
 H1224 H 0.02831 0.69947 0.08525
 H1225 H -0.01346 0.65887 0.00849
 H1226 H -0.01827 0.68626 0.02574
 C1227 C 0.51853 0.15646 0.54071
 C1228 C 0.50647 0.15249 0.52288
 C1229 C 0.51013 0.13492 0.51085
 C1230 C 0.52578 0.12100 0.51614
 C1231 C 0.53760 0.12489 0.53393
 C1232 C 0.53406 0.14233 0.54607
 C1233 C 0.51433 0.17568 0.55289
 C1234 C 0.52551 0.18124 0.57079
 C1235 C 0.52132 0.19961 0.58122
 C1236 C 0.50592 0.21292 0.57410
 C1237 C 0.49445 0.20732 0.55653
 C1238 C 0.49855 0.18896 0.54591
 C1239 C 0.49091 0.16614 0.51700
 C1240 C 0.48704 0.18397 0.52826
 H1241 H 0.48164 0.16307 0.50337
 H1242 H 0.47491 0.19410 0.52296
 H1243 H 0.50084 0.13235 0.49718
 H1244 H 0.54968 0.11448 0.53861
 H1245 H 0.53050 0.20364 0.59465
 H1246 H 0.48226 0.21732 0.55111
 H1247 H 0.54371 0.14448 0.55949
 H1248 H 0.53766 0.17175 0.57689
 C1249 C -0.01362 0.15603 0.46460
 C1250 C -0.02950 0.14194 0.45873
 C1251 C -0.03307 0.12386 0.47031
 C1252 C -0.02100 0.11948 0.48778
 C1253 C -0.00511 0.13342 0.49333
 C1254 C -0.00145 0.15138 0.48197
 C1255 C -0.01056 0.17535 0.45212
 C1256 C 0.00450 0.19054 0.45700
 C1257 C 0.00642 0.20849 0.44521
 C1258 C -0.00653 0.21180 0.42820
 C1259 C -0.02139 0.19665 0.42299
 C1260 C -0.02357 0.17858 0.43486
 C1261 C -0.04178 0.14601 0.44141
 C1262 C -0.03884 0.16390 0.42971
 H1263 H -0.05390 0.13522 0.43685
 H1264 H -0.04881 0.16635 0.41650
 H1265 H -0.04539 0.11335 0.46570
 H1266 H 0.00469 0.13058 0.50652
 H1267 H 0.01818 0.21983 0.44937
 H1268 H -0.03161 0.19919 0.40999
 H1269 H 0.01098 0.16138 0.48713
 H1270 H 0.01489 0.18900 0.46991
 C1271 C 0.48421 0.65332 0.96142
 C1272 C 0.49529 0.65034 0.98000
 C1273 C 0.49202 0.63234 0.99170
 C1274 C 0.47778 0.61706 0.98526
 C1275 C 0.46705 0.61994 0.96668
 C1276 C 0.47020 0.63777 0.95490
 C1277 C 0.48780 0.67301 0.94965
 C1278 C 0.47729 0.67767 0.93119
 C1279 C 0.48086 0.69642 0.92106
 C1280 C 0.49500 0.71103 0.92899
 C1281 C 0.50573 0.70644 0.94722
 C1282 C 0.50220 0.68767 0.95759
 C1283 C 0.50944 0.66540 0.98692
 C1284 C 0.51286 0.68364 0.97594
 H1285 H 0.51798 0.66310 1.00112
 H1286 H 0.52391 0.69484 0.98201
 H1287 H 0.50041 0.63049 1.00603
 H1288 H 0.45616 0.60841 0.96107
 H1289 H 0.47218 0.69968 0.90716
 H1290 H 0.51691 0.71749 0.95334
 H1291 H 0.46144 0.63904 0.94081
 H1292 H 0.46610 0.66720 0.92441
 C1293 C 0.51142 0.84409 0.96864
 C1294 C 0.52663 0.85858 0.96223
 C1295 C 0.53017 0.87681 0.97352
 C1296 C 0.51886 0.88098 0.99137
 C1297 C 0.50369 0.86662 0.99759
 C1298 C 0.50000 0.84847 0.98643
 C1299 C 0.50834 0.82467 0.95627
 C1300 C 0.49367 0.80923 0.96136
 C1301 C 0.49167 0.79127 0.94953
 C1302 C 0.50419 0.78820 0.93233
 C1303 C 0.51870 0.80357 0.92702
 C1304 C 0.52086 0.82168 0.93880
 C1305 C 0.53836 0.85475 0.94466
 C1306 C 0.53556 0.83670 0.93323
 H1307 H 0.54999 0.86585 0.93973
 H1308 H 0.54511 0.83443 0.91983
 H1309 H 0.54187 0.88766 0.96832
 H1310 H 0.49464 0.86922 1.01121
 H1311 H 0.48012 0.77981 0.95379
 H1312 H 0.52863 0.80125 0.91390
 H1313 H 0.48821 0.83806 0.99209
 H1314 H 0.48360 0.81066 0.97438
 C1315 C 0.01296 0.34537 0.46098
 C1316 C 0.00212 0.34762 0.47965
 C1317 C 0.00584 0.36497 0.49223
 C1318 C 0.02032 0.38027 0.48658
 C1319 C 0.03064 0.37820 0.46780
 C1320 C 0.02704 0.36106 0.45518
 C1321 C 0.00914 0.32624 0.44838
 C1322 C 0.01964 0.32220 0.42993
 C1323 C 0.01606 0.30381 0.41915
 C1324 C 0.00189 0.28897 0.42637
 C1325 C -0.00893 0.29301 0.44453
 C1326 C -0.00534 0.31138 0.45560
 C1327 C -0.01220 0.33245 0.48578
 C1328 C -0.01590 0.31476 0.47398
 H1329 H -0.02059 0.33420 0.50001
 H1330 H -0.02702 0.30342 0.47949
 H1331 H -0.00233 0.36625 0.50663
 H1332 H 0.04164 0.38981 0.46273
 H1333 H 0.02483 0.30099 0.40534
 H1334 H -0.02014 0.28179 0.45012
 H1335 H 0.03556 0.36040 0.44102
 H1336 H 0.03091 0.33284 0.42369
 C1337 C 0.34575 0.53398 0.48158
 C1338 C 0.35042 0.51692 0.49438
 C1339 C 0.36871 0.50587 0.49145
 C1340 C 0.38261 0.51154 0.47588
 C1341 C 0.37783 0.52847 0.46323
 C1342 C 0.35974 0.53951 0.46599
 C1343 C 0.32616 0.54545 0.48526
 C1344 C 0.32017 0.56265 0.47338
 C1345 C 0.30188 0.57293 0.47754
 C1346 C 0.28903 0.56638 0.49359
 C1347 C 0.29477 0.54919 0.50544
 C1348 C 0.31317 0.53873 0.50142
 C1349 C 0.33685 0.51102 0.51006
 C1350 C 0.31865 0.52169 0.51351
 H1351 H 0.34038 0.49796 0.51988
 H1352 H 0.30870 0.51653 0.52588
 H1353 H 0.37202 0.49286 0.50138
 H1354 H 0.38807 0.53342 0.45110
 H1355 H 0.29767 0.58595 0.46797
 H1356 H 0.28507 0.54414 0.51804
 H1357 H 0.35710 0.55234 0.45576
 H1358 H 0.32931 0.56844 0.46081
 C1359 C 0.84607 0.03601 -0.01933
 C1360 C 0.84976 0.01802 -0.00751
 C1361 C 0.86759 0.00640 -0.01080
 C1362 C 0.88203 0.01237 -0.02576
 C1363 C 0.87842 0.03041 -0.03722
 C1364 C 0.86076 0.04206 -0.03409
 C1365 C 0.82665 0.04777 -0.01561
 C1366 C 0.82132 0.06560 -0.02686
 C1367 C 0.80296 0.07586 -0.02296
 C1368 C 0.78940 0.06868 -0.00775
 C1369 C 0.79459 0.05098 0.00359
 C1370 C 0.81298 0.04048 -0.00026
 C1371 C 0.83562 0.01168 0.00749
 C1372 C 0.81767 0.02270 0.01108
 H1373 H 0.83845 -0.00206 0.01660
 H1374 H 0.80722 0.01712 0.02284
 H1375 H 0.87001 -0.00743 -0.00175
 H1376 H 0.88924 0.03569 -0.04872
 H1377 H 0.79919 0.08929 -0.03215
 H1378 H 0.78436 0.04544 0.01557
 H1379 H 0.85895 0.05571 -0.04343
 H1380 H 0.83099 0.07182 -0.03885
 C1381 C 0.65692 0.03100 0.01591
 C1382 C 0.64357 0.03802 0.03147
 C1383 C 0.62506 0.02727 0.03551
 C1384 C 0.61951 0.00943 0.02432
 C1385 C 0.63280 0.00255 0.00890
 C1386 C 0.65121 0.01313 0.00473
 C1387 C 0.67657 0.04289 0.01213
 C1388 C 0.69086 0.03724 -0.00303
 C1389 C 0.70898 0.04876 -0.00589
 C1390 C 0.71338 0.06622 0.00625
 C1391 C 0.69921 0.07206 0.02133
 C1392 C 0.68093 0.06058 0.02433
 C1393 C 0.64876 0.05569 0.04296
 C1394 C 0.66705 0.06670 0.03949
 H1395 H 0.63855 0.06108 0.05488
 H1396 H 0.67036 0.08025 0.04883
 H1397 H 0.61497 0.03297 0.04737
 H1398 H 0.62916 -0.01120 0.00004
 H1399 H 0.71948 0.04411 -0.01785
 H1400 H 0.70256 0.08541 0.03093
 H1401 H 0.66074 0.00697 -0.00725
 H1402 H 0.68838 0.02403 -0.01290
 C1403 C 0.15679 0.53187 0.52299
 C1404 C 0.15234 0.51452 0.51037
 C1405 C 0.13404 0.50302 0.51315
 C1406 C 0.11989 0.50847 0.52841
 C1407 C 0.12437 0.52566 0.54092
 C1408 C 0.14253 0.53721 0.53828
 C1409 C 0.17646 0.54380 0.51940
 C1410 C 0.18228 0.56139 0.53100
 C1411 C 0.20065 0.57208 0.52688
 C1412 C 0.21374 0.56553 0.51117
 C1413 C 0.20817 0.54797 0.49962
 C1414 C 0.18970 0.53713 0.50358
 C1415 C 0.16613 0.50872 0.49500
 C1416 C 0.18441 0.51977 0.49168
 H1417 H 0.16274 0.49543 0.48534
 H1418 H 0.19454 0.51466 0.47957
 H1419 H 0.13082 0.48993 0.50321
 H1420 H 0.11394 0.53022 0.55294
 H1421 H 0.20473 0.58544 0.53617
 H1422 H 0.21804 0.54294 0.48726
 H1423 H 0.14505 0.55021 0.54841
 H1424 H 0.17291 0.56719 0.54328
 C1425 C 0.15247 0.46548 -0.01169
 C1426 C 0.13870 0.45844 -0.02724
 C1427 C 0.12073 0.46954 -0.03173
 C1428 C 0.11616 0.48779 -0.02104
 C1429 C 0.12981 0.49459 -0.00552
 C1430 C 0.14766 0.48365 -0.00088
 C1431 C 0.17170 0.45340 -0.00765
 C1432 C 0.18646 0.45918 0.00738
 C1433 C 0.20439 0.44777 0.01014
 C1434 C 0.20813 0.43027 -0.00194
 C1435 C 0.19335 0.42413 -0.01669
 C1436 C 0.17527 0.43554 -0.01964
 C1437 C 0.14302 0.44047 -0.03837
 C1438 C 0.16091 0.42929 -0.03467
 H1439 H 0.13246 0.43503 -0.05025
 H1440 H 0.16359 0.41559 -0.04382
 H1441 H 0.11038 0.46388 -0.04366
 H1442 H 0.12692 0.50858 0.00303
 H1443 H 0.21538 0.45264 0.02186
 H1444 H 0.19617 0.41073 -0.02624
 H1445 H 0.15753 0.48981 0.01111
 H1446 H 0.18455 0.47249 0.01713
 C1447 C 0.65657 0.96684 0.48173
 C1448 C 0.65334 0.98473 0.49377
 C1449 C 0.63566 0.99672 0.49062
 C1450 C 0.62092 0.99119 0.47557
 C1451 C 0.62409 0.97327 0.46386
 C1452 C 0.64160 0.96128 0.46686
 C1453 C 0.67579 0.95464 0.48537
 C1454 C 0.68061 0.93683 0.47395
 C1455 C 0.69875 0.92608 0.47785
 C1456 C 0.71260 0.93271 0.49324
 C1457 C 0.70794 0.95043 0.50471
 C1458 C 0.68977 0.96142 0.50086
 C1459 C 0.66780 0.99059 0.50887
 C1460 C 0.68557 0.97916 0.51238
 H1461 H 0.66534 1.00426 0.51815
 H1462 H 0.69626 0.98437 0.52425
 H1463 H 0.63357 1.01046 0.49984
 H1464 H 0.61304 0.96832 0.45229
 H1465 H 0.70209 0.91265 0.46856
 H1466 H 0.71839 0.95557 0.51681
 H1467 H 0.64305 0.94774 0.45734
 H1468 H 0.67070 0.93099 0.46184
 C1469 C 0.84622 0.96536 0.52046
 C1470 C 0.85041 0.98304 0.50824
 C1471 C 0.86888 0.99436 0.51106
 C1472 C 0.88348 0.98836 0.52593
 C1473 C 0.87921 0.97080 0.53798
 C1474 C 0.86091 0.95947 0.53533
 C1475 C 0.82635 0.95366 0.51693
 C1476 C 0.82072 0.93590 0.52830
 C1477 C 0.80214 0.92547 0.52432
 C1478 C 0.78862 0.93240 0.50893
 C1479 C 0.79401 0.95013 0.49759
 C1480 C 0.81269 0.96076 0.50146
 C1481 C 0.83618 0.98929 0.49323
 C1482 C 0.81775 0.97839 0.48990
 H1483 H 0.83936 1.00282 0.48386
 H1484 H 0.80730 0.98385 0.47806
 H1485 H 0.87177 1.00788 0.50162
 H1486 H 0.89004 0.96557 0.54952
 H1487 H 0.79821 0.91201 0.53350
 H1488 H 0.78379 0.95550 0.48549
 H1489 H 0.85866 0.94614 0.54507
 H1490 H 0.83038 0.92980 0.54035
 C1491 C 0.34188 0.46573 0.01512
 C1492 C 0.35597 0.45871 0.03024
 C1493 C 0.37451 0.46968 0.03393
 C1494 C 0.37933 0.48774 0.02280
 C1495 C 0.36533 0.49453 0.00775
 C1496 C 0.34692 0.48375 0.00395
 C1497 C 0.32214 0.45375 0.01182
 C1498 C 0.30709 0.45956 -0.00275
 C1499 C 0.28879 0.44815 -0.00497
 C1500 C 0.28495 0.43062 0.00721
 C1501 C 0.29996 0.42451 0.02158
 C1502 C 0.31843 0.43594 0.02400
 C1503 C 0.35142 0.44085 0.04167
 C1504 C 0.33306 0.42972 0.03863
 H1505 H 0.36219 0.43543 0.05324
 H1506 H 0.33025 0.41607 0.04794
 H1507 H 0.38513 0.46407 0.04551
 H1508 H 0.36835 0.50841 -0.00108
 H1509 H 0.27763 0.45299 -0.01641
 H1510 H 0.29707 0.41108 0.03120
 H1511 H 0.33685 0.48991 -0.00774
 H1512 H 0.30906 0.47286 -0.01259
 C1513 C 0.53455 0.48842 0.34429
 C1514 C 0.54140 0.47294 0.35804
 C1515 C 0.53077 0.46916 0.37646
 C1516 C 0.51323 0.48058 0.38151
 C1517 C 0.50649 0.49588 0.36778
 C1518 C 0.51695 0.49977 0.34947
 C1519 C 0.54631 0.49197 0.32479
 C1520 C 0.54079 0.50704 0.31014
 C1521 C 0.55215 0.50964 0.29216
 C1522 C 0.56933 0.49733 0.28826
 C1523 C 0.57506 0.48236 0.30280
 C1524 C 0.56373 0.47960 0.32095
 C1525 C 0.55880 0.46128 0.35334
 C1526 C 0.56970 0.46452 0.33519
 H1527 H 0.56407 0.44941 0.36385
 H1528 H 0.58303 0.45505 0.33227
 H1529 H 0.53633 0.45737 0.38687
 H1530 H 0.49296 0.50489 0.37098
 H1531 H 0.54759 0.52151 0.28134
 H1532 H 0.58818 0.47261 0.29983
 H1533 H 0.51090 0.51170 0.33961
 H1534 H 0.52779 0.51702 0.31222
 C1535 C 0.03593 -0.01430 0.84334
 C1536 C 0.04193 -0.03026 0.85695
 C1537 C 0.03053 -0.03424 0.87487
 C1538 C 0.01302 -0.02258 0.87953
 C1539 C 0.00725 -0.00670 0.86599
 C1540 C 0.01848 -0.00259 0.84821
 C1541 C 0.04830 -0.01073 0.82422
 C1542 C 0.04348 0.00468 0.80968
 C1543 C 0.05518 0.00712 0.79191
 C1544 C 0.07202 -0.00568 0.78811
 C1545 C 0.07718 -0.02087 0.80264
 C1546 C 0.06545 -0.02351 0.82058
 C1547 C 0.05919 -0.04225 0.85253
 C1548 C 0.07068 -0.03896 0.83474
 H1549 H 0.06384 -0.05446 0.86294
 H1550 H 0.08382 -0.04874 0.83198
 H1551 H 0.03536 -0.04650 0.88511
 H1552 H -0.00613 0.00261 0.86890
 H1553 H 0.05110 0.01920 0.78113
 H1554 H 0.09008 -0.03095 0.79977
 H1555 H 0.01310 0.00975 0.83849
 H1556 H 0.03073 0.01501 0.81163
 C1557 C 0.04023 0.01816 0.65532
 C1558 C 0.02224 0.00606 0.65152
 C1559 C 0.01049 0.00925 0.63358
 C1560 C 0.01630 0.02447 0.61924
 C1561 C 0.03418 0.03638 0.62305
 C1562 C 0.04599 0.03330 0.64078
 C1563 C 0.05226 0.01438 0.67474
 C1564 C 0.07038 0.02556 0.67994
 C1565 C 0.08088 0.02161 0.69831
 C1566 C 0.07364 0.00644 0.71200
 C1567 C 0.05570 -0.00489 0.70691
 C1568 C 0.04500 -0.00105 0.68847
 C1569 C 0.01599 -0.00907 0.66569
 C1570 C 0.02711 -0.01254 0.68376
 H1571 H 0.00222 -0.01835 0.66279
 H1572 H 0.02158 -0.02438 0.69425
 H1573 H -0.00336 0.00003 0.63099
 H1574 H 0.03926 0.04808 0.61224
 H1575 H 0.09456 0.03073 0.70198
 H1576 H 0.05014 -0.01684 0.71727
 H1577 H 0.05954 0.04297 0.64276
 H1578 H 0.07668 0.03749 0.67014
 C1579 C 0.53744 0.51839 0.15473
 C1580 C 0.51898 0.50681 0.15168
 C1581 C 0.50710 0.50964 0.13374
 C1582 C 0.51332 0.52387 0.11857
 C1583 C 0.53185 0.53502 0.12154
 C1584 C 0.54373 0.53235 0.13929
 C1585 C 0.54943 0.51528 0.17429
 C1586 C 0.56768 0.52644 0.17904
 C1587 C 0.57814 0.52316 0.19758
 C1588 C 0.57075 0.50866 0.21190
 C1589 C 0.55263 0.49739 0.20728
 C1590 C 0.54191 0.50065 0.18872
 C1591 C 0.51242 0.49254 0.16656
 C1592 C 0.52368 0.48946 0.18464
 H1593 H 0.49833 0.48361 0.16423
 H1594 H 0.51792 0.47825 0.19567
 H1595 H 0.49288 0.50086 0.13180
 H1596 H 0.53735 0.54589 0.11013
 H1597 H 0.59190 0.53229 0.20087
 H1598 H 0.54690 0.48594 0.21809
 H1599 H 0.55777 0.54141 0.14057
 H1600 H 0.57408 0.53792 0.16879
 C1601 C 0.46545 -0.01112 0.15819
 C1602 C 0.45912 -0.02756 0.14512
 C1603 C 0.47018 -0.03178 0.12714
 C1604 C 0.48768 -0.01991 0.12184
 C1605 C 0.49377 -0.00351 0.13479
 C1606 C 0.48287 0.00084 0.15267
 C1607 C 0.45341 -0.00734 0.17742
 C1608 C 0.45858 0.00848 0.19154
 C1609 C 0.44712 0.01112 0.20941
 C1610 C 0.43019 -0.00187 0.21371
 C1611 C 0.42476 -0.01751 0.19964
 C1612 C 0.43622 -0.02036 0.18164
 C1613 C 0.44186 -0.03978 0.15012
 C1614 C 0.43067 -0.03627 0.16798
 H1615 H 0.43697 -0.05236 0.14012
 H1616 H 0.41750 -0.04623 0.17118
 H1617 H 0.46510 -0.04445 0.11739
 H1618 H 0.50710 0.00605 0.13131
 H1619 H 0.45145 0.02351 0.21986
 H1620 H 0.41183 -0.02779 0.20293
 H1621 H 0.48843 0.01359 0.16194
 H1622 H 0.47141 0.01896 0.18916
 C1623 C 0.96182 0.48817 0.65128
 C1624 C 0.95560 0.47149 0.63845
 C1625 C 0.96672 0.46707 0.62055
 C1626 C 0.98401 0.47911 0.61505
 C1627 C 0.98983 0.49591 0.62756
 C1628 C 0.97894 0.50040 0.64541
 C1629 C 0.94999 0.49191 0.67065
 C1630 C 0.95548 0.50752 0.68489
 C1631 C 0.94437 0.50994 0.70301
 C1632 C 0.92744 0.49701 0.70739
 C1633 C 0.92161 0.48164 0.69318
 C1634 C 0.93283 0.47888 0.67501
 C1635 C 0.93840 0.45926 0.64360
 C1636 C 0.92720 0.46294 0.66142
 H1637 H 0.93355 0.44656 0.63373
 H1638 H 0.91407 0.45296 0.66475
 H1639 H 0.96182 0.45424 0.61089
 H1640 H 1.00312 0.50547 0.62385
 H1641 H 0.94903 0.52204 0.71367
 H1642 H 0.90869 0.47140 0.69659
 H1643 H 0.98431 0.51343 0.65441
 H1644 H 0.96841 0.51788 0.68250
 C1645 C 0.96479 0.51232 0.84024
 C1646 C 0.95764 0.52687 0.85470
 C1647 C 0.96877 0.53056 0.87299
 C1648 C 0.98716 0.52006 0.87721
 C1649 C 0.99411 0.50553 0.86289
 C1650 C 0.98313 0.50169 0.84469
 C1651 C 0.95262 0.50910 0.82074
 C1652 C 0.95845 0.49505 0.80533
 C1653 C 0.94683 0.49294 0.78728
 C1654 C 0.92908 0.50472 0.78405
 C1655 C 0.92297 0.51854 0.79942
 C1656 C 0.93456 0.52082 0.81764
 C1657 C 0.93952 0.53780 0.85078
 C1658 C 0.92825 0.53487 0.83265
 H1659 H 0.93401 0.54892 0.86186
 H1660 H 0.91441 0.54381 0.83031
 H1661 H 0.96298 0.54168 0.88388
 H1662 H 1.00823 0.49720 0.86551
 H1663 H 0.95169 0.48190 0.77583
 H1664 H 0.90938 0.52787 0.79702
 H1665 H 0.98938 0.49044 0.83430
 H1666 H 0.97192 0.48556 0.80685
 C1667 C 0.46320 0.02217 0.34641
 C1668 C 0.48157 0.01095 0.34949
 C1669 C 0.49361 0.01422 0.36726
 C1670 C 0.48771 0.02858 0.38226
 C1671 C 0.46936 0.03950 0.37923
 C1672 C 0.45728 0.03638 0.36161
 C1673 C 0.45097 0.01843 0.32704
 C1674 C 0.43263 0.02900 0.32234
 C1675 C 0.42195 0.02511 0.30398
 C1676 C 0.42921 0.01061 0.28982
 C1677 C 0.44737 -0.00008 0.29442
 C1678 C 0.45828 0.00374 0.31279
 C1679 C 0.48789 -0.00342 0.33478
 C1680 C 0.47648 -0.00698 0.31686
 H1681 H 0.50193 -0.01205 0.33715
 H1682 H 0.48207 -0.01823 0.30596
 H1683 H 0.50771 0.00565 0.36919
 H1684 H 0.46416 0.05053 0.39050
 H1685 H 0.40812 0.03377 0.30070
 H1686 H 0.45296 -0.01155 0.28373
 H1687 H 0.44339 0.04527 0.36023
 H1688 H 0.42634 0.04042 0.33251
   
