data_POSCAR
  _audit_creation_date              2014-09-24
  _audit_creation_method            'ToBaCCo'
  _symmetry_space_group_name_H-M    'P1'
  _symmetry_Int_Tables_number       1
  _symmetry_cell_setting            triclinic
  loop_
  _symmetry_equiv_pos_as_xyz
 x,y,z
_cell_length_a 31.8673
_cell_length_b 31.6988
_cell_length_c 30.2582
_cell_angle_alpha 90.013500
_cell_angle_beta 93.965500
_cell_angle_gamma 92.227400
loop_
  _atom_site_label
  _atom_site_type_symbol
  _atom_site_fract_x
  _atom_site_fract_y
  _atom_site_fract_z
C1 C 0.40929 0.02479 0.29015
 C2 C 0.38575 0.06450 0.27829
 C3 C 0.36030 0.06318 0.24072
 C4 C 0.36028 0.02065 0.21689
 C5 C 0.37483 -0.01087 0.28928
 C6 C 0.34899 -0.01343 0.25104
 C7 C 0.43278 0.01681 0.24814
 C8 C 0.40743 0.01299 0.20986
 H9 H 0.39031 0.09288 0.29817
 H10 H 0.33803 0.02156 0.18730
 H11 H 0.37411 -0.03480 0.31479
 H12 H 0.46641 0.01477 0.24773
 C13 C 0.10318 -0.01746 0.80838
 C14 C 0.12188 -0.05831 0.79369
 C15 C 0.14619 -0.05422 0.75862
 C16 C 0.15012 -0.00823 0.74129
 C17 C 0.14172 0.01299 0.81707
 C18 C 0.16619 0.01820 0.78207
 C19 C 0.08111 -0.00278 0.76751
 C20 C 0.10679 0.00549 0.73117
 H21 H 0.11482 -0.08867 0.80853
 H22 H 0.17205 -0.00512 0.71466
 H23 H 0.14679 0.03158 0.84700
 H24 H 0.04777 -0.00880 0.76006
 C25 C 0.60073 0.47793 0.29878
 C26 C 0.62975 0.44226 0.29032
 C27 C 0.65362 0.44874 0.25520
 C28 C 0.64778 0.49237 0.23296
 C29 C 0.62964 0.51744 0.30440
 C30 C 0.65472 0.52487 0.27079
 C31 C 0.57596 0.48230 0.25320
 C32 C 0.59981 0.49364 0.21894
 H33 H 0.62649 0.41142 0.30542
 H34 H 0.66973 0.49877 0.20676
 H35 H 0.62592 0.54086 0.32956
 H36 H 0.54280 0.47365 0.24832
 C37 C 0.89887 0.54146 0.79430
 C38 C 0.86024 0.56664 0.77965
 C39 C 0.83690 0.55024 0.74346
 C40 C 0.85167 0.50696 0.72873
 C41 C 0.87892 0.49796 0.80493
 C42 C 0.85374 0.48042 0.77122
 C43 C 0.92113 0.53542 0.75123
 C44 C 0.89827 0.51422 0.71837
 H45 H 0.85234 0.59634 0.79324
 H46 H 0.83099 0.49196 0.70168
 H47 H 0.88618 0.48133 0.83566
 H48 H 0.95255 0.54838 0.74696
 C49 C 0.30011 0.39170 1.02727
 C50 C 0.28338 0.35814 1.05912
 C51 C 0.24572 0.33902 1.04508
 C52 C 0.22667 0.35666 1.00124
 C53 C 0.29802 0.37057 0.98196
 C54 C 0.26101 0.35133 0.96833
 C55 C 0.26461 0.42317 1.02172
 C56 C 0.22564 0.40497 1.01033
 H57 H 0.29738 0.35406 1.09244
 H58 H 0.19565 0.34163 0.99029
 H59 H 0.32480 0.37045 0.96168
 H60 H 0.26931 0.45684 1.02619
 C61 C 0.78545 0.08484 1.00164
 C62 C 0.78137 0.11464 0.96213
 C63 C 0.75602 0.14827 0.96613
 C64 C 0.73048 0.14379 1.00770
 C65 C 0.79306 0.11342 1.04188
 C66 C 0.76538 0.14418 1.04604
 C67 C 0.74284 0.06788 1.00338
 C68 C 0.71228 0.09978 1.00640
 H69 H 0.79522 0.10665 0.93176
 H70 H 0.70684 0.16826 1.01076
 H71 H 0.81953 0.10920 1.06584
 H72 H 0.73283 0.03702 0.99044
 C73 C 0.27803 0.59288 0.47910
 C74 C 0.26793 0.62565 0.44319
 C75 C 0.23712 0.65230 0.45198
 C76 C 0.21624 0.64197 0.49534
 C77 C 0.28433 0.61822 0.52222
 C78 C 0.25344 0.64439 0.53093
 C79 C 0.23566 0.56859 0.48467
 C80 C 0.20310 0.59409 0.49185
 H81 H 0.28646 0.62976 0.41467
 H82 H 0.19004 0.66261 0.50211
 H83 H 0.31183 0.61497 0.54502
 H84 H 0.23075 0.53478 0.48392
 C85 C 0.78950 0.89058 0.53195
 C86 C 0.76739 0.86037 0.56400
 C87 C 0.73039 0.84169 0.54668
 C88 C 0.71830 0.85512 0.49902
 C89 C 0.79269 0.86560 0.48945
 C90 C 0.75725 0.84567 0.47302
 C91 C 0.75563 0.92221 0.51782
 C92 C 0.71736 0.90387 0.50349
 H93 H 0.77845 0.85676 0.59841
 H94 H 0.68845 0.83974 0.48491
 H95 H 0.82123 0.86522 0.47185
 H96 H 0.76003 0.95595 0.52197
 C97 C 0.00576 0.28746 0.42584
 C98 C 0.04295 0.27976 0.39794
 C99 C 0.03854 0.24610 0.36889
 C100 C -0.00368 0.22065 0.37476
 C101 C -0.03214 0.28537 0.39571
 C102 C -0.03617 0.25107 0.36639
 C103 C 0.00212 0.24677 0.45222
 C104 C -0.00333 0.21152 0.42577
 H105 H 0.07133 0.29956 0.40274
 H106 H -0.01056 0.19255 0.35358
 H107 H -0.05861 0.30539 0.39907
 H108 H 0.00384 0.24546 0.48804
 C109 C -0.00248 0.79147 0.12094
 C110 C -0.04346 0.78636 0.14424
 C111 C -0.04638 0.75076 0.16890
 C112 C -0.01086 0.72047 0.16278
 C113 C 0.03258 0.78472 0.15754
 C114 C 0.02824 0.74795 0.18044
 C115 C 0.00114 0.75291 0.09229
 C116 C -0.00705 0.71506 0.11122
 H117 H -0.06399 0.81243 0.14785
 H118 H -0.01645 0.69122 0.18126
 H119 H 0.06058 0.80504 0.16263
 H120 H 0.01678 0.75624 0.06194
 C121 C 0.50909 0.29912 0.59821
 C122 C 0.47526 0.29887 0.63136
 C123 C 0.47369 0.26426 0.65831
 C124 C 0.50665 0.23247 0.64858
 C125 C 0.54983 0.29296 0.62738
 C126 C 0.54796 0.25877 0.65442
 C127 C 0.50347 0.25777 0.57246
 C128 C 0.50112 0.22300 0.59811
 H129 H 0.45619 0.32604 0.63497
 H130 H 0.50592 0.20371 0.66933
 H131 H 0.57840 0.31229 0.62524
 H132 H 0.50555 0.25582 0.53697
 C133 C 0.50700 0.79141 0.90600
 C134 C 0.54070 0.78613 0.87264
 C135 C 0.53656 0.75013 0.84787
 C136 C 0.49839 0.72162 0.85944
 C137 C 0.46454 0.78519 0.87904
 C138 C 0.46051 0.75056 0.85321
 C139 C 0.50889 0.75351 0.93290
 C140 C 0.50518 0.71447 0.90773
 H141 H 0.56551 0.80956 0.86883
 H142 H 0.49453 0.69281 0.83852
 H143 H 0.43895 0.80661 0.88060
 H144 H 0.50964 0.75419 0.96867
 C145 C -0.22567 0.65977 0.94651
 C146 C -0.19132 0.62829 0.95542
 C147 C -0.19856 0.59884 0.98587
 C148 C -0.24087 0.60356 1.00700
 C149 C -0.26639 0.63278 0.93667
 C150 C -0.27417 0.60322 0.96780
 C151 C -0.23247 0.67905 0.99248
 C152 C -0.23945 0.64971 1.02489
 H153 H -0.16347 0.62841 0.93742
 H154 H -0.24820 0.57872 1.03145
 H155 H -0.28905 0.63928 0.90937
 H156 H -0.23573 0.71224 0.99851
 C157 C -0.28671 0.33451 0.45737
 C158 C -0.31927 0.36733 0.46601
 C159 C -0.30717 0.39452 0.49962
 C160 C -0.26313 0.38543 0.52245
 C161 C -0.24594 0.36051 0.45054
 C162 C -0.23384 0.38744 0.48419
 C163 C -0.28082 0.31388 0.50014
 C164 C -0.26392 0.34021 0.53593
 H165 H -0.34935 0.36961 0.44743
 H166 H -0.25284 0.40911 0.54816
 H167 H -0.22690 0.35591 0.42273
 H168 H -0.29903 0.28534 0.50672
 C169 C 0.22513 -0.15733 -0.05960
 C170 C 0.19248 -0.12480 -0.04899
 C171 C 0.20517 -0.09891 -0.01428
 C172 C 0.24914 -0.10827 0.00728
 C173 C 0.26541 -0.13032 -0.06638
 C174 C 0.27766 -0.10420 -0.03169
 C175 C 0.23256 -0.17918 -0.01774
 C176 C 0.24786 -0.15356 0.01881
 H177 H 0.16104 -0.12376 -0.06477
 H178 H 0.25985 -0.08651 0.03486
 H179 H 0.28393 -0.13361 -0.09479
 H180 H 0.22138 -0.21149 -0.01303
 C181 C 0.26030 1.16269 0.45744
 C182 C 0.29478 1.13110 0.46134
 C183 C 0.29055 1.09937 0.49036
 C184 C 0.24963 1.10205 0.51476
 C185 C 0.21953 1.13553 0.44836
 C186 C 0.21363 1.10439 0.47845
 C187 C 0.25672 1.17852 0.50548
 C188 C 0.25192 1.14676 0.53606
 H189 H 0.32431 1.13790 0.44703
 H190 H 0.24379 1.07555 0.53781
 H191 H 0.19451 1.14466 0.42461
 H192 H 0.25280 1.21104 0.51422
 C193 C 0.14376 0.54901 0.25441
 C194 C 0.11984 0.54288 0.20868
 C195 C 0.08969 0.51108 0.20718
 C196 C 0.08664 0.48767 0.25107
 C197 C 0.10980 0.55168 0.28785
 C198 C 0.07915 0.52201 0.28408
 C199 C 0.16138 0.50510 0.26454
 C200 C 0.13187 0.47174 0.26087
 H201 H 0.13033 0.55742 0.17893
 H202 H 0.06055 0.46417 0.25370
 H203 H 0.11264 0.57123 0.31705
 H204 H 0.19480 0.50094 0.26971
 C205 C -0.13476 1.03560 0.27687
 C206 C -0.10596 1.01898 0.31500
 C207 C -0.08514 0.98350 0.30561
 C208 C -0.09490 0.96839 0.25693
 C209 C -0.10711 1.04178 0.23840
 C210 C -0.08544 1.00822 0.22750
 C211 C -0.16218 0.99990 0.26221
 C212 C -0.14125 0.96152 0.25409
 H213 H -0.10596 1.03164 0.34828
 H214 H -0.07710 0.94056 0.24860
 H215 H -0.10728 1.07017 0.21836
 H216 H -0.19482 1.00340 0.25106
 C217 C 0.36117 0.53185 -0.24252
 C218 C 0.39188 0.51920 -0.20478
 C219 C 0.41753 0.48768 -0.21389
 C220 C 0.41087 0.47270 -0.26311
 C221 C 0.38725 0.54187 -0.28158
 C222 C 0.41363 0.51247 -0.29328
 C223 C 0.33751 0.48972 -0.25671
 C224 C 0.36323 0.45754 -0.26749
 H225 H 0.38914 0.53058 -0.17133
 H226 H 0.43464 0.45121 -0.27136
 H227 H 0.38288 0.57045 -0.30077
 H228 H 0.30427 0.48430 -0.25316
 C229 C 0.64874 0.04145 -0.27309
 C230 C 0.61788 0.02704 -0.31237
 C231 C 0.59268 -0.00762 -0.30410
 C232 C 0.59929 -0.02390 -0.25657
 C233 C 0.62178 0.04627 -0.23337
 C234 C 0.59378 0.01482 -0.22682
 C235 C 0.67269 0.00167 -0.26091
 C236 C 0.64696 -0.03265 -0.25234
 H237 H 0.61821 0.04115 -0.34481
 H238 H 0.57872 -0.05180 -0.24940
 H239 H 0.62636 0.07215 -0.20981
 H240 H 0.70636 -0.00050 -0.26231
 C241 C 0.05987 0.23488 0.84317
 C242 C 0.06266 0.27775 0.86822
 C243 C 0.02965 0.28401 0.89430
 C244 C -0.00451 0.24759 0.88925
 C245 C 0.05487 0.20344 0.88152
 C246 C 0.02050 0.20848 0.90439
 C247 C 0.02030 0.23354 0.81731
 C248 C -0.01475 0.24198 0.84124
 H249 H 0.08947 0.29973 0.86749
 H250 H -0.03278 0.25242 0.90790
 H251 H 0.07828 0.18147 0.89306
 H252 H 0.01816 0.23202 0.78138
 C253 C 0.52455 0.22691 0.15342
 C254 C 0.50625 0.19093 0.12407
 C255 C 0.47374 0.20101 0.09469
 C256 C 0.45763 0.24561 0.10348
 C257 C 0.53014 0.26533 0.12225
 C258 C 0.49591 0.27448 0.09548
 C259 C 0.48776 0.23902 0.18016
 C260 C 0.45236 0.24896 0.15479
 H261 H 0.52349 0.16239 0.12072
 H262 H 0.42929 0.25398 0.08253
 H263 H 0.55789 0.28630 0.12432
 H264 H 0.48923 0.23922 0.21595
 C265 C 0.01845 0.71694 0.65460
 C266 C 0.00132 0.68308 0.62206
 C267 C -0.03021 0.69516 0.59294
 C268 C -0.04484 0.73991 0.60191
 C269 C 0.02714 0.75674 0.62624
 C270 C -0.00546 0.76845 0.59840
 C271 C -0.01972 0.72879 0.67919
 C272 C -0.05312 0.74110 0.65208
 H273 H 0.01746 0.65396 0.61796
 H274 H -0.07110 0.74936 0.57897
 H275 H 0.05554 0.77659 0.63134
 H276 H -0.02015 0.72900 0.71471
 C277 C 0.54719 0.75082 0.32534
 C278 C 0.54686 0.79392 0.34935
 C279 C 0.51292 0.79825 0.37453
 C280 C 0.48126 0.76026 0.36988
 C281 C 0.54355 0.71955 0.36365
 C282 C 0.50822 0.72219 0.38535
 C283 C 0.50587 0.74577 0.29817
 C284 C 0.47163 0.75605 0.31880
 H285 H 0.57262 0.81721 0.34930
 H286 H 0.45287 0.76288 0.38872
 H287 H 0.56805 0.69862 0.37499
 H288 H 0.50446 0.73038 0.26640
 B289 B -0.00724 0.02936 1.05880
 B290 B -0.04082 0.01601 1.01411
 B291 B -0.00053 0.05291 1.00855
 B292 B 0.04211 0.03740 1.03997
 B293 B 0.02845 -0.00806 1.06469
 B294 B -0.02279 -0.02122 1.04902
 B295 B 0.02195 -0.02245 0.97543
 B296 B 0.05598 -0.00910 1.01937
 B297 B 0.01580 -0.04524 1.02550
 B298 B -0.02650 -0.02994 0.99358
 B299 B -0.01309 0.01606 0.96912
 B300 B 0.03793 0.02844 0.98430
 B301 B 0.48695 0.54303 0.54108
 B302 B 0.45309 0.52982 0.49691
 B303 B 0.49406 0.56571 0.49082
 B304 B 0.53653 0.54959 0.52256
 B305 B 0.52157 0.50440 0.54761
 B306 B 0.47012 0.49233 0.53231
 B307 B 0.51492 0.48924 0.45910
 B308 B 0.54943 0.50231 0.50263
 B309 B 0.50829 0.46724 0.50877
 B310 B 0.46644 0.48321 0.47703
 B311 B 0.48095 0.52867 0.45210
 B312 B 0.53231 0.54007 0.46707
 B313 B 0.51477 0.97149 0.53211
 B314 B 0.55095 0.98750 0.49592
 B315 B 0.50623 0.95903 0.47768
 B316 B 0.46557 0.97514 0.50585
 B317 B 0.48504 1.01248 0.54141
 B318 B 0.53761 1.01982 0.53610
 B319 B 0.49522 1.04219 0.45788
 B320 B 0.45962 1.02744 0.49427
 B321 B 0.50429 1.05380 0.51434
 B322 B 0.54401 1.03880 0.48397
 B323 B 0.52472 1.00031 0.44841
 B324 B 0.47185 0.99338 0.45426
 B325 B 0.02435 0.46915 1.04279
 B326 B 0.05809 0.48495 1.00409
 B327 B 0.01655 0.45056 0.99009
 B328 B -0.02509 0.46474 1.01801
 B329 B -0.00935 0.50794 1.04884
 B330 B 0.04211 0.51977 1.04073
 B331 B -0.00492 0.52981 0.96254
 B332 B -0.03780 0.51360 1.00118
 B333 B 0.00438 0.54797 1.01560
 B334 B 0.04528 0.53383 0.98680
 B335 B 0.02953 0.49091 0.95631
 B336 B -0.02182 0.47861 0.96432
 B337 B -0.01114 0.52233 0.44530
 B338 B 0.02183 0.53093 0.49166
 B339 B -0.02411 0.55694 0.48541
 B340 B -0.06161 0.52388 0.46073
 B341 B -0.03917 0.47895 0.45231
 B342 B 0.01254 0.48208 0.47218
 B343 B -0.03616 0.49056 0.54138
 B344 B -0.06819 0.48234 0.49595
 B345 B -0.02344 0.45628 0.50005
 B346 B 0.01420 0.48934 0.52672
 B347 B -0.00791 0.53653 0.53550
 B348 B -0.05932 0.53170 0.51623
 B349 B 0.50566 0.03305 -0.06074
 B350 B 0.53439 0.03820 -0.01196
 B351 B 0.48962 0.06541 -0.01993
 B352 B 0.45338 0.03426 -0.04957
 B353 B 0.47574 -0.01053 -0.05965
 B354 B 0.52562 -0.00997 -0.03589
 B355 B 0.47286 -0.00389 0.03036
 B356 B 0.44348 -0.00901 -0.01714
 B357 B 0.48710 -0.03646 -0.01277
 B358 B 0.52391 -0.00579 0.01897
 B359 B 0.50210 0.04153 0.02927
 B360 B 0.45211 0.03901 0.00590
 B361 B 0.49364 0.45994 -0.04488
 B362 B 0.46982 0.46727 0.00203
 B363 B 0.51471 0.44012 0.00493
 B364 B 0.54646 0.46228 -0.03290
 B365 B 0.52141 0.50507 -0.05593
 B366 B 0.47390 0.50769 -0.03419
 B367 B 0.53575 0.51902 0.03357
 B368 B 0.55942 0.51225 -0.01505
 B369 B 0.51513 0.54050 -0.01495
 B370 B 0.48238 0.51759 0.02031
 B371 B 0.50652 0.47644 0.04260
 B372 B 0.55480 0.47214 0.02125
 B373 B -0.01178 0.95991 0.47666
 B374 B -0.03757 0.96536 0.52333
 B375 B 0.00916 0.94117 0.52661
 B376 B 0.04072 0.96602 0.49055
 B377 B 0.01345 1.00623 0.46686
 B378 B -0.03507 1.00571 0.48719
 B379 B 0.02472 1.02082 0.55659
 B380 B 0.04921 1.01658 0.50981
 B381 B 0.00263 1.04040 0.50704
 B382 B -0.02813 1.01542 0.54261
 B383 B -0.00186 0.97607 0.56543
 B384 B 0.04680 0.97533 0.54509
 B385 B 0.77612 0.22783 0.21728
 B386 B 0.77305 0.19547 0.26152
 B387 B 0.79574 0.24377 0.26984
 B388 B 0.76955 0.27769 0.23570
 B389 B 0.72973 0.25035 0.20747
 B390 B 0.73182 0.19850 0.22344
 B391 B 0.71495 0.24570 0.29482
 B392 B 0.71958 0.27922 0.25165
 B393 B 0.69640 0.22955 0.24340
 B394 B 0.72288 0.19586 0.27734
 B395 B 0.76202 0.22402 0.30559
 B396 B 0.76018 0.27516 0.29043
 B397 B 0.69722 0.76011 0.69190
 B398 B 0.70647 0.79176 0.73755
 B399 B 0.68117 0.74359 0.74114
 B400 B 0.70350 0.70944 0.70803
 B401 B 0.74213 0.73596 0.68342
 B402 B 0.74388 0.78695 0.70060
 B403 B 0.76297 0.73765 0.77300
 B404 B 0.75463 0.70585 0.72760
 B405 B 0.77913 0.75388 0.72259
 B406 B 0.75680 0.78793 0.75583
 B407 B 0.71799 0.76059 0.78103
 B408 B 0.71678 0.71001 0.76337
 B409 B 0.29376 0.25871 0.80839
 B410 B 0.28771 0.28235 0.75854
 B411 B 0.32290 0.24459 0.76408
 B412 B 0.30385 0.20726 0.79908
 B413 B 0.25518 0.22167 0.81167
 B414 B 0.24541 0.26873 0.78663
 B415 B 0.25297 0.20773 0.72290
 B416 B 0.25959 0.18492 0.77251
 B417 B 0.22390 0.22287 0.76587
 B418 B 0.24281 0.26038 0.73119
 B419 B 0.28978 0.24520 0.71819
 B420 B 0.30169 0.19949 0.74407
 B421 B 0.23346 0.75533 0.29965
 B422 B 0.23564 0.71813 0.25911
 B423 B 0.19932 0.75553 0.25288
 B424 B 0.22194 0.80193 0.27541
 B425 B 0.27198 0.79105 0.29228
 B426 B 0.27988 0.73921 0.28312
 B427 B 0.26265 0.77934 0.20283
 B428 B 0.26372 0.81500 0.24404
 B429 B 0.29793 0.77604 0.24880
 B430 B 0.27484 0.73198 0.22709
 B431 B 0.22533 0.74309 0.20960
 B432 B 0.21690 0.79458 0.22046
 B433 B 0.26658 0.72313 0.70633
 B434 B 0.26621 0.69052 0.75065
 B435 B 0.28918 0.73891 0.75783
 B436 B 0.26081 0.77294 0.72544
 B437 B 0.21952 0.74524 0.69973
 B438 B 0.22335 0.69339 0.71556
 B439 B 0.21049 0.74071 0.78828
 B440 B 0.21201 0.77416 0.74471
 B441 B 0.18908 0.72387 0.73824
 B442 B 0.21762 0.69069 0.77042
 B443 B 0.25793 0.71902 0.79566
 B444 B 0.25493 0.77023 0.78072
 B445 B 0.20334 0.26910 0.20170
 B446 B 0.20902 0.30136 0.24612
 B447 B 0.18565 0.25275 0.25226
 B448 B 0.21053 0.21880 0.21983
 B449 B 0.24922 0.24668 0.19637
 B450 B 0.24880 0.29796 0.21226
 B451 B 0.26655 0.24906 0.28605
 B452 B 0.26152 0.21753 0.24104
 B453 B 0.28466 0.26557 0.23537
 B454 B 0.26000 0.29963 0.26784
 B455 B 0.22087 0.27208 0.29175
 B456 B 0.22129 0.22072 0.27487
 B457 B 0.77845 0.76586 0.29975
 B458 B 0.78030 0.78916 0.24868
 B459 B 0.81189 0.74806 0.26374
 B460 B 0.78377 0.71249 0.29309
 B461 B 0.73673 0.73233 0.29786
 B462 B 0.73403 0.77881 0.27065
 B463 B 0.74644 0.71735 0.20950
 B464 B 0.74194 0.69470 0.25837
 B465 B 0.71169 0.73509 0.24817
 B466 B 0.73879 0.76975 0.21586
 B467 B 0.78824 0.75146 0.21179
 B468 B 0.78944 0.70484 0.23897
 B469 B 0.74489 0.23379 0.79203
 B470 B 0.74727 0.20819 0.74427
 B471 B 0.71621 0.24885 0.74307
 B472 B 0.73841 0.28642 0.77949
 B473 B 0.78524 0.26858 0.79891
 B474 B 0.79153 0.22070 0.77583
 B475 B 0.78751 0.27755 0.70922
 B476 B 0.78408 0.30365 0.75645
 B477 B 0.81582 0.26296 0.75714
 B478 B 0.79284 0.22512 0.72136
 B479 B 0.74686 0.24395 0.70205
 B480 B 0.74040 0.29206 0.72399
 C481 C 0.41584 1.05019 0.37162
 C482 C 0.43535 1.03235 0.33515
 C483 C 0.48007 1.03564 0.33718
 C484 C 0.50357 1.05427 0.37392
 C485 C 0.48344 1.06821 0.41124
 C486 C 0.44107 1.07748 0.40042
 C487 C 0.37194 1.05431 0.37113
 C488 C 0.35660 1.09344 0.38165
 C489 C 0.38494 1.12695 0.39374
 C490 C 0.42753 1.11905 0.40253
 H491 H 0.35010 1.03091 0.35576
 H492 H 0.32338 1.09855 0.37634
 H493 H 0.37400 1.15862 0.39704
 H494 H 0.44943 1.14502 0.41188
 H495 H 0.49769 1.02367 0.31113
 H496 H 0.53744 1.05157 0.37596
 C497 C -0.07323 0.58725 0.86441
 C498 C -0.06862 0.55598 0.83184
 C499 C -0.03314 0.53145 0.83781
 C500 C -0.00821 0.53239 0.87682
 C501 C -0.02183 0.55126 0.91537
 C502 C -0.05376 0.58162 0.90810
 C503 C -0.09273 0.62545 0.85427
 C504 C -0.09902 0.65440 0.88754
 C505 C -0.08644 0.64530 0.93130
 C506 C -0.06493 0.60873 0.94148
 H507 H -0.09920 0.63522 0.82049
 H508 H -0.11381 0.68385 0.87941
 H509 H -0.09268 0.66707 0.95740
 H510 H -0.05480 0.60366 0.97514
 H511 H -0.02565 0.50892 0.81307
 H512 H 0.01875 0.51280 0.87708
 C513 C 0.03518 -0.01238 0.85380
 C514 C 0.07771 -0.02386 0.85004
 C515 C 0.09677 -0.04638 0.88599
 C516 C 0.07592 -0.05469 0.92456
 C517 C 0.03473 -0.04206 0.92834
 C518 C 0.01233 -0.02980 0.88847
 C519 C 0.01469 0.01774 0.82676
 C520 C -0.02897 0.02079 0.82522
 C521 C -0.05260 -0.00507 0.85207
 C522 C -0.03208 -0.03003 0.88405
 H523 H 0.03226 0.04035 0.80846
 H524 H -0.04440 0.04314 0.80313
 H525 H -0.08656 -0.00376 0.85011
 H526 H -0.05079 -0.04766 0.90672
 H527 H 0.12886 -0.05624 0.88495
 H528 H 0.09269 -0.06966 0.95206
 C529 C 0.53556 0.49351 0.34070
 C530 C 0.57369 0.47231 0.33843
 C531 C 0.58626 0.44629 0.37463
 C532 C 0.56330 0.44454 0.41257
 C533 C 0.52595 0.46624 0.41374
 C534 C 0.50798 0.48117 0.37286
 C535 C 0.52458 0.52828 0.31418
 C536 C 0.48328 0.54186 0.31112
 C537 C 0.45277 0.52060 0.33443
 C538 C 0.46499 0.49004 0.36539
 H539 H 0.54811 0.54562 0.29694
 H540 H 0.47492 0.56841 0.29037
 H541 H 0.42034 0.52972 0.33082
 H542 H 0.44166 0.47616 0.38592
 H543 H 0.61574 0.43045 0.37570
 H544 H 0.57626 0.42880 0.44185
 C545 C 0.54391 0.52984 0.16351
 C546 C 0.58254 0.50821 0.17347
 C547 C 0.60864 0.50334 0.13875
 C548 C 0.59714 0.51587 0.09596
 C549 C 0.55691 0.53133 0.08363
 C550 C 0.53197 0.54227 0.11880
 C551 C 0.51703 0.54093 0.19639
 C552 C 0.48020 0.56232 0.18668
 C553 C 0.46947 0.57483 0.14382
 C554 C 0.49524 0.56554 0.11036
 H555 H 0.52446 0.53538 0.23019
 H556 H 0.46039 0.57034 0.21281
 H557 H 0.44146 0.59255 0.13656
 H558 H 0.48648 0.57820 0.07814
 H559 H 0.63768 0.48697 0.14341
 H560 H 0.61828 0.50722 0.07131
 C561 C 0.05222 1.04582 0.68476
 C562 C 0.09060 1.02352 0.68994
 C563 C 0.11239 1.01957 0.65165
 C564 C 0.09360 1.02853 0.61009
 C565 C 0.05022 1.03738 0.60346
 C566 C 0.03070 1.05017 0.64171
 C567 C 0.03684 1.06752 0.72051
 C568 C -0.00154 1.08727 0.71605
 C569 C -0.02443 1.08763 0.67520
 C570 C -0.00810 1.07008 0.63810
 H571 H 0.05587 1.07175 0.75117
 H572 H -0.01298 1.10337 0.74413
 H573 H -0.05389 1.10359 0.67175
 H574 H -0.02468 1.07482 0.60643
 H575 H 0.14310 1.00647 0.65211
 H576 H 0.11219 1.02148 0.58278
 C577 C -0.04232 0.48522 0.67280
 C578 C -0.08374 0.50076 0.67617
 C579 C -0.10986 0.50346 0.63756
 C580 C -0.09540 0.49536 0.59650
 C581 C -0.05348 0.48422 0.59098
 C582 C -0.02784 0.47572 0.63005
 C583 C -0.01511 0.47757 0.71061
 C584 C 0.02432 0.46096 0.70706
 C585 C 0.03730 0.45017 0.66593
 C586 C 0.01139 0.45687 0.62792
 H587 H -0.02395 0.48253 0.74362
 H588 H 0.04433 0.45510 0.73664
 H589 H 0.06729 0.43574 0.66350
 H590 H 0.02181 0.44511 0.59741
 H591 H -0.14142 0.51474 0.63846
 H592 H -0.11729 0.50143 0.56864
 C593 C 0.45604 -0.02694 0.15974
 C594 C 0.42355 0.00195 0.16588
 C595 C 0.40361 0.01948 0.12830
 C596 C 0.41568 0.01056 0.08641
 C597 C 0.45308 -0.01063 0.07930
 C598 C 0.47274 -0.03106 0.11694
 C599 C 0.47110 -0.05333 0.19445
 C600 C 0.50433 -0.07969 0.18904
 C601 C 0.52274 -0.08104 0.14880
 C602 C 0.50701 -0.05735 0.11305
 H603 H 0.45656 -0.05516 0.22561
 H604 H 0.51561 -0.09949 0.21613
 H605 H 0.54851 -0.10166 0.14481
 H606 H 0.52089 -0.06164 0.08215
 H607 H 0.37770 0.04020 0.13094
 H608 H 0.39620 0.02363 0.05956
 C609 C 0.37900 0.38144 0.02942
 C610 C 0.34588 0.40807 0.03860
 C611 C 0.35587 0.45143 0.04346
 C612 C 0.39524 0.46841 0.03320
 C613 C 0.42504 0.44363 0.01390
 C614 C 0.41458 0.39913 0.00913
 C615 C 0.37378 0.33694 0.03248
 C616 C 0.39729 0.31060 0.00820
 C617 C 0.42653 0.32810 -0.01884
 C618 C 0.43562 0.37149 -0.01772
 H619 H 0.35018 0.32202 0.05163
 H620 H 0.39164 0.27671 0.00902
 H621 H 0.44368 0.30784 -0.03941
 H622 H 0.45962 0.38202 -0.03816
 H623 H 0.33296 0.47292 0.05380
 H624 H 0.40102 0.50200 0.03807
 C625 C -0.13136 0.88052 0.54450
 C626 C -0.16568 0.90727 0.54820
 C627 C -0.15603 0.95069 0.55274
 C628 C -0.11529 0.96724 0.54722
 C629 C -0.08320 0.94189 0.53280
 C630 C -0.09340 0.89760 0.52824
 C631 C -0.13703 0.83627 0.54824
 C632 C -0.11113 0.80958 0.52736
 C633 C -0.07921 0.82645 0.50318
 C634 C -0.07000 0.86980 0.50423
 H635 H -0.16329 0.82207 0.56422
 H636 H -0.11737 0.77591 0.52785
 H637 H -0.06073 0.80579 0.48448
 H638 H -0.04530 0.88080 0.48469
 H639 H -0.18012 0.97250 0.55908
 H640 H -0.11022 1.00098 0.55128
 C641 C -0.16865 0.01568 1.01402
 C642 C -0.17490 0.05830 1.00021
 C643 C -0.13873 0.08339 0.99346
 C644 C -0.09911 0.06906 1.00142
 C645 C -0.09100 0.02664 1.00804
 C646 C -0.12706 -0.00134 1.01398
 C647 C -0.20136 -0.00990 1.03033
 C648 C -0.19583 -0.05224 1.04024
 C649 C -0.15735 -0.06991 1.03540
 C650 C -0.12327 -0.04490 1.02313
 H651 H -0.23092 0.00219 1.03793
 H652 H -0.22155 -0.07141 1.05210
 H653 H -0.15342 -0.10303 1.04270
 H654 H -0.09455 -0.06099 1.02166
 H655 H -0.14061 0.11703 0.98784
 H656 H -0.07538 0.09339 1.00662
 C657 C 0.32680 0.52815 0.46872
 C658 C 0.32003 0.57191 0.47180
 C659 C 0.35574 0.59924 0.47679
 C660 C 0.39519 0.58459 0.48783
 C661 C 0.40323 0.54152 0.49001
 C662 C 0.36759 0.51237 0.48173
 C663 C 0.29492 0.49988 0.45094
 C664 C 0.29989 0.45648 0.45283
 C665 C 0.33672 0.44068 0.47240
 C666 C 0.37015 0.46812 0.48677
 H667 H 0.26698 0.51115 0.43326
 H668 H 0.27489 0.43502 0.43958
 H669 H 0.33976 0.40692 0.47582
 H670 H 0.39684 0.45362 0.50302
 H671 H 0.35244 0.63313 0.47749
 H672 H 0.41887 0.60819 0.49837
 C673 C 0.13004 0.58615 0.45343
 C674 C 0.15828 0.57757 0.48995
 C675 C 0.14282 0.55544 0.52580
 C676 C 0.10023 0.54200 0.52562
 C677 C 0.07042 0.55190 0.49061
 C678 C 0.08591 0.57732 0.45549
 C679 C 0.14475 0.60490 0.41498
 C680 C 0.11700 0.62309 0.38388
 C681 C 0.07433 0.62081 0.38927
 C682 C 0.05904 0.59735 0.42390
 H683 H 0.17781 0.60714 0.40942
 H684 H 0.12883 0.64075 0.35670
 H685 H 0.05297 0.63698 0.36635
 H686 H 0.02607 0.59778 0.42718
 H687 H 0.16393 0.54830 0.55417
 H688 H 0.09073 0.52405 0.55389
 C689 C 0.64305 0.10022 -0.03687
 C690 C 0.66902 0.08826 0.00052
 C691 C 0.65179 0.06119 0.03160
 C692 C 0.60957 0.04759 0.02731
 C693 C 0.58191 0.06097 -0.00785
 C694 C 0.59883 0.09065 -0.03888
 C695 C 0.66043 0.11820 -0.07441
 C696 C 0.63504 0.13427 -0.10902
 C697 C 0.59177 0.13261 -0.10698
 C698 C 0.57383 0.11118 -0.07238
 H699 H 0.69357 0.11801 -0.07845
 H700 H 0.64915 0.14837 -0.13714
 H701 H 0.57189 0.14645 -0.13313
 H702 H 0.54017 0.11053 -0.07337
 H703 H 0.67134 0.05029 0.05973
 H704 H 0.59881 0.02611 0.05229
 C705 C 0.66961 0.95964 0.53325
 C706 C 0.67707 0.92722 0.50242
 C707 C 0.64571 0.91770 0.46886
 C708 C 0.60758 0.93826 0.46631
 C709 C 0.59950 0.97112 0.49551
 C710 C 0.63392 0.98537 0.52572
 C711 C 0.69626 0.96698 0.57208
 C712 C 0.69386 1.00370 0.59682
 C713 C 0.66474 1.03337 0.58356
 C714 C 0.63467 1.02421 0.54892
 H715 H 0.71903 0.94453 0.58393
 H716 H 0.71542 1.00968 0.62558
 H717 H 0.66474 1.06321 0.60092
 H718 H 0.61378 1.04897 0.53966
 H719 H 0.65043 0.89362 0.44449
 H720 H 0.58468 0.92841 0.44041
 C721 C 0.17832 0.46138 1.04018
 C722 C 0.18582 0.42892 1.00936
 C723 C 0.15551 0.42083 0.97456
 C724 C 0.11767 0.44162 0.97168
 C725 C 0.10770 0.47162 1.00315
 C726 C 0.14162 0.48607 1.03358
 C727 C 0.20602 0.46993 1.07785
 C728 C 0.20275 0.50632 1.10283
 C729 C 0.17139 0.53432 1.09147
 C730 C 0.14081 0.52424 1.05758
 H731 H 0.23046 0.44883 1.08857
 H732 H 0.22528 0.51321 1.13043
 H733 H 0.17027 0.56357 1.10959
 H734 H 0.11814 0.54771 1.04937
 H735 H 0.16107 0.39814 0.94904
 H736 H 0.09674 0.43468 0.94337
 C737 C -0.00437 0.36568 0.42338
 C738 C 0.00963 0.33112 0.44893
 C739 C 0.01420 0.33755 0.49550
 C740 C 0.00336 0.37682 0.51383
 C741 C -0.02154 0.40497 0.48786
 C742 C -0.03280 0.39061 0.44324
 C743 C -0.00166 0.36816 0.37696
 C744 C -0.03372 0.38651 0.35071
 C745 C -0.06903 0.40022 0.37042
 C746 C -0.06923 0.40118 0.41659
 H747 H 0.02269 0.35258 0.36079
 H748 H -0.03261 0.38727 0.31508
 H749 H -0.09557 0.41144 0.35011
 H750 H -0.09624 0.41350 0.43076
 H751 H 0.02705 0.31337 0.51709
 H752 H 0.01277 0.38423 0.54805
 C753 C 0.49335 -0.13034 -0.09687
 C754 C 0.50976 -0.16429 -0.07187
 C755 C 0.51973 -0.15666 -0.02613
 C756 C 0.51219 -0.11700 -0.00686
 C757 C 0.48696 -0.08724 -0.02994
 C758 C 0.47150 -0.10005 -0.07458
 C759 C 0.49176 -0.12955 -0.14384
 C760 C 0.46146 -0.10687 -0.16778
 C761 C 0.43180 -0.08627 -0.14530
 C762 C 0.43611 -0.08372 -0.09920
 H763 H 0.51193 -0.14815 -0.16250
 H764 H 0.45935 -0.10754 -0.20363
 H765 H 0.40610 -0.07117 -0.16354
 H766 H 0.41254 -0.06694 -0.08417
 H767 H 0.53478 -0.18045 -0.00567
 H768 H 0.52504 -0.11028 0.02647
 C769 C -0.01935 -0.16298 1.05087
 C770 C 0.00002 -0.16777 1.09444
 C771 C 0.02296 -0.13367 1.11355
 C772 C 0.03027 -0.09766 1.08983
 C773 C 0.01716 -0.09343 1.04425
 C774 C -0.00719 -0.12794 1.02419
 C775 C -0.05177 -0.19125 1.03375
 C776 C -0.06746 -0.18894 0.98972
 C777 C -0.05142 -0.15826 0.96206
 C778 C -0.02170 -0.12802 0.97903
 H779 H -0.06573 -0.21503 1.05435
 H780 H -0.09171 -0.21144 0.97689
 H781 H -0.06272 -0.15730 0.92751
 H782 H -0.01031 -0.10503 0.95630
 H783 H 0.03390 -0.13353 1.14819
 H784 H 0.04520 -0.07228 1.10968
 C785 C 0.48366 0.34458 0.52953
 C786 C 0.50797 0.33928 0.57054
 C787 C 0.52808 0.37480 0.59022
 C788 C 0.52777 0.41309 0.56942
 C789 C 0.51142 0.41842 0.52528
 C790 C 0.48907 0.38271 0.50462
 C791 C 0.45194 0.31464 0.51402
 C792 C 0.43140 0.31823 0.47218
 C793 C 0.44112 0.35219 0.44536
 C794 C 0.46925 0.38423 0.46140
 H795 H 0.44124 0.28906 0.53444
 H796 H 0.40785 0.29451 0.46053
 H797 H 0.42571 0.35447 0.41246
 H798 H 0.47462 0.40983 0.43930
 H799 H 0.54172 0.37399 0.62400
 H800 H 0.53817 0.43886 0.59100
 C801 C 0.47850 1.14601 0.59677
 C802 C 0.50137 1.17995 0.57885
 C803 C 0.52883 1.17193 0.54559
 C804 C 0.53136 1.13156 0.52793
 C805 C 0.50857 1.09703 0.54473
 C806 C 0.48688 1.10405 0.58455
 C807 C 0.44706 1.15291 0.62645
 C808 C 0.42927 1.11947 0.64925
 C809 C 0.44407 1.07929 0.64444
 C810 C 0.47360 1.07194 0.61369
 H811 H 0.43596 1.18410 0.63209
 H812 H 0.40575 1.12516 0.67249
 H813 H 0.43317 1.05384 0.66510
 H814 H 0.48798 1.04194 0.61625
 H815 H 0.54798 1.19726 0.53243
 H816 H 0.55001 1.12779 0.49971
 C817 C -0.00325 0.67198 1.03725
 C818 C -0.00623 0.67400 1.08458
 C819 C -0.00533 0.63555 1.10708
 C820 C 0.00020 0.59761 1.08531
 C821 C 0.00525 0.59524 1.03908
 C822 C 0.00976 0.63437 1.01678
 C823 C -0.01548 0.70497 1.00849
 C824 C -0.00351 0.70659 0.96507
 C825 C 0.01838 0.67370 0.94849
 C826 C 0.02405 0.63728 0.97363
 H827 H -0.03541 0.72906 1.01893
 H828 H -0.01164 0.73317 0.94416
 H829 H 0.02826 0.67511 0.91499
 H830 H 0.03830 0.61145 0.95814
 H831 H -0.01031 0.63386 1.14184
 H832 H -0.00081 0.56960 1.10564
 C833 C 0.53670 0.66662 -0.03389
 C834 C 0.50966 0.67369 -0.07243
 C835 C 0.48673 0.63855 -0.09101
 C836 C 0.48896 0.59850 -0.07173
 C837 C 0.51236 0.59091 -0.03113
 C838 C 0.53417 0.62718 -0.01074
 C839 C 0.56851 0.69686 -0.01904
 C840 C 0.59094 0.69248 0.02164
 C841 C 0.58206 0.65811 0.04813
 C842 C 0.55370 0.62626 0.03214
 H843 H 0.57710 0.72364 -0.03904
 H844 H 0.61462 0.71620 0.03298
 H845 H 0.59816 0.65531 0.08057
 H846 H 0.54763 0.60113 0.05374
 H847 H 0.46592 0.64178 -0.12054
 H848 H 0.47136 0.57321 -0.08948
 C849 C -0.03807 1.15692 0.47440
 C850 C -0.00699 1.16890 0.44510
 C851 C 0.02331 1.14076 0.43589
 C852 C 0.02349 1.10111 0.45457
 C853 C -0.00391 1.08841 0.48744
 C854 C -0.03656 1.11681 0.49651
 C855 C -0.07124 1.18398 0.48127
 C856 C -0.10192 1.17293 0.50999
 C857 C -0.10045 1.13473 0.53218
 C858 C -0.06853 1.10704 0.52556
 H859 H -0.07425 1.21367 0.46395
 H860 H -0.12709 1.19405 0.51477
 H861 H -0.12458 1.12614 0.55439
 H862 H -0.07073 1.07831 0.54348
 H863 H 0.04822 1.14986 0.41501
 H864 H 0.04696 1.08079 0.44330
 C865 C 0.79422 0.72975 0.90309
 C866 C 0.78553 0.68571 0.90582
 C867 C 0.78793 0.66205 0.86716
 C868 C 0.79067 0.68085 0.82658
 C869 C 0.78619 0.72443 0.82074
 C870 C 0.79036 0.75002 0.86054
 C871 C 0.80825 0.75383 0.94070
 C872 C 0.81154 0.79764 0.93863
 C873 C 0.80151 0.81803 0.89895
 C874 C 0.79127 0.79474 0.86034
 H875 H 0.81937 0.73907 0.97116
 H876 H 0.82200 0.81583 0.96791
 H877 H 0.80322 0.85219 0.89768
 H878 H 0.78554 0.81308 0.83111
 H879 H 0.78555 0.62783 0.86795
 H880 H 0.78992 0.65909 0.79973
 C881 C 0.28603 0.23436 0.41721
 C882 C 0.27045 0.19136 0.41795
 C883 C 0.27030 0.16886 0.37827
 C884 C 0.28166 0.18715 0.33981
 C885 C 0.28442 0.23134 0.33483
 C886 C 0.28966 0.25524 0.37504
 C887 C 0.30009 0.25672 0.45601
 C888 C 0.31188 0.29950 0.45441
 C889 C 0.31120 0.32058 0.41408
 C890 C 0.30078 0.29864 0.37471
 H891 H 0.30517 0.24128 0.48737
 H892 H 0.32248 0.31622 0.48460
 H893 H 0.32064 0.35372 0.41312
 H894 H 0.30366 0.31565 0.34432
 H895 H 0.26178 0.13541 0.37691
 H896 H 0.27951 0.16558 0.31257
 C897 C 0.72169 0.26470 0.41436
 C898 C 0.70286 0.30444 0.41813
 C899 C 0.67656 0.31761 0.38195
 C900 C 0.67188 0.29406 0.34298
 C901 C 0.69064 0.25496 0.33939
 C902 C 0.70672 0.23689 0.37973
 C903 C 0.75740 0.25286 0.44079
 C904 C 0.77084 0.21146 0.43994
 C905 C 0.74843 0.18130 0.41337
 C906 C 0.71631 0.19386 0.38318
 H907 H 0.77597 0.27564 0.46104
 H908 H 0.79853 0.20273 0.45998
 H909 H 0.75787 0.14886 0.41384
 H910 H 0.70190 0.17074 0.36004
 H911 H 0.66342 0.34853 0.38117
 H912 H 0.65726 0.30944 0.31509
 C913 C 0.23243 0.77158 0.90021
 C914 C 0.21338 0.81143 0.90225
 C915 C 0.18004 0.81905 0.87067
 C916 C 0.16879 0.78979 0.83695
 C917 C 0.18939 0.75157 0.83440
 C918 C 0.21222 0.73924 0.87365
 C919 C 0.27172 0.76316 0.92179
 C920 C 0.28541 0.72186 0.92498
 C921 C 0.25984 0.68852 0.90713
 C922 C 0.22326 0.69706 0.88117
 H923 H 0.29237 0.78857 0.93494
 H924 H 0.31578 0.71574 0.94140
 H925 H 0.26994 0.65641 0.91055
 H926 H 0.20624 0.67141 0.86330
 H927 H 0.16443 0.84870 0.86955
 H928 H 0.14609 0.79896 0.81164
 C929 C 0.27096 0.78681 0.07010
 C930 C 0.25700 0.82901 0.06190
 C931 C 0.24771 0.85279 0.09838
 C932 C 0.24982 0.83597 0.14060
 C933 C 0.26281 0.79443 0.15044
 C934 C 0.27043 0.76852 0.11353
 C935 C 0.28754 0.76261 0.03675
 C936 C 0.29709 0.72051 0.04316
 C937 C 0.29024 0.70120 0.08306
 C938 C 0.27695 0.72471 0.11780
 H939 H 0.29442 0.77608 0.00581
 H940 H 0.30946 0.70257 0.01698
 H941 H 0.29626 0.66803 0.08756
 H942 H 0.27246 0.70742 0.14751
 H943 H 0.23561 0.88410 0.09455
 H944 H 0.23971 0.85657 0.16583
 C945 C 0.77547 0.28360 0.58337
 C946 C 0.75631 0.32446 0.57682
 C947 C 0.76175 0.35269 0.61287
 C948 C 0.78047 0.34119 0.65371
 C949 C 0.79564 0.30049 0.66158
 C950 C 0.79976 0.27537 0.62405
 C951 C 0.77248 0.25006 0.55220
 C952 C 0.79566 0.21376 0.55825
 C953 C 0.82361 0.20982 0.59492
 C954 C 0.82577 0.24044 0.62765
 H955 H 0.75133 0.24898 0.52390
 H956 H 0.79198 0.18838 0.53425
 H957 H 0.84251 0.18227 0.59883
 H958 H 0.84738 0.23645 0.65642
 H959 H 0.74751 0.38304 0.61190
 H960 H 0.77732 0.36305 0.68037
 C961 C 0.27049 0.13226 0.61878
 C962 C 0.24817 0.15510 0.58480
 C963 C 0.22299 0.18784 0.59744
 C964 C 0.22124 0.19988 0.64174
 C965 C 0.24502 0.18029 0.67616
 C966 C 0.26859 0.14365 0.66440
 C967 C 0.29702 0.09949 0.60823
 C968 C 0.31905 0.07608 0.63977
 C969 C 0.31624 0.08519 0.68360
 C970 C 0.29224 0.11829 0.69561
 H971 H 0.30252 0.09152 0.57571
 H972 H 0.33889 0.05119 0.63001
 H973 H 0.33378 0.06729 0.70863
 H974 H 0.29512 0.12245 0.73014
 H975 H 0.20531 0.20557 0.57248
 H976 H 0.20299 0.22694 0.64869
 C977 C 0.77272 0.63952 0.10926
 C978 C 0.75425 0.66163 0.07244
 C979 C 0.73008 0.69647 0.08111
 C980 C 0.72586 0.71087 0.12433
 C981 C 0.74402 0.69034 0.16183
 C982 C 0.76614 0.65186 0.15375
 C983 C 0.79970 0.60613 0.10278
 C984 C 0.81671 0.58204 0.13702
 C985 C 0.80791 0.59108 0.17958
 C986 C 0.78364 0.62520 0.18779
 H987 H 0.80893 0.59827 0.07140
 H988 H 0.83688 0.55638 0.13038
 H989 H 0.82085 0.57221 0.20670
 H990 H 0.78080 0.62900 0.22188
 H991 H 0.71496 0.71368 0.05392
 H992 H 0.70886 0.73940 0.12831
 C993 C 0.21463 0.59308 0.24065
 C994 C 0.17383 0.58895 0.25724
 C995 C 0.15878 0.62515 0.27642
 C996 C 0.18314 0.66130 0.28447
 C997 C 0.22175 0.66810 0.26640
 C998 C 0.23958 0.63200 0.24729
 C999 C 0.23072 0.56042 0.21603
 C1000 C 0.27161 0.56349 0.20241
 C1001 C 0.29718 0.59911 0.21282
 C1002 C 0.28152 0.63294 0.23507
 H1003 H 0.21177 0.53263 0.20620
 H1004 H 0.28379 0.53780 0.18419
 H1005 H 0.32939 0.60061 0.20347
 H1006 H 0.30339 0.65869 0.24423
 H1007 H 0.12604 0.62777 0.28261
 H1008 H 0.16727 0.68638 0.29857
 C1009 C 0.65355 0.12123 0.72908
 C1010 C 0.67357 0.08369 0.71977
 C1011 C 0.71754 0.08694 0.71593
 C1012 C 0.74023 0.12600 0.72308
 C1013 C 0.72151 0.16095 0.74182
 C1014 C 0.67758 0.15431 0.75118
 C1015 C 0.60914 0.12358 0.72351
 C1016 C 0.58817 0.15137 0.74878
 C1017 C 0.61123 0.17768 0.77868
 C1018 C 0.65514 0.17937 0.77970
 H1019 H 0.59029 0.10165 0.70238
 H1020 H 0.55413 0.15145 0.74616
 H1021 H 0.59519 0.19866 0.79951
 H1022 H 0.66968 0.20304 0.80072
 H1023 H 0.73434 0.05968 0.70666
 H1024 H 0.77302 0.12834 0.71576
 C1025 C 0.86725 0.11585 0.28346
 C1026 C 0.84442 0.07707 0.28782
 C1027 C 0.80083 0.07863 0.29169
 C1028 C 0.78002 0.11641 0.28518
 C1029 C 0.80101 0.15326 0.27035
 C1030 C 0.84571 0.15104 0.26586
 C1031 C 0.91170 0.11847 0.29012
 C1032 C 0.93482 0.15104 0.27136
 C1033 C 0.91401 0.18078 0.24544
 C1034 C 0.87011 0.18072 0.24251
 H1035 H 0.92892 0.09405 0.30737
 H1036 H 0.96887 0.15195 0.27506
 H1037 H 0.93187 0.20491 0.22869
 H1038 H 0.85642 0.20520 0.22278
 H1039 H 0.78235 0.05041 0.29878
 H1040 H 0.74655 0.11564 0.28926
 C1041 C 0.36004 0.61152 0.76788
 C1042 C 0.33793 0.57166 0.76888
 C1043 C 0.29396 0.57154 0.76978
 C1044 C 0.27264 0.60943 0.76645
 C1045 C 0.29365 0.64788 0.75597
 C1046 C 0.33805 0.64651 0.75099
 C1047 C 0.40448 0.61570 0.77532
 C1048 C 0.42687 0.64894 0.75675
 C1049 C 0.40546 0.67778 0.73022
 C1050 C 0.36156 0.67656 0.72719
 H1051 H 0.42263 0.59230 0.79292
 H1052 H 0.46090 0.65097 0.76097
 H1053 H 0.42277 0.70223 0.71333
 H1054 H 0.34708 0.70048 0.70720
 H1055 H 0.27575 0.54233 0.77266
 H1056 H 0.23894 0.60781 0.76912
 C1057 C 0.37112 0.37835 0.74613
 C1058 C 0.34668 0.41163 0.72913
 C1059 C 0.30331 0.40165 0.71935
 C1060 C 0.28543 0.36119 0.72807
 C1061 C 0.30841 0.33114 0.75293
 C1062 C 0.35132 0.34420 0.76782
 C1063 C 0.41467 0.37665 0.74182
 C1064 C 0.43974 0.35369 0.77172
 C1065 C 0.42082 0.33006 0.80395
 C1066 C 0.37704 0.32413 0.80130
 H1067 H 0.42868 0.38974 0.71320
 H1068 H 0.47351 0.35391 0.76961
 H1069 H 0.43999 0.31289 0.82821
 H1070 H 0.36533 0.30140 0.82372
 H1071 H 0.28309 0.42506 0.70427
 H1072 H 0.25292 0.35410 0.71687
 C1073 C 0.79516 0.91258 0.26346
 C1074 C 0.83662 0.92113 0.24883
 C1075 C 0.85444 0.88813 0.22587
 C1076 C 0.83477 0.84767 0.22206
 C1077 C 0.79582 0.83855 0.23959
 C1078 C 0.77285 0.87421 0.25061
 C1079 C 0.77494 0.93947 0.29200
 C1080 C 0.73153 0.93563 0.29552
 C1081 C 0.70794 0.90429 0.27182
 C1082 C 0.72842 0.87346 0.24960
 H1083 H 0.79211 0.96317 0.31234
 H1084 H 0.71613 0.95754 0.31590
 H1085 H 0.67401 0.90253 0.27254
 H1086 H 0.70930 0.84910 0.23231
 H1087 H 0.88404 0.89295 0.21085
 H1088 H 0.85064 0.82316 0.20577
 C1089 C 0.65353 0.89540 0.78448
 C1090 C 0.66265 0.92394 0.75024
 C1091 C 0.68740 0.91118 0.71701
 C1092 C 0.70118 0.87044 0.71568
 C1093 C 0.68885 0.83896 0.74578
 C1094 C 0.66707 0.85281 0.78320
 C1095 C 0.63262 0.90923 0.82106
 C1096 C 0.62696 0.88332 0.85725
 C1097 C 0.64103 0.84260 0.85717
 C1098 C 0.65918 0.82700 0.82030
 H1099 H 0.62159 0.94060 0.82254
 H1100 H 0.61170 0.89492 0.88547
 H1101 H 0.63697 0.82243 0.88556
 H1102 H 0.66562 0.79436 0.82254
 H1103 H 0.69575 0.93287 0.69105
 H1104 H 0.72078 0.86379 0.68902
 C1105 C 0.12205 0.39176 0.23410
 C1106 C 0.14484 0.42585 0.25817
 C1107 C 0.18383 0.41645 0.27979
 C1108 C 0.20266 0.37817 0.27433
 C1109 C 0.18265 0.34496 0.24937
 C1110 C 0.13986 0.35089 0.23195
 C1111 C 0.08256 0.39645 0.21060
 C1112 C 0.05908 0.36337 0.19016
 C1113 C 0.07484 0.32382 0.19060
 C1114 C 0.11466 0.31784 0.21009
 H1115 H 0.06879 0.42509 0.20479
 H1116 H 0.02882 0.36881 0.17295
 H1117 H 0.05690 0.29790 0.17417
 H1118 H 0.12466 0.28671 0.20573
 H1119 H 0.20111 0.43941 0.30112
 H1120 H 0.23354 0.37484 0.29086
 C1121 C 0.11362 0.18671 0.81191
 C1122 C 0.09500 0.22611 0.81287
 C1123 C 0.11142 0.25803 0.78620
 C1124 C 0.14888 0.25225 0.76567
 C1125 C 0.17475 0.21816 0.77789
 C1126 C 0.15705 0.18693 0.80681
 C1127 C 0.09240 0.14846 0.82200
 C1128 C 0.11519 0.11593 0.84141
 C1129 C 0.15837 0.12237 0.85080
 C1130 C 0.17909 0.15824 0.83472
 H1131 H 0.05834 0.14545 0.81924
 H1132 H 0.09896 0.08765 0.85244
 H1133 H 0.17623 0.09931 0.86943
 H1134 H 0.21181 0.16238 0.84502
 H1135 H 0.09577 0.28762 0.78199
 H1136 H 0.15991 0.27745 0.74473
 C1137 C 0.59833 0.70321 0.29086
 C1138 C 0.58225 0.74341 0.29463
 C1139 C 0.60065 0.77597 0.27002
 C1140 C 0.63791 0.76910 0.24906
 C1141 C 0.66176 0.73319 0.25978
 C1142 C 0.64184 0.70203 0.28787
 C1143 C 0.57516 0.66581 0.30023
 C1144 C 0.59565 0.63329 0.32241
 C1145 C 0.63843 0.63857 0.33406
 C1146 C 0.66135 0.67280 0.31764
 H1147 H 0.54111 0.66420 0.29635
 H1148 H 0.57796 0.60624 0.33405
 H1149 H 0.65437 0.61591 0.35486
 H1150 H 0.69375 0.67466 0.32944
 H1151 H 0.58665 0.80652 0.26747
 H1152 H 0.65066 0.79436 0.22932
 C1153 C 0.57286 0.19778 0.22027
 C1154 C 0.56692 0.21528 0.17721
 C1155 C 0.60284 0.22138 0.15362
 C1156 C 0.64259 0.22244 0.17478
 C1157 C 0.64919 0.21660 0.22104
 C1158 C 0.61392 0.19993 0.24330
 C1159 C 0.53981 0.17570 0.23958
 C1160 C 0.54514 0.15985 0.28248
 C1161 C 0.58373 0.16536 0.30654
 C1162 C 0.61787 0.18482 0.28716
 H1163 H 0.51051 0.16859 0.22050
 H1164 H 0.51945 0.14274 0.29697
 H1165 H 0.58766 0.15317 0.33993
 H1166 H 0.64722 0.18625 0.30659
 H1167 H 0.60031 0.22798 0.11843
 H1168 H 0.66787 0.22995 0.15378
 C1169 C 0.06574 0.69178 0.72463
 C1170 C 0.05917 0.70304 0.67925
 C1171 C 0.09400 0.70341 0.65368
 C1172 C 0.13411 0.70654 0.67321
 C1173 C 0.14190 0.70749 0.71969
 C1174 C 0.10766 0.69439 0.74543
 C1175 C 0.03275 0.67538 0.74893
 C1176 C 0.03951 0.66558 0.79366
 C1177 C 0.07961 0.67049 0.81462
 C1178 C 0.11347 0.68411 0.79073
 H1179 H 0.00219 0.66751 0.73311
 H1180 H 0.01371 0.65313 0.81188
 H1181 H 0.08481 0.66229 0.84925
 H1182 H 0.14402 0.68451 0.80793
 H1183 H 0.09018 0.70605 0.61790
 H1184 H 0.15878 0.71063 0.65062
 C1185 C 0.90333 0.77617 0.71001
 C1186 C 0.90643 0.75448 0.66918
 C1187 C 0.86952 0.74516 0.64331
 C1188 C 0.83067 0.74902 0.65985
 C1189 C 0.82608 0.76169 0.70404
 C1190 C 0.86316 0.77861 0.72836
 C1191 C 0.93899 0.79611 0.73266
 C1192 C 0.93635 0.81473 0.77394
 C1193 C 0.89811 0.81438 0.79326
 C1194 C 0.86205 0.79682 0.77067
 H1195 H 0.96896 0.79893 0.71812
 H1196 H 0.96407 0.82965 0.79091
 H1197 H 0.89616 0.82853 0.82559
 H1198 H 0.83365 0.79822 0.78675
 H1199 H 0.86999 0.73311 0.61019
 H1200 H 0.80443 0.73922 0.63725
 C1201 C 0.40877 0.28774 0.21171
 C1202 C 0.41197 0.26005 0.17477
 C1203 C 0.37523 0.24066 0.15624
 C1204 C 0.33691 0.24523 0.17433
 C1205 C 0.33184 0.26945 0.21331
 C1206 C 0.36874 0.29269 0.23076
 C1207 C 0.44435 0.31124 0.22994
 C1208 C 0.44165 0.33763 0.26633
 C1209 C 0.40343 0.34187 0.28500
 C1210 C 0.36738 0.31999 0.26731
 H1211 H 0.47440 0.31061 0.21561
 H1212 H 0.46934 0.35540 0.27975
 H1213 H 0.40156 0.36268 0.31311
 H1214 H 0.33863 0.32528 0.28239
 H1215 H 0.37622 0.21953 0.12838
 H1216 H 0.31165 0.22642 0.15772
 C1217 C 0.42225 0.76468 0.24710
 C1218 C 0.43271 0.77117 0.29342
 C1219 C 0.40442 0.79364 0.31645
 C1220 C 0.36466 0.80126 0.29756
 C1221 C 0.34894 0.78125 0.25757
 C1222 C 0.37909 0.76302 0.23129
 C1223 C 0.45254 0.76368 0.21517
 C1224 C 0.44145 0.75003 0.17203
 C1225 C 0.39971 0.73931 0.15941
 C1226 C 0.36871 0.74641 0.18850
 H1227 H 0.48422 0.77644 0.22201
 H1228 H 0.46518 0.74843 0.14821
 H1229 H 0.39095 0.72839 0.12601
 H1230 H 0.33695 0.74200 0.17567
 H1231 H 0.41267 0.80581 0.34941
 H1232 H 0.34533 0.82005 0.31718
 C1233 C 0.92611 0.28854 0.82640
 C1234 C 0.94690 0.25151 0.81795
 C1235 C 0.92957 0.22482 0.78391
 C1236 C 0.89008 0.23202 0.76300
 C1237 C 0.86475 0.26404 0.77768
 C1238 C 0.88304 0.29186 0.81273
 C1239 C 0.94861 0.32430 0.84423
 C1240 C 0.92802 0.35870 0.85913
 C1241 C 0.88457 0.35735 0.85642
 C1242 C 0.86214 0.32409 0.83442
 H1243 H 0.98210 0.32660 0.84320
 H1244 H 0.94561 0.38607 0.87295
 H1245 H 0.86807 0.38333 0.86888
 H1246 H 0.82893 0.32651 0.83442
 H1247 H 0.94604 0.19736 0.77428
 H1248 H 0.87823 0.21026 0.73708
 C1249 C 0.52389 0.96336 0.65670
 C1250 C 0.56832 0.96814 0.65972
 C1251 C 0.59015 0.95020 0.62616
 C1252 C 0.56870 0.93593 0.58671
 C1253 C 0.52620 0.94492 0.57760
 C1254 C 0.50255 0.95073 0.61545
 C1255 C 0.50015 0.97157 0.69308
 C1256 C 0.45637 0.96714 0.68932
 C1257 C 0.43547 0.95462 0.64928
 C1258 C 0.45819 0.94645 0.61266
 H1259 H 0.51512 0.98022 0.72494
 H1260 H 0.43858 0.97329 0.71769
 H1261 H 0.40146 0.95118 0.64659
 H1262 H 0.44071 0.93655 0.58238
 H1263 H 0.62413 0.94904 0.62968
 H1264 H 0.58661 0.92330 0.56120
 C1265 C 0.02656 0.48241 1.16091
 C1266 C 0.07037 0.49214 1.16584
 C1267 C 0.09682 0.47151 1.13823
 C1268 C 0.07988 0.44736 1.10219
 C1269 C 0.03676 0.44766 1.09034
 C1270 C 0.01045 0.45594 1.12534
 C1271 C -0.00138 0.49744 1.19097
 C1272 C -0.04379 0.48447 1.18757
 C1273 C -0.05914 0.45672 1.15407
 C1274 C -0.03247 0.44279 1.12294
 H1275 H 0.00930 0.51913 1.21731
 H1276 H -0.06479 0.49587 1.21114
 H1277 H -0.09206 0.44661 1.15167
 H1278 H -0.04586 0.42233 1.09670
 H1279 H 0.13057 0.47295 1.14556
 H1280 H 0.10067 0.43241 1.08088
 C1281 C -0.01797 0.02430 1.18794
 C1282 C -0.06166 0.01327 1.18662
 C1283 C -0.08582 0.02288 1.14777
 C1284 C -0.06766 0.04010 1.11098
 C1285 C -0.02383 0.04217 1.10742
 C1286 C 0.00130 0.03752 1.14824
 C1287 C 0.00680 0.02392 1.22826
 C1288 C 0.05016 0.03167 1.22940
 C1289 C 0.06925 0.04264 1.19086
 C1290 C 0.04505 0.04704 1.15114
 H1291 H -0.00731 0.01851 1.25924
 H1292 H 0.06893 0.02997 1.26051
 H1293 H 0.10289 0.04917 1.19197
 H1294 H 0.06100 0.05908 1.12329
 H1295 H -0.11988 0.01977 1.14695
 H1296 H -0.08902 0.04954 1.08451
 C1297 C 0.47936 0.52281 0.66121
 C1298 C 0.43504 0.51995 0.66387
 C1299 C 0.41062 0.53847 0.62892
 C1300 C 0.42875 0.55862 0.59357
 C1301 C 0.47228 0.55900 0.58905
 C1302 C 0.49741 0.54832 0.62791
 C1303 C 0.50654 0.49896 0.68843
 C1304 C 0.55006 0.50672 0.69006
 C1305 C 0.56711 0.53772 0.66329
 C1306 C 0.54111 0.55793 0.63173
 H1307 H 0.49445 0.47151 0.70453
 H1308 H 0.57070 0.48818 0.71142
 H1309 H 0.60079 0.54416 0.66501
 H1310 H 0.55543 0.57961 0.60913
 H1311 H 0.37663 0.53823 0.62940
 H1312 H 0.40768 0.57149 0.56859
 C1313 C 0.47870 0.45159 -0.16923
 C1314 C 0.43601 0.46271 -0.17525
 C1315 C 0.41010 0.45319 -0.14045
 C1316 C 0.42744 0.44296 -0.09840
 C1317 C 0.47117 0.43885 -0.09034
 C1318 C 0.49442 0.43434 -0.12811
 C1319 C 0.50698 0.45904 -0.20175
 C1320 C 0.54660 0.44151 -0.19851
 C1321 C 0.55932 0.41841 -0.16110
 C1322 C 0.53398 0.41596 -0.12536
 H1323 H 0.49871 0.47985 -0.22825
 H1324 H 0.56767 0.44614 -0.22472
 H1325 H 0.58983 0.40440 -0.15878
 H1326 H 0.54522 0.39961 -0.09574
 H1327 H 0.37669 0.45864 -0.14425
 H1328 H 0.40696 0.44401 -0.07155
 C1329 C -0.02449 0.94637 0.34912
 C1330 C -0.06717 0.95755 0.34342
 C1331 C -0.09273 0.94974 0.37867
 C1332 C -0.07536 0.94039 0.42087
 C1333 C -0.03144 0.93872 0.42979
 C1334 C -0.00696 0.93520 0.39230
 C1335 C 0.00133 0.94621 0.31329
 C1336 C 0.04298 0.93427 0.31904
 C1337 C 0.05948 0.92165 0.36049
 C1338 C 0.03473 0.92171 0.39672
 H1339 H -0.01104 0.95282 0.28019
 H1340 H 0.06217 0.93368 0.29091
 H1341 H 0.09147 0.91124 0.36449
 H1342 H 0.04805 0.90974 0.42776
 H1343 H -0.12608 0.95554 0.37472
 H1344 H -0.09631 0.94109 0.44729
 C1345 C 0.01815 0.55345 0.32190
 C1346 C 0.04548 0.52006 0.31497
 C1347 C 0.04390 0.48477 0.34130
 C1348 C 0.02225 0.48518 0.37883
 C1349 C 0.00188 0.52164 0.39326
 C1350 C -0.00539 0.55337 0.36064
 C1351 C 0.01349 0.58652 0.29108
 C1352 C -0.01478 0.61818 0.29732
 C1353 C -0.03851 0.61756 0.33436
 C1354 C -0.03388 0.58558 0.36585
 H1355 H 0.03095 0.58759 0.26162
 H1356 H -0.01843 0.64323 0.27318
 H1357 H -0.06047 0.64217 0.33885
 H1358 H -0.05256 0.58635 0.39419
 H1359 H 0.06237 0.45766 0.33493
 H1360 H 0.02411 0.45616 0.39726
 C1361 C 0.52879 0.04018 -0.19027
 C1362 C 0.56727 0.01849 -0.18864
 C1363 C 0.58782 0.01193 -0.14759
 C1364 C 0.56934 0.02089 -0.10919
 C1365 C 0.52809 0.03653 -0.10846
 C1366 C 0.50854 0.04836 -0.15011
 C1367 C 0.51114 0.05591 -0.23065
 C1368 C 0.47393 0.07775 -0.23211
 C1369 C 0.45373 0.08460 -0.19358
 C1370 C 0.47094 0.07044 -0.15291
 H1371 H 0.52642 0.05228 -0.26119
 H1372 H 0.46097 0.09005 -0.26319
 H1373 H 0.42510 0.10200 -0.19506
 H1374 H 0.45557 0.07888 -0.12378
 H1375 H 0.61992 0.00173 -0.14481
 H1376 H 0.58834 0.01386 -0.07939
 C1377 C 0.66849 0.55240 -0.06703
 C1378 C 0.68520 0.57883 -0.03189
 C1379 C 0.66205 0.58398 0.00467
 C1380 C 0.62329 0.56348 0.00744
 C1381 C 0.60513 0.53553 -0.02521
 C1382 C 0.62812 0.53079 -0.06433
 C1383 C 0.69154 0.54673 -0.10468
 C1384 C 0.67520 0.52190 -0.14000
 C1385 C 0.63590 0.50195 -0.13847
 C1386 C 0.61277 0.50598 -0.10131
 H1387 H 0.72247 0.56133 -0.10734
 H1388 H 0.69310 0.51822 -0.16881
 H1389 H 0.62337 0.48306 -0.16640
 H1390 H 0.58289 0.48953 -0.10319
 H1391 H 0.67373 0.60495 0.03146
 H1392 H 0.60795 0.57050 0.03645
 C1393 C 0.14056 1.10841 0.50516
 C1394 C 0.17127 1.08548 0.48489
 C1395 C 0.16311 1.04303 0.47434
 C1396 C 0.12471 1.02303 0.48246
 C1397 C 0.09340 1.04391 0.50372
 C1398 C 0.10264 1.08739 0.51743
 C1399 C 0.14713 1.15219 0.51383
 C1400 C 0.11907 1.17463 0.53669
 C1401 C 0.08389 1.15413 0.55169
 C1402 C 0.07582 1.11153 0.54243
 H1403 H 0.17366 1.17010 0.50278
 H1404 H 0.12485 1.20804 0.54305
 H1405 H 0.06213 1.17150 0.56999
 H1406 H 0.04729 1.09963 0.55465
 H1407 H 0.18669 1.02519 0.45921
 H1408 H 0.12003 0.99037 0.47225
 C1409 C 0.17092 -0.02767 0.98338
 C1410 C 0.17666 -0.06792 1.00260
 C1411 C 0.15171 -0.08075 1.03638
 C1412 C 0.11737 -0.05765 1.04624
 C1413 C 0.10565 -0.02163 1.02205
 C1414 C 0.13671 -0.00304 0.99540
 C1415 C 0.19867 -0.01118 0.95291
 C1416 C 0.19561 0.03027 0.93801
 C1417 C 0.16488 0.05567 0.95304
 C1418 C 0.13560 0.03927 0.98118
 H1419 H 0.22352 -0.02978 0.94153
 H1420 H 0.21798 0.04321 0.91590
 H1421 H 0.16394 0.08849 0.94344
 H1422 H 0.11405 0.06097 0.99367
 H1423 H 0.15711 -0.11038 1.05332
 H1424 H 0.09937 -0.06966 1.07189
 C1425 C 0.66195 0.46359 0.47364
 C1426 C 0.66740 0.43216 0.50659
 C1427 C 0.64431 0.43452 0.54395
 C1428 C 0.61166 0.46274 0.54519
 C1429 C 0.59875 0.48715 0.50808
 C1430 C 0.62906 0.49297 0.47584
 C1431 C 0.68944 0.46711 0.43914
 C1432 C 0.68782 0.50129 0.41041
 C1433 C 0.65893 0.53226 0.41567
 C1434 C 0.62922 0.52792 0.44716
 H1435 H 0.71352 0.44462 0.43526
 H1436 H 0.71008 0.50461 0.38507
 H1437 H 0.65996 0.56015 0.39564
 H1438 H 0.60901 0.55388 0.45074
 H1439 H 0.64999 0.41297 0.57130
 H1440 H 0.59609 0.46468 0.57534
 C1441 C -0.15706 0.39050 0.50938
 C1442 C -0.19195 0.40952 0.48767
 C1443 C -0.18757 0.45076 0.47197
 C1444 C -0.14874 0.47288 0.47621
 C1445 C -0.11319 0.45565 0.49868
 C1446 C -0.11883 0.41462 0.51905
 C1447 C -0.15970 0.34756 0.52189
 C1448 C -0.12794 0.32982 0.54855
 C1449 C -0.09308 0.35452 0.56330
 C1450 C -0.08856 0.39608 0.54891
 H1451 H -0.18617 0.32717 0.51089
 H1452 H -0.13071 0.29704 0.55834
 H1453 H -0.06879 0.34117 0.58522
 H1454 H -0.06038 0.41209 0.56162
 H1455 H -0.21422 0.46578 0.45545
 H1456 H -0.14681 0.50400 0.46159
 C1457 C 0.35425 -0.10105 -0.00669
 C1458 C 0.31937 -0.08152 -0.02754
 C1459 C 0.32346 -0.03930 -0.04050
 C1460 C 0.36230 -0.01701 -0.03538
 C1461 C 0.39801 -0.03519 -0.01432
 C1462 C 0.39238 -0.07725 0.00405
 C1463 C 0.35149 -0.14437 0.00399
 C1464 C 0.38309 -0.16343 0.02953
 C1465 C 0.41814 -0.13952 0.04500
 C1466 C 0.42261 -0.09736 0.03270
 H1467 H 0.32498 -0.16390 -0.00793
 H1468 H 0.38001 -0.19655 0.03793
 H1469 H 0.44249 -0.15382 0.06606
 H1470 H 0.45089 -0.08231 0.04595
 H1471 H 0.29656 -0.02369 -0.05548
 H1472 H 0.36434 0.01476 -0.04845
 C1473 C 0.36628 1.10414 0.51701
 C1474 C 0.33028 1.07805 0.50509
 C1475 C 0.33602 1.03618 0.49284
 C1476 C 0.37674 1.02094 0.49087
 C1477 C 0.41301 1.04816 0.49595
 C1478 C 0.40615 1.09180 0.50492
 C1479 C 0.36198 1.14561 0.53323
 C1480 C 0.39260 1.17695 0.52733
 C1481 C 0.42802 1.16700 0.50624
 C1482 C 0.43530 1.12491 0.49692
 H1483 H 0.33351 1.15496 0.54692
 H1484 H 0.38782 1.20922 0.53692
 H1485 H 0.45061 1.19172 0.49824
 H1486 H 0.46289 1.11927 0.48015
 H1487 H 0.30898 1.01570 0.48310
 H1488 H 0.37955 0.98798 0.48267
 C1489 C -0.16193 0.53033 0.97461
 C1490 C -0.16498 0.56874 0.99753
 C1491 C -0.13082 0.58327 1.02537
 C1492 C -0.09444 0.56090 1.03053
 C1493 C -0.08707 0.52681 1.00286
 C1494 C -0.12318 0.50839 0.97780
 C1495 C -0.19689 0.51342 0.94852
 C1496 C -0.19525 0.47439 0.92802
 C1497 C -0.15900 0.45151 0.93351
 C1498 C -0.12324 0.46822 0.95758
 H1499 H -0.22619 0.52956 0.94515
 H1500 H -0.22269 0.46117 0.90903
 H1501 H -0.15910 0.42006 0.92007
 H1502 H -0.09730 0.44774 0.96218
 H1503 H -0.13128 0.61351 1.04200
 H1504 H -0.07077 0.57327 1.05416
 C1505 C -0.07203 0.65280 0.53177
 C1506 C -0.03469 0.67376 0.54924
 C1507 C 0.00256 0.66771 0.52862
 C1508 C 0.00551 0.63350 0.50083
 C1509 C -0.03004 0.60801 0.48682
 C1510 C -0.07002 0.62403 0.49584
 C1511 C -0.11074 0.65773 0.55033
 C1512 C -0.14771 0.63905 0.53050
 C1513 C -0.14658 0.61593 0.49148
 C1514 C -0.10810 0.60846 0.47414
 H1515 H -0.11246 0.67551 0.58032
 H1516 H -0.17745 0.64354 0.54476
 H1517 H -0.17550 0.60286 0.47519
 H1518 H -0.10833 0.59003 0.44412
 H1519 H 0.03148 0.68453 0.54042
 H1520 H 0.03692 0.62428 0.49708
 C1521 C 0.43778 0.16317 0.02528
 C1522 C 0.47364 0.18086 0.04968
 C1523 C 0.51306 0.17402 0.03359
 C1524 C 0.51829 0.14068 0.00526
 C1525 C 0.48391 0.11660 -0.01408
 C1526 C 0.44331 0.13368 -0.00967
 C1527 C 0.39682 0.17364 0.03455
 C1528 C 0.36206 0.15831 0.00797
 C1529 C 0.36761 0.13258 -0.02830
 C1530 C 0.40777 0.12061 -0.03732
 H1531 H 0.39138 0.19431 0.06158
 H1532 H 0.33075 0.16712 0.01504
 H1533 H 0.34070 0.12154 -0.04948
 H1534 H 0.41074 0.10185 -0.06656
 H1535 H 0.54125 0.18981 0.04875
 H1536 H 0.54994 0.13134 0.00442
 C1537 C 0.03298 0.17175 0.97940
 C1538 C 0.00936 0.17661 0.93820
 C1539 C -0.02059 0.14540 0.92462
 C1540 C -0.02527 0.10853 0.94892
 C1541 C -0.00268 0.10202 0.99033
 C1542 C 0.02426 0.13624 1.00721
 C1543 C 0.06544 0.20130 0.99353
 C1544 C 0.08580 0.19865 1.03566
 C1545 C 0.07405 0.16684 1.06450
 C1546 C 0.04345 0.13610 1.05062
 H1547 H 0.07469 0.22718 0.97252
 H1548 H 0.11006 0.22203 1.04637
 H1549 H 0.08882 0.16587 1.09778
 H1550 H 0.03416 0.11309 1.07461
 H1551 H -0.03779 0.14774 0.89258
 H1552 H -0.04637 0.08423 0.93386
 C1553 C 0.52386 0.68542 0.46003
 C1554 C 0.49874 0.68980 0.41961
 C1555 C 0.46871 0.65806 0.40755
 C1556 C 0.46578 0.62101 0.43216
 C1557 C 0.49058 0.61470 0.47226
 C1558 C 0.51733 0.64948 0.48800
 C1559 C 0.55546 0.71617 0.47341
 C1560 C 0.57724 0.71399 0.51485
 C1561 C 0.56778 0.68145 0.54378
 C1562 C 0.53807 0.64966 0.53066
 H1563 H 0.56282 0.74276 0.45250
 H1564 H 0.60076 0.73828 0.52503
 H1565 H 0.58348 0.68082 0.57664
 H1566 H 0.53043 0.62626 0.55484
 H1567 H 0.44984 0.66022 0.37648
 H1568 H 0.44448 0.59635 0.41818
 C1569 C 0.49735 0.83464 0.44811
 C1570 C 0.50774 0.83616 0.40296
 C1571 C 0.51313 0.87551 0.38326
 C1572 C 0.51062 0.91255 0.40712
 C1573 C 0.50400 0.91279 0.45293
 C1574 C 0.49428 0.87299 0.47276
 C1575 C 0.48996 0.79594 0.46972
 C1576 C 0.47837 0.79415 0.51313
 C1577 C 0.47287 0.83110 0.53596
 C1578 C 0.48019 0.86987 0.51588
 H1579 H 0.49259 0.76650 0.45369
 H1580 H 0.47275 0.76390 0.52872
 H1581 H 0.46237 0.82979 0.56923
 H1582 H 0.47273 0.89678 0.53419
 H1583 H 0.51948 0.87775 0.34858
 H1584 H 0.51533 0.94141 0.38880
 C1585 C 0.01444 0.32357 0.96702
 C1586 C 0.02666 0.32318 0.92248
 C1587 C 0.03466 0.36202 0.90252
 C1588 C 0.02838 0.39987 0.92368
 C1589 C 0.01965 0.40239 0.96886
 C1590 C 0.01144 0.36296 0.99038
 C1591 C 0.00563 0.28564 0.98942
 C1592 C -0.00550 0.28536 1.03303
 C1593 C -0.00892 0.32309 1.05530
 C1594 C -0.00103 0.36121 1.03411
 H1595 H 0.00710 0.25570 0.97379
 H1596 H -0.01187 0.25568 1.04944
 H1597 H -0.01821 0.32290 1.08906
 H1598 H -0.00586 0.38888 1.05235
 H1599 H 0.04364 0.36334 0.86864
 H1600 H 0.03208 0.42772 0.90356
 C1601 C 0.48691 0.35157 0.08975
 C1602 C 0.49563 0.31386 0.06870
 C1603 C 0.51692 0.31649 0.02921
 C1604 C 0.52531 0.35606 0.00914
 C1605 C 0.51792 0.39391 0.03130
 C1606 C 0.50749 0.38906 0.07685
 C1607 C 0.46222 0.35261 0.12654
 C1608 C 0.46524 0.38735 0.15503
 C1609 C 0.49585 0.41891 0.14923
 C1610 C 0.51858 0.41838 0.11148
 H1611 H 0.44051 0.32701 0.13291
 H1612 H 0.44622 0.38830 0.18322
 H1613 H 0.50203 0.44356 0.17382
 H1614 H 0.54409 0.44144 0.10922
 H1615 H 0.52555 0.28787 0.01315
 H1616 H 0.53645 0.35701 -0.02385
 C1617 C -0.01584 0.84591 0.60074
 C1618 C -0.00448 0.81059 0.57686
 C1619 C 0.01827 0.81769 0.53895
 C1620 C 0.02526 0.85916 0.52313
 C1621 C 0.01542 0.89417 0.54870
 C1622 C 0.00376 0.88513 0.59279
 C1623 C -0.04528 0.84386 0.63313
 C1624 C -0.04752 0.87676 0.66345
 C1625 C -0.01788 0.91016 0.66354
 C1626 C 0.00945 0.91303 0.62950
 H1627 H -0.06818 0.81853 0.63277
 H1628 H -0.07056 0.87524 0.68809
 H1629 H -0.01620 0.93377 0.68952
 H1630 H 0.03360 0.93802 0.63120
 H1631 H 0.02850 0.79116 0.52047
 H1632 H 0.03708 0.86373 0.49075
 C1633 C 0.21924 0.27211 0.08346
 C1634 C 0.21965 0.31626 0.07652
 C1635 C 0.19615 0.34085 0.10280
 C1636 C 0.18022 0.32392 0.14069
 C1637 C 0.18329 0.28059 0.15150
 C1638 C 0.19368 0.25424 0.11603
 C1639 C 0.24548 0.24557 0.06171
 C1640 C 0.24207 0.20182 0.06730
 C1641 C 0.21170 0.18405 0.09346
 C1642 C 0.18759 0.21007 0.11789
 H1643 H 0.26932 0.25859 0.04131
 H1644 H 0.26256 0.18154 0.05068
 H1645 H 0.20833 0.15010 0.09659
 H1646 H 0.16622 0.19580 0.14039
 H1647 H 0.19558 0.37469 0.09786
 H1648 H 0.17363 0.34745 0.16388
 C1649 C 0.69608 0.77238 0.57112
 C1650 C 0.70147 0.81680 0.57425
 C1651 C 0.68003 0.83759 0.60633
 C1652 C 0.66153 0.81450 0.63997
 C1653 C 0.67039 0.77184 0.64593
 C1654 C 0.67874 0.74977 0.60675
 C1655 C 0.70770 0.74991 0.53406
 C1656 C 0.70177 0.70608 0.53181
 C1657 C 0.68411 0.68406 0.56629
 C1658 C 0.67262 0.70564 0.60353
 H1659 H 0.72000 0.76611 0.50610
 H1660 H 0.71043 0.68919 0.50291
 H1661 H 0.67910 0.65013 0.56409
 H1662 H 0.65831 0.68788 0.62947
 H1663 H 0.67960 0.87175 0.60682
 H1664 H 0.64618 0.83112 0.66501
 C1665 C 0.25943 0.71360 0.57640
 C1666 C 0.25790 0.66890 0.57326
 C1667 C 0.27076 0.64593 0.61068
 C1668 C 0.28354 0.66536 0.65031
 C1669 C 0.28054 0.70913 0.65710
 C1670 C 0.27215 0.73391 0.61802
 C1671 C 0.24907 0.73869 0.53917
 C1672 C 0.25241 0.78255 0.54171
 C1673 C 0.26620 0.80231 0.58139
 C1674 C 0.27601 0.77840 0.61909
 H1675 H 0.23811 0.72476 0.50791
 H1676 H 0.24459 0.80130 0.51261
 H1677 H 0.26943 0.83640 0.58297
 H1678 H 0.28782 0.79523 0.64845
 H1679 H 0.27120 0.61175 0.60928
 H1680 H 0.29067 0.64388 0.67653
 C1681 C 0.77517 0.21553 0.08789
 C1682 C 0.77065 0.17085 0.08682
 C1683 C 0.78079 0.14884 0.12572
 C1684 C 0.79504 0.16913 0.16422
 C1685 C 0.79264 0.21307 0.16950
 C1686 C 0.78622 0.23688 0.12939
 C1687 C 0.76951 0.23947 0.04890
 C1688 C 0.77390 0.28337 0.05023
 C1689 C 0.78450 0.30414 0.09020
 C1690 C 0.79080 0.28128 0.12930
 H1691 H 0.76185 0.22464 0.01713
 H1692 H 0.76940 0.30137 0.01999
 H1693 H 0.78835 0.33822 0.09084
 H1694 H 0.80055 0.29873 0.15896
 H1695 H 0.77856 0.11460 0.12632
 H1696 H 0.80099 0.14819 0.19117
 C1697 C 0.78670 0.18361 0.90208
 C1698 C 0.75437 0.18238 0.93104
 C1699 C 0.71770 0.20376 0.91664
 C1700 C 0.71370 0.22061 0.87283
 C1701 C 0.74082 0.20771 0.84025
 C1702 C 0.77386 0.18060 0.85720
 C1703 C 0.82906 0.17696 0.91612
 C1704 C 0.85440 0.15614 0.88801
 C1705 C 0.83678 0.14090 0.84733
 C1706 C 0.79602 0.15178 0.83257
 H1707 H 0.84057 0.18315 0.95012
 H1708 H 0.88611 0.14854 0.89936
 H1709 H 0.85492 0.12158 0.82682
 H1710 H 0.78365 0.14033 0.80066
 H1711 H 0.69256 0.20708 0.93851
 H1712 H 0.68856 0.24169 0.86404
 C1713 C 0.26628 0.71950 0.41926
 C1714 C 0.23170 0.69144 0.42537
 C1715 C 0.19270 0.70077 0.40400
 C1716 C 0.19072 0.72781 0.36720
 C1717 C 0.22764 0.74710 0.35283
 C1718 C 0.26246 0.75064 0.38572
 C1719 C 0.30330 0.71930 0.44792
 C1720 C 0.33428 0.75130 0.44600
 C1721 C 0.32787 0.78503 0.41739
 C1722 C 0.29177 0.78541 0.38863
 H1723 H 0.30759 0.69603 0.47373
 H1724 H 0.36212 0.75122 0.46864
 H1725 H 0.35041 0.81151 0.41823
 H1726 H 0.28597 0.81443 0.37109
 H1727 H 0.16425 0.68571 0.41426
 H1728 H 0.16078 0.73203 0.34900
 C1729 C 0.78629 0.78582 0.42980
 C1730 C 0.75985 0.82097 0.43164
 C1731 C 0.74818 0.84135 0.39248
 C1732 C 0.76051 0.82693 0.35228
 C1733 C 0.78377 0.79021 0.34794
 C1734 C 0.79907 0.77096 0.38808
 C1735 C 0.80103 0.76560 0.46901
 C1736 C 0.82786 0.73210 0.46764
 C1737 C 0.84181 0.71892 0.42756
 C1738 C 0.82800 0.73838 0.38820
 H1739 H 0.79225 0.77572 0.50112
 H1740 H 0.83885 0.71721 0.49811
 H1741 H 0.86394 0.69390 0.42703
 H1742 H 0.84164 0.72877 0.35834
 H1743 H 0.73052 0.86989 0.39307
 H1744 H 0.74881 0.84389 0.32409
 C1745 C 0.26326 0.28236 0.92736
 C1746 C 0.25989 0.32657 0.92654
 C1747 C 0.27428 0.34838 0.89019
 C1748 C 0.29240 0.32768 0.85638
 C1749 C 0.29832 0.28362 0.85679
 C1750 C 0.28790 0.26208 0.89647
 C1751 C 0.24087 0.25741 0.95670
 C1752 C 0.24521 0.21379 0.95805
 C1753 C 0.27500 0.19523 0.93364
 C1754 C 0.29738 0.21946 0.90415
 H1755 H 0.21840 0.27126 0.97699
 H1756 H 0.22594 0.19437 0.97862
 H1757 H 0.27961 0.16170 0.93640
 H1758 H 0.32030 0.20414 0.88569
 H1759 H 0.27299 0.38251 0.88887
 H1760 H 0.29930 0.34735 0.82914
 C1761 C 0.86470 0.40455 0.75611
 C1762 C 0.83900 0.43570 0.77128
 C1763 C 0.79769 0.42497 0.78082
 C1764 C 0.78179 0.38337 0.77607
 C1765 C 0.80544 0.35168 0.75819
 C1766 C 0.84708 0.36387 0.74436
 C1767 C 0.90811 0.41346 0.75249
 C1768 C 0.93309 0.38525 0.73251
 C1769 C 0.91507 0.34821 0.71478
 C1770 C 0.87296 0.33775 0.72026
 H1771 H 0.92322 0.44194 0.76609
 H1772 H 0.96631 0.39233 0.73017
 H1773 H 0.93411 0.32672 0.69775
 H1774 H 0.86313 0.30810 0.70596
 H1775 H 0.77771 0.44893 0.79242
 H1776 H 0.75021 0.37624 0.78575
 C1777 C 0.32762 0.92021 0.20585
 C1778 C 0.32065 0.94819 0.24091
 C1779 C 0.29321 0.93429 0.27269
 C1780 C 0.27405 0.89368 0.27075
 C1781 C 0.28517 0.86321 0.24013
 C1782 C 0.31600 0.87662 0.20949
 C1783 C 0.34703 0.93374 0.16749
 C1784 C 0.36336 0.90555 0.13886
 C1785 C 0.35993 0.86300 0.14753
 C1786 C 0.33633 0.84895 0.18189
 H1787 H 0.34754 0.96556 0.15703
 H1788 H 0.37876 0.91688 0.11016
 H1789 H 0.37358 0.84054 0.12630
 H1790 H 0.33339 0.81608 0.18422
 H1791 H 0.28701 0.95497 0.29979
 H1792 H 0.25226 0.88539 0.29555
 C1793 C 0.13481 0.87341 0.72612
 C1794 C 0.16301 0.90720 0.73927
 C1795 C 0.20531 0.89883 0.74867
 C1796 C 0.21916 0.85744 0.74814
 C1797 C 0.19106 0.82176 0.74109
 C1798 C 0.14760 0.83084 0.73113
 C1799 C 0.09236 0.88139 0.71325
 C1800 C 0.06208 0.84856 0.71051
 C1801 C 0.07332 0.80806 0.72149
 C1802 C 0.11532 0.79979 0.73198
 H1803 H 0.08222 0.91324 0.70731
 H1804 H 0.02940 0.85472 0.70329
 H1805 H 0.04921 0.78342 0.72412
 H1806 H 0.12127 0.77140 0.74850
 H1807 H 0.22744 0.92422 0.75940
 H1808 H 0.25241 0.85370 0.75607
 C1809 C 0.64480 0.37698 0.22186
 C1810 C 0.67213 0.41134 0.23560
 C1811 C 0.71375 0.40335 0.24902
 C1812 C 0.72735 0.36203 0.25210
 C1813 C 0.69921 0.32636 0.24552
 C1814 C 0.65630 0.33501 0.23262
 C1815 C 0.60373 0.38414 0.20364
 C1816 C 0.57278 0.35194 0.20240
 C1817 C 0.58193 0.31322 0.22103
 C1818 C 0.62306 0.30517 0.23622
 H1819 H 0.59514 0.41491 0.19177
 H1820 H 0.54102 0.35776 0.19009
 H1821 H 0.55686 0.28993 0.22516
 H1822 H 0.62737 0.27820 0.25656
 H1823 H 0.73520 0.42910 0.26031
 H1824 H 0.76014 0.35848 0.26267
 C1825 C 0.65659 0.59805 0.23894
 C1826 C 0.67595 0.56688 0.26550
 C1827 C 0.71494 0.57630 0.28806
 C1828 C 0.73465 0.61628 0.28482
 C1829 C 0.71802 0.64733 0.25582
 C1830 C 0.67919 0.63614 0.22926
 C1831 C 0.61348 0.59350 0.22495
 C1832 C 0.59437 0.62145 0.19548
 C1833 C 0.61772 0.65493 0.17991
 C1834 C 0.65902 0.66248 0.19660
 H1835 H 0.59350 0.56997 0.23913
 H1836 H 0.56125 0.61772 0.18531
 H1837 H 0.60292 0.67703 0.15705
 H1838 H 0.67179 0.69138 0.18500
 H1839 H 0.72948 0.55301 0.30971
 H1840 H 0.76355 0.62290 0.30501
 C1841 C 0.23331 0.06245 0.80499
 C1842 C 0.19520 0.05576 0.77858
 C1843 C 0.18219 0.08693 0.74909
 C1844 C 0.20395 0.12539 0.74764
 C1845 C 0.24045 0.13560 0.77571
 C1846 C 0.25643 0.10237 0.80376
 C1847 C 0.24934 0.02967 0.83180
 C1848 C 0.28743 0.03532 0.85682
 C1849 C 0.30982 0.07377 0.85627
 C1850 C 0.29463 0.10690 0.83025
 H1851 H 0.23292 -0.00083 0.83294
 H1852 H 0.29990 0.00959 0.87637
 H1853 H 0.33952 0.07780 0.87574
 H1854 H 0.31421 0.13505 0.83079
 H1855 H 0.15328 0.08259 0.72837
 H1856 H 0.18950 0.14830 0.72572
 C1857 C 0.35900 0.14145 0.23386
 C1858 C 0.33814 0.10201 0.22549
 C1859 C 0.29435 0.10097 0.21652
 C1860 C 0.27163 0.13805 0.21906
 C1861 C 0.29105 0.17616 0.23600
 C1862 C 0.33583 0.17571 0.24782
 C1863 C 0.40342 0.14524 0.23511
 C1864 C 0.42489 0.17746 0.25933
 C1865 C 0.40270 0.20679 0.28084
 C1866 C 0.35904 0.20626 0.27487
 H1867 H 0.42153 0.12098 0.22101
 H1868 H 0.45861 0.17862 0.26364
 H1869 H 0.41942 0.23111 0.30099
 H1870 H 0.34530 0.23151 0.29091
 H1871 H 0.27742 0.07116 0.20960
 H1872 H 0.23802 0.13591 0.21081
 C1873 C 0.83529 0.61709 0.70322
 C1874 C 0.81268 0.58014 0.71451
 C1875 C 0.76954 0.58323 0.71960
 C1876 C 0.75135 0.62299 0.71892
 C1877 C 0.77692 0.66071 0.72069
 C1878 C 0.82115 0.65561 0.71892
 C1879 C 0.87716 0.61480 0.69169
 C1880 C 0.90699 0.64544 0.70697
 C1881 C 0.89505 0.67728 0.73459
 C1882 C 0.85237 0.68244 0.74036
 H1883 H 0.88746 0.58727 0.67514
 H1884 H 0.93961 0.64222 0.70051
 H1885 H 0.91869 0.69818 0.75127
 H1886 H 0.84444 0.70597 0.76353
 H1887 H 0.75071 0.55547 0.72767
 H1888 H 0.71784 0.62389 0.72221
 C1889 C 0.92400 0.78239 0.23837
 C1890 C 0.92812 0.74823 0.20841
 C1891 C 0.90885 0.70947 0.21832
 C1892 C 0.87924 0.70724 0.24990
 C1893 C 0.86300 0.74481 0.26618
 C1894 C 0.89084 0.78027 0.26788
 C1895 C 0.95269 0.81735 0.24134
 C1896 C 0.94900 0.84890 0.27279
 C1897 C 0.91678 0.84643 0.30175
 C1898 C 0.88759 0.81247 0.29920
 H1899 H 0.97928 0.81974 0.22109
 H1900 H 0.97169 0.87503 0.27493
 H1901 H 0.91437 0.87085 0.32626
 H1902 H 0.86318 0.81095 0.32228
 H1903 H 0.91453 0.68125 0.19982
 H1904 H 0.86392 0.67667 0.25477
 C1905 C 0.44481 0.23879 0.73368
 C1906 C 0.44100 0.25899 0.69126
 C1907 C 0.40322 0.27668 0.67824
 C1908 C 0.37103 0.27670 0.70515
 C1909 C 0.37004 0.25261 0.74474
 C1910 C 0.40841 0.23387 0.75958
 C1911 C 0.48367 0.22478 0.75195
 C1912 C 0.48640 0.20359 0.79238
 C1913 C 0.45090 0.19707 0.81617
 C1914 C 0.41237 0.21251 0.80036
 H1915 H 0.51254 0.23127 0.73627
 H1916 H 0.51642 0.19272 0.80579
 H1917 H 0.45351 0.18096 0.84773
 H1918 H 0.38642 0.20888 0.82124
 H1919 H 0.39756 0.29123 0.64610
 H1920 H 0.34500 0.29440 0.69143
 C1921 C 0.41345 0.77006 0.78535
 C1922 C 0.42198 0.74425 0.82308
 C1923 C 0.38967 0.71919 0.83847
 C1924 C 0.34937 0.71958 0.81811
 C1925 C 0.33852 0.74437 0.77986
 C1926 C 0.37188 0.77011 0.76336
 C1927 C 0.44597 0.79560 0.76875
 C1928 C 0.43842 0.82056 0.73143
 C1929 C 0.39851 0.82038 0.70978
 C1930 C 0.36572 0.79540 0.72533
 H1931 H 0.47761 0.79602 0.78417
 H1932 H 0.46374 0.83996 0.71908
 H1933 H 0.39293 0.83962 0.68056
 H1934 H 0.33598 0.79618 0.70683
 H1935 H 0.39524 0.70017 0.86792
 H1936 H 0.32705 0.69838 0.83287
 C1937 C 0.91989 0.27314 0.30047
 C1938 C 0.92739 0.24626 0.33759
 C1939 C 0.89399 0.22212 0.35242
 C1940 C 0.85380 0.22440 0.33203
 C1941 C 0.84439 0.24924 0.29357
 C1942 C 0.87865 0.27441 0.27789
 C1943 C 0.95347 0.29759 0.28423
 C1944 C 0.94719 0.32281 0.24692
 C1945 C 0.90753 0.32413 0.22498
 C1946 C 0.87377 0.30024 0.24007
 H1947 H 0.98503 0.29688 0.29988
 H1948 H 0.97328 0.34129 0.23487
 H1949 H 0.90289 0.34370 0.19586
 H1950 H 0.84434 0.30247 0.22134
 H1951 H 0.89852 0.20256 0.38163
 H1952 H 0.83040 0.20429 0.34658
 C1953 C 0.08197 0.20508 0.31051
 C1954 C 0.06984 0.24222 0.33295
 C1955 C 0.09104 0.27992 0.32249
 C1956 C 0.12713 0.28049 0.30033
 C1957 C 0.13934 0.24641 0.27499
 C1958 C 0.11464 0.20801 0.27911
 C1959 C 0.06390 0.16492 0.31883
 C1960 C 0.07431 0.12942 0.29551
 C1961 C 0.10303 0.13298 0.26316
 C1962 C 0.12273 0.17173 0.25472
 H1963 H 0.04245 0.15974 0.34386
 H1964 H 0.05985 0.09893 0.30258
 H1965 H 0.11080 0.10540 0.24496
 H1966 H 0.14391 0.17256 0.22864
 H1967 H 0.08233 0.31012 0.33483
 H1968 H 0.14608 0.30883 0.30560
 C1969 C 0.58838 0.70358 0.81054
 C1970 C 0.56621 0.74145 0.81280
 C1971 C 0.57371 0.77314 0.78146
 C1972 C 0.60605 0.77032 0.75265
 C1973 C 0.63248 0.73592 0.75446
 C1974 C 0.61885 0.69955 0.77844
 C1975 C 0.58221 0.66987 0.84012
 C1976 C 0.60098 0.63139 0.83488
 C1977 C 0.62598 0.62560 0.79976
 C1978 C 0.63458 0.65914 0.77161
 H1979 H 0.56331 0.67277 0.86768
 H1980 H 0.59534 0.60572 0.85760
 H1981 H 0.63909 0.59515 0.79452
 H1982 H 0.65273 0.65265 0.74387
 H1983 H 0.55622 0.80177 0.78121
 H1984 H 0.61266 0.79711 0.73180
 C1985 C 0.61038 0.21583 0.66833
 C1986 C 0.58461 0.24699 0.68286
 C1987 C 0.59907 0.27419 0.71731
 C1988 C 0.63964 0.27171 0.73674
 C1989 C 0.66847 0.24462 0.71964
 C1990 C 0.65384 0.21741 0.68169
 C1991 C 0.59333 0.18332 0.63986
 C1992 C 0.61850 0.15680 0.61813
 C1993 C 0.66146 0.16170 0.62511
 C1994 C 0.67892 0.19055 0.65652
 H1995 H 0.56040 0.17621 0.63665
 H1996 H 0.60465 0.13217 0.59633
 H1997 H 0.68154 0.14142 0.60786
 H1998 H 0.71209 0.18777 0.65999
 H1999 H 0.57904 0.29836 0.72840
 H2000 H 0.64912 0.29291 0.76402
 C2001 C 0.08654 0.70295 0.20762
 C2002 C 0.06129 0.73680 0.21551
 C2003 C 0.07791 0.76877 0.24453
 C2004 C 0.12048 0.77044 0.25951
 C2005 C 0.14894 0.74285 0.24246
 C2006 C 0.13104 0.70857 0.21349
 C2007 C 0.06829 0.66493 0.19013
 C2008 C 0.09175 0.63678 0.16839
 C2009 C 0.13428 0.64531 0.16595
 C2010 C 0.15391 0.67943 0.18908
 H2011 H 0.03619 0.65612 0.19469
 H2012 H 0.07691 0.60847 0.15342
 H2013 H 0.15287 0.62402 0.14824
 H2014 H 0.18701 0.67933 0.18726
 H2015 H 0.05864 0.79481 0.25237
 H2016 H 0.13180 0.79644 0.28092
   
