data_POSCAR
  _audit_creation_date              2014-09-24
  _audit_creation_method            'ToBaCCo'
  _symmetry_space_group_name_H-M    'P1'
  _symmetry_Int_Tables_number       1
  _symmetry_cell_setting            triclinic
  loop_
  _symmetry_equiv_pos_as_xyz
 x,y,z
_cell_length_a 43.8009
_cell_length_b 44.4053
_cell_length_c 43.5289
_cell_angle_alpha 89.357100
_cell_angle_beta 90.225500
_cell_angle_gamma 90.841100
loop_
  _atom_site_label
  _atom_site_type_symbol
  _atom_site_fract_x
  _atom_site_fract_y
  _atom_site_fract_z
C1 C 0.19461 0.22612 0.23347
 C2 C 0.20142 0.24552 0.20865
 C3 C 0.22680 0.24059 0.18983
 C4 C 0.24516 0.21546 0.19576
 C5 C 0.23881 0.19576 0.22049
 C6 C 0.21336 0.20125 0.23910
 H7 H 0.18701 0.26468 0.20415
 H8 H 0.26458 0.21143 0.18115
 H9 H 0.20825 0.18619 0.25818
 C10 C 0.69674 0.71590 0.72853
 C11 C 0.69924 0.73539 0.70302
 C12 C 0.71961 0.72953 0.67899
 C13 C 0.73757 0.70357 0.68081
 C14 C 0.73485 0.68336 0.70577
 C15 C 0.71455 0.68987 0.72961
 H16 H 0.68458 0.75476 0.70143
 H17 H 0.75357 0.69882 0.66269
 H18 H 0.71301 0.67494 0.74940
 C19 C 0.32009 0.78805 0.73051
 C20 C 0.31338 0.76748 0.70706
 C21 C 0.28569 0.76891 0.69077
 C22 C 0.26446 0.79104 0.69837
 C23 C 0.27025 0.81176 0.72211
 C24 C 0.29849 0.80999 0.73764
 H25 H 0.32966 0.75034 0.70142
 H26 H 0.24364 0.79213 0.68508
 H27 H 0.30362 0.82535 0.75607
 C28 C 0.81058 0.28007 0.23171
 C29 C 0.80755 0.26660 0.20259
 C30 C 0.78398 0.27456 0.18225
 C31 C 0.76294 0.29626 0.19110
 C32 C 0.76515 0.30999 0.21986
 C33 C 0.78907 0.30200 0.23982
 H34 H 0.82261 0.24870 0.19609
 H35 H 0.74511 0.30288 0.17521
 H36 H 0.79088 0.31356 0.26146
 C37 C 0.80791 0.70793 0.27620
 C38 C 0.78950 0.68184 0.27348
 C39 C 0.76354 0.67744 0.29208
 C40 C 0.75581 0.70000 0.31298
 C41 C 0.77352 0.72644 0.31566
 C42 C 0.79969 0.72997 0.29744
 H43 H 0.79506 0.66528 0.25644
 H44 H 0.73590 0.69697 0.32739
 H45 H 0.81425 0.74964 0.30038
 C46 C 0.31024 0.20619 -0.21846
 C47 C 0.29165 0.18005 -0.22081
 C48 C 0.26538 0.17601 -0.20264
 C49 C 0.25737 0.19878 -0.18218
 C50 C 0.27502 0.22524 -0.17969
 C51 C 0.30136 0.22864 -0.19772
 H52 H 0.29663 0.16329 -0.23780
 H53 H 0.23723 0.19591 -0.16805
 H54 H 0.31578 0.24830 -0.19434
 C55 C 0.68175 0.28452 -0.23244
 C56 C 0.68921 0.26405 -0.20856
 C57 C 0.71695 0.26662 -0.19231
 C58 C 0.73727 0.29035 -0.19967
 C59 C 0.73060 0.31101 -0.22325
 C60 C 0.70300 0.30777 -0.23948
 H61 H 0.67393 0.24556 -0.20282
 H62 H 0.75841 0.29268 -0.18692
 H63 H 0.69789 0.32408 -0.25730
 C64 C 0.17547 0.79447 0.27732
 C65 C 0.18156 0.77381 0.30109
 C66 C 0.20673 0.77792 0.32074
 C67 C 0.22634 0.80283 0.31590
 C68 C 0.22072 0.82428 0.29241
 C69 C 0.19513 0.81948 0.27315
 H70 H 0.16650 0.75454 0.30453
 H71 H 0.24555 0.80589 0.33124
 H72 H 0.19043 0.83484 0.25438
 C73 C 0.44994 0.42399 0.47964
 C74 C 0.42961 0.44709 0.48655
 C75 C 0.42733 0.47292 0.46776
 C76 C 0.44578 0.47540 0.44146
 C77 C 0.46638 0.45260 0.43407
 C78 C 0.46840 0.42714 0.45346
 H79 H 0.41537 0.44493 0.50673
 H80 H 0.44410 0.49506 0.42669
 H81 H 0.48443 0.40970 0.44802
 C82 C -0.03980 -0.06769 0.98188
 C83 C -0.06197 -0.04635 0.98935
 C84 C -0.06764 -0.02129 0.97000
 C85 C -0.05153 -0.01897 0.94207
 C86 C -0.02985 -0.04036 0.93384
 C87 C -0.02390 -0.06438 0.95404
 H88 H -0.07414 -0.04884 1.01078
 H89 H -0.05667 -0.00124 0.92571
 H90 H -0.00619 -0.08013 0.94845
 C91 C 1.03803 0.56978 0.97641
 C92 C 1.01868 0.56508 0.95107
 C93 C 1.02373 0.54163 0.93043
 C94 C 1.04856 0.52254 0.93562
 C95 C 1.06848 0.52694 0.96068
 C96 C 1.06287 0.55056 0.98110
 H97 H 1.00015 0.58047 0.94682
 H98 H 1.05264 0.50434 0.91992
 H99 H 1.07749 0.55371 1.00094
 C100 C 0.52953 0.05798 0.48702
 C101 C 0.50970 0.05244 0.46226
 C102 C 0.51458 0.02822 0.44247
 C103 C 0.53976 0.00953 0.44775
 C104 C 0.56023 0.01468 0.47231
 C105 C 0.55483 0.03936 0.49153
 H106 H 0.49079 0.06739 0.45814
 H107 H 0.54351 -0.00872 0.43208
 H108 H 0.56931 0.04323 0.51134
 C109 C -0.02768 0.06463 0.51730
 C110 C -0.05109 0.04461 0.50824
 C111 C -0.05448 0.01580 0.52199
 C112 C -0.03360 0.00769 0.54535
 C113 C -0.01002 0.02739 0.55464
 C114 C -0.00722 0.05576 0.54043
 H115 H -0.06580 0.05117 0.48939
 H116 H -0.03586 -0.01370 0.55723
 H117 H 0.01039 0.07140 0.54798
 C118 C 0.47052 0.57074 0.01562
 C119 C 0.44747 0.55015 0.00715
 C120 C 0.44339 0.52271 0.02321
 C121 C 0.46289 0.51610 0.04812
 C122 C 0.48645 0.53621 0.05660
 C123 C 0.48993 0.56345 0.04022
 H124 H 0.43315 0.55515 -0.01252
 H125 H 0.45933 0.49562 0.06141
 H126 H 0.50795 0.57914 0.04663
 C127 C 0.53833 -0.06074 0.02058
 C128 C 0.56431 -0.04157 0.01989
 C129 C 0.56991 -0.02040 0.04298
 C130 C 0.54904 -0.01805 0.06714
 C131 C 0.52318 -0.03704 0.06888
 C132 C 0.51792 -0.05810 0.04543
 H133 H 0.57973 -0.04208 0.00057
 H134 H 0.55318 -0.00146 0.08475
 H135 H 0.49866 -0.07345 0.04770
 C136 C 1.03445 0.43986 0.51160
 C137 C 1.05743 0.46189 0.50736
 C138 C 1.06326 0.48410 0.52967
 C139 C 1.04539 0.48344 0.55661
 C140 C 1.02250 0.46140 0.56136
 C141 C 1.01723 0.43973 0.53866
 H142 H 1.07106 0.46100 0.48676
 H143 H 1.04820 0.50103 0.57340
 H144 H 1.00010 0.42224 0.54236
 C145 C 0.42165 0.01416 0.20984
 H146 H 0.42556 0.03339 0.22445
 C147 C 0.44225 0.00795 0.18640
 H148 H 0.46176 0.02281 0.18280
 C149 C 0.39183 -0.02897 0.19732
 H150 H 0.37264 -0.04377 0.20209
 C151 C 0.41162 -0.03578 0.17338
 H152 H 0.40731 -0.05575 0.15989
 N153 N 0.39715 -0.00436 0.21501
 C154 C 0.32628 0.04316 0.26407
 H155 H 0.32251 0.02725 0.28273
 C156 C 0.30837 0.06879 0.26165
 H157 H 0.29097 0.07255 0.27873
 C158 C 0.35402 0.05765 0.21954
 H159 H 0.37175 0.05309 0.20312
 C160 C 0.33674 0.08373 0.21635
 H161 H 0.34124 0.09895 0.19725
 Zn162 Zn 0.37248 0.00342 0.24964
 N163 N 0.34883 0.03827 0.24344
 C164 C 0.39561 0.03260 0.30298
 N165 N 0.39872 0.00879 0.28389
 C166 C 0.42045 -0.01225 0.28901
 C167 C 0.43943 -0.01041 0.31476
 C168 C 0.41397 0.03519 0.32915
 C169 C 0.32245 -0.03537 0.23730
 C170 C 0.30136 -0.05862 0.24324
 C171 C 0.32736 -0.06865 0.29122
 C172 C 0.34793 -0.04531 0.28434
 N173 N 0.34529 -0.02931 0.25766
 H174 H 0.37861 0.04941 0.29824
 H175 H 0.42257 -0.03084 0.27334
 H176 H 0.45609 -0.02780 0.31883
 H177 H 0.41101 0.05417 0.34418
 H178 H 0.32057 -0.02200 0.21646
 H179 H 0.28365 -0.06331 0.22648
 H180 H 0.32968 -0.08074 0.31282
 H181 H 0.36570 -0.03977 0.30065
 C182 C 0.31373 0.08971 0.23777
 C183 C 0.43749 -0.01748 0.16800
 C184 C 0.30358 -0.07556 0.27061
 C185 C 0.43598 0.01328 0.33552
 C186 C 0.07946 -0.02454 0.70701
 H187 H 0.07598 -0.04398 0.72187
 C188 C 0.06242 -0.02162 0.68007
 H189 H 0.04608 -0.03917 0.67421
 C190 C 0.10535 0.02169 0.69677
 H191 H 0.12188 0.03866 0.70359
 C192 C 0.08869 0.02559 0.66958
 H193 H 0.09250 0.04577 0.65588
 N194 N 0.10071 -0.00328 0.71461
 C195 C 0.16806 -0.04911 0.77130
 H196 H 0.16859 -0.03478 0.79124
 C197 C 0.18748 -0.07370 0.76975
 H198 H 0.20282 -0.07834 0.78874
 C199 C 0.14741 -0.06040 0.72229
 H200 H 0.13220 -0.05489 0.70356
 C201 C 0.16622 -0.08534 0.71991
 H202 H 0.16525 -0.09872 0.69928
 Zn203 Zn 0.12251 -0.00957 0.75162
 N204 N 0.14827 -0.04318 0.74794
 C205 C 0.09432 -0.04161 0.80122
 N206 N 0.09336 -0.01657 0.78297
 C207 C 0.07077 0.00386 0.78586
 C208 C 0.04834 -0.00011 0.80826
 C209 C 0.07234 -0.04646 0.82397
 C210 C 0.17217 0.03028 0.74316
 C211 C 0.19211 0.05409 0.75023
 C212 C 0.16041 0.06549 0.79375
 C213 C 0.14131 0.04130 0.78608
 N214 N 0.14736 0.02435 0.76105
 H215 H 0.11213 -0.05786 0.79825
 H216 H 0.07026 0.02331 0.77068
 H217 H 0.03051 0.01640 0.81008
 H218 H 0.07396 -0.06619 0.83868
 H219 H 0.17662 0.01624 0.72357
 H220 H 0.21170 0.05853 0.73569
 H221 H 0.15536 0.07856 0.81392
 H222 H 0.12190 0.03592 0.80041
 C223 C 0.18645 -0.09237 0.74393
 C224 C 0.06699 0.00364 0.66081
 C225 C 0.18634 0.07200 0.77588
 C226 C 0.04894 -0.02552 0.82777
 C227 C 0.57517 0.47888 0.20722
 H228 H 0.57133 0.45860 0.22075
 C229 C 0.55798 0.48398 0.18059
 H230 H 0.54075 0.46756 0.17397
 C231 C 0.60170 0.52530 0.20020
 H232 H 0.61854 0.54150 0.20801
 C233 C 0.58507 0.53130 0.17348
 H234 H 0.58978 0.55194 0.16079
 N235 N 0.59679 0.49925 0.21624
 C236 C 0.66502 0.45131 0.27007
 H237 H 0.66599 0.46538 0.29019
 C238 C 0.68409 0.42652 0.26799
 H239 H 0.69956 0.42152 0.28676
 C240 C 0.64333 0.44070 0.22135
 H241 H 0.62771 0.44650 0.20306
 C242 C 0.66192 0.41562 0.21836
 H243 H 0.66043 0.40247 0.19760
 Zn244 Zn 0.61936 0.49122 0.25253
 N245 N 0.64482 0.45762 0.24718
 C246 C 0.59233 0.45657 0.30044
 N247 N 0.59114 0.48312 0.28463
 C248 C 0.56920 0.50360 0.29058
 C249 C 0.54771 0.49799 0.31370
 C250 C 0.57138 0.45008 0.32370
 C251 C 0.66941 0.53009 0.24345
 C252 C 0.68970 0.55385 0.24961
 C253 C 0.65960 0.56575 0.29413
 C254 C 0.64006 0.54159 0.28729
 N255 N 0.64509 0.52452 0.26212
 H256 H 0.60933 0.44017 0.29491
 H257 H 0.56845 0.52435 0.27735
 H258 H 0.53079 0.51483 0.31842
 H259 H 0.57266 0.42869 0.33580
 H260 H 0.67303 0.51598 0.22373
 H261 H 0.70870 0.55813 0.23427
 H262 H 0.65527 0.57905 0.31431
 H263 H 0.62102 0.53649 0.30221
 C264 C 0.68243 0.40807 0.24202
 C265 C 0.56297 0.51044 0.16320
 C266 C 0.68486 0.57208 0.27522
 C267 C 0.54866 0.47090 0.33066
 C268 C 0.92559 0.50937 0.70623
 H269 H 0.92855 0.52948 0.71980
 C270 C 0.94626 0.50312 0.68287
 H271 H 0.96487 0.51881 0.67826
 C272 C 0.89769 0.46446 0.69591
 H273 H 0.87906 0.44916 0.70133
 C274 C 0.91764 0.45747 0.67223
 H275 H 0.91407 0.43680 0.65967
 N276 N 0.90188 0.49012 0.71227
 C277 C 0.82802 0.53831 0.75593
 H278 H 0.82500 0.52479 0.77656
 C279 C 0.80826 0.56198 0.74961
 H280 H 0.79041 0.56684 0.76587
 C281 C 0.85518 0.54823 0.70987
 H282 H 0.87321 0.54251 0.69421
 C283 C 0.83596 0.57213 0.70266
 H284 H 0.83945 0.58458 0.68140
 Zn285 Zn 0.87573 0.49841 0.74553
 N286 N 0.85099 0.53196 0.73621
 C287 C 0.89677 0.53168 0.79691
 N288 N 0.90056 0.50624 0.78033
 C289 C 0.92350 0.48685 0.78692
 C290 C 0.94389 0.49283 0.81093
 C291 C 0.91643 0.53838 0.82126
 C292 C 0.82609 0.46100 0.73234
 C293 C 0.80665 0.43597 0.73483
 C294 C 0.83549 0.41937 0.77917
 C295 C 0.85426 0.44495 0.77600
 N296 N 0.84954 0.46484 0.75253
 H297 H 0.87885 0.54715 0.79099
 H298 H 0.92627 0.46698 0.77311
 H299 H 0.96203 0.47716 0.81578
 H300 H 0.91332 0.55899 0.83387
 H301 H 0.82288 0.47718 0.71389
 H302 H 0.78849 0.43301 0.71813
 H303 H 0.83966 0.40364 0.79784
 H304 H 0.87282 0.44859 0.79199
 C305 C 0.81197 0.57919 0.72256
 C306 C 0.94245 0.47679 0.66558
 C307 C 0.81149 0.41452 0.75822
 C308 C 0.94061 0.51903 0.82832
 C309 C 0.21392 0.42934 0.01123
 H310 H 0.22911 0.43197 0.03071
 C311 C 0.18995 0.44942 0.00671
 H312 H 0.18658 0.46716 0.02315
 C313 C 0.20012 0.40309 -0.03392
 H314 H 0.20446 0.38547 -0.05014
 C315 C 0.17591 0.42251 -0.03926
 H316 H 0.16194 0.41945 -0.05959
 N317 N 0.21850 0.40668 -0.00894
 C318 C 0.26885 0.33477 0.03666
 H319 H 0.28656 0.33163 0.01979
 C320 C 0.26741 0.31609 0.06260
 H321 H 0.28434 0.29878 0.06568
 C322 C 0.22544 0.36138 0.05303
 H323 H 0.20891 0.37880 0.04900
 C324 C 0.22321 0.34325 0.07940
 H325 H 0.20478 0.34690 0.09537
 Zn326 Zn 0.25247 0.38113 -0.00341
 N327 N 0.24832 0.35713 0.03256
 C328 C 0.30821 0.40218 0.02283
 N329 N 0.28816 0.40565 -0.00086
 C330 C 0.29276 0.42716 -0.02291
 C331 C 0.31868 0.44586 -0.02199
 C332 C 0.33457 0.42016 0.02446
 C333 C 0.23322 0.33257 -0.03907
 C334 C 0.23365 0.31213 -0.06315
 C335 C 0.27948 0.33675 -0.08217
 C336 C 0.27824 0.35668 -0.05761
 N337 N 0.25511 0.35449 -0.03691
 H338 H 0.30387 0.38551 0.04056
 H339 H 0.27627 0.42971 -0.04129
 H340 H 0.32213 0.46267 -0.03990
 H341 H 0.35019 0.41711 0.04355
 H342 H 0.21527 0.33116 -0.02209
 H343 H 0.21576 0.29513 -0.06469
 H344 H 0.29818 0.33873 -0.09828
 H345 H 0.29577 0.37384 -0.05514
 C346 C 0.24453 0.32037 0.08457
 C347 C 0.17062 0.44621 -0.01894
 C348 C 0.25688 0.31418 -0.08526
 C349 C 0.34014 0.44226 0.00178
 C350 C 0.71266 0.07905 -0.01048
 H351 H 0.72623 0.07620 -0.03093
 C352 C 0.68909 0.05859 -0.00362
 H353 H 0.68432 0.04033 -0.01926
 C354 C 0.70276 0.10628 0.03483
 H355 H 0.70861 0.12444 0.05015
 C356 C 0.67892 0.08642 0.04252
 H357 H 0.66656 0.08967 0.06370
 N358 N 0.71906 0.10227 0.00870
 C359 C 0.76928 0.16993 -0.04473
 H360 H 0.78923 0.17234 -0.03018
 C361 C 0.76624 0.18804 -0.07089
 H362 H 0.78422 0.20414 -0.07652
 C363 C 0.72165 0.14593 -0.05475
 H364 H 0.70410 0.12986 -0.04804
 C365 C 0.71770 0.16359 -0.08124
 H366 H 0.69699 0.16091 -0.09463
 Zn367 Zn 0.75336 0.12701 -0.00051
 N368 N 0.74728 0.14924 -0.03729
 C369 C 0.80369 0.10097 -0.03075
 N370 N 0.78732 0.10144 -0.00429
 C371 C 0.79411 0.08286 0.01974
 C372 C 0.81894 0.06358 0.01816
 C373 C 0.82863 0.08198 -0.03337
 C374 C 0.73890 0.17702 0.03448
 C375 C 0.74279 0.19915 0.05671
 C376 C 0.79061 0.17653 0.07128
 C377 C 0.78587 0.15491 0.04864
 N378 N 0.76016 0.15534 0.03102
 H379 H 0.79737 0.11517 -0.04997
 H380 H 0.78034 0.08327 0.04031
 H381 H 0.82437 0.04947 0.03781
 H382 H 0.84111 0.08181 -0.05477
 H383 H 0.71892 0.17714 0.01978
 H384 H 0.72567 0.21632 0.05889
 H385 H 0.81090 0.17529 0.08547
 H386 H 0.80282 0.13790 0.04517
 C387 C 0.74020 0.18501 -0.08961
 C388 C 0.67206 0.06197 0.02338
 C389 C 0.76892 0.19911 0.07555
 C390 C 0.83680 0.06317 -0.00858
 C391 C 0.21260 0.57923 0.48837
 H392 H 0.22830 0.57591 0.46963
 C393 C 0.18674 0.56068 0.49133
 H394 H 0.18307 0.54282 0.47495
 C395 C 0.19902 0.60617 0.53281
 H396 H 0.20389 0.62376 0.54907
 C397 C 0.17279 0.58829 0.53652
 H398 H 0.15759 0.59282 0.55540
 N399 N 0.21793 0.60183 0.50860
 C400 C 0.26580 0.67491 0.46066
 H401 H 0.28600 0.67769 0.47478
 C402 C 0.25991 0.69540 0.43681
 H403 H 0.27597 0.71369 0.43241
 C404 C 0.21994 0.64809 0.44977
 H405 H 0.20393 0.63016 0.45530
 C406 C 0.21334 0.66781 0.42558
 H407 H 0.19231 0.66468 0.41276
 Zn408 Zn 0.25252 0.62718 0.50182
 N409 N 0.24575 0.65197 0.46682
 C410 C 0.30501 0.60474 0.47136
 N411 N 0.28647 0.60210 0.49628
 C412 C 0.29085 0.58034 0.51798
 C413 C 0.31483 0.56029 0.51532
 C414 C 0.32944 0.58515 0.46784
 C415 C 0.23797 0.67402 0.54145
 C416 C 0.24096 0.69268 0.56690
 C417 C 0.28811 0.66796 0.57988
 C418 C 0.28417 0.64970 0.55419
 N419 N 0.25906 0.65260 0.53596
 H420 H 0.30078 0.62188 0.45411
 H421 H 0.27555 0.57859 0.53739
 H422 H 0.31803 0.54330 0.53304
 H423 H 0.34375 0.58733 0.44769
 H424 H 0.21847 0.67619 0.52630
 H425 H 0.22340 0.70897 0.57129
 H426 H 0.30828 0.66527 0.59402
 H427 H 0.30114 0.63314 0.54900
 C428 C 0.23318 0.69215 0.41914
 C429 C 0.16608 0.56541 0.51538
 C430 C 0.26610 0.68955 0.58680
 C431 C 0.33456 0.56251 0.49001
 C432 C 0.71407 0.92707 0.51119
 H433 H 0.72975 0.92899 0.53035
 C434 C 0.68827 0.94516 0.50979
 H435 H 0.68416 0.96075 0.52820
 C436 C 0.70007 0.90365 0.46449
 H437 H 0.70482 0.88762 0.44674
 C438 C 0.67417 0.92143 0.46202
 H439 H 0.65948 0.91893 0.44214
 N440 N 0.71890 0.90612 0.48927
 C441 C 0.76608 0.83138 0.53332
 H442 H 0.78479 0.82846 0.51753
 C443 C 0.76139 0.81067 0.55732
 H444 H 0.77689 0.79207 0.56016
 C445 C 0.72269 0.85879 0.54829
 H446 H 0.70704 0.87694 0.54429
 C447 C 0.71741 0.83888 0.57277
 H448 H 0.69784 0.84218 0.58742
 Zn449 Zn 0.75232 0.87986 0.49398
 N450 N 0.74676 0.85481 0.52918
 C451 C 0.80815 0.89945 0.52112
 N452 N 0.78840 0.90353 0.49731
 C453 C 0.79365 0.92503 0.47540
 C454 C 0.82003 0.94303 0.47651
 C455 C 0.83488 0.91686 0.52305
 C456 C 0.73185 0.83303 0.45683
 C457 C 0.73199 0.81298 0.43241
 C458 C 0.77887 0.83644 0.41453
 C459 C 0.77793 0.85596 0.43944
 N460 N 0.75444 0.85414 0.45976
 H461 H 0.80325 0.88268 0.53865
 H462 H 0.77737 0.92801 0.45690
 H463 H 0.82404 0.95971 0.45858
 H464 H 0.85023 0.91335 0.54227
 H465 H 0.71363 0.83189 0.47353
 H466 H 0.71362 0.79654 0.43030
 H467 H 0.79786 0.83806 0.39873
 H468 H 0.79603 0.87243 0.44254
 C469 C 0.73664 0.81422 0.57729
 C470 C 0.66750 0.94199 0.48529
 C471 C 0.75563 0.81464 0.41074
 C472 C 0.84123 0.93885 0.50041
 C473 C 0.01714 0.21488 0.42222
 H474 H 0.03668 0.23001 0.42354
 C475 C 0.01352 0.19171 0.44393
 H476 H 0.03042 0.18923 0.46196
 C477 C -0.02910 0.20055 0.39766
 H478 H -0.04586 0.20421 0.37982
 C479 C -0.03357 0.17705 0.41880
 H480 H -0.05348 0.16254 0.41640
 N481 N -0.00395 0.21878 0.39958
 C482 C 0.03985 0.26530 0.32234
 H483 H 0.02370 0.28316 0.31845
 C484 C 0.06553 0.26325 0.30365
 H485 H 0.06907 0.27982 0.28554
 C486 C 0.05506 0.22255 0.35130
 H487 H 0.05082 0.20664 0.36979
 C488 C 0.08109 0.21968 0.33319
 H489 H 0.09649 0.20134 0.33788
 Zn490 Zn 0.00141 0.25157 0.37182
 N491 N 0.03547 0.24555 0.34606
 C492 C 0.03176 0.30563 0.38954
 N493 N 0.00760 0.28686 0.39530
 C494 C -0.01236 0.29256 0.41829
 C495 C -0.00890 0.31843 0.43602
 C496 C 0.03596 0.33184 0.40652
 C497 C -0.03918 0.23410 0.32508
 C498 C -0.06514 0.23560 0.30644
 C499 C -0.07886 0.28155 0.33181
 C500 C -0.05255 0.27928 0.34982
 N501 N -0.03363 0.25552 0.34657
 H502 H 0.04778 0.30052 0.37165
 H503 H -0.03107 0.27697 0.42278
 H504 H -0.02491 0.32227 0.45437
 H505 H 0.05494 0.34677 0.40096
 H506 H -0.02356 0.21563 0.32274
 H507 H -0.06950 0.21804 0.28985
 H508 H -0.09364 0.30063 0.33478
 H509 H -0.04744 0.29645 0.36650
 C510 C 0.08690 0.24054 0.30932
 C511 C -0.01219 0.17245 0.44248
 C512 C -0.08561 0.25935 0.30999
 C513 C 0.01537 0.33871 0.43002
 C514 C -0.01924 0.70589 0.08045
 H515 H -0.03955 0.71929 0.07803
 C516 C -0.01367 0.68289 0.05973
 H517 H -0.02988 0.67891 0.04134
 C518 C 0.02721 0.69615 0.10653
 H519 H 0.04330 0.70171 0.12452
 C520 C 0.03361 0.67278 0.08640
 H521 H 0.05437 0.66022 0.08970
 N522 N 0.00117 0.71218 0.10315
 C523 C -0.04636 0.75895 0.17577
 H524 H -0.03220 0.77905 0.17728
 C525 C -0.07013 0.75420 0.19657
 H526 H -0.07404 0.77083 0.21407
 C527 C -0.05744 0.71240 0.15180
 H528 H -0.05218 0.69601 0.13453
 C529 C -0.08147 0.70670 0.17221
 H530 H -0.09483 0.68614 0.16996
 Zn531 Zn -0.00666 0.74590 0.12793
 N532 N -0.04057 0.73827 0.15385
 C533 C -0.03765 0.79811 0.10582
 N534 N -0.01398 0.77915 0.10133
 C535 C 0.00582 0.78355 0.07767
 C536 C 0.00278 0.80826 0.05788
 C537 C -0.04130 0.82336 0.08678
 C538 C 0.03380 0.73559 0.17710
 C539 C 0.05738 0.74242 0.19772
 C540 C 0.06746 0.78836 0.16904
 C541 C 0.04361 0.78077 0.14912
 N542 N 0.02734 0.75475 0.15344
 H543 H -0.05348 0.79399 0.12438
 H544 H 0.02434 0.76804 0.07452
 H545 H 0.01916 0.81171 0.03956
 H546 H -0.06006 0.83840 0.09085
 H547 H 0.02030 0.71520 0.18018
 H548 H 0.06219 0.72686 0.21638
 H549 H 0.07978 0.80942 0.16548
 H550 H 0.03784 0.79599 0.13056
 C551 C -0.08802 0.72772 0.19508
 C552 C 0.01324 0.66613 0.06229
 C553 C 0.07441 0.76926 0.19394
 C554 C -0.02072 0.82884 0.06262
 C555 C 0.47697 0.20116 0.58320
 H556 H 0.45656 0.21442 0.58071
 C557 C 0.48135 0.17633 0.56437
 H558 H 0.46422 0.17089 0.54725
 C559 C 0.52451 0.19314 0.60784
 H560 H 0.54150 0.19991 0.62450
 C561 C 0.52972 0.16808 0.58967
 H562 H 0.55049 0.15555 0.59316
 N563 N 0.49822 0.20880 0.60472
 C564 C 0.45438 0.25494 0.67984
 H565 H 0.46938 0.27444 0.68143
 C566 C 0.43157 0.25019 0.70170
 H567 H 0.42940 0.26613 0.72016
 C568 C 0.44008 0.20999 0.65440
 H569 H 0.44367 0.19420 0.63613
 C570 C 0.41675 0.20449 0.67563
 H571 H 0.40227 0.18475 0.67289
 Zn572 Zn 0.49097 0.24274 0.62948
 N573 N 0.45819 0.23500 0.65677
 C574 C 0.45654 0.29233 0.60787
 N575 N 0.48178 0.27556 0.60311
 C576 C 0.50046 0.28109 0.57874
 C577 C 0.49396 0.30427 0.55786
 C578 C 0.44942 0.31595 0.58780
 C579 C 0.53348 0.23185 0.67633
 C580 C 0.55797 0.23805 0.69600
 C581 C 0.56550 0.28570 0.66960
 C582 C 0.54098 0.27850 0.65032
 N583 N 0.52562 0.25188 0.65391
 H584 H 0.44174 0.28734 0.62709
 H585 H 0.52029 0.26728 0.57542
 H586 H 0.50911 0.30842 0.53863
 H587 H 0.42913 0.32896 0.59183
 H588 H 0.52058 0.21102 0.67895
 H589 H 0.56410 0.22146 0.71326
 H590 H 0.57709 0.30723 0.66664
 H591 H 0.53397 0.29441 0.63280
 C592 C 0.41234 0.22464 0.69987
 C593 C 0.50790 0.15916 0.56768
 C594 C 0.57429 0.26539 0.69292
 C595 C 0.46810 0.32201 0.56227
 C596 C 0.52189 0.71998 0.92251
 H597 H 0.54139 0.73487 0.92572
 C598 C 0.51638 0.69645 0.94331
 H599 H 0.53175 0.69352 0.96261
 C600 C 0.47772 0.70658 0.89388
 H601 H 0.46258 0.71076 0.87472
 C602 C 0.47141 0.68263 0.91408
 H603 H 0.45171 0.66830 0.90976
 N604 N 0.50276 0.72452 0.89830
 C605 C 0.55467 0.76987 0.82560
 H606 H 0.54059 0.78924 0.82102
 C607 C 0.58063 0.76509 0.80783
 H608 H 0.58617 0.78085 0.78947
 C609 C 0.56366 0.72525 0.85433
 H610 H 0.55689 0.70958 0.87226
 C611 C 0.58977 0.71962 0.83718
 H612 H 0.60301 0.69982 0.84253
 Zn613 Zn 0.51152 0.75777 0.87208
 N614 N 0.54694 0.75029 0.84861
 C615 C 0.54034 0.81227 0.89199
 N616 N 0.51739 0.79195 0.89729
 C617 C 0.49751 0.79550 0.92085
 C618 C 0.49998 0.82048 0.93994
 C619 C 0.54340 0.83779 0.91027
 C620 C 0.47249 0.74469 0.82198
 C621 C 0.44812 0.74943 0.80171
 C622 C 0.43698 0.79526 0.82859
 C623 C 0.46155 0.78974 0.84816
 N624 N 0.47852 0.76461 0.84481
 H625 H 0.55607 0.80901 0.87335
 H626 H 0.47959 0.77888 0.92473
 H627 H 0.48413 0.82242 0.95878
 H628 H 0.56135 0.85404 0.90505
 H629 H 0.48653 0.72501 0.81966
 H630 H 0.44329 0.73306 0.78403
 H631 H 0.42378 0.81543 0.83171
 H632 H 0.46694 0.80559 0.86608
 C633 C 0.59873 0.73976 0.81368
 C634 C 0.49084 0.67734 0.93929
 C635 C 0.42987 0.77493 0.80505
 C636 C 0.52297 0.84232 0.93460
 C637 C 0.14183 0.24568 0.24226
 C638 C 0.16837 0.23244 0.25385
 C639 C 0.16935 0.22620 0.28572
 C640 C 0.14321 0.22960 0.30407
 C641 C 0.11542 0.23934 0.29102
 C642 C 0.11612 0.24905 0.26031
 C643 C 0.09506 0.24165 0.23434
 C644 C 0.12326 0.23797 0.21455
 H645 H 0.18999 0.21792 0.29641
 H646 H 0.14464 0.22385 0.32825
 H647 H 0.08101 0.26121 0.22729
 H648 H 0.08207 0.22026 0.23825
 H649 H 0.12543 0.25543 0.19616
 H650 H 0.12668 0.21444 0.20695
 C651 C 0.65981 0.69906 0.76953
 C652 C 0.67514 0.72238 0.75380
 C653 C 0.66873 0.75214 0.76264
 C654 C 0.64480 0.75795 0.78322
 C655 C 0.62669 0.73414 0.79544
 C656 C 0.63627 0.70477 0.78975
 C657 C 0.61836 0.67776 0.77964
 C658 C 0.64419 0.67150 0.75748
 H659 H 0.68130 0.77102 0.75273
 H660 H 0.63982 0.78111 0.78853
 H661 H 0.59662 0.68378 0.76796
 H662 H 0.61614 0.66049 0.79821
 H663 H 0.63749 0.67388 0.73292
 H664 H 0.65683 0.65068 0.76335
 C665 C 0.35111 0.79726 0.77825
 C666 C 0.34940 0.78684 0.74802
 C667 C 0.37673 0.77625 0.73503
 C668 C 0.40333 0.77299 0.75314
 C669 C 0.40332 0.78051 0.78458
 C670 C 0.37725 0.79430 0.79591
 C671 C 0.35947 0.78759 0.82441
 C672 C 0.33074 0.79079 0.80504
 H673 H 0.37751 0.76978 0.71116
 H674 H 0.42357 0.76393 0.74271
 H675 H 0.36225 0.80561 0.84176
 H676 H 0.36299 0.76429 0.83325
 H677 H 0.31701 0.81063 0.81134
 H678 H 0.31755 0.76937 0.80257
 C679 C -0.13946 0.25663 0.24170
 C680 C -0.16561 0.27145 0.25218
 C681 C -0.16678 0.27686 0.28426
 C682 C -0.14134 0.27168 0.30337
 C683 C -0.11391 0.26080 0.29122
 C684 C -0.11445 0.25149 0.26067
 C685 C -0.09209 0.25786 0.23563
 C686 C -0.11929 0.26364 0.21477
 H687 H -0.18703 0.28539 0.29502
 H688 H -0.14289 0.27716 0.32748
 H689 H -0.07919 0.23749 0.22930
 H690 H -0.07786 0.27834 0.23993
 H691 H -0.12172 0.24668 0.19630
 H692 H -0.12088 0.28749 0.20692
 C693 C -0.15361 0.74137 0.24943
 C694 C -0.16402 0.71236 0.25739
 C695 C -0.14599 0.68803 0.24796
 C696 C -0.12077 0.69284 0.22832
 C697 C -0.11289 0.72212 0.21769
 C698 C -0.12882 0.74610 0.23024
 C699 C -0.14330 0.77246 0.21473
 C700 C -0.17051 0.76726 0.23580
 H701 H -0.15165 0.66522 0.25513
 H702 H -0.10793 0.67357 0.22103
 H703 H -0.14857 0.76828 0.19011
 H704 H -0.13074 0.79387 0.21936
 H705 H -0.19162 0.76006 0.22346
 H706 H -0.17357 0.78569 0.25254
 C707 C 0.35051 0.23858 0.75868
 C708 C 0.33730 0.20992 0.76391
 C709 C 0.35296 0.18524 0.75123
 C710 C 0.37806 0.18978 0.73145
 C711 C 0.38823 0.21909 0.72337
 C712 C 0.37504 0.24298 0.73897
 C713 C 0.36292 0.27193 0.72667
 C714 C 0.33600 0.26722 0.74812
 H715 H 0.34612 0.16224 0.75634
 H716 H 0.38891 0.17023 0.72201
 H717 H 0.35660 0.27068 0.70194
 H718 H 0.37763 0.29153 0.73297
 H719 H 0.31399 0.26326 0.73589
 H720 H 0.33524 0.28428 0.76659
 C721 C 0.65023 0.29603 0.72193
 C722 C 0.65378 0.28217 0.75096
 C723 C 0.62775 0.26652 0.76265
 C724 C 0.60139 0.26210 0.74446
 C725 C 0.60013 0.27295 0.71389
 C726 C 0.62432 0.29147 0.70403
 C727 C 0.64209 0.29061 0.67493
 C728 C 0.67054 0.29549 0.69434
 H729 H 0.62733 0.25747 0.78580
 H730 H 0.58237 0.24951 0.75421
 H731 H 0.63702 0.31002 0.65949
 H732 H 0.64104 0.26816 0.66386
 H733 H 0.68186 0.31765 0.68975
 H734 H 0.68607 0.27589 0.69456
 C735 C 0.14865 0.80032 0.22646
 C736 C 0.14824 0.79048 0.25713
 C737 C 0.12066 0.77745 0.26809
 C738 C 0.09625 0.77118 0.24783
 C739 C 0.09871 0.77793 0.21616
 C740 C 0.12458 0.79429 0.20658
 C741 C 0.14549 0.78904 0.18025
 C742 C 0.17189 0.79565 0.20205
 H743 H 0.11814 0.77134 0.29209
 H744 H 0.07582 0.76039 0.25690
 H745 H 0.14300 0.80638 0.16183
 H746 H 0.14466 0.76533 0.17229
 H747 H 0.18457 0.81678 0.19614
 H748 H 0.18642 0.77578 0.20679
 C749 C 0.24739 0.14341 0.24113
 C750 C 0.25901 0.16988 0.22750
 C751 C 0.29073 0.17109 0.22162
 C752 C 0.30884 0.14534 0.22565
 C753 C 0.29575 0.11777 0.23583
 C754 C 0.26523 0.11814 0.24524
 C755 C 0.23939 0.09725 0.23757
 C756 C 0.21982 0.12496 0.23306
 H757 H 0.30152 0.19162 0.21317
 H758 H 0.33288 0.14689 0.22006
 H759 H 0.23231 0.08312 0.25762
 H760 H 0.24327 0.08470 0.21600
 H761 H 0.20150 0.12674 0.25052
 H762 H 0.21233 0.12854 0.20887
 C763 C 0.78244 0.65452 0.69446
 C764 C 0.75293 0.65529 0.70664
 C765 C 0.74103 0.62820 0.71937
 C766 C 0.75973 0.60289 0.72341
 C767 C 0.79080 0.60404 0.71483
 C768 C 0.80086 0.62961 0.69845
 C769 C 0.82885 0.64871 0.70269
 C770 C 0.80866 0.67600 0.69830
 H771 H 0.71763 0.62683 0.72722
 H772 H 0.75007 0.58288 0.73423
 H773 H 0.84547 0.64593 0.68373
 H774 H 0.83862 0.64670 0.72623
 H775 H 0.81367 0.68888 0.67682
 H776 H 0.80668 0.68987 0.71929
 C777 C 0.74160 0.36345 0.75687
 C778 C 0.75222 0.33613 0.76891
 C779 C 0.78415 0.33355 0.77279
 C780 C 0.80371 0.35877 0.76860
 C781 C 0.79186 0.38707 0.76013
 C782 C 0.76086 0.38813 0.75247
 C783 C 0.73707 0.40970 0.76226
 C784 C 0.71593 0.38263 0.76711
 H785 H 0.79405 0.31241 0.77992
 H786 H 0.82792 0.35624 0.77278
 H787 H 0.72972 0.42468 0.74307
 H788 H 0.74323 0.42142 0.78392
 H789 H 0.69640 0.38211 0.75073
 H790 H 0.70979 0.37857 0.79159
 C791 C 0.26953 -0.14881 0.30158
 C792 C 0.23991 -0.14979 0.28896
 C793 C 0.23015 -0.12312 0.27375
 C794 C 0.25038 -0.09864 0.26855
 C795 C 0.28108 -0.09989 0.27821
 C796 C 0.28941 -0.12469 0.29629
 C797 C 0.31644 -0.14448 0.29361
 C798 C 0.29483 -0.17098 0.29927
 H799 H 0.20691 -0.12064 0.26581
 H800 H 0.24198 -0.07899 0.25644
 H801 H 0.33308 -0.14097 0.31263
 H802 H 0.32642 -0.14404 0.27015
 H803 H 0.29934 -0.18276 0.32146
 H804 H 0.29222 -0.18597 0.27910
 C805 C 0.25664 -0.14097 0.74790
 C806 C 0.24837 -0.16644 0.73054
 C807 C 0.21694 -0.16929 0.72273
 C808 C 0.19642 -0.14587 0.72830
 C809 C 0.20646 -0.11891 0.74203
 C810 C 0.23628 -0.11799 0.75347
 C811 C 0.26014 -0.09396 0.74996
 C812 C 0.28254 -0.11889 0.74370
 H813 H 0.20774 -0.18933 0.71208
 H814 H 0.17291 -0.14855 0.72093
 H815 H 0.26475 -0.08213 0.77190
 H816 H 0.25605 -0.07902 0.72974
 H817 H 0.30020 -0.12102 0.76198
 H818 H 0.29149 -0.11846 0.71983
 C819 C 0.75103 0.35728 0.24738
 C820 C 0.74252 0.33276 0.22913
 C821 C 0.71161 0.33073 0.21988
 C822 C 0.69154 0.35461 0.22515
 C823 C 0.70186 0.38107 0.23987
 C824 C 0.73125 0.38075 0.25263
 C825 C 0.75636 0.40379 0.25078
 C826 C 0.77804 0.37805 0.24503
 H827 H 0.70319 0.31127 0.20752
 H828 H 0.66833 0.35277 0.21668
 H829 H 0.76045 0.41499 0.27316
 H830 H 0.75387 0.41932 0.23074
 H831 H 0.79459 0.37446 0.26410
 H832 H 0.78816 0.37859 0.22163
 C833 C 0.71357 0.64936 0.29840
 C834 C 0.74451 0.64938 0.29024
 C835 C 0.75680 0.62147 0.28156
 C836 C 0.73771 0.59592 0.27753
 C837 C 0.70593 0.59754 0.28240
 C838 C 0.69490 0.62419 0.29471
 C839 C 0.66829 0.64266 0.28500
 C840 C 0.68876 0.67029 0.28898
 H841 H 0.78095 0.61940 0.27709
 H842 H 0.74774 0.57520 0.26982
 H843 H 0.64937 0.64131 0.30193
 H844 H 0.66142 0.63870 0.26073
 H845 H 0.68151 0.68484 0.30816
 H846 H 0.69383 0.68239 0.26704
 C847 C 0.21486 0.14852 0.80165
 C848 C 0.24615 0.14814 0.79507
 C849 C 0.25847 0.12012 0.78680
 C850 C 0.23926 0.09496 0.78136
 C851 C 0.20730 0.09708 0.78444
 C852 C 0.19603 0.12370 0.79662
 C853 C 0.17023 0.14274 0.78587
 C854 C 0.19087 0.16999 0.79134
 H855 H 0.28279 0.11773 0.78356
 H856 H 0.24935 0.07417 0.77392
 H857 H 0.15046 0.14142 0.80179
 H858 H 0.16454 0.13926 0.76123
 H859 H 0.18290 0.18435 0.81037
 H860 H 0.19722 0.18235 0.76988
 C861 C 0.24811 0.25203 0.13736
 C862 C 0.23464 0.26198 0.16446
 C863 C 0.22932 0.29319 0.16673
 C864 C 0.23353 0.31254 0.14117
 C865 C 0.24326 0.30119 0.11272
 C866 C 0.25232 0.27108 0.11223
 C867 C 0.24444 0.24678 0.09002
 C868 C 0.23983 0.22590 0.11759
 H869 H 0.22097 0.30257 0.18789
 H870 H 0.22823 0.33613 0.14348
 H871 H 0.26428 0.24064 0.07566
 H872 H 0.22302 0.25130 0.07707
 H873 H 0.25703 0.20777 0.11906
 H874 H 0.21573 0.21827 0.12068
 C875 C 0.71433 0.78081 0.65451
 C876 C 0.72142 0.75027 0.65188
 C877 C 0.72938 0.74015 0.62231
 C878 C 0.73381 0.76075 0.59778
 C879 C 0.73004 0.79192 0.60208
 C880 C 0.71836 0.80099 0.63031
 C881 C 0.72904 0.82552 0.65108
 C882 C 0.72464 0.80339 0.67765
 H883 H 0.73295 0.71650 0.61813
 H884 H 0.74082 0.75232 0.57570
 H885 H 0.71283 0.84454 0.65153
 H886 H 0.75332 0.83210 0.64715
 H887 H 0.70594 0.80973 0.69339
 H888 H 0.74637 0.79706 0.68916
 C889 C 0.74997 0.74260 0.36534
 C890 C 0.76484 0.75008 0.33780
 C891 C 0.77131 0.78093 0.33221
 C892 C 0.76708 0.80238 0.35539
 C893 C 0.75605 0.79351 0.38459
 C894 C 0.74564 0.76372 0.38806
 C895 C 0.75162 0.74138 0.41316
 C896 C 0.75638 0.71821 0.38825
 H897 H 0.78083 0.78841 0.31047
 H898 H 0.77359 0.82560 0.35080
 H899 H 0.73098 0.73670 0.42729
 H900 H 0.77272 0.74677 0.42641
 H901 H 0.73848 0.70020 0.38811
 H902 H 0.78025 0.71012 0.38701
 C903 C 0.25166 0.24164 -0.13001
 C904 C 0.26623 0.24901 -0.15774
 C905 C 0.27242 0.27986 -0.16362
 C906 C 0.26815 0.30147 -0.14060
 C907 C 0.25745 0.29277 -0.11121
 C908 C 0.24735 0.26291 -0.10743
 C909 C 0.25374 0.24080 -0.08221
 C910 C 0.25846 0.21747 -0.10698
 H911 H 0.28174 0.28721 -0.18549
 H912 H 0.27437 0.32471 -0.14549
 H913 H 0.23326 0.23606 -0.06785
 H914 H 0.27491 0.24646 -0.06919
 H915 H 0.24071 0.19933 -0.10683
 H916 H 0.28239 0.20957 -0.10837
 C917 C 0.74313 0.25317 -0.14267
 C918 C 0.72515 0.24448 -0.16780
 C919 C 0.71615 0.21381 -0.16915
 C920 C 0.72180 0.19402 -0.14424
 C921 C 0.73672 0.20436 -0.11745
 C922 C 0.74878 0.23372 -0.11827
 C923 C 0.74657 0.25829 -0.09530
 C924 C 0.74037 0.27964 -0.12208
 H925 H 0.70407 0.20520 -0.18900
 H926 H 0.71374 0.17092 -0.14570
 H927 H 0.76877 0.26291 -0.08370
 H928 H 0.72674 0.25518 -0.07964
 H929 H 0.75902 0.29651 -0.12584
 H930 H 0.71694 0.28895 -0.12201
 C931 C 0.20266 0.72644 0.34526
 C932 C 0.21171 0.75675 0.34700
 C933 C 0.22438 0.76649 0.37519
 C934 C 0.23105 0.74567 0.39888
 C935 C 0.22499 0.71463 0.39511
 C936 C 0.20902 0.70601 0.36865
 C937 C 0.21543 0.68147 0.34654
 C938 C 0.20847 0.70388 0.32089
 H939 H 0.22972 0.79004 0.37887
 H940 H 0.24141 0.75386 0.41986
 H941 H 0.19837 0.66275 0.34821
 H942 H 0.23969 0.67443 0.34715
 H943 H 0.18740 0.69802 0.30780
 H944 H 0.22867 0.70990 0.30657
 C945 C 0.26139 0.75623 0.64011
 C946 C 0.27852 0.74733 0.66578
 C947 C 0.28770 0.71699 0.66718
 C948 C 0.28292 0.69776 0.64197
 C949 C 0.26890 0.70841 0.61471
 C950 C 0.25671 0.73736 0.61535
 C951 C 0.25969 0.76275 0.59272
 C952 C 0.26479 0.78344 0.61991
 H953 H 0.29923 0.70827 0.68736
 H954 H 0.29091 0.67486 0.64365
 H955 H 0.23792 0.76704 0.58033
 H956 H 0.28010 0.76077 0.57780
 H957 H 0.24594 0.79957 0.62315
 H958 H 0.28817 0.79350 0.62082
 C959 C 0.75181 0.25318 0.13970
 C960 C 0.78070 0.25966 0.15203
 C961 C 0.80627 0.25080 0.13488
 C962 C 0.80260 0.23242 0.10888
 C963 C 0.77327 0.22238 0.09953
 C964 C 0.74819 0.23504 0.11421
 C965 C 0.71998 0.22037 0.12690
 C966 C 0.72396 0.24031 0.15483
 H967 H 0.82915 0.25688 0.14228
 H968 H 0.82281 0.22509 0.09704
 H969 H 0.72301 0.19601 0.13209
 H970 H 0.69938 0.22583 0.11306
 H971 H 0.72929 0.22755 0.17628
 H972 H 0.70568 0.25725 0.15700
 C973 C 0.44400 0.39787 0.53098
 C974 C 0.45147 0.39662 0.49974
 C975 C 0.45975 0.36820 0.48829
 C976 C 0.46432 0.34352 0.50838
 C977 C 0.46031 0.34652 0.54034
 C978 C 0.44815 0.37351 0.55066
 C979 C 0.45828 0.39315 0.57647
 C980 C 0.45378 0.41989 0.55490
 H981 H 0.46362 0.36509 0.46401
 H982 H 0.47183 0.32242 0.49899
 H983 H 0.48254 0.38964 0.58303
 H984 H 0.44185 0.39248 0.59587
 H985 H 0.47542 0.43192 0.54888
 H986 H 0.43481 0.43462 0.56199
 C987 C -0.02096 0.87987 -0.00765
 C988 C -0.03243 0.90700 0.00334
 C989 C -0.03552 0.90944 0.03555
 C990 C -0.03110 0.88428 0.05504
 C991 C -0.02311 0.85615 0.04289
 C992 C -0.01628 0.85524 0.01156
 C993 C -0.02679 0.83351 -0.01229
 C994 C -0.03194 0.86052 -0.03337
 H995 H -0.04203 0.93046 0.04580
 H996 H -0.03464 0.88671 0.07948
 H997 H -0.04825 0.82141 -0.00576
 H998 H -0.00803 0.81888 -0.02009
 H999 H -0.05640 0.86414 -0.03908
 H1000 H -0.01617 0.86136 -0.05331
 C1001 C 0.00270 0.60495 0.00287
 C1002 C 0.03245 0.59545 -0.00285
 C1003 C 0.05656 0.61241 0.01031
 C1004 C 0.05055 0.63582 0.03099
 C1005 C 0.02025 0.64275 0.03920
 C1006 C -0.00322 0.62782 0.02328
 C1007 C -0.03127 0.61217 0.03511
 C1008 C -0.02478 0.58711 0.01265
 H1009 H 0.08006 0.60738 0.00503
 H1010 H 0.06969 0.64806 0.04081
 H1011 H -0.05235 0.62471 0.02937
 H1012 H -0.02906 0.60509 0.05960
 H1013 H -0.04207 0.58532 -0.00602
 H1014 H -0.01882 0.56543 0.02405
 C1015 C 0.54755 0.09815 0.52314
 C1016 C 0.52348 0.08243 0.50908
 C1017 C 0.49356 0.08959 0.51814
 C1018 C 0.48832 0.11397 0.53783
 C1019 C 0.51286 0.13191 0.54883
 C1020 C 0.54241 0.12220 0.54235
 C1021 C 0.56941 0.13940 0.53021
 C1022 C 0.57504 0.11296 0.50918
 H1023 H 0.47416 0.07678 0.50961
 H1024 H 0.46502 0.11900 0.54385
 H1025 H 0.58753 0.14240 0.54790
 H1026 H 0.56288 0.16031 0.51767
 H1027 H 0.59633 0.10074 0.51486
 H1028 H 0.57183 0.11848 0.48441
 C1029 C 0.00461 0.10760 0.49704
 C1030 C -0.02429 0.09475 0.50242
 C1031 C -0.04983 0.11146 0.49275
 C1032 C -0.04604 0.13773 0.47460
 C1033 C -0.01663 0.14784 0.46556
 C1034 C 0.00834 0.13338 0.47910
 C1035 C 0.03688 0.12203 0.46492
 C1036 C 0.03278 0.09378 0.48463
 H1037 H -0.07274 0.10360 0.49805
 H1038 H -0.06622 0.14929 0.46664
 H1039 H 0.05727 0.13574 0.47145
 H1040 H 0.03429 0.11787 0.43989
 H1041 H 0.05078 0.09129 0.50251
 H1042 H 0.02783 0.07319 0.47107
 C1043 C 0.50383 0.61278 0.99524
 C1044 C 0.47473 0.59982 0.99884
 C1045 C 0.44985 0.61589 0.98651
 C1046 C 0.45477 0.64182 0.96806
 C1047 C 0.48470 0.65225 0.96144
 C1048 C 0.50868 0.63819 0.97708
 C1049 C 0.53824 0.62676 0.96525
 C1050 C 0.53291 0.59888 0.98521
 H1051 H 0.42665 0.60800 0.99031
 H1052 H 0.43516 0.65305 0.95833
 H1053 H 0.55804 0.64072 0.97294
 H1054 H 0.53747 0.62210 0.94020
 H1055 H 0.54963 0.59687 1.00437
 H1056 H 0.52905 0.57800 0.97179
 C1057 C 0.55743 0.90808 0.97849
 C1058 C 0.53331 0.91788 0.99697
 C1059 C 0.50403 0.90546 0.99033
 C1060 C 0.50029 0.88194 0.96908
 C1061 C 0.52568 0.86969 0.95401
 C1062 C 0.55373 0.88468 0.95786
 C1063 C 0.58443 0.87221 0.96492
 C1064 C 0.58860 0.89771 0.98754
 H1065 H 0.48377 0.91359 1.00146
 H1066 H 0.47753 0.87292 0.96522
 H1067 H 0.60013 0.87407 0.94497
 H1068 H 0.58313 0.84958 0.97609
 H1069 H 0.60682 0.91404 0.98056
 H1070 H 0.58977 0.88992 1.01188
 C1071 C 0.05281 0.40441 0.47140
 C1072 C 0.02871 0.41681 0.48776
 C1073 C -0.00108 0.40643 0.48066
 C1074 C -0.00573 0.38185 0.46087
 C1075 C 0.01932 0.36691 0.44788
 C1076 C 0.04827 0.38013 0.45209
 C1077 C 0.07773 0.36621 0.46154
 C1078 C 0.08270 0.39288 0.48267
 H1079 H -0.02072 0.41655 0.49123
 H1080 H -0.02887 0.37404 0.45668
 H1081 H 0.09437 0.36573 0.44234
 H1082 H 0.07439 0.34445 0.47406
 H1083 H 0.10211 0.40774 0.47556
 H1084 H 0.08227 0.38663 0.50748
 C1085 C 0.37877 0.48995 0.49221
 C1086 C 0.40547 0.49695 0.47586
 C1087 C 0.41081 0.52764 0.46833
 C1088 C 0.38826 0.54936 0.47368
 C1089 C 0.35995 0.54096 0.48689
 C1090 C 0.35675 0.51128 0.49762
 C1091 C 0.33124 0.48911 0.49307
 C1092 C 0.35540 0.46568 0.48710
 H1093 H 0.43195 0.53486 0.45758
 H1094 H 0.39273 0.57248 0.46671
 H1095 H 0.31704 0.49443 0.47253
 H1096 H 0.31825 0.48473 0.51458
 H1097 H 0.35527 0.45738 0.46309
 H1098 H 0.35622 0.44783 0.50519
 C1099 C 0.88779 -0.00489 -0.00019
 C1100 C 0.91124 0.00109 -0.02150
 C1101 C 0.91282 0.03087 -0.03365
 C1102 C 0.88953 0.05161 -0.02818
 C1103 C 0.86377 0.04335 -0.01053
 C1104 C 0.86470 0.01558 0.00496
 C1105 C 0.84080 -0.00853 0.00763
 C1106 C 0.86588 -0.03101 0.00194
 H1107 H 0.93178 0.03843 -0.04773
 H1108 H 0.89131 0.07375 -0.03873
 H1109 H 0.82360 -0.00748 -0.01119
 H1110 H 0.83120 -0.01021 0.03120
 H1111 H 0.86326 -0.04307 -0.02020
 H1112 H 0.87048 -0.04570 0.02223
 C1113 C 0.59722 0.02888 0.05250
 C1114 C 0.59767 -0.00078 0.04192
 C1115 C 0.62557 -0.01114 0.03015
 C1116 C 0.65034 0.00890 0.02523
 C1117 C 0.64783 0.03978 0.03203
 C1118 C 0.62163 0.04860 0.04772
 C1119 C 0.60112 0.07460 0.04184
 C1120 C 0.57435 0.05297 0.04709
 H1121 H 0.62793 -0.03443 0.02358
 H1122 H 0.67096 0.00039 0.01506
 H1123 H 0.60263 0.08329 0.01783
 H1124 H 0.60332 0.09199 0.05991
 H1125 H 0.56031 0.04908 0.02613
 H1126 H 0.56120 0.05794 0.06817
 C1127 C 0.09891 0.52241 0.55026
 C1128 C 0.08621 0.50668 0.52529
 C1129 C 0.09740 0.51497 0.49578
 C1130 C 0.12250 0.53492 0.49236
 C1131 C 0.13748 0.54711 0.51823
 C1132 C 0.12379 0.54187 0.54681
 C1133 C 0.13780 0.53214 0.57650
 C1134 C 0.11069 0.51076 0.58038
 H1135 H 0.08711 0.50620 0.47506
 H1136 H 0.13053 0.54011 0.46939
 H1137 H 0.13829 0.55049 0.59365
 H1138 H 0.15982 0.52042 0.57336
 H1139 H 0.09578 0.51683 0.59991
 H1140 H 0.11694 0.48660 0.57953
 C1141 C 0.09480 0.47750 -0.04555
 C1142 C 0.09549 0.50727 -0.03529
 C1143 C 0.12336 0.51807 -0.02281
 C1144 C 0.14807 0.49852 -0.01783
 C1145 C 0.14559 0.46770 -0.02530
 C1146 C 0.11907 0.45834 -0.04074
 C1147 C 0.09843 0.43195 -0.03458
 C1148 C 0.07179 0.45297 -0.03985
 H1149 H 0.12604 0.54144 -0.01643
 H1150 H 0.16885 0.50752 -0.00775
 H1151 H 0.10018 0.42346 -0.01051
 H1152 H 0.10026 0.41446 -0.05252
 H1153 H 0.05804 0.45673 -0.01885
 H1154 H 0.05833 0.44755 -0.06082
 C1155 C 0.61067 1.00486 0.49544
 C1156 C 0.58518 0.99533 0.47812
 C1157 C 0.58562 0.96522 0.46758
 C1158 C 0.61182 0.94749 0.47092
 C1159 C 0.63864 0.95924 0.48459
 C1160 C 0.63658 0.98741 0.49843
 C1161 C 0.65759 1.01406 0.49630
 C1162 C 0.62934 1.03327 0.49299
 H1163 H 0.56590 0.95495 0.45670
 H1164 H 0.61115 0.92482 0.46207
 H1165 H 0.67195 1.01396 0.47529
 H1166 H 0.67021 1.01799 0.51812
 H1167 H 0.62729 1.04441 0.47007
 H1168 H 0.62593 1.04830 0.51289
 C1169 C 0.89561 1.00604 0.49704
 C1170 C 0.92178 0.99570 0.51257
 C1171 C 0.92288 0.96416 0.51824
 C1172 C 0.89729 0.94536 0.51291
 C1173 C 0.86976 0.95729 0.50163
 C1174 C 0.87041 0.98739 0.49181
 C1175 C 0.84830 1.01181 0.49778
 C1176 C 0.87571 1.03231 0.50364
 H1177 H 0.94319 0.95364 0.52721
 H1178 H 0.89880 0.92165 0.51870
 H1179 H 0.83424 1.00736 0.51860
 H1180 H 0.83524 1.01816 0.47681
 H1181 H 0.87758 1.03980 0.52788
 H1182 H 0.87813 1.05057 0.48611
 C1183 C 0.39188 0.51125 -0.00019
 C1184 C 0.41881 0.50114 0.01377
 C1185 C 0.42147 0.46970 0.01824
 C1186 C 0.39634 0.45018 0.01305
 C1187 C 0.36805 0.46155 0.00296
 C1188 C 0.36725 0.49201 -0.00555
 C1189 C 0.34465 0.51551 0.00230
 C1190 C 0.37164 0.53662 0.00820
 H1191 H 0.44248 0.46019 0.02685
 H1192 H 0.39875 0.42640 0.01809
 H1193 H 0.33142 0.50974 0.02336
 H1194 H 0.33070 0.52233 -0.01792
 H1195 H 0.37410 0.54312 0.03269
 H1196 H 0.37314 0.55560 -0.00862
 C1197 C 0.51472 0.44207 0.40551
 C1198 C 0.48577 0.45500 0.40611
 C1199 C 0.47576 0.46954 0.37891
 C1200 C 0.49573 0.47403 0.35385
 C1201 C 0.52617 0.46399 0.35533
 C1202 C 0.53429 0.44640 0.38088
 C1203 C 0.56169 0.44854 0.40129
 C1204 C 0.54021 0.44379 0.42831
 H1205 H 0.45284 0.47818 0.37718
 H1206 H 0.48752 0.48602 0.33375
 H1207 H 0.57268 0.47128 0.40065
 H1208 H 0.57745 0.42946 0.39800
 H1209 H 0.53869 0.46376 0.44340
 H1210 H 0.54364 0.42199 0.44054
 C1211 C -0.00642 -0.00871 0.89169
 C1212 C -0.01329 -0.03719 0.90419
 C1213 C -0.00387 -0.06243 0.88739
 C1214 C 0.01524 -0.05882 0.86157
 C1215 C 0.02538 -0.02988 0.85194
 C1216 C 0.01234 -0.00516 0.86632
 C1217 C 0.02705 0.02267 0.87887
 C1218 C 0.00644 0.01876 0.90670
 H1219 H -0.01026 -0.08500 0.89479
 H1220 H 0.02294 -0.07874 0.84997
 H1221 H 0.02172 0.04298 0.86482
 H1222 H 0.05167 0.01967 0.88425
 H1223 H -0.01074 0.03682 0.90861
 H1224 H 0.01907 0.01349 0.92827
 C1225 C 0.00116 0.00022 0.60419
 C1226 C 0.01126 0.01832 0.57964
 C1227 C 0.04230 0.02742 0.57980
 C1228 C 0.06099 0.02172 0.60562
 C1229 C 0.04906 0.00683 0.63191
 C1230 C 0.01949 -0.00536 0.62956
 C1231 C -0.00679 -0.00362 0.65119
 C1232 C -0.02690 0.00247 0.62333
 H1233 H 0.05190 0.03983 0.56050
 H1234 H 0.08440 0.02987 0.60529
 H1235 H -0.00479 0.01584 0.66696
 H1236 H -0.01192 -0.02566 0.66254
 H1237 H -0.03660 0.02548 0.62290
 H1238 H -0.04354 -0.01607 0.61867
 C1239 C 0.52101 0.55209 0.09982
 C1240 C 0.50776 0.52907 0.08230
 C1241 C 0.51670 0.49930 0.08923
 C1242 C 0.53533 0.49307 0.11500
 C1243 C 0.54550 0.51646 0.13447
 C1244 C 0.53931 0.54599 0.12508
 C1245 C 0.52659 0.57147 0.14283
 C1246 C 0.50652 0.57817 0.11509
 H1247 H 0.50886 0.48073 0.07521
 H1248 H 0.54114 0.46991 0.11995
 H1249 H 0.54399 0.58940 0.14721
 H1250 H 0.51352 0.56372 0.16337
 H1251 H 0.51241 0.59993 0.10356
 H1252 H 0.48176 0.57431 0.11949
 C1253 C 0.47095 -0.04278 0.09256
 C1254 C 0.50206 -0.03554 0.09556
 C1255 C 0.51243 -0.02711 0.12509
 C1256 C 0.49160 -0.02206 0.14901
 C1257 C 0.45990 -0.02565 0.14414
 C1258 C 0.45047 -0.03810 0.11621
 C1259 C 0.42598 -0.02833 0.09452
 C1260 C 0.44843 -0.03345 0.06859
 H1261 H 0.53650 -0.02340 0.12958
 H1262 H 0.50027 -0.01447 0.17097
 H1263 H 0.41994 -0.00428 0.09732
 H1264 H 0.40628 -0.04439 0.09433
 H1265 H 0.45546 -0.01238 0.05632
 H1266 H 0.44161 -0.05244 0.05349
 C1267 C 0.97329 0.45095 0.58935
 C1268 C 1.00366 0.46127 0.58974
 C1269 C 1.01525 0.47185 0.61806
 C1270 C 0.99570 0.47588 0.64330
 C1271 C 0.96419 0.46919 0.64089
 C1272 C 0.95414 0.45471 0.61423
 C1273 C 0.92729 0.46109 0.59408
 C1274 C 0.94830 0.45698 0.56678
 H1275 H 1.03908 0.47818 0.62046
 H1276 H 1.00508 0.48525 0.66422
 H1277 H 0.91906 0.48453 0.59639
 H1278 H 0.90932 0.44325 0.59601
 H1279 H 0.95231 0.47802 0.55320
 H1280 H 0.94237 0.43678 0.55300
 C1281 C 0.97306 0.54707 0.90370
 C1282 C 1.00354 0.53797 0.90306
 C1283 C 1.01432 0.52644 0.87503
 C1284 C 0.99412 0.52083 0.85038
 C1285 C 0.96269 0.52685 0.85301
 C1286 C 0.95326 0.54176 0.87939
 C1287 C 0.92707 0.53497 0.90030
 C1288 C 0.94878 0.54080 0.92699
 H1289 H 1.03816 0.52107 0.87224
 H1290 H 1.00304 0.51119 0.82958
 H1291 H 0.91906 0.51114 0.89894
 H1292 H 0.90884 0.55203 0.89818
 H1293 H 0.95341 0.52038 0.94117
 H1294 H 0.94300 0.56121 0.94019
 C1295 C 0.50371 0.00840 0.38956
 C1296 C 0.49335 0.02196 0.41642
 C1297 C 0.46189 0.02841 0.41790
 C1298 C 0.44289 0.02487 0.39193
 C1299 C 0.45481 0.01460 0.36390
 C1300 C 0.48498 0.00472 0.36411
 C1301 C 0.51038 0.01172 0.34230
 C1302 C 0.53094 0.01577 0.37022
 H1303 H 0.45203 0.03694 0.43878
 H1304 H 0.41911 0.03091 0.39363
 H1305 H 0.50676 0.03293 0.32904
 H1306 H 0.51639 -0.00809 0.32828
 H1307 H 0.53926 0.03934 0.37322
 H1308 H 0.54878 -0.00170 0.37219
   
