data_POSCAR
  _audit_creation_date              2014-09-24
  _audit_creation_method            'ToBaCCo'
  _symmetry_space_group_name_H-M    'P1'
  _symmetry_Int_Tables_number       1
  _symmetry_cell_setting            triclinic
  loop_
  _symmetry_equiv_pos_as_xyz
 x,y,z
_cell_length_a 64.1171
_cell_length_b 64.1235
_cell_length_c 64.1141
_cell_angle_alpha 90.011500
_cell_angle_beta 90.004800
_cell_angle_gamma 89.999900
loop_
  _atom_site_label
  _atom_site_type_symbol
  _atom_site_fract_x
  _atom_site_fract_y
  _atom_site_fract_z
N1 N 0.20872 0.20873 0.20870
 N2 N 0.70857 0.70864 0.70852
 N3 N 0.29113 0.79119 0.70887
 N4 N 0.79131 0.29116 0.20881
 N5 N 0.79118 0.70877 0.29119
 N6 N 0.29140 0.20884 -0.20874
 N7 N 0.70879 0.29126 -0.20869
 N8 N 0.20860 0.79144 0.29141
 N9 N 0.45870 0.45891 0.45875
 N10 N -0.04120 -0.04111 0.95875
 N11 N 1.04127 0.54144 0.95872
 N12 N 0.54128 0.04143 0.45864
 N13 N -0.04122 0.04111 0.54129
 N14 N 0.45876 0.54115 0.04131
 N15 N 0.54127 -0.04142 0.04123
 N16 N 1.04127 0.45861 0.54135
 C17 C 0.40685 0.00974 0.22180
 H18 H 0.40772 0.02388 0.23097
 C19 C 0.42044 0.00680 0.20505
 H20 H 0.43185 0.01873 0.20149
 C21 C 0.39132 -0.02325 0.21582
 H22 H 0.38015 -0.03505 0.22021
 C23 C 0.40464 -0.02686 0.19896
 H24 H 0.40323 -0.04128 0.19029
 N25 N 0.39250 -0.00508 0.22670
 C26 C 0.34309 0.02809 0.25967
 H27 H 0.34229 0.01896 0.27383
 C28 C 0.32948 0.04483 0.25674
 H29 H 0.31840 0.04867 0.26889
 C30 C 0.35866 0.03415 0.22671
 H31 H 0.36978 0.02971 0.21486
 C32 C 0.34536 0.05102 0.22314
 H33 H 0.34641 0.05940 0.20851
 Zn34 Zn 0.37498 0.00001 0.24993
 N35 N 0.35747 0.02323 0.24486
 C36 C 0.39134 0.02327 0.28403
 N37 N 0.39251 0.00509 0.27315
 C38 C 0.40686 -0.00974 0.27805
 C39 C 0.42046 -0.00680 0.29480
 C40 C 0.40466 0.02687 0.30088
 C41 C 0.34308 -0.02807 0.24020
 C42 C 0.32945 -0.04479 0.24313
 C43 C 0.34534 -0.05098 0.27674
 C44 C 0.35865 -0.03412 0.27316
 N45 N 0.35746 -0.02321 0.25500
 H46 H 0.38017 0.03507 0.27963
 H47 H 0.40771 -0.02388 0.26888
 H48 H 0.43186 -0.01873 0.29836
 H49 H 0.40327 0.04129 0.30955
 H50 H 0.34227 -0.01894 0.22603
 H51 H 0.31837 -0.04863 0.23098
 H52 H 0.34639 -0.05935 0.29136
 H53 H 0.36977 -0.02969 0.28500
 C54 C 0.33054 0.05659 0.23829
 C55 C 0.41941 -0.01169 0.19334
 C56 C 0.33051 -0.05654 0.26159
 C57 C 0.41943 0.01170 0.30650
 C58 C 0.09322 -0.00968 0.72197
 H59 H 0.09237 -0.02380 0.73117
 C60 C 0.07961 -0.00679 0.70522
 H61 H 0.06821 -0.01873 0.70170
 C62 C 0.10873 0.02331 0.71592
 H63 H 0.11990 0.03512 0.72028
 C64 C 0.09539 0.02686 0.69907
 H65 H 0.09678 0.04127 0.69037
 N66 N 0.10757 0.00515 0.72683
 C67 C 0.15702 -0.02794 0.75981
 H68 H 0.15783 -0.01879 0.77396
 C69 C 0.17063 -0.04469 0.75690
 H70 H 0.18171 -0.04851 0.76905
 C71 C 0.14142 -0.03405 0.72687
 H72 H 0.13030 -0.02964 0.71502
 C73 C 0.15472 -0.05093 0.72331
 H74 H 0.15365 -0.05934 0.70870
 Zn75 Zn 0.12511 0.00012 0.75005
 N76 N 0.14263 -0.02311 0.74500
 C77 C 0.10879 -0.02308 0.78420
 N78 N 0.10761 -0.00492 0.77330
 C79 C 0.09326 0.00990 0.77819
 C80 C 0.07967 0.00698 0.79494
 C81 C 0.09548 -0.02666 0.80106
 C82 C 0.15699 0.02820 0.74025
 C83 C 0.17061 0.04493 0.74316
 C84 C 0.15476 0.05117 0.77677
 C85 C 0.14145 0.03429 0.77322
 N86 N 0.14263 0.02336 0.75508
 H87 H 0.11996 -0.03489 0.77981
 H88 H 0.09239 0.02403 0.76900
 H89 H 0.06825 0.01891 0.79848
 H90 H 0.09688 -0.04107 0.80974
 H91 H 0.15778 0.01905 0.72609
 H92 H 0.18168 0.04876 0.73099
 H93 H 0.15372 0.05956 0.79139
 H94 H 0.13034 0.02987 0.78508
 C95 C 0.16954 -0.05648 0.73846
 C96 C 0.08062 0.01168 0.69348
 C97 C 0.16956 0.05671 0.76160
 C98 C 0.08070 -0.01149 0.80666
 C99 C 0.59319 0.49013 0.22192
 H100 H 0.59233 0.47600 0.23110
 C101 C 0.57959 0.49305 0.20517
 H102 H 0.56818 0.48112 0.20163
 C103 C 0.60872 0.52312 0.21591
 H104 H 0.61989 0.53492 0.22029
 C105 C 0.59540 0.52670 0.19905
 H106 H 0.59680 0.54111 0.19037
 N107 N 0.60755 0.50495 0.22681
 C108 C 0.65695 0.47183 0.25982
 H109 H 0.65775 0.48097 0.27398
 C110 C 0.67057 0.45509 0.25691
 H111 H 0.68164 0.45126 0.26907
 C112 C 0.64138 0.46573 0.22686
 H113 H 0.63027 0.47015 0.21501
 C114 C 0.65469 0.44886 0.22331
 H115 H 0.65363 0.44046 0.20869
 Zn116 Zn 0.62506 0.49990 0.25004
 N117 N 0.64257 0.47667 0.24500
 C118 C 0.60869 0.47671 0.28418
 N119 N 0.60753 0.49486 0.27327
 C120 C 0.59318 0.50970 0.27814
 C121 C 0.57958 0.50679 0.29488
 C122 C 0.59537 0.47314 0.30103
 C123 C 0.65696 0.52797 0.24028
 C124 C 0.67058 0.54471 0.24319
 C125 C 0.65469 0.55095 0.27678
 C126 C 0.64139 0.53407 0.27323
 N127 N 0.64258 0.52313 0.25509
 H128 H 0.61987 0.46490 0.27981
 H129 H 0.59233 0.52382 0.26894
 H130 H 0.56817 0.51873 0.29841
 H131 H 0.59676 0.45874 0.30972
 H132 H 0.65777 0.51881 0.22612
 H133 H 0.68165 0.54853 0.23103
 H134 H 0.65363 0.55935 0.29140
 H135 H 0.63027 0.52965 0.28508
 C136 C 0.66950 0.44331 0.23847
 C137 C 0.58062 0.51153 0.19345
 C138 C 0.66951 0.55649 0.26163
 C139 C 0.58059 0.48833 0.30662
 C140 C 0.90682 0.50981 0.72190
 H141 H 0.90766 0.52395 0.73106
 C142 C 0.92042 0.50687 0.70515
 H143 H 0.93182 0.51880 0.70160
 C144 C 0.89133 0.47679 0.71593
 H145 H 0.88017 0.46498 0.72033
 C146 C 0.90466 0.47319 0.69909
 H147 H 0.90327 0.45876 0.69042
 N148 N 0.89248 0.49497 0.72680
 C149 C 0.84304 0.52813 0.75973
 H150 H 0.84224 0.51902 0.77391
 C151 C 0.82941 0.54486 0.75678
 H152 H 0.81833 0.54870 0.76893
 C153 C 0.85861 0.53416 0.72676
 H154 H 0.86972 0.52972 0.71492
 C155 C 0.84529 0.55102 0.72317
 H156 H 0.84634 0.55938 0.70854
 Zn157 Zn 0.87495 0.50006 0.75002
 N158 N 0.85742 0.52326 0.74492
 C159 C 0.89128 0.52333 0.78413
 N160 N 0.89246 0.50515 0.77325
 C161 C 0.90681 0.49033 0.77815
 C162 C 0.92040 0.49328 0.79491
 C163 C 0.90459 0.52693 0.80099
 C164 C 0.84308 0.47194 0.74027
 C165 C 0.82948 0.45519 0.74320
 C166 C 0.84533 0.44905 0.77683
 C167 C 0.85863 0.46593 0.77326
 N168 N 0.85744 0.47683 0.75509
 H169 H 0.88010 0.53513 0.77973
 H170 H 0.90768 0.47620 0.76898
 H171 H 0.93182 0.48135 0.79846
 H172 H 0.90319 0.54136 0.80966
 H173 H 0.84228 0.48105 0.72609
 H174 H 0.81842 0.45133 0.73104
 H175 H 0.84639 0.44069 0.79146
 H176 H 0.86973 0.47039 0.78511
 C177 C 0.83047 0.55659 0.73831
 C178 C 0.91942 0.48837 0.69346
 C179 C 0.83054 0.44345 0.76167
 C180 C 0.91937 0.51177 0.80661
 C181 C 0.22177 0.40692 0.00977
 H182 H 0.23095 0.40779 0.02391
 C183 C 0.20503 0.42053 0.00683
 H184 H 0.20149 0.43194 0.01876
 C185 C 0.21578 0.39140 -0.02323
 H186 H 0.22017 0.38022 -0.03504
 C187 C 0.19893 0.40472 -0.02683
 H188 H 0.19026 0.40332 -0.04125
 N189 N 0.22667 0.39257 -0.00506
 C190 C 0.25964 0.34317 0.02812
 H191 H 0.27377 0.34231 0.01894
 C192 C 0.25671 0.32957 0.04487
 H193 H 0.26864 0.31816 0.04840
 C194 C 0.22664 0.35870 0.03413
 H195 H 0.21484 0.36988 0.02976
 C196 C 0.22306 0.34538 0.05098
 H197 H 0.20864 0.34678 0.05967
 Zn198 Zn 0.24989 0.37505 0.00002
 N199 N 0.24481 0.35753 0.02324
 C200 C 0.28400 0.39140 0.02328
 N201 N 0.27311 0.39257 0.00511
 C202 C 0.27801 0.40692 -0.00971
 C203 C 0.29477 0.42051 -0.00678
 C204 C 0.30086 0.40471 0.02688
 C205 C 0.24016 0.34316 -0.02808
 C206 C 0.24310 0.32955 -0.04482
 C207 C 0.27671 0.34543 -0.05099
 C208 C 0.27313 0.35873 -0.03412
 N209 N 0.25497 0.35754 -0.02321
 H210 H 0.27961 0.38022 0.03509
 H211 H 0.26883 0.40778 -0.02385
 H212 H 0.29832 0.43191 -0.01871
 H213 H 0.30954 0.40330 0.04130
 H214 H 0.22599 0.34235 -0.01896
 H215 H 0.23095 0.31847 -0.04867
 H216 H 0.29133 0.34649 -0.05936
 H217 H 0.28497 0.36985 -0.02967
 C218 C 0.23823 0.33060 0.05659
 C219 C 0.19332 0.41950 -0.01166
 C220 C 0.26156 0.33062 -0.05657
 C221 C 0.30648 0.41948 0.01171
 C222 C 0.72184 0.09306 -0.00978
 H223 H 0.73097 0.09227 -0.02395
 C224 C 0.70512 0.07943 -0.00686
 H225 H 0.70128 0.06837 -0.01903
 C226 C 0.71578 0.10859 0.02321
 H227 H 0.72022 0.11969 0.03507
 C228 C 0.69892 0.09527 0.02677
 H229 H 0.69055 0.09631 0.04139
 N230 N 0.72670 0.10742 0.00505
 C231 C 0.75966 0.15685 -0.02807
 H232 H 0.77378 0.15772 -0.01888
 C233 C 0.75673 0.17045 -0.04482
 H234 H 0.76866 0.18187 -0.04834
 C235 C 0.72668 0.14131 -0.03411
 H236 H 0.71488 0.13012 -0.02975
 C237 C 0.72309 0.15463 -0.05096
 H238 H 0.70869 0.15322 -0.05966
 Zn239 Zn 0.74991 0.12496 0.00001
 N240 N 0.74484 0.14249 -0.02321
 C241 C 0.78404 0.10864 -0.02324
 N242 N 0.77315 0.10746 -0.00507
 C243 C 0.77806 0.09311 0.00975
 C244 C 0.79482 0.07953 0.00682
 C245 C 0.80091 0.09534 -0.02683
 C246 C 0.74014 0.15682 0.02813
 C247 C 0.74306 0.17042 0.04488
 C248 C 0.77668 0.15458 0.05104
 C249 C 0.77312 0.14129 0.03416
 N250 N 0.75496 0.14246 0.02325
 H251 H 0.77965 0.11982 -0.03504
 H252 H 0.76888 0.09224 0.02388
 H253 H 0.79837 0.06812 0.01875
 H254 H 0.80959 0.09675 -0.04125
 H255 H 0.72596 0.15761 0.01900
 H256 H 0.73089 0.18148 0.04873
 H257 H 0.79131 0.15354 0.05942
 H258 H 0.78498 0.13019 0.02971
 C259 C 0.73826 0.16942 -0.05655
 C260 C 0.69336 0.08047 0.01160
 C261 C 0.76152 0.16937 0.05663
 C262 C 0.80654 0.08057 -0.01166
 C263 C 0.22178 0.59313 0.49022
 H264 H 0.23091 0.59235 0.47605
 C265 C 0.20505 0.57951 0.49313
 H266 H 0.20121 0.56845 0.48096
 C267 C 0.21572 0.60866 0.52321
 H268 H 0.22016 0.61976 0.53507
 C269 C 0.19886 0.59534 0.52676
 H270 H 0.19049 0.59637 0.54139
 N271 N 0.22664 0.60749 0.50505
 C272 C 0.25962 0.65691 0.47192
 H273 H 0.27375 0.65776 0.48111
 C274 C 0.25670 0.67052 0.45518
 H275 H 0.26863 0.68193 0.45166
 C276 C 0.22662 0.64140 0.46590
 H277 H 0.21482 0.63022 0.47027
 C278 C 0.22304 0.65473 0.44906
 H279 H 0.20862 0.65334 0.44037
 Zn280 Zn 0.24985 0.62503 0.50001
 N281 N 0.24479 0.64256 0.47680
 C282 C 0.28401 0.60872 0.47680
 N283 N 0.27310 0.60753 0.49495
 C284 C 0.27798 0.59317 0.50978
 C285 C 0.29473 0.57958 0.50685
 C286 C 0.30089 0.59543 0.47323
 C287 C 0.24005 0.65689 0.52813
 C288 C 0.24296 0.67050 0.54488
 C289 C 0.27659 0.65466 0.55107
 C290 C 0.27304 0.64137 0.53418
 N291 N 0.25489 0.64254 0.52326
 H292 H 0.27956 0.61982 0.46495
 H293 H 0.26885 0.59237 0.52394
 H294 H 0.29858 0.56852 0.51901
 H295 H 0.30927 0.59649 0.45861
 H296 H 0.22589 0.65768 0.51899
 H297 H 0.23079 0.68155 0.54873
 H298 H 0.29121 0.65362 0.55945
 H299 H 0.28490 0.63027 0.52974
 C300 C 0.23822 0.66951 0.44347
 C301 C 0.19330 0.58054 0.51159
 C302 C 0.26141 0.66945 0.55664
 C303 C 0.30648 0.58064 0.48839
 C304 C 0.72181 0.90693 0.50970
 H305 H 0.73099 0.90779 0.52383
 C306 C 0.70507 0.92054 0.50677
 H307 H 0.70153 0.93195 0.51870
 C308 C 0.71579 0.89140 0.47670
 H309 H 0.72017 0.88022 0.46490
 C310 C 0.69895 0.90473 0.47311
 H311 H 0.69027 0.90334 0.45869
 N312 N 0.72668 0.89257 0.49487
 C313 C 0.75965 0.84317 0.52805
 H314 H 0.77378 0.84231 0.51887
 C315 C 0.75671 0.82957 0.54479
 H316 H 0.76864 0.81815 0.54833
 C317 C 0.72665 0.85870 0.53405
 H318 H 0.71485 0.86987 0.52967
 C319 C 0.72306 0.84537 0.55090
 H320 H 0.70864 0.84677 0.55958
 Zn321 Zn 0.74990 0.87504 0.49994
 N322 N 0.74483 0.85753 0.52316
 C323 C 0.78405 0.89135 0.52316
 N324 N 0.77314 0.89254 0.50501
 C325 C 0.77802 0.90690 0.49019
 C326 C 0.79476 0.92050 0.49311
 C327 C 0.80094 0.90464 0.52673
 C328 C 0.74013 0.84315 0.47185
 C329 C 0.74305 0.82953 0.45512
 C330 C 0.77666 0.84539 0.44891
 C331 C 0.77310 0.85870 0.46579
 N332 N 0.75495 0.85752 0.47671
 H333 H 0.77961 0.88025 0.53501
 H334 H 0.76889 0.90770 0.47602
 H335 H 0.79862 0.93156 0.48096
 H336 H 0.80931 0.90359 0.54136
 H337 H 0.72597 0.84235 0.48099
 H338 H 0.73089 0.81846 0.45128
 H339 H 0.79128 0.84644 0.44053
 H340 H 0.78495 0.86980 0.47022
 C341 C 0.73823 0.83059 0.55650
 C342 C 0.69335 0.91951 0.48828
 C343 C 0.76150 0.83058 0.44335
 C344 C 0.80652 0.91944 0.51157
 C345 C 0.00982 0.22171 0.40693
 H346 H 0.02395 0.23089 0.40780
 C347 C 0.00690 0.20495 0.42052
 H348 H 0.01883 0.20141 0.43192
 C349 C -0.02318 0.21571 0.39140
 H350 H -0.03498 0.22010 0.38023
 C351 C -0.02676 0.19885 0.40471
 H352 H -0.04117 0.19017 0.40331
 N353 N -0.00501 0.22661 0.39258
 C354 C 0.02812 0.25963 0.34319
 H355 H 0.01898 0.27379 0.34240
 C356 C 0.04486 0.25672 0.32957
 H357 H 0.04868 0.26888 0.31850
 C358 C 0.03421 0.22666 0.35874
 H359 H 0.02979 0.21481 0.36984
 C360 C 0.05108 0.22312 0.34542
 H361 H 0.05947 0.20850 0.34647
 Zn362 Zn 0.00005 0.24984 0.37508
 N363 N 0.02328 0.24480 0.35756
 C364 C 0.02327 0.28395 0.39146
 N365 N 0.00510 0.27306 0.39262
 C366 C -0.00973 0.27794 0.40697
 C367 C -0.00680 0.29468 0.42058
 C368 C 0.02685 0.30080 0.40479
 C369 C -0.02802 0.24010 0.34317
 C370 C -0.04476 0.24302 0.32955
 C371 C -0.05099 0.27660 0.34546
 C372 C -0.03412 0.27304 0.35877
 N373 N -0.02318 0.25491 0.35756
 H374 H 0.03508 0.27958 0.38029
 H375 H -0.02386 0.26876 0.40783
 H376 H -0.01874 0.29822 0.43200
 H377 H 0.04127 0.30949 0.40340
 H378 H -0.01887 0.22595 0.34235
 H379 H -0.04858 0.23088 0.31846
 H380 H -0.05939 0.29122 0.34653
 H381 H -0.02970 0.28488 0.36990
 C382 C 0.05663 0.23828 0.33062
 C383 C -0.01158 0.19324 0.41948
 C384 C -0.05654 0.26146 0.33063
 C385 C 0.01168 0.30640 0.41957
 C386 C -0.00978 0.72205 0.09313
 H387 H -0.02392 0.73123 0.09225
 C388 C -0.00685 0.70530 0.07953
 H389 H -0.01877 0.70175 0.06811
 C390 C 0.02320 0.71605 0.10867
 H391 H 0.03500 0.72044 0.11986
 C392 C 0.02680 0.69920 0.09535
 H393 H 0.04122 0.69052 0.09676
 N394 N 0.00503 0.72694 0.10749
 C395 C -0.02816 0.75991 0.15688
 H396 H -0.01902 0.77408 0.15770
 C397 C -0.04490 0.75699 0.17049
 H398 H -0.04875 0.76914 0.18156
 C399 C -0.03421 0.72695 0.14130
 H400 H -0.02977 0.71511 0.13019
 C401 C -0.05109 0.72339 0.15460
 H402 H -0.05947 0.70877 0.15353
 Zn403 Zn -0.00005 0.75016 0.12501
 N404 N -0.02329 0.74510 0.14251
 C405 C -0.02328 0.78428 0.10864
 N406 N -0.00511 0.77339 0.10748
 C407 C 0.00972 0.77827 0.09314
 C408 C 0.00680 0.79502 0.07954
 C409 C -0.02686 0.80113 0.09533
 C410 C 0.02803 0.74042 0.15691
 C411 C 0.04477 0.74335 0.17053
 C412 C 0.05090 0.77699 0.15473
 C413 C 0.03405 0.77341 0.14139
 N414 N 0.02316 0.75524 0.14255
 H415 H -0.03509 0.77989 0.11981
 H416 H 0.02385 0.76909 0.09228
 H417 H 0.01874 0.79856 0.06814
 H418 H -0.04128 0.80981 0.09672
 H419 H 0.01885 0.72629 0.15776
 H420 H 0.04829 0.73142 0.18194
 H421 H 0.05958 0.79141 0.15334
 H422 H 0.02968 0.78521 0.13021
 C423 C -0.05666 0.73854 0.16941
 C424 C 0.01164 0.69358 0.08057
 C425 C 0.05649 0.76182 0.16951
 C426 C -0.01168 0.80674 0.08056
 C427 C 0.49032 0.22208 0.59304
 H428 H 0.47618 0.23126 0.59219
 C429 C 0.49324 0.20533 0.57944
 H430 H 0.48131 0.20180 0.56802
 C431 C 0.52331 0.21607 0.60856
 H432 H 0.53512 0.22045 0.61974
 C433 C 0.52690 0.19922 0.59523
 H434 H 0.54131 0.19054 0.59663
 N435 N 0.50514 0.22696 0.60740
 C436 C 0.47199 0.25990 0.65684
 H437 H 0.48118 0.27403 0.65772
 C438 C 0.45525 0.25697 0.67045
 H439 H 0.45172 0.26889 0.68188
 C440 C 0.46596 0.22692 0.64129
 H441 H 0.47033 0.21513 0.63009
 C442 C 0.44912 0.22333 0.65461
 H443 H 0.44043 0.20892 0.65320
 Zn444 Zn 0.50007 0.25017 0.62494
 N445 N 0.47686 0.24509 0.64247
 C446 C 0.47682 0.28429 0.60863
 N447 N 0.49499 0.27340 0.60744
 C448 C 0.50980 0.27830 0.59307
 C449 C 0.50686 0.29505 0.57949
 C450 C 0.47322 0.30116 0.59533
 C451 C 0.52819 0.24041 0.65680
 C452 C 0.54494 0.24333 0.67040
 C453 C 0.55107 0.27698 0.65460
 C454 C 0.53421 0.27340 0.64128
 N455 N 0.52331 0.25524 0.64245
 H456 H 0.46502 0.27991 0.61982
 H457 H 0.52393 0.26912 0.59219
 H458 H 0.51878 0.29860 0.56807
 H459 H 0.45881 0.30984 0.59675
 H460 H 0.51900 0.22629 0.65766
 H461 H 0.54848 0.23140 0.68181
 H462 H 0.55976 0.29139 0.65321
 H463 H 0.52983 0.28521 0.63011
 C464 C 0.44352 0.23849 0.66941
 C465 C 0.51172 0.19362 0.58046
 C466 C 0.55667 0.26181 0.66938
 C467 C 0.48838 0.30677 0.58054
 C468 C 0.50978 0.72172 0.90687
 H469 H 0.52395 0.73085 0.90765
 C470 C 0.50687 0.70498 0.92048
 H471 H 0.51904 0.70114 0.93154
 C472 C 0.47679 0.71567 0.89135
 H473 H 0.46492 0.72011 0.88026
 C474 C 0.47323 0.69880 0.90466
 H475 H 0.45861 0.69043 0.90363
 N476 N 0.49494 0.72658 0.89252
 C477 C 0.52804 0.75957 0.84308
 H478 H 0.51885 0.77369 0.84223
 C479 C 0.54477 0.75664 0.82946
 H480 H 0.54829 0.76857 0.81804
 C481 C 0.53408 0.72658 0.85859
 H482 H 0.52972 0.71477 0.86978
 C483 C 0.55092 0.72299 0.84525
 H484 H 0.55960 0.70858 0.84664
 Zn485 Zn 0.49998 0.74980 0.87499
 N486 N 0.52318 0.74474 0.85744
 C487 C 0.52322 0.78393 0.89132
 N488 N 0.50505 0.77303 0.89250
 C489 C 0.49024 0.77792 0.90687
 C490 C 0.49317 0.79467 0.92047
 C491 C 0.52681 0.80079 0.90464
 C492 C 0.47185 0.74003 0.84314
 C493 C 0.45509 0.74294 0.82954
 C494 C 0.44891 0.77655 0.84541
 C495 C 0.46580 0.77300 0.85870
 N496 N 0.47672 0.75485 0.85750
 H497 H 0.53502 0.77955 0.88013
 H498 H 0.47611 0.76874 0.90774
 H499 H 0.48125 0.79821 0.93189
 H500 H 0.54122 0.80947 0.90323
 H501 H 0.48098 0.72586 0.84233
 H502 H 0.45124 0.73078 0.81847
 H503 H 0.44053 0.79117 0.84647
 H504 H 0.47025 0.78485 0.86980
 C505 C 0.55650 0.73817 0.83047
 C506 C 0.48841 0.69323 0.91945
 C507 C 0.44333 0.76139 0.83061
 C508 C 0.51165 0.80639 0.91943
 C509 C 0.15754 0.21873 0.24979
 C510 C 0.17708 0.21317 0.25780
 C511 C 0.19389 0.20989 0.24432
 C512 C 0.19136 0.21214 0.22265
 C513 C 0.17168 0.21774 0.21474
 C514 C 0.15488 0.22102 0.22824
 C515 C 0.14023 0.22209 0.26368
 C516 C 0.12573 0.22490 0.27531
 C517 C 0.10841 0.22826 0.28918
 C518 C 0.10980 0.22220 0.31009
 C519 C 0.09297 0.22544 0.32358
 C520 C 0.07451 0.23483 0.31630
 C521 C 0.07328 0.24088 0.29524
 C522 C 0.09012 0.23760 0.28178
 H523 H 0.17931 0.21139 0.27446
 H524 H 0.20894 0.20574 0.25076
 H525 H 0.16933 0.21940 0.19810
 H526 H 0.13982 0.22529 0.22188
 H527 H 0.12391 0.21501 0.31599
 H528 H 0.09451 0.22086 0.33976
 H529 H 0.05919 0.24788 0.28910
 H530 H 0.08886 0.24230 0.26560
 C531 C 0.65737 0.71864 0.74958
 C532 C 0.67690 0.71308 0.75760
 C533 C 0.69372 0.70981 0.74413
 C534 C 0.69120 0.71204 0.72246
 C535 C 0.67152 0.71763 0.71454
 C536 C 0.65472 0.72091 0.72803
 C537 C 0.64005 0.72199 0.76346
 C538 C 0.62554 0.72480 0.77508
 C539 C 0.60822 0.72816 0.78896
 C540 C 0.59466 0.71173 0.79370
 C541 C 0.57784 0.71496 0.80719
 C542 C 0.57436 0.73471 0.81613
 C543 C 0.58808 0.75112 0.81125
 C544 C 0.60490 0.74785 0.79776
 H545 H 0.67913 0.71131 0.77426
 H546 H 0.70877 0.70567 0.75058
 H547 H 0.66918 0.71929 0.69790
 H548 H 0.63966 0.72517 0.72166
 H549 H 0.59706 0.69643 0.78692
 H550 H 0.56740 0.70208 0.81042
 H551 H 0.58598 0.76642 0.81807
 H552 H 0.61534 0.76066 0.79424
 C553 C 0.34234 0.78106 0.74990
 C554 C 0.32283 0.78666 0.75793
 C555 C 0.30600 0.78998 0.74447
 C556 C 0.30851 0.78774 0.72279
 C557 C 0.32816 0.78211 0.71486
 C558 C 0.34497 0.77879 0.72835
 C559 C 0.35966 0.77766 0.76376
 C560 C 0.37418 0.77482 0.77537
 C561 C 0.39151 0.77144 0.78922
 C562 C 0.39015 0.77751 0.81015
 C563 C 0.40699 0.77425 0.82361
 C564 C 0.42543 0.76485 0.81631
 C565 C 0.42663 0.75880 0.79524
 C566 C 0.40978 0.76209 0.78180
 H567 H 0.32061 0.78843 0.77459
 H568 H 0.29097 0.79415 0.75093
 H569 H 0.33049 0.78045 0.69822
 H570 H 0.36002 0.77450 0.72196
 H571 H 0.37605 0.78471 0.81606
 H572 H 0.40548 0.77884 0.83980
 H573 H 0.44071 0.75179 0.78908
 H574 H 0.41102 0.75739 0.76562
 C575 C -0.15748 0.28109 0.24985
 C576 C -0.15484 0.27882 0.22829
 C577 C -0.17165 0.28212 0.21481
 C578 C -0.19131 0.28773 0.22274
 C579 C -0.19382 0.28997 0.24441
 C580 C -0.17700 0.28667 0.25788
 C581 C -0.14016 0.27770 0.26372
 C582 C -0.12565 0.27487 0.27534
 C583 C -0.10832 0.27150 0.28920
 C584 C -0.09003 0.26219 0.28179
 C585 C -0.07319 0.25891 0.29524
 C586 C -0.07442 0.26493 0.31632
 C587 C -0.09288 0.27429 0.32361
 C588 C -0.10971 0.27754 0.31013
 H589 H -0.13979 0.27454 0.22192
 H590 H -0.16931 0.28047 0.19817
 H591 H -0.20886 0.29412 0.25087
 H592 H -0.17922 0.28843 0.27453
 H593 H -0.08877 0.25751 0.26560
 H594 H -0.05910 0.25192 0.28909
 H595 H -0.09442 0.27885 0.33979
 H596 H -0.12383 0.28472 0.31604
 C597 C -0.15762 0.71886 0.25014
 C598 C -0.15498 0.72113 0.27169
 C599 C -0.17178 0.71782 0.28518
 C600 C -0.19144 0.71220 0.27725
 C601 C -0.19396 0.70996 0.25558
 C602 C -0.17714 0.71327 0.24211
 C603 C -0.14031 0.72225 0.23627
 C604 C -0.12580 0.72508 0.22465
 C605 C -0.10847 0.72847 0.21080
 C606 C -0.10984 0.72241 0.18988
 C607 C -0.09300 0.72567 0.17641
 C608 C -0.07455 0.73506 0.18371
 C609 C -0.07334 0.74110 0.20478
 C610 C -0.09019 0.73781 0.21822
 H611 H -0.13993 0.72543 0.27807
 H612 H -0.16944 0.71949 0.30182
 H613 H -0.20900 0.70579 0.24912
 H614 H -0.17936 0.71149 0.22545
 H615 H -0.12394 0.71521 0.18396
 H616 H -0.09452 0.72110 0.16022
 H617 H -0.05927 0.74811 0.21094
 H618 H -0.08895 0.74250 0.23441
 C619 C 0.34261 0.21890 0.75022
 C620 C 0.34526 0.22116 0.77177
 C621 C 0.32845 0.21786 0.78526
 C622 C 0.30878 0.21227 0.77733
 C623 C 0.30626 0.21005 0.75566
 C624 C 0.32308 0.21335 0.74219
 C625 C 0.35993 0.22227 0.73635
 C626 C 0.37444 0.22510 0.72473
 C627 C 0.39177 0.22846 0.71087
 C628 C 0.40532 0.21203 0.70612
 C629 C 0.42215 0.21527 0.69264
 C630 C 0.42565 0.23502 0.68373
 C631 C 0.41193 0.25144 0.68863
 C632 C 0.39510 0.24816 0.70210
 H633 H 0.36031 0.22542 0.77815
 H634 H 0.33079 0.21950 0.80190
 H635 H 0.29122 0.20591 0.74920
 H636 H 0.32085 0.21159 0.72553
 H637 H 0.40292 0.19673 0.71287
 H638 H 0.43259 0.20239 0.68941
 H639 H 0.41404 0.26675 0.68182
 H640 H 0.38466 0.26097 0.70563
 C641 C 0.65760 0.28131 0.75021
 C642 C 0.66956 0.26439 0.75709
 C643 C 0.68637 0.26765 0.77058
 C644 C 0.69142 0.28789 0.77735
 C645 C 0.67933 0.30479 0.77036
 C646 C 0.66252 0.30151 0.75687
 C647 C 0.64028 0.27794 0.73633
 C648 C 0.62578 0.27514 0.72470
 C649 C 0.60845 0.27179 0.71083
 C650 C 0.60511 0.25210 0.70203
 C651 C 0.58828 0.24884 0.68856
 C652 C 0.57455 0.26526 0.68369
 C653 C 0.57806 0.28501 0.69262
 C654 C 0.59490 0.28823 0.70610
 H655 H 0.66590 0.24869 0.75201
 H656 H 0.69556 0.25442 0.77564
 H657 H 0.68283 0.32049 0.77550
 H658 H 0.65334 0.31471 0.75167
 H659 H 0.61555 0.23929 0.70555
 H660 H 0.58616 0.23354 0.68174
 H661 H 0.56763 0.29789 0.68941
 H662 H 0.59731 0.30352 0.71288
 C663 C 0.15738 0.78140 0.25037
 C664 C 0.15474 0.77915 0.27192
 C665 C 0.17155 0.78244 0.28541
 C666 C 0.19122 0.78802 0.27748
 C667 C 0.19374 0.79024 0.25581
 C668 C 0.17691 0.78694 0.24234
 C669 C 0.14007 0.77802 0.23650
 C670 C 0.12556 0.77520 0.22487
 C671 C 0.10824 0.77184 0.21100
 C672 C 0.09467 0.78827 0.20626
 C673 C 0.07785 0.78504 0.19277
 C674 C 0.07436 0.76529 0.18384
 C675 C 0.08808 0.74887 0.18872
 C676 C 0.10491 0.75215 0.20221
 H677 H 0.13968 0.77489 0.27830
 H678 H 0.16921 0.78080 0.30205
 H679 H 0.20878 0.79437 0.24935
 H680 H 0.17914 0.78869 0.22568
 H681 H 0.09707 0.80356 0.21303
 H682 H 0.06741 0.79791 0.18955
 H683 H 0.08598 0.73357 0.18190
 H684 H 0.11535 0.73934 0.20572
 C685 C 0.24978 0.15753 0.21869
 C686 C 0.25780 0.17705 0.21313
 C687 C 0.24433 0.19388 0.20985
 C688 C 0.22266 0.19136 0.21210
 C689 C 0.21474 0.17169 0.21769
 C690 C 0.22823 0.15488 0.22096
 C691 C 0.26366 0.14021 0.22205
 C692 C 0.27528 0.12570 0.22487
 C693 C 0.28913 0.10837 0.22824
 C694 C 0.31005 0.10975 0.22217
 C695 C 0.32353 0.09292 0.22543
 C696 C 0.31624 0.07447 0.23482
 C697 C 0.29517 0.07325 0.24086
 C698 C 0.28172 0.09010 0.23758
 H699 H 0.27446 0.17928 0.21136
 H700 H 0.25078 0.20892 0.20571
 H701 H 0.19810 0.16934 0.21935
 H702 H 0.22186 0.13982 0.22523
 H703 H 0.31596 0.12385 0.21498
 H704 H 0.33971 0.09444 0.22085
 H705 H 0.28902 0.05918 0.24787
 H706 H 0.26554 0.08885 0.24227
 C707 C 0.74965 0.65745 0.71855
 C708 C 0.75766 0.67698 0.71299
 C709 C 0.74418 0.69380 0.70970
 C710 C 0.72251 0.69127 0.71193
 C711 C 0.71460 0.67160 0.71752
 C712 C 0.72809 0.65479 0.72081
 C713 C 0.76353 0.64015 0.72193
 C714 C 0.77515 0.62564 0.72477
 C715 C 0.78902 0.60833 0.72818
 C716 C 0.80994 0.60972 0.72212
 C717 C 0.82343 0.59290 0.72540
 C718 C 0.81615 0.57446 0.73482
 C719 C 0.79508 0.57324 0.74086
 C720 C 0.78162 0.59007 0.73754
 H721 H 0.77432 0.67921 0.71123
 H722 H 0.75063 0.70884 0.70555
 H723 H 0.69796 0.66925 0.71917
 H724 H 0.72173 0.63974 0.72508
 H725 H 0.81584 0.62381 0.71491
 H726 H 0.83961 0.59443 0.72083
 H727 H 0.78894 0.55916 0.74788
 H728 H 0.76544 0.58881 0.74223
 C729 C 0.74988 0.34244 0.78132
 C730 C 0.74325 0.33752 0.80153
 C731 C 0.72976 0.32072 0.80482
 C732 C 0.72275 0.30862 0.78792
 C733 C 0.72950 0.31367 0.76767
 C734 C 0.74298 0.33048 0.76440
 C735 C 0.76374 0.35977 0.77793
 C736 C 0.77534 0.37429 0.77510
 C737 C 0.78918 0.39163 0.77173
 C738 C 0.78176 0.40988 0.76235
 C739 C 0.79519 0.42674 0.75906
 C740 C 0.81625 0.42556 0.76514
 C741 C 0.82355 0.40713 0.77457
 C742 C 0.81009 0.39029 0.77783
 H743 H 0.74847 0.34670 0.81472
 H744 H 0.72464 0.31722 0.82052
 H745 H 0.72443 0.30448 0.75445
 H746 H 0.74804 0.33414 0.74870
 H747 H 0.76558 0.41111 0.75763
 H748 H 0.78903 0.44080 0.75203
 H749 H 0.83973 0.40564 0.77918
 H750 H 0.81601 0.37621 0.78505
 C751 C 0.24968 -0.15739 0.28133
 C752 C 0.25769 -0.17692 0.28690
 C753 C 0.24421 -0.19373 0.29022
 C754 C 0.22254 -0.19120 0.28799
 C755 C 0.21463 -0.17153 0.28239
 C756 C 0.22812 -0.15473 0.27907
 C757 C 0.26356 -0.14009 0.27792
 C758 C 0.27518 -0.12559 0.27508
 C759 C 0.28906 -0.10828 0.27169
 C760 C 0.30998 -0.10968 0.27774
 C761 C 0.32347 -0.09286 0.27447
 C762 C 0.31619 -0.07441 0.26508
 C763 C 0.29512 -0.07317 0.25904
 C764 C 0.28166 -0.09000 0.26234
 H765 H 0.27435 -0.17915 0.28866
 H766 H 0.25067 -0.20877 0.29437
 H767 H 0.19799 -0.16918 0.28074
 H768 H 0.22176 -0.13968 0.27480
 H769 H 0.31588 -0.12378 0.28494
 H770 H 0.33965 -0.09439 0.27904
 H771 H 0.28898 -0.05910 0.25203
 H772 H 0.26547 -0.08874 0.25766
 C773 C 0.25018 -0.15753 0.71892
 C774 C 0.24212 -0.17705 0.71335
 C775 C 0.25556 -0.19389 0.71006
 C776 C 0.27723 -0.19141 0.71229
 C777 C 0.28519 -0.17176 0.71789
 C778 C 0.27173 -0.15493 0.72118
 C779 C 0.23634 -0.14019 0.72228
 C780 C 0.22474 -0.12566 0.72510
 C781 C 0.21090 -0.10832 0.72846
 C782 C 0.18998 -0.10969 0.72242
 C783 C 0.17652 -0.09284 0.72565
 C784 C 0.18383 -0.07438 0.73501
 C785 C 0.20491 -0.07317 0.74104
 C786 C 0.21834 -0.09003 0.73777
 H787 H 0.22546 -0.17924 0.71159
 H788 H 0.24907 -0.20892 0.70592
 H789 H 0.30184 -0.16945 0.71954
 H790 H 0.27814 -0.13989 0.72545
 H791 H 0.18405 -0.12380 0.71525
 H792 H 0.16033 -0.09436 0.72109
 H793 H 0.21107 -0.05908 0.74802
 H794 H 0.23453 -0.08878 0.74245
 C795 C 0.75027 0.34237 0.21887
 C796 C 0.77183 0.34501 0.22113
 C797 C 0.78531 0.32820 0.21783
 C798 C 0.77738 0.30854 0.21224
 C799 C 0.75571 0.30602 0.21001
 C800 C 0.74225 0.32284 0.21330
 C801 C 0.73640 0.35969 0.22224
 C802 C 0.72479 0.37420 0.22507
 C803 C 0.71093 0.39152 0.22844
 C804 C 0.71833 0.40981 0.23777
 C805 C 0.70488 0.42665 0.24105
 C806 C 0.68381 0.42542 0.23501
 C807 C 0.67653 0.40696 0.22563
 C808 C 0.69001 0.39013 0.22238
 H809 H 0.77821 0.36007 0.22540
 H810 H 0.80195 0.33054 0.21948
 H811 H 0.74925 0.29098 0.20586
 H812 H 0.72559 0.32062 0.21154
 H813 H 0.73452 0.41107 0.24247
 H814 H 0.71103 0.44074 0.24805
 H815 H 0.66034 0.40543 0.22106
 H816 H 0.68410 0.37603 0.21520
 C817 C 0.75020 0.65751 0.28115
 C818 C 0.74215 0.67703 0.28672
 C819 C 0.75560 0.69387 0.29001
 C820 C 0.77727 0.69137 0.28777
 C821 C 0.78522 0.67171 0.28217
 C822 C 0.77175 0.65489 0.27888
 C823 C 0.73635 0.64018 0.27778
 C824 C 0.72474 0.62565 0.27497
 C825 C 0.71090 0.60831 0.27162
 C826 C 0.68998 0.60969 0.27768
 C827 C 0.67651 0.59285 0.27445
 C828 C 0.68381 0.57438 0.26508
 C829 C 0.70488 0.57317 0.25904
 C830 C 0.71832 0.59002 0.26230
 H831 H 0.72549 0.67923 0.28848
 H832 H 0.74912 0.70890 0.29415
 H833 H 0.80186 0.66939 0.28052
 H834 H 0.77815 0.63984 0.27461
 H835 H 0.68406 0.62380 0.28485
 H836 H 0.66032 0.59437 0.27902
 H837 H 0.71103 0.55908 0.25205
 H838 H 0.73450 0.58877 0.25761
 C839 C 0.25036 0.15764 0.78118
 C840 C 0.24234 0.17716 0.78675
 C841 C 0.25580 0.19398 0.79006
 C842 C 0.27747 0.19147 0.78783
 C843 C 0.28540 0.17180 0.78222
 C844 C 0.27192 0.15499 0.77892
 C845 C 0.23649 0.14032 0.77779
 C846 C 0.22487 0.12581 0.77497
 C847 C 0.21100 0.10849 0.77161
 C848 C 0.19009 0.10988 0.77768
 C849 C 0.17660 0.09306 0.77444
 C850 C 0.18388 0.07459 0.76505
 C851 C 0.20494 0.07336 0.75900
 C852 C 0.21840 0.09021 0.76227
 H853 H 0.22568 0.17938 0.78851
 H854 H 0.24934 0.20902 0.79421
 H855 H 0.30204 0.16946 0.78057
 H856 H 0.27829 0.13994 0.77464
 H857 H 0.18419 0.12399 0.78487
 H858 H 0.16042 0.09459 0.77902
 H859 H 0.21108 0.05928 0.75199
 H860 H 0.23458 0.08894 0.75757
 C861 C 0.21872 0.24980 0.15751
 C862 C 0.22098 0.22825 0.15485
 C863 C 0.21770 0.21476 0.17165
 C864 C 0.21213 0.22267 0.19133
 C865 C 0.20990 0.24434 0.19387
 C866 C 0.21318 0.25781 0.17705
 C867 C 0.22207 0.26368 0.14020
 C868 C 0.22487 0.27530 0.12569
 C869 C 0.22822 0.28916 0.10836
 C870 C 0.21179 0.29389 0.09480
 C871 C 0.21502 0.30736 0.07796
 C872 C 0.23477 0.31628 0.07446
 C873 C 0.25119 0.31142 0.08820
 C874 C 0.24792 0.29795 0.10503
 H875 H 0.22523 0.22188 0.13978
 H876 H 0.21935 0.19812 0.16930
 H877 H 0.20577 0.25079 0.20892
 H878 H 0.21141 0.27447 0.17929
 H879 H 0.19650 0.28712 0.09720
 H880 H 0.20214 0.31057 0.06752
 H881 H 0.26649 0.31824 0.08608
 H882 H 0.26073 0.29444 0.11547
 C883 C 0.71861 0.74973 0.65736
 C884 C 0.72088 0.72818 0.65469
 C885 C 0.71759 0.71468 0.67148
 C886 C 0.71199 0.72258 0.69116
 C887 C 0.70976 0.74425 0.69370
 C888 C 0.71305 0.75773 0.67690
 C889 C 0.72198 0.76362 0.64006
 C890 C 0.72480 0.77525 0.62556
 C891 C 0.72817 0.78912 0.60824
 C892 C 0.71175 0.79386 0.59467
 C893 C 0.71500 0.80734 0.57784
 C894 C 0.73475 0.81626 0.57437
 C895 C 0.75116 0.81138 0.58811
 C896 C 0.74787 0.79791 0.60493
 H897 H 0.72515 0.72182 0.63962
 H898 H 0.71924 0.69804 0.66912
 H899 H 0.70561 0.75069 0.70875
 H900 H 0.71128 0.77439 0.67914
 H901 H 0.69646 0.78709 0.59705
 H902 H 0.70213 0.81056 0.56739
 H903 H 0.76647 0.81820 0.58601
 H904 H 0.76068 0.79439 0.61538
 C905 C 0.78110 0.74981 0.34240
 C906 C 0.78665 0.75784 0.32287
 C907 C 0.78995 0.74437 0.30604
 C908 C 0.78775 0.72270 0.30856
 C909 C 0.78217 0.71477 0.32823
 C910 C 0.77887 0.72826 0.34504
 C911 C 0.77772 0.76368 0.35971
 C912 C 0.77489 0.77530 0.37423
 C913 C 0.77152 0.78916 0.39156
 C914 C 0.77759 0.81007 0.39018
 C915 C 0.77435 0.82355 0.40701
 C916 C 0.76496 0.81627 0.42546
 C917 C 0.75890 0.79521 0.42668
 C918 C 0.76218 0.78176 0.40984
 H919 H 0.78839 0.77449 0.32064
 H920 H 0.79409 0.75083 0.29100
 H921 H 0.78054 0.69813 0.33058
 H922 H 0.77461 0.72188 0.36010
 H923 H 0.78479 0.81598 0.37607
 H924 H 0.77893 0.83973 0.40549
 H925 H 0.75190 0.78906 0.44076
 H926 H 0.75748 0.76558 0.41109
 C927 C 0.28131 0.24987 -0.15752
 C928 C 0.27906 0.22832 -0.15488
 C929 C 0.28237 0.21484 -0.17169
 C930 C 0.28798 0.22277 -0.19136
 C931 C 0.29020 0.24444 -0.19387
 C932 C 0.28689 0.25790 -0.17704
 C933 C 0.27790 0.26374 -0.14021
 C934 C 0.27506 0.27535 -0.12569
 C935 C 0.27167 0.28921 -0.10836
 C936 C 0.26231 0.28180 -0.09009
 C937 C 0.25901 0.29524 -0.07325
 C938 C 0.26505 0.31631 -0.07446
 C939 C 0.27445 0.32360 -0.09290
 C940 C 0.27772 0.31013 -0.10973
 H941 H 0.27477 0.22194 -0.13983
 H942 H 0.28072 0.19820 -0.16936
 H943 H 0.29436 0.25090 -0.20890
 H944 H 0.28865 0.27456 -0.17926
 H945 H 0.25762 0.26561 -0.08885
 H946 H 0.25199 0.28909 -0.05917
 H947 H 0.27903 0.33979 -0.09442
 H948 H 0.28493 0.31604 -0.12383
 C949 C 0.71874 0.25019 -0.15750
 C950 C 0.69854 0.25685 -0.16242
 C951 C 0.69526 0.27034 -0.17923
 C952 C 0.71217 0.27732 -0.19133
 C953 C 0.73240 0.27054 -0.18628
 C954 C 0.73566 0.25706 -0.16946
 C955 C 0.72210 0.23632 -0.14018
 C956 C 0.72491 0.22470 -0.12567
 C957 C 0.72826 0.21084 -0.10834
 C958 C 0.71182 0.20611 -0.09479
 C959 C 0.71505 0.19264 -0.07795
 C960 C 0.73480 0.18373 -0.07444
 C961 C 0.75123 0.18861 -0.08815
 C962 C 0.74796 0.20207 -0.10499
 H963 H 0.68534 0.25165 -0.15324
 H964 H 0.67956 0.27547 -0.18273
 H965 H 0.74564 0.27559 -0.19547
 H966 H 0.75136 0.25197 -0.16581
 H967 H 0.69652 0.21286 -0.09720
 H968 H 0.70217 0.18942 -0.06752
 H969 H 0.76653 0.18179 -0.08603
 H970 H 0.76078 0.20559 -0.11542
 C971 C 0.21865 0.75037 0.34260
 C972 C 0.22093 0.77192 0.34526
 C973 C 0.21763 0.78541 0.32845
 C974 C 0.21203 0.77750 0.30878
 C975 C 0.20979 0.75583 0.30625
 C976 C 0.21308 0.74236 0.32307
 C977 C 0.22202 0.73649 0.35991
 C978 C 0.22484 0.72487 0.37441
 C979 C 0.22820 0.71099 0.39173
 C980 C 0.21177 0.70626 0.40530
 C981 C 0.21501 0.69277 0.42212
 C982 C 0.23475 0.68384 0.42560
 C983 C 0.25117 0.68871 0.41187
 C984 C 0.24789 0.70219 0.39505
 H985 H 0.22521 0.77829 0.36031
 H986 H 0.21929 0.80205 0.33080
 H987 H 0.20563 0.74938 0.29121
 H988 H 0.21131 0.72570 0.32083
 H989 H 0.19648 0.71304 0.40290
 H990 H 0.20213 0.68956 0.43256
 H991 H 0.26647 0.68188 0.41397
 H992 H 0.26070 0.70571 0.38460
 C993 C 0.28102 0.75017 0.65764
 C994 C 0.27879 0.77172 0.65501
 C995 C 0.28210 0.78520 0.67182
 C996 C 0.28768 0.77727 0.69149
 C997 C 0.28988 0.75559 0.69400
 C998 C 0.28657 0.74213 0.67717
 C999 C 0.27763 0.73631 0.64032
 C1000 C 0.27479 0.72470 0.62580
 C1001 C 0.27142 0.71084 0.60847
 C1002 C 0.26207 0.71825 0.59019
 C1003 C 0.25879 0.70481 0.57334
 C1004 C 0.26486 0.68375 0.57454
 C1005 C 0.27427 0.67646 0.59299
 C1006 C 0.27751 0.68993 0.60983
 H1007 H 0.27453 0.77811 0.63995
 H1008 H 0.28048 0.80184 0.66949
 H1009 H 0.29402 0.74912 0.70904
 H1010 H 0.28830 0.72547 0.67939
 H1011 H 0.25736 0.73443 0.58895
 H1012 H 0.25178 0.71096 0.55926
 H1013 H 0.27886 0.66029 0.59450
 H1014 H 0.28471 0.68402 0.62393
 C1015 C 0.78121 0.25012 0.15759
 C1016 C 0.78679 0.24210 0.17711
 C1017 C 0.79010 0.25556 0.19394
 C1018 C 0.78788 0.27723 0.19143
 C1019 C 0.78228 0.28516 0.17176
 C1020 C 0.77896 0.27167 0.15495
 C1021 C 0.77781 0.23625 0.14028
 C1022 C 0.77497 0.22464 0.12576
 C1023 C 0.77158 0.21078 0.10843
 C1024 C 0.77767 0.18987 0.10980
 C1025 C 0.77441 0.17639 0.09296
 C1026 C 0.76499 0.18368 0.07452
 C1027 C 0.75892 0.20474 0.07332
 C1028 C 0.76221 0.21818 0.09017
 H1029 H 0.78854 0.22544 0.17934
 H1030 H 0.79425 0.24910 0.20898
 H1031 H 0.78063 0.30180 0.16943
 H1032 H 0.77469 0.27805 0.13990
 H1033 H 0.78488 0.18396 0.12389
 H1034 H 0.77900 0.16022 0.09447
 H1035 H 0.75189 0.21089 0.05925
 H1036 H 0.75750 0.23436 0.08893
 C1037 C 0.46873 0.40773 0.49983
 C1038 C 0.44852 0.41263 0.49318
 C1039 C 0.44521 0.42944 0.47970
 C1040 C 0.46210 0.44155 0.47270
 C1041 C 0.48235 0.43652 0.47946
 C1042 C 0.48563 0.41971 0.49294
 C1043 C 0.47211 0.39041 0.51369
 C1044 C 0.47494 0.37590 0.52530
 C1045 C 0.47831 0.35857 0.53915
 C1046 C 0.46189 0.34500 0.54388
 C1047 C 0.46514 0.32816 0.55734
 C1048 C 0.48490 0.32466 0.56624
 C1049 C 0.50131 0.33839 0.56136
 C1050 C 0.49802 0.35523 0.54791
 H1051 H 0.43533 0.40345 0.49839
 H1052 H 0.42951 0.43293 0.47457
 H1053 H 0.49557 0.44572 0.47440
 H1054 H 0.50133 0.41606 0.49802
 H1055 H 0.44659 0.34741 0.53713
 H1056 H 0.45227 0.31772 0.56056
 H1057 H 0.51662 0.33627 0.56817
 H1058 H 0.51083 0.36567 0.54439
 C1059 C -0.03122 0.90768 -0.00020
 C1060 C -0.05142 0.91259 -0.00686
 C1061 C -0.05471 0.92940 -0.02034
 C1062 C -0.03781 0.94152 -0.02731
 C1063 C -0.01757 0.93648 -0.02054
 C1064 C -0.01430 0.91966 -0.00706
 C1065 C -0.02784 0.89036 0.01366
 C1066 C -0.02503 0.87585 0.02527
 C1067 C -0.02168 0.85852 0.03913
 C1068 C -0.03811 0.84495 0.04384
 C1069 C -0.03488 0.82811 0.05731
 C1070 C -0.01514 0.82462 0.06625
 C1071 C 0.00128 0.83835 0.06139
 C1072 C -0.00199 0.85519 0.04793
 H1073 H -0.06462 0.90340 -0.00167
 H1074 H -0.07041 0.93289 -0.02548
 H1075 H -0.00435 0.94569 -0.02558
 H1076 H 0.00139 0.91601 -0.00197
 H1077 H -0.05340 0.84735 0.03706
 H1078 H -0.04776 0.81767 0.06051
 H1079 H 0.01658 0.83624 0.06822
 H1080 H 0.01083 0.86563 0.04443
 C1081 C 0.03126 0.59263 -0.00020
 C1082 C 0.05147 0.58772 -0.00684
 C1083 C 0.05477 0.57091 -0.02033
 C1084 C 0.03787 0.55880 -0.02733
 C1085 C 0.01763 0.56384 -0.02058
 C1086 C 0.01435 0.58066 -0.00710
 C1087 C 0.02787 0.60995 0.01366
 C1088 C 0.02505 0.62447 0.02528
 C1089 C 0.02168 0.64180 0.03914
 C1090 C 0.03811 0.65537 0.04387
 C1091 C 0.03486 0.67220 0.05734
 C1092 C 0.01511 0.67570 0.06625
 C1093 C -0.00130 0.66197 0.06137
 C1094 C 0.00198 0.64513 0.04791
 H1095 H 0.06466 0.59690 -0.00163
 H1096 H 0.07047 0.56741 -0.02545
 H1097 H 0.00440 0.55464 -0.02564
 H1098 H -0.00135 0.58431 -0.00203
 H1099 H 0.05341 0.65296 0.03711
 H1100 H 0.04774 0.68265 0.06056
 H1101 H -0.01661 0.66408 0.06819
 H1102 H -0.01083 0.63468 0.04439
 C1103 C 0.53128 0.09266 0.49968
 C1104 C 0.51437 0.08068 0.49280
 C1105 C 0.51764 0.06385 0.47933
 C1106 C 0.53789 0.05881 0.47258
 C1107 C 0.55479 0.07091 0.47957
 C1108 C 0.55149 0.08774 0.49304
 C1109 C 0.52791 0.10998 0.51354
 C1110 C 0.52509 0.12450 0.52515
 C1111 C 0.52173 0.14183 0.53901
 C1112 C 0.50204 0.14517 0.54780
 C1113 C 0.49876 0.16201 0.56126
 C1114 C 0.51518 0.17574 0.56613
 C1115 C 0.53493 0.17224 0.55721
 C1116 C 0.53816 0.15540 0.54374
 H1117 H 0.49867 0.08434 0.49787
 H1118 H 0.50442 0.05465 0.47427
 H1119 H 0.57049 0.06741 0.47445
 H1120 H 0.56469 0.09692 0.49825
 H1121 H 0.48922 0.13473 0.54429
 H1122 H 0.48346 0.16412 0.56809
 H1123 H 0.54781 0.18268 0.56042
 H1124 H 0.55346 0.15299 0.53697
 C1125 C -0.03115 0.09230 0.50025
 C1126 C -0.03671 0.07278 0.49222
 C1127 C -0.04001 0.05596 0.50569
 C1128 C -0.03779 0.05848 0.52736
 C1129 C -0.03219 0.07815 0.53529
 C1130 C -0.02889 0.09495 0.52180
 C1131 C -0.02777 0.10962 0.48638
 C1132 C -0.02495 0.12413 0.47476
 C1133 C -0.02160 0.14145 0.46090
 C1134 C -0.03803 0.15502 0.45618
 C1135 C -0.03479 0.17186 0.44271
 C1136 C -0.01505 0.17535 0.43379
 C1137 C 0.00137 0.16162 0.43865
 C1138 C -0.00191 0.14478 0.45211
 H1139 H -0.03847 0.07055 0.47556
 H1140 H -0.04416 0.04092 0.49923
 H1141 H -0.03054 0.08049 0.55193
 H1142 H -0.02462 0.11000 0.52818
 H1143 H -0.05332 0.15263 0.46296
 H1144 H -0.04767 0.18231 0.43951
 H1145 H 0.01667 0.16373 0.43182
 H1146 H 0.01091 0.13433 0.45561
 C1147 C 0.46879 0.59232 1.00023
 C1148 C 0.44858 0.58742 1.00687
 C1149 C 0.44527 0.57061 1.02036
 C1150 C 0.46216 0.55851 1.02736
 C1151 C 0.48241 0.56354 1.02062
 C1152 C 0.48570 0.58035 1.00713
 C1153 C 0.47218 0.60963 0.98635
 C1154 C 0.47501 0.62413 0.97473
 C1155 C 0.47839 0.64145 0.96087
 C1156 C 0.47228 0.64008 0.93996
 C1157 C 0.47553 0.65691 0.92648
 C1158 C 0.48496 0.67535 0.93376
 C1159 C 0.49105 0.67656 0.95481
 C1160 C 0.48777 0.65971 0.96827
 H1161 H 0.43539 0.59660 1.00165
 H1162 H 0.42956 0.56712 1.02547
 H1163 H 0.49563 0.55434 1.02569
 H1164 H 0.50140 0.58399 1.00207
 H1165 H 0.46505 0.62599 0.93406
 H1166 H 0.47091 0.65539 0.91031
 H1167 H 0.49808 0.69062 0.96096
 H1168 H 0.49250 0.66096 0.98444
 C1169 C 0.53126 0.90736 1.00018
 C1170 C 0.55147 0.91227 1.00683
 C1171 C 0.55476 0.92909 1.02031
 C1172 C 0.53787 0.94121 1.02729
 C1173 C 0.51763 0.93617 1.02053
 C1174 C 0.51435 0.91934 1.00706
 C1175 C 0.52787 0.89004 0.98632
 C1176 C 0.52505 0.87552 0.97471
 C1177 C 0.52169 0.85818 0.96085
 C1178 C 0.53812 0.84462 0.95612
 C1179 C 0.53488 0.82778 0.94265
 C1180 C 0.51512 0.82428 0.93374
 C1181 C 0.49870 0.83801 0.93862
 C1182 C 0.50199 0.85485 0.95208
 H1183 H 0.56466 0.90308 1.00163
 H1184 H 0.57047 0.93259 1.02543
 H1185 H 0.50440 0.94537 1.02559
 H1186 H 0.49865 0.91569 1.00198
 H1187 H 0.55342 0.84703 0.96288
 H1188 H 0.54775 0.81734 0.93943
 H1189 H 0.48340 0.83589 0.93181
 H1190 H 0.48917 0.86529 0.95560
 C1191 C 0.03125 0.40737 0.50034
 C1192 C 0.01435 0.41934 0.50722
 C1193 C 0.01762 0.43618 0.52068
 C1194 C 0.03787 0.44123 0.52743
 C1195 C 0.05476 0.42911 0.52044
 C1196 C 0.05146 0.41229 0.50698
 C1197 C 0.02787 0.39004 0.48648
 C1198 C 0.02505 0.37551 0.47488
 C1199 C 0.02169 0.35818 0.46102
 C1200 C 0.00200 0.35485 0.45223
 C1201 C -0.00128 0.33801 0.43876
 C1202 C 0.01514 0.32428 0.43389
 C1203 C 0.03489 0.32778 0.44282
 C1204 C 0.03812 0.34461 0.45630
 H1205 H -0.00136 0.41569 0.50215
 H1206 H 0.00440 0.44538 0.52573
 H1207 H 0.07047 0.43262 0.52556
 H1208 H 0.06466 0.40310 0.50177
 H1209 H -0.01082 0.36529 0.45574
 H1210 H -0.01658 0.33590 0.43194
 H1211 H 0.04776 0.31733 0.43961
 H1212 H 0.05342 0.34702 0.46306
 C1213 C 0.40750 0.49997 0.46874
 C1214 C 0.41242 0.49333 0.44853
 C1215 C 0.42923 0.47985 0.44524
 C1216 C 0.44133 0.47285 0.46214
 C1217 C 0.43628 0.47961 0.48238
 C1218 C 0.41946 0.49308 0.48566
 C1219 C 0.39017 0.51383 0.47212
 C1220 C 0.37565 0.52543 0.47495
 C1221 C 0.35831 0.53927 0.47833
 C1222 C 0.34005 0.53186 0.48770
 C1223 C 0.32319 0.54529 0.49099
 C1224 C 0.32438 0.56635 0.48492
 C1225 C 0.34281 0.57365 0.47550
 C1226 C 0.35966 0.56019 0.47224
 H1227 H 0.40324 0.49854 0.43533
 H1228 H 0.43274 0.47473 0.42953
 H1229 H 0.44548 0.47454 0.49561
 H1230 H 0.41580 0.49815 0.50136
 H1231 H 0.33883 0.51568 0.49242
 H1232 H 0.30913 0.53913 0.49802
 H1233 H 0.34431 0.58982 0.47091
 H1234 H 0.37374 0.56610 0.46503
 C1235 C 0.90757 -0.00008 -0.03126
 C1236 C 0.91250 -0.00671 -0.05147
 C1237 C 0.92932 -0.02018 -0.05476
 C1238 C 0.94142 -0.02718 -0.03786
 C1239 C 0.93637 -0.02043 -0.01761
 C1240 C 0.91954 -0.00696 -0.01434
 C1241 C 0.89024 0.01377 -0.02788
 C1242 C 0.87571 0.02537 -0.02506
 C1243 C 0.85837 0.03921 -0.02170
 C1244 C 0.84479 0.04392 -0.03813
 C1245 C 0.82794 0.05737 -0.03489
 C1246 C 0.82443 0.06628 -0.01513
 C1247 C 0.83817 0.06143 0.00128
 C1248 C 0.85503 0.04799 -0.00200
 H1249 H 0.90332 -0.00150 -0.06467
 H1250 H 0.93283 -0.02530 -0.07047
 H1251 H 0.94556 -0.02549 -0.00439
 H1252 H 0.91587 -0.00190 0.00136
 H1253 H 0.84720 0.03715 -0.05343
 H1254 H 0.81749 0.06056 -0.04776
 H1255 H 0.83606 0.06824 0.01659
 H1256 H 0.86548 0.04449 0.01081
 C1257 C 0.59246 -0.00034 0.03120
 C1258 C 0.58753 -0.00695 0.05142
 C1259 C 0.57073 -0.02044 0.05472
 C1260 C 0.55863 -0.02747 0.03783
 C1261 C 0.56369 -0.02075 0.01757
 C1262 C 0.58050 -0.00726 0.01429
 C1263 C 0.60977 0.01353 0.02781
 C1264 C 0.62427 0.02515 0.02499
 C1265 C 0.64159 0.03902 0.02162
 C1266 C 0.65987 0.03163 0.01225
 C1267 C 0.67671 0.04509 0.00897
 C1268 C 0.67548 0.06615 0.01506
 C1269 C 0.65704 0.07341 0.02448
 C1270 C 0.64021 0.05993 0.02772
 H1271 H 0.59670 -0.00172 0.06461
 H1272 H 0.56722 -0.02554 0.07043
 H1273 H 0.55450 -0.02583 0.00435
 H1274 H 0.58416 -0.00222 -0.00141
 H1275 H 0.66112 0.01546 0.00752
 H1276 H 0.69078 0.03896 0.00194
 H1277 H 0.65551 0.08959 0.02908
 H1278 H 0.62612 0.06582 0.03494
 C1279 C 0.09244 0.49970 0.53127
 C1280 C 0.08753 0.49309 0.55149
 C1281 C 0.07073 0.47960 0.55481
 C1282 C 0.05863 0.47256 0.53793
 C1283 C 0.06366 0.47928 0.51767
 C1284 C 0.08047 0.49276 0.51437
 C1285 C 0.10974 0.51357 0.52787
 C1286 C 0.12424 0.52520 0.52502
 C1287 C 0.14155 0.53907 0.52164
 C1288 C 0.14017 0.55998 0.52774
 C1289 C 0.15698 0.57348 0.52448
 C1290 C 0.17543 0.56622 0.51505
 C1291 C 0.17665 0.54516 0.50897
 C1292 C 0.15982 0.53170 0.51226
 H1293 H 0.09670 0.49834 0.56468
 H1294 H 0.06723 0.47451 0.57053
 H1295 H 0.05447 0.47418 0.50446
 H1296 H 0.08412 0.49780 0.49866
 H1297 H 0.12607 0.56587 0.53497
 H1298 H 0.15545 0.58965 0.52909
 H1299 H 0.19073 0.53903 0.50194
 H1300 H 0.16108 0.51552 0.50753
 C1301 C 0.09245 0.50034 -0.03128
 C1302 C 0.08754 0.50699 -0.05149
 C1303 C 0.07073 0.52048 -0.05479
 C1304 C 0.05863 0.52749 -0.03789
 C1305 C 0.06367 0.52073 -0.01764
 C1306 C 0.08048 0.50724 -0.01437
 C1307 C 0.10975 0.48646 -0.02791
 C1308 C 0.12425 0.47483 -0.02508
 C1309 C 0.14157 0.46096 -0.02171
 C1310 C 0.15514 0.45622 -0.03813
 C1311 C 0.17197 0.44274 -0.03489
 C1312 C 0.17545 0.43382 -0.01513
 C1313 C 0.16171 0.43870 0.00128
 C1314 C 0.14489 0.45218 -0.00201
 H1315 H 0.09671 0.50177 -0.06469
 H1316 H 0.06724 0.52561 -0.07049
 H1317 H 0.05448 0.52580 -0.00442
 H1318 H 0.08413 0.50217 0.00133
 H1319 H 0.15275 0.46299 -0.05343
 H1320 H 0.18242 0.43952 -0.04776
 H1321 H 0.16381 0.43189 0.01658
 H1322 H 0.13444 0.45570 0.01079
 C1323 C 0.59247 1.00035 0.46867
 C1324 C 0.58755 1.00698 0.44846
 C1325 C 0.57075 1.02047 0.44515
 C1326 C 0.55865 1.02748 0.46204
 C1327 C 0.56369 1.02074 0.48230
 C1328 C 0.58050 1.00726 0.48558
 C1329 C 0.60978 0.98648 0.47206
 C1330 C 0.62428 0.97486 0.47488
 C1331 C 0.64160 0.96098 0.47824
 C1332 C 0.65517 0.95624 0.46182
 C1333 C 0.67199 0.94276 0.46506
 C1334 C 0.67548 0.93384 0.48481
 C1335 C 0.66175 0.93873 0.50123
 C1336 C 0.64492 0.95220 0.49794
 H1337 H 0.59673 1.00176 0.43526
 H1338 H 0.56725 1.02558 0.42944
 H1339 H 0.55449 1.02582 0.49552
 H1340 H 0.58415 1.00220 0.50128
 H1341 H 0.65277 0.96301 0.44652
 H1342 H 0.68244 0.93954 0.45219
 H1343 H 0.66385 0.93191 0.51653
 H1344 H 0.63448 0.95573 0.51075
 C1345 C 0.90753 1.00011 0.53123
 C1346 C 0.92705 0.99207 0.53681
 C1347 C 0.94389 1.00552 0.54011
 C1348 C 0.94139 1.02719 0.53787
 C1349 C 0.92173 1.03513 0.53226
 C1350 C 0.90491 1.02166 0.52896
 C1351 C 0.89021 0.98625 0.52784
 C1352 C 0.87569 0.97465 0.52500
 C1353 C 0.85835 0.96081 0.52163
 C1354 C 0.85970 0.93990 0.52771
 C1355 C 0.84286 0.92643 0.52445
 C1356 C 0.82442 0.93373 0.51504
 C1357 C 0.82322 0.95479 0.50898
 C1358 C 0.84008 0.96823 0.51227
 H1359 H 0.92926 0.97541 0.53857
 H1360 H 0.95892 0.99905 0.54426
 H1361 H 0.91940 1.05177 0.53061
 H1362 H 0.88986 1.02805 0.52468
 H1363 H 0.87379 0.93398 0.53492
 H1364 H 0.84436 0.91026 0.52904
 H1365 H 0.80915 0.96095 0.50196
 H1366 H 0.83885 0.98441 0.50757
 C1367 C 0.40752 0.50013 0.03131
 C1368 C 0.41243 0.50678 0.05152
 C1369 C 0.42926 0.52024 0.05481
 C1370 C 0.44138 0.52721 0.03792
 C1371 C 0.43633 0.52045 0.01767
 C1372 C 0.41950 0.50699 0.01440
 C1373 C 0.39018 0.48629 0.02792
 C1374 C 0.37565 0.47469 0.02510
 C1375 C 0.35830 0.46085 0.02174
 C1376 C 0.34473 0.45615 0.03817
 C1377 C 0.32788 0.44270 0.03493
 C1378 C 0.32437 0.43377 0.01518
 C1379 C 0.33811 0.43862 -0.00124
 C1380 C 0.35496 0.45207 0.00204
 H1381 H 0.40324 0.50159 0.06471
 H1382 H 0.43276 0.52537 0.07052
 H1383 H 0.44554 0.52550 0.00445
 H1384 H 0.41585 0.50192 -0.00130
 H1385 H 0.34714 0.46292 0.05346
 H1386 H 0.31743 0.43950 0.04780
 H1387 H 0.33600 0.43180 -0.01654
 H1388 H 0.36541 0.45557 -0.01077
 C1389 C 0.49977 0.46887 0.40754
 C1390 C 0.49289 0.48579 0.41950
 C1391 C 0.47941 0.48253 0.43632
 C1392 C 0.47265 0.46229 0.44138
 C1393 C 0.47964 0.44538 0.42928
 C1394 C 0.49312 0.44867 0.41246
 C1395 C 0.51364 0.47223 0.39022
 C1396 C 0.52526 0.47503 0.37571
 C1397 C 0.53913 0.47837 0.35839
 C1398 C 0.54793 0.49806 0.35504
 C1399 C 0.56140 0.50132 0.33821
 C1400 C 0.56627 0.48488 0.32449
 C1401 C 0.55734 0.46514 0.32800
 C1402 C 0.54386 0.46193 0.34483
 H1403 H 0.49796 0.50148 0.41585
 H1404 H 0.47435 0.49576 0.44552
 H1405 H 0.47451 0.42968 0.43278
 H1406 H 0.49833 0.43546 0.40329
 H1407 H 0.54441 0.51088 0.36548
 H1408 H 0.56823 0.51661 0.33609
 H1409 H 0.56055 0.45226 0.31757
 H1410 H 0.53708 0.44664 0.34724
 C1411 C -0.00010 -0.03108 0.90758
 C1412 C -0.00674 -0.05129 0.91248
 C1413 C -0.02023 -0.05460 0.92928
 C1414 C -0.02724 -0.03771 0.94139
 C1415 C -0.02049 -0.01746 0.93636
 C1416 C -0.00700 -0.01418 0.91955
 C1417 C 0.01377 -0.02770 0.89027
 C1418 C 0.02539 -0.02487 0.87576
 C1419 C 0.03926 -0.02151 0.85844
 C1420 C 0.04399 -0.03794 0.84487
 C1421 C 0.05746 -0.03471 0.82804
 C1422 C 0.06638 -0.01496 0.82454
 C1423 C 0.06151 0.00146 0.83828
 C1424 C 0.04804 -0.00182 0.85511
 H1425 H -0.00152 -0.06448 0.90330
 H1426 H -0.02535 -0.07031 0.93277
 H1427 H -0.02557 -0.00425 0.94556
 H1428 H -0.00194 0.00152 0.91591
 H1429 H 0.03722 -0.05324 0.84727
 H1430 H 0.06068 -0.04758 0.81759
 H1431 H 0.06833 0.01676 0.83617
 H1432 H 0.04452 0.01099 0.86556
 C1433 C -0.00019 0.03108 0.59252
 C1434 C -0.02174 0.02882 0.59516
 C1435 C -0.03523 0.03211 0.57834
 C1436 C -0.02730 0.03769 0.55867
 C1437 C -0.00562 0.03990 0.55616
 C1438 C 0.00784 0.03662 0.57299
 C1439 C 0.01368 0.02772 0.60985
 C1440 C 0.02530 0.02493 0.62436
 C1441 C 0.03916 0.02160 0.64170
 C1442 C 0.04388 0.03805 0.65525
 C1443 C 0.05736 0.03484 0.67209
 C1444 C 0.06630 0.01511 0.67560
 C1445 C 0.06144 -0.00133 0.66188
 C1446 C 0.04797 0.00192 0.64504
 H1447 H -0.02812 0.02457 0.61022
 H1448 H -0.05187 0.03047 0.58068
 H1449 H 0.00084 0.04404 0.54112
 H1450 H 0.02450 0.03837 0.57077
 H1451 H 0.03710 0.05333 0.65283
 H1452 H 0.06056 0.04773 0.68252
 H1453 H 0.06828 -0.01662 0.66401
 H1454 H 0.04447 -0.01091 0.63461
 C1455 C 0.49982 0.53112 0.09251
 C1456 C 0.49319 0.55133 0.08760
 C1457 C 0.47971 0.55464 0.07079
 C1458 C 0.47270 0.53775 0.05868
 C1459 C 0.47944 0.51750 0.06372
 C1460 C 0.49292 0.51422 0.08054
 C1461 C 0.51369 0.52774 0.10983
 C1462 C 0.52531 0.52491 0.12434
 C1463 C 0.53917 0.52155 0.14167
 C1464 C 0.54390 0.53798 0.15524
 C1465 C 0.55738 0.53474 0.17208
 C1466 C 0.56630 0.51499 0.17557
 C1467 C 0.56142 0.49857 0.16183
 C1468 C 0.54796 0.50185 0.14500
 H1469 H 0.49842 0.56452 0.09678
 H1470 H 0.47460 0.57034 0.06729
 H1471 H 0.47437 0.50428 0.05452
 H1472 H 0.49798 0.49851 0.08419
 H1473 H 0.53713 0.55327 0.15285
 H1474 H 0.56059 0.54761 0.18253
 H1475 H 0.56824 0.48327 0.16394
 H1476 H 0.54444 0.48904 0.13455
 C1477 C 0.50019 -0.03137 0.09241
 C1478 C 0.50707 -0.01447 0.08042
 C1479 C 0.52055 -0.01776 0.06361
 C1480 C 0.52732 -0.03801 0.05859
 C1481 C 0.52033 -0.05489 0.07071
 C1482 C 0.50684 -0.05158 0.08752
 C1483 C 0.48632 -0.02797 0.10973
 C1484 C 0.47470 -0.02514 0.12424
 C1485 C 0.46084 -0.02177 0.14156
 C1486 C 0.45205 -0.00207 0.14488
 C1487 C 0.43859 0.00123 0.16171
 C1488 C 0.43372 -0.01517 0.17546
 C1489 C 0.44265 -0.03493 0.17198
 C1490 C 0.45612 -0.03818 0.15515
 H1491 H 0.50199 0.00123 0.08406
 H1492 H 0.52561 -0.00455 0.05440
 H1493 H 0.52546 -0.07059 0.06723
 H1494 H 0.50164 -0.06476 0.09672
 H1495 H 0.45556 0.01073 0.13442
 H1496 H 0.43177 0.01653 0.16381
 H1497 H 0.43944 -0.04779 0.18244
 H1498 H 0.46289 -0.05347 0.15276
 C1499 C 1.00021 0.46868 0.59255
 C1500 C 1.00686 0.44847 0.58766
 C1501 C 1.02034 0.44515 0.57085
 C1502 C 1.02732 0.46203 0.55872
 C1503 C 1.02056 0.48228 0.56373
 C1504 C 1.00708 0.48558 0.58055
 C1505 C 0.98634 0.47209 0.60986
 C1506 C 0.97473 0.47492 0.62437
 C1507 C 0.96087 0.47830 0.64170
 C1508 C 0.95206 0.49799 0.64500
 C1509 C 0.93859 0.50128 0.66183
 C1510 C 0.93374 0.48489 0.67559
 C1511 C 0.94268 0.46514 0.67213
 C1512 C 0.95616 0.46189 0.65529
 H1513 H 1.00166 0.43529 0.59687
 H1514 H 1.02547 0.42945 0.56738
 H1515 H 1.02561 0.49549 0.55451
 H1516 H 1.00200 0.50128 0.58417
 H1517 H 0.95556 0.51079 0.63453
 H1518 H 0.93176 0.51658 0.66392
 H1519 H 0.93948 0.45228 0.68259
 H1520 H 0.96294 0.44660 0.65292
 C1521 C 1.00018 0.53142 0.90753
 C1522 C 1.00706 0.51451 0.91951
 C1523 C 1.02055 0.51779 0.93632
 C1524 C 1.02732 0.53804 0.94135
 C1525 C 1.02032 0.55493 0.92924
 C1526 C 1.00683 0.55162 0.91244
 C1527 C 0.98630 0.52803 0.89022
 C1528 C 0.97468 0.52520 0.87571
 C1529 C 0.96081 0.52184 0.85839
 C1530 C 0.95202 0.50214 0.85507
 C1531 C 0.93855 0.49885 0.83824
 C1532 C 0.93368 0.51525 0.82449
 C1533 C 0.94260 0.53500 0.82798
 C1534 C 0.95608 0.53825 0.84481
 H1535 H 1.00199 0.49881 0.91586
 H1536 H 1.02562 0.50457 0.94552
 H1537 H 1.02545 0.57063 0.93273
 H1538 H 1.00162 0.56481 0.90325
 H1539 H 0.95553 0.48934 0.86553
 H1540 H 0.93173 0.48354 0.83614
 H1541 H 0.93939 0.54787 0.81752
 H1542 H 0.96285 0.55355 0.84720
 C1543 C 0.50021 0.03138 0.40745
 C1544 C 0.50685 0.05159 0.41234
 C1545 C 0.52034 0.05490 0.42915
 C1546 C 0.52733 0.03802 0.44128
 C1547 C 0.52057 0.01777 0.43625
 C1548 C 0.50709 0.01448 0.41944
 C1549 C 0.48634 0.02798 0.39013
 C1550 C 0.47473 0.02514 0.37561
 C1551 C 0.46087 0.02177 0.35828
 C1552 C 0.45615 0.03818 0.34470
 C1553 C 0.44268 0.03493 0.32786
 C1554 C 0.43375 0.01518 0.32438
 C1555 C 0.43861 -0.00122 0.33814
 C1556 C 0.45208 0.00207 0.35497
 H1557 H 0.50165 0.06477 0.40315
 H1558 H 0.52547 0.07061 0.43264
 H1559 H 0.52563 0.00456 0.44547
 H1560 H 0.50201 -0.00122 0.41580
 H1561 H 0.46292 0.05348 0.34709
 H1562 H 0.43947 0.04779 0.31740
 H1563 H 0.43179 -0.01652 0.33604
 H1564 H 0.45558 -0.01073 0.36543
   
