data_POSCAR
  _audit_creation_date              2014-09-24
  _audit_creation_method            'ToBaCCo'
  _symmetry_space_group_name_H-M    'P1'
  _symmetry_Int_Tables_number       1
  _symmetry_cell_setting            triclinic
  loop_
  _symmetry_equiv_pos_as_xyz
 x,y,z
_cell_length_a 38.0628
_cell_length_b 38.3854
_cell_length_c 37.5861
_cell_angle_alpha 90.061000
_cell_angle_beta 88.889700
_cell_angle_gamma 90.255500
loop_
  _atom_site_label
  _atom_site_type_symbol
  _atom_site_fract_x
  _atom_site_fract_y
  _atom_site_fract_z
C1 C 0.12318 -0.00920 0.21047
 C2 C 0.14329 0.02375 0.21924
 C3 C 0.15212 0.02667 0.25389
 C4 C 0.14108 -0.00499 0.27687
 C5 C 0.14643 -0.03881 0.22230
 C6 C 0.15620 -0.03701 0.25674
 C7 C 0.09178 -0.00991 0.23663
 C8 C 0.10099 -0.00770 0.27157
 H9 H 0.14607 0.04502 0.20043
 H10 H 0.14912 -0.00315 0.30504
 H11 H 0.15482 -0.05943 0.20439
 H12 H 0.06481 -0.01219 0.22826
 C13 C 0.40344 0.00530 0.72908
 C14 C 0.38134 -0.02812 0.72822
 C15 C 0.35426 -0.02842 0.75208
 C16 C 0.35213 0.00444 0.77524
 C17 C 0.37699 0.03526 0.72429
 C18 C 0.35001 0.03453 0.74869
 C19 C 0.41499 0.00854 0.76563
 C20 C 0.38658 0.00878 0.79114
 H21 H 0.38484 -0.04820 0.70818
 H22 H 0.32982 0.00353 0.79474
 H23 H 0.38027 0.05576 0.70472
 H24 H 0.44198 0.01385 0.77251
 C25 C 0.90064 0.50366 0.22550
 C26 C 0.88137 0.46863 0.22721
 C27 C 0.85546 0.46719 0.25231
 C28 C 0.85110 0.50088 0.27375
 C29 C 0.87189 0.53127 0.22081
 C30 C 0.84607 0.52976 0.24636
 C31 C 0.91376 0.50985 0.26352
 C32 C 0.88748 0.50883 0.28877
 H33 H 0.88691 0.44734 0.20902
 H34 H 0.82981 0.49936 0.29433
 H35 H 0.87358 0.55184 0.20115
 H36 H 0.94057 0.51704 0.26938
 C37 C 0.60613 0.49920 0.72424
 C38 C 0.62474 0.53450 0.72195
 C39 C 0.64960 0.53929 0.74681
 C40 C 0.65499 0.50744 0.77070
 C41 C 0.63532 0.47200 0.72116
 C42 C 0.66081 0.47605 0.74585
 C43 C 0.59283 0.49640 0.76319
 C44 C 0.61870 0.50051 0.78744
 H45 H 0.61450 0.55597 0.70661
 H46 H 0.67620 0.51124 0.79024
 H47 H 0.63396 0.44978 0.70347
 H48 H 0.56587 0.49045 0.77068
 C49 C 0.22070 0.09131 0.99505
 C50 C 0.21114 0.11404 1.02734
 C51 C 0.23381 0.14074 1.03255
 C52 C 0.26429 0.14241 1.00541
 C53 C 0.22398 0.11654 0.96346
 C54 C 0.24710 0.14317 0.96874
 C55 C 0.25854 0.07944 1.00164
 C56 C 0.28130 0.10630 1.00728
 H57 H 0.18806 0.10978 1.04413
 H58 H 0.28278 0.16433 1.01014
 H59 H 0.21046 0.11254 0.93871
 H60 H 0.26637 0.05239 1.00234
 C61 C 0.70922 0.38066 1.00807
 C62 C 0.71682 0.36143 0.97571
 C63 C 0.75269 0.35179 0.97113
 C64 C 0.77473 0.36287 1.00093
 C65 C 0.72145 0.35892 1.03678
 C66 C 0.75748 0.34892 1.03328
 C67 C 0.73334 0.41055 1.00751
 C68 C 0.76996 0.40078 1.00412
 H69 H 0.69735 0.35718 0.95547
 H70 H 0.80256 0.35469 0.99784
 H71 H 0.70493 0.35207 1.05951
 H72 H 0.72505 0.43703 1.01282
 C73 C 0.21632 0.89597 0.48756
 C74 C 0.22958 0.87128 0.45886
 C75 C 0.26181 0.85818 0.46416
 C76 C 0.27870 0.87119 0.49848
 C77 C 0.21835 0.87477 0.52235
 C78 C 0.25143 0.86169 0.52784
 C79 C 0.24478 0.92386 0.49106
 C80 C 0.27729 0.91122 0.49722
 H81 H 0.21421 0.86478 0.43576
 H82 H 0.30544 0.86070 0.50271
 H83 H 0.19617 0.87012 0.54018
 H84 H 0.23885 0.95144 0.49213
 C85 C 0.72654 0.59329 0.50465
 C86 C 0.71766 0.61946 0.53412
 C87 C 0.74036 0.64648 0.53588
 C88 C 0.77078 0.64476 0.50881
 C89 C 0.72963 0.61504 0.47028
 C90 C 0.75307 0.64199 0.47255
 C91 C 0.76426 0.58180 0.51201
 C92 C 0.78742 0.60880 0.51429
 H93 H 0.69439 0.61755 0.55112
 H94 H 0.78963 0.66679 0.51109
 H95 H 0.71520 0.60916 0.44647
 H96 H 0.77192 0.55482 0.51476
 C97 C 0.01979 0.21579 0.10031
 C98 C 0.05086 0.22757 0.12234
 C99 C 0.04524 0.25715 0.14124
 C100 C 0.00919 0.27341 0.13550
 C101 C -0.01158 0.21371 0.12707
 C102 C -0.01685 0.24421 0.14547
 C103 C 0.01123 0.24696 0.07684
 C104 C 0.00558 0.27709 0.09503
 H105 H 0.07349 0.21109 0.12647
 H106 H 0.00498 0.29818 0.15027
 H107 H -0.02779 0.19076 0.13106
 H108 H 0.00659 0.24452 0.04858
 C109 C -0.00571 0.72303 0.39969
 C110 C -0.03315 0.71833 0.37389
 C111 C -0.03279 0.74367 0.34637
 C112 C -0.00474 0.76943 0.34979
 C113 C 0.02917 0.72428 0.37835
 C114 C 0.03005 0.74938 0.35278
 C115 C -0.01033 0.76064 0.41369
 C116 C -0.00979 0.78498 0.38725
 H117 H -0.05281 0.69788 0.37596
 H118 H -0.00423 0.78934 0.32835
 H119 H 0.05249 0.71074 0.38674
 H120 H -0.01291 0.76736 0.44160
 C121 C 0.50035 0.22076 0.90229
 C122 C 0.47132 0.21415 0.87549
 C123 C 0.47019 0.23796 0.84913
 C124 C 0.49788 0.26676 0.85184
 C125 C 0.53478 0.22379 0.88011
 C126 C 0.53365 0.24870 0.85421
 C127 C 0.49377 0.25832 0.91580
 C128 C 0.49269 0.28240 0.88910
 H129 H 0.45284 0.19265 0.87755
 H130 H 0.49630 0.28602 0.82990
 H131 H 0.55896 0.21138 0.88779
 H132 H 0.49261 0.26540 0.94368
 C133 C 0.50320 0.72097 0.60637
 C134 C 0.53387 0.73248 0.62909
 C135 C 0.52900 0.76308 0.64620
 C136 C 0.49371 0.78021 0.63891
 C137 C 0.47090 0.72084 0.63205
 C138 C 0.46619 0.75230 0.64907
 C139 C 0.49650 0.75146 0.58150
 C140 C 0.49158 0.78233 0.59827
 H141 H 0.55643 0.71602 0.63369
 H142 H 0.49004 0.80570 0.65247
 H143 H 0.45357 0.69870 0.63598
 H144 H 0.49347 0.74833 0.55304
 C145 C 0.87961 1.01187 0.79029
 C146 C 0.85840 1.04039 0.77842
 C147 C 0.84763 1.03789 0.74241
 C148 C 0.86144 1.00684 0.72412
 C149 C 0.85868 0.97911 0.78231
 C150 C 0.84962 0.97576 0.74775
 C151 C 0.91108 1.01100 0.76421
 C152 C 0.90181 1.00841 0.72925
 H153 H 0.85077 1.06143 0.79605
 H154 H 0.85344 1.00443 0.69596
 H155 H 0.85547 0.95825 0.80154
 H156 H 0.93808 1.01249 0.77267
 C157 C 0.39801 0.50019 0.28228
 C158 C 0.36839 0.52693 0.28583
 C159 C 0.34186 0.52150 0.26250
 C160 C 0.34727 0.48944 0.23849
 C161 C 0.38020 0.46469 0.28657
 C162 C 0.35441 0.45856 0.26309
 C163 C 0.40951 0.50194 0.24276
 C164 C 0.38266 0.49643 0.21991
 H165 H 0.37004 0.54975 0.30267
 H166 H 0.32527 0.48455 0.22012
 H167 H 0.39201 0.44376 0.30152
 H168 H 0.43612 0.50774 0.23391
 C169 C 0.59968 1.00288 0.27424
 C170 C 0.62516 0.97171 0.27702
 C171 C 0.64961 0.97072 0.24983
 C172 C 0.64632 1.00077 0.22314
 C173 C 0.62150 1.03369 0.27195
 C174 C 0.64764 1.03245 0.24453
 C175 C 0.58390 0.99867 0.23728
 C176 C 0.60827 0.99703 0.21036
 H177 H 0.62280 0.95167 0.29718
 H178 H 0.66588 1.00015 0.20081
 H179 H 0.62032 1.05424 0.29172
 H180 H 0.55677 0.99099 0.23357
 C181 C 0.09642 0.49977 0.77028
 C182 C 0.12433 0.47121 0.77483
 C183 C 0.15140 0.47345 0.75064
 C184 C 0.14828 0.50385 0.72469
 C185 C 0.11653 0.53435 0.77150
 C186 C 0.14372 0.53635 0.74789
 C187 C 0.08509 0.49591 0.73139
 C188 C 0.11253 0.49757 0.70754
 H189 H 0.12139 0.44984 0.79345
 H190 H 0.17052 0.50604 0.70524
 H191 H 0.11112 0.55449 0.79105
 H192 H 0.05855 0.48939 0.72390
 C193 C 0.77476 0.90805 0.00723
 C194 C 0.77007 0.88246 0.03814
 C195 C 0.74730 0.85591 0.03152
 C196 C 0.73192 0.85699 -0.00602
 C197 C 0.78595 0.88585 -0.02485
 C198 C 0.76370 0.85922 -0.03166
 C199 C 0.73732 0.92001 -0.00101
 C200 C 0.71493 0.89316 -0.00813
 H201 H 0.78219 0.88647 0.06364
 H202 H 0.71381 0.83504 -0.01187
 H203 H 0.80974 0.89050 -0.04047
 H204 H 0.72942 0.94706 -0.00135
 C205 C 0.27960 0.40694 0.49397
 C206 C 0.27425 0.38725 0.52945
 C207 C 0.25017 0.36077 0.52759
 C208 C 0.23432 0.35625 0.49054
 C209 C 0.28924 0.37893 0.46660
 C210 C 0.26602 0.35231 0.46521
 C211 C 0.24259 0.41873 0.48398
 C212 C 0.21892 0.39219 0.48204
 H213 H 0.28733 0.39442 0.55371
 H214 H 0.21506 0.33455 0.48852
 H215 H 0.31304 0.37969 0.45029
 H216 H 0.23569 0.44564 0.47931
 C217 C 0.28218 0.61048 -0.01070
 C218 C 0.27026 0.63736 -0.03767
 C219 C 0.23639 0.64768 -0.03359
 C220 C 0.21701 0.63017 -0.00191
 C221 C 0.27444 0.62690 0.02538
 C222 C 0.24073 0.63729 0.03038
 C223 C 0.25536 0.58056 -0.01417
 C224 C 0.22094 0.59080 -0.01000
 H225 H 0.28718 0.64650 -0.05922
 H226 H 0.18945 0.63897 0.00185
 H227 H 0.29410 0.62910 0.04574
 H228 H 0.26284 0.55443 -0.02198
 C229 C 0.78596 0.10295 0.50835
 C230 C 0.78343 0.12217 0.47473
 C231 C 0.74886 0.13772 0.47052
 C232 C 0.72450 0.13055 0.50074
 C233 C 0.77666 0.12793 0.53554
 C234 C 0.74312 0.14311 0.53211
 C235 C 0.75750 0.07777 0.50743
 C236 C 0.72370 0.09239 0.50273
 H237 H 0.80457 0.12419 0.45516
 H238 H 0.69798 0.14217 0.49826
 H239 H 0.79437 0.13467 0.55673
 H240 H 0.76207 0.04988 0.50596
 C241 C 0.98676 0.77838 0.90571
 C242 C 1.01828 0.78286 0.87944
 C243 C 1.02047 0.75677 0.85471
 C244 C 0.99195 0.72901 0.85874
 C245 C 0.95463 0.77459 0.88224
 C246 C 0.95765 0.74921 0.85738
 C247 C 0.99201 0.74194 0.92203
 C248 C 0.99536 0.71622 0.89719
 H249 H 1.03682 0.80428 0.88043
 H250 H 0.99359 0.70782 0.83862
 H251 H 0.93312 0.79302 0.88270
 H252 H 0.99676 0.73767 0.95000
 C253 C 0.49876 0.28289 0.39355
 C254 C 0.53047 0.28318 0.36701
 C255 C 0.53522 0.25163 0.35008
 C256 C 0.50818 0.22351 0.36117
 C257 C 0.46763 0.27081 0.37174
 C258 C 0.47230 0.24009 0.35480
 C259 C 0.50655 0.25268 0.41841
 C260 C 0.51156 0.22177 0.40176
 H261 H 0.54765 0.30539 0.36279
 H262 H 0.51187 0.19796 0.34772
 H263 H 0.44462 0.28684 0.36793
 H264 H 0.51035 0.25609 0.44673
 C265 C 1.00357 0.27919 0.59249
 C266 C 0.96890 0.27615 0.61395
 C267 C 0.96995 0.25213 0.64058
 C268 C 1.00599 0.23466 0.64425
 C269 C 1.03183 0.28732 0.61972
 C270 C 1.03291 0.26437 0.64691
 C271 C 1.01133 0.24173 0.58011
 C272 C 1.01258 0.21845 0.60736
 H273 H 0.94480 0.28837 0.60574
 H274 H 1.00738 0.21576 0.66654
 H275 H 1.04964 0.30936 0.61752
 H276 H 1.01435 0.23417 0.55246
 C277 C 0.49658 0.77466 0.09737
 C278 C 0.46263 0.76980 0.11989
 C279 C 0.46564 0.74558 0.14627
 C280 C 0.50256 0.72996 0.14868
 C281 C 0.52523 0.78382 0.12384
 C282 C 0.52814 0.76074 0.15068
 C283 C 0.50559 0.73746 0.08453
 C284 C 0.50844 0.71404 0.11162
 H285 H 0.43766 0.78065 0.11232
 H286 H 0.50557 0.71124 0.17092
 H287 H 0.54200 0.80662 0.12138
 H288 H 0.50653 0.72986 0.05679
 O289 O -0.04068 0.90308 0.99541
 O290 O -0.02255 0.90235 1.05292
 O291 O -0.10445 1.00187 1.00571
 O292 O -0.09287 1.05781 1.01324
 O293 O -0.04358 0.98041 0.90878
 O294 O 0.01627 0.98387 0.89391
 O295 O 0.01755 1.07497 1.06851
 O296 O -0.03588 1.05806 1.08731
 O297 O 0.07755 0.97897 1.06324
 O298 O 0.06581 0.92109 1.03555
 O299 O 0.08565 1.04788 0.98174
 O300 O 0.05390 1.06299 0.93193
 O301 O 0.04028 1.08905 1.01393
 O302 O 0.01267 1.09005 0.95195
 O303 O 0.10082 0.99458 1.00224
 O304 O 0.08482 0.93421 0.98770
 O305 O 0.04201 1.01591 1.09435
 O306 O -0.01982 1.00246 1.10934
 O307 O -0.01953 0.91700 0.94027
 O308 O 0.03375 0.93945 0.91588
 O309 O -0.07980 1.01646 0.94011
 O310 O -0.06595 1.07329 0.96758
 O311 O -0.09029 0.94771 1.02471
 O312 O -0.05412 0.93774 1.07750
 Zr313 Zr -0.03479 0.94865 1.02554
 O314 O 0.00904 0.97100 1.05027
 Zr315 Zr -0.05635 1.02336 0.98917
 O316 O -0.01464 1.04924 1.01340
 Zr317 Zr -0.00321 0.96969 0.94494
 O318 O 0.04132 0.99417 0.96646
 Zr319 Zr -0.00078 1.02383 1.06051
 O320 O -0.04622 1.00070 1.03876
 Zr321 Zr 0.05263 0.97066 1.01514
 O322 O 0.01022 0.94419 0.99223
 Zr323 Zr 0.03034 1.04612 0.98036
 O324 O -0.01269 1.02304 0.95396
 O325 O -0.04818 0.97089 0.97723
 O326 O 0.04434 1.02298 1.02797
 C327 C -0.03120 0.89493 0.96353
 C328 C -0.11272 0.97151 1.01725
 C329 C -0.07067 1.00020 0.91174
 C330 C 0.03207 1.09646 1.04645
 C331 C 0.06957 0.99687 1.09090
 C332 C 0.10852 1.02505 0.99051
 H333 H 0.01369 0.95826 1.07253
 H334 H 0.06129 0.99262 0.94932
 H335 H -0.06809 0.95867 0.96599
 H336 H -0.02233 1.07345 1.01781
 H337 H -0.05939 1.04693 1.08690
 H338 H -0.08205 1.06633 1.03531
 H339 H 0.09142 0.94427 0.96427
 H340 H 0.04419 0.92311 0.93301
 H341 H -0.01134 1.01731 1.12905
 H342 H -0.06680 0.95876 1.08589
 H343 H 0.05792 1.04201 0.91716
 H344 H 0.01350 1.00944 0.89204
 H345 H 0.00153 0.89594 1.04507
 H346 H 0.05618 0.91935 1.06012
 H347 H -0.05351 1.07444 0.94423
 H348 H -0.00214 1.10404 0.96846
 O349 O 0.56104 0.48812 0.58707
 O350 O 0.55966 0.43302 0.56328
 O351 O 0.59123 0.55325 0.49746
 O352 O 0.57026 0.57070 0.44681
 O353 O 0.49944 0.58128 0.56764
 O354 O 0.44198 0.55992 0.57202
 O355 O 0.49430 0.47909 0.40040
 O356 O 0.55235 0.48904 0.40431
 O357 O 0.46830 0.40744 0.48185
 O358 O 0.47638 0.40448 0.54562
 O359 O 0.40477 0.49727 0.47271
 O360 O 0.41129 0.55693 0.48301
 O361 O 0.44691 0.51174 0.41686
 O362 O 0.44557 0.57144 0.44573
 O363 O 0.41513 0.44727 0.50278
 O364 O 0.43895 0.43595 0.56222
 O365 O 0.50471 0.42141 0.43540
 O366 O 0.56594 0.44030 0.44118
 O367 O 0.51305 0.51990 0.60348
 O368 O 0.45068 0.51432 0.59811
 O369 O 0.53635 0.59510 0.52163
 O370 O 0.52321 0.59506 0.45695
 O371 O 0.60182 0.50411 0.52899
 O372 O 0.59151 0.44346 0.51312
 Zr373 Zr 0.55280 0.47873 0.53266
 O374 O 0.52091 0.44922 0.49876
 Zr375 Zr 0.53708 0.55146 0.48808
 O376 O 0.50571 0.52460 0.45180
 Zr377 Zr 0.48567 0.52928 0.55642
 O378 O 0.45129 0.50229 0.52296
 Zr379 Zr 0.52088 0.47225 0.44817
 O380 O 0.55538 0.50025 0.48107
 Zr381 Zr 0.46837 0.45071 0.51626
 O382 O 0.50081 0.47682 0.55283
 Zr383 Zr 0.45365 0.52305 0.47126
 O384 O 0.48452 0.55327 0.50618
 O385 O 0.53793 0.53062 0.53903
 O386 O 0.46802 0.47098 0.46480
 C387 C 0.54124 0.50315 0.61052
 C388 C 0.61193 0.53199 0.51291
 C389 C 0.51908 0.60277 0.55021
 C390 C 0.46605 0.49578 0.39349
 C391 C 0.48462 0.40012 0.45252
 C392 C 0.39464 0.46853 0.48708
 H393 H 0.53003 0.42516 0.49757
 H394 H 0.42744 0.50368 0.53375
 H395 H 0.55371 0.54366 0.55499
 H396 H 0.50789 0.53631 0.42845
 H397 H 0.57485 0.49736 0.41410
 H398 H 0.56818 0.55425 0.42671
 H399 H 0.42156 0.45449 0.56720
 H400 H 0.45593 0.48971 0.60372
 H401 H 0.56480 0.42887 0.41754
 H402 H 0.61187 0.44372 0.52924
 H403 H 0.40380 0.55245 0.50794
 H404 H 0.43717 0.57561 0.55182
 H405 H 0.53696 0.42814 0.57562
 H406 H 0.49982 0.39533 0.53886
 H407 H 0.50155 0.60497 0.46780
 H408 H 0.46266 0.57334 0.42565
 O409 O 0.41377 -0.05225 0.49947
 O410 O 0.43374 -0.05500 0.44104
 O411 O 0.50182 -0.08110 0.56134
 O412 O 0.55820 -0.06508 0.56478
 O413 O 0.44550 0.01168 0.59065
 O414 O 0.44070 0.06809 0.56669
 O415 O 0.59860 0.01059 0.46734
 O416 O 0.59442 -0.04723 0.48011
 O417 O 0.51064 0.03141 0.40199
 O418 O 0.44678 0.02602 0.41021
 O419 O 0.53677 0.09790 0.48816
 O420 O 0.52551 0.09459 0.55373
 O421 O 0.58780 0.05829 0.50174
 O422 O 0.56632 0.06367 0.56338
 O423 O 0.50178 0.08681 0.44125
 O424 O 0.43969 0.06811 0.44009
 O425 O 0.55820 -0.00191 0.41372
 O426 O 0.55306 -0.06222 0.43555
 O427 O 0.40262 -0.00426 0.53337
 O428 O 0.40936 0.05727 0.52443
 O429 O 0.49222 -0.02287 0.60219
 O430 O 0.55471 -0.01607 0.59266
 O431 O 0.46632 -0.09189 0.51467
 O432 O 0.48286 -0.08740 0.45099
 Zr433 Zr 0.46675 -0.04590 0.48488
 O434 O 0.49841 -0.01651 0.44969
 Zr435 Zr 0.51819 -0.02911 0.55292
 O436 O 0.55250 0.00046 0.52033
 Zr437 Zr 0.45096 0.02303 0.53592
 O438 O 0.48262 0.05536 0.50309
 Zr439 Zr 0.55040 -0.01645 0.46731
 O440 O 0.51938 -0.04924 0.50082
 Zr441 Zr 0.48325 0.03591 0.45085
 O442 O 0.44857 0.00578 0.48299
 Zr443 Zr 0.53519 0.05230 0.51871
 O444 O 0.50281 0.02350 0.55444
 O445 O 0.46609 -0.02874 0.53752
 O446 O 0.53569 0.03579 0.46584
 C447 C 0.39300 -0.03242 0.51746
 C448 C 0.48177 -0.10111 0.54312
 C449 C 0.46515 -0.00529 0.61199
 C450 C 0.60825 0.03888 0.48289
 C451 C 0.53882 0.01536 0.39247
 C452 C 0.52222 0.10666 0.45904
 H453 H 0.49666 -0.02692 0.42571
 H454 H 0.47374 0.07949 0.50427
 H455 H 0.45055 -0.04255 0.55362
 H456 H 0.57658 -0.00142 0.52950
 H457 H 0.58507 -0.06919 0.49043
 H458 H 0.57859 -0.05935 0.54915
 H459 H 0.43828 0.08625 0.45876
 H460 H 0.40270 0.05240 0.49959
 H461 H 0.57502 -0.06134 0.42092
 H462 H 0.46585 -0.10693 0.45366
 H463 H 0.50492 0.10746 0.54505
 H464 H 0.46291 0.07394 0.57864
 H465 H 0.42035 -0.03332 0.43718
 H466 H 0.45268 0.00319 0.39948
 H467 H 0.54887 0.00772 0.60097
 H468 H 0.58398 0.04500 0.56549
 O469 O -0.00037 0.41581 1.06074
 O470 O 0.05714 0.43557 1.05741
 O471 O -0.06028 0.50826 1.08509
 O472 O -0.07164 0.55911 1.06143
 O473 O -0.09247 0.43870 0.99744
 O474 O -0.06951 0.43045 0.93868
 O475 O 0.02672 0.59288 0.97636
 O476 O 0.01305 0.59513 1.03580
 O477 O 0.09205 0.50591 0.96180
 O478 O 0.08503 0.44200 0.97475
 O479 O 0.00079 0.51861 0.89450
 O480 O -0.06179 0.51214 0.90416
 O481 O -0.00741 0.57514 0.93065
 O482 O -0.06987 0.55533 0.93230
 O483 O 0.05035 0.48898 0.90759
 O484 O 0.05735 0.43227 0.93180
 O485 O 0.08046 0.55513 0.99340
 O486 O 0.05806 0.55589 1.05531
 O487 O -0.03587 0.40074 1.01518
 O488 O -0.02668 0.40019 0.95225
 O489 O -0.10447 0.48803 1.02864
 O490 O -0.09655 0.55052 1.01356
 O491 O -0.01250 0.47550 1.09755
 O492 O 0.04918 0.48681 1.08656
 Zr493 Zr 0.01325 0.46798 1.04836
 O494 O 0.04620 0.49720 1.01383
 Zr495 Zr -0.05643 0.51620 1.02953
 O496 O -0.02575 0.54759 0.99474
 Zr497 Zr -0.03897 0.44499 0.98274
 O498 O -0.00807 0.47310 0.94551
 Zr499 Zr 0.02724 0.54835 1.00939
 O500 O -0.00418 0.52018 1.04686
 Zr501 Zr 0.04433 0.47703 0.96212
 O502 O 0.01409 0.44521 0.99738
 Zr503 Zr -0.02520 0.52493 0.94384
 O504 O -0.05904 0.49561 0.97781
 O505 O -0.03945 0.46513 1.03411
 O506 O 0.02766 0.52835 0.95763
 C507 C -0.01918 0.39365 1.04363
 C508 C -0.03987 0.49282 1.10693
 C509 C -0.11388 0.45915 1.01400
 C510 C 0.01187 0.59774 0.94626
 C511 C 0.10160 0.53497 0.97604
 C512 C 0.02992 0.50405 0.88559
 H513 H 0.07021 0.49686 1.02341
 H514 H -0.00986 0.46144 0.92215
 H515 H -0.05434 0.45164 1.05111
 H516 H -0.03523 0.57152 0.99455
 H517 H 0.00362 0.58839 1.05955
 H518 H -0.05396 0.57758 1.05691
 H519 H 0.03592 0.42481 0.91938
 H520 H -0.00216 0.39398 0.95776
 H521 H 0.07166 0.57783 1.05227
 H522 H 0.04802 0.47167 1.10797
 H523 H -0.05621 0.48840 0.89555
 H524 H -0.08495 0.45044 0.93356
 H525 H 0.06003 0.42028 1.03634
 H526 H 0.09710 0.45133 0.99581
 H527 H -0.10592 0.54114 0.99109
 H528 H -0.07016 0.57575 0.94837
 O529 O 0.01383 0.39920 0.49413
 O530 O -0.01375 0.40942 0.44136
 O531 O 0.10175 0.47007 0.49082
 O532 O 0.10895 0.52738 0.48093
 O533 O 0.03835 0.46796 0.58755
 O534 O -0.01846 0.48208 0.60383
 O535 O 0.00105 0.58636 0.43864
 O536 O 0.05091 0.56023 0.41723
 O537 O -0.07961 0.51253 0.43736
 O538 O -0.08881 0.45421 0.46204
 O539 O -0.06194 0.57403 0.52745
 O540 O -0.02047 0.56850 0.57846
 O541 O -0.00964 0.60140 0.49639
 O542 O 0.01982 0.59147 0.55281
 O543 O -0.09483 0.53236 0.50093
 O544 O -0.09974 0.46817 0.51210
 O545 O -0.03370 0.53655 0.40640
 O546 O 0.02304 0.51059 0.39083
 O547 O 0.00175 0.41433 0.55166
 O548 O -0.04737 0.44644 0.57696
 O549 O 0.08493 0.49091 0.55678
 O550 O 0.09149 0.54904 0.53197
 O551 O 0.06910 0.42795 0.46459
 O552 O 0.03018 0.43966 0.41302
 Zr553 Zr 0.01732 0.44699 0.46772
 O554 O -0.01753 0.48413 0.44779
 Zr555 Zr 0.06434 0.50699 0.50824
 O556 O 0.03211 0.54696 0.48911
 Zr557 Zr -0.00313 0.46926 0.55112
 O558 O -0.03819 0.50809 0.53454
 Zr559 Zr 0.00884 0.53195 0.44122
 O560 O 0.04515 0.49366 0.45793
 Zr561 Zr -0.05817 0.49431 0.48483
 O562 O -0.02581 0.45375 0.50309
 Zr563 Zr -0.01044 0.55453 0.52470
 O564 O 0.02378 0.51703 0.54574
 O565 O 0.03889 0.45968 0.51661
 O566 O -0.03311 0.54194 0.47626
 C567 C 0.00712 0.39166 0.52680
 C568 C 0.09852 0.44059 0.47487
 C569 C 0.07047 0.47841 0.58512
 C570 C -0.00511 0.60893 0.46341
 C571 C -0.06592 0.52662 0.40939
 C572 C -0.09133 0.56186 0.51666
 H573 H -0.02639 0.47519 0.42495
 H574 H -0.05702 0.51126 0.55270
 H575 H 0.05447 0.44162 0.52640
 H576 H 0.04628 0.56840 0.48578
 H577 H 0.07110 0.54410 0.41561
 H578 H 0.10082 0.54715 0.46646
 H579 H -0.10176 0.47805 0.53636
 H580 H -0.06079 0.43428 0.55834
 H581 H 0.01931 0.52859 0.37237
 H582 H 0.04141 0.41655 0.40992
 H583 H -0.04238 0.55671 0.58650
 H584 H -0.01168 0.50675 0.60728
 H585 H -0.03646 0.40808 0.45457
 H586 H -0.07827 0.44856 0.43848
 H587 H 0.07891 0.55449 0.55458
 H588 H 0.03985 0.59853 0.53723
 O589 O 0.50766 0.89576 -0.00016
 O590 O 0.48310 0.90589 -0.05435
 O591 O 0.59539 0.96721 0.00175
 O592 O 0.60424 1.02396 -0.00521
 O593 O 0.52731 0.95936 0.09248
 O594 O 0.47088 0.98019 0.10745
 O595 O 0.50063 1.08323 -0.05771
 O596 O 0.54938 1.05577 -0.07676
 O597 O 0.41746 1.00984 -0.06195
 O598 O 0.40679 0.95191 -0.03837
 O599 O 0.43100 1.07166 0.02796
 O600 O 0.46557 1.07018 0.07877
 O601 O 0.48686 1.09877 -0.00073
 O602 O 0.51310 1.08533 0.05992
 O603 O 0.39943 1.02977 0.00020
 O604 O 0.39385 0.96549 0.01157
 O605 O 0.46475 1.03358 -0.09085
 O606 O 0.52245 1.00614 -0.10324
 O607 O 0.49045 0.91075 0.05611
 O608 O 0.44106 0.94473 0.07898
 O609 O 0.57379 0.98890 0.06831
 O610 O 0.58283 1.04683 0.04099
 O611 O 0.56464 0.92546 -0.02732
 O612 O 0.52797 0.93610 -0.08055
 Zr613 Zr 0.51254 0.94372 -0.02652
 O614 O 0.47902 0.98094 -0.04861
 Zr615 Zr 0.55712 1.00384 0.01734
 O616 O 0.52667 1.04369 -0.00483
 Zr617 Zr 0.48731 0.96590 0.05544
 O618 O 0.45404 1.00543 0.03684
 Zr619 Zr 0.50596 1.02856 -0.05403
 O620 O 0.54099 0.99045 -0.03432
 Zr621 Zr 0.43664 0.99153 -0.01376
 O622 O 0.46744 0.95056 0.00616
 Zr623 Zr 0.48236 1.05190 0.02815
 O624 O 0.51440 1.01391 0.05217
 O625 O 0.53127 0.95639 0.02355
 O626 O 0.46230 1.03915 -0.02144
 C627 C 0.49810 0.88805 0.03186
 C628 C 0.59331 0.93825 -0.01531
 C629 C 0.55857 0.97193 0.09375
 C630 C 0.49418 1.10619 -0.03340
 C631 C 0.43228 1.02399 -0.08922
 C632 C 0.40220 1.05939 0.01580
 H633 H 0.47123 0.97201 -0.07187
 H634 H 0.43427 1.00889 0.05389
 H635 H 0.54619 0.93806 0.03385
 H636 H 0.54145 1.06482 -0.00745
 H637 H 0.56952 1.03955 -0.07663
 H638 H 0.59735 1.03932 -0.02494
 H639 H 0.38994 0.97617 0.03527
 H640 H 0.42879 0.93196 0.05995
 H641 H 0.51898 1.02355 -0.12232
 H642 H 0.53956 0.91309 -0.08296
 H643 H 0.45265 1.05090 0.09063
 H644 H 0.48210 1.00296 0.11240
 H645 H 0.45955 0.90496 -0.04275
 H646 H 0.41891 0.94566 -0.06100
 H647 H 0.57064 1.05151 0.06399
 H648 H 0.53146 1.09594 0.04434
 O649 O 0.39973 0.53058 0.00783
 O650 O 0.39381 0.47785 -0.01964
 O651 O 0.46168 0.50704 0.10005
 O652 O 0.51325 0.48419 0.11182
 O653 O 0.49166 0.59549 0.03334
 O654 O 0.51872 0.60118 -0.02255
 O655 O 0.55872 0.41565 0.00930
 O656 O 0.52182 0.40805 0.05727
 O657 O 0.49498 0.43342 -0.07869
 O658 O 0.44881 0.47448 -0.09287
 O659 O 0.58162 0.49864 -0.05967
 O660 O 0.59312 0.54697 -0.02020
 O661 O 0.59403 0.46211 -0.00356
 O662 O 0.60067 0.52058 0.02459
 O663 O 0.53544 0.48639 -0.09495
 O664 O 0.47826 0.51587 -0.10378
 O665 O 0.50612 0.40020 -0.03027
 O666 O 0.46943 0.39831 0.02433
 O667 O 0.43464 0.57657 -0.00785
 O668 O 0.47817 0.58704 -0.05442
 O669 O 0.50323 0.56275 0.08197
 O670 O 0.55052 0.52032 0.09254
 O671 O 0.41483 0.49486 0.06556
 O672 O 0.40964 0.44310 0.02648
 Zr673 Zr 0.43624 0.49035 0.01380
 O674 O 0.46686 0.45695 -0.01840
 Zr675 Zr 0.50409 0.51097 0.06382
 O676 O 0.53705 0.47717 0.03474
 Zr677 Zr 0.48688 0.55820 -0.00753
 O678 O 0.52036 0.52730 -0.03964
 Zr679 Zr 0.50795 0.43677 0.01159
 O680 O 0.47543 0.46783 0.04512
 Zr681 Zr 0.49190 0.48485 -0.05964
 O682 O 0.45761 0.51767 -0.03023
 Zr683 Zr 0.55934 0.50435 -0.00858
 O684 O 0.52883 0.53933 0.02256
 O685 O 0.46335 0.53249 0.03527
 O686 O 0.53245 0.46254 -0.03110
 C687 C 0.40434 0.56223 -0.00226
 C688 C 0.42894 0.50045 0.09579
 C689 C 0.49927 0.59215 0.06633
 C690 C 0.58907 0.42978 0.00388
 C691 C 0.49984 0.40391 -0.06352
 C692 C 0.56821 0.49239 -0.09006
 H693 H 0.45159 0.43814 -0.02745
 H694 H 0.53058 0.54189 -0.05888
 H695 H 0.44818 0.54810 0.04981
 H696 H 0.55501 0.46781 0.05077
 H697 H 0.50398 0.41345 0.07596
 H698 H 0.52248 0.46103 0.10509
 H699 H 0.49527 0.53538 -0.10553
 H700 H 0.46122 0.57345 -0.06854
 H701 H 0.48057 0.37505 0.02239
 H702 H 0.38592 0.44864 0.03630
 H703 H 0.58235 0.56075 -0.03931
 H704 H 0.54169 0.59758 -0.01123
 H705 H 0.39894 0.48899 -0.04292
 H706 H 0.43428 0.45612 -0.08133
 H707 H 0.56311 0.53977 0.08051
 H708 H 0.60182 0.50405 0.04470
 O709 O -0.09151 0.02302 0.53795
 O710 O -0.10061 -0.03281 0.51787
 O711 O -0.00072 0.01106 0.60403
 O712 O 0.05534 -0.00674 0.59586
 O713 O -0.00742 0.09793 0.53278
 O714 O 0.00302 0.10366 0.46957
 O715 O 0.07242 -0.07344 0.48944
 O716 O 0.05205 -0.08401 0.54416
 O717 O -0.02040 -0.06664 0.42530
 O718 O -0.07492 -0.03285 0.43041
 O719 O 0.05843 0.00648 0.41177
 O720 O 0.07644 0.05818 0.44295
 O721 O 0.09229 -0.02482 0.46070
 O722 O 0.10189 0.03632 0.48336
 O723 O 0.00412 -0.01229 0.39676
 O724 O -0.05663 0.01124 0.40939
 O725 O 0.01180 -0.09605 0.46562
 O726 O -0.00622 -0.10058 0.52983
 O727 O -0.07183 0.07133 0.50847
 O728 O -0.04564 0.08715 0.45467
 O729 O 0.02447 0.06884 0.57361
 O730 O 0.07847 0.03423 0.56547
 O731 O -0.05563 -0.00608 0.58901
 O732 O -0.06546 -0.06180 0.55604
 Zr733 Zr -0.05109 -0.01308 0.53319
 O734 O -0.02974 -0.04454 0.49238
 Zr735 Zr 0.02659 0.01739 0.55520
 O736 O 0.05145 -0.01350 0.51614
 Zr737 Zr -0.01933 0.05925 0.49455
 O738 O 0.00398 0.03053 0.45258
 Zr739 Zr 0.02157 -0.05846 0.50563
 O740 O -0.00105 -0.02966 0.54849
 Zr741 Zr -0.02421 -0.01585 0.44511
 O742 O -0.04958 0.01438 0.48456
 Zr743 Zr 0.05389 0.01358 0.46751
 O744 O 0.03238 0.04631 0.50779
 O745 O -0.02382 0.03297 0.54276
 O746 O 0.02631 -0.03213 0.45711
 C747 C -0.09576 0.05352 0.52488
 C748 C -0.03266 0.00268 0.61208
 C749 C 0.01056 0.09664 0.56145
 C750 C 0.09603 -0.05604 0.47213
 C751 C -0.00553 -0.09429 0.43658
 C752 C 0.03591 -0.00367 0.38882
 H753 H -0.04470 -0.06543 0.48934
 H754 H 0.00500 0.04485 0.43075
 H755 H -0.03555 0.04743 0.56126
 H756 H 0.07498 -0.01950 0.52490
 H757 H 0.04081 -0.07913 0.56761
 H758 H 0.06526 -0.02835 0.58559
 H759 H -0.04271 0.03064 0.39892
 H760 H -0.06147 0.07027 0.44307
 H761 H 0.00596 -0.12250 0.52321
 H762 H -0.08490 -0.05815 0.57360
 H763 H 0.05742 0.07076 0.43095
 H764 H 0.02815 0.10411 0.47589
 H765 H -0.10502 -0.02343 0.49387
 H766 H -0.08106 -0.05361 0.44485
 H767 H 0.08348 0.05419 0.54947
 H768 H 0.11205 0.02110 0.50170
 O769 O 0.76110 0.30725 0.16831
 O770 O 0.70288 0.30870 0.18736
 O771 O 0.81954 0.32677 0.26324
 O772 O 0.82860 0.30160 0.31501
 O773 O 0.84755 0.23770 0.19197
 O774 O 0.82047 0.18275 0.18185
 O775 O 0.72480 0.22636 0.34754
 O776 O 0.74313 0.28325 0.35093
 O777 O 0.66097 0.21752 0.26021
 O778 O 0.66902 0.23065 0.19491
 O779 O 0.74674 0.14454 0.27129
 O780 O 0.81246 0.15180 0.26404
 O781 O 0.75979 0.18055 0.33240
 O782 O 0.81683 0.17277 0.31173
 O783 O 0.69883 0.16198 0.24106
 O784 O 0.69437 0.18672 0.18409
 O785 O 0.67382 0.24870 0.30969
 O786 O 0.70043 0.30672 0.31104
 O787 O 0.79520 0.26104 0.15229
 O788 O 0.77897 0.20035 0.15141
 O789 O 0.86003 0.27043 0.24046
 O790 O 0.85244 0.25343 0.30353
 O791 O 0.77281 0.34273 0.23033
 O792 O 0.71049 0.33633 0.23946
 Zr793 Zr 0.74502 0.29644 0.22118
 O794 O 0.70968 0.26527 0.25089
 Zr795 Zr 0.81259 0.27255 0.27031
 O796 O 0.77965 0.24058 0.30209
 Zr797 Zr 0.79327 0.22838 0.19742
 O798 O 0.75976 0.19430 0.22617
 Zr799 Zr 0.72785 0.25920 0.30287
 O800 O 0.76165 0.29354 0.27438
 Zr801 Zr 0.70860 0.21476 0.23014
 O802 O 0.74134 0.24689 0.19765
 Zr803 Zr 0.77592 0.19074 0.27923
 O804 O 0.81216 0.22174 0.24930
 O805 O 0.79659 0.27852 0.21826
 O806 O 0.72409 0.20853 0.28263
 C807 C 0.78010 0.29013 0.14561
 C808 C 0.80019 0.34974 0.24833
 C809 C 0.86901 0.25450 0.21159
 C810 C 0.73995 0.19733 0.35456
 C811 C 0.65209 0.23273 0.28963
 C812 C 0.71778 0.13850 0.25534
 H813 H 0.68638 0.27655 0.25066
 H814 H 0.76029 0.17151 0.21391
 H815 H 0.81259 0.29434 0.20478
 H816 H 0.78892 0.23957 0.32646
 H817 H 0.75450 0.30561 0.34427
 H818 H 0.81184 0.29604 0.33462
 H819 H 0.71549 0.17408 0.17555
 H820 H 0.75590 0.20946 0.14413
 H821 H 0.68655 0.30494 0.33358
 H822 H 0.71359 0.35733 0.22428
 H823 H 0.80395 0.14081 0.24198
 H824 H 0.83514 0.17597 0.20215
 H825 H 0.69895 0.28826 0.17184
 H826 H 0.65825 0.25211 0.20473
 H827 H 0.86098 0.23141 0.29276
 H828 H 0.82521 0.19289 0.32570
 O829 O 0.73164 0.69515 0.66732
 O830 O 0.78608 0.67978 0.68539
 O831 O 0.67262 0.69009 0.76919
 O832 O 0.66611 0.72073 0.81811
 O833 O 0.66107 0.77747 0.69207
 O834 O 0.69505 0.82899 0.68297
 O835 O 0.78142 0.76707 0.84453
 O836 O 0.75567 0.71412 0.84590
 O837 O 0.84782 0.76672 0.75137
 O838 O 0.84261 0.75438 0.69241
 O839 O 0.78136 0.85323 0.76657
 O840 O 0.72200 0.86465 0.76546
 O841 O 0.76104 0.82055 0.82941
 O842 O 0.70165 0.83907 0.80648
 O843 O 0.82002 0.82722 0.72833
 O844 O 0.81421 0.79176 0.67097
 O845 O 0.82880 0.74402 0.80411
 O846 O 0.79618 0.68746 0.80523
 O847 O 0.71414 0.74903 0.65022
 O848 O 0.73159 0.80822 0.65067
 O849 O 0.64219 0.75430 0.74461
 O850 O 0.65520 0.77049 0.80686
 O851 O 0.70904 0.66526 0.72796
 O852 O 0.77196 0.65768 0.73987
 Zr853 Zr 0.74810 0.70327 0.71955
 O854 O 0.79011 0.72716 0.74578
 Zr855 Zr 0.68875 0.74267 0.77147
 O856 O 0.72835 0.76724 0.80060
 Zr857 Zr 0.71580 0.77983 0.69651
 O858 O 0.75583 0.80692 0.72256
 Zr859 Zr 0.77462 0.73790 0.79842
 O860 O 0.73359 0.71093 0.77331
 Zr861 Zr 0.80127 0.77605 0.72358
 O862 O 0.76218 0.75032 0.69431
 Zr863 Zr 0.74247 0.81482 0.77663
 O864 O 0.69995 0.79177 0.74905
 O865 O 0.70175 0.73199 0.71860
 O866 O 0.78889 0.78638 0.77699
 C867 C 0.72202 0.71713 0.64373
 C868 C 0.68376 0.66385 0.75095
 C869 C 0.63673 0.76833 0.71424
 C870 C 0.77372 0.79875 0.85191
 C871 C 0.85311 0.75445 0.78257
 C872 C 0.80805 0.85390 0.74499
 H873 H 0.81090 0.71179 0.74485
 H874 H 0.75938 0.82899 0.70942
 H875 H 0.68301 0.71956 0.70568
 H876 H 0.71953 0.77004 0.82534
 H877 H 0.74066 0.69429 0.83871
 H878 H 0.68567 0.71687 0.83457
 H879 H 0.80510 0.81564 0.66776
 H880 H 0.75390 0.79789 0.64190
 H881 H 0.81103 0.68798 0.82662
 H882 H 0.76385 0.63712 0.72620
 H883 H 0.72183 0.86693 0.73926
 H884 H 0.68203 0.83760 0.70426
 H885 H 0.79672 0.69868 0.67082
 H886 H 0.84185 0.72886 0.69595
 H887 H 0.65078 0.79341 0.79579
 H888 H 0.69666 0.82451 0.82771
 O889 O 0.30658 0.16847 0.73906
 O890 O 0.30876 0.19047 0.68251
 O891 O 0.33650 0.25404 0.80589
 O892 O 0.31834 0.30833 0.81662
 O893 O 0.24395 0.19273 0.83333
 O894 O 0.18603 0.19069 0.81152
 O895 O 0.24340 0.35258 0.72265
 O896 O 0.30148 0.34782 0.73450
 O897 O 0.21880 0.27136 0.65253
 O898 O 0.22674 0.20799 0.65273
 O899 O 0.15272 0.28576 0.74334
 O900 O 0.15952 0.27520 0.80730
 O901 O 0.19545 0.33967 0.75737
 O902 O 0.18939 0.31601 0.81696
 O903 O 0.16493 0.25583 0.69251
 O904 O 0.18655 0.19542 0.68470
 O905 O 0.25491 0.31648 0.66614
 O906 O 0.31601 0.30974 0.68587
 O907 O 0.25817 0.15556 0.77313
 O908 O 0.19627 0.16216 0.76594
 O909 O 0.27988 0.23776 0.84763
 O910 O 0.26944 0.30078 0.84475
 O911 O 0.34831 0.22339 0.75533
 O912 O 0.34073 0.23924 0.69265
 Zr913 Zr 0.30034 0.22184 0.72827
 O914 O 0.27005 0.25493 0.69654
 Zr915 Zr 0.28343 0.26833 0.80120
 O916 O 0.25327 0.30378 0.77210
 Zr917 Zr 0.23109 0.20274 0.78004
 O918 O 0.19813 0.23541 0.75077
 Zr919 Zr 0.27007 0.30512 0.71855
 O920 O 0.30331 0.27290 0.74868
 Zr921 Zr 0.21717 0.23954 0.69810
 O922 O 0.24805 0.20373 0.72650
 Zr923 Zr 0.20080 0.28654 0.77054
 O924 O 0.23035 0.25273 0.80299
 O925 O 0.28352 0.21793 0.78122
 O926 O 0.21709 0.29045 0.71736
 C927 C 0.28650 0.14699 0.75619
 C928 C 0.35754 0.23756 0.78471
 C929 C 0.26271 0.20983 0.85548
 C930 C 0.21494 0.36105 0.73939
 C931 C 0.23514 0.29977 0.64461
 C932 C 0.14379 0.27225 0.71350
 H933 H 0.27994 0.25508 0.67202
 H934 H 0.17403 0.22576 0.75215
 H935 H 0.29826 0.20203 0.79526
 H936 H 0.25529 0.32708 0.78310
 H937 H 0.32363 0.33794 0.74342
 H938 H 0.31298 0.32897 0.80203
 H939 H 0.16815 0.19245 0.70341
 H940 H 0.20179 0.15620 0.74083
 H941 H 0.31524 0.33243 0.67331
 H942 H 0.36090 0.22299 0.69374
 H943 H 0.14848 0.25308 0.79978
 H944 H 0.18200 0.21085 0.82750
 H945 H 0.28596 0.17939 0.67707
 H946 H 0.24971 0.21497 0.64218
 H947 H 0.24618 0.29269 0.85373
 H948 H 0.20977 0.33138 0.82138
 O949 O 0.17481 0.75069 0.32523
 O950 O 0.19377 0.70187 0.34201
 O951 O 0.28734 0.80149 0.32710
 O952 O 0.32786 0.81490 0.28770
 O953 O 0.19978 0.83175 0.25032
 O954 O 0.18478 0.80421 0.19460
 O955 O 0.34253 0.70209 0.22960
 O956 O 0.35090 0.72302 0.28514
 O957 O 0.24892 0.64221 0.23495
 O958 O 0.18659 0.65844 0.26167
 O959 O 0.26095 0.71392 0.15296
 O960 O 0.25862 0.77288 0.14565
 O961 O 0.32544 0.73247 0.18099
 O962 O 0.30080 0.79234 0.17002
 O963 O 0.22215 0.67662 0.17954
 O964 O 0.17331 0.67524 0.21374
 O965 O 0.30229 0.65489 0.25767
 O966 O 0.31212 0.68398 0.31500
 O967 O 0.15903 0.78283 0.27738
 O968 O 0.15195 0.76631 0.21696
 O969 O 0.25101 0.84332 0.27790
 O970 O 0.30780 0.83183 0.24211
 O971 O 0.24274 0.77089 0.35318
 O972 O 0.24936 0.70320 0.35213
 Zr973 Zr 0.22735 0.73567 0.31263
 O974 O 0.24919 0.69518 0.28131
 Zr975 Zr 0.27818 0.79553 0.27280
 O976 O 0.30238 0.75745 0.24070
 Zr977 Zr 0.20054 0.77763 0.24087
 O978 O 0.22108 0.73895 0.20696
 Zr979 Zr 0.30084 0.70880 0.26608
 O980 O 0.28029 0.74771 0.30010
 Zr981 Zr 0.22268 0.69071 0.23334
 O982 O 0.19813 0.72864 0.26601
 Zr983 Zr 0.27395 0.74973 0.19391
 O984 O 0.25163 0.79127 0.22437
 O985 O 0.22663 0.78426 0.28858
 O986 O 0.27486 0.70086 0.21818
 C987 C 0.15252 0.76888 0.30772
 C988 C 0.26925 0.79189 0.35443
 C989 C 0.22089 0.85255 0.26628
 C990 C 0.34832 0.71532 0.19865
 C991 C 0.27936 0.63333 0.24612
 C992 C 0.23849 0.68866 0.15208
 H993 H 0.24845 0.67310 0.29484
 H994 H 0.20634 0.73802 0.18560
 H995 H 0.21556 0.80102 0.30536
 H996 H 0.32675 0.76545 0.23599
 H997 H 0.34665 0.73827 0.30603
 H998 H 0.34416 0.79489 0.28708
 H999 H 0.16322 0.69585 0.20200
 H1000 H 0.14282 0.74475 0.22831
 H1001 H 0.33246 0.66826 0.31108
 H1002 H 0.24641 0.71438 0.37579
 H1003 H 0.23314 0.77744 0.14797
 H1004 H 0.20542 0.81770 0.18582
 H1005 H 0.18676 0.68335 0.32523
 H1006 H 0.20015 0.64281 0.27714
 H1007 H 0.29163 0.84238 0.22486
 H1008 H 0.32201 0.79690 0.18412
 O1009 O 0.23169 0.65895 0.77371
 O1010 O 0.28860 0.66132 0.77272
 O1011 O 0.20655 0.74483 0.84930
 O1012 O 0.22026 0.80154 0.85011
 O1013 O 0.14263 0.73140 0.75943
 O1014 O 0.14889 0.74055 0.69760
 O1015 O 0.30456 0.83932 0.75689
 O1016 O 0.30403 0.81960 0.81365
 O1017 O 0.32845 0.75135 0.69137
 O1018 O 0.30147 0.69455 0.68282
 O1019 O 0.24153 0.81858 0.66642
 O1020 O 0.18448 0.82643 0.68806
 O1021 O 0.25691 0.85514 0.72516
 O1022 O 0.19104 0.84971 0.73431
 O1023 O 0.27624 0.77237 0.65262
 O1024 O 0.26150 0.70887 0.65393
 O1025 O 0.34096 0.78532 0.73899
 O1026 O 0.33419 0.76639 0.80145
 O1027 O 0.18326 0.67377 0.74268
 O1028 O 0.17999 0.69876 0.68443
 O1029 O 0.15500 0.76450 0.80774
 O1030 O 0.18206 0.82198 0.81289
 O1031 O 0.23953 0.69764 0.83460
 O1032 O 0.30423 0.70036 0.81180
 Zr1033 Zr 0.25780 0.70628 0.78197
 O1034 O 0.29277 0.73581 0.75008
 Zr1035 Zr 0.20897 0.77475 0.80246
 O1036 O 0.24283 0.80762 0.77277
 Zr1037 Zr 0.19072 0.72730 0.73115
 O1038 O 0.22266 0.75908 0.69820
 Zr1039 Zr 0.29387 0.78703 0.76947
 O1040 O 0.26110 0.75656 0.80385
 Zr1041 Zr 0.27446 0.74047 0.69806
 O1042 O 0.24185 0.70681 0.72857
 Zr1043 Zr 0.22639 0.80947 0.71980
 O1044 O 0.19034 0.77890 0.75018
 O1045 O 0.20617 0.72383 0.78360
 O1046 O 0.27810 0.79155 0.71675
 C1047 C 0.20334 0.65132 0.75747
 C1048 C 0.22053 0.71541 0.85667
 C1049 C 0.13361 0.74785 0.78796
 C1050 C 0.28590 0.86199 0.74078
 C1051 C 0.34987 0.76899 0.71033
 C1052 C 0.26102 0.80106 0.64471
 H1053 H 0.31621 0.72483 0.75070
 H1054 H 0.21281 0.75949 0.67408
 H1055 H 0.18995 0.70858 0.79748
 H1056 H 0.24284 0.83085 0.78414
 H1057 H 0.29668 0.80638 0.83516
 H1058 H 0.23925 0.81839 0.84443
 H1059 H 0.24090 0.71922 0.64235
 H1060 H 0.20111 0.68459 0.67913
 H1061 H 0.35429 0.78294 0.80092
 H1062 H 0.29947 0.68417 0.83189
 H1063 H 0.17654 0.80617 0.67402
 H1064 H 0.14284 0.76505 0.70310
 H1065 H 0.29240 0.65987 0.74665
 H1066 H 0.31880 0.68946 0.70136
 H1067 H 0.16525 0.82533 0.79344
 H1068 H 0.20041 0.86162 0.75550
 O1069 O 0.23918 0.18016 0.17113
 O1070 O 0.29314 0.16290 0.18871
 O1071 O 0.18004 0.17573 0.27458
 O1072 O 0.17244 0.20657 0.32158
 O1073 O 0.17303 0.26550 0.19655
 O1074 O 0.20938 0.31512 0.18838
 O1075 O 0.28820 0.24758 0.35176
 O1076 O 0.26317 0.19481 0.35115
 O1077 O 0.35789 0.24448 0.25770
 O1078 O 0.35210 0.23566 0.19825
 O1079 O 0.29358 0.33397 0.27709
 O1080 O 0.23457 0.34775 0.27198
 O1081 O 0.27128 0.30192 0.33547
 O1082 O 0.21254 0.32196 0.31265
 O1083 O 0.33271 0.30812 0.23926
 O1084 O 0.32711 0.27663 0.17962
 O1085 O 0.33778 0.22288 0.31054
 O1086 O 0.30179 0.16759 0.31052
 O1087 O 0.22234 0.23480 0.15589
 O1088 O 0.24708 0.29208 0.15676
 O1089 O 0.15193 0.24015 0.24719
 O1090 O 0.16480 0.25726 0.31036
 O1091 O 0.21683 0.14950 0.23465
 O1092 O 0.27995 0.14020 0.24221
 Zr1093 Zr 0.25638 0.18681 0.22394
 O1094 O 0.29869 0.20893 0.25157
 Zr1095 Zr 0.19750 0.22761 0.27572
 O1096 O 0.23742 0.24982 0.30613
 Zr1097 Zr 0.22748 0.26494 0.20196
 O1098 O 0.26779 0.29026 0.22931
 Zr1099 Zr 0.28303 0.21922 0.30441
 O1100 O 0.24147 0.19453 0.27769
 Zr1101 Zr 0.31204 0.25789 0.23064
 O1102 O 0.27272 0.23386 0.19999
 Zr1103 Zr 0.25321 0.29716 0.28306
 O1104 O 0.21062 0.27651 0.25420
 O1105 O 0.21120 0.21715 0.22295
 O1106 O 0.29899 0.26752 0.28400
 C1107 C 0.22873 0.20283 0.14841
 C1108 C 0.19136 0.14891 0.25762
 C1109 C 0.14781 0.25556 0.21721
 C1110 C 0.28158 0.27971 0.35859
 C1111 C 0.36266 0.23156 0.28870
 C1112 C 0.32126 0.33439 0.25715
 H1113 H 0.31889 0.19281 0.25052
 H1114 H 0.27265 0.31260 0.21708
 H1115 H 0.19220 0.20535 0.20983
 H1116 H 0.22805 0.25251 0.33068
 H1117 H 0.24563 0.17739 0.34340
 H1118 H 0.19125 0.20191 0.33873
 H1119 H 0.31770 0.30049 0.17724
 H1120 H 0.26784 0.27909 0.14780
 H1121 H 0.31749 0.16718 0.33126
 H1122 H 0.27051 0.12006 0.22876
 H1123 H 0.23726 0.35137 0.24603
 H1124 H 0.19690 0.32440 0.20970
 H1125 H 0.30430 0.18176 0.17448
 H1126 H 0.34996 0.21007 0.20064
 H1127 H 0.15989 0.27952 0.29817
 H1128 H 0.20724 0.30760 0.33394
 O1129 O 0.80435 0.66445 0.24205
 O1130 O 0.80631 0.68482 0.18567
 O1131 O 0.83399 0.75414 0.30577
 O1132 O 0.81335 0.80645 0.31843
 O1133 O 0.74309 0.68901 0.33613
 O1134 O 0.68477 0.68648 0.31607
 O1135 O 0.73818 0.84709 0.22193
 O1136 O 0.79640 0.84369 0.23297
 O1137 O 0.71425 0.76303 0.15377
 O1138 O 0.72204 0.70065 0.15608
 O1139 O 0.64918 0.78097 0.24538
 O1140 O 0.65396 0.77258 0.30715
 O1141 O 0.69142 0.83505 0.25857
 O1142 O 0.68808 0.80954 0.32037
 O1143 O 0.66084 0.74948 0.19541
 O1144 O 0.68299 0.68819 0.18982
 O1145 O 0.74926 0.80922 0.16658
 O1146 O 0.81100 0.80453 0.18561
 O1147 O 0.75611 0.65136 0.27628
 O1148 O 0.69378 0.65768 0.27027
 O1149 O 0.77861 0.73484 0.34880
 O1150 O 0.76538 0.79833 0.34517
 O1151 O 0.84599 0.72178 0.25637
 O1152 O 0.83650 0.73467 0.19311
 Zr1153 Zr 0.79736 0.71756 0.23030
 O1154 O 0.76594 0.74926 0.19820
 Zr1155 Zr 0.78015 0.76534 0.30231
 O1156 O 0.74947 0.79988 0.27268
 Zr1157 Zr 0.72885 0.69845 0.28316
 O1158 O 0.69501 0.73027 0.25384
 Zr1159 Zr 0.76550 0.79995 0.21894
 O1160 O 0.79950 0.76910 0.24953
 Zr1161 Zr 0.71321 0.73326 0.20079
 O1162 O 0.74524 0.69867 0.22945
 Zr1163 Zr 0.69726 0.78195 0.27229
 O1164 O 0.72739 0.74888 0.30506
 O1165 O 0.78118 0.71449 0.28345
 O1166 O 0.71276 0.78466 0.21881
 C1167 C 0.78436 0.64286 0.25918
 C1168 C 0.85529 0.73805 0.28463
 C1169 C 0.76232 0.70660 0.35741
 C1170 C 0.71019 0.85598 0.23926
 C1171 C 0.73012 0.79151 0.14527
 C1172 C 0.64000 0.76684 0.21595
 H1173 H 0.77551 0.74887 0.17355
 H1174 H 0.67097 0.72055 0.25574
 H1175 H 0.79665 0.69919 0.29737
 H1176 H 0.75147 0.82345 0.28309
 H1177 H 0.81872 0.83448 0.24218
 H1178 H 0.81061 0.82537 0.30093
 H1179 H 0.66375 0.68670 0.20784
 H1180 H 0.69923 0.65099 0.24534
 H1181 H 0.80939 0.82659 0.17203
 H1182 H 0.85741 0.71943 0.19475
 H1183 H 0.64664 0.74807 0.30373
 H1184 H 0.68075 0.70702 0.33154
 H1185 H 0.78348 0.67389 0.18006
 H1186 H 0.74547 0.70652 0.14587
 H1187 H 0.74357 0.78849 0.35595
 H1188 H 0.70587 0.82833 0.32178
 O1189 O 0.84332 0.21499 0.72183
 O1190 O 0.84990 0.23032 0.78048
 O1191 O 0.75151 0.15446 0.71580
 O1192 O 0.69758 0.15873 0.74337
 O1193 O 0.76142 0.23431 0.64363
 O1194 O 0.75958 0.29575 0.64436
 O1195 O 0.67534 0.25679 0.81993
 O1196 O 0.69307 0.20348 0.82645
 O1197 O 0.77653 0.31544 0.82472
 O1198 O 0.82809 0.31734 0.78862
 O1199 O 0.69876 0.34140 0.74537
 O1200 O 0.68011 0.31630 0.69214
 O1201 O 0.65939 0.29110 0.77377
 O1202 O 0.65310 0.27560 0.70855
 O1203 O 0.75077 0.35297 0.77146
 O1204 O 0.81166 0.34278 0.74700
 O1205 O 0.73721 0.27647 0.84777
 O1206 O 0.75142 0.21269 0.84479
 O1207 O 0.82791 0.24945 0.67550
 O1208 O 0.80591 0.30668 0.66656
 O1209 O 0.72040 0.19685 0.66624
 O1210 O 0.67230 0.19132 0.70560
 O1211 O 0.80193 0.16550 0.74512
 O1212 O 0.81158 0.19110 0.80472
 Zr1213 Zr 0.80083 0.21888 0.75735
 O1214 O 0.77940 0.25536 0.79322
 Zr1215 Zr 0.72428 0.20234 0.72147
 O1216 O 0.69918 0.23720 0.75690
 Zr1217 Zr 0.77550 0.26520 0.68790
 O1218 O 0.75161 0.30290 0.72111
 Zr1219 Zr 0.72681 0.24229 0.80464
 O1220 O 0.74932 0.20329 0.77098
 Zr1221 Zr 0.77746 0.30494 0.76990
 O1222 O 0.80334 0.26939 0.73545
 Zr1223 Zr 0.70014 0.28761 0.73524
 O1224 O 0.72238 0.25220 0.69811
 O1225 O 0.77607 0.21522 0.70846
 O1226 O 0.72536 0.29280 0.78381
 C1227 C 0.85013 0.23055 0.69234
 C1228 C 0.78128 0.14503 0.72827
 C1229 C 0.73723 0.21101 0.64021
 C1230 C 0.65299 0.27566 0.80354
 C1231 C 0.75942 0.30172 0.85089
 C1232 C 0.72091 0.36236 0.75939
 H1233 H 0.79373 0.25512 0.81490
 H1234 H 0.75210 0.32559 0.70871
 H1235 H 0.78745 0.19926 0.69107
 H1236 H 0.67500 0.22850 0.76125
 H1237 H 0.70302 0.18069 0.81926
 H1238 H 0.68478 0.16704 0.76486
 H1239 H 0.79923 0.35435 0.72742
 H1240 H 0.82273 0.31341 0.68513
 H1241 H 0.73920 0.21743 0.86782
 H1242 H 0.83041 0.17389 0.79966
 H1243 H 0.70030 0.32768 0.67987
 H1244 H 0.73377 0.29296 0.64301
 H1245 H 0.85744 0.25343 0.77140
 H1246 H 0.83536 0.29811 0.80431
 H1247 H 0.66396 0.21204 0.69269
 H1248 H 0.63961 0.25863 0.72324
 N1249 N 0.12559 0.98285 1.11577
 N1250 N 0.14027 0.97972 1.14711
 C1251 C 0.11577 0.98900 1.17169
 C1252 C 0.08583 0.99903 1.15442
 N1253 N 0.09314 0.99458 1.11963
 H1254 H 0.06115 1.00797 1.16583
 N1255 N 0.52759 0.50493 0.67372
 N1256 N 0.54353 0.50256 0.70458
 C1257 C 0.57776 0.49634 0.69721
 C1258 C 0.58237 0.49530 0.66064
 N1259 N 0.55044 0.50082 0.64710
 H1260 H 0.60672 0.49289 0.64550
 N1261 N 0.47838 -0.01524 0.67418
 N1262 N 0.46369 -0.01109 0.70613
 C1263 C 0.43217 0.00393 0.70125
 C1264 C 0.42766 0.00800 0.66510
 N1265 N 0.45702 -0.00416 0.64926
 H1266 H 0.40454 0.01706 0.65162
 N1267 N -0.02436 0.48767 1.16909
 N1268 N -0.03858 0.49189 1.20123
 C1269 C -0.07158 0.50344 1.19665
 C1270 C -0.07739 0.50541 1.16047
 N1271 N -0.04730 0.49545 1.14431
 H1272 H -0.10165 0.51151 1.14730
 N1273 N -0.12248 0.52787 0.38118
 N1274 N -0.13575 0.52193 0.34947
 C1275 C -0.10840 0.51854 0.32641
 C1276 C -0.07775 0.52331 0.34496
 N1277 N -0.08777 0.52906 0.37903
 H1278 H -0.05097 0.52002 0.33535
 N1279 N 0.37631 1.02658 -0.11812
 N1280 N 0.36305 1.02082 -0.14985
 C1281 C 0.39042 1.01692 -0.17280
 C1282 C 0.42114 1.02129 -0.15404
 N1283 N 0.41106 1.02723 -0.12001
 H1284 H 0.44795 1.01772 -0.16344
 N1285 N 0.62582 0.49709 -0.11837
 N1286 N 0.64009 0.49971 -0.15062
 C1287 C 0.61361 0.49746 -0.17384
 C1288 C 0.58254 0.49312 -0.15483
 N1289 N 0.59139 0.49306 -0.12036
 H1290 H 0.55612 0.49134 -0.16483
 N1291 N 0.02353 -0.01229 0.32647
 N1292 N 0.03975 -0.01365 0.29508
 C1293 C 0.07418 -0.00793 0.30062
 C1294 C 0.07856 -0.00282 0.33684
 N1295 N 0.04619 -0.00576 0.35192
 H1296 H 0.10264 0.00226 0.35082
 N1297 N 0.17087 1.01166 0.99175
 N1298 N 0.20145 1.02820 0.99289
 C1299 C 0.19450 1.06248 0.98978
 C1300 C 0.15869 1.06641 0.98641
 N1301 N 0.14495 1.03415 0.98794
 H1302 H 0.14397 1.09046 0.98556
 N1303 N 0.67348 0.51758 0.52143
 N1304 N 0.70487 0.53236 0.51779
 C1305 C 0.69973 0.56455 0.50449
 C1306 C 0.66413 0.56912 0.50037
 N1307 N 0.64874 0.53944 0.51150
 H1308 H 0.65066 0.59258 0.49247
 N1309 N 0.61702 0.37463 0.01570
 N1310 N 0.64876 0.36116 0.01802
 C1311 C 0.67221 0.38708 0.01152
 C1312 C 0.65343 0.41704 0.00433
 N1313 N 0.61919 0.40800 0.00737
 H1314 H 0.66344 0.44251 -0.00306
 N1315 N 0.14986 -0.06090 0.43888
 N1316 N 0.18231 -0.07146 0.44339
 C1317 C 0.18290 -0.08843 0.47479
 C1318 C 0.14929 -0.08853 0.48932
 N1319 N 0.12957 -0.07109 0.46583
 H1320 H 0.14052 -0.09825 0.51503
 N1321 N 0.33145 -0.02017 0.52976
 N1322 N 0.30019 -0.03402 0.52387
 C1323 C 0.30574 -0.06549 0.50877
 C1324 C 0.34149 -0.07064 0.50575
 N1325 N 0.35656 -0.04169 0.51906
 H1326 H 0.35515 -0.09250 0.49374
 N1327 N -0.17596 0.47291 1.02222
 N1328 N -0.20739 0.45840 1.01866
 C1329 C -0.20234 0.42489 1.00901
 C1330 C -0.16617 0.41946 1.00672
 N1331 N -0.15076 0.45008 1.01529
 H1332 H -0.15237 0.39590 0.99924
 N1333 N -0.12108 0.61607 0.53178
 N1334 N -0.15301 0.62963 0.53111
 C1335 C -0.17480 0.60412 0.52026
 C1336 C -0.15522 0.57446 0.51419
 N1337 N -0.12188 0.58303 0.52167
 H1338 H -0.16404 0.54952 0.50417
 N1339 N 0.37154 1.11327 0.03018
 N1340 N 0.33970 1.12678 0.02789
 C1341 C 0.31875 1.10156 0.01489
 C1342 C 0.33873 1.07211 0.00925
 N1343 N 0.37146 1.08053 0.01910
 H1344 H 0.33061 1.04737 -0.00182
 N1345 N 0.05838 1.15362 1.03987
 N1346 N 0.05460 1.18555 1.05250
 C1347 C 0.02990 1.18414 1.07872
 C1348 C 0.01914 1.14979 1.08233
 N1349 N 0.03767 1.13168 1.05757
 H1350 H -0.00073 1.13918 1.10028
 N1351 N 0.54562 0.65962 0.54853
 N1352 N 0.54139 0.69103 0.56206
 C1353 C 0.51402 0.68938 0.58534
 C1354 C 0.50166 0.65538 0.58604
 N1355 N 0.52231 0.63780 0.56258
 H1356 H 0.47982 0.64469 0.60139
 N1357 N -0.01239 0.66999 0.47824
 N1358 N -0.01242 0.70090 0.46269
 C1359 C -0.00651 0.69523 0.42770
 C1360 C -0.00288 0.65980 0.42223
 N1361 N -0.00681 0.64505 0.45443
 H1362 H 0.00181 0.64620 0.39734
 N1363 N 0.49181 1.16789 -0.01883
 N1364 N 0.49419 1.19876 -0.03443
 C1365 C 0.50038 1.19291 -0.06936
 C1366 C 0.50160 1.15713 -0.07465
 N1367 N 0.49590 1.14254 -0.04247
 H1368 H 0.50494 1.14324 -0.09956
 N1369 N 0.49174 0.37476 -0.11996
 N1370 N 0.48881 0.34299 -0.13321
 C1371 C 0.49197 0.32053 -0.10591
 C1372 C 0.49729 0.33972 -0.07524
 N1373 N 0.49707 0.37343 -0.08532
 H1374 H 0.50128 0.33025 -0.04851
 N1375 N -0.01815 -0.12302 0.38098
 N1376 N -0.01994 -0.15460 0.36706
 C1377 C -0.01170 -0.17715 0.39299
 C1378 C -0.00434 -0.15829 0.42343
 N1379 N -0.00865 -0.12459 0.41463
 H1380 H 0.00337 -0.16796 0.44916
 N1381 N 0.45639 -0.15834 0.53654
 N1382 N 0.45829 -0.18981 0.55046
 C1383 C 0.47958 -0.18728 0.57857
 C1384 C 0.49082 -0.15321 0.58160
 N1385 N 0.47583 -0.13610 0.55462
 H1386 H 0.50961 -0.14250 0.59995
 N1387 N -0.04136 0.33484 1.03985
 N1388 N -0.03518 0.30339 1.05242
 C1389 C -0.01073 0.30704 1.07758
 C1390 C -0.00210 0.34202 1.08027
 N1391 N -0.02179 0.35841 1.05599
 H1392 H 0.01808 0.35388 1.09624
 N1393 N 0.81186 0.30048 0.08901
 N1394 N 0.80659 0.31645 0.05820
 C1395 C 0.77408 0.33036 0.06029
 C1396 C 0.75994 0.32280 0.09356
 N1397 N 0.78416 0.30432 0.11054
 H1398 H 0.73450 0.32977 0.10468
 N1399 N 0.29191 0.80314 0.58780
 N1400 N 0.28990 0.81852 0.55645
 C1401 C 0.26156 0.83947 0.55786
 C1402 C 0.24629 0.83673 0.59144
 N1403 N 0.26621 0.81385 0.60924
 H1404 H 0.22323 0.84995 0.60187
 N1405 N 0.72953 0.72744 0.58047
 N1406 N 0.73663 0.70944 0.55112
 C1407 C 0.73443 0.67558 0.56026
 C1408 C 0.72555 0.67321 0.59579
 N1409 N 0.72272 0.70614 0.60747
 H1410 H 0.72324 0.64993 0.61192
 N1411 N 0.22238 0.21614 0.08600
 N1412 N 0.22445 0.20082 0.05449
 C1413 C 0.22871 0.16662 0.06072
 C1414 C 0.22935 0.16126 0.09706
 N1415 N 0.22529 0.19297 0.11188
 H1416 H 0.23386 0.13716 0.11115
 N1417 N 0.28410 0.21199 0.91604
 N1418 N 0.28024 0.19519 0.94664
 C1419 C 0.25743 0.16882 0.94116
 C1420 C 0.24752 0.16990 0.90594
 N1421 N 0.26481 0.19718 0.89126
 H1422 H 0.22970 0.15264 0.89228
 N1423 N 0.78698 0.70942 0.41633
 N1424 N 0.78499 0.69303 0.44724
 C1425 C 0.76213 0.66640 0.44348
 C1426 C 0.75014 0.66690 0.40895
 N1427 N 0.76637 0.69417 0.39300
 H1428 H 0.73147 0.64947 0.39672
 N1429 N 0.31082 0.81943 0.39421
 N1430 N 0.31023 0.83687 0.42471
 C1431 C 0.27728 0.83395 0.43812
 C1432 C 0.25792 0.81367 0.41517
 N1433 N 0.27955 0.80561 0.38802
 H1434 H 0.22986 0.80885 0.41592
 N1435 N 0.79962 0.32054 0.89678
 N1436 N 0.79896 0.33350 0.92953
 C1437 C 0.76486 0.33610 0.93950
 C1438 C 0.74460 0.32363 0.91177
 N1439 N 0.76731 0.31442 0.88574
 H1440 H 0.71629 0.32226 0.91003
 N1441 N 0.78398 0.40838 0.26496
 N1442 N 0.79784 0.43997 0.26706
 C1443 C 0.83173 0.43716 0.25652
 C1444 C 0.83844 0.40267 0.24814
 N1445 N 0.80789 0.38573 0.25381
 H1446 H 0.86264 0.39123 0.23815
 N1447 N 0.27441 0.92391 0.74541
 N1448 N 0.29161 0.95354 0.75031
 C1449 C 0.32604 0.94555 0.75050
 C1450 C 0.32954 0.91012 0.74543
 N1451 N 0.29669 0.89764 0.74231
 H1452 H 0.35345 0.89495 0.74426
 N1453 N 0.22354 0.91061 0.29417
 N1454 N 0.20577 0.94039 0.29362
 C1455 C 0.17892 0.93557 0.27117
 C1456 C 0.18092 0.90207 0.25807
 N1457 N 0.20907 0.88748 0.27264
 H1458 H 0.16416 0.88980 0.23871
 N1459 N 0.72982 0.42264 0.77832
 N1460 N 0.71485 0.45354 0.77464
 C1461 C 0.68685 0.44887 0.75365
 C1462 C 0.68485 0.41399 0.74496
 N1463 N 0.71200 0.39856 0.76093
 H1464 H 0.66511 0.40089 0.72942
 N1465 N 0.65815 0.62072 0.79083
 N1466 N 0.65119 0.58689 0.79142
 C1467 C 0.65831 0.57472 0.75842
 C1468 C 0.66936 0.60219 0.73737
 N1469 N 0.66883 0.63043 0.75860
 H1470 H 0.67721 0.60168 0.70953
 N1471 N 0.15790 0.10910 0.29603
 N1472 N 0.14903 0.07564 0.29732
 C1473 C 0.16269 0.06081 0.26764
 C1474 C 0.17991 0.08622 0.24804
 N1475 N 0.17598 0.11591 0.26636
 H1476 H 0.19278 0.08367 0.22222
 N1477 N 0.27717 0.08701 0.77394
 N1478 N 0.29302 0.05650 0.77191
 C1479 C 0.32293 0.06139 0.75275
 C1480 C 0.32511 0.09605 0.74313
 N1481 N 0.29608 0.11108 0.75709
 H1482 H 0.34634 0.10932 0.72908
 N1483 N 0.77541 0.58272 0.27687
 N1484 N 0.79057 0.55196 0.27319
 C1485 C 0.81932 0.55672 0.25224
 C1486 C 0.82158 0.59159 0.24338
 N1487 N 0.79375 0.60685 0.25948
 H1488 H 0.84215 0.60480 0.22828
 N1489 N 0.92889 0.27572 0.21646
 N1490 N 0.95973 0.27305 0.19987
 C1491 C 0.95567 0.25035 0.17283
 C1492 C 0.92105 0.23934 0.17309
 N1493 N 0.90526 0.25597 0.20068
 H1494 H 0.90831 0.22233 0.15427
 N1495 N 0.40972 0.79029 0.71484
 N1496 N 0.44108 0.78570 0.69983
 C1497 C 0.43756 0.76111 0.67447
 C1498 C 0.40264 0.75098 0.67406
 N1499 N 0.38620 0.77001 0.69959
 H1500 H 0.39028 0.73257 0.65636
 N1501 N 0.42001 0.23414 0.77020
 N1502 N 0.45069 0.23512 0.78631
 C1503 C 0.44349 0.23696 0.82149
 C1504 C 0.40748 0.23727 0.82657
 N1505 N 0.39382 0.23545 0.79388
 H1506 H 0.39275 0.23905 0.85143
 N1507 N 0.91334 0.76221 0.27438
 N1508 N 0.94349 0.76563 0.29111
 C1509 C 0.94123 0.74547 0.32044
 C1510 C 0.90840 0.72956 0.32111
 N1511 N 0.89200 0.74058 0.29180
 H1512 H 0.89663 0.71362 0.34191
 N1513 N 0.09771 0.79989 0.31095
 N1514 N 0.06458 0.79472 0.32071
 C1515 C 0.06307 0.76382 0.33760
 C1516 C 0.09686 0.75041 0.33855
 N1517 N 0.11764 0.77389 0.32161
 H1518 H 0.10513 0.72538 0.34855
 N1519 N 0.59526 0.30146 0.80571
 N1520 N 0.56308 0.29409 0.81729
 C1521 C 0.56493 0.26465 0.83668
 C1522 C 0.59984 0.25449 0.83719
 N1523 N 0.61783 0.27829 0.81753
 H1524 H 0.61075 0.23133 0.84900
 N1525 N 0.57436 0.77944 0.72567
 N1526 N 0.54476 0.78020 0.70762
 C1527 C 0.55368 0.77453 0.67319
 C1528 C 0.58947 0.77021 0.67068
 N1529 N 0.60131 0.77327 0.70382
 H1530 H 0.60500 0.76261 0.64752
 N1531 N 0.08467 0.26568 0.22531
 N1532 N 0.05655 0.26840 0.20518
 C1533 C 0.06793 0.26573 0.17103
 C1534 C 0.10368 0.26116 0.17085
 N1535 N 0.11306 0.26110 0.20500
 H1536 H 0.12084 0.25561 0.14824
 N1537 N -0.12374 1.02021 0.88499
 N1538 N -0.13704 1.02529 0.85330
 C1539 C -0.11297 1.01400 0.82920
 C1540 C -0.08478 1.00056 0.84725
 N1541 N -0.09261 1.00523 0.88197
 H1542 H -0.06104 0.98891 0.83640
 N1543 N 0.47790 0.49233 0.32990
 N1544 N 0.46114 0.49543 0.29955
 C1545 C 0.42755 0.50378 0.30787
 C1546 C 0.42417 0.50515 0.34450
 N1547 N 0.45607 0.49776 0.35712
 H1548 H 0.40039 0.50872 0.36035
 N1549 N 0.52651 0.02640 0.33049
 N1550 N 0.54092 0.02167 0.29856
 C1551 C 0.57232 0.00636 0.30334
 C1552 C 0.57710 0.00267 0.33951
 N1553 N 0.54789 0.01541 0.35539
 H1554 H 0.59989 -0.00729 0.35289
 N1555 N 0.01775 0.51187 0.82279
 N1556 N 0.03401 0.50954 0.79139
 C1557 C 0.06712 0.49906 0.79755
 C1558 C 0.07083 0.49572 0.83389
 N1559 N 0.03947 0.50383 0.84858
 H1560 H 0.09440 0.48956 0.84823
 N1561 N 0.12611 0.48067 0.61511
 N1562 N 0.13814 0.48706 0.64725
 C1563 C 0.10998 0.48905 0.66946
 C1564 C 0.08016 0.48297 0.64995
 N1565 N 0.09145 0.47784 0.61620
 H1566 H 0.05298 0.48449 0.65882
 N1567 N 0.57346 0.93932 0.14642
 N1568 N 0.58694 0.94520 0.17806
 C1569 C 0.59950 0.97812 0.17770
 C1570 C 0.59325 0.99234 0.14475
 N1571 N 0.57714 0.96719 0.12601
 H1572 H 0.59641 1.01926 0.13667
 N1573 N 0.37232 0.49372 0.12602
 N1574 N 0.35915 0.49238 0.15884
 C1575 C 0.38624 0.49713 0.18096
 C1576 C 0.41649 0.50155 0.16076
 N1577 N 0.40663 0.49922 0.12670
 H1578 H 0.44308 0.50537 0.16975
 N1579 N -0.02012 0.00904 0.67477
 N1580 N -0.03650 0.01085 0.70607
 C1581 C -0.07119 0.00716 0.70028
 C1582 C -0.07551 0.00278 0.66393
 N1583 N -0.04290 0.00412 0.64907
 H1584 H -0.09975 -0.00048 0.64970
 N1585 N -0.17461 0.98658 1.01595
 N1586 N -0.20541 0.97077 1.01282
 C1587 C -0.19914 0.93630 1.01470
 C1588 C -0.16369 0.93147 1.01957
 N1589 N -0.14932 0.96341 1.02000
 H1590 H -0.14947 0.90710 1.01966
 N1591 N 0.33331 0.48229 0.47667
 N1592 N 0.30190 0.46753 0.48000
 C1593 C 0.30682 0.43540 0.49355
 C1594 C 0.34239 0.43087 0.49815
 N1595 N 0.35794 0.46050 0.48699
 H1596 H 0.35573 0.40759 0.50679
 N1597 N 0.37580 0.61380 -0.02427
 N1598 N 0.34396 0.62653 -0.02837
 C1599 C 0.32080 0.60266 -0.01557
 C1600 C 0.33982 0.57495 -0.00255
 N1601 N 0.37399 0.58298 -0.00872
 H1602 H 0.32993 0.55177 0.01069
 N1603 N -0.15106 0.05653 0.55512
 N1604 N -0.18316 0.06759 0.55006
 C1605 C -0.18282 0.08590 0.51931
 C1606 C -0.14869 0.08631 0.50584
 N1607 N -0.12994 0.06761 0.52928
 H1608 H -0.13876 0.09771 0.48129
 N1609 N 0.66930 0.02368 0.47704
 N1610 N 0.70051 0.03689 0.48394
 C1611 C 0.69580 0.07060 0.49311
 C1612 C 0.66027 0.07776 0.49135
 N1613 N 0.64477 0.04762 0.48138
 H1614 H 0.64682 0.10160 0.49860
 N1615 N 0.16286 0.52296 0.96073
 N1616 N 0.19471 0.53630 0.96490
 C1617 C 0.19086 0.56728 0.98147
 C1618 C 0.15498 0.57251 0.98713
 N1619 N 0.13846 0.54419 0.97373
 H1620 H 0.14225 0.59430 1.00025
 N1621 N 0.12832 0.38633 0.46016
 N1622 N 0.15995 0.37228 0.46227
 C1623 C 0.18164 0.39751 0.47393
 C1624 C 0.16229 0.42754 0.47892
 N1625 N 0.12918 0.41945 0.47005
 H1626 H 0.17100 0.45227 0.48954
 N1627 N 0.62523 0.88597 -0.03273
 N1628 N 0.65731 0.87294 -0.03093
 C1629 C 0.67768 0.89787 -0.01652
 C1630 C 0.65711 0.92665 -0.00950
 N1631 N 0.62460 0.91812 -0.01996
 H1632 H 0.66462 0.95083 0.00316
 N1633 N -0.03922 0.83392 0.97843
 N1634 N -0.03249 0.80265 0.96514
 C1635 C -0.01883 0.80744 0.93215
 C1636 C -0.01848 0.84294 0.92524
 N1637 N -0.03137 0.85850 0.95484
 H1638 H -0.00976 0.85604 0.90113
 N1639 N 0.45679 0.34373 0.45259
 N1640 N 0.46053 0.31262 0.43817
 C1641 C 0.48789 0.31441 0.41484
 C1642 C 0.50076 0.34822 0.41511
 N1643 N 0.48043 0.36554 0.43911
 H1644 H 0.52293 0.35888 0.40023
 N1645 N 0.01068 0.33000 0.51249
 N1646 N 0.00930 0.29939 0.52868
 C1647 C 0.00310 0.30592 0.56349
 C1648 C 0.00074 0.34150 0.56817
 N1649 N 0.00586 0.35551 0.53579
 H1650 H -0.00289 0.35573 0.59285
 N1651 N 0.50136 0.82629 0.01747
 N1652 N 0.50045 0.79559 0.03356
 C1653 C 0.49436 0.80174 0.06846
 C1654 C 0.49152 0.83742 0.07321
 N1655 N 0.49629 0.85174 0.04081
 H1656 H 0.48831 0.85154 0.09801
 N1657 N 0.51187 0.62192 0.12154
 N1658 N 0.51549 0.65385 0.13421
 C1659 C 0.51029 0.67595 0.10698
 C1660 C 0.50301 0.65641 0.07701
 N1661 N 0.50412 0.62284 0.08739
 H1662 H 0.49666 0.66556 0.05068
 N1663 N 0.02627 0.12723 0.61527
 N1664 N 0.02741 0.15920 0.62838
 C1665 C 0.01676 0.18069 0.60247
 C1666 C 0.00865 0.16082 0.57296
 N1667 N 0.01492 0.12759 0.58220
 H1668 H -0.00136 0.16947 0.54772
 N1669 N 0.54892 0.16367 0.46348
 N1670 N 0.54677 0.19484 0.44885
 C1671 C 0.52472 0.19179 0.42138
 C1672 C 0.51331 0.15774 0.41947
 N1673 N 0.52893 0.14115 0.44642
 H1674 H 0.49374 0.14681 0.40211
 N1675 N 0.02862 0.62978 0.89376
 N1676 N 0.02330 0.66064 0.87933
 C1677 C 0.00802 0.68072 0.90458
 C1678 C 0.00457 0.66115 0.93545
 N1679 N 0.01798 0.62955 0.92746
 H1680 H -0.00899 0.66811 0.96000
 N1681 N 0.19206 0.71252 0.91600
 N1682 N 0.19503 0.69434 0.94591
 C1683 C 0.22063 0.67074 0.93982
 C1684 C 0.23289 0.67482 0.90538
 N1685 N 0.21474 0.70109 0.89149
 H1686 H 0.25386 0.66075 0.89189
 N1687 N 0.70525 0.18926 0.40866
 N1688 N 0.70693 0.17360 0.43990
 C1689 C 0.73808 0.15697 0.44089
 C1690 C 0.75549 0.16276 0.40862
 N1691 N 0.73393 0.18295 0.38937
 H1692 H 0.78116 0.15360 0.40008
 N1693 N 0.27454 0.27019 0.42209
 N1694 N 0.26806 0.28885 0.45117
 C1695 C 0.27171 0.32249 0.44160
 C1696 C 0.28089 0.32400 0.40611
 N1697 N 0.28239 0.29083 0.39482
 H1698 H 0.28383 0.34698 0.38961
 N1699 N 0.78564 0.78683 0.91373
 N1700 N 0.78199 0.80145 0.94548
 C1701 C 0.77076 0.83411 0.93985
 C1702 C 0.76789 0.83935 0.90367
 N1703 N 0.77744 0.80907 0.88829
 H1704 H 0.75854 0.86227 0.89009
 N1705 N 0.70785 0.78867 0.08481
 N1706 N 0.71228 0.80484 0.05386
 C1707 C 0.73554 0.83088 0.05910
 C1708 C 0.74500 0.83032 0.09439
 N1709 N 0.72714 0.80373 0.10946
 H1710 H 0.76327 0.84727 0.10783
 N1711 N 0.20939 0.29898 0.58617
 N1712 N 0.21298 0.31430 0.55480
 C1713 C 0.23827 0.33877 0.55780
 C1714 C 0.25004 0.33812 0.59247
 N1715 N 0.23127 0.31287 0.60919
 H1716 H 0.27068 0.35365 0.60408
 N1717 N 0.69686 0.19549 0.59286
 N1718 N 0.69746 0.17679 0.56306
 C1719 C 0.73121 0.16748 0.55727
 C1720 C 0.75126 0.18210 0.58386
 N1721 N 0.72901 0.19912 0.60534
 H1722 H 0.77896 0.17906 0.58889
 N1723 N 0.19747 0.66170 0.11148
 N1724 N 0.19651 0.64865 0.07883
 C1725 C 0.22898 0.65267 0.06454
 C1726 C 0.24991 0.66892 0.08953
 N1727 N 0.22924 0.67391 0.11842
 H1728 H 0.27762 0.67523 0.08746
 N1729 N 0.21922 0.59097 0.74867
 N1730 N 0.20434 0.56002 0.74479
 C1731 C 0.16941 0.56490 0.74805
 C1732 C 0.16318 0.59992 0.75391
 N1733 N 0.19504 0.61516 0.75413
 H1734 H 0.13821 0.61291 0.75783
 N1735 N 0.72439 0.08106 0.22955
 N1736 N 0.70523 0.05269 0.22413
 C1737 C 0.67463 0.05721 0.24219
 C1738 C 0.67565 0.08940 0.25879
 N1739 N 0.70723 0.10314 0.25058
 H1740 H 0.65515 0.10224 0.27418
 N1741 N 0.78934 0.09035 0.69439
 N1742 N 0.80841 0.06143 0.69683
 C1743 C 0.82504 0.06304 0.72825
 C1744 C 0.81545 0.09382 0.74471
 N1745 N 0.79322 0.10993 0.72314
 H1746 H 0.82454 0.10454 0.76954
 N1747 N 0.26997 0.57191 0.23133
 N1748 N 0.28568 0.54149 0.23586
 C1749 C 0.31470 0.54767 0.25502
 C1750 C 0.31652 0.58294 0.26168
 N1751 N 0.28830 0.59711 0.24640
 H1752 H 0.33697 0.59713 0.27522
 N1753 N 0.35619 0.37527 0.22243
 N1754 N 0.36316 0.40908 0.22173
 C1755 C 0.34860 0.42269 0.25158
 C1756 C 0.33327 0.39625 0.27109
 N1757 N 0.33853 0.36706 0.25194
 H1758 H 0.31918 0.39809 0.29632
 N1759 N 0.84180 0.89315 0.70664
 N1760 N 0.85129 0.92639 0.70500
 C1761 C 0.83817 0.94165 0.73465
 C1762 C 0.82055 0.91667 0.75464
 N1763 N 0.82378 0.88679 0.73647
 H1764 H 0.80793 0.91959 0.78054
 N1765 N 0.71726 0.91487 0.21725
 N1766 N 0.70237 0.94582 0.22010
 C1767 C 0.67486 0.94242 0.24297
 C1768 C 0.67313 0.90803 0.25398
 N1769 N 0.70004 0.89178 0.23710
 H1770 H 0.65379 0.89587 0.27149
 N1771 N 0.22299 0.42112 0.72088
 N1772 N 0.20728 0.45164 0.72417
 C1773 C 0.17835 0.44661 0.74483
 C1774 C 0.17660 0.41179 0.75396
 N1775 N 0.20486 0.39686 0.73829
 H1776 H 0.15621 0.39841 0.76913
 N1777 N 0.07264 0.73184 0.77979
 N1778 N 0.04190 0.73468 0.79648
 C1779 C 0.04729 0.75325 0.82640
 C1780 C 0.08248 0.76161 0.82774
 N1781 N 0.09732 0.74753 0.79825
 H1782 H 0.09621 0.77477 0.84888
 N1783 N 0.59150 0.21346 0.28391
 N1784 N 0.56009 0.21874 0.29863
 C1785 C 0.56394 0.24268 0.32459
 C1786 C 0.59925 0.25158 0.32567
 N1787 N 0.61550 0.23258 0.29991
 H1788 H 0.61195 0.26914 0.34400
 N1789 N 0.57757 0.77489 0.22897
 N1790 N 0.54702 0.77229 0.21275
 C1791 C 0.55447 0.76474 0.17842
 C1792 C 0.59043 0.76289 0.17395
 N1793 N 0.60390 0.76937 0.20613
 H1794 H 0.60527 0.75690 0.14986
 N1795 N 0.08093 0.27304 0.72704
 N1796 N 0.05073 0.26932 0.71034
 C1797 C 0.05874 0.26753 0.67531
 C1798 C 0.09469 0.27038 0.67096
 N1799 N 0.10758 0.27382 0.70386
 H1800 H 0.11000 0.26911 0.64642
 N1801 N 0.90694 0.20295 0.69078
 N1802 N 0.93932 0.20869 0.67884
 C1803 C 0.93841 0.23765 0.65869
 C1804 C 0.90396 0.24928 0.65815
 N1805 N 0.88523 0.22676 0.67856
 H1806 H 0.89387 0.27252 0.64575
 N1807 N 0.40729 0.69198 0.19792
 N1808 N 0.43905 0.70046 0.18586
 C1809 C 0.43553 0.72855 0.16473
 C1810 C 0.40016 0.73663 0.16363
 N1811 N 0.38349 0.71309 0.18467
 H1812 H 0.38800 0.75848 0.15058
 N1813 N 0.42437 0.21695 0.27832
 N1814 N 0.45432 0.21735 0.29581
 C1815 C 0.44637 0.22753 0.32936
 C1816 C 0.41065 0.23323 0.33191
 N1817 N 0.39800 0.22650 0.29961
 H1818 H 0.39576 0.24384 0.35422
 N1819 N 0.91577 0.74411 0.77380
 N1820 N 0.94417 0.74094 0.79339
 C1821 C 0.93385 0.74682 0.82741
 C1822 C 0.89853 0.75376 0.82821
 N1823 N 0.88829 0.75189 0.79434
 H1824 H 0.88188 0.75977 0.85108
   
