data_POSCAR
  _audit_creation_date              2014-09-24
  _audit_creation_method            'ToBaCCo'
  _symmetry_space_group_name_H-M    'P1'
  _symmetry_Int_Tables_number       1
  _symmetry_cell_setting            triclinic
  loop_
  _symmetry_equiv_pos_as_xyz
 x,y,z
_cell_length_a 59.3576
_cell_length_b 59.3548
_cell_length_c 59.3172
_cell_angle_alpha 89.946400
_cell_angle_beta 90.009800
_cell_angle_gamma 89.981400
loop_
  _atom_site_label
  _atom_site_type_symbol
  _atom_site_fract_x
  _atom_site_fract_y
  _atom_site_fract_z
C1 C 0.35874 1.36008 0.33008
 C2 C 0.33944 1.36972 0.33971
 C3 C 0.32977 1.36008 0.35901
 C4 C 0.33945 1.34081 0.36868
 C5 C 0.35873 1.33117 0.35907
 C6 C 0.36837 1.34081 0.33979
 H7 H 0.33186 1.38454 0.33210
 H8 H 0.33192 1.33319 0.38352
 H9 H 0.38320 1.33320 0.33229
 C10 C 0.35876 0.85965 0.83090
 C11 C 0.36838 0.84036 0.84055
 C12 C 0.35874 0.83067 0.85981
 C13 C 0.33947 0.84031 0.86946
 C14 C 0.32981 0.85962 0.85984
 C15 C 0.33949 0.86929 0.84056
 H16 H 0.38319 0.83280 0.83297
 H17 H 0.33194 0.83267 0.88428
 H18 H 0.33198 0.88413 0.83295
 C19 C 0.85869 1.35981 0.83087
 C20 C 0.83940 1.36943 0.84049
 C21 C 0.82972 1.35976 0.85977
 C22 C 0.83941 1.34048 0.86943
 C23 C 0.85871 1.33087 0.85980
 C24 C 0.86834 1.34056 0.84054
 H25 H 0.83185 1.38424 0.83285
 H26 H 0.83188 1.33283 0.88424
 H27 H 0.88317 1.33301 0.83299
 C28 C 0.85937 0.85963 0.32979
 C29 C 0.84010 0.86929 0.33946
 C30 C 0.83044 0.85965 0.35875
 C31 C 0.84007 0.84036 0.36839
 C32 C 0.85932 0.83068 0.35876
 C33 C 0.86897 0.84032 0.33948
 H34 H 0.83250 0.88412 0.33192
 H35 H 0.83249 0.83280 0.38321
 H36 H 0.88378 0.83269 0.33195
 C37 C 0.63983 0.64028 0.33133
 C38 C 0.65911 0.63065 0.34097
 C39 C 0.66881 0.64031 0.36020
 C40 C 0.65920 0.65961 0.36980
 C41 C 0.63992 0.66926 0.36018
 C42 C 0.63023 0.65958 0.34095
 H43 H 0.66666 0.61583 0.33342
 H44 H 0.66682 0.66721 0.38457
 H45 H 0.61541 0.66715 0.33338
 C46 C 0.64028 0.14034 0.82982
 C47 C 0.65958 0.13068 0.83945
 C48 C 0.66923 0.14024 0.85876
 C49 C 0.65957 0.15946 0.86847
 C50 C 0.64029 0.16914 0.85888
 C51 C 0.63064 0.15958 0.83958
 H52 H 0.66721 0.11590 0.83187
 H53 H 0.66715 0.16697 0.88331
 H54 H 0.61581 0.16722 0.83208
 C55 C 1.14021 0.64015 0.83079
 C56 C 1.13061 0.65945 0.84041
 C57 C 1.14027 0.66909 0.85968
 C58 C 1.15951 0.65940 0.86935
 C59 C 1.16911 0.64010 0.85974
 C60 C 1.15945 0.63048 0.84048
 H61 H 1.11583 0.66706 0.83281
 H62 H 1.16709 0.66696 0.88415
 H63 H 1.16700 0.61565 0.83292
 C64 C 1.14120 0.14040 0.32965
 C65 C 1.16051 0.13079 0.33930
 C66 C 1.17017 0.14043 0.35860
 C67 C 1.16046 0.15968 0.36824
 C68 C 1.14117 0.16930 0.35861
 C69 C 1.13154 0.15966 0.33933
 H70 H 1.16811 0.11598 0.33172
 H71 H 1.16798 0.16729 0.38307
 H72 H 1.11669 0.16726 0.33182
 C73 C 0.64125 1.35989 0.66926
 C74 C 0.66056 1.36949 0.65964
 C75 C 0.67022 1.35985 0.64035
 C76 C 0.66050 1.34062 0.63068
 C77 C 0.64119 1.33103 0.64030
 C78 C 0.63157 1.34068 0.65957
 H79 H 0.66812 1.38427 0.66729
 H80 H 0.66802 1.33300 0.61585
 H81 H 0.61673 1.33315 0.66712
 C82 C 0.64037 0.85956 1.16931
 C83 C 0.63074 0.84028 1.15970
 C84 C 0.64039 0.83058 1.14046
 C85 C 0.65968 0.84019 1.13082
 C86 C 0.66933 0.85947 1.14041
 C87 C 0.65966 0.86916 1.15965
 H88 H 0.61592 0.83274 1.16728
 H89 H 0.66726 0.83258 1.11604
 H90 H 0.66723 0.88397 1.16719
 C91 C 1.14016 1.35962 1.16996
 C92 C 1.13052 1.34037 1.16026
 C93 C 1.14016 1.33074 1.14098
 C94 C 1.15944 1.34038 1.13137
 C95 C 1.16910 1.35962 1.14102
 C96 C 1.15946 1.36925 1.16030
 H97 H 1.11569 1.33276 1.16778
 H98 H 1.16701 1.33283 1.11655
 H99 H 1.16709 1.38405 1.16784
 C100 C 1.14142 0.85927 0.66927
 C101 C 1.13176 0.84004 0.65960
 C102 C 1.14140 0.83034 0.64036
 C103 C 1.16073 0.83992 0.63075
 C104 C 1.17043 0.85918 0.64040
 C105 C 1.16074 0.86885 0.65966
 H106 H 1.11691 0.83252 0.66715
 H107 H 1.16827 0.83228 0.61595
 H108 H 1.16830 0.88364 0.66728
 C109 C 0.35971 0.64027 0.66901
 C110 C 0.34045 0.63064 0.65934
 C111 C 0.33080 0.64029 0.64006
 C112 C 0.34044 0.65958 0.63043
 C113 C 0.35970 0.66922 0.64009
 C114 C 0.36933 0.65955 0.65936
 H115 H 0.33289 0.61582 0.66691
 H116 H 0.33286 0.66717 0.61562
 H117 H 0.38413 0.66712 0.66696
 C118 C 0.36000 0.13976 1.16963
 C119 C 0.34072 0.13013 1.15996
 C120 C 0.33109 0.13977 1.14066
 C121 C 0.34076 0.15902 1.13099
 C122 C 0.36002 0.16866 1.14063
 C123 C 0.36965 0.15902 1.15993
 H124 H 0.33308 0.11534 1.16752
 H125 H 0.33319 0.16659 1.11617
 H126 H 0.38446 0.16664 1.16746
 C127 C 0.85990 0.63998 1.16965
 C128 C 0.84062 0.63036 1.15998
 C129 C 0.83096 0.64001 1.14070
 C130 C 0.84061 0.65928 1.13105
 C131 C 0.85988 0.66892 1.14068
 C132 C 0.86953 0.65927 1.15996
 H133 H 0.83300 0.61554 1.16752
 H134 H 0.83303 0.66686 1.11623
 H135 H 0.88435 0.66688 1.16749
 C136 C 0.85838 0.14052 0.67031
 C137 C 0.83906 0.13092 0.66066
 C138 C 0.82940 0.14059 0.64135
 C139 C 0.83911 0.15984 0.63169
 C140 C 0.85840 0.16944 0.64131
 C141 C 0.86804 0.15977 0.66059
 H142 H 0.83147 0.11611 0.66825
 H143 H 0.83159 0.16747 0.61686
 H144 H 0.88288 0.16735 0.66810
 C145 C 1.36008 0.35923 0.66897
 C146 C 1.34083 0.36889 0.65929
 C147 C 1.33116 0.35927 0.64003
 C148 C 1.34078 0.33998 0.63041
 C149 C 1.36005 0.33028 0.64006
 C150 C 1.36970 0.33994 0.65934
 H151 H 1.33328 0.38371 0.66685
 H152 H 1.33314 0.33245 0.61559
 H153 H 1.38450 0.33238 0.66699
 C154 C 1.35993 0.85971 1.17022
 C155 C 1.36956 0.84041 1.16059
 C156 C 1.35991 0.83075 1.14132
 C157 C 1.34067 0.84042 1.13165
 C158 C 1.33103 0.85971 1.14124
 C159 C 1.34067 0.86936 1.16051
 H160 H 1.38436 0.83278 1.16815
 H161 H 1.33309 0.83285 1.11685
 H162 H 1.33305 0.88419 1.16801
 C163 C 0.85987 0.35949 1.17004
 C164 C 0.84057 0.36912 1.16039
 C165 C 0.83090 0.35947 1.14113
 C166 C 0.84056 0.34022 1.13148
 C167 C 0.85984 0.33058 1.14109
 C168 C 0.86951 0.34022 1.16035
 H169 H 0.83294 0.38392 1.16793
 H170 H 0.83297 0.33265 1.11668
 H171 H 0.88435 0.33260 1.16787
 C172 C 0.85971 0.85961 0.66908
 C173 C 0.86931 0.84033 0.65942
 C174 C 0.85962 0.83070 0.64016
 C175 C 0.84035 0.84039 0.63054
 C176 C 0.83075 0.85967 0.64019
 C177 C 0.84044 0.86928 0.65945
 H178 H 0.88412 0.83273 0.66697
 H179 H 0.83274 0.83284 0.61574
 H180 H 0.83291 0.88409 0.66704
 C181 C 0.64041 0.64040 0.66924
 C182 C 0.63078 0.65969 0.65960
 C183 C 0.64041 0.66936 0.64033
 C184 C 0.65967 0.65972 0.63067
 C185 C 0.66932 0.64043 0.64030
 C186 C 0.65967 0.63077 0.65957
 H187 H 0.61598 0.66726 0.66719
 H188 H 0.66724 0.66731 0.61586
 H189 H 0.66725 0.61595 0.66714
 C190 C 0.64035 1.14086 1.16892
 C191 C 0.65962 1.13122 1.15928
 C192 C 0.66930 1.14087 1.14003
 C193 C 0.65969 1.16017 1.13038
 C194 C 0.64041 1.16985 1.14000
 C195 C 0.63074 1.16015 1.15927
 H196 H 0.66716 1.11639 1.16686
 H197 H 0.66734 1.16772 1.11557
 H198 H 0.61592 1.16769 1.16688
 C199 C 0.14047 0.64125 1.17008
 C200 C 0.13088 0.66058 1.16044
 C201 C 0.14054 0.67026 1.14115
 C202 C 0.15979 0.66055 1.13150
 C203 C 0.16939 0.64123 1.14112
 C204 C 0.15972 0.63158 1.16039
 H205 H 0.11607 0.66818 1.16802
 H206 H 0.16743 0.66807 1.11667
 H207 H 0.16730 0.61672 1.16790
 C208 C 0.13976 1.14075 0.66866
 C209 C 0.13012 1.16005 0.65904
 C210 C 0.13974 1.16974 0.63975
 C211 C 0.15901 1.16007 0.63008
 C212 C 0.16864 1.14077 0.63971
 C213 C 0.15900 1.13112 0.65898
 H214 H 0.11532 1.16758 0.66669
 H215 H 0.16663 1.16762 0.61526
 H216 H 0.16657 1.11629 0.66654
 C217 C 1.35971 0.64159 0.33093
 C218 C 1.34046 0.63194 0.34060
 C219 C 1.33075 0.64160 0.35982
 C220 C 1.34033 0.66091 0.36943
 C221 C 1.35961 0.67060 0.35979
 C222 C 1.36930 0.66090 0.34054
 H223 H 1.33293 0.61710 0.33306
 H224 H 1.33267 0.66845 0.38422
 H225 H 1.38411 0.66843 0.33291
 C226 C 1.35959 1.14151 0.83072
 C227 C 1.34034 1.13186 0.84039
 C228 C 1.33069 1.14148 0.85966
 C229 C 1.34033 1.16075 0.86930
 C230 C 1.35960 1.17043 0.85965
 C231 C 1.36923 1.16078 0.84035
 H232 H 1.33278 1.11705 0.83282
 H233 H 1.33271 1.16826 0.88413
 H234 H 1.38403 1.16831 0.83272
 C235 C 0.85979 0.64018 0.83080
 C236 C 0.84053 0.63056 0.84048
 C237 C 0.83089 0.64021 0.85975
 C238 C 0.84056 0.65947 0.86936
 C239 C 0.85983 0.66910 0.85970
 C240 C 0.86945 0.65944 0.84043
 H241 H 0.83294 0.61576 0.83292
 H242 H 0.83300 0.66706 0.88417
 H243 H 0.88425 0.66699 0.83283
 C244 C 0.86008 1.13984 0.33126
 C245 C 0.84080 1.13024 0.34090
 C246 C 0.83116 1.13987 0.36018
 C247 C 0.84084 1.15911 0.36983
 C248 C 0.86012 1.16873 0.36020
 C249 C 0.86975 1.15908 0.34092
 H250 H 0.83319 1.11546 0.33331
 H251 H 0.83327 1.16669 0.38463
 H252 H 0.88456 1.16664 0.33334
 C253 C 0.64047 0.35881 0.33009
 C254 C 0.63083 0.33954 0.33978
 C255 C 0.64047 0.32987 0.35908
 C256 C 0.65976 0.33952 0.36871
 C257 C 0.66941 0.35879 0.35904
 C258 C 0.65976 0.36843 0.33975
 H259 H 0.61599 0.33198 0.33221
 H260 H 0.66738 0.33200 0.38354
 H261 H 0.66738 0.38324 0.33221
 C262 C 0.64023 0.85988 0.83113
 C263 C 0.63060 0.84061 0.84080
 C264 C 0.64027 0.83093 0.86006
 C265 C 0.65955 0.84055 0.86967
 C266 C 0.66919 0.85983 0.86002
 C267 C 0.65951 0.86949 0.84076
 H268 H 0.61579 0.83305 0.83323
 H269 H 0.66716 0.83296 0.88447
 H270 H 0.66708 0.88430 0.83317
 C271 C 0.14041 0.35972 0.82981
 C272 C 0.13074 0.34047 0.83953
 C273 C 0.14034 0.33084 0.85885
 C274 C 0.15960 0.34048 0.86849
 C275 C 0.16929 0.35971 0.85882
 C276 C 0.15969 0.36934 0.83949
 H277 H 0.11592 0.33286 0.83199
 H278 H 0.16714 0.33292 0.88334
 H279 H 0.16734 0.38413 0.83193
 C280 C 0.14007 0.85999 0.33031
 C281 C 0.13044 0.84069 0.33998
 C282 C 0.14009 0.83103 0.35926
 C283 C 0.15934 0.84068 0.36891
 C284 C 0.16898 0.85996 0.35928
 C285 C 0.15933 0.86962 0.33999
 H286 H 0.11564 0.83307 0.33243
 H287 H 0.16692 0.83309 0.38372
 H288 H 0.16695 0.88444 0.33246
 O289 O 1.08152 1.02198 1.11254
 O290 O 1.10775 1.02201 1.13889
 C291 C 1.08942 1.02968 1.13089
 C292 C 1.07740 1.04809 1.14270
 C293 C 1.08486 1.05581 1.16381
 H294 H 1.09914 1.04788 1.17199
 O295 O 0.91879 0.97776 1.11231
 O296 O 0.89257 0.97770 1.13865
 C297 C 0.91090 0.97004 1.13066
 C298 C 0.92292 0.95162 1.14249
 C299 C 0.91549 0.94392 1.16363
 H300 H 0.90122 0.95186 1.17180
 O301 O 1.02205 1.11214 1.08148
 O302 O 1.02201 1.13849 1.10767
 C303 C 1.02969 1.13051 1.08934
 C304 C 1.04803 1.14237 1.07727
 C305 C 1.05563 1.16354 1.08464
 H306 H 1.04767 1.17171 1.09890
 O307 O 0.97838 0.88758 1.08149
 O308 O 0.97835 0.86120 1.10770
 C309 C 0.97070 0.86921 1.08935
 C310 C 0.95233 0.85740 1.07727
 C311 C 0.94470 0.83623 1.08464
 H312 H 0.95265 0.82801 1.09890
 O313 O 1.11218 1.08145 1.02200
 O314 O 1.13851 1.10766 1.02203
 C315 C 1.13053 1.08932 1.02971
 C316 C 1.14235 1.07727 1.04812
 C317 C 1.16353 1.08462 1.05572
 H318 H 1.17173 1.09885 1.04773
 O319 O 0.88812 0.91846 1.02196
 O320 O 0.86178 0.89226 1.02196
 C321 C 0.86976 0.91058 1.02963
 C322 C 0.85791 0.92261 1.04801
 C323 C 0.83674 0.91523 1.05561
 H324 H 0.82855 0.90100 1.04763
 O325 O 0.97820 1.08117 1.11233
 O326 O 0.97809 1.10735 1.13869
 C327 C 0.97049 1.08901 1.13069
 C328 C 0.95214 1.07691 1.14251
 C329 C 0.94453 1.08421 1.16370
 H330 H 0.95250 1.09844 1.17192
 O331 O 1.02220 0.91848 1.11242
 O332 O 1.02225 0.89228 1.13880
 C333 C 1.02988 0.91062 1.13080
 C334 C 1.04823 0.92270 1.14264
 C335 C 1.05585 0.91535 1.16383
 H336 H 1.04790 0.90109 1.17204
 O337 O 1.11237 0.97806 1.08165
 O338 O 1.13874 0.97804 1.10784
 C339 C 1.13074 0.97038 1.08951
 C340 C 1.14259 0.95202 1.07746
 C341 C 1.16375 0.94440 1.08485
 H342 H 1.17194 0.95236 1.09911
 O343 O 0.88796 1.02178 1.08144
 O344 O 0.86160 1.02178 1.10763
 C345 C 0.86961 1.02946 1.08930
 C346 C 0.85779 1.04787 1.07725
 C347 C 0.83663 1.05552 1.08464
 H348 H 0.82844 1.04755 1.09890
 O349 O 0.91870 1.11213 1.02193
 O350 O 0.89249 1.13848 1.02198
 C351 C 0.91082 1.13047 1.02965
 C352 C 0.92285 1.14226 1.04806
 C353 C 0.91547 1.16341 1.05571
 H354 H 0.90123 1.17162 1.04773
 O355 O 1.08177 0.88772 1.02221
 O356 O 1.10800 0.86140 1.02223
 C357 C 1.08967 0.86937 1.02991
 C358 C 1.07767 0.85753 1.04834
 C359 C 1.08513 0.83641 1.05606
 H360 H 1.09941 0.82825 1.04812
 O361 O 0.91883 1.02170 1.11230
 O362 O 0.89263 1.02170 1.13865
 C363 C 0.91096 1.02937 1.13066
 C364 C 0.92301 1.04772 1.14250
 C365 C 0.91566 1.05529 1.16370
 H366 H 0.90144 1.04730 1.17191
 O367 O 1.08147 0.97803 1.11247
 O368 O 1.10768 0.97800 1.13882
 C369 C 1.08936 0.97033 1.13083
 C370 C 1.07734 0.95192 1.14265
 C371 C 1.08469 0.94430 1.16385
 H372 H 1.09890 0.95229 1.17207
 O373 O 1.02232 0.88759 1.08161
 O374 O 1.02236 0.86123 1.10784
 C375 C 1.03004 0.86925 1.08951
 C376 C 1.04849 0.85747 1.07751
 C377 C 1.05621 0.83635 1.08495
 H378 H 1.04827 0.82815 1.09922
 O379 O 0.97812 1.11208 1.08150
 O380 O 0.97802 1.13842 1.10769
 C381 C 0.97038 1.13042 1.08935
 C382 C 0.95199 1.14222 1.07728
 C383 C 0.94434 1.16338 1.08465
 H384 H 0.95230 1.17157 1.09890
 O385 O 0.88790 1.08125 1.02192
 O386 O 0.86153 1.10743 1.02197
 C387 C 0.86955 1.08910 1.02963
 C388 C 0.85776 1.07704 1.04805
 C389 C 0.83661 1.08441 1.05570
 H390 H 0.82840 1.09866 1.04772
 O391 O 1.11249 0.91869 1.02218
 O392 O 1.13888 0.89252 1.02221
 C393 C 1.13086 0.91083 1.02988
 C394 C 1.14265 0.92288 1.04828
 C395 C 1.16381 0.91552 1.05594
 H396 H 1.17203 0.90129 1.04798
 O397 O 0.97826 0.91836 1.11239
 O398 O 0.97824 0.89215 1.13877
 C399 C 0.97055 0.91046 1.13075
 C400 C 0.95211 0.92246 1.14253
 C401 C 0.94441 0.91503 1.16367
 H402 H 0.95236 0.90077 1.17188
 O403 O 1.02214 1.08136 1.11246
 O404 O 1.02209 1.10756 1.13880
 C405 C 1.02981 1.08925 1.13082
 C406 C 1.04824 1.07726 1.14266
 C407 C 1.05596 1.08472 1.16377
 H408 H 1.04803 1.09901 1.17193
 O409 O 0.88799 0.97783 1.08139
 O410 O 0.86162 0.97777 1.10757
 C411 C 0.86964 0.97013 1.08924
 C412 C 0.85785 0.95176 1.07717
 C413 C 0.83668 0.94412 1.08451
 H414 H 0.82845 0.95208 1.09874
 O415 O 1.11224 1.02201 1.08155
 O416 O 1.13862 1.02204 1.10774
 C417 C 1.13059 1.02970 1.08940
 C418 C 1.14238 1.04810 1.07732
 C419 C 1.16356 1.05571 1.08466
 H420 H 1.17178 1.04772 1.09889
 O421 O 0.91901 0.88764 1.02198
 O422 O 0.89283 0.86129 1.02197
 C423 C 0.91115 0.86928 1.02966
 C424 C 0.92319 0.85743 1.04806
 C425 C 0.91581 0.83627 1.05570
 H426 H 0.90158 0.82808 1.04772
 O427 O 1.08135 1.11232 1.02195
 O428 O 1.10752 1.13868 1.02199
 C429 C 1.08920 1.13067 1.02965
 C430 C 1.07715 1.14246 1.04805
 C431 C 1.08449 1.16362 1.05569
 H432 H 1.09871 1.17185 1.04771
 Cu433 Cu 1.09427 1.00002 1.09443
 Cu434 Cu 1.12584 1.00002 1.12597
 Cu435 Cu 0.90602 0.99977 1.09423
 Cu436 Cu 0.87446 0.99974 1.12577
 Cu437 Cu 1.00014 1.09406 1.09432
 Cu438 Cu 1.00004 1.12560 1.12585
 Cu439 Cu 1.00029 0.90563 1.09435
 Cu440 Cu 1.00030 0.87407 1.12592
 C441 C 1.05894 1.05879 1.13238
 H442 H 1.05328 1.05313 1.11597
 C443 C 1.07415 1.07401 1.17431
 C444 C 0.94138 0.94091 1.13219
 H445 H 0.94702 0.94655 1.11576
 C446 C 0.92622 0.92575 1.17418
 C447 C 1.05877 1.13208 1.05882
 H448 H 1.05321 1.11563 1.05323
 C449 C 1.07374 1.17413 1.07386
 C450 C 0.94160 0.86775 1.05883
 H451 H 0.94719 0.88420 1.05324
 C452 C 0.92656 0.82570 1.07386
 C453 C 1.13202 1.05886 1.05890
 H454 H 1.11555 1.05329 1.05334
 C455 C 1.17410 1.07384 1.07387
 C456 C 0.86821 0.94103 1.05877
 H457 H 0.88467 0.94662 1.05320
 C458 C 0.82616 0.92598 1.07374
 C459 C 0.94140 1.05850 1.13215
 H460 H 0.94697 1.05297 1.11567
 C461 C 0.92642 1.07341 1.17426
 C462 C 1.05895 0.94114 1.13230
 H463 H 1.05338 0.94672 1.11582
 C464 C 1.07396 0.92614 1.17440
 C465 C 1.13228 0.94128 1.05902
 H466 H 1.11583 0.94686 1.05342
 C467 C 1.17433 0.92627 1.07410
 C468 C 0.86811 1.05862 1.05880
 H469 H 0.88455 1.05303 1.05320
 C470 C 0.82608 1.07367 1.07387
 C471 C 0.94127 1.13191 1.05883
 H472 H 0.94687 1.11547 1.05324
 C473 C 0.92620 1.17393 1.07388
 C474 C 1.05920 0.86781 1.05905
 H475 H 1.05355 0.88423 1.05341
 C476 C 1.07441 0.82585 1.07424
 O477 O 1.08170 0.97809 0.88770
 O478 O 1.10791 0.97813 0.86136
 C479 C 1.08960 0.97043 0.86934
 C480 C 1.07760 0.95203 0.85751
 C481 C 1.08503 0.94438 0.83636
 H482 H 1.09930 0.95234 0.82819
 O483 O 0.91871 1.02216 0.88750
 O484 O 0.89249 1.02212 0.86116
 C485 C 0.91079 1.02984 0.86913
 C486 C 0.92275 1.04828 0.85729
 C487 C 0.91524 1.05602 0.83619
 H488 H 0.90096 1.04809 0.82804
 O489 O 0.97800 1.11226 0.91842
 O490 O 0.97800 1.13865 0.89223
 C491 C 0.97032 1.13063 0.91056
 C492 C 0.95193 1.14243 0.92262
 C493 C 0.94426 1.16359 0.91525
 H494 H 0.95220 1.17181 0.90099
 O495 O 1.02232 0.88795 0.91863
 O496 O 1.02238 0.86160 0.89244
 C497 C 1.03002 0.86960 0.91079
 C498 C 1.04838 0.85777 0.92288
 C499 C 1.05600 0.83660 0.91555
 H500 H 1.04804 0.82841 0.90129
 O501 O 1.11253 0.91866 0.97820
 O502 O 1.13891 0.89249 0.97817
 C503 C 1.13089 0.91081 0.97049
 C504 C 1.14268 0.92287 0.95207
 C505 C 1.16382 0.91547 0.94440
 H506 H 1.17203 0.90122 0.95236
 O507 O 0.88783 1.08136 0.97794
 O508 O 0.86146 1.10754 0.97794
 C509 C 0.86947 1.08923 0.97025
 C510 C 0.85767 1.07722 0.95183
 C511 C 0.83652 1.08460 0.94416
 H512 H 0.82830 1.09883 0.95212
 O513 O 1.02194 1.08138 0.88762
 O514 O 1.02201 1.10760 0.86125
 C515 C 1.02966 1.08926 0.86927
 C516 C 1.04807 1.07721 0.85748
 C517 C 1.05566 1.08455 0.83627
 H518 H 1.04765 1.09875 0.82803
 O519 O 0.97839 0.91880 0.88770
 O520 O 0.97839 0.89262 0.86135
 C521 C 0.97071 0.91094 0.86934
 C522 C 0.95232 0.92298 0.85750
 C523 C 0.94469 0.91561 0.83633
 H524 H 0.95267 0.90137 0.82814
 O525 O 1.11243 1.02206 0.91860
 O526 O 1.13880 1.02215 0.89242
 C527 C 1.13077 1.02979 0.91074
 C528 C 1.14254 1.04820 0.92280
 C529 C 1.16368 1.05589 0.91542
 H530 H 1.17190 1.04795 0.90118
 O531 O 0.88806 0.97814 0.91849
 O532 O 0.86168 0.97805 0.89231
 C533 C 0.86971 0.97041 0.91065
 C534 C 0.85794 0.95201 0.92274
 C535 C 0.83675 0.94441 0.91543
 H536 H 0.82850 0.95241 0.90122
 O537 O 1.08134 1.11229 0.97797
 O538 O 1.10750 1.13866 0.97795
 C539 C 1.08920 1.13065 0.97026
 C540 C 1.07716 1.14245 0.95183
 C541 C 1.08452 1.16362 0.94418
 H542 H 1.09875 1.17183 0.95216
 O543 O 0.91901 0.88770 0.97800
 O544 O 0.89283 0.86134 0.97793
 C545 C 0.91115 0.86936 0.97028
 C546 C 0.92320 0.85758 0.95187
 C547 C 0.91585 0.83642 0.94423
 H548 H 0.90163 0.82820 0.95221
 O549 O 0.91890 0.97821 0.88762
 O550 O 0.89268 0.97811 0.86127
 C551 C 0.91104 0.97049 0.86927
 C552 C 0.92312 0.95212 0.85747
 C553 C 0.91576 0.94449 0.83630
 H554 H 0.90151 0.95244 0.82808
 O555 O 1.08154 1.02203 0.88776
 O556 O 1.10775 1.02213 0.86141
 C557 C 1.08940 1.02975 0.86940
 C558 C 1.07730 1.04811 0.85754
 C559 C 1.08463 1.05571 0.83634
 H560 H 1.09888 1.04776 0.82813
 O561 O 0.97838 0.88784 0.91850
 O562 O 0.97839 0.86150 0.89230
 C563 C 0.97071 0.86949 0.91063
 C564 C 0.95234 0.85764 0.92268
 C565 C 0.94473 0.83648 0.91530
 H566 H 0.95270 0.82830 0.90104
 O567 O 1.02194 1.11228 0.91840
 O568 O 1.02200 1.13866 0.89220
 C569 C 1.02965 1.13064 0.91054
 C570 C 1.04802 1.14245 0.92261
 C571 C 1.05565 1.16361 0.91523
 H572 H 1.04770 1.17181 0.90097
 O573 O 0.88819 0.91858 0.97800
 O574 O 0.86185 0.89239 0.97794
 C575 C 0.86984 0.91073 0.97029
 C576 C 0.85801 0.92281 0.95191
 C577 C 0.83681 0.91549 0.94434
 H578 H 0.82861 0.90125 0.95234
 O579 O 1.11225 1.08149 0.97802
 O580 O 1.13857 1.10770 0.97801
 C581 C 1.13060 1.08937 0.97034
 C582 C 1.14245 1.07735 0.95196
 C583 C 1.16359 1.08478 0.94432
 H584 H 1.17174 1.09904 0.95228
 O585 O 1.02233 0.91870 0.88764
 O586 O 1.02239 0.89251 0.86129
 C587 C 1.03005 0.91083 0.86928
 C588 C 1.04845 0.92287 0.85748
 C589 C 1.05615 0.91548 0.83634
 H590 H 1.04821 0.90122 0.82813
 O591 O 0.97799 1.08156 0.88743
 O592 O 0.97799 1.10779 0.86108
 C593 C 0.97030 1.08947 0.86907
 C594 C 0.95188 1.07747 0.85726
 C595 C 0.94410 1.08495 0.83615
 H596 H 0.95200 1.09925 0.82797
 O597 O 0.88795 1.02208 0.91845
 O598 O 0.86157 1.02205 0.89226
 C599 C 0.86957 1.02973 0.91058
 C600 C 0.85772 1.04810 0.92263
 C601 C 0.83657 1.05574 0.91523
 H602 H 0.82839 1.04779 0.90096
 O603 O 1.11246 0.97811 0.91866
 O604 O 1.13884 0.97814 0.89248
 C605 C 1.13083 0.97044 0.91080
 C606 C 1.14266 0.95204 0.92286
 C607 C 1.16380 0.94438 0.91546
 H608 H 1.17198 0.95234 0.90119
 O609 O 1.08165 0.88785 0.97823
 O610 O 1.10788 0.86152 0.97819
 C611 C 1.08954 0.86952 0.97053
 C612 C 1.07750 0.85772 0.95212
 C613 C 1.08485 0.83655 0.94451
 H614 H 1.09907 0.82832 0.95251
 O615 O 0.91869 1.11219 0.97795
 O616 O 0.89248 1.13853 0.97795
 C617 C 0.91080 1.13055 0.97026
 C618 C 0.92281 1.14239 0.95185
 C619 C 0.91541 1.16355 0.94421
 H620 H 0.90117 1.17173 0.95220
 Cu621 Cu 1.09441 1.00007 0.90581
 Cu622 Cu 1.12597 1.00015 0.87428
 Cu623 Cu 0.90604 1.00016 0.90563
 Cu624 Cu 0.87446 1.00007 0.87411
 Cu625 Cu 1.09416 1.09426 0.99999
 Cu626 Cu 1.12566 1.12582 0.99999
 Cu627 Cu 1.09448 0.90585 1.00021
 Cu628 Cu 1.12606 0.87435 1.00020
 Cu629 Cu 0.90591 1.09411 0.99993
 Cu630 Cu 0.87435 1.12563 0.99996
 Cu631 Cu 0.90621 0.90572 0.99999
 Cu632 Cu 0.87469 0.87418 0.99994
 Cu633 Cu 0.99996 1.09424 0.90559
 Cu634 Cu 1.00001 1.12582 0.87404
 Cu635 Cu 1.00035 0.90595 0.90574
 Cu636 Cu 1.00039 0.87442 0.87420
 C637 C 1.05916 0.94130 0.86781
 H638 H 1.05352 0.94690 0.88424
 C639 C 1.07432 0.92622 0.82581
 C640 C 0.94122 1.05899 0.86757
 H641 H 0.94691 1.05331 0.88397
 C642 C 0.92590 1.07424 0.82565
 C643 C 0.94123 1.13208 0.94107
 H644 H 0.94684 1.11563 0.94666
 C645 C 0.92612 1.17412 0.92604
 C646 C 1.05911 0.86809 0.94132
 H647 H 1.05354 0.88455 0.94689
 C648 C 1.07411 0.82602 0.92635
 C649 C 1.13235 0.94130 0.94132
 H650 H 1.11591 0.94691 0.94694
 C651 C 1.17435 0.92622 0.92622
 C652 C 0.86802 1.05881 0.94108
 H653 H 0.88447 1.05322 0.94670
 C654 C 0.82600 1.07387 0.92598
 C655 C 1.05886 1.05883 0.86787
 H656 H 1.05331 1.05327 0.88435
 C657 C 1.07381 1.07381 0.82574
 C658 C 0.94155 0.94140 0.86782
 H659 H 0.94713 0.94699 0.88428
 C660 C 0.92654 0.92635 0.82576
 C661 C 1.13217 1.05891 0.94122
 H662 H 1.11573 1.05328 0.94681
 C663 C 1.17417 1.07406 0.92617
 C664 C 0.86833 0.94123 0.94113
 H665 H 0.88480 0.94679 0.94667
 C666 C 0.82622 0.92628 0.92622
 C667 C 1.05876 1.13211 0.94107
 H668 H 1.05317 1.11566 0.94666
 C669 C 1.07378 1.17416 0.92600
 C670 C 0.94160 0.86795 0.94111
 H671 H 0.94717 0.88439 0.94671
 C672 C 0.92660 0.82590 0.92607
 O673 O 0.97814 0.41844 0.38748
 O674 O 0.97807 0.39223 0.36115
 C675 C 0.97042 0.41056 0.36914
 C676 C 0.95200 0.42259 0.35731
 C677 C 0.94434 0.41519 0.33616
 H678 H 0.95231 0.40094 0.32798
 O679 O 1.02205 0.58124 0.38721
 O680 O 1.02204 0.60746 0.36083
 C681 C 1.02974 0.58914 0.36885
 C682 C 1.04818 0.57715 0.35705
 C683 C 1.05589 0.58462 0.33593
 H684 H 1.04795 0.59890 0.32775
 O685 O 0.88780 0.47780 0.41831
 O686 O 0.86143 0.47780 0.39211
 C687 C 0.86944 0.47012 0.41045
 C688 C 0.85763 0.45172 0.42251
 C689 C 0.83650 0.44405 0.41510
 H690 H 0.82831 0.45198 0.40081
 O691 O 1.11233 0.52187 0.41820
 O692 O 1.13869 0.52190 0.39200
 C693 C 1.13068 0.52957 0.41033
 C694 C 1.14247 0.54796 0.42237
 C695 C 1.16362 0.55564 0.41500
 H696 H 1.17184 0.54770 0.40076
 O697 O 0.91869 0.38769 0.47800
 O698 O 0.89254 0.36131 0.47794
 C699 C 0.91087 0.36933 0.47030
 C700 C 0.92297 0.35752 0.45194
 C701 C 0.91569 0.33631 0.44440
 H702 H 0.90149 0.32807 0.45241
 O703 O 1.08133 0.61209 0.47764
 O704 O 1.10753 0.63843 0.47759
 C705 C 1.08920 0.63044 0.46993
 C706 C 1.07715 0.64226 0.45152
 C707 C 1.08448 0.66345 0.44390
 H708 H 1.09869 0.67167 0.45189
 O709 O 0.91864 0.52175 0.38740
 O710 O 0.89243 0.52180 0.36104
 C711 C 0.91076 0.52945 0.36903
 C712 C 0.92280 0.54783 0.35717
 C713 C 0.91541 0.55547 0.33599
 H714 H 0.90115 0.54751 0.32781
 O715 O 1.08147 0.47795 0.38737
 O716 O 1.10766 0.47790 0.36101
 C717 C 1.08934 0.47024 0.36902
 C718 C 1.07729 0.45184 0.35723
 C719 C 1.08467 0.44417 0.33608
 H720 H 1.09891 0.45212 0.32785
 O721 O 1.02214 0.38756 0.41832
 O722 O 1.02212 0.36121 0.39213
 C723 C 1.02982 0.36920 0.41044
 C724 C 1.04823 0.35738 0.42247
 C725 C 1.05592 0.33626 0.41504
 H726 H 1.04798 0.32809 0.40078
 O727 O 0.97806 0.61204 0.41807
 O728 O 0.97799 0.63840 0.39184
 C729 C 0.97035 0.63040 0.41018
 C730 C 0.95196 0.64221 0.42223
 C731 C 0.94429 0.66336 0.41483
 H732 H 0.95222 0.67155 0.40055
 O733 O 0.88792 0.58120 0.47772
 O734 O 0.86155 0.60739 0.47767
 C735 C 0.86956 0.58906 0.47003
 C736 C 0.85772 0.57699 0.45168
 C737 C 0.83652 0.58431 0.44411
 H738 H 0.82831 0.59853 0.45210
 O739 O 1.11233 0.41843 0.47771
 O740 O 1.13869 0.39224 0.47772
 C741 C 1.13069 0.41056 0.47003
 C742 C 1.14250 0.42261 0.45161
 C743 C 1.16364 0.41521 0.44394
 H744 H 1.17184 0.40095 0.45190
 O745 O 0.97809 0.58116 0.38726
 O746 O 0.97802 0.60735 0.36087
 C747 C 0.97038 0.58903 0.36890
 C748 C 0.95198 0.57698 0.35710
 C749 C 0.94432 0.58435 0.33593
 H750 H 0.95227 0.59859 0.32770
 O751 O 1.02209 0.41851 0.38751
 O752 O 1.02208 0.39231 0.36117
 C753 C 1.02976 0.41064 0.36915
 C754 C 1.04814 0.42267 0.35730
 C755 C 1.05577 0.41527 0.33614
 H756 H 1.04782 0.40102 0.32797
 O757 O 1.11234 0.47792 0.41822
 O758 O 1.13869 0.47788 0.39202
 C759 C 1.13069 0.47022 0.41036
 C760 C 1.14249 0.45180 0.42242
 C761 C 1.16364 0.44415 0.41503
 H762 H 1.17183 0.45211 0.40077
 O763 O 0.88785 0.52175 0.41832
 O764 O 0.86147 0.52180 0.39213
 C765 C 0.86949 0.52945 0.41046
 C766 C 0.85768 0.54783 0.42252
 C767 C 0.83648 0.55542 0.41521
 H768 H 0.82824 0.54744 0.40100
 O769 O 0.91873 0.61208 0.47763
 O770 O 0.89252 0.63842 0.47758
 C771 C 0.91084 0.63042 0.46991
 C772 C 0.92284 0.64222 0.45146
 C773 C 0.91544 0.66337 0.44379
 H774 H 0.90120 0.67157 0.45177
 O775 O 1.08155 0.38752 0.47773
 O776 O 1.10775 0.36117 0.47774
 C777 C 1.08943 0.36917 0.47005
 C778 C 1.07741 0.35737 0.45164
 C779 C 1.08484 0.33625 0.44395
 H780 H 1.09912 0.32806 0.45189
 O781 O 1.08153 0.52190 0.38727
 O782 O 1.10773 0.52191 0.36092
 C783 C 1.08941 0.52959 0.36890
 C784 C 1.07738 0.54801 0.35707
 C785 C 1.08483 0.55575 0.33595
 H786 H 1.09913 0.54785 0.32779
 O787 O 0.91866 0.47781 0.38746
 O788 O 0.89245 0.47780 0.36110
 C789 C 0.91078 0.47012 0.36910
 C790 C 0.92282 0.45173 0.35729
 C791 C 0.91542 0.44407 0.33614
 H792 H 0.90116 0.45202 0.32794
 O793 O 1.02200 0.61204 0.41810
 O794 O 1.02199 0.63841 0.39189
 C795 C 1.02966 0.63041 0.41023
 C796 C 1.04802 0.64224 0.42230
 C797 C 1.05561 0.66343 0.41494
 H798 H 1.04764 0.67164 0.40069
 O799 O 0.97819 0.38770 0.41850
 O800 O 0.97813 0.36133 0.39232
 C801 C 0.97049 0.36934 0.41066
 C802 C 0.95214 0.35753 0.42277
 C803 C 0.94459 0.33631 0.41549
 H804 H 0.95260 0.32808 0.40129
 O805 O 1.11223 0.58127 0.47764
 O806 O 1.13858 0.60746 0.47761
 C807 C 1.13058 0.58914 0.46994
 C808 C 1.14241 0.57711 0.45155
 C809 C 1.16356 0.58451 0.44392
 H810 H 1.17174 0.59876 0.45189
 O811 O 0.88774 0.41844 0.47792
 O812 O 0.86142 0.39222 0.47786
 C813 C 0.86941 0.41055 0.47019
 C814 C 0.85761 0.42258 0.45175
 C815 C 0.83648 0.41517 0.44407
 H816 H 0.82829 0.40093 0.45204
 Cu817 Cu 1.00014 0.40568 0.40557
 Cu818 Cu 1.00009 0.37413 0.37405
 Cu819 Cu 1.00005 0.59399 0.40528
 Cu820 Cu 1.00001 0.62554 0.37371
 Cu821 Cu 0.90586 0.49978 0.40549
 Cu822 Cu 0.87430 0.49980 0.37395
 Cu823 Cu 1.09429 0.49991 0.40539
 Cu824 Cu 1.12584 0.49989 0.37385
 C825 C 0.94126 0.44101 0.36763
 H826 H 0.94687 0.44662 0.38407
 C827 C 0.92618 0.42592 0.32561
 C828 C 1.05890 0.55869 0.36737
 H829 H 1.05325 0.55302 0.38378
 C830 C 1.07410 0.57394 0.32542
 C831 C 0.86794 0.44101 0.44099
 H832 H 0.88436 0.44663 0.44661
 C833 C 0.82596 0.42589 0.42586
 C834 C 1.13212 0.55868 0.44080
 H835 H 1.11567 0.55307 0.44639
 C836 C 1.17413 0.57379 0.42577
 C837 C 0.94135 0.36789 0.44115
 H838 H 0.94687 0.38438 0.44667
 C839 C 0.92650 0.32574 0.42630
 C840 C 1.05877 0.63190 0.44074
 H841 H 1.05321 0.61544 0.44632
 C842 C 1.07372 0.67400 0.42574
 C843 C 0.94124 0.55856 0.36748
 H844 H 0.94685 0.55297 0.38394
 C845 C 0.92616 0.57361 0.32541
 C846 C 1.05887 0.44111 0.36759
 H847 H 1.05328 0.44672 0.38404
 C848 C 1.07392 0.42601 0.32556
 C849 C 1.05896 0.36768 0.44092
 H850 H 1.05332 0.38410 0.44655
 C851 C 1.07411 0.32573 0.42577
 C852 C 0.94126 0.63189 0.44070
 H853 H 0.94687 0.61545 0.44632
 C854 C 0.92615 0.67391 0.42559
 C855 C 0.86806 0.55859 0.44091
 H856 H 0.88454 0.55304 0.44645
 C857 C 0.82593 0.57354 0.42600
 C858 C 1.13217 0.44106 0.44086
 H859 H 1.11573 0.44666 0.44647
 C860 C 1.17418 0.42597 0.42578
 O861 O 1.02201 0.41829 0.61213
 O862 O 1.02208 0.39208 0.63851
 C863 C 1.02973 0.41040 0.63049
 C864 C 1.04815 0.42244 0.64228
 C865 C 1.05583 0.41504 0.66345
 H866 H 1.04788 0.40080 0.67167
 O867 O 0.97811 0.58122 0.61192
 O868 O 0.97808 0.60738 0.63830
 C869 C 0.97041 0.58906 0.63029
 C870 C 0.95204 0.57700 0.64212
 C871 C 0.94442 0.58436 0.66331
 H872 H 0.95239 0.59860 0.67150
 O873 O 0.88785 0.52174 0.58115
 O874 O 0.86152 0.52182 0.60738
 C875 C 0.86952 0.52947 0.58903
 C876 C 0.85773 0.54789 0.57697
 C877 C 0.83658 0.55555 0.58434
 H878 H 0.82836 0.54758 0.59859
 O879 O 1.11229 0.47774 0.58116
 O880 O 1.13865 0.47773 0.60736
 C881 C 1.13066 0.47007 0.58903
 C882 C 1.14249 0.45170 0.57697
 C883 C 1.16368 0.44409 0.58433
 H884 H 1.17188 0.45206 0.59857
 O885 O 1.08146 0.38759 0.52171
 O886 O 1.10766 0.36124 0.52178
 C887 C 1.08932 0.36924 0.52943
 C888 C 1.07727 0.35742 0.54783
 C889 C 1.08462 0.33624 0.55546
 H890 H 1.09886 0.32803 0.54750
 O891 O 0.91877 0.61211 0.52161
 O892 O 0.89256 0.63846 0.52161
 C893 C 0.91089 0.63047 0.52929
 C894 C 0.92293 0.64229 0.54767
 C895 C 0.91555 0.66345 0.55529
 H896 H 0.90130 0.67165 0.54732
 O897 O 0.91867 0.47776 0.61207
 O898 O 0.89250 0.47778 0.63845
 C899 C 0.91081 0.47009 0.63045
 C900 C 0.92284 0.45169 0.64229
 C901 C 0.91545 0.44405 0.66346
 H902 H 0.90121 0.45202 0.67165
 O903 O 1.08140 0.52164 0.61201
 O904 O 1.10760 0.52168 0.63837
 C905 C 1.08927 0.52933 0.63037
 C906 C 1.07721 0.54771 0.64218
 C907 C 1.08456 0.55530 0.66338
 H908 H 1.09878 0.54730 0.67160
 O909 O 0.97802 0.38744 0.58134
 O910 O 0.97803 0.36108 0.60757
 C911 C 0.97033 0.36909 0.58924
 C912 C 0.95188 0.35731 0.57725
 C913 C 0.94415 0.33621 0.58472
 H914 H 0.95209 0.32802 0.59901
 O915 O 1.02209 0.61210 0.58112
 O916 O 1.02211 0.63841 0.60734
 C917 C 1.02978 0.63043 0.58901
 C918 C 1.04818 0.64225 0.57697
 C919 C 1.05588 0.66337 0.58439
 H920 H 1.04796 0.67154 0.59868
 O921 O 0.88770 0.41844 0.52190
 O922 O 0.86137 0.39224 0.52190
 C923 C 0.86935 0.41056 0.52958
 C924 C 0.85753 0.42258 0.54798
 C925 C 0.83639 0.41519 0.55567
 H926 H 0.82819 0.40094 0.54772
 O927 O 1.11217 0.58118 0.52161
 O928 O 1.13853 0.60736 0.52163
 C929 C 1.13052 0.58903 0.52931
 C930 C 1.14234 0.57697 0.54771
 C931 C 1.16350 0.58432 0.55534
 H932 H 1.17170 0.59857 0.54736
 O933 O 1.02204 0.58116 0.61194
 O934 O 1.02207 0.60732 0.63832
 C935 C 1.02972 0.58900 0.63031
 C936 C 1.04808 0.57691 0.64215
 C937 C 1.05569 0.58423 0.66334
 H938 H 1.04772 0.59847 0.67155
 O939 O 0.97806 0.41833 0.61214
 O940 O 0.97807 0.39213 0.63853
 C941 C 0.97039 0.41046 0.63052
 C942 C 0.95199 0.42250 0.64233
 C943 C 0.94434 0.41512 0.66351
 H944 H 0.95229 0.40087 0.67173
 O945 O 1.11221 0.52168 0.58111
 O946 O 1.13857 0.52173 0.60731
 C947 C 1.13056 0.52939 0.58897
 C948 C 1.14235 0.54779 0.57691
 C949 C 1.16352 0.55541 0.58427
 H950 H 1.17173 0.54744 0.59852
 O951 O 0.88775 0.47779 0.58126
 O952 O 0.86141 0.47781 0.60749
 C953 C 0.86939 0.47013 0.58916
 C954 C 0.85755 0.45174 0.57715
 C955 C 0.83642 0.44408 0.58457
 H956 H 0.82824 0.45203 0.59883
 O957 O 1.08141 0.61213 0.52162
 O958 O 1.10762 0.63846 0.52163
 C959 C 1.08930 0.63047 0.52932
 C960 C 1.07730 0.64227 0.54775
 C961 C 1.08474 0.66338 0.55543
 H962 H 1.09899 0.67157 0.54746
 O963 O 0.91854 0.38756 0.52198
 O964 O 0.89236 0.36120 0.52197
 C965 C 0.91066 0.36920 0.52967
 C966 C 0.92268 0.35737 0.54810
 C967 C 0.91521 0.33627 0.55584
 H968 H 0.90091 0.32812 0.54793
 O969 O 1.08144 0.47769 0.61202
 O970 O 1.10764 0.47767 0.63838
 C971 C 1.08932 0.47000 0.63039
 C972 C 1.07731 0.45159 0.64223
 C973 C 1.08472 0.44394 0.66339
 H974 H 1.09897 0.45190 0.67157
 O975 O 0.91869 0.52172 0.61202
 O976 O 0.89252 0.52179 0.63841
 C977 C 0.91084 0.52943 0.63038
 C978 C 0.92290 0.54782 0.64217
 C979 C 0.91556 0.55544 0.66335
 H980 H 0.90133 0.54746 0.67158
 O981 O 0.97815 0.61210 0.58106
 O982 O 0.97811 0.63842 0.60728
 C983 C 0.97046 0.63045 0.58893
 C984 C 0.95208 0.64228 0.57686
 C985 C 0.94444 0.66344 0.58423
 H986 H 0.95240 0.67163 0.59848
 O987 O 1.02197 0.38753 0.58120
 O988 O 1.02205 0.36116 0.60741
 C989 C 1.02969 0.36918 0.58907
 C990 C 1.04808 0.35738 0.57700
 C991 C 1.05570 0.33620 0.58436
 H992 H 1.04772 0.32798 0.59859
 O993 O 1.11236 0.41839 0.52169
 O994 O 1.13872 0.39219 0.52176
 C995 C 1.13071 0.41052 0.52940
 C996 C 1.14252 0.42256 0.54780
 C997 C 1.16370 0.41522 0.55542
 H998 H 1.17192 0.40099 0.54744
 O999 O 0.88794 0.58125 0.52169
 O1000 O 0.86157 0.60744 0.52169
 C1001 C 0.86958 0.58912 0.52938
 C1002 C 0.85777 0.57708 0.54779
 C1003 C 0.83661 0.58447 0.55543
 H1004 H 0.82843 0.59874 0.54746
 Cu1005 Cu 1.00001 0.40552 0.59408
 Cu1006 Cu 1.00007 0.37397 0.62565
 Cu1007 Cu 1.00010 0.59403 0.59388
 Cu1008 Cu 1.00009 0.62552 0.62546
 Cu1009 Cu 0.90579 0.40566 0.49996
 Cu1010 Cu 0.87428 0.37410 0.49991
 Cu1011 Cu 1.09430 0.40561 0.49971
 Cu1012 Cu 1.12585 0.37407 0.49976
 Cu1013 Cu 0.90597 0.59404 0.49967
 Cu1014 Cu 0.87441 0.62557 0.49963
 Cu1015 Cu 1.09416 0.59405 0.49962
 Cu1016 Cu 1.12570 0.62557 0.49961
 Cu1017 Cu 0.90586 0.49974 0.59400
 Cu1018 Cu 0.87435 0.49981 0.62558
 Cu1019 Cu 1.09420 0.49969 0.59395
 Cu1020 Cu 1.12576 0.49970 0.62550
 C1021 C 1.05887 0.44086 0.63192
 H1022 H 1.05324 0.44647 0.61547
 C1023 C 1.07399 0.42579 0.67397
 C1024 C 0.94130 0.55858 0.63180
 H1025 H 0.94687 0.55300 0.61534
 C1026 C 0.92631 0.57359 0.67389
 C1027 C 0.86808 0.55863 0.55854
 H1028 H 0.88452 0.55302 0.55295
 C1029 C 0.82605 0.57372 0.57358
 C1030 C 1.13216 0.44096 0.55855
 H1031 H 1.11570 0.44653 0.55297
 C1032 C 1.17425 0.42597 0.57356
 C1033 C 1.05884 0.36775 0.55858
 H1034 H 1.05326 0.38421 0.55300
 C1035 C 1.07385 0.32566 0.57360
 C1036 C 0.94135 0.63196 0.55843
 H1037 H 0.94695 0.61551 0.55285
 C1038 C 0.92630 0.67399 0.57345
 C1039 C 0.94126 0.44094 0.63197
 H1040 H 0.94686 0.44653 0.61552
 C1041 C 0.92619 0.42589 0.67404
 C1042 C 1.05882 0.55849 0.63182
 H1043 H 1.05325 0.55293 0.61534
 C1044 C 1.07380 0.57344 0.67392
 C1045 C 0.94117 0.36764 0.55878
 H1046 H 0.94683 0.38404 0.55311
 C1047 C 0.92593 0.32572 0.57403
 C1048 C 1.05887 0.63195 0.55849
 H1049 H 1.05323 0.61554 0.55287
 C1050 C 1.07404 0.67390 0.57363
 C1051 C 0.86786 0.44101 0.55870
 H1052 H 0.88429 0.44662 0.55308
 C1053 C 0.82587 0.42593 0.57384
 C1054 C 1.13201 0.55854 0.55847
 H1055 H 1.11555 0.55296 0.55289
 C1056 C 1.17405 0.57356 0.57349
 O1057 O 0.47771 0.91898 0.38776
 O1058 O 0.47773 0.89280 0.36141
 C1059 C 0.47004 0.91112 0.36940
 C1060 C 0.45165 0.92315 0.35755
 C1061 C 0.44400 0.91575 0.33640
 H1062 H 0.45196 0.90149 0.32823
 O1063 O 0.52177 1.08191 0.38776
 O1064 O 0.52179 1.10808 0.36135
 C1065 C 0.52945 1.08976 0.36937
 C1066 C 0.54781 1.07768 0.35755
 C1067 C 0.55542 1.08505 0.33636
 H1068 H 0.54746 1.09930 0.32814
 O1069 O 0.38752 0.97846 0.41857
 O1070 O 0.36120 0.97845 0.39233
 C1071 C 0.36918 0.97078 0.41068
 C1072 C 0.35736 0.95238 0.42273
 C1073 C 0.33621 0.94474 0.41535
 H1074 H 0.32801 0.95271 0.40109
 O1075 O 0.61191 1.02231 0.41866
 O1076 O 0.63825 1.02238 0.39243
 C1077 C 0.63026 1.03001 0.41078
 C1078 C 0.64210 1.04835 0.42286
 C1079 C 0.66332 1.05589 0.41556
 H1080 H 0.67153 1.04788 0.40134
 O1081 O 0.41832 0.88807 0.47799
 O1082 O 0.39214 0.86172 0.47801
 C1083 C 0.41045 0.86972 0.47032
 C1084 C 0.42248 0.85790 0.45192
 C1085 C 0.41508 0.83676 0.44425
 H1086 H 0.40082 0.82858 0.45221
 O1087 O 0.58129 1.11277 0.47802
 O1088 O 0.60750 1.13910 0.47793
 C1089 C 0.58917 1.13111 0.47028
 C1090 C 0.57714 1.14291 0.45183
 C1091 C 0.58457 1.16402 0.44409
 H1092 H 0.59884 1.17219 0.45202
 O1093 O 0.41844 1.02238 0.38774
 O1094 O 0.39229 1.02244 0.36133
 C1095 C 0.41060 1.03009 0.36936
 C1096 C 0.42267 1.04848 0.35755
 C1097 C 0.41536 1.05608 0.33634
 H1098 H 0.40116 1.04808 0.32810
 O1099 O 0.58108 0.97841 0.38777
 O1100 O 0.60725 0.97842 0.36138
 C1101 C 0.58894 0.97074 0.36940
 C1102 C 0.57690 0.95236 0.35758
 C1103 C 0.58428 0.94472 0.33642
 H1104 H 0.59852 0.95269 0.32822
 O1105 O 0.52167 0.88817 0.41869
 O1106 O 0.52175 0.86182 0.39250
 C1107 C 0.52939 0.86983 0.41084
 C1108 C 0.54779 0.85803 0.42291
 C1109 C 0.55541 0.83685 0.41560
 H1110 H 0.54742 0.82862 0.40138
 O1111 O 0.47786 1.11280 0.41859
 O1112 O 0.47781 1.13914 0.39233
 C1113 C 0.47015 1.13115 0.41068
 C1114 C 0.45173 1.14295 0.42270
 C1115 C 0.44406 1.16409 0.41528
 H1116 H 0.45203 1.17231 0.40104
 O1117 O 0.38744 1.08186 0.47781
 O1118 O 0.36108 1.10805 0.47779
 C1119 C 0.36909 1.08974 0.47011
 C1120 C 0.35729 1.07773 0.45168
 C1121 C 0.33617 1.08517 0.44394
 H1122 H 0.32799 1.09944 0.45186
 O1123 O 0.61215 0.91903 0.47801
 O1124 O 0.63849 0.89282 0.47802
 C1125 C 0.63049 0.91113 0.47032
 C1126 C 0.64229 0.92314 0.45187
 C1127 C 0.66341 0.91572 0.44417
 H1128 H 0.67161 0.90146 0.45213
 O1129 O 0.47784 1.08190 0.38780
 O1130 O 0.47780 1.10808 0.36138
 C1131 C 0.47015 1.08975 0.36941
 C1132 C 0.45179 1.07768 0.35758
 C1133 C 0.44420 1.08501 0.33637
 H1134 H 0.45217 1.09925 0.32814
 O1135 O 0.52165 0.91899 0.38777
 O1136 O 0.52173 0.89280 0.36142
 C1137 C 0.52937 0.91113 0.36941
 C1138 C 0.54775 0.92319 0.35760
 C1139 C 0.55540 0.91582 0.33643
 H1140 H 0.54745 0.90157 0.32824
 O1141 O 0.61204 0.97837 0.41853
 O1142 O 0.63837 0.97839 0.39229
 C1143 C 0.63040 0.97070 0.41063
 C1144 C 0.64223 0.95230 0.42266
 C1145 C 0.66336 0.94462 0.41522
 H1146 H 0.67152 0.95257 0.40093
 O1147 O 0.38746 1.02241 0.41846
 O1148 O 0.36115 1.02246 0.39221
 C1149 C 0.36912 1.03012 0.41055
 C1150 C 0.35731 1.04855 0.42254
 C1151 C 0.33620 1.05625 0.41507
 H1152 H 0.32803 1.04830 0.40080
 O1153 O 0.41833 1.11267 0.47787
 O1154 O 0.39212 1.13901 0.47785
 C1155 C 0.41046 1.13103 0.47019
 C1156 C 0.42251 1.14288 0.45182
 C1157 C 0.41511 1.16403 0.44414
 H1158 H 0.40083 1.17220 0.45207
 O1159 O 0.58120 0.88829 0.47808
 O1160 O 0.60739 0.86192 0.47810
 C1161 C 0.58906 0.86992 0.47042
 C1162 C 0.57699 0.85808 0.45206
 C1163 C 0.58434 0.83689 0.44449
 H1164 H 0.59858 0.82869 0.45247
 O1165 O 0.58112 1.02236 0.38772
 O1166 O 0.60730 1.02242 0.36134
 C1167 C 0.58898 1.03007 0.36935
 C1168 C 0.57693 1.04848 0.35754
 C1169 C 0.58428 1.05611 0.33635
 H1170 H 0.59850 1.04812 0.32813
 O1171 O 0.41832 0.97843 0.38766
 O1172 O 0.39215 0.97843 0.36126
 C1173 C 0.41046 0.97075 0.36929
 C1174 C 0.42249 0.95233 0.35750
 C1175 C 0.41511 0.94467 0.33634
 H1176 H 0.40086 0.95262 0.32812
 O1177 O 0.52182 1.11277 0.41859
 O1178 O 0.52183 1.13911 0.39233
 C1179 C 0.52951 1.13111 0.41067
 C1180 C 0.54794 1.14291 0.42267
 C1181 C 0.55565 1.16402 0.41520
 H1182 H 0.54770 1.17220 0.40091
 O1183 O 0.47772 0.88807 0.41860
 O1184 O 0.47774 0.86173 0.39240
 C1185 C 0.47005 0.86972 0.41072
 C1186 C 0.45165 0.85789 0.42275
 C1187 C 0.44399 0.83676 0.41535
 H1188 H 0.45195 0.82857 0.40110
 O1189 O 0.61200 1.08177 0.47811
 O1190 O 0.63837 1.10794 0.47801
 C1191 C 0.63035 1.08961 0.47039
 C1192 C 0.64215 1.07751 0.45203
 C1193 C 0.66336 1.08477 0.44445
 H1194 H 0.67161 1.09897 0.45245
 O1195 O 0.38754 0.91901 0.47802
 O1196 O 0.36120 0.89281 0.47802
 C1197 C 0.36919 0.91114 0.47033
 C1198 C 0.35737 0.92319 0.45193
 C1199 C 0.33621 0.91582 0.44427
 H1200 H 0.32802 0.90157 0.45224
 Cu1201 Cu 0.49968 0.90618 0.40583
 Cu1202 Cu 0.49974 0.87465 0.37429
 Cu1203 Cu 0.49982 1.09473 0.40582
 Cu1204 Cu 0.49980 1.12624 0.37421
 Cu1205 Cu 0.40556 1.00042 0.40574
 Cu1206 Cu 0.37406 1.00045 0.37414
 Cu1207 Cu 0.59391 1.00036 0.40580
 Cu1208 Cu 0.62543 1.00041 0.37422
 C1209 C 0.44092 0.94160 0.36785
 H1210 H 0.44652 0.94721 0.38430
 C1211 C 0.42585 0.92650 0.32583
 C1212 C 0.55854 1.05924 0.36789
 H1213 H 0.55296 1.05366 0.38436
 C1214 C 0.57354 1.07427 0.32579
 C1215 C 0.36769 0.94163 0.44118
 H1216 H 0.38413 0.94722 0.44678
 C1217 C 0.32567 0.92659 0.42611
 C1218 C 0.63176 1.05914 0.44126
 H1219 H 0.61526 1.05363 0.44680
 C1220 C 0.67391 1.07397 0.42634
 C1221 C 0.44092 0.86821 0.44119
 H1222 H 0.44653 0.88464 0.44680
 C1223 C 0.42582 0.82622 0.42609
 C1224 C 0.55867 1.13260 0.44114
 H1225 H 0.55303 1.11619 0.44681
 C1226 C 0.57384 1.17454 0.42590
 C1227 C 0.44104 1.05926 0.36793
 H1228 H 0.44658 1.05370 0.38442
 C1229 C 0.42611 1.07422 0.32578
 C1230 C 0.55848 0.94161 0.36793
 H1231 H 0.55288 0.94720 0.38438
 C1232 C 0.57354 0.92657 0.32588
 C1233 C 0.55856 0.86840 0.44130
 H1234 H 0.55299 0.88487 0.44684
 C1235 C 0.57356 0.82631 0.42638
 C1236 C 0.44098 1.13259 0.44112
 H1237 H 0.44660 1.11615 0.44674
 C1238 C 0.42587 1.17460 0.42600
 C1239 C 0.36761 1.05927 0.44099
 H1240 H 0.38402 1.05363 0.44666
 C1241 C 0.32566 1.07444 0.42576
 C1242 C 0.63195 0.94158 0.44114
 H1243 H 0.61553 0.94721 0.44678
 C1244 C 0.67391 0.92645 0.42597
 O1245 O 0.52181 0.91914 0.61229
 O1246 O 0.52187 0.89294 0.63868
 C1247 C 0.52951 0.91127 0.63066
 C1248 C 0.54790 0.92332 0.64247
 C1249 C 0.55552 0.91596 0.66366
 H1250 H 0.54755 0.90172 0.67188
 O1251 O 0.47781 1.08178 0.61214
 O1252 O 0.47773 1.10797 0.63850
 C1253 C 0.47009 1.08964 0.63049
 C1254 C 0.45170 1.07758 0.64230
 C1255 C 0.44406 1.08496 0.66346
 H1256 H 0.45202 1.09920 0.67166
 O1257 O 0.38751 1.02225 0.58131
 O1258 O 0.36116 1.02230 0.60751
 C1259 C 0.36916 1.02994 0.58916
 C1260 C 0.35733 1.04831 0.57706
 C1261 C 0.33613 1.05590 0.58438
 H1262 H 0.32791 1.04791 0.59861
 O1263 O 0.61211 0.97864 0.58139
 O1264 O 0.63844 0.97854 0.60763
 C1265 C 0.63045 0.97091 0.58928
 C1266 C 0.64226 0.95253 0.57723
 C1267 C 0.66343 0.94489 0.58459
 H1268 H 0.67164 0.95285 0.59883
 O1269 O 0.58128 0.88826 0.52205
 O1270 O 0.60748 0.86190 0.52212
 C1271 C 0.58915 0.86991 0.52977
 C1272 C 0.57711 0.85809 0.54817
 C1273 C 0.58447 0.83692 0.55581
 H1274 H 0.59870 0.82871 0.54783
 O1275 O 0.41828 1.11263 0.52184
 O1276 O 0.39207 1.13897 0.52187
 C1277 C 0.41040 1.13097 0.52954
 C1278 C 0.42244 1.14278 0.54794
 C1279 C 0.41506 1.16394 0.55557
 H1280 H 0.40080 1.17214 0.54761
 O1281 O 0.41838 0.97835 0.61228
 O1282 O 0.39219 0.97835 0.63866
 C1283 C 0.41051 0.97068 0.63066
 C1284 C 0.42256 0.95229 0.64251
 C1285 C 0.41516 0.94461 0.66366
 H1286 H 0.40088 0.95254 0.67184
 O1287 O 0.58125 1.02254 0.61227
 O1288 O 0.60742 1.02252 0.63867
 C1289 C 0.58910 1.03020 0.63065
 C1290 C 0.57705 1.04859 0.64246
 C1291 C 0.58443 1.05625 0.66362
 H1292 H 0.59869 1.04830 0.67182
 O1293 O 0.47790 0.88825 0.58145
 O1294 O 0.47791 0.86188 0.60767
 C1295 C 0.47024 0.86988 0.58933
 C1296 C 0.45188 0.85804 0.57726
 C1297 C 0.44432 0.83684 0.58461
 H1298 H 0.45231 0.82863 0.59885
 O1299 O 0.52175 1.11274 0.58134
 O1300 O 0.52172 1.13907 0.60754
 C1301 C 0.52942 1.13109 0.58922
 C1302 C 0.54783 1.14291 0.57719
 C1303 C 0.55549 1.16405 0.58458
 H1304 H 0.54752 1.17224 0.59883
 O1305 O 0.38752 0.91892 0.52200
 O1306 O 0.36119 0.89271 0.52206
 C1307 C 0.36919 0.91103 0.52972
 C1308 C 0.35739 0.92302 0.54816
 C1309 C 0.33632 0.91553 0.55591
 H1310 H 0.32816 0.90124 0.54799
 O1311 O 0.61219 1.08200 0.52209
 O1312 O 0.63854 1.10819 0.52205
 C1313 C 0.63055 1.08989 0.52977
 C1314 C 0.64236 1.07788 0.54822
 C1315 C 0.66346 1.08533 0.55596
 H1316 H 0.67164 1.09961 0.54802
 O1317 O 0.52177 1.08187 0.61223
 O1318 O 0.52173 1.10806 0.63859
 C1319 C 0.52943 1.08975 0.63060
 C1320 C 0.54784 1.07772 0.64244
 C1321 C 0.55550 1.08512 0.66360
 H1322 H 0.54753 1.09936 0.67178
 O1323 O 0.47786 0.91902 0.61237
 O1324 O 0.47786 0.89282 0.63875
 C1325 C 0.47017 0.91113 0.63074
 C1326 C 0.45175 0.92314 0.64254
 C1327 C 0.44408 0.91573 0.66370
 H1328 H 0.45204 0.90147 0.67190
 O1329 O 0.61219 1.02259 0.58150
 O1330 O 0.63851 1.02256 0.60774
 C1331 C 0.63054 1.03026 0.58941
 C1332 C 0.64235 1.04869 0.57741
 C1333 C 0.66345 1.05640 0.58488
 H1334 H 0.67162 1.04845 0.59917
 O1335 O 0.38750 0.97830 0.58144
 O1336 O 0.36116 0.97829 0.60765
 C1337 C 0.36916 0.97060 0.58934
 C1338 C 0.35737 0.95216 0.57734
 C1339 C 0.33630 0.94440 0.58483
 H1340 H 0.32813 0.95230 0.59913
 O1341 O 0.58120 1.11272 0.52200
 O1342 O 0.60739 1.13907 0.52197
 C1343 C 0.58907 1.13108 0.52965
 C1344 C 0.57702 1.14290 0.54804
 C1345 C 0.58441 1.16404 0.55569
 H1346 H 0.59868 1.17222 0.54774
 O1347 O 0.41847 0.88817 0.52196
 O1348 O 0.39230 0.86180 0.52204
 C1349 C 0.41063 0.86981 0.52968
 C1350 C 0.42272 0.85801 0.54807
 C1351 C 0.41542 0.83681 0.55569
 H1352 H 0.40121 0.82858 0.54770
 O1353 O 0.58127 0.97860 0.61227
 O1354 O 0.60744 0.97851 0.63867
 C1355 C 0.58912 0.97087 0.63064
 C1356 C 0.57706 0.95248 0.64246
 C1357 C 0.58442 0.94484 0.66365
 H1358 H 0.59865 0.95280 0.67186
 O1359 O 0.41836 1.02230 0.61219
 O1360 O 0.39218 1.02236 0.63855
 C1361 C 0.41050 1.03002 0.63054
 C1362 C 0.42254 1.04842 0.64233
 C1363 C 0.41516 1.05607 0.66349
 H1364 H 0.40091 1.04812 0.67170
 O1365 O 0.47779 1.11267 0.58128
 O1366 O 0.47771 1.13901 0.60748
 C1367 C 0.47006 1.13101 0.58914
 C1368 C 0.45165 1.14281 0.57709
 C1369 C 0.44400 1.16396 0.58445
 H1370 H 0.45198 1.17217 0.59868
 O1371 O 0.52184 0.88824 0.58150
 O1372 O 0.52190 0.86188 0.60773
 C1373 C 0.52955 0.86988 0.58939
 C1374 C 0.54795 0.85808 0.57735
 C1375 C 0.55557 0.83690 0.58472
 H1376 H 0.54760 0.82868 0.59896
 O1377 O 0.61206 0.91917 0.52198
 O1378 O 0.63842 0.89297 0.52206
 C1379 C 0.63042 0.91130 0.52969
 C1380 C 0.64224 0.92336 0.54807
 C1381 C 0.66341 0.91600 0.55570
 H1382 H 0.67161 0.90175 0.54773
 O1383 O 0.38750 1.08172 0.52179
 O1384 O 0.36112 1.10790 0.52183
 C1385 C 0.36914 1.08957 0.52948
 C1386 C 0.35732 1.07748 0.54786
 C1387 C 0.33612 1.08480 0.55544
 H1388 H 0.32790 1.09902 0.54743
 Cu1389 Cu 0.49984 0.90629 0.59428
 Cu1390 Cu 0.49989 0.87474 0.62585
 Cu1391 Cu 0.49979 1.09465 0.59412
 Cu1392 Cu 0.49971 1.12617 0.62567
 Cu1393 Cu 0.40558 0.90617 0.49998
 Cu1394 Cu 0.37407 0.87462 0.50004
 Cu1395 Cu 0.59405 0.90632 0.50002
 Cu1396 Cu 0.62559 0.87476 0.50008
 Cu1397 Cu 0.40551 1.09459 0.49983
 Cu1398 Cu 0.37395 1.12612 0.49984
 Cu1399 Cu 0.59405 1.09469 0.50007
 Cu1400 Cu 0.62559 1.12622 0.49997
 Cu1401 Cu 0.40556 1.00030 0.59418
 Cu1402 Cu 0.37403 1.00034 0.62574
 Cu1403 Cu 0.59409 1.00060 0.59423
 Cu1404 Cu 0.62559 1.00052 0.62582
 C1405 C 0.55865 0.94174 0.63211
 H1406 H 0.55307 0.94733 0.61564
 C1407 C 0.57366 0.92670 0.67421
 C1408 C 0.44097 1.05915 0.63198
 H1409 H 0.44657 1.05356 0.61553
 C1410 C 0.42591 1.07422 0.67402
 C1411 C 0.36768 1.05908 0.55865
 H1412 H 0.38416 1.05354 0.55311
 C1413 C 0.32556 1.07401 0.57357
 C1414 C 0.63191 0.94179 0.55881
 H1415 H 0.61545 0.94737 0.55322
 C1416 C 0.67397 0.92675 0.57383
 C1417 C 0.55869 0.86843 0.55892
 H1418 H 0.55311 0.88489 0.55333
 C1419 C 0.57371 0.82635 0.57396
 C1420 C 0.44089 1.13246 0.55868
 H1421 H 0.44649 1.11602 0.55309
 C1422 C 0.42583 1.17450 0.57370
 C1423 C 0.44101 0.94158 0.63220
 H1424 H 0.44663 0.94720 0.61576
 C1425 C 0.42590 0.92645 0.67422
 C1426 C 0.55860 1.05930 0.63212
 H1427 H 0.55300 1.05369 0.61568
 C1428 C 0.57367 1.07439 0.67415
 C1429 C 0.44110 0.86838 0.55884
 H1430 H 0.44663 0.88486 0.55327
 C1431 C 0.42621 0.82626 0.57383
 C1432 C 0.55857 1.13259 0.55876
 H1433 H 0.55297 1.11615 0.55316
 C1434 C 0.57366 1.17458 0.57384
 C1435 C 0.36767 0.94149 0.55885
 H1436 H 0.38406 0.94717 0.55317
 C1437 C 0.32580 0.92620 0.57413
 C1438 C 0.63206 1.05941 0.55893
 H1439 H 0.61566 1.05377 0.55326
 C1440 C 0.67398 1.07460 0.57417
 O1441 O 0.47806 0.41842 0.88789
 O1442 O 0.47804 0.39224 0.86153
 C1443 C 0.47038 0.41057 0.86952
 C1444 C 0.45201 0.42264 0.85768
 C1445 C 0.44439 0.41530 0.83650
 H1446 H 0.45236 0.40106 0.82829
 O1447 O 0.52197 0.58126 0.88809
 O1448 O 0.52203 0.60747 0.86171
 C1449 C 0.52968 0.58914 0.86972
 C1450 C 0.54806 0.57708 0.85790
 C1451 C 0.55568 0.58445 0.83672
 H1452 H 0.54772 0.59871 0.82851
 O1453 O 0.38782 0.47783 0.91872
 O1454 O 0.36148 0.47787 0.89250
 C1455 C 0.36946 0.47017 0.91083
 C1456 C 0.35763 0.45178 0.92287
 C1457 C 0.33649 0.44414 0.91545
 H1458 H 0.32832 0.45210 0.90117
 O1459 O 0.61226 0.52166 0.91887
 O1460 O 0.63860 0.52173 0.89266
 C1461 C 0.63061 0.52937 0.91100
 C1462 C 0.64242 0.54774 0.92305
 C1463 C 0.66358 0.55538 0.91568
 H1464 H 0.67179 0.54743 0.90143
 O1465 O 0.41859 0.38760 0.97822
 O1466 O 0.39239 0.36125 0.97822
 C1467 C 0.41071 0.36925 0.97053
 C1468 C 0.42273 0.35744 0.95212
 C1469 C 0.41530 0.33632 0.94444
 H1470 H 0.40104 0.32814 0.95239
 O1471 O 0.58142 0.61192 0.97832
 O1472 O 0.60762 0.63827 0.97832
 C1473 C 0.58929 0.63029 0.97065
 C1474 C 0.57723 0.64216 0.95227
 C1475 C 0.58459 0.66334 0.94467
 H1476 H 0.59883 0.67152 0.95265
 O1477 O 0.41871 0.52180 0.88791
 O1478 O 0.39252 0.52190 0.86154
 C1479 C 0.41084 0.52953 0.86955
 C1480 C 0.42289 0.54793 0.85775
 C1481 C 0.41556 0.55556 0.83655
 H1482 H 0.40135 0.54759 0.82832
 O1483 O 0.58140 0.47778 0.88798
 O1484 O 0.60759 0.47779 0.86161
 C1485 C 0.58927 0.47011 0.86961
 C1486 C 0.57724 0.45174 0.85777
 C1487 C 0.58463 0.44412 0.83661
 H1488 H 0.59888 0.45210 0.82842
 O1489 O 0.52197 0.38752 0.91882
 O1490 O 0.52200 0.36118 0.89262
 C1491 C 0.52966 0.36917 0.91096
 C1492 C 0.54804 0.35733 0.92302
 C1493 C 0.55569 0.33619 0.91564
 H1494 H 0.54774 0.32801 0.90137
 O1495 O 0.47800 0.61213 0.91888
 O1496 O 0.47799 0.63850 0.89266
 C1497 C 0.47031 0.63049 0.91099
 C1498 C 0.45189 0.64229 0.92301
 C1499 C 0.44421 0.66343 0.91558
 H1500 H 0.45217 0.67164 0.90132
 O1501 O 0.38779 0.58119 0.97833
 O1502 O 0.36141 0.60736 0.97823
 C1503 C 0.36944 0.58904 0.97060
 C1504 C 0.35766 0.57697 0.95221
 C1505 C 0.33647 0.58429 0.94459
 H1506 H 0.32823 0.59850 0.95257
 O1507 O 0.61223 0.41828 0.97829
 O1508 O 0.63857 0.39206 0.97830
 C1509 C 0.63058 0.41039 0.97061
 C1510 C 0.64240 0.42241 0.95218
 C1511 C 0.66353 0.41499 0.94450
 H1512 H 0.67172 0.40073 0.95246
 O1513 O 0.47804 0.58129 0.88803
 O1514 O 0.47804 0.60749 0.86165
 C1515 C 0.47037 0.58917 0.86965
 C1516 C 0.45202 0.57712 0.85780
 C1517 C 0.44443 0.58448 0.83660
 H1518 H 0.45240 0.59873 0.82840
 O1519 O 0.52200 0.41837 0.88792
 O1520 O 0.52204 0.39219 0.86156
 C1521 C 0.52970 0.41051 0.86956
 C1522 C 0.54810 0.42256 0.85775
 C1523 C 0.55576 0.41520 0.83658
 H1524 H 0.54781 0.40097 0.82837
 O1525 O 0.61225 0.47772 0.91885
 O1526 O 0.63859 0.47772 0.89264
 C1527 C 0.63060 0.47003 0.91097
 C1528 C 0.64240 0.45160 0.92300
 C1529 C 0.66354 0.44392 0.91558
 H1530 H 0.67172 0.45188 0.90132
 O1531 O 0.38789 0.52177 0.91881
 O1532 O 0.36154 0.52186 0.89259
 C1533 C 0.36954 0.52948 0.91094
 C1534 C 0.35771 0.54784 0.92302
 C1535 C 0.33652 0.55543 0.91567
 H1536 H 0.32832 0.54745 0.90143
 O1537 O 0.41855 0.61211 0.97832
 O1538 O 0.39233 0.63845 0.97822
 C1539 C 0.41067 0.63046 0.97058
 C1540 C 0.42271 0.64227 0.95217
 C1541 C 0.41530 0.66341 0.94448
 H1542 H 0.40104 0.67159 0.95242
 O1543 O 0.58136 0.38746 0.97831
 O1544 O 0.60754 0.36108 0.97833
 C1545 C 0.58923 0.36909 0.97063
 C1546 C 0.57719 0.35729 0.95222
 C1547 C 0.58457 0.33614 0.94457
 H1548 H 0.59882 0.32793 0.95254
 O1549 O 0.58137 0.52173 0.88804
 O1550 O 0.60755 0.52180 0.86167
 C1551 C 0.58923 0.52945 0.86968
 C1552 C 0.57719 0.54787 0.85788
 C1553 C 0.58455 0.55552 0.83670
 H1554 H 0.59877 0.54754 0.82848
 O1555 O 0.41869 0.47785 0.88787
 O1556 O 0.39250 0.47790 0.86149
 C1557 C 0.41082 0.47020 0.86949
 C1558 C 0.42286 0.45182 0.85766
 C1559 C 0.41550 0.44422 0.83648
 H1560 H 0.40127 0.45221 0.82826
 O1561 O 0.52195 0.61211 0.91893
 O1562 O 0.52200 0.63848 0.89271
 C1563 C 0.52965 0.63046 0.91106
 C1564 C 0.54804 0.64224 0.92312
 C1565 C 0.55566 0.66343 0.91578
 H1566 H 0.54767 0.67167 0.90155
 O1567 O 0.47802 0.38756 0.91878
 O1568 O 0.47799 0.36122 0.89258
 C1569 C 0.47032 0.36922 0.91090
 C1570 C 0.45190 0.35743 0.92294
 C1571 C 0.44420 0.33631 0.91552
 H1572 H 0.45214 0.32813 0.90126
 O1573 O 0.61224 0.58104 0.97832
 O1574 O 0.63860 0.60722 0.97831
 C1575 C 0.63060 0.58891 0.97063
 C1576 C 0.64241 0.57688 0.95223
 C1577 C 0.66357 0.58426 0.94459
 H1578 H 0.67177 0.59849 0.95256
 O1579 O 0.38773 0.41844 0.97820
 O1580 O 0.36138 0.39226 0.97820
 C1581 C 0.36938 0.41057 0.97051
 C1582 C 0.35758 0.42261 0.95207
 C1583 C 0.33644 0.41523 0.94439
 H1584 H 0.32823 0.40098 0.95235
 Cu1585 Cu 0.50001 0.40559 0.90598
 Cu1586 Cu 0.50002 0.37407 0.87443
 Cu1587 Cu 0.49999 0.59408 0.90611
 Cu1588 Cu 0.50002 0.62563 0.87454
 Cu1589 Cu 0.40590 0.49980 0.90595
 Cu1590 Cu 0.37437 0.49989 0.87438
 Cu1591 Cu 0.59420 0.49972 0.90606
 Cu1592 Cu 0.62572 0.49976 0.87450
 C1593 C 0.44127 0.44105 0.86802
 H1594 H 0.44685 0.44661 0.88448
 C1595 C 0.42626 0.42608 0.82593
 C1596 C 0.55879 0.55863 0.86824
 H1597 H 0.55321 0.55303 0.88470
 C1598 C 0.57380 0.57368 0.82615
 C1599 C 0.36792 0.44104 0.94134
 H1600 H 0.38436 0.44663 0.94696
 C1601 C 0.32593 0.42598 0.92619
 C1602 C 0.63209 0.55847 0.94148
 H1603 H 0.61564 0.55287 0.94708
 C1604 C 0.67412 0.57352 0.92644
 C1605 C 0.44118 0.36774 0.94139
 H1606 H 0.44682 0.38416 0.94702
 C1607 C 0.42603 0.32579 0.92626
 C1608 C 0.55881 0.63186 0.94152
 H1609 H 0.55323 0.61539 0.94708
 C1610 C 0.57381 0.67394 0.92655
 C1611 C 0.44127 0.55869 0.86813
 H1612 H 0.44683 0.55310 0.88461
 C1613 C 0.42632 0.57371 0.82601
 C1614 C 0.55882 0.44098 0.86810
 H1615 H 0.55321 0.44655 0.88455
 C1616 C 0.57391 0.42598 0.82605
 C1617 C 0.55877 0.36764 0.94147
 H1618 H 0.55317 0.38408 0.94707
 C1619 C 0.57383 0.32563 0.92640
 C1620 C 0.44116 0.63196 0.94146
 H1621 H 0.44678 0.61553 0.94709
 C1622 C 0.42604 0.67396 0.92631
 C1623 C 0.36804 0.55859 0.94144
 H1624 H 0.38451 0.55304 0.94701
 C1625 C 0.32593 0.57353 0.92645
 C1626 C 0.63209 0.44086 0.94145
 H1627 H 0.61566 0.44649 0.94707
 C1628 C 0.67407 0.42574 0.92633
 O1629 O 0.52192 0.41833 1.11276
 O1630 O 0.52191 0.39208 1.13911
 C1631 C 0.52960 0.41041 1.13112
 C1632 C 0.54801 0.42240 1.14295
 C1633 C 0.55571 0.41494 1.16408
 H1634 H 0.54776 0.40067 1.17227
 O1635 O 0.47786 0.58114 1.11255
 O1636 O 0.47788 0.60732 1.13891
 C1637 C 0.47018 0.58902 1.13091
 C1638 C 0.45178 0.57701 1.14274
 C1639 C 0.44411 0.58443 1.16388
 H1640 H 0.45207 0.59868 1.17205
 O1641 O 0.38762 0.52183 1.08175
 O1642 O 0.36126 0.52181 1.10794
 C1643 C 0.36926 0.52951 1.08962
 C1644 C 0.35746 0.54794 1.07758
 C1645 C 0.33633 0.55564 1.08500
 H1646 H 0.32814 0.54769 1.09927
 O1647 O 0.61211 0.47764 1.08178
 O1648 O 0.63846 0.47760 1.10799
 C1649 C 0.63047 0.46994 1.08965
 C1650 C 0.64229 0.45157 1.07760
 C1651 C 0.66346 0.44394 1.08498
 H1652 H 0.67165 0.45189 1.09924
 O1653 O 0.58132 0.38750 1.02228
 O1654 O 0.60750 0.36112 1.02236
 C1655 C 0.58918 0.36914 1.03001
 C1656 C 0.57713 0.35735 1.04844
 C1657 C 0.58450 0.33618 1.05609
 H1658 H 0.59873 0.32797 1.04811
 O1659 O 0.41853 0.61212 1.02229
 O1660 O 0.39232 0.63847 1.02225
 C1661 C 0.41064 0.63048 1.02995
 C1662 C 0.42267 0.64229 1.04835
 C1663 C 0.41529 0.66343 1.05601
 H1664 H 0.40104 0.67164 1.04805
 O1665 O 0.41850 0.47783 1.11260
 O1666 O 0.39229 0.47776 1.13894
 C1667 C 0.41062 0.47011 1.13095
 C1668 C 0.42265 0.45169 1.14278
 C1669 C 0.41523 0.44401 1.16392
 H1670 H 0.40097 0.45197 1.17210
 O1671 O 0.58125 0.52156 1.11260
 O1672 O 0.60743 0.52159 1.13899
 C1673 C 0.58910 0.52925 1.13097
 C1674 C 0.57703 0.54762 1.14277
 C1675 C 0.58435 0.55521 1.16397
 H1676 H 0.59857 0.54723 1.17221
 O1677 O 0.47800 0.38759 1.08178
 O1678 O 0.47793 0.36119 1.10797
 C1679 C 0.47030 0.36922 1.08962
 C1680 C 0.45195 0.35742 1.07753
 C1681 C 0.44437 0.33622 1.08484
 H1682 H 0.45234 0.32799 1.09908
 O1683 O 0.52185 0.61192 1.08166
 O1684 O 0.52192 0.63825 1.10787
 C1685 C 0.52957 0.63025 1.08954
 C1686 C 0.54799 0.64204 1.07750
 C1687 C 0.55562 0.66320 1.08485
 H1688 H 0.54763 0.67142 1.09908
 O1689 O 0.38776 0.41847 1.02218
 O1690 O 0.36141 0.39228 1.02223
 C1691 C 0.36941 0.41060 1.02988
 C1692 C 0.35758 0.42265 1.04827
 C1693 C 0.33642 0.41528 1.05590
 H1694 H 0.32822 0.40104 1.04792
 O1695 O 0.61225 0.58100 1.02230
 O1696 O 0.63861 0.60718 1.02234
 C1697 C 0.63060 0.58885 1.03001
 C1698 C 0.64240 0.57679 1.04842
 C1699 C 0.66358 0.58413 1.05605
 H1700 H 0.67179 0.59836 1.04806
 O1701 O 0.52180 0.58104 1.11253
 O1702 O 0.52187 0.60721 1.13889
 C1703 C 0.52950 0.58888 1.13089
 C1704 C 0.54786 0.57679 1.14273
 C1705 C 0.55545 0.58411 1.16393
 H1706 H 0.54746 0.59834 1.17214
 O1707 O 0.47796 0.41838 1.11269
 O1708 O 0.47789 0.39214 1.13903
 C1709 C 0.47024 0.41048 1.13103
 C1710 C 0.45182 0.42252 1.14282
 C1711 C 0.44412 0.41510 1.16397
 H1712 H 0.45206 0.40083 1.17218
 O1713 O 0.61219 0.52158 1.08183
 O1714 O 0.63853 0.52159 1.10805
 C1715 C 0.63054 0.52926 1.08970
 C1716 C 0.64237 0.54763 1.07763
 C1717 C 0.66355 0.55524 1.08500
 H1718 H 0.67174 0.54726 1.09926
 O1719 O 0.38770 0.47788 1.08167
 O1720 O 0.36133 0.47780 1.10786
 C1721 C 0.36935 0.47017 1.08952
 C1722 C 0.35756 0.45179 1.07745
 C1723 C 0.33639 0.44416 1.08480
 H1724 H 0.32818 0.45212 1.09904
 O1725 O 0.58138 0.61184 1.02229
 O1726 O 0.60758 0.63818 1.02234
 C1727 C 0.58925 0.63019 1.02999
 C1728 C 0.57719 0.64200 1.04836
 C1729 C 0.58455 0.66316 1.05598
 H1730 H 0.59881 0.67136 1.04802
 O1731 O 0.41862 0.38761 1.02220
 O1732 O 0.39243 0.36126 1.02225
 C1733 C 0.41076 0.36926 1.02991
 C1734 C 0.42281 0.35744 1.04831
 C1735 C 0.41550 0.33623 1.05589
 H1736 H 0.40129 0.32801 1.04789
 O1737 O 0.58136 0.47762 1.11273
 O1738 O 0.60755 0.47759 1.13911
 C1739 C 0.58923 0.46992 1.13111
 C1740 C 0.57720 0.45152 1.14294
 C1741 C 0.58464 0.44380 1.16407
 H1742 H 0.59892 0.45171 1.17225
 O1743 O 0.41847 0.52178 1.11262
 O1744 O 0.39226 0.52178 1.13897
 C1745 C 0.41058 0.52946 1.13098
 C1746 C 0.42261 0.54786 1.14279
 C1747 C 0.41521 0.55554 1.16393
 H1748 H 0.40095 0.54761 1.17214
 O1749 O 0.47790 0.61203 1.08169
 O1750 O 0.47792 0.63836 1.10789
 C1751 C 0.47024 0.63039 1.08956
 C1752 C 0.45185 0.64224 1.07752
 C1753 C 0.44421 0.66339 1.08492
 H1754 H 0.45218 0.67156 1.09918
 O1755 O 0.52194 0.38756 1.08184
 O1756 O 0.52193 0.36116 1.10803
 C1757 C 0.52961 0.36918 1.08971
 C1758 C 0.54800 0.35736 1.07765
 C1759 C 0.55564 0.33619 1.08504
 H1760 H 0.54769 0.32799 1.09930
 O1761 O 0.61219 0.41830 1.02227
 O1762 O 0.63853 0.39209 1.02234
 C1763 C 0.63054 0.41042 1.02999
 C1764 C 0.64233 0.42245 1.04840
 C1765 C 0.66350 0.41508 1.05605
 H1766 H 0.67172 0.40085 1.04808
 O1767 O 0.38767 0.58128 1.02231
 O1768 O 0.36131 0.60747 1.02227
 C1769 C 0.36931 0.58916 1.02998
 C1770 C 0.35749 0.57713 1.04839
 C1771 C 0.33636 0.58456 1.05607
 H1772 H 0.32818 0.59883 1.04811
 Cu1773 Cu 0.49996 0.40560 1.09465
 Cu1774 Cu 0.49991 0.37400 1.12618
 Cu1775 Cu 0.49984 0.59391 1.09448
 Cu1776 Cu 0.49991 0.62543 1.12603
 Cu1777 Cu 0.40580 0.40565 1.00019
 Cu1778 Cu 0.37426 0.37412 1.00023
 Cu1779 Cu 0.59415 0.40551 1.00028
 Cu1780 Cu 0.62567 0.37394 1.00034
 Cu1781 Cu 0.40576 0.59406 1.00032
 Cu1782 Cu 0.37420 0.62558 1.00023
 Cu1783 Cu 0.59420 0.59382 1.00030
 Cu1784 Cu 0.62575 0.62535 1.00033
 Cu1785 Cu 0.40570 0.49984 1.09454
 Cu1786 Cu 0.37414 0.49978 1.12607
 Cu1787 Cu 0.59410 0.49960 1.09461
 Cu1788 Cu 0.62563 0.49959 1.12618
 C1789 C 0.55874 0.44084 1.13263
 H1790 H 0.55311 0.44650 1.11620
 C1791 C 0.57390 0.42563 1.17461
 C1792 C 0.44105 0.55857 1.13245
 H1793 H 0.44666 0.55294 1.11601
 C1794 C 0.42595 0.57371 1.17444
 C1795 C 0.36779 0.55866 1.05913
 H1796 H 0.38421 0.55303 1.05351
 C1797 C 0.32582 0.57383 1.07425
 C1798 C 0.63198 0.44085 1.05916
 H1799 H 0.61552 0.44643 1.05356
 C1800 C 0.67402 0.42582 1.07422
 C1801 C 0.55873 0.36769 1.05920
 H1802 H 0.55314 0.38415 1.05360
 C1803 C 0.57377 0.32564 1.07426
 C1804 C 0.44111 0.63194 1.05909
 H1805 H 0.44670 0.61551 1.05348
 C1806 C 0.42605 0.67395 1.07418
 C1807 C 0.44110 0.44097 1.13248
 H1808 H 0.44673 0.44659 1.11604
 C1809 C 0.42595 0.42584 1.17449
 C1810 C 0.55863 0.55839 1.13240
 H1811 H 0.55308 0.55284 1.11592
 C1812 C 0.57356 0.57334 1.17452
 C1813 C 0.44119 0.36779 1.05910
 H1814 H 0.44674 0.38427 1.05355
 C1815 C 0.42627 0.32566 1.07404
 C1816 C 0.55875 0.63169 1.05910
 H1817 H 0.55316 0.61524 1.05352
 C1818 C 0.57378 0.67373 1.07410
 C1819 C 0.36791 0.44106 1.05903
 H1820 H 0.38436 0.44665 1.05345
 C1821 C 0.32586 0.42602 1.07404
 C1822 C 0.63205 0.55839 1.05919
 H1823 H 0.61559 0.55282 1.05360
 C1824 C 0.67411 0.57336 1.07422
 C1825 C 1.11496 1.11438 1.27320
 N1826 N 1.12466 1.09627 1.26321
 N1827 N 1.11635 1.08807 1.24402
 C1828 C 1.09807 1.09772 1.23426
 N1829 N 1.08835 1.11582 1.24427
 N1830 N 1.09667 1.12402 1.26345
 C1831 C 1.12422 1.12352 1.29359
 C1832 C 1.13213 1.13137 1.31058
 C1833 C 1.08944 1.08921 1.21333
 C1834 C 1.08237 1.08220 1.19562
 C1835 C 1.11376 0.61362 0.77318
 N1836 N 1.09561 0.62332 0.76322
 N1837 N 1.08747 0.61511 0.74397
 C1838 C 1.09723 0.59696 0.73410
 N1839 N 1.11536 0.58725 0.74407
 N1840 N 1.12351 0.59546 0.76332
 C1841 C 1.12286 0.62279 0.79361
 C1842 C 1.13068 0.63063 0.81064
 C1843 C 1.08880 0.58847 0.71310
 C1844 C 1.08188 0.58152 0.69531
 C1845 C 0.61413 1.11451 0.77327
 N1846 N 0.62350 1.09606 0.76357
 N1847 N 0.61524 1.08791 0.74435
 C1848 C 0.59737 1.09795 0.73423
 N1849 N 0.58799 1.11639 0.74394
 N1850 N 0.59624 1.12455 0.76316
 C1851 C 0.62334 1.12360 0.79369
 C1852 C 0.63123 1.13139 0.81072
 C1853 C 0.58882 1.08949 0.71326
 C1854 C 0.58181 1.08253 0.69551
 C1855 C 0.61337 0.61365 1.27378
 N1856 N 0.59544 0.62352 1.26360
 N1857 N 0.58732 0.61528 1.24436
 C1858 C 0.59689 0.59692 1.23471
 N1859 N 0.61481 0.58703 1.24489
 N1860 N 0.62292 0.59527 1.26414
 C1861 C 0.62245 0.62285 1.29419
 C1862 C 0.63027 0.63072 1.31120
 C1863 C 0.58850 0.58839 1.21370
 C1864 C 0.58161 0.58142 1.19591
 C1865 C 0.88556 0.88558 1.27326
 N1866 N 0.90386 0.87594 1.26355
 N1867 N 0.91215 0.88410 1.24433
 C1868 C 0.90239 0.90215 1.23424
 N1869 N 0.88411 0.91180 1.24397
 N1870 N 0.87582 0.90364 1.26319
 C1871 C 0.87632 0.87647 1.29368
 C1872 C 0.86842 0.86865 1.31070
 C1873 C 0.91100 0.91062 1.21327
 C1874 C 0.91804 0.91759 1.19553
 C1875 C 0.88547 0.38616 0.77325
 N1876 N 0.90374 0.37643 0.76358
 N1877 N 0.91207 0.38450 0.74434
 C1878 C 0.90237 0.40255 0.73419
 N1879 N 0.88410 0.41229 0.74387
 N1880 N 0.87578 0.40421 0.76311
 C1881 C 0.87619 0.37713 0.79369
 C1882 C 0.86827 0.36935 0.81071
 C1883 C 0.91099 0.41091 0.71319
 C1884 C 0.91804 0.41780 0.69542
 C1885 C 0.38540 0.88620 0.77333
 N1886 N 0.40377 0.87666 0.76364
 N1887 N 0.41202 0.88485 0.74441
 C1888 C 0.40217 0.90283 0.73430
 N1889 N 0.38382 0.91238 0.74400
 N1890 N 0.37556 0.90419 0.76322
 C1891 C 0.37620 0.87706 0.79374
 C1892 C 0.36833 0.86921 0.81076
 C1893 C 0.41073 0.91131 0.71333
 C1894 C 0.41775 0.91829 0.69557
 C1895 C 0.38506 0.38593 1.27357
 N1896 N 0.40334 0.37621 1.26390
 N1897 N 0.41169 0.38431 1.24468
 C1898 C 0.40202 0.40238 1.23455
 N1899 N 0.38376 0.41212 1.24423
 N1900 N 0.37540 0.40402 1.26345
 C1901 C 0.37575 0.37688 1.29398
 C1902 C 0.36781 0.36909 1.31099
 C1903 C 0.41068 0.41078 1.21358
 C1904 C 0.41776 0.41771 1.19584
 C1905 C 0.88474 1.11452 0.72677
 N1906 N 0.90304 1.12419 0.73645
 N1907 N 0.91143 1.11602 0.75563
 C1908 C 0.90177 1.09792 0.76571
 N1909 N 0.88349 1.08823 0.75603
 N1910 N 0.87510 1.09640 0.73685
 C1911 C 0.87541 1.12363 0.70638
 C1912 C 0.86746 1.13147 0.68938
 C1913 C 0.91049 1.08944 0.78664
 C1914 C 0.91763 1.08244 0.80435
 C1915 C 0.88593 0.61390 0.22619
 N1916 N 0.87614 0.59581 0.23616
 N1917 N 0.88433 0.58759 0.25541
 C1918 C 0.90256 0.59721 0.26526
 N1919 N 0.91237 0.61529 0.25528
 N1920 N 0.90417 0.62351 0.23603
 C1921 C 0.87678 0.62308 0.20576
 C1922 C 0.86893 0.63094 0.18874
 C1923 C 0.91105 0.58870 0.28625
 C1924 C 0.91802 0.58172 0.30403
 C1925 C 0.38599 1.11395 0.22631
 N1926 N 0.37635 1.09577 0.23627
 N1927 N 0.38455 1.08768 0.25557
 C1928 C 0.40263 1.09753 0.26548
 N1929 N 0.41227 1.11569 0.25551
 N1930 N 0.40408 1.12378 0.23622
 C1931 C 0.37683 1.12299 0.20583
 C1932 C 0.36899 1.13077 0.18876
 C1933 C 0.41111 1.08915 0.28653
 C1934 C 0.41805 1.08227 0.30435
 C1935 C 0.38621 0.61378 0.72668
 N1936 N 0.37654 0.59560 0.73659
 N1937 N 0.38473 0.58743 0.75586
 C1938 C 0.40283 0.59721 0.76579
 N1939 N 0.41251 0.61538 0.75587
 N1940 N 0.40433 0.62355 0.73661
 C1941 C 0.37707 0.62290 0.70623
 C1942 C 0.36924 0.63073 0.68918
 C1943 C 0.41130 0.58875 0.78681
 C1944 C 0.41825 0.58181 0.80461
 C1945 C 1.11479 0.88589 0.72679
 N1946 N 1.12455 0.90399 0.73674
 N1947 N 1.11631 0.91221 0.75595
 C1948 C 1.09806 0.90259 0.76577
 N1949 N 1.08829 0.88450 0.75581
 N1950 N 1.09653 0.87628 0.73660
 C1951 C 1.12398 0.87671 0.70639
 C1952 C 1.13185 0.86884 0.68939
 C1953 C 1.08951 0.91110 0.78673
 C1954 C 1.08250 0.91809 0.80447
 C1955 C 1.11413 0.38567 0.22646
 N1956 N 1.09604 0.37591 0.23644
 N1957 N 1.08784 0.38413 0.25566
 C1958 C 1.09748 0.40236 0.26548
 N1959 N 1.11556 0.41213 0.25549
 N1960 N 1.12376 0.40391 0.23627
 C1961 C 1.12328 0.37650 0.20605
 C1962 C 1.13113 0.36865 0.18904
 C1963 C 1.08899 0.41088 0.28645
 C1964 C 1.08203 0.41787 0.30421
 C1965 C 0.61381 0.88623 0.22681
 N1966 N 0.62358 0.90434 0.23673
 N1967 N 0.61537 0.91257 0.25594
 C1968 C 0.59715 0.90295 0.26581
 N1969 N 0.58736 0.88485 0.25588
 N1970 N 0.59557 0.87662 0.23667
 C1971 C 0.62297 0.87704 0.20642
 C1972 C 0.63082 0.86915 0.18942
 C1973 C 0.58865 0.91147 0.28677
 C1974 C 0.58167 0.91845 0.30453
 C1975 C 0.61455 0.38621 0.72687
 N1976 N 0.62427 0.40425 0.73698
 N1977 N 0.61597 0.41233 0.75622
 C1978 C 0.59770 0.40263 0.76593
 N1979 N 0.58797 0.38461 0.75581
 N1980 N 0.59627 0.37652 0.73658
 C1981 C 0.62380 0.37718 0.70644
 C1982 C 0.63169 0.36940 0.68942
 C1983 C 0.58910 0.41100 0.78691
 C1984 C 0.58206 0.41790 0.80468
 C1985 C 1.27342 1.11351 1.11409
 N1986 N 1.26357 1.12333 1.09593
 N1987 N 1.24430 1.11526 1.08771
 C1988 C 1.23430 1.09713 1.09741
 N1989 N 1.24416 1.08731 1.11555
 N1990 N 1.26343 1.09538 1.12377
 C1991 C 1.29388 1.12253 1.12327
 C1992 C 1.31092 1.13029 1.13112
 C1993 C 1.21328 1.08878 1.08890
 C1994 C 1.19549 1.08190 1.08194
 C1995 C 1.27321 0.61379 0.61358
 N1996 N 1.26337 0.59559 0.62329
 N1997 N 1.24413 0.58738 0.61512
 C1998 C 1.23416 0.59713 0.59700
 N1999 N 1.24401 0.61532 0.58727
 N2000 N 1.26325 0.62352 0.59544
 C2001 C 1.29363 0.62293 0.62270
 C2002 C 1.31065 0.63077 0.63052
 C2003 C 1.21318 0.58863 0.58854
 C2004 C 1.19542 0.58167 0.58159
 C2005 C 0.77290 1.11473 0.61510
 N2006 N 0.76286 1.09662 0.62477
 N2007 N 0.74367 1.08847 0.61643
 C2008 C 0.73393 1.09820 0.59816
 N2009 N 0.74398 1.11630 0.58847
 N2010 N 0.76317 1.12444 0.59681
 C2011 C 0.79330 1.12381 0.62438
 C2012 C 0.81031 1.13160 0.63229
 C2013 C 0.71300 1.08974 0.58950
 C2014 C 0.69529 1.08277 0.58240
 C2015 C 0.77335 0.61350 1.11424
 N2016 N 0.76338 0.59544 1.12410
 N2017 N 0.74413 0.58725 1.11595
 C2018 C 0.73427 0.59686 1.09769
 N2019 N 0.74425 0.61491 1.08782
 N2020 N 0.76350 0.62310 1.09597
 C2021 C 0.79378 0.62265 1.12335
 C2022 C 0.81081 0.63049 1.13116
 C2023 C 0.71327 0.58839 1.08925
 C2024 C 0.69550 0.58144 1.08231
 C2025 C 1.27336 0.88574 0.88591
 N2026 N 1.26369 0.90416 0.87642
 N2027 N 1.24449 0.91241 0.88463
 C2028 C 1.23438 0.90250 0.90258
 N2029 N 1.24406 0.88409 0.91208
 N2030 N 1.26326 0.87584 0.90387
 C2031 C 1.29375 0.87654 0.87674
 C2032 C 1.31075 0.86867 0.86888
 C2033 C 1.21343 0.91105 0.91108
 C2034 C 1.19569 0.91806 0.91807
 C2035 C 1.27327 0.38599 0.38518
 N2036 N 1.26327 0.40414 0.37552
 N2037 N 1.24405 0.41227 0.38381
 C2038 C 1.23425 0.40250 0.40201
 N2039 N 1.24426 0.38436 0.41169
 N2040 N 1.26348 0.37623 0.40340
 C2041 C 1.29368 0.37691 0.37594
 C2042 C 1.31069 0.36910 0.36805
 C2043 C 1.21328 0.41092 0.41060
 C2044 C 1.19553 0.41786 0.41762
 C2045 C 0.77290 0.88618 0.38540
 N2046 N 0.76308 0.90449 0.37585
 N2047 N 0.74388 0.91269 0.38412
 C2048 C 0.73392 0.90282 0.40218
 N2049 N 0.74374 0.88451 0.41173
 N2050 N 0.76294 0.87632 0.40346
 C2051 C 0.79330 0.87705 0.37618
 C2052 C 0.81030 0.86921 0.36831
 C2053 C 0.71297 0.91132 0.41075
 C2054 C 0.69524 0.91830 0.41778
 C2055 C 0.77316 0.38564 0.88586
 N2056 N 0.76331 0.40392 0.87630
 N2057 N 0.74408 0.41208 0.88455
 C2058 C 0.73413 0.40218 0.90260
 N2059 N 0.74399 0.38391 0.91217
 N2060 N 0.76322 0.37576 0.90392
 C2061 C 0.79359 0.37655 0.87666
 C2062 C 0.81062 0.36875 0.86879
 C2063 C 0.71316 0.41064 0.91116
 C2064 C 0.69541 0.41760 0.91817
 C2065 C 0.72696 0.88588 1.11389
 N2066 N 0.73684 0.90407 1.12356
 N2067 N 0.75608 0.91224 1.11536
 C2068 C 0.76602 0.90246 1.09725
 N2069 N 0.75613 0.88429 1.08757
 N2070 N 0.73689 0.87612 1.09577
 C2071 C 0.70652 0.87677 1.12303
 C2072 C 0.68949 0.86896 1.13087
 C2073 C 0.78701 0.91092 1.08877
 C2074 C 0.80478 0.91787 1.08182
 C2075 C 0.72679 0.38576 0.61430
 N2076 N 0.73665 0.37604 0.59611
 N2077 N 0.75587 0.38421 0.58787
 C2078 C 0.76581 0.40235 0.59757
 N2079 N 0.75594 0.41208 0.61574
 N2080 N 0.73672 0.40391 0.62398
 C2081 C 0.70636 0.37665 0.62347
 C2082 C 0.68933 0.36884 0.63133
 C2083 C 0.78678 0.41083 0.58902
 C2084 C 0.80452 0.41780 0.58201
 C2085 C 0.22703 0.88508 0.61439
 N2086 N 0.24101 0.87190 0.60202
 N2087 N 0.26019 0.88021 0.59385
 C2088 C 0.26598 0.90196 0.59779
 N2089 N 0.25200 0.91515 0.61014
 N2090 N 0.23281 0.90683 0.61832
 C2091 C 0.20659 0.87597 0.62355
 C2092 C 0.18955 0.86816 0.63139
 C2093 C 0.28686 0.91075 0.58934
 C2094 C 0.30454 0.91792 0.58235
 C2095 C 0.22671 0.38603 1.11442
 N2096 N 0.23673 0.40409 1.12418
 N2097 N 0.25597 0.41223 1.11593
 C2098 C 0.26575 0.40256 1.09768
 N2099 N 0.25571 0.38451 1.08792
 N2100 N 0.23648 0.37637 1.09616
 C2101 C 0.20628 0.37694 1.12361
 C2102 C 0.18926 0.36914 1.13147
 C2103 C 0.28673 0.41099 1.08914
 C2104 C 0.30449 0.41792 1.08215
 C2105 C 0.72685 1.11380 0.88538
 N2106 N 0.73647 1.12333 0.90380
 N2107 N 0.75570 1.11521 0.91208
 C2108 C 0.76590 1.09731 0.90219
 N2109 N 0.75627 1.08777 0.88380
 N2110 N 0.73704 1.09589 0.87551
 C2111 C 0.70642 1.12288 0.87616
 C2112 C 0.68940 1.13069 0.86829
 C2113 C 0.78688 1.08890 0.91078
 C2114 C 0.80464 1.08197 0.91782
 C2115 C 0.72651 0.61374 0.38645
 N2116 N 0.73651 0.62338 0.40460
 N2117 N 0.75580 0.61516 0.41265
 C2118 C 0.76566 0.59706 0.40280
 N2119 N 0.75565 0.58741 0.38467
 N2120 N 0.73636 0.59563 0.37662
 C2121 C 0.70604 0.62293 0.37744
 C2122 C 0.68899 0.63078 0.36968
 C2123 C 0.78670 0.58856 0.41113
 C2124 C 0.80451 0.58161 0.41799
 C2125 C 0.22669 1.11455 0.38486
 N2126 N 0.23647 1.12432 0.40305
 N2127 N 0.25568 1.11618 0.41139
 C2128 C 0.26567 1.09801 0.40178
 N2129 N 0.25588 1.08823 0.38360
 N2130 N 0.23667 1.09637 0.37527
 C2131 C 0.20628 1.12363 0.37558
 C2132 C 0.18926 1.13143 0.36766
 C2133 C 0.28662 1.08956 0.41044
 C2134 C 0.30434 1.08260 0.41753
 C2135 C 0.22667 0.61354 0.88631
 N2136 N 0.23660 0.59540 0.87659
 N2137 N 0.25584 0.58723 0.88479
 C2138 C 0.26574 0.59695 0.90295
 N2139 N 0.25580 0.61507 0.91268
 N2140 N 0.23656 0.62325 0.90449
 C2141 C 0.20625 0.62269 0.87715
 C2142 C 0.18924 0.63054 0.86930
 C2143 C 0.28675 0.58850 0.91142
 C2144 C 0.30453 0.58158 0.91836
 C2145 C 1.11371 1.27323 1.11429
 N2146 N 1.09553 1.26329 1.12394
 N2147 N 1.08738 1.24407 1.11568
 C2148 C 1.09717 1.23422 1.09753
 N2149 N 1.11533 1.24418 1.08787
 N2150 N 1.12348 1.26339 1.09613
 C2151 C 1.12281 1.29363 1.12351
 C2152 C 1.13063 1.31062 1.13141
 C2153 C 1.08874 1.21325 1.08898
 C2154 C 1.08182 1.19549 1.08199
 C2155 C 1.11468 0.77284 0.61387
 N2156 N 1.09652 0.76299 0.62363
 N2157 N 1.08823 0.74380 0.61545
 C2158 C 1.09786 0.73388 0.59725
 N2159 N 1.11601 0.74374 0.58747
 N2160 N 1.12429 0.76294 0.59566
 C2161 C 1.12391 0.79323 0.62299
 C2162 C 1.13181 0.81022 0.63082
 C2163 C 1.08927 0.71294 0.58877
 C2164 C 1.08223 0.69522 0.58179
 C2165 C 0.61436 1.27357 0.61385
 N2166 N 0.62393 1.26363 0.59563
 N2167 N 0.61561 1.24443 0.58749
 C2168 C 0.59747 1.23460 0.59733
 N2169 N 0.58790 1.24455 0.61554
 N2170 N 0.59622 1.26375 0.62367
 C2171 C 0.62365 1.29395 0.62294
 C2172 C 0.63158 1.31093 0.63075
 C2173 C 0.58886 1.21365 0.58891
 C2174 C 0.58182 1.19592 0.58197
 C2175 C 0.61390 0.77294 1.11409
 N2176 N 0.62355 0.76307 1.09588
 N2177 N 0.61536 0.74382 1.08774
 C2178 C 0.59729 0.73387 1.09756
 N2179 N 0.58763 0.74375 1.11575
 N2180 N 0.59581 0.76300 1.12390
 C2181 C 0.62303 0.79338 1.12318
 C2182 C 0.63086 0.81042 1.13098
 C2183 C 0.58882 0.71287 1.08912
 C2184 C 0.58187 0.69510 1.08219
 C2185 C 0.88546 1.27328 0.88618
 N2186 N 0.87593 1.26332 0.90443
 N2187 N 0.88423 1.24409 0.91253
 C2188 C 0.90232 1.23423 0.90264
 N2189 N 0.91186 1.24420 0.88441
 N2190 N 0.90356 1.26343 0.87630
 C2191 C 0.87620 1.29370 0.87713
 C2192 C 0.86829 1.31072 0.86933
 C2193 C 0.91092 1.21325 0.91104
 C2194 C 0.91796 1.19548 0.91795
 C2195 C 0.88582 0.77305 0.38531
 N2196 N 0.87611 0.76312 0.40348
 N2197 N 0.88433 0.74388 0.41168
 C2198 C 0.90249 0.73400 0.40196
 N2199 N 0.91221 0.74394 0.38381
 N2200 N 0.90400 0.76317 0.37561
 C2201 C 0.87667 0.79348 0.37616
 C2202 C 0.86883 0.81051 0.36832
 C2203 C 0.91101 0.71302 0.41047
 C2204 C 0.91800 0.69526 0.41745
 C2205 C 0.38537 1.27363 0.38567
 N2206 N 0.40347 1.26371 0.37587
 N2207 N 0.41172 1.24450 0.38408
 C2208 C 0.40213 1.23463 0.40234
 N2209 N 0.38405 1.24457 0.41216
 N2210 N 0.37579 1.26378 0.40394
 C2211 C 0.37616 1.29403 0.37651
 C2212 C 0.36829 1.31103 0.36865
 C2213 C 0.41069 1.21368 0.41085
 C2214 C 0.41771 1.19594 0.41784
 C2215 C 0.38542 0.77305 0.88620
 N2216 N 0.37600 0.76324 0.90458
 N2217 N 0.38429 0.74401 0.91273
 C2218 C 0.40224 0.73402 0.90274
 N2219 N 0.41167 0.74383 0.88437
 N2220 N 0.40338 0.76306 0.87622
 C2221 C 0.37618 0.79347 0.87712
 C2222 C 0.36830 0.81050 0.86932
 C2223 C 0.41083 0.71305 0.91120
 C2224 C 0.41787 0.69530 0.91816
 C2225 C 1.11396 0.72676 0.88617
 N2226 N 1.12371 0.73659 0.90435
 N2227 N 1.11559 0.75585 0.91255
 C2228 C 1.09749 0.76586 0.90282
 N2229 N 1.08773 0.75602 0.88465
 N2230 N 1.09584 0.73676 0.87645
 C2231 C 1.12301 0.70632 0.87702
 C2232 C 1.13079 0.68927 0.86919
 C2233 C 1.08909 0.78686 0.91131
 C2234 C 1.08218 0.80464 0.91827
 C2235 C 1.11454 0.22679 0.38526
 N2236 N 1.09641 0.23675 0.37551
 N2237 N 1.08818 0.25594 0.38377
 C2238 C 1.09782 0.26575 0.40202
 N2239 N 1.11594 0.25578 0.41177
 N2240 N 1.12417 0.23659 0.40352
 C2241 C 1.12372 0.20641 0.37605
 C2242 C 1.13159 0.18942 0.36818
 C2243 C 1.08929 0.28668 0.41057
 C2244 C 1.08228 0.30441 0.41760
 C2245 C 0.61354 0.72697 0.38652
 N2246 N 0.62330 0.73691 0.40464
 N2247 N 0.61515 0.75619 0.41277
 C2248 C 0.59700 0.76610 0.40302
 N2249 N 0.58724 0.75615 0.38491
 N2250 N 0.59538 0.73688 0.37679
 C2251 C 0.62264 0.70651 0.37745
 C2252 C 0.63043 0.68945 0.36966
 C2253 C 0.58856 0.78712 0.41143
 C2254 C 0.58163 0.80492 0.41834
 C2255 C 0.61385 0.22660 0.88575
 N2256 N 0.62378 0.23651 0.90379
 N2257 N 0.61563 0.25571 0.91211
 C2258 C 0.59732 0.26558 0.90263
 N2259 N 0.58739 0.25566 0.88459
 N2260 N 0.59553 0.23646 0.87628
 C2261 C 0.62295 0.20623 0.87647
 C2262 C 0.63076 0.18925 0.86852
 C2263 C 0.58889 0.28654 0.91122
 C2264 C 0.58195 0.30428 0.91825
 C2265 C 0.88637 0.72653 1.11411
 N2266 N 0.87663 0.73646 1.09596
 N2267 N 0.88482 0.75570 1.08775
 C2268 C 0.90300 0.76558 1.09744
 N2269 N 0.91275 0.75563 1.11558
 N2270 N 0.90456 0.73640 1.12379
 C2271 C 0.87723 0.70610 1.12327
 C2272 C 0.86940 0.68908 1.13112
 C2273 C 0.91148 0.78656 1.08895
 C2274 C 0.91844 0.80433 1.08198
 C2275 C 0.88515 0.22691 0.61464
 N2276 N 0.90335 0.23674 0.62435
 N2277 N 0.91166 0.25591 0.61609
 C2278 C 0.90201 0.26582 0.59788
 N2279 N 0.88383 0.25598 0.58816
 N2280 N 0.87552 0.23681 0.59642
 C2281 C 0.87591 0.20654 0.62384
 C2282 C 0.86800 0.18956 0.63172
 C2283 C 0.91063 0.28673 0.58931
 C2284 C 0.91770 0.30443 0.58226
 C2285 C 0.38617 0.72691 0.61372
 N2286 N 0.37649 0.73686 0.59555
 N2287 N 0.38467 0.75613 0.58742
 C2288 C 0.40278 0.76603 0.59723
 N2289 N 0.41248 0.75607 0.61539
 N2290 N 0.40429 0.73679 0.62351
 C2291 C 0.37704 0.70645 0.62279
 C2292 C 0.36921 0.68940 0.63058
 C2293 C 0.41124 0.78705 0.58882
 C2294 C 0.41817 0.80485 0.58191
 C2295 C 0.38642 0.22630 1.11409
 N2296 N 0.37657 0.23629 1.09603
 N2297 N 0.38470 0.25556 1.08785
 C2298 C 0.40292 0.26542 1.09748
 N2299 N 0.41278 0.25542 1.11553
 N2300 N 0.40465 0.23614 1.12371
 C2301 C 0.37734 0.20585 1.12323
 C2302 C 0.36954 0.18881 1.13108
 C2303 C 0.41132 0.28645 1.08903
 C2304 C 0.41822 0.30425 1.08210
 C2305 C 1.11348 1.11412 0.72635
 N2306 N 1.09547 1.12390 0.73645
 N2307 N 1.08739 1.11567 0.75573
 C2308 C 1.09708 1.09740 0.76549
 N2309 N 1.11508 1.08760 0.75537
 N2310 N 1.12315 1.09584 0.73609
 C2311 C 1.12251 1.12332 0.70589
 C2312 C 1.13027 1.13119 0.68884
 C2313 C 1.08873 1.08887 0.78652
 C2314 C 1.08186 1.08190 0.80432
 C2315 C 1.11444 0.61494 0.22653
 N2316 N 1.09632 0.62461 0.23654
 N2317 N 1.08813 0.61625 0.25573
 C2318 C 1.09780 0.59797 0.26547
 N2319 N 1.11591 0.58829 0.25545
 N2320 N 1.12411 0.59664 0.23627
 C2321 C 1.12358 0.62423 0.20615
 C2322 C 1.13142 0.63217 0.18915
 C2323 C 1.08930 0.58930 0.28640
 C2324 C 1.08229 0.58219 0.30411
 C2325 C 0.61377 1.11435 0.22653
 N2326 N 0.59552 1.12400 0.23633
 N2327 N 0.58731 1.11583 0.25558
 C2328 C 0.59710 1.09776 0.26561
 N2329 N 0.61534 1.08810 0.25580
 N2330 N 0.62355 1.09627 0.23655
 C2331 C 0.62294 1.12348 0.20610
 C2332 C 0.63080 1.13131 0.18907
 C2333 C 0.58860 1.08931 0.28662
 C2334 C 0.58164 1.08237 0.30440
 C2335 C 0.61393 0.61386 0.72689
 N2336 N 0.62377 0.59582 0.73691
 N2337 N 0.61559 0.58763 0.75617
 C2338 C 0.59732 0.59723 0.76598
 N2339 N 0.58747 0.61526 0.75594
 N2340 N 0.59565 0.62345 0.73668
 C2341 C 0.62306 0.62300 0.70644
 C2342 C 0.63089 0.63085 0.68941
 C2343 C 0.58885 0.58875 0.78698
 C2344 C 0.58190 0.58179 0.80476
 C2345 C 0.88634 0.88611 0.72663
 N2346 N 0.90427 0.87616 0.73674
 N2347 N 0.91247 0.88437 0.75597
 C2348 C 0.90300 0.90276 0.76566
 N2349 N 0.88508 0.91272 0.75553
 N2350 N 0.87687 0.90451 0.73631
 C2351 C 0.87717 0.87696 0.70622
 C2352 C 0.86930 0.86912 0.68922
 C2353 C 0.91148 0.91126 0.78663
 C2354 C 0.91844 0.91823 0.80440
 C2355 C 0.88593 0.38556 0.22652
 N2356 N 0.90408 0.37585 0.23647
 N2357 N 0.91228 0.38407 0.25569
 C2358 C 0.90258 0.40227 0.26554
 N2359 N 0.88444 0.41199 0.25558
 N2360 N 0.87624 0.40376 0.23636
 C2361 C 0.87678 0.37638 0.20612
 C2362 C 0.86892 0.36852 0.18911
 C2363 C 0.91107 0.41079 0.28651
 C2364 C 0.91804 0.41778 0.30426
 C2365 C 0.38585 0.88590 0.22672
 N2366 N 0.40400 0.87625 0.23673
 N2367 N 0.41214 0.88454 0.25595
 C2368 C 0.40237 0.90272 0.26575
 N2369 N 0.38423 0.91239 0.25573
 N2370 N 0.37610 0.90410 0.23651
 C2371 C 0.37676 0.87666 0.20631
 C2372 C 0.36895 0.86876 0.18930
 C2373 C 0.41080 0.91131 0.28672
 C2374 C 0.41774 0.91834 0.30447
 C2375 C 0.38640 0.38584 0.72662
 N2376 N 0.40561 0.37737 0.73566
 N2377 N 0.41371 0.38560 0.75492
 C2378 C 0.40285 0.40255 0.76573
 N2379 N 0.38364 0.41103 0.75668
 N2380 N 0.37554 0.40280 0.73742
 C2381 C 0.37737 0.37663 0.70617
 C2382 C 0.36960 0.36876 0.68914
 C2383 C 0.41127 0.41104 0.78674
 C2384 C 0.41818 0.41800 0.80453
 C2385 C 1.11407 0.88601 1.27372
 N2386 N 1.09602 0.87619 1.26373
 N2387 N 1.08784 0.88438 1.24446
 C2388 C 1.09747 0.90263 1.23462
 N2389 N 1.11550 0.91245 1.24462
 N2390 N 1.12368 0.90427 1.26389
 C2391 C 1.12321 0.87686 1.29417
 C2392 C 1.13105 0.86902 1.31121
 C2393 C 1.08900 0.91110 1.21360
 C2394 C 1.08205 0.91805 1.19581
 C2395 C 1.11439 0.38567 0.77319
 N2396 N 1.09610 0.37607 0.76344
 N2397 N 1.08787 0.38423 0.74418
 C2398 C 1.09769 0.40225 0.73411
 N2399 N 1.11597 0.41186 0.74387
 N2400 N 1.12420 0.40370 0.76312
 C2401 C 1.12356 0.37655 0.79364
 C2402 C 1.13141 0.36873 0.81069
 C2403 C 1.08915 0.41071 0.71311
 C2404 C 1.08215 0.41767 0.69534
 C2405 C 0.61371 0.88644 0.77349
 N2406 N 0.62305 0.90497 0.76392
 N2407 N 0.61489 0.91318 0.74466
 C2408 C 0.59713 0.90311 0.73440
 N2409 N 0.58778 0.88459 0.74399
 N2410 N 0.59595 0.87637 0.76325
 C2411 C 0.62285 0.87728 0.79394
 C2412 C 0.63068 0.86943 0.81097
 C2413 C 0.58869 0.91162 0.71339
 C2414 C 0.58175 0.91859 0.69560
 C2415 C 0.61438 0.38498 1.27359
 N2416 N 0.59627 0.37525 1.26364
 N2417 N 0.58802 0.38352 1.24444
 C2418 C 0.59765 0.40178 1.23461
 N2419 N 0.61576 0.41152 1.24458
 N2420 N 0.62400 0.40324 1.26378
 C2421 C 0.62357 0.37576 1.29399
 C2422 C 0.63143 0.36787 1.31101
 C2423 C 0.58910 0.41036 1.21367
 C2424 C 0.58208 0.41741 1.19594
 C2425 C 0.88657 1.11357 1.27356
 N2426 N 0.88093 1.09254 1.26662
 N2427 N 0.88907 1.08438 1.24735
 C2428 C 0.90309 1.09700 1.23444
 N2429 N 0.90874 1.11802 1.24139
 N2430 N 0.90060 1.12618 1.26066
 C2431 C 0.87741 1.12258 1.29403
 C2432 C 0.86959 1.13034 1.31108
 C2433 C 0.91146 1.08845 1.21344
 C2434 C 0.91835 1.08148 1.19566
 C2435 C 0.88624 0.61368 0.77315
 N2436 N 0.90441 0.62337 0.76325
 N2437 N 0.91258 0.61519 0.74399
 C2438 C 0.90282 0.59708 0.73406
 N2439 N 0.88466 0.58738 0.74398
 N2440 N 0.87649 0.59555 0.76323
 C2441 C 0.87712 0.62281 0.79360
 C2442 C 0.86930 0.63064 0.81063
 C2443 C 0.91128 0.58862 0.71306
 C2444 C 0.91822 0.58168 0.69528
 C2445 C 0.38597 1.11482 0.77313
 N2446 N 0.40402 1.12455 0.76304
 N2447 N 0.41214 1.11626 0.74381
 C2448 C 0.40246 1.09799 0.73410
 N2449 N 0.38443 1.08824 0.74421
 N2450 N 0.37631 1.09654 0.76343
 C2451 C 0.37691 1.12406 0.79355
 C2452 C 0.36911 1.13195 0.81056
 C2453 C 0.41088 1.08939 0.71313
 C2454 C 0.41780 1.08237 0.69538
 C2455 C 0.38611 0.61469 1.27344
 N2456 N 0.37642 0.59637 1.26383
 N2457 N 0.38451 0.58799 1.24463
 C2458 C 0.40254 0.59768 1.23447
 N2459 N 0.41224 0.61599 1.24409
 N2460 N 0.40415 0.62437 1.26329
 C2461 C 0.37706 0.62403 1.29383
 C2462 C 0.36927 0.63198 1.31082
 C2463 C 0.41092 0.58900 1.21352
 C2464 C 0.41783 0.58191 1.19578
 C2465 C 1.11384 1.27330 0.88554
 N2466 N 1.12356 1.26346 0.90376
 N2467 N 1.11539 1.24423 0.91202
 C2468 C 1.09727 1.23427 0.90231
 N2469 N 1.08753 1.24413 0.88411
 N2470 N 1.09570 1.26335 0.87585
 C2471 C 1.12296 1.29371 0.87633
 C2472 C 1.13079 1.31071 0.86844
 C2473 C 1.08882 1.21329 0.91086
 C2474 C 1.08188 1.19553 0.91786
 C2475 C 1.11367 0.77336 0.38573
 N2476 N 1.09552 0.76346 0.37600
 N2477 N 1.08737 0.74418 0.38416
 C2478 C 1.09712 0.73423 0.40229
 N2479 N 1.11526 0.74414 0.41204
 N2480 N 1.12341 0.76341 0.40388
 C2481 C 1.12277 0.79381 0.37662
 C2482 C 1.13058 0.81086 0.36879
 C2483 C 1.08869 0.71321 0.41073
 C2484 C 1.08177 0.69541 0.41766
 C2485 C 0.61436 1.27343 0.38525
 N2486 N 0.62397 1.26360 0.40353
 N2487 N 0.61572 1.24442 0.41180
 C2488 C 0.59761 1.23449 0.40204
 N2489 N 0.58798 1.24432 0.38377
 N2490 N 0.59623 1.26351 0.37551
 C2491 C 0.62355 1.29381 0.37605
 C2492 C 0.63143 1.31081 0.36816
 C2493 C 0.58905 1.21356 0.41062
 C2494 C 0.58202 1.19585 0.41767
 C2495 C 0.61385 0.77326 0.88653
 N2496 N 0.59549 0.76354 0.87701
 N2497 N 0.58733 0.74427 0.88517
 C2498 C 0.59728 0.73415 0.90310
 N2499 N 0.61562 0.74388 0.91264
 N2500 N 0.62378 0.76314 0.90448
 C2501 C 0.62295 0.79371 0.87741
 C2502 C 0.63076 0.81075 0.86959
 C2503 C 0.58883 0.71313 0.91155
 C2504 C 0.58189 0.69534 0.91848
 C2505 C 0.88624 1.27303 1.11439
 N2506 N 0.90441 1.26305 1.12403
 N2507 N 0.91254 1.24383 1.11575
 C2508 C 0.90274 1.23401 1.09759
 N2509 N 0.88458 1.24400 1.08794
 N2510 N 0.87645 1.26322 1.09622
 C2511 C 0.87716 1.29344 1.12363
 C2512 C 0.86937 1.31044 1.13152
 C2513 C 0.91116 1.21304 1.08902
 C2514 C 0.91809 1.19529 1.08201
 C2515 C 0.88607 0.77311 0.61362
 N2516 N 0.90451 0.76345 0.62304
 N2517 N 0.91271 0.74422 0.61485
 C2518 C 0.90270 0.73408 0.59698
 N2519 N 0.88427 0.74375 0.58754
 N2520 N 0.87607 0.76298 0.59574
 C2521 C 0.87694 0.79353 0.62276
 C2522 C 0.86912 0.81055 0.63061
 C2523 C 0.91120 0.71310 0.58851
 C2524 C 0.91817 0.69535 0.58155
 C2525 C 0.38590 1.27370 0.61402
 N2526 N 0.37630 1.26401 0.59569
 N2527 N 0.38443 1.24476 0.58746
 C2528 C 0.40240 1.23463 0.59732
 N2529 N 0.41201 1.24434 0.61564
 N2530 N 0.40388 1.26359 0.62386
 C2531 C 0.37683 1.29414 0.62319
 C2532 C 0.36903 1.31117 0.63105
 C2533 C 0.41081 1.21364 0.58879
 C2534 C 0.41773 1.19587 0.58181
 C2535 C 0.38621 0.77310 1.11472
 N2536 N 0.37652 0.76340 1.09644
 N2537 N 0.38462 0.74416 1.08817
 C2538 C 0.40265 0.73404 1.09793
 N2539 N 0.41235 0.74376 1.11620
 N2540 N 0.40425 0.76300 1.12447
 C2541 C 0.37718 0.79354 1.12393
 C2542 C 0.36941 0.81058 1.13180
 C2543 C 0.41104 0.71307 1.08935
 C2544 C 0.41795 0.69531 1.08232
 C2545 C 0.88639 0.72672 0.88607
 N2546 N 0.90448 0.73664 0.87625
 N2547 N 0.91269 0.75588 0.88439
 C2548 C 0.90305 0.76578 0.90260
 N2549 N 0.88497 0.75585 0.91243
 N2550 N 0.87676 0.73660 0.90429
 C2551 C 0.87723 0.70628 0.87699
 C2552 C 0.86938 0.68926 0.86920
 C2553 C 0.91155 0.78677 0.91103
 C2554 C 0.91851 0.80454 0.91796
 C2555 C 0.88660 0.22634 0.38660
 N2556 N 0.87648 0.23662 0.40432
 N2557 N 0.88463 0.25589 0.41243
 C2558 C 0.90315 0.26546 0.40307
 N2559 N 0.91329 0.25517 0.38536
 N2560 N 0.90513 0.23589 0.37725
 C2561 C 0.87749 0.20589 0.37751
 C2562 C 0.86966 0.18887 0.36971
 C2563 C 0.91158 0.28650 0.41143
 C2564 C 0.91848 0.30431 0.41830
 C2565 C 0.38554 0.72716 0.38578
 N2566 N 0.37570 0.73716 0.40381
 N2567 N 0.38389 0.75638 0.41202
 C2568 C 0.40218 0.76618 0.40245
 N2569 N 0.41204 0.75616 0.38443
 N2570 N 0.40385 0.73694 0.37622
 C2571 C 0.37642 0.70673 0.37663
 C2572 C 0.36860 0.68970 0.36879
 C2573 C 0.41069 0.78714 0.41096
 C2574 C 0.41767 0.80488 0.41795
 C2575 C 0.38563 0.22687 0.88576
 N2576 N 0.37584 0.23681 0.90386
 N2577 N 0.38406 0.25600 0.91211
 C2578 C 0.40232 0.26583 0.90252
 N2579 N 0.41213 0.25588 0.88443
 N2580 N 0.40391 0.23669 0.87617
 C2581 C 0.37647 0.20649 0.87656
 C2582 C 0.36862 0.18950 0.86869
 C2583 C 0.41085 0.28676 0.91107
 C2584 C 0.41785 0.30448 0.91809
 C2585 C 1.11465 0.72683 1.11496
 N2586 N 1.09647 0.73677 1.12458
 N2587 N 1.08830 0.75598 1.11628
 C2588 C 1.09807 0.76584 1.09811
 N2589 N 1.11624 0.75589 1.08848
 N2590 N 1.12441 0.73667 1.09678
 C2591 C 1.12375 0.70640 1.12420
 C2592 C 1.13156 0.68937 1.13210
 C2593 C 1.08958 0.78679 1.08950
 C2594 C 1.08259 0.80452 1.08244
 C2595 C 1.11381 0.22636 0.61379
 N2596 N 1.12327 0.23602 0.59535
 N2597 N 1.11512 0.25529 0.58715
 C2598 C 1.09728 0.26547 0.59716
 N2599 N 1.08781 0.25579 0.61559
 N2600 N 1.09596 0.23653 0.62378
 C2601 C 1.12292 0.20590 0.62292
 C2602 C 1.13074 0.18885 0.63075
 C2603 C 1.08885 0.28648 0.58867
 C2604 C 1.08193 0.30427 0.58170
 C2605 C 0.61388 0.72704 0.61393
 N2606 N 0.62327 0.73676 0.59549
 N2607 N 0.61508 0.75602 0.58735
 C2608 C 0.59723 0.76615 0.59741
 N2609 N 0.58782 0.75643 0.61584
 N2610 N 0.59602 0.73716 0.62398
 C2611 C 0.62304 0.70659 0.62301
 C2612 C 0.63088 0.68954 0.63081
 C2613 C 0.58875 0.78717 0.58897
 C2614 C 0.58180 0.80496 0.58204
 C2615 C 0.61428 0.22642 1.11414
 N2616 N 0.62382 0.23636 1.09589
 N2617 N 0.61555 0.25560 1.08778
 C2618 C 0.59748 0.26549 1.09768
 N2619 N 0.58792 0.25554 1.11591
 N2620 N 0.59620 0.23630 1.12402
 C2621 C 0.62351 0.20598 1.12319
 C2622 C 0.63139 0.18895 1.13099
 C2623 C 0.58891 0.28649 1.08928
 C2624 C 0.58190 0.30426 1.08236
 C2625 C 1.27317 1.11474 0.88612
 N2626 N 1.26325 1.12431 0.90435
 N2627 N 1.24405 1.11600 0.91250
 C2628 C 1.23419 1.09789 0.90267
 N2629 N 1.24412 1.08832 0.88445
 N2630 N 1.26333 1.09662 0.87630
 C2631 C 1.29357 1.12399 0.87702
 C2632 C 1.31057 1.13190 0.86920
 C2633 C 1.21324 1.08929 0.91112
 C2634 C 1.19550 1.08225 0.91806
 C2635 C 1.27320 0.61472 0.38610
 N2636 N 1.26313 0.62428 0.40425
 N2637 N 1.24392 0.61590 0.41230
 C2638 C 1.23420 0.59772 0.40246
 N2639 N 1.24428 0.58816 0.38432
 N2640 N 1.26350 0.59653 0.37626
 C2641 C 1.29361 0.62405 0.37709
 C2642 C 1.31061 0.63200 0.36933
 C2643 C 1.21323 0.58905 0.41080
 C2644 C 1.19549 0.58197 0.41768
 C2645 C 0.77341 1.11361 0.38655
 N2646 N 0.76350 1.09545 0.37685
 N2647 N 0.74420 1.08736 0.38497
 C2648 C 0.73422 1.09719 0.40303
 N2649 N 0.74414 1.11533 0.41274
 N2650 N 0.76345 1.12342 0.40462
 C2651 C 0.79390 1.12265 0.37747
 C2652 C 0.81097 1.13041 0.36967
 C2653 C 0.71317 1.08882 0.41143
 C2654 C 0.69534 1.08196 0.41832
 C2655 C 0.77328 0.61374 0.88628
 N2656 N 0.76327 0.62355 0.90433
 N2657 N 0.74404 0.61536 0.91252
 C2658 C 0.73423 0.59711 0.90290
 N2659 N 0.74424 0.58729 0.88486
 N2660 N 0.76348 0.59548 0.87667
 C2661 C 0.79371 0.62288 0.87714
 C2662 C 0.81074 0.63070 0.86930
 C2663 C 0.71325 0.58861 0.91137
 C2664 C 0.69548 0.58164 0.91833
 C2665 C 1.27347 0.88619 1.11454
 N2666 N 1.26380 0.90466 1.12388
 N2667 N 1.24457 0.91283 1.11562
 C2668 C 1.23444 0.90277 1.09778
 N2669 N 1.24413 0.88431 1.08842
 N2670 N 1.26335 0.87615 1.09668
 C2671 C 1.29388 0.87707 1.12376
 C2672 C 1.31089 0.86925 1.13165
 C2673 C 1.21346 0.91123 1.08924
 C2674 C 1.19570 0.91818 1.08225
 C2675 C 1.27354 0.38583 0.61357
 N2676 N 1.26380 0.40416 0.62313
 N2677 N 1.24454 0.41235 0.61498
 C2678 C 1.23444 0.40247 0.59702
 N2679 N 1.24419 0.38416 0.58744
 N2680 N 1.26345 0.37596 0.59559
 C2681 C 1.29398 0.37668 0.62268
 C2682 C 1.31101 0.36883 0.63050
 C2683 C 1.21343 0.41095 0.58858
 C2684 C 1.19564 0.41789 0.58165
 C2685 C 0.77315 0.88635 0.61380
 N2686 N 0.76324 0.90443 0.62365
 N2687 N 0.74401 0.91268 0.61551
 C2688 C 0.73410 0.90311 0.59728
 N2689 N 0.74402 0.88504 0.58742
 N2690 N 0.76326 0.87679 0.59556
 C2691 C 0.79358 0.87714 0.62289
 C2692 C 0.81060 0.86925 0.63069
 C2693 C 0.71311 0.91164 0.58886
 C2694 C 0.69534 0.91863 0.58193
 C2695 C 0.77324 0.38586 1.11457
 N2696 N 0.76347 0.37621 1.09631
 N2697 N 0.74422 0.38435 1.08808
 C2698 C 0.73416 0.40238 1.09787
 N2699 N 0.74394 0.41204 1.11612
 N2700 N 0.76319 0.40390 1.12435
 C2701 C 0.79369 0.37678 1.12375
 C2702 C 0.81073 0.36899 1.13160
 C2703 C 0.71317 0.41080 1.08934
 C2704 C 0.69540 0.41773 1.08235
 C2705 C 0.72692 1.11419 1.11372
 N2706 N 0.73669 1.09597 1.12348
 N2707 N 0.75592 1.08769 1.11539
 C2708 C 0.76597 1.09738 1.09728
 N2709 N 0.75619 1.11559 1.08750
 N2710 N 0.73695 1.12387 1.09560
 C2711 C 0.70649 1.12342 1.12276
 C2712 C 0.68946 1.13130 1.13053
 C2713 C 0.78695 1.08881 1.08889
 C2714 C 0.80471 1.08179 1.08197
 C2715 C 0.72692 0.61394 0.61377
 N2716 N 0.73695 0.62381 0.59575
 N2717 N 0.75618 0.61562 0.58756
 C2718 C 0.76596 0.59731 0.59714
 N2719 N 0.75592 0.58743 0.61515
 N2720 N 0.73669 0.59562 0.62334
 C2721 C 0.70649 0.62307 0.62292
 C2722 C 0.68947 0.63090 0.63076
 C2723 C 0.78694 0.58882 0.58865
 C2724 C 0.80470 0.58185 0.58169
 C2725 C 0.22625 1.11419 0.61331
 N2726 N 0.23635 1.12404 0.59532
 N2727 N 0.25561 1.11582 0.58722
 C2728 C 0.26534 1.09752 0.59686
 N2729 N 0.25522 1.08766 0.61484
 N2730 N 0.23596 1.09588 0.62294
 C2731 C 0.20581 1.12337 0.62238
 C2732 C 0.18879 1.13123 0.63018
 C2733 C 0.28636 1.08903 0.58849
 C2734 C 0.30416 1.08208 0.58161
 C2735 C 0.22687 0.61448 1.11456
 N2736 N 0.23673 0.59630 1.12432
 N2737 N 0.25592 0.58801 1.11611
 C2738 C 0.26583 0.59765 1.09790
 N2739 N 0.25596 0.61581 1.08813
 N2740 N 0.23677 0.62410 1.09633
 C2741 C 0.20649 0.62372 1.12371
 C2742 C 0.18951 0.63163 1.13156
 C2743 C 0.28677 0.58906 1.08940
 C2744 C 0.30449 0.58201 1.08241
 C2745 C 0.72688 0.88630 0.88633
 N2746 N 0.73790 0.90303 0.87531
 N2747 N 0.75717 0.91119 0.88344
 C2748 C 0.76600 0.90288 0.90283
 N2749 N 0.75497 0.88617 0.91385
 N2750 N 0.73570 0.87800 0.90573
 C2751 C 0.70642 0.87716 0.87729
 C2752 C 0.68937 0.86933 0.86951
 C2753 C 0.78702 0.91130 0.91127
 C2754 C 0.80481 0.91822 0.91818
 C2755 C 0.72696 0.38537 0.38560
 N2756 N 0.73762 0.37487 0.40289
 N2757 N 0.75682 0.38312 0.41109
 C2758 C 0.76595 0.40212 0.40225
 N2759 N 0.75528 0.41263 0.38496
 N2760 N 0.73607 0.40438 0.37676
 C2761 C 0.70656 0.37619 0.37643
 C2762 C 0.68955 0.36833 0.36859
 C2763 C 0.78689 0.41070 0.41073
 C2764 C 0.80462 0.41773 0.41771
 C2765 C 0.22656 0.88643 0.38584
 N2766 N 0.23642 0.90464 0.37616
 N2767 N 0.25565 0.91282 0.38437
 C2768 C 0.26559 0.90304 0.40250
 N2769 N 0.25571 0.88485 0.41219
 N2770 N 0.23648 0.87666 0.40398
 C2771 C 0.20614 0.87730 0.37668
 C2772 C 0.18912 0.86948 0.36883
 C2773 C 0.28656 0.91152 0.41100
 C2774 C 0.30432 0.91848 0.41798
 C2775 C 0.22688 0.38606 0.88552
 N2776 N 0.23692 0.40415 0.87581
 N2777 N 0.25614 0.41227 0.88410
 C2778 C 0.26589 0.40254 0.90236
 N2779 N 0.25584 0.38446 0.91208
 N2780 N 0.23662 0.37634 0.90378
 C2781 C 0.20646 0.37700 0.87628
 C2782 C 0.18944 0.36922 0.86839
 C2783 C 0.28685 0.41095 0.91096
 C2784 C 0.30459 0.41788 0.91801
   
