data_POSCAR
  _audit_creation_date              2014-09-24
  _audit_creation_method            'ToBaCCo'
  _symmetry_space_group_name_H-M    'P1'
  _symmetry_Int_Tables_number       1
  _symmetry_cell_setting            triclinic
  loop_
  _symmetry_equiv_pos_as_xyz
 x,y,z
_cell_length_a 86.0821
_cell_length_b 90.9283
_cell_length_c 91.2517
_cell_angle_alpha 90.300900
_cell_angle_beta 90.504400
_cell_angle_gamma 90.185400
loop_
  _atom_site_label
  _atom_site_type_symbol
  _atom_site_fract_x
  _atom_site_fract_y
  _atom_site_fract_z
N1 N 0.30934 0.42137 0.89111
 N2 N 0.32311 0.42693 0.88832
 C3 C 0.32213 0.43587 0.87674
 C4 C 0.30687 0.43632 0.87209
 C5 C 0.29902 0.42678 0.88130
 H6 H 0.33147 0.44292 0.87311
 H7 H 0.28658 0.42515 0.88179
 Cu8 Cu 0.33968 0.42661 0.90257
 Cu9 Cu 0.30587 0.40971 0.90888
 Cu10 Cu 0.33536 0.41177 0.93538
 N11 N 0.35223 0.43306 0.91894
 N12 N 0.35068 0.42732 0.93200
 C13 C 0.36030 0.43442 0.94143
 C14 C 0.36788 0.44556 0.93385
 C15 C 0.36245 0.44420 0.91956
 H16 H 0.36104 0.43212 0.95303
 H17 H 0.36549 0.45084 0.91022
 N18 N 0.31613 0.40019 0.93787
 N19 N 0.30514 0.39891 0.92771
 C20 C 0.29405 0.38968 0.93261
 C21 C 0.29816 0.38524 0.94660
 C22 C 0.31216 0.39213 0.94956
 H23 H 0.28366 0.38658 0.92659
 H24 H 0.31909 0.39109 0.95944
 H25 H 0.32075 0.42245 0.92146
 H26 H 0.32863 0.40481 0.91427
 N27 N 0.42769 0.85787 0.43276
 N28 N 0.43696 0.85683 0.42147
 C29 C 0.44823 0.86697 0.42262
 C30 C 0.44599 0.87510 0.43533
 C31 C 0.43259 0.86910 0.44141
 H32 H 0.45733 0.86821 0.41464
 H33 H 0.42724 0.87215 0.45166
 Cu34 Cu 0.43421 0.84201 0.40644
 Cu35 Cu 0.41081 0.84356 0.43532
 Cu36 Cu 0.41571 0.81112 0.41506
 N37 N 0.43713 0.82429 0.39513
 N38 N 0.42991 0.81202 0.39844
 C39 C 0.43530 0.80110 0.38980
 C40 C 0.44668 0.80692 0.38086
 C41 C 0.44750 0.82165 0.38454
 H42 H 0.43204 0.78964 0.39068
 H43 H 0.45564 0.82967 0.38040
 N44 N 0.40181 0.81271 0.43212
 N45 N 0.39938 0.82509 0.43941
 C46 C 0.38911 0.82249 0.45018
 C47 C 0.38514 0.80774 0.44977
 C48 C 0.39338 0.80191 0.43821
 H49 H 0.38523 0.83058 0.45806
 H50 H 0.39314 0.79061 0.43449
 H51 H 0.42560 0.82810 0.42737
 H52 H 0.40902 0.83279 0.41511
 N53 N 0.94099 0.90411 0.80748
 N54 N 0.94924 0.90688 0.81936
 C55 C 0.96213 0.89853 0.81923
 C56 C 0.96199 0.88997 0.80658
 C57 C 0.94834 0.89388 0.79940
 H58 H 0.97080 0.89853 0.82786
 H59 H 0.94395 0.88955 0.78912
 Cu60 Cu 0.94228 0.92081 0.83420
 Cu61 Cu 0.92105 0.91357 0.80367
 Cu62 Cu 0.91144 0.94234 0.82664
 N63 N 0.93786 0.93840 0.84570
 N64 N 0.92618 0.94701 0.84229
 C65 C 0.92587 0.95841 0.85170
 C66 C 0.93797 0.95693 0.86176
 C67 C 0.94533 0.94399 0.85756
 H68 H 0.91711 0.96689 0.85139
 H69 H 0.95544 0.93905 0.86258
 N70 N 0.89794 0.93584 0.81031
 N71 N 0.90142 0.92463 0.80173
 C72 C 0.88953 0.92223 0.79231
 C73 C 0.87800 0.93248 0.79505
 C74 C 0.88379 0.94095 0.80650
 H75 H 0.88923 0.91361 0.78411
 H76 H 0.87788 0.94985 0.81201
 H77 H 0.92853 0.93256 0.81409
 H78 H 0.91566 0.91998 0.82480
 N79 N 0.44619 -0.10594 0.30855
 N80 N 0.45562 -0.10468 0.32001
 C81 C 0.46759 -0.11397 0.31837
 C82 C 0.46563 -0.12158 0.30532
 C83 C 0.45190 -0.11624 0.29940
 H84 H 0.47685 -0.11539 0.32631
 H85 H 0.44647 -0.11962 0.28919
 Cu86 Cu 0.45170 -0.09153 0.33680
 Cu87 Cu 0.42697 -0.09414 0.30639
 Cu88 Cu 0.41778 -0.07424 0.33604
 N89 N 0.44754 -0.07489 0.34980
 N90 N 0.43398 -0.06833 0.34956
 C91 C 0.43422 -0.05688 0.35888
 C92 C 0.44874 -0.05618 0.36542
 C93 C 0.45690 -0.06791 0.35953
 H94 H 0.42462 -0.04941 0.36049
 H95 H 0.46889 -0.07076 0.36170
 N96 N 0.40481 -0.07420 0.31874
 N97 N 0.40858 -0.08144 0.30679
 C98 C 0.39921 -0.07702 0.29570
 C99 C 0.38930 -0.06633 0.30112
 C100 C 0.39312 -0.06496 0.31576
 H101 H 0.40049 -0.08028 0.28436
 H102 H 0.38872 -0.05684 0.32335
 H103 H 0.43946 -0.08098 0.32079
 H104 H 0.42973 -0.09748 0.32858
 N105 N 0.80053 0.32503 0.35128
 N106 N 0.81059 0.31453 0.35399
 C107 C 0.80564 0.30655 0.36544
 C108 C 0.79166 0.31233 0.37014
 C109 C 0.78881 0.32407 0.36088
 H110 H 0.81165 0.29711 0.36984
 H111 H 0.77906 0.33152 0.36121
 Cu112 Cu 0.82893 0.31201 0.34203
 Cu113 Cu 0.80349 0.33936 0.33572
 Cu114 Cu 0.83727 0.33589 0.31545
 N115 N 0.84350 0.30714 0.32658
 N116 N 0.84713 0.31674 0.31646
 C117 C 0.85793 0.31093 0.30759
 C118 C 0.86107 0.29678 0.31227
 C119 C 0.85167 0.29474 0.32435
 H120 H 0.86286 0.31648 0.29826
 H121 H 0.85101 0.28507 0.33116
 N122 N 0.82182 0.35139 0.31205
 N123 N 0.80888 0.35274 0.31958
 C124 C 0.80048 0.36388 0.31391
 C125 C 0.80844 0.36960 0.30211
 C126 C 0.82192 0.36143 0.30130
 H127 H 0.78915 0.36722 0.31768
 H128 H 0.83101 0.36249 0.29327
 H129 H 0.81710 0.32612 0.32244
 H130 H 0.82703 0.33834 0.33608
 N131 N -0.19619 0.84443 0.80323
 N132 N -0.20543 0.84162 0.81424
 C133 C -0.21855 0.84950 0.81266
 C134 C -0.21744 0.85783 0.79996
 C135 C -0.20303 0.85421 0.79431
 H136 H -0.22801 0.84930 0.82035
 H137 H -0.19773 0.85837 0.78448
 Cu138 Cu -0.19934 0.82829 0.82986
 Cu139 Cu -0.17592 0.83550 0.80127
 Cu140 Cu -0.16616 0.80883 0.82641
 N141 N -0.19429 0.81203 0.84279
 N142 N -0.18147 0.80439 0.84126
 C143 C -0.18098 0.79384 0.85151
 C144 C -0.19419 0.79489 0.85998
 C145 C -0.20238 0.80660 0.85413
 H146 H -0.17155 0.78613 0.85283
 H147 H -0.21346 0.81076 0.85774
 N148 N -0.15222 0.81495 0.81060
 N149 N -0.15593 0.82522 0.80107
 C150 C -0.14417 0.82693 0.79162
 C151 C -0.13244 0.81724 0.79534
 C152 C -0.13797 0.80982 0.80745
 H153 H -0.14427 0.83451 0.78254
 H154 H -0.13206 0.80134 0.81357
 H155 H -0.18278 0.81648 0.81186
 H156 H -0.17205 0.83057 0.82313
 N157 N 0.95479 0.34907 0.43397
 N158 N 0.94340 0.35406 0.44207
 C159 C 0.94826 0.36599 0.44957
 C160 C 0.96362 0.36886 0.44600
 C161 C 0.96733 0.35780 0.43598
 H162 H 0.94099 0.37207 0.45703
 H163 H 0.97831 0.35610 0.43060
 Cu164 Cu 0.92321 0.34467 0.44232
 Cu165 Cu 0.95232 0.33146 0.42163
 Cu166 Cu 0.91672 0.31348 0.42386
 N167 N 0.90585 0.33196 0.44705
 N168 N 0.90342 0.31964 0.43984
 C169 C 0.89053 0.31312 0.44495
 C170 C 0.88450 0.32182 0.45605
 C171 C 0.89462 0.33371 0.45707
 H172 H 0.88589 0.30286 0.44074
 H173 H 0.89386 0.34305 0.46439
 N174 N 0.93363 0.30666 0.41124
 N175 N 0.94715 0.31346 0.41013
 C176 C 0.95592 0.30609 0.40035
 C177 C 0.94753 0.29401 0.39523
 C178 C 0.93349 0.29479 0.40242
 H179 H 0.96755 0.30920 0.39723
 H180 H 0.92373 0.28738 0.40112
 H181 H 0.92892 0.33272 0.41879
 H182 H 0.93578 0.32197 0.43490
 N183 N 0.45445 0.44513 0.84653
 N184 N 0.44268 0.45385 0.84358
 C185 C 0.44304 0.46530 0.85304
 C186 C 0.45568 0.46363 0.86244
 C187 C 0.46260 0.45066 0.85796
 H188 H 0.43462 0.47408 0.85323
 H189 H 0.47292 0.44568 0.86256
 Cu190 Cu 0.42785 0.44918 0.82781
 Cu191 Cu 0.45854 0.42728 0.83537
 Cu192 Cu 0.43222 0.41818 0.80798
 N193 N 0.41270 0.44340 0.81266
 N194 N 0.41466 0.43123 0.80509
 C195 C 0.40290 0.42960 0.79546
 C196 C 0.39284 0.44137 0.79691
 C197 C 0.39947 0.44994 0.80801
 H198 H 0.40184 0.42041 0.78799
 H199 H 0.39502 0.46016 0.81236
 N200 N 0.45066 0.40624 0.81241
 N201 N 0.46072 0.40965 0.82287
 C202 C 0.47192 0.39933 0.82323
 C203 C 0.46878 0.38889 0.81246
 C204 C 0.45518 0.39369 0.80585
 H205 H 0.48167 0.39945 0.83076
 H206 H 0.44890 0.38834 0.79700
 H207 H 0.44756 0.43378 0.81633
 H208 H 0.43559 0.42349 0.82989
 N209 N 0.80865 0.89300 0.92172
 N210 N 0.81976 0.89627 0.93115
 C211 C 0.81867 0.88742 0.94283
 C212 C 0.80621 0.87799 0.94062
 C213 C 0.80017 0.88179 0.92702
 H214 H 0.82643 0.88786 0.95221
 H215 H 0.79014 0.87705 0.92153
 Cu216 Cu 0.83444 0.91198 0.92762
 Cu217 Cu 0.80605 0.90397 0.90356
 Cu218 Cu 0.82229 0.93887 0.90540
 N219 N 0.84437 0.93108 0.92773
 N220 N 0.83941 0.94171 0.91922
 C221 C 0.84704 0.95418 0.92272
 C222 C 0.85732 0.95118 0.93409
 C223 C 0.85537 0.93636 0.93691
 H224 H 0.84491 0.96471 0.91766
 H225 H 0.86080 0.93008 0.94557
 N226 N 0.80724 0.93291 0.89006
 N227 N 0.80091 0.91967 0.88955
 C228 C 0.79043 0.91917 0.87855
 C229 C 0.79027 0.93270 0.87170
 C230 C 0.80115 0.94111 0.87920
 H231 H 0.78329 0.90971 0.87585
 H232 H 0.80397 0.95252 0.87722
 H233 H 0.82631 0.91690 0.90233
 H234 H 0.81116 0.92168 0.91605
 N235 N 0.31455 0.85468 0.32516
 N236 N 0.32795 0.85803 0.31924
 C237 C 0.32570 0.86807 0.30870
 C238 C 0.31006 0.87133 0.30808
 C239 C 0.30329 0.86274 0.31874
 H240 H 0.33458 0.87188 0.30130
 H241 H 0.29099 0.86147 0.32072
 Cu242 Cu 0.34647 0.84691 0.32363
 Cu243 Cu 0.31256 0.83835 0.33884
 Cu244 Cu 0.34587 0.81764 0.34555
 N245 N 0.36213 0.83180 0.32231
 N246 N 0.36180 0.82002 0.33058
 C247 C 0.37286 0.81061 0.32603
 C248 C 0.38028 0.81680 0.31409
 C249 C 0.37324 0.83031 0.31221
 H250 H 0.37465 0.79972 0.33043
 H251 H 0.37543 0.83823 0.30366
 N252 N 0.32591 0.81399 0.35540
 N253 N 0.31317 0.82152 0.35238
 C254 C 0.30130 0.81580 0.35995
 C255 C 0.30679 0.80422 0.36820
 C256 C 0.32248 0.80341 0.36516
 H257 H 0.28950 0.81983 0.35961
 H258 H 0.33064 0.79544 0.36938
 H259 H 0.33507 0.83820 0.34663
 H260 H 0.33077 0.82606 0.33061
 N261 N 0.78963 0.40901 0.43674
 N262 N 0.79882 0.40963 0.44828
 C263 C 0.79292 0.40103 0.45887
 C264 C 0.77922 0.39477 0.45366
 C265 C 0.77756 0.40007 0.43954
 H266 H 0.79827 0.39931 0.46948
 H267 H 0.76856 0.39726 0.43166
 Cu268 Cu 0.81798 0.42103 0.44779
 Cu269 Cu 0.79479 0.41881 0.41857
 Cu270 Cu 0.82287 0.44631 0.42141
 N271 N 0.83767 0.43111 0.44521
 N272 N 0.83968 0.44130 0.43522
 C273 C 0.85417 0.44692 0.43673
 C274 C 0.86166 0.43964 0.44813
 C275 C 0.85074 0.42973 0.45319
 H276 H 0.85887 0.45560 0.43001
 H277 H 0.85202 0.42228 0.46231
 N278 N 0.80760 0.44514 0.40496
 N279 N 0.79732 0.43437 0.40395
 C280 C 0.78806 0.43661 0.39229
 C281 C 0.79260 0.44942 0.38547
 C282 C 0.80518 0.45452 0.39370
 H283 H 0.77839 0.42959 0.38922
 H284 H 0.81165 0.46456 0.39196
 H285 H 0.81825 0.42479 0.42130
 H286 H 0.80324 0.43618 0.43055
 N287 N 0.92594 0.85411 -0.05956
 N288 N 0.93685 0.85491 -0.06950
 C289 C 0.94612 0.86657 -0.06641
 C290 C 0.94072 0.87324 -0.05377
 C291 C 0.92788 0.86507 -0.04981
 H292 H 0.95646 0.86954 -0.07240
 H293 H 0.92068 0.86672 -0.04029
 Cu294 Cu 0.93841 0.83972 -0.08458
 Cu295 Cu 0.91025 0.83870 -0.05961
 Cu296 Cu 0.91778 0.80841 -0.08164
 N297 N 0.93947 0.82423 -0.09938
 N298 N 0.93111 0.81213 -0.09846
 C299 C 0.93541 0.80273 -0.10915
 C300 C 0.94722 0.80924 -0.11702
 C301 C 0.94949 0.82284 -0.11052
 H302 H 0.93129 0.79153 -0.11026
 H303 H 0.95849 0.83070 -0.11317
 N304 N 0.90188 0.80826 -0.06614
 N305 N 0.89932 0.81983 -0.05771
 C306 C 0.88910 0.81617 -0.04729
 C307 C 0.88486 0.80165 -0.04928
 C308 C 0.89305 0.79695 -0.06142
 H309 H 0.88531 0.82345 -0.03863
 H310 H 0.89312 0.78596 -0.06599
 H311 H 0.92644 0.82375 -0.06650
 H312 H 0.91232 0.82982 -0.08088
 N313 N 0.30321 0.35133 0.82943
 N314 N 0.31434 0.35452 0.82025
 C315 C 0.30927 0.36484 0.81084
 C316 C 0.29406 0.36836 0.81436
 C317 C 0.29067 0.35953 0.82628
 H318 H 0.31620 0.36942 0.80216
 H319 H 0.27999 0.35916 0.83240
 Cu320 Cu 0.33442 0.34503 0.82177
 Cu321 Cu 0.30615 0.33722 0.84513
 Cu322 Cu 0.33762 0.31364 0.84107
 N323 N 0.35141 0.33151 0.81878
 N324 N 0.35265 0.31914 0.82606
 C325 C 0.36498 0.31162 0.82098
 C326 C 0.37178 0.31973 0.80985
 C327 C 0.36279 0.33231 0.80886
 H328 H 0.36847 0.30091 0.82487
 H329 H 0.36409 0.34130 0.80128
 N330 N 0.32100 0.31039 0.85561
 N331 N 0.30895 0.31928 0.85674
 C332 C 0.29898 0.31376 0.86653
 C333 C 0.30510 0.30094 0.87205
 C334 C 0.31912 0.29909 0.86500
 H335 H 0.28791 0.31857 0.86929
 H336 H 0.32696 0.28990 0.86616
 H337 H 0.33028 0.33432 0.84610
 H338 H 0.31931 0.32465 0.83121
 N339 N 0.14808 0.58731 0.56959
 N340 N 0.14812 0.57410 0.57531
 C341 C 0.13617 0.56629 0.56967
 C342 C 0.12821 0.57512 0.55983
 C343 C 0.13606 0.58845 0.56018
 H344 H 0.13381 0.55489 0.57217
 H345 H 0.13355 0.59816 0.55380
 Cu346 Cu 0.16402 0.56833 0.58927
 Cu347 Cu 0.16445 0.60140 0.57402
 Cu348 Cu 0.19848 0.58597 0.58775
 N349 N 0.18221 0.56096 0.59927
 N350 N 0.19562 0.56790 0.59904
 C351 C 0.20590 0.56048 0.60742
 C352 C 0.19848 0.54817 0.61299
 C353 C 0.18348 0.54889 0.60757
 H354 H 0.21784 0.56379 0.60932
 H355 H 0.17404 0.54140 0.60985
 N356 N 0.19793 0.60488 0.57705
 N357 N 0.18479 0.61102 0.57275
 C358 C 0.18799 0.62290 0.56462
 C359 C 0.20386 0.62437 0.56371
 C360 C 0.20989 0.61274 0.57163
 H361 H 0.17944 0.62909 0.55850
 H362 H 0.22198 0.60959 0.57234
 H363 H 0.17953 0.58388 0.57370
 H364 H 0.17666 0.59251 0.59206
 N365 N 0.58886 0.68552 0.05376
 N366 N 0.59299 0.69542 0.06362
 C367 C 0.60368 0.70448 0.05774
 C368 C 0.60626 0.70006 0.04337
 C369 C 0.59657 0.68802 0.04128
 H370 H 0.60918 0.71354 0.06351
 H371 H 0.59555 0.68119 0.03158
 Cu372 Cu 0.58392 0.69527 0.08317
 Cu373 Cu 0.57438 0.66957 0.05800
 Cu374 Cu 0.57123 0.66265 0.09494
 N375 N 0.57316 0.69346 0.10188
 N376 N 0.56881 0.68043 0.10656
 C377 C 0.56071 0.68199 0.11896
 C378 C 0.55977 0.69675 0.12226
 C379 C 0.56781 0.70382 0.11122
 H380 H 0.55487 0.67311 0.12455
 H381 H 0.56872 0.71555 0.10954
 N382 N 0.56593 0.64803 0.07988
 N383 N 0.56630 0.65086 0.06573
 C384 C 0.56001 0.63941 0.05834
 C385 C 0.55525 0.62898 0.06840
 C386 C 0.55931 0.63480 0.08193
 H387 H 0.55835 0.63901 0.04658
 H388 H 0.55693 0.63014 0.09256
 H389 H 0.56506 0.67582 0.07808
 H390 H 0.58547 0.66901 0.07734
 N391 N 0.68570 0.18807 0.65250
 N392 N 0.69522 0.17708 0.64998
 C393 C 0.70558 0.18103 0.63984
 C394 C 0.70238 0.19523 0.63558
 C395 C 0.68958 0.19940 0.64373
 H396 H 0.71501 0.17420 0.63606
 H397 H 0.68405 0.21006 0.64379
 Cu398 Cu 0.69433 0.15896 0.66083
 Cu399 Cu 0.67014 0.18699 0.66805
 Cu400 Cu 0.66985 0.15455 0.68835
 N401 N 0.69799 0.14414 0.67554
 N402 N 0.68830 0.14235 0.68641
 C403 C 0.69320 0.13109 0.69477
 C404 C 0.70683 0.12562 0.68885
 C405 C 0.70948 0.13423 0.67663
 H406 H 0.68726 0.12723 0.70440
 H407 H 0.71886 0.13320 0.66889
 N408 N 0.65544 0.17094 0.69181
 N409 N 0.65543 0.18331 0.68428
 C410 C 0.64443 0.19227 0.68980
 C411 C 0.63732 0.18522 0.70143
 C412 C 0.64462 0.17172 0.70228
 H413 H 0.64199 0.20323 0.68588
 H414 H 0.64228 0.16306 0.71002
 H415 H 0.68241 0.17221 0.68088
 H416 H 0.66754 0.16474 0.66790
 N417 N 1.10922 0.07505 0.17542
 N418 N 1.10919 0.06826 0.16258
 C419 C 1.12016 0.05782 0.16263
 C420 C 1.12747 0.05785 0.17616
 C421 C 1.12037 0.06903 0.18399
 H422 H 1.12209 0.05020 0.15370
 H423 H 1.12248 0.07189 0.19535
 Cu424 Cu 1.09325 0.07093 0.14726
 Cu425 Cu 1.09351 0.09010 0.18058
 Cu426 Cu 1.06504 0.09414 0.15575
 N427 N 1.07336 0.07044 0.13697
 N428 N 1.06214 0.07949 0.14052
 C429 C 1.04931 0.07607 0.13273
 C430 C 1.05269 0.06425 0.12370
 C431 C 1.06815 0.06106 0.12655
 H432 H 1.03827 0.08159 0.13380
 H433 H 1.07485 0.05212 0.12199
 N434 N 1.06415 0.10369 0.17464
 N435 N 1.07519 0.10221 0.18457
 C436 C 1.07099 0.10953 0.19684
 C437 C 1.05641 0.11556 0.19440
 C438 C 1.05251 0.11165 0.18021
 H439 H 1.07771 0.10994 0.20690
 H440 H 1.04182 0.11418 0.17444
 H441 H 1.08187 0.07596 0.16644
 H442 H 1.09348 0.09103 0.15824
 N443 N 0.06463 0.14953 1.06989
 N444 N 0.05375 0.15192 1.07962
 C445 C 0.04109 0.14394 1.07594
 C446 C 0.04430 0.13603 1.06328
 C447 C 0.05941 0.13979 1.05984
 H448 H 0.03037 0.14391 1.08203
 H449 H 0.06595 0.13619 1.05041
 Cu450 Cu 0.05733 0.16518 1.09617
 Cu451 Cu 0.08425 0.16004 1.07045
 Cu452 Cu 0.08449 0.19161 1.09192
 N453 N 0.05875 0.18192 1.10946
 N454 N 0.06911 0.19235 1.10746
 C455 C 0.06728 0.20282 1.11773
 C456 C 0.05510 0.19880 1.12672
 C457 C 0.04999 0.18539 1.12115
 H458 H 0.07444 0.21258 1.11868
 H459 H 0.04042 0.17883 1.12509
 N460 N 0.09917 0.18834 1.07574
 N461 N 0.09924 0.17609 1.06794
 C462 C 0.10977 0.17731 1.05723
 C463 C 0.11674 0.19099 1.05832
 C464 C 0.10985 0.19766 1.07028
 H465 H 0.11179 0.16903 1.04893
 H466 H 0.11194 0.20873 1.07423
 H467 H 0.08517 0.16941 1.09163
 H468 H 0.07208 0.17806 1.07775
 N469 N 0.16027 0.68754 0.68761
 N470 N 0.16355 0.67673 0.69658
 C471 C 0.15285 0.67642 0.70726
 C472 C 0.14232 0.68772 0.70489
 C473 C 0.14747 0.69452 0.69227
 H474 H 0.15277 0.66857 0.71611
 H475 H 0.14222 0.70376 0.68674
 Cu476 Cu 0.18137 0.66401 0.69320
 Cu477 Cu 0.17264 0.69172 0.67045
 Cu478 Cu 0.20384 0.66886 0.66342
 N479 N 0.19866 0.65100 0.68886
 N480 N 0.20736 0.65292 0.67726
 C481 C 0.21826 0.64234 0.67685
 C482 C 0.21629 0.63322 0.68883
 C483 C 0.20370 0.63909 0.69618
 H484 H 0.22682 0.64128 0.66832
 H485 H 0.19855 0.63502 0.70612
 N486 N 0.19829 0.68566 0.65079
 N487 N 0.18641 0.69431 0.65360
 C488 C 0.18560 0.70481 0.64333
 C489 C 0.19757 0.70280 0.63352
 C490 C 0.20537 0.69048 0.63856
 H491 H 0.17683 0.71327 0.64299
 H492 H 0.21557 0.68553 0.63381
 H493 H 0.18037 0.67028 0.66728
 H494 H 0.19341 0.68284 0.67807
 N495 N 1.18749 0.14458 0.18627
 N496 N 1.19580 0.14681 0.17448
 C497 C 1.20701 0.13656 0.17378
 C498 C 1.20561 0.12735 0.18577
 C499 C 1.19305 0.13278 0.19343
 H500 H 1.21556 0.13588 0.16520
 H501 H 1.18856 0.12872 0.20367
 Cu502 Cu 1.19141 0.16296 0.16118
 Cu503 Cu 1.17066 0.15760 0.19187
 Cu504 Cu 1.16498 0.18853 0.17063
 N505 N 1.18953 0.18144 0.15067
 N506 N 1.17914 0.19130 0.15438
 C507 C 1.18047 0.20303 0.14558
 C508 C 1.19237 0.20046 0.13577
 C509 C 1.19784 0.18659 0.13932
 H510 H 1.17326 0.21270 0.14631
 H511 H 1.20732 0.18077 0.13424
 N512 N 1.15189 0.18379 0.18757
 N513 N 1.15424 0.17208 0.19576
 C514 C 1.14432 0.17238 0.20706
 C515 C 1.13527 0.18487 0.20596
 C516 C 1.14032 0.19180 0.19340
 H517 H 1.14387 0.16421 0.21561
 H518 H 1.13630 0.20223 0.18920
 H519 H 1.16541 0.16582 0.17133
 H520 H 1.18069 0.17582 0.18221
 N521 N 0.65618 1.06830 0.56180
 N522 N 0.65898 1.07716 0.55078
 C523 C 0.64879 1.07411 0.53981
 C524 C 0.63925 1.06270 0.54434
 C525 C 0.64427 1.05937 0.55830
 H526 H 0.64899 1.07905 0.52906
 H527 H 0.64017 1.05045 0.56509
 Cu528 Cu 0.67696 1.09042 0.55159
 Cu529 Cu 0.66916 1.06771 0.57926
 Cu530 Cu 0.70616 1.08151 0.57474
 N531 N 0.69552 1.10276 0.55359
 N532 N 0.70688 1.09905 0.56254
 C533 C 0.71857 1.10878 0.56134
 C534 C 0.71439 1.11932 0.55111
 C535 C 0.69960 1.11512 0.54644
 H536 H 0.72930 1.10814 0.56753
 H537 H 0.69243 1.12049 0.53830
 N538 N 0.70089 1.06743 0.59036
 N539 N 0.68659 1.06256 0.59217
 C540 C 0.68659 1.05226 0.60265
 C541 C 0.70159 1.05057 0.60783
 C542 C 0.71040 1.06049 0.59992
 H543 H 0.67654 1.04583 0.60571
 H544 H 0.72288 1.06185 0.60046
 H545 H 0.68372 1.08629 0.57739
 H546 H 0.68747 1.06989 0.56557
 N547 N 0.56196 0.55238 0.15254
 N548 N 0.54948 0.55970 0.15627
 C549 C 0.53727 0.55466 0.14842
 C550 C 0.54239 0.54364 0.13911
 C551 C 0.55819 0.54256 0.14196
 H552 H 0.52561 0.55898 0.14917
 H553 H 0.56632 0.53510 0.13688
 Cu554 Cu 0.55068 0.57578 0.17028
 Cu555 Cu 0.58191 0.55641 0.16197
 Cu556 Cu 0.58013 0.57639 0.19478
 N557 N 0.54993 0.58800 0.18763
 N558 N 0.56139 0.58857 0.19724
 C559 C 0.55759 0.59827 0.20792
 C560 C 0.54288 0.60382 0.20482
 C561 C 0.53849 0.59702 0.19185
 H562 H 0.56489 0.60099 0.21726
 H563 H 0.52782 0.59871 0.18576
 N564 N 0.59795 0.56344 0.18958
 N565 N 0.59857 0.55647 0.17686
 C566 C 0.61137 0.54812 0.17651
 C567 C 0.61933 0.54967 0.18964
 C568 C 0.61057 0.55964 0.19766
 H569 H 0.61436 0.54097 0.16747
 H570 H 0.61286 0.56330 0.20877
 H571 H 0.57030 0.56028 0.18130
 H572 H 0.57920 0.57674 0.17268
 N573 N 0.65242 0.66481 0.18332
 N574 N 0.65133 0.67809 0.17785
 C575 C 0.64027 0.68553 0.18504
 C576 C 0.63409 0.67637 0.19562
 C577 C 0.64202 0.66324 0.19409
 H578 H 0.63731 0.69689 0.18301
 H579 H 0.64067 0.65337 0.20052
 Cu580 Cu 0.66486 0.68445 0.16223
 Cu581 Cu 0.66805 0.65106 0.17669
 Cu582 Cu 0.69868 0.66690 0.15800
 N583 N 0.67789 0.68803 0.14541
 N584 N 0.69126 0.68132 0.14375
 C585 C 0.69809 0.68636 0.13153
 C586 C 0.68840 0.69676 0.12518
 C587 C 0.67567 0.69746 0.13433
 H588 H 0.70934 0.68283 0.12771
 H589 H 0.66551 0.70430 0.13308
 N590 N 0.70059 0.64836 0.16896
 N591 N 0.68858 0.64196 0.17519
 C592 C 0.69348 0.63019 0.18271
 C593 C 0.70942 0.62913 0.18134
 C594 C 0.71354 0.64080 0.17241
 H595 H 0.68614 0.62375 0.18978
 H596 H 0.72513 0.64399 0.16923
 H597 H 0.68285 0.66861 0.17534
 H598 H 0.67654 0.66047 0.15742
 N599 N 0.14998 0.07229 1.05639
 N600 N 0.15092 0.05996 1.06397
 C601 C 0.13985 0.05056 1.05901
 C602 C 0.13188 0.05725 1.04762
 C603 C 0.13860 0.07097 1.04632
 H604 H 0.13818 0.03945 1.06289
 H605 H 0.13559 0.07930 1.03838
 Cu606 Cu 0.16757 0.05670 1.07881
 Cu607 Cu 0.16394 0.08934 1.05916
 Cu608 Cu 0.19004 0.08598 1.08594
 N609 N 0.18326 0.05652 1.09458
 N610 N 0.19206 0.06813 1.09711
 C611 C 0.20324 0.06472 1.10682
 C612 C 0.20146 0.05019 1.11070
 C613 C 0.18856 0.04527 1.10284
 H614 H 0.21251 0.07208 1.11022
 H615 H 0.18412 0.03413 1.10235
 N616 N 0.19251 0.10060 1.07085
 N617 N 0.18220 0.10211 1.06028
 C618 C 0.18681 0.11304 1.05136
 C619 C 0.20093 0.11844 1.05655
 C620 C 0.20412 0.11027 1.06897
 H621 H 0.18056 0.11653 1.04165
 H622 H 0.21411 0.11128 1.07616
 H623 H 0.17787 0.07268 1.06582
 H624 H 0.16337 0.07879 1.07957
 N625 N 0.60840 0.17793 0.58387
 N626 N 0.60771 0.16575 0.57608
 C627 C 0.61979 0.16529 0.56689
 C628 C 0.62864 0.17792 0.56890
 C629 C 0.62104 0.18566 0.57987
 H630 H 0.62135 0.15680 0.55872
 H631 H 0.62399 0.19643 0.58413
 Cu632 Cu 0.58992 0.15279 0.57690
 Cu633 Cu 0.59174 0.18350 0.59720
 Cu634 Cu 0.55885 0.16092 0.59688
 N635 N 0.56998 0.14371 0.57282
 N636 N 0.55775 0.14657 0.58086
 C637 C 0.54546 0.13898 0.57546
 C638 C 0.55031 0.13126 0.56322
 C639 C 0.56588 0.13456 0.56185
 H640 H 0.53375 0.13967 0.57962
 H641 H 0.57356 0.13085 0.55327
 N642 N 0.56086 0.17882 0.60913
 N643 N 0.57352 0.18708 0.60975
 C644 C 0.57109 0.19841 0.61904
 C645 C 0.55610 0.19738 0.62420
 C646 C 0.54994 0.18489 0.61769
 H647 H 0.57930 0.20716 0.62136
 H648 H 0.53828 0.18066 0.61898
 H649 H 0.58268 0.16297 0.60087
 H650 H 0.57425 0.17324 0.58512
 N651 N 0.09077 0.57314 0.69646
 N652 N 0.09251 0.56311 0.68609
 C653 C 0.10446 0.55427 0.68984
 C654 C 0.11049 0.55898 0.70323
 C655 C 0.10150 0.57099 0.70699
 H656 H 0.10839 0.54502 0.68337
 H657 H 0.10284 0.57787 0.71660
 Cu658 Cu 0.07887 0.56208 0.66846
 Cu659 Cu 0.07494 0.58879 0.69581
 Cu660 Cu 0.05252 0.58893 0.66588
 N661 N 0.06097 0.56057 0.65507
 N662 N 0.05047 0.57103 0.65459
 C663 C 0.03910 0.56721 0.64517
 C664 C 0.04267 0.55371 0.63916
 C665 C 0.05675 0.54980 0.64555
 H666 H 0.02907 0.57391 0.64267
 H667 H 0.06324 0.53982 0.64366
 N668 N 0.04990 0.60344 0.68112
 N669 N 0.05862 0.60339 0.69300
 C670 C 0.05394 0.61428 0.70199
 C671 C 0.04149 0.62139 0.69541
 C672 C 0.03931 0.61420 0.68214
 H673 H 0.05895 0.61660 0.71267
 H674 H 0.03062 0.61652 0.67386
 H675 H 0.06469 0.57226 0.68309
 H676 H 0.07931 0.58427 0.67415
 N677 N 0.65824 0.55378 0.07675
 N678 N 0.65331 0.56470 0.06862
 C679 C 0.63985 0.56086 0.06204
 C680 C 0.63605 0.54670 0.06630
 C681 C 0.64803 0.54258 0.07569
 H682 H 0.63353 0.56782 0.05453
 H683 H 0.64939 0.53220 0.08123
 Cu684 Cu 0.66515 0.58268 0.06687
 Cu685 Cu 0.67771 0.55484 0.08778
 Cu686 Cu 0.70138 0.58487 0.08080
 N687 N 0.67962 0.59758 0.06055
 N688 N 0.69372 0.59861 0.06611
 C689 C 0.70126 0.60973 0.05954
 C690 C 0.69137 0.61588 0.04920
 C691 C 0.67773 0.60788 0.05018
 H692 H 0.71318 0.61281 0.06180
 H693 H 0.66721 0.60935 0.04382
 N694 N 0.70682 0.56957 0.09518
 N695 N 0.69784 0.55809 0.09776
 C696 C 0.70457 0.54978 0.10817
 C697 C 0.71848 0.55630 0.11239
 C698 C 0.71950 0.56884 0.10388
 H699 H 0.69961 0.53976 0.11243
 H700 H 0.72863 0.57702 0.10420
 H701 H 0.68035 0.57749 0.08889
 H702 H 0.68796 0.56803 0.07217
 N703 N 0.06347 0.69570 0.59612
 N704 N 0.05164 0.68680 0.59822
 C705 C 0.04406 0.69119 0.61043
 C706 C 0.05159 0.70355 0.61610
 C707 C 0.06390 0.70589 0.60678
 H708 H 0.03352 0.68621 0.61451
 H709 H 0.07247 0.71456 0.60749
 Cu710 Cu 0.04682 0.67137 0.58374
 Cu711 Cu 0.07705 0.69457 0.57929
 Cu712 Cu 0.07069 0.66598 0.55505
 N713 N 0.04256 0.65612 0.56894
 N714 N 0.05169 0.65470 0.55752
 C715 C 0.04563 0.64467 0.54825
 C716 C 0.03204 0.63935 0.55412
 C717 C 0.03038 0.64678 0.56732
 H718 H 0.05057 0.64168 0.53780
 H719 H 0.02066 0.64598 0.57473
 N720 N 0.08724 0.68070 0.55242
 N721 N 0.08968 0.69165 0.56168
 C722 C 0.10151 0.69998 0.55679
 C723 C 0.10674 0.69405 0.54374
 C724 C 0.09738 0.68181 0.54132
 H725 H 0.10580 0.70982 0.56216
 H726 H 0.09788 0.67427 0.53215
 H727 H 0.06147 0.68423 0.56504
 H728 H 0.07414 0.67239 0.57683
 N729 N 0.55933 1.06307 0.64566
 N730 N 0.54565 1.06799 0.64955
 C731 C 0.53457 1.06101 0.64178
 C732 C 0.54163 1.05135 0.63212
 C733 C 0.55746 1.05306 0.63483
 H734 H 0.52233 1.06344 0.64258
 H735 H 0.56691 1.04729 0.62961
 Cu736 Cu 0.54366 1.08461 0.66268
 Cu737 Cu 0.57805 1.07009 0.65572
 Cu738 Cu 0.57082 1.08864 0.68861
 N739 N 0.54247 1.10023 0.67699
 N740 N 0.55316 1.10210 0.68718
 C741 C 0.54915 1.11364 0.69568
 C742 C 0.53516 1.11933 0.69041
 C743 C 0.53142 1.11046 0.67848
 H744 H 0.55588 1.11741 0.70504
 H745 H 0.52150 1.11132 0.67124
 N746 N 0.59039 1.07811 0.68469
 N747 N 0.59332 1.07177 0.67195
 C748 C 0.60620 1.06358 0.67332
 C749 C 0.61166 1.06472 0.68755
 C750 C 0.60140 1.07407 0.69447
 H751 H 0.61008 1.05575 0.66518
 H752 H 0.60093 1.07628 0.70612
 H753 H 0.56481 1.07150 0.67412
 H754 H 0.57143 1.08949 0.66664
 N755 N 0.44358 0.35029 0.92611
 N756 N 0.43261 0.35291 0.93568
 C757 C 0.43572 0.36578 0.94255
 C758 C 0.44945 0.37151 0.93694
 C759 C 0.45396 0.36130 0.92648
 H760 H 0.42866 0.37036 0.95117
 H761 H 0.46416 0.36155 0.91970
 Cu762 Cu 0.41597 0.33874 0.93881
 Cu763 Cu 0.44426 0.33275 0.91402
 Cu764 Cu 0.41600 0.30668 0.92016
 N765 N 0.40432 0.32168 0.94552
 N766 N 0.40516 0.30904 0.93852
 C767 C 0.39683 0.29890 0.94566
 C768 C 0.39029 0.30551 0.95775
 C769 C 0.39514 0.32004 0.95732
 H770 H 0.39537 0.28760 0.94214
 H771 H 0.39246 0.32864 0.96512
 N772 N 0.43197 0.30437 0.90514
 N773 N 0.44287 0.31429 0.90285
 C774 C 0.45220 0.30947 0.89209
 C775 C 0.44696 0.29581 0.88743
 C776 C 0.43409 0.29294 0.89597
 H777 H 0.46217 0.31540 0.88805
 H778 H 0.42674 0.28329 0.89554
 H779 H 0.42101 0.32839 0.91431
 H780 H 0.43295 0.31977 0.92913
 N781 N 0.93946 0.41335 0.36501
 N782 N 0.92787 0.42229 0.36757
 C783 C 0.93235 0.43232 0.37768
 C784 C 0.94785 0.42979 0.38125
 C785 C 0.95187 0.41753 0.37302
 H786 H 0.92515 0.44134 0.38130
 H787 H 0.96296 0.41202 0.37267
 Cu788 Cu 0.90887 0.42105 0.35589
 Cu789 Cu 0.93753 0.39745 0.35101
 Cu790 Cu 0.91303 0.40207 0.32270
 N791 N 0.89508 0.42383 0.33887
 N792 N 0.89692 0.41728 0.32604
 C793 C 0.88749 0.42379 0.31614
 C794 C 0.87958 0.43506 0.32308
 C795 C 0.88455 0.43458 0.33749
 H796 H 0.88728 0.42131 0.30454
 H797 H 0.88160 0.44220 0.34616
 N798 N 0.92974 0.38741 0.32225
 N799 N 0.93926 0.38586 0.33348
 C800 C 0.95032 0.37612 0.33015
 C801 C 0.94766 0.37112 0.31607
 C802 C 0.93438 0.37837 0.31134
 H803 H 0.95981 0.37309 0.33736
 H804 H 0.92894 0.37758 0.30064
 H805 H 0.92274 0.41599 0.33840
 H806 H 0.90988 0.40082 0.34467
 N807 N 0.30297 0.93002 0.39483
 N808 N 0.31399 0.94004 0.39394
 C809 C 0.31097 0.94880 0.38236
 C810 C 0.29716 0.94414 0.37585
 C811 C 0.29253 0.93215 0.38404
 H812 H 0.31784 0.95830 0.37940
 H813 H 0.28213 0.92560 0.38249
 Cu814 Cu 0.33032 0.94152 0.40906
 Cu815 Cu 0.30239 0.91557 0.41048
 Cu816 Cu 0.31590 0.92907 0.44208
 N817 N 0.33993 0.94676 0.42814
 N818 N 0.33370 0.94262 0.44061
 C819 C 0.34242 0.94770 0.45179
 C820 C 0.35498 0.95545 0.44625
 C821 C 0.35295 0.95462 0.43109
 H822 H 0.34008 0.94518 0.46310
 H823 H 0.36035 0.95926 0.42279
 N824 N 0.30354 0.91114 0.44122
 N825 N 0.29841 0.90546 0.42883
 C826 C 0.29019 0.89316 0.43171
 C827 C 0.29008 0.89114 0.44680
 C828 C 0.29869 0.90282 0.45240
 H829 H 0.28444 0.88642 0.42349
 H830 H 0.30147 0.90507 0.46378
 H831 H 0.31185 0.93842 0.42175
 H832 H 0.32633 0.92327 0.42293
 O833 O 0.21675 0.52368 0.74472
 O834 O 0.22546 0.52572 0.76846
 O835 O 0.25865 0.53018 0.71959
 O836 O 0.28350 0.51758 0.71882
 O837 O 0.22753 0.49501 0.70798
 O838 O 0.22209 0.47161 0.71782
 O839 O 0.29301 0.48770 0.76131
 O840 O 0.29561 0.51151 0.75396
 O841 O 0.25345 0.48266 0.78550
 O842 O 0.22611 0.49113 0.78289
 O843 O 0.26152 0.45459 0.75223
 O844 O 0.25742 0.45496 0.72526
 O845 O 0.28608 0.46838 0.74668
 O846 O 0.27691 0.46634 0.72048
 O847 O 0.24467 0.46177 0.76990
 O848 O 0.21887 0.47448 0.76968
 O849 O 0.27567 0.49550 0.78127
 O850 O 0.27758 0.52131 0.77180
 O851 O 0.20948 0.50446 0.73002
 O852 O 0.20838 0.47832 0.73547
 O853 O 0.24976 0.50773 0.70337
 O854 O 0.27638 0.49952 0.70673
 O855 O 0.24251 0.53771 0.73771
 O856 O 0.24916 0.53575 0.76450
 Zr857 Zr 0.23969 0.51891 0.75090
 O858 O 0.25102 0.50516 0.76607
 Zr859 Zr 0.26189 0.50761 0.72352
 O860 O 0.27454 0.49378 0.73764
 Zr861 Zr 0.22883 0.49014 0.73045
 O862 O 0.24011 0.47520 0.74452
 Zr863 Zr 0.27394 0.50190 0.75921
 O864 O 0.26311 0.51695 0.74469
 Zr865 Zr 0.24084 0.48415 0.76576
 O866 O 0.22820 0.49843 0.75198
 Zr867 Zr 0.26360 0.47316 0.73867
 O868 O 0.25171 0.48652 0.72327
 O869 O 0.23897 0.51083 0.72957
 O870 O 0.26394 0.48105 0.76005
 C871 C 0.20681 0.51675 0.73663
 C872 C 0.25051 0.54003 0.72609
 C873 C 0.23665 0.50210 0.69943
 C874 C 0.29558 0.47504 0.75548
 C875 C 0.26676 0.48777 0.78945
 C876 C 0.25356 0.45225 0.76385
 H877 H 0.25078 0.50971 0.77593
 H878 H 0.23463 0.46563 0.74422
 H879 H 0.23322 0.51740 0.72284
 H880 H 0.28538 0.49308 0.73418
 H881 H 0.29334 0.52123 0.74963
 H882 H 0.28545 0.52506 0.72654
 H883 H 0.21743 0.46630 0.76260
 H884 H 0.20474 0.48215 0.74501
 H885 H 0.28683 0.51971 0.77814
 H886 H 0.24348 0.54504 0.76258
 H887 H 0.24706 0.45148 0.72834
 H888 H 0.23169 0.46780 0.71329
 H889 H 0.21942 0.51697 0.77145
 H890 H 0.23112 0.49959 0.78790
 H891 H 0.27196 0.48993 0.70357
 H892 H 0.28596 0.47303 0.71978
 O893 O 0.25212 -0.02383 0.27623
 O894 O 0.22634 -0.02309 0.26705
 O895 O 0.27537 -0.04691 0.24139
 O896 O 0.27974 -0.04222 0.21585
 O897 O 0.29644 -0.00803 0.26044
 O898 O 0.29134 0.01764 0.25875
 O899 O 0.24239 -0.00668 0.19652
 O900 O 0.24525 -0.03180 0.20091
 O901 O 0.21874 0.01306 0.22930
 O902 O 0.22015 0.01273 0.25643
 O903 O 0.26134 0.03022 0.21688
 O904 O 0.28860 0.02420 0.22167
 O905 O 0.26234 0.00974 0.19831
 O906 O 0.29011 0.00742 0.20730
 O907 O 0.24007 0.03184 0.23133
 O908 O 0.23772 0.02762 0.25857
 O909 O 0.22048 -0.00568 0.21283
 O910 O 0.22388 -0.03196 0.21845
 O911 O 0.27222 -0.00762 0.27836
 O912 O 0.27173 0.01831 0.27223
 O913 O 0.29804 -0.02709 0.24428
 O914 O 0.29616 -0.02613 0.21774
 O915 O 0.25507 -0.04558 0.25714
 O916 O 0.22803 -0.03950 0.25101
 Zr917 Zr 0.24634 -0.02415 0.25382
 O918 O 0.23396 -0.01111 0.23873
 Zr919 Zr 0.27711 -0.02588 0.23220
 O920 O 0.26589 -0.01332 0.21602
 Zr921 Zr 0.27427 0.00095 0.25695
 O922 O 0.26334 0.01492 0.24169
 Zr923 Zr 0.24173 -0.01586 0.21754
 O924 O 0.25302 -0.03017 0.23243
 Zr925 Zr 0.23922 0.01128 0.24202
 O926 O 0.25003 -0.00166 0.25846
 Zr927 Zr 0.26995 0.00901 0.22033
 O928 O 0.28256 -0.00357 0.23575
 O929 O 0.27028 -0.02132 0.25351
 O930 O 0.24597 0.00649 0.22074
 C931 C 0.26263 -0.01701 0.28373
 C932 C 0.26634 -0.05248 0.25102
 C933 C 0.30363 -0.01893 0.25461
 C934 C 0.25123 0.00332 0.19119
 C935 C 0.21353 0.00549 0.21837
 C936 C 0.24952 0.03713 0.22184
 H937 H 0.22271 -0.01317 0.23961
 H938 H 0.26603 0.02525 0.24399
 H939 H 0.27576 -0.02750 0.26079
 H940 H 0.26953 -0.01633 0.20621
 H941 H 0.24659 -0.04136 0.20588
 H942 H 0.26974 -0.04757 0.21512
 H943 H 0.24704 0.03396 0.25788
 H944 H 0.26086 0.01791 0.27564
 H945 H 0.21825 -0.03191 0.20893
 H946 H 0.23058 -0.04552 0.24229
 H947 H 0.28672 0.03072 0.23018
 H948 H 0.29752 0.01714 0.24966
 H949 H 0.22579 -0.01286 0.27077
 H950 H 0.21337 0.00410 0.25461
 H951 H 0.30169 -0.01666 0.21913
 H952 H 0.28872 -0.00100 0.20051
 O953 O 0.49727 0.70208 0.23951
 O954 O 0.47205 0.71325 0.24003
 O955 O 0.52509 0.73527 0.21922
 O956 O 0.53244 0.75830 0.22358
 O957 O 0.54098 0.71307 0.25872
 O958 O 0.53485 0.71602 0.28415
 O959 O 0.49551 0.78263 0.25819
 O960 O 0.49892 0.77749 0.23294
 O961 O 0.46626 0.75188 0.27569
 O962 O 0.46446 0.72494 0.27496
 O963 O 0.50884 0.76033 0.29572
 O964 O 0.53570 0.75296 0.29165
 O965 O 0.51391 0.77878 0.27581
 O966 O 0.54042 0.76683 0.27519
 O967 O 0.48589 0.74793 0.29558
 O968 O 0.48097 0.72079 0.29063
 O969 O 0.47144 0.76846 0.25782
 O970 O 0.47547 0.76288 0.23187
 O971 O 0.51544 0.69818 0.25734
 O972 O 0.51345 0.70417 0.28333
 O973 O 0.54568 0.72948 0.24057
 O974 O 0.54679 0.75686 0.24274
 O975 O 0.50239 0.72239 0.21880
 O976 O 0.47588 0.72894 0.22405
 Zr977 Zr 0.49328 0.72499 0.24002
 O978 O 0.48196 0.74125 0.25246
 Zr979 Zr 0.52651 0.74374 0.24064
 O980 O 0.51651 0.76093 0.25280
 Zr981 Zr 0.51908 0.71920 0.26658
 O982 O 0.50906 0.73538 0.28012
 Zr983 Zr 0.49252 0.76170 0.24877
 O984 O 0.50281 0.74577 0.23502
 Zr985 Zr 0.48530 0.73735 0.27495
 O986 O 0.49498 0.71993 0.26247
 Zr987 Zr 0.51858 0.75606 0.27517
 O988 O 0.53013 0.73954 0.26306
 O989 O 0.51690 0.72316 0.24423
 O990 O 0.49488 0.75798 0.27115
 C991 C 0.50651 0.69372 0.24685
 C992 C 0.51480 0.72726 0.21269
 C993 C 0.54933 0.71823 0.24834
 C994 C 0.50438 0.78706 0.26874
 C995 C 0.46301 0.76342 0.26819
 C996 C 0.49595 0.75656 0.30163
 H997 H 0.47083 0.74149 0.24968
 H998 H 0.51075 0.73279 0.29051
 H999 H 0.52181 0.71558 0.23799
 H1000 H 0.52151 0.77039 0.25031
 H1001 H 0.50068 0.77202 0.22369
 H1002 H 0.52657 0.76746 0.22528
 H1003 H 0.48968 0.72085 0.29777
 H1004 H 0.50238 0.70149 0.28187
 H1005 H 0.47114 0.77297 0.23187
 H1006 H 0.47873 0.73824 0.21915
 H1007 H 0.53252 0.74440 0.29757
 H1008 H 0.54231 0.72432 0.28384
 H1009 H 0.47113 0.70881 0.24987
 H1010 H 0.45911 0.72663 0.26549
 H1011 H 0.55223 0.75367 0.25178
 H1012 H 0.54046 0.77386 0.26696
 O1013 O 0.00901 0.77232 0.79334
 O1014 O 0.03510 0.76459 0.79038
 O1015 O 0.00176 0.80002 0.75621
 O1016 O 0.00499 0.79767 0.73165
 O1017 O -0.03266 0.76918 0.76736
 O1018 O -0.03563 0.74327 0.76447
 O1019 O 0.03211 0.75325 0.71678
 O1020 O 0.03778 0.77714 0.72375
 O1021 O 0.04068 0.72710 0.75432
 O1022 O 0.03218 0.72810 0.77981
 O1023 O -0.00065 0.72156 0.73055
 O1024 O -0.02518 0.73474 0.72886
 O1025 O 0.00915 0.74118 0.71321
 O1026 O -0.01814 0.75119 0.71579
 O1027 O 0.01526 0.71489 0.74935
 O1028 O 0.01093 0.71887 0.77661
 O1029 O 0.04835 0.74398 0.73759
 O1030 O 0.05271 0.77010 0.74479
 O1031 O -0.01475 0.76175 0.78992
 O1032 O -0.02097 0.73680 0.78192
 O1033 O -0.02474 0.78674 0.75142
 O1034 O -0.01569 0.78466 0.72593
 O1035 O 0.01720 0.79359 0.77548
 O1036 O 0.04217 0.78061 0.77537
 Zr1037 Zr 0.02006 0.77063 0.77302
 O1038 O 0.03145 0.75437 0.76065
 Zr1039 Zr -0.00242 0.78012 0.74501
 O1040 O 0.00838 0.76466 0.73124
 Zr1041 Zr -0.01416 0.75412 0.76798
 O1042 O -0.00434 0.73746 0.75490
 Zr1043 Zr 0.03114 0.76045 0.73856
 O1044 O 0.02110 0.77762 0.75110
 Zr1045 Zr 0.01892 0.73452 0.76128
 O1046 O 0.00868 0.75021 0.77539
 Zr1047 Zr -0.00315 0.74438 0.73296
 O1048 O -0.01501 0.76024 0.74573
 O1049 O -0.00289 0.77425 0.76694
 O1050 O 0.01969 0.74028 0.73926
 C1051 C -0.00448 0.76846 0.79788
 C1052 C 0.00933 0.80306 0.76806
 C1053 C -0.03471 0.78119 0.76024
 C1054 C 0.02251 0.74574 0.70887
 C1055 C 0.05020 0.73192 0.74471
 C1056 C 0.00732 0.71204 0.73769
 H1057 H 0.04223 0.75323 0.76430
 H1058 H -0.01047 0.72831 0.75587
 H1059 H -0.00806 0.78165 0.77319
 H1060 H 0.00834 0.76838 0.72108
 H1061 H 0.03722 0.78657 0.72921
 H1062 H 0.01213 0.79346 0.72433
 H1063 H 0.00105 0.71467 0.77283
 H1064 H -0.01175 0.73433 0.78797
 H1065 H 0.06034 0.76787 0.73702
 H1066 H 0.04380 0.78660 0.76648
 H1067 H -0.02785 0.72870 0.73746
 H1068 H -0.03883 0.74546 0.75427
 H1069 H 0.03147 0.75487 0.79380
 H1070 H 0.04129 0.73472 0.78052
 H1071 H -0.02449 0.77763 0.72578
 H1072 H -0.01254 0.75861 0.70993
 O1073 O 0.02861 0.03020 -0.00350
 O1074 O 0.02157 0.03185 -0.02817
 O1075 O -0.01261 0.04911 0.01687
 O1076 O -0.03753 0.04368 0.01916
 O1077 O 0.00963 0.01045 0.03469
 O1078 O 0.00832 -0.01516 0.02780
 O1079 O -0.05391 0.01138 -0.02125
 O1080 O -0.04939 0.03606 -0.01723
 O1081 O -0.01588 -0.00615 -0.04303
 O1082 O 0.01287 -0.00397 -0.03899
 O1083 O -0.03086 -0.02795 -0.00566
 O1084 O -0.03081 -0.02409 0.01967
 O1085 O -0.05250 -0.00853 -0.00625
 O1086 O -0.04613 -0.00745 0.02165
 O1087 O -0.01356 -0.02689 -0.02430
 O1088 O 0.01444 -0.02033 -0.02408
 O1089 O -0.03453 0.01133 -0.04103
 O1090 O -0.02949 0.03745 -0.03550
 O1091 O 0.03000 0.01208 0.01355
 O1092 O 0.02456 -0.01394 0.01050
 O1093 O -0.01012 0.02691 0.03646
 O1094 O -0.03845 0.02416 0.03102
 O1095 O 0.00663 0.05060 -0.00002
 O1096 O 0.00324 0.04676 -0.02673
 Zr1097 Zr 0.00550 0.02996 -0.01092
 O1098 O -0.00830 0.01728 -0.02546
 Zr1099 Zr -0.02053 0.02738 0.01560
 O1100 O -0.03571 0.01529 0.00204
 Zr1101 Zr 0.00756 0.00260 0.01295
 O1102 O -0.00670 -0.01101 -0.00031
 Zr1103 Zr -0.03162 0.02025 -0.01999
 O1104 O -0.01802 0.03405 -0.00632
 Zr1105 Zr -0.00423 -0.00533 -0.02251
 O1106 O 0.01126 0.00747 -0.00931
 Zr1107 Zr -0.03033 -0.00706 0.00399
 O1108 O -0.01596 0.00494 0.01880
 O1109 O 0.00294 0.02489 0.01109
 O1110 O -0.02766 -0.00230 -0.01809
 C1111 C 0.03604 0.02256 0.00606
 C1112 C -0.00174 0.05607 0.01029
 C1113 C 0.00143 0.01981 0.04185
 C1114 C -0.05969 -0.00022 -0.01549
 C1115 C -0.02747 0.00119 -0.04815
 C1116 C -0.02356 -0.03373 -0.01642
 H1117 H -0.00640 0.02039 -0.03566
 H1118 H -0.00385 -0.02136 0.00156
 H1119 H 0.00975 0.03099 0.01748
 H1120 H -0.04657 0.01745 0.00471
 H1121 H -0.04423 0.04529 -0.01402
 H1122 H -0.04487 0.04304 0.01079
 H1123 H 0.01393 -0.02694 -0.01553
 H1124 H 0.02946 -0.01230 0.00087
 H1125 H -0.03894 0.03738 -0.04180
 H1126 H -0.00648 0.05208 -0.02450
 H1127 H -0.02014 -0.02803 0.02039
 H1128 H -0.00147 -0.01481 0.03342
 H1129 H 0.02542 0.02178 -0.03009
 H1130 H 0.01052 0.00469 -0.04512
 H1131 H -0.03594 0.01506 0.03645
 H1132 H -0.05471 -0.00060 0.01936
 O1133 O -0.01386 0.54134 0.52159
 O1134 O -0.03832 0.52862 0.51862
 O1135 O 0.01560 0.51007 0.54134
 O1136 O 0.02471 0.48768 0.53671
 O1137 O 0.03050 0.53464 0.50346
 O1138 O 0.02589 0.53234 0.47787
 O1139 O -0.00904 0.46178 0.49884
 O1140 O -0.00709 0.46596 0.52463
 O1141 O -0.04020 0.49128 0.48145
 O1142 O -0.04391 0.51717 0.48231
 O1143 O 0.00439 0.48648 0.46336
 O1144 O 0.03038 0.49595 0.46951
 O1145 O 0.00963 0.46773 0.48238
 O1146 O 0.03517 0.48126 0.48551
 O1147 O -0.01980 0.49639 0.46290
 O1148 O -0.02652 0.52376 0.46838
 O1149 O -0.03399 0.47392 0.49829
 O1150 O -0.03167 0.47877 0.52487
 O1151 O 0.00275 0.54726 0.50323
 O1152 O 0.00397 0.54190 0.47731
 O1153 O 0.03648 0.51792 0.52105
 O1154 O 0.03944 0.49058 0.51833
 O1155 O -0.00835 0.52054 0.54114
 O1156 O -0.03406 0.51218 0.53411
 Zr1157 Zr -0.01637 0.51828 0.51938
 O1158 O -0.02593 0.50174 0.50570
 Zr1159 Zr 0.01829 0.50229 0.51979
 O1160 O 0.01006 0.48477 0.50659
 Zr1161 Zr 0.00961 0.52700 0.49424
 O1162 O 0.00162 0.51060 0.47966
 Zr1163 Zr -0.01399 0.48196 0.50913
 O1164 O -0.00540 0.49809 0.52403
 Zr1165 Zr -0.02204 0.50671 0.48356
 O1166 O -0.01442 0.52430 0.49719
 Zr1167 Zr 0.01269 0.49062 0.48456
 O1168 O 0.02231 0.50757 0.49774
 O1169 O 0.00714 0.52218 0.51635
 O1170 O -0.01094 0.48680 0.48715
 C1171 C -0.00609 0.55066 0.51400
 C1172 C 0.00433 0.51675 0.54764
 C1173 C 0.03930 0.52968 0.51373
 C1174 C 0.00032 0.45852 0.48840
 C1175 C -0.04260 0.47896 0.48789
 C1176 C -0.00873 0.48895 0.45711
 H1177 H -0.03711 0.50057 0.50782
 H1178 H 0.00349 0.51370 0.46946
 H1179 H 0.01124 0.52995 0.52298
 H1180 H 0.01564 0.47560 0.50901
 H1181 H -0.00631 0.47108 0.53422
 H1182 H 0.01889 0.47846 0.53488
 H1183 H -0.01855 0.52324 0.46065
 H1184 H -0.00738 0.54353 0.47780
 H1185 H -0.03528 0.46842 0.52407
 H1186 H -0.03060 0.50297 0.53884
 H1187 H 0.02659 0.50418 0.46341
 H1188 H 0.03393 0.52459 0.47815
 H1189 H -0.03888 0.53393 0.50918
 H1190 H -0.04859 0.51654 0.49215
 H1191 H 0.04499 0.49445 0.50971
 H1192 H 0.03523 0.47375 0.49331
 O1193 O 0.53847 0.02798 0.49738
 O1194 O 0.53244 0.02823 0.47150
 O1195 O 0.49705 0.04328 0.51711
 O1196 O 0.47145 0.03771 0.51505
 O1197 O 0.51877 0.00503 0.53369
 O1198 O 0.51929 -0.02016 0.52586
 O1199 O 0.45769 0.00359 0.47535
 O1200 O 0.46036 0.02872 0.48053
 O1201 O 0.49847 -0.00998 0.45465
 O1202 O 0.52659 -0.00601 0.45980
 O1203 O 0.48168 -0.03357 0.48892
 O1204 O 0.48345 -0.03123 0.51601
 O1205 O 0.45953 -0.01501 0.49190
 O1206 O 0.46625 -0.01679 0.51833
 O1207 O 0.50107 -0.03056 0.47250
 O1208 O 0.52875 -0.02267 0.47418
 O1209 O 0.47812 0.00576 0.45633
 O1210 O 0.48038 0.03192 0.46259
 O1211 O 0.54035 0.00824 0.51252
 O1212 O 0.53652 -0.01752 0.51019
 O1213 O 0.49781 0.02014 0.53507
 O1214 O 0.47077 0.01805 0.52869
 O1215 O 0.51449 0.04655 0.49882
 O1216 O 0.51425 0.04322 0.47293
 Zr1217 Zr 0.51589 0.02600 0.48832
 O1218 O 0.50315 0.01324 0.47303
 Zr1219 Zr 0.48902 0.02157 0.51368
 O1220 O 0.47519 0.00853 0.49957
 Zr1221 Zr 0.51842 -0.00194 0.51159
 O1222 O 0.50594 -0.01596 0.49726
 Zr1223 Zr 0.47935 0.01428 0.47771
 O1224 O 0.49188 0.02861 0.49194
 Zr1225 Zr 0.50896 -0.00898 0.47557
 O1226 O 0.52303 0.00393 0.48976
 Zr1227 Zr 0.48201 -0.01363 0.50095
 O1228 O 0.49461 -0.00080 0.51647
 O1229 O 0.51277 0.02020 0.51012
 O1230 O 0.48513 -0.00789 0.47917
 C1231 C 0.54605 0.01966 0.50626
 C1232 C 0.50678 0.05115 0.50992
 C1233 C 0.50926 0.01319 0.54082
 C1234 C 0.45208 -0.00749 0.48226
 C1235 C 0.48643 -0.00357 0.44932
 C1236 C 0.49017 -0.03815 0.47831
 H1237 H 0.50518 0.01678 0.46299
 H1238 H 0.50943 -0.02620 0.49866
 H1239 H 0.51896 0.02633 0.51702
 H1240 H 0.46415 0.00993 0.50211
 H1241 H 0.46476 0.03823 0.48394
 H1242 H 0.46282 0.03449 0.50855
 H1243 H 0.52800 -0.03014 0.48199
 H1244 H 0.54116 -0.01635 0.50038
 H1245 H 0.47106 0.03130 0.45614
 H1246 H 0.50334 0.04662 0.47309
 H1247 H 0.49314 -0.03668 0.51404
 H1248 H 0.50886 -0.02102 0.53027
 H1249 H 0.53835 0.01892 0.47123
 H1250 H 0.52411 0.00294 0.45415
 H1251 H 0.47229 0.00812 0.53285
 H1252 H 0.45866 -0.00864 0.51803
 O1253 O 0.45806 0.50745 -0.02110
 O1254 O 0.46361 0.53233 -0.01264
 O1255 O 0.50027 0.49335 -0.03934
 O1256 O 0.52575 0.49356 -0.03181
 O1257 O 0.47690 0.46526 -0.01014
 O1258 O 0.47405 0.46474 0.01605
 O1259 O 0.53618 0.51992 0.01435
 O1260 O 0.53568 0.52312 -0.01129
 O1261 O 0.49459 0.53538 0.03077
 O1262 O 0.46646 0.53192 0.02309
 O1263 O 0.51059 0.49577 0.04270
 O1264 O 0.50859 0.47005 0.03149
 O1265 O 0.53334 0.49827 0.02642
 O1266 O 0.52761 0.47277 0.01884
 O1267 O 0.49050 0.51185 0.04424
 O1268 O 0.46387 0.51326 0.03480
 O1269 O 0.51602 0.53890 0.01683
 O1270 O 0.51547 0.54139 -0.01000
 O1271 O 0.45532 0.48598 -0.00866
 O1272 O 0.45670 0.48106 0.01719
 O1273 O 0.49826 0.46918 -0.02408
 O1274 O 0.52519 0.47386 -0.01757
 O1275 O 0.48238 0.51163 -0.03757
 O1276 O 0.48294 0.53547 -0.02618
 Zr1277 Zr 0.48018 0.51538 -0.01493
 O1278 O 0.49168 0.52567 0.00282
 Zr1279 Zr 0.50712 0.48961 -0.01737
 O1280 O 0.51979 0.49866 0.00037
 Zr1281 Zr 0.47610 0.48410 0.00348
 O1282 O 0.48731 0.49307 0.02211
 Zr1283 Zr 0.51559 0.52134 0.00180
 O1284 O 0.50436 0.51260 -0.01712
 Zr1285 Zr 0.48433 0.51599 0.02240
 O1286 O 0.47144 0.50681 0.00475
 Zr1287 Zr 0.51141 0.49017 0.02021
 O1288 O 0.50004 0.47966 0.00231
 O1289 O 0.48335 0.49279 -0.01628
 O1290 O 0.50821 0.51274 0.02164
 C1291 C 0.45045 0.49576 -0.01774
 C1292 C 0.49035 0.50231 -0.04500
 C1293 C 0.48654 0.46143 -0.02016
 C1294 C 0.54095 0.51000 0.02333
 C1295 C 0.50699 0.54247 0.02738
 C1296 C 0.50154 0.50430 0.04995
 H1297 H 0.48972 0.53637 0.00263
 H1298 H 0.48321 0.48843 0.03105
 H1299 H 0.47776 0.48820 -0.02465
 H1300 H 0.53097 0.49666 -0.00094
 H1301 H 0.53207 0.52294 -0.02163
 H1302 H 0.53420 0.49820 -0.02600
 H1303 H 0.46363 0.50298 0.03828
 H1304 H 0.45161 0.49077 0.01810
 H1305 H 0.52460 0.54727 -0.00675
 H1306 H 0.49395 0.53595 -0.02918
 H1307 H 0.49955 0.47102 0.03803
 H1308 H 0.48452 0.46028 0.01638
 H1309 H 0.45688 0.52951 -0.00437
 H1310 H 0.46996 0.54061 0.01753
 H1311 H 0.52272 0.46657 -0.00991
 H1312 H 0.53545 0.47555 0.01148
 O1313 O 0.74024 0.27841 0.46804
 O1314 O 0.71490 0.26920 0.47384
 O1315 O 0.75316 0.30234 0.50652
 O1316 O 0.75408 0.29752 0.53087
 O1317 O 0.78564 0.27325 0.48741
 O1318 O 0.78877 0.24729 0.48693
 O1319 O 0.72958 0.25086 0.54469
 O1320 O 0.72349 0.27580 0.54126
 O1321 O 0.71537 0.22867 0.50651
 O1322 O 0.71921 0.23302 0.47981
 O1323 O 0.75905 0.22177 0.52333
 O1324 O 0.78424 0.23495 0.52207
 O1325 O 0.75336 0.24007 0.54354
 O1326 O 0.77989 0.24988 0.53780
 O1327 O 0.74072 0.21676 0.50593
 O1328 O 0.74044 0.22317 0.47911
 O1329 O 0.71066 0.24361 0.52597
 O1330 O 0.70487 0.27017 0.52215
 O1331 O 0.76408 0.26776 0.46690
 O1332 O 0.77161 0.24248 0.47105
 O1333 O 0.78028 0.28917 0.50597
 O1334 O 0.77550 0.28463 0.53205
 O1335 O 0.73447 0.29731 0.48942
 O1336 O 0.71026 0.28390 0.49097
 Zr1337 Zr 0.73248 0.27422 0.48941
 O1338 O 0.72318 0.25673 0.50162
 Zr1339 Zr 0.75925 0.28153 0.51475
 O1340 O 0.75095 0.26455 0.52823
 Zr1341 Zr 0.76710 0.25810 0.48770
 O1342 O 0.75943 0.24002 0.50008
 Zr1343 Zr 0.72725 0.26062 0.52400
 O1344 O 0.73505 0.27905 0.51191
 Zr1345 Zr 0.73540 0.23737 0.49690
 O1346 O 0.74336 0.25444 0.48323
 Zr1347 Zr 0.76198 0.24477 0.52254
 O1348 O 0.77157 0.26211 0.51010
 O1349 O 0.75614 0.27781 0.49247
 O1350 O 0.73843 0.24096 0.51927
 C1351 C 0.75281 0.27515 0.46124
 C1352 C 0.74339 0.30625 0.49654
 C1353 C 0.78884 0.28456 0.49544
 C1354 C 0.74066 0.24317 0.55021
 C1355 C 0.70789 0.23208 0.51814
 C1356 C 0.74993 0.21291 0.51636
 H1357 H 0.71193 0.25572 0.49954
 H1358 H 0.76521 0.23109 0.49726
 H1359 H 0.76022 0.28594 0.48643
 H1360 H 0.75273 0.26724 0.53862
 H1361 H 0.72276 0.28564 0.53671
 H1362 H 0.74845 0.29242 0.53877
 H1363 H 0.75098 0.21914 0.48068
 H1364 H 0.76146 0.24008 0.46642
 H1365 H 0.69881 0.26716 0.53084
 H1366 H 0.70961 0.28823 0.50092
 H1367 H 0.78485 0.22888 0.51307
 H1368 H 0.79332 0.24809 0.49690
 H1369 H 0.71829 0.26019 0.46865
 H1370 H 0.70972 0.23875 0.48183
 H1371 H 0.78414 0.27770 0.53028
 H1372 H 0.77569 0.25703 0.54494
 O1373 O 0.76923 0.78428 -0.00406
 O1374 O 0.76290 0.77940 0.02091
 O1375 O 0.79068 0.74473 -0.01826
 O1376 O 0.78443 0.72041 -0.01748
 O1377 O 0.75662 0.76437 -0.04530
 O1378 O 0.72885 0.76558 -0.04486
 O1379 O 0.73789 0.70909 0.01173
 O1380 O 0.76504 0.71095 0.01367
 O1381 O 0.71952 0.74863 0.02710
 O1382 O 0.72397 0.77485 0.02157
 O1383 O 0.70477 0.73088 -0.01295
 O1384 O 0.71539 0.73136 -0.03829
 O1385 O 0.72329 0.71019 -0.00914
 O1386 O 0.73044 0.71466 -0.03530
 O1387 O 0.70307 0.74821 0.00500
 O1388 O 0.71066 0.77518 0.00297
 O1389 O 0.73513 0.72877 0.03016
 O1390 O 0.76371 0.73080 0.03124
 O1391 O 0.75473 0.78542 -0.02499
 O1392 O 0.72720 0.78221 -0.02879
 O1393 O 0.77291 0.74505 -0.04180
 O1394 O 0.76787 0.71931 -0.03602
 O1395 O 0.78874 0.76209 -0.00031
 O1396 O 0.77795 0.76182 0.02401
 Zr1397 Zr 0.76490 0.76321 0.00433
 O1398 O 0.74743 0.75184 0.01558
 Zr1399 Zr 0.76768 0.73704 -0.02089
 O1400 O 0.75042 0.72435 -0.01062
 Zr1401 Zr 0.74328 0.76492 -0.02602
 O1402 O 0.72486 0.75341 -0.01614
 Zr1403 Zr 0.74992 0.72919 0.01190
 O1404 O 0.76864 0.74044 0.00196
 Zr1405 Zr 0.72562 0.75708 0.00660
 O1406 O 0.74297 0.76996 -0.00347
 Zr1407 Zr 0.72844 0.73069 -0.01853
 O1408 O 0.74584 0.74224 -0.03005
 O1409 O 0.76522 0.75957 -0.01815
 O1410 O 0.72797 0.73450 0.00392
 C1411 C 0.76431 0.79097 -0.01556
 C1412 C 0.79656 0.75458 -0.00965
 C1413 C 0.76750 0.75568 -0.04951
 C1414 C 0.72781 0.70375 0.00266
 C1415 C 0.72414 0.73734 0.03430
 C1416 C 0.69722 0.73795 -0.00309
 H1417 H 0.74817 0.75421 0.02616
 H1418 H 0.71483 0.75648 -0.02047
 H1419 H 0.77343 0.76523 -0.02317
 H1420 H 0.75241 0.71378 -0.01231
 H1421 H 0.77574 0.71488 0.01282
 H1422 H 0.77933 0.71252 -0.01185
 H1423 H 0.70429 0.77305 -0.00587
 H1424 H 0.72593 0.78681 -0.01902
 H1425 H 0.76114 0.72231 0.03756
 H1426 H 0.78225 0.75174 0.02438
 H1427 H 0.70902 0.74039 -0.03814
 H1428 H 0.72897 0.75556 -0.04915
 H1429 H 0.75340 0.78508 0.01861
 H1430 H 0.73183 0.77329 0.02938
 H1431 H 0.75926 0.72102 -0.04306
 H1432 H 0.73815 0.70730 -0.03203
 O1433 O 0.99480 0.25208 0.30433
 O1434 O 1.02225 0.24947 0.30167
 O1435 O 0.98094 0.27698 0.26743
 O1436 O 0.98138 0.27507 0.24300
 O1437 O 0.95602 0.23708 0.27914
 O1438 O 0.96076 0.21178 0.27597
 O1439 O 1.02151 0.24097 0.22716
 O1440 O 1.02009 0.26509 0.23513
 O1441 O 1.03846 0.21698 0.26400
 O1442 O 1.03099 0.21430 0.28889
 O1443 O 0.99927 0.20110 0.24059
 O1444 O 0.97258 0.20730 0.23879
 O1445 O 1.00305 0.22333 0.22345
 O1446 O 0.97356 0.22594 0.22702
 O1447 O 1.01727 0.19838 0.25875
 O1448 O 1.01248 0.20058 0.28632
 O1449 O 1.04023 0.23513 0.24708
 O1450 O 1.03742 0.26112 0.25531
 O1451 O 0.97601 0.23469 0.30110
 O1452 O 0.97745 0.20904 0.29252
 O1453 O 0.95797 0.25724 0.26462
 O1454 O 0.96617 0.25723 0.23816
 O1455 O 0.99879 0.27435 0.28576
 O1456 O 1.02551 0.26682 0.28726
 Zr1457 Zr 1.00639 0.25246 0.28413
 O1458 O 1.02173 0.24025 0.27106
 Zr1459 Zr 0.98103 0.25646 0.25675
 O1460 O 0.99574 0.24500 0.24232
 Zr1461 Zr 0.97827 0.22787 0.27906
 O1462 O 0.99210 0.21489 0.26519
 Zr1463 Zr 1.01906 0.24666 0.24918
 O1464 O 1.00464 0.25999 0.26239
 Zr1465 Zr 1.01548 0.21791 0.27117
 O1466 O 1.00152 0.22983 0.28603
 Zr1467 Zr 0.99067 0.22247 0.24345
 O1468 O 0.97490 0.23404 0.25702
 O1469 O 0.98307 0.25028 0.27850
 O1470 O 1.01398 0.22426 0.24930
 C1471 C 0.98326 0.24441 0.30891
 C1472 C 0.98893 0.28193 0.27834
 C1473 C 0.95032 0.24860 0.27309
 C1474 C 1.01441 0.23145 0.21910
 C1475 C 1.04581 0.22409 0.25412
 C1476 C 1.00978 0.19376 0.24739
 H1477 H 1.03253 0.24185 0.27452
 H1478 H 0.98882 0.20450 0.26596
 H1479 H 0.97628 0.25630 0.28483
 H1480 H 0.99433 0.24892 0.23231
 H1481 H 1.01715 0.27377 0.24109
 H1482 H 0.99087 0.27426 0.23704
 H1483 H 1.00435 0.19390 0.28239
 H1484 H 0.98685 0.20935 0.29884
 H1485 H 1.04505 0.26123 0.24723
 H1486 H 1.02640 0.27266 0.27818
 H1487 H 0.97090 0.20147 0.24776
 H1488 H 0.95672 0.21308 0.26587
 H1489 H 1.02054 0.23938 0.30537
 H1490 H 1.03612 0.22380 0.29114
 H1491 H 0.95913 0.24862 0.23875
 H1492 H 0.97700 0.23429 0.22093
 O1493 O 0.72129 0.98939 0.69924
 O1494 O 0.71538 0.96444 0.70549
 O1495 O 0.70307 1.01363 0.73576
 O1496 O 0.70701 1.01468 0.76002
 O1497 O 0.74911 1.02308 0.71920
 O1498 O 0.77374 1.01123 0.72206
 O1499 O 0.73184 0.96937 0.77806
 O1500 O 0.70720 0.97902 0.77212
 O1501 O 0.74721 0.94435 0.74373
 O1502 O 0.74768 0.94818 0.71614
 O1503 O 0.77649 0.97616 0.76039
 O1504 O 0.77835 1.00291 0.75859
 O1505 O 0.75526 0.98102 0.77855
 O1506 O 0.76092 1.00807 0.77258
 O1507 O 0.77215 0.95811 0.74352
 O1508 O 0.76850 0.95884 0.71685
 O1509 O 0.72844 0.95001 0.76015
 O1510 O 0.70294 0.96036 0.75367
 O1511 O 0.74385 1.00252 0.69947
 O1512 O 0.76976 0.99427 0.70644
 O1513 O 0.72979 1.02851 0.73515
 O1514 O 0.73011 1.02399 0.76194
 O1515 O 0.69905 0.99516 0.71919
 O1516 O 0.69811 0.96912 0.72010
 Zr1517 Zr 0.71876 0.98175 0.72077
 O1518 O 0.72742 0.96555 0.73494
 Zr1519 Zr 0.72469 1.00838 0.74536
 O1520 O 0.73351 0.99321 0.76072
 Zr1521 Zr 0.75208 1.00023 0.72124
 O1522 O 0.76230 0.98486 0.73563
 Zr1523 Zr 0.72394 0.97234 0.75661
 O1524 O 0.71361 0.98782 0.74250
 Zr1525 Zr 0.75160 0.96423 0.73268
 O1526 O 0.74268 0.97920 0.71708
 Zr1527 Zr 0.75750 0.99055 0.75752
 O1528 O 0.74899 1.00703 0.74312
 O1529 O 0.72823 1.00262 0.72360
 O1530 O 0.74784 0.96982 0.75445
 C1531 C 0.73166 0.99733 0.69298
 C1532 C 0.69487 1.00692 0.72593
 C1533 C 0.73967 1.03211 0.72531
 C1534 C 0.74463 0.97303 0.78444
 C1535 C 0.73811 0.94105 0.75433
 C1536 C 0.78002 0.96394 0.75408
 H1537 H 0.72216 0.95605 0.73294
 H1538 H 0.77359 0.98443 0.73384
 H1539 H 0.72356 1.00985 0.71681
 H1540 H 0.73117 0.99651 0.77079
 H1541 H 0.69870 0.98378 0.76653
 H1542 H 0.70725 1.00763 0.76823
 H1543 H 0.77678 0.96639 0.71745
 H1544 H 0.76633 0.98502 0.70162
 H1545 H 0.70108 0.95461 0.76270
 H1546 H 0.69310 0.97044 0.72973
 H1547 H 0.78445 1.00045 0.74978
 H1548 H 0.77425 1.01636 0.73165
 H1549 H 0.72572 0.96213 0.70144
 H1550 H 0.73753 0.94346 0.71801
 H1551 H 0.74109 1.02690 0.76058
 H1552 H 0.75207 1.00813 0.77942
 O1553 O 0.76551 0.54407 0.23134
 O1554 O 0.79157 0.53923 0.23782
 O1555 O 0.75311 0.50717 0.20456
 O1556 O 0.75341 0.48248 0.20675
 O1557 O 0.72163 0.52146 0.23768
 O1558 O 0.72116 0.51933 0.26353
 O1559 O 0.78353 0.46583 0.24868
 O1560 O 0.78769 0.47249 0.22471
 O1561 O 0.79735 0.50265 0.27443
 O1562 O 0.79087 0.52924 0.27373
 O1563 O 0.75484 0.48262 0.28285
 O1564 O 0.72944 0.48226 0.27148
 O1565 O 0.76174 0.46415 0.26255
 O1566 O 0.73373 0.46890 0.25439
 O1567 O 0.77272 0.50027 0.28845
 O1568 O 0.77075 0.52742 0.28486
 O1569 O 0.80184 0.48493 0.25737
 O1570 O 0.80501 0.49219 0.23125
 O1571 O 0.74227 0.54256 0.24297
 O1572 O 0.73797 0.53564 0.26864
 O1573 O 0.72688 0.50469 0.21988
 O1574 O 0.73422 0.47853 0.22096
 O1575 O 0.77078 0.52508 0.20999
 O1576 O 0.79631 0.52355 0.22163
 Zr1577 Zr 0.77482 0.52291 0.23267
 O1578 O 0.78650 0.50974 0.24805
 Zr1579 Zr 0.74924 0.49667 0.22469
 O1580 O 0.76018 0.48211 0.23931
 Zr1581 Zr 0.74170 0.52081 0.25111
 O1582 O 0.75183 0.50700 0.26706
 Zr1583 Zr 0.78373 0.48767 0.24194
 O1584 O 0.77333 0.50090 0.22560
 Zr1585 Zr 0.77574 0.51152 0.26854
 O1586 O 0.76536 0.52637 0.25362
 Zr1587 Zr 0.75067 0.48485 0.26025
 O1588 O 0.73854 0.49851 0.24526
 O1589 O 0.75114 0.51869 0.23038
 O1590 O 0.77419 0.48938 0.26277
 C1591 C 0.75262 0.54958 0.23564
 C1592 C 0.76178 0.51811 0.20101
 C1593 C 0.71792 0.51409 0.22610
 C1594 C 0.77419 0.45873 0.25694
 C1595 C 0.80531 0.49196 0.26921
 C1596 C 0.76397 0.48936 0.29187
 H1597 H 0.79762 0.51251 0.24850
 H1598 H 0.74658 0.50852 0.27653
 H1599 H 0.74589 0.52514 0.22320
 H1600 H 0.75895 0.47194 0.23558
 H1601 H 0.78707 0.47812 0.21546
 H1602 H 0.76120 0.47525 0.21009
 H1603 H 0.76036 0.52517 0.28884
 H1604 H 0.74782 0.54113 0.27014
 H1605 H 0.81203 0.48371 0.23288
 H1606 H 0.79690 0.51443 0.21568
 H1607 H 0.72768 0.49136 0.27719
 H1608 H 0.71700 0.50929 0.26188
 H1609 H 0.78897 0.54301 0.24769
 H1610 H 0.79978 0.52874 0.26698
 H1611 H 0.72611 0.47898 0.22857
 H1612 H 0.73829 0.46234 0.24690
 O1613 O 0.49467 0.21952 0.72726
 O1614 O 0.47026 0.23265 0.72779
 O1615 O 0.52728 0.25279 0.71620
 O1616 O 0.53386 0.27538 0.72526
 O1617 O 0.53718 0.22388 0.75205
 O1618 O 0.52803 0.22194 0.77668
 O1619 O 0.49634 0.29497 0.76112
 O1620 O 0.50235 0.29451 0.73587
 O1621 O 0.46334 0.26376 0.76957
 O1622 O 0.45985 0.23721 0.76188
 O1623 O 0.50295 0.26447 0.79463
 O1624 O 0.53044 0.25557 0.79076
 O1625 O 0.51163 0.28629 0.77956
 O1626 O 0.53680 0.27374 0.77971
 O1627 O 0.48028 0.25247 0.78960
 O1628 O 0.47282 0.22934 0.77856
 O1629 O 0.47145 0.28302 0.75582
 O1630 O 0.47821 0.28240 0.72979
 O1631 O 0.51051 0.21105 0.74543
 O1632 O 0.50675 0.21182 0.77155
 O1633 O 0.54502 0.24282 0.73768
 O1634 O 0.54754 0.26860 0.74486
 O1635 O 0.50348 0.24275 0.71148
 O1636 O 0.47744 0.25018 0.71513
 Zr1637 Zr 0.49235 0.24216 0.73177
 O1638 O 0.48069 0.25663 0.74591
 Zr1639 Zr 0.52653 0.25792 0.73882
 O1640 O 0.51627 0.27303 0.75349
 Zr1641 Zr 0.51468 0.22958 0.75873
 O1642 O 0.50387 0.24333 0.77413
 Zr1643 Zr 0.49300 0.27651 0.74752
 O1644 O 0.50371 0.26276 0.73181
 Zr1645 Zr 0.48106 0.24795 0.76715
 O1646 O 0.49125 0.23261 0.75267
 Zr1647 Zr 0.51509 0.26389 0.77459
 O1648 O 0.52713 0.24947 0.76032
 O1649 O 0.51526 0.23776 0.73755
 O1650 O 0.49219 0.26825 0.76875
 C1651 C 0.50239 0.20925 0.73368
 C1652 C 0.51702 0.24706 0.70752
 C1653 C 0.54714 0.23026 0.74380
 C1654 C 0.50378 0.29654 0.77331
 C1655 C 0.46165 0.27676 0.76430
 C1656 C 0.48971 0.25914 0.79834
 H1657 H 0.47001 0.25829 0.74221
 H1658 H 0.50414 0.23844 0.78378
 H1659 H 0.52041 0.23103 0.73057
 H1660 H 0.52210 0.28242 0.75353
 H1661 H 0.50498 0.29076 0.72600
 H1662 H 0.53049 0.28466 0.72993
 H1663 H 0.48161 0.22542 0.78437
 H1664 H 0.49578 0.21005 0.76867
 H1665 H 0.47456 0.29260 0.73151
 H1666 H 0.48101 0.26028 0.71294
 H1667 H 0.52514 0.24731 0.79568
 H1668 H 0.53591 0.22962 0.77881
 H1669 H 0.46805 0.22624 0.73626
 H1670 H 0.45467 0.24280 0.75396
 H1671 H 0.55096 0.26426 0.75427
 H1672 H 0.53926 0.28074 0.77180
 O1673 O 0.26170 0.79392 0.49730
 O1674 O 0.25924 0.78956 0.52257
 O1675 O 0.28980 0.75577 0.48527
 O1676 O 0.28709 0.73169 0.48329
 O1677 O 0.24954 0.76898 0.45776
 O1678 O 0.22265 0.76747 0.46045
 O1679 O 0.24646 0.71590 0.51907
 O1680 O 0.27277 0.72228 0.51888
 O1681 O 0.22204 0.75268 0.53338
 O1682 O 0.22025 0.77814 0.52652
 O1683 O 0.20809 0.73037 0.49470
 O1684 O 0.21648 0.72988 0.46976
 O1685 O 0.23098 0.71296 0.49891
 O1686 O 0.23561 0.71758 0.47174
 O1687 O 0.20391 0.74821 0.51172
 O1688 O 0.20697 0.77599 0.50827
 O1689 O 0.24137 0.73603 0.53662
 O1690 O 0.26907 0.74293 0.53525
 O1691 O 0.24656 0.79135 0.47687
 O1692 O 0.21928 0.78362 0.47635
 O1693 O 0.27070 0.75442 0.46113
 O1694 O 0.26939 0.72767 0.46831
 O1695 O 0.28577 0.77559 0.50005
 O1696 O 0.27693 0.77433 0.52546
 Zr1697 Zr 0.26246 0.77289 0.50666
 O1698 O 0.24796 0.75967 0.51966
 Zr1699 Zr 0.26788 0.74606 0.48253
 O1700 O 0.25434 0.73145 0.49493
 Zr1701 Zr 0.23857 0.76937 0.47813
 O1702 O 0.22344 0.75537 0.48960
 Zr1703 Zr 0.25438 0.73760 0.51717
 O1704 O 0.26993 0.75089 0.50511
 Zr1705 Zr 0.22486 0.76049 0.51201
 O1706 O 0.23900 0.77548 0.50038
 Zr1707 Zr 0.23112 0.73347 0.48819
 O1708 O 0.24483 0.74722 0.47483
 O1709 O 0.26181 0.76808 0.48438
 O1710 O 0.23122 0.73849 0.51046
 C1711 C 0.25509 0.79901 0.48572
 C1712 C 0.29447 0.76736 0.49211
 C1713 C 0.26192 0.76267 0.45323
 C1714 C 0.23739 0.70823 0.51077
 C1715 C 0.22933 0.74307 0.54102
 C1716 C 0.19956 0.73693 0.50413
 H1717 H 0.24894 0.76287 0.53001
 H1718 H 0.21276 0.75645 0.48571
 H1719 H 0.26864 0.77457 0.47859
 H1720 H 0.25831 0.72133 0.49368
 H1721 H 0.28248 0.72780 0.51702
 H1722 H 0.28608 0.72603 0.49244
 H1723 H 0.20054 0.77244 0.49993
 H1724 H 0.21894 0.78938 0.48558
 H1725 H 0.26872 0.73462 0.54224
 H1726 H 0.28358 0.76547 0.52542
 H1727 H 0.20974 0.73861 0.46871
 H1728 H 0.22327 0.75717 0.45697
 H1729 H 0.24840 0.79298 0.52140
 H1730 H 0.22941 0.77930 0.53304
 H1731 H 0.26114 0.72878 0.46078
 H1732 H 0.24419 0.71126 0.47526
 O1733 O 0.25335 0.26804 0.96479
 O1734 O 0.22645 0.26674 0.96775
 O1735 O 0.26527 0.29416 1.00399
 O1736 O 0.26500 0.29126 1.02819
 O1737 O 0.29371 0.25610 0.99173
 O1738 O 0.29018 0.23063 0.99258
 O1739 O 0.22615 0.25404 1.04101
 O1740 O 0.22648 0.27857 1.03452
 O1741 O 0.21211 0.23060 1.00302
 O1742 O 0.22068 0.23000 0.97753
 O1743 O 0.25148 0.21636 1.02628
 O1744 O 0.27787 0.22444 1.02913
 O1745 O 0.24546 0.23727 1.04420
 O1746 O 0.27473 0.24202 1.04215
 O1747 O 0.23445 0.21312 1.00736
 O1748 O 0.23911 0.21672 0.98040
 O1749 O 0.20849 0.24834 1.02027
 O1750 O 0.21029 0.27476 1.01326
 O1751 O 0.27452 0.25348 0.96822
 O1752 O 0.27437 0.22777 0.97553
 O1753 O 0.28986 0.27577 1.00676
 O1754 O 0.28059 0.27430 1.03268
 O1755 O 0.25045 0.29098 0.98346
 O1756 O 0.22321 0.28321 0.98315
 Zr1757 Zr 0.24252 0.26903 0.98526
 O1758 O 0.22751 0.25533 0.99721
 Zr1759 Zr 0.26660 0.27329 1.01351
 O1760 O 0.25221 0.26041 1.02692
 Zr1761 Zr 0.27192 0.24590 0.98992
 O1762 O 0.25843 0.23155 1.00266
 Zr1763 Zr 0.22908 0.26099 1.01944
 O1764 O 0.24307 0.27573 1.00738
 Zr1765 Zr 0.23507 0.23339 0.99618
 O1766 O 0.24876 0.24680 0.98246
 Zr1767 Zr 0.25871 0.23830 1.02477
 O1768 O 0.27413 0.25134 1.01232
 O1769 O 0.26583 0.26795 0.99135
 O1770 O 0.23551 0.23895 1.01834
 C1771 C 0.26561 0.26151 0.96022
 C1772 C 0.25883 0.29892 0.99219
 C1773 C 0.29846 0.26756 0.99871
 C1774 C 0.23344 0.24440 1.04863
 C1775 C 0.20394 0.23706 1.01281
 C1776 C 0.24190 0.20853 1.01871
 H1777 H 0.21674 0.25644 0.99351
 H1778 H 0.26239 0.22142 1.00147
 H1779 H 0.27254 0.27435 0.98533
 H1780 H 0.25302 0.26397 1.03715
 H1781 H 0.22902 0.28770 1.02917
 H1782 H 0.25508 0.29003 1.03342
 H1783 H 0.24825 0.21099 0.98367
 H1784 H 0.26494 0.22752 0.96925
 H1785 H 0.20232 0.27417 1.02102
 H1786 H 0.22291 0.28925 0.99219
 H1787 H 0.27960 0.21840 1.02025
 H1788 H 0.29347 0.23126 1.00299
 H1789 H 0.22700 0.25635 0.96453
 H1790 H 0.21319 0.23821 0.97706
 H1791 H 0.28798 0.26600 1.03212
 H1792 H 0.27052 0.24989 1.04848
 C1793 C 0.27990 0.39952 0.79031
 C1794 C 0.26487 0.40091 0.79505
 C1795 C 0.25857 0.39192 0.80575
 C1796 C 0.26818 0.38108 0.81186
 C1797 C 0.28385 0.37947 0.80731
 C1798 C 0.28967 0.38883 0.79624
 O1799 O 0.28381 0.40954 0.78047
 C1800 C 0.27097 0.41745 0.77899
 C1801 C 0.25904 0.41264 0.78770
 C1802 C 0.24484 0.41982 0.78850
 C1803 C 0.24294 0.43262 0.78017
 C1804 C 0.25510 0.43789 0.77117
 C1805 C 0.26924 0.43002 0.77042
 H1806 H 0.24673 0.39330 0.80938
 H1807 H 0.26335 0.37408 0.82021
 H1808 H 0.30154 0.38814 0.79253
 H1809 H 0.23570 0.41592 0.79558
 H1810 H 0.23209 0.43857 0.78092
 H1811 H 0.27888 0.43398 0.76398
 C1812 C 0.28516 -0.10127 0.28792
 C1813 C 0.28920 -0.10445 0.27370
 C1814 C 0.29958 -0.11553 0.27005
 C1815 C 0.30616 -0.12361 0.28154
 C1816 C 0.30216 -0.12059 0.29629
 C1817 C 0.29129 -0.10945 0.29953
 O1818 O 0.27644 -0.08929 0.28908
 C1819 C 0.27499 -0.08482 0.27529
 C1820 C 0.28251 -0.09380 0.26547
 C1821 C 0.28374 -0.09055 0.25068
 C1822 C 0.27737 -0.07726 0.24584
 C1823 C 0.27000 -0.06754 0.25580
 C1824 C 0.26837 -0.07160 0.27066
 H1825 H 0.30288 -0.11755 0.25880
 H1826 H 0.31450 -0.13212 0.27900
 H1827 H 0.28840 -0.10672 0.31075
 H1828 H 0.28996 -0.09767 0.24324
 H1829 H 0.27875 -0.07425 0.23446
 H1830 H 0.26329 -0.06417 0.27859
 C1831 C 0.76511 0.88710 0.77691
 C1832 C 0.75130 0.88932 0.78398
 C1833 C 0.74696 0.88126 0.79618
 C1834 C 0.75733 0.87053 0.80134
 C1835 C 0.77182 0.86807 0.79432
 C1836 C 0.77552 0.87648 0.78174
 O1837 O 0.76758 0.89655 0.76615
 C1838 C 0.75506 0.90498 0.76646
 C1839 C 0.74469 0.90100 0.77713
 C1840 C 0.73131 0.90898 0.78001
 C1841 C 0.72872 0.92176 0.77181
 C1842 C 0.73949 0.92632 0.76099
 C1843 C 0.75264 0.91753 0.75808
 H1844 H 0.73612 0.88336 0.80172
 H1845 H 0.75400 0.86437 0.81092
 H1846 H 0.78638 0.87533 0.77603
 H1847 H 0.72343 0.90577 0.78862
 H1848 H 0.71862 0.92836 0.77428
 H1849 H 0.76129 0.92081 0.75018
 C1850 C 0.47931 0.84423 0.28558
 C1851 C 0.49437 0.84344 0.29066
 C1852 C 0.50086 0.85391 0.30003
 C1853 C 0.49139 0.86561 0.30448
 C1854 C 0.47572 0.86661 0.29957
 C1855 C 0.46971 0.85583 0.28978
 O1856 O 0.47514 0.83269 0.27746
 C1857 C 0.48784 0.82443 0.27746
 C1858 C 0.49993 0.83052 0.28538
 C1859 C 0.51397 0.82332 0.28762
 C1860 C 0.51554 0.80917 0.28164
 C1861 C 0.50318 0.80255 0.27354
 C1862 C 0.48922 0.81045 0.27124
 H1863 H 0.51269 0.85297 0.30401
 H1864 H 0.49627 0.87379 0.31185
 H1865 H 0.45774 0.85608 0.28604
 H1866 H 0.52323 0.82826 0.29409
 H1867 H 0.52626 0.80326 0.28356
 H1868 H 0.47943 0.80556 0.26546
 C1869 C -0.01912 0.85814 0.78656
 C1870 C -0.00576 0.85637 0.79471
 C1871 C -0.00204 0.86539 0.80659
 C1872 C -0.01255 0.87662 0.81024
 C1873 C -0.02656 0.87859 0.80211
 C1874 C -0.02971 0.86920 0.78998
 O1875 O -0.02093 0.84799 0.77618
 C1876 C -0.00847 0.83960 0.77782
 C1877 C 0.00122 0.84421 0.78900
 C1878 C 0.01441 0.83639 0.79317
 C1879 C 0.01754 0.82315 0.78572
 C1880 C 0.00756 0.81805 0.77429
 C1881 C -0.00546 0.82664 0.77014
 H1882 H 0.00846 0.86373 0.81296
 H1883 H -0.00975 0.88362 0.81951
 H1884 H -0.04028 0.87011 0.78358
 H1885 H 0.02175 0.84010 0.80215
 H1886 H 0.02745 0.81668 0.78915
 H1887 H -0.01360 0.82292 0.76179
 C1888 C -0.04017 -0.09060 -0.04311
 C1889 C -0.04071 -0.09173 -0.02810
 C1890 C -0.04663 -0.10394 -0.02097
 C1891 C -0.05244 -0.11548 -0.02964
 C1892 C -0.05213 -0.11468 -0.04515
 C1893 C -0.04566 -0.10215 -0.05201
 O1894 O -0.03502 -0.07754 -0.04755
 C1895 C -0.03227 -0.07032 -0.03505
 C1896 C -0.03555 -0.07862 -0.02289
 C1897 C -0.03443 -0.07320 -0.00869
 C1898 C -0.02998 -0.05851 -0.00688
 C1899 C -0.02673 -0.04950 -0.01915
 C1900 C -0.02761 -0.05558 -0.03349
 H1901 H -0.04709 -0.10444 -0.00913
 H1902 H -0.05725 -0.12502 -0.02424
 H1903 H -0.04554 -0.10117 -0.06383
 H1904 H -0.03723 -0.07995 0.00067
 H1905 H -0.02927 -0.05407 0.00415
 H1906 H -0.02547 -0.04889 -0.04305
 C1907 C -0.02328 0.40218 0.46662
 C1908 C -0.00864 0.40408 0.46106
 C1909 C -0.00238 0.39457 0.45071
 C1910 C -0.01160 0.38266 0.44587
 C1911 C -0.02692 0.38051 0.45127
 C1912 C -0.03264 0.39052 0.46195
 O1913 O -0.02733 0.41265 0.47600
 C1914 C -0.01499 0.42142 0.47636
 C1915 C -0.00322 0.41671 0.46741
 C1916 C 0.01041 0.42473 0.46556
 C1917 C 0.01182 0.43824 0.47304
 C1918 C -0.00028 0.44342 0.48223
 C1919 C -0.01375 0.43467 0.48406
 H1920 H 0.00914 0.39633 0.44638
 H1921 H -0.00676 0.37536 0.43773
 H1922 H -0.04413 0.38954 0.46652
 H1923 H 0.01945 0.42093 0.45831
 H1924 H 0.02216 0.44482 0.47139
 H1925 H -0.02337 0.43841 0.49066
 C1926 C 0.46087 -0.09268 0.45688
 C1927 C 0.47521 -0.09110 0.45059
 C1928 C 0.48051 -0.10015 0.43948
 C1929 C 0.47062 -0.11137 0.43453
 C1930 C 0.45568 -0.11355 0.44078
 C1931 C 0.45087 -0.10406 0.45234
 O1932 O 0.45788 -0.08218 0.46668
 C1933 C 0.47066 -0.07389 0.46654
 C1934 C 0.48161 -0.07902 0.45692
 C1935 C 0.49564 -0.07197 0.45451
 C1936 C 0.49848 -0.05886 0.46213
 C1937 C 0.48730 -0.05292 0.47188
 C1938 C 0.47325 -0.06074 0.47430
 H1939 H 0.49181 -0.09852 0.43462
 H1940 H 0.47495 -0.11841 0.42593
 H1941 H 0.43954 -0.10509 0.45728
 H1942 H 0.50400 -0.07626 0.44682
 H1943 H 0.50933 -0.05318 0.46014
 H1944 H 0.46439 -0.05645 0.48149
 C1945 C 0.46047 0.40639 -0.04385
 C1946 C 0.47420 0.40943 -0.05078
 C1947 C 0.48019 0.40068 -0.06180
 C1948 C 0.47175 0.38814 -0.06587
 C1949 C 0.45751 0.38444 -0.05890
 C1950 C 0.45181 0.39390 -0.04770
 O1951 O 0.45691 0.41635 -0.03370
 C1952 C 0.46870 0.42582 -0.03428
 C1953 C 0.47955 0.42200 -0.04457
 C1954 C 0.49282 0.43021 -0.04717
 C1955 C 0.49502 0.44302 -0.03889
 C1956 C 0.48400 0.44743 -0.02821
 C1957 C 0.47064 0.43860 -0.02585
 H1958 H 0.49102 0.40340 -0.06710
 H1959 H 0.47660 0.38143 -0.07447
 H1960 H 0.44107 0.39169 -0.04207
 H1961 H 0.50116 0.42691 -0.05535
 H1962 H 0.50532 0.44953 -0.04093
 H1963 H 0.46197 0.44164 -0.01786
 C1964 C 0.76570 0.36341 0.47744
 C1965 C 0.75062 0.36180 0.47255
 C1966 C 0.74405 0.37096 0.46206
 C1967 C 0.75344 0.38211 0.45625
 C1968 C 0.76911 0.38388 0.46095
 C1969 C 0.77519 0.37453 0.47193
 O1970 O 0.77014 0.35277 0.48644
 C1971 C 0.75764 0.34423 0.48720
 C1972 C 0.74535 0.34929 0.47893
 C1973 C 0.73163 0.34135 0.47707
 C1974 C 0.73067 0.32748 0.48369
 C1975 C 0.74333 0.32185 0.49200
 C1976 C 0.75684 0.33059 0.49408
 H1977 H 0.73225 0.36933 0.45819
 H1978 H 0.74854 0.38920 0.44793
 H1979 H 0.78719 0.37532 0.47550
 H1980 H 0.72225 0.34541 0.47024
 H1981 H 0.72032 0.32090 0.48187
 H1982 H 0.76691 0.32645 0.49991
 C1983 C 0.78614 0.84426 -0.04455
 C1984 C 0.79072 0.84493 -0.03008
 C1985 C 0.80012 0.85610 -0.02449
 C1986 C 0.80504 0.86702 -0.03421
 C1987 C 0.80054 0.86658 -0.04923
 C1988 C 0.79084 0.85503 -0.05440
 O1989 O 0.77762 0.83246 -0.04773
 C1990 C 0.77683 0.82553 -0.03499
 C1991 C 0.78465 0.83271 -0.02385
 C1992 C 0.78578 0.82715 -0.00973
 C1993 C 0.77870 0.81354 -0.00701
 C1994 C 0.77067 0.80580 -0.01836
 C1995 C 0.76960 0.81204 -0.03252
 H1996 H 0.80363 0.85634 -0.01307
 H1997 H 0.81230 0.87581 -0.02996
 H1998 H 0.78734 0.85422 -0.06579
 H1999 H 0.79210 0.83297 -0.00117
 H2000 H 0.77965 0.80896 0.00389
 H2001 H 0.76380 0.80635 -0.04148
 C2002 C 0.77883 0.29421 0.40530
 C2003 C 0.76357 0.29859 0.40578
 C2004 C 0.75676 0.30720 0.39497
 C2005 C 0.76607 0.31154 0.38320
 C2006 C 0.78189 0.30724 0.38243
 C2007 C 0.78828 0.29832 0.39365
 O2008 O 0.78318 0.28650 0.41695
 C2009 C 0.77039 0.28602 0.42496
 C2010 C 0.75806 0.29323 0.41860
 C2011 C 0.74370 0.29450 0.42529
 C2012 C 0.74199 0.28820 0.43919
 C2013 C 0.75457 0.28081 0.44613
 C2014 C 0.76895 0.27961 0.43876
 H2015 H 0.74474 0.31057 0.39564
 H2016 H 0.76088 0.31822 0.37471
 H2017 H 0.80033 0.29498 0.39355
 H2018 H 0.73420 0.30033 0.42011
 H2019 H 0.73091 0.28929 0.44460
 H2020 H 0.77885 0.27422 0.44374
 C2021 C 0.78726 0.78154 -0.10506
 C2022 C 0.79465 0.76828 -0.10335
 C2023 C 0.80551 0.76300 -0.11322
 C2024 C 0.80897 0.77179 -0.12534
 C2025 C 0.80160 0.78559 -0.12737
 C2026 C 0.79047 0.79045 -0.11708
 O2027 O 0.77759 0.78464 -0.09422
 C2028 C 0.77893 0.77307 -0.08548
 C2029 C 0.78923 0.76276 -0.09060
 C2030 C 0.79270 0.74995 -0.08306
 C2031 C 0.78531 0.74767 -0.06964
 C2032 C 0.77465 0.75815 -0.06400
 C2033 C 0.77138 0.77102 -0.07215
 H2034 H 0.81120 0.75252 -0.11160
 H2035 H 0.81737 0.76776 -0.13313
 H2036 H 0.78474 0.80096 -0.11816
 H2037 H 0.80092 0.74204 -0.08729
 H2038 H 0.78801 0.73775 -0.06363
 H2039 H 0.76345 0.77931 -0.06815
 C2040 C 0.28448 0.45526 0.84187
 C2041 C 0.29116 0.46902 0.84263
 C2042 C 0.30221 0.47291 0.85311
 C2043 C 0.30681 0.46211 0.86308
 C2044 C 0.30039 0.44770 0.86239
 C2045 C 0.28877 0.44431 0.85184
 O2046 O 0.27502 0.45362 0.83040
 C2047 C 0.27584 0.46660 0.82380
 C2048 C 0.28558 0.47638 0.83086
 C2049 C 0.28916 0.49018 0.82529
 C2050 C 0.28255 0.49401 0.81176
 C2051 C 0.27248 0.48413 0.80422
 C2052 C 0.26890 0.47030 0.81046
 H2053 H 0.30741 0.48377 0.85337
 H2054 H 0.31557 0.46491 0.87121
 H2055 H 0.28391 0.43335 0.85092
 H2056 H 0.29712 0.49754 0.83095
 H2057 H 0.28543 0.50458 0.80705
 H2058 H 0.26161 0.46238 0.80472
 C2059 C 0.28690 -0.03555 0.34085
 C2060 C 0.27107 -0.03759 0.34057
 C2061 C 0.26316 -0.04507 0.35144
 C2062 C 0.27191 -0.05081 0.36307
 C2063 C 0.28830 -0.04899 0.36369
 C2064 C 0.29588 -0.04104 0.35248
 O2065 O 0.29215 -0.02888 0.32891
 C2066 C 0.27932 -0.02670 0.32097
 C2067 C 0.26614 -0.03182 0.32768
 C2068 C 0.25156 -0.03152 0.32107
 C2069 C 0.25051 -0.02599 0.30680
 C2070 C 0.26392 -0.02086 0.29943
 C2071 C 0.27852 -0.02095 0.30677
 H2072 H 0.25071 -0.04667 0.35086
 H2073 H 0.26585 -0.05668 0.37159
 H2074 H 0.30838 -0.03965 0.35253
 H2075 H 0.24140 -0.03578 0.32654
 H2076 H 0.23928 -0.02602 0.30135
 H2077 H 0.28901 -0.01744 0.30131
 C2078 C -0.04425 -0.02794 -0.10380
 C2079 C -0.05215 -0.01489 -0.10276
 C2080 C -0.06318 -0.01050 -0.11298
 C2081 C -0.06631 -0.01996 -0.12480
 C2082 C -0.05839 -0.03362 -0.12635
 C2083 C -0.04703 -0.03751 -0.11561
 O2084 O -0.03463 -0.03018 -0.09252
 C2085 C -0.03654 -0.01824 -0.08424
 C2086 C -0.04711 -0.00857 -0.09010
 C2087 C -0.05126 0.00446 -0.08323
 C2088 C -0.04437 0.00763 -0.06963
 C2089 C -0.03354 -0.00218 -0.06308
 C2090 C -0.02945 -0.01529 -0.07064
 H2091 H -0.06929 -0.00018 -0.11182
 H2092 H -0.07488 -0.01639 -0.13272
 H2093 H -0.04080 -0.04781 -0.11612
 H2094 H -0.05967 0.01184 -0.08808
 H2095 H -0.04767 0.01772 -0.06415
 H2096 H -0.02141 -0.02311 -0.06592
 C2097 C -0.03843 0.45720 0.40883
 C2098 C -0.02267 0.45503 0.40809
 C2099 C -0.01600 0.44462 0.39897
 C2100 C -0.02597 0.43612 0.39014
 C2101 C -0.04236 0.43826 0.39039
 C2102 C -0.04858 0.44911 0.39992
 O2103 O -0.04241 0.46686 0.41909
 C2104 C -0.02884 0.47088 0.42489
 C2105 C -0.01641 0.46404 0.41843
 C2106 C -0.00119 0.46604 0.42318
 C2107 C 0.00130 0.47515 0.43539
 C2108 C -0.01137 0.48190 0.44269
 C2109 C -0.02664 0.48001 0.43707
 H2110 H -0.00356 0.44295 0.39880
 H2111 H -0.02071 0.42810 0.38297
 H2112 H -0.06095 0.45091 0.40083
 H2113 H 0.00837 0.46044 0.41797
 H2114 H 0.01307 0.47642 0.43950
 H2115 H -0.03660 0.48468 0.44254
 C2116 C 0.46976 -0.03677 0.39651
 C2117 C 0.46283 -0.02317 0.39582
 C2118 C 0.45171 -0.01959 0.38535
 C2119 C 0.44743 -0.03050 0.37520
 C2120 C 0.45428 -0.04467 0.37569
 C2121 C 0.46582 -0.04776 0.38637
 O2122 O 0.47922 -0.03817 0.40800
 C2123 C 0.47819 -0.02518 0.41468
 C2124 C 0.46834 -0.01563 0.40760
 C2125 C 0.46470 -0.00181 0.41310
 C2126 C 0.47129 0.00228 0.42660
 C2127 C 0.48129 -0.00743 0.43431
 C2128 C 0.48502 -0.02127 0.42809
 H2129 H 0.44626 -0.00888 0.38519
 H2130 H 0.43870 -0.02788 0.36703
 H2131 H 0.47103 -0.05855 0.38717
 H2132 H 0.45672 0.00539 0.40741
 H2133 H 0.46828 0.01288 0.43121
 H2134 H 0.49229 -0.02907 0.43387
 C2135 C 0.47456 0.47733 -0.10234
 C2136 C 0.46941 0.49162 -0.10201
 C2137 C 0.45987 0.49745 -0.11290
 C2138 C 0.45548 0.48818 -0.12461
 C2139 C 0.46064 0.47337 -0.12525
 C2140 C 0.47042 0.46796 -0.11392
 O2141 O 0.48280 0.47370 -0.09053
 C2142 C 0.48287 0.48597 -0.08256
 C2143 C 0.47488 0.49728 -0.08912
 C2144 C 0.47274 0.51084 -0.08233
 C2145 C 0.47874 0.51270 -0.06808
 C2146 C 0.48671 0.50109 -0.06088
 C2147 C 0.48909 0.48763 -0.06844
 H2148 H 0.45580 0.50868 -0.11232
 H2149 H 0.44809 0.49259 -0.13316
 H2150 H 0.47437 0.45667 -0.11385
 H2151 H 0.46625 0.51952 -0.08763
 H2152 H 0.47670 0.52302 -0.06247
 H2153 H 0.49471 0.47840 -0.06316
 C2154 C 0.46322 0.78199 0.35169
 C2155 C 0.47868 0.78580 0.35272
 C2156 C 0.48436 0.79601 0.36281
 C2157 C 0.47365 0.80269 0.37216
 C2158 C 0.45765 0.79898 0.37139
 C2159 C 0.45237 0.78829 0.36115
 O2160 O 0.46018 0.77286 0.34059
 C2161 C 0.47401 0.77089 0.33452
 C2162 C 0.48570 0.77851 0.34162
 C2163 C 0.50093 0.77869 0.33677
 C2164 C 0.50427 0.77087 0.32392
 C2165 C 0.49242 0.76313 0.31611
 C2166 C 0.47708 0.76296 0.32170
 H2167 H 0.49654 0.79898 0.36323
 H2168 H 0.47780 0.81083 0.37998
 H2169 H 0.44017 0.78550 0.36017
 H2170 H 0.50987 0.78492 0.34247
 H2171 H 0.51606 0.77119 0.31988
 H2172 H 0.46769 0.75744 0.31589
 C2173 C -0.03754 0.78849 0.85015
 C2174 C -0.02182 0.79000 0.85257
 C2175 C -0.01560 0.79739 0.86463
 C2176 C -0.02600 0.80357 0.87461
 C2177 C -0.04227 0.80211 0.87248
 C2178 C -0.04815 0.79428 0.86017
 O2179 O -0.04093 0.78197 0.83742
 C2180 C -0.02703 0.77934 0.83173
 C2181 C -0.01500 0.78397 0.84065
 C2182 C 0.00048 0.78299 0.83668
 C2183 C 0.00376 0.77725 0.82279
 C2184 C -0.00838 0.77269 0.81311
 C2185 C -0.02403 0.77351 0.81781
 H2186 H -0.00318 0.79862 0.86614
 H2187 H -0.02141 0.80950 0.88403
 H2188 H -0.06054 0.79326 0.85819
 H2189 H 0.00971 0.78684 0.84388
 H2190 H 0.01579 0.77670 0.81948
 H2191 H -0.03357 0.77040 0.81061
 C2192 C 0.41182 0.79228 0.29879
 C2193 C 0.41243 0.79747 0.28468
 C2194 C 0.40303 0.80871 0.27956
 C2195 C 0.39251 0.81493 0.28937
 C2196 C 0.39155 0.80987 0.30405
 C2197 C 0.40131 0.79827 0.30878
 O2198 O 0.42220 0.78180 0.30145
 C2199 C 0.42947 0.78039 0.28872
 C2200 C 0.42386 0.78974 0.27814
 C2201 C 0.42997 0.79054 0.26415
 C2202 C 0.44258 0.78146 0.26094
 C2203 C 0.44883 0.77180 0.27165
 C2204 C 0.44201 0.77113 0.28572
 H2205 H 0.40381 0.81260 0.26840
 H2206 H 0.38501 0.82358 0.28539
 H2207 H 0.40096 0.79424 0.31992
 H2208 H 0.42537 0.79807 0.25607
 H2209 H 0.44760 0.78212 0.25012
 H2210 H 0.44665 0.76406 0.29419
 C2211 C -0.09440 0.80067 0.78333
 C2212 C -0.08962 0.81083 0.77321
 C2213 C -0.09815 0.82334 0.76990
 C2214 C -0.11222 0.82543 0.77729
 C2215 C -0.11746 0.81505 0.78777
 C2216 C -0.10830 0.80251 0.79081
 O2217 O -0.08464 0.78952 0.78489
 C2218 C -0.07343 0.79272 0.77554
 C2219 C -0.07590 0.80564 0.76812
 C2220 C -0.06555 0.81106 0.75785
 C2221 C -0.05207 0.80285 0.75518
 C2222 C -0.04923 0.78947 0.76274
 C2223 C -0.06017 0.78438 0.77305
 H2224 H -0.09413 0.83122 0.76192
 H2225 H -0.11890 0.83517 0.77485
 H2226 H -0.11188 0.79428 0.79861
 H2227 H -0.06772 0.82127 0.75216
 H2228 H -0.04384 0.80699 0.74729
 H2229 H -0.05839 0.77430 0.77910
 C2230 C 0.84725 0.30466 0.46976
 C2231 C 0.84320 0.31451 0.48052
 C2232 C 0.85209 0.32687 0.48391
 C2233 C 0.86570 0.32918 0.47585
 C2234 C 0.87017 0.31919 0.46462
 C2235 C 0.86070 0.30672 0.46162
 O2236 O 0.83722 0.29364 0.46821
 C2237 C 0.82659 0.29660 0.47824
 C2238 C 0.82969 0.30924 0.48607
 C2239 C 0.82002 0.31439 0.49707
 C2240 C 0.80662 0.30616 0.50012
 C2241 C 0.80312 0.29303 0.49219
 C2242 C 0.81335 0.28824 0.48107
 H2243 H 0.84866 0.33449 0.49244
 H2244 H 0.87266 0.33877 0.47844
 H2245 H 0.86356 0.29882 0.45319
 H2246 H 0.82268 0.32440 0.50307
 H2247 H 0.79897 0.31008 0.50864
 H2248 H 0.81111 0.27832 0.47478
 C2249 C 0.85359 0.77587 -0.03588
 C2250 C 0.85426 0.77877 -0.02107
 C2251 C 0.86490 0.78855 -0.01484
 C2252 C 0.87518 0.79573 -0.02426
 C2253 C 0.87475 0.79297 -0.03958
 C2254 C 0.86398 0.78267 -0.04544
 O2255 O 0.84156 0.76745 -0.03969
 C2256 C 0.83449 0.76502 -0.02704
 C2257 C 0.84187 0.77165 -0.01530
 C2258 C 0.83576 0.77172 -0.00125
 C2259 C 0.82122 0.76508 0.00072
 C2260 C 0.81310 0.75856 -0.01127
 C2261 C 0.82009 0.75815 -0.02527
 H2262 H 0.86494 0.79093 -0.00320
 H2263 H 0.88336 0.80359 -0.01965
 H2264 H 0.86311 0.78068 -0.05712
 H2265 H 0.84165 0.77727 0.00774
 H2266 H 0.81596 0.76559 0.01145
 H2267 H 0.81394 0.75374 -0.03473
 C2268 C -0.11111 -0.03303 -0.04148
 C2269 C -0.11458 -0.01830 -0.04214
 C2270 C -0.12695 -0.01283 -0.05031
 C2271 C -0.13618 -0.02298 -0.05811
 C2272 C -0.13288 -0.03826 -0.05761
 C2273 C -0.12017 -0.04331 -0.04907
 O2274 O -0.09825 -0.03582 -0.03387
 C2275 C -0.09348 -0.02255 -0.02966
 C2276 C -0.10312 -0.01147 -0.03440
 C2277 C -0.09983 0.00333 -0.03214
 C2278 C -0.08580 0.00688 -0.02506
 C2279 C -0.07545 -0.00432 -0.02039
 C2280 C -0.07956 -0.01927 -0.02237
 H2281 H -0.12931 -0.00116 -0.05082
 H2282 H -0.14590 -0.01888 -0.06445
 H2283 H -0.11714 -0.05484 -0.04865
 H2284 H -0.10749 0.01184 -0.03617
 H2285 H -0.08275 0.01837 -0.02367
 H2286 H -0.07168 -0.02802 -0.01932
 C2287 C -0.09989 0.45725 0.45941
 C2288 C -0.09400 0.44639 0.46827
 C2289 C -0.10150 0.43307 0.47041
 C2290 C -0.11581 0.43087 0.46331
 C2291 C -0.12248 0.44197 0.45434
 C2292 C -0.11419 0.45530 0.45217
 O2293 O -0.09102 0.46928 0.45932
 C2294 C -0.07937 0.46589 0.46837
 C2295 C -0.08072 0.45202 0.47412
 C2296 C -0.07025 0.44637 0.48427
 C2297 C -0.05782 0.45538 0.48872
 C2298 C -0.05598 0.46977 0.48297
 C2299 C -0.06696 0.47505 0.47253
 H2300 H -0.09662 0.42471 0.47747
 H2301 H -0.12171 0.42051 0.46500
 H2302 H -0.11894 0.46407 0.44555
 H2303 H -0.07169 0.43546 0.48874
 H2304 H -0.04965 0.45107 0.49668
 H2305 H -0.06600 0.48597 0.46794
 C2306 C 0.39278 -0.02660 0.45626
 C2307 C 0.39174 -0.02686 0.47126
 C2308 C 0.37891 -0.03228 0.47854
 C2309 C 0.36661 -0.03784 0.47005
 C2310 C 0.36725 -0.03807 0.45444
 C2311 C 0.38060 -0.03208 0.44750
 O2312 O 0.40635 -0.02136 0.45166
 C2313 C 0.41398 -0.01834 0.46408
 C2314 C 0.40548 -0.02157 0.47635
 C2315 C 0.41130 -0.02008 0.49051
 C2316 C 0.42662 -0.01516 0.49215
 C2317 C 0.43574 -0.01172 0.47976
 C2318 C 0.42928 -0.01311 0.46548
 H2319 H 0.37843 -0.03236 0.49039
 H2320 H 0.35667 -0.04195 0.47591
 H2321 H 0.38178 -0.03207 0.43571
 H2322 H 0.40439 -0.02288 0.49995
 H2323 H 0.43145 -0.01411 0.50311
 H2324 H 0.43611 -0.01080 0.45585
 C2325 C 0.39629 0.46533 -0.04216
 C2326 C 0.39940 0.47736 -0.05072
 C2327 C 0.39246 0.47954 -0.06429
 C2328 C 0.38192 0.46886 -0.06932
 C2329 C 0.37828 0.45630 -0.06070
 C2330 C 0.38549 0.45473 -0.04675
 O2331 O 0.40519 0.46472 -0.03022
 C2332 C 0.41406 0.47664 -0.03130
 C2333 C 0.41085 0.48482 -0.04357
 C2334 C 0.41925 0.49730 -0.04730
 C2335 C 0.43174 0.50135 -0.03817
 C2336 C 0.43573 0.49279 -0.02571
 C2337 C 0.42647 0.48042 -0.02209
 H2338 H 0.39532 0.48898 -0.07094
 H2339 H 0.37653 0.47064 -0.07990
 H2340 H 0.38342 0.44524 -0.03993
 H2341 H 0.41658 0.50344 -0.05712
 H2342 H 0.43871 0.51076 -0.04124
 H2343 H 0.42928 0.47351 -0.01282
 C2344 C 0.35495 0.45781 0.78271
 C2345 C 0.35118 0.44780 0.77192
 C2346 C 0.36034 0.43571 0.76871
 C2347 C 0.37396 0.43379 0.77697
 C2348 C 0.37828 0.44387 0.78829
 C2349 C 0.36852 0.45612 0.79114
 O2350 O 0.34452 0.46851 0.78394
 C2351 C 0.33399 0.46512 0.77369
 C2352 C 0.33756 0.45253 0.76606
 C2353 C 0.32815 0.44682 0.75495
 C2354 C 0.31444 0.45438 0.75153
 C2355 C 0.31036 0.46746 0.75917
 C2356 C 0.32039 0.47289 0.77043
 H2357 H 0.35710 0.42799 0.76014
 H2358 H 0.38105 0.42438 0.77438
 H2359 H 0.37132 0.46406 0.79963
 H2360 H 0.33124 0.43686 0.74914
 H2361 H 0.30702 0.45000 0.74292
 H2362 H 0.31763 0.48275 0.77656
 C2363 C 0.35820 -0.05028 0.27661
 C2364 C 0.35957 -0.03566 0.28040
 C2365 C 0.37080 -0.03040 0.29012
 C2366 C 0.38088 -0.04066 0.29640
 C2367 C 0.37963 -0.05584 0.29289
 C2368 C 0.36836 -0.06070 0.28257
 O2369 O 0.34588 -0.05303 0.26813
 C2370 C 0.33936 -0.03988 0.26663
 C2371 C 0.34733 -0.02891 0.27393
 C2372 C 0.34203 -0.01453 0.27482
 C2373 C 0.32780 -0.01131 0.26805
 C2374 C 0.31920 -0.02241 0.26054
 C2375 C 0.32523 -0.03687 0.25963
 H2376 H 0.37144 -0.01888 0.29311
 H2377 H 0.38950 -0.03681 0.30426
 H2378 H 0.36695 -0.07227 0.27999
 H2379 H 0.34842 -0.00617 0.28086
 H2380 H 0.32338 -0.00020 0.26885
 H2381 H 0.31877 -0.04565 0.25427
 C2382 C 0.14732 0.53849 0.71374
 C2383 C 0.14924 0.54333 0.72793
 C2384 C 0.13885 0.55270 0.73477
 C2385 C 0.12599 0.55745 0.72661
 C2386 C 0.12376 0.55295 0.71179
 C2387 C 0.13456 0.54313 0.70535
 O2388 O 0.15883 0.52986 0.70930
 C2389 C 0.16821 0.52933 0.72095
 C2390 C 0.16284 0.53745 0.73260
 C2391 C 0.17103 0.53905 0.74569
 C2392 C 0.18545 0.53204 0.74683
 C2393 C 0.19132 0.52352 0.73505
 C2394 C 0.18247 0.52201 0.72195
 H2395 H 0.14065 0.55633 0.74598
 H2396 H 0.11785 0.56470 0.73195
 H2397 H 0.13335 0.53953 0.69407
 H2398 H 0.16659 0.54563 0.75462
 H2399 H 0.19204 0.53325 0.75693
 H2400 H 0.18676 0.51576 0.71271
 C2401 C 0.16040 0.03952 0.19681
 C2402 C 0.16016 0.02588 0.19022
 C2403 C 0.14959 0.02198 0.17932
 C2404 C 0.13881 0.03260 0.17492
 C2405 C 0.13877 0.04683 0.18143
 C2406 C 0.14965 0.05027 0.19269
 O2407 O 0.17186 0.04104 0.20657
 C2408 C 0.17896 0.02808 0.20609
 C2409 C 0.17219 0.01845 0.19627
 C2410 C 0.17792 0.00446 0.19357
 C2411 C 0.19132 0.00021 0.20122
 C2412 C 0.19873 0.00994 0.21134
 C2413 C 0.19231 0.02406 0.21391
 H2414 H 0.14971 0.01118 0.17428
 H2415 H 0.13046 0.02964 0.16647
 H2416 H 0.15000 0.06106 0.19776
 H2417 H 0.17241 -0.00286 0.18569
 H2418 H 0.19601 -0.01062 0.19907
 H2419 H 0.19778 0.03183 0.22137
 C2420 C 0.60217 0.69614 0.21557
 C2421 C 0.60030 0.68724 0.22756
 C2422 C 0.60902 0.67459 0.22975
 C2423 C 0.62014 0.67104 0.21916
 C2424 C 0.62229 0.68010 0.20668
 C2425 C 0.61310 0.69284 0.20495
 O2426 O 0.59244 0.70739 0.21526
 C2427 C 0.58423 0.70555 0.22733
 C2428 C 0.58856 0.69341 0.23527
 C2429 C 0.58106 0.68920 0.24803
 C2430 C 0.56843 0.69775 0.25262
 C2431 C 0.56361 0.71021 0.24443
 C2432 C 0.57185 0.71422 0.23171
 H2433 H 0.60729 0.66769 0.23923
 H2434 H 0.62710 0.66130 0.22080
 H2435 H 0.61420 0.69992 0.19552
 H2436 H 0.58459 0.67953 0.25405
 H2437 H 0.56223 0.69444 0.26234
 H2438 H 0.56841 0.72350 0.22505
 C2439 C 0.10688 0.70779 0.71889
 C2440 C 0.10227 0.69856 0.72991
 C2441 C 0.11020 0.68573 0.73340
 C2442 C 0.12342 0.68226 0.72517
 C2443 C 0.12843 0.69157 0.71365
 C2444 C 0.11995 0.70457 0.71058
 O2445 O 0.09770 0.71938 0.71727
 C2446 C 0.08704 0.71744 0.72751
 C2447 C 0.08931 0.70486 0.73554
 C2448 C 0.07943 0.70060 0.74671
 C2449 C 0.06668 0.70967 0.74971
 C2450 C 0.06402 0.72276 0.74159
 C2451 C 0.07445 0.72665 0.73031
 H2452 H 0.10632 0.67861 0.74212
 H2453 H 0.12958 0.67225 0.72773
 H2454 H 0.12334 0.71203 0.70199
 H2455 H 0.08142 0.69063 0.75286
 H2456 H 0.05887 0.70641 0.75835
 H2457 H 0.07278 0.73646 0.72382
 C2458 C 0.65997 0.20165 0.55193
 C2459 C 0.66508 0.19237 0.54108
 C2460 C 0.65950 0.17814 0.53924
 C2461 C 0.64789 0.17335 0.54878
 C2462 C 0.64193 0.18283 0.55982
 C2463 C 0.64833 0.19715 0.56151
 O2464 O 0.66689 0.21474 0.55175
 C2465 C 0.67648 0.21369 0.54047
 C2466 C 0.67572 0.20024 0.53354
 C2467 C 0.68438 0.19683 0.52124
 C2468 C 0.69443 0.20766 0.51594
 C2469 C 0.69590 0.22154 0.52311
 C2470 C 0.68663 0.22459 0.53552
 H2471 H 0.66385 0.17100 0.53069
 H2472 H 0.64348 0.16230 0.54732
 H2473 H 0.64420 0.20473 0.56975
 H2474 H 0.68344 0.18620 0.51591
 H2475 H 0.70127 0.20507 0.50638
 H2476 H 0.68740 0.23502 0.54126
 C2477 C 0.64081 0.71993 0.02711
 C2478 C 0.63933 0.71587 0.01262
 C2479 C 0.62716 0.70717 0.00744
 C2480 C 0.61614 0.70234 0.01760
 C2481 C 0.61747 0.70617 0.03269
 C2482 C 0.62995 0.71528 0.03742
 O2483 O 0.65362 0.72767 0.02989
 C2484 C 0.66038 0.72846 0.01688
 C2485 C 0.65212 0.72140 0.00595
 C2486 C 0.65756 0.72008 -0.00831
 C2487 C 0.67223 0.72608 -0.01138
 C2488 C 0.68104 0.73335 -0.00028
 C2489 C 0.67485 0.73473 0.01401
 H2490 H 0.62630 0.70402 -0.00400
 H2491 H 0.60665 0.69554 0.01365
 H2492 H 0.63153 0.71824 0.04884
 H2493 H 0.65096 0.71426 -0.01667
 H2494 H 0.67685 0.72481 -0.02231
 H2495 H 0.68148 0.73980 0.02284
 C2496 C 0.09568 0.03777 0.03371
 C2497 C 0.09607 0.04175 0.01920
 C2498 C 0.10795 0.05014 0.01330
 C2499 C 0.11987 0.05481 0.02277
 C2500 C 0.11978 0.05100 0.03783
 C2501 C 0.10764 0.04210 0.04334
 O2502 O 0.08272 0.03064 0.03722
 C2503 C 0.07478 0.03018 0.02464
 C2504 C 0.08252 0.03680 0.01331
 C2505 C 0.07608 0.03846 -0.00059
 C2506 C 0.06093 0.03325 -0.00290
 C2507 C 0.05252 0.02652 0.00860
 C2508 C 0.05968 0.02473 0.02253
 H2509 H 0.10785 0.05329 0.00187
 H2510 H 0.12912 0.06154 0.01840
 H2511 H 0.10713 0.03930 0.05484
 H2512 H 0.08235 0.04390 -0.00925
 H2513 H 0.05565 0.03470 -0.01361
 H2514 H 0.05344 0.01994 0.03160
 C2515 C 0.09381 0.55449 0.54385
 C2516 C 0.09075 0.56281 0.53164
 C2517 C 0.09927 0.57528 0.52812
 C2518 C 0.11150 0.57933 0.53755
 C2519 C 0.11501 0.57089 0.55021
 C2520 C 0.10595 0.55827 0.55336
 O2521 O 0.08415 0.54318 0.54529
 C2522 C 0.07481 0.54440 0.53371
 C2523 C 0.07841 0.55622 0.52501
 C2524 C 0.07007 0.55969 0.51242
 C2525 C 0.05739 0.55070 0.50869
 C2526 C 0.05326 0.53848 0.51754
 C2527 C 0.06225 0.53526 0.53020
 H2528 H 0.09660 0.58166 0.51844
 H2529 H 0.11834 0.58891 0.53482
 H2530 H 0.10817 0.55165 0.56296
 H2531 H 0.07314 0.56906 0.50576
 H2532 H 0.05074 0.55336 0.49894
 H2533 H 0.05940 0.52612 0.53725
 C2534 C 0.60357 0.05004 0.52344
 C2535 C 0.60626 0.03513 0.52315
 C2536 C 0.61978 0.02883 0.52861
 C2537 C 0.63090 0.03825 0.53492
 C2538 C 0.62838 0.05363 0.53558
 C2539 C 0.61466 0.05969 0.52948
 O2540 O 0.58939 0.05355 0.51874
 C2541 C 0.58301 0.04057 0.51548
 C2542 C 0.59290 0.02899 0.51801
 C2543 C 0.58837 0.01438 0.51650
 C2544 C 0.57295 0.01155 0.51233
 C2545 C 0.56243 0.02323 0.50967
 C2546 C 0.56762 0.03799 0.51105
 H2547 H 0.62147 0.01704 0.52850
 H2548 H 0.64132 0.03354 0.53968
 H2549 H 0.61229 0.07135 0.53028
 H2550 H 0.59631 0.00547 0.51881
 H2551 H 0.56915 0.00022 0.51131
 H2552 H 0.55974 0.04711 0.50941
 C2553 C 0.59843 0.53516 0.04767
 C2554 C 0.59723 0.52086 0.05229
 C2555 C 0.60812 0.51437 0.06151
 C2556 C 0.62083 0.52296 0.06612
 C2557 C 0.62244 0.53779 0.06148
 C2558 C 0.61095 0.54392 0.05211
 O2559 O 0.58678 0.53924 0.03898
 C2560 C 0.57803 0.52721 0.03811
 C2561 C 0.58393 0.51567 0.04606
 C2562 C 0.57662 0.50208 0.04681
 C2563 C 0.56259 0.50032 0.03911
 C2564 C 0.55613 0.51206 0.03083
 C2565 C 0.56408 0.52571 0.03030
 H2566 H 0.60689 0.50307 0.06502
 H2567 H 0.62938 0.51795 0.07323
 H2568 H 0.61161 0.55515 0.04834
 H2569 H 0.58150 0.49317 0.05316
 H2570 H 0.55675 0.48977 0.03968
 H2571 H 0.55947 0.53493 0.02422
 C2572 C 0.03629 0.04147 0.09244
 C2573 C 0.02073 0.04183 0.09570
 C2574 C 0.01494 0.04909 0.10791
 C2575 C 0.02562 0.05631 0.11714
 C2576 C 0.04175 0.05615 0.11404
 C2577 C 0.04715 0.04845 0.10158
 O2578 O 0.03920 0.03490 0.07972
 C2579 C 0.02516 0.03107 0.07486
 C2580 C 0.01348 0.03503 0.08428
 C2581 C -0.00217 0.03314 0.08093
 C2582 C -0.00598 0.02728 0.06713
 C2583 C 0.00581 0.02341 0.05707
 C2584 C 0.02163 0.02497 0.06114
 H2585 H 0.00261 0.04940 0.11011
 H2586 H 0.02128 0.06202 0.12670
 H2587 H 0.05934 0.04836 0.09877
 H2588 H -0.01114 0.03657 0.08844
 H2589 H -0.01812 0.02622 0.06408
 H2590 H 0.03083 0.02255 0.05348
 C2591 C 0.03083 0.53323 0.60474
 C2592 C 0.01495 0.53472 0.60539
 C2593 C 0.00750 0.54135 0.61713
 C2594 C 0.01682 0.54697 0.62852
 C2595 C 0.03324 0.54582 0.62804
 C2596 C 0.04034 0.53852 0.61613
 O2597 O 0.03559 0.52763 0.59208
 C2598 C 0.02243 0.52561 0.58460
 C2599 C 0.00948 0.52976 0.59228
 C2600 C -0.00539 0.52952 0.58622
 C2601 C -0.00700 0.52492 0.57160
 C2602 C 0.00617 0.52068 0.56333
 C2603 C 0.02109 0.52087 0.57006
 H2604 H -0.00499 0.54261 0.61727
 H2605 H 0.01125 0.55255 0.63757
 H2606 H 0.05286 0.53785 0.61530
 H2607 H -0.01537 0.53305 0.59244
 H2608 H -0.01850 0.52484 0.56668
 H2609 H 0.03142 0.51798 0.56401
 C2610 C 0.53406 0.02956 0.59822
 C2611 C 0.51823 0.02790 0.59918
 C2612 C 0.50970 0.03303 0.61094
 C2613 C 0.51774 0.04044 0.62213
 C2614 C 0.53411 0.04260 0.62146
 C2615 C 0.54241 0.03660 0.60945
 O2616 O 0.53960 0.02533 0.58532
 C2617 C 0.52696 0.02097 0.57800
 C2618 C 0.51362 0.02227 0.58610
 C2619 C 0.49887 0.01978 0.58031
 C2620 C 0.49777 0.01609 0.56546
 C2621 C 0.51127 0.01496 0.55674
 C2622 C 0.52614 0.01706 0.56316
 H2623 H 0.49719 0.03185 0.61127
 H2624 H 0.51100 0.04454 0.63121
 H2625 H 0.55479 0.03829 0.60828
 H2626 H 0.48854 0.02121 0.58684
 H2627 H 0.48634 0.01457 0.56061
 H2628 H 0.53655 0.01673 0.55659
 C2629 C 0.53034 0.52230 0.10510
 C2630 C 0.51455 0.52150 0.10710
 C2631 C 0.50727 0.52724 0.11939
 C2632 C 0.51662 0.53419 0.13003
 C2633 C 0.53295 0.53532 0.12822
 C2634 C 0.53991 0.52906 0.11563
 O2635 O 0.53476 0.51717 0.09213
 C2636 C 0.52145 0.51309 0.08580
 C2637 C 0.50875 0.51550 0.09453
 C2638 C 0.49358 0.51323 0.08968
 C2639 C 0.49136 0.50864 0.07512
 C2640 C 0.50423 0.50630 0.06580
 C2641 C 0.51952 0.50822 0.07134
 H2642 H 0.49478 0.52668 0.12060
 H2643 H 0.51108 0.53879 0.13960
 H2644 H 0.55226 0.53001 0.11374
 H2645 H 0.48376 0.51551 0.09666
 H2646 H 0.47962 0.50741 0.07092
 H2647 H 0.52952 0.50706 0.06430
 C2648 C 0.22028 0.53040 0.64426
 C2649 C 0.21295 0.51694 0.64465
 C2650 C 0.20158 0.51275 0.63456
 C2651 C 0.19740 0.52294 0.62377
 C2652 C 0.20451 0.53705 0.62331
 C2653 C 0.21638 0.54068 0.63353
 O2654 O 0.22991 0.53260 0.65551
 C2655 C 0.22857 0.52029 0.66318
 C2656 C 0.21832 0.51036 0.65700
 C2657 C 0.21417 0.49729 0.66378
 C2658 C 0.22071 0.49440 0.67760
 C2659 C 0.23123 0.50450 0.68426
 C2660 C 0.23541 0.51752 0.67679
 H2661 H 0.19584 0.50217 0.63520
 H2662 H 0.18839 0.51992 0.61597
 H2663 H 0.22177 0.55146 0.63368
 H2664 H 0.20583 0.48980 0.65883
 H2665 H 0.21735 0.48444 0.68323
 H2666 H 0.24304 0.52564 0.68180
 C2667 C 0.21846 0.02513 0.13954
 C2668 C 0.23398 0.02849 0.13818
 C2669 C 0.23957 0.03812 0.12771
 C2670 C 0.22870 0.04477 0.11838
 C2671 C 0.21259 0.04167 0.11962
 C2672 C 0.20742 0.03145 0.13015
 O2673 O 0.21552 0.01672 0.15106
 C2674 C 0.22948 0.01479 0.15709
 C2675 C 0.24116 0.02174 0.14960
 C2676 C 0.25646 0.02221 0.15460
 C2677 C 0.25983 0.01548 0.16804
 C2678 C 0.24797 0.00842 0.17614
 C2679 C 0.23262 0.00783 0.17039
 H2680 H 0.25180 0.04080 0.12704
 H2681 H 0.23281 0.05255 0.11034
 H2682 H 0.19516 0.02919 0.13157
 H2683 H 0.26537 0.02801 0.14863
 H2684 H 0.27158 0.01612 0.17234
 H2685 H 0.22322 0.00296 0.17653
 C2686 C 0.71413 0.21944 0.60406
 C2687 C 0.72999 0.21763 0.60458
 C2688 C 0.73744 0.20938 0.61528
 C2689 C 0.72816 0.20248 0.62574
 C2690 C 0.71177 0.20403 0.62541
 C2691 C 0.70465 0.21290 0.61459
 O2692 O 0.70936 0.22679 0.59230
 C2693 C 0.72250 0.22963 0.58529
 C2694 C 0.73543 0.22428 0.59240
 C2695 C 0.75028 0.22519 0.58663
 C2696 C 0.75189 0.23178 0.57289
 C2697 C 0.73875 0.23727 0.56517
 C2698 C 0.72385 0.23633 0.57161
 H2699 H 0.74992 0.20793 0.61530
 H2700 H 0.73372 0.19571 0.63397
 H2701 H 0.69214 0.21395 0.61389
 H2702 H 0.76024 0.22071 0.59238
 H2703 H 0.76338 0.23240 0.56819
 H2704 H 0.71354 0.24013 0.56591
 C2705 C 0.70490 0.71020 0.08934
 C2706 C 0.69564 0.72223 0.08682
 C2707 C 0.68395 0.72653 0.09629
 C2708 C 0.68169 0.71807 0.10890
 C2709 C 0.69105 0.70555 0.11181
 C2710 C 0.70287 0.70162 0.10182
 O2711 O 0.71536 0.70804 0.07895
 C2712 C 0.71262 0.71897 0.06969
 C2713 C 0.70067 0.72795 0.07402
 C2714 C 0.69585 0.74006 0.06598
 C2715 C 0.70369 0.74307 0.05294
 C2716 C 0.71613 0.73401 0.04818
 C2717 C 0.72059 0.72174 0.05675
 H2718 H 0.67685 0.73608 0.09409
 H2719 H 0.67272 0.72146 0.11640
 H2720 H 0.71018 0.69213 0.10358
 H2721 H 0.68640 0.74695 0.06963
 H2722 H 0.70002 0.75247 0.04657
 H2723 H 0.72996 0.71456 0.05347
 C2724 C 0.54448 0.71460 0.15649
 C2725 C 0.52905 0.71068 0.15539
 C2726 C 0.52289 0.70323 0.14333
 C2727 C 0.53312 0.69936 0.13209
 C2728 C 0.54911 0.70309 0.13305
 C2729 C 0.55484 0.71106 0.14529
 O2730 O 0.54813 0.72070 0.16933
 C2731 C 0.53473 0.72059 0.17646
 C2732 C 0.52270 0.71458 0.16840
 C2733 C 0.50789 0.71258 0.17402
 C2734 C 0.50535 0.71695 0.18857
 C2735 C 0.51755 0.72317 0.19719
 C2736 C 0.53244 0.72510 0.19092
 H2737 H 0.51077 0.70004 0.14282
 H2738 H 0.52873 0.69306 0.12283
 H2739 H 0.56709 0.71359 0.14645
 H2740 H 0.49868 0.70762 0.16751
 H2741 H 0.49389 0.71538 0.19313
 H2742 H 0.54209 0.72957 0.19722
 C2743 C 0.03537 0.71749 0.65225
 C2744 C 0.04156 0.73144 0.65241
 C2745 C 0.05036 0.73703 0.64107
 C2746 C 0.05315 0.72782 0.62909
 C2747 C 0.04731 0.71317 0.62863
 C2748 C 0.03803 0.70801 0.64033
 O2749 O 0.02765 0.71437 0.66445
 C2750 C 0.02911 0.72664 0.67241
 C2751 C 0.03758 0.73734 0.66548
 C2752 C 0.04127 0.75079 0.67192
 C2753 C 0.03607 0.75335 0.68618
 C2754 C 0.02721 0.74262 0.69366
 C2755 C 0.02352 0.72908 0.68661
 H2756 H 0.05506 0.74809 0.64150
 H2757 H 0.05992 0.73221 0.62019
 H2758 H 0.03347 0.69691 0.64037
 H2759 H 0.04813 0.75893 0.66625
 H2760 H 0.03894 0.76374 0.69141
 H2761 H 0.01699 0.72061 0.69216
 C2762 C 0.53144 0.63733 0.22715
 C2763 C 0.51561 0.63717 0.22490
 C2764 C 0.50805 0.62610 0.21709
 C2765 C 0.51716 0.61486 0.21111
 C2766 C 0.53358 0.61489 0.21288
 C2767 C 0.54078 0.62616 0.22134
 O2768 O 0.53636 0.64935 0.23416
 C2769 C 0.52337 0.65693 0.23628
 C2770 C 0.51036 0.64997 0.23077
 C2771 C 0.49572 0.65643 0.23074
 C2772 C 0.49445 0.67073 0.23647
 C2773 C 0.50767 0.67817 0.24226
 C2774 C 0.52230 0.67104 0.24234
 H2775 H 0.49559 0.62627 0.21537
 H2776 H 0.51138 0.60627 0.20486
 H2777 H 0.55328 0.62666 0.22267
 H2778 H 0.48572 0.65083 0.22606
 H2779 H 0.48325 0.67611 0.23621
 H2780 H 0.53268 0.67663 0.24625
 C2781 C 0.02945 0.65512 0.71687
 C2782 C 0.01483 0.65739 0.71112
 C2783 C 0.00820 0.64825 0.70054
 C2784 C 0.01701 0.63630 0.69560
 C2785 C 0.03218 0.63372 0.70125
 C2786 C 0.03839 0.64323 0.71218
 O2787 O 0.03388 0.66556 0.72625
 C2788 C 0.02181 0.67462 0.72640
 C2789 C 0.00985 0.67009 0.71733
 C2790 C -0.00353 0.67833 0.71514
 C2791 C -0.00452 0.69193 0.72238
 C2792 C 0.00774 0.69696 0.73165
 C2793 C 0.02098 0.68802 0.73388
 H2794 H -0.00327 0.65036 0.69608
 H2795 H 0.01196 0.62910 0.68736
 H2796 H 0.05001 0.64175 0.71655
 H2797 H -0.01269 0.67461 0.70780
 H2798 H -0.01469 0.69867 0.72053
 H2799 H 0.03069 0.69172 0.74058
 C2800 C 0.02947 0.10609 0.03782
 C2801 C 0.01371 0.10797 0.03914
 C2802 C 0.00722 0.11866 0.04812
 C2803 C 0.01740 0.12786 0.05605
 C2804 C 0.03373 0.12625 0.05483
 C2805 C 0.03981 0.11522 0.04549
 O2806 O 0.03322 0.09465 0.02946
 C2807 C 0.01950 0.08918 0.02541
 C2808 C 0.00721 0.09699 0.03101
 C2809 C -0.00816 0.09270 0.02898
 C2810 C -0.01097 0.07960 0.02125
 C2811 C 0.00149 0.07109 0.01570
 C2812 C 0.01695 0.07617 0.01748
 H2813 H -0.00524 0.11977 0.04915
 H2814 H 0.01254 0.13628 0.06305
 H2815 H 0.05220 0.11349 0.04452
 H2816 H -0.01761 0.09893 0.03365
 H2817 H -0.02285 0.07578 0.02005
 H2818 H 0.02669 0.06967 0.01378
 C2819 C 0.00905 0.60522 0.54436
 C2820 C 0.00481 0.60851 0.53017
 C2821 C 0.00819 0.62194 0.52369
 C2822 C 0.01651 0.63231 0.53206
 C2823 C 0.02116 0.62918 0.54665
 C2824 C 0.01707 0.61557 0.55302
 O2825 O 0.00636 0.59125 0.54778
 C2826 C 0.00037 0.58561 0.53548
 C2827 C -0.00085 0.59576 0.52440
 C2828 C -0.00510 0.59196 0.51013
 C2829 C -0.00783 0.57704 0.50704
 C2830 C -0.00642 0.56632 0.51818
 C2831 C -0.00266 0.57070 0.53270
 H2832 H 0.00515 0.62409 0.51237
 H2833 H 0.01981 0.64261 0.52703
 H2834 H 0.02104 0.61273 0.56394
 H2835 H -0.00554 0.60008 0.50151
 H2836 H -0.01041 0.57374 0.49586
 H2837 H -0.00083 0.56263 0.54123
 C2838 C 0.52574 0.10133 0.54601
 C2839 C 0.52659 0.10531 0.53150
 C2840 C 0.53420 0.11795 0.52688
 C2841 C 0.54147 0.12672 0.53760
 C2842 C 0.54087 0.12283 0.55260
 C2843 C 0.53262 0.11011 0.55692
 O2844 O 0.51933 0.08815 0.54788
 C2845 C 0.51612 0.08373 0.53427
 C2846 C 0.52031 0.09388 0.52387
 C2847 C 0.51934 0.09106 0.50891
 C2848 C 0.51414 0.07710 0.50445
 C2849 C 0.50998 0.06633 0.51490
 C2850 C 0.51065 0.06982 0.53005
 H2851 H 0.53501 0.12066 0.51537
 H2852 H 0.54789 0.13637 0.53423
 H2853 H 0.53246 0.10669 0.56827
 H2854 H 0.52300 0.09912 0.50096
 H2855 H 0.51375 0.07454 0.49284
 H2856 H 0.50805 0.06165 0.53827
 C2857 C 0.53786 0.59565 0.04948
 C2858 C 0.52812 0.59057 0.06021
 C2859 C 0.52692 0.59732 0.07385
 C2860 C 0.53607 0.60987 0.07650
 C2861 C 0.54608 0.61547 0.06553
 C2862 C 0.54694 0.60820 0.05182
 O2863 O 0.53743 0.58751 0.03737
 C2864 C 0.52716 0.57710 0.04052
 C2865 C 0.52105 0.57851 0.05433
 C2866 C 0.51002 0.56883 0.05981
 C2867 C 0.50515 0.55716 0.05071
 C2868 C 0.51145 0.55534 0.03648
 C2869 C 0.52260 0.56553 0.03136
 H2870 H 0.51919 0.59311 0.08214
 H2871 H 0.53509 0.61536 0.08700
 H2872 H 0.55453 0.61210 0.04327
 H2873 H 0.50538 0.57017 0.07072
 H2874 H 0.49674 0.54940 0.05489
 H2875 H 0.52767 0.56448 0.02058
 C2876 C 0.72654 0.15510 0.53320
 C2877 C 0.74159 0.15636 0.53824
 C2878 C 0.74848 0.14592 0.54722
 C2879 C 0.73950 0.13370 0.55120
 C2880 C 0.72383 0.13213 0.54630
 C2881 C 0.71737 0.14304 0.53704
 O2882 O 0.72204 0.16652 0.52522
 C2883 C 0.73451 0.17517 0.52529
 C2884 C 0.74678 0.16948 0.53312
 C2885 C 0.76069 0.17709 0.53523
 C2886 C 0.76188 0.19125 0.52924
 C2887 C 0.74933 0.19742 0.52120
 C2888 C 0.73556 0.18908 0.51902
 H2889 H 0.76031 0.14721 0.55115
 H2890 H 0.74486 0.12555 0.55815
 H2891 H 0.70548 0.14239 0.53315
 H2892 H 0.77014 0.17244 0.54157
 H2893 H 0.77247 0.19749 0.53106
 H2894 H 0.72566 0.19355 0.51320
 C2895 C 0.70927 0.64974 0.03245
 C2896 C 0.70032 0.65108 0.01997
 C2897 C 0.68842 0.64133 0.01637
 C2898 C 0.68561 0.62971 0.02605
 C2899 C 0.69468 0.62805 0.03902
 C2900 C 0.70675 0.63822 0.04217
 O2901 O 0.71969 0.66042 0.03403
 C2902 C 0.71727 0.66868 0.02229
 C2903 C 0.70557 0.66342 0.01332
 C2904 C 0.70090 0.67052 0.00059
 C2905 C 0.70854 0.68364 -0.00300
 C2906 C 0.72057 0.68942 0.00614
 C2907 C 0.72502 0.68170 0.01895
 H2908 H 0.68150 0.64265 0.00651
 H2909 H 0.67643 0.62198 0.02334
 H2910 H 0.71376 0.63741 0.05203
 H2911 H 0.69159 0.66620 -0.00624
 H2912 H 0.70486 0.68939 -0.01279
 H2913 H 0.73403 0.68580 0.02626
 C2914 C 0.22875 0.59782 0.70715
 C2915 C 0.24196 0.59457 0.69945
 C2916 C 0.24754 0.60351 0.68835
 C2917 C 0.23912 0.61630 0.68502
 C2918 C 0.22533 0.61987 0.69272
 C2919 C 0.22020 0.61044 0.70402
 O2920 O 0.22515 0.58769 0.71698
 C2921 C 0.23634 0.57781 0.71545
 C2922 C 0.24692 0.58147 0.70486
 C2923 C 0.25921 0.57237 0.70108
 C2924 C 0.26055 0.55887 0.70840
 C2925 C 0.24970 0.55477 0.71932
 C2926 C 0.23753 0.56454 0.72296
 H2927 H 0.25794 0.60070 0.68239
 H2928 H 0.24339 0.62333 0.67642
 H2929 H 0.20971 0.61259 0.71008
 H2930 H 0.26733 0.57543 0.69262
 H2931 H 0.26992 0.55156 0.70542
 H2932 H 0.22890 0.56169 0.73104
 C2933 C 0.22028 0.09219 0.20302
 C2934 C 0.23492 0.09149 0.19717
 C2935 C 0.24064 0.10199 0.18759
 C2936 C 0.23087 0.11375 0.18389
 C2937 C 0.21571 0.11482 0.18980
 C2938 C 0.21040 0.10385 0.19957
 O2939 O 0.21700 0.08084 0.21160
 C2940 C 0.22987 0.07282 0.21115
 C2941 C 0.24117 0.07891 0.20249
 C2942 C 0.25544 0.07228 0.20019
 C2943 C 0.25815 0.05873 0.20695
 C2944 C 0.24665 0.05201 0.21583
 C2945 C 0.23232 0.05931 0.21804
 H2946 H 0.25219 0.10115 0.18309
 H2947 H 0.23524 0.12205 0.17654
 H2948 H 0.19886 0.10421 0.20415
 H2949 H 0.26412 0.07728 0.19328
 H2950 H 0.26919 0.05340 0.20508
 H2951 H 0.22321 0.05446 0.22457
 C2952 C 0.71859 1.09045 0.70783
 C2953 C 0.73324 1.08843 0.70229
 C2954 C 0.74006 1.09829 0.69268
 C2955 C 0.73140 1.11067 0.68854
 C2956 C 0.71616 1.11294 0.69397
 C2957 C 0.70980 1.10269 0.70390
 O2958 O 0.71392 1.07946 0.71624
 C2959 C 0.72587 1.07029 0.71598
 C2960 C 0.73800 1.07524 0.70761
 C2961 C 0.75131 1.06697 0.70521
 C2962 C 0.75202 1.05292 0.71150
 C2963 C 0.73956 1.04747 0.72004
 C2964 C 0.72641 1.05646 0.72247
 H2965 H 0.75156 1.09641 0.68836
 H2966 H 0.73660 1.11840 0.68105
 H2967 H 0.69816 1.10388 0.70811
 H2968 H 0.76063 1.07103 0.69844
 H2969 H 0.76215 1.04620 0.70949
 H2970 H 0.71655 1.05256 0.72864
 C2971 C 0.72295 0.59800 0.20536
 C2972 C 0.73841 0.60142 0.20707
 C2973 C 0.74530 0.61339 0.20022
 C2974 C 0.73577 0.62234 0.19147
 C2975 C 0.71969 0.61915 0.18972
 C2976 C 0.71331 0.60667 0.19670
 O2977 O 0.71878 0.58583 0.21227
 C2978 C 0.73193 0.58145 0.21851
 C2979 C 0.74429 0.59062 0.21570
 C2980 C 0.75932 0.58766 0.22047
 C2981 C 0.76178 0.57446 0.22802
 C2982 C 0.74928 0.56462 0.23068
 C2983 C 0.73406 0.56840 0.22621
 H2984 H 0.75756 0.61577 0.20159
 H2985 H 0.74090 0.63184 0.18630
 H2986 H 0.70120 0.60367 0.19543
 H2987 H 0.76889 0.59495 0.21799
 H2988 H 0.77352 0.57162 0.23127
 H2989 H 0.72440 0.56090 0.22767
 C2990 C 0.52364 0.15248 0.71176
 C2991 C 0.50947 0.15542 0.70539
 C2992 C 0.50306 0.14678 0.69434
 C2993 C 0.51164 0.13463 0.68955
 C2994 C 0.52650 0.13132 0.69575
 C2995 C 0.53240 0.14042 0.70723
 O2996 O 0.52795 0.16252 0.72159
 C2997 C 0.51625 0.17201 0.72134
 C2998 C 0.50466 0.16817 0.71160
 C2999 C 0.49178 0.17699 0.70892
 C3000 C 0.49089 0.19041 0.71651
 C3001 C 0.50273 0.19464 0.72662
 C3002 C 0.51550 0.18516 0.72917
 H3003 H 0.49191 0.14939 0.68945
 H3004 H 0.50648 0.12791 0.68100
 H3005 H 0.54362 0.13854 0.71228
 H3006 H 0.48293 0.17379 0.70101
 H3007 H 0.48109 0.19755 0.71442
 H3008 H 0.52490 0.18820 0.73656
 C3009 C 1.04201 0.14366 0.22166
 C3010 C 1.02625 0.14134 0.22035
 C3011 C 1.01983 0.13029 0.21164
 C3012 C 1.03004 0.12144 0.20369
 C3013 C 1.04633 0.12373 0.20455
 C3014 C 1.05245 0.13478 0.21397
 O3015 O 1.04555 0.15558 0.22952
 C3016 C 1.03173 0.16091 0.23315
 C3017 C 1.01957 0.15256 0.22778
 C3018 C 1.00413 0.15674 0.22904
 C3019 C 1.00106 0.17018 0.23597
 C3020 C 1.01334 0.17905 0.24156
 C3021 C 1.02891 0.17422 0.24038
 H3022 H 1.00738 0.12887 0.21061
 H3023 H 1.02522 0.11300 0.19655
 H3024 H 1.06480 0.13701 0.21452
 H3025 H 0.99480 0.15013 0.22442
 H3026 H 0.98912 0.17384 0.23676
 H3027 H 1.03850 0.18102 0.24417
 C3028 C 0.22371 0.65630 0.54586
 C3029 C 0.22152 0.65264 0.53132
 C3030 C 0.21485 0.63941 0.52681
 C3031 C 0.20992 0.62970 0.53773
 C3032 C 0.21177 0.63338 0.55276
 C3033 C 0.21899 0.64674 0.55690
 O3034 O 0.22921 0.66984 0.54779
 C3035 C 0.23043 0.67484 0.53421
 C3036 C 0.22584 0.66477 0.52373
 C3037 C 0.22503 0.66810 0.50888
 C3038 C 0.22909 0.68242 0.50466
 C3039 C 0.23391 0.69301 0.51526
 C3040 C 0.23474 0.68906 0.53024
 H3041 H 0.21298 0.63689 0.51532
 H3042 H 0.20409 0.61959 0.53454
 H3043 H 0.22000 0.64996 0.56832
 H3044 H 0.22109 0.66007 0.50087
 H3045 H 0.22837 0.68528 0.49317
 H3046 H 0.23801 0.69698 0.53862
 C3047 C 0.21417 0.15275 1.03683
 C3048 C 0.22971 0.15269 1.04047
 C3049 C 0.23656 0.14170 1.04877
 C3050 C 0.22698 0.13032 1.05370
 C3051 C 0.21084 0.13012 1.05033
 C3052 C 0.20440 0.14143 1.04156
 O3053 O 0.20994 0.16468 1.02945
 C3054 C 0.22310 0.17230 1.02846
 C3055 C 0.23550 0.16540 1.03505
 C3056 C 0.25019 0.17169 1.03613
 C3057 C 0.25216 0.18578 1.03034
 C3058 C 0.23958 0.19325 1.02355
 C3059 C 0.22487 0.18630 1.02239
 H3060 H 0.24880 0.14199 1.05156
 H3061 H 0.23219 0.12170 1.06022
 H3062 H 0.19211 0.14173 1.03897
 H3063 H 0.25970 0.16609 1.04155
 H3064 H 0.26348 0.19097 1.03129
 H3065 H 0.21500 0.19187 1.01754
 C3066 C 0.21360 0.71610 0.59730
 C3067 C 0.20648 0.72957 0.59637
 C3068 C 0.19672 0.73500 0.60711
 C3069 C 0.19407 0.72616 0.61934
 C3070 C 0.20108 0.71208 0.62063
 C3071 C 0.21113 0.70706 0.60942
 O3072 O 0.22227 0.71301 0.58569
 C3073 C 0.22052 0.72481 0.57728
 C3074 C 0.21094 0.73522 0.58336
 C3075 C 0.20714 0.74827 0.57640
 C3076 C 0.21341 0.75071 0.56253
 C3077 C 0.22334 0.74020 0.55589
 C3078 C 0.22704 0.72707 0.56348
 H3079 H 0.19127 0.74566 0.60609
 H3080 H 0.18656 0.73040 0.62779
 H3081 H 0.21660 0.69638 0.60995
 H3082 H 0.19952 0.75624 0.58142
 H3083 H 0.21050 0.76085 0.55698
 H3084 H 0.23445 0.71878 0.55868
 C3085 C 0.21241 0.21519 1.10200
 C3086 C 0.20763 0.22959 1.10237
 C3087 C 0.19819 0.23519 1.11331
 C3088 C 0.19340 0.22554 1.12432
 C3089 C 0.19801 0.21054 1.12421
 C3090 C 0.20779 0.20537 1.11286
 O3091 O 0.22100 0.21205 1.09036
 C3092 C 0.22161 0.22476 1.08325
 C3093 C 0.21358 0.23582 1.09017
 C3094 C 0.21210 0.24985 1.08441
 C3095 C 0.21903 0.25259 1.07086
 C3096 C 0.22734 0.24140 1.06340
 C3097 C 0.22881 0.22731 1.06981
 H3098 H 0.19454 0.24657 1.11332
 H3099 H 0.18612 0.22986 1.13291
 H3100 H 0.21142 0.19401 1.11229
 H3101 H 0.20560 0.25832 1.09002
 H3102 H 0.21781 0.26342 1.06612
 H3103 H 0.23483 0.21848 1.06425
 C3104 C 0.73519 0.53624 0.14508
 C3105 C 0.74937 0.54310 0.14662
 C3106 C 0.75434 0.55406 0.13717
 C3107 C 0.74424 0.55816 0.12572
 C3108 C 0.72943 0.55135 0.12400
 C3109 C 0.72501 0.54011 0.13381
 O3110 O 0.73227 0.52669 0.15564
 C3111 C 0.74486 0.52757 0.16408
 C3112 C 0.75570 0.53744 0.15908
 C3113 C 0.76927 0.54075 0.16682
 C3114 C 0.77159 0.53381 0.18039
 C3115 C 0.76043 0.52376 0.18589
 C3116 C 0.74703 0.52041 0.17739
 H3117 H 0.76548 0.55944 0.13868
 H3118 H 0.74797 0.56671 0.11834
 H3119 H 0.71377 0.53479 0.13310
 H3120 H 0.77754 0.54871 0.16278
 H3121 H 0.78187 0.53658 0.18677
 H3122 H 0.73806 0.51311 0.18139
 C3123 C 0.72106 1.03071 0.63931
 C3124 C 0.71437 1.01702 0.63770
 C3125 C 0.70407 1.01353 0.62640
 C3126 C 0.70033 1.02464 0.61642
 C3127 C 0.70696 1.03889 0.61781
 C3128 C 0.71775 1.04189 0.62925
 O3129 O 0.72937 1.03205 0.65161
 C3130 C 0.72784 1.01895 0.65787
 C3131 C 0.71883 1.00937 0.64972
 C3132 C 0.71465 0.99548 0.65462
 C3133 C 0.71967 0.99138 0.66865
 C3134 C 0.72870 1.00112 0.67748
 C3135 C 0.73315 1.01500 0.67185
 H3136 H 0.69871 1.00277 0.62557
 H3137 H 0.69208 1.02221 0.60771
 H3138 H 0.72268 1.05278 0.63074
 H3139 H 0.70732 0.98826 0.64809
 H3140 H 0.71612 0.98077 0.67282
 H3141 H 0.73961 1.02284 0.67851
 C3142 C 0.54649 0.22261 0.65577
 C3143 C 0.53141 0.22620 0.65222
 C3144 C 0.52394 0.22101 0.63964
 C3145 C 0.53232 0.21166 0.63037
 C3146 C 0.54790 0.20787 0.63371
 C3147 C 0.55518 0.21363 0.64648
 O3148 O 0.55081 0.22739 0.66899
 C3149 C 0.53817 0.23412 0.67388
 C3150 C 0.52604 0.23379 0.66395
 C3151 C 0.51132 0.23901 0.66718
 C3152 C 0.50882 0.24438 0.68137
 C3153 C 0.52094 0.24439 0.69203
 C3154 C 0.53598 0.23960 0.68807
 H3155 H 0.51193 0.22368 0.63728
 H3156 H 0.52665 0.20728 0.62063
 H3157 H 0.56693 0.21056 0.64946
 H3158 H 0.50190 0.23839 0.65926
 H3159 H 0.49724 0.24794 0.68427
 H3160 H 0.54529 0.23901 0.69611
 C3161 C 1.03500 0.20867 0.16226
 C3162 C 1.03855 0.22339 0.16317
 C3163 C 1.04709 0.23071 0.15261
 C3164 C 1.05228 0.22251 0.14059
 C3165 C 1.04893 0.20724 0.13932
 C3166 C 1.04001 0.20027 0.15031
 O3167 O 1.02722 0.20381 0.17382
 C3168 C 1.02588 0.21576 0.18219
 C3169 C 1.03264 0.22800 0.17612
 C3170 C 1.03326 0.24155 0.18316
 C3171 C 1.02682 0.24253 0.19716
 C3172 C 1.01986 0.23009 0.20384
 C3173 C 1.01918 0.21652 0.19612
 H3174 H 1.04979 0.24230 0.15365
 H3175 H 1.05889 0.22813 0.13229
 H3176 H 1.03740 0.18863 0.14981
 H3177 H 1.03877 0.25097 0.17818
 H3178 H 1.02741 0.25299 0.20287
 H3179 H 1.01420 0.20679 0.20103
 C3180 C 0.60320 0.20681 0.71626
 C3181 C 0.60103 0.19976 0.72938
 C3182 C 0.61040 0.18831 0.73412
 C3183 C 0.62244 0.18382 0.72491
 C3184 C 0.62490 0.19072 0.71118
 C3185 C 0.61517 0.20253 0.70690
 O3186 O 0.59268 0.21719 0.71372
 C3187 C 0.58370 0.21662 0.72550
 C3188 C 0.58834 0.20611 0.73537
 C3189 C 0.58032 0.20320 0.74819
 C3190 C 0.56689 0.21140 0.75093
 C3191 C 0.56179 0.22234 0.74095
 C3192 C 0.57045 0.22506 0.72809
 H3193 H 0.60843 0.18293 0.74450
 H3194 H 0.62983 0.17495 0.72859
 H3195 H 0.61658 0.20796 0.69647
 H3196 H 0.58415 0.19477 0.75572
 H3197 H 0.56044 0.20917 0.76081
 H3198 H 0.56672 0.23315 0.72014
 C3199 C 1.10089 0.20451 0.22256
 C3200 C 1.10190 0.19963 0.23676
 C3201 C 1.11337 0.19005 0.24157
 C3202 C 1.12431 0.18530 0.23132
 C3203 C 1.12362 0.19016 0.21657
 C3204 C 1.11175 0.20001 0.21218
 O3205 O 1.08863 0.21305 0.22015
 C3206 C 1.08177 0.21354 0.23314
 C3207 C 1.08949 0.20553 0.24365
 C3208 C 1.08407 0.20394 0.25784
 C3209 C 1.06994 0.21065 0.26129
 C3210 C 1.06154 0.21878 0.25060
 C3211 C 1.06772 0.22046 0.23637
 H3212 H 1.11381 0.18628 0.25280
 H3213 H 1.13337 0.17791 0.23496
 H3214 H 1.11075 0.20377 0.20097
 H3215 H 1.09031 0.19748 0.26588
 H3216 H 1.06539 0.20926 0.27222
 H3217 H 1.06142 0.22632 0.22790
 C3218 C 0.14234 0.71466 0.53057
 C3219 C 0.14290 0.70987 0.51628
 C3220 C 0.13212 0.70009 0.51030
 C3221 C 0.12023 0.69501 0.51942
 C3222 C 0.11931 0.69973 0.53425
 C3223 C 0.13056 0.70979 0.53984
 O3224 O 0.15407 0.72356 0.53420
 C3225 C 0.16220 0.72439 0.52191
 C3226 C 0.15581 0.71621 0.51064
 C3227 C 0.16266 0.71500 0.49697
 C3228 C 0.17681 0.72232 0.49487
 C3229 C 0.18384 0.73070 0.50634
 C3230 C 0.17625 0.73193 0.52002
 H3231 H 0.13289 0.69642 0.49903
 H3232 H 0.11174 0.68746 0.51483
 H3233 H 0.13039 0.71348 0.55112
 H3234 H 0.15746 0.70841 0.48831
 H3235 H 0.18242 0.72125 0.48435
 H3236 H 0.18145 0.73799 0.52907
 C3237 C 0.14930 0.21383 1.04254
 C3238 C 0.14926 0.20866 1.02835
 C3239 C 0.13894 0.19799 1.02328
 C3240 C 0.12821 0.19235 1.03325
 C3241 C 0.12795 0.19744 1.04798
 C3242 C 0.13858 0.20848 1.05263
 O3243 O 0.16070 0.22338 1.04527
 C3244 C 0.16799 0.22423 1.03252
 C3245 C 0.16138 0.21545 1.02182
 C3246 C 0.16751 0.21401 1.00787
 C3247 C 0.18122 0.22171 1.00487
 C3248 C 0.18851 0.23064 1.01576
 C3249 C 0.18159 0.23213 1.02973
 H3250 H 0.13927 0.19400 1.01209
 H3251 H 0.12007 0.18406 1.02943
 H3252 H 0.13883 0.21243 1.06385
 H3253 H 0.16216 0.20691 0.99971
 H3254 H 0.18634 0.22045 0.99414
 H3255 H 0.18705 0.23859 1.03836
 C3256 C 0.65729 0.53812 0.20795
 C3257 C 0.65983 0.52510 0.20065
 C3258 C 0.64963 0.51940 0.19024
 C3259 C 0.63626 0.52751 0.18703
 C3260 C 0.63329 0.54116 0.19412
 C3261 C 0.64391 0.54644 0.20495
 O3262 O 0.66878 0.54158 0.21723
 C3263 C 0.67873 0.53049 0.21567
 C3264 C 0.67373 0.52018 0.20563
 C3265 C 0.68234 0.50786 0.20190
 C3266 C 0.69680 0.50605 0.20878
 C3267 C 0.70241 0.51644 0.21925
 C3268 C 0.69313 0.52885 0.22280
 H3269 H 0.65192 0.50909 0.18468
 H3270 H 0.62823 0.52303 0.17897
 H3271 H 0.64205 0.55681 0.21051
 H3272 H 0.67813 0.49997 0.19387
 H3273 H 0.70359 0.49646 0.20592
 H3274 H 0.69709 0.53705 0.23064
 C3275 C 0.64440 1.04583 0.70767
 C3276 C 0.63945 1.03146 0.70646
 C3277 C 0.62558 1.02741 0.69968
 C3278 C 0.61643 1.03862 0.69376
 C3279 C 0.62124 1.05351 0.69477
 C3280 C 0.63532 1.05724 0.70201
 O3281 O 0.65851 1.04708 0.71363
 C3282 C 0.66251 1.03320 0.71617
 C3283 C 0.65120 1.02327 0.71198
 C3284 C 0.65320 1.00815 0.71266
 C3285 C 0.66757 1.00298 0.71765
 C3286 C 0.67955 1.01290 0.72193
 C3287 C 0.67689 1.02826 0.72143
 H3288 H 0.62210 1.01600 0.69867
 H3289 H 0.60566 1.03573 0.68822
 H3290 H 0.63930 1.06854 0.70266
 H3291 H 0.64417 1.00060 0.70910
 H3292 H 0.66946 0.99121 0.71800
 H3293 H 0.68596 1.03607 0.72431
 C3294 C 0.85254 0.45562 0.29758
 C3295 C 0.85238 0.46917 0.30436
 C3296 C 0.86077 0.47226 0.31705
 C3297 C 0.86971 0.46093 0.32306
 C3298 C 0.87013 0.44680 0.31633
 C3299 C 0.86150 0.44418 0.30329
 O3300 O 0.84305 0.45484 0.28603
 C3301 C 0.83681 0.46819 0.28556
 C3302 C 0.84220 0.47735 0.29652
 C3303 C 0.83676 0.49156 0.29855
 C3304 C 0.82504 0.49648 0.28907
 C3305 C 0.81898 0.48718 0.27782
 C3306 C 0.82521 0.47289 0.27590
 H3307 H 0.86033 0.48298 0.32225
 H3308 H 0.87639 0.46327 0.33290
 H3309 H 0.86144 0.43350 0.29800
 H3310 H 0.84112 0.49849 0.30736
 H3311 H 0.82043 0.50743 0.29072
 H3312 H 0.82065 0.46541 0.26764
 C3313 C 0.83958 0.94766 0.78135
 C3314 C 0.83364 0.93555 0.77414
 C3315 C 0.84148 0.92224 0.77335
 C3316 C 0.85610 0.92135 0.78025
 C3317 C 0.86255 0.93366 0.78780
 C3318 C 0.85406 0.94700 0.78838
 O3319 O 0.83037 0.95934 0.78052
 C3320 C 0.81836 0.95449 0.77259
 C3321 C 0.81981 0.94000 0.76844
 C3322 C 0.80874 0.93273 0.75990
 C3323 C 0.79571 0.94075 0.75531
 C3324 C 0.79390 0.95579 0.75931
 C3325 C 0.80540 0.96269 0.76822
 H3326 H 0.83655 0.91286 0.76759
 H3327 H 0.86226 0.91102 0.77981
 H3328 H 0.85866 0.95666 0.79390
 H3329 H 0.81013 0.92131 0.75681
 H3330 H 0.78702 0.93519 0.74865
 H3331 H 0.80443 0.97413 0.77145
 C3332 C 0.40635 0.29954 0.79386
 C3333 C 0.41004 0.30877 0.78253
 C3334 C 0.40189 0.32156 0.77955
 C3335 C 0.38937 0.32502 0.78861
 C3336 C 0.38518 0.31575 0.80046
 C3337 C 0.39389 0.30277 0.80306
 O3338 O 0.41578 0.28802 0.79483
 C3339 C 0.42560 0.29008 0.78385
 C3340 C 0.42255 0.30264 0.77603
 C3341 C 0.43146 0.30713 0.76426
 C3342 C 0.44415 0.29838 0.76042
 C3343 C 0.44770 0.28535 0.76829
 C3344 C 0.43816 0.28111 0.78016
 H3345 H 0.40507 0.32865 0.77056
 H3346 H 0.38300 0.33494 0.78622
 H3347 H 0.39117 0.29542 0.81197
 H3348 H 0.42881 0.31710 0.75833
 H3349 H 0.45123 0.30184 0.75131
 H3350 H 0.44061 0.27134 0.78650
 C3351 C 0.89541 0.28073 0.29225
 C3352 C 0.89279 0.26596 0.29427
 C3353 C 0.88010 0.26057 0.30191
 C3354 C 0.86966 0.27083 0.30772
 C3355 C 0.87203 0.28614 0.30576
 C3356 C 0.88506 0.29112 0.29779
 O3357 O 0.90867 0.28356 0.28546
 C3358 C 0.91456 0.27026 0.28314
 C3359 C 0.90524 0.25914 0.28828
 C3360 C 0.90948 0.24443 0.28774
 C3361 C 0.92409 0.24105 0.28199
 C3362 C 0.93415 0.25232 0.27693
 C3363 C 0.92912 0.26714 0.27722
 H3364 H 0.87842 0.24889 0.30352
 H3365 H 0.85973 0.26682 0.31371
 H3366 H 0.88737 0.30273 0.29635
 H3367 H 0.90201 0.23589 0.29199
 H3368 H 0.92774 0.22966 0.28186
 H3369 H 0.93665 0.27601 0.27379
 C3370 C 0.35040 0.79716 0.47246
 C3371 C 0.35406 0.78280 0.47563
 C3372 C 0.36783 0.77624 0.47124
 C3373 C 0.37819 0.78476 0.46309
 C3374 C 0.37469 0.79957 0.45956
 C3375 C 0.36072 0.80595 0.46459
 O3376 O 0.33607 0.80077 0.47640
 C3377 C 0.33057 0.78840 0.48211
 C3378 C 0.34117 0.77711 0.48193
 C3379 C 0.33750 0.76284 0.48605
 C3380 C 0.32216 0.75998 0.49020
 C3381 C 0.31091 0.77133 0.49023
 C3382 C 0.31526 0.78585 0.48649
 H3383 H 0.37028 0.76482 0.47359
 H3384 H 0.38884 0.77976 0.45932
 H3385 H 0.35758 0.81709 0.46170
 H3386 H 0.34597 0.75408 0.48550
 H3387 H 0.31889 0.74881 0.49291
 H3388 H 0.30674 0.79457 0.48592
 C3389 C 0.35550 0.29658 0.98082
 C3390 C 0.35891 0.28229 0.98454
 C3391 C 0.37274 0.27547 0.98076
 C3392 C 0.38336 0.28358 0.97253
 C3393 C 0.38005 0.29824 0.96833
 C3394 C 0.36610 0.30498 0.97288
 O3395 O 0.34101 0.30036 0.98402
 C3396 C 0.33515 0.28817 0.98979
 C3397 C 0.34568 0.27682 0.99036
 C3398 C 0.34166 0.26262 0.99443
 C3399 C 0.32609 0.25991 0.99780
 C3400 C 0.31496 0.27135 0.99714
 C3401 C 0.31960 0.28578 0.99343
 H3402 H 0.37496 0.26409 0.98349
 H3403 H 0.39397 0.27831 0.96901
 H3404 H 0.36308 0.31597 0.96935
 H3405 H 0.35008 0.25380 0.99440
 H3406 H 0.32257 0.24881 1.00051
 H3407 H 0.31119 0.29455 0.99235
 C3408 C 0.78448 0.46970 0.34997
 C3409 C 0.76888 0.46676 0.34835
 C3410 C 0.76040 0.45893 0.35856
 C3411 C 0.76835 0.45370 0.37091
 C3412 C 0.78452 0.45630 0.37285
 C3413 C 0.79267 0.46467 0.36232
 O3414 O 0.79038 0.47679 0.33856
 C3415 C 0.77822 0.47829 0.32958
 C3416 C 0.76482 0.47230 0.33510
 C3417 C 0.75088 0.47188 0.32731
 C3418 C 0.75073 0.47778 0.31316
 C3419 C 0.76435 0.48406 0.30713
 C3420 C 0.77828 0.48446 0.31556
 H3421 H 0.74814 0.45671 0.35697
 H3422 H 0.76185 0.44753 0.37892
 H3423 H 0.80504 0.46665 0.36338
 H3424 H 0.74055 0.46694 0.33187
 H3425 H 0.74001 0.47740 0.30686
 H3426 H 0.78893 0.48890 0.31111
 C3427 C 0.77453 0.95239 0.83842
 C3428 C 0.75993 0.94625 0.83743
 C3429 C 0.75464 0.93565 0.84711
 C3430 C 0.76479 0.93119 0.85832
 C3431 C 0.77985 0.93746 0.85971
 C3432 C 0.78474 0.94829 0.84963
 O3433 O 0.77749 0.96177 0.82768
 C3434 C 0.76446 0.96157 0.81977
 C3435 C 0.75335 0.95232 0.82535
 C3436 C 0.73899 0.95009 0.81867
 C3437 C 0.73602 0.95752 0.80555
 C3438 C 0.74741 0.96690 0.79926
 C3439 C 0.76179 0.96907 0.80666
 H3440 H 0.74315 0.93088 0.84600
 H3441 H 0.76085 0.92298 0.86600
 H3442 H 0.79624 0.95311 0.85030
 H3443 H 0.73048 0.94268 0.82326
 H3444 H 0.72498 0.95557 0.80009
 H3445 H 0.77083 0.97594 0.80212
 C3446 C 0.29426 0.78211 0.40092
 C3447 C 0.27887 0.77979 0.39739
 C3448 C 0.27220 0.78450 0.38433
 C3449 C 0.28170 0.79213 0.37457
 C3450 C 0.29756 0.79487 0.37799
 C3451 C 0.30402 0.78949 0.39123
 O3452 O 0.29789 0.77790 0.41444
 C3453 C 0.28448 0.77289 0.41956
 C3454 C 0.27252 0.77379 0.40950
 C3455 C 0.25721 0.77043 0.41284
 C3456 C 0.25403 0.76620 0.42723
 C3457 C 0.26609 0.76534 0.43789
 C3458 C 0.28161 0.76841 0.43392
 H3459 H 0.25999 0.78276 0.38193
 H3460 H 0.27664 0.79613 0.36445
 H3461 H 0.31598 0.79176 0.39428
 H3462 H 0.24797 0.77153 0.40481
 H3463 H 0.24211 0.76393 0.43019
 H3464 H 0.29093 0.76826 0.44197
 C3465 C 0.29548 0.27922 0.90587
 C3466 C 0.28016 0.27590 0.90293
 C3467 C 0.27277 0.27959 0.88986
 C3468 C 0.28144 0.28728 0.87948
 C3469 C 0.29720 0.29099 0.88226
 C3470 C 0.30446 0.28661 0.89550
 O3471 O 0.29972 0.27605 0.91954
 C3472 C 0.28677 0.27069 0.92534
 C3473 C 0.27450 0.27037 0.91557
 C3474 C 0.25950 0.26653 0.91955
 C3475 C 0.25694 0.26311 0.93427
 C3476 C 0.26930 0.26349 0.94464
 C3477 C 0.28453 0.26703 0.94007
 H3478 H 0.26060 0.27717 0.88797
 H3479 H 0.27578 0.29073 0.86943
 H3480 H 0.31631 0.28979 0.89805
 H3481 H 0.24999 0.26668 0.91172
 H3482 H 0.24524 0.26047 0.93768
 H3483 H 0.29405 0.26783 0.94787
 C3484 C 0.46930 0.28332 0.85414
 C3485 C 0.46495 0.26878 0.85344
 C3486 C 0.45507 0.26235 0.86354
 C3487 C 0.44939 0.27129 0.87484
 C3488 C 0.45358 0.28639 0.87579
 C3489 C 0.46383 0.29240 0.86531
 O3490 O 0.47802 0.28746 0.84295
 C3491 C 0.47916 0.27526 0.83498
 C3492 C 0.47136 0.26352 0.84096
 C3493 C 0.47004 0.24996 0.83398
 C3494 C 0.47677 0.24852 0.82013
 C3495 C 0.48470 0.26050 0.81363
 C3496 C 0.48622 0.27398 0.82130
 H3497 H 0.45167 0.25091 0.86263
 H3498 H 0.44169 0.26641 0.88277
 H3499 H 0.46706 0.30391 0.86549
 H3500 H 0.46364 0.24097 0.83880
 H3501 H 0.47550 0.23818 0.81429
 H3502 H 0.49185 0.28340 0.81639
 C3503 C 0.96675 0.27536 0.36292
 C3504 C 0.95875 0.26224 0.36252
 C3505 C 0.94744 0.25866 0.37268
 C3506 C 0.94414 0.26907 0.38361
 C3507 C 0.95206 0.28281 0.38419
 C3508 C 0.96371 0.28586 0.37376
 O3509 O 0.97650 0.27687 0.35183
 C3510 C 0.97458 0.26445 0.34428
 C3511 C 0.96386 0.25512 0.35036
 C3512 C 0.95950 0.24186 0.34383
 C3513 C 0.96633 0.23815 0.33039
 C3514 C 0.97733 0.24766 0.32377
 C3515 C 0.98163 0.26092 0.33101
 H3516 H 0.94121 0.24831 0.37209
 H3517 H 0.93532 0.26640 0.39154
 H3518 H 0.96980 0.29629 0.37371
 H3519 H 0.95088 0.23477 0.34873
 H3520 H 0.96282 0.22800 0.32502
 H3521 H 0.98972 0.26860 0.32618
 C3522 C 0.48220 0.35410 0.79346
 C3523 C 0.49394 0.34970 0.80273
 C3524 C 0.49820 0.35764 0.81521
 C3525 C 0.48998 0.37062 0.81826
 C3526 C 0.47772 0.37539 0.80891
 C3527 C 0.47391 0.36694 0.79627
 O3528 O 0.47965 0.34482 0.78242
 C3529 C 0.49000 0.33429 0.78478
 C3530 C 0.49905 0.33673 0.79705
 C3531 C 0.51025 0.32681 0.80179
 C3532 C 0.51207 0.31378 0.79365
 C3533 C 0.50276 0.31091 0.78100
 C3534 C 0.49168 0.32148 0.77647
 H3535 H 0.50740 0.35390 0.82242
 H3536 H 0.49308 0.37676 0.82804
 H3537 H 0.46471 0.37011 0.78880
 H3538 H 0.51716 0.32890 0.81156
 H3539 H 0.52055 0.30583 0.79738
 H3540 H 0.48417 0.31960 0.76706
 C3541 C 0.96119 0.33825 0.29440
 C3542 C 0.97685 0.33882 0.29756
 C3543 C 0.98369 0.35018 0.30554
 C3544 C 0.97395 0.36123 0.31086
 C3545 C 0.95769 0.36072 0.30816
 C3546 C 0.95126 0.34929 0.29944
 O3547 O 0.95695 0.32586 0.28767
 C3548 C 0.97020 0.31846 0.28668
 C3549 C 0.98269 0.32593 0.29261
 C3550 C 0.99740 0.31980 0.29395
 C3551 C 0.99933 0.30532 0.28902
 C3552 C 0.98668 0.29735 0.28280
 C3553 C 0.97194 0.30410 0.28144
 H3554 H 0.99601 0.35026 0.30805
 H3555 H 0.97901 0.36996 0.31748
 H3556 H 0.93885 0.34845 0.29756
 H3557 H 1.00694 0.32582 0.29896
 H3558 H 1.01065 0.30027 0.29013
 H3559 H 0.96200 0.29814 0.27706
 C3560 C 0.27233 0.85454 0.45778
 C3561 C 0.27034 0.85698 0.47252
 C3562 C 0.27394 0.87025 0.47932
 C3563 C 0.28003 0.88149 0.47062
 C3564 C 0.28255 0.87930 0.45539
 C3565 C 0.27838 0.86563 0.44885
 O3566 O 0.26878 0.84084 0.45371
 C3567 C 0.26453 0.83453 0.46619
 C3568 C 0.26534 0.84398 0.47800
 C3569 C 0.26243 0.83958 0.49227
 C3570 C 0.25869 0.82477 0.49453
 C3571 C 0.25776 0.81472 0.48260
 C3572 C 0.26049 0.81973 0.46816
 H3573 H 0.27233 0.87185 0.49097
 H3574 H 0.28287 0.89186 0.47587
 H3575 H 0.28030 0.86350 0.43733
 H3576 H 0.26340 0.84719 0.50139
 H3577 H 0.25670 0.82106 0.50562
 H3578 H 0.26023 0.81222 0.45892
 C3579 C 0.27611 0.35238 0.96088
 C3580 C 0.27694 0.35517 0.97570
 C3581 C 0.28386 0.36773 0.98156
 C3582 C 0.29040 0.37778 0.97178
 C3583 C 0.28981 0.37517 0.95644
 C3584 C 0.28227 0.36241 0.95089
 O3585 O 0.27027 0.33917 0.95772
 C3586 C 0.26740 0.33351 0.97083
 C3587 C 0.27124 0.34292 0.98216
 C3588 C 0.27034 0.33893 0.99679
 C3589 C 0.26556 0.32456 0.99992
 C3590 C 0.26181 0.31447 0.98848
 C3591 C 0.26242 0.31915 0.97370
 H3592 H 0.28463 0.36952 0.99328
 H3593 H 0.29613 0.38749 0.97615
 H3594 H 0.28203 0.35998 0.93927
 H3595 H 0.27367 0.34647 1.00549
 H3596 H 0.26517 0.32118 1.01127
 H3597 H 0.26002 0.31160 0.96474
 C3598 C 0.78941 0.40358 0.28639
 C3599 C 0.79501 0.40308 0.27233
 C3600 C 0.80469 0.39199 0.26731
 C3601 C 0.80887 0.38095 0.27721
 C3602 C 0.80334 0.38115 0.29181
 C3603 C 0.79329 0.39257 0.29641
 O3604 O 0.78112 0.41560 0.28910
 C3605 C 0.78153 0.42281 0.27647
 C3606 C 0.78986 0.41554 0.26588
 C3607 C 0.79260 0.42135 0.25211
 C3608 C 0.78677 0.43538 0.24918
 C3609 C 0.77836 0.44331 0.25995
 C3610 C 0.77542 0.43679 0.27372
 H3611 H 0.80906 0.39196 0.25622
 H3612 H 0.81640 0.37224 0.27344
 H3613 H 0.78909 0.39315 0.30754
 H3614 H 0.79934 0.41546 0.24404
 H3615 H 0.78909 0.44021 0.23860
 H3616 H 0.76935 0.44272 0.28224
   
