data_POSCAR
  _audit_creation_date              2014-09-24
  _audit_creation_method            'ToBaCCo'
  _symmetry_space_group_name_H-M    'P1'
  _symmetry_Int_Tables_number       1
  _symmetry_cell_setting            triclinic
  loop_
  _symmetry_equiv_pos_as_xyz
 x,y,z
_cell_length_a 59.3289
_cell_length_b 59.5130
_cell_length_c 59.5206
_cell_angle_alpha 89.164400
_cell_angle_beta 89.105100
_cell_angle_gamma 89.342200
loop_
  _atom_site_label
  _atom_site_type_symbol
  _atom_site_fract_x
  _atom_site_fract_y
  _atom_site_fract_z
C1 C 0.74757 0.61095 1.02709
 C2 C 0.75933 0.62034 1.00877
 C3 C 0.78090 0.62902 1.01172
 C4 C 0.79098 0.62871 1.03303
 C5 C 0.77880 0.61892 1.05123
 C6 C 0.75713 0.60979 1.04861
 C7 C 0.74909 0.62057 0.98630
 C8 C 0.72783 0.63058 0.98313
 C9 C 0.71789 0.63083 0.96187
 C10 C 0.72930 0.62043 0.94387
 C11 C 0.75049 0.61012 0.94684
 C12 C 0.76038 0.61051 0.96812
 H13 H 0.73142 0.60344 1.02394
 H14 H 0.78983 0.63551 0.99707
 H15 H 0.71933 0.63865 0.99715
 H16 H 0.77682 0.60282 0.97064
 H17 H 0.78538 0.62018 1.06797
 H18 H 0.72136 0.61983 0.92763
 C19 C 0.74430 0.39382 0.46862
 C20 C 0.75552 0.38374 0.48678
 C21 C 0.77693 0.37401 0.48336
 C22 C 0.78704 0.37398 0.46186
 C23 C 0.77570 0.38445 0.44390
 C24 C 0.75435 0.39444 0.44711
 C25 C 0.74465 0.38305 0.50927
 C26 C 0.72299 0.37412 0.51212
 C27 C 0.71252 0.37337 0.53344
 C28 C 0.72384 0.38214 0.55188
 C29 C 0.74546 0.39134 0.54925
 C30 C 0.75583 0.39149 0.52787
 H31 H 0.72767 0.40113 0.47129
 H32 H 0.78529 0.36574 0.49732
 H33 H 0.71437 0.36767 0.49769
 H34 H 0.77236 0.39880 0.52549
 H35 H 0.78370 0.38515 0.42742
 H36 H 0.71610 0.38121 0.56846
 C37 C 0.24294 -0.10811 -0.02987
 C38 C 0.25419 -0.11816 -0.01178
 C39 C 0.27564 -0.12782 -0.01519
 C40 C 0.28602 -0.12792 -0.03675
 C41 C 0.27438 -0.11726 -0.05460
 C42 C 0.25298 -0.10737 -0.05131
 C43 C 0.24337 -0.11876 0.01076
 C44 C 0.22168 -0.12759 0.01374
 C45 C 0.21091 -0.12799 0.03509
 C46 C 0.22256 -0.11880 0.05330
 C47 C 0.24422 -0.10976 0.05046
 C48 C 0.25458 -0.11004 0.02915
 H49 H 0.22632 -0.10080 -0.02717
 H50 H 0.28339 -0.13635 -0.00107
 H51 H 0.21318 -0.13355 -0.00093
 H52 H 0.27113 -0.10281 0.02665
 H53 H 0.28226 -0.11552 -0.07102
 H54 H 0.21553 -0.11968 0.07015
 C55 C 0.24722 0.11088 0.52872
 C56 C 0.25847 0.11971 0.50974
 C57 C 0.28011 0.12860 0.51191
 C58 C 0.29049 0.12891 0.53296
 C59 C 0.27906 0.11980 0.55180
 C60 C 0.25746 0.11068 0.54983
 C61 C 0.24756 0.11939 0.48761
 C62 C 0.22587 0.12860 0.48499
 C63 C 0.21520 0.12807 0.46412
 C64 C 0.22640 0.11784 0.44589
 C65 C 0.24806 0.10838 0.44830
 C66 C 0.25861 0.10945 0.46922
 H67 H 0.23072 0.10358 0.52687
 H68 H 0.28879 0.13537 0.49720
 H69 H 0.21731 0.13615 0.49927
 H70 H 0.27538 0.10238 0.47129
 H71 H 0.28671 0.12040 0.56818
 H72 H 0.21822 0.11723 0.42977
 C73 C 0.11193 0.53018 0.24718
 C74 C 0.12111 0.51135 0.25828
 C75 C 0.13000 0.51361 0.27977
 C76 C 0.12999 0.53460 0.29017
 C77 C 0.12056 0.55332 0.27894
 C78 C 0.11126 0.55150 0.25732
 C79 C 0.12093 0.48917 0.24744
 C80 C 0.12994 0.48664 0.22568
 C81 C 0.12950 0.46574 0.21506
 C82 C 0.11958 0.44738 0.22641
 C83 C 0.11032 0.44970 0.24814
 C84 C 0.11129 0.47066 0.25862
 H85 H 0.10419 0.52759 0.23110
 H86 H 0.13701 0.49900 0.28834
 H87 H 0.13725 0.50101 0.21701
 H88 H 0.10437 0.47267 0.27544
 H89 H 0.12173 0.56955 0.28675
 H90 H 0.11902 0.43124 0.21828
 C91 C -0.10881 -0.02882 0.24411
 C92 C -0.11811 -0.01041 0.25546
 C93 C -0.12702 -0.01337 0.27726
 C94 C -0.12698 -0.03472 0.28800
 C95 C -0.11719 -0.05294 0.27619
 C96 C -0.10806 -0.05012 0.25441
 C97 C -0.11812 0.01209 0.24459
 C98 C -0.12769 0.01532 0.22336
 C99 C -0.12831 0.03679 0.21289
 C100 C -0.11828 0.05477 0.22421
 C101 C -0.10848 0.05167 0.24538
 C102 C -0.10869 0.03029 0.25554
 H103 H -0.10153 -0.02633 0.22745
 H104 H -0.13346 0.00132 0.28585
 H105 H -0.13575 0.00111 0.21586
 H106 H -0.10143 0.02773 0.27199
 H107 H -0.11770 -0.06979 0.28320
 H108 H -0.11693 0.07114 0.21622
 C109 C 0.39204 0.47085 0.74237
 C110 C 0.38258 0.48896 0.75405
 C111 C 0.37306 0.48543 0.77553
 C112 C 0.37253 0.46374 0.78554
 C113 C 0.38267 0.44586 0.77349
 C114 C 0.39239 0.44925 0.75205
 C115 C 0.38239 0.51166 0.74365
 C116 C 0.37289 0.51524 0.72244
 C117 C 0.37229 0.53686 0.71263
 C118 C 0.38191 0.55478 0.72410
 C119 C 0.39167 0.55140 0.74526
 C120 C 0.39161 0.52978 0.75502
 H121 H 0.39920 0.47365 0.72571
 H122 H 0.36493 0.49960 0.78360
 H123 H 0.36532 0.50130 0.71395
 H124 H 0.39878 0.52696 0.77147
 H125 H 0.38413 0.42931 0.78108
 H126 H 0.38222 0.57134 0.71630
 C127 C 0.61141 1.02866 0.74679
 C128 C 0.62079 1.01037 0.75849
 C129 C 0.63041 1.01360 0.77957
 C130 C 0.63118 1.03520 0.78910
 C131 C 0.62114 1.05327 0.77705
 C132 C 0.61125 1.05016 0.75606
 C133 C 0.62079 0.98783 0.74845
 C134 C 0.63063 0.98444 0.72717
 C135 C 0.63084 0.96304 0.71753
 C136 C 0.62052 0.94514 0.72924
 C137 C 0.61039 0.94833 0.75048
 C138 C 0.61085 0.96974 0.76008
 H139 H 0.60416 1.02607 0.73044
 H140 H 0.63841 0.99927 0.78766
 H141 H 0.63868 0.99837 0.71844
 H142 H 0.60337 0.97243 0.77656
 H143 H 0.61984 1.06977 0.78437
 H144 H 0.61988 0.92878 0.72154
 C145 C -0.03001 0.24290 -0.10703
 C146 C -0.01196 0.25457 -0.11682
 C147 C -0.01561 0.27597 -0.12638
 C148 C -0.03738 0.28588 -0.12668
 C149 C -0.05522 0.27384 -0.11624
 C150 C -0.05167 0.25251 -0.10640
 C151 C 0.01082 0.24426 -0.11722
 C152 C 0.01433 0.22297 -0.12655
 C153 C 0.03606 0.21298 -0.12749
 C154 C 0.05401 0.22484 -0.11796
 C155 C 0.05062 0.24606 -0.10833
 C156 C 0.02899 0.25577 -0.10833
 H157 H -0.02701 0.22654 -0.09933
 H158 H -0.00148 0.28404 -0.13473
 H159 H 0.00011 0.21503 -0.13420
 H160 H 0.02610 0.27202 -0.10076
 H161 H -0.07198 0.28108 -0.11519
 H162 H 0.07075 0.21751 -0.11740
 C163 C 0.52686 0.24595 0.11207
 C164 C 0.50842 0.25744 0.12164
 C165 C 0.51163 0.27836 0.13160
 C166 C 0.53326 0.28767 0.13239
 C167 C 0.55153 0.27608 0.12242
 C168 C 0.54848 0.25527 0.11213
 C169 C 0.48581 0.24738 0.12140
 C170 C 0.48230 0.22599 0.13092
 C171 C 0.46087 0.21624 0.13076
 C172 C 0.44306 0.22795 0.12036
 C173 C 0.44640 0.24928 0.11048
 C174 C 0.46782 0.25902 0.11138
 H175 H 0.52429 0.22972 0.10454
 H176 H 0.49740 0.28696 0.13938
 H177 H 0.49617 0.21725 0.13900
 H178 H 0.47076 0.27533 0.10362
 H179 H 0.56810 0.28354 0.12225
 H180 H 0.42653 0.22044 0.11994
 C181 C 1.02950 0.74657 0.61371
 C182 C 1.01117 0.75808 0.62335
 C183 C 1.01438 0.77914 0.63302
 C184 C 1.03601 0.78884 0.63357
 C185 C 1.05412 0.77699 0.62327
 C186 C 1.05101 0.75603 0.61332
 C187 C 0.98859 0.74791 0.62343
 C188 C 0.98527 0.72651 0.63302
 C189 C 0.96388 0.71664 0.63303
 C190 C 0.94594 0.72824 0.62274
 C191 C 0.94910 0.74957 0.61280
 C192 C 0.97047 0.75942 0.61352
 H193 H 1.02692 0.73025 0.60639
 H194 H 1.00003 0.78710 0.64119
 H195 H 0.99925 0.71784 0.64099
 H196 H 0.97327 0.77572 0.60568
 H197 H 1.07062 0.78446 0.62180
 H198 H 0.92945 0.72063 0.62244
 C199 C 0.47236 0.74397 0.39143
 C200 C 0.49094 0.75531 0.38213
 C201 C 0.48804 0.77704 0.37310
 C202 C 0.46666 0.78742 0.37308
 C203 C 0.44823 0.77593 0.38271
 C204 C 0.45093 0.75424 0.39202
 C205 C 0.51346 0.74447 0.38202
 C206 C 0.51668 0.72331 0.37231
 C207 C 0.53814 0.71308 0.37176
 C208 C 0.55627 0.72406 0.38166
 C209 C 0.55323 0.74515 0.39166
 C210 C 0.53177 0.75533 0.39153
 H211 H 0.47479 0.72738 0.39880
 H212 H 0.50246 0.78577 0.36598
 H213 H 0.50259 0.71521 0.36452
 H214 H 0.52923 0.77174 0.39888
 H215 H 0.43159 0.78360 0.38235
 H216 H 0.57270 0.71594 0.38200
 C217 C 0.40865 -0.01951 0.27721
 H218 H 0.40932 -0.00222 0.28249
 C219 C 0.42047 -0.03622 0.28907
 H220 H 0.43041 -0.03180 0.30343
 C221 C 0.39381 -0.04673 0.25294
 H222 H 0.38285 -0.05095 0.23938
 C223 C 0.40537 -0.06388 0.26426
 H224 H 0.40344 -0.08115 0.25916
 N225 N 0.39552 -0.02504 0.25961
 C226 C 0.38120 0.03532 0.21969
 H227 H 0.36314 0.03334 0.21870
 C228 C 0.39155 0.05343 0.20884
 H229 H 0.38143 0.06548 0.19946
 C230 C 0.41638 0.02216 0.23339
 H231 H 0.42592 0.00990 0.24298
 C232 C 0.42745 0.04017 0.22276
 H233 H 0.44552 0.04184 0.22427
 Zn234 Zn 0.37680 -0.00263 0.24642
 N235 N 0.39359 0.02033 0.23193
 C236 C 0.35994 0.03237 0.27390
 N237 N 0.35888 0.00996 0.26977
 C238 C 0.34613 -0.00395 0.28300
 C239 C 0.33355 0.00466 0.30105
 C240 C 0.34764 0.04163 0.29173
 C241 C 0.36948 -0.02317 0.20552
 C242 C 0.35736 -0.03274 0.18827
 C243 C 0.32299 -0.02591 0.20956
 C244 C 0.33577 -0.01644 0.22646
 N245 N 0.35862 -0.01549 0.22425
 H246 H 0.37059 0.04309 0.26364
 H247 H 0.34593 -0.02175 0.27962
 H248 H 0.32351 -0.00651 0.31157
 H249 H 0.34868 0.05946 0.29494
 H250 H 0.38762 -0.02190 0.20409
 H251 H 0.36616 -0.03894 0.17349
 H252 H 0.30483 -0.02672 0.21143
 H253 H 0.32742 -0.00982 0.24124
 C254 C 0.41483 0.05602 0.21052
 C255 C 0.41859 -0.05864 0.28265
 C256 C 0.33392 -0.03419 0.19034
 C257 C 0.33437 0.02766 0.30544
 C258 C 0.08829 1.01947 0.77968
 H259 H 0.08723 1.00222 0.78556
 C260 C 0.07666 1.03647 0.79120
 H261 H 0.06650 1.03231 0.80593
 C262 C 0.10397 1.04627 0.75421
 H263 H 0.11520 1.05022 0.74032
 C264 C 0.09261 1.06369 0.76517
 H265 H 0.09499 1.08089 0.75947
 N266 N 0.10178 1.02466 0.76166
 C267 C 0.11577 0.96380 0.72372
 H268 H 0.13392 0.96524 0.72270
 C269 C 0.10519 0.94609 0.71325
 H270 H 0.11522 0.93380 0.70415
 C271 C 0.08055 0.97807 0.73692
 H272 H 0.07108 0.99065 0.74611
 C273 C 0.06925 0.96050 0.72666
 H274 H 0.05106 0.95948 0.72804
 Zn275 Zn 0.12037 1.00189 0.74901
 N276 N 0.10345 0.97918 0.73549
 C277 C 0.13672 0.96686 0.77739
 N278 N 0.13777 0.98926 0.77253
 C279 C 0.15040 1.00323 0.78501
 C280 C 0.16299 0.99468 0.80292
 C281 C 0.14904 0.95765 0.79513
 C282 C 0.12892 1.02223 0.70734
 C283 C 0.14160 1.03179 0.68980
 C284 C 0.17534 1.02447 0.71106
 C285 C 0.16202 1.01503 0.72824
 N286 N 0.13921 1.01438 0.72621
 H287 H 0.12617 0.95610 0.76771
 H288 H 0.15060 1.02102 0.78105
 H289 H 0.17303 1.00589 0.81275
 H290 H 0.14811 0.93982 0.79888
 H291 H 0.11080 1.02121 0.70604
 H292 H 0.13324 1.03821 0.67494
 H293 H 0.19347 1.02511 0.71284
 H294 H 0.16994 1.00826 0.74312
 C295 C 0.08176 0.94433 0.71482
 C296 C 0.07910 1.05881 0.78400
 C297 C 0.16500 1.03303 0.69174
 C298 C 0.16231 0.97168 0.80799
 C299 C 0.58858 0.51882 0.27799
 H300 H 0.58755 0.50162 0.28402
 C301 C 0.57719 0.53594 0.28958
 H302 H 0.56724 0.53192 0.30448
 C303 C 0.60397 0.54540 0.25212
 H304 H 0.61501 0.54922 0.23804
 C305 C 0.59284 0.56293 0.26312
 H306 H 0.59520 0.58009 0.25727
 N307 N 0.60181 0.52385 0.25975
 C308 C 0.61521 0.46260 0.22224
 H309 H 0.63336 0.46394 0.22105
 C310 C 0.60446 0.44486 0.21199
 H311 H 0.61435 0.43246 0.20290
 C312 C 0.58017 0.47714 0.23561
 H313 H 0.57084 0.48985 0.24476
 C314 C 0.56869 0.45956 0.22557
 H315 H 0.55051 0.45865 0.22710
 Zn316 Zn 0.62020 0.50094 0.24706
 N317 N 0.60306 0.47813 0.23397
 C318 C 0.63691 0.46619 0.27559
 N319 N 0.63791 0.48853 0.27046
 C320 C 0.65068 0.50265 0.28262
 C321 C 0.66346 0.49433 0.30050
 C322 C 0.64941 0.45720 0.29331
 C323 C 0.62819 0.52091 0.20510
 C324 C 0.64064 0.53030 0.18731
 C325 C 0.67468 0.52311 0.20816
 C326 C 0.66158 0.51383 0.22560
 N327 N 0.63873 0.51321 0.22389
 H328 H 0.62625 0.45532 0.26616
 H329 H 0.65084 0.52041 0.27845
 H330 H 0.67360 0.50565 0.31009
 H331 H 0.64851 0.43940 0.29729
 H332 H 0.61004 0.51990 0.20408
 H333 H 0.63208 0.53662 0.17252
 H334 H 0.69283 0.52374 0.20968
 H335 H 0.66969 0.50717 0.24042
 C336 C 0.58102 0.44324 0.21375
 C337 C 0.57961 0.55822 0.28219
 C338 C 0.66407 0.53152 0.18892
 C339 C 0.66281 0.47138 0.30585
 C340 C 0.90995 0.47945 0.77655
 H341 H 0.91081 0.49667 0.78202
 C342 C 0.92137 0.46245 0.78841
 H343 H 0.93118 0.46658 0.80295
 C344 C 0.89498 0.45270 0.75186
 H345 H 0.88411 0.44877 0.73813
 C346 C 0.90615 0.43527 0.76316
 H347 H 0.90398 0.41809 0.75789
 N348 N 0.89692 0.47429 0.75876
 C349 C 0.88362 0.53502 0.71905
 H350 H 0.86556 0.53320 0.71784
 C351 C 0.89423 0.55314 0.70847
 H352 H 0.88433 0.56534 0.69907
 C353 C 0.91851 0.52151 0.73312
 H354 H 0.92783 0.50912 0.74278
 C355 C 0.92985 0.53951 0.72279
 H356 H 0.94790 0.54105 0.72457
 Zn357 Zn 0.87857 0.49706 0.74565
 N358 N 0.89574 0.51986 0.73135
 C359 C 0.86218 0.53217 0.77323
 N360 N 0.86080 0.50980 0.76905
 C361 C 0.84787 0.49604 0.78225
 C362 C 0.83542 0.50477 0.80033
 C363 C 0.85002 0.54156 0.79109
 C364 C 0.87095 0.47692 0.70458
 C365 C 0.85870 0.46753 0.68732
 C366 C 0.82445 0.47454 0.70873
 C367 C 0.83736 0.48383 0.72564
 N368 N 0.86021 0.48458 0.72338
 H369 H 0.87296 0.54277 0.76299
 H370 H 0.84742 0.47825 0.77883
 H371 H 0.82522 0.49372 0.81082
 H372 H 0.85131 0.55936 0.79434
 H373 H 0.88910 0.47803 0.70311
 H374 H 0.86741 0.46132 0.67249
 H375 H 0.80628 0.47385 0.71066
 H376 H 0.82910 0.49042 0.74047
 C377 C 0.91750 0.55555 0.71051
 C378 C 0.91921 0.44012 0.78177
 C379 C 0.83525 0.46624 0.68945
 C380 C 0.83655 0.52775 0.80477
 C381 C 0.27712 0.41168 -0.01961
 H382 H 0.28262 0.41272 -0.00242
 C383 C 0.28888 0.42310 -0.03676
 H384 H 0.30340 0.43308 -0.03278
 C385 C 0.25240 0.39628 -0.04612
 H386 H 0.23871 0.38524 -0.04990
 C387 C 0.26361 0.40743 -0.06369
 H388 H 0.25830 0.40510 -0.08083
 N389 N 0.25936 0.39844 -0.02458
 C390 C 0.21993 0.38519 0.03652
 H391 H 0.21906 0.36713 0.03507
 C392 C 0.20900 0.39586 0.05435
 H393 H 0.19968 0.38599 0.06671
 C394 C 0.23330 0.42009 0.02222
 H395 H 0.24276 0.42940 0.00960
 C396 C 0.22258 0.43148 0.03992
 H397 H 0.22387 0.44957 0.04099
 Zn398 Zn 0.24634 0.38017 -0.00161
 N399 N 0.23201 0.39731 0.02108
 C400 C 0.27423 0.36407 0.03343
 N401 N 0.26986 0.36259 0.01111
 C402 C 0.28292 0.34960 -0.00264
 C403 C 0.30100 0.33715 0.00605
 C404 C 0.29210 0.35192 0.04277
 C405 C 0.20507 0.37240 -0.02147
 C406 C 0.18768 0.36014 -0.03070
 C407 C 0.20907 0.32604 -0.02354
 C408 C 0.22611 0.33896 -0.01442
 N409 N 0.22392 0.36175 -0.01383
 H410 H 0.26410 0.37492 0.04401
 H411 H 0.27935 0.34906 -0.02040
 H412 H 0.31135 0.32687 -0.00499
 H413 H 0.29548 0.35326 0.06054
 H414 H 0.20366 0.39050 -0.02049
 H415 H 0.17282 0.36879 -0.03692
 H416 H 0.21094 0.30793 -0.02412
 H417 H 0.24098 0.33077 -0.00783
 C418 C 0.21044 0.41917 0.05618
 C419 C 0.28218 0.42071 -0.05903
 C420 C 0.18974 0.33676 -0.03184
 C421 C 0.30561 0.33835 0.02898
 C422 C 0.77797 0.08734 1.01946
 H423 H 0.78392 0.08635 1.00222
 C424 C 0.78953 0.07582 1.03649
 H425 H 0.80434 0.06580 1.03237
 C426 C 0.75233 0.10278 1.04620
 H427 H 0.73837 0.11390 1.05011
 C428 C 0.76331 0.09152 1.06365
 H429 H 0.75756 0.09385 1.08084
 N430 N 0.75986 0.10067 1.02460
 C431 C 0.72204 0.11464 0.96366
 H432 H 0.72108 0.13273 0.96504
 C433 C 0.71152 0.10411 0.94597
 H434 H 0.70245 0.11411 0.93365
 C435 C 0.73511 0.07953 0.97803
 H436 H 0.74425 0.07009 0.99065
 C437 C 0.72479 0.06827 0.96049
 H438 H 0.72609 0.05014 0.95953
 Zn439 Zn 0.74725 0.11922 1.00180
 N440 N 0.73375 0.10235 0.97907
 C441 C 0.77592 0.13563 0.96685
 N442 N 0.77091 0.13667 0.98922
 C443 C 0.78339 0.14926 1.00321
 C444 C 0.80148 0.16180 0.99473
 C445 C 0.79384 0.14790 0.95770
 C446 C 0.70537 0.12747 1.02200
 C447 C 0.68772 0.13997 1.03150
 C448 C 0.70904 0.17375 1.02430
 C449 C 0.72634 0.16060 1.01492
 N450 N 0.72433 0.13785 1.01423
 H451 H 0.76624 0.12511 0.95607
 H452 H 0.77931 0.14946 1.02099
 H453 H 0.81132 0.17180 1.00595
 H454 H 0.79772 0.14695 0.93989
 H455 H 0.70410 0.10939 1.02095
 H456 H 0.67279 0.13152 1.03785
 H457 H 0.71079 0.19183 1.02497
 H458 H 0.74129 0.16859 1.00821
 C459 C 0.71299 0.08075 0.94428
 C460 C 0.78226 0.07819 1.05882
 C461 C 0.68962 0.16330 1.03277
 C462 C 0.80672 0.16110 0.97175
 C463 C 0.28017 0.58995 0.51795
 H464 H 0.28600 0.58875 0.50069
 C465 C 0.29172 0.57845 0.53502
 H466 H 0.30641 0.56826 0.53091
 C467 C 0.25478 0.60577 0.54469
 H468 H 0.24090 0.61699 0.54859
 C469 C 0.26575 0.59455 0.56217
 H470 H 0.26008 0.59702 0.57936
 N471 N 0.26216 0.60342 0.52308
 C472 C 0.22389 0.61667 0.46223
 H473 H 0.22302 0.63479 0.46334
 C474 C 0.21308 0.60589 0.44488
 H475 H 0.20388 0.61572 0.43252
 C476 C 0.23692 0.58173 0.47706
 H477 H 0.24612 0.57245 0.48976
 C478 C 0.22631 0.57022 0.45987
 H479 H 0.22744 0.55206 0.45925
 Zn480 Zn 0.24931 0.62171 0.50019
 N481 N 0.23570 0.60457 0.47774
 C482 C 0.27763 0.63801 0.46490
 N483 N 0.27276 0.63922 0.48729
 C484 C 0.28520 0.65207 0.50107
 C485 C 0.30312 0.66471 0.49234
 C486 C 0.29537 0.65036 0.45551
 C487 C 0.20754 0.62975 0.52059
 C488 C 0.18987 0.64212 0.53022
 C489 C 0.21085 0.67607 0.52275
 C490 C 0.22817 0.66304 0.51324
 N491 N 0.22634 0.64027 0.51265
 H492 H 0.26798 0.62728 0.45430
 H493 H 0.28124 0.65241 0.51886
 H494 H 0.31295 0.67490 0.50340
 H495 H 0.29915 0.64926 0.43769
 H496 H 0.20642 0.61166 0.51961
 H497 H 0.17507 0.63357 0.53673
 H498 H 0.21247 0.69416 0.52339
 H499 H 0.24301 0.67113 0.50640
 C500 C 0.21435 0.58249 0.44361
 C501 C 0.28455 0.58101 0.55735
 C502 C 0.19160 0.66547 0.53143
 C503 C 0.30821 0.66383 0.46934
 C504 C 0.77870 0.91052 0.48244
 H505 H 0.78406 0.91157 0.49968
 C506 C 0.79043 0.92216 0.46541
 H507 H 0.80476 0.93234 0.46954
 C508 C 0.75440 0.89489 0.45568
 H509 H 0.74088 0.88369 0.45176
 C510 C 0.76558 0.90626 0.43823
 H511 H 0.76042 0.90393 0.42105
 N512 N 0.76115 0.89707 0.47729
 C513 C 0.72144 0.88320 0.53807
 H514 H 0.72065 0.86515 0.53645
 C515 C 0.71047 0.89365 0.55601
 H516 H 0.70119 0.88363 0.56827
 C517 C 0.73477 0.91827 0.52418
 H518 H 0.74426 0.92773 0.51170
 C519 C 0.72401 0.92944 0.54200
 H520 H 0.72531 0.94752 0.54330
 Zn521 Zn 0.74820 0.87859 0.50012
 N522 N 0.73355 0.89550 0.52280
 C523 C 0.77601 0.86270 0.53531
 N524 N 0.77184 0.86127 0.51295
 C525 C 0.78518 0.84851 0.49923
 C526 C 0.80335 0.83625 0.50800
 C527 C 0.79396 0.85074 0.54473
 C528 C 0.70720 0.87033 0.47993
 C529 C 0.69005 0.85784 0.47055
 C530 C 0.71184 0.82401 0.47783
 C531 C 0.72862 0.83716 0.48710
 N532 N 0.72613 0.85991 0.48771
 H533 H 0.76566 0.87336 0.54586
 H534 H 0.78176 0.84800 0.48144
 H535 H 0.81391 0.82615 0.49699
 H536 H 0.79718 0.85204 0.56253
 H537 H 0.70554 0.88841 0.48092
 H538 H 0.67513 0.86631 0.46423
 H539 H 0.71395 0.80593 0.47725
 H540 H 0.74355 0.82915 0.49379
 C541 C 0.71190 0.91693 0.55812
 C542 C 0.78392 0.91978 0.44308
 C543 C 0.69244 0.83449 0.46940
 C544 C 0.80775 0.83741 0.53097
 C545 C -0.01785 0.27780 0.40901
 H546 H -0.00056 0.28322 0.41003
 C547 C -0.03496 0.28950 0.42050
 H548 H -0.03084 0.30390 0.43052
 C549 C -0.04464 0.25333 0.39361
 H550 H -0.04854 0.23975 0.38256
 C551 C -0.06217 0.26448 0.40484
 H552 H -0.07941 0.25925 0.40254
 N553 N -0.02298 0.26018 0.39575
 C554 C 0.03814 0.22089 0.38245
 H555 H 0.03678 0.22018 0.36437
 C556 C 0.05588 0.20984 0.39314
 H557 H 0.06827 0.20059 0.38328
 C558 C 0.02367 0.23392 0.41735
 H559 H 0.01100 0.24327 0.42665
 C560 C 0.04126 0.22307 0.42877
 H561 H 0.04221 0.22415 0.44688
 Zn562 Zn -0.00002 0.24722 0.37744
 N563 N 0.02266 0.23285 0.39455
 C564 C 0.03524 0.27505 0.36118
 N565 N 0.01282 0.27069 0.35982
 C566 C -0.00098 0.28374 0.34689
 C567 C 0.00775 0.30179 0.33438
 C568 C 0.04463 0.29290 0.34897
 C569 C -0.02023 0.20616 0.36969
 C570 C -0.02957 0.18888 0.35742
 C571 C -0.02215 0.21027 0.32332
 C572 C -0.01293 0.22720 0.33625
 N573 N -0.01241 0.22496 0.35903
 H574 H 0.04585 0.26493 0.37198
 H575 H -0.01881 0.28018 0.34645
 H576 H -0.00333 0.31213 0.32417
 H577 H 0.06247 0.29628 0.35022
 H578 H -0.01931 0.20471 0.38779
 H579 H -0.03593 0.17406 0.36607
 H580 H -0.02266 0.21218 0.30520
 H581 H -0.00618 0.24203 0.32806
 C582 C 0.05756 0.21102 0.41648
 C583 C -0.05735 0.28290 0.41816
 C584 C -0.03062 0.19099 0.33404
 C585 C 0.03078 0.30639 0.33547
 C586 C 1.01721 0.77943 0.09048
 H587 H 0.99983 0.78498 0.08926
 C588 C 1.03416 0.79105 0.07873
 H589 H 1.02986 0.80550 0.06832
 C590 C 1.04433 0.75469 0.10656
 H591 H 1.04840 0.74103 0.11796
 C592 C 1.06172 0.76576 0.09511
 H593 H 1.07903 0.76038 0.09757
 N594 N 1.02257 0.76171 0.10418
 C595 C 0.96169 0.72304 0.11757
 H596 H 0.96258 0.72234 0.13571
 C597 C 0.94444 0.71203 0.10673
 H598 H 0.93195 0.70285 0.11654
 C599 C 0.97694 0.73580 0.08263
 H600 H 0.98977 0.74495 0.07337
 C601 C 0.95988 0.72498 0.07108
 H602 H 0.95949 0.72592 0.05290
 Zn603 Zn 0.99969 0.74876 0.12258
 N604 N 0.97734 0.73481 0.10550
 C605 C 0.96409 0.77679 0.13859
 N606 N 0.98656 0.77215 0.13981
 C607 C 1.00035 0.78480 0.15246
 C608 C 0.99153 0.80269 0.16489
 C609 C 0.95460 0.79452 0.15074
 C610 C 1.02057 0.70747 0.13119
 C611 C 1.03033 0.69011 0.14382
 C612 C 1.02235 0.71120 0.17748
 C613 C 1.01271 0.72821 0.16419
 N614 N 1.01231 0.72618 0.14144
 H615 H 0.95349 0.76697 0.12801
 H616 H 1.01822 0.78100 0.15280
 H617 H 1.00260 0.81268 0.17494
 H618 H 0.93671 0.79812 0.14965
 H619 H 1.01974 0.70618 0.11311
 H620 H 1.03709 0.67538 0.13548
 H621 H 1.02281 0.71297 0.19555
 H622 H 1.00562 0.74296 0.17208
 C623 C 0.94346 0.71306 0.08330
 C624 C 1.05665 0.78425 0.08129
 C625 C 1.03134 0.69205 0.16716
 C626 C 0.96844 0.80757 0.16401
 C627 C 0.51850 0.27945 0.58843
 H628 H 0.50114 0.28504 0.58726
 C629 C 0.53550 0.29118 0.57687
 H630 H 0.53123 0.30577 0.56664
 C631 C 0.54555 0.25446 0.60426
 H632 H 0.54958 0.24067 0.61551
 C633 C 0.56299 0.26565 0.59299
 H634 H 0.58028 0.26022 0.59542
 N635 N 0.52381 0.26155 0.60193
 C636 C 0.46277 0.22312 0.61523
 H637 H 0.46379 0.22230 0.63336
 C638 C 0.44540 0.21227 0.60444
 H639 H 0.43294 0.20309 0.61427
 C640 C 0.47786 0.23605 0.58029
 H641 H 0.49066 0.24521 0.57100
 C642 C 0.46066 0.22539 0.56877
 H643 H 0.46015 0.22645 0.55060
 Zn644 Zn 0.50090 0.24855 0.62026
 N645 N 0.47840 0.23490 0.60314
 C646 C 0.46553 0.27674 0.63641
 N647 N 0.48795 0.27187 0.63770
 C648 C 0.50181 0.28432 0.65048
 C649 C 0.49312 0.30227 0.66293
 C650 C 0.45617 0.29452 0.64858
 C651 C 0.52152 0.20706 0.62836
 C652 C 0.53103 0.18941 0.64079
 C653 C 0.52318 0.21012 0.67471
 C654 C 0.51379 0.22743 0.66163
 N655 N 0.51341 0.22571 0.63885
 H656 H 0.45487 0.26709 0.62573
 H657 H 0.51964 0.28036 0.65086
 H658 H 0.50425 0.31211 0.67304
 H659 H 0.43832 0.29832 0.64742
 H660 H 0.52070 0.20602 0.61026
 H661 H 0.53763 0.17472 0.63227
 H662 H 0.52359 0.21163 0.69282
 H663 H 0.50682 0.24214 0.66969
 C664 C 0.44426 0.21346 0.58103
 C665 C 0.55797 0.28433 0.57941
 C666 C 0.53196 0.19101 0.66416
 C667 C 0.47009 0.30739 0.66194
 C668 C 0.48085 0.77670 0.91124
 H669 H 0.49809 0.78231 0.91213
 C670 C 0.46370 0.78830 0.92279
 H671 H 0.46773 0.80278 0.93272
 C672 C 0.45419 0.75195 0.89606
 H673 H 0.45035 0.73832 0.88504
 C674 C 0.43662 0.76298 0.90734
 H675 H 0.41942 0.75760 0.90513
 N676 N 0.47580 0.75902 0.89803
 C677 C 0.53699 0.72014 0.88387
 H678 H 0.53521 0.71927 0.86585
 C679 C 0.55515 0.70943 0.89420
 H680 H 0.56743 0.70028 0.88411
 C681 C 0.52328 0.73339 0.91899
 H682 H 0.51079 0.74275 0.92850
 C683 C 0.54133 0.72290 0.93004
 H684 H 0.54279 0.72427 0.94809
 Zn685 Zn 0.49872 0.74637 0.87946
 N686 N 0.52170 0.73207 0.89624
 C687 C 0.53370 0.77452 0.86325
 N688 N 0.51130 0.77010 0.86196
 C689 C 0.49737 0.78324 0.84926
 C690 C 0.50596 0.80149 0.83693
 C691 C 0.54296 0.79256 0.85121
 C692 C 0.47882 0.70519 0.87147
 C693 C 0.46953 0.68795 0.85910
 C694 C 0.47640 0.70978 0.82517
 C695 C 0.48559 0.72666 0.83819
 N696 N 0.48636 0.72418 0.86095
 H697 H 0.54442 0.76432 0.87386
 H698 H 0.47955 0.77962 0.84887
 H699 H 0.49479 0.81191 0.82689
 H700 H 0.56079 0.79599 0.85241
 H701 H 0.47994 0.70354 0.88954
 H702 H 0.46341 0.67297 0.86765
 H703 H 0.47569 0.71188 0.80708
 H704 H 0.49210 0.74164 0.83010
 C705 C 0.55747 0.71096 0.91745
 C706 C 0.44135 0.78150 0.92056
 C707 C 0.46823 0.69030 0.83576
 C708 C 0.52898 0.80617 0.83796
 C709 C 0.44479 -0.15336 0.36168
 C710 C 0.45503 -0.14843 0.34087
 C711 C 0.46978 -0.16409 0.33103
 C712 C 0.47396 -0.18476 0.34174
 C713 C 0.46336 -0.19007 0.36243
 C714 C 0.44893 -0.17402 0.37241
 C715 C 0.44924 -0.12798 0.32897
 C716 C 0.44362 -0.11127 0.31872
 C717 C 0.43606 -0.09225 0.30642
 C718 C 0.42866 -0.07657 0.29569
 H719 H 0.43329 -0.14139 0.36942
 H720 H 0.47765 -0.16054 0.31483
 H721 H 0.48492 -0.19686 0.33349
 H722 H 0.44075 -0.17750 0.38846
 C723 C 0.93336 0.33323 0.84283
 C724 C 0.95073 0.34869 0.84010
 C725 C 0.97205 0.34360 0.84856
 C726 C 0.97601 0.32304 0.85962
 C727 C 0.95865 0.30705 0.86249
 C728 C 0.93719 0.31271 0.85385
 C729 C 0.94648 0.36953 0.82823
 C730 C 0.94192 0.38657 0.81798
 C731 C 0.93536 0.40595 0.80566
 C732 C 0.92864 0.42190 0.79488
 H733 H 0.91682 0.33690 0.83612
 H734 H 0.98561 0.35554 0.84668
 H735 H 0.99258 0.32024 0.86652
 H736 H 0.92339 0.30101 0.85450
 C737 C 0.06492 1.16570 0.84204
 C738 C 0.04748 1.15029 0.84040
 C739 C 0.02624 1.15542 0.84954
 C740 C 0.02242 1.17596 0.86020
 C741 C 0.03986 1.19188 0.86200
 C742 C 0.06123 1.18620 0.85267
 C743 C 0.05162 1.12943 0.82902
 C744 C 0.05614 1.11238 0.81915
 C745 C 0.06272 1.09298 0.80723
 C746 C 0.06951 1.07701 0.79677
 H747 H 0.08139 1.16200 0.83480
 H748 H 0.01263 1.14352 0.84849
 H749 H 0.00592 1.17879 0.86766
 H750 H 0.07506 1.19786 0.85249
 C751 C 0.52959 0.65341 0.35178
 C752 C 0.54898 0.65012 0.33848
 C753 C 0.56475 0.66732 0.33611
 C754 C 0.56122 0.68773 0.34697
 C755 C 0.54182 0.69125 0.36040
 C756 C 0.52600 0.67387 0.36267
 C757 C 0.55301 0.62919 0.32718
 C758 C 0.55737 0.61207 0.31735
 C759 C 0.56372 0.59260 0.30546
 C760 C 0.57029 0.57655 0.29499
 H761 H 0.51729 0.64018 0.35377
 H762 H 0.57979 0.66499 0.32580
 H763 H 0.57352 0.70089 0.34459
 H764 H 0.51101 0.67601 0.37307
 C765 C 0.52573 0.34779 0.15220
 C766 C 0.54479 0.35013 0.16552
 C767 C 0.55978 0.33202 0.16825
 C768 C 0.55592 0.31172 0.15759
 C769 C 0.53697 0.30921 0.14398
 C770 C 0.52180 0.32742 0.14152
 C771 C 0.54960 0.37118 0.17596
 C772 C 0.55482 0.38845 0.18474
 C773 C 0.56237 0.40816 0.19500
 C774 C 0.57013 0.42449 0.20365
 H775 H 0.51407 0.36174 0.14989
 H776 H 0.57457 0.33364 0.17853
 H777 H 0.56770 0.29791 0.16011
 H778 H 0.50717 0.32604 0.13100
 C779 C 0.06458 0.83540 0.66347
 C780 C 0.04710 0.85114 0.66568
 C781 C 0.02581 0.84635 0.65738
 C782 C 0.02203 0.82587 0.64685
 C783 C 0.03959 0.80972 0.64429
 C784 C 0.06095 0.81499 0.65296
 C785 C 0.05141 0.87218 0.67635
 C786 C 0.05629 0.88946 0.68531
 C787 C 0.06353 0.90921 0.69575
 C788 C 0.07107 0.92556 0.70455
 H789 H 0.08110 0.83885 0.67004
 H790 H 0.01217 0.85852 0.65885
 H791 H 0.00552 0.82333 0.63997
 H792 H 0.07485 0.80309 0.65258
 C793 C 0.97208 0.65568 0.65139
 C794 C 0.95243 0.65205 0.66421
 C795 C 0.93676 0.66957 0.66705
 C796 C 0.94057 0.69057 0.65703
 C797 C 0.96014 0.69437 0.64395
 C798 C 0.97595 0.67673 0.64134
 C799 C 0.94781 0.63032 0.67407
 C800 C 0.94283 0.61244 0.68241
 C801 C 0.93559 0.59198 0.69222
 C802 C 0.92810 0.57502 0.70059
 H803 H 0.98427 0.64221 0.64900
 H804 H 0.92151 0.66696 0.67696
 H805 H 0.92827 0.70390 0.65964
 H806 H 0.99107 0.67910 0.63120
 C807 C 0.46879 0.15540 0.14964
 C808 C 0.44908 0.15194 0.16240
 C809 C 0.43339 0.16948 0.16494
 C810 C 0.43727 0.19037 0.15470
 C811 C 0.45694 0.19402 0.14172
 C812 C 0.47273 0.17634 0.13938
 C813 C 0.44449 0.13036 0.17262
 C814 C 0.43959 0.11261 0.18129
 C815 C 0.43251 0.09228 0.19150
 C816 C 0.42519 0.07541 0.20021
 H817 H 0.48100 0.14190 0.14749
 H818 H 0.41810 0.16700 0.17481
 H819 H 0.42498 0.20374 0.15711
 H820 H 0.48792 0.17859 0.12932
 C821 C 0.34839 0.47336 -0.15653
 C822 C 0.33981 0.45214 -0.15122
 C823 C 0.34224 0.43479 -0.16662
 C824 C 0.35310 0.43854 -0.18729
 C825 C 0.36187 0.45989 -0.19316
 C826 C 0.35929 0.47725 -0.17724
 C827 C 0.32813 0.44797 -0.13021
 C828 C 0.31803 0.44345 -0.11303
 C829 C 0.30585 0.43690 -0.09349
 C830 C 0.29519 0.43018 -0.07739
 H831 H 0.34673 0.48691 -0.14463
 H832 H 0.33544 0.41833 -0.16278
 H833 H 0.35354 0.42475 -0.19892
 H834 H 0.36629 0.49373 -0.18021
 C835 C 0.83509 0.97238 0.33860
 C836 C 0.84195 0.95426 0.35211
 C837 C 0.85964 0.94033 0.34488
 C838 C 0.87015 0.94416 0.32402
 C839 C 0.86315 0.96208 0.30976
 C840 C 0.84558 0.97635 0.31772
 C841 C 0.83004 0.94906 0.37276
 C842 C 0.81981 0.94386 0.38968
 C843 C 0.80756 0.93671 0.40896
 C844 C 0.79688 0.92959 0.42488
 H845 H 0.82123 0.98314 0.34393
 H846 H 0.86519 0.92630 0.35528
 H847 H 0.88415 0.93325 0.31953
 H848 H 0.83885 0.98990 0.30748
 C849 C 0.84142 0.06517 1.16523
 C850 C 0.83918 0.04750 1.15029
 C851 C 0.84785 0.02626 1.15585
 C852 C 0.85866 0.02265 1.17636
 C853 C 0.86106 0.04033 1.19181
 C854 C 0.85219 0.06170 1.18569
 C855 C 0.82764 0.05141 1.12947
 C856 C 0.81766 0.05575 1.11243
 C857 C 0.80564 0.06213 1.09304
 C858 C 0.79510 0.06876 1.07705
 H859 H 0.83455 0.08166 1.16119
 H860 H 0.84634 0.01246 1.14431
 H861 H 0.86575 0.00612 1.17952
 H862 H 0.85249 0.07574 1.19700
 C863 C 0.33704 0.56404 0.66689
 C864 C 0.33984 0.54879 0.64938
 C865 C 0.35328 0.52953 0.65247
 C866 C 0.36389 0.52558 0.67303
 C867 C 0.36120 0.54089 0.69071
 C868 C 0.34761 0.56015 0.68740
 C869 C 0.32884 0.55319 0.62835
 C870 C 0.31923 0.55787 0.61117
 C871 C 0.30756 0.56457 0.59166
 C872 C 0.29724 0.57141 0.57562
 H873 H 0.32662 0.57896 0.66471
 H874 H 0.35560 0.51763 0.63901
 H875 H 0.37440 0.51071 0.67501
 H876 H 0.34491 0.57206 0.70078
 C877 C 0.14059 0.55459 0.34926
 C878 C 0.16157 0.54463 0.35369
 C879 C 0.17179 0.53058 0.33776
 C880 C 0.16127 0.52685 0.31729
 C881 C 0.14043 0.53724 0.31248
 C882 C 0.13007 0.55092 0.32881
 C883 C 0.17317 0.55011 0.37392
 C884 C 0.18285 0.55574 0.39055
 C885 C 0.19406 0.56360 0.40959
 C886 C 0.20346 0.57151 0.42540
 H887 H 0.13256 0.56555 0.36144
 H888 H 0.18810 0.52292 0.34094
 H889 H 0.16977 0.51644 0.30495
 H890 H 0.11391 0.55892 0.32569
 C891 C 0.65478 0.02510 0.84671
 C892 C 0.66339 0.04626 0.85133
 C893 C 0.66143 0.06363 0.83546
 C894 C 0.65087 0.06001 0.81507
 C895 C 0.64190 0.03878 0.80997
 C896 C 0.64419 0.02134 0.82626
 C897 C 0.67415 0.05054 0.87233
 C898 C 0.68319 0.05539 0.88957
 C899 C 0.69373 0.06259 0.90926
 C900 C 0.70262 0.07010 0.92557
 H901 H 0.65605 0.01154 0.85899
 H902 H 0.66824 0.08005 0.83878
 H903 H 0.65069 0.07382 0.80307
 H904 H 0.63707 0.00492 0.82384
 C905 C 0.65018 0.97105 0.65676
 C906 C 0.66309 0.95150 0.65346
 C907 C 0.66560 0.93592 0.67109
 C908 C 0.65518 0.93973 0.69190
 C909 C 0.64204 0.95923 0.69540
 C910 C 0.63974 0.97493 0.67763
 C911 C 0.67345 0.94693 0.63195
 C912 C 0.68224 0.94200 0.61427
 C913 C 0.69260 0.93484 0.59406
 C914 C 0.70144 0.92743 0.57732
 H915 H 0.64805 0.98318 0.64319
 H916 H 0.67557 0.92074 0.66873
 H917 H 0.65756 0.92751 0.70534
 H918 H 0.62956 0.98999 0.67975
 C919 C 0.13867 0.44654 0.15507
 C920 C 0.15968 0.45585 0.14978
 C921 C 0.17048 0.46906 0.16553
 C922 C 0.16046 0.47265 0.18663
 C923 C 0.13956 0.46296 0.19226
 C924 C 0.12865 0.45008 0.17614
 C925 C 0.17070 0.45060 0.12876
 C926 C 0.17994 0.44521 0.11144
 C927 C 0.19070 0.43763 0.09160
 C928 C 0.19979 0.42994 0.07512
 H929 H 0.13019 0.43623 0.14303
 H930 H 0.18683 0.47619 0.16168
 H931 H 0.16938 0.48244 0.19876
 H932 H 0.11240 0.44267 0.17987
 C933 C -0.15276 0.35287 0.46957
 C934 C -0.14951 0.34008 0.45020
 C935 C -0.16691 0.33842 0.43475
 C936 C -0.18747 0.34947 0.43855
 C937 C -0.19095 0.36242 0.45791
 C938 C -0.17338 0.36397 0.47343
 C939 C -0.12845 0.32855 0.44589
 C940 C -0.11125 0.31854 0.44125
 C941 C -0.09172 0.30645 0.43457
 C942 C -0.07566 0.29584 0.42774
 H943 H -0.13938 0.35430 0.48163
 H944 H -0.16462 0.32849 0.41975
 H945 H -0.20077 0.34762 0.42649
 H946 H -0.17549 0.37396 0.48839
 C947 C 0.33404 0.84208 0.93438
 C948 C 0.34917 0.83906 0.95192
 C949 C 0.34363 0.84714 0.97324
 C950 C 0.32295 0.85812 0.97704
 C951 C 0.30730 0.86130 0.95950
 C952 C 0.31340 0.85302 0.93805
 C953 C 0.37016 0.82731 0.94780
 C954 C 0.38732 0.81719 0.94331
 C955 C 0.40686 0.80503 0.93679
 C956 C 0.42297 0.79441 0.93006
 H957 H 0.33806 0.83566 0.91783
 H958 H 0.35531 0.84503 0.98694
 H959 H 0.31980 0.86473 0.99363
 H960 H 0.30197 0.85393 0.92409
 C961 C 1.16077 0.83491 0.02809
 C962 C 1.14709 0.84148 0.04619
 C963 C 1.15405 0.85871 0.06006
 C964 C 1.17480 0.86905 0.05620
 C965 C 1.18923 0.86232 0.03831
 C966 C 1.18155 0.84523 0.02409
 C967 C 1.12656 0.82972 0.05145
 C968 C 1.10975 0.81963 0.05674
 C969 C 1.09058 0.80756 0.06405
 C970 C 1.07476 0.79704 0.07131
 H971 H 1.15565 0.82139 0.01736
 H972 H 1.14350 0.86405 0.07407
 H973 H 1.17906 0.88272 0.06707
 H974 H 1.19195 0.83873 0.01055
 C975 C 0.66433 0.33222 0.52977
 C976 C 0.64840 0.34176 0.54448
 C977 C 0.65308 0.36206 0.55495
 C978 C 0.67375 0.37259 0.55103
 C979 C 0.69005 0.36291 0.53661
 C980 C 0.68501 0.34273 0.52581
 C981 C 0.62789 0.33006 0.54994
 C982 C 0.61109 0.31996 0.55528
 C983 C 0.59194 0.30783 0.56251
 C984 C 0.57611 0.29723 0.56964
 H985 H 0.66097 0.31642 0.52172
 H986 H 0.64090 0.36956 0.56642
 H987 H 0.67703 0.38824 0.55936
 H988 H 0.69731 0.33472 0.51485
 C989 C 0.33857 0.17036 0.52850
 C990 C 0.35431 0.16040 0.54292
 C991 C 0.34964 0.13965 0.55323
 C992 C 0.32911 0.12913 0.54956
 C993 C 0.31294 0.13926 0.53553
 C994 C 0.31802 0.15984 0.52476
 C995 C 0.37457 0.17206 0.54845
 C996 C 0.39121 0.18178 0.55413
 C997 C 0.41025 0.19305 0.56207
 C998 C 0.42606 0.20250 0.57003
 H999 H 0.34193 0.18651 0.52057
 H1000 H 0.36168 0.13181 0.56448
 H1001 H 0.32580 0.11316 0.55784
 H1002 H 0.30580 0.16817 0.51408
 C1003 C 0.84089 0.66670 0.02664
 C1004 C 0.85403 0.65950 0.04470
 C1005 C 0.84687 0.64151 0.05821
 C1006 C 0.82642 0.63106 0.05411
 C1007 C 0.81247 0.63845 0.03633
 C1008 C 0.82040 0.65625 0.02239
 C1009 C 0.87421 0.67125 0.05031
 C1010 C 0.89076 0.68106 0.05610
 C1011 C 0.90968 0.69242 0.06417
 C1012 C 0.92538 0.70196 0.07223
 H1013 H 0.84618 0.68078 0.01617
 H1014 H 0.85702 0.63566 0.07216
 H1015 H 0.82197 0.61683 0.06472
 H1016 H 0.81036 0.66320 0.00891
 C1017 C 0.67112 0.66550 0.93526
 C1018 C 0.65362 0.66302 0.95110
 C1019 C 0.65714 0.65020 0.97066
 C1020 C 0.67808 0.63980 0.97430
 C1021 C 0.69571 0.64206 0.95834
 C1022 C 0.69201 0.65512 0.93883
 C1023 C 0.63200 0.67327 0.94675
 C1024 C 0.61419 0.68193 0.94201
 C1025 C 0.59380 0.69210 0.93505
 C1026 C 0.57689 0.70075 0.92780
 H1027 H 0.66859 0.67540 0.92006
 H1028 H 0.64367 0.64808 0.98299
 H1029 H 0.68036 0.62967 0.98937
 H1030 H 0.70534 0.65745 0.92641
 C1031 C 0.16634 0.16974 0.46684
 C1032 C 0.15033 0.15910 0.45378
 C1033 C 0.15521 0.13796 0.44479
 C1034 C 0.17614 0.12767 0.44849
 C1035 C 0.19252 0.13842 0.46122
 C1036 C 0.18729 0.15946 0.47059
 C1037 C 0.12949 0.17038 0.44834
 C1038 C 0.11233 0.17984 0.44281
 C1039 C 0.09267 0.19085 0.43509
 C1040 C 0.07635 0.20014 0.42731
 H1041 H 0.16281 0.18619 0.47373
 H1042 H 0.14297 0.12959 0.43460
 H1043 H 0.17956 0.11133 0.44133
 H1044 H 0.19964 0.16825 0.48026
 C1045 C 0.56958 0.08478 0.72191
 C1046 C 0.57989 0.10581 0.72134
 C1047 C 0.60047 0.10867 0.73204
 C1048 C 0.61072 0.09058 0.74329
 C1049 C 0.60048 0.06936 0.74397
 C1050 C 0.57979 0.06666 0.73314
 C1051 C 0.56942 0.12439 0.70961
 C1052 C 0.56069 0.13985 0.69962
 C1053 C 0.55054 0.15783 0.68766
 C1054 C 0.54199 0.17304 0.67714
 H1055 H 0.55362 0.08239 0.71371
 H1056 H 0.60864 0.12487 0.73162
 H1057 H 0.62677 0.09310 0.75125
 H1058 H 0.57136 0.05061 0.73362
 C1059 C 1.08203 0.60700 0.24747
 C1060 C 1.08088 0.60764 0.22406
 C1061 C 1.09007 0.58997 0.21160
 C1062 C 1.10021 0.57160 0.22246
 C1063 C 1.10140 0.57044 0.24619
 C1064 C 1.09219 0.58868 0.25845
 C1065 C 1.07011 0.62628 0.21272
 C1066 C 1.06108 0.64167 0.20288
 C1067 C 1.05057 0.65945 0.19093
 C1068 C 1.04171 0.67442 0.18033
 H1069 H 1.07480 0.62055 0.25730
 H1070 H 1.08947 0.59041 0.19341
 H1071 H 1.10776 0.55880 0.21198
 H1072 H 1.09176 0.58857 0.27662
 C1073 C 0.90837 0.90932 0.20813
 C1074 C 0.92220 0.89402 0.21970
 C1075 C 0.92605 0.89688 0.24261
 C1076 C 0.91615 0.91499 0.25392
 C1077 C 0.90225 0.93050 0.24243
 C1078 C 0.89846 0.92745 0.21941
 C1079 C 0.93244 0.87541 0.20804
 C1080 C 0.94095 0.85985 0.19818
 C1081 C 0.95075 0.84164 0.18649
 C1082 C 0.95895 0.82611 0.17635
 H1083 H 0.90522 0.90723 0.19041
 H1084 H 0.93677 0.88516 0.25171
 H1085 H 0.91961 0.91705 0.27158
 H1086 H 0.88763 0.93895 0.21018
 C1087 C 0.40320 0.39098 0.72884
 C1088 C 0.42369 0.39398 0.71729
 C1089 C 0.43392 0.41505 0.71698
 C1090 C 0.42372 0.43307 0.72821
 C1091 C 0.40314 0.43020 0.73992
 C1092 C 0.39298 0.40895 0.74009
 C1093 C 0.43414 0.37545 0.70568
 C1094 C 0.44274 0.35989 0.69589
 C1095 C 0.45258 0.34164 0.68430
 C1096 C 0.46072 0.32603 0.67423
 H1097 H 0.39509 0.37475 0.72911
 H1098 H 0.44981 0.41755 0.70812
 H1099 H 0.43210 0.44914 0.72801
 H1100 H 0.37700 0.40630 0.74872
 C1101 C 0.43242 0.58532 0.77929
 C1102 C 0.42190 0.60648 0.77922
 C1103 C 0.40147 0.60966 0.76811
 C1104 C 0.39160 0.59176 0.75708
 C1105 C 0.40205 0.57041 0.75706
 C1106 C 0.42258 0.56739 0.76829
 C1107 C 0.43197 0.62484 0.79075
 C1108 C 0.44039 0.64009 0.80060
 C1109 C 0.45019 0.65779 0.81242
 C1110 C 0.45848 0.67272 0.82285
 H1111 H 0.44826 0.58267 0.78782
 H1112 H 0.39313 0.62596 0.76804
 H1113 H 0.37565 0.59454 0.74882
 H1114 H 0.43118 0.55124 0.76831
 C1115 C -0.09798 0.11017 0.26728
 C1116 C -0.07748 0.10698 0.27827
 C1117 C -0.06710 0.08574 0.27851
 C1118 C -0.07717 0.06775 0.26783
 C1119 C -0.09778 0.07078 0.25675
 C1120 C -0.10807 0.09220 0.25657
 C1121 C -0.06724 0.12538 0.28956
 C1122 C -0.05870 0.14067 0.29925
 C1123 C -0.04879 0.15841 0.31092
 C1124 C -0.04043 0.17337 0.32124
 H1125 H -0.10620 0.12652 0.26707
 H1126 H -0.05122 0.08309 0.28695
 H1127 H -0.06870 0.05154 0.26800
 H1128 H -0.12407 0.09498 0.24841
 C1129 C 0.09848 0.39047 0.26937
 C1130 C 0.07821 0.39366 0.28130
 C1131 C 0.06850 0.41515 0.28251
 C1132 C 0.07898 0.43339 0.27181
 C1133 C 0.09935 0.43036 0.25973
 C1134 C 0.10899 0.40869 0.25864
 C1135 C 0.06749 0.37492 0.29246
 C1136 C 0.05864 0.35924 0.30195
 C1137 C 0.04854 0.34086 0.31328
 C1138 C 0.04022 0.32516 0.32322
 H1139 H 0.10620 0.37392 0.26841
 H1140 H 0.05280 0.41780 0.29168
 H1141 H 0.07099 0.44981 0.27270
 H1142 H 0.12479 0.40587 0.24970
 C1143 C 0.56743 0.91481 0.78449
 C1144 C 0.57719 0.89329 0.78426
 C1145 C 0.59790 0.88979 0.77322
 C1146 C 0.60878 0.90770 0.76235
 C1147 C 0.59907 0.92939 0.76241
 C1148 C 0.57829 0.93275 0.77365
 C1149 C 0.56605 0.87480 0.79543
 C1150 C 0.55696 0.85921 0.80486
 C1151 C 0.54669 0.84085 0.81607
 C1152 C 0.53834 0.82508 0.82588
 H1153 H 0.55139 0.91769 0.79298
 H1154 H 0.60566 0.87322 0.77303
 H1155 H 0.62489 0.90464 0.75409
 H1156 H 0.57025 0.94918 0.77373
 C1157 C 0.70997 0.58883 0.08584
 C1158 C 0.72190 0.57937 0.10374
 C1159 C 0.74541 0.58007 0.10356
 C1160 C 0.75702 0.59015 0.08552
 C1161 C 0.74531 0.59977 0.06713
 C1162 C 0.72147 0.59889 0.06774
 C1163 C 0.70997 0.56891 0.12226
 C1164 C 0.69981 0.56018 0.13769
 C1165 C 0.68769 0.55004 0.15564
 C1166 C 0.67709 0.54151 0.17087
 H1167 H 0.69171 0.58855 0.08592
 H1168 H 0.75483 0.57262 0.11728
 H1169 H 0.77524 0.58941 0.08578
 H1170 H 0.71140 0.60669 0.05474
 C1171 C 0.21116 1.09474 0.59159
 C1172 C 0.22300 1.08113 0.60684
 C1173 C 0.24617 1.07747 0.60369
 C1174 C 0.25744 1.08725 0.58527
 C1175 C 0.24564 1.10080 0.56974
 C1176 C 0.22238 1.10451 0.57316
 C1177 C 0.21126 1.07070 0.62550
 C1178 C 0.20115 1.06195 0.64094
 C1179 C 0.18896 1.05175 0.65882
 C1180 C 0.17823 1.04314 0.67392
 H1181 H 0.19323 1.09772 0.59390
 H1182 H 0.25548 1.06691 0.61536
 H1183 H 0.27529 1.08386 0.58294
 H1184 H 0.21290 1.11509 0.56166
 C1185 C 0.21848 0.93487 0.91491
 C1186 C 0.21874 0.92502 0.89370
 C1187 C 0.23024 0.90463 0.89042
 C1188 C 0.24140 0.89411 0.90828
 C1189 C 0.24120 0.90385 0.92968
 C1190 C 0.22962 0.92437 0.93279
 C1191 C 0.20700 0.93565 0.87536
 C1192 C 0.19703 0.94436 0.85998
 C1193 C 0.18518 0.95426 0.84193
 C1194 C 0.17487 0.96240 0.82648
 H1195 H 0.20965 0.95067 0.91762
 H1196 H 0.23047 0.89681 0.87410
 H1197 H 0.24993 0.87820 0.90544
 H1198 H 0.22941 0.93242 0.94900
 C1199 C 0.71953 0.43609 0.41293
 C1200 C 0.71986 0.42602 0.39183
 C1201 C 0.73151 0.40569 0.38875
 C1202 C 0.74277 0.39544 0.40670
 C1203 C 0.74250 0.40539 0.42800
 C1204 C 0.73077 0.42586 0.43091
 C1205 C 0.70799 0.43636 0.37341
 C1206 C 0.69792 0.44482 0.35796
 C1207 C 0.68594 0.45443 0.33985
 C1208 C 0.67552 0.46234 0.32436
 H1209 H 0.71058 0.45184 0.41550
 H1210 H 0.73178 0.39770 0.37250
 H1211 H 0.75140 0.37955 0.40400
 H1212 H 0.73050 0.43407 0.44703
 C1213 C 0.79130 0.40673 0.58990
 C1214 C 0.77921 0.41989 0.60533
 C1215 C 0.75606 0.42351 0.60260
 C1216 C 0.74505 0.41411 0.58445
 C1217 C 0.75708 0.40096 0.56876
 C1218 C 0.78033 0.39732 0.57173
 C1219 C 0.79063 0.42987 0.62379
 C1220 C 0.80039 0.43827 0.63911
 C1221 C 0.81212 0.44809 0.65686
 C1222 C 0.82245 0.45642 0.67183
 H1223 H 0.80922 0.40378 0.59188
 H1224 H 0.74656 0.43374 0.61440
 H1225 H 0.72721 0.41745 0.58246
 H1226 H 0.78999 0.38705 0.56010
 C1227 C 0.25510 -0.07689 0.10330
 C1228 C 0.27817 -0.08082 0.10620
 C1229 C 0.29015 -0.09435 0.09100
 C1230 C 0.27913 -0.10385 0.07292
 C1231 C 0.25594 -0.09994 0.06981
 C1232 C 0.24404 -0.08638 0.08524
 C1233 C 0.28962 -0.07081 0.12463
 C1234 C 0.29936 -0.06238 0.13994
 C1235 C 0.31100 -0.05251 0.15770
 C1236 C 0.32125 -0.04412 0.17270
 H1237 H 0.24569 -0.06638 0.11492
 H1238 H 0.30802 -0.09753 0.09312
 H1239 H 0.28868 -0.11442 0.06148
 H1240 H 0.22625 -0.08283 0.08313
 C1241 C 0.26904 0.09577 0.38918
 C1242 C 0.28069 0.07546 0.39259
 C1243 C 0.28181 0.06597 0.41420
 C1244 C 0.27129 0.07672 0.43233
 C1245 C 0.25949 0.09713 0.42908
 C1246 C 0.25849 0.10655 0.40729
 C1247 C 0.29169 0.06449 0.37395
 C1248 C 0.30105 0.05551 0.35831
 C1249 C 0.31226 0.04532 0.33995
 C1250 C 0.32214 0.03700 0.32424
 H1251 H 0.26816 0.10332 0.37254
 H1252 H 0.29078 0.05024 0.41702
 H1253 H 0.27210 0.06891 0.44885
 H1254 H 0.24978 0.12237 0.40430
 C1255 C 0.77249 0.59725 0.88813
 C1256 C 0.78331 0.57650 0.89164
 C1257 C 0.78360 0.56683 0.91321
 C1258 C 0.77305 0.57781 0.93119
 C1259 C 0.76205 0.59864 0.92783
 C1260 C 0.76192 0.60825 0.90609
 C1261 C 0.79426 0.56527 0.87314
 C1262 C 0.80356 0.55608 0.85757
 C1263 C 0.81467 0.54569 0.83927
 C1264 C 0.82445 0.53723 0.82358
 H1265 H 0.77226 0.60494 0.87153
 H1266 H 0.79192 0.55077 0.91611
 H1267 H 0.77318 0.56984 0.94766
 H1268 H 0.75383 0.62439 0.90302
 C1269 C 0.10970 0.73259 0.60141
 C1270 C 0.10663 0.72203 0.58085
 C1271 C 0.08540 0.72252 0.57092
 C1272 C 0.06730 0.73352 0.58149
 C1273 C 0.07021 0.74420 0.60217
 C1274 C 0.09162 0.74362 0.61201
 C1275 C 0.12517 0.71049 0.57003
 C1276 C 0.14059 0.70063 0.56100
 C1277 C 0.15851 0.68880 0.55052
 C1278 C 0.17368 0.67837 0.54171
 H1279 H 0.12604 0.73222 0.60929
 H1280 H 0.08285 0.71442 0.55498
 H1281 H 0.05110 0.73394 0.57335
 H1282 H 0.09430 0.75146 0.62804
 C1283 C 0.58344 0.22154 1.07037
 C1284 C 0.60445 0.22083 1.08073
 C1285 C 0.60721 0.23137 1.10136
 C1286 C 0.58903 0.24258 1.11160
 C1287 C 0.56782 0.24335 1.10132
 C1288 C 0.56524 0.23272 1.08058
 C1289 C 0.62307 0.20906 1.07030
 C1290 C 0.63854 0.19900 1.06157
 C1291 C 0.65649 0.18694 1.05141
 C1292 C 0.67168 0.17635 1.04283
 H1293 H 0.58113 0.21345 1.05438
 H1294 H 0.62338 0.23084 1.10957
 H1295 H 0.59146 0.25038 1.12769
 H1296 H 0.54922 0.23329 1.07211
 C1297 C 0.89604 0.24029 0.92908
 C1298 C 0.89345 0.21726 0.92564
 C1299 C 0.90881 0.20572 0.91181
 C1300 C 0.92669 0.21716 0.90141
 C1301 C 0.92939 0.24033 0.90470
 C1302 C 0.91389 0.25176 0.91869
 C1303 C 0.87492 0.20549 0.93611
 C1304 C 0.85935 0.19556 0.94470
 C1305 C 0.84108 0.18379 0.95449
 C1306 C 0.82543 0.17356 0.96255
 H1307 H 0.88427 0.24937 0.93979
 H1308 H 0.90692 0.18790 0.90897
 H1309 H 0.93821 0.20796 0.89055
 H1310 H 0.91573 0.26952 0.92181
 C1311 C 0.39760 0.74281 0.42616
 C1312 C 0.39481 0.71980 0.42274
 C1313 C 0.41024 0.70807 0.40914
 C1314 C 0.42844 0.71926 0.39906
 C1315 C 0.43143 0.74238 0.40245
 C1316 C 0.41578 0.75404 0.41608
 C1317 C 0.37615 0.70820 0.43316
 C1318 C 0.36056 0.69834 0.44179
 C1319 C 0.34233 0.68659 0.45169
 C1320 C 0.32677 0.67634 0.45991
 H1321 H 0.38578 0.75204 0.43669
 H1322 H 0.40819 0.69027 0.40632
 H1323 H 0.44003 0.70989 0.38843
 H1324 H 0.41780 0.77178 0.41924
 C1325 C 0.58740 0.77821 0.43292
 C1326 C 0.60872 0.77800 0.42255
 C1327 C 0.61197 0.76700 0.40211
 C1328 C 0.59395 0.75627 0.39205
 C1329 C 0.57242 0.75646 0.40232
 C1330 C 0.56936 0.76752 0.42289
 C1331 C 0.62715 0.78937 0.43273
 C1332 C 0.64242 0.79917 0.44125
 C1333 C 0.66008 0.81100 0.45118
 C1334 C 0.67495 0.82148 0.45956
 H1335 H 0.58470 0.78666 0.44876
 H1336 H 0.62839 0.76682 0.39388
 H1337 H 0.59677 0.74813 0.37609
 H1338 H 0.55307 0.76769 0.43136
 C1339 C 0.09036 0.29233 -0.09186
 C1340 C 0.10561 0.28048 -0.07830
 C1341 C 0.10293 0.25740 -0.07456
 C1342 C 0.08507 0.24618 -0.08435
 C1343 C 0.06965 0.25794 -0.09802
 C1344 C 0.07248 0.28116 -0.10165
 C1345 C 0.12395 0.29204 -0.06816
 C1346 C 0.13923 0.30187 -0.05969
 C1347 C 0.15700 0.31362 -0.04985
 C1348 C 0.17202 0.32396 -0.04156
 H1349 H 0.09231 0.31021 -0.09489
 H1350 H 0.11459 0.24808 -0.06403
 H1351 H 0.08313 0.22838 -0.08097
 H1352 H 0.06101 0.29060 -0.11227
 C1353 C 0.40656 0.29560 0.09067
 C1354 C 0.39202 0.28366 0.07704
 C1355 C 0.39525 0.26054 0.07432
 C1356 C 0.41292 0.24936 0.08519
 C1357 C 0.42761 0.26119 0.09897
 C1358 C 0.42426 0.28446 0.10155
 C1359 C 0.37364 0.29510 0.06605
 C1360 C 0.35817 0.30473 0.05703
 C1361 C 0.33997 0.31615 0.04679
 C1362 C 0.32434 0.32611 0.03842
 H1363 H 0.40416 0.31350 0.09296
 H1364 H 0.38412 0.25114 0.06377
 H1365 H 0.41527 0.23151 0.08260
 H1366 H 0.43514 0.29397 0.11223
 C1367 C 0.89778 0.76037 0.57675
 C1368 C 0.89444 0.78350 0.57937
 C1369 C 0.90894 0.79558 0.59292
 C1370 C 0.92672 0.78458 0.60382
 C1371 C 0.93019 0.76131 0.60132
 C1372 C 0.91553 0.74934 0.58764
 C1373 C 0.87601 0.79479 0.56833
 C1374 C 0.86050 0.80429 0.55926
 C1375 C 0.84224 0.81554 0.54895
 C1376 C 0.82656 0.82536 0.54050
 H1377 H 0.88669 0.75087 0.56627
 H1378 H 0.90645 0.81348 0.59512
 H1379 H 0.93757 0.79420 0.61442
 H1380 H 0.91797 0.73149 0.58512
   
