data_POSCAR
  _audit_creation_date              2014-09-24
  _audit_creation_method            'ToBaCCo'
  _symmetry_space_group_name_H-M    'P1'
  _symmetry_Int_Tables_number       1
  _symmetry_cell_setting            triclinic
  loop_
  _symmetry_equiv_pos_as_xyz
 x,y,z
_cell_length_a 32.9068
_cell_length_b 51.1702
_cell_length_c 40.7881
_cell_angle_alpha 90.062100
_cell_angle_beta 89.981900
_cell_angle_gamma 90.090600
loop_
  _atom_site_label
  _atom_site_type_symbol
  _atom_site_fract_x
  _atom_site_fract_y
  _atom_site_fract_z
B1 B -0.02041 -0.02397 0.01637
 B2 B 0.02902 -0.01917 0.02474
 B3 B 0.01484 -0.02871 -0.01297
 B4 B -0.02967 -0.01405 -0.02235
 B5 B -0.04280 0.00504 0.01017
 B6 B -0.00613 0.00178 0.03957
 B7 B 0.02936 0.02302 -0.01469
 B8 B -0.02003 0.01826 -0.02310
 B9 B -0.00595 0.02778 0.01464
 B10 B 0.03858 0.01315 0.02402
 B11 B 0.05172 -0.00596 -0.00852
 B12 B 0.01506 -0.00273 -0.03788
 B13 B 0.51451 0.48629 0.53383
 B14 B 0.46580 0.48650 0.52150
 B15 B 0.48848 0.51461 0.53242
 B16 B 0.53743 0.51365 0.51993
 B17 B 0.54480 0.48447 0.50073
 B18 B 0.50005 0.46754 0.50181
 B19 B 0.48755 0.51203 0.46640
 B20 B 0.53625 0.51186 0.47870
 B21 B 0.51360 0.48373 0.46781
 B22 B 0.46466 0.48469 0.48028
 B23 B 0.45728 0.51387 0.49947
 B24 B 0.50201 0.53080 0.49841
 B25 B 0.52667 0.02349 0.51511
 B26 B 0.47738 0.01898 0.52416
 B27 B 0.49085 0.02866 0.48636
 B28 B 0.53493 0.01379 0.47615
 B29 B 0.54846 -0.00561 0.50823
 B30 B 0.51248 -0.00231 0.53818
 B31 B 0.47551 -0.02299 0.48420
 B32 B 0.52478 -0.01845 0.47515
 B33 B 0.51137 -0.02816 0.51297
 B34 B 0.46724 -0.01330 0.52317
 B35 B 0.45372 0.00612 0.49108
 B36 B 0.48971 0.00285 0.46116
 B37 B -0.01663 0.51101 0.03558
 B38 B 0.03215 0.51083 0.02349
 B39 B 0.00926 0.48264 0.03371
 B40 B -0.03958 0.48387 0.02104
 B41 B -0.04662 0.51328 0.00241
 B42 B -0.00181 0.53008 0.00401
 B43 B 0.01073 0.48597 -0.03225
 B44 B -0.03806 0.48615 -0.02014
 B45 B -0.01517 0.51433 -0.03038
 B46 B 0.03368 0.51311 -0.01769
 B47 B 0.04073 0.48370 0.00094
 B48 B -0.00410 0.46688 -0.00069
 B49 B 0.02525 0.47707 0.48532
 B50 B -0.02396 0.48146 0.47597
 B51 B -0.01091 0.47140 0.51369
 B52 B 0.03294 0.48636 0.52450
 B53 B 0.04674 0.50619 0.49288
 B54 B 0.01116 0.50307 0.46261
 B55 B -0.02664 0.52294 0.51667
 B56 B 0.02256 0.51853 0.52600
 B57 B 0.00954 0.52860 0.48829
 B58 B -0.03434 0.51366 0.47748
 B59 B -0.04814 0.49381 0.50910
 B60 B -0.01255 0.49692 0.53936
 B61 B 0.48425 -0.01247 -0.03312
 B62 B 0.53282 -0.01261 -0.02049
 B63 B 0.51093 0.01564 -0.03163
 B64 B 0.46186 0.01512 -0.01947
 B65 B 0.45360 -0.01392 -0.00024
 B66 B 0.49792 -0.03123 -0.00094
 B67 B 0.51118 0.01333 0.03438
 B68 B 0.46261 0.01347 0.02175
 B69 B 0.48443 -0.01477 0.03291
 B70 B 0.53352 -0.01428 0.02075
 B71 B 0.54180 0.01477 0.00148
 B72 B 0.49747 0.03207 0.00221
 B73 B 0.47212 0.52357 -0.01609
 B74 B 0.52123 0.51915 -0.02569
 B75 B 0.50839 0.52843 0.01243
 B76 B 0.46435 0.51346 0.02274
 B77 B 0.45026 0.49440 -0.00960
 B78 B 0.48583 0.49801 -0.03979
 B79 B 0.52345 0.47677 0.01340
 B80 B 0.47431 0.48119 0.02300
 B81 B 0.48719 0.47191 -0.01511
 B82 B 0.53120 0.48690 -0.02543
 B83 B 0.54530 0.50594 0.00691
 B84 B 0.50973 0.50232 0.03712
 B85 B 0.01348 0.01275 0.46832
 B86 B -0.03582 0.01565 0.47820
 B87 B -0.01682 -0.01380 0.46834
 B88 B 0.03086 -0.01601 0.48335
 B89 B 0.04122 0.01268 0.50280
 B90 B -0.00038 0.03242 0.49967
 B91 B -0.02273 -0.01075 0.53433
 B92 B 0.02662 -0.01409 0.52429
 B93 B 0.00797 0.01552 0.53424
 B94 B -0.03987 0.01773 0.51936
 B95 B -0.05028 -0.01077 0.49948
 B96 B -0.00903 -0.03062 0.50302
 B97 B 0.76519 0.27526 0.26033
 B98 B 0.71565 0.26836 0.26477
 B99 B 0.73448 0.27389 0.22718
 B100 B 0.78174 0.26150 0.22522
 B101 B 0.79208 0.24750 0.26216
 B102 B 0.75070 0.25179 0.28698
 B103 B 0.72710 0.22191 0.23478
 B104 B 0.77671 0.22903 0.23004
 B105 B 0.75796 0.22322 0.26765
 B106 B 0.71046 0.23584 0.26995
 B107 B 0.70023 0.24968 0.23288
 B108 B 0.74154 0.24531 0.20807
 B109 B 0.74561 0.77992 0.77360
 B110 B 0.72793 0.77437 0.73555
 B111 B 0.77758 0.78092 0.74140
 B112 B 0.79271 0.76673 0.77679
 B113 B 0.75152 0.75121 0.79289
 B114 B 0.71106 0.75602 0.76728
 B115 B 0.76905 0.72903 0.73330
 B116 B 0.78682 0.73427 0.77130
 B117 B 0.73725 0.72795 0.76583
 B118 B 0.72222 0.74195 0.73049
 B119 B 0.76337 0.75772 0.71425
 B120 B 0.80376 0.75285 0.73985
 B121 B 0.25980 0.22728 0.73324
 B122 B 0.21008 0.23386 0.72943
 B123 B 0.22969 0.22845 0.76678
 B124 B 0.27684 0.24112 0.76813
 B125 B 0.28637 0.25521 0.73109
 B126 B 0.24456 0.25067 0.70678
 B127 B 0.22169 0.28039 0.75933
 B128 B 0.27143 0.27356 0.76344
 B129 B 0.25195 0.27931 0.72606
 B130 B 0.20449 0.26639 0.72433
 B131 B 0.19510 0.25246 0.76153
 B132 B 0.23683 0.25704 0.78580
 B133 B 0.23878 0.77167 0.23674
 B134 B 0.28760 0.76399 0.22946
 B135 B 0.27207 0.77035 0.26800
 B136 B 0.22477 0.75845 0.27280
 B137 B 0.21105 0.74390 0.23688
 B138 B 0.25006 0.74771 0.20968
 B139 B 0.27737 0.71815 0.26094
 B140 B 0.22852 0.72579 0.26827
 B141 B 0.24398 0.71934 0.22979
 B142 B 0.29143 0.73153 0.22462
 B143 B 0.30504 0.74560 0.26086
 B144 B 0.26579 0.74204 0.28795
 B145 B 0.26901 0.72843 0.76778
 B146 B 0.28812 0.73363 0.73020
 B147 B 0.23850 0.72691 0.73453
 B148 B 0.22183 0.74095 0.76937
 B149 B 0.26199 0.75713 0.78651
 B150 B 0.30346 0.75250 0.76195
 B151 B 0.24608 0.77889 0.72665
 B152 B 0.22705 0.77334 0.76425
 B153 B 0.27672 0.78032 0.75965
 B154 B 0.29355 0.76613 0.72468
 B155 B 0.25331 0.75014 0.70765
 B156 B 0.21180 0.75472 0.73225
 B157 B 0.22540 0.21991 0.26331
 B158 B 0.27506 0.22723 0.26704
 B159 B 0.25528 0.22107 0.22983
 B160 B 0.20761 0.23353 0.22834
 B161 B 0.19832 0.24761 0.26546
 B162 B 0.24037 0.24359 0.28950
 B163 B 0.26235 0.27319 0.23656
 B164 B 0.21272 0.26612 0.23309
 B165 B 0.23253 0.27199 0.27028
 B166 B 0.27995 0.25976 0.27147
 B167 B 0.28938 0.24548 0.23447
 B168 B 0.24726 0.24949 0.21041
 B169 B 0.77497 0.71987 0.23894
 B170 B 0.72540 0.72679 0.23373
 B171 B 0.74367 0.72112 0.27155
 B172 B 0.79110 0.73398 0.27421
 B173 B 0.80178 0.74774 0.23717
 B174 B 0.76083 0.74316 0.21202
 B175 B 0.73626 0.77313 0.26391
 B176 B 0.78577 0.76649 0.26885
 B177 B 0.76752 0.77181 0.23104
 B178 B 0.72032 0.75924 0.22873
 B179 B 0.70950 0.74525 0.26564
 B180 B 0.75051 0.74979 0.29079
 B181 B 0.73494 0.22659 0.73200
 B182 B 0.71560 0.23240 0.76935
 B183 B 0.76535 0.22605 0.76538
 B184 B 0.78193 0.23952 0.73015
 B185 B 0.74155 0.25498 0.71242
 B186 B 0.70006 0.25047 0.73700
 B187 B 0.75676 0.27811 0.77168
 B188 B 0.77608 0.27200 0.73430
 B189 B 0.72625 0.27858 0.73856
 B190 B 0.70954 0.26493 0.77387
 B191 B 0.74998 0.24970 0.79148
 B192 B 0.79154 0.25417 0.76689
 C193 C 0.03100 0.43172 0.90279
 C194 C 0.06272 0.44241 0.88440
 C195 C 0.07513 0.46820 0.89026
 C196 C 0.05687 0.48285 0.91533
 C197 C 0.02612 0.47179 0.93500
 C198 C 0.01304 0.44614 0.92790
 C199 C 0.08482 0.42568 0.86225
 C200 C 0.10309 0.41017 0.84554
 C201 C 0.12418 0.39062 0.82793
 C202 C 0.14194 0.37303 0.81441
 C203 C 0.16293 0.35116 0.79994
 C204 C 0.15389 0.34295 0.76803
 C205 C 0.17270 0.32074 0.75496
 C206 C 0.20124 0.30651 0.77347
 C207 C 0.20954 0.31483 0.80575
 C208 C 0.19082 0.33704 0.81870
 H209 H 0.02130 0.41174 0.89869
 H210 H 0.09994 0.47663 0.87635
 H211 H 0.06824 0.50230 0.92022
 H212 H -0.01008 0.43666 0.94256
 H213 H 0.13174 0.35343 0.75346
 H214 H 0.16398 0.31445 0.73068
 H215 H 0.23047 0.30416 0.82120
 H216 H 0.19766 0.34295 0.84362
 C217 C 0.46781 0.56657 0.40189
 C218 C 0.43698 0.55567 0.38272
 C219 C 0.42485 0.52978 0.38810
 C220 C 0.44255 0.51519 0.41341
 C221 C 0.47247 0.52640 0.43377
 C222 C 0.48522 0.55220 0.42724
 C223 C 0.41527 0.57230 0.36032
 C224 C 0.39716 0.58776 0.34352
 C225 C 0.37611 0.60733 0.32604
 C226 C 0.35825 0.62500 0.31288
 C227 C 0.33703 0.64702 0.29917
 C228 C 0.34416 0.65499 0.26688
 C229 C 0.32508 0.67735 0.25455
 C230 C 0.29816 0.69193 0.27423
 C231 C 0.29190 0.68387 0.30688
 C232 C 0.31085 0.66153 0.31908
 H233 H 0.47723 0.58665 0.39818
 H234 H 0.40066 0.52121 0.37362
 H235 H 0.43140 0.49563 0.41788
 H236 H 0.50770 0.56179 0.44244
 H237 H 0.36504 0.64421 0.25142
 H238 H 0.33235 0.68346 0.22991
 H239 H 0.27240 0.69485 0.32321
 H240 H 0.30557 0.65581 0.34430
 C241 C 0.96076 0.96201 0.62329
 C242 C 0.92455 0.94791 0.61930
 C243 C 0.90352 0.94931 0.58968
 C244 C 0.91935 0.96349 0.56356
 C245 C 0.95683 0.97671 0.56640
 C246 C 0.97657 0.97663 0.59709
 C247 C 0.90993 0.92988 0.64372
 C248 C 0.89566 0.91332 0.66133
 C249 C 0.87718 0.89271 0.67890
 C250 C 0.86035 0.87439 0.69166
 C251 C 0.83940 0.85192 0.70461
 C252 C 0.81261 0.83803 0.68445
 C253 C 0.79302 0.81567 0.69614
 C254 C 0.79932 0.80700 0.72851
 C255 C 0.82692 0.82092 0.74839
 C256 C 0.84659 0.84329 0.73659
 H257 H 0.97741 0.96102 0.64615
 H258 H 0.87546 0.93851 0.58628
 H259 H 0.90257 0.96309 0.54078
 H260 H 1.00529 0.98660 0.60037
 H261 H 0.80713 0.84433 0.65949
 H262 H 0.77288 0.80524 0.67971
 H263 H 0.83414 0.81436 0.77284
 H264 H 0.86778 0.85363 0.75227
 C265 C 0.57622 0.03206 0.11106
 C266 C 0.56445 0.05805 0.11611
 C267 C 0.53266 0.06855 0.09771
 C268 C 0.51409 0.05373 0.07324
 C269 C 0.52664 0.02788 0.06684
 C270 C 0.55734 0.01702 0.08666
 C271 C 0.58741 0.07516 0.13723
 C272 C 0.60639 0.09095 0.15301
 C273 C 0.62821 0.11079 0.16952
 C274 C 0.64645 0.12859 0.18220
 C275 C 0.66773 0.15066 0.19594
 C276 C 0.69555 0.16452 0.17669
 C277 C 0.71448 0.18691 0.18906
 C278 C 0.70646 0.19565 0.22120
 C279 C 0.67793 0.18171 0.24014
 C280 C 0.65895 0.15932 0.22768
 H281 H 0.60107 0.02379 0.12500
 H282 H 0.52346 0.08869 0.10119
 H283 H 0.49107 0.06308 0.05841
 H284 H 0.56832 -0.00259 0.08229
 H285 H 0.70214 0.15826 0.15187
 H286 H 0.73532 0.19740 0.17329
 H287 H 0.66931 0.18833 0.26430
 H288 H 0.63684 0.14907 0.24259
 C289 C 0.87812 0.06318 0.45069
 C290 C 0.88037 0.06150 0.41656
 C291 C 0.90751 0.04404 0.40192
 C292 C 0.93313 0.02880 0.42134
 C293 C 0.93221 0.03095 0.45578
 C294 C 0.90374 0.04803 0.47017
 C295 C 0.85772 0.07950 0.39673
 C296 C 0.84042 0.09558 0.38040
 C297 C 0.82236 0.11541 0.36149
 C298 C 0.80897 0.13310 0.34536
 C299 C 0.79560 0.15489 0.32605
 C300 C 0.82426 0.16919 0.30826
 C301 C 0.81226 0.19085 0.29005
 C302 C 0.77111 0.19836 0.28874
 C303 C 0.74266 0.18422 0.30750
 C304 C 0.75480 0.16250 0.32584
 H305 H 0.85741 0.07681 0.46227
 H306 H 0.90978 0.04279 0.37546
 H307 H 0.95472 0.01616 0.40920
 H308 H 0.90180 0.05036 0.49649
 H309 H 0.85605 0.16370 0.30866
 H310 H 0.83539 0.20160 0.27682
 H311 H 0.71117 0.19008 0.30855
 H312 H 0.73249 0.15185 0.34009
 C313 C 0.40286 0.45905 0.59518
 C314 C 0.37527 0.44253 0.57930
 C315 C 0.37400 0.44188 0.54506
 C316 C 0.40130 0.45687 0.52674
 C317 C 0.43056 0.47270 0.54242
 C318 C 0.43017 0.47408 0.57693
 C319 C 0.35157 0.42419 0.59801
 C320 C 0.33372 0.40785 0.61368
 C321 C 0.31531 0.38773 0.63211
 C322 C 0.30185 0.36988 0.64802
 C323 C 0.28866 0.34792 0.66731
 C324 C 0.24790 0.34010 0.66779
 C325 C 0.23602 0.31832 0.68625
 C326 C 0.26470 0.30431 0.70487
 C327 C 0.30577 0.31205 0.70333
 C328 C 0.31751 0.33375 0.68500
 H329 H 0.40438 0.45953 0.62170
 H330 H 0.35294 0.42903 0.53249
 H331 H 0.40031 0.45516 0.50031
 H332 H 0.45223 0.48575 0.59006
 H333 H 0.22540 0.35065 0.65367
 H334 H 0.20455 0.31231 0.68543
 H335 H 0.32909 0.30144 0.71644
 H336 H 0.34926 0.33940 0.68446
 C337 C 0.62319 0.94163 0.95620
 C338 C 0.62231 0.94245 0.92196
 C339 C 0.59552 0.95939 0.90605
 C340 C 0.56859 0.97470 0.92425
 C341 C 0.56780 0.97321 0.95875
 C342 C 0.59627 0.95692 0.97448
 C343 C 0.64557 0.92395 0.90317
 C344 C 0.66304 0.90758 0.88729
 C345 C 0.68111 0.88756 0.86851
 C346 C 0.69449 0.86986 0.85228
 C347 C 0.70791 0.84816 0.83263
 C348 C 0.67968 0.83478 0.81329
 C349 C 0.69171 0.81323 0.79475
 C350 C 0.73251 0.80490 0.79468
 C351 C 0.76050 0.81816 0.81489
 C352 C 0.74833 0.83976 0.83353
 H353 H 0.64363 0.92844 0.96878
 H354 H 0.59429 0.96000 0.87952
 H355 H 0.54708 0.98667 0.91105
 H356 H 0.59689 0.95510 1.00090
 H357 H 0.64816 0.84087 0.81276
 H358 H 0.66885 0.80314 0.78046
 H359 H 0.79162 0.81166 0.81687
 H360 H 0.77031 0.84969 0.84892
 C361 C 0.09281 0.53785 0.09853
 C362 C 0.11957 0.55534 0.08345
 C363 C 0.12160 0.55651 0.04926
 C364 C 0.09559 0.54116 0.03018
 C365 C 0.06691 0.52446 0.04507
 C366 C 0.06680 0.52248 0.07954
 C367 C 0.14141 0.57409 0.10296
 C368 C 0.15777 0.59070 0.11924
 C369 C 0.17491 0.61098 0.13816
 C370 C 0.18806 0.62887 0.15421
 C371 C 0.20226 0.65072 0.17322
 C372 C 0.24303 0.65836 0.17190
 C373 C 0.25633 0.68008 0.18974
 C374 C 0.22915 0.69429 0.20960
 C375 C 0.18796 0.68673 0.21001
 C376 C 0.17475 0.66501 0.19221
 H377 H 0.09073 0.53695 0.12502
 H378 H 0.14207 0.57011 0.03733
 H379 H 0.09688 0.54336 0.00382
 H380 H 0.04504 0.51022 0.09211
 H381 H 0.26444 0.64772 0.15677
 H382 H 0.28775 0.68590 0.18737
 H383 H 0.16579 0.69753 0.22417
 H384 H 0.14297 0.65949 0.19305
 C385 C 0.48548 0.93367 0.10335
 C386 C 0.44395 0.92847 0.10705
 C387 C 0.41556 0.94375 0.09036
 C388 C 0.42848 0.96314 0.06870
 C389 C 0.47022 0.96778 0.06342
 C390 C 0.49856 0.95324 0.08176
 C391 C 0.43012 0.90597 0.12518
 C392 C 0.41691 0.88684 0.13882
 C393 C 0.39971 0.86438 0.15349
 C394 C 0.38364 0.84539 0.16536
 C395 C 0.36279 0.82320 0.17920
 C396 C 0.32726 0.81384 0.16444
 C397 C 0.30473 0.79396 0.17935
 C398 C 0.31693 0.78346 0.20972
 C399 C 0.35419 0.79179 0.22314
 C400 C 0.37672 0.81169 0.20817
 H401 H 0.50779 0.92187 0.11604
 H402 H 0.38333 0.93986 0.09290
 H403 H 0.40561 0.97358 0.05489
 H404 H 0.53088 0.95587 0.07817
 H405 H 0.31630 0.82244 0.14185
 H406 H 0.27667 0.78780 0.16783
 H407 H 0.36570 0.78341 0.24553
 H408 H 0.40451 0.81848 0.21961
 C409 C 0.50978 0.43132 0.39830
 C410 C 0.55108 0.42583 0.39398
 C411 C 0.58022 0.44114 0.40995
 C412 C 0.56824 0.46089 0.43149
 C413 C 0.52675 0.46588 0.43734
 C414 C 0.49766 0.45122 0.41978
 C415 C 0.56402 0.40337 0.37537
 C416 C 0.57680 0.38453 0.36086
 C417 C 0.59420 0.36289 0.34453
 C418 C 0.61135 0.34524 0.33061
 C419 C 0.63478 0.32573 0.31353
 C420 C 0.66495 0.33405 0.29190
 C421 C 0.68994 0.31594 0.27641
 C422 C 0.68541 0.28889 0.28202
 C423 C 0.65453 0.28062 0.30363
 C424 C 0.62943 0.29895 0.31934
 H425 H 0.48692 0.41955 0.38612
 H426 H 0.61230 0.43706 0.40686
 H427 H 0.59165 0.47138 0.44474
 H428 H 0.46550 0.45402 0.42388
 H429 H 0.66968 0.35470 0.28738
 H430 H 0.71335 0.32347 0.26045
 H431 H 0.65002 0.26007 0.30876
 H432 H 0.60628 0.29227 0.33627
 C433 C 0.91872 0.55811 0.91294
 C434 C 0.94801 0.57363 0.89751
 C435 C 0.98926 0.56785 0.90160
 C436 C 1.00116 0.54746 0.92239
 C437 C 0.97192 0.53262 0.93952
 C438 C 0.93048 0.53788 0.93379
 C439 C 0.93527 0.59656 0.87971
 C440 C 0.92265 0.61575 0.86587
 C441 C 0.90545 0.63779 0.85025
 C442 C 0.88854 0.65577 0.83684
 C443 C 0.86543 0.67567 0.82019
 C444 C 0.83513 0.66783 0.79839
 C445 C 0.81076 0.68631 0.78299
 C446 C 0.81602 0.71328 0.78886
 C447 C 0.84693 0.72107 0.81073
 C448 C 0.87143 0.70236 0.82634
 H449 H 0.88669 0.56238 0.91000
 H450 H 1.01225 0.57975 0.88981
 H451 H 1.03329 0.54440 0.92637
 H452 H 0.90695 0.52725 0.94670
 H453 H 0.82991 0.64726 0.79356
 H454 H 0.78738 0.67912 0.76675
 H455 H 0.85202 0.74154 0.81605
 H456 H 0.89470 0.70870 0.84337
 C457 C 0.07265 0.05957 0.59184
 C458 C 0.04281 0.07297 0.60944
 C459 C 0.00214 0.06511 0.60685
 C460 C -0.00876 0.04494 0.58520
 C461 C 0.02087 0.03258 0.56559
 C462 C 0.06186 0.03968 0.57012
 C463 C 0.05439 0.09603 0.62759
 C464 C 0.06687 0.11539 0.64128
 C465 C 0.08462 0.13761 0.65627
 C466 C 0.10246 0.15567 0.66886
 C467 C 0.12710 0.17553 0.68429
 C468 C 0.12100 0.20226 0.67851
 C469 C 0.14702 0.22088 0.69281
 C470 C 0.17957 0.21298 0.71294
 C471 C 0.18494 0.18598 0.71840
 C472 C 0.15908 0.16759 0.70432
 H473 H 0.10423 0.06545 0.59357
 H474 H -0.02131 0.07529 0.62042
 H475 H -0.04063 0.04013 0.58251
 H476 H 0.08565 0.03129 0.55532
 H477 H 0.09644 0.20868 0.66280
 H478 H 0.14173 0.24138 0.68790
 H479 H 0.20940 0.17870 0.73345
 H480 H 0.16441 0.14701 0.70883
 C481 C 0.10356 0.42077 0.47098
 C482 C 0.10343 0.41889 0.43675
 C483 C 0.07792 0.43492 0.41832
 C484 C 0.05284 0.45294 0.43384
 C485 C 0.05246 0.45515 0.46828
 C486 C 0.07830 0.43888 0.48669
 C487 C 0.12871 0.40047 0.41980
 C488 C 0.14799 0.38537 0.40342
 C489 C 0.16782 0.36785 0.38219
 C490 C 0.18211 0.35273 0.36277
 C491 C 0.19568 0.33425 0.33867
 C492 C 0.16668 0.32125 0.31972
 C493 C 0.17862 0.30226 0.29727
 C494 C 0.22001 0.29611 0.29299
 C495 C 0.24908 0.30962 0.31192
 C496 C 0.23695 0.32865 0.33456
 H497 H 0.12329 0.40840 0.48546
 H498 H 0.07750 0.43356 0.39180
 H499 H 0.03374 0.46514 0.41864
 H500 H 0.07960 0.44036 0.51309
 H501 H 0.13462 0.32543 0.32277
 H502 H 0.15516 0.29211 0.28369
 H503 H 0.28103 0.30498 0.31017
 H504 H 0.25963 0.33855 0.34930
 C505 C 0.39515 0.58088 0.97141
 C506 C 0.39531 0.58328 0.93723
 C507 C 0.42037 0.56729 0.91832
 C508 C 0.44496 0.54877 0.93327
 C509 C 0.44532 0.54599 0.96764
 C510 C 0.41996 0.56224 0.98657
 C511 C 0.37048 0.60211 0.92070
 C512 C 0.35168 0.61738 0.90427
 C513 C 0.33248 0.63481 0.88266
 C514 C 0.31865 0.64966 0.86277
 C515 C 0.30535 0.66759 0.83802
 C516 C 0.33440 0.67966 0.81818
 C517 C 0.32260 0.69813 0.79504
 C518 C 0.28132 0.70464 0.79100
 C519 C 0.25223 0.69201 0.81083
 C520 C 0.26420 0.67353 0.83412
 H521 H 0.37575 0.59322 0.98625
 H522 H 0.42079 0.56907 0.89184
 H523 H 0.46373 0.53665 0.91767
 H524 H 0.41873 0.56035 1.01293
 H525 H 0.36638 0.67520 0.82106
 H526 H 0.34607 0.70766 0.78079
 H527 H 0.22039 0.69699 0.80935
 H528 H 0.24150 0.66433 0.84953
 C529 C 0.57845 0.06630 0.58190
 C530 C 0.60503 0.08172 0.56355
 C531 C 0.60589 0.07942 0.52937
 C532 C 0.58040 0.06140 0.51365
 C533 C 0.55364 0.04565 0.53200
 C534 C 0.55317 0.04837 0.56638
 C535 C 0.63084 0.09981 0.58060
 C536 C 0.65048 0.11457 0.59722
 C537 C 0.67062 0.13163 0.61888
 C538 C 0.68505 0.14635 0.63873
 C539 C 0.69867 0.16438 0.66336
 C540 C 0.73981 0.17069 0.66679
 C541 C 0.75185 0.18957 0.68968
 C542 C 0.72283 0.20224 0.70952
 C543 C 0.68161 0.19529 0.70599
 C544 C 0.66976 0.17643 0.68331
 H545 H 0.57747 0.06800 0.60838
 H546 H 0.62646 0.09132 0.51496
 H547 H 0.58232 0.05952 0.48730
 H548 H 0.53337 0.03656 0.58154
 H549 H 0.76240 0.16154 0.65126
 H550 H 0.78362 0.19486 0.69079
 H551 H 0.65815 0.20484 0.72021
 H552 H 0.63780 0.17172 0.68077
 C553 C 0.93000 0.93211 0.08312
 C554 C 0.90281 0.91698 0.06492
 C555 C 0.90093 0.91982 0.03084
 C556 C 0.92596 0.93806 0.01508
 C557 C 0.95330 0.95354 0.03327
 C558 C 0.95484 0.95028 0.06755
 C559 C 0.87715 0.89877 0.08194
 C560 C 0.85738 0.88387 0.09827
 C561 C 0.83675 0.86659 0.11936
 C562 C 0.82166 0.85168 0.13866
 C563 C 0.80706 0.83345 0.16269
 C564 C 0.76568 0.82759 0.16554
 C565 C 0.75264 0.80877 0.18812
 C566 C 0.78087 0.79573 0.20826
 C567 C 0.82237 0.80212 0.20519
 C568 C 0.83522 0.82091 0.18281
 H569 H 0.93174 0.93003 0.10953
 H570 H 0.87986 0.90819 0.01653
 H571 H 0.92317 0.94036 -0.01116
 H572 H 0.97507 0.96190 0.08259
 H573 H 0.74365 0.83712 0.14988
 H574 H 0.72068 0.80390 0.18890
 H575 H 0.84526 0.79232 0.21970
 H576 H 0.86736 0.82526 0.18073
 C577 C 0.94406 0.07994 0.92812
 C578 C 0.91685 0.06921 0.90551
 C579 C 0.90877 0.04236 0.90610
 C580 C 0.92815 0.02629 0.92903
 C581 C 0.95594 0.03685 0.95182
 C582 C 0.96339 0.06398 0.95101
 C583 C 0.89707 0.08605 0.88216
 C584 C 0.88079 0.10103 0.86352
 C585 C 0.86168 0.11961 0.84309
 C586 C 0.84500 0.13634 0.82723
 C587 C 0.82432 0.15734 0.81068
 C588 C 0.83324 0.16385 0.77811
 C589 C 0.81421 0.18534 0.76330
 C590 C 0.78591 0.20050 0.78088
 C591 C 0.77747 0.19363 0.81367
 C592 C 0.79625 0.17222 0.82826
 H593 H 0.95050 0.10072 0.92799
 H594 H 0.88762 0.03382 0.88877
 H595 H 0.92152 0.00558 0.92860
 H596 H 0.98458 0.07304 0.96778
 H597 H 0.85533 0.15263 0.76435
 H598 H 0.82241 0.19033 0.73842
 H599 H 0.75631 0.20481 0.82835
 H600 H 0.78930 0.16752 0.85355
 C601 C 0.09265 0.54213 0.59780
 C602 C 0.08418 0.56889 0.59899
 C603 C 0.05662 0.57969 0.57678
 C604 C 0.03749 0.56389 0.55355
 C605 C 0.04554 0.53687 0.55201
 C606 C 0.07347 0.52622 0.57454
 C607 C 0.10437 0.58564 0.62222
 C608 C 0.12116 0.60061 0.64061
 C609 C 0.14093 0.61922 0.66059
 C610 C 0.15818 0.63603 0.67594
 C611 C 0.17939 0.65715 0.69182
 C612 C 0.20794 0.67136 0.67384
 C613 C 0.22689 0.69308 0.68765
 C614 C 0.21816 0.70090 0.72006
 C615 C 0.18941 0.68638 0.73805
 C616 C 0.17021 0.66460 0.72402
 H617 H 0.11411 0.53357 0.61481
 H618 H 0.04995 0.60042 0.57736
 H619 H 0.01630 0.57301 0.53690
 H620 H 0.08056 0.50558 0.57440
 H621 H 0.21502 0.66594 0.64879
 H622 H 0.24829 0.70382 0.67265
 H623 H 0.18086 0.69215 0.76258
 H624 H 0.14769 0.65392 0.73803
 C625 C 0.55883 0.92006 0.42509
 C626 C 0.58544 0.93087 0.40208
 C627 C 0.59371 0.95768 0.40279
 C628 C 0.57511 0.97367 0.42627
 C629 C 0.54796 0.96304 0.44948
 C630 C 0.54028 0.93594 0.44853
 C631 C 0.60464 0.91412 0.37831
 C632 C 0.62062 0.89919 0.35942
 C633 C 0.63956 0.88062 0.33888
 C634 C 0.65628 0.86381 0.32315
 C635 C 0.67715 0.84266 0.30710
 C636 C 0.66876 0.83574 0.27455
 C637 C 0.68790 0.81401 0.26036
 C638 C 0.71576 0.79901 0.27857
 C639 C 0.72365 0.80630 0.31132
 C640 C 0.70479 0.82795 0.32526
 H641 H 0.55230 0.89930 0.42487
 H642 H 0.61443 0.96626 0.38517
 H643 H 0.58186 0.99436 0.42592
 H644 H 0.51953 0.92686 0.46563
 H645 H 0.64697 0.84683 0.26036
 H646 H 0.68010 0.80868 0.23551
 H647 H 0.74441 0.79525 0.32648
 H648 H 0.71130 0.83296 0.35055
 C649 C 0.43960 0.41916 0.07179
 C650 C 0.41295 0.42974 0.09493
 C651 C 0.40503 0.45659 0.09479
 C652 C 0.42395 0.47281 0.07175
 C653 C 0.45111 0.46241 0.04839
 C654 C 0.45849 0.43529 0.04878
 C655 C 0.39343 0.41280 0.11834
 C656 C 0.37718 0.39786 0.13711
 C657 C 0.35797 0.37945 0.15776
 C658 C 0.34114 0.36291 0.17386
 C659 C 0.32029 0.34214 0.19078
 C660 C 0.29122 0.32759 0.17377
 C661 C 0.27254 0.30620 0.18860
 C662 C 0.28208 0.29905 0.22108
 C663 C 0.31126 0.31395 0.23814
 C664 C 0.33018 0.33539 0.22309
 H665 H 0.44591 0.39838 0.07158
 H666 H 0.38430 0.46500 0.11252
 H667 H 0.41739 0.49351 0.07253
 H668 H 0.47924 0.42637 0.03155
 H669 H 0.28352 0.33245 0.14868
 H670 H 0.25078 0.29516 0.17428
 H671 H 0.32037 0.30871 0.26272
 H672 H 0.35306 0.34635 0.23638
 C673 C 0.51012 0.58816 0.07189
 C674 C 0.55024 0.59683 0.06850
 C675 C 0.57516 0.58584 0.04443
 C676 C 0.56081 0.56537 0.02496
 C677 C 0.52102 0.55563 0.02899
 C678 C 0.49559 0.56771 0.05231
 C679 C 0.56738 0.61500 0.09166
 C680 C 0.58329 0.62934 0.11132
 C681 C 0.60345 0.64547 0.13426
 C682 C 0.62173 0.65903 0.15343
 C683 C 0.64463 0.67537 0.17548
 C684 C 0.64043 0.70249 0.17395
 C685 C 0.66499 0.71860 0.19322
 C686 C 0.69449 0.70790 0.21441
 C687 C 0.69739 0.68047 0.21651
 C688 C 0.67278 0.66437 0.19712
 H689 H 0.49066 0.59638 0.09067
 H690 H 0.60638 0.59225 0.04174
 H691 H 0.58175 0.55635 0.00791
 H692 H 0.46525 0.56047 0.05694
 H693 H 0.61875 0.71124 0.15726
 H694 H 0.66125 0.73950 0.19072
 H695 H 0.71940 0.67131 0.23244
 H696 H 0.67636 0.64336 0.19849
 C697 C 0.08067 0.91417 0.95355
 C698 C 0.05458 0.90271 0.93064
 C699 C 0.01415 0.91094 0.92866
 C700 C 0.00040 0.93145 0.94843
 C701 C 0.02697 0.94405 0.97050
 C702 C 0.06711 0.93471 0.97320
 C703 C 0.07075 0.88457 0.90707
 C704 C 0.08595 0.87031 0.88702
 C705 C 0.10541 0.85432 0.86363
 C706 C 0.12324 0.84087 0.84413
 C707 C 0.14579 0.82463 0.82182
 C708 C 0.17422 0.83568 0.80041
 C709 C 0.19889 0.81962 0.78109
 C710 C 0.19578 0.79220 0.78309
 C711 C 0.16584 0.78146 0.80391
 C712 C 0.14122 0.79753 0.82310
 H713 H 0.11214 0.90808 0.95513
 H714 H -0.00622 0.90234 0.91078
 H715 H -0.03032 0.93834 0.94489
 H716 H 0.08883 0.94409 0.98930
 H717 H 0.17807 0.85669 0.79925
 H718 H 0.22120 0.82880 0.76539
 H719 H 0.16187 0.76056 0.80627
 H720 H 0.11931 0.78876 0.83962
 C721 C 0.42501 0.08644 0.45467
 C722 C 0.45062 0.09786 0.43139
 C723 C 0.49084 0.08933 0.42854
 C724 C 0.50480 0.06860 0.44782
 C725 C 0.47868 0.05608 0.47028
 C726 C 0.43879 0.06569 0.47382
 C727 C 0.43410 0.11631 0.40837
 C728 C 0.41859 0.13081 0.38877
 C729 C 0.39874 0.14703 0.36585
 C730 C 0.38054 0.16056 0.34665
 C731 C 0.35750 0.17668 0.32454
 C732 C 0.32911 0.16539 0.30328
 C733 C 0.30408 0.18122 0.28401
 C734 C 0.30680 0.20868 0.28585
 C735 C 0.33663 0.21968 0.30658
 C736 C 0.36161 0.20382 0.32574
 H737 H 0.39371 0.09274 0.45693
 H738 H 0.51084 0.09788 0.41037
 H739 H 0.53530 0.06152 0.44361
 H740 H 0.41737 0.05638 0.49024
 H741 H 0.32557 0.14435 0.30218
 H742 H 0.28179 0.17182 0.26850
 H743 H 0.34021 0.24062 0.30886
 H744 H 0.38347 0.21280 0.34215
 C745 C 0.98863 0.41057 0.57110
 C746 C 0.94858 0.40181 0.56772
 C747 C 0.92335 0.41304 0.54408
 C748 C 0.93731 0.43389 0.52512
 C749 C 0.97699 0.44378 0.52927
 C750 C 1.00277 0.43140 0.55205
 C751 C 0.93179 0.38342 0.59071
 C752 C 0.91626 0.36899 0.61042
 C753 C 0.89661 0.35286 0.63357
 C754 C 0.87873 0.33936 0.65301
 C755 C 0.85625 0.32317 0.67545
 C756 C 0.82758 0.33426 0.69661
 C757 C 0.80324 0.31826 0.71629
 C758 C 0.80693 0.29084 0.71496
 C759 C 0.83703 0.28008 0.69432
 C760 C 0.86133 0.29610 0.67475
 H761 H 1.00833 0.40217 0.58956
 H762 H 0.89216 0.40655 0.54143
 H763 H 0.91615 0.44310 0.50845
 H764 H 1.03305 0.43871 0.55676
 H765 H 0.82334 0.35524 0.69733
 H766 H 0.78075 0.32746 0.73177
 H767 H 0.84139 0.25918 0.69244
 H768 H 0.88343 0.28729 0.65845
 C769 C 0.91899 0.52913 0.11295
 C770 C 0.93165 0.55488 0.11873
 C771 C 0.96350 0.56541 0.10036
 C772 C 0.98133 0.55088 0.07531
 C773 C 0.96804 0.52527 0.06829
 C774 C 0.93717 0.51436 0.08796
 C775 C 0.90963 0.57184 0.14063
 C776 C 0.89158 0.58768 0.15699
 C777 C 0.87090 0.60771 0.17401
 C778 C 0.85356 0.62576 0.18691
 C779 C 0.83312 0.64817 0.20052
 C780 C 0.84147 0.65659 0.23246
 C781 C 0.82303 0.67920 0.24477
 C782 C 0.79554 0.69360 0.22545
 C783 C 0.78809 0.68512 0.19311
 C784 C 0.80642 0.66252 0.18092
 H785 H 0.89404 0.52085 0.12683
 H786 H 0.97336 0.58537 0.10438
 H787 H 1.00451 0.56028 0.06063
 H788 H 0.92563 0.49494 0.08310
 H789 H 0.86273 0.64594 0.24766
 H790 H 0.83115 0.68560 0.26913
 H791 H 0.76799 0.69590 0.17708
 H792 H 0.80017 0.65643 0.15597
 C793 C 0.57912 0.46738 0.61064
 C794 C 0.56657 0.44155 0.61593
 C795 C 0.53457 0.43122 0.59753
 C796 C 0.51650 0.44604 0.57289
 C797 C 0.52977 0.47172 0.56630
 C798 C 0.56075 0.48242 0.58605
 C799 C 0.58881 0.42443 0.63744
 C800 C 0.60716 0.40863 0.65361
 C801 C 0.62828 0.38880 0.67062
 C802 C 0.64601 0.37104 0.68374
 C803 C 0.66687 0.34903 0.69794
 C804 C 0.69428 0.33468 0.67891
 C805 C 0.71307 0.31250 0.69180
 C806 C 0.70534 0.30445 0.72426
 C807 C 0.67718 0.31886 0.74298
 C808 C 0.65831 0.34104 0.72999
 H809 H 0.60414 0.47553 0.62457
 H810 H 0.52476 0.41121 0.60119
 H811 H 0.49323 0.43682 0.55811
 H812 H 0.57227 0.50190 0.58153
 H813 H 0.70074 0.34044 0.65389
 H814 H 0.73372 0.30169 0.67622
 H815 H 0.66886 0.31278 0.76741
 H816 H 0.63655 0.35169 0.74476
 C817 C 0.08446 0.02893 0.39382
 C818 C 0.07367 0.05491 0.38732
 C819 C 0.04182 0.06640 0.40467
 C820 C 0.02180 0.05255 0.42919
 C821 C 0.03268 0.02658 0.43666
 C822 C 0.06401 0.01480 0.41832
 C823 C 0.09693 0.07111 0.36534
 C824 C 0.11527 0.08669 0.34876
 C825 C 0.13556 0.10670 0.33135
 C826 C 0.15212 0.12488 0.31804
 C827 C 0.17125 0.14755 0.30380
 C828 C 0.16162 0.15551 0.27194
 C829 C 0.17863 0.17839 0.25904
 C830 C 0.20596 0.19354 0.27767
 C831 C 0.21465 0.18555 0.30998
 C832 C 0.19773 0.16269 0.32277
 H833 H 0.10943 0.01990 0.38077
 H834 H 0.03343 0.08655 0.40014
 H835 H -0.00137 0.06271 0.44300
 H836 H 0.07391 -0.00487 0.42374
 H837 H 0.14045 0.14427 0.25724
 H838 H 0.16960 0.18436 0.23474
 H839 H 0.23473 0.19689 0.32550
 H840 H 0.20492 0.15699 0.34768
 C841 C 0.42163 0.96953 0.88853
 C842 C 0.43372 0.94364 0.88319
 C843 C 0.46450 0.93283 0.90241
 C844 C 0.48189 0.94728 0.92775
 C845 C 0.46920 0.97308 0.93423
 C846 C 0.43933 0.98421 0.91383
 C847 C 0.41209 0.92692 0.86074
 C848 C 0.39415 0.91135 0.84388
 C849 C 0.37339 0.89166 0.82626
 C850 C 0.35584 0.87388 0.81291
 C851 C 0.33506 0.85176 0.79886
 C852 C 0.30762 0.83757 0.81805
 C853 C 0.28910 0.81512 0.80555
 C854 C 0.29712 0.80662 0.77331
 C855 C 0.32525 0.82090 0.75438
 C856 C 0.34388 0.84336 0.76700
 H857 H 0.39749 0.97803 0.87400
 H858 H 0.47388 0.91274 0.89874
 H859 H 0.50430 0.93774 0.94301
 H860 H 0.42822 1.00377 0.91827
 H861 H 0.30100 0.84364 0.84294
 H862 H 0.26850 0.80442 0.82131
 H863 H 0.33377 0.81448 0.73011
 H864 H 0.36571 0.85389 0.75212
 C865 C 0.12654 0.96077 0.56594
 C866 C 0.11302 0.93773 0.58085
 C867 C 0.07238 0.93023 0.57787
 C868 C 0.04526 0.94562 0.56025
 C869 C 0.05791 0.96930 0.54585
 C870 C 0.09924 0.97634 0.54828
 C871 C 0.14029 0.92095 0.59854
 C872 C 0.16045 0.90551 0.61374
 C873 C 0.18073 0.88611 0.63195
 C874 C 0.19512 0.86862 0.64791
 C875 C 0.20871 0.84694 0.66741
 C876 C 0.18011 0.83290 0.68558
 C877 C 0.19205 0.81136 0.70406
 C878 C 0.23312 0.80369 0.70528
 C879 C 0.26156 0.81756 0.68618
 C880 C 0.24946 0.83918 0.66755
 H881 H 0.15818 0.96649 0.56753
 H882 H 0.06170 0.91219 0.58882
 H883 H 0.01440 0.93862 0.55764
 H884 H 0.11091 0.99341 0.53586
 H885 H 0.14835 0.83849 0.68528
 H886 H 0.16890 0.80083 0.71752
 H887 H 0.29299 0.81157 0.68509
 H888 H 0.27175 0.84962 0.65303
 C889 C 0.62595 0.55796 0.45449
 C890 C 0.62434 0.55721 0.42025
 C891 C 0.59763 0.53997 0.40462
 C892 C 0.57135 0.52438 0.42310
 C893 C 0.57113 0.52589 0.45761
 C894 C 0.59968 0.54239 0.47304
 C895 C 0.64662 0.57610 0.40126
 C896 C 0.66326 0.59278 0.38528
 C897 C 0.68047 0.61311 0.36647
 C898 C 0.69327 0.63102 0.35028
 C899 C 0.70633 0.65290 0.33077
 C900 C 0.67776 0.66654 0.31214
 C901 C 0.68963 0.68813 0.29360
 C902 C 0.73057 0.69623 0.29281
 C903 C 0.75888 0.68276 0.31241
 C904 C 0.74689 0.66112 0.33104
 H905 H 0.64636 0.57136 0.46686
 H906 H 0.59585 0.53939 0.37811
 H907 H 0.54974 0.51228 0.41011
 H908 H 0.60072 0.54424 0.49946
 H909 H 0.64614 0.66059 0.31212
 H910 H 0.66658 0.69840 0.27979
 H911 H 0.79016 0.68908 0.31390
 H912 H 0.76914 0.65100 0.34588
 C913 C 0.37207 0.05901 0.04521
 C914 C 0.37337 0.05837 0.07945
 C915 C 0.40043 0.04161 0.09532
 C916 C 0.42729 0.02631 0.07708
 C917 C 0.42770 0.02762 0.04257
 C918 C 0.39891 0.04370 0.02688
 C919 C 0.35045 0.07698 0.09829
 C920 C 0.33347 0.09344 0.11434
 C921 C 0.31616 0.11354 0.13338
 C922 C 0.30351 0.13129 0.14986
 C923 C 0.29092 0.15302 0.16976
 C924 C 0.32002 0.16672 0.18787
 C925 C 0.30866 0.18824 0.20674
 C926 C 0.26773 0.19616 0.20840
 C927 C 0.23886 0.18263 0.18931
 C928 C 0.25034 0.16107 0.17034
 H929 H 0.35141 0.07208 0.03267
 H930 H 0.40198 0.04116 0.12185
 H931 H 0.44904 0.01451 0.09025
 H932 H 0.39801 0.04537 0.00045
 H933 H 0.35165 0.16089 0.18721
 H934 H 0.33211 0.19860 0.22009
 H935 H 0.20753 0.18887 0.18843
 H936 H 0.22768 0.15090 0.15588
 C937 C 0.90032 0.45945 0.90511
 C938 C 0.87286 0.44252 0.92037
 C939 C 0.87099 0.44149 0.95458
 C940 C 0.89771 0.45647 0.97347
 C941 C 0.92697 0.47263 0.95840
 C942 C 0.92705 0.47446 0.92393
 C943 C 0.85023 0.42404 0.90105
 C944 C 0.83343 0.40757 0.88485
 C945 C 0.81630 0.38732 0.86588
 C946 C 0.80381 0.36937 0.84961
 C947 C 0.79144 0.34734 0.83010
 C948 C 0.75106 0.33877 0.83006
 C949 C 0.73988 0.31683 0.81163
 C950 C 0.76884 0.30340 0.79256
 C951 C 0.80957 0.31189 0.79363
 C952 C 0.82063 0.33378 0.81196
 H953 H 0.90231 0.46022 0.87861
 H954 H 0.85001 0.42829 0.96665
 H955 H 0.89638 0.45442 0.99985
 H956 H 0.94915 0.48639 0.91124
 H957 H 0.72836 0.34882 0.84456
 H958 H 0.70873 0.31021 0.81290
 H959 H 0.83311 0.30168 0.78025
 H960 H 0.85212 0.34001 0.81222
 C961 C 0.57869 0.05815 0.91132
 C962 C 0.54987 0.07353 0.89521
 C963 C 0.50849 0.06796 0.89896
 C964 C 0.49594 0.04797 0.92011
 C965 C 0.52467 0.03332 0.93794
 C966 C 0.56628 0.03829 0.93253
 C967 C 0.56314 0.09620 0.87718
 C968 C 0.57614 0.11523 0.86319
 C969 C 0.59377 0.13709 0.84751
 C970 C 0.61115 0.15491 0.83411
 C971 C 0.63494 0.17456 0.81759
 C972 C 0.62864 0.20133 0.82282
 C973 C 0.65382 0.21981 0.80741
 C974 C 0.68569 0.21169 0.78668
 C975 C 0.69124 0.18464 0.78173
 C976 C 0.66620 0.16639 0.79693
 H977 H 0.61082 0.06227 0.90864
 H978 H 0.48587 0.07977 0.88665
 H979 H 0.46370 0.04514 0.92382
 H980 H 0.58941 0.02778 0.94597
 H981 H 0.60460 0.20790 0.83898
 H982 H 0.64848 0.24036 0.81198
 H983 H 0.71528 0.17722 0.76632
 H984 H 0.67162 0.14575 0.79283
 C985 C 0.42206 0.55788 0.58956
 C986 C 0.45129 0.57321 0.60537
 C987 C 0.49254 0.56733 0.60148
 C988 C 0.50452 0.54708 0.58046
 C989 C 0.47536 0.53250 0.56287
 C990 C 0.43390 0.53778 0.56847
 C991 C 0.43857 0.59611 0.62327
 C992 C 0.42599 0.61532 0.63715
 C993 C 0.40883 0.63739 0.65276
 C994 C 0.39186 0.65539 0.66613
 C995 C 0.36854 0.67527 0.68268
 C996 C 0.37426 0.70197 0.67640
 C997 C 0.34930 0.72062 0.69170
 C998 C 0.31820 0.71276 0.71336
 C999 C 0.31330 0.68580 0.71940
 C1000 C 0.33814 0.66738 0.70433
 H1001 H 0.39002 0.56222 0.59235
 H1002 H 0.51549 0.57908 0.61358
 H1003 H 0.53667 0.54397 0.57664
 H1004 H 0.41044 0.52732 0.55525
 H1005 H 0.39760 0.70833 0.65946
 H1006 H 0.35410 0.74109 0.68624
 H1007 H 0.28972 0.67855 0.73541
 H1008 H 0.33310 0.64681 0.70922
 C1009 C 0.07535 0.43903 0.09064
 C1010 C 0.04606 0.42370 0.10636
 C1011 C 0.00482 0.42949 0.10224
 C1012 C -0.00708 0.44971 0.08119
 C1013 C 0.02218 0.46438 0.06384
 C1014 C 0.06360 0.45910 0.06954
 C1015 C 0.05884 0.40100 0.12458
 C1016 C 0.07165 0.38203 0.13878
 C1017 C 0.08924 0.36029 0.15478
 C1018 C 0.10665 0.34263 0.16843
 C1019 C 0.13052 0.32318 0.18523
 C1020 C 0.12499 0.29635 0.17978
 C1021 C 0.15050 0.27812 0.19522
 C1022 C 0.18197 0.28653 0.21619
 C1023 C 0.18667 0.31362 0.22143
 C1024 C 0.16129 0.33163 0.20622
 H1025 H 0.10739 0.43476 0.09361
 H1026 H -0.01818 0.41773 0.11425
 H1027 H -0.03921 0.45281 0.07725
 H1028 H 0.08714 0.46961 0.05649
 H1029 H 0.10138 0.28955 0.16335
 H1030 H 0.14584 0.25753 0.19037
 H1031 H 0.21051 0.32128 0.23689
 H1032 H 0.16618 0.35231 0.21047
 C1033 C 0.98699 0.93351 0.39943
 C1034 C 0.94564 0.92838 0.39463
 C1035 C 0.91663 0.94453 0.40936
 C1036 C 0.92874 0.96461 0.43046
 C1037 C 0.97021 0.96892 0.43726
 C1038 C 0.99922 0.95367 0.42048
 C1039 C 0.93262 0.90534 0.37710
 C1040 C 0.92020 0.88594 0.36347
 C1041 C 0.90352 0.86359 0.34804
 C1042 C 0.88708 0.84537 0.33467
 C1043 C 0.86437 0.82529 0.31785
 C1044 C 0.87029 0.79861 0.32411
 C1045 C 0.84595 0.77980 0.30835
 C1046 C 0.81531 0.78748 0.28623
 C1047 C 0.81022 0.81444 0.28025
 C1048 C 0.83442 0.83300 0.29576
 H1049 H 1.00976 0.92117 0.38813
 H1050 H 0.88451 0.94082 0.40579
 H1051 H 0.90539 0.97575 0.44288
 H1052 H 1.03136 0.95610 0.42508
 H1053 H 0.89331 0.79238 0.34138
 H1054 H 0.85085 0.75935 0.31380
 H1055 H 0.78697 0.82159 0.26391
 H1056 H 0.82925 0.85354 0.29084
 C1057 C 0.89706 0.58037 0.53143
 C1058 C 0.89692 0.58190 0.56570
 C1059 C 0.92132 0.56510 0.58401
 C1060 C 0.94565 0.54673 0.56836
 C1061 C 0.94637 0.54491 0.53388
 C1062 C 0.92157 0.56190 0.51557
 C1063 C 0.87259 0.60074 0.58284
 C1064 C 0.85404 0.61608 0.59945
 C1065 C 0.83483 0.63370 0.62094
 C1066 C 0.82075 0.64877 0.64054
 C1067 C 0.80690 0.66706 0.66479
 C1068 C 0.83545 0.67929 0.68497
 C1069 C 0.82315 0.69815 0.70751
 C1070 C 0.78184 0.70493 0.71062
 C1071 C 0.75323 0.69215 0.69046
 C1072 C 0.76571 0.67328 0.66777
 H1073 H 0.87819 0.59334 0.51702
 H1074 H 0.92154 0.56618 0.61056
 H1075 H 0.96404 0.53405 0.58351
 H1076 H 0.92064 0.56077 0.48913
 H1077 H 0.86746 0.67465 0.68281
 H1078 H 0.84629 0.70775 0.72207
 H1079 H 0.72141 0.69729 0.69126
 H1080 H 0.74338 0.66398 0.65209
 C1081 C 0.57583 0.43317 0.07877
 C1082 C 0.60211 0.41801 0.05986
 C1083 C 0.60257 0.42072 0.02573
 C1084 C 0.57694 0.43891 0.01063
 C1085 C 0.55048 0.45442 0.02955
 C1086 C 0.55042 0.45127 0.06386
 C1087 C 0.62812 0.39979 0.07631
 C1088 C 0.64793 0.38495 0.09257
 C1089 C 0.66826 0.36785 0.11392
 C1090 C 0.68288 0.35314 0.13360
 C1091 C 0.69678 0.33520 0.15812
 C1092 C 0.66807 0.32271 0.17786
 C1093 C 0.68031 0.30410 0.20063
 C1094 C 0.72172 0.29784 0.20442
 C1095 C 0.75051 0.31094 0.18478
 C1096 C 0.73808 0.32957 0.16182
 H1097 H 0.57519 0.43115 0.10522
 H1098 H 0.62292 0.40903 0.01090
 H1099 H 0.57856 0.44113 -0.01568
 H1100 H 0.53089 0.46289 0.07946
 H1101 H 0.63598 0.32695 0.17513
 H1102 H 0.65706 0.29426 0.21479
 H1103 H 0.78245 0.30621 0.18617
 H1104 H 0.76052 0.33910 0.14649
 C1105 C 0.42374 0.93473 0.41683
 C1106 C 0.39817 0.91853 0.43501
 C1107 C 0.39791 0.92018 0.46929
 C1108 C 0.42301 0.93833 0.48525
 C1109 C 0.44874 0.95486 0.46703
 C1110 C 0.44863 0.95276 0.43257
 C1111 C 0.37314 0.90013 0.41770
 C1112 C 0.35429 0.88507 0.40087
 C1113 C 0.33516 0.86752 0.37919
 C1114 C 0.32162 0.85219 0.35964
 C1115 C 0.30908 0.83311 0.33587
 C1116 C 0.27004 0.83339 0.32229
 C1117 C 0.25857 0.81407 0.29976
 C1118 C 0.28625 0.79449 0.29014
 C1119 C 0.32532 0.79455 0.30428
 C1120 C 0.33666 0.81379 0.32661
 H1121 H 0.42435 0.93351 0.39030
 H1122 H 0.37821 0.90762 0.48359
 H1123 H 0.42172 0.93964 0.51168
 H1124 H 0.46776 0.96507 0.41748
 H1125 H 0.24833 0.84820 0.32951
 H1126 H 0.22772 0.81412 0.29057
 H1127 H 0.34703 0.77926 0.29917
 H1128 H 0.36684 0.81325 0.33723
 C1129 C 0.10618 0.08026 0.97073
 C1130 C 0.10488 0.08256 0.93656
 C1131 C 0.07897 0.06659 0.91831
 C1132 C 0.05469 0.04817 0.93393
 C1133 C 0.05553 0.04548 0.96830
 C1134 C 0.08170 0.06174 0.98654
 C1135 C 0.12953 0.10121 0.91941
 C1136 C 0.14820 0.11637 0.90267
 C1137 C 0.16730 0.13379 0.88089
 C1138 C 0.18102 0.14869 0.86098
 C1139 C 0.19411 0.16681 0.83631
 C1140 C 0.16483 0.17912 0.81700
 C1141 C 0.17638 0.19785 0.79409
 C1142 C 0.21763 0.20440 0.78972
 C1143 C 0.24696 0.19152 0.80898
 C1144 C 0.23524 0.17277 0.83207
 H1145 H 0.12626 0.09257 0.98505
 H1146 H 0.07767 0.06828 0.89185
 H1147 H 0.03529 0.03602 0.91883
 H1148 H 0.08388 0.05991 1.01287
 H1149 H 0.13287 0.17464 0.82015
 H1150 H 0.15273 0.20754 0.78027
 H1151 H 0.27881 0.19650 0.80721
 H1152 H 0.25812 0.16340 0.84707
 C1153 C 0.10366 0.95695 0.09329
 C1154 C 0.09609 0.93006 0.09395
 C1155 C 0.06765 0.91924 0.07238
 C1156 C 0.04673 0.93518 0.05036
 C1157 C 0.05380 0.96234 0.04944
 C1158 C 0.08271 0.97298 0.07125
 C1159 C 0.11717 0.91334 0.11669
 C1160 C 0.13397 0.89851 0.13522
 C1161 C 0.15260 0.88007 0.15613
 C1162 C 0.16748 0.86332 0.17308
 C1163 C 0.18385 0.84199 0.19193
 C1164 C 0.16197 0.81863 0.19383
 C1165 C 0.17875 0.79685 0.20923
 C1166 C 0.21799 0.79791 0.22309
 C1167 C 0.23903 0.82195 0.22225
 C1168 C 0.22218 0.84375 0.20661
 H1169 H 0.12563 0.96556 0.10988
 H1170 H 0.06151 0.89844 0.07263
 H1171 H 0.02483 0.92608 0.03423
 H1172 H 0.08918 0.99372 0.07153
 H1173 H 0.13225 0.81701 0.18257
 H1174 H 0.16111 0.77900 0.20928
 H1175 H 0.26913 0.82378 0.23261
 H1176 H 0.23949 0.86175 0.20527
 C1177 C 0.90769 0.45817 0.40293
 C1178 C 0.91603 0.43139 0.40176
 C1179 C 0.94259 0.42042 0.42463
 C1180 C 0.96099 0.43610 0.44840
 C1181 C 0.95320 0.46316 0.44982
 C1182 C 0.92613 0.47395 0.42672
 C1183 C 0.89690 0.41486 0.37768
 C1184 C 0.88091 0.40015 0.35847
 C1185 C 0.86188 0.38188 0.33751
 C1186 C 0.84505 0.36535 0.32137
 C1187 C 0.82401 0.34449 0.30477
 C1188 C 0.79534 0.33002 0.32227
 C1189 C 0.77645 0.30853 0.30787
 C1190 C 0.78533 0.30118 0.27531
 C1191 C 0.81414 0.31599 0.25774
 C1192 C 0.83332 0.33755 0.27239
 H1193 H 0.88700 0.46687 0.38542
 H1194 H 0.94919 0.39969 0.42407
 H1195 H 0.98169 0.42690 0.46539
 H1196 H 0.91929 0.49462 0.42672
 H1197 H 0.78812 0.33504 0.34743
 H1198 H 0.75501 0.29758 0.32259
 H1199 H 0.82273 0.31059 0.23308
 H1200 H 0.85590 0.34845 0.25872
 C1201 C 0.40624 0.04328 0.59496
 C1202 C 0.41444 0.07011 0.59557
 C1203 C 0.44209 0.08073 0.57324
 C1204 C 0.46160 0.06468 0.55049
 C1205 C 0.45387 0.03759 0.54956
 C1206 C 0.42580 0.02712 0.57217
 C1207 C 0.39410 0.08706 0.61852
 C1208 C 0.37726 0.10210 0.63681
 C1209 C 0.35748 0.12068 0.65685
 C1210 C 0.34027 0.13738 0.67244
 C1211 C 0.31909 0.15827 0.68882
 C1212 C 0.32872 0.16552 0.72102
 C1213 C 0.30946 0.18703 0.73560
 C1214 C 0.28017 0.20148 0.71818
 C1215 C 0.27095 0.19386 0.68578
 C1216 C 0.28999 0.17241 0.67141
 H1217 H 0.38475 0.03484 0.61207
 H1218 H 0.44862 0.10149 0.57339
 H1219 H 0.48297 0.07366 0.53381
 H1220 H 0.41894 0.00644 0.57249
 H1221 H 0.35164 0.15490 0.73461
 H1222 H 0.31836 0.19265 0.76011
 H1223 H 0.24911 0.20455 0.67121
 H1224 H 0.28251 0.16715 0.64638
 C1225 C 0.59003 0.54373 0.90221
 C1226 C 0.58203 0.57056 0.90206
 C1227 C 0.55552 0.58114 0.92529
 C1228 C 0.53684 0.56503 0.94842
 C1229 C 0.54430 0.53791 0.94883
 C1230 C 0.57132 0.52751 0.92537
 C1231 C 0.60151 0.58754 0.87867
 C1232 C 0.61780 0.60257 0.86008
 C1233 C 0.63722 0.62117 0.83984
 C1234 C 0.65440 0.63793 0.82433
 C1235 C 0.67590 0.65894 0.80848
 C1236 C 0.66769 0.66609 0.77600
 C1237 C 0.68753 0.68765 0.76198
 C1238 C 0.71597 0.70222 0.78026
 C1239 C 0.72364 0.69472 0.81295
 C1240 C 0.70407 0.67325 0.82674
 H1241 H 0.61068 0.53532 0.88442
 H1242 H 0.54919 0.60192 0.92552
 H1243 H 0.51622 0.57395 0.96574
 H1244 H 0.57792 0.50681 0.92460
 H1245 H 0.64549 0.65533 0.76175
 H1246 H 0.67981 0.69319 0.73720
 H1247 H 0.74475 0.70549 0.82819
 H1248 H 0.71045 0.66807 0.85197
 C1249 C 0.48619 0.41196 0.92580
 C1250 C 0.44598 0.40339 0.92879
 C1251 C 0.42072 0.41450 0.95254
 C1252 C 0.43483 0.43501 0.97205
 C1253 C 0.47471 0.44468 0.96837
 C1254 C 0.50049 0.43245 0.94541
 C1255 C 0.42915 0.38521 0.90551
 C1256 C 0.41351 0.37088 0.88570
 C1257 C 0.39366 0.35478 0.86257
 C1258 C 0.37558 0.34125 0.84324
 C1259 C 0.35282 0.32496 0.82105
 C1260 C 0.35749 0.29786 0.82216
 C1261 C 0.33284 0.28176 0.80295
 C1262 C 0.30275 0.29245 0.78229
 C1263 C 0.29949 0.31988 0.78050
 C1264 C 0.32420 0.33597 0.79982
 H1265 H 0.50593 0.40365 0.90727
 H1266 H 0.38943 0.40815 0.95493
 H1267 H 0.41368 0.44410 0.98887
 H1268 H 0.53095 0.43960 0.94109
 H1269 H 0.37955 0.28911 0.83851
 H1270 H 0.33688 0.26086 0.80517
 H1271 H 0.27703 0.32903 0.76498
 H1272 H 0.32025 0.35696 0.79879
 C1273 C 0.92801 0.08545 0.04653
 C1274 C 0.95373 0.09714 0.06952
 C1275 C 0.99393 0.08861 0.07245
 C1276 C 1.00784 0.06770 0.05337
 C1277 C 0.98169 0.05505 0.03104
 C1278 C 0.94172 0.06453 0.02761
 C1279 C 0.93727 0.11598 0.09209
 C1280 C 0.92159 0.13084 0.11120
 C1281 C 0.90133 0.14747 0.13343
 C1282 C 0.88269 0.16131 0.15201
 C1283 C 0.85911 0.17773 0.17340
 C1284 C 0.86324 0.20486 0.17171
 C1285 C 0.83802 0.22097 0.19039
 C1286 C 0.80797 0.21023 0.21111
 C1287 C 0.80506 0.18280 0.21329
 C1288 C 0.83032 0.16672 0.19452
 H1289 H 0.89671 0.09173 0.04425
 H1290 H 1.01399 0.09735 0.09045
 H1291 H 1.03836 0.06066 0.05755
 H1292 H 0.92024 0.05508 0.01137
 H1293 H 0.88538 0.21361 0.15538
 H1294 H 0.84175 0.24187 0.18787
 H1295 H 0.78262 0.17361 0.22884
 H1296 H 0.82677 0.14570 0.19597
 C1297 C 0.57836 0.91472 0.54494
 C1298 C 0.55352 0.90370 0.56905
 C1299 C 0.51324 0.91206 0.57220
 C1300 C 0.49850 0.93230 0.55244
 C1301 C 0.52393 0.94452 0.52922
 C1302 C 0.56383 0.93498 0.52531
 C1303 C 0.57091 0.88583 0.59243
 C1304 C 0.58708 0.87174 0.61220
 C1305 C 0.60749 0.85585 0.63522
 C1306 C 0.62586 0.84240 0.65444
 C1307 C 0.64866 0.82606 0.67652
 C1308 C 0.64388 0.79897 0.67520
 C1309 C 0.66803 0.78280 0.69465
 C1310 C 0.69771 0.79341 0.71584
 C1311 C 0.70126 0.82083 0.71769
 C1312 C 0.67705 0.83699 0.69811
 H1313 H 0.60968 0.90854 0.54238
 H1314 H 0.49378 0.90379 0.59096
 H1315 H 0.46802 0.93932 0.55687
 H1316 H 0.58477 0.94408 0.50832
 H1317 H 0.62201 0.79026 0.65859
 H1318 H 0.66375 0.76192 0.69233
 H1319 H 0.72336 0.82992 0.73367
 H1320 H 0.68107 0.85799 0.69935
 C1321 C 0.07585 0.58693 0.45866
 C1322 C 0.05108 0.59820 0.43474
 C1323 C 0.01110 0.58942 0.43082
 C1324 C -0.00341 0.56858 0.44968
 C1325 C 0.02192 0.55620 0.47279
 C1326 C 0.06154 0.56607 0.47739
 C1327 C 0.06846 0.61658 0.41204
 C1328 C 0.08474 0.63097 0.39268
 C1329 C 0.10547 0.64698 0.37002
 C1330 C 0.12430 0.66030 0.35096
 C1331 C 0.14785 0.67617 0.32889
 C1332 C 0.14521 0.70336 0.33065
 C1333 C 0.17001 0.71893 0.31090
 C1334 C 0.19813 0.70758 0.28899
 C1335 C 0.19969 0.68010 0.28692
 C1336 C 0.17485 0.66456 0.30677
 H1337 H 0.10700 0.59340 0.46170
 H1338 H -0.00821 0.59783 0.41211
 H1339 H -0.03360 0.56125 0.44460
 H1340 H 0.08245 0.55682 0.49422
 H1341 H 0.12446 0.71258 0.34773
 H1342 H 0.16738 0.73990 0.31343
 H1343 H 0.22069 0.67047 0.27051
 H1344 H 0.17723 0.64348 0.30526
   
