data_POSCAR
  _audit_creation_date              2014-09-24
  _audit_creation_method            'ToBaCCo'
  _symmetry_space_group_name_H-M    'P1'
  _symmetry_Int_Tables_number       1
  _symmetry_cell_setting            triclinic
  loop_
  _symmetry_equiv_pos_as_xyz
 x,y,z
_cell_length_a 56.0379
_cell_length_b 56.1260
_cell_length_c 56.0964
_cell_angle_alpha 89.950500
_cell_angle_beta 90.074300
_cell_angle_gamma 89.926600
loop_
  _atom_site_label
  _atom_site_type_symbol
  _atom_site_fract_x
  _atom_site_fract_y
  _atom_site_fract_z
C1 C 0.24680 0.99680 -0.01676
 C2 C 0.24860 0.99658 0.00741
 C3 C 0.24876 0.97416 0.02142
 C4 C 0.25021 1.01886 0.02159
 C5 C 0.24596 1.01946 -0.03040
 C6 C 0.24592 0.97454 -0.03105
 C7 C 0.22933 0.95837 0.02082
 C8 C 0.22855 0.93892 0.03645
 C9 C 0.24716 0.93517 0.05275
 C10 C 0.26680 0.95052 0.05294
 C11 C 0.26757 0.96992 0.03743
 C12 C 0.23342 1.02306 0.03965
 C13 C 0.23547 1.04297 0.05437
 C14 C 0.25444 1.05891 0.05132
 C15 C 0.27119 1.05497 0.03316
 C16 C 0.26910 1.03499 0.01838
 C17 C 0.26290 1.02360 -0.04833
 C18 C 0.26220 1.04457 -0.06169
 C19 C 0.24446 1.06160 -0.05740
 C20 C 0.22738 1.05756 -0.03964
 C21 C 0.22806 1.03653 -0.02623
 C22 C 0.26426 0.95746 -0.02969
 C23 C 0.26395 0.93750 -0.04466
 C24 C 0.24540 0.93452 -0.06116
 C25 C 0.22701 0.95137 -0.06240
 C26 C 0.22730 0.97128 -0.04750
 H27 H 0.21445 0.96161 0.00891
 H28 H 0.21318 0.92722 0.03628
 H29 H 0.28123 0.94785 0.06554
 H30 H 0.28260 0.98201 0.03827
 H31 H 0.21883 1.01073 0.04248
 H32 H 0.22240 1.04567 0.06836
 H33 H 0.28246 1.03181 0.00481
 H34 H 0.27674 1.01059 -0.05190
 H35 H 0.27543 1.04747 -0.07546
 H36 H 0.21347 1.07056 -0.03629
 H37 H 0.21457 1.03346 -0.01278
 H38 H 0.27904 0.95988 -0.01749
 H39 H 0.27837 0.92467 -0.04367
 H40 H 0.21263 0.94932 -0.07517
 H41 H 0.21311 0.98432 -0.04895
 H42 H 0.28606 1.06705 0.03064
 C43 C 0.74968 0.49318 0.50443
 C44 C 0.74747 0.49305 0.48029
 C45 C 0.74596 0.47057 0.46642
 C46 C 0.74684 0.51549 0.46625
 C47 C 0.75196 0.51566 0.51815
 C48 C 0.74967 0.47101 0.51885
 C49 C 0.76403 0.45322 0.46776
 C50 C 0.76314 0.43303 0.45314
 C51 C 0.74426 0.43010 0.43701
 C52 C 0.72612 0.44721 0.43581
 C53 C 0.72700 0.46735 0.45036
 C54 C 0.76353 0.51897 0.44793
 C55 C 0.76302 0.53973 0.43422
 C56 C 0.74573 0.55721 0.43854
 C57 C 0.72890 0.55383 0.45668
 C58 C 0.72939 0.53301 0.47043
 C59 C 0.73551 0.52053 0.53636
 C60 C 0.73820 0.54066 0.55066
 C61 C 0.75743 0.55610 0.54704
 C62 C 0.77383 0.55152 0.52876
 C63 C 0.77114 0.53133 0.51438
 C64 C 0.72994 0.45558 0.51888
 C65 C 0.72903 0.43647 0.53494
 C66 C 0.74781 0.43272 0.55105
 C67 C 0.76773 0.44769 0.55061
 C68 C 0.76864 0.46675 0.53467
 H69 H 0.77907 0.45560 0.47967
 H70 H 0.77737 0.41999 0.45408
 H71 H 0.71150 0.44519 0.42332
 H72 H 0.71300 0.48061 0.44894
 H73 H 0.77702 0.50561 0.44434
 H74 H 0.77605 0.54211 0.42017
 H75 H 0.71609 0.53047 0.48418
 H76 H 0.72071 0.50857 0.53963
 H77 H 0.72548 0.54398 0.56481
 H78 H 0.78886 0.56329 0.52593
 H79 H 0.78423 0.52763 0.50069
 H80 H 0.71494 0.45884 0.50713
 H81 H 0.71345 0.42507 0.53525
 H82 H 0.78231 0.44502 0.56305
 H83 H 0.78390 0.47856 0.53503
 H84 H 0.71534 0.56717 0.46006
 C85 C 0.75288 1.00451 0.99272
 C86 C 0.75300 0.98028 0.99280
 C87 C 0.75483 0.96617 0.97051
 C88 C 0.75153 0.96641 1.01532
 C89 C 0.75154 1.01852 1.01509
 C90 C 0.75364 1.01870 0.97040
 C91 C 0.73773 0.94853 0.96580
 C92 C 0.73999 0.93380 0.94591
 C93 C 0.75945 0.93641 0.93053
 C94 C 0.77651 0.95411 0.93495
 C95 C 0.77425 0.96892 0.95490
 C96 C 0.73208 0.96898 1.03092
 C97 C 0.73079 0.95526 1.05173
 C98 C 0.74883 0.93877 1.05701
 C99 C 0.76815 0.93608 1.04146
 C100 C 0.76946 0.94976 1.02071
 C101 C 0.76929 1.01666 1.03271
 C102 C 0.76844 1.03124 1.05293
 C103 C 0.74991 1.04780 1.05558
 C104 C 0.73211 1.04954 1.03816
 C105 C 0.73295 1.03504 1.01800
 C106 C 0.77134 1.03617 0.96776
 C107 C 0.77072 1.05190 0.94850
 C108 C 0.75231 1.05047 0.93167
 C109 C 0.73488 1.03267 0.93383
 C110 C 0.73553 1.01684 0.95315
 H111 H 0.72274 0.94603 0.97771
 H112 H 0.72675 0.92011 0.94272
 H113 H 0.79173 0.95617 0.92324
 H114 H 0.78788 0.98210 0.95848
 H115 H 0.71784 0.98140 1.02685
 H116 H 0.71567 0.95735 1.06356
 H117 H 0.78451 0.94742 1.00883
 H118 H 0.78399 1.00430 1.03056
 H119 H 0.78239 1.02988 1.06625
 H120 H 0.71777 1.06238 1.03998
 H121 H 0.71919 1.03682 1.00453
 H122 H 0.78532 1.03800 0.98099
 H123 H 0.78427 1.06561 0.94713
 H124 H 0.72044 1.03145 0.92103
 H125 H 0.72147 1.00377 0.95513
 H126 H 0.78215 0.92330 1.04531
 C127 C 0.25171 0.50651 0.49547
 C128 C 0.25145 0.48229 0.49590
 C129 C 0.25283 0.46780 0.47380
 C130 C 0.24996 0.46880 0.51863
 C131 C 0.25093 0.52091 0.51764
 C132 C 0.25234 0.52031 0.47292
 C133 C 0.23545 0.45030 0.46956
 C134 C 0.23725 0.43529 0.44982
 C135 C 0.25650 0.43747 0.43412
 C136 C 0.27383 0.45501 0.43808
 C137 C 0.27205 0.47009 0.45787
 C138 C 0.23071 0.47197 0.53437
 C139 C 0.22939 0.45860 0.55540
 C140 C 0.24718 0.44188 0.56077
 C141 C 0.26630 0.43860 0.54509
 C142 C 0.26765 0.45193 0.52411
 C143 C 0.26885 0.51897 0.53509
 C144 C 0.26858 0.53394 0.55504
 C145 C 0.25047 0.55097 0.55762
 C146 C 0.23249 0.55279 0.54039
 C147 C 0.23275 0.53790 0.52049
 C148 C 0.27027 0.53746 0.46971
 C149 C 0.26962 0.55281 0.45015
 C150 C 0.25097 0.55130 0.43362
 C151 C 0.23331 0.53385 0.43635
 C152 C 0.23397 0.51839 0.45595
 H153 H 0.22060 0.44813 0.48171
 H154 H 0.22379 0.42173 0.44699
 H155 H 0.28889 0.45675 0.42612
 H156 H 0.28589 0.48315 0.46108
 H157 H 0.21666 0.48457 0.53024
 H158 H 0.21442 0.46114 0.56734
 H159 H 0.28254 0.44913 0.51213
 H160 H 0.28325 0.50626 0.53298
 H161 H 0.28267 0.53250 0.56821
 H162 H 0.21846 0.56597 0.54215
 H163 H 0.21887 0.53976 0.50716
 H164 H 0.28445 0.53932 0.48271
 H165 H 0.28330 0.56631 0.44829
 H166 H 0.21870 0.53267 0.42375
 H167 H 0.21975 0.50558 0.45837
 H168 H 0.28010 0.42563 0.54900
 C169 C 0.99330 0.24824 -0.00468
 C170 C 0.99331 0.24804 0.01955
 C171 C 0.97096 0.24619 0.03362
 C172 C 1.01583 0.24946 0.03349
 C173 C 1.01571 0.24967 -0.01867
 C174 C 0.97099 0.24743 -0.01894
 C175 C 0.96622 0.26322 0.05131
 C176 C 0.94623 0.26098 0.06595
 C177 C 0.93079 0.24160 0.06320
 C178 C 0.93526 0.22460 0.04547
 C179 C 0.95530 0.22684 0.03075
 C180 C 1.03147 0.26888 0.03103
 C181 C 1.05229 0.27010 0.04480
 C182 C 1.05755 0.25201 0.06125
 C183 C 1.04195 0.23271 0.06381
 C184 C 1.02119 0.23149 0.05008
 C185 C 1.03338 0.23196 -0.01685
 C186 C 1.05360 0.23285 -0.03146
 C187 C 1.05623 0.25139 -0.04802
 C188 C 1.03875 0.26916 -0.04968
 C189 C 1.01860 0.26826 -0.03515
 C190 C 0.96841 0.22975 -0.03643
 C191 C 0.94912 0.23027 -0.05216
 C192 C 0.93220 0.24858 -0.05073
 C193 C 0.93430 0.26601 -0.03293
 C194 C 0.95364 0.26544 -0.01709
 H195 H 0.97816 0.27816 0.05391
 H196 H 0.94301 0.27418 0.07966
 H197 H 0.92351 0.20944 0.04330
 H198 H 0.95891 0.21325 0.01754
 H199 H 1.02742 0.28314 0.01865
 H200 H 1.06411 0.28523 0.04274
 H201 H 1.00928 0.21647 0.05234
 H202 H 1.03125 0.21726 -0.00453
 H203 H 1.06691 0.21889 -0.03010
 H204 H 1.04049 0.28354 -0.06248
 H205 H 1.00509 0.28198 -0.03689
 H206 H 0.98171 0.21584 -0.03824
 H207 H 0.94781 0.21673 -0.06587
 H208 H 0.92142 0.28037 -0.03170
 H209 H 0.95557 0.27949 -0.00400
 H210 H 1.04572 0.21865 0.07653
 C211 C 0.49567 0.74853 0.49360
 C212 C 0.49608 0.74875 0.51783
 C213 C 0.51883 0.75005 0.53136
 C214 C 0.47394 0.74748 0.53228
 C215 C 0.47312 0.74795 0.47975
 C216 C 0.51788 0.74926 0.47924
 C217 C 0.52420 0.73226 0.54815
 C218 C 0.54524 0.73338 0.56145
 C219 C 0.56108 0.75236 0.55825
 C220 C 0.55581 0.77026 0.54163
 C221 C 0.53472 0.76917 0.52828
 C222 C 0.45792 0.72836 0.52995
 C223 C 0.43805 0.72669 0.54497
 C224 C 0.43412 0.74405 0.56248
 C225 C 0.44992 0.76320 0.56471
 C226 C 0.46974 0.76487 0.54976
 C227 C 0.45616 0.76631 0.48166
 C228 C 0.43651 0.76697 0.46621
 C229 C 0.43374 0.74930 0.44878
 C230 C 0.45027 0.73067 0.44728
 C231 C 0.46987 0.73003 0.46261
 C232 C 0.52086 0.76747 0.46235
 C233 C 0.54084 0.76774 0.44756
 C234 C 0.55803 0.74974 0.44937
 C235 C 0.55531 0.73156 0.46630
 C236 C 0.53527 0.73128 0.48116
 H237 H 0.51210 0.71747 0.55087
 H238 H 0.54908 0.71950 0.57434
 H239 H 0.56787 0.78512 0.53914
 H240 H 0.53068 0.78329 0.51574
 H241 H 0.46110 0.71450 0.51691
 H242 H 0.42602 0.71171 0.54320
 H243 H 0.48197 0.77964 0.55195
 H244 H 0.45861 0.78053 0.49447
 H245 H 0.42391 0.78157 0.46740
 H246 H 0.44837 0.71699 0.43380
 H247 H 0.48286 0.71585 0.46076
 H248 H 0.50757 0.78139 0.46051
 H249 H 0.54272 0.78181 0.43446
 H250 H 0.56845 0.71745 0.46772
 H251 H 0.53306 0.71686 0.49380
 H252 H 0.44712 0.77666 0.57825
 C253 C -0.01792 0.75261 0.00374
 C254 C 0.00628 0.75092 0.00396
 C255 C 0.02045 0.74937 -0.01833
 C256 C 0.02034 0.75080 0.02637
 C257 C -0.03217 0.75357 0.02603
 C258 C -0.03162 0.75325 -0.01891
 C259 C 0.01737 0.73044 -0.03443
 C260 C 0.03218 0.72844 -0.05442
 C261 C 0.05020 0.74530 -0.05838
 C262 C 0.05310 0.76430 -0.04250
 C263 C 0.03838 0.76628 -0.02258
 C264 C 0.03636 0.73202 0.03061
 C265 C 0.05194 0.73282 0.04999
 C266 C 0.05180 0.75247 0.06531
 C267 C 0.03548 0.77105 0.06157
 C268 C 0.01979 0.77024 0.04214
 C269 C -0.04861 0.77219 0.02925
 C270 C -0.06346 0.77259 0.04920
 C271 C -0.06219 0.75429 0.06615
 C272 C -0.04569 0.73573 0.06317
 C273 C -0.03078 0.73533 0.04317
 C274 C -0.02760 0.77105 -0.03609
 C275 C -0.04104 0.77153 -0.05712
 C276 C -0.05872 0.75432 -0.06107
 C277 C -0.06287 0.73667 -0.04392
 C278 C -0.04945 0.73618 -0.02294
 H279 H 0.00391 0.71700 -0.03121
 H280 H 0.02982 0.71356 -0.06649
 H281 H 0.06702 0.77742 -0.04528
 H282 H 0.04110 0.78090 -0.01028
 H283 H 0.03716 0.71698 0.01854
 H284 H 0.06455 0.71841 0.05266
 H285 H 0.00786 0.78509 0.03890
 H286 H -0.05007 0.78631 0.01615
 H287 H -0.07620 0.78701 0.05119
 H288 H -0.04462 0.72136 0.07605
 H289 H -0.01858 0.72055 0.04076
 H290 H -0.01421 0.78463 -0.03309
 H291 H -0.03776 0.78539 -0.07017
 H292 H -0.07655 0.72331 -0.04667
 H293 H -0.05290 0.72242 -0.00985
 H294 H 0.03536 0.78642 0.07324
 C295 C 0.50410 0.25062 0.50660
 C296 C 0.47993 0.25286 0.50674
 C297 C 0.46605 0.25438 0.52923
 C298 C 0.46587 0.25352 0.48429
 C299 C 0.51784 0.24844 0.48409
 C300 C 0.51854 0.25053 0.52878
 C301 C 0.46734 0.23633 0.54658
 C302 C 0.45266 0.23722 0.56674
 C303 C 0.43653 0.25609 0.56967
 C304 C 0.43539 0.27421 0.55257
 C305 C 0.45000 0.27334 0.53245
 C306 C 0.44756 0.23684 0.48077
 C307 C 0.43382 0.23737 0.46000
 C308 C 0.43812 0.25466 0.44255
 C309 C 0.45626 0.27148 0.44597
 C310 C 0.47003 0.27098 0.46679
 C311 C 0.53607 0.26487 0.47930
 C312 C 0.55037 0.26229 0.45914
 C313 C 0.54673 0.24317 0.44358
 C314 C 0.52844 0.22677 0.44809
 C315 C 0.51405 0.22936 0.46832
 C316 C 0.51865 0.27018 0.54428
 C317 C 0.53475 0.27100 0.56338
 C318 C 0.55084 0.25219 0.56707
 C319 C 0.55032 0.23234 0.55203
 C320 C 0.53433 0.23153 0.53297
 H321 H 0.47924 0.22130 0.54420
 H322 H 0.45356 0.22300 0.57978
 H323 H 0.42290 0.28883 0.55458
 H324 H 0.44861 0.28732 0.51920
 H325 H 0.44399 0.22334 0.49411
 H326 H 0.41978 0.22434 0.45759
 H327 H 0.48379 0.28427 0.46938
 H328 H 0.53935 0.27959 0.49134
 H329 H 0.56453 0.27501 0.45587
 H330 H 0.52558 0.21182 0.43624
 H331 H 0.50035 0.21627 0.47195
 H332 H 0.50692 0.28520 0.54107
 H333 H 0.53512 0.28652 0.57484
 H334 H 0.56274 0.21775 0.55464
 H335 H 0.53464 0.21633 0.52110
 H336 H 0.45962 0.28505 0.43264
 C337 C 1.00437 -0.00631 0.25081
 C338 C 1.00402 0.01784 0.24898
 C339 C 1.02623 0.03223 0.24793
 C340 C 0.98125 0.03136 0.24819
 C341 C 0.98213 -0.02060 0.25237
 C342 C 1.02688 -0.02019 0.25096
 C343 C 1.04344 0.03104 0.26616
 C344 C 1.06336 0.04609 0.26568
 C345 C 1.06618 0.06252 0.24704
 C346 C 1.04917 0.06358 0.22876
 C347 C 1.02931 0.04859 0.22924
 C348 C 0.97703 0.04921 0.26517
 C349 C 0.95594 0.06244 0.26452
 C350 C 0.93890 0.05808 0.24681
 C351 C 0.94302 0.04040 0.22970
 C352 C 0.96417 0.02712 0.23032
 C353 C 0.97805 -0.03864 0.23555
 C354 C 0.95818 -0.05345 0.23753
 C355 C 0.94217 -0.05051 0.25644
 C356 C 0.94598 -0.03239 0.27322
 C357 C 0.96592 -0.01751 0.27123
 C358 C 1.04258 -0.01966 0.23145
 C359 C 1.06208 -0.03527 0.23063
 C360 C 1.06595 -0.05146 0.24927
 C361 C 1.05072 -0.05155 0.26900
 C362 C 1.03127 -0.03607 0.26981
 H363 H 1.04116 0.01890 0.28099
 H364 H 1.07628 0.04518 0.28004
 H365 H 1.05103 0.07625 0.21428
 H366 H 1.01616 0.04990 0.21513
 H367 H 0.99006 0.05282 0.27898
 H368 H 0.95297 0.07617 0.27777
 H369 H 0.96731 0.01372 0.21681
 H370 H 0.99043 -0.04138 0.22099
 H371 H 0.95552 -0.06742 0.22447
 H372 H 0.93381 -0.03000 0.28803
 H373 H 0.96901 -0.00396 0.28461
 H374 H 1.03922 -0.00785 0.21655
 H375 H 1.07368 -0.03519 0.21520
 H376 H 1.05349 -0.06408 0.28345
 H377 H 1.01924 -0.03685 0.28490
 H378 H 0.93001 0.03701 0.21581
 C379 C 0.50646 0.51939 0.74909
 C380 C 0.50632 0.49526 0.75127
 C381 C 0.48379 0.48158 0.75346
 C382 C 0.52852 0.48081 0.75126
 C383 C 0.52898 0.53322 0.74756
 C384 C 0.48399 0.53347 0.74846
 C385 C 0.46804 0.48536 0.77257
 C386 C 0.44774 0.47107 0.77512
 C387 C 0.44315 0.45288 0.75866
 C388 C 0.45868 0.44923 0.73951
 C389 C 0.47892 0.46344 0.73696
 C390 C 0.53274 0.46494 0.77017
 C391 C 0.55183 0.44900 0.76928
 C392 C 0.56690 0.44861 0.74942
 C393 C 0.56318 0.46476 0.73070
 C394 C 0.54404 0.48082 0.73159
 C395 C 0.53221 0.54923 0.72860
 C396 C 0.55241 0.56372 0.72768
 C397 C 0.56957 0.56250 0.74577
 C398 C 0.56662 0.54643 0.76466
 C399 C 0.54637 0.53187 0.76560
 C400 C 0.46645 0.52935 0.73099
 C401 C 0.44565 0.54317 0.73047
 C402 C 0.44229 0.56131 0.74728
 C403 C 0.45977 0.56556 0.76460
 C404 C 0.48052 0.55178 0.76514
 H405 H 0.47174 0.49900 0.78571
 H406 H 0.43590 0.47392 0.79010
 H407 H 0.45535 0.43515 0.72673
 H408 H 0.49094 0.46017 0.72220
 H409 H 0.52086 0.46454 0.78538
 H410 H 0.55447 0.43653 0.78381
 H411 H 0.54081 0.49260 0.71664
 H412 H 0.51892 0.55066 0.71462
 H413 H 0.55444 0.57618 0.71305
 H414 H 0.57971 0.54548 0.77886
 H415 H 0.54398 0.52000 0.78063
 H416 H 0.46900 0.51560 0.71770
 H417 H 0.43231 0.53985 0.71689
 H418 H 0.45741 0.57961 0.77762
 H419 H 0.49389 0.55532 0.77864
 H420 H 0.57464 0.46449 0.71517
 C421 C 1.01978 1.00657 0.75026
 C422 C 0.99552 1.00647 0.75006
 C423 C 0.98167 0.98401 0.74876
 C424 C 0.98112 1.02867 0.75086
 C425 C 1.03372 1.02896 0.75214
 C426 C 1.03388 0.98416 0.74891
 C427 C 0.96518 0.98092 0.73017
 C428 C 0.95077 0.96069 0.72940
 C429 C 0.95258 0.94339 0.74727
 C430 C 0.96914 0.94621 0.76579
 C431 C 0.98362 0.96649 0.76657
 C432 C 0.98291 1.04603 0.73287
 C433 C 0.96698 1.06529 0.73234
 C434 C 0.94916 1.06730 0.74976
 C435 C 0.94776 1.05036 0.76803
 C436 C 0.96358 1.03116 0.76853
 C437 C 1.03079 1.04453 0.77154
 C438 C 1.04542 1.06460 0.77383
 C439 C 1.06313 1.06918 0.75683
 C440 C 1.06593 1.05384 0.73738
 C441 C 1.05137 1.03383 0.73508
 C442 C 1.05056 0.97900 0.76689
 C443 C 1.06443 0.95835 0.76574
 C444 C 1.06193 0.94265 0.74650
 C445 C 1.04539 0.94773 0.72841
 C446 C 1.03148 0.96844 0.72956
 H447 H 0.96333 0.99432 0.71638
 H448 H 0.93793 0.95874 0.71507
 H449 H 0.97054 0.93298 0.77980
 H450 H 0.99596 0.96878 0.78127
 H451 H 0.99603 1.04418 0.71883
 H452 H 0.96819 1.07819 0.71800
 H453 H 0.96181 1.01786 0.78243
 H454 H 1.01760 1.04082 0.78514
 H455 H 1.04322 1.07627 0.78905
 H456 H 1.07963 1.05716 0.72418
 H457 H 1.05401 1.02195 0.72010
 H458 H 1.05277 0.99097 0.78186
 H459 H 1.07721 0.95473 0.77981
 H460 H 1.04337 0.93583 0.71333
 H461 H 1.01904 0.97233 0.71529
 H462 H 0.93403 1.05161 0.78158
 C463 C 0.51781 0.50436 0.24975
 C464 C 0.49356 0.50479 0.24997
 C465 C 0.47910 0.48266 0.24911
 C466 C 0.47976 0.52734 0.25070
 C467 C 0.53234 0.52643 0.25117
 C468 C 0.53129 0.48162 0.24833
 C469 C 0.46213 0.47986 0.23090
 C470 C 0.44719 0.46001 0.23057
 C471 C 0.44892 0.44276 0.24850
 C472 C 0.46594 0.44528 0.26665
 C473 C 0.48096 0.46519 0.26700
 C474 C 0.48162 0.54432 0.23238
 C475 C 0.46615 0.56392 0.23181
 C476 C 0.44874 0.56663 0.24953
 C477 C 0.44730 0.55009 0.26813
 C478 C 0.46266 0.53053 0.26868
 C479 C 0.53006 0.54232 0.27040
 C480 C 0.54522 0.56205 0.27224
 C481 C 0.56282 0.56598 0.25496
 C482 C 0.56499 0.55032 0.23569
 C483 C 0.54990 0.53063 0.23384
 C484 C 0.54805 0.47611 0.26613
 C485 C 0.56130 0.45508 0.26491
 C486 C 0.55806 0.43938 0.24582
 C487 C 0.54147 0.44478 0.22791
 C488 C 0.52817 0.46587 0.22911
 H489 H 0.46033 0.49321 0.21705
 H490 H 0.43402 0.45829 0.21651
 H491 H 0.46731 0.43210 0.28071
 H492 H 0.49366 0.46726 0.28142
 H493 H 0.49440 0.54191 0.21811
 H494 H 0.46728 0.57654 0.21723
 H495 H 0.46084 0.51752 0.28284
 H496 H 0.51697 0.53913 0.28421
 H497 H 0.54350 0.57398 0.28732
 H498 H 0.57860 0.55312 0.22228
 H499 H 0.55206 0.51850 0.21899
 H500 H 0.55080 0.48810 0.28100
 H501 H 0.57417 0.45112 0.27879
 H502 H 0.53896 0.43283 0.21296
 H503 H 0.51565 0.47003 0.21498
 H504 H 0.43383 0.55194 0.28185
 O505 O 0.25995 0.18857 0.20555
 O506 O 0.28713 0.18205 0.23893
 O507 O 0.19803 0.21688 0.24039
 O508 O 0.18877 0.24794 0.26334
 O509 O 0.22682 0.25115 0.17722
 O510 O 0.26007 0.27704 0.17088
 O511 O 0.26042 0.28200 0.30155
 O512 O 0.23244 0.25061 0.30732
 O513 O 0.32144 0.25079 0.27231
 O514 O 0.32859 0.22372 0.24173
 O515 O 0.29225 0.31186 0.24091
 O516 O 0.25936 0.31927 0.21376
 O517 O 0.26159 0.31093 0.27314
 O518 O 0.23044 0.31599 0.24087
 O519 O 0.32098 0.28306 0.24077
 O520 O 0.32788 0.24885 0.21244
 O521 O 0.29272 0.25070 0.30098
 O522 O 0.26031 0.22274 0.30813
 O523 O 0.26032 0.21755 0.17712
 O524 O 0.28673 0.25084 0.17111
 O525 O 0.19805 0.25051 0.20586
 O526 O 0.19257 0.27815 0.23966
 O527 O 0.22662 0.18795 0.23893
 O528 O 0.25821 0.18226 0.26660
 Zr529 Zr 0.25879 0.20719 0.23820
 O530 O 0.28115 0.22746 0.26053
 Zr531 Zr 0.21694 0.24929 0.23832
 O532 O 0.23740 0.27112 0.26114
 Zr533 Zr 0.25901 0.24951 0.19661
 O534 O 0.28104 0.27160 0.21742
 Zr535 Zr 0.26036 0.25008 0.28198
 O536 O 0.23775 0.22805 0.26132
 Zr537 Zr 0.30219 0.25059 0.24009
 O538 O 0.28200 0.22815 0.21736
 Zr539 Zr 0.26015 0.29249 0.24047
 O540 O 0.23788 0.27244 0.21744
 O541 O 0.23673 0.22730 0.21612
 O542 O 0.28249 0.27258 0.26255
 C543 C 0.26071 0.19570 0.18381
 C544 C 0.20486 0.19499 0.24033
 C545 C 0.20497 0.25152 0.18407
 C546 C 0.26122 0.30385 0.29488
 C547 C 0.31454 0.25096 0.29411
 C548 C 0.31408 0.30488 0.24114
 H549 H 0.29139 0.21662 0.26998
 H550 H 0.29093 0.28151 0.20675
 H551 H 0.22650 0.21722 0.20588
 H552 H 0.22671 0.28096 0.27115
 H553 H 0.22062 0.23855 0.30218
 H554 H 0.19428 0.25631 0.27784
 H555 H 0.32562 0.26287 0.20198
 H556 H 0.29912 0.23946 0.17652
 H557 H 0.27284 0.21104 0.30399
 H558 H 0.24666 0.18822 0.27853
 H559 H 0.27151 0.31530 0.20164
 H560 H 0.24916 0.28969 0.17659
 H561 H 0.28080 0.16616 0.23444
 H562 H 0.32173 0.20959 0.23375
 H563 H 0.19679 0.28915 0.22652
 H564 H 0.23560 0.33162 0.24730
 O565 O 0.74967 0.82209 0.22712
 O566 O 0.72219 0.82727 0.26078
 O567 O 0.81212 0.79409 0.26132
 O568 O 0.82161 0.76309 0.28463
 O569 O 0.78379 0.75999 0.19831
 O570 O 0.75096 0.73394 0.19147
 O571 O 0.75068 0.72744 0.32224
 O572 O 0.77877 0.75897 0.32804
 O573 O 0.68950 0.75816 0.29352
 O574 O 0.68270 0.78661 0.26334
 O575 O 0.71891 0.69804 0.26094
 O576 O 0.75190 0.69139 0.23389
 O577 O 0.74945 0.69890 0.29348
 O578 O 0.78069 0.69431 0.26135
 O579 O 0.68988 0.72654 0.26147
 O580 O 0.68223 0.75680 0.23415
 O581 O 0.71837 0.75850 0.32213
 O582 O 0.75048 0.78654 0.32945
 O583 O 0.75004 0.79341 0.19845
 O584 O 0.72414 0.75850 0.19164
 O585 O 0.81264 0.76060 0.22691
 O586 O 0.81856 0.73297 0.26022
 O587 O 0.78310 0.82263 0.26019
 O588 O 0.75185 0.82789 0.28782
 Zr589 Zr 0.75121 0.80296 0.25947
 O590 O 0.72939 0.78217 0.28181
 Zr591 Zr 0.79367 0.76141 0.25928
 O592 O 0.77357 0.73899 0.28185
 Zr593 Zr 0.75152 0.76113 0.21752
 O594 O 0.72975 0.73876 0.23825
 Zr595 Zr 0.75055 0.75957 0.30297
 O596 O 0.77266 0.78217 0.28242
 Zr597 Zr 0.70846 0.75909 0.26121
 O598 O 0.72815 0.78198 0.23836
 Zr599 Zr 0.75089 0.71768 0.26100
 O600 O 0.77293 0.73823 0.23820
 O601 O 0.77353 0.78336 0.23725
 O602 O 0.72852 0.73707 0.28337
 C603 C 0.74915 0.81519 0.20531
 C604 C 0.80497 0.81588 0.26135
 C605 C 0.80566 0.75970 0.20514
 C606 C 0.74980 0.70569 0.31531
 C607 C 0.69652 0.75794 0.31531
 C608 C 0.69700 0.70478 0.26126
 H609 H 0.71912 0.79278 0.29144
 H610 H 0.71967 0.72909 0.22750
 H611 H 0.78361 0.79365 0.22707
 H612 H 0.78437 0.72910 0.29172
 H613 H 0.79029 0.77140 0.32308
 H614 H 0.81657 0.75368 0.29866
 H615 H 0.68584 0.76944 0.22243
 H616 H 0.71325 0.77217 0.19403
 H617 H 0.73805 0.79836 0.32529
 H618 H 0.76322 0.82178 0.29989
 H619 H 0.73974 0.69552 0.22179
 H620 H 0.76197 0.72133 0.19713
 H621 H 0.72793 0.84334 0.25614
 H622 H 0.68805 0.79935 0.25239
 H623 H 0.81400 0.72171 0.24743
 H624 H 0.77552 0.67854 0.26746
 O625 O 0.75051 0.18711 0.78207
 O626 O 0.72392 0.18118 0.74880
 O627 O 0.81248 0.21729 0.74919
 O628 O 0.82202 0.24886 0.72754
 O629 O 0.78223 0.24977 0.81262
 O630 O 0.74824 0.27335 0.82052
 O631 O 0.74947 0.28244 0.68835
 O632 O 0.77723 0.25175 0.68166
 O633 O 0.68865 0.25079 0.71716
 O634 O 0.68115 0.22377 0.74737
 O635 O 0.71793 0.31163 0.74917
 O636 O 0.74734 0.31750 0.77722
 O637 O 0.74832 0.31112 0.71701
 O638 O 0.77930 0.31567 0.74801
 O639 O 0.68912 0.28297 0.74903
 O640 O 0.68243 0.24790 0.77708
 O641 O 0.71727 0.25112 0.68839
 O642 O 0.75059 0.22288 0.68144
 O643 O 0.74950 0.21524 0.81128
 O644 O 0.72169 0.24878 0.81710
 O645 O 0.81151 0.25002 0.78453
 O646 O 0.81666 0.27873 0.75070
 O647 O 0.78435 0.18794 0.74953
 O648 O 0.75275 0.18306 0.72079
 Zr649 Zr 0.75176 0.20678 0.75018
 O650 O 0.72903 0.22739 0.72846
 Zr651 Zr 0.79307 0.24928 0.75168
 O652 O 0.77262 0.27099 0.72870
 Zr653 Zr 0.75050 0.24800 0.79278
 O654 O 0.72893 0.27083 0.77219
 Zr655 Zr 0.74976 0.25031 0.70743
 O656 O 0.77280 0.22839 0.72786
 Zr657 Zr 0.70785 0.25023 0.74925
 O658 O 0.72805 0.22702 0.77129
 Zr659 Zr 0.74977 0.29207 0.74945
 O660 O 0.77171 0.27182 0.77279
 O661 O 0.77328 0.22652 0.77306
 O662 O 0.72751 0.27250 0.72710
 C663 C 0.74944 0.19355 0.80396
 C664 C 0.80605 0.19534 0.74873
 C665 C 0.80417 0.25048 0.80622
 C666 C 0.74859 0.30420 0.69519
 C667 C 0.69545 0.25123 0.69536
 C668 C 0.69610 0.30480 0.74894
 H669 H 0.71885 0.21669 0.71884
 H670 H 0.71926 0.28087 0.78298
 H671 H 0.78354 0.21633 0.78322
 H672 H 0.78331 0.28092 0.71879
 H673 H 0.78975 0.24043 0.68691
 H674 H 0.81617 0.25586 0.71245
 H675 H 0.68430 0.26209 0.78736
 H676 H 0.71052 0.23601 0.81223
 H677 H 0.73712 0.21193 0.68446
 H678 H 0.76528 0.18882 0.70978
 H679 H 0.76152 0.31519 0.78751
 H680 H 0.75816 0.28704 0.81562
 H681 H 0.73068 0.16517 0.75222
 H682 H 0.68859 0.20893 0.75335
 H683 H 0.81267 0.28903 0.76446
 H684 H 0.77305 0.33200 0.74535
 O685 O 0.23977 0.80188 0.78349
 O686 O 0.26859 0.80629 0.75057
 O687 O 0.17807 0.77371 0.74830
 O688 O 0.16910 0.74257 0.72508
 O689 O 0.20584 0.73982 0.81192
 O690 O 0.23910 0.71352 0.81890
 O691 O 0.24108 0.70730 0.68852
 O692 O 0.21247 0.73844 0.68223
 O693 O 0.30123 0.73955 0.71771
 O694 O 0.30630 0.76799 0.75399
 O695 O 0.27204 0.67816 0.74996
 O696 O 0.23875 0.67141 0.77688
 O697 O 0.24201 0.67878 0.71736
 O698 O 0.21034 0.67415 0.74897
 O699 O 0.30074 0.70690 0.74974
 O700 O 0.31001 0.73894 0.77525
 O701 O 0.27278 0.73896 0.68873
 O702 O 0.24023 0.76639 0.68097
 O703 O 0.23967 0.77320 0.81224
 O704 O 0.26556 0.73991 0.81919
 O705 O 0.17740 0.74039 0.78288
 O706 O 0.17215 0.71251 0.74968
 O707 O 0.20688 0.80239 0.74973
 O708 O 0.23835 0.80848 0.72332
 Zr709 Zr 0.23888 0.78285 0.75106
 O710 O 0.26113 0.76233 0.72883
 Zr711 Zr 0.19676 0.74112 0.75076
 O712 O 0.21734 0.71881 0.72850
 Zr713 Zr 0.23832 0.74100 0.79310
 O714 O 0.26065 0.71881 0.77274
 Zr715 Zr 0.24042 0.73950 0.70759
 O716 O 0.21791 0.76199 0.72783
 Zr717 Zr 0.28197 0.73943 0.74996
 O718 O 0.26162 0.76188 0.77247
 Zr719 Zr 0.23997 0.69767 0.74969
 O720 O 0.21739 0.71803 0.77215
 O721 O 0.21645 0.76316 0.77303
 O722 O 0.26246 0.71725 0.72754
 C723 C 0.24034 0.79499 0.80532
 C724 C 0.18507 0.79554 0.74825
 C725 C 0.18408 0.73957 0.80476
 C726 C 0.24203 0.68556 0.69553
 C727 C 0.29453 0.73915 0.69583
 C728 C 0.29387 0.68508 0.74974
 H729 H 0.27116 0.77309 0.71916
 H730 H 0.27053 0.70904 0.78359
 H731 H 0.20618 0.77344 0.78304
 H732 H 0.20677 0.70882 0.71853
 H733 H 0.20069 0.75069 0.68703
 H734 H 0.17429 0.73301 0.71121
 H735 H 0.30433 0.72982 0.78921
 H736 H 0.27822 0.75089 0.81369
 H737 H 0.25237 0.77843 0.68520
 H738 H 0.22804 0.80202 0.71053
 H739 H 0.25101 0.67534 0.78894
 H740 H 0.22783 0.70113 0.81336
 H741 H 0.26314 0.82250 0.75510
 H742 H 0.30584 0.77757 0.73919
 H743 H 0.17660 0.70136 0.76263
 H744 H 0.21572 0.65838 0.74307
 O745 O 0.24799 0.32669 0.73186
 O746 O 0.22096 0.33254 0.76529
 O747 O 0.31044 0.29870 0.76612
 O748 O 0.31997 0.26776 0.78936
 O749 O 0.28198 0.26454 0.70312
 O750 O 0.24892 0.23857 0.69639
 O751 O 0.24877 0.23242 0.82718
 O752 O 0.27662 0.26388 0.83308
 O753 O 0.18764 0.26273 0.79810
 O754 O 0.17997 0.29030 0.76787
 O755 O 0.21736 0.20263 0.76577
 O756 O 0.25058 0.19590 0.73904
 O757 O 0.24759 0.20377 0.79851
 O758 O 0.27910 0.19914 0.76659
 O759 O 0.18827 0.23108 0.76584
 O760 O 0.18086 0.26565 0.73826
 O761 O 0.21638 0.26325 0.82681
 O762 O 0.24850 0.29166 0.83399
 O763 O 0.24804 0.29793 0.70324
 O764 O 0.22208 0.26439 0.69683
 O765 O 0.31084 0.26514 0.73173
 O766 O 0.31670 0.23756 0.76535
 O767 O 0.28148 0.32730 0.76497
 O768 O 0.24999 0.33229 0.79298
 Zr769 Zr 0.24955 0.30771 0.76431
 O770 O 0.22748 0.28698 0.78647
 Zr771 Zr 0.29192 0.26609 0.76414
 O772 O 0.27177 0.24382 0.78680
 Zr773 Zr 0.24978 0.26577 0.72242
 O774 O 0.22805 0.24325 0.74302
 Zr775 Zr 0.24862 0.26444 0.80776
 O776 O 0.27093 0.28690 0.78727
 Zr777 Zr 0.20669 0.26378 0.76584
 O778 O 0.22656 0.28667 0.74330
 Zr779 Zr 0.24922 0.22240 0.76595
 O780 O 0.27121 0.24289 0.74309
 O781 O 0.27182 0.28805 0.74209
 O782 O 0.22670 0.24184 0.78814
 C783 C 0.24729 0.31973 0.71007
 C784 C 0.30333 0.32050 0.76612
 C785 C 0.30385 0.26419 0.70995
 C786 C 0.24789 0.21065 0.82031
 C787 C 0.19457 0.26254 0.81991
 C788 C 0.19544 0.20933 0.76580
 H789 H 0.21712 0.29758 0.79600
 H790 H 0.21831 0.23334 0.73222
 H791 H 0.28189 0.29829 0.73186
 H792 H 0.28254 0.23399 0.79676
 H793 H 0.28828 0.27616 0.82809
 H794 H 0.31473 0.25886 0.80364
 H795 H 0.18352 0.25204 0.72739
 H796 H 0.20958 0.27560 0.70226
 H797 H 0.23570 0.30314 0.83003
 H798 H 0.26187 0.32647 0.80470
 H799 H 0.23848 0.19986 0.72683
 H800 H 0.25999 0.22597 0.70194
 H801 H 0.22712 0.34857 0.76105
 H802 H 0.18665 0.30464 0.76009
 H803 H 0.31237 0.22642 0.75238
 H804 H 0.27400 0.18342 0.77288
 O805 O 0.76546 0.68788 0.70199
 O806 O 0.79264 0.68137 0.73538
 O807 O 0.70357 0.71624 0.73678
 O808 O 0.69422 0.74734 0.75959
 O809 O 0.73245 0.75048 0.67357
 O810 O 0.76574 0.77631 0.66726
 O811 O 0.76582 0.78135 0.79792
 O812 O 0.73786 0.74994 0.80368
 O813 O 0.82691 0.75011 0.76878
 O814 O 0.83410 0.72301 0.73824
 O815 O 0.79775 0.81114 0.73736
 O816 O 0.76494 0.81856 0.71011
 O817 O 0.76703 0.81025 0.76948
 O818 O 0.73596 0.81530 0.73714
 O819 O 0.82649 0.78234 0.73727
 O820 O 0.83343 0.74813 0.70892
 O821 O 0.79814 0.75009 0.79740
 O822 O 0.76574 0.72209 0.80455
 O823 O 0.76590 0.71685 0.67354
 O824 O 0.79236 0.75009 0.66755
 O825 O 0.70365 0.74984 0.70217
 O826 O 0.69811 0.77750 0.73597
 O827 O 0.73214 0.68729 0.73536
 O828 O 0.76371 0.68158 0.76302
 Zr829 Zr 0.76431 0.70651 0.73462
 O830 O 0.78663 0.72678 0.75698
 Zr831 Zr 0.72247 0.74863 0.73466
 O832 O 0.74288 0.77045 0.75750
 Zr833 Zr 0.76460 0.74881 0.69300
 O834 O 0.78660 0.77090 0.71383
 Zr835 Zr 0.76581 0.74941 0.77837
 O836 O 0.74323 0.72739 0.75770
 Zr837 Zr 0.80771 0.74989 0.73654
 O838 O 0.78755 0.72744 0.71380
 Zr839 Zr 0.76566 0.79180 0.73683
 O840 O 0.74343 0.77175 0.71378
 O841 O 0.74228 0.72662 0.71250
 O842 O 0.78797 0.77190 0.75895
 C843 C 0.76624 0.69500 0.68025
 C844 C 0.71038 0.69436 0.73676
 C845 C 0.71060 0.75087 0.68040
 C846 C 0.76662 0.80319 0.79122
 C847 C 0.81997 0.75032 0.79057
 C848 C 0.81958 0.80416 0.73764
 H849 H 0.79685 0.71595 0.76645
 H850 H 0.79651 0.78080 0.70318
 H851 H 0.73205 0.71654 0.70226
 H852 H 0.73218 0.78030 0.76748
 H853 H 0.72605 0.73787 0.79853
 H854 H 0.69974 0.75560 0.77415
 H855 H 0.83120 0.76217 0.69848
 H856 H 0.80473 0.73870 0.67298
 H857 H 0.77830 0.71042 0.80046
 H858 H 0.75218 0.68757 0.77497
 H859 H 0.77716 0.81461 0.69804
 H860 H 0.75485 0.78899 0.67295
 H861 H 0.78632 0.66547 0.73089
 H862 H 0.82726 0.70888 0.73023
 H863 H 0.70232 0.78847 0.72280
 H864 H 0.74110 0.83094 0.74357
 O865 O 0.24976 0.68774 0.28192
 O866 O 0.22317 0.68183 0.24862
 O867 O 0.31175 0.71786 0.24899
 O868 O 0.32138 0.74943 0.22743
 O869 O 0.28157 0.75035 0.31247
 O870 O 0.24757 0.77398 0.32035
 O871 O 0.24886 0.78307 0.18822
 O872 O 0.27663 0.75234 0.18153
 O873 O 0.18802 0.75143 0.21699
 O874 O 0.18049 0.72442 0.24719
 O875 O 0.21736 0.81224 0.24902
 O876 O 0.24674 0.81809 0.27709
 O877 O 0.24774 0.81172 0.21691
 O878 O 0.27872 0.81624 0.24790
 O879 O 0.18853 0.78361 0.24883
 O880 O 0.18175 0.74857 0.27689
 O881 O 0.21666 0.75176 0.18824
 O882 O 0.24993 0.72352 0.18126
 O883 O 0.24878 0.71587 0.31112
 O884 O 0.22104 0.74942 0.31697
 O885 O 0.31084 0.75057 0.28437
 O886 O 0.31602 0.77929 0.25055
 O887 O 0.28359 0.68854 0.24937
 O888 O 0.25203 0.68365 0.22067
 Zr889 Zr 0.25104 0.70739 0.25003
 O890 O 0.22836 0.72802 0.22829
 Zr891 Zr 0.29240 0.74986 0.25152
 O892 O 0.27200 0.77159 0.22855
 Zr893 Zr 0.24983 0.74861 0.29263
 O894 O 0.22829 0.77145 0.27204
 Zr895 Zr 0.24913 0.75093 0.20728
 O896 O 0.27212 0.72898 0.22771
 Zr897 Zr 0.20721 0.75086 0.24909
 O898 O 0.22736 0.72765 0.27115
 Zr899 Zr 0.24917 0.79266 0.24932
 O900 O 0.27108 0.77240 0.27266
 O901 O 0.27258 0.72711 0.27291
 O902 O 0.22689 0.77312 0.22696
 C903 C 0.24868 0.69419 0.30381
 C904 C 0.30528 0.69593 0.24853
 C905 C 0.30350 0.75105 0.30605
 C906 C 0.24800 0.80482 0.19509
 C907 C 0.19484 0.75187 0.19520
 C908 C 0.19554 0.80542 0.24876
 H909 H 0.21818 0.71732 0.21866
 H910 H 0.21862 0.78150 0.28282
 H911 H 0.28283 0.71691 0.28307
 H912 H 0.28270 0.78151 0.21865
 H913 H 0.28911 0.74098 0.18678
 H914 H 0.31555 0.75639 0.21231
 H915 H 0.18365 0.76275 0.28718
 H916 H 0.20983 0.73671 0.31207
 H917 H 0.23649 0.71255 0.18431
 H918 H 0.26451 0.68942 0.20962
 H919 H 0.26092 0.81578 0.28738
 H920 H 0.25758 0.78763 0.31550
 H921 H 0.22989 0.66582 0.25208
 H922 H 0.18788 0.70959 0.25325
 H923 H 0.31206 0.78957 0.26432
 H924 H 0.27249 0.83258 0.24525
 O925 O 0.73527 0.29673 0.28277
 O926 O 0.76238 0.30290 0.24946
 O927 O 0.67327 0.26820 0.24761
 O928 O 0.66434 0.23704 0.22466
 O929 O 0.70149 0.23476 0.31127
 O930 O 0.73457 0.20862 0.31834
 O931 O 0.73684 0.20239 0.18780
 O932 O 0.70835 0.23341 0.18137
 O933 O 0.79695 0.23398 0.21733
 O934 O 0.80400 0.26095 0.24798
 O935 O 0.76741 0.17292 0.24934
 O936 O 0.73404 0.16612 0.27600
 O937 O 0.73763 0.17375 0.21654
 O938 O 0.70573 0.16906 0.24801
 O939 O 0.79613 0.20165 0.24912
 O940 O 0.80296 0.23611 0.27726
 O941 O 0.76853 0.23408 0.18829
 O942 O 0.73594 0.26162 0.18062
 O943 O 0.73537 0.26805 0.31151
 O944 O 0.76129 0.23458 0.31825
 O945 O 0.67295 0.23506 0.28232
 O946 O 0.66790 0.20695 0.24887
 O947 O 0.70190 0.29702 0.24925
 O948 O 0.73358 0.30245 0.22167
 Zr949 Zr 0.73409 0.27779 0.25032
 O950 O 0.75663 0.25726 0.22847
 Zr951 Zr 0.69221 0.23581 0.25012
 O952 O 0.71288 0.21371 0.22775
 Zr953 Zr 0.73390 0.23590 0.29233
 O954 O 0.75612 0.21355 0.27202
 Zr955 Zr 0.73604 0.23450 0.20700
 O956 O 0.71323 0.25677 0.22716
 Zr957 Zr 0.77748 0.23426 0.24937
 O958 O 0.75709 0.25697 0.27163
 Zr959 Zr 0.73541 0.19250 0.24894
 O960 O 0.71293 0.21283 0.27150
 O961 O 0.71183 0.25797 0.27234
 O962 O 0.75798 0.21213 0.22692
 C963 C 0.73601 0.28983 0.30459
 C964 C 0.68014 0.29005 0.24768
 C965 C 0.67970 0.23440 0.30418
 C966 C 0.73779 0.18063 0.19474
 C967 C 0.79028 0.23393 0.19543
 C968 C 0.78923 0.17984 0.24914
 H969 H 0.76693 0.26802 0.21905
 H970 H 0.76589 0.20371 0.28291
 H971 H 0.70159 0.26823 0.28241
 H972 H 0.70235 0.20376 0.21767
 H973 H 0.69640 0.24549 0.18619
 H974 H 0.66984 0.22816 0.21047
 H975 H 0.80067 0.22213 0.28775
 H976 H 0.77393 0.24560 0.31279
 H977 H 0.74819 0.27352 0.18492
 H978 H 0.72193 0.29651 0.20982
 H979 H 0.74609 0.17013 0.28824
 H980 H 0.72351 0.19608 0.31272
 H981 H 0.75603 0.31886 0.25374
 H982 H 0.79695 0.27528 0.25542
 H983 H 0.67204 0.19610 0.26218
 H984 H 0.71109 0.15332 0.24199
 C985 C 0.24637 0.14649 0.10839
 C986 C 0.26820 0.13736 0.09410
 C987 C 0.25975 0.11167 0.09824
 C988 C 0.23791 0.12052 0.11223
 C989 C 0.26112 0.14471 0.13143
 C990 C 0.25267 0.11901 0.13552
 C991 C 0.28298 0.13590 0.11746
 C992 C 0.27449 0.10990 0.12129
 C993 C 0.25845 0.09284 0.08023
 C994 C 0.25679 0.07681 0.06603
 C995 C 0.26145 0.16294 0.15010
 C996 C 0.26131 0.17787 0.16552
 H997 H 0.23479 0.16174 0.10330
 H998 H 0.27457 0.14469 0.07686
 H999 H 0.21936 0.11401 0.10987
 H1000 H 0.24628 0.11166 0.15275
 H1001 H 0.30152 0.14243 0.11985
 H1002 H 0.28606 0.09465 0.12638
 C1003 C 0.77896 0.61981 0.62954
 C1004 C 0.75586 0.60756 0.62069
 C1005 C 0.76430 0.61092 0.59485
 C1006 C 0.78740 0.62290 0.60341
 C1007 C 0.76622 0.64401 0.62795
 C1008 C 0.77468 0.64742 0.60213
 C1009 C 0.74314 0.63201 0.61937
 C1010 C 0.75156 0.63512 0.59327
 C1011 C 0.76263 0.59204 0.57695
 C1012 C 0.76061 0.57597 0.56288
 C1013 C 0.76679 0.66224 0.64658
 C1014 C 0.76678 0.67718 0.66198
 H1015 H 0.79021 0.61371 0.64466
 H1016 H 0.74809 0.59095 0.62813
 H1017 H 0.80558 0.61894 0.59662
 H1018 H 0.78243 0.66405 0.59473
 H1019 H 0.72496 0.63594 0.62614
 H1020 H 0.74030 0.64121 0.57815
 C1021 C 0.76812 0.86921 0.13490
 C1022 C 0.75082 0.86808 0.11341
 C1023 C 0.74658 0.89503 0.11572
 C1024 C 0.76389 0.89641 0.13694
 C1025 C 0.74694 0.86497 0.15173
 C1026 C 0.74269 0.89192 0.15410
 C1027 C 0.72964 0.86360 0.13051
 C1028 C 0.72538 0.89081 0.13253
 C1029 C 0.74679 0.91126 0.09525
 C1030 C 0.74744 0.92409 0.07801
 C1031 C 0.74743 0.84775 0.17138
 C1032 C 0.74810 0.83312 0.18710
 H1033 H 0.78571 0.86015 0.13608
 H1034 H 0.75417 0.85843 0.09647
 H1035 H 0.77798 0.91009 0.13936
 H1036 H 0.73936 0.90152 0.17106
 H1037 H 0.71556 0.84992 0.12808
 H1038 H 0.70780 0.89988 0.13132
 C1039 C 0.26624 0.37329 0.63945
 C1040 C 0.24895 0.37198 0.61796
 C1041 C 0.24475 0.39896 0.62002
 C1042 C 0.26205 0.40051 0.64124
 C1043 C 0.24503 0.36924 0.65630
 C1044 C 0.24083 0.39621 0.65842
 C1045 C 0.22775 0.36769 0.63507
 C1046 C 0.22352 0.39493 0.63685
 C1047 C 0.24502 0.41495 0.59938
 C1048 C 0.24572 0.42754 0.58198
 C1049 C 0.24551 0.35216 0.67605
 C1050 C 0.24619 0.33760 0.69183
 H1051 H 0.28380 0.36421 0.64072
 H1052 H 0.25229 0.36218 0.60110
 H1053 H 0.27615 0.41419 0.64354
 H1054 H 0.23749 0.40596 0.67530
 H1055 H 0.21365 0.35401 0.63276
 H1056 H 0.20596 0.40402 0.63554
 C1057 C 0.75161 0.11257 0.84514
 C1058 C 0.76977 0.10927 0.86573
 C1059 C 0.74909 0.10270 0.88243
 C1060 C 0.73092 0.10570 0.86212
 C1061 C 0.74851 0.13878 0.85246
 C1062 C 0.72782 0.13223 0.86916
 C1063 C 0.76666 0.13576 0.87278
 C1064 C 0.74599 0.12891 0.88974
 C1065 C 0.74978 0.08297 0.89954
 C1066 C 0.75076 0.06733 0.91425
 C1067 C 0.74849 0.15878 0.83565
 C1068 C 0.74877 0.17492 0.82147
 H1069 H 0.75393 0.10608 0.82660
 H1070 H 0.78702 0.09960 0.86447
 H1071 H 0.71626 0.09310 0.85790
 H1072 H 0.71058 0.14191 0.87041
 H1073 H 0.78134 0.14834 0.87701
 H1074 H 0.74368 0.13542 0.90828
 C1075 C 0.24553 0.64232 0.37966
 C1076 C 0.22720 0.62167 0.38007
 C1077 C 0.24786 0.60383 0.38277
 C1078 C 0.26617 0.62419 0.38263
 C1079 C 0.24748 0.63964 0.35249
 C1080 C 0.26813 0.62180 0.35521
 C1081 C 0.22915 0.61929 0.35261
 C1082 C 0.24982 0.60114 0.35560
 C1083 C 0.24844 0.58428 0.40007
 C1084 C 0.24936 0.56881 0.41495
 C1085 C 0.24758 0.65951 0.33556
 C1086 C 0.24794 0.67559 0.32132
 H1087 H 0.24377 0.65945 0.38937
 H1088 H 0.21036 0.62137 0.39046
 H1089 H 0.28142 0.62597 0.39515
 H1090 H 0.28498 0.62209 0.34482
 H1091 H 0.21391 0.61753 0.34008
 H1092 H 0.25158 0.58400 0.34590
 C1093 C 0.26396 0.86408 0.86050
 C1094 C 0.24569 0.88465 0.86312
 C1095 C 0.24471 0.87989 0.89008
 C1096 C 0.26299 0.85961 0.88775
 C1097 C 0.24318 0.84656 0.85715
 C1098 C 0.24219 0.84178 0.88411
 C1099 C 0.22491 0.86686 0.85950
 C1100 C 0.22392 0.86237 0.88673
 C1101 C 0.24534 0.89882 0.90808
 C1102 C 0.24555 0.91482 0.92240
 C1103 C 0.24222 0.82813 0.83866
 C1104 C 0.24138 0.81302 0.82342
 H1105 H 0.28040 0.86461 0.84950
 H1106 H 0.24715 0.90248 0.85467
 H1107 H 0.27865 0.85682 0.89957
 H1108 H 0.24073 0.82394 0.89253
 H1109 H 0.20924 0.86966 0.84769
 H1110 H 0.20747 0.86185 0.89772
 C1111 C 0.74412 0.33685 0.38290
 C1112 C 0.76243 0.35753 0.38319
 C1113 C 0.74210 0.37498 0.38892
 C1114 C 0.72380 0.35462 0.38891
 C1115 C 0.73976 0.34147 0.35623
 C1116 C 0.71944 0.35893 0.36197
 C1117 C 0.75806 0.36184 0.35625
 C1118 C 0.73775 0.37957 0.36225
 C1119 C 0.74321 0.39404 0.40672
 C1120 C 0.74386 0.41019 0.42085
 C1121 C 0.73841 0.32298 0.33786
 C1122 C 0.73730 0.30785 0.32266
 H1123 H 0.74671 0.31906 0.39118
 H1124 H 0.78012 0.35715 0.39212
 H1125 H 0.70974 0.35185 0.40255
 H1126 H 0.70175 0.35933 0.35305
 H1127 H 0.77212 0.36462 0.34261
 H1128 H 0.73514 0.39735 0.35394
 C1129 C 0.13315 0.27409 0.13204
 C1130 C 0.13531 0.27273 0.10452
 C1131 C 0.11525 0.25410 0.10419
 C1132 C 0.11279 0.25547 0.13143
 C1133 C 0.15135 0.25371 0.13423
 C1134 C 0.13127 0.23510 0.13386
 C1135 C 0.15386 0.25233 0.10699
 C1136 C 0.13346 0.23371 0.10638
 C1137 C 0.09473 0.25391 0.08798
 C1138 C 0.07745 0.25327 0.07517
 C1139 C 0.17103 0.25320 0.15145
 C1140 C 0.18677 0.25255 0.16610
 H1141 H 0.13323 0.29069 0.14278
 H1142 H 0.13673 0.28821 0.09228
 H1143 H 0.09569 0.25676 0.14132
 H1144 H 0.12981 0.21961 0.14609
 H1145 H 0.17098 0.25103 0.09714
 H1146 H 0.13337 0.21711 0.09565
 C1147 C 0.63503 0.76974 0.63328
 C1148 C 0.63660 0.77558 0.60632
 C1149 C 0.62053 0.75407 0.60105
 C1150 C 0.61867 0.74824 0.62775
 C1151 C 0.65688 0.75337 0.63075
 C1152 C 0.64079 0.73188 0.62546
 C1153 C 0.65880 0.75920 0.60405
 C1154 C 0.64237 0.73769 0.59851
 C1155 C 0.59983 0.75405 0.58509
 C1156 C 0.58237 0.75356 0.57254
 C1157 C 0.67665 0.75272 0.64784
 C1158 C 0.69242 0.75197 0.66244
 H1159 H 0.63223 0.78290 0.64776
 H1160 H 0.63464 0.79355 0.59827
 H1161 H 0.60195 0.74374 0.63734
 H1162 H 0.64272 0.71390 0.63350
 H1163 H 0.67555 0.76370 0.59451
 H1164 H 0.64515 0.72452 0.58402
 C1165 C 0.10456 0.73827 0.85029
 C1166 C 0.10154 0.71972 0.87057
 C1167 C 0.09802 0.74024 0.88834
 C1168 C 0.10074 0.75878 0.86837
 C1169 C 0.13147 0.73909 0.85552
 C1170 C 0.12792 0.75958 0.87330
 C1171 C 0.12876 0.72055 0.87549
 C1172 C 0.12494 0.74106 0.89353
 C1173 C 0.07988 0.74140 0.90706
 C1174 C 0.06558 0.74294 0.92300
 C1175 C 0.15026 0.73885 0.83741
 C1176 C 0.16575 0.73901 0.82254
 H1177 H 0.09640 0.73712 0.83228
 H1178 H 0.09047 0.70336 0.86966
 H1179 H 0.08900 0.77449 0.86563
 H1180 H 0.13897 0.77595 0.87424
 H1181 H 0.14051 0.70484 0.87822
 H1182 H 0.13313 0.74222 0.91153
 C1183 C 0.60049 0.23403 0.35047
 C1184 C 0.59755 0.21577 0.37102
 C1185 C 0.59447 0.23653 0.38858
 C1186 C 0.59712 0.25479 0.36834
 C1187 C 0.62748 0.23464 0.35534
 C1188 C 0.62436 0.25538 0.37292
 C1189 C 0.62484 0.21637 0.37558
 C1190 C 0.62146 0.23714 0.39341
 C1191 C 0.57661 0.23815 0.40753
 C1192 C 0.56257 0.24009 0.42366
 C1193 C 0.64607 0.23405 0.33703
 C1194 C 0.66144 0.23399 0.32205
 H1195 H 0.59209 0.23274 0.33258
 H1196 H 0.58630 0.19951 0.37046
 H1197 H 0.58551 0.27060 0.36556
 H1198 H 0.63559 0.27165 0.37352
 H1199 H 0.63647 0.20057 0.37835
 H1200 H 0.62989 0.23843 0.41128
 C1201 C 0.88205 0.74525 0.15644
 C1202 C 0.87901 0.73317 0.13178
 C1203 C 0.89018 0.75519 0.11996
 C1204 C 0.89351 0.76726 0.14431
 C1205 C 0.85736 0.75683 0.15342
 C1206 C 0.86854 0.77884 0.14159
 C1207 C 0.85405 0.74477 0.12907
 C1208 C 0.86549 0.76676 0.11697
 C1209 C 0.90809 0.75449 0.10095
 C1210 C 0.92232 0.75423 0.08485
 C1211 C 0.83893 0.75783 0.17191
 C1212 C 0.82372 0.75869 0.18706
 H1213 H 0.88865 0.73641 0.17289
 H1214 H 0.88353 0.71438 0.12756
 H1215 H 0.90994 0.77648 0.15037
 H1216 H 0.86402 0.79763 0.14581
 H1217 H 0.83762 0.73555 0.12299
 H1218 H 0.85887 0.77561 0.10053
 C1219 C 0.35076 0.26501 0.63160
 C1220 C 0.37349 0.28062 0.63047
 C1221 C 0.38826 0.25826 0.62472
 C1222 C 0.36578 0.24264 0.62557
 C1223 C 0.35551 0.26060 0.65822
 C1224 C 0.37027 0.23824 0.65248
 C1225 C 0.37799 0.27623 0.65738
 C1226 C 0.39304 0.25385 0.65133
 C1227 C 0.40612 0.25714 0.60568
 C1228 C 0.42030 0.25649 0.58955
 C1229 C 0.33711 0.26193 0.67672
 C1230 C 0.32191 0.26300 0.69188
 H1231 H 0.33319 0.26962 0.62367
 H1232 H 0.37502 0.29805 0.62123
 H1233 H 0.36095 0.22879 0.61230
 H1234 H 0.36872 0.22081 0.66172
 H1235 H 0.38280 0.29008 0.67066
 H1236 H 0.41062 0.24924 0.65924
 C1237 C 0.84558 0.25544 0.88720
 C1238 C 0.86173 0.23416 0.89431
 C1239 C 0.88279 0.25143 0.89708
 C1240 C 0.86692 0.27272 0.89028
 C1241 C 0.85273 0.25175 0.86102
 C1242 C 0.87379 0.26903 0.86378
 C1243 C 0.86861 0.23048 0.86784
 C1244 C 0.88992 0.24774 0.87089
 C1245 C 0.89996 0.25089 0.91680
 C1246 C 0.91472 0.25002 0.93243
 C1247 C 0.83587 0.25163 0.84102
 C1248 C 0.82168 0.25125 0.82487
 H1249 H 0.82713 0.25861 0.89368
 H1250 H 0.85694 0.21984 0.90709
 H1251 H 0.86639 0.29007 0.89975
 H1252 H 0.87858 0.28334 0.85099
 H1253 H 0.86916 0.21312 0.85838
 H1254 H 0.90836 0.24457 0.86440
 C1255 C 0.34529 0.74909 0.38687
 C1256 C 0.36626 0.73131 0.38986
 C1257 C 0.38268 0.75223 0.39635
 C1258 C 0.36199 0.77001 0.39368
 C1259 C 0.35228 0.75244 0.36060
 C1260 C 0.36869 0.77336 0.36708
 C1261 C 0.37297 0.73467 0.36330
 C1262 C 0.38964 0.75557 0.37007
 C1263 C 0.40005 0.75172 0.41587
 C1264 C 0.41499 0.75087 0.43131
 C1265 C 0.33528 0.75226 0.34074
 C1266 C 0.32102 0.75184 0.32467
 H1267 H 0.32685 0.74641 0.39355
 H1268 H 0.36542 0.71403 0.39946
 H1269 H 0.35766 0.78452 0.40640
 H1270 H 0.36952 0.79064 0.35746
 H1271 H 0.37732 0.72015 0.35059
 H1272 H 0.40808 0.75825 0.36338
 C1273 C 0.12934 0.14451 0.23023
 C1274 C 0.13262 0.11812 0.22285
 C1275 C 0.11977 0.11042 0.24578
 C1276 C 0.11621 0.13654 0.25316
 C1277 C 0.15313 0.14332 0.24382
 C1278 C 0.14029 0.13562 0.26674
 C1279 C 0.15671 0.11720 0.23642
 C1280 C 0.14356 0.10921 0.25937
 C1281 C 0.10083 0.09244 0.24663
 C1282 C 0.08480 0.07812 0.24701
 C1283 C 0.17159 0.16178 0.24262
 C1284 C 0.18675 0.17698 0.24158
 H1285 H 0.12367 0.15921 0.21824
 H1286 H 0.12929 0.11072 0.20481
 H1287 H 0.09936 0.14431 0.26007
 H1288 H 0.14362 0.14303 0.28478
 H1289 H 0.17357 0.10945 0.22951
 H1290 H 0.14921 0.09449 0.27136
 C1291 C 0.65984 0.62054 0.75652
 C1292 C 0.63382 0.62513 0.76465
 C1293 C 0.62488 0.61040 0.74337
 C1294 C 0.65059 0.60552 0.73525
 C1295 C 0.65851 0.64296 0.74082
 C1296 C 0.64957 0.62822 0.71954
 C1297 C 0.63279 0.64782 0.74893
 C1298 C 0.62357 0.63282 0.72768
 C1299 C 0.60575 0.59266 0.74459
 C1300 C 0.58955 0.57859 0.74531
 C1301 C 0.67707 0.66126 0.73935
 C1302 C 0.69227 0.67638 0.73814
 H1303 H 0.67498 0.61571 0.76836
 H1304 H 0.62715 0.62365 0.78321
 H1305 H 0.65771 0.58792 0.72966
 H1306 H 0.65623 0.62971 0.70097
 H1307 H 0.62566 0.66540 0.75452
 H1308 H 0.60845 0.63768 0.71582
 C1309 C 0.86938 0.13279 0.72514
 C1310 C 0.89554 0.13914 0.73154
 C1311 C 0.89691 0.11669 0.74716
 C1312 C 0.87108 0.11006 0.74076
 C1313 C 0.86087 0.14679 0.74707
 C1314 C 0.86228 0.12434 0.76268
 C1315 C 0.88671 0.15343 0.75347
 C1316 C 0.88839 0.13071 0.76908
 C1317 C 0.91663 0.09951 0.74760
 C1318 C 0.93227 0.08475 0.74839
 C1319 C 0.84088 0.16367 0.74732
 C1320 C 0.82473 0.17786 0.74782
 H1321 H 0.86132 0.13380 0.70708
 H1322 H 0.90943 0.14505 0.71877
 H1323 H 0.86487 0.09204 0.73552
 H1324 H 0.84839 0.11841 0.77546
 H1325 H 0.89291 0.17145 0.75872
 H1326 H 0.89643 0.12970 0.78715
 C1327 C 0.36677 0.63139 0.22561
 C1328 C 0.39333 0.63821 0.22927
 C1329 C 0.39602 0.61733 0.24678
 C1330 C 0.36978 0.61024 0.24312
 C1331 C 0.36002 0.64743 0.24673
 C1332 C 0.36274 0.62654 0.26423
 C1333 C 0.38625 0.65453 0.25040
 C1334 C 0.38925 0.63337 0.26790
 C1335 C 0.41566 0.60011 0.24721
 C1336 C 0.43119 0.58528 0.24801
 C1337 C 0.34006 0.66428 0.24703
 C1338 C 0.32392 0.67846 0.24757
 H1339 H 0.35728 0.63075 0.20824
 H1340 H 0.40615 0.64282 0.21493
 H1341 H 0.36324 0.59182 0.24012
 H1342 H 0.34993 0.62191 0.27858
 H1343 H 0.39278 0.67295 0.25340
 H1344 H 0.39873 0.63402 0.28527
 C1345 C 0.13325 0.86735 0.72502
 C1346 C 0.10570 0.86515 0.72611
 C1347 C 0.10515 0.88518 0.74475
 C1348 C 0.13243 0.88768 0.74364
 C1349 C 0.13528 0.84919 0.74543
 C1350 C 0.13470 0.86924 0.76405
 C1351 C 0.10801 0.84664 0.74654
 C1352 C 0.10719 0.86702 0.76516
 C1353 C 0.08886 0.90564 0.74480
 C1354 C 0.07596 0.92284 0.74534
 C1355 C 0.15253 0.82953 0.74612
 C1356 C 0.16716 0.81379 0.74697
 H1357 H 0.14416 0.86728 0.70851
 H1358 H 0.09359 0.86370 0.71051
 H1359 H 0.14232 0.90477 0.74245
 H1360 H 0.14680 0.87073 0.77966
 H1361 H 0.09816 0.82954 0.74774
 H1362 H 0.09629 0.86709 0.78167
 C1363 C 0.61216 0.34911 0.26438
 C1364 C 0.61959 0.37565 0.26346
 C1365 C 0.60077 0.37996 0.24398
 C1366 C 0.59306 0.35372 0.24489
 C1367 C 0.63047 0.34366 0.24477
 C1368 C 0.61167 0.34793 0.22527
 C1369 C 0.63813 0.36991 0.24387
 C1370 C 0.61909 0.37451 0.22437
 C1371 C 0.58483 0.40064 0.24399
 C1372 C 0.57230 0.41809 0.24452
 C1373 C 0.64757 0.32393 0.24552
 C1374 C 0.66218 0.30819 0.24639
 H1375 H 0.60950 0.33844 0.28083
 H1376 H 0.62269 0.38727 0.27916
 H1377 H 0.57433 0.34732 0.24529
 H1378 H 0.60861 0.33628 0.20958
 H1379 H 0.65685 0.37636 0.24347
 H1380 H 0.62176 0.38518 0.20792
 C1381 C 0.85581 0.88968 0.24515
 C1382 C 0.86228 0.90626 0.26626
 C1383 C 0.88885 0.90166 0.26133
 C1384 C 0.88265 0.88537 0.24022
 C1385 C 0.85593 0.86831 0.26229
 C1386 C 0.88250 0.86375 0.25737
 C1387 C 0.86209 0.88458 0.28343
 C1388 C 0.88897 0.88030 0.27848
 C1389 C 0.90760 0.91978 0.26026
 C1390 C 0.92356 0.93409 0.25877
 C1391 C 0.83775 0.84958 0.26241
 C1392 C 0.82282 0.83414 0.26211
 H1393 H 0.84198 0.89331 0.23143
 H1394 H 0.85418 0.92394 0.26991
 H1395 H 0.89128 0.88590 0.22243
 H1396 H 0.89062 0.84608 0.25370
 H1397 H 0.85344 0.88403 0.30121
 H1398 H 0.90280 0.87666 0.29219
 C1399 C 0.37683 0.37284 0.78258
 C1400 C 0.39224 0.37877 0.76047
 C1401 C 0.38792 0.40543 0.76499
 C1402 C 0.37279 0.39979 0.78709
 C1403 C 0.35459 0.37254 0.76654
 C1404 C 0.35022 0.39919 0.77106
 C1405 C 0.36975 0.37821 0.74447
 C1406 C 0.36569 0.40512 0.74895
 C1407 C 0.40694 0.42321 0.76352
 C1408 C 0.42314 0.43716 0.76167
 C1409 C 0.33624 0.35402 0.76692
 C1410 C 0.32122 0.33869 0.76677
 H1411 H 0.38120 0.35934 0.79639
 H1412 H 0.40973 0.37056 0.75610
 H1413 H 0.37426 0.40890 0.80459
 H1414 H 0.33272 0.40736 0.77543
 H1415 H 0.36831 0.36912 0.72695
 H1416 H 0.36131 0.41861 0.73513
 C1417 C 0.14614 0.24362 0.89516
 C1418 C 0.13506 0.26491 0.90886
 C1419 C 0.11018 0.25422 0.90473
 C1420 C 0.12094 0.23292 0.89133
 C1421 C 0.14333 0.25765 0.87179
 C1422 C 0.11844 0.24697 0.86768
 C1423 C 0.13256 0.27894 0.88519
 C1424 C 0.10740 0.26824 0.88134
 C1425 C 0.09125 0.25266 0.92262
 C1426 C 0.07510 0.25181 0.93674
 C1427 C 0.16161 0.25960 0.85328
 C1428 C 0.17662 0.26108 0.83800
 H1429 H 0.16230 0.23352 0.90061
 H1430 H 0.14168 0.27224 0.92601
 H1431 H 0.11597 0.21398 0.89408
 H1432 H 0.11181 0.23964 0.85054
 H1433 H 0.13753 0.29789 0.88244
 H1434 H 0.09126 0.27834 0.87586
 C1435 C 0.61877 0.75053 0.36255
 C1436 C 0.61783 0.73145 0.38249
 C1437 C 0.61259 0.75118 0.40071
 C1438 C 0.61325 0.77024 0.38103
 C1439 C 0.64552 0.75386 0.36748
 C1440 C 0.64027 0.77359 0.38570
 C1441 C 0.64489 0.73479 0.38714
 C1442 C 0.63933 0.75451 0.40566
 C1443 C 0.59381 0.75007 0.41878
 C1444 C 0.57781 0.74963 0.43309
 C1445 C 0.66370 0.75544 0.34884
 C1446 C 0.67863 0.75668 0.33348
 H1447 H 0.61051 0.74892 0.34463
 H1448 H 0.60841 0.71409 0.38140
 H1449 H 0.60002 0.78481 0.37873
 H1450 H 0.64969 0.79095 0.38679
 H1451 H 0.65812 0.72022 0.38941
 H1452 H 0.64757 0.75612 0.42360
 C1453 C 0.86210 0.75768 0.87023
 C1454 C 0.87830 0.73688 0.87842
 C1455 C 0.89923 0.75440 0.88063
 C1456 C 0.88326 0.77523 0.87272
 C1457 C 0.86954 0.75285 0.84432
 C1458 C 0.89046 0.77040 0.84649
 C1459 C 0.88551 0.73203 0.85224
 C1460 C 0.90672 0.74957 0.85475
 C1461 C 0.91518 0.75490 0.90131
 C1462 C 0.92772 0.75486 0.91878
 C1463 C 0.85246 0.75188 0.82458
 C1464 C 0.83789 0.75109 0.80880
 H1465 H 0.84358 0.76100 0.87638
 H1466 H 0.87347 0.72311 0.89178
 H1467 H 0.88252 0.79299 0.88137
 H1468 H 0.89525 0.78416 0.83311
 H1469 H 0.88624 0.71426 0.84360
 H1470 H 0.92525 0.74625 0.84863
 C1471 C 0.35705 0.25289 0.37403
 C1472 C 0.37691 0.23434 0.37894
 C1473 C 0.39447 0.25480 0.38368
 C1474 C 0.37483 0.27337 0.37906
 C1475 C 0.36441 0.25334 0.34766
 C1476 C 0.38195 0.27383 0.35237
 C1477 C 0.38404 0.23478 0.35228
 C1478 C 0.40188 0.25526 0.35732
 C1479 C 0.41070 0.25527 0.40417
 C1480 C 0.42350 0.25525 0.42146
 C1481 C 0.34716 0.25243 0.32804
 C1482 C 0.33251 0.25169 0.31232
 H1483 H 0.33843 0.25189 0.38070
 H1484 H 0.37501 0.21810 0.39009
 H1485 H 0.37122 0.28925 0.39028
 H1486 H 0.38383 0.29006 0.34121
 H1487 H 0.38763 0.21890 0.34106
 H1488 H 0.42051 0.25626 0.35069
 C1489 C 0.11916 0.77086 0.14782
 C1490 C 0.12129 0.77596 0.12074
 C1491 C 0.10480 0.75469 0.11579
 C1492 C 0.10235 0.74958 0.14257
 C1493 C 0.14068 0.75396 0.14603
 C1494 C 0.12418 0.73269 0.14105
 C1495 C 0.14313 0.75906 0.11924
 C1496 C 0.12633 0.73780 0.11402
 C1497 C 0.08514 0.75460 0.09857
 C1498 C 0.06953 0.75396 0.08380
 C1499 C 0.16052 0.75330 0.16303
 C1500 C 0.17648 0.75264 0.17741
 H1501 H 0.11647 0.78446 0.16192
 H1502 H 0.11985 0.79377 0.11222
 H1503 H 0.08537 0.74571 0.15197
 H1504 H 0.12561 0.71488 0.14956
 H1505 H 0.16011 0.76293 0.10984
 H1506 H 0.12905 0.72419 0.09993
 C1507 C 0.61914 0.26977 0.64898
 C1508 C 0.62085 0.27572 0.62204
 C1509 C 0.60475 0.25424 0.61664
 C1510 C 0.60274 0.24830 0.64329
 C1511 C 0.64101 0.25340 0.64646
 C1512 C 0.62490 0.23194 0.64104
 C1513 C 0.64303 0.25934 0.61981
 C1514 C 0.62663 0.23788 0.61414
 C1515 C 0.58484 0.25422 0.59969
 C1516 C 0.56896 0.25363 0.58520
 C1517 C 0.66100 0.25270 0.66329
 C1518 C 0.67705 0.25201 0.67759
 H1519 H 0.61632 0.28290 0.66350
 H1520 H 0.61892 0.29373 0.61407
 H1521 H 0.58596 0.24379 0.65276
 H1522 H 0.62681 0.21392 0.64899
 H1523 H 0.65981 0.26385 0.61034
 H1524 H 0.62947 0.22475 0.59963
 C1525 C 0.86771 0.22457 0.14734
 C1526 C 0.86613 0.21285 0.12239
 C1527 C 0.87586 0.23589 0.11126
 C1528 C 0.87772 0.24761 0.13594
 C1529 C 0.84232 0.23437 0.14400
 C1530 C 0.85206 0.25739 0.13286
 C1531 C 0.84042 0.22263 0.11933
 C1532 C 0.85046 0.24569 0.10791
 C1533 C 0.89489 0.23725 0.09343
 C1534 C 0.91099 0.23893 0.07930
 C1535 C 0.82376 0.23390 0.16237
 C1536 C 0.80851 0.23380 0.17751
 H1537 H 0.87461 0.21589 0.16376
 H1538 H 0.87212 0.19454 0.11786
 H1539 H 0.89326 0.25791 0.14258
 H1540 H 0.84610 0.27571 0.13737
 H1541 H 0.82485 0.21234 0.11272
 H1542 H 0.84357 0.25437 0.09150
 C1543 C 0.36951 0.72442 0.64518
 C1544 C 0.36584 0.71744 0.61870
 C1545 C 0.37964 0.73985 0.61119
 C1546 C 0.38360 0.74682 0.63738
 C1547 C 0.34635 0.73905 0.64420
 C1548 C 0.36017 0.76144 0.63667
 C1549 C 0.34235 0.73207 0.61801
 C1550 C 0.35647 0.75449 0.61021
 C1551 C 0.39852 0.74074 0.59318
 C1552 C 0.41449 0.74197 0.57885
 C1553 C 0.32790 0.73889 0.66268
 C1554 C 0.31272 0.73896 0.67787
 H1555 H 0.37468 0.71206 0.65977
 H1556 H 0.36836 0.69936 0.61109
 H1557 H 0.40077 0.75290 0.64516
 H1558 H 0.35766 0.77953 0.64426
 H1559 H 0.32517 0.72600 0.61026
 H1560 H 0.35131 0.76684 0.59562
 C1561 C 0.24549 0.13079 0.86243
 C1562 C 0.26424 0.12562 0.88203
 C1563 C 0.24390 0.12090 0.89975
 C1564 C 0.22513 0.12579 0.88037
 C1565 C 0.24528 0.15710 0.86999
 C1566 C 0.22492 0.15241 0.88769
 C1567 C 0.26406 0.15222 0.88937
 C1568 C 0.24369 0.14719 0.90736
 C1569 C 0.24353 0.10028 0.91575
 C1570 C 0.24368 0.08287 0.92831
 C1571 C 0.24621 0.17677 0.85287
 C1572 C 0.24702 0.19249 0.83826
 H1573 H 0.24625 0.12426 0.84377
 H1574 H 0.28041 0.11438 0.87988
 H1575 H 0.20912 0.11471 0.87685
 H1576 H 0.20876 0.16367 0.88981
 H1577 H 0.28007 0.16330 0.89287
 H1578 H 0.24293 0.15368 0.92603
 C1579 C 0.74231 0.65448 0.39185
 C1580 C 0.72476 0.63318 0.39025
 C1581 C 0.74565 0.61607 0.39499
 C1582 C 0.76318 0.63701 0.39686
 C1583 C 0.74717 0.65209 0.36500
 C1584 C 0.76804 0.63496 0.36976
 C1585 C 0.72964 0.63114 0.36314
 C1586 C 0.75051 0.61373 0.36814
 C1587 C 0.74515 0.59557 0.41117
 C1588 C 0.74516 0.57829 0.42394
 C1589 C 0.74814 0.67173 0.34782
 C1590 C 0.74895 0.68746 0.33321
 H1591 H 0.73895 0.67147 0.40139
 H1592 H 0.70696 0.63223 0.39885
 H1593 H 0.77696 0.63920 0.41092
 H1594 H 0.78584 0.63589 0.36116
 H1595 H 0.71586 0.62894 0.34908
 H1596 H 0.75386 0.59676 0.35855
 C1597 C 0.73035 0.12968 0.11941
 C1598 C 0.75386 0.12212 0.10707
 C1599 C 0.74687 0.09588 0.11050
 C1600 C 0.72338 0.10317 0.12257
 C1601 C 0.74321 0.12881 0.14358
 C1602 C 0.73622 0.10258 0.14704
 C1603 C 0.76671 0.12153 0.13152
 C1604 C 0.75976 0.09499 0.13466
 C1605 C 0.74854 0.07799 0.09162
 C1606 C 0.74945 0.06385 0.07552
 C1607 C 0.74111 0.14731 0.16182
 C1608 C 0.73947 0.16256 0.17681
 H1609 H 0.71824 0.14414 0.11334
 H1610 H 0.76115 0.12994 0.09042
 H1611 H 0.70559 0.09540 0.11869
 H1612 H 0.72893 0.09478 0.16370
 H1613 H 0.78449 0.12932 0.13540
 H1614 H 0.77186 0.08052 0.14071
 C1615 C 0.26162 0.61063 0.64687
 C1616 C 0.24025 0.59583 0.63746
 C1617 C 0.24909 0.59994 0.61188
 C1618 C 0.27047 0.61444 0.62097
 C1619 C 0.24639 0.63331 0.64464
 C1620 C 0.25523 0.63741 0.61906
 C1621 C 0.22502 0.61881 0.63554
 C1622 C 0.23387 0.62264 0.60969
 C1623 C 0.25018 0.58177 0.59321
 C1624 C 0.25060 0.56737 0.57730
 C1625 C 0.24477 0.65201 0.66275
 C1626 C 0.24344 0.66739 0.67765
 H1627 H 0.27302 0.60592 0.66238
 H1628 H 0.23413 0.57852 0.64482
 H1629 H 0.28917 0.61241 0.61479
 H1630 H 0.26134 0.65472 0.61169
 H1631 H 0.20631 0.62083 0.64172
 H1632 H 0.22247 0.62738 0.59420
 C1633 C 0.78563 0.87428 0.84623
 C1634 C 0.76551 0.89303 0.84917
 C1635 C 0.76519 0.88793 0.87608
 C1636 C 0.78529 0.86947 0.87345
 C1637 C 0.76659 0.85488 0.84289
 C1638 C 0.76626 0.84980 0.86979
 C1639 C 0.74650 0.87334 0.84553
 C1640 C 0.74617 0.86852 0.87270
 C1641 C 0.76385 0.90593 0.89492
 C1642 C 0.76216 0.92019 0.91088
 C1643 C 0.76696 0.83637 0.82450
 C1644 C 0.76694 0.82115 0.80937
 H1645 H 0.80188 0.87641 0.83513
 H1646 H 0.76520 0.91101 0.84091
 H1647 H 0.80124 0.86811 0.88513
 H1648 H 0.76657 0.83183 0.87807
 H1649 H 0.73054 0.87472 0.83386
 H1650 H 0.72991 0.86635 0.88378
 C1651 C 0.26569 0.35078 0.37331
 C1652 C 0.28254 0.37262 0.37441
 C1653 C 0.26093 0.38860 0.37982
 C1654 C 0.24409 0.36703 0.37900
 C1655 C 0.26174 0.35552 0.34662
 C1656 C 0.24014 0.37151 0.35205
 C1657 C 0.27860 0.37708 0.34741
 C1658 C 0.25698 0.39336 0.35314
 C1659 C 0.25999 0.40666 0.39865
 C1660 C 0.25869 0.42103 0.41456
 C1661 C 0.26184 0.33701 0.32821
 C1662 C 0.26166 0.32180 0.31305
 H1663 H 0.26926 0.33308 0.38141
 H1664 H 0.29998 0.37329 0.38380
 H1665 H 0.22987 0.36308 0.39219
 H1666 H 0.22270 0.37084 0.34267
 H1667 H 0.29281 0.38100 0.33421
 H1668 H 0.25340 0.41106 0.34504
 C1669 C 0.22596 0.87264 0.13697
 C1670 C 0.24535 0.89163 0.13193
 C1671 C 0.24500 0.88452 0.10547
 C1672 C 0.22560 0.86581 0.11020
 C1673 C 0.24575 0.85414 0.14117
 C1674 C 0.24539 0.84702 0.11472
 C1675 C 0.26513 0.87286 0.13643
 C1676 C 0.26478 0.86601 0.10969
 C1677 C 0.24507 0.90181 0.08592
 C1678 C 0.24570 0.91663 0.07039
 C1679 C 0.24643 0.83707 0.16091
 C1680 C 0.24714 0.82264 0.17680
 H1681 H 0.21003 0.87519 0.14844
 H1682 H 0.24532 0.91018 0.13877
 H1683 H 0.20936 0.86308 0.09918
 H1684 H 0.24543 0.82846 0.10789
 H1685 H 0.28137 0.87560 0.14743
 H1686 H 0.28071 0.86345 0.09824
 C1687 C 0.76750 0.35780 0.62421
 C1688 C 0.75039 0.35623 0.60256
 C1689 C 0.74554 0.38307 0.60478
 C1690 C 0.76265 0.38489 0.62614
 C1691 C 0.74631 0.35318 0.64092
 C1692 C 0.74146 0.38003 0.64315
 C1693 C 0.72918 0.35135 0.61958
 C1694 C 0.72433 0.37848 0.62149
 C1695 C 0.74562 0.40005 0.58493
 C1696 C 0.74628 0.41456 0.56911
 C1697 C 0.74700 0.33632 0.66086
 C1698 C 0.74771 0.32199 0.67685
 H1699 H 0.78528 0.34914 0.62556
 H1700 H 0.75404 0.34663 0.58566
 H1701 H 0.77644 0.39886 0.62861
 H1702 H 0.73781 0.38963 0.66005
 H1703 H 0.71540 0.33737 0.61713
 H1704 H 0.70656 0.38714 0.62012
 C1705 C 0.12177 0.15831 0.74858
 C1706 C 0.12635 0.13202 0.74157
 C1707 C 0.11114 0.12402 0.76289
 C1708 C 0.10628 0.15003 0.76989
 C1709 C 0.14393 0.15746 0.76472
 C1710 C 0.12874 0.14949 0.78606
 C1711 C 0.14876 0.13145 0.75772
 C1712 C 0.13330 0.12318 0.77903
 C1713 C 0.09330 0.10504 0.76138
 C1714 C 0.07918 0.08896 0.75960
 C1715 C 0.16233 0.17596 0.76539
 C1716 C 0.17749 0.19115 0.76568
 H1717 H 0.11725 0.17296 0.73605
 H1718 H 0.12517 0.12465 0.72325
 H1719 H 0.08861 0.15745 0.77489
 H1720 H 0.12996 0.15688 0.80437
 H1721 H 0.16642 0.12401 0.75272
 H1722 H 0.13783 0.10852 0.79156
 C1723 C 0.64629 0.62961 0.27488
 C1724 C 0.61992 0.63319 0.28240
 C1725 C 0.61195 0.62006 0.25973
 C1726 C 0.63804 0.61620 0.25221
 C1727 C 0.64516 0.65314 0.26090
 C1728 C 0.63717 0.63999 0.23825
 C1729 C 0.61909 0.65703 0.26843
 C1730 C 0.61083 0.64359 0.24576
 C1731 C 0.59380 0.60130 0.25863
 C1732 C 0.57936 0.58546 0.25724
 C1733 C 0.66374 0.67150 0.26125
 C1734 C 0.67900 0.68662 0.26133
 H1735 H 0.66108 0.62406 0.28684
 H1736 H 0.61261 0.63020 0.30054
 H1737 H 0.64564 0.59920 0.24553
 H1738 H 0.64447 0.64296 0.22011
 H1739 H 0.61150 0.67404 0.27512
 H1740 H 0.59604 0.64915 0.23379
 C1741 C 0.14548 0.87877 0.22772
 C1742 C 0.11792 0.87646 0.22723
 C1743 C 0.11633 0.89554 0.24679
 C1744 C 0.14360 0.89817 0.24728
 C1745 C 0.14645 0.85959 0.24726
 C1746 C 0.14485 0.87868 0.26681
 C1747 C 0.11919 0.85697 0.24677
 C1748 C 0.11733 0.87634 0.26632
 C1749 C 0.09917 0.91521 0.24700
 C1750 C 0.08444 0.93083 0.24772
 C1751 C 0.16339 0.83973 0.24774
 C1752 C 0.17775 0.82376 0.24823
 H1753 H 0.15725 0.87951 0.21183
 H1754 H 0.10668 0.87581 0.21093
 H1755 H 0.15343 0.91532 0.24747
 H1756 H 0.15608 0.87933 0.28311
 H1757 H 0.10935 0.83982 0.24658
 H1758 H 0.10557 0.87559 0.28221
 C1759 C 0.62576 0.36174 0.76467
 C1760 C 0.63259 0.38821 0.76839
 C1761 C 0.61680 0.39501 0.74703
 C1762 C 0.60971 0.36883 0.74330
 C1763 C 0.64691 0.35901 0.74750
 C1764 C 0.63113 0.36580 0.72612
 C1765 C 0.65400 0.38519 0.75122
 C1766 C 0.63794 0.39230 0.72984
 C1767 C 0.59971 0.41480 0.74721
 C1768 C 0.58512 0.43058 0.74790
 C1769 C 0.66388 0.33913 0.74797
 C1770 C 0.67827 0.32315 0.74844
 H1771 H 0.62090 0.34897 0.77898
 H1772 H 0.63304 0.39766 0.78576
 H1773 H 0.59129 0.36232 0.74003
 H1774 H 0.63068 0.35633 0.70876
 H1775 H 0.67242 0.39169 0.75450
 H1776 H 0.64279 0.40508 0.71554
 C1777 C 0.85485 0.11939 0.26956
 C1778 C 0.85486 0.09476 0.25709
 C1779 C 0.87931 0.10064 0.24623
 C1780 C 0.87958 0.12500 0.25869
 C1781 C 0.84297 0.13028 0.24739
 C1782 C 0.86743 0.13612 0.23654
 C1783 C 0.84264 0.10593 0.23490
 C1784 C 0.86745 0.11152 0.22404
 C1785 C 0.90002 0.08473 0.24591
 C1786 C 0.91752 0.07226 0.24607
 C1787 C 0.82322 0.14735 0.24813
 C1788 C 0.80744 0.16192 0.24868
 H1789 H 0.84944 0.12282 0.28828
 H1790 H 0.84994 0.07756 0.26552
 H1791 H 0.89500 0.13267 0.26846
 H1792 H 0.87238 0.15331 0.22810
 H1793 H 0.82720 0.09830 0.22514
 H1794 H 0.87286 0.10810 0.20533
 C1795 C 0.35292 0.61841 0.72711
 C1796 C 0.37961 0.62538 0.72883
 C1797 C 0.38350 0.60513 0.74687
 C1798 C 0.35712 0.59787 0.74516
 C1799 C 0.34749 0.63524 0.74801
 C1800 C 0.35136 0.61499 0.76606
 C1801 C 0.37388 0.64245 0.74971
 C1802 C 0.37804 0.62198 0.76775
 C1803 C 0.40397 0.58887 0.74654
 C1804 C 0.42123 0.57602 0.74664
 C1805 C 0.32785 0.65249 0.74872
 C1806 C 0.31211 0.66714 0.74927
 H1807 H 0.34235 0.61713 0.71041
 H1808 H 0.39144 0.62948 0.71350
 H1809 H 0.35047 0.57935 0.74327
 H1810 H 0.33953 0.61092 0.78138
 H1811 H 0.38057 0.66097 0.75160
 H1812 H 0.38859 0.62328 0.78446
 C1813 C 0.87303 0.87717 0.72536
 C1814 C 0.87763 0.89297 0.74749
 C1815 C 0.90454 0.88840 0.74481
 C1816 C 0.90020 0.87287 0.72269
 C1817 C 0.87154 0.85530 0.74175
 C1818 C 0.89844 0.85069 0.73907
 C1819 C 0.87588 0.87083 0.76387
 C1820 C 0.90307 0.86654 0.76122
 C1821 C 0.92244 0.90730 0.74621
 C1822 C 0.93657 0.92342 0.74695
 C1823 C 0.85301 0.83705 0.74005
 C1824 C 0.83770 0.82207 0.73879
 H1825 H 0.86047 0.88134 0.71061
 H1826 H 0.86929 0.91057 0.75099
 H1827 H 0.91043 0.87391 0.70579
 H1828 H 0.90676 0.83308 0.73557
 H1829 H 0.86564 0.86979 0.78077
 H1830 H 0.91564 0.86239 0.77597
 C1831 C 0.38765 0.35504 0.26193
 C1832 C 0.40439 0.36229 0.24118
 C1833 C 0.39979 0.38860 0.24712
 C1834 C 0.38335 0.38166 0.26788
 C1835 C 0.36636 0.35585 0.24465
 C1836 C 0.36178 0.38217 0.25059
 C1837 C 0.38280 0.36279 0.22389
 C1838 C 0.37849 0.38938 0.22985
 C1839 C 0.41800 0.40726 0.24816
 C1840 C 0.43245 0.42313 0.24859
 C1841 C 0.34764 0.33773 0.24323
 C1842 C 0.33225 0.32280 0.24215
 H1843 H 0.39118 0.34070 0.27512
 H1844 H 0.42211 0.35432 0.23735
 H1845 H 0.38380 0.38961 0.28599
 H1846 H 0.34406 0.39015 0.25442
 H1847 H 0.38235 0.35485 0.20578
 H1848 H 0.37493 0.40372 0.21666
   
