data_POSCAR
  _audit_creation_date              2014-09-24
  _audit_creation_method            'ToBaCCo'
  _symmetry_space_group_name_H-M    'P1'
  _symmetry_Int_Tables_number       1
  _symmetry_cell_setting            triclinic
  loop_
  _symmetry_equiv_pos_as_xyz
 x,y,z
_cell_length_a 94.6224
_cell_length_b 94.3654
_cell_length_c 94.5126
_cell_angle_alpha 89.973800
_cell_angle_beta 90.036900
_cell_angle_gamma 90.042300
loop_
  _atom_site_label
  _atom_site_type_symbol
  _atom_site_fract_x
  _atom_site_fract_y
  _atom_site_fract_z
C1 C 0.32088 0.44771 0.92961
 C2 C 0.31469 0.45366 0.91749
 C3 C 0.30244 0.44768 0.91150
 C4 C 0.29630 0.43573 0.91795
 C5 C 0.30237 0.42967 0.93008
 C6 C 0.31472 0.43567 0.93592
 C7 C 0.33329 0.45349 0.93535
 C8 C 0.33978 0.44735 0.94732
 C9 C 0.33341 0.43538 0.95359
 C10 C 0.32100 0.42950 0.94796
 C11 C 0.31494 0.41736 0.95404
 C12 C 0.30270 0.41122 0.94821
 C13 C 0.29643 0.41754 0.93627
 H14 H 0.31955 0.46285 0.91263
 H15 H 0.28688 0.43099 0.91345
 H16 H 0.33795 0.46270 0.93031
 H17 H 0.33816 0.43044 0.96280
 H18 H 0.31990 0.41261 0.96322
 H19 H 0.28701 0.41292 0.93164
 C20 C 0.44571 0.82325 0.42755
 C21 C 0.45170 0.83541 0.43364
 C22 C 0.44567 0.84172 0.44575
 C23 C 0.43355 0.83542 0.45178
 C24 C 0.42746 0.82326 0.44580
 C25 C 0.43354 0.81716 0.43363
 C26 C 0.45159 0.81723 0.41532
 C27 C 0.44543 0.80521 0.40901
 C28 C 0.43334 0.79915 0.41523
 C29 C 0.42735 0.80506 0.42745
 C30 C 0.41512 0.79916 0.43344
 C31 C 0.40891 0.80524 0.44552
 C32 C 0.41523 0.81725 0.45168
 H33 H 0.46101 0.84002 0.42878
 H34 H 0.42869 0.84003 0.46109
 H35 H 0.46089 0.82203 0.41065
 H36 H 0.42846 0.78991 0.41048
 H37 H 0.41037 0.78992 0.42856
 H38 H 0.41056 0.82206 0.46097
 C39 C 0.94591 0.92755 0.82309
 C40 C 0.95176 0.91533 0.81698
 C41 C 0.94565 0.90912 0.80485
 C42 C 0.93361 0.91556 0.79881
 C43 C 0.92767 0.92777 0.80482
 C44 C 0.93382 0.93378 0.81701
 C45 C 0.95188 0.93347 0.83534
 C46 C 0.94589 0.94557 0.84173
 C47 C 0.93385 0.95176 0.83544
 C48 C 0.92779 0.94594 0.82320
 C49 C 0.91564 0.95199 0.81719
 C50 C 0.90935 0.94601 0.80509
 C51 C 0.91552 0.93393 0.79893
 H52 H 0.96101 0.91062 0.82184
 H53 H 0.92870 0.91102 0.78949
 H54 H 0.96113 0.92850 0.83994
 H55 H 0.92903 0.96107 0.84012
 H56 H 0.91101 0.96128 0.82207
 H57 H 0.91080 0.92919 0.78961
 C58 C 0.44611 -0.07238 0.32219
 C59 C 0.45204 -0.08453 0.31606
 C60 C 0.44594 -0.09074 0.30397
 C61 C 0.43385 -0.08448 0.29795
 C62 C 0.42780 -0.07232 0.30396
 C63 C 0.43393 -0.06626 0.31614
 C64 C 0.45203 -0.06642 0.33443
 C65 C 0.44591 -0.05442 0.34080
 C66 C 0.43382 -0.04832 0.33461
 C67 C 0.42778 -0.05417 0.32238
 C68 C 0.41554 -0.04826 0.31643
 C69 C 0.40928 -0.05431 0.30434
 C70 C 0.41556 -0.06630 0.29813
 H71 H 0.46134 -0.08924 0.32083
 H72 H 0.42901 -0.08914 0.28865
 H73 H 0.46133 -0.07125 0.33907
 H74 H 0.42897 -0.03910 0.33941
 H75 H 0.41082 -0.03904 0.32134
 H76 H 0.41085 -0.07109 0.28883
 C77 C 0.82190 0.30317 0.32116
 C78 C 0.81564 0.29712 0.33319
 C79 C 0.80345 0.30314 0.33923
 C80 C 0.79744 0.31523 0.33292
 C81 C 0.80358 0.32139 0.32089
 C82 C 0.81587 0.31536 0.31499
 C83 C 0.83424 0.29735 0.31537
 C84 C 0.84074 0.30358 0.30350
 C85 C 0.83458 0.31569 0.29736
 C86 C 0.82223 0.32162 0.30304
 C87 C 0.81630 0.33388 0.29709
 C88 C 0.80411 0.34005 0.30296
 C89 C 0.79777 0.33365 0.31483
 H90 H 0.82040 0.28782 0.33793
 H91 H 0.78807 0.32000 0.33746
 H92 H 0.83887 0.28804 0.32023
 H93 H 0.83947 0.32063 0.28824
 H94 H 0.82132 0.33869 0.28797
 H95 H 0.78839 0.33829 0.31949
 C96 C -0.19718 0.82193 0.82061
 C97 C -0.20290 0.83428 0.81466
 C98 C -0.19654 0.84078 0.80280
 C99 C -0.18440 0.83446 0.79687
 C100 C -0.17858 0.82210 0.80273
 C101 C -0.18497 0.81582 0.81465
 C102 C -0.20336 0.81574 0.83261
 C103 C -0.19746 0.80354 0.83882
 C104 C -0.18534 0.79745 0.83271
 C105 C -0.17905 0.80352 0.82071
 C106 C -0.16678 0.79762 0.81485
 C107 C -0.16024 0.80388 0.80302
 C108 C -0.16631 0.81608 0.79698
 H109 H -0.21223 0.83890 0.81943
 H110 H -0.17929 0.83921 0.78776
 H111 H -0.21268 0.82056 0.83721
 H112 H -0.18066 0.78807 0.83738
 H113 H -0.16223 0.78824 0.81965
 H114 H -0.16138 0.82104 0.78788
 C115 C 0.92918 0.32177 0.44663
 C116 C 0.93502 0.33414 0.45243
 C117 C 0.94688 0.34070 0.44617
 C118 C 0.95293 0.33445 0.43405
 C119 C 0.94719 0.32207 0.42815
 C120 C 0.93526 0.31571 0.43444
 C121 C 0.91718 0.31550 0.45271
 C122 C 0.91108 0.30327 0.44674
 C123 C 0.91731 0.29725 0.43464
 C124 C 0.92932 0.30339 0.42844
 C125 C 0.93530 0.29754 0.41619
 C126 C 0.94715 0.30387 0.40976
 C127 C 0.95307 0.31610 0.41590
 H128 H 0.93016 0.33871 0.46175
 H129 H 0.96205 0.33926 0.42902
 H130 H 0.91249 0.32028 0.46201
 H131 H 0.91273 0.28785 0.42989
 H132 H 0.93060 0.28814 0.41159
 H133 H 0.96217 0.32111 0.41105
 C134 C 0.42864 0.44697 0.82087
 C135 C 0.43455 0.45268 0.83323
 C136 C 0.44637 0.44632 0.83965
 C137 C 0.45237 0.43421 0.83339
 C138 C 0.44657 0.42838 0.82103
 C139 C 0.43465 0.43476 0.81475
 C140 C 0.41664 0.45313 0.81469
 C141 C 0.41046 0.44721 0.80250
 C142 C 0.41662 0.43509 0.79640
 C143 C 0.42862 0.42882 0.80245
 C144 C 0.43453 0.41653 0.79656
 C145 C 0.44636 0.41001 0.80282
 C146 C 0.45237 0.41610 0.81501
 H147 H 0.42979 0.46200 0.83793
 H148 H 0.46146 0.42917 0.83822
 H149 H 0.41201 0.46244 0.81953
 H150 H 0.41197 0.43039 0.78702
 H151 H 0.42977 0.41196 0.78718
 H152 H 0.46146 0.41120 0.81998
 C153 C 0.82246 0.92825 0.94643
 C154 C 0.81619 0.91626 0.95259
 C155 C 0.80397 0.91007 0.94666
 C156 C 0.79798 0.91634 0.93450
 C157 C 0.80414 0.92832 0.92823
 C158 C 0.81643 0.93429 0.93420
 C159 C 0.83481 0.93413 0.95220
 C160 C 0.84137 0.94598 0.94588
 C161 C 0.83514 0.95198 0.93370
 C162 C 0.82279 0.94620 0.92783
 C163 C 0.81685 0.95204 0.91553
 C164 C 0.80464 0.94609 0.90943
 C165 C 0.79831 0.93427 0.91594
 H166 H 0.82102 0.91168 0.96194
 H167 H 0.78858 0.91182 0.92971
 H168 H 0.83936 0.92930 0.96156
 H169 H 0.83995 0.96109 0.92862
 H170 H 0.82186 0.96113 0.91064
 H171 H 0.78892 0.92955 0.91136
 C172 C 0.32265 0.82236 0.30444
 C173 C 0.31674 0.83459 0.29843
 C174 C 0.30469 0.84103 0.30443
 C175 C 0.29854 0.83479 0.31652
 C176 C 0.30435 0.82256 0.32263
 C177 C 0.31646 0.81632 0.31659
 C178 C 0.33482 0.81620 0.29859
 C179 C 0.34096 0.80410 0.30477
 C180 C 0.33463 0.79810 0.31684
 C181 C 0.32247 0.80414 0.32280
 C182 C 0.31636 0.79831 0.33500
 C183 C 0.30434 0.80451 0.34119
 C184 C 0.29836 0.81660 0.33484
 H185 H 0.32168 0.83915 0.28913
 H186 H 0.28928 0.83950 0.32135
 H187 H 0.33958 0.82096 0.28931
 H188 H 0.33924 0.78880 0.32173
 H189 H 0.32111 0.78900 0.33977
 H190 H 0.28911 0.82152 0.33949
 C191 C 0.82185 0.42978 0.44667
 C192 C 0.81572 0.41774 0.45287
 C193 C 0.80356 0.41149 0.44698
 C194 C 0.79744 0.41760 0.43485
 C195 C 0.80346 0.42964 0.42853
 C196 C 0.81572 0.43574 0.43444
 C197 C 0.83417 0.43577 0.45237
 C198 C 0.84061 0.44765 0.44599
 C199 C 0.83428 0.45358 0.43384
 C200 C 0.82195 0.44769 0.42803
 C201 C 0.81591 0.45344 0.41574
 C202 C 0.80374 0.44736 0.40968
 C203 C 0.79754 0.43550 0.41624
 H204 H 0.82056 0.41315 0.46220
 H205 H 0.78809 0.41290 0.43017
 H206 H 0.83880 0.43099 0.46172
 H207 H 0.83900 0.46271 0.42871
 H208 H 0.82083 0.46256 0.41080
 H209 H 0.78818 0.43068 0.41170
 C210 C 0.94643 0.82154 -0.07182
 C211 C 0.95227 0.83376 -0.06570
 C212 C 0.94631 0.83974 -0.05343
 C213 C 0.93448 0.83318 -0.04722
 C214 C 0.92853 0.82096 -0.05322
 C215 C 0.93451 0.81512 -0.06558
 C216 C 0.95219 0.81581 -0.08423
 C217 C 0.94616 0.80373 -0.09065
 C218 C 0.93431 0.79735 -0.08420
 C219 C 0.92845 0.80298 -0.07179
 C220 C 0.91644 0.79678 -0.06564
 C221 C 0.91032 0.80260 -0.05338
 C222 C 0.91653 0.81465 -0.04719
 H223 H 0.96136 0.83871 -0.07062
 H224 H 0.92976 0.83767 -0.03779
 H225 H 0.96130 0.82093 -0.08895
 H226 H 0.92946 0.78805 -0.08890
 H227 H 0.91177 0.78751 -0.07055
 H228 H 0.91193 0.81927 -0.03777
 C229 C 0.32098 0.32023 0.80235
 C230 C 0.31486 0.33234 0.79628
 C231 C 0.30258 0.33839 0.80211
 C232 C 0.29634 0.33201 0.81403
 C233 C 0.30234 0.31991 0.82022
 C234 C 0.31472 0.31400 0.81438
 C235 C 0.33342 0.31443 0.79673
 C236 C 0.33977 0.30250 0.80301
 C237 C 0.33337 0.29629 0.81494
 C238 C 0.32094 0.30198 0.82068
 C239 C 0.31478 0.29597 0.83278
 C240 C 0.30251 0.30187 0.83877
 C241 C 0.29631 0.31379 0.83233
 H242 H 0.31981 0.33714 0.78712
 H243 H 0.28690 0.33655 0.81866
 H244 H 0.33823 0.31935 0.78756
 H245 H 0.33815 0.28711 0.81991
 H246 H 0.31970 0.28681 0.83763
 H247 H 0.28687 0.31847 0.83683
 C248 C 0.17948 0.55192 0.57045
 C249 C 0.16739 0.54597 0.56423
 C250 C 0.16138 0.55200 0.55200
 C251 C 0.16781 0.56399 0.54590
 C252 C 0.17991 0.57004 0.55200
 C253 C 0.18576 0.56401 0.56433
 C254 C 0.18521 0.54611 0.58285
 C255 C 0.19713 0.55227 0.58933
 C256 C 0.20339 0.56427 0.58307
 C257 C 0.19777 0.57019 0.57067
 C258 C 0.20382 0.58236 0.56466
 C259 C 0.19798 0.58854 0.55243
 C260 C 0.18607 0.58222 0.54611
 H261 H 0.16255 0.53676 0.56907
 H262 H 0.16330 0.56876 0.53650
 H263 H 0.18025 0.53689 0.58755
 H264 H 0.21255 0.56915 0.58794
 H265 H 0.21298 0.58713 0.56966
 H266 H 0.18144 0.58687 0.53671
 C267 C 0.57028 0.69793 0.07028
 C268 C 0.58270 0.70358 0.06446
 C269 C 0.58903 0.69732 0.05253
 C270 C 0.58263 0.68536 0.04634
 C271 C 0.57021 0.67959 0.05205
 C272 C 0.56401 0.68588 0.06407
 C273 C 0.56419 0.70398 0.08238
 C274 C 0.55194 0.69810 0.08846
 C275 C 0.54569 0.68616 0.08210
 C276 C 0.55166 0.67999 0.07000
 C277 C 0.54562 0.66786 0.06391
 C278 C 0.55179 0.66142 0.05200
 C279 C 0.56405 0.66745 0.04608
 H280 H 0.58752 0.71278 0.06936
 H281 H 0.58739 0.68040 0.03717
 H282 H 0.56914 0.71316 0.08717
 H283 H 0.53627 0.68149 0.08667
 H284 H 0.53619 0.66333 0.06861
 H285 H 0.56895 0.66261 0.03692
 C286 C 0.69794 0.17983 0.67930
 C287 C 0.70362 0.18580 0.66695
 C288 C 0.69737 0.19779 0.66068
 C289 C 0.68541 0.20390 0.66709
 C290 C 0.67963 0.19804 0.67944
 C291 C 0.68590 0.18595 0.68557
 C292 C 0.70400 0.16766 0.68531
 C293 C 0.69813 0.16137 0.69752
 C294 C 0.68616 0.16771 0.70376
 C295 C 0.68001 0.17988 0.69785
 C296 C 0.66788 0.18590 0.70391
 C297 C 0.66147 0.19789 0.69781
 C298 C 0.66750 0.20395 0.68561
 H299 H 0.71282 0.18096 0.66213
 H300 H 0.68047 0.21312 0.66238
 H301 H 0.71319 0.16302 0.68029
 H302 H 0.68143 0.16311 0.71315
 H303 H 0.66335 0.18110 0.71329
 H304 H 0.66267 0.21317 0.68077
 C305 C 1.06951 0.05049 0.18054
 C306 C 1.08168 0.04457 0.18664
 C307 C 1.08787 0.05066 0.19874
 C308 C 1.08156 0.06270 0.20483
 C309 C 1.06940 0.06873 0.19886
 C310 C 1.06335 0.06263 0.18666
 C311 C 1.06359 0.04461 0.16826
 C312 C 1.05158 0.05074 0.16184
 C313 C 1.04545 0.06280 0.16817
 C314 C 1.05127 0.06878 0.18046
 C315 C 1.04535 0.08101 0.18646
 C316 C 1.05138 0.08727 0.19856
 C317 C 1.06336 0.08096 0.20474
 H318 H 1.08643 0.03531 0.18180
 H319 H 1.08622 0.06753 0.21414
 H320 H 1.06851 0.03534 0.16363
 H321 H 1.03623 0.06773 0.16348
 H322 H 1.03614 0.08576 0.18156
 H323 H 1.06815 0.08566 0.21405
 C324 C 0.05244 0.17936 1.07015
 C325 C 0.04640 0.16720 1.06412
 C326 C 0.05252 0.16069 1.05217
 C327 C 0.06474 0.16681 1.04618
 C328 C 0.07089 0.17898 1.05211
 C329 C 0.06474 0.18526 1.06414
 C330 C 0.04651 0.18554 1.08227
 C331 C 0.05276 0.19752 1.08857
 C332 C 0.06497 0.20341 1.08242
 C333 C 0.07101 0.19735 1.07029
 C334 C 0.08338 0.20304 1.06439
 C335 C 0.08967 0.19677 1.05245
 C336 C 0.08326 0.18478 1.04632
 H337 H 0.03700 0.16273 1.06894
 H338 H 0.06966 0.16204 1.03699
 H339 H 0.03713 0.18087 1.08689
 H340 H 0.06991 0.21262 1.08715
 H341 H 0.08819 0.21225 1.06925
 H342 H 0.08799 0.17982 1.03713
 C343 C 0.17940 0.67980 0.69861
 C344 C 0.16727 0.68588 0.70460
 C345 C 0.16117 0.69812 0.69869
 C346 C 0.16752 0.70437 0.68675
 C347 C 0.17965 0.69841 0.68065
 C348 C 0.18560 0.68607 0.68657
 C349 C 0.18524 0.66738 0.70431
 C350 C 0.19719 0.66106 0.69810
 C351 C 0.20338 0.66747 0.68616
 C352 C 0.19765 0.67988 0.68035
 C353 C 0.20362 0.68604 0.66823
 C354 C 0.19768 0.69829 0.66216
 C355 C 0.18574 0.70446 0.66853
 H356 H 0.16248 0.68092 0.71377
 H357 H 0.16294 0.71379 0.68206
 H358 H 0.18034 0.66256 0.71348
 H359 H 0.21257 0.66271 0.68125
 H360 H 0.21281 0.68115 0.66344
 H361 H 0.18102 0.71387 0.66396
 C362 C 1.19811 0.17913 0.17955
 C363 C 1.20407 0.16692 0.18556
 C364 C 1.19815 0.16067 0.19776
 C365 C 1.18623 0.16710 0.20401
 C366 C 1.18018 0.17932 0.19811
 C367 C 1.18611 0.18535 0.18582
 C368 C 1.20383 0.18506 0.16720
 C369 C 1.19766 0.19710 0.16093
 C370 C 1.18575 0.20329 0.16734
 C371 C 1.17993 0.19748 0.17970
 C372 C 1.16784 0.20347 0.18586
 C373 C 1.16176 0.19746 0.19805
 C374 C 1.16810 0.18543 0.20416
 H375 H 1.21323 0.16221 0.18054
 H376 H 1.18147 0.16254 0.21340
 H377 H 1.21299 0.18015 0.16237
 H378 H 1.18087 0.21255 0.16262
 H379 H 1.16308 0.21272 0.18102
 H380 H 1.16352 0.18066 0.21353
 C381 C 0.68013 1.07131 0.55193
 C382 C 0.66799 1.06523 0.54593
 C383 C 0.66190 1.05295 0.55180
 C384 C 0.66828 1.04667 0.56371
 C385 C 0.68041 1.05263 0.56982
 C386 C 0.68636 1.06500 0.56394
 C387 C 0.68596 1.08375 0.54626
 C388 C 0.69795 1.09013 0.55247
 C389 C 0.70415 1.08362 0.56440
 C390 C 0.69841 1.07118 0.57017
 C391 C 0.70441 1.06498 0.58226
 C392 C 0.69848 1.05271 0.58830
 C393 C 0.68652 1.04655 0.58191
 H394 H 0.66319 1.07020 0.53677
 H395 H 0.66370 1.03723 0.56837
 H396 H 0.68099 1.08852 0.53709
 H397 H 0.71336 1.08828 0.56938
 H398 H 0.71361 1.06986 0.58706
 H399 H 0.68181 1.03711 0.58645
 C400 C 0.55094 0.56869 0.18055
 C401 C 0.54507 0.56261 0.16833
 C402 C 0.55125 0.55058 0.16208
 C403 C 0.56331 0.54454 0.16837
 C404 C 0.56929 0.55050 0.18058
 C405 C 0.56310 0.56263 0.18669
 C406 C 0.54499 0.58091 0.18653
 C407 C 0.55107 0.58725 0.19856
 C408 C 0.56313 0.58104 0.20469
 C409 C 0.56920 0.56883 0.19882
 C410 C 0.58145 0.56289 0.20473
 C411 C 0.58778 0.55087 0.19863
 C412 C 0.58154 0.54468 0.18661
 H413 H 0.53580 0.56740 0.16360
 H414 H 0.56820 0.53529 0.16366
 H415 H 0.53572 0.58558 0.18167
 H416 H 0.56796 0.58582 0.21394
 H417 H 0.58614 0.56780 0.21397
 H418 H 0.58631 0.53543 0.18178
 C419 C 0.67947 0.69838 0.17932
 C420 C 0.66735 0.70427 0.18550
 C421 C 0.66136 0.69825 0.19773
 C422 C 0.66783 0.68631 0.20387
 C423 C 0.67996 0.68030 0.19781
 C424 C 0.68580 0.68634 0.18547
 C425 C 0.68520 0.70419 0.16691
 C426 C 0.69714 0.69808 0.16048
 C427 C 0.70345 0.68613 0.16678
 C428 C 0.69784 0.68021 0.17918
 C429 C 0.70392 0.66808 0.18522
 C430 C 0.69809 0.66189 0.19746
 C431 C 0.68616 0.66817 0.20373
 H432 H 0.66247 0.71345 0.18063
 H433 H 0.66334 0.68152 0.21328
 H434 H 0.68021 0.71338 0.16218
 H435 H 0.71263 0.68129 0.16194
 H436 H 0.71310 0.66335 0.18025
 H437 H 0.68153 0.66352 0.21314
 C438 C 0.17916 0.05150 1.07063
 C439 C 0.16705 0.04555 1.06444
 C440 C 0.16068 0.05183 1.05248
 C441 C 0.16690 0.06412 1.04665
 C442 C 0.17900 0.07017 1.05274
 C443 C 0.18515 0.06386 1.06478
 C444 C 0.18519 0.04541 1.08276
 C445 C 0.19714 0.05154 1.08928
 C446 C 0.20311 0.06382 1.08320
 C447 C 0.19718 0.07002 1.07109
 C448 C 0.20296 0.08245 1.06534
 C449 C 0.19683 0.08890 1.05339
 C450 C 0.18490 0.08260 1.04711
 H451 H 0.16251 0.03611 1.06913
 H452 H 0.16224 0.06917 1.03746
 H453 H 0.18039 0.03596 1.08719
 H454 H 0.21230 0.06876 1.08798
 H455 H 0.21214 0.08719 1.07031
 H456 H 0.18004 0.08745 1.03791
 C457 C 0.57076 0.18039 0.55182
 C458 C 0.58323 0.18612 0.54618
 C459 C 0.58967 0.19803 0.55242
 C460 C 0.58332 0.20430 0.56434
 C461 C 0.57085 0.19868 0.57010
 C462 C 0.56455 0.18668 0.56384
 C463 C 0.56458 0.16829 0.54581
 C464 C 0.55229 0.16229 0.55168
 C465 C 0.54609 0.16873 0.56358
 C466 C 0.55216 0.18083 0.56971
 C467 C 0.54617 0.18698 0.58181
 C468 C 0.55246 0.19887 0.58823
 C469 C 0.56475 0.20472 0.58221
 H470 H 0.58800 0.18116 0.53702
 H471 H 0.58816 0.21345 0.56929
 H472 H 0.56950 0.16344 0.53666
 H473 H 0.53664 0.16422 0.56825
 H474 H 0.53672 0.18234 0.58634
 H475 H 0.56973 0.21386 0.58704
 C476 C 0.07050 0.55248 0.67935
 C477 C 0.08291 0.54684 0.68522
 C478 C 0.08921 0.55313 0.69716
 C479 C 0.08279 0.56508 0.70331
 C480 C 0.07039 0.57083 0.69756
 C481 C 0.06421 0.56452 0.68552
 C482 C 0.06443 0.54640 0.66723
 C483 C 0.05218 0.55224 0.66111
 C484 C 0.04592 0.56419 0.66743
 C485 C 0.05187 0.57038 0.67955
 C486 C 0.04581 0.58251 0.68561
 C487 C 0.05196 0.58896 0.69755
 C488 C 0.06421 0.58295 0.70351
 H489 H 0.08773 0.53765 0.68034
 H490 H 0.08754 0.57006 0.71250
 H491 H 0.06939 0.53722 0.66248
 H492 H 0.03650 0.56883 0.66283
 H493 H 0.03640 0.58702 0.68088
 H494 H 0.06909 0.58781 0.71268
 C495 C 0.67948 0.57024 0.05128
 C496 C 0.66735 0.56412 0.04529
 C497 C 0.66127 0.55187 0.05123
 C498 C 0.66765 0.54565 0.06316
 C499 C 0.67977 0.55165 0.06926
 C500 C 0.68571 0.56400 0.06332
 C501 C 0.68530 0.58266 0.04556
 C502 C 0.69724 0.58903 0.05177
 C503 C 0.70346 0.58266 0.06371
 C504 C 0.69775 0.57023 0.06954
 C505 C 0.70375 0.56410 0.08167
 C506 C 0.69782 0.55185 0.08776
 C507 C 0.68588 0.54564 0.08139
 H508 H 0.66255 0.56905 0.03612
 H509 H 0.66307 0.53623 0.06787
 H510 H 0.68038 0.58746 0.03638
 H511 H 0.71264 0.58745 0.06862
 H512 H 0.71292 0.56903 0.08646
 H513 H 0.68118 0.53622 0.08596
 C514 C 0.05120 0.68109 0.56969
 C515 C 0.04534 0.68716 0.58190
 C516 C 0.05148 0.69924 0.58812
 C517 C 0.06351 0.70532 0.58182
 C518 C 0.06949 0.69936 0.56961
 C519 C 0.06333 0.68719 0.56353
 C520 C 0.04527 0.66883 0.56372
 C521 C 0.05135 0.66250 0.55169
 C522 C 0.06339 0.66876 0.54555
 C523 C 0.06943 0.68100 0.55141
 C524 C 0.08165 0.68699 0.54548
 C525 C 0.08796 0.69906 0.55155
 C526 C 0.08171 0.70523 0.56357
 H527 H 0.03608 0.68234 0.58664
 H528 H 0.06838 0.71460 0.58650
 H529 H 0.03602 0.66413 0.56859
 H530 H 0.06821 0.66399 0.53631
 H531 H 0.08635 0.68210 0.53624
 H532 H 0.08645 0.71451 0.56839
 C533 C 0.55175 1.06930 0.68004
 C534 C 0.54592 1.06329 0.66778
 C535 C 0.55210 1.05127 0.66141
 C536 C 0.56417 1.04522 0.66777
 C537 C 0.57011 1.05113 0.68003
 C538 C 0.56390 1.06322 0.68618
 C539 C 0.54577 1.08148 0.68608
 C540 C 0.55182 1.08777 0.69816
 C541 C 0.56386 1.08154 0.70429
 C542 C 0.56995 1.06936 0.69837
 C543 C 0.58218 1.06340 0.70429
 C544 C 0.58854 1.05141 0.69815
 C545 C 0.58234 1.04529 0.68607
 H546 H 0.53664 1.06816 0.66313
 H547 H 0.56914 1.03599 0.66311
 H548 H 0.53651 1.08617 0.68122
 H549 H 0.56866 1.08626 0.71357
 H550 H 0.58684 1.06826 0.71357
 H551 H 0.58713 1.03606 0.68121
 C552 C 0.42904 0.32097 0.94704
 C553 C 0.43489 0.33332 0.95287
 C554 C 0.44674 0.33990 0.94663
 C555 C 0.45278 0.33368 0.93448
 C556 C 0.44702 0.32133 0.92854
 C557 C 0.43510 0.31496 0.93482
 C558 C 0.41704 0.31469 0.95311
 C559 C 0.41092 0.30250 0.94709
 C560 C 0.41713 0.29650 0.93496
 C561 C 0.42914 0.30266 0.92878
 C562 C 0.43510 0.29686 0.91650
 C563 C 0.44694 0.30321 0.91008
 C564 C 0.45288 0.31541 0.91625
 H565 H 0.43003 0.33785 0.96222
 H566 H 0.46189 0.33851 0.92946
 H567 H 0.41236 0.31944 0.96243
 H568 H 0.41254 0.28713 0.93019
 H569 H 0.43039 0.28748 0.91186
 H570 H 0.46198 0.32043 0.91142
 C571 C 0.92740 0.44546 0.32270
 C572 C 0.93340 0.45133 0.33494
 C573 C 0.94550 0.44524 0.34123
 C574 C 0.95161 0.43321 0.33483
 C575 C 0.94570 0.42724 0.32258
 C576 C 0.93355 0.43336 0.31650
 C577 C 0.91519 0.45138 0.31670
 C578 C 0.90895 0.44534 0.30460
 C579 C 0.91524 0.43333 0.29842
 C580 C 0.92745 0.42730 0.30430
 C581 C 0.93351 0.41515 0.29830
 C582 C 0.94559 0.40889 0.30435
 C583 C 0.95166 0.41509 0.31645
 H584 H 0.92849 0.46058 0.33963
 H585 H 0.96090 0.42832 0.33942
 H586 H 0.91046 0.46062 0.32159
 H587 H 0.91055 0.42855 0.28911
 H588 H 0.92870 0.41049 0.28898
 H589 H 0.96094 0.41038 0.32125
 C590 C 0.32332 0.94634 0.42764
 C591 C 0.31722 0.95219 0.41542
 C592 C 0.30509 0.94609 0.40930
 C593 C 0.29901 0.93408 0.41571
 C594 C 0.30499 0.92811 0.42792
 C595 C 0.31720 0.93425 0.43390
 C596 C 0.33558 0.95228 0.43354
 C597 C 0.34195 0.94627 0.44564
 C598 C 0.33562 0.93424 0.45186
 C599 C 0.32337 0.92820 0.44606
 C600 C 0.31733 0.91604 0.45212
 C601 C 0.30521 0.90977 0.44616
 C602 C 0.29906 0.91596 0.43409
 H603 H 0.32204 0.96143 0.41060
 H604 H 0.28968 0.92924 0.41111
 H605 H 0.34021 0.96153 0.42854
 H606 H 0.34028 0.92939 0.46116
 H607 H 0.32219 0.91138 0.46141
 H608 H 0.28974 0.91125 0.42936
 O609 O 0.25052 0.48142 0.78791
 O610 O 0.22585 0.48348 0.78307
 O611 O 0.26729 0.46199 0.75077
 O612 O 0.26776 0.46624 0.72743
 O613 O 0.28725 0.49915 0.76826
 O614 O 0.28199 0.52381 0.76733
 O615 O 0.23089 0.50051 0.71329
 O616 O 0.23363 0.47637 0.71735
 O617 O 0.21259 0.51822 0.74929
 O618 O 0.21637 0.51613 0.77354
 O619 O 0.24837 0.53691 0.73214
 O620 O 0.27368 0.53202 0.73270
 O621 O 0.24787 0.51764 0.71325
 O622 O 0.27403 0.51632 0.71835
 O623 O 0.23156 0.53702 0.74933
 O624 O 0.23342 0.53135 0.77540
 O625 O 0.21258 0.50144 0.73201
 O626 O 0.21690 0.47587 0.73650
 O627 O 0.26728 0.49879 0.78802
 O628 O 0.26601 0.52392 0.78271
 O629 O 0.28729 0.48213 0.75120
 O630 O 0.28143 0.48433 0.72568
 O631 O 0.25086 0.46201 0.76839
 O632 O 0.22545 0.46744 0.76386
 Zr633 Zr 0.24188 0.48241 0.76739
 O634 O 0.22837 0.49521 0.75513
 Zr635 Zr 0.26678 0.48273 0.74253
 O636 O 0.25401 0.49504 0.72905
 Zr637 Zr 0.26665 0.50752 0.76749
 O638 O 0.25427 0.52113 0.75493
 Zr639 Zr 0.23255 0.49174 0.73362
 O640 O 0.24530 0.47790 0.74581
 Zr641 Zr 0.23280 0.51671 0.75842
 O642 O 0.24517 0.50401 0.77213
 Zr643 Zr 0.25745 0.51660 0.73339
 O644 O 0.27137 0.50429 0.74596
 O645 O 0.26327 0.48610 0.76390
 O646 O 0.23601 0.51329 0.73691
 C647 C 0.26025 0.48875 0.79399
 C648 C 0.26046 0.45597 0.76089
 C649 C 0.29330 0.48934 0.76106
 C650 C 0.23777 0.51066 0.70738
 C651 C 0.20673 0.51150 0.73903
 C652 C 0.23840 0.54288 0.73916
 H653 H 0.21841 0.49304 0.75750
 H654 H 0.25665 0.53107 0.75720
 H655 H 0.26937 0.48007 0.76990
 H656 H 0.25610 0.49264 0.71908
 H657 H 0.23654 0.46737 0.72191
 H658 H 0.26049 0.46833 0.72021
 H659 H 0.24119 0.53813 0.77358
 H660 H 0.25685 0.52301 0.78770
 H661 H 0.21034 0.47628 0.72832
 H662 H 0.22628 0.45963 0.77084
 H663 H 0.27324 0.53750 0.74161
 H664 H 0.28635 0.52366 0.75782
 H665 H 0.22645 0.47494 0.78917
 H666 H 0.21921 0.50904 0.78070
 H667 H 0.28698 0.49308 0.72730
 H668 H 0.27228 0.50835 0.71179
 O669 O 0.24877 0.03727 0.23136
 O670 O 0.27343 0.03245 0.23333
 O671 O 0.23188 0.00002 0.21209
 O672 O 0.23146 -0.02336 0.21639
 O673 O 0.21208 0.01757 0.24921
 O674 O 0.21744 0.01673 0.27380
 O675 O 0.26852 -0.03735 0.25060
 O676 O 0.26562 -0.03340 0.22646
 O677 O 0.28682 -0.00123 0.26808
 O678 O 0.28301 0.02306 0.26592
 O679 O 0.25117 -0.01845 0.28688
 O680 O 0.22578 -0.01790 0.28206
 O681 O 0.25161 -0.03738 0.26775
 O682 O 0.22543 -0.03237 0.26645
 O683 O 0.26798 -0.00120 0.28688
 O684 O 0.26603 0.02490 0.28119
 O685 O 0.28677 -0.01858 0.25137
 O686 O 0.28233 -0.01418 0.22583
 O687 O 0.23206 0.03741 0.24873
 O688 O 0.23343 0.03215 0.27383
 O689 O 0.21197 0.00044 0.23227
 O690 O 0.21786 -0.02510 0.23450
 O691 O 0.24832 0.01767 0.21202
 O692 O 0.27375 0.01318 0.21737
 Zr693 Zr 0.25739 0.01673 0.23236
 O694 O 0.27096 0.00452 0.24514
 Zr695 Zr 0.23249 -0.00820 0.23281
 O696 O 0.24532 -0.02165 0.24511
 Zr697 Zr 0.23272 0.01687 0.25750
 O698 O 0.24516 0.00434 0.27110
 Zr699 Zr 0.26676 -0.01704 0.24174
 O700 O 0.25395 -0.00490 0.22792
 Zr701 Zr 0.26660 0.00787 0.26660
 O702 O 0.25417 0.02155 0.25392
 Zr703 Zr 0.24197 -0.01725 0.26663
 O704 O 0.22800 -0.00472 0.25434
 O705 O 0.23601 0.01321 0.23612
 O706 O 0.26338 -0.01368 0.26325
 C707 C 0.23907 0.04337 0.23868
 C708 C 0.23870 0.01015 0.20603
 C709 C 0.20598 0.01031 0.23946
 C710 C 0.26172 -0.04324 0.26079
 C711 C 0.29266 -0.01152 0.26139
 C712 C 0.26120 -0.01141 0.29277
 H713 H 0.28091 0.00690 0.24293
 H714 H 0.24282 0.00664 0.28102
 H715 H 0.22988 0.01920 0.23010
 H716 H 0.24324 -0.03165 0.24276
 H717 H 0.26267 -0.02887 0.21747
 H718 H 0.23872 -0.03059 0.21849
 H719 H 0.25832 0.02305 0.28801
 H720 H 0.24258 0.03715 0.27290
 H721 H 0.28890 -0.02235 0.22625
 H722 H 0.27289 0.02014 0.20956
 H723 H 0.22632 -0.00901 0.28758
 H724 H 0.21312 0.00718 0.27373
 H725 H 0.27279 0.03853 0.22479
 H726 H 0.28010 0.03023 0.25887
 H727 H 0.21237 -0.02348 0.24326
 H728 H 0.22716 -0.03897 0.25851
 O729 O 0.53759 0.73118 0.24918
 O730 O 0.53272 0.73326 0.27386
 O731 O 0.50053 0.71158 0.23236
 O732 O 0.47722 0.71576 0.23178
 O733 O 0.51794 0.74880 0.21234
 O734 O 0.51698 0.77343 0.21756
 O735 O 0.46302 0.75011 0.26869
 O736 O 0.46710 0.72594 0.26596
 O737 O 0.49890 0.76796 0.28698
 O738 O 0.52313 0.76590 0.28327
 O739 O 0.48176 0.78647 0.25111
 O740 O 0.48236 0.78150 0.22575
 O741 O 0.46296 0.76721 0.25166
 O742 O 0.46801 0.76578 0.22547
 O743 O 0.49892 0.78667 0.26797
 O744 O 0.52499 0.78109 0.26616
 O745 O 0.48168 0.75111 0.28700
 O746 O 0.48623 0.72553 0.28274
 O747 O 0.53767 0.74851 0.23237
 O748 O 0.53230 0.77363 0.23360
 O749 O 0.50095 0.73170 0.21227
 O750 O 0.47544 0.73383 0.21811
 O751 O 0.51812 0.71169 0.24884
 O752 O 0.51358 0.71717 0.27426
 Zr753 Zr 0.51707 0.73211 0.25778
 O754 O 0.50480 0.74490 0.27127
 Zr755 Zr 0.49227 0.73229 0.23279
 O756 O 0.47876 0.74459 0.24554
 Zr757 Zr 0.51715 0.75717 0.23295
 O758 O 0.50455 0.77077 0.24528
 Zr759 Zr 0.48333 0.74136 0.26704
 O760 O 0.49553 0.72753 0.25432
 Zr761 Zr 0.50805 0.76640 0.26678
 O762 O 0.52178 0.75372 0.25445
 Zr763 Zr 0.48305 0.76615 0.24206
 O764 O 0.49565 0.75386 0.22818
 O765 O 0.51360 0.73575 0.23635
 O766 O 0.48658 0.76290 0.26353
 C767 C 0.54365 0.73852 0.23945
 C768 C 0.51064 0.70560 0.23924
 C769 C 0.51077 0.73895 0.20626
 C770 C 0.45712 0.76026 0.26182
 C771 C 0.48864 0.76124 0.29284
 C772 C 0.48874 0.79248 0.26111
 H773 H 0.50716 0.74276 0.28125
 H774 H 0.50681 0.78071 0.24288
 H775 H 0.51961 0.72972 0.23027
 H776 H 0.46881 0.74216 0.24345
 H777 H 0.47167 0.71695 0.26308
 H778 H 0.47003 0.71780 0.23909
 H779 H 0.52313 0.78787 0.25839
 H780 H 0.53729 0.77275 0.24276
 H781 H 0.47806 0.72594 0.28930
 H782 H 0.52056 0.70938 0.27346
 H783 H 0.49120 0.78708 0.22625
 H784 H 0.50747 0.77328 0.21320
 H785 H 0.53883 0.72474 0.27328
 H786 H 0.53031 0.75884 0.28045
 H787 H 0.47704 0.74257 0.21254
 H788 H 0.46146 0.75780 0.22725
 O789 O 0.03737 0.73209 0.74924
 O790 O 0.03238 0.73411 0.77390
 O791 O 0.00039 0.71264 0.73212
 O792 O -0.02292 0.71687 0.73149
 O793 O 0.01798 0.74986 0.71233
 O794 O 0.01703 0.77449 0.71763
 O795 O -0.03725 0.75111 0.76839
 O796 O -0.03321 0.72695 0.76560
 O797 O -0.00138 0.76878 0.78697
 O798 O 0.02286 0.76673 0.78333
 O799 O -0.01837 0.78749 0.75110
 O800 O -0.01759 0.78267 0.72571
 O801 O -0.03719 0.76824 0.75140
 O802 O -0.03195 0.76695 0.72524
 O803 O -0.00130 0.78759 0.76806
 O804 O 0.02478 0.78201 0.76630
 O805 O -0.01866 0.75199 0.78683
 O806 O -0.01418 0.72643 0.78248
 O807 O 0.03760 0.74947 0.73248
 O808 O 0.03229 0.77460 0.73375
 O809 O 0.00094 0.73282 0.71213
 O810 O -0.02459 0.73498 0.71783
 O811 O 0.01788 0.71266 0.74871
 O812 O 0.01320 0.71805 0.77412
 Zr813 Zr 0.01682 0.73304 0.75772
 O814 O 0.00451 0.74582 0.77118
 Zr815 Zr -0.00784 0.73337 0.73261
 O816 O -0.02139 0.74565 0.74532
 Zr817 Zr 0.01709 0.75818 0.73297
 O818 O 0.00447 0.77178 0.74529
 Zr819 Zr -0.01695 0.74233 0.76683
 O820 O -0.00471 0.72851 0.75413
 Zr821 Zr 0.00783 0.76732 0.76680
 O822 O 0.02160 0.75465 0.75449
 Zr823 Zr -0.01703 0.76722 0.74194
 O824 O -0.00439 0.75494 0.72808
 O825 O 0.01347 0.73676 0.73629
 O826 O -0.01363 0.76388 0.76342
 C827 C 0.04351 0.73943 0.73956
 C828 C 0.01046 0.70662 0.73904
 C829 C 0.01081 0.74005 0.70619
 C830 C -0.04311 0.76127 0.76149
 C831 C -0.01168 0.76205 0.79276
 C832 C -0.01146 0.79344 0.76118
 H833 H 0.00682 0.74363 0.78117
 H834 H 0.00675 0.78172 0.74295
 H835 H 0.01950 0.73074 0.73021
 H836 H -0.03133 0.74325 0.74316
 H837 H -0.02865 0.71797 0.76271
 H838 H -0.03018 0.71893 0.73872
 H839 H 0.02295 0.78882 0.75857
 H840 H 0.03720 0.77369 0.74296
 H841 H -0.02238 0.72683 0.78900
 H842 H 0.02017 0.71025 0.77333
 H843 H -0.00874 0.78822 0.72629
 H844 H 0.00754 0.77438 0.71323
 H845 H 0.03847 0.72557 0.77333
 H846 H 0.03005 0.75968 0.78049
 H847 H -0.02295 0.74374 0.71230
 H848 H -0.03852 0.75897 0.72693
 O849 O 0.00108 0.03751 0.01874
 O850 O -0.02358 0.03260 0.01664
 O851 O 0.01790 0.00039 0.03830
 O852 O 0.01845 -0.02299 0.03411
 O853 O 0.03786 0.01788 0.00117
 O854 O 0.03263 0.01689 -0.02345
 O855 O -0.01840 -0.03729 -0.00017
 O856 O -0.01567 -0.03319 0.02395
 O857 O -0.03673 -0.00132 -0.01798
 O858 O -0.03299 0.02298 -0.01595
 O859 O -0.00093 -0.01851 -0.03648
 O860 O 0.02441 -0.01782 -0.03156
 O861 O -0.00139 -0.03733 -0.01722
 O862 O 0.02476 -0.03218 -0.01584
 O863 O -0.01778 -0.00133 -0.03668
 O864 O -0.01592 0.02483 -0.03113
 O865 O -0.03672 -0.01860 -0.00118
 O866 O -0.03244 -0.01404 0.02436
 O867 O 0.01785 0.03763 0.00144
 O868 O 0.01661 0.03225 -0.02364
 O869 O 0.03793 0.00084 0.01822
 O870 O 0.03212 -0.02475 0.01609
 O871 O 0.00143 0.01800 0.03819
 O872 O -0.02396 0.01341 0.03271
 Zr873 Zr -0.00752 0.01693 0.01780
 O874 O -0.02099 0.00461 0.00502
 Zr875 Zr 0.01744 -0.00790 0.01761
 O876 O 0.00471 -0.02146 0.00533
 Zr877 Zr 0.01727 0.01704 -0.00722
 O878 O 0.00494 0.00440 -0.02081
 Zr879 Zr -0.01677 -0.01692 0.00856
 O880 O -0.00406 -0.00466 0.02237
 Zr881 Zr -0.01654 0.00787 -0.01644
 O882 O -0.00421 0.02166 -0.00378
 Zr883 Zr 0.00816 -0.01715 -0.01620
 O884 O 0.02203 -0.00450 -0.00391
 O885 O 0.01388 0.01348 0.01417
 O886 O -0.01328 -0.01365 -0.01295
 C887 C 0.01080 0.04360 0.01143
 C888 C 0.01103 0.01051 0.04427
 C889 C 0.04393 0.01070 0.01100
 C890 C -0.01152 -0.04321 -0.01028
 C891 C -0.04257 -0.01161 -0.01127
 C892 C -0.01094 -0.01154 -0.04247
 H893 H -0.03096 0.00696 0.00716
 H894 H 0.00732 0.00666 -0.03073
 H895 H 0.01996 0.01952 0.02019
 H896 H 0.00680 -0.03144 0.00776
 H897 H -0.01279 -0.02860 0.03293
 H898 H 0.01118 -0.03023 0.03206
 H899 H -0.00819 0.02296 -0.03791
 H900 H 0.00744 0.03722 -0.02277
 H901 H -0.03898 -0.02224 0.02395
 H902 H -0.02316 0.02041 0.04048
 H903 H 0.02390 -0.00895 -0.03711
 H904 H 0.03698 0.00736 -0.02329
 H905 H -0.02300 0.03873 0.02514
 H906 H -0.03015 0.03019 -0.00891
 H907 H 0.03768 -0.02313 0.00737
 H908 H 0.02301 -0.03875 -0.00786
 O909 O 0.03764 0.51871 0.50058
 O910 O 0.03276 0.51671 0.47590
 O911 O 0.00062 0.53825 0.51744
 O912 O -0.02271 0.53405 0.51796
 O913 O 0.01801 0.50102 0.53737
 O914 O 0.01700 0.47639 0.53210
 O915 O -0.03696 0.49985 0.48098
 O916 O -0.03282 0.52399 0.48375
 O917 O -0.00109 0.48202 0.46266
 O918 O 0.02315 0.48408 0.46641
 O919 O -0.01826 0.46340 0.49843
 O920 O -0.01765 0.46826 0.52380
 O921 O -0.03704 0.48270 0.49796
 O922 O -0.03193 0.48402 0.52416
 O923 O -0.00108 0.46325 0.48160
 O924 O 0.02499 0.46884 0.48348
 O925 O -0.01830 0.49885 0.46267
 O926 O -0.01371 0.52442 0.46698
 O927 O 0.03772 0.50134 0.51734
 O928 O 0.03232 0.47621 0.51607
 O929 O 0.00103 0.51809 0.53746
 O930 O -0.02449 0.51595 0.53161
 O931 O 0.01820 0.53819 0.50097
 O932 O 0.01362 0.53278 0.47554
 Zr933 Zr 0.01712 0.51780 0.49197
 O934 O 0.00484 0.50503 0.47844
 Zr935 Zr -0.00767 0.51753 0.51693
 O936 O -0.02119 0.50527 0.50414
 Zr937 Zr 0.01718 0.49267 0.51674
 O938 O 0.00457 0.47909 0.50436
 Zr939 Zr -0.01663 0.50856 0.48265
 O940 O -0.00441 0.52236 0.49542
 Zr941 Zr 0.00807 0.48353 0.48287
 O942 O 0.02181 0.49618 0.49525
 Zr943 Zr -0.01693 0.48370 0.50756
 O944 O -0.00431 0.49596 0.52149
 O945 O 0.01366 0.51410 0.51339
 O946 O -0.01340 0.48701 0.48611
 C947 C 0.04370 0.51135 0.51029
 C948 C 0.01073 0.54425 0.51059
 C949 C 0.01086 0.51085 0.54346
 C950 C -0.04288 0.48970 0.48784
 C951 C -0.01135 0.48874 0.45681
 C952 C -0.01128 0.45742 0.48843
 H953 H 0.00720 0.50720 0.46847
 H954 H 0.00682 0.46915 0.50673
 H955 H 0.01968 0.52011 0.51949
 H956 H -0.03113 0.50769 0.50623
 H957 H -0.02824 0.53297 0.48665
 H958 H -0.02990 0.53202 0.51065
 H959 H 0.02312 0.46204 0.49122
 H960 H 0.03730 0.47712 0.50691
 H961 H -0.02188 0.52402 0.46042
 H962 H 0.02060 0.54058 0.47636
 H963 H -0.00878 0.46274 0.52333
 H964 H 0.00748 0.47653 0.53645
 H965 H 0.03887 0.52523 0.47650
 H966 H 0.03034 0.49114 0.46926
 H967 H -0.02289 0.50721 0.53716
 H968 H -0.03848 0.49199 0.52241
 O969 O 0.53819 0.01868 0.50094
 O970 O 0.53325 0.01654 0.47627
 O971 O 0.50119 0.03820 0.51784
 O972 O 0.47789 0.03396 0.51851
 O973 O 0.51871 0.00101 0.53783
 O974 O 0.51774 -0.02363 0.53260
 O975 O 0.46358 -0.00038 0.48159
 O976 O 0.46764 0.02378 0.48435
 O977 O 0.49940 -0.01814 0.46321
 O978 O 0.52364 -0.01609 0.46689
 O979 O 0.48235 -0.03672 0.49910
 O980 O 0.48305 -0.03180 0.52446
 O981 O 0.46356 -0.01748 0.49862
 O982 O 0.46874 -0.01605 0.52483
 O983 O 0.49943 -0.03688 0.48218
 O984 O 0.52552 -0.03130 0.48399
 O985 O 0.48218 -0.00131 0.46324
 O986 O 0.48671 0.02427 0.46754
 O987 O 0.53836 0.00135 0.51775
 O988 O 0.53300 -0.02380 0.51650
 O989 O 0.50172 0.01807 0.53794
 O990 O 0.47618 0.01588 0.53217
 O991 O 0.51871 0.03811 0.50130
 O992 O 0.51410 0.03262 0.47591
 Zr993 Zr 0.51765 0.01769 0.49238
 O994 O 0.50533 0.00488 0.47893
 Zr995 Zr 0.49295 0.01746 0.51744
 O996 O 0.47939 0.00515 0.50472
 Zr997 Zr 0.51784 -0.00737 0.51722
 O998 O 0.50519 -0.02099 0.50491
 Zr999 Zr 0.48388 0.00840 0.48321
 O1000 O 0.49613 0.02224 0.49591
 Zr1001 Zr 0.50860 -0.01661 0.48340
 O1002 O 0.52238 -0.00392 0.49570
 Zr1003 Zr 0.48370 -0.01640 0.50818
 O1004 O 0.49635 -0.00410 0.52203
 O1005 O 0.51426 0.01404 0.51382
 O1006 O 0.48715 -0.01314 0.48670
 C1007 C 0.54429 0.01137 0.51066
 C1008 C 0.51126 0.04419 0.51091
 C1009 C 0.51156 0.01084 0.54392
 C1010 C 0.45769 -0.01054 0.48847
 C1011 C 0.48913 -0.01141 0.45737
 C1012 C 0.48926 -0.04270 0.48906
 H1013 H 0.50766 0.00703 0.46894
 H1014 H 0.50745 -0.03093 0.50730
 H1015 H 0.52029 0.02009 0.51989
 H1016 H 0.46945 0.00756 0.50684
 H1017 H 0.47221 0.03278 0.48723
 H1018 H 0.47068 0.03192 0.51122
 H1019 H 0.52367 -0.03809 0.49175
 H1020 H 0.53795 -0.02289 0.50732
 H1021 H 0.47852 0.02385 0.46099
 H1022 H 0.52109 0.04041 0.47668
 H1023 H 0.49191 -0.03732 0.52396
 H1024 H 0.50824 -0.02351 0.53697
 H1025 H 0.53936 0.02507 0.47682
 H1026 H 0.53085 -0.00904 0.46972
 H1027 H 0.47781 0.00715 0.53774
 H1028 H 0.46215 -0.00812 0.52304
 O1029 O 0.53732 0.51799 0.00081
 O1030 O 0.53236 0.51597 -0.02385
 O1031 O 0.50036 0.53750 0.01781
 O1032 O 0.47704 0.53329 0.01841
 O1033 O 0.51783 0.50027 0.03769
 O1034 O 0.51685 0.47564 0.03241
 O1035 O 0.46268 0.49905 -0.01851
 O1036 O 0.46677 0.52318 -0.01573
 O1037 O 0.49854 0.48132 -0.03699
 O1038 O 0.52276 0.48333 -0.03329
 O1039 O 0.48148 0.46263 -0.00112
 O1040 O 0.48218 0.46750 0.02424
 O1041 O 0.46267 0.48191 -0.00153
 O1042 O 0.46787 0.48322 0.02465
 O1043 O 0.49857 0.46250 -0.01803
 O1044 O 0.52464 0.46809 -0.01624
 O1045 O 0.48131 0.49813 -0.03691
 O1046 O 0.48583 0.52369 -0.03255
 O1047 O 0.53749 0.50063 0.01759
 O1048 O 0.53211 0.47550 0.01632
 O1049 O 0.50084 0.51732 0.03784
 O1050 O 0.47531 0.51519 0.03207
 O1051 O 0.51787 0.53745 0.00127
 O1052 O 0.51321 0.53204 -0.02414
 Zr1053 Zr 0.51678 0.51706 -0.00772
 O1054 O 0.50446 0.50428 -0.02120
 Zr1055 Zr 0.49208 0.51678 0.01734
 O1056 O 0.47852 0.50449 0.00460
 Zr1057 Zr 0.51696 0.49194 0.01706
 O1058 O 0.50431 0.47835 0.00471
 Zr1059 Zr 0.48300 0.50779 -0.01691
 O1060 O 0.49526 0.52161 -0.00419
 Zr1061 Zr 0.50772 0.48278 -0.01679
 O1062 O 0.52150 0.49544 -0.00446
 Zr1063 Zr 0.48282 0.48293 0.00799
 O1064 O 0.49548 0.49520 0.02188
 O1065 O 0.51340 0.51336 0.01371
 O1066 O 0.48626 0.48624 -0.01348
 C1067 C 0.54343 0.51065 0.01051
 C1068 C 0.51044 0.54350 0.01091
 C1069 C 0.51068 0.51008 0.04380
 C1070 C 0.45678 0.48890 -0.01163
 C1071 C 0.48828 0.48807 -0.04281
 C1072 C 0.48842 0.45666 -0.01116
 H1073 H 0.50678 0.50646 -0.03118
 H1074 H 0.50657 0.46840 0.00708
 H1075 H 0.51944 0.51938 0.01980
 H1076 H 0.46858 0.50691 0.00673
 H1077 H 0.47134 0.53217 -0.01283
 H1078 H 0.46980 0.53123 0.01116
 H1079 H 0.52281 0.46130 -0.00848
 H1080 H 0.53706 0.47641 0.00714
 H1081 H 0.47764 0.52330 -0.03909
 H1082 H 0.52020 0.53983 -0.02335
 H1083 H 0.49104 0.46197 0.02373
 H1084 H 0.50735 0.47576 0.03678
 H1085 H 0.53847 0.52449 -0.02328
 H1086 H 0.52995 0.49040 -0.03046
 H1087 H 0.47693 0.50643 0.03761
 H1088 H 0.46132 0.49120 0.02293
 O1089 O 0.75145 0.26875 0.46244
 O1090 O 0.72680 0.26671 0.46735
 O1091 O 0.76841 0.28828 0.49947
 O1092 O 0.76897 0.28409 0.52283
 O1093 O 0.78821 0.25106 0.48202
 O1094 O 0.78292 0.22641 0.48307
 O1095 O 0.73201 0.24988 0.53714
 O1096 O 0.73485 0.27401 0.53304
 O1097 O 0.71357 0.23213 0.50122
 O1098 O 0.71730 0.23409 0.47697
 O1099 O 0.74938 0.21343 0.51838
 O1100 O 0.77469 0.21829 0.51777
 O1101 O 0.74896 0.23274 0.53721
 O1102 O 0.77512 0.23406 0.53206
 O1103 O 0.73250 0.21329 0.50124
 O1104 O 0.73430 0.21886 0.47514
 O1105 O 0.71366 0.24898 0.51844
 O1106 O 0.71807 0.27452 0.51391
 O1107 O 0.76817 0.25137 0.46233
 O1108 O 0.76686 0.22624 0.46774
 O1109 O 0.78836 0.26813 0.49902
 O1110 O 0.78260 0.26598 0.52459
 O1111 O 0.75190 0.28821 0.48190
 O1112 O 0.72650 0.28282 0.48650
 Zr1113 Zr 0.74289 0.26783 0.48299
 O1114 O 0.72939 0.25507 0.49531
 Zr1115 Zr 0.76789 0.26757 0.50777
 O1116 O 0.75513 0.25531 0.52133
 Zr1117 Zr 0.76760 0.24270 0.48289
 O1118 O 0.75524 0.22913 0.49554
 Zr1119 Zr 0.73366 0.25861 0.51679
 O1120 O 0.74640 0.27240 0.50454
 Zr1121 Zr 0.73377 0.23357 0.49207
 O1122 O 0.74612 0.24620 0.47829
 Zr1123 Zr 0.75850 0.23373 0.51706
 O1124 O 0.77240 0.24599 0.50441
 O1125 O 0.76428 0.26412 0.48643
 O1126 O 0.73706 0.23705 0.51356
 C1127 C 0.76114 0.26139 0.45636
 C1128 C 0.76154 0.29427 0.48934
 C1129 C 0.79431 0.26090 0.48916
 C1130 C 0.73887 0.23974 0.54307
 C1131 C 0.70775 0.23891 0.51145
 C1132 C 0.73936 0.20745 0.51141
 H1133 H 0.71943 0.25726 0.49295
 H1134 H 0.75759 0.21918 0.49329
 H1135 H 0.77037 0.27014 0.48039
 H1136 H 0.75725 0.25773 0.53129
 H1137 H 0.73777 0.28299 0.52846
 H1138 H 0.76173 0.28203 0.53008
 H1139 H 0.74205 0.21207 0.47699
 H1140 H 0.75769 0.22715 0.46276
 H1141 H 0.71153 0.27414 0.52209
 H1142 H 0.72732 0.29060 0.47949
 H1143 H 0.77424 0.21281 0.50886
 H1144 H 0.78732 0.22659 0.49257
 H1145 H 0.72739 0.27523 0.46122
 H1146 H 0.72013 0.24116 0.46979
 H1147 H 0.78813 0.25723 0.52296
 H1148 H 0.77340 0.24203 0.53862
 O1149 O 0.75037 0.76874 -0.03814
 O1150 O 0.72571 0.76676 -0.03320
 O1151 O 0.76745 0.78810 -0.00109
 O1152 O 0.76801 0.78386 0.02225
 O1153 O 0.78711 0.75086 -0.01865
 O1154 O 0.78173 0.72623 -0.01771
 O1155 O 0.73101 0.74972 0.03655
 O1156 O 0.73386 0.77385 0.03247
 O1157 O 0.71247 0.73207 0.00061
 O1158 O 0.71613 0.73411 -0.02363
 O1159 O 0.74826 0.71326 0.01764
 O1160 O 0.77356 0.71806 0.01702
 O1161 O 0.74791 0.73253 0.03653
 O1162 O 0.77407 0.73380 0.03133
 O1163 O 0.73136 0.71319 0.00052
 O1164 O 0.73311 0.71886 -0.02557
 O1165 O 0.71262 0.74886 0.01789
 O1166 O 0.71705 0.77441 0.01338
 O1167 O 0.76705 0.75132 -0.03832
 O1168 O 0.76565 0.72617 -0.03300
 O1169 O 0.78734 0.76788 -0.00159
 O1170 O 0.78158 0.76571 0.02397
 O1171 O 0.75092 0.78814 -0.01864
 O1172 O 0.72550 0.78281 -0.01399
 Zr1173 Zr 0.74183 0.76778 -0.01758
 O1174 O 0.72832 0.75502 -0.00528
 Zr1175 Zr 0.76687 0.76737 0.00717
 O1176 O 0.75409 0.75511 0.02071
 Zr1177 Zr 0.76647 0.74258 -0.01779
 O1178 O 0.75410 0.72901 -0.00516
 Zr1179 Zr 0.73262 0.75848 0.01621
 O1180 O 0.74539 0.77228 0.00398
 Zr1181 Zr 0.73264 0.73350 -0.00858
 O1182 O 0.74499 0.74616 -0.02235
 Zr1183 Zr 0.75741 0.73355 0.01637
 O1184 O 0.77132 0.74579 0.00372
 O1185 O 0.76322 0.76400 -0.01418
 O1186 O 0.73597 0.73692 0.01291
 C1187 C 0.76004 0.76139 -0.04425
 C1188 C 0.76061 0.79414 -0.01120
 C1189 C 0.79326 0.76065 -0.01147
 C1190 C 0.73786 0.73955 0.04244
 C1191 C 0.70668 0.73881 0.01089
 C1192 C 0.73823 0.70731 0.01066
 H1193 H 0.71836 0.75722 -0.00762
 H1194 H 0.75643 0.71906 -0.00744
 H1195 H 0.76932 0.77001 -0.02021
 H1196 H 0.75624 0.75751 0.03066
 H1197 H 0.73679 0.78283 0.02791
 H1198 H 0.76076 0.78182 0.02949
 H1199 H 0.74085 0.71206 -0.02376
 H1200 H 0.75649 0.72715 -0.03798
 H1201 H 0.71052 0.77402 0.02158
 H1202 H 0.72634 0.79061 -0.02097
 H1203 H 0.77310 0.71262 0.00809
 H1204 H 0.78614 0.72636 -0.00821
 H1205 H 0.72632 0.77530 -0.03930
 H1206 H 0.71895 0.74122 -0.03079
 H1207 H 0.78710 0.75695 0.02232
 H1208 H 0.77236 0.74174 0.03793
 O1209 O 1.00130 0.21182 0.23171
 O1210 O 0.97667 0.21677 0.23376
 O1211 O 1.01825 0.24891 0.21217
 O1212 O 1.01886 0.27229 0.21634
 O1213 O 1.03817 0.23140 0.24930
 O1214 O 1.03295 0.23239 0.27391
 O1215 O 0.98202 0.28662 0.25061
 O1216 O 0.98479 0.28255 0.22649
 O1217 O 0.96363 0.25069 0.26836
 O1218 O 0.96731 0.22638 0.26637
 O1219 O 0.99951 0.26781 0.28693
 O1220 O 1.02483 0.26713 0.28201
 O1221 O 0.99903 0.28665 0.26769
 O1222 O 1.02519 0.28149 0.26628
 O1223 O 0.98259 0.25068 0.28711
 O1224 O 0.98437 0.22452 0.28156
 O1225 O 0.96368 0.26795 0.25154
 O1226 O 0.96798 0.26341 0.22602
 O1227 O 1.01809 0.21167 0.24902
 O1228 O 1.01688 0.21706 0.27410
 O1229 O 1.03828 0.24845 0.23226
 O1230 O 1.03253 0.27405 0.23439
 O1231 O 1.00174 0.23132 0.21226
 O1232 O 0.97636 0.23597 0.21770
 Zr1233 Zr 0.99279 0.23241 0.23263
 O1234 O 0.97935 0.24475 0.24540
 Zr1235 Zr 1.01781 0.25721 0.23285
 O1236 O 1.00512 0.27079 0.24512
 Zr1237 Zr 1.01758 0.23226 0.25767
 O1238 O 1.00528 0.24492 0.27125
 Zr1239 Zr 0.98363 0.26627 0.24186
 O1240 O 0.99631 0.25400 0.22806
 Zr1241 Zr 0.98379 0.24149 0.26687
 O1242 O 0.99608 0.22768 0.25422
 Zr1243 Zr 1.00856 0.26647 0.26664
 O1244 O 1.02240 0.25380 0.25438
 O1245 O 1.01420 0.23583 0.23629
 O1246 O 0.98711 0.26300 0.26338
 C1247 C 1.01100 0.20570 0.23904
 C1248 C 1.01136 0.23879 0.20619
 C1249 C 1.04425 0.23858 0.23948
 C1250 C 0.98890 0.29253 0.26075
 C1251 C 0.95780 0.26097 0.26162
 C1252 C 0.98948 0.26087 0.29291
 H1253 H 0.96938 0.24240 0.24325
 H1254 H 1.00766 0.24266 0.28118
 H1255 H 1.02026 0.22978 0.23027
 H1256 H 1.00723 0.28076 0.24269
 H1257 H 0.98766 0.27798 0.21751
 H1258 H 1.01162 0.27955 0.21840
 H1259 H 0.99212 0.22638 0.28834
 H1260 H 1.00769 0.21211 0.27323
 H1261 H 0.96145 0.27163 0.22641
 H1262 H 0.97714 0.22897 0.20992
 H1263 H 1.02433 0.25825 0.28753
 H1264 H 1.03734 0.24191 0.27375
 H1265 H 0.97723 0.21065 0.22525
 H1266 H 0.97012 0.21918 0.25931
 H1267 H 1.03808 0.27242 0.24313
 H1268 H 1.02342 0.28810 0.25834
 O1269 O 0.71280 1.01879 0.74883
 O1270 O 0.71768 1.01673 0.77352
 O1271 O 0.74978 1.03849 0.73200
 O1272 O 0.77312 1.03438 0.73154
 O1273 O 0.73248 1.00126 0.71201
 O1274 O 0.73353 0.97661 0.71725
 O1275 O 0.78740 1.00004 0.76846
 O1276 O 0.78329 1.02420 0.76566
 O1277 O 0.75158 0.98214 0.78672
 O1278 O 0.72734 0.98413 0.78296
 O1279 O 0.76875 0.96363 0.75087
 O1280 O 0.76814 0.96861 0.72550
 O1281 O 0.78751 0.98294 0.75145
 O1282 O 0.78247 0.98436 0.72525
 O1283 O 0.75160 0.96340 0.76773
 O1284 O 0.72553 0.96891 0.76588
 O1285 O 0.76874 0.99905 0.78674
 O1286 O 0.76416 1.02460 0.78242
 O1287 O 0.71275 1.00146 0.73203
 O1288 O 0.71818 0.97637 0.73326
 O1289 O 0.74945 1.01837 0.71196
 O1290 O 0.77495 1.01632 0.71782
 O1291 O 0.73220 1.03833 0.74847
 O1292 O 0.73678 1.03288 0.77390
 Zr1293 Zr 0.73332 1.01792 0.75745
 O1294 O 0.74562 1.00516 0.77096
 Zr1295 Zr 0.75812 1.01780 0.73250
 O1296 O 0.77166 1.00553 0.74527
 Zr1297 Zr 0.73330 0.99286 0.73263
 O1298 O 0.74592 0.97929 0.74500
 Zr1299 Zr 0.76709 1.00876 0.76676
 O1300 O 0.75485 1.02256 0.75401
 Zr1301 Zr 0.74243 0.98366 0.76650
 O1302 O 0.72866 0.99629 0.75413
 Zr1303 Zr 0.76742 0.98396 0.74181
 O1304 O 0.75479 0.99623 0.72790
 O1305 O 0.73680 1.01429 0.73603
 O1306 O 0.76388 0.98721 0.76327
 C1307 C 0.70675 1.01144 0.73910
 C1308 C 0.73965 1.04443 0.73886
 C1309 C 0.73964 1.01112 0.70595
 C1310 C 0.79333 0.98989 0.76161
 C1311 C 0.76180 0.98891 0.79259
 C1312 C 0.76179 0.95761 0.76087
 H1313 H 0.74325 1.00730 0.78093
 H1314 H 0.74369 0.96934 0.74261
 H1315 H 0.73077 1.02030 0.72993
 H1316 H 0.78161 1.00798 0.74319
 H1317 H 0.77871 1.03318 0.76276
 H1318 H 0.78037 1.03230 0.73877
 H1319 H 0.72739 0.96216 0.75810
 H1320 H 0.71321 0.97722 0.74243
 H1321 H 0.77234 1.02423 0.78898
 H1322 H 0.72978 1.04065 0.77309
 H1323 H 0.75931 0.96303 0.72599
 H1324 H 0.74303 0.97681 0.71289
 H1325 H 0.71155 1.02524 0.77293
 H1326 H 0.72013 0.99116 0.78011
 H1327 H 0.77339 1.00755 0.71228
 H1328 H 0.78900 0.99235 0.72703
 O1329 O 0.74913 0.53782 0.23102
 O1330 O 0.77377 0.53292 0.23309
 O1331 O 0.73223 0.50067 0.21156
 O1332 O 0.73169 0.47729 0.21579
 O1333 O 0.71232 0.51816 0.24869
 O1334 O 0.71759 0.51724 0.27328
 O1335 O 0.76856 0.46306 0.25006
 O1336 O 0.76579 0.46713 0.22593
 O1337 O 0.78692 0.49904 0.26779
 O1338 O 0.78323 0.52335 0.26567
 O1339 O 0.75113 0.48192 0.28638
 O1340 O 0.72578 0.48254 0.28145
 O1341 O 0.75160 0.46303 0.26716
 O1342 O 0.72544 0.46813 0.26579
 O1343 O 0.76797 0.49913 0.28651
 O1344 O 0.76618 0.52524 0.28087
 O1345 O 0.78688 0.48175 0.25102
 O1346 O 0.78258 0.48629 0.22547
 O1347 O 0.73236 0.53795 0.24833
 O1348 O 0.73362 0.53261 0.27342
 O1349 O 0.71222 0.50110 0.23168
 O1350 O 0.71803 0.47553 0.23384
 O1351 O 0.74872 0.51828 0.21162
 O1352 O 0.77411 0.51370 0.21707
 Zr1353 Zr 0.75769 0.51724 0.23199
 O1354 O 0.77118 0.50495 0.24478
 Zr1355 Zr 0.73271 0.49240 0.23226
 O1356 O 0.74545 0.47886 0.24457
 Zr1357 Zr 0.73293 0.51738 0.25703
 O1358 O 0.74528 0.50476 0.27064
 Zr1359 Zr 0.76693 0.48342 0.24130
 O1360 O 0.75421 0.49564 0.22747
 Zr1361 Zr 0.76675 0.50824 0.26624
 O1362 O 0.75441 0.52200 0.25356
 Zr1363 Zr 0.74204 0.48319 0.26609
 O1364 O 0.72815 0.49582 0.25379
 O1365 O 0.73629 0.51379 0.23566
 O1366 O 0.76347 0.48671 0.26281
 C1367 C 0.73943 0.54391 0.23833
 C1368 C 0.73911 0.51079 0.20557
 C1369 C 0.70623 0.51095 0.23889
 C1370 C 0.76170 0.45715 0.26020
 C1371 C 0.79275 0.48875 0.26110
 C1372 C 0.76113 0.48893 0.29235
 H1373 H 0.78114 0.50730 0.24263
 H1374 H 0.74290 0.50704 0.28056
 H1375 H 0.73020 0.51981 0.22963
 H1376 H 0.74335 0.46888 0.24217
 H1377 H 0.76291 0.47171 0.21695
 H1378 H 0.73894 0.47005 0.21787
 H1379 H 0.75841 0.52342 0.28763
 H1380 H 0.74279 0.53759 0.27252
 H1381 H 0.78912 0.47809 0.22589
 H1382 H 0.77331 0.52069 0.20928
 H1383 H 0.72630 0.49141 0.28698
 H1384 H 0.71324 0.50770 0.27317
 H1385 H 0.77319 0.53903 0.22457
 H1386 H 0.78038 0.53055 0.25862
 H1387 H 0.71250 0.47713 0.24258
 H1388 H 0.72718 0.46156 0.25783
 O1389 O 0.50112 0.21197 0.73163
 O1390 O 0.47647 0.21682 0.73368
 O1391 O 0.51792 0.24921 0.71218
 O1392 O 0.51855 0.27255 0.71644
 O1393 O 0.53788 0.23162 0.74931
 O1394 O 0.53263 0.23257 0.77392
 O1395 O 0.48157 0.28669 0.75058
 O1396 O 0.48434 0.28263 0.72648
 O1397 O 0.46324 0.25065 0.76830
 O1398 O 0.46701 0.22637 0.76628
 O1399 O 0.49905 0.26788 0.78694
 O1400 O 0.52431 0.26735 0.78212
 O1401 O 0.49854 0.28676 0.76769
 O1402 O 0.52475 0.28162 0.76632
 O1403 O 0.48219 0.25067 0.78708
 O1404 O 0.48405 0.22454 0.78148
 O1405 O 0.46326 0.26795 0.75151
 O1406 O 0.46760 0.26344 0.72599
 O1407 O 0.51786 0.21185 0.74898
 O1408 O 0.51659 0.21720 0.77407
 O1409 O 0.53796 0.24869 0.73229
 O1410 O 0.53213 0.27429 0.73451
 O1411 O 0.50149 0.23154 0.71221
 O1412 O 0.47609 0.23605 0.71765
 Zr1413 Zr 0.49252 0.23253 0.73259
 O1414 O 0.47902 0.24480 0.74535
 Zr1415 Zr 0.51747 0.25741 0.73289
 O1416 O 0.50470 0.27093 0.74514
 Zr1417 Zr 0.51728 0.23242 0.75766
 O1418 O 0.50492 0.24503 0.77124
 Zr1419 Zr 0.48323 0.26634 0.74185
 O1420 O 0.49598 0.25414 0.72806
 Zr1421 Zr 0.48345 0.24153 0.76682
 O1422 O 0.49580 0.22778 0.75417
 Zr1423 Zr 0.50812 0.26660 0.76667
 O1424 O 0.52203 0.25399 0.75442
 O1425 O 0.51392 0.23602 0.73628
 O1426 O 0.48669 0.26306 0.76337
 C1427 C 0.51082 0.20588 0.73896
 C1428 C 0.51107 0.23908 0.70617
 C1429 C 0.54395 0.23882 0.73950
 C1430 C 0.48843 0.29262 0.76071
 C1431 C 0.45739 0.26092 0.76157
 C1432 C 0.48904 0.26088 0.79291
 H1433 H 0.46906 0.24242 0.74318
 H1434 H 0.50729 0.24276 0.78116
 H1435 H 0.52000 0.23000 0.73025
 H1436 H 0.50679 0.28091 0.74273
 H1437 H 0.48725 0.27806 0.71751
 H1438 H 0.51120 0.27971 0.71842
 H1439 H 0.49180 0.22640 0.78827
 H1440 H 0.50743 0.21221 0.77316
 H1441 H 0.46104 0.27162 0.72639
 H1442 H 0.47691 0.22906 0.70986
 H1443 H 0.52394 0.25837 0.78752
 H1444 H 0.53700 0.24211 0.77377
 H1445 H 0.47706 0.21071 0.72515
 H1446 H 0.46984 0.21920 0.75920
 H1447 H 0.53772 0.27263 0.74321
 H1448 H 0.52295 0.28826 0.75843
 O1449 O 0.24904 0.71272 0.51902
 O1450 O 0.27369 0.71763 0.51698
 O1451 O 0.23218 0.74983 0.53854
 O1452 O 0.23166 0.77321 0.53435
 O1453 O 0.21224 0.73238 0.50137
 O1454 O 0.21750 0.73336 0.47677
 O1455 O 0.26856 0.78751 0.50011
 O1456 O 0.26578 0.78341 0.52424
 O1457 O 0.28685 0.75157 0.48235
 O1458 O 0.28312 0.72726 0.48441
 O1459 O 0.25107 0.76874 0.46378
 O1460 O 0.22572 0.76809 0.46868
 O1461 O 0.25158 0.78757 0.48301
 O1462 O 0.22541 0.78247 0.48438
 O1463 O 0.26791 0.75155 0.46363
 O1464 O 0.26606 0.72541 0.46920
 O1465 O 0.28684 0.76883 0.49917
 O1466 O 0.28254 0.76425 0.52470
 O1467 O 0.23226 0.71261 0.50170
 O1468 O 0.23352 0.71801 0.47661
 O1469 O 0.21216 0.74942 0.51841
 O1470 O 0.21800 0.77500 0.51629
 O1471 O 0.24866 0.73222 0.53846
 O1472 O 0.27405 0.73682 0.53304
 Zr1473 Zr 0.25762 0.73330 0.51810
 O1474 O 0.27111 0.74562 0.50534
 Zr1475 Zr 0.23267 0.75814 0.51785
 O1476 O 0.24542 0.77171 0.50559
 Zr1477 Zr 0.23285 0.73320 0.49303
 O1478 O 0.24520 0.74585 0.47946
 Zr1479 Zr 0.26689 0.76715 0.50886
 O1480 O 0.25416 0.75489 0.52265
 Zr1481 Zr 0.26667 0.74237 0.48387
 O1482 O 0.25433 0.72858 0.49651
 Zr1483 Zr 0.24198 0.76741 0.48406
 O1484 O 0.22809 0.75475 0.49632
 O1485 O 0.23622 0.73676 0.51442
 O1486 O 0.26342 0.76389 0.48735
 C1487 C 0.23932 0.70663 0.51170
 C1488 C 0.23905 0.73969 0.54452
 C1489 C 0.20617 0.73957 0.51117
 C1490 C 0.26172 0.79343 0.48996
 C1491 C 0.29269 0.76186 0.48907
 C1492 C 0.26107 0.76176 0.45781
 H1493 H 0.28108 0.74326 0.50750
 H1494 H 0.24282 0.74360 0.46953
 H1495 H 0.23013 0.73072 0.52043
 H1496 H 0.24333 0.78168 0.50800
 H1497 H 0.26289 0.77883 0.53321
 H1498 H 0.23893 0.78045 0.53230
 H1499 H 0.25831 0.72727 0.46242
 H1500 H 0.24268 0.71303 0.47751
 H1501 H 0.28909 0.77245 0.52430
 H1502 H 0.27324 0.72982 0.54082
 H1503 H 0.22623 0.75923 0.46313
 H1504 H 0.21316 0.74290 0.47691
 H1505 H 0.27310 0.71150 0.52549
 H1506 H 0.28027 0.72004 0.49145
 H1507 H 0.21246 0.77340 0.50754
 H1508 H 0.22718 0.78904 0.49234
 O1509 O 0.28794 0.25033 0.98185
 O1510 O 0.28298 0.22562 0.98399
 O1511 O 0.25098 0.26730 0.96230
 O1512 O 0.22766 0.26793 0.96648
 O1513 O 0.26848 0.28728 0.99944
 O1514 O 0.26750 0.28204 1.02405
 O1515 O 0.21329 0.23103 1.00076
 O1516 O 0.21738 0.23375 0.97666
 O1517 O 0.24912 0.21255 1.01858
 O1518 O 0.27335 0.21621 1.01659
 O1519 O 0.23212 0.24855 1.03710
 O1520 O 0.23281 0.27391 1.03215
 O1521 O 0.21329 0.24808 1.01782
 O1522 O 0.21851 0.27430 1.01642
 O1523 O 0.24920 0.23160 1.03731
 O1524 O 0.27526 0.23333 1.03173
 O1525 O 0.23190 0.21259 1.00176
 O1526 O 0.23644 0.21689 0.97623
 O1527 O 0.28811 0.26717 0.99914
 O1528 O 0.28276 0.26591 1.02424
 O1529 O 0.25148 0.28740 0.98238
 O1530 O 0.22595 0.28164 0.98451
 O1531 O 0.26848 0.25072 0.96242
 O1532 O 0.26383 0.22528 0.96791
 Zr1533 Zr 0.26740 0.24177 0.98281
 O1534 O 0.25506 0.22830 0.99560
 Zr1535 Zr 0.24271 0.26688 0.98299
 O1536 O 0.22914 0.25415 0.99527
 Zr1537 Zr 0.26759 0.26664 1.00782
 O1538 O 0.25494 0.25431 1.02141
 Zr1539 Zr 0.23361 0.23260 0.99205
 O1540 O 0.24587 0.24531 0.97823
 Zr1541 Zr 0.25833 0.23277 1.01705
 O1542 O 0.27212 0.24508 1.00439
 Zr1543 Zr 0.23345 0.25760 1.01680
 O1544 O 0.24611 0.27147 1.00451
 O1545 O 0.26402 0.26324 0.98644
 O1546 O 0.23687 0.23609 1.01356
 C1547 C 0.29404 0.26008 0.98914
 C1548 C 0.26106 0.26038 0.95634
 C1549 C 0.26134 0.29338 0.98960
 C1550 C 0.20740 0.23795 1.01086
 C1551 C 0.23886 0.20670 1.01184
 C1552 C 0.23906 0.23852 1.04311
 H1553 H 0.25739 0.21830 0.99346
 H1554 H 0.25720 0.25671 1.03133
 H1555 H 0.27005 0.26932 0.98041
 H1556 H 0.21921 0.25628 0.99284
 H1557 H 0.22196 0.23663 0.96768
 H1558 H 0.22042 0.26066 0.96854
 H1559 H 0.27346 0.24113 1.03847
 H1560 H 0.28771 0.25672 1.02334
 H1561 H 0.22824 0.21035 0.97664
 H1562 H 0.27082 0.22606 0.96014
 H1563 H 0.24169 0.27344 1.03765
 H1564 H 0.25801 0.28645 1.02388
 H1565 H 0.28909 0.22618 0.97548
 H1566 H 0.28052 0.21901 1.00951
 H1567 H 0.22758 0.28722 0.99323
 H1568 H 0.21195 0.27255 1.00846
 N1569 N 0.29767 0.37019 0.77970
 C1570 C 0.28610 0.37624 0.78559
 N1571 N 0.27978 0.36979 0.79674
 N1572 N 0.28491 0.35768 0.80185
 C1573 C 0.29655 0.35158 0.79604
 N1574 N 0.30279 0.35808 0.78482
 C1575 C 0.28098 0.38962 0.78052
 C1576 C 0.27686 0.40102 0.77651
 C1577 C 0.27217 0.41477 0.77204
 N1578 N 0.26168 0.42150 0.77911
 N1579 N 0.25779 0.43454 0.77540
 C1580 C 0.26426 0.44131 0.76450
 N1581 N 0.27472 0.43452 0.75739
 N1582 N 0.27862 0.42146 0.76110
 N1583 N 0.30006 -0.12810 0.28189
 C1584 C 0.28870 -0.12180 0.28790
 N1585 N 0.28255 -0.12794 0.29930
 N1586 N 0.28763 -0.14001 0.30455
 C1587 C 0.29908 -0.14640 0.29863
 N1588 N 0.30514 -0.14017 0.28714
 C1589 C 0.28354 -0.10853 0.28258
 C1590 C 0.27933 -0.09726 0.27830
 C1591 C 0.27447 -0.08370 0.27345
 N1592 N 0.26359 -0.07711 0.28006
 N1593 N 0.25941 -0.06429 0.27590
 C1594 C 0.26596 -0.05762 0.26499
 N1595 N 0.27683 -0.06426 0.25836
 N1596 N 0.28102 -0.07709 0.26252
 N1597 N 0.78150 0.87199 0.79801
 C1598 C 0.78787 0.87837 0.78687
 N1599 N 0.79931 0.87216 0.78090
 N1600 N 0.80425 0.85995 0.78596
 C1601 C 0.79798 0.85349 0.79720
 N1602 N 0.78645 0.85978 0.80306
 C1603 C 0.78286 0.89179 0.78177
 C1604 C 0.77879 0.90317 0.77767
 C1605 C 0.77411 0.91686 0.77301
 N1606 N 0.78085 0.92362 0.76230
 N1607 N 0.77681 0.93654 0.75831
 C1608 C 0.76590 0.94315 0.76490
 N1609 N 0.75915 0.93633 0.77560
 N1610 N 0.76319 0.92341 0.77959
 N1611 N 0.45093 0.87768 0.28132
 C1612 C 0.46232 0.87143 0.28738
 N1613 N 0.46847 0.87766 0.29873
 N1614 N 0.46337 0.88975 0.30389
 C1615 C 0.45192 0.89606 0.29791
 N1616 N 0.44583 0.88977 0.28648
 C1617 C 0.46745 0.85812 0.28218
 C1618 C 0.47161 0.84679 0.27802
 C1619 C 0.47636 0.83316 0.27330
 N1620 N 0.48729 0.82662 0.27988
 N1621 N 0.49136 0.81372 0.27587
 C1622 C 0.48462 0.80693 0.26514
 N1623 N 0.47370 0.81353 0.25854
 N1624 N 0.46963 0.82643 0.26256
 N1625 N -0.03216 0.87812 0.79973
 C1626 C -0.03827 0.87201 0.78829
 N1627 N -0.04963 0.87833 0.78225
 N1628 N -0.05473 0.89038 0.78752
 C1629 C -0.04871 0.89657 0.79905
 N1630 N -0.03727 0.89017 0.80499
 C1631 C -0.03309 0.85876 0.78295
 C1632 C -0.02889 0.84750 0.77866
 C1633 C -0.02405 0.83394 0.77379
 N1634 N -0.03070 0.82731 0.76294
 N1635 N -0.02656 0.81447 0.75878
 C1636 C -0.01562 0.80784 0.76534
 N1637 N -0.00896 0.81455 0.77617
 N1638 N -0.01311 0.82738 0.78032
 N1639 N -0.04880 -0.12878 -0.03059
 C1640 C -0.03766 -0.12224 -0.03682
 N1641 N -0.03164 -0.12824 -0.04836
 N1642 N -0.03663 -0.14039 -0.05353
 C1643 C -0.04783 -0.14698 -0.04737
 N1644 N -0.05378 -0.14092 -0.03577
 C1645 C -0.03264 -0.10888 -0.03159
 C1646 C -0.02856 -0.09754 -0.02739
 C1647 C -0.02386 -0.08388 -0.02264
 N1648 N -0.01300 -0.07725 -0.02924
 N1649 N -0.00895 -0.06436 -0.02518
 C1650 C -0.01564 -0.05765 -0.01438
 N1651 N -0.02650 -0.06434 -0.00777
 N1652 N -0.03055 -0.07724 -0.01183
 N1653 N -0.04861 0.37185 0.46835
 C1654 C -0.03744 0.37829 0.46210
 N1655 N -0.03137 0.37215 0.45066
 N1656 N -0.03635 0.35995 0.44561
 C1657 C -0.04761 0.35342 0.45176
 N1658 N -0.05358 0.35964 0.46328
 C1659 C -0.03241 0.39169 0.46723
 C1660 C -0.02832 0.40306 0.47138
 C1661 C -0.02363 0.41673 0.47610
 N1662 N -0.01269 0.42331 0.46956
 N1663 N -0.00864 0.43621 0.47362
 C1664 C -0.01540 0.44297 0.48434
 N1665 N -0.02633 0.43633 0.49089
 N1666 N -0.03038 0.42343 0.48683
 N1667 N 0.45072 -0.12748 0.46826
 C1668 C 0.46214 -0.12128 0.46222
 N1669 N 0.46819 -0.12748 0.45081
 N1670 N 0.46295 -0.13950 0.44558
 C1671 C 0.45145 -0.14578 0.45153
 N1672 N 0.44549 -0.13950 0.46303
 C1673 C 0.46742 -0.10805 0.46750
 C1674 C 0.47170 -0.09680 0.47176
 C1675 C 0.47659 -0.08324 0.47660
 N1676 N 0.48755 -0.07671 0.47005
 N1677 N 0.49172 -0.06387 0.47416
 C1678 C 0.48508 -0.05712 0.48496
 N1679 N 0.47413 -0.06372 0.49153
 N1680 N 0.46996 -0.07656 0.48742
 N1681 N 0.46845 0.37136 -0.04884
 C1682 C 0.46238 0.37747 -0.03739
 N1683 N 0.45123 0.37100 -0.03114
 N1684 N 0.44627 0.35880 -0.03622
 C1685 C 0.45224 0.35260 -0.04776
 N1686 N 0.46349 0.35916 -0.05391
 C1687 C 0.46739 0.39087 -0.03225
 C1688 C 0.47146 0.40225 -0.02812
 C1689 C 0.47613 0.41593 -0.02342
 N1690 N 0.46940 0.42262 -0.01266
 N1691 N 0.47343 0.43554 -0.00863
 C1692 C 0.48432 0.44221 -0.01523
 N1693 N 0.49106 0.43545 -0.02597
 N1694 N 0.48703 0.42254 -0.03000
 N1695 N 0.78090 0.38000 0.45260
 C1696 C 0.78710 0.37382 0.46396
 N1697 N 0.79854 0.38008 0.46991
 N1698 N 0.80365 0.39214 0.46464
 C1699 C 0.79753 0.39837 0.45320
 N1700 N 0.78601 0.39206 0.44733
 C1701 C 0.78201 0.36049 0.46920
 C1702 C 0.77791 0.34913 0.47334
 C1703 C 0.77324 0.33541 0.47793
 N1704 N 0.77976 0.32877 0.48886
 N1705 N 0.77587 0.31574 0.49266
 C1706 C 0.76534 0.30891 0.48566
 N1707 N 0.75879 0.31563 0.47477
 N1708 N 0.76268 0.32865 0.47096
 N1709 N 0.78113 0.87956 -0.04805
 C1710 C 0.78717 0.87333 -0.03663
 N1711 N 0.79867 0.87944 -0.03064
 N1712 N 0.80399 0.89139 -0.03593
 C1713 C 0.79806 0.89769 -0.04745
 N1714 N 0.78646 0.89151 -0.05334
 C1715 C 0.78186 0.86009 -0.03138
 C1716 C 0.77757 0.84880 -0.02723
 C1717 C 0.77271 0.83516 -0.02261
 N1718 N 0.77913 0.82846 -0.01166
 N1719 N 0.77510 0.81548 -0.00785
 C1720 C 0.76451 0.80875 -0.01487
 N1721 N 0.75806 0.81552 -0.02579
 N1722 N 0.76210 0.82850 -0.02960
 N1723 N 0.79803 0.28050 0.37076
 C1724 C 0.78660 0.28660 0.37686
 N1725 N 0.78054 0.29796 0.37055
 N1726 N 0.78577 0.30310 0.35850
 C1727 C 0.79728 0.29707 0.35234
 N1728 N 0.80326 0.28563 0.35871
 C1729 C 0.78140 0.28150 0.39018
 C1730 C 0.77726 0.27742 0.40153
 C1731 C 0.77262 0.27283 0.41524
 N1732 N 0.76206 0.27976 0.42200
 N1733 N 0.75822 0.27595 0.43502
 C1734 C 0.76484 0.26509 0.44173
 N1735 N 0.77538 0.25812 0.43490
 N1736 N 0.77921 0.26193 0.42188
 N1737 N 0.77964 0.79836 -0.12985
 C1738 C 0.78561 0.78689 -0.12363
 N1739 N 0.79697 0.78073 -0.12980
 N1740 N 0.80222 0.78590 -0.14182
 C1741 C 0.79634 0.79744 -0.14809
 N1742 N 0.78490 0.80353 -0.14187
 C1743 C 0.78038 0.78174 -0.11033
 C1744 C 0.77622 0.77762 -0.09900
 C1745 C 0.77156 0.77298 -0.08532
 N1746 N 0.77812 0.76204 -0.07873
 N1747 N 0.77427 0.75817 -0.06573
 C1748 C 0.76375 0.76513 -0.05887
 N1749 N 0.75716 0.77604 -0.06553
 N1750 N 0.76101 0.77990 -0.07854
 N1751 N 0.29726 0.46993 0.87965
 C1752 C 0.28576 0.46386 0.87362
 N1753 N 0.27956 0.45265 0.88010
 N1754 N 0.28475 0.44764 0.89221
 C1755 C 0.29633 0.45362 0.89829
 N1756 N 0.30245 0.46491 0.89176
 C1757 C 0.28058 0.46885 0.86025
 C1758 C 0.27645 0.47285 0.84885
 C1759 C 0.27181 0.47737 0.83512
 N1760 N 0.26124 0.47040 0.82837
 N1761 N 0.25739 0.47418 0.81534
 C1762 C 0.26399 0.48505 0.80861
 N1763 N 0.27454 0.49204 0.81543
 N1764 N 0.27838 0.48827 0.82846
 N1765 N 0.28227 -0.04900 0.37786
 C1766 C 0.28837 -0.03769 0.37146
 N1767 N 0.29983 -0.03157 0.37752
 N1768 N 0.30505 -0.03663 0.38961
 C1769 C 0.29902 -0.04800 0.39607
 N1770 N 0.28749 -0.05405 0.38994
 C1771 C 0.28307 -0.03258 0.35817
 C1772 C 0.27878 -0.02845 0.34689
 C1773 C 0.27389 -0.02373 0.33330
 N1774 N 0.28034 -0.01274 0.32668
 N1775 N 0.27616 -0.00869 0.31384
 C1776 C 0.26539 -0.01549 0.30718
 N1777 N 0.25892 -0.02647 0.31387
 N1778 N 0.26311 -0.03052 0.32671
 N1779 N -0.04906 -0.03221 -0.12727
 C1780 C -0.03772 -0.03840 -0.12109
 N1781 N -0.03172 -0.04981 -0.12735
 N1782 N -0.03693 -0.05491 -0.13942
 C1783 C -0.04836 -0.04881 -0.14569
 N1784 N -0.05427 -0.03731 -0.13934
 C1785 C -0.03244 -0.03323 -0.10782
 C1786 C -0.02820 -0.02902 -0.09654
 C1787 C -0.02339 -0.02418 -0.08297
 N1788 N -0.01262 -0.03088 -0.07628
 N1789 N -0.00852 -0.02672 -0.06344
 C1790 C -0.01505 -0.01573 -0.05687
 N1791 N -0.02581 -0.00902 -0.06363
 N1792 N -0.02991 -0.01318 -0.07647
 N1793 N -0.03218 0.45005 0.37216
 C1794 C -0.03830 0.46140 0.37843
 N1795 N -0.04969 0.46748 0.37224
 N1796 N -0.05484 0.46234 0.36016
 C1797 C -0.04882 0.45091 0.35381
 N1798 N -0.03733 0.44492 0.36008
 C1799 C -0.03307 0.46662 0.39169
 C1800 C -0.02885 0.47088 0.40295
 C1801 C -0.02404 0.47578 0.41650
 N1802 N -0.03072 0.48663 0.42308
 N1803 N -0.02657 0.49088 0.43587
 C1804 C -0.01559 0.48441 0.44250
 N1805 N -0.00889 0.47356 0.43585
 N1806 N -0.01306 0.46932 0.42307
 N1807 N 0.45094 -0.03211 0.37261
 C1808 C 0.46232 -0.03825 0.37878
 N1809 N 0.46846 -0.04955 0.37244
 N1810 N 0.46334 -0.05459 0.36031
 C1811 C 0.45189 -0.04853 0.35407
 N1812 N 0.44582 -0.03716 0.36047
 C1813 C 0.46751 -0.03314 0.39210
 C1814 C 0.47170 -0.02898 0.40340
 C1815 C 0.47647 -0.02418 0.41699
 N1816 N 0.48744 -0.03070 0.42355
 N1817 N 0.49158 -0.02653 0.43637
 C1818 C 0.48489 -0.01571 0.44306
 N1819 N 0.47393 -0.00918 0.43643
 N1820 N 0.46979 -0.01336 0.42362
 N1821 N 0.46830 0.45061 -0.12819
 C1822 C 0.46226 0.46202 -0.12195
 N1823 N 0.45115 0.46842 -0.12835
 N1824 N 0.44621 0.46353 -0.14062
 C1825 C 0.45218 0.45205 -0.14693
 N1826 N 0.46336 0.44573 -0.14046
 C1827 C 0.46725 0.46697 -0.10850
 C1828 C 0.47129 0.47100 -0.09709
 C1829 C 0.47591 0.47564 -0.08339
 N1830 N 0.46916 0.48638 -0.07671
 N1831 N 0.47318 0.49043 -0.06382
 C1832 C 0.48410 0.48386 -0.05718
 N1833 N 0.49086 0.47312 -0.06392
 N1834 N 0.48683 0.46907 -0.07681
 N1835 N 0.46796 0.80009 0.37742
 C1836 C 0.46181 0.78873 0.37117
 N1837 N 0.45042 0.78264 0.37739
 N1838 N 0.44531 0.78779 0.38947
 C1839 C 0.45139 0.79922 0.39578
 N1840 N 0.46285 0.80523 0.38950
 C1841 C 0.46700 0.78348 0.35791
 C1842 C 0.47120 0.77921 0.34665
 C1843 C 0.47598 0.77429 0.33312
 N1844 N 0.46929 0.76341 0.32656
 N1845 N 0.47344 0.75914 0.31378
 C1846 C 0.48441 0.76561 0.30714
 N1847 N 0.49111 0.77648 0.31376
 N1848 N 0.48697 0.78075 0.32653
 N1849 N -0.04926 0.78195 0.87799
 C1850 C -0.03810 0.78833 0.87166
 N1851 N -0.03206 0.79972 0.87795
 N1852 N -0.03706 0.80461 0.89018
 C1853 C -0.04831 0.79832 0.89660
 N1854 N -0.05426 0.78685 0.89022
 C1855 C -0.03303 0.78336 0.85825
 C1856 C -0.02892 0.77930 0.84688
 C1857 C -0.02423 0.77461 0.83323
 N1858 N -0.01326 0.78114 0.82670
 N1859 N -0.00916 0.77705 0.81385
 C1860 C -0.01591 0.76629 0.80710
 N1861 N -0.02688 0.75975 0.81369
 N1862 N -0.03097 0.76385 0.82653
 N1863 N 0.37238 0.78127 0.29992
 C1864 C 0.37868 0.78728 0.28853
 N1865 N 0.37255 0.79868 0.28233
 N1866 N 0.36050 0.80392 0.28740
 C1867 C 0.35414 0.79798 0.29885
 N1868 N 0.36033 0.78652 0.30498
 C1869 C 0.39192 0.78196 0.28340
 C1870 C 0.40317 0.77769 0.27923
 C1871 C 0.41671 0.77284 0.27442
 N1872 N 0.42328 0.77942 0.26349
 N1873 N 0.43608 0.77528 0.25935
 C1874 C 0.44276 0.76442 0.26600
 N1875 N 0.43613 0.75782 0.27692
 N1876 N 0.42332 0.76197 0.28106
 N1877 N -0.12862 0.78129 0.79837
 C1878 C -0.12212 0.78756 0.78724
 N1879 N -0.12818 0.79905 0.78114
 N1880 N -0.14036 0.80413 0.78605
 C1881 C -0.14692 0.79793 0.79725
 N1882 N -0.14080 0.78638 0.80328
 C1883 C -0.10874 0.78242 0.78228
 C1884 C -0.09739 0.77828 0.77826
 C1885 C -0.08373 0.77358 0.77364
 N1886 N -0.07707 0.78025 0.76283
 N1887 N -0.06418 0.77621 0.75885
 C1888 C -0.05752 0.76536 0.76555
 N1889 N -0.06425 0.75868 0.77635
 N1890 N -0.07714 0.76272 0.78033
 N1891 N 0.87973 0.29783 0.46951
 C1892 C 0.87359 0.28636 0.46346
 N1893 N 0.87982 0.28028 0.45207
 N1894 N 0.89182 0.28554 0.44688
 C1895 C 0.89801 0.29708 0.45285
 N1896 N 0.89173 0.30308 0.46431
 C1897 C 0.86032 0.28112 0.46863
 C1898 C 0.84901 0.27697 0.47279
 C1899 C 0.83535 0.27232 0.47749
 N1900 N 0.82860 0.26159 0.47075
 N1901 N 0.81561 0.25777 0.47465
 C1902 C 0.80893 0.26456 0.48540
 N1903 N 0.81576 0.27526 0.49217
 N1904 N 0.82875 0.27908 0.48827
 N1905 N 0.87904 0.79695 -0.03058
 C1906 C 0.87275 0.78568 -0.03686
 N1907 N 0.87887 0.77979 -0.04840
 N1908 N 0.89090 0.78504 -0.05353
 C1909 C 0.89724 0.79639 -0.04733
 N1910 N 0.89106 0.80219 -0.03571
 C1911 C 0.85944 0.78049 -0.03175
 C1912 C 0.84809 0.77639 -0.02765
 C1913 C 0.83439 0.77183 -0.02301
 N1914 N 0.82758 0.76117 -0.02980
 N1915 N 0.81455 0.75743 -0.02596
 C1916 C 0.80790 0.76423 -0.01520
 N1917 N 0.81478 0.77486 -0.00837
 N1918 N 0.82781 0.77860 -0.01222
 N1919 N -0.12727 -0.03219 -0.04974
 C1920 C -0.12116 -0.03821 -0.03826
 N1921 N -0.12759 -0.04937 -0.03194
 N1922 N -0.13975 -0.05439 -0.03699
 C1923 C -0.14595 -0.04847 -0.04856
 N1924 N -0.13944 -0.03722 -0.05479
 C1925 C -0.10782 -0.03310 -0.03311
 C1926 C -0.09651 -0.02897 -0.02893
 C1927 C -0.08293 -0.02423 -0.02411
 N1928 N -0.07633 -0.03096 -0.01330
 N1929 N -0.06352 -0.02684 -0.00910
 C1930 C -0.05688 -0.01585 -0.01559
 N1931 N -0.06354 -0.00910 -0.02640
 N1932 N -0.07635 -0.01323 -0.03059
 N1933 N -0.12823 0.45248 0.46797
 C1934 C -0.12188 0.46365 0.46159
 N1935 N -0.12809 0.46962 0.45013
 N1936 N -0.14027 0.46454 0.44518
 C1937 C -0.14671 0.45328 0.45147
 N1938 N -0.14041 0.44741 0.46302
 C1939 C -0.10850 0.46876 0.46661
 C1940 C -0.09715 0.47286 0.47070
 C1941 C -0.08349 0.47752 0.47541
 N1942 N -0.07682 0.48836 0.46878
 N1943 N -0.06393 0.49236 0.47285
 C1944 C -0.05729 0.48564 0.48369
 N1945 N -0.06403 0.47480 0.49033
 N1946 N -0.07691 0.47081 0.48625
 N1947 N 0.37292 -0.03139 0.45021
 C1948 C 0.37916 -0.03741 0.46163
 N1949 N 0.37293 -0.04875 0.46784
 N1950 N 0.36085 -0.05393 0.46275
 C1951 C 0.35454 -0.04801 0.45124
 N1952 N 0.36084 -0.03658 0.44513
 C1953 C 0.39243 -0.03215 0.46680
 C1954 C 0.40369 -0.02792 0.47101
 C1955 C 0.41725 -0.02310 0.47584
 N1956 N 0.42383 -0.02973 0.48674
 N1957 N 0.43664 -0.02560 0.49090
 C1958 C 0.44332 -0.01470 0.48428
 N1959 N 0.43668 -0.00807 0.47340
 N1960 N 0.42386 -0.01220 0.46924
 N1961 N 0.37125 0.45179 -0.03107
 C1962 C 0.37753 0.46306 -0.03736
 N1963 N 0.37116 0.46923 -0.04863
 N1964 N 0.35890 0.46424 -0.05349
 C1965 C 0.35255 0.45288 -0.04729
 N1966 N 0.35900 0.44681 -0.03593
 C1967 C 0.39097 0.46810 -0.03244
 C1968 C 0.40238 0.47215 -0.02843
 C1969 C 0.41608 0.47676 -0.02382
 N1970 N 0.42274 0.48759 -0.03050
 N1971 N 0.43565 0.49157 -0.02651
 C1972 C 0.44235 0.48484 -0.01571
 N1973 N 0.43564 0.47402 -0.00903
 N1974 N 0.42272 0.47004 -0.01302
 N1975 N 0.37911 0.47009 0.79742
 C1976 C 0.37286 0.46407 0.78600
 N1977 N 0.37902 0.45269 0.77983
 N1978 N 0.39106 0.44746 0.78495
 C1979 C 0.39736 0.45339 0.79644
 N1980 N 0.39115 0.46485 0.80253
 C1981 C 0.35954 0.46927 0.78093
 C1982 C 0.34818 0.47339 0.77689
 C1983 C 0.33446 0.47800 0.77234
 N1984 N 0.32777 0.47127 0.76159
 N1985 N 0.31473 0.47506 0.75782
 C1986 C 0.30795 0.48570 0.76470
 N1987 N 0.31472 0.49247 0.77543
 N1988 N 0.32775 0.48867 0.77919
 N1989 N 0.37753 -0.03190 0.29958
 C1990 C 0.37130 -0.03797 0.28817
 N1991 N 0.37758 -0.04925 0.28193
 N1992 N 0.38972 -0.05434 0.28697
 C1993 C 0.39601 -0.04835 0.29845
 N1994 N 0.38967 -0.03700 0.30461
 C1995 C 0.35798 -0.03282 0.28306
 C1996 C 0.34667 -0.02868 0.27890
 C1997 C 0.33308 -0.02396 0.27410
 N1998 N 0.32644 -0.03075 0.26334
 N1999 N 0.31362 -0.02668 0.25919
 C2000 C 0.30699 -0.01569 0.26566
 N2001 N 0.31369 -0.00889 0.27641
 N2002 N 0.32652 -0.01297 0.28057
 N2003 N 0.12130 0.54889 0.71919
 C2004 C 0.12767 0.53762 0.71302
 N2005 N 0.12138 0.53130 0.70179
 N2006 N 0.10910 0.53614 0.69685
 C2007 C 0.10267 0.54747 0.70295
 N2008 N 0.10902 0.55372 0.71425
 C2009 C 0.14112 0.53271 0.71804
 C2010 C 0.15252 0.52869 0.72208
 C2011 C 0.16620 0.52403 0.72670
 N2012 N 0.17284 0.51327 0.71993
 N2013 N 0.18571 0.50919 0.72395
 C2014 C 0.19238 0.51574 0.73487
 N2015 N 0.18568 0.52651 0.74165
 N2016 N 0.17281 0.53058 0.73762
 N2017 N 0.11960 0.04591 0.22117
 C2018 C 0.12595 0.03464 0.21499
 N2019 N 0.11974 0.02846 0.20364
 N2020 N 0.10755 0.03342 0.19860
 C2021 C 0.10114 0.04477 0.20470
 N2022 N 0.10741 0.05087 0.21613
 C2023 C 0.13940 0.02972 0.21999
 C2024 C 0.15086 0.02580 0.22397
 C2025 C 0.16467 0.02137 0.22842
 N2026 N 0.17136 0.01063 0.22166
 N2027 N 0.18445 0.00695 0.22534
 C2028 C 0.19130 0.01390 0.23590
 N2029 N 0.18454 0.02461 0.24269
 N2030 N 0.17145 0.02829 0.23901
 N2031 N 0.62992 0.70299 0.22052
 C2032 C 0.62342 0.71418 0.21431
 N2033 N 0.62944 0.72030 0.20283
 N2034 N 0.64158 0.71537 0.19769
 C2035 C 0.64814 0.70411 0.20381
 N2036 N 0.64206 0.69806 0.21537
 C2037 C 0.61001 0.71906 0.21944
 C2038 C 0.59859 0.72297 0.22351
 C2039 C 0.58482 0.72740 0.22807
 N2040 N 0.57814 0.73823 0.22145
 N2041 N 0.56509 0.74193 0.22523
 C2042 C 0.55828 0.73489 0.23576
 N2043 N 0.56503 0.72408 0.24241
 N2044 N 0.57809 0.72039 0.23862
 N2045 N 0.12936 0.70292 0.72096
 C2046 C 0.12325 0.71443 0.71496
 N2047 N 0.12964 0.72075 0.70379
 N2048 N 0.14177 0.71569 0.69875
 C2049 C 0.14795 0.70410 0.70467
 N2050 N 0.14150 0.69786 0.71591
 C2051 C 0.10985 0.71948 0.71996
 C2052 C 0.09844 0.72351 0.72394
 C2053 C 0.08468 0.72805 0.72842
 N2054 N 0.07810 0.73891 0.72174
 N2055 N 0.06505 0.74270 0.72544
 C2056 C 0.05815 0.73574 0.73595
 N2057 N 0.06480 0.72490 0.74267
 N2058 N 0.07785 0.72111 0.73896
 N2059 N 0.62194 0.20217 0.53069
 C2060 C 0.62835 0.21337 0.53697
 N2061 N 0.62203 0.21968 0.54817
 N2062 N 0.60968 0.21490 0.55298
 C2063 C 0.60319 0.20364 0.54677
 N2064 N 0.60958 0.19741 0.53550
 C2065 C 0.64188 0.21820 0.53210
 C2066 C 0.65334 0.22213 0.52815
 C2067 C 0.66709 0.22667 0.52363
 N2068 N 0.67380 0.23739 0.53042
 N2069 N 0.68672 0.24137 0.52646
 C2070 C 0.69337 0.23475 0.51558
 N2071 N 0.68661 0.22402 0.50879
 N2072 N 0.67369 0.22005 0.51275
 N2073 N 0.62117 0.70162 0.03062
 C2074 C 0.62754 0.71288 0.03684
 N2075 N 0.62123 0.71917 0.04806
 N2076 N 0.60893 0.71432 0.05294
 C2077 C 0.60250 0.70300 0.04680
 N2078 N 0.60888 0.69677 0.03551
 C2079 C 0.64101 0.71780 0.03188
 C2080 C 0.65242 0.72180 0.02786
 C2081 C 0.66612 0.72642 0.02326
 N2082 N 0.67283 0.73714 0.03004
 N2083 N 0.68572 0.74118 0.02601
 C2084 C 0.69232 0.73462 0.01507
 N2085 N 0.68555 0.72389 0.00828
 N2086 N 0.67267 0.71986 0.01231
 N2087 N 0.12971 0.04730 0.03017
 C2088 C 0.12356 0.03577 0.03607
 N2089 N 0.12986 0.02943 0.04728
 N2090 N 0.14194 0.03452 0.05247
 C2091 C 0.14817 0.04616 0.04668
 N2092 N 0.14179 0.05238 0.03536
 C2093 C 0.11020 0.03071 0.03092
 C2094 C 0.09882 0.02667 0.02684
 C2095 C 0.08509 0.02210 0.02229
 N2096 N 0.07841 0.01134 0.02906
 N2097 N 0.06538 0.00755 0.02530
 C2098 C 0.05857 0.01439 0.01464
 N2099 N 0.06532 0.02512 0.00783
 N2100 N 0.07836 0.02891 0.01160
 N2101 N 0.12992 0.54714 0.52922
 C2102 C 0.12348 0.53589 0.53539
 N2103 N 0.12957 0.52975 0.54683
 N2104 N 0.14169 0.53475 0.55199
 C2105 C 0.14818 0.54608 0.54590
 N2106 N 0.14205 0.55213 0.53438
 C2107 C 0.11008 0.53095 0.53027
 C2108 C 0.09867 0.52699 0.52620
 C2109 C 0.08490 0.52253 0.52165
 N2110 N 0.07823 0.51169 0.52828
 N2111 N 0.06517 0.50797 0.52451
 C2112 C 0.05834 0.51499 0.51398
 N2113 N 0.06509 0.52581 0.50731
 N2114 N 0.07814 0.52952 0.51109
 N2115 N 0.63007 0.04814 0.52951
 C2116 C 0.62398 0.03659 0.53546
 N2117 N 0.63040 0.03024 0.54661
 N2118 N 0.64253 0.03533 0.55167
 C2119 C 0.64868 0.04696 0.54580
 N2120 N 0.64220 0.05322 0.53458
 C2121 C 0.61059 0.03151 0.53044
 C2122 C 0.59919 0.02744 0.52643
 C2123 C 0.58544 0.02286 0.52192
 N2124 N 0.57884 0.01201 0.52862
 N2125 N 0.56580 0.00819 0.52487
 C2126 C 0.55892 0.01510 0.51431
 N2127 N 0.56560 0.02593 0.50758
 N2128 N 0.57863 0.02974 0.51133
 N2129 N 0.62941 0.54701 0.02900
 C2130 C 0.62329 0.53551 0.03503
 N2131 N 0.62971 0.52922 0.04620
 N2132 N 0.64186 0.53430 0.05122
 C2133 C 0.64804 0.54587 0.04527
 N2134 N 0.64156 0.55208 0.03402
 C2135 C 0.60987 0.53047 0.03006
 C2136 C 0.59844 0.52645 0.02610
 C2137 C 0.58466 0.52194 0.02164
 N2138 N 0.57804 0.51111 0.02835
 N2139 N 0.56497 0.50735 0.02465
 C2140 C 0.55808 0.51432 0.01412
 N2141 N 0.56477 0.52512 0.00739
 N2142 N 0.57784 0.52888 0.01109
 N2143 N 0.04717 0.02874 0.13059
 C2144 C 0.03591 0.03493 0.12426
 N2145 N 0.02972 0.04624 0.13053
 N2146 N 0.03468 0.05123 0.14275
 C2147 C 0.04605 0.04515 0.14916
 N2148 N 0.05213 0.03374 0.14281
 C2149 C 0.03096 0.02996 0.11079
 C2150 C 0.02698 0.02601 0.09933
 C2151 C 0.02245 0.02160 0.08552
 N2152 N 0.01200 0.02869 0.07872
 N2153 N 0.00821 0.02501 0.06565
 C2154 C 0.01475 0.01412 0.05892
 N2155 N 0.02519 0.00701 0.06579
 N2156 N 0.02898 0.01069 0.07886
 N2157 N 0.02956 0.54687 0.62960
 C2158 C 0.03588 0.53568 0.62324
 N2159 N 0.04740 0.52976 0.62938
 N2160 N 0.05246 0.53490 0.64150
 C2161 C 0.04621 0.54616 0.64791
 N2162 N 0.03462 0.55200 0.64172
 C2163 C 0.03084 0.53059 0.60985
 C2164 C 0.02680 0.52655 0.59845
 C2165 C 0.02224 0.52203 0.58469
 N2166 N 0.02901 0.51134 0.57793
 N2167 N 0.02522 0.50761 0.56487
 C2168 C 0.01454 0.51445 0.55812
 N2169 N 0.00774 0.52511 0.56495
 N2170 N 0.01153 0.52884 0.57801
 N2171 N 0.54770 0.02926 0.63017
 C2172 C 0.53637 0.03537 0.62389
 N2173 N 0.53013 0.04664 0.63020
 N2174 N 0.53512 0.05166 0.64239
 C2175 C 0.54655 0.04565 0.64875
 N2176 N 0.55268 0.03429 0.64237
 C2177 C 0.53141 0.03038 0.61043
 C2178 C 0.52743 0.02641 0.59898
 C2179 C 0.52292 0.02196 0.58518
 N2180 N 0.51222 0.02878 0.57851
 N2181 N 0.50845 0.02509 0.56543
 C2182 C 0.51526 0.01444 0.55858
 N2183 N 0.52594 0.00759 0.56533
 N2184 N 0.52970 0.01129 0.57841
 N2185 N 0.52904 0.54565 0.13020
 C2186 C 0.53530 0.53440 0.12389
 N2187 N 0.54663 0.52828 0.13019
 N2188 N 0.55158 0.53330 0.14240
 C2189 C 0.54539 0.54463 0.14876
 N2190 N 0.53399 0.55067 0.14241
 C2191 C 0.53039 0.52942 0.11041
 C2192 C 0.52644 0.52547 0.09894
 C2193 C 0.52196 0.52106 0.08512
 N2194 N 0.52877 0.51043 0.07832
 N2195 N 0.52503 0.50677 0.06522
 C2196 C 0.51436 0.51364 0.05848
 N2197 N 0.50752 0.52425 0.06536
 N2198 N 0.51126 0.52790 0.07845
 N2199 N 0.21878 0.54762 0.62163
 C2200 C 0.21246 0.53635 0.62787
 N2201 N 0.20126 0.53015 0.62142
 N2202 N 0.19650 0.53511 0.60910
 C2203 C 0.20274 0.54645 0.60280
 N2204 N 0.21401 0.55257 0.60932
 C2205 C 0.21727 0.53134 0.64138
 C2206 C 0.22118 0.52732 0.65283
 C2207 C 0.22571 0.52275 0.66659
 N2208 N 0.21898 0.51195 0.67326
 N2209 N 0.22292 0.50800 0.68621
 C2210 C 0.23370 0.51471 0.69293
 N2211 N 0.24043 0.52550 0.68620
 N2212 N 0.23649 0.52945 0.67325
 N2213 N 0.21917 0.04658 0.12039
 C2214 C 0.21314 0.03505 0.12643
 N2215 N 0.20192 0.02887 0.12001
 N2216 N 0.19686 0.03409 0.10792
 C2217 C 0.20279 0.04572 0.10181
 N2218 N 0.21411 0.05180 0.10831
 C2219 C 0.21817 0.02987 0.13979
 C2220 C 0.22225 0.02579 0.15117
 C2221 C 0.22693 0.02129 0.16490
 N2222 N 0.22043 0.01038 0.17161
 N2223 N 0.22434 0.00666 0.18464
 C2224 C 0.23486 0.01374 0.19140
 N2225 N 0.24138 0.02462 0.18462
 N2226 N 0.23748 0.02834 0.17159
 N2227 N 0.71930 0.20263 0.62862
 C2228 C 0.71301 0.21388 0.62233
 N2229 N 0.70172 0.22001 0.62867
 N2230 N 0.69686 0.21500 0.64092
 C2231 C 0.70308 0.20367 0.64727
 N2232 N 0.71443 0.19762 0.64086
 C2233 C 0.71794 0.21894 0.60889
 C2234 C 0.72196 0.22300 0.59748
 C2235 C 0.72660 0.22761 0.58378
 N2236 N 0.71995 0.23844 0.57710
 N2237 N 0.72397 0.24242 0.56418
 C2238 C 0.73476 0.23569 0.55750
 N2239 N 0.74141 0.22487 0.56425
 N2240 N 0.73740 0.22090 0.57717
 N2241 N 0.71887 0.70277 0.12826
 C2242 C 0.71252 0.71398 0.12195
 N2243 N 0.70126 0.72012 0.12833
 N2244 N 0.69648 0.71517 0.14064
 C2245 C 0.70277 0.70390 0.14701
 N2246 N 0.71409 0.69783 0.14057
 C2247 C 0.71735 0.71896 0.10845
 C2248 C 0.72128 0.72297 0.09699
 C2249 C 0.72582 0.72752 0.08324
 N2250 N 0.71916 0.73835 0.07658
 N2251 N 0.72309 0.74229 0.06362
 C2252 C 0.73381 0.73552 0.05689
 N2253 N 0.74048 0.72469 0.06361
 N2254 N 0.73655 0.72076 0.07656
 N2255 N 0.52930 0.70331 0.11995
 C2256 C 0.53563 0.71447 0.12638
 N2257 N 0.54715 0.72043 0.12028
 N2258 N 0.55221 0.71536 0.10815
 C2259 C 0.54596 0.70412 0.10167
 N2260 N 0.53436 0.69824 0.10781
 C2261 C 0.53060 0.71947 0.13979
 C2262 C 0.52658 0.72345 0.15121
 C2263 C 0.52205 0.72790 0.16500
 N2264 N 0.52882 0.73859 0.17177
 N2265 N 0.52507 0.74228 0.18484
 C2266 C 0.51443 0.73537 0.19160
 N2267 N 0.50763 0.72470 0.18476
 N2268 N 0.51138 0.72102 0.17168
 N2269 N 0.04681 0.72165 0.61991
 C2270 C 0.03552 0.71550 0.62624
 N2271 N 0.02930 0.70418 0.61999
 N2272 N 0.03425 0.69913 0.60780
 C2273 C 0.04562 0.70520 0.60142
 N2274 N 0.05176 0.71660 0.60772
 C2275 C 0.03059 0.72052 0.63969
 C2276 C 0.02663 0.72451 0.65114
 C2277 C 0.02214 0.72897 0.66493
 N2278 N 0.01139 0.72218 0.67157
 N2279 N 0.00763 0.72587 0.68465
 C2280 C 0.01450 0.73647 0.69153
 N2281 N 0.02522 0.74330 0.68482
 N2282 N 0.02898 0.73960 0.67174
 N2283 N 0.52878 0.61914 0.20320
 C2284 C 0.53493 0.62547 0.21450
 N2285 N 0.54620 0.61919 0.22074
 N2286 N 0.55120 0.60697 0.21579
 C2287 C 0.54514 0.60058 0.20441
 N2288 N 0.53379 0.60691 0.19825
 C2289 C 0.52996 0.63896 0.21942
 C2290 C 0.52603 0.65044 0.22338
 C2291 C 0.52165 0.66428 0.22788
 N2292 N 0.52873 0.67109 0.23834
 N2293 N 0.52508 0.68418 0.24211
 C2294 C 0.51422 0.69092 0.23554
 N2295 N 0.50711 0.68404 0.22510
 N2296 N 0.51077 0.67094 0.22134
 N2297 N 0.04683 0.62078 0.71984
 C2298 C 0.03537 0.62686 0.71377
 N2299 N 0.02918 0.62044 0.70254
 N2300 N 0.03434 0.60831 0.69750
 C2301 C 0.04588 0.60217 0.70350
 N2302 N 0.05198 0.60865 0.71480
 C2303 C 0.03024 0.64026 0.71878
 C2304 C 0.02618 0.65166 0.72282
 C2305 C 0.02168 0.66542 0.72744
 N2306 N 0.01083 0.67210 0.72086
 N2307 N 0.00709 0.68516 0.72471
 C2308 C 0.01409 0.69197 0.73526
 N2309 N 0.02491 0.68521 0.74186
 N2310 N 0.02865 0.67216 0.73801
 N2311 N 0.02998 0.12985 0.04745
 C2312 C 0.03615 0.12341 0.03624
 N2313 N 0.04763 0.12948 0.03018
 N2314 N 0.05281 0.14160 0.03522
 C2315 C 0.04674 0.14812 0.04653
 N2316 N 0.03516 0.14197 0.05248
 C2317 C 0.03099 0.11001 0.03124
 C2318 C 0.02687 0.09860 0.02725
 C2319 C 0.02227 0.08484 0.02273
 N2320 N 0.02887 0.07817 0.01189
 N2321 N 0.02505 0.06511 0.00813
 C2322 C 0.01451 0.05827 0.01510
 N2323 N 0.00788 0.06500 0.02592
 N2324 N 0.01170 0.07807 0.02967
 N2325 N 0.02908 0.63057 0.54702
 C2326 C 0.03520 0.62427 0.53570
 N2327 N 0.04646 0.63059 0.52947
 N2328 N 0.05147 0.64281 0.53444
 C2329 C 0.04543 0.64917 0.54583
 N2330 N 0.03409 0.64279 0.55199
 C2331 C 0.03022 0.61079 0.53073
 C2332 C 0.02626 0.59933 0.52672
 C2333 C 0.02185 0.58552 0.52215
 N2334 N 0.02892 0.57875 0.51167
 N2335 N 0.02523 0.56567 0.50784
 C2336 C 0.01435 0.55892 0.51436
 N2337 N 0.00726 0.56575 0.52482
 N2338 N 0.01095 0.57883 0.52865
 N2339 N 0.52955 0.13077 0.54664
 C2340 C 0.53582 0.12429 0.53551
 N2341 N 0.54733 0.13036 0.52950
 N2342 N 0.55243 0.14253 0.53450
 C2343 C 0.54624 0.14906 0.54572
 N2344 N 0.53466 0.14293 0.55165
 C2345 C 0.53076 0.11083 0.53057
 C2346 C 0.52677 0.09937 0.52662
 C2347 C 0.52233 0.08555 0.52214
 N2348 N 0.52934 0.07873 0.51166
 N2349 N 0.52567 0.06562 0.50793
 C2350 C 0.51486 0.05888 0.51457
 N2351 N 0.50781 0.06576 0.52503
 N2352 N 0.51149 0.07887 0.52876
 N2353 N 0.52904 0.62989 0.04700
 C2354 C 0.53528 0.62343 0.03583
 N2355 N 0.54677 0.62951 0.02980
 N2356 N 0.55189 0.64167 0.03481
 C2357 C 0.54574 0.64818 0.04605
 N2358 N 0.53417 0.64205 0.05201
 C2359 C 0.53018 0.61000 0.03087
 C2360 C 0.52614 0.59856 0.02688
 C2361 C 0.52165 0.58477 0.02233
 N2362 N 0.52863 0.57799 0.01181
 N2363 N 0.52491 0.56491 0.00802
 C2364 C 0.51408 0.55817 0.01464
 N2365 N 0.50707 0.56502 0.02514
 N2366 N 0.51080 0.57810 0.02893
 N2367 N 0.71978 0.12157 0.54831
 C2368 C 0.71357 0.12797 0.53709
 N2369 N 0.70228 0.12170 0.53086
 N2370 N 0.69733 0.10942 0.53574
 C2371 C 0.70344 0.10293 0.54705
 N2372 N 0.71482 0.10928 0.55319
 C2373 C 0.71858 0.14145 0.53216
 C2374 C 0.72263 0.15289 0.52816
 C2375 C 0.72724 0.16663 0.52357
 N2376 N 0.72064 0.17325 0.51268
 N2377 N 0.72461 0.18620 0.50871
 C2378 C 0.73532 0.19298 0.51549
 N2379 N 0.74193 0.18630 0.52637
 N2380 N 0.73796 0.17335 0.53034
 N2381 N 0.70163 0.62127 0.02987
 C2382 C 0.71286 0.62763 0.03611
 N2383 N 0.71911 0.62128 0.04735
 N2384 N 0.71425 0.60895 0.05221
 C2385 C 0.70296 0.60252 0.04604
 N2386 N 0.69678 0.60894 0.03474
 C2387 C 0.71776 0.64116 0.03120
 C2388 C 0.72172 0.65263 0.02723
 C2389 C 0.72625 0.66642 0.02268
 N2390 N 0.73697 0.67313 0.02944
 N2391 N 0.74089 0.68612 0.02551
 C2392 C 0.73421 0.69282 0.01469
 N2393 N 0.72350 0.68605 0.00792
 N2394 N 0.71958 0.67306 0.01185
 N2395 N 0.20169 0.62881 0.71997
 C2396 C 0.21293 0.62251 0.71372
 N2397 N 0.21915 0.62890 0.70250
 N2398 N 0.21425 0.64121 0.69764
 C2399 C 0.20294 0.64758 0.70381
 N2400 N 0.19679 0.64113 0.71511
 C2401 C 0.21787 0.60900 0.71863
 C2402 C 0.22187 0.59754 0.72260
 C2403 C 0.22642 0.58377 0.72715
 N2404 N 0.23709 0.57704 0.72034
 N2405 N 0.24102 0.56406 0.72427
 C2406 C 0.23440 0.55737 0.73514
 N2407 N 0.22374 0.56416 0.74195
 N2408 N 0.21982 0.57714 0.73802
 N2409 N 0.20299 0.12962 0.22001
 C2410 C 0.21416 0.12325 0.21372
 N2411 N 0.22015 0.12943 0.20225
 N2412 N 0.21509 0.14160 0.19721
 C2413 C 0.20381 0.14805 0.20340
 N2414 N 0.19793 0.14179 0.21496
 C2415 C 0.21918 0.10982 0.21874
 C2416 C 0.22320 0.09838 0.22276
 C2417 C 0.22772 0.08460 0.22729
 N2418 N 0.23826 0.07780 0.22035
 N2419 N 0.24203 0.06473 0.22414
 C2420 C 0.23538 0.05802 0.23497
 N2421 N 0.22486 0.06489 0.24193
 N2422 N 0.22109 0.07796 0.23814
 N2423 N 0.72041 1.13034 0.70203
 C2424 C 0.71449 1.12412 0.71351
 N2425 N 0.70326 1.13040 0.71980
 N2426 N 0.69808 1.14251 0.71473
 C2427 C 0.70390 1.14880 0.70316
 N2428 N 0.71524 1.14245 0.69697
 C2429 C 0.71963 1.11074 0.71856
 C2430 C 0.72371 1.09934 0.72262
 C2431 C 0.72826 1.08560 0.72725
 N2432 N 0.72127 1.07879 0.73776
 N2433 N 0.72505 1.06575 0.74162
 C2434 C 0.73596 1.05907 0.73509
 N2435 N 0.74299 1.06595 0.72460
 N2436 N 0.73920 1.07899 0.72074
 N2437 N 0.72051 0.63009 0.20210
 C2438 C 0.71459 0.62388 0.21359
 N2439 N 0.70343 0.63022 0.21995
 N2440 N 0.69832 0.64238 0.21494
 C2441 C 0.70416 0.64865 0.20338
 N2442 N 0.71540 0.64226 0.19710
 C2443 C 0.71965 0.61045 0.21857
 C2444 C 0.72367 0.59900 0.22255
 C2445 C 0.72818 0.58520 0.22704
 N2446 N 0.72152 0.57854 0.23787
 N2447 N 0.72526 0.56546 0.24162
 C2448 C 0.73577 0.55859 0.23466
 N2449 N 0.74246 0.56532 0.22385
 N2450 N 0.73872 0.57840 0.22011
 N2451 N 0.54686 0.11960 0.72048
 C2452 C 0.53558 0.12588 0.71426
 N2453 N 0.52946 0.11958 0.70292
 N2454 N 0.53450 0.10739 0.69793
 C2455 C 0.54585 0.10105 0.70407
 N2456 N 0.55189 0.10741 0.71548
 C2457 C 0.53057 0.13934 0.71923
 C2458 C 0.52658 0.15079 0.72321
 C2459 C 0.52209 0.16460 0.72769
 N2460 N 0.51154 0.17140 0.72074
 N2461 N 0.50780 0.18448 0.72448
 C2462 C 0.51448 0.19121 0.73529
 N2463 N 0.52501 0.18434 0.74226
 N2464 N 0.52875 0.17125 0.73852
 N2465 N 1.02923 0.11924 0.20319
 C2466 C 1.03535 0.12551 0.21454
 N2467 N 1.04656 0.11916 0.22082
 N2468 N 1.05153 0.10693 0.21586
 C2469 C 1.04549 0.10060 0.20443
 N2470 N 1.03420 0.10701 0.19823
 C2471 C 1.03042 0.13901 0.21947
 C2472 C 1.02649 0.15050 0.22341
 C2473 C 1.02207 0.16434 0.22786
 N2474 N 1.02878 0.17100 0.23865
 N2475 N 1.02510 0.18411 0.24236
 C2476 C 1.01460 0.19101 0.23539
 N2477 N 1.00786 0.18428 0.22462
 N2478 N 1.01154 0.17117 0.22091
 N2479 N 0.22034 0.62042 0.54785
 C2480 C 0.21441 0.62662 0.53635
 N2481 N 0.20327 0.62026 0.52997
 N2482 N 0.19817 0.60807 0.53496
 C2483 C 0.20402 0.60182 0.54653
 N2484 N 0.21524 0.60824 0.55284
 C2485 C 0.21947 0.64007 0.53139
 C2486 C 0.22349 0.65153 0.52742
 C2487 C 0.22801 0.66533 0.52294
 N2488 N 0.22136 0.67200 0.51212
 N2489 N 0.22512 0.68509 0.50838
 C2490 C 0.23565 0.69195 0.51535
 N2491 N 0.24233 0.68521 0.52615
 N2492 N 0.23857 0.67212 0.52988
 N2493 N 0.20150 0.12116 1.03158
 C2494 C 0.21272 0.12746 1.03790
 N2495 N 0.21887 0.12106 1.04917
 N2496 N 0.21392 0.10874 1.05399
 C2497 C 0.20263 0.10238 1.04774
 N2498 N 0.19655 0.10885 1.03641
 C2499 C 0.21774 0.14094 1.03300
 C2500 C 0.22179 0.15237 1.02900
 C2501 C 0.22642 0.16609 1.02436
 N2502 N 0.23734 0.17269 1.03092
 N2503 N 0.24139 0.18559 1.02685
 C2504 C 0.23465 0.19233 1.01609
 N2505 N 0.22374 0.18567 1.00952
 N2506 N 0.21969 0.17277 1.01359
 N2507 N 0.20271 0.72102 0.63063
 C2508 C 0.21393 0.71480 0.62425
 N2509 N 0.21998 0.70333 0.63038
 N2510 N 0.21494 0.69820 0.64251
 C2511 C 0.20365 0.70434 0.64894
 N2512 N 0.19768 0.71589 0.64276
 C2513 C 0.21893 0.71990 0.61085
 C2514 C 0.22296 0.72394 0.59945
 C2515 C 0.22754 0.72844 0.58569
 N2516 N 0.23803 0.72141 0.57892
 N2517 N 0.24185 0.72515 0.56588
 C2518 C 0.23530 0.73604 0.55915
 N2519 N 0.22483 0.74311 0.56599
 N2520 N 0.22101 0.73936 0.57904
 N2521 N 0.20213 0.21924 1.12890
 C2522 C 0.21335 0.21302 1.12253
 N2523 N 0.21957 0.20172 1.12882
 N2524 N 0.21469 0.19677 1.14108
 C2525 C 0.20340 0.20292 1.14751
 N2526 N 0.19725 0.21429 1.14116
 C2527 C 0.21828 0.21802 1.10906
 C2528 C 0.22228 0.22203 1.09764
 C2529 C 0.22689 0.22658 1.08391
 N2530 N 0.23774 0.21991 1.07734
 N2531 N 0.24173 0.22382 1.06440
 C2532 C 0.23498 0.23454 1.05757
 N2533 N 0.22414 0.24123 1.06420
 N2534 N 0.22016 0.23731 1.07715
 N2535 N 0.70288 0.52918 0.11933
 C2536 C 0.71407 0.53545 0.12572
 N2537 N 0.72011 0.54694 0.11958
 N2538 N 0.71507 0.55203 0.10743
 C2539 C 0.70379 0.54583 0.10099
 N2540 N 0.69784 0.53427 0.10718
 C2541 C 0.71907 0.53040 0.13914
 C2542 C 0.72309 0.52639 0.15057
 C2543 C 0.72765 0.52193 0.16434
 N2544 N 0.73814 0.52898 0.17112
 N2545 N 0.74195 0.52528 0.18418
 C2546 C 0.73537 0.51440 0.19092
 N2547 N 0.72490 0.50732 0.18408
 N2548 N 0.72110 0.51102 0.17101
 N2549 N 0.70357 1.02987 0.61975
 C2550 C 0.71479 1.03609 0.62615
 N2551 N 0.72082 1.04760 0.62005
 N2552 N 0.71577 1.05275 0.60794
 C2553 C 0.70447 1.04661 0.60148
 N2554 N 0.69851 1.03503 0.60763
 C2555 C 0.71980 1.03097 0.63953
 C2556 C 0.72381 1.02690 0.65094
 C2557 C 0.72834 1.02236 0.66471
 N2558 N 0.73904 1.02917 0.67141
 N2559 N 0.74280 1.02542 0.68447
 C2560 C 0.73598 1.01474 0.69128
 N2561 N 0.72531 1.00790 0.68451
 N2562 N 0.72155 1.01165 0.67144
 N2563 N 0.52978 0.20402 0.61969
 C2564 C 0.53616 0.21509 0.62621
 N2565 N 0.54773 0.22103 0.62018
 N2566 N 0.55279 0.21601 0.60803
 C2567 C 0.54648 0.20486 0.60146
 N2568 N 0.53483 0.19900 0.60754
 C2569 C 0.53113 0.22002 0.63965
 C2570 C 0.52709 0.22392 0.65109
 C2571 C 0.52252 0.22825 0.66490
 N2572 N 0.52900 0.23916 0.67161
 N2573 N 0.52520 0.24276 0.68469
 C2574 C 0.51480 0.23556 0.69151
 N2575 N 0.50829 0.22467 0.68473
 N2576 N 0.51210 0.22107 0.67164
 N2577 N 1.03021 0.20280 0.12012
 C2578 C 1.03654 0.21401 0.12648
 N2579 N 1.04803 0.21997 0.12032
 N2580 N 1.05306 0.21486 0.10819
 C2581 C 1.04682 0.20358 0.10178
 N2582 N 1.03525 0.19770 0.10799
 C2583 C 1.03151 0.21908 0.13987
 C2584 C 1.02747 0.22309 0.15127
 C2585 C 1.02288 0.22757 0.16503
 N2586 N 1.02941 0.23850 0.17168
 N2587 N 1.02558 0.24223 0.18472
 C2588 C 1.01511 0.23515 0.19156
 N2589 N 1.00855 0.22425 0.18483
 N2590 N 1.01238 0.22052 0.17179
 N2591 N 0.62968 0.22014 0.70299
 C2592 C 0.62360 0.21400 0.71443
 N2593 N 0.63001 0.20273 0.72057
 N2594 N 0.64212 0.19774 0.71541
 C2595 C 0.64826 0.20380 0.70389
 N2596 N 0.64179 0.21514 0.69783
 C2597 C 0.61023 0.21897 0.71957
 C2598 C 0.59884 0.22296 0.72365
 C2599 C 0.58510 0.22749 0.72821
 N2600 N 0.57837 0.22064 0.73887
 N2601 N 0.56534 0.22441 0.74264
 C2602 C 0.55859 0.23515 0.73586
 N2603 N 0.56539 0.24203 0.72523
 N2604 N 0.57843 0.23826 0.72147
 N2605 N 1.13005 0.21982 0.20316
 C2606 C 1.12394 0.21371 0.21460
 N2607 N 1.13031 0.20244 0.22077
 N2608 N 1.14241 0.19740 0.21564
 C2609 C 1.14858 0.20343 0.20412
 N2610 N 1.14216 0.21478 0.19802
 C2611 C 1.11056 0.21871 0.21970
 C2612 C 1.09917 0.22271 0.22375
 C2613 C 1.08542 0.22724 0.22828
 N2614 N 1.07867 0.22040 0.23893
 N2615 N 1.06563 0.22416 0.24267
 C2616 C 1.05889 0.23490 0.23587
 N2617 N 1.06571 0.24177 0.22524
 N2618 N 1.07876 0.23800 0.22151
 N2619 N 0.11985 0.72127 0.54671
 C2620 C 0.12614 0.71501 0.53546
 N2621 N 0.11982 0.70368 0.52932
 N2622 N 0.10761 0.69873 0.53431
 C2623 C 0.10127 0.70492 0.54564
 N2624 N 0.10764 0.71632 0.55170
 C2625 C 0.13961 0.71993 0.53050
 C2626 C 0.15107 0.72388 0.52657
 C2627 C 0.16488 0.72834 0.52216
 N2628 N 0.17165 0.72151 0.51153
 N2629 N 0.18474 0.72523 0.50787
 C2630 C 0.19150 0.73591 0.51474
 N2631 N 0.18466 0.74278 0.52535
 N2632 N 0.17158 0.73905 0.52900
 N2633 N 0.12179 0.21868 1.04778
 C2634 C 0.12807 0.21237 1.03655
 N2635 N 0.12170 0.20109 1.03039
 N2636 N 0.10943 0.19623 1.03534
 C2637 C 0.10309 0.20247 1.04664
 N2638 N 0.10953 0.21383 1.05273
 C2639 C 0.14153 0.21728 1.03155
 C2640 C 0.15295 0.22126 1.02753
 C2641 C 0.16667 0.22584 1.02294
 N2642 N 0.17332 0.21912 1.01216
 N2643 N 0.18624 0.22308 1.00820
 C2644 C 0.19296 0.23389 1.01490
 N2645 N 0.18625 0.24063 1.02567
 N2646 N 0.17332 0.23666 1.02963
 N2647 N 0.61971 0.54640 0.22084
 C2648 C 0.62607 0.53512 0.21467
 N2649 N 0.61979 0.52885 0.20340
 N2650 N 0.60755 0.53373 0.19843
 C2651 C 0.60113 0.54508 0.20453
 N2652 N 0.60747 0.55127 0.21587
 C2653 C 0.63957 0.53028 0.21961
 C2654 C 0.65106 0.52640 0.22353
 C2655 C 0.66490 0.52201 0.22792
 N2656 N 0.67160 0.51131 0.22110
 N2657 N 0.68470 0.50764 0.22475
 C2658 C 0.69156 0.51456 0.23533
 N2659 N 0.68479 0.52524 0.24217
 N2660 N 0.67169 0.52890 0.23852
 N2661 N 0.62035 1.04680 0.72051
 C2662 C 0.62675 1.03558 0.71429
 N2663 N 0.62055 1.02938 0.70295
 N2664 N 0.60833 1.03429 0.69794
 C2665 C 0.60187 1.04559 0.70407
 N2666 N 0.60813 1.05171 0.71550
 C2667 C 0.64023 1.03071 0.71929
 C2668 C 0.65169 1.02683 0.72328
 C2669 C 0.66550 1.02245 0.72778
 N2670 N 0.67221 1.01166 0.72112
 N2671 N 0.68529 1.00801 0.72488
 C2672 C 0.69210 1.01503 0.73542
 N2673 N 0.68532 1.02580 0.74210
 N2674 N 0.67224 1.02945 0.73834
 N2675 N 0.87732 0.46787 0.29967
 C2676 C 0.87111 0.46181 0.28825
 N2677 N 0.87736 0.45049 0.28206
 N2678 N 0.88945 0.44536 0.28716
 C2679 C 0.89572 0.45134 0.29865
 N2680 N 0.88940 0.46273 0.30477
 C2681 C 0.85784 0.46702 0.28307
 C2682 C 0.84657 0.47123 0.27885
 C2683 C 0.83303 0.47604 0.27399
 N2684 N 0.82642 0.46933 0.26317
 N2685 N 0.81364 0.47349 0.25895
 C2686 C 0.80704 0.48450 0.26542
 N2687 N 0.81371 0.49121 0.27624
 N2688 N 0.82649 0.48705 0.28046
 N2689 N 0.87794 0.96885 0.80011
 C2690 C 0.87169 0.96286 0.78868
 N2691 N 0.87785 0.95148 0.78249
 N2692 N 0.88988 0.94623 0.78762
 C2693 C 0.89619 0.95214 0.79912
 N2694 N 0.88997 0.96359 0.80523
 C2695 C 0.85847 0.96819 0.78348
 C2696 C 0.84723 0.97247 0.77925
 C2697 C 0.83371 0.97732 0.77437
 N2698 N 0.82717 0.97074 0.76343
 N2699 N 0.81438 0.97488 0.75923
 C2700 C 0.80768 0.98575 0.76585
 N2701 N 0.81428 0.99235 0.77678
 N2702 N 0.82708 0.98820 0.78098
 N2703 N 0.37192 0.28058 0.79878
 C2704 C 0.37829 0.28681 0.78754
 N2705 N 0.37197 0.29804 0.78124
 N2706 N 0.35968 0.30293 0.78606
 C2707 C 0.35325 0.29677 0.79737
 N2708 N 0.35963 0.28547 0.80360
 C2709 C 0.39175 0.28184 0.78264
 C2710 C 0.40316 0.27782 0.77864
 C2711 C 0.41685 0.27323 0.77402
 N2712 N 0.42351 0.28001 0.76327
 N2713 N 0.43638 0.27600 0.75922
 C2714 C 0.44304 0.26507 0.76578
 N2715 N 0.43633 0.25828 0.77653
 N2716 N 0.42345 0.26230 0.78058
 N2717 N 0.87255 0.28122 0.29903
 C2718 C 0.87900 0.28746 0.28785
 N2719 N 0.87285 0.29886 0.28167
 N2720 N 0.86064 0.30388 0.28655
 C2721 C 0.85412 0.29771 0.29779
 N2722 N 0.86033 0.28625 0.30390
 C2723 C 0.89239 0.28235 0.28290
 C2724 C 0.90374 0.27822 0.27886
 C2725 C 0.91737 0.27352 0.27418
 N2726 N 0.92402 0.28024 0.26339
 N2727 N 0.93686 0.27614 0.25929
 C2728 C 0.94348 0.26519 0.26586
 N2729 N 0.93677 0.25846 0.27665
 N2730 N 0.92393 0.26256 0.28074
 N2731 N 0.37733 0.80016 0.46806
 C2732 C 0.37105 0.78883 0.46190
 N2733 N 0.37723 0.78274 0.45050
 N2734 N 0.38932 0.78786 0.44539
 C2735 C 0.39567 0.79927 0.45148
 N2736 N 0.38942 0.80528 0.46295
 C2737 C 0.35778 0.78363 0.46710
 C2738 C 0.34651 0.77942 0.47133
 C2739 C 0.33297 0.77460 0.47619
 N2740 N 0.32641 0.76359 0.46971
 N2741 N 0.31363 0.75942 0.47393
 C2742 C 0.30699 0.76612 0.48476
 N2743 N 0.31361 0.77712 0.49124
 N2744 N 0.32639 0.78129 0.48702
 N2745 N 0.37961 0.27955 0.95233
 C2746 C 0.37338 0.28561 0.96373
 N2747 N 0.37954 0.29704 0.96983
 N2748 N 0.39156 0.30228 0.96466
 C2749 C 0.39784 0.29631 0.95318
 N2750 N 0.39162 0.28480 0.94716
 C2751 C 0.36009 0.28039 0.96887
 C2752 C 0.34876 0.27624 0.97298
 C2753 C 0.33509 0.27158 0.97761
 N2754 N 0.32850 0.27822 0.98848
 N2755 N 0.31550 0.27438 0.99232
 C2756 C 0.30865 0.26378 0.98542
 N2757 N 0.31532 0.25711 0.97458
 N2758 N 0.32831 0.26096 0.97074
 N2759 N 0.78114 0.45197 0.37803
 C2760 C 0.78736 0.46314 0.37151
 N2761 N 0.79881 0.46928 0.37757
 N2762 N 0.80391 0.46437 0.38976
 C2763 C 0.79777 0.45313 0.39634
 N2764 N 0.78625 0.44706 0.39023
 C2765 C 0.78219 0.46809 0.35811
 C2766 C 0.77805 0.47211 0.34674
 C2767 C 0.77335 0.47675 0.33306
 N2768 N 0.77990 0.48769 0.32646
 N2769 N 0.77588 0.49168 0.31355
 C2770 C 0.76518 0.48486 0.30679
 N2771 N 0.75862 0.47393 0.31346
 N2772 N 0.76264 0.46994 0.32637
 N2773 N 0.79995 0.96817 0.87739
 C2774 C 0.78844 0.96218 0.87131
 N2775 N 0.78210 0.95104 0.87779
 N2776 N 0.78716 0.94603 0.88996
 C2777 C 0.79874 0.95196 0.89610
 N2778 N 0.80501 0.96316 0.88956
 C2779 C 0.78329 0.96726 0.85796
 C2780 C 0.77913 0.97140 0.84663
 C2781 C 0.77439 0.97617 0.83302
 N2782 N 0.76347 0.96960 0.82643
 N2783 N 0.75935 0.97376 0.81359
 C2784 C 0.76602 0.98463 0.80692
 N2785 N 0.77693 0.99120 0.81358
 N2786 N 0.78105 0.98704 0.82641
 N2787 N 0.29901 0.78208 0.37288
 C2788 C 0.28769 0.78832 0.37906
 N2789 N 0.28170 0.79973 0.37276
 N2790 N 0.28689 0.80478 0.36066
 C2791 C 0.29827 0.79861 0.35442
 N2792 N 0.30419 0.78713 0.36078
 C2793 C 0.28244 0.78320 0.39236
 C2794 C 0.27823 0.77905 0.40366
 C2795 C 0.27345 0.77427 0.41725
 N2796 N 0.26270 0.78100 0.42393
 N2797 N 0.25862 0.77689 0.43679
 C2798 C 0.26516 0.76592 0.44340
 N2799 N 0.27590 0.75917 0.43666
 N2800 N 0.27997 0.76328 0.42380
 N2801 N 0.27973 0.29674 0.87020
 C2802 C 0.28598 0.28554 0.87664
 N2803 N 0.29748 0.27954 0.87058
 N2804 N 0.30261 0.28460 0.85847
 C2805 C 0.29645 0.29588 0.85197
 N2806 N 0.28487 0.30180 0.85808
 C2807 C 0.28087 0.28051 0.89002
 C2808 C 0.27682 0.27647 0.90142
 C2809 C 0.27231 0.27188 0.91517
 N2810 N 0.27929 0.26134 0.92196
 N2811 N 0.27555 0.25751 0.93500
 C2812 C 0.26470 0.26411 0.94170
 N2813 N 0.25769 0.27463 0.93485
 N2814 N 0.26144 0.27846 0.92180
 N2815 N 0.46904 0.29863 0.87810
 C2816 C 0.46306 0.28712 0.87195
 N2817 N 0.45194 0.28075 0.87837
 N2818 N 0.44692 0.28577 0.89054
 C2819 C 0.45283 0.29734 0.89675
 N2820 N 0.46402 0.30364 0.89028
 C2821 C 0.46813 0.28204 0.85858
 C2822 C 0.47221 0.27792 0.84722
 C2823 C 0.47687 0.27322 0.83357
 N2824 N 0.47027 0.26228 0.82700
 N2825 N 0.47427 0.25823 0.81411
 C2826 C 0.48500 0.26498 0.80734
 N2827 N 0.49161 0.27591 0.81397
 N2828 N 0.48761 0.27996 0.82686
 N2829 N 0.96933 0.29913 0.37786
 C2830 C 0.96338 0.28758 0.37177
 N2831 N 0.95224 0.28124 0.37819
 N2832 N 0.94719 0.28632 0.39032
 C2833 C 0.95307 0.29794 0.39648
 N2834 N 0.96427 0.30421 0.38999
 C2835 C 0.96848 0.28242 0.35843
 C2836 C 0.97260 0.27823 0.34711
 C2837 C 0.97728 0.27343 0.33349
 N2838 N 0.97066 0.26249 0.32697
 N2839 N 0.97467 0.25836 0.31410
 C2840 C 0.98544 0.26504 0.30733
 N2841 N 0.99208 0.27597 0.31392
 N2842 N 0.98806 0.28010 0.32678
 N2843 N 0.45113 0.37826 0.78034
 C2844 C 0.46230 0.37182 0.78661
 N2845 N 0.46838 0.37798 0.79804
 N2846 N 0.46342 0.39018 0.80308
 C2847 C 0.45218 0.39667 0.79689
 N2848 N 0.44617 0.39046 0.78539
 C2849 C 0.46730 0.35841 0.78152
 C2850 C 0.47138 0.34703 0.77745
 C2851 C 0.47607 0.33334 0.77283
 N2852 N 0.48689 0.32674 0.77954
 N2853 N 0.49094 0.31382 0.77557
 C2854 C 0.48430 0.30706 0.76476
 N2855 N 0.47349 0.31373 0.75803
 N2856 N 0.46944 0.32665 0.76201
 N2857 N 0.96820 0.37735 0.29905
 C2858 C 0.96211 0.37116 0.28764
 N2859 N 0.95073 0.37741 0.28157
 N2860 N 0.94559 0.38947 0.28678
 C2861 C 0.95161 0.39571 0.29826
 N2862 N 0.96305 0.38940 0.30426
 C2863 C 0.96732 0.35790 0.28237
 C2864 C 0.97153 0.34663 0.27812
 C2865 C 0.97635 0.33306 0.27329
 N2866 N 0.96973 0.32644 0.26241
 N2867 N 0.97386 0.31359 0.25828
 C2868 C 0.98474 0.30693 0.26489
 N2869 N 0.99137 0.31362 0.27576
 N2870 N 0.98724 0.32646 0.27989
 N2871 N 0.28256 0.87824 0.45164
 C2872 C 0.28873 0.87204 0.46300
 N2873 N 0.30018 0.87827 0.46898
 N2874 N 0.30531 0.89032 0.46373
 C2875 C 0.29921 0.89659 0.45230
 N2876 N 0.28770 0.89030 0.44639
 C2877 C 0.28352 0.85878 0.46831
 C2878 C 0.27929 0.84751 0.47257
 C2879 C 0.27442 0.83394 0.47741
 N2880 N 0.28100 0.82731 0.48830
 N2881 N 0.27682 0.81447 0.49244
 C2882 C 0.26593 0.80783 0.48581
 N2883 N 0.25934 0.81453 0.47493
 N2884 N 0.26352 0.82737 0.47080
 N2885 N 0.28009 0.37964 0.95359
 C2886 C 0.28644 0.37327 0.96476
 N2887 N 0.29796 0.37943 0.97068
 N2888 N 0.30300 0.39157 0.96554
 C2889 C 0.29674 0.39799 0.95429
 N2890 N 0.28515 0.39178 0.94846
 C2891 C 0.28140 0.35986 0.96985
 C2892 C 0.27737 0.34843 0.97389
 C2893 C 0.27279 0.33465 0.97840
 N2894 N 0.27957 0.32787 0.98908
 N2895 N 0.27576 0.31480 0.99282
 C2896 C 0.26505 0.30806 0.98599
 N2897 N 0.25825 0.31491 0.97533
 N2898 N 0.26206 0.32799 0.97160
 N2899 N 0.79952 0.37197 0.28065
 C2900 C 0.78802 0.37812 0.28657
 N2901 N 0.78166 0.37173 0.29772
 N2902 N 0.78668 0.35957 0.30282
 C2903 C 0.79824 0.35335 0.29698
 N2904 N 0.80453 0.35980 0.28576
 C2905 C 0.78295 0.39149 0.28142
 C2906 C 0.77883 0.40284 0.27727
 C2907 C 0.77411 0.41650 0.27255
 N2908 N 0.76328 0.42311 0.27921
 N2909 N 0.75921 0.43601 0.27516
 C2910 C 0.76584 0.44272 0.26431
 N2911 N 0.77666 0.43604 0.25764
 N2912 N 0.78073 0.42315 0.26170
   
