data_POSCAR
  _audit_creation_date              2014-09-24
  _audit_creation_method            'ToBaCCo'
  _symmetry_space_group_name_H-M    'P1'
  _symmetry_Int_Tables_number       1
  _symmetry_cell_setting            triclinic
  loop_
  _symmetry_equiv_pos_as_xyz
 x,y,z
_cell_length_a 57.6411
_cell_length_b 57.6233
_cell_length_c 57.6816
_cell_angle_alpha 90.001200
_cell_angle_beta 89.994400
_cell_angle_gamma 90.046300
loop_
  _atom_site_label
  _atom_site_type_symbol
  _atom_site_fract_x
  _atom_site_fract_y
  _atom_site_fract_z
N1 N 0.17031 0.22530 0.23115
 N2 N 0.17704 0.20729 0.24346
 C3 C 0.16214 0.20420 0.26122
 C4 C 0.14539 0.22122 0.25984
 C5 C 0.15098 0.23431 0.24066
 H6 H 0.16331 0.19065 0.27414
 H7 H 0.14170 0.24925 0.23413
 Cu8 Cu 0.20448 0.18982 0.23445
 Cu9 Cu 0.18704 0.23580 0.20368
 Cu10 Cu 0.23547 0.20374 0.18742
 N11 N 0.23124 0.17139 0.22528
 N12 N 0.24324 0.17700 0.20668
 C13 C 0.26064 0.16168 0.20387
 C14 C 0.25939 0.14572 0.22161
 C15 C 0.24060 0.15224 0.23490
 H16 H 0.27326 0.16212 0.19000
 H17 H 0.23428 0.14365 0.25033
 N18 N 0.22474 0.23138 0.17031
 N19 N 0.20632 0.24357 0.17650
 C20 C 0.20360 0.26132 0.16155
 C21 C 0.22107 0.26013 0.14534
 C22 C 0.23419 0.24108 0.15126
 H23 H 0.18999 0.27420 0.16235
 H24 H 0.24947 0.23484 0.14235
 H25 H 0.20038 0.20372 0.19480
 H26 H 0.21915 0.22299 0.21273
 N27 N 0.67076 0.72548 0.73106
 N28 N 0.67747 0.70743 0.74333
 C29 C 0.66256 0.70432 0.76108
 C30 C 0.64583 0.72136 0.75974
 C31 C 0.65144 0.73449 0.74058
 H32 H 0.66372 0.69074 0.77397
 H33 H 0.64218 0.74946 0.73409
 Cu34 Cu 0.70489 0.68995 0.73429
 Cu35 Cu 0.68752 0.73602 0.70362
 Cu36 Cu 0.73592 0.70393 0.68730
 N37 N 0.73162 0.67153 0.72508
 N38 N 0.74363 0.67716 0.70650
 C39 C 0.76101 0.66183 0.70367
 C40 C 0.75973 0.64584 0.72137
 C41 C 0.74095 0.65235 0.73467
 H42 H 0.77364 0.66227 0.68980
 H43 H 0.73462 0.64374 0.75009
 N44 N 0.72522 0.73161 0.67025
 N45 N 0.70683 0.74381 0.67646
 C46 C 0.70413 0.76160 0.66154
 C47 C 0.72161 0.76040 0.64534
 C48 C 0.73469 0.74133 0.65122
 H49 H 0.69054 0.77449 0.66237
 H50 H 0.74996 0.73508 0.64230
 H51 H 0.70083 0.70392 0.69466
 H52 H 0.71963 0.72313 0.71264
 N53 N 0.32900 0.77492 0.73102
 N54 N 0.32267 0.79331 0.74296
 C55 C 0.33753 0.79628 0.76079
 C56 C 0.35388 0.77883 0.75979
 C57 C 0.34805 0.76557 0.74079
 H58 H 0.33657 0.81000 0.77353
 H59 H 0.35700 0.75030 0.73454
 Cu60 Cu 0.29554 0.81134 0.73382
 Cu61 Cu 0.31212 0.76435 0.70370
 Cu62 Cu 0.26375 0.79644 0.68748
 N63 N 0.26836 0.82935 0.72475
 N64 N 0.25600 0.82336 0.70652
 C65 C 0.23829 0.83840 0.70394
 C66 C 0.23973 0.85459 0.72148
 C67 C 0.25892 0.84847 0.73441
 H68 H 0.22538 0.83762 0.69034
 H69 H 0.26542 0.85723 0.74966
 N70 N 0.27436 0.76868 0.67042
 N71 N 0.29277 0.75649 0.67661
 C72 C 0.29549 0.73872 0.66166
 C73 C 0.27801 0.73988 0.64545
 C74 C 0.26491 0.75896 0.65137
 H75 H 0.30911 0.72585 0.66246
 H76 H 0.24966 0.76521 0.64243
 H77 H 0.29898 0.79629 0.69442
 H78 H 0.28034 0.77767 0.71318
 N79 N 0.83010 0.27445 0.23143
 N80 N 0.82373 0.29284 0.24336
 C81 C 0.83850 0.29584 0.26125
 C82 C 0.85484 0.27841 0.26026
 C83 C 0.84913 0.26512 0.24124
 H84 H 0.83748 0.30957 0.27399
 H85 H 0.85811 0.24986 0.23502
 Cu86 Cu 0.79666 0.31082 0.23421
 Cu87 Cu 0.81330 0.26393 0.20406
 Cu88 Cu 0.76499 0.29602 0.18773
 N89 N 0.76959 0.32880 0.22506
 N90 N 0.75726 0.32283 0.20681
 C91 C 0.73959 0.33789 0.20422
 C92 C 0.74100 0.35402 0.22179
 C93 C 0.76013 0.34787 0.23475
 H94 H 0.72670 0.33716 0.19061
 H95 H 0.76658 0.35663 0.25002
 N96 N 0.77565 0.26833 0.17070
 N97 N 0.79403 0.25612 0.17692
 C98 C 0.79678 0.23838 0.16195
 C99 C 0.77934 0.23961 0.14570
 C100 C 0.76623 0.25867 0.15161
 H101 H 0.81039 0.22550 0.16275
 H102 H 0.75100 0.26495 0.14266
 H103 H 0.80014 0.29591 0.19478
 H104 H 0.78144 0.27726 0.21345
 N105 N 0.82945 0.72570 0.26905
 N106 N 0.82310 0.70727 0.25716
 C107 C 0.83787 0.70429 0.23929
 C108 C 0.85423 0.72173 0.24023
 C109 C 0.84848 0.73503 0.25922
 H110 H 0.83688 0.69053 0.22657
 H111 H 0.85746 0.75031 0.26541
 Cu112 Cu 0.79606 0.68925 0.26635
 Cu113 Cu 0.81262 0.73624 0.29640
 Cu114 Cu 0.76429 0.70407 0.31275
 N115 N 0.76899 0.67125 0.27546
 N116 N 0.75661 0.67722 0.29369
 C117 C 0.73895 0.66214 0.29626
 C118 C 0.74041 0.64599 0.27871
 C119 C 0.75954 0.65217 0.26577
 H120 H 0.72604 0.66284 0.30985
 H121 H 0.76603 0.64340 0.25051
 N122 N 0.77493 0.73179 0.32975
 N123 N 0.79331 0.74403 0.32352
 C124 C 0.79603 0.76179 0.33847
 C125 C 0.77858 0.76054 0.35470
 C126 C 0.76549 0.74145 0.34881
 H127 H 0.80964 0.77470 0.33767
 H128 H 0.75026 0.73515 0.35776
 H129 H 0.79943 0.70423 0.30577
 H130 H 0.78073 0.72279 0.28701
 N131 N 0.32978 0.22541 -0.23131
 N132 N 0.32338 0.20702 -0.24326
 C133 C 0.33824 0.20397 -0.26107
 C134 C 0.35468 0.22137 -0.26010
 C135 C 0.34890 0.23469 -0.24109
 H136 H 0.33722 0.19020 -0.27378
 H137 H 0.35790 0.24994 -0.23485
 Cu138 Cu 0.29618 0.18902 -0.23417
 Cu139 Cu 0.31278 0.23592 -0.20397
 Cu140 Cu 0.26431 0.20387 -0.18774
 N141 N 0.26898 0.17107 -0.22503
 N142 N 0.25661 0.17705 -0.20681
 C143 C 0.23891 0.16199 -0.20425
 C144 C 0.24034 0.14581 -0.22177
 C145 C 0.25953 0.15196 -0.23469
 H146 H 0.22598 0.16273 -0.19068
 H147 H 0.26603 0.14316 -0.24992
 N148 N 0.27493 0.23158 -0.17070
 N149 N 0.29336 0.24379 -0.17685
 C150 C 0.29605 0.26153 -0.16184
 C151 C 0.27852 0.26029 -0.14565
 C152 C 0.26544 0.24122 -0.15165
 H153 H 0.30969 0.27440 -0.16256
 H154 H 0.25017 0.23492 -0.14276
 H155 H 0.29936 0.20390 -0.19466
 H156 H 0.28078 0.22254 -0.21337
 N157 N 0.67042 0.27445 -0.23114
 N158 N 0.67679 0.29283 -0.24311
 C159 C 0.66191 0.29586 -0.26091
 C160 C 0.64552 0.27842 -0.25992
 C161 C 0.65133 0.26512 -0.24091
 H162 H 0.66290 0.30962 -0.27363
 H163 H 0.64237 0.24985 -0.23466
 Cu164 Cu 0.70394 0.31088 -0.23397
 Cu165 Cu 0.68743 0.26397 -0.20379
 Cu166 Cu 0.73579 0.29611 -0.18752
 N167 N 0.73109 0.32888 -0.22485
 N168 N 0.74343 0.32295 -0.20659
 C169 C 0.76109 0.33803 -0.20400
 C170 C 0.75965 0.35420 -0.22152
 C171 C 0.74051 0.34803 -0.23448
 H172 H 0.77401 0.33730 -0.19042
 H173 H 0.73402 0.35683 -0.24971
 N174 N 0.72522 0.26838 -0.17050
 N175 N 0.70683 0.25613 -0.17666
 C176 C 0.70416 0.23839 -0.16165
 C177 C 0.72167 0.23968 -0.14545
 C178 C 0.73471 0.25877 -0.15143
 H179 H 0.69055 0.22549 -0.16237
 H180 H 0.74996 0.26512 -0.14253
 H181 H 0.70077 0.29602 -0.19451
 H182 H 0.71944 0.27740 -0.21320
 N183 N 0.17061 0.77479 0.26899
 N184 N 0.17703 0.79317 0.25703
 C185 C 0.16218 0.79618 0.23922
 C186 C 0.14577 0.77877 0.24021
 C187 C 0.15153 0.76550 0.25921
 H188 H 0.16318 0.80992 0.22650
 H189 H 0.14252 0.75025 0.26543
 Cu190 Cu 0.20416 0.81121 0.26614
 Cu191 Cu 0.18744 0.76426 0.29631
 Cu192 Cu 0.23582 0.79637 0.31262
 N193 N 0.23131 0.82921 0.27531
 N194 N 0.24364 0.82326 0.29359
 C195 C 0.26131 0.83837 0.29618
 C196 C 0.25989 0.85453 0.27862
 C197 C 0.24074 0.84834 0.26566
 H198 H 0.27421 0.83764 0.30979
 H199 H 0.23423 0.85709 0.25040
 N200 N 0.22515 0.76861 0.32965
 N201 N 0.20674 0.75641 0.32343
 C202 C 0.20395 0.73866 0.33839
 C203 C 0.22138 0.73985 0.35465
 C204 C 0.23453 0.75891 0.34874
 H205 H 0.19029 0.72581 0.33758
 H206 H 0.24977 0.76518 0.35772
 H207 H 0.20063 0.79621 0.30556
 H208 H 0.21929 0.77756 0.28690
 N209 N 0.47529 0.42025 0.48112
 N210 N 0.45688 0.42657 0.49306
 C211 C 0.45393 0.41174 0.51090
 C212 C 0.47137 0.39540 0.50993
 C213 C 0.48463 0.40121 0.49092
 H214 H 0.44019 0.41269 0.52363
 H215 H 0.49990 0.39227 0.48469
 Cu216 Cu 0.43885 0.45363 0.48392
 Cu217 Cu 0.48578 0.43714 0.45376
 Cu218 Cu 0.45360 0.48540 0.43744
 N219 N 0.42083 0.48067 0.47477
 N220 N 0.42677 0.49303 0.45651
 C221 C 0.41166 0.51066 0.45393
 C222 C 0.39552 0.50918 0.47148
 C223 C 0.40173 0.49007 0.48443
 H224 H 0.41236 0.52357 0.44032
 H225 H 0.39296 0.48357 0.49969
 N226 N 0.48133 0.47483 0.42040
 N227 N 0.49357 0.45647 0.42661
 C228 C 0.51133 0.45378 0.41165
 C229 C 0.51008 0.47123 0.39541
 C230 C 0.49099 0.48429 0.40132
 H231 H 0.52423 0.44019 0.41246
 H232 H 0.48467 0.49951 0.39238
 H233 H 0.47233 0.46900 0.46314
 H234 H 0.45374 0.45025 0.44444
 N235 N -0.02486 -0.07948 0.98099
 N236 N -0.04320 -0.07307 0.99297
 C237 C -0.04624 -0.08790 1.01079
 C238 C -0.02888 -0.10429 1.00979
 C239 C -0.01560 -0.09856 0.99076
 H240 H -0.05998 -0.08689 1.02352
 H241 H -0.00038 -0.10758 0.98454
 Cu242 Cu -0.06119 -0.04604 0.98396
 Cu243 Cu -0.01440 -0.06260 0.95364
 Cu244 Cu -0.04647 -0.01426 0.93741
 N245 N -0.07906 -0.01900 0.97481
 N246 N -0.07317 -0.00665 0.95655
 C247 C -0.08825 0.01097 0.95399
 C248 C -0.10431 0.00947 0.97158
 C249 C -0.09814 -0.00964 0.98451
 H250 H -0.08760 0.02389 0.94041
 H251 H -0.10689 -0.01614 0.99977
 N252 N -0.01884 -0.02486 0.92036
 N253 N -0.00662 -0.04326 0.92651
 C254 C 0.01107 -0.04596 0.91147
 C255 C 0.00978 -0.02847 0.89526
 C256 C -0.00925 -0.01540 0.90126
 H257 H 0.02394 -0.05958 0.91220
 H258 H -0.01559 -0.00015 0.89236
 H259 H -0.02776 -0.03061 0.96304
 H260 H -0.04648 -0.04930 0.94442
 N261 N 1.02507 0.57959 0.98100
 N262 N 1.04376 0.57354 0.99263
 C263 C 1.04672 0.58827 1.01054
 C264 C 1.02898 0.60429 1.00989
 C265 C 1.01554 0.59838 0.99104
 H266 H 1.06062 0.58745 1.02310
 H267 H 1.00003 0.60710 0.98511
 Cu268 Cu 1.06181 0.54676 0.98302
 Cu269 Cu 1.01443 0.56265 0.95370
 Cu270 Cu 1.04652 0.51426 0.93742
 N271 N 1.07962 0.51949 0.97443
 N272 N 1.07336 0.50681 0.95651
 C273 C 1.08817 0.48893 0.95420
 C274 C 1.10442 0.49059 0.97159
 C275 C 1.09862 0.51004 0.98420
 H276 H 1.08721 0.47574 0.94089
 H277 H 1.10755 0.51671 0.99929
 N278 N 1.01880 0.52484 0.92046
 N279 N 1.00659 0.54324 0.92663
 C280 C 0.98891 0.54598 0.91159
 C281 C 0.99020 0.52851 0.89537
 C282 C 1.00922 0.51541 0.90135
 H283 H 0.97607 0.55963 0.91231
 H284 H 1.01557 0.50020 0.89239
 H285 H 1.02811 0.53078 0.96323
 H286 H 1.04623 0.54932 0.94388
 N287 N 0.52493 0.07931 0.48116
 N288 N 0.54330 0.07296 0.49311
 C289 C 0.54628 0.08776 0.51096
 C290 C 0.52889 0.10413 0.50998
 C291 C 0.51561 0.09836 0.49096
 H292 H 0.56005 0.08681 0.52365
 H293 H 0.50038 0.10736 0.48473
 Cu294 Cu 0.56153 0.04612 0.48391
 Cu295 Cu 0.51451 0.06245 0.45378
 Cu296 Cu 0.54656 0.01420 0.43745
 N297 N 0.57921 0.01891 0.47480
 N298 N 0.57328 0.00657 0.45654
 C299 C 0.58837 -0.01104 0.45393
 C300 C 0.60447 -0.00955 0.47148
 C301 C 0.59830 0.00953 0.48446
 H302 H 0.58771 -0.02393 0.44031
 H303 H 0.60711 0.01604 0.49968
 N304 N 0.51893 0.02480 0.42042
 N305 N 0.50671 0.04317 0.42662
 C306 C 0.48897 0.04587 0.41164
 C307 C 0.49023 0.02840 0.39540
 C308 C 0.50929 0.01533 0.40135
 H309 H 0.47608 0.05946 0.41243
 H310 H 0.51561 0.00009 0.39242
 H311 H 0.52810 0.03054 0.46326
 H312 H 0.54667 0.04925 0.44445
 N313 N -0.02518 0.07967 0.51877
 N314 N -0.04357 0.07328 0.50685
 C315 C -0.04663 0.08809 0.48902
 C316 C -0.02926 0.10449 0.49000
 C317 C -0.01593 0.09876 0.50898
 H318 H -0.06041 0.08709 0.47632
 H319 H -0.00068 0.10777 0.51515
 Cu320 Cu -0.06151 0.04625 0.51597
 Cu321 Cu -0.01466 0.06279 0.54610
 Cu322 Cu -0.04677 0.01444 0.56241
 N323 N -0.07945 0.01924 0.52508
 N324 N -0.07353 0.00688 0.54332
 C325 C -0.08865 -0.01072 0.54592
 C326 C -0.10475 -0.00919 0.52839
 C327 C -0.09857 0.00988 0.51542
 H328 H -0.08798 -0.02365 0.55949
 H329 H -0.10736 0.01640 0.50018
 N330 N -0.01908 0.02504 0.57939
 N331 N -0.00684 0.04344 0.57321
 C332 C 0.01087 0.04615 0.58822
 C333 C 0.00957 0.02867 0.60444
 C334 C -0.00948 0.01558 0.59847
 H335 H 0.02375 0.05978 0.58747
 H336 H -0.01584 0.00035 0.60739
 H337 H -0.02807 0.03077 0.53672
 H338 H -0.04672 0.04945 0.55537
 N339 N 0.47538 0.57948 0.01907
 N340 N 0.45702 0.57311 0.00710
 C341 C 0.45403 0.58796 -0.01071
 C342 C 0.47146 0.60432 -0.00972
 C343 C 0.48473 0.59854 0.00929
 H344 H 0.44027 0.58703 -0.02342
 H345 H 0.49996 0.60754 0.01554
 Cu346 Cu 0.43873 0.54623 0.01627
 Cu347 Cu 0.48582 0.56263 0.04643
 Cu348 Cu 0.45368 0.51436 0.06271
 N349 N 0.42096 0.51898 0.02537
 N350 N 0.42688 0.50666 0.04365
 C351 C 0.41176 0.48902 0.04625
 C352 C 0.39562 0.49049 0.02871
 C353 C 0.40182 0.50960 0.01574
 H354 H 0.41242 0.47615 0.05988
 H355 H 0.39301 0.51612 0.00053
 N356 N 0.48137 0.52495 0.07975
 N357 N 0.49361 0.54333 0.07355
 C358 C 0.51137 0.54603 0.08851
 C359 C 0.51013 0.52855 0.10473
 C360 C 0.49103 0.51548 0.09881
 H361 H 0.52429 0.55962 0.08770
 H362 H 0.48471 0.50023 0.10773
 H363 H 0.47225 0.53083 0.03689
 H364 H 0.45369 0.54954 0.05570
 N365 N 0.52491 -0.07958 0.01907
 N366 N 0.54327 -0.07319 0.00711
 C367 C 0.54633 -0.08807 -0.01066
 C368 C 0.52892 -0.10446 -0.00967
 C369 C 0.51562 -0.09867 0.00931
 H370 H 0.56011 -0.08712 -0.02336
 H371 H 0.50035 -0.10765 0.01551
 Cu372 Cu 0.56126 -0.04611 0.01625
 Cu373 Cu 0.51437 -0.06269 0.04640
 Cu374 Cu 0.54656 -0.01438 0.06271
 N375 N 0.57933 -0.01910 0.02539
 N376 N 0.57343 -0.00677 0.04367
 C377 C 0.58860 0.01081 0.04630
 C378 C 0.60476 0.00930 0.02878
 C379 C 0.59853 -0.00979 0.01580
 H380 H 0.58793 0.02372 0.05990
 H381 H 0.60732 -0.01632 0.00058
 N382 N 0.51879 -0.02493 0.07970
 N383 N 0.50654 -0.04331 0.07351
 C384 C 0.48879 -0.04602 0.08849
 C385 C 0.49006 -0.02855 0.10472
 C386 C 0.50915 -0.01548 0.09878
 H387 H 0.47591 -0.05964 0.08771
 H388 H 0.51550 -0.00026 0.10773
 H389 H 0.52775 -0.03078 0.03703
 H390 H 0.54640 -0.04950 0.05565
 N391 N 1.02446 0.42068 0.51848
 N392 N 1.04302 0.42686 0.50670
 C393 C 1.04604 0.41203 0.48889
 C394 C 1.02850 0.39580 0.48976
 C395 C 1.01509 0.40168 0.50863
 H396 H 1.05988 0.41292 0.47625
 H397 H 0.99972 0.39280 0.51474
 Cu398 Cu 1.06104 0.45381 0.51598
 Cu399 Cu 1.01389 0.43763 0.54576
 Cu400 Cu 1.04603 0.48598 0.56204
 N401 N 1.07898 0.48090 0.52492
 N402 N 1.07287 0.49345 0.54299
 C403 C 1.08790 0.51112 0.54552
 C404 C 1.10414 0.50949 0.52812
 C405 C 1.09811 0.49025 0.51528
 H406 H 1.08712 0.52415 0.55900
 H407 H 1.10699 0.48366 0.50014
 N408 N 1.01834 0.47540 0.57901
 N409 N 1.00609 0.45701 0.57285
 C410 C 0.98852 0.45417 0.58800
 C411 C 0.98991 0.47158 0.60429
 C412 C 1.00888 0.48474 0.59823
 H413 H 0.97572 0.44046 0.58735
 H414 H 1.01532 0.49990 0.60722
 H415 H 1.02759 0.46950 0.53634
 H416 H 1.04594 0.45087 0.55537
 C417 C 0.37446 -0.00026 0.25020
 C418 C 0.12513 -0.00030 0.74968
 C419 C 0.62566 0.49977 0.25005
 C420 C 0.87492 0.50012 0.74992
 C421 C 0.24973 0.37547 -0.00006
 C422 C 0.75043 0.12457 0.00017
 C423 C 0.24982 0.62435 0.50002
 C424 C 0.74995 0.87572 0.50003
 C425 C -0.00055 0.25007 0.37470
 C426 C -0.00003 0.75002 0.12493
 C427 C 0.50022 0.24976 0.62563
 C428 C 0.49994 0.75001 0.87480
 C429 C 0.09040 0.23195 0.30389
 C430 C 0.09311 0.25366 0.31910
 C431 C 0.07489 0.25731 0.33370
 C432 C 0.05574 0.23890 0.33167
 C433 C 0.06803 0.21562 0.33559
 C434 C 0.08625 0.21196 0.32099
 C435 C 0.06714 0.23521 0.29133
 C436 C 0.04892 0.23886 0.30593
 C437 C 0.11003 0.22800 0.28819
 C438 C 0.12618 0.22481 0.27528
 C439 C 0.03610 0.24282 0.34733
 C440 C 0.01972 0.24606 0.35993
 H441 H 0.10799 0.26521 0.31838
 H442 H 0.07415 0.27197 0.34550
 H443 H 0.06284 0.20308 0.34865
 H444 H 0.09668 0.19630 0.32155
 H445 H 0.06517 0.23476 0.27261
 H446 H 0.03134 0.24151 0.29973
 C447 C 0.59087 0.73202 0.80387
 C448 C 0.58619 0.71163 0.82034
 C449 C 0.56799 0.71525 0.83497
 C450 C 0.55624 0.73891 0.83171
 C451 C 0.54955 0.73980 0.80595
 C452 C 0.56776 0.73618 0.79132
 C453 C 0.59400 0.75319 0.81973
 C454 C 0.57580 0.75681 0.83437
 C455 C 0.61049 0.72810 0.78813
 C456 C 0.62662 0.72494 0.77520
 C457 C 0.53659 0.74280 0.84740
 C458 C 0.52021 0.74602 0.86001
 H459 H 0.59627 0.69572 0.82046
 H460 H 0.56246 0.70244 0.84762
 H461 H 0.53206 0.74303 0.79976
 H462 H 0.56586 0.73633 0.77259
 H463 H 0.60914 0.76441 0.81943
 H464 H 0.57534 0.77112 0.84661
 C465 C 0.40894 0.76809 0.80389
 C466 C 0.43205 0.76395 0.79132
 C467 C 0.45028 0.76031 0.80593
 C468 C 0.44362 0.76117 0.83169
 C469 C 0.42407 0.74327 0.83436
 C470 C 0.40585 0.74690 0.81975
 C471 C 0.41365 0.78846 0.82039
 C472 C 0.43188 0.78483 0.83499
 C473 C 0.38926 0.77201 0.78818
 C474 C 0.37310 0.77518 0.77527
 C475 C 0.46328 0.75725 0.84738
 C476 C 0.47966 0.75401 0.86000
 H477 H 0.43393 0.76384 0.77259
 H478 H 0.46777 0.75710 0.79970
 H479 H 0.42455 0.72894 0.84657
 H480 H 0.39072 0.73567 0.81945
 H481 H 0.40360 0.80439 0.82054
 H482 H 0.43743 0.79762 0.84765
 C483 C -0.09135 0.26805 0.30371
 C484 C -0.06831 0.26349 0.29118
 C485 C -0.05012 0.25989 0.30583
 C486 C -0.05676 0.26119 0.33157
 C487 C -0.07648 0.24353 0.33452
 C488 C -0.09467 0.24714 0.31987
 C489 C -0.08644 0.28863 0.31989
 C490 C -0.06825 0.28502 0.33454
 C491 C -0.11095 0.27191 0.28794
 C492 C -0.12705 0.27501 0.27496
 C493 C -0.03714 0.25732 0.34728
 C494 C -0.02079 0.25409 0.35990
 H495 H -0.06644 0.26310 0.27245
 H496 H -0.03267 0.25640 0.29965
 H497 H -0.07615 0.22939 0.34694
 H498 H -0.10993 0.23607 0.31975
 H499 H -0.09634 0.30465 0.31980
 H500 H -0.06256 0.29795 0.34700
 C501 C -0.09090 0.73218 0.19594
 C502 C -0.06753 0.73490 0.20840
 C503 C -0.04933 0.73847 0.19374
 C504 C -0.05629 0.73896 0.16805
 C505 C -0.07514 0.75768 0.16637
 C506 C -0.09334 0.75411 0.18104
 C507 C -0.08720 0.71235 0.17856
 C508 C -0.06900 0.71591 0.16389
 C509 C -0.11051 0.72836 0.21172
 C510 C -0.12662 0.72530 0.22470
 C511 C -0.03667 0.74280 0.15234
 C512 C -0.02030 0.74601 0.13971
 H513 H -0.06545 0.73413 0.22710
 H514 H -0.03167 0.74075 0.19987
 H515 H -0.07423 0.77248 0.15476
 H516 H -0.10802 0.76587 0.18199
 H517 H -0.09788 0.69684 0.17787
 H518 H -0.06410 0.70347 0.15064
 C519 C 0.40876 0.23170 0.69637
 C520 C 0.43202 0.23496 0.70894
 C521 C 0.45029 0.23857 0.69436
 C522 C 0.44357 0.23856 0.66860
 C523 C 0.42444 0.25696 0.66649
 C524 C 0.40616 0.25336 0.68108
 C525 C 0.41293 0.21167 0.67931
 C526 C 0.43121 0.21527 0.66473
 C527 C 0.38903 0.22783 0.71215
 C528 C 0.37288 0.22475 0.72516
 C529 C 0.46337 0.24246 0.65296
 C530 C 0.47985 0.24572 0.64042
 H531 H 0.43397 0.23452 0.72765
 H532 H 0.46787 0.24120 0.70060
 H533 H 0.42521 0.27157 0.65463
 H534 H 0.39130 0.26490 0.68170
 H535 H 0.40246 0.19600 0.67876
 H536 H 0.43637 0.20270 0.65169
 C537 C 0.59155 0.26793 0.69649
 C538 C 0.59865 0.25831 0.67269
 C539 C 0.58039 0.25467 0.65808
 C540 C 0.55680 0.26101 0.66867
 C541 C 0.55936 0.28634 0.67651
 C542 C 0.57760 0.28998 0.69111
 C543 C 0.57363 0.25057 0.70583
 C544 C 0.55538 0.24693 0.69123
 C545 C 0.61123 0.27184 0.71229
 C546 C 0.62735 0.27498 0.72532
 C547 C 0.53703 0.25708 0.65301
 C548 C 0.52057 0.25381 0.64044
 H549 H 0.61644 0.25464 0.66775
 H550 H 0.58257 0.24789 0.64066
 H551 H 0.54781 0.30020 0.67111
 H552 H 0.58166 0.30695 0.69822
 H553 H 0.57511 0.24191 0.72248
 H554 H 0.54127 0.23516 0.69539
 C555 C 0.09087 0.76804 0.19593
 C556 C 0.09821 0.76160 0.17116
 C557 C 0.08001 0.75797 0.15652
 C558 C 0.05624 0.76114 0.16807
 C559 C 0.05683 0.78563 0.17851
 C560 C 0.07503 0.78926 0.19315
 C561 C 0.07468 0.74832 0.20366
 C562 C 0.05648 0.74470 0.18902
 C563 C 0.11050 0.77196 0.21169
 C564 C 0.12661 0.77513 0.22466
 C565 C 0.03661 0.75725 0.15236
 C566 C 0.02024 0.75402 0.13973
 H567 H 0.11613 0.75995 0.16563
 H568 H 0.08233 0.75323 0.13845
 H569 H 0.04400 0.79892 0.17482
 H570 H 0.07778 0.80566 0.20201
 H571 H 0.07726 0.73814 0.21928
 H572 H 0.04346 0.73142 0.19210
 C573 C 0.30352 0.09076 0.23243
 C574 C 0.31505 0.09089 0.25643
 C575 C 0.32974 0.07271 0.25997
 C576 C 0.33148 0.05618 0.23918
 C577 C 0.33842 0.07164 0.21864
 C578 C 0.32372 0.08982 0.21510
 C579 C 0.29170 0.06696 0.23057
 C580 C 0.30639 0.04879 0.23411
 C581 C 0.28767 0.11033 0.22863
 C582 C 0.27470 0.12644 0.22548
 C583 C 0.34717 0.03651 0.24302
 C584 C 0.35972 0.02008 0.24624
 H585 H 0.31193 0.10409 0.26949
 H586 H 0.33921 0.07034 0.27607
 H587 H 0.35352 0.06856 0.20782
 H588 H 0.32624 0.10232 0.20123
 H589 H 0.27341 0.06458 0.22676
 H590 H 0.30067 0.03085 0.23336
 C591 C 0.80381 0.59090 0.73216
 C592 C 0.81498 0.58169 0.70981
 C593 C 0.82969 0.56353 0.71336
 C594 C 0.83180 0.55637 0.73890
 C595 C 0.80682 0.55155 0.74681
 C596 C 0.79211 0.56970 0.74326
 C597 C 0.82427 0.59672 0.74819
 C598 C 0.83898 0.57856 0.75174
 C599 C 0.78797 0.61044 0.72836
 C600 C 0.77501 0.62655 0.72522
 C601 C 0.84754 0.53677 0.74274
 C602 C 0.86015 0.52040 0.74596
 H603 H 0.81160 0.58877 0.69270
 H604 H 0.83890 0.55505 0.69929
 H605 H 0.80118 0.53529 0.75449
 H606 H 0.77387 0.56900 0.74791
 H607 H 0.82696 0.61362 0.75607
 H608 H 0.85426 0.57990 0.76267
 C609 C 0.80383 0.40918 0.76763
 C610 C 0.81970 0.40615 0.74646
 C611 C 0.83440 0.42435 0.74294
 C612 C 0.83180 0.44379 0.76093
 C613 C 0.83505 0.43189 0.78451
 C614 C 0.82035 0.41369 0.78803
 C615 C 0.79135 0.43236 0.76364
 C616 C 0.80605 0.45056 0.76012
 C617 C 0.78799 0.38959 0.77142
 C618 C 0.77501 0.37347 0.77458
 C619 C 0.84752 0.46344 0.75711
 C620 C 0.86013 0.47983 0.75390
 H621 H 0.81940 0.39105 0.73521
 H622 H 0.84668 0.42485 0.72868
 H623 H 0.84774 0.43731 0.79732
 H624 H 0.82045 0.40352 0.80387
 H625 H 0.77262 0.43433 0.76361
 H626 H 0.79991 0.46810 0.75707
 C627 C 0.30322 -0.09134 0.26785
 C628 C 0.32013 -0.09499 0.24760
 C629 C 0.33483 -0.07677 0.24409
 C630 C 0.33121 -0.05667 0.26117
 C631 C 0.33341 -0.06766 0.28531
 C632 C 0.31870 -0.08587 0.28882
 C633 C 0.29077 -0.06844 0.26237
 C634 C 0.30547 -0.05023 0.25887
 C635 C 0.28737 -0.11101 0.27166
 C636 C 0.27442 -0.12719 0.27488
 C637 C 0.34698 -0.03699 0.25736
 C638 C 0.35962 -0.02058 0.25417
 H639 H 0.32050 -0.11050 0.23693
 H640 H 0.34778 -0.07669 0.23042
 H641 H 0.34542 -0.06163 0.29851
 H642 H 0.31813 -0.09543 0.30503
 H643 H 0.27204 -0.06667 0.26136
 H644 H 0.29933 -0.03288 0.25485
 C645 C 0.19640 -0.09130 0.73213
 C646 C 0.18018 -0.09452 0.75301
 C647 C 0.16546 -0.07633 0.75650
 C648 C 0.16838 -0.05668 0.73877
 C649 C 0.16549 -0.06834 0.71502
 C650 C 0.18021 -0.08653 0.71153
 C651 C 0.20886 -0.06816 0.73658
 C652 C 0.19414 -0.04998 0.74007
 C653 C 0.21226 -0.11095 0.72836
 C654 C 0.22520 -0.12713 0.72518
 C655 C 0.15260 -0.03701 0.74256
 C656 C 0.13995 -0.02062 0.74573
 H657 H 0.18027 -0.10973 0.76411
 H658 H 0.15297 -0.07598 0.77058
 H659 H 0.15302 -0.06277 0.70206
 H660 H 0.18033 -0.09651 0.69557
 H661 H 0.22759 -0.06620 0.73694
 H662 H 0.20028 -0.03247 0.74342
 C663 C 0.69693 0.40902 0.23259
 C664 C 0.68089 0.40588 0.25361
 C665 C 0.66617 0.42405 0.25708
 C666 C 0.66891 0.44356 0.23919
 C667 C 0.66586 0.43174 0.21554
 C668 C 0.68059 0.41357 0.21207
 C669 C 0.70939 0.43220 0.23678
 C670 C 0.69466 0.45036 0.24025
 C671 C 0.71276 0.38943 0.22884
 C672 C 0.72569 0.37329 0.22569
 C673 C 0.65314 0.46316 0.24294
 C674 C 0.64048 0.47951 0.24610
 H675 H 0.68111 0.39075 0.26482
 H676 H 0.65378 0.42447 0.27126
 H677 H 0.65329 0.43719 0.20263
 H678 H 0.68063 0.40347 0.19619
 H679 H 0.72812 0.43418 0.23698
 H680 H 0.70078 0.46790 0.24342
 C681 C 0.69656 0.59082 0.26782
 C682 C 0.70496 0.57390 0.24906
 C683 C 0.69031 0.55567 0.24552
 C684 C 0.66871 0.55614 0.26109
 C685 C 0.65748 0.57986 0.25660
 C686 C 0.67212 0.59809 0.26014
 C687 C 0.69281 0.57578 0.28947
 C688 C 0.67816 0.55755 0.28593
 C689 C 0.71229 0.61048 0.27163
 C690 C 0.72515 0.62667 0.27481
 C691 C 0.65303 0.53647 0.25725
 C692 C 0.64043 0.52007 0.25403
 H693 H 0.72101 0.57603 0.23944
 H694 H 0.69382 0.54217 0.23287
 H695 H 0.63961 0.58212 0.25112
 H696 H 0.66679 0.61599 0.25770
 H697 H 0.70097 0.57913 0.30610
 H698 H 0.67378 0.54527 0.29952
 C699 C 0.19609 0.09084 0.76740
 C700 C 0.19084 0.08616 0.74172
 C701 C 0.17614 0.06796 0.73821
 C702 C 0.16811 0.05621 0.76071
 C703 C 0.15753 0.07578 0.77532
 C704 C 0.17223 0.09399 0.77884
 C705 C 0.20526 0.06771 0.77687
 C706 C 0.19056 0.04951 0.77335
 C707 C 0.21195 0.11044 0.77116
 C708 C 0.22495 0.12656 0.77431
 C709 C 0.15243 0.03651 0.75687
 C710 C 0.13989 0.02005 0.75365
 H711 H 0.19805 0.09625 0.72755
 H712 H 0.17075 0.06247 0.72103
 H713 H 0.14005 0.07536 0.78233
 H714 H 0.16735 0.10916 0.78887
 H715 H 0.22183 0.06579 0.78562
 H716 H 0.19455 0.03201 0.77907
 C717 C 0.23177 0.30442 0.09062
 C718 C 0.23695 0.29194 0.06769
 C719 C 0.24050 0.30665 0.04954
 C720 C 0.23852 0.33239 0.05611
 C721 C 0.25580 0.33580 0.07606
 C722 C 0.25225 0.32109 0.09421
 C723 C 0.21091 0.32012 0.08539
 C724 C 0.21446 0.33484 0.06723
 C725 C 0.22796 0.28859 0.11015
 C726 C 0.22484 0.27560 0.12621
 C727 C 0.24241 0.34811 0.03653
 C728 C 0.24570 0.36070 0.02018
 H729 H 0.23774 0.27321 0.06585
 H730 H 0.24432 0.30052 0.03215
 H731 H 0.26961 0.34861 0.07593
 H732 H 0.26303 0.32129 0.10964
 H733 H 0.19475 0.31967 0.09505
 H734 H 0.20135 0.34700 0.06133
 C735 C 0.73238 0.80474 0.59072
 C736 C 0.71149 0.82041 0.58550
 C737 C 0.71502 0.83513 0.56736
 C738 C 0.73908 0.83272 0.55624
 C739 C 0.74111 0.80700 0.54965
 C740 C 0.73759 0.79228 0.56779
 C741 C 0.75283 0.82144 0.59433
 C742 C 0.75636 0.83616 0.57619
 C743 C 0.72857 0.78891 0.61022
 C744 C 0.72541 0.77589 0.62625
 C745 C 0.74287 0.84842 0.53666
 C746 C 0.74602 0.86098 0.52028
 H747 H 0.69534 0.81995 0.59517
 H748 H 0.70191 0.84730 0.56148
 H749 H 0.74499 0.80089 0.53227
 H750 H 0.73843 0.77354 0.56595
 H751 H 0.76362 0.82164 0.60975
 H752 H 0.77016 0.84899 0.57605
 C753 C 0.76779 0.80482 0.40936
 C754 C 0.76386 0.79233 0.43254
 C755 C 0.76030 0.80703 0.45067
 C756 C 0.76102 0.83277 0.44385
 C757 C 0.74298 0.83528 0.42445
 C758 C 0.74655 0.82057 0.40630
 C759 C 0.78815 0.82143 0.41380
 C760 C 0.78459 0.83614 0.43194
 C761 C 0.77163 0.78900 0.38985
 C762 C 0.77480 0.77601 0.37381
 C763 C 0.75715 0.84844 0.46342
 C764 C 0.75392 0.86099 0.47979
 H765 H 0.76388 0.77359 0.43453
 H766 H 0.75727 0.80090 0.46822
 H767 H 0.72867 0.84750 0.42493
 H768 H 0.73527 0.82018 0.39123
 H769 H 0.80400 0.82159 0.40362
 H770 H 0.79736 0.84891 0.43732
 C771 C 0.26745 0.30443 -0.09081
 C772 C 0.24666 0.32071 -0.09422
 C773 C 0.24306 0.33541 -0.07605
 C774 C 0.26062 0.33237 -0.05628
 C775 C 0.28450 0.33521 -0.06768
 C776 C 0.28810 0.32052 -0.08584
 C777 C 0.26271 0.29191 -0.06780
 C778 C 0.25912 0.30661 -0.04964
 C779 C 0.27137 0.28864 -0.11038
 C780 C 0.27464 0.27570 -0.12647
 C781 C 0.25680 0.34808 -0.03668
 C782 C 0.25366 0.36069 -0.02031
 H783 H 0.23567 0.32065 -0.10950
 H784 H 0.22901 0.34795 -0.07578
 H785 H 0.29746 0.34763 -0.06197
 H786 H 0.30416 0.32035 -0.09567
 H787 H 0.26220 0.27317 -0.06592
 H788 H 0.25552 0.30046 -0.03221
 C789 C 0.73276 0.19558 -0.09060
 C790 C 0.73592 0.20807 -0.06730
 C791 C 0.73951 0.19339 -0.04914
 C792 C 0.73959 0.16766 -0.05605
 C793 C 0.75807 0.16571 -0.07511
 C794 C 0.75448 0.18040 -0.09328
 C795 C 0.71277 0.17842 -0.08661
 C796 C 0.71636 0.16374 -0.06844
 C797 C 0.72884 0.21135 -0.11017
 C798 C 0.72556 0.22428 -0.12627
 C799 C 0.74340 0.15196 -0.03645
 C800 C 0.74652 0.13936 -0.02008
 H801 H 0.73542 0.22679 -0.06524
 H802 H 0.74209 0.19953 -0.03152
 H803 H 0.77272 0.15390 -0.07437
 H804 H 0.76606 0.18117 -0.10811
 H805 H 0.69714 0.17788 -0.09709
 H806 H 0.70383 0.15061 -0.06338
 C807 C 0.23187 0.69547 0.40938
 C808 C 0.23503 0.70790 0.43271
 C809 C 0.23857 0.69317 0.45084
 C810 C 0.23861 0.66746 0.44387
 C811 C 0.25708 0.66550 0.42481
 C812 C 0.25354 0.68023 0.40668
 C813 C 0.21182 0.67835 0.41332
 C814 C 0.21537 0.66361 0.43146
 C815 C 0.22811 0.71133 0.38985
 C816 C 0.22505 0.72436 0.37380
 C817 C 0.24251 0.65173 0.46344
 C818 C 0.24581 0.63912 0.47978
 H819 H 0.23449 0.72661 0.43481
 H820 H 0.24106 0.69927 0.46848
 H821 H 0.27166 0.65361 0.42552
 H822 H 0.26510 0.68096 0.39184
 H823 H 0.19619 0.67788 0.40283
 H824 H 0.20278 0.65053 0.43652
 C825 C 0.26728 0.69545 0.59079
 C826 C 0.26284 0.70791 0.56769
 C827 C 0.25930 0.69319 0.54955
 C828 C 0.26056 0.66744 0.55628
 C829 C 0.24281 0.66455 0.57591
 C830 C 0.24634 0.67928 0.59406
 C831 C 0.28786 0.67923 0.58605
 C832 C 0.28432 0.66450 0.56790
 C833 C 0.27108 0.71132 0.61031
 C834 C 0.27423 0.72436 0.62634
 C835 C 0.25681 0.65172 0.53668
 C836 C 0.25372 0.63912 0.52029
 H837 H 0.26249 0.72665 0.56575
 H838 H 0.25589 0.69931 0.53208
 H839 H 0.22868 0.65208 0.57556
 H840 H 0.23525 0.67943 0.60926
 H841 H 0.30382 0.67933 0.59603
 H842 H 0.29724 0.65197 0.56235
 C843 C 0.76859 0.19543 0.09092
 C844 C 0.74816 0.17871 0.09458
 C845 C 0.74455 0.16404 0.07641
 C846 C 0.76173 0.16754 0.05638
 C847 C 0.78585 0.16511 0.06737
 C848 C 0.78946 0.17978 0.08555
 C849 C 0.76327 0.20796 0.06805
 C850 C 0.75967 0.19329 0.04988
 C851 C 0.77244 0.21121 0.11047
 C852 C 0.77559 0.22418 0.12655
 C853 C 0.75778 0.15187 0.03678
 C854 C 0.75447 0.13931 0.02042
 H855 H 0.73745 0.17845 0.11005
 H856 H 0.73076 0.15120 0.07631
 H857 H 0.79895 0.15299 0.06138
 H858 H 0.80566 0.18024 0.09513
 H859 H 0.76244 0.22670 0.06627
 H860 H 0.75575 0.19946 0.03253
 C861 C 0.48207 0.34050 0.55423
 C862 C 0.48628 0.31735 0.54174
 C863 C 0.48994 0.29917 0.55642
 C864 C 0.48902 0.30591 0.58217
 C865 C 0.46533 0.31763 0.58538
 C866 C 0.46168 0.33580 0.57070
 C867 C 0.50321 0.34370 0.57010
 C868 C 0.50686 0.32553 0.58478
 C869 C 0.47815 0.36011 0.53844
 C870 C 0.47501 0.37623 0.52546
 C871 C 0.49296 0.28632 0.59799
 C872 C 0.49621 0.27002 0.61074
 H873 H 0.48641 0.31541 0.52302
 H874 H 0.49319 0.28167 0.55026
 H875 H 0.45251 0.31207 0.59801
 H876 H 0.44573 0.34582 0.57078
 H877 H 0.51439 0.35887 0.56977
 H878 H 0.52119 0.32513 0.59699
 C879 C -0.01829 0.84092 0.05408
 C880 C -0.03732 0.83799 0.07247
 C881 C -0.03364 0.81976 0.08707
 C882 C -0.01129 0.80628 0.08186
 C883 C 0.00812 0.82451 0.08244
 C884 C 0.00444 0.84273 0.06784
 C885 C -0.01700 0.81739 0.04168
 C886 C -0.01332 0.79917 0.05628
 C887 C -0.02220 0.86052 0.03834
 C888 C -0.02531 0.87660 0.02535
 C889 C -0.00733 0.78665 0.09753
 C890 C -0.00404 0.77029 0.11014
 H891 H -0.05238 0.84919 0.07387
 H892 H -0.04556 0.81535 0.10097
 H893 H 0.02345 0.82319 0.09330
 H894 H 0.01662 0.85702 0.06620
 H895 H -0.01878 0.81523 0.02307
 H896 H -0.01195 0.78140 0.05017
 C897 C 0.01816 0.65910 0.05409
 C898 C 0.03775 0.66274 0.07176
 C899 C 0.03407 0.68097 0.08634
 C900 C 0.01117 0.69377 0.08184
 C901 C -0.00768 0.67499 0.08326
 C902 C -0.00400 0.65676 0.06867
 C903 C 0.01576 0.68247 0.04156
 C904 C 0.01208 0.70071 0.05615
 C905 C 0.02212 0.63947 0.03841
 C906 C 0.02531 0.62337 0.02545
 C907 C 0.00722 0.71341 0.09750
 C908 C 0.00397 0.72977 0.11012
 H909 H 0.05318 0.65200 0.07267
 H910 H 0.04635 0.68585 0.09976
 H911 H -0.02265 0.67598 0.09463
 H912 H -0.01583 0.64213 0.06754
 H913 H 0.01681 0.68452 0.02288
 H914 H 0.00998 0.71838 0.04996
 C915 C 0.51842 0.15899 0.55432
 C916 C 0.51400 0.18208 0.54183
 C917 C 0.51035 0.20026 0.55650
 C918 C 0.51147 0.19357 0.58225
 C919 C 0.53526 0.18200 0.58531
 C920 C 0.53891 0.16382 0.57064
 C921 C 0.49742 0.15569 0.57035
 C922 C 0.49376 0.17386 0.58502
 C923 C 0.52229 0.13939 0.53852
 C924 C 0.52535 0.12330 0.52551
 C925 C 0.50753 0.21317 0.59805
 C926 C 0.50426 0.22949 0.61077
 H927 H 0.51376 0.18398 0.52310
 H928 H 0.50696 0.21773 0.55032
 H929 H 0.54813 0.18765 0.59783
 H930 H 0.55491 0.15389 0.57061
 H931 H 0.48633 0.14045 0.57013
 H932 H 0.47952 0.17420 0.59734
 C933 C -0.01872 0.15922 0.44563
 C934 C 0.00174 0.15559 0.42897
 C935 C 0.00538 0.17380 0.41434
 C936 C -0.01179 0.19384 0.41779
 C937 C -0.00977 0.20031 0.44354
 C938 C -0.01341 0.18211 0.45817
 C939 C -0.03955 0.16460 0.42995
 C940 C -0.03591 0.18281 0.41532
 C941 C -0.02260 0.13965 0.46140
 C942 C -0.02570 0.12359 0.47442
 C943 C -0.00786 0.21346 0.40211
 C944 C -0.00459 0.22982 0.38949
 H945 H 0.01247 0.14011 0.42875
 H946 H 0.01923 0.17393 0.40159
 H947 H -0.00582 0.21767 0.44973
 H948 H -0.01258 0.18386 0.47689
 H949 H -0.05577 0.15500 0.43036
 H950 H -0.04900 0.18882 0.40320
 C951 C 0.48197 0.65919 0.94596
 C952 C 0.50268 0.65573 0.92957
 C953 C 0.50629 0.67392 0.91490
 C954 C 0.48884 0.69378 0.91803
 C955 C 0.49047 0.70039 0.94377
 C956 C 0.48686 0.68221 0.95845
 C957 C 0.46127 0.66426 0.93000
 C958 C 0.46489 0.68244 0.91532
 C959 C 0.47813 0.63960 0.96177
 C960 C 0.47504 0.62350 0.97476
 C961 C 0.49272 0.71338 0.90228
 C962 C 0.49594 0.72974 0.88962
 H963 H 0.51359 0.64039 0.92956
 H964 H 0.52030 0.67415 0.90232
 H965 H 0.49415 0.71781 0.94993
 H966 H 0.48744 0.68406 0.97717
 H967 H 0.44517 0.65448 0.93025
 H968 H 0.45188 0.68824 0.90300
 C969 C 0.51818 0.84081 0.94590
 C970 C 0.51481 0.81752 0.95838
 C971 C 0.51115 0.79934 0.94371
 C972 C 0.51121 0.80623 0.91800
 C973 C 0.53454 0.81850 0.91419
 C974 C 0.53821 0.83668 0.92885
 C975 C 0.49654 0.84361 0.93063
 C976 C 0.49288 0.82543 0.91596
 C977 C 0.52211 0.86038 0.96171
 C978 C 0.52528 0.87643 0.97474
 C979 C 0.50726 0.78663 0.90226
 C980 C 0.50397 0.77028 0.88961
 H981 H 0.51524 0.81548 0.97709
 H982 H 0.50846 0.78173 0.94986
 H983 H 0.54712 0.81331 0.90117
 H984 H 0.55391 0.84708 0.92838
 H985 H 0.48506 0.85851 0.93134
 H986 H 0.47826 0.82476 0.90412
 C987 C 0.01785 0.34088 0.44563
 C988 C 0.03627 0.33865 0.42654
 C989 C 0.03255 0.32045 0.41191
 C990 C 0.01078 0.30628 0.41782
 C991 C -0.00913 0.32394 0.41811
 C992 C -0.00541 0.34214 0.43274
 C993 C 0.01766 0.31722 0.45787
 C994 C 0.01394 0.29902 0.44324
 C995 C 0.02180 0.36049 0.46135
 C996 C 0.02492 0.37662 0.47428
 C997 C 0.00678 0.28667 0.40213
 C998 C 0.00349 0.27032 0.38950
 H999 H 0.05097 0.35029 0.42470
 H1000 H 0.04405 0.31650 0.39754
 H1001 H -0.02481 0.32226 0.40782
 H1002 H -0.01790 0.35605 0.43497
 H1003 H 0.02019 0.31496 0.47638
 H1004 H 0.01327 0.28117 0.44923
 C1005 C 0.34043 0.55305 0.48240
 C1006 C 0.34261 0.57610 0.46921
 C1007 C 0.32444 0.59079 0.47274
 C1008 C 0.30587 0.58100 0.48910
 C1009 C 0.31893 0.57466 0.51141
 C1010 C 0.33710 0.55997 0.50788
 C1011 C 0.31696 0.54295 0.47486
 C1012 C 0.29878 0.55765 0.47839
 C1013 C 0.36005 0.53729 0.47859
 C1014 C 0.37622 0.52443 0.47539
 C1015 C 0.28632 0.59679 0.49290
 C1016 C 0.27003 0.60950 0.49607
 H1017 H 0.35713 0.58047 0.45804
 H1018 H 0.32337 0.60773 0.46459
 H1019 H 0.31424 0.58106 0.52848
 H1020 H 0.34800 0.55380 0.52194
 H1021 H 0.31479 0.52577 0.46743
 H1022 H 0.28104 0.55305 0.47400
 C1023 C 0.84095 0.05346 -0.01744
 C1024 C 0.84397 0.07710 -0.02933
 C1025 C 0.82583 0.09183 -0.02582
 C1026 C 0.80649 0.08144 -0.01076
 C1027 C 0.81852 0.07383 0.01172
 C1028 C 0.83666 0.05910 0.00821
 C1029 C 0.81773 0.04405 -0.02645
 C1030 C 0.79959 0.05877 -0.02293
 C1031 C 0.86044 0.03766 -0.02123
 C1032 C 0.87651 0.02474 -0.02444
 C1033 C 0.78696 0.09717 -0.00697
 C1034 C 0.77064 0.10980 -0.00380
 H1035 H 0.85900 0.08184 -0.03965
 H1036 H 0.82530 0.10919 -0.03311
 H1037 H 0.81322 0.07946 0.02889
 H1038 H 0.84692 0.05211 0.02236
 H1039 H 0.81571 0.02731 -0.03485
 H1040 H 0.78202 0.05465 -0.02831
 C1041 C 0.65975 0.05330 0.01780
 C1042 C 0.65640 0.06965 -0.00295
 C1043 C 0.67458 0.08435 -0.00646
 C1044 C 0.69432 0.08127 0.01111
 C1045 C 0.70097 0.05551 0.00958
 C1046 C 0.68279 0.04080 0.01310
 C1047 C 0.66468 0.06933 0.03848
 C1048 C 0.68287 0.08403 0.03497
 C1049 C 0.64017 0.03750 0.02161
 C1050 C 0.62404 0.02458 0.02484
 C1051 C 0.71389 0.09705 0.00731
 C1052 C 0.73020 0.10975 0.00412
 H1053 H 0.64112 0.06963 -0.01395
 H1054 H 0.67490 0.09692 -0.02048
 H1055 H 0.71843 0.04937 0.00607
 H1056 H 0.68465 0.02206 0.01259
 H1057 H 0.65481 0.06909 0.05451
 H1058 H 0.68860 0.09638 0.04799
 C1059 C 0.15911 0.55333 0.51753
 C1060 C 0.16378 0.56954 0.53813
 C1061 C 0.18196 0.58426 0.53465
 C1062 C 0.19364 0.58128 0.51092
 C1063 C 0.17407 0.58418 0.49313
 C1064 C 0.15589 0.56947 0.49661
 C1065 C 0.18219 0.54083 0.51317
 C1066 C 0.20037 0.55554 0.50969
 C1067 C 0.13956 0.53756 0.52123
 C1068 C 0.12342 0.52469 0.52430
 C1069 C 0.21321 0.59699 0.50715
 C1070 C 0.22957 0.60960 0.50397
 H1071 H 0.15375 0.56943 0.55405
 H1072 H 0.18751 0.59677 0.54758
 H1073 H 0.17446 0.59665 0.47903
 H1074 H 0.14069 0.56933 0.48550
 H1075 H 0.18411 0.52208 0.51288
 H1076 H 0.21787 0.54940 0.50640
 C1077 C 0.15911 0.44650 -0.01760
 C1078 C 0.16398 0.43050 -0.03833
 C1079 C 0.18215 0.41580 -0.03484
 C1080 C 0.19362 0.41855 -0.01099
 C1081 C 0.17389 0.41544 0.00660
 C1082 C 0.15573 0.43014 0.00312
 C1083 C 0.18216 0.45900 -0.01293
 C1084 C 0.20031 0.44430 -0.00944
 C1085 C 0.13961 0.46229 -0.02132
 C1086 C 0.12355 0.47525 -0.02446
 C1087 C 0.21317 0.40284 -0.00722
 C1088 C 0.22951 0.39023 -0.00403
 H1089 H 0.15410 0.43076 -0.05435
 H1090 H 0.18784 0.40345 -0.04787
 H1091 H 0.17418 0.40283 0.02059
 H1092 H 0.14044 0.43013 0.01411
 H1093 H 0.18406 0.47774 -0.01245
 H1094 H 0.21778 0.45044 -0.00596
 C1095 C 0.65946 0.94678 0.48240
 C1096 C 0.65631 0.93085 0.50349
 C1097 C 0.67448 0.91617 0.50703
 C1098 C 0.69398 0.91890 0.48912
 C1099 C 0.70076 0.94465 0.49008
 C1100 C 0.68259 0.95933 0.48655
 C1101 C 0.66404 0.93038 0.46194
 C1102 C 0.68221 0.91570 0.46548
 C1103 C 0.63990 0.96248 0.47857
 C1104 C 0.62375 0.97529 0.47537
 C1105 C 0.71349 0.90317 0.49292
 C1106 C 0.72976 0.89049 0.49610
 H1107 H 0.64119 0.93112 0.51471
 H1108 H 0.67496 0.90387 0.52128
 H1109 H 0.71829 0.95081 0.49325
 H1110 H 0.68452 0.97808 0.48668
 H1111 H 0.65396 0.93035 0.44604
 H1112 H 0.68772 0.90311 0.45262
 C1113 C 0.84043 0.94690 0.51749
 C1114 C 0.84376 0.93064 0.49668
 C1115 C 0.82559 0.91593 0.49319
 C1116 C 0.80593 0.91895 0.51087
 C1117 C 0.79921 0.94469 0.50945
 C1118 C 0.81738 0.95940 0.51294
 C1119 C 0.83563 0.93081 0.53816
 C1120 C 0.81746 0.91610 0.53467
 C1121 C 0.85994 0.96266 0.52127
 C1122 C 0.87603 0.97557 0.52445
 C1123 C 0.78642 0.90320 0.50711
 C1124 C 0.77013 0.89052 0.50396
 H1125 H 0.85900 0.93072 0.48562
 H1126 H 0.82523 0.90340 0.47914
 H1127 H 0.78174 0.95082 0.50602
 H1128 H 0.81550 0.97814 0.51251
 H1129 H 0.84556 0.93102 0.55415
 H1130 H 0.81179 0.90370 0.54766
 C1131 C 0.34045 0.44668 0.01774
 C1132 C 0.33004 0.43694 0.04022
 C1133 C 0.31184 0.42226 0.03666
 C1134 C 0.30585 0.41877 0.01097
 C1135 C 0.32848 0.41060 -0.00039
 C1136 C 0.34668 0.42528 0.00317
 C1137 C 0.32000 0.45800 0.00500
 C1138 C 0.30179 0.44332 0.00145
 C1139 C 0.36008 0.46242 0.02159
 C1140 C 0.37628 0.47527 0.02481
 C1141 C 0.28627 0.40301 0.00713
 C1142 C 0.26996 0.39031 0.00392
 H1143 H 0.33635 0.44125 0.05742
 H1144 H 0.30255 0.41401 0.05081
 H1145 H 0.33006 0.39472 -0.01038
 H1146 H 0.36386 0.42196 -0.00378
 H1147 H 0.31980 0.47596 -0.00069
 H1148 H 0.28599 0.44871 -0.00728
 C1149 C 0.55437 0.48203 0.34067
 C1150 C 0.54196 0.48797 0.31789
 C1151 C 0.55670 0.49153 0.29976
 C1152 C 0.58240 0.48879 0.30619
 C1153 C 0.58428 0.46445 0.31683
 C1154 C 0.56954 0.46090 0.33496
 C1155 C 0.57154 0.50203 0.34461
 C1156 C 0.58628 0.50558 0.32648
 C1157 C 0.53852 0.47820 0.36019
 C1158 C 0.52553 0.47503 0.37625
 C1159 C 0.59819 0.49261 0.28663
 C1160 C 0.61085 0.49580 0.27030
 H1161 H 0.52325 0.48927 0.31614
 H1162 H 0.55062 0.49588 0.28248
 H1163 H 0.59610 0.45116 0.31064
 H1164 H 0.56873 0.44456 0.34430
 H1165 H 0.57203 0.51251 0.36024
 H1166 H 0.59939 0.51911 0.32657
 C1167 C 0.05379 -0.01761 0.84037
 C1168 C 0.07016 -0.03811 0.83582
 C1169 C 0.08487 -0.03461 0.81766
 C1170 C 0.08177 -0.01096 0.80584
 C1171 C 0.08449 0.00699 0.82532
 C1172 C 0.06977 0.00348 0.84348
 C1173 C 0.04131 -0.01346 0.81723
 C1174 C 0.05602 -0.00996 0.79907
 C1175 C 0.03802 -0.02144 0.85993
 C1176 C 0.02512 -0.02464 0.87605
 C1177 C 0.09758 -0.00725 0.78626
 C1178 C 0.11029 -0.00419 0.76993
 H1179 H 0.07014 -0.05400 0.84592
 H1180 H 0.09746 -0.04750 0.81222
 H1181 H 0.09679 0.02125 0.82485
 H1182 H 0.06947 0.01474 0.85858
 H1183 H 0.02257 -0.01325 0.81530
 H1184 H 0.04988 -0.00673 0.78157
 C1185 C 0.05367 0.01774 0.65925
 C1186 C 0.04141 0.01658 0.68285
 C1187 C 0.05616 0.01298 0.70097
 C1188 C 0.08170 0.01089 0.69370
 C1189 C 0.08685 0.03318 0.68006
 C1190 C 0.07211 0.03677 0.66195
 C1191 C 0.06738 -0.00502 0.65747
 C1192 C 0.08212 -0.00861 0.67558
 C1193 C 0.03787 0.02163 0.63972
 C1194 C 0.02494 0.02485 0.62363
 C1195 C 0.09754 0.00697 0.71320
 C1196 C 0.11027 0.00369 0.72947
 H1197 H 0.02280 0.01842 0.68513
 H1198 H 0.05017 0.01177 0.71878
 H1199 H 0.10077 0.04514 0.68432
 H1200 H 0.07341 0.05180 0.65067
 H1201 H 0.06560 -0.01727 0.64328
 H1202 H 0.09298 -0.02395 0.67691
 C1203 C 0.55440 0.51768 0.15946
 C1204 C 0.54265 0.51960 0.18326
 C1205 C 0.55738 0.51601 0.20139
 C1206 C 0.58242 0.51085 0.19393
 C1207 C 0.58940 0.53137 0.17847
 C1208 C 0.57467 0.53496 0.16034
 C1209 C 0.56581 0.49361 0.15933
 C1210 C 0.58054 0.49002 0.17745
 C1211 C 0.53857 0.52154 0.13994
 C1212 C 0.52558 0.52473 0.12388
 C1213 C 0.59820 0.50697 0.21348
 C1214 C 0.61086 0.50374 0.22980
 H1215 H 0.52436 0.52343 0.18567
 H1216 H 0.55171 0.51676 0.21933
 H1217 H 0.60454 0.54216 0.18152
 H1218 H 0.57720 0.54883 0.14786
 H1219 H 0.56254 0.48051 0.14619
 H1220 H 0.58989 0.47385 0.17984
 C1221 C 0.44586 -0.01776 0.15956
 C1222 C 0.43012 0.00352 0.15654
 C1223 C 0.41539 0.00705 0.17468
 C1224 C 0.41783 -0.01104 0.19406
 C1225 C 0.44357 -0.01035 0.20091
 C1226 C 0.45830 -0.01388 0.18277
 C1227 C 0.42922 -0.03811 0.16393
 C1228 C 0.41449 -0.03458 0.18206
 C1229 C 0.46168 -0.02159 0.14001
 C1230 C 0.47464 -0.02476 0.12391
 C1231 C 0.40201 -0.00728 0.21362
 C1232 C 0.38930 -0.00417 0.22994
 H1233 H 0.43058 0.01486 0.14151
 H1234 H 0.40324 0.02143 0.17520
 H1235 H 0.44968 -0.00732 0.21845
 H1236 H 0.47703 -0.01390 0.18477
 H1237 H 0.42908 -0.05394 0.15372
 H1238 H 0.40173 -0.04738 0.18739
 C1239 C 0.94610 0.48233 0.65932
 C1240 C 0.93104 0.50413 0.65668
 C1241 C 0.91633 0.50771 0.67482
 C1242 C 0.91814 0.48914 0.69381
 C1243 C 0.94384 0.48891 0.70079
 C1244 C 0.95856 0.48533 0.68265
 C1245 C 0.92885 0.46239 0.66316
 C1246 C 0.91415 0.46597 0.68130
 C1247 C 0.96185 0.47846 0.63976
 C1248 C 0.97469 0.47529 0.62360
 C1249 C 0.90238 0.49298 0.71336
 C1250 C 0.88972 0.49617 0.72969
 H1251 H 0.93191 0.51576 0.64190
 H1252 H 0.90459 0.52241 0.67558
 H1253 H 0.94996 0.49136 0.71843
 H1254 H 0.97727 0.48471 0.68473
 H1255 H 0.92828 0.44681 0.65260
 H1256 H 0.90097 0.45346 0.68628
 C1257 C 0.94617 0.51773 0.84052
 C1258 C 0.92757 0.49924 0.84529
 C1259 C 0.91285 0.49572 0.82714
 C1260 C 0.91818 0.51103 0.80603
 C1261 C 0.94370 0.50612 0.80018
 C1262 C 0.95842 0.50964 0.81832
 C1263 C 0.93263 0.53952 0.83341
 C1264 C 0.91791 0.53600 0.81527
 C1265 C 0.96195 0.52155 0.86006
 C1266 C 0.97486 0.52473 0.87616
 C1267 C 0.90241 0.50724 0.78647
 C1268 C 0.88974 0.50407 0.77015
 H1269 H 0.92615 0.48971 0.86146
 H1270 H 0.89881 0.48317 0.82777
 H1271 H 0.94968 0.50038 0.78327
 H1272 H 0.97701 0.50692 0.81697
 H1273 H 0.93450 0.55627 0.84184
 H1274 H 0.90716 0.54972 0.80815
 C1275 C 0.44599 0.01756 0.34066
 C1276 C 0.42959 -0.00314 0.34414
 C1277 C 0.41482 -0.00669 0.32604
 C1278 C 0.41790 0.01082 0.30622
 C1279 C 0.44363 0.00920 0.29950
 C1280 C 0.45840 0.01274 0.31761
 C1281 C 0.43004 0.03830 0.33571
 C1282 C 0.41527 0.03476 0.31760
 C1283 C 0.46184 0.02139 0.36017
 C1284 C 0.47481 0.02458 0.37624
 C1285 C 0.40204 0.00697 0.28671
 C1286 C 0.38932 0.00373 0.27043
 H1287 H 0.42962 -0.01411 0.35945
 H1288 H 0.40220 -0.02068 0.32584
 H1289 H 0.44971 0.00561 0.28205
 H1290 H 0.47713 0.01217 0.31568
 H1291 H 0.43038 0.05438 0.34551
 H1292 H 0.40296 0.04781 0.31189
   
