data_POSCAR
  _audit_creation_date              2014-09-24
  _audit_creation_method            'ToBaCCo'
  _symmetry_space_group_name_H-M    'P1'
  _symmetry_Int_Tables_number       1
  _symmetry_cell_setting            triclinic
  loop_
  _symmetry_equiv_pos_as_xyz
 x,y,z
_cell_length_a 61.0425
_cell_length_b 61.0549
_cell_length_c 61.0569
_cell_angle_alpha 89.997900
_cell_angle_beta 89.998000
_cell_angle_gamma 89.999700
loop_
  _atom_site_label
  _atom_site_type_symbol
  _atom_site_fract_x
  _atom_site_fract_y
  _atom_site_fract_z
N1 N 0.34427 0.34404 0.34470
 N2 N 0.34467 0.84383 -0.15529
 N3 N 0.84455 0.34358 -0.15530
 N4 N 0.84471 0.84444 0.34513
 N5 N 0.65670 0.65489 0.34437
 N6 N 0.65538 0.15548 -0.15589
 N7 N 0.15561 0.65483 -0.15582
 N8 N 0.15617 0.15430 0.34356
 N9 N 0.65450 0.34482 0.65606
 N10 N 0.65578 0.84506 1.15658
 N11 N 0.15565 0.34536 1.15645
 N12 N 0.15492 0.84442 0.65653
 N13 N 0.34468 0.65625 0.65516
 N14 N 0.34413 0.15566 1.15459
 N15 N 0.84435 0.65628 1.15462
 N16 N 0.84410 0.15684 0.65441
 N17 N 0.34409 0.34379 0.65485
 N18 N 0.34534 0.84305 0.15514
 N19 N 0.84505 0.34369 0.15511
 N20 N 0.84467 0.84438 0.65568
 N21 N 0.65604 0.65507 0.65604
 N22 N 0.65550 0.15515 0.15598
 N23 N 0.15565 0.65544 0.15605
 N24 N 0.15559 0.15468 0.65564
 N25 N 0.34469 0.65621 0.34560
 N26 N 0.34360 0.15578 0.84521
 N27 N 0.84366 0.65551 0.84526
 N28 N 0.84431 0.15659 0.34515
 N29 N 0.65499 0.34525 0.34319
 N30 N 0.65568 0.84569 0.84369
 N31 N 0.15555 0.34501 0.84359
 N32 N 0.15554 0.84466 0.34390
 O33 O 0.25238 1.02040 0.22018
 O34 O 0.22269 0.97772 0.25079
 O35 O 0.22243 1.02041 0.25041
 O36 O 0.25252 0.97766 0.22040
 O37 O 0.27827 0.97794 0.24574
 O38 O 0.24813 1.02071 0.27580
 O39 O 0.24844 0.97801 0.27612
 O40 O 0.27810 1.02067 0.24554
 Cu41 Cu 0.23493 0.99901 0.23290
 Cu42 Cu 0.26582 0.99936 0.26333
 C43 C 0.27026 1.02795 0.22769
 C44 C 0.23053 0.97049 0.26866
 C45 C 0.23016 1.02796 0.26819
 C46 C 0.27048 0.97038 0.22798
 O47 O 0.27766 0.47859 0.74570
 O48 O 0.24801 0.52126 0.77626
 O49 O 0.24767 0.47856 0.77594
 O50 O 0.27783 0.52131 0.74588
 O51 O 0.25208 0.52160 0.72055
 O52 O 0.22198 0.47886 0.75054
 O53 O 0.22225 0.52155 0.75094
 O54 O 0.25195 0.47887 0.72032
 Cu55 Cu 0.26537 0.49990 0.76348
 Cu56 Cu 0.23450 0.50025 0.73304
 C57 C 0.26983 0.47132 0.72785
 C58 C 0.23010 0.52879 0.76880
 C59 C 0.22970 0.47131 0.76833
 C60 C 0.27004 0.52888 0.72812
 O61 O 0.75169 -0.02094 0.28012
 O62 O 0.72153 0.02169 0.24996
 O63 O 0.72161 -0.02102 0.25001
 O64 O 0.75163 0.02179 0.28006
 O65 O 0.77719 0.02179 0.25453
 O66 O 0.74715 -0.02100 0.22446
 O67 O 0.74708 0.02170 0.22442
 O68 O 0.77725 -0.02094 0.25458
 Cu69 Cu 0.73406 0.00038 0.26760
 Cu70 Cu 0.76473 0.00039 0.23695
 C71 C 0.76957 -0.02834 0.27245
 C72 C 0.72918 0.02907 0.23207
 C73 C 0.72928 -0.02842 0.23214
 C74 C 0.76949 0.02921 0.27238
 O75 O 0.75152 0.47796 0.77923
 O76 O 0.72153 0.52078 0.74919
 O77 O 0.72166 0.47808 0.74887
 O78 O 0.75144 0.52069 0.77946
 O79 O 0.77717 0.52091 0.75409
 O80 O 0.74742 0.47828 0.72354
 O81 O 0.74724 0.52099 0.72381
 O82 O 0.77728 0.47819 0.75390
 Cu83 Cu 0.73397 0.49935 0.76673
 Cu84 Cu 0.76486 0.49961 0.73630
 C85 C 0.76948 0.47065 0.77166
 C86 C 0.72929 0.52830 0.73141
 C87 C 0.72949 0.47081 0.73101
 C88 C 0.76934 0.52820 0.77194
 O89 O 0.22158 0.52188 0.24998
 O90 O 0.25163 0.47912 0.28007
 O91 O 0.25167 0.52185 0.28010
 O92 O 0.22154 0.47918 0.24997
 O93 O 0.24709 0.47917 0.22443
 O94 O 0.27724 0.52184 0.25458
 O95 O 0.27720 0.47911 0.25455
 O96 O 0.24714 0.52187 0.22445
 Cu97 Cu 0.23405 0.50051 0.26759
 Cu98 Cu 0.26473 0.50050 0.23695
 C99 C 0.22926 0.52927 0.23211
 C100 C 0.26949 0.47169 0.27240
 C101 C 0.26955 0.52925 0.27245
 C102 C 0.22921 0.47178 0.23210
 O103 O 0.74763 1.02229 0.77597
 O104 O 0.77781 0.97957 0.74591
 O105 O 0.77763 1.02230 0.74573
 O106 O 0.74798 0.97960 0.77627
 O107 O 0.72224 0.97931 0.75093
 O108 O 0.75192 1.02202 0.72036
 O109 O 0.75207 0.97929 0.72056
 O110 O 0.72194 1.02200 0.75058
 Cu111 Cu 0.76534 1.00098 0.76351
 Cu112 Cu 0.73447 1.00063 0.73306
 C113 C 0.72966 1.02954 0.76837
 C114 C 0.77003 0.97201 0.72815
 C115 C 0.76980 1.02957 0.72788
 C116 C 0.73008 0.97206 0.76879
 O117 O 0.75238 0.52122 0.22024
 O118 O 0.72257 0.47854 0.25070
 O119 O 0.72250 0.52123 0.25055
 O120 O 0.75246 0.47848 0.22038
 O121 O 0.77821 0.47862 0.24571
 O122 O 0.74822 0.52133 0.27593
 O123 O 0.74832 0.47864 0.27603
 O124 O 0.77811 0.52135 0.24560
 Cu125 Cu 0.73491 0.49985 0.23292
 Cu126 Cu 0.76580 0.50000 0.26335
 C127 C 0.77028 0.52870 0.22777
 C128 C 0.73039 0.47120 0.26854
 C129 C 0.73027 0.52868 0.26837
 C130 C 0.77041 0.47113 0.22793
 O131 O 0.24745 -0.02164 0.72362
 O132 O 0.27713 0.02112 0.75405
 O133 O 0.27732 -0.02159 0.75396
 O134 O 0.24718 0.02106 0.72377
 O135 O 0.22149 0.02086 0.74916
 O136 O 0.25158 -0.02181 0.77930
 O137 O 0.25141 0.02092 0.77943
 O138 O 0.22170 -0.02184 0.74897
 Cu139 Cu 0.26485 -0.00024 0.73631
 Cu140 Cu 0.23397 -0.00049 0.76676
 C141 C 0.22954 -0.02914 0.73112
 C142 C 0.26930 0.02844 0.77189
 C143 C 0.26954 -0.02911 0.77174
 C144 C 0.22922 0.02835 0.73136
 O145 O 0.25214 0.22434 0.97877
 O146 O 0.22220 0.25461 1.02150
 O147 O 0.22213 0.25456 0.97876
 O148 O 0.25219 0.22436 1.02145
 O149 O 0.27782 0.24982 1.02140
 O150 O 0.24779 0.27999 0.97870
 O151 O 0.24786 0.28005 1.02143
 O152 O 0.27778 0.24979 0.97871
 Cu153 Cu 0.23459 0.23693 1.00013
 Cu154 Cu 0.26537 0.26747 1.00006
 C155 C 0.27004 0.23193 0.97134
 C156 C 0.22997 0.27245 1.02889
 C157 C 0.22989 0.27237 0.97131
 C158 C 0.27011 0.23196 1.02881
 O159 O 0.24670 0.77892 0.47898
 O160 O 0.27724 0.74932 0.52174
 O161 O 0.27729 0.74931 0.47904
 O162 O 0.24661 0.77890 0.52171
 O163 O 0.22150 0.75293 0.52166
 O164 O 0.25218 0.72334 0.47901
 O165 O 0.25213 0.72335 0.52169
 O166 O 0.22159 0.75295 0.47893
 Cu167 Cu 0.26447 0.76672 0.50037
 Cu168 Cu 0.23432 0.73555 0.50032
 C169 C 0.22898 0.77094 0.47152
 C170 C 0.26987 0.73131 0.52911
 C171 C 0.26995 0.73130 0.47164
 C172 C 0.22886 0.77092 0.52910
 O173 O 0.27847 0.75034 -0.02158
 O174 O 0.24834 0.72037 0.02119
 O175 O 0.24802 0.72058 -0.02154
 O176 O 0.27867 0.75023 0.02113
 O177 O 0.25336 0.77601 0.02136
 O178 O 0.22274 0.74639 -0.02129
 O179 O 0.22301 0.74613 0.02142
 O180 O 0.25319 0.77614 -0.02133
 Cu181 Cu 0.26591 0.73279 -0.00023
 Cu182 Cu 0.23554 0.76375 0.00006
 C183 C 0.27096 0.76832 -0.02886
 C184 C 0.23058 0.72817 0.02873
 C185 C 0.23018 0.72847 -0.02882
 C186 C 0.27120 0.76815 0.02864
 O187 O 0.22299 0.24526 0.47825
 O188 O 0.25295 0.27548 0.52100
 O189 O 0.25299 0.27548 0.47830
 O190 O 0.22290 0.24530 0.52098
 O191 O 0.24853 0.21984 0.52103
 O192 O 0.27861 0.25001 0.47834
 O193 O 0.27856 0.25000 0.52104
 O194 O 0.24862 0.21980 0.47830
 Cu195 Cu 0.23539 0.26293 0.49963
 Cu196 Cu 0.26614 0.23236 0.49968
 C197 C 0.23074 0.22741 0.47086
 C198 C 0.27084 0.26786 0.52842
 C199 C 0.27090 0.26787 0.47093
 C200 C 0.23062 0.22747 0.52841
 O201 O 0.72202 0.75432 1.02144
 O202 O 0.75199 0.72408 0.97869
 O203 O 0.75215 0.72423 1.02137
 O204 O 0.72175 0.75405 0.97870
 O205 O 0.74720 0.77969 0.97846
 O206 O 0.77764 0.74983 1.02113
 O207 O 0.77744 0.74972 0.97844
 O208 O 0.74752 0.77990 1.02119
 Cu209 Cu 0.73441 0.73661 1.00008
 Cu210 Cu 0.76500 0.76736 0.99978
 C211 C 0.72972 0.77222 1.02875
 C212 C 0.76981 0.73178 0.97117
 C213 C 0.77006 0.73196 1.02863
 C214 C 0.72932 0.77191 0.97117
 O215 O 0.74608 0.27953 0.47829
 O216 O 0.77664 0.24993 0.52103
 O217 O 0.77669 0.24993 0.47833
 O218 O 0.74599 0.27949 0.52102
 O219 O 0.72090 0.25350 0.52098
 O220 O 0.75158 0.22394 0.47831
 O221 O 0.75154 0.22395 0.52098
 O222 O 0.72098 0.25355 0.47823
 Cu223 Cu 0.76386 0.26733 0.49967
 Cu224 Cu 0.73373 0.23614 0.49962
 C225 C 0.72836 0.27154 0.47084
 C226 C 0.76928 0.23191 0.52840
 C227 C 0.76935 0.23191 0.47094
 C228 C 0.72826 0.27149 0.52842
 O229 O 0.77873 0.25025 -0.02129
 O230 O 0.74860 0.22021 0.02144
 O231 O 0.74853 0.22027 -0.02129
 O232 O 0.77878 0.25023 0.02141
 O233 O 0.75331 0.27586 0.02146
 O234 O 0.72305 0.24587 -0.02123
 O235 O 0.72312 0.24581 0.02149
 O236 O 0.75326 0.27587 -0.02124
 Cu237 Cu 0.76621 0.23267 0.00006
 Cu238 Cu 0.73563 0.26342 0.00013
 C239 C 0.77111 0.26816 -0.02867
 C240 C 0.73076 0.22792 0.02887
 C241 C 0.73067 0.22799 -0.02867
 C242 C 0.77118 0.26813 0.02883
 O243 O 0.77930 0.75068 0.47905
 O244 O 0.74922 0.72048 0.52172
 O245 O 0.74932 0.72047 0.47899
 O246 O 0.77924 0.75066 0.52176
 O247 O 0.75362 0.77613 0.52172
 O248 O 0.72367 0.74592 0.47895
 O249 O 0.72359 0.74594 0.52167
 O250 O 0.75368 0.77615 0.47902
 Cu251 Cu 0.76683 0.73302 0.50038
 Cu252 Cu 0.73607 0.76358 0.50033
 C253 C 0.77159 0.76853 0.47164
 C254 C 0.73131 0.72810 0.52909
 C255 C 0.73143 0.72808 0.47155
 C256 C 0.77151 0.76852 0.52914
 O257 O 0.97909 0.24739 0.27815
 O258 O 1.02183 0.27750 0.24803
 O259 O 0.97911 0.27759 0.24815
 O260 O 1.02183 0.24741 0.27814
 O261 O 1.02176 0.22187 0.25260
 O262 O 0.97907 0.25212 0.22254
 O263 O 1.02179 0.25197 0.22248
 O264 O 0.97902 0.22192 0.25254
 Cu265 Cu 1.00047 0.26502 0.26569
 Cu266 Cu 1.00041 0.23441 0.23498
 C267 C 0.97164 0.22955 0.27043
 C268 C 1.02921 0.26983 0.23015
 C269 C 0.97170 0.26998 0.23026
 C270 C 1.02920 0.22953 0.27046
 O271 O 0.47778 0.24759 0.77856
 O272 O 0.52046 0.27810 0.74879
 O273 O 0.47775 0.27791 0.74866
 O274 O 0.52051 0.24791 0.77878
 O275 O 0.52076 0.22248 0.75312
 O276 O 0.47800 0.25252 0.72297
 O277 O 0.52070 0.25270 0.72312
 O278 O 0.47803 0.22220 0.75287
 Cu279 Cu 0.49910 0.26542 0.76627
 Cu280 Cu 0.49940 0.23493 0.73545
 C281 C 0.47051 0.22972 0.77075
 C282 C 0.52798 0.27057 0.73091
 C283 C 0.47047 0.27031 0.73071
 C284 C 0.52806 0.23012 0.77105
 O285 O -0.02119 0.27789 0.75167
 O286 O 0.02149 0.24781 0.72154
 O287 O -0.02124 0.24777 0.72160
 O288 O 0.02154 0.27777 0.75179
 O289 O 0.02150 0.25214 0.77725
 O290 O -0.02129 0.22221 0.74712
 O291 O 0.02144 0.22218 0.74699
 O292 O -0.02122 0.25233 0.77720
 Cu293 Cu 0.00016 0.26537 0.73409
 Cu294 Cu 0.00010 0.23465 0.76469
 C295 C -0.02860 0.27022 0.76954
 C296 C 0.02886 0.22990 0.72915
 C297 C -0.02869 0.22991 0.72926
 C298 C 0.02892 0.27003 0.76965
 O299 O 0.52102 0.25312 0.27659
 O300 O 0.47833 0.22250 0.24697
 O301 O 0.52106 0.22276 0.24673
 O302 O 0.47830 0.25290 0.27677
 O303 O 0.47804 0.27820 0.25100
 O304 O 0.52081 0.24809 0.22098
 O305 O 0.47808 0.24780 0.22118
 O306 O 0.52076 0.27843 0.25082
 Cu307 Cu 0.49970 0.23528 0.26435
 Cu308 Cu 0.49939 0.26566 0.23341
 C309 C 0.52829 0.27096 0.26873
 C310 C 0.47081 0.22996 0.22905
 C311 C 0.52835 0.23033 0.22877
 C312 C 0.47077 0.27066 0.26898
 O313 O 1.02093 0.77732 0.74900
 O314 O 0.97817 0.74683 0.77864
 O315 O 1.02090 0.74674 0.77861
 O316 O 0.97822 0.77737 0.74896
 O317 O 0.97819 0.75222 0.72304
 O318 O 1.02086 0.72161 0.75267
 O319 O 0.97812 0.72168 0.75272
 O320 O 1.02089 0.75218 0.72306
 Cu321 Cu 0.99955 0.76458 0.76641
 Cu322 Cu 0.99951 0.73440 0.73528
 C323 C 1.02832 0.76992 0.73101
 C324 C 0.97073 0.72909 0.77070
 C325 C 1.02829 0.72899 0.77065
 C326 C 0.97082 0.76999 0.73097
 O327 O 0.52212 0.72173 0.25321
 O328 O 0.47939 0.75175 0.22297
 O329 O 0.52210 0.75169 0.22296
 O330 O 0.47938 0.72163 0.25305
 O331 O 0.47934 0.74719 0.27858
 O332 O 0.52204 0.77732 0.24841
 O333 O 0.47933 0.77731 0.24850
 O334 O 0.52207 0.74736 0.27866
 Cu335 Cu 0.50075 0.73413 0.23550
 Cu336 Cu 0.50069 0.76486 0.26609
 C337 C 0.52951 0.72948 0.27105
 C338 C 0.47195 0.76962 0.23063
 C339 C 0.52946 0.76960 0.23056
 C340 C 0.47195 0.72931 0.27090
 O341 O -0.02159 0.77846 0.25144
 O342 O 0.02110 0.74833 0.22136
 O343 O -0.02162 0.74814 0.22154
 O344 O 0.02113 0.77853 0.25133
 O345 O 0.02128 0.75312 0.27701
 O346 O -0.02146 0.72275 0.24724
 O347 O 0.02126 0.72290 0.24702
 O348 O -0.02143 0.75307 0.27713
 Cu349 Cu -0.00027 0.76591 0.23385
 Cu350 Cu -0.00007 0.73542 0.26468
 C351 C -0.02890 0.77089 0.26939
 C352 C 0.02859 0.73052 0.22909
 C353 C -0.02895 0.73029 0.22935
 C354 C 0.02862 0.77097 0.26922
 O355 O 0.47892 0.77838 0.75143
 O356 O 0.52171 0.74830 0.72140
 O357 O 0.47898 0.74805 0.72157
 O358 O 0.52164 0.77862 0.75127
 O359 O 0.52189 0.75328 0.77701
 O360 O 0.47920 0.72272 0.74733
 O361 O 0.52193 0.72294 0.74712
 O362 O 0.47918 0.75305 0.77719
 Cu363 Cu 0.50029 0.76588 0.73384
 Cu364 Cu 0.50058 0.73546 0.76474
 C365 C 0.47163 0.77082 0.76940
 C366 C 0.52923 0.73052 0.72917
 C367 C 0.47169 0.73020 0.72942
 C368 C 0.52916 0.77114 0.76917
 C369 C 0.39966 0.31510 0.31334
 C370 C 0.39885 0.31695 0.33628
 C371 C 0.38082 0.32665 0.34653
 C372 C 0.36323 0.33468 0.33407
 C373 C 0.36411 0.33301 0.31115
 C374 C 0.38213 0.32335 0.30089
 C375 C 0.41846 0.30419 0.30242
 C376 C 0.42757 0.28498 0.31124
 C377 C 0.44472 0.27424 0.30053
 C378 C 0.45317 0.28249 0.28077
 C379 C 0.44429 0.30189 0.27212
 C380 C 0.42712 0.31261 0.28282
 H381 H 0.38055 0.32792 0.36422
 H382 H 0.35062 0.33883 0.30121
 H383 H 0.45116 0.25931 0.30761
 H384 H 0.45047 0.30873 0.25697
 H385 H 0.38211 0.32186 0.28322
 H386 H 0.42108 0.27794 0.32617
 H387 H 0.41222 0.31101 0.34630
 H388 H 0.42065 0.32755 0.27578
 C389 C 0.40025 0.81500 0.81358
 C390 C 0.39935 0.81686 0.83652
 C391 C 0.38125 0.82651 0.84669
 C392 C 0.36368 0.83447 0.83416
 C393 C 0.36464 0.83276 0.81124
 C394 C 0.38273 0.82316 0.80106
 C395 C 0.41915 0.80418 0.80273
 C396 C 0.42830 0.78500 0.81158
 C397 C 0.44552 0.77433 0.80091
 C398 C 0.45400 0.78261 0.78117
 C399 C 0.44507 0.80198 0.77250
 C400 C 0.42783 0.81263 0.78316
 H401 H 0.38092 0.82781 0.86438
 H402 H 0.35117 0.83852 0.80125
 H403 H 0.45201 0.75942 0.80801
 H404 H 0.45126 0.80884 0.75737
 H405 H 0.38278 0.82165 0.78339
 H406 H 0.42180 0.77793 0.82649
 H407 H 0.41271 0.81098 0.84659
 H408 H 0.42132 0.82754 0.77610
 C409 C -0.09988 0.31460 0.81367
 C410 C -0.10082 0.31647 0.83660
 C411 C -0.11890 0.32619 0.84675
 C412 C -0.13643 0.33419 0.83418
 C413 C -0.13544 0.33247 0.81127
 C414 C -0.11736 0.32281 0.80112
 C415 C -0.08101 0.30372 0.80285
 C416 C -0.07224 0.31219 0.78333
 C417 C -0.05502 0.30150 0.77269
 C418 C -0.04620 0.28205 0.78132
 C419 C -0.05476 0.27375 0.80101
 C420 C -0.07196 0.28448 0.81167
 H421 H -0.11925 0.32749 0.86443
 H422 H -0.14888 0.33826 0.80125
 H423 H -0.04876 0.30837 0.75759
 H424 H -0.04837 0.25879 0.80808
 H425 H -0.11729 0.32130 0.78345
 H426 H -0.07867 0.32715 0.77629
 H427 H -0.08748 0.31055 0.84669
 H428 H -0.07853 0.27741 0.82655
 C429 C -0.09993 0.81542 0.31377
 C430 C -0.11747 0.82365 0.30132
 C431 C -0.13548 0.83334 0.31158
 C432 C -0.13633 0.83506 0.33450
 C433 C -0.11873 0.82705 0.34696
 C434 C -0.10072 0.81732 0.33671
 C435 C -0.08114 0.80449 0.30285
 C436 C -0.07249 0.81289 0.28325
 C437 C -0.05534 0.80215 0.27254
 C438 C -0.04647 0.78274 0.28119
 C439 C -0.05493 0.77450 0.30096
 C440 C -0.07206 0.78527 0.31167
 H441 H -0.14898 0.83913 0.30164
 H442 H -0.11898 0.82837 0.36464
 H443 H -0.04915 0.80898 0.25738
 H444 H -0.04849 0.75957 0.30804
 H445 H -0.08733 0.81139 0.34673
 H446 H -0.07894 0.82784 0.27620
 H447 H -0.11751 0.82213 0.28365
 H448 H -0.07854 0.77825 0.32661
 C449 C 0.60096 0.68567 0.31548
 C450 C 0.60199 0.66274 0.31737
 C451 C 0.62013 0.65268 0.32707
 C452 C 0.63762 0.66533 0.33503
 C453 C 0.63652 0.68824 0.33331
 C454 C 0.61838 0.69831 0.32367
 C455 C 0.58203 0.69640 0.30460
 C456 C 0.57319 0.71591 0.31304
 C457 C 0.55594 0.72647 0.30233
 C458 C 0.54714 0.71777 0.28291
 C459 C 0.55577 0.69809 0.27464
 C460 C 0.57300 0.68751 0.28538
 H461 H 0.62056 0.63500 0.32838
 H462 H 0.64993 0.69831 0.33908
 H463 H 0.54963 0.74156 0.30918
 H464 H 0.54939 0.69098 0.25970
 H465 H 0.61824 0.71597 0.32215
 H466 H 0.57960 0.72299 0.32798
 H467 H 0.58869 0.65259 0.31147
 H468 H 0.57963 0.67265 0.27833
 C469 C 0.59959 0.18627 0.81532
 C470 C 0.60066 0.16334 0.81712
 C471 C 0.61882 0.15327 0.82678
 C472 C 0.63629 0.16592 0.83480
 C473 C 0.63515 0.18883 0.83316
 C474 C 0.61699 0.19891 0.82355
 C475 C 0.58064 0.19701 0.80448
 C476 C 0.57175 0.21646 0.81300
 C477 C 0.55448 0.22703 0.80233
 C478 C 0.54571 0.21840 0.78287
 C479 C 0.55439 0.19878 0.77451
 C480 C 0.57165 0.18819 0.78521
 H481 H 0.61927 0.13559 0.82802
 H482 H 0.64854 0.19891 0.83896
 H483 H 0.54813 0.24207 0.80925
 H484 H 0.54804 0.19172 0.75953
 H485 H 0.61681 0.21658 0.82210
 H486 H 0.57814 0.22349 0.82798
 H487 H 0.58739 0.15319 0.81118
 H488 H 0.57830 0.17337 0.77810
 C489 C 1.09983 0.68415 0.81387
 C490 C 1.10089 0.68196 0.83677
 C491 C 1.11906 0.67215 0.84668
 C492 C 1.13654 0.66437 0.83391
 C493 C 1.13543 0.66642 0.81103
 C494 C 1.11727 0.67618 0.80111
 C495 C 1.08087 0.69511 0.80330
 C496 C 1.07180 0.71420 0.81243
 C497 C 1.05453 0.72503 0.80200
 C498 C 1.04593 0.71700 0.78221
 C499 C 1.05476 0.69770 0.77327
 C500 C 1.07204 0.68690 0.78369
 H501 H 1.11950 0.67058 0.86434
 H502 H 1.14883 0.66081 0.80086
 H503 H 1.04813 0.73987 0.80930
 H504 H 1.04846 0.69104 0.75809
 H505 H 1.11710 0.67794 0.78346
 H506 H 1.07841 0.72107 0.82739
 H507 H 1.08760 0.68769 0.84701
 H508 H 1.07848 0.67206 0.77641
 C509 C 1.10059 0.18533 0.31461
 C510 C 1.10155 0.16239 0.31643
 C511 C 1.11964 0.15225 0.32612
 C512 C 1.13716 0.16481 0.33414
 C513 C 1.13615 0.18773 0.33246
 C514 C 1.11806 0.19788 0.32282
 C515 C 1.08168 0.19616 0.30379
 C516 C 1.07292 0.21567 0.31232
 C517 C 1.05568 0.22632 0.30168
 C518 C 1.04682 0.21772 0.28224
 C519 C 1.05537 0.19804 0.27389
 C520 C 1.07259 0.18737 0.28456
 H521 H 1.12001 0.13456 0.32740
 H522 H 1.14958 0.19775 0.33827
 H523 H 1.04943 0.24141 0.30859
 H524 H 1.04894 0.19100 0.25893
 H525 H 1.11797 0.21556 0.32135
 H526 H 1.07937 0.22268 0.32728
 H527 H 1.08822 0.15230 0.31050
 H528 H 1.07915 0.17251 0.27745
 C529 C 0.59912 0.31541 0.68703
 C530 C 0.61666 0.32348 0.69959
 C531 C 0.63469 0.33325 0.68946
 C532 C 0.63557 0.33524 0.66656
 C533 C 0.61798 0.32737 0.65399
 C534 C 0.59995 0.31754 0.66411
 C535 C 0.58030 0.30442 0.69781
 C536 C 0.57123 0.28527 0.68883
 C537 C 0.55407 0.27443 0.69942
 C538 C 0.54556 0.28253 0.71923
 C539 C 0.55441 0.30188 0.72804
 C540 C 0.57159 0.31269 0.71746
 H541 H 0.64817 0.33894 0.69948
 H542 H 0.61824 0.32889 0.63632
 H543 H 0.54765 0.25955 0.69222
 H544 H 0.54819 0.30859 0.74323
 H545 H 0.58657 0.31173 0.65402
 H546 H 0.57775 0.27836 0.67385
 H547 H 0.61666 0.32177 0.71724
 H548 H 0.57804 0.32757 0.72463
 C549 C 0.60050 0.81386 0.18591
 C550 C 0.60136 0.83680 0.18404
 C551 C 0.61935 0.84699 0.17421
 C552 C 0.63686 0.83448 0.16609
 C553 C 0.63595 0.81156 0.16781
 C554 C 0.61796 0.80136 0.17759
 C555 C 0.58172 0.80298 0.19689
 C556 C 0.57296 0.78343 0.18846
 C557 C 0.55581 0.77276 0.19923
 C558 C 0.54704 0.78139 0.21869
 C559 C 0.55559 0.80110 0.22696
 C560 C 0.57272 0.81179 0.21616
 H561 H 0.61964 0.86468 0.17291
 H562 H 0.64938 0.80159 0.16192
 H563 H 0.54955 0.75765 0.19238
 H564 H 0.54923 0.80816 0.24193
 H565 H 0.61795 0.78369 0.17909
 H566 H 0.57934 0.77641 0.17348
 H567 H 0.58803 0.84685 0.19005
 H568 H 0.57929 0.82668 0.22320
 C569 C 1.10031 0.31413 0.18563
 C570 C 1.11778 0.30163 0.17731
 C571 C 1.13579 0.31185 0.16758
 C572 C 1.13671 0.33477 0.16591
 C573 C 1.11918 0.34727 0.17401
 C574 C 1.10117 0.33707 0.18379
 C575 C 1.08150 0.30324 0.19656
 C576 C 1.07250 0.31201 0.21585
 C577 C 1.05535 0.30132 0.22661
 C578 C 1.04680 0.28162 0.21831
 C579 C 1.05558 0.27303 0.19883
 C580 C 1.07275 0.28371 0.18810
 H581 H 1.14923 0.30188 0.16171
 H582 H 1.11948 0.36496 0.17274
 H583 H 1.04898 0.30836 0.24159
 H584 H 1.04932 0.25793 0.19196
 H585 H 1.08784 0.34711 0.18979
 H586 H 1.07907 0.32690 0.22291
 H587 H 1.11776 0.28396 0.17879
 H588 H 1.07914 0.27670 0.17311
 C589 C 1.09953 0.81490 0.68735
 C590 C 1.11703 0.82297 0.69996
 C591 C 1.13506 0.83280 0.68988
 C592 C 1.13598 0.83482 0.66698
 C593 C 1.11842 0.82696 0.65437
 C594 C 1.10038 0.81708 0.66444
 C595 C 1.08069 0.80386 0.69809
 C596 C 1.07162 0.78475 0.68902
 C597 C 1.05445 0.77388 0.69956
 C598 C 1.04593 0.78190 0.71939
 C599 C 1.05478 0.80121 0.72828
 C600 C 1.07198 0.81205 0.71775
 H601 H 1.14852 0.83848 0.69993
 H602 H 1.11871 0.82850 0.63671
 H603 H 1.04802 0.75903 0.69229
 H604 H 1.04855 0.80787 0.74349
 H605 H 1.08703 0.81127 0.65431
 H606 H 1.07815 0.77789 0.67402
 H607 H 1.11701 0.82123 0.71761
 H608 H 1.07842 0.82691 0.72498
 C609 C 0.40036 0.68536 0.68584
 C610 C 0.38298 0.67713 0.69851
 C611 C 0.36486 0.66741 0.68847
 C612 C 0.36374 0.66568 0.66556
 C613 C 0.38119 0.67369 0.65289
 C614 C 0.39931 0.68345 0.66292
 C615 C 0.41926 0.69634 0.69653
 C616 C 0.42820 0.71557 0.68758
 C617 C 0.44540 0.72640 0.69810
 C618 C 0.45408 0.71823 0.71780
 C619 C 0.44537 0.69881 0.72657
 C620 C 0.42814 0.68799 0.71606
 H621 H 0.35149 0.66161 0.69857
 H622 H 0.38074 0.67236 0.63521
 H623 H 0.45171 0.74135 0.69093
 H624 H 0.45173 0.69203 0.74168
 H625 H 0.41257 0.68938 0.65274
 H626 H 0.42153 0.72255 0.67270
 H627 H 0.38314 0.67866 0.71617
 H628 H 0.42180 0.67305 0.72320
 C629 C 0.39970 0.18483 0.18540
 C630 C 0.38234 0.17649 0.19803
 C631 C 0.36427 0.16673 0.18795
 C632 C 0.36317 0.16505 0.16504
 C633 C 0.38061 0.17314 0.15240
 C634 C 0.39869 0.18294 0.16247
 C635 C 0.41852 0.19590 0.19613
 C636 C 0.42738 0.21517 0.18720
 C637 C 0.44453 0.22608 0.19773
 C638 C 0.45323 0.21794 0.21743
 C639 C 0.44459 0.19847 0.22619
 C640 C 0.42742 0.18759 0.21567
 H641 H 0.35090 0.16086 0.19802
 H642 H 0.38018 0.17186 0.13472
 H643 H 0.45079 0.24105 0.19057
 H644 H 0.45097 0.19172 0.24130
 H645 H 0.41193 0.18895 0.15232
 H646 H 0.42070 0.22213 0.17231
 H647 H 0.38248 0.17799 0.21570
 H648 H 0.42114 0.17261 0.22279
 C649 C -0.10013 0.68546 0.18553
 C650 C -0.10111 0.68357 0.16260
 C651 C -0.11917 0.67378 0.15250
 C652 C -0.13664 0.66571 0.16510
 C653 C -0.13560 0.66741 0.18801
 C654 C -0.11754 0.67715 0.19812
 C655 C -0.08130 0.69646 0.19630
 C656 C -0.07245 0.68809 0.21583
 C657 C -0.05526 0.69890 0.22639
 C658 C -0.04655 0.71835 0.21768
 C659 C -0.05520 0.72656 0.19798
 C660 C -0.07237 0.71572 0.18741
 H661 H -0.11956 0.67249 0.13481
 H662 H -0.14899 0.66156 0.19806
 H663 H -0.04892 0.69210 0.24150
 H664 H -0.04889 0.74152 0.19086
 H665 H -0.11743 0.67866 0.21579
 H666 H -0.07879 0.67312 0.22292
 H667 H -0.08783 0.68956 0.15247
 H668 H -0.07901 0.72272 0.17252
 C669 C -0.10024 0.18582 0.68527
 C670 C -0.10129 0.18405 0.66233
 C671 C -0.11942 0.17435 0.65225
 C672 C -0.13687 0.16626 0.66487
 C673 C -0.13577 0.16790 0.68778
 C674 C -0.11765 0.17755 0.69788
 C675 C -0.08130 0.19663 0.69605
 C676 C -0.07245 0.18807 0.71550
 C677 C -0.05517 0.19870 0.72610
 C678 C -0.04636 0.21815 0.71750
 C679 C -0.05498 0.22654 0.69787
 C680 C -0.07225 0.21589 0.68726
 H681 H -0.11985 0.17310 0.63456
 H682 H -0.14915 0.16206 0.69784
 H683 H -0.04886 0.19175 0.74115
 H684 H -0.04859 0.24152 0.69084
 H685 H -0.11749 0.17899 0.71555
 H686 H -0.07887 0.17309 0.72250
 H687 H -0.08802 0.19002 0.65220
 H688 H -0.07887 0.22303 0.67243
 C689 C 0.31341 0.39998 0.31629
 C690 C 0.33634 0.39896 0.31817
 C691 C 0.34643 0.38075 0.32770
 C692 C 0.33381 0.36317 0.33550
 C693 C 0.31089 0.36425 0.33377
 C694 C 0.30079 0.38246 0.32430
 C695 C 0.30265 0.41899 0.30557
 C696 C 0.28312 0.42772 0.31408
 C697 C 0.27254 0.44505 0.30350
 C698 C 0.28123 0.45400 0.28415
 C699 C 0.30094 0.44548 0.27583
 C700 C 0.31153 0.42818 0.28643
 H701 H 0.36411 0.38034 0.32901
 H702 H 0.30083 0.35078 0.33941
 H703 H 0.25743 0.45128 0.31039
 H704 H 0.30805 0.45198 0.26093
 H705 H 0.28312 0.38260 0.32277
 H706 H 0.27604 0.42118 0.32896
 H707 H 0.34648 0.41233 0.31240
 H708 H 0.32642 0.42164 0.27933
 C709 C 0.31365 -0.10050 0.81594
 C710 C 0.33658 -0.10140 0.81790
 C711 C 0.34672 -0.11953 0.82754
 C712 C 0.33415 -0.13713 0.83537
 C713 C 0.31124 -0.13617 0.83357
 C714 C 0.30109 -0.11805 0.82398
 C715 C 0.30283 -0.08159 0.80513
 C716 C 0.28323 -0.07293 0.81355
 C717 C 0.27260 -0.05568 0.80289
 C718 C 0.28131 -0.04672 0.78355
 C719 C 0.30109 -0.05517 0.77531
 C720 C 0.31174 -0.07240 0.78599
 H721 H 0.36440 -0.11985 0.82892
 H722 H 0.30122 -0.14967 0.83923
 H723 H 0.25743 -0.04951 0.80971
 H724 H 0.30822 -0.04867 0.76043
 H725 H 0.28342 -0.11801 0.82239
 H726 H 0.27613 -0.07946 0.82842
 H727 H 0.34667 -0.08802 0.81211
 H728 H 0.32668 -0.07888 0.77897
 C729 C 0.81354 0.39920 0.81584
 C730 C 0.83647 0.39830 0.81781
 C731 C 0.84661 0.38019 0.82747
 C732 C 0.83404 0.36260 0.83533
 C733 C 0.81112 0.36355 0.83352
 C734 C 0.80098 0.38166 0.82390
 C735 C 0.80272 0.41811 0.80502
 C736 C 0.78312 0.42678 0.81343
 C737 C 0.77250 0.44404 0.80278
 C738 C 0.78122 0.45300 0.78345
 C739 C 0.80100 0.44454 0.77521
 C740 C 0.81163 0.42731 0.78589
 H741 H 0.86429 0.37987 0.82886
 H742 H 0.80111 0.35007 0.83920
 H743 H 0.75734 0.45022 0.80961
 H744 H 0.80814 0.45105 0.76034
 H745 H 0.78331 0.38170 0.82232
 H746 H 0.77601 0.42024 0.82831
 H747 H 0.84656 0.41168 0.81200
 H748 H 0.82657 0.42082 0.77886
 C749 C 0.81370 -0.09980 0.31654
 C750 C 0.83664 -0.10076 0.31840
 C751 C 0.84678 -0.11891 0.32798
 C752 C 0.83420 -0.13649 0.33587
 C753 C 0.81128 -0.13547 0.33417
 C754 C 0.80114 -0.11731 0.32464
 C755 C 0.80289 -0.08086 0.30577
 C756 C 0.78335 -0.07213 0.31427
 C757 C 0.77271 -0.05487 0.30364
 C758 C 0.78136 -0.04596 0.28425
 C759 C 0.80108 -0.05447 0.27593
 C760 C 0.81173 -0.07171 0.28658
 H761 H 0.86446 -0.11928 0.32928
 H762 H 0.80126 -0.14894 0.33987
 H763 H 0.75759 -0.04865 0.31052
 H764 H 0.80816 -0.04801 0.26101
 H765 H 0.78346 -0.11722 0.32313
 H766 H 0.77630 -0.07864 0.32918
 H767 H 0.84674 -0.08739 0.31256
 H768 H 0.82662 -0.07824 0.27949
 C769 C 0.31393 0.60051 0.68409
 C770 C 0.33685 0.60149 0.68206
 C771 C 0.34691 0.61964 0.67239
 C772 C 0.33426 0.63721 0.66459
 C773 C 0.31136 0.63618 0.66649
 C774 C 0.30129 0.61803 0.67610
 C775 C 0.30319 0.58153 0.69485
 C776 C 0.28361 0.57283 0.68643
 C777 C 0.27304 0.55553 0.69704
 C778 C 0.28178 0.54655 0.71635
 C779 C 0.30154 0.55502 0.72460
 C780 C 0.31214 0.57231 0.71396
 H781 H 0.36458 0.62002 0.67095
 H782 H 0.30128 0.64965 0.66086
 H783 H 0.25789 0.54933 0.69021
 H784 H 0.30870 0.54850 0.73946
 H785 H 0.28363 0.61793 0.67774
 H786 H 0.27648 0.57939 0.67157
 H787 H 0.34700 0.58813 0.68781
 H788 H 0.32706 0.57882 0.72099
 C789 C 0.31363 1.09963 0.18324
 C790 C 0.33655 1.10071 0.18117
 C791 C 0.34651 1.11895 0.17156
 C792 C 0.33379 1.13650 0.16387
 C793 C 0.31089 1.13536 0.16577
 C794 C 0.30091 1.11712 0.17532
 C795 C 0.30301 1.08062 0.19407
 C796 C 0.28344 1.07181 0.18576
 C797 C 0.27298 1.05449 0.19647
 C798 C 0.28185 1.04561 0.21577
 C799 C 0.30161 1.05420 0.22390
 C800 C 0.31208 1.07149 0.21316
 H801 H 0.36419 1.11940 0.17011
 H802 H 0.30074 1.14880 0.16022
 H803 H 0.25782 1.04821 0.18973
 H804 H 0.30887 1.04776 0.23875
 H805 H 0.28325 1.11694 0.17699
 H806 H 0.27621 1.07831 0.17092
 H807 H 0.34677 1.08737 0.18686
 H808 H 0.32701 1.07809 0.22012
 C809 C 0.81378 0.60035 0.18337
 C810 C 0.83670 0.60141 0.18134
 C811 C 0.84669 0.61962 0.17170
 C812 C 0.83399 0.63715 0.16393
 C813 C 0.81108 0.63602 0.16580
 C814 C 0.80108 0.61782 0.17538
 C815 C 0.80313 0.58135 0.19421
 C816 C 0.78357 0.57255 0.18586
 C817 C 0.77309 0.55524 0.19656
 C818 C 0.78191 0.54636 0.21588
 C819 C 0.80166 0.55495 0.22405
 C820 C 0.81216 0.57223 0.21333
 H821 H 0.86437 0.62006 0.17028
 H822 H 0.80095 0.64946 0.16019
 H823 H 0.75794 0.54896 0.18979
 H824 H 0.80888 0.54851 0.23892
 H825 H 0.78342 0.61764 0.17702
 H826 H 0.77638 0.57903 0.17100
 H827 H 0.84691 0.58809 0.18709
 H828 H 0.82707 0.57883 0.22031
 C829 C 0.81340 1.10104 0.68328
 C830 C 0.83632 1.10203 0.68123
 C831 C 0.84636 1.12019 0.67156
 C832 C 0.83370 1.13775 0.66378
 C833 C 0.81079 1.13670 0.66566
 C834 C 0.80074 1.11853 0.67528
 C835 C 0.80270 1.08210 0.69418
 C836 C 0.78311 1.07333 0.68587
 C837 C 0.77260 1.05606 0.69661
 C838 C 0.78143 1.04720 0.71594
 C839 C 0.80120 1.05577 0.72408
 C840 C 0.81172 1.07301 0.71330
 H841 H 0.86403 1.12059 0.67012
 H842 H 0.80070 1.15015 0.66004
 H843 H 0.75743 1.04979 0.68988
 H844 H 0.80842 1.04935 0.73895
 H845 H 0.78308 1.11842 0.67693
 H846 H 0.77591 1.07980 0.67100
 H847 H 0.84649 1.08868 0.68699
 H848 H 0.82666 1.07958 0.72025
 C849 C 0.68595 0.59971 0.31294
 C850 C 0.68408 0.60047 0.33588
 C851 C 0.67430 0.61844 0.34615
 C852 C 0.66624 0.63603 0.33372
 C853 C 0.66797 0.63522 0.31080
 C854 C 0.67769 0.61725 0.30051
 C855 C 0.69684 0.58093 0.30197
 C856 C 0.68833 0.57227 0.28242
 C857 C 0.69902 0.55511 0.27167
 C858 C 0.71848 0.54626 0.28022
 C859 C 0.72683 0.55473 0.29993
 C860 C 0.71611 0.57186 0.31070
 H861 H 0.67298 0.61864 0.36384
 H862 H 0.66213 0.64871 0.30088
 H863 H 0.69211 0.54892 0.25655
 H864 H 0.74180 0.54830 0.30694
 H865 H 0.67920 0.61731 0.28284
 H866 H 0.67335 0.57872 0.27545
 H867 H 0.69004 0.58708 0.34587
 H868 H 0.72321 0.57835 0.32560
 C869 C 0.68481 1.10036 0.81274
 C870 C 0.68287 1.10110 0.83567
 C871 C 0.67299 1.11903 0.84592
 C872 C 0.66490 1.13660 0.83347
 C873 C 0.66669 1.13580 0.81055
 C874 C 0.67651 1.11786 0.80029
 C875 C 0.69585 1.08165 0.80181
 C876 C 0.68746 1.07292 0.78224
 C877 C 0.69827 1.05582 0.77155
 C878 C 0.71776 1.04708 0.78016
 C879 C 0.72600 1.05562 0.79989
 C880 C 0.71516 1.07270 0.81060
 H881 H 0.67164 1.11924 0.86360
 H882 H 0.66083 1.14927 0.80062
 H883 H 0.69144 1.04957 0.75642
 H884 H 0.74099 1.04928 0.80694
 H885 H 0.67806 1.11793 0.78263
 H886 H 0.67246 1.07928 0.77522
 H887 H 0.68886 1.08774 0.84568
 H888 H 0.72217 1.07925 0.82552
 C889 C 0.18643 0.59967 0.81423
 C890 C 0.19904 0.61707 0.82251
 C891 C 0.18896 0.63502 0.83249
 C892 C 0.16606 0.63595 0.83446
 C893 C 0.15344 0.61849 0.82639
 C894 C 0.16351 0.60054 0.81636
 C895 C 0.19716 0.58093 0.80305
 C896 C 0.18816 0.57207 0.78381
 C897 C 0.19871 0.55498 0.77282
 C898 C 0.21848 0.54633 0.78086
 C899 C 0.22731 0.55498 0.80029
 C900 C 0.21678 0.57209 0.81125
 H901 H 0.19902 0.64840 0.83833
 H902 H 0.13577 0.61879 0.82789
 H903 H 0.19149 0.54871 0.75788
 H904 H 0.24247 0.54864 0.80697
 H905 H 0.15337 0.58727 0.81039
 H906 H 0.17321 0.57871 0.77695
 H907 H 0.21670 0.61704 0.82082
 H908 H 0.22396 0.57837 0.82620
 C909 C 0.18550 1.09902 0.31238
 C910 C 0.18355 1.09984 0.33531
 C911 C 0.17371 1.11783 0.34550
 C912 C 0.16568 1.13538 0.33299
 C913 C 0.16748 1.13450 0.31007
 C914 C 0.17726 1.11651 0.29988
 C915 C 0.19648 1.08024 0.30151
 C916 C 0.18807 1.07148 0.28196
 C917 C 0.19883 1.05432 0.27131
 C918 C 0.21829 1.04555 0.27995
 C919 C 0.22656 1.05411 0.29966
 C920 C 0.21576 1.07125 0.31034
 H921 H 0.17234 1.11809 0.36318
 H922 H 0.16167 1.14796 0.30010
 H923 H 0.19199 1.04806 0.25620
 H924 H 0.24153 1.04775 0.30674
 H925 H 0.17883 1.11652 0.28221
 H926 H 0.17309 1.07787 0.27493
 H927 H 0.18949 1.08649 0.34536
 H928 H 0.22278 1.07781 0.32524
 C929 C 0.68554 0.40000 0.68571
 C930 C 0.66261 0.39913 0.68376
 C931 C 0.65246 0.38118 0.67382
 C932 C 0.66502 0.36372 0.66566
 C933 C 0.68794 0.36466 0.66744
 C934 C 0.69810 0.38261 0.67734
 C935 C 0.69636 0.41873 0.69685
 C936 C 0.71594 0.42756 0.68857
 C937 C 0.72654 0.44465 0.69950
 C938 C 0.71781 0.45328 0.71898
 C939 C 0.69806 0.44466 0.72709
 C940 C 0.68745 0.42758 0.71614
 H941 H 0.63478 0.38087 0.67246
 H942 H 0.69796 0.35127 0.66153
 H943 H 0.74168 0.45098 0.69276
 H944 H 0.69092 0.45091 0.74207
 H945 H 0.71577 0.38264 0.67890
 H946 H 0.72305 0.42128 0.67358
 H947 H 0.65252 0.41241 0.68979
 H948 H 0.67253 0.42095 0.72307
 C949 C 0.68498 -0.09963 0.18783
 C950 C 0.67693 -0.11723 0.20030
 C951 C 0.66722 -0.13524 0.19008
 C952 C 0.66530 -0.13604 0.16717
 C953 C 0.67316 -0.11839 0.15469
 C954 C 0.68293 -0.10037 0.16491
 C955 C 0.69585 -0.08080 0.19873
 C956 C 0.71500 -0.07161 0.18986
 C957 C 0.72571 -0.05443 0.20056
 C958 C 0.71748 -0.04604 0.22035
 C959 C 0.69813 -0.05500 0.22904
 C960 C 0.68745 -0.07220 0.21836
 H961 H 0.66155 -0.14878 0.20003
 H962 H 0.67170 -0.11858 0.13702
 H963 H 0.74060 -0.04792 0.19344
 H964 H 0.69131 -0.04886 0.24422
 H965 H 0.68873 -0.08694 0.15488
 H966 H 0.72201 -0.07805 0.17489
 H967 H 0.67858 -0.11730 0.21796
 H968 H 0.67256 -0.07874 0.22544
 C969 C 0.18480 0.40068 0.18773
 C970 C 0.17671 0.38309 0.20020
 C971 C 0.16701 0.36508 0.18996
 C972 C 0.16514 0.36427 0.16705
 C973 C 0.17303 0.38191 0.15458
 C974 C 0.18279 0.39992 0.16480
 C975 C 0.19569 0.41949 0.19864
 C976 C 0.21487 0.42864 0.18978
 C977 C 0.22561 0.44579 0.20050
 C978 C 0.21737 0.45420 0.22029
 C979 C 0.19800 0.44528 0.22895
 C980 C 0.18729 0.42811 0.21826
 H981 H 0.16131 0.35155 0.19991
 H982 H 0.17160 0.38171 0.13690
 H983 H 0.24052 0.45227 0.19340
 H984 H 0.19117 0.45143 0.24413
 H985 H 0.18862 0.41335 0.15478
 H986 H 0.22189 0.42219 0.17483
 H987 H 0.17833 0.38302 0.21786
 H988 H 0.17238 0.42159 0.22532
 C989 C 0.18579 -0.10024 0.68609
 C990 C 0.16285 -0.10119 0.68415
 C991 C 0.15277 -0.11921 0.67425
 C992 C 0.16538 -0.13664 0.66613
 C993 C 0.18830 -0.13563 0.66791
 C994 C 0.19840 -0.11762 0.67777
 C995 C 0.19655 -0.08144 0.69716
 C996 C 0.21610 -0.07258 0.68884
 C997 C 0.22665 -0.05541 0.69970
 C998 C 0.21790 -0.04674 0.71915
 C999 C 0.19818 -0.05540 0.72731
 C1000 C 0.18762 -0.07255 0.71643
 H1001 H 0.13508 -0.11957 0.67289
 H1002 H 0.19835 -0.14900 0.66203
 H1003 H 0.24177 -0.04906 0.69294
 H1004 H 0.19103 -0.04911 0.74227
 H1005 H 0.21606 -0.11753 0.67932
 H1006 H 0.22322 -0.07889 0.67387
 H1007 H 0.15272 -0.08793 0.69015
 H1008 H 0.17272 -0.07919 0.72338
 C1009 C 0.31525 0.31249 0.39995
 C1010 C 0.32339 0.30010 0.38233
 C1011 C 0.33305 0.31042 0.36434
 C1012 C 0.33484 0.33335 0.36360
 C1013 C 0.32692 0.34574 0.38128
 C1014 C 0.31720 0.33543 0.39927
 C1015 C 0.30437 0.30150 0.41872
 C1016 C 0.28517 0.31029 0.42788
 C1017 C 0.27444 0.29951 0.44499
 C1018 C 0.28272 0.27972 0.45337
 C1019 C 0.30211 0.27111 0.44443
 C1020 C 0.31281 0.28187 0.42729
 H1021 H 0.33878 0.30054 0.35078
 H1022 H 0.32829 0.36342 0.38113
 H1023 H 0.25952 0.30657 0.45149
 H1024 H 0.30896 0.25594 0.45055
 H1025 H 0.31134 0.34539 0.41272
 H1026 H 0.27813 0.32525 0.42146
 H1027 H 0.32182 0.28244 0.38221
 H1028 H 0.32773 0.27485 0.42077
 C1029 C 0.31553 0.81256 -0.09995
 C1030 C 0.32370 0.80009 -0.11750
 C1031 C 0.33342 0.81031 -0.13550
 C1032 C 0.33524 0.83323 -0.13635
 C1033 C 0.32729 0.84571 -0.11874
 C1034 C 0.31752 0.83550 -0.10073
 C1035 C 0.30459 0.80168 -0.08115
 C1036 C 0.28541 0.81057 -0.07203
 C1037 C 0.27464 0.79989 -0.05488
 C1038 C 0.28282 0.78009 -0.04645
 C1039 C 0.30218 0.77137 -0.05536
 C1040 C 0.31293 0.78203 -0.07252
 H1041 H 0.33917 0.80036 -0.14901
 H1042 H 0.32867 0.86339 -0.11898
 H1043 H 0.25974 0.80702 -0.04842
 H1044 H 0.30896 0.75618 -0.04919
 H1045 H 0.31164 0.84553 -0.08734
 H1046 H 0.27843 0.82554 -0.07850
 H1047 H 0.32211 0.78242 -0.11754
 H1048 H 0.32784 0.77494 -0.07901
 C1049 C 0.81549 0.31239 -0.09988
 C1050 C 0.82364 0.29989 -0.11742
 C1051 C 0.83331 0.31009 -0.13546
 C1052 C 0.83511 0.33300 -0.13634
 C1053 C 0.82718 0.34551 -0.11875
 C1054 C 0.81744 0.33532 -0.10070
 C1055 C 0.80461 0.30152 -0.08104
 C1056 C 0.78542 0.31037 -0.07192
 C1057 C 0.77469 0.29969 -0.05474
 C1058 C 0.78294 0.27993 -0.04627
 C1059 C 0.80233 0.27126 -0.05517
 C1060 C 0.81303 0.28192 -0.07237
 H1061 H 0.83906 0.30012 -0.14895
 H1062 H 0.82855 0.36319 -0.11902
 H1063 H 0.75977 0.30679 -0.04828
 H1064 H 0.80916 0.25611 -0.04898
 H1065 H 0.81158 0.34537 -0.08732
 H1066 H 0.77839 0.32530 -0.07841
 H1067 H 0.82207 0.28222 -0.11742
 H1068 H 0.82795 0.27486 -0.07885
 C1069 C 0.81583 0.81304 0.40053
 C1070 C 0.82394 0.80061 0.38293
 C1071 C 0.83355 0.81088 0.36489
 C1072 C 0.83533 0.83380 0.36407
 C1073 C 0.82744 0.84624 0.38173
 C1074 C 0.81776 0.83598 0.39977
 C1075 C 0.80499 0.80210 0.41935
 C1076 C 0.78579 0.81090 0.42851
 C1077 C 0.77510 0.80015 0.44566
 C1078 C 0.78339 0.78038 0.45407
 C1079 C 0.80279 0.77177 0.44513
 C1080 C 0.81345 0.78250 0.42796
 H1081 H 0.83926 0.80095 0.35135
 H1082 H 0.82880 0.86392 0.38152
 H1083 H 0.76017 0.80720 0.45215
 H1084 H 0.80965 0.75661 0.45128
 H1085 H 0.81192 0.84598 0.41320
 H1086 H 0.77873 0.82584 0.42207
 H1087 H 0.82238 0.78294 0.38287
 H1088 H 0.82838 0.77548 0.42143
 C1089 C 0.68346 0.31457 0.60007
 C1090 C 0.67541 0.30178 0.61744
 C1091 C 0.66574 0.31167 0.63566
 C1092 C 0.66386 0.33457 0.63690
 C1093 C 0.67169 0.34737 0.61946
 C1094 C 0.68140 0.33748 0.60123
 C1095 C 0.69440 0.30404 0.58106
 C1096 C 0.71351 0.31315 0.57204
 C1097 C 0.72433 0.30276 0.55475
 C1098 C 0.71626 0.28302 0.54607
 C1099 C 0.69694 0.27409 0.55486
 C1100 C 0.68614 0.28448 0.57216
 H1101 H 0.66009 0.30148 0.64902
 H1102 H 0.67025 0.36503 0.62000
 H1103 H 0.73920 0.31005 0.54839
 H1104 H 0.69024 0.25895 0.54850
 H1105 H 0.68719 0.34776 0.58799
 H1106 H 0.72043 0.32806 0.57871
 H1107 H 0.67706 0.28412 0.61719
 H1108 H 0.67128 0.27721 0.57857
 C1109 C 0.68623 0.81639 1.10054
 C1110 C 0.69897 0.82447 1.11794
 C1111 C 0.68901 0.83403 1.13618
 C1112 C 0.66610 0.83578 1.13741
 C1113 C 0.65335 0.82792 1.11994
 C1114 C 0.66331 0.81830 1.10171
 C1115 C 0.69686 0.80560 1.08151
 C1116 C 0.71631 0.81409 1.07260
 C1117 C 0.72679 0.80344 1.05525
 C1118 C 0.71806 0.78404 1.04644
 C1119 C 0.69842 0.77574 1.05513
 C1120 C 0.68792 0.78641 1.07245
 H1121 H 0.69917 0.83971 1.14956
 H1122 H 0.63568 0.82925 1.12047
 H1123 H 0.74185 0.81032 1.04889
 H1124 H 0.69128 0.76081 1.04874
 H1125 H 0.65308 0.81247 1.08844
 H1126 H 0.72343 0.82901 1.07902
 H1127 H 0.71664 0.82293 1.11769
 H1128 H 0.67309 0.77934 1.07913
 C1129 C 0.18631 0.31669 1.10053
 C1130 C 0.16338 0.31864 1.10159
 C1131 C 0.15336 0.32825 1.11979
 C1132 C 0.16604 0.33608 1.13732
 C1133 C 0.18895 0.33429 1.13619
 C1134 C 0.19898 0.32473 1.11799
 C1135 C 0.19699 0.30588 1.08153
 C1136 C 0.18804 0.28673 1.07242
 C1137 C 0.19858 0.27604 1.05514
 C1138 C 0.21830 0.28429 1.04655
 C1139 C 0.22705 0.30365 1.05542
 C1140 C 0.21653 0.31431 1.07273
 H1141 H 0.13568 0.32962 1.12024
 H1142 H 0.19906 0.33994 1.14962
 H1143 H 0.19142 0.26115 1.04870
 H1144 H 0.24217 0.31048 1.04914
 H1145 H 0.21665 0.32316 1.11782
 H1146 H 0.17316 0.27970 1.07902
 H1147 H 0.15320 0.31285 1.08827
 H1148 H 0.22366 0.32920 1.07921
 C1149 C 0.18401 0.81410 0.60065
 C1150 C 0.18194 0.83701 0.60177
 C1151 C 0.17218 0.84692 0.61996
 C1152 C 0.16435 0.83414 0.63741
 C1153 C 0.16626 0.81125 0.63623
 C1154 C 0.17596 0.80133 0.61804
 C1155 C 0.19497 0.80353 0.58168
 C1156 C 0.18672 0.78396 0.57280
 C1157 C 0.19754 0.77355 0.55552
 C1158 C 0.21686 0.78247 0.54674
 C1159 C 0.22493 0.80222 0.55539
 C1160 C 0.21409 0.81264 0.57265
 H1161 H 0.17073 0.86459 0.62046
 H1162 H 0.16059 0.80108 0.64960
 H1163 H 0.19084 0.75840 0.54918
 H1164 H 0.23980 0.80950 0.54902
 H1165 H 0.17763 0.78368 0.61782
 H1166 H 0.17186 0.77670 0.57921
 H1167 H 0.18773 0.84726 0.58851
 H1168 H 0.22100 0.82756 0.57930
 C1169 C 0.31510 0.68739 0.59999
 C1170 C 0.31721 0.66447 0.60075
 C1171 C 0.32712 0.65430 0.61871
 C1172 C 0.33510 0.66681 0.63627
 C1173 C 0.33318 0.68972 0.63544
 C1174 C 0.32331 0.69990 0.61749
 C1175 C 0.30398 0.69822 0.58126
 C1176 C 0.31215 0.71792 0.57258
 C1177 C 0.30124 0.72851 0.55547
 C1178 C 0.28189 0.71966 0.54667
 C1179 C 0.27387 0.69982 0.55516
 C1180 C 0.28480 0.68921 0.57226
 H1181 H 0.32859 0.63662 0.61893
 H1182 H 0.33896 0.69970 0.64891
 H1183 H 0.30789 0.74373 0.54925
 H1184 H 0.25899 0.69258 0.54878
 H1185 H 0.32163 0.71756 0.61755
 H1186 H 0.32705 0.72511 0.57898
 H1187 H 0.31131 0.65441 0.58739
 H1188 H 0.27795 0.67421 0.57877
 C1189 C 0.31464 0.18726 1.09962
 C1190 C 0.32286 0.19962 1.11722
 C1191 C 0.33265 0.18928 1.13512
 C1192 C 0.33450 0.16636 1.13580
 C1193 C 0.32647 0.15399 1.11815
 C1194 C 0.31662 0.16432 1.10025
 C1195 C 0.30369 0.19827 1.08091
 C1196 C 0.28445 0.18951 1.07181
 C1197 C 0.27368 0.20031 1.05474
 C1198 C 0.28194 0.22010 1.04635
 C1199 C 0.30137 0.22869 1.05524
 C1200 C 0.31211 0.21791 1.07234
 H1201 H 0.33846 0.19915 1.14866
 H1202 H 0.32788 0.13631 1.11826
 H1203 H 0.25873 0.19327 1.04828
 H1204 H 0.30821 0.24386 1.04911
 H1205 H 0.31069 0.15438 1.08682
 H1206 H 0.27742 0.17455 1.07824
 H1207 H 0.32127 0.21728 1.11738
 H1208 H 0.32706 0.22491 1.07881
 C1209 C 0.81494 0.68765 1.09949
 C1210 C 0.82311 0.70009 1.11705
 C1211 C 0.83290 0.68983 1.13500
 C1212 C 0.83478 0.66692 1.13576
 C1213 C 0.82681 0.65447 1.11814
 C1214 C 0.81697 0.66472 1.10019
 C1215 C 0.80392 0.69858 1.08076
 C1216 C 0.78470 0.68969 1.07171
 C1217 C 0.77386 0.70039 1.05463
 C1218 C 0.78200 0.72020 1.04618
 C1219 C 0.80140 0.72892 1.05500
 C1220 C 0.81222 0.71823 1.07212
 H1221 H 0.83867 0.69976 1.14852
 H1222 H 0.82825 0.63680 1.11831
 H1223 H 0.75893 0.69326 1.04822
 H1224 H 0.80815 0.74411 1.04882
 H1225 H 0.81108 0.65472 1.08678
 H1226 H 0.77776 0.67472 1.07819
 H1227 H 0.82149 0.71775 1.11715
 H1228 H 0.82715 0.72533 1.07856
 C1229 C 0.81455 0.18799 0.59924
 C1230 C 0.82271 0.20050 0.61677
 C1231 C 0.83258 0.19031 0.63472
 C1232 C 0.83454 0.16741 0.63552
 C1233 C 0.82661 0.15490 0.61792
 C1234 C 0.81670 0.16508 0.59997
 C1235 C 0.80342 0.19883 0.58052
 C1236 C 0.78426 0.18980 0.57150
 C1237 C 0.77332 0.20040 0.55442
 C1238 C 0.78131 0.22027 0.54595
 C1239 C 0.80065 0.22914 0.55476
 C1240 C 0.81157 0.21854 0.57187
 H1241 H 0.83832 0.20028 0.64821
 H1242 H 0.82811 0.13723 0.61813
 H1243 H 0.75845 0.19315 0.54803
 H1244 H 0.80728 0.24437 0.54856
 H1245 H 0.81083 0.15502 0.58659
 H1246 H 0.77743 0.17478 0.57800
 H1247 H 0.82100 0.21815 0.61685
 H1248 H 0.82645 0.22575 0.57828
 C1249 C 0.68757 0.68378 0.40006
 C1250 C 0.66465 0.68174 0.39914
 C1251 C 0.65456 0.67206 0.38101
 C1252 C 0.66717 0.66427 0.36342
 C1253 C 0.69008 0.66615 0.36440
 C1254 C 0.70018 0.67577 0.38253
 C1255 C 0.69833 0.69462 0.41899
 C1256 C 0.68938 0.71375 0.42815
 C1257 C 0.69996 0.72445 0.44540
 C1258 C 0.71973 0.71625 0.45390
 C1259 C 0.72850 0.69692 0.44497
 C1260 C 0.71793 0.68624 0.42770
 H1261 H 0.63688 0.67063 0.38067
 H1262 H 0.70013 0.66052 0.35092
 H1263 H 0.69279 0.73933 0.45188
 H1264 H 0.74366 0.69012 0.45119
 H1265 H 0.71784 0.67741 0.38260
 H1266 H 0.67444 0.72075 0.42163
 H1267 H 0.65452 0.68751 0.41251
 H1268 H 0.72507 0.67137 0.42119
 C1269 C 0.68643 0.18419 -0.10021
 C1270 C 0.66350 0.18220 -0.10108
 C1271 C 0.65335 0.17261 -0.11923
 C1272 C 0.66590 0.16485 -0.13687
 C1273 C 0.68881 0.16672 -0.13595
 C1274 C 0.69897 0.17625 -0.11781
 C1275 C 0.69727 0.19489 -0.08125
 C1276 C 0.68841 0.21400 -0.07197
 C1277 C 0.69909 0.22459 -0.05472
 C1278 C 0.71885 0.21627 -0.04631
 C1279 C 0.72751 0.19694 -0.05534
 C1280 C 0.71685 0.18639 -0.07263
 H1281 H 0.63567 0.17118 -0.11952
 H1282 H 0.69882 0.16113 -0.14948
 H1283 H 0.69200 0.23946 -0.04815
 H1284 H 0.74267 0.19006 -0.04921
 H1285 H 0.71664 0.17786 -0.11779
 H1286 H 0.67348 0.22109 -0.07842
 H1287 H 0.65342 0.18793 -0.08766
 H1288 H 0.72391 0.17152 -0.07924
 C1289 C 0.18509 0.68520 -0.10016
 C1290 C 0.17682 0.69795 -0.11746
 C1291 C 0.16699 0.68802 -0.13557
 C1292 C 0.16517 0.66512 -0.13677
 C1293 C 0.17323 0.65235 -0.11942
 C1294 C 0.18311 0.66228 -0.10130
 C1295 C 0.19614 0.69579 -0.08126
 C1296 C 0.21539 0.68678 -0.07240
 C1297 C 0.22628 0.69722 -0.05519
 C1298 C 0.21816 0.71690 -0.04643
 C1299 C 0.19872 0.72572 -0.05505
 C1300 C 0.18784 0.71529 -0.07228
 H1301 H 0.16116 0.69819 -0.14887
 H1302 H 0.17184 0.63468 -0.11993
 H1303 H 0.24124 0.69001 -0.04894
 H1304 H 0.19197 0.74082 -0.04863
 H1305 H 0.18907 0.65203 -0.08811
 H1306 H 0.22233 0.67191 -0.07914
 H1307 H 0.17841 0.71561 -0.11723
 H1308 H 0.17289 0.72247 -0.07856
 C1309 C 0.18694 0.18315 0.39932
 C1310 C 0.16402 0.18113 0.39835
 C1311 C 0.15396 0.17146 0.38020
 C1312 C 0.16660 0.16366 0.36263
 C1313 C 0.18951 0.16553 0.36366
 C1314 C 0.19957 0.17514 0.38181
 C1315 C 0.19767 0.19397 0.41828
 C1316 C 0.21724 0.18557 0.42702
 C1317 C 0.22780 0.19624 0.44430
 C1318 C 0.21904 0.21558 0.45321
 C1319 C 0.19929 0.22381 0.44468
 C1320 C 0.18872 0.21311 0.42742
 H1321 H 0.13628 0.17004 0.37982
 H1322 H 0.19958 0.15990 0.35019
 H1323 H 0.24294 0.18943 0.45054
 H1324 H 0.19212 0.23869 0.45115
 H1325 H 0.21724 0.17677 0.38192
 H1326 H 0.22438 0.17070 0.42052
 H1327 H 0.15387 0.18689 0.41171
 H1328 H 0.17380 0.22012 0.42087
 C1329 C 0.31339 0.39976 0.68337
 C1330 C 0.33632 0.39871 0.68141
 C1331 C 0.34635 0.38049 0.67184
 C1332 C 0.33368 0.36294 0.66406
 C1333 C 0.31077 0.36407 0.66582
 C1334 C 0.30073 0.38229 0.67535
 C1335 C 0.30271 0.41873 0.69421
 C1336 C 0.28315 0.42754 0.68586
 C1337 C 0.27264 0.44483 0.69658
 C1338 C 0.28145 0.45367 0.71593
 C1339 C 0.30119 0.44508 0.72410
 C1340 C 0.31171 0.42782 0.71335
 H1341 H 0.36403 0.38005 0.67049
 H1342 H 0.30067 0.35062 0.66020
 H1343 H 0.25750 0.45112 0.68982
 H1344 H 0.30840 0.45149 0.73898
 H1345 H 0.28306 0.38245 0.67692
 H1346 H 0.27597 0.42108 0.67099
 H1347 H 0.34650 0.41204 0.68718
 H1348 H 0.32661 0.42122 0.72034
 C1349 C 0.31446 0.89880 0.18393
 C1350 C 0.33740 0.89782 0.18201
 C1351 C 0.34749 0.87967 0.17237
 C1352 C 0.33488 0.86212 0.16449
 C1353 C 0.31196 0.86315 0.16627
 C1354 C 0.30186 0.88130 0.17586
 C1355 C 0.30369 0.91776 0.19471
 C1356 C 0.28413 0.92648 0.18625
 C1357 C 0.27353 0.94376 0.19687
 C1358 C 0.28224 0.95272 0.21621
 C1359 C 0.30197 0.94422 0.22449
 C1360 C 0.31259 0.92695 0.21385
 H1361 H 0.36517 0.87928 0.17102
 H1362 H 0.30191 0.84970 0.16057
 H1363 H 0.25840 0.94997 0.19001
 H1364 H 0.30910 0.95072 0.23938
 H1365 H 0.28419 0.88140 0.17741
 H1366 H 0.27703 0.91995 0.17136
 H1367 H 0.34753 0.91116 0.18782
 H1368 H 0.32750 0.92043 0.22091
 C1369 C 0.81425 0.39952 0.18381
 C1370 C 0.83718 0.39853 0.18183
 C1371 C 0.84725 0.38035 0.17222
 C1372 C 0.83461 0.36278 0.16443
 C1373 C 0.81170 0.36382 0.16625
 C1374 C 0.80162 0.38200 0.17581
 C1375 C 0.80351 0.41850 0.19458
 C1376 C 0.78393 0.42721 0.18617
 C1377 C 0.77336 0.44451 0.19680
 C1378 C 0.78212 0.45347 0.21612
 C1379 C 0.80188 0.44497 0.22436
 C1380 C 0.81246 0.42769 0.21369
 H1381 H 0.86492 0.37996 0.17083
 H1382 H 0.80163 0.35036 0.16062
 H1383 H 0.75821 0.45072 0.18999
 H1384 H 0.80904 0.45147 0.23922
 H1385 H 0.78396 0.38211 0.17740
 H1386 H 0.77679 0.42067 0.17131
 H1387 H 0.84732 0.41189 0.18759
 H1388 H 0.82738 0.42117 0.22072
 C1389 C 0.81391 0.90029 0.68425
 C1390 C 0.83684 0.89925 0.68234
 C1391 C 0.84689 0.88105 0.67277
 C1392 C 0.83424 0.86350 0.66495
 C1393 C 0.81133 0.86459 0.66671
 C1394 C 0.80127 0.88279 0.67623
 C1395 C 0.80317 0.91930 0.69497
 C1396 C 0.78364 0.92804 0.68648
 C1397 C 0.77306 0.94536 0.69706
 C1398 C 0.78177 0.95433 0.71639
 C1399 C 0.80149 0.94582 0.72470
 C1400 C 0.81208 0.92851 0.71409
 H1401 H 0.86457 0.88062 0.67143
 H1402 H 0.80125 0.85114 0.66106
 H1403 H 0.75794 0.95159 0.69018
 H1404 H 0.80862 0.95233 0.73958
 H1405 H 0.78360 0.88294 0.67778
 H1406 H 0.77654 0.92149 0.67160
 H1407 H 0.84699 0.91260 0.68811
 H1408 H 0.82697 0.92198 0.72117
 C1409 C 0.68501 0.59959 0.68721
 C1410 C 0.68310 0.60044 0.66427
 C1411 C 0.67339 0.61850 0.65409
 C1412 C 0.66543 0.63608 0.66661
 C1413 C 0.66718 0.63516 0.68952
 C1414 C 0.67684 0.61710 0.69972
 C1415 C 0.69587 0.58073 0.69807
 C1416 C 0.68739 0.57200 0.71760
 C1417 C 0.69807 0.55478 0.72826
 C1418 C 0.71750 0.54593 0.71964
 C1419 C 0.72582 0.55446 0.69994
 C1420 C 0.71511 0.57166 0.68926
 H1421 H 0.67206 0.61879 0.63641
 H1422 H 0.66143 0.64864 0.69951
 H1423 H 0.69118 0.54854 0.74336
 H1424 H 0.74077 0.54804 0.69288
 H1425 H 0.67837 0.61708 0.71739
 H1426 H 0.67244 0.57845 0.72463
 H1427 H 0.68900 0.58708 0.65422
 H1428 H 0.72219 0.57820 0.67437
 C1429 C 0.68464 0.09996 0.18749
 C1430 C 0.68272 0.10066 0.16455
 C1431 C 0.67295 0.11863 0.15425
 C1432 C 0.66495 0.13627 0.16666
 C1433 C 0.66671 0.13550 0.18958
 C1434 C 0.67642 0.11754 0.19989
 C1435 C 0.69557 0.08121 0.19847
 C1436 C 0.68716 0.07260 0.21809
 C1437 C 0.69790 0.05548 0.22884
 C1438 C 0.71733 0.04661 0.22023
 C1439 C 0.72558 0.05503 0.20045
 C1440 C 0.71481 0.07212 0.18968
 H1441 H 0.67161 0.11880 0.13657
 H1442 H 0.66092 0.14903 0.19948
 H1443 H 0.69106 0.04933 0.24400
 H1444 H 0.74053 0.04858 0.19339
 H1445 H 0.67796 0.11764 0.21756
 H1446 H 0.67221 0.07907 0.22510
 H1447 H 0.68864 0.08725 0.15458
 H1448 H 0.72184 0.07858 0.17473
 C1449 C 0.18483 0.60026 0.18755
 C1450 C 0.17664 0.61785 0.19995
 C1451 C 0.16693 0.63581 0.18965
 C1452 C 0.16514 0.63657 0.16672
 C1453 C 0.17312 0.61892 0.15432
 C1454 C 0.18289 0.60095 0.16461
 C1455 C 0.19574 0.58150 0.19853
 C1456 C 0.21497 0.57237 0.18974
 C1457 C 0.22571 0.55525 0.20050
 C1458 C 0.21744 0.54685 0.22028
 C1459 C 0.19804 0.55576 0.22890
 C1460 C 0.18732 0.57290 0.21815
 H1461 H 0.16115 0.64934 0.19954
 H1462 H 0.17175 0.61908 0.13664
 H1463 H 0.24064 0.54878 0.19343
 H1464 H 0.19119 0.54962 0.24406
 H1465 H 0.18879 0.58753 0.15464
 H1466 H 0.22200 0.57881 0.17478
 H1467 H 0.17820 0.61795 0.21762
 H1468 H 0.17239 0.57940 0.22518
 C1469 C 0.18474 0.09938 0.68695
 C1470 C 0.18281 0.10016 0.66402
 C1471 C 0.17304 0.11816 0.65379
 C1472 C 0.16505 0.13576 0.66626
 C1473 C 0.16683 0.13492 0.68918
 C1474 C 0.17654 0.11692 0.69942
 C1475 C 0.19566 0.08059 0.69787
 C1476 C 0.18721 0.07190 0.71744
 C1477 C 0.19793 0.05474 0.72814
 C1478 C 0.21738 0.04591 0.71954
 C1479 C 0.22567 0.05440 0.69980
 C1480 C 0.21491 0.07153 0.68908
 H1481 H 0.17168 0.11839 0.63611
 H1482 H 0.16106 0.14842 0.69912
 H1483 H 0.19107 0.04853 0.74327
 H1484 H 0.24063 0.04799 0.69275
 H1485 H 0.17810 0.11696 0.71708
 H1486 H 0.17224 0.07834 0.72445
 H1487 H 0.18872 0.08677 0.65400
 H1488 H 0.22196 0.07805 0.67416
 C1489 C 0.31368 0.60061 0.31667
 C1490 C 0.33662 0.60151 0.31864
 C1491 C 0.34675 0.61961 0.32832
 C1492 C 0.33419 0.63720 0.33619
 C1493 C 0.31127 0.63625 0.33435
 C1494 C 0.30113 0.61815 0.32472
 C1495 C 0.30286 0.58171 0.30585
 C1496 C 0.31174 0.57255 0.28668
 C1497 C 0.30109 0.55533 0.27600
 C1498 C 0.28133 0.54686 0.28426
 C1499 C 0.27265 0.55578 0.30363
 C1500 C 0.28328 0.57302 0.31428
 H1501 H 0.36443 0.61992 0.32972
 H1502 H 0.30125 0.64974 0.34003
 H1503 H 0.30820 0.54885 0.26110
 H1504 H 0.25750 0.54959 0.31047
 H1505 H 0.28346 0.61811 0.32313
 H1506 H 0.32667 0.57905 0.27964
 H1507 H 0.34671 0.58813 0.31283
 H1508 H 0.27620 0.57954 0.32918
 C1509 C 0.31288 0.09997 0.81639
 C1510 C 0.33581 0.10095 0.81845
 C1511 C 0.34584 0.11912 0.82811
 C1512 C 0.33319 0.13669 0.83587
 C1513 C 0.31028 0.13564 0.83398
 C1514 C 0.30023 0.11748 0.82437
 C1515 C 0.30219 0.08102 0.80552
 C1516 C 0.31121 0.07190 0.78640
 C1517 C 0.30069 0.05465 0.77565
 C1518 C 0.28092 0.04610 0.78379
 C1519 C 0.27208 0.05498 0.80311
 C1520 C 0.28259 0.07226 0.81383
 H1521 H 0.36352 0.11950 0.82956
 H1522 H 0.30019 0.14911 0.83958
 H1523 H 0.30792 0.04821 0.76079
 H1524 H 0.25692 0.04873 0.80985
 H1525 H 0.28257 0.11736 0.82271
 H1526 H 0.32615 0.07847 0.77945
 H1527 H 0.34597 0.08760 0.81271
 H1528 H 0.27539 0.07875 0.82869
 C1529 C 0.81295 0.59967 0.81651
 C1530 C 0.80029 0.61718 0.82446
 C1531 C 0.81034 0.63536 0.83405
 C1532 C 0.83324 0.63641 0.83595
 C1533 C 0.84590 0.61882 0.82823
 C1534 C 0.83587 0.60064 0.81858
 C1535 C 0.80226 0.58072 0.80563
 C1536 C 0.81130 0.57160 0.78652
 C1537 C 0.80077 0.55436 0.77576
 C1538 C 0.78099 0.54582 0.78388
 C1539 C 0.77214 0.55470 0.80319
 C1540 C 0.78265 0.57197 0.81393
 H1541 H 0.80025 0.64884 0.83963
 H1542 H 0.86358 0.61921 0.82968
 H1543 H 0.80800 0.54792 0.76090
 H1544 H 0.75696 0.54845 0.80992
 H1545 H 0.84603 0.58728 0.81286
 H1546 H 0.82624 0.57816 0.77958
 H1547 H 0.78264 0.61707 0.82279
 H1548 H 0.77545 0.57846 0.82878
 C1549 C 0.81344 0.10083 0.31639
 C1550 C 0.83637 0.10178 0.31837
 C1551 C 0.84646 0.11994 0.32800
 C1552 C 0.83385 0.13753 0.33579
 C1553 C 0.81094 0.13653 0.33394
 C1554 C 0.80084 0.11837 0.32437
 C1555 C 0.80267 0.08186 0.30563
 C1556 C 0.78310 0.07316 0.31408
 C1557 C 0.77251 0.05586 0.30348
 C1558 C 0.78123 0.04689 0.28415
 C1559 C 0.80097 0.05538 0.27587
 C1560 C 0.81158 0.07266 0.28650
 H1561 H 0.86414 0.12029 0.32941
 H1562 H 0.80088 0.15001 0.33957
 H1563 H 0.75737 0.04965 0.31033
 H1564 H 0.80810 0.04887 0.26099
 H1565 H 0.78317 0.11828 0.32277
 H1566 H 0.77600 0.07971 0.32896
 H1567 H 0.84649 0.08840 0.31262
 H1568 H 0.82649 0.07917 0.27945
 C1569 C 0.68623 0.40038 0.31362
 C1570 C 0.66329 0.39957 0.31554
 C1571 C 0.65308 0.38163 0.32545
 C1572 C 0.66557 0.36412 0.33359
 C1573 C 0.68850 0.36499 0.33184
 C1574 C 0.69872 0.38293 0.32198
 C1575 C 0.69711 0.41909 0.30253
 C1576 C 0.71672 0.42784 0.31084
 C1577 C 0.72737 0.44494 0.29997
 C1578 C 0.71867 0.45366 0.28051
 C1579 C 0.69890 0.44510 0.27236
 C1580 C 0.68824 0.42802 0.28326
 H1581 H 0.63539 0.38137 0.32679
 H1582 H 0.69846 0.35157 0.33774
 H1583 H 0.74252 0.45121 0.30673
 H1584 H 0.69178 0.45142 0.25740
 H1585 H 0.71639 0.38290 0.32044
 H1586 H 0.72380 0.42151 0.32582
 H1587 H 0.65324 0.41288 0.30952
 H1588 H 0.67331 0.42146 0.27630
 C1589 C 0.68645 0.90103 0.81405
 C1590 C 0.66353 0.90007 0.81606
 C1591 C 0.65347 0.88207 0.82601
 C1592 C 0.66612 0.86464 0.83410
 C1593 C 0.68903 0.86566 0.83226
 C1594 C 0.69909 0.88367 0.82236
 C1595 C 0.69717 0.91982 0.80293
 C1596 C 0.71674 0.92871 0.81119
 C1597 C 0.72725 0.94586 0.80027
 C1598 C 0.71846 0.95449 0.78082
 C1599 C 0.69874 0.94580 0.77272
 C1600 C 0.68821 0.92867 0.78366
 H1601 H 0.63580 0.88169 0.82741
 H1602 H 0.69910 0.85229 0.83811
 H1603 H 0.74238 0.95223 0.80700
 H1604 H 0.69155 0.95205 0.75776
 H1605 H 0.71676 0.88376 0.82076
 H1606 H 0.72389 0.92243 0.82616
 H1607 H 0.65338 0.91333 0.81007
 H1608 H 0.67330 0.92200 0.77675
 C1609 C 0.18499 0.40026 0.81247
 C1610 C 0.17681 0.38275 0.79995
 C1611 C 0.16700 0.36477 0.81013
 C1612 C 0.16510 0.36391 0.83304
 C1613 C 0.17308 0.38149 0.84556
 C1614 C 0.18295 0.39947 0.83539
 C1615 C 0.19599 0.41904 0.80162
 C1616 C 0.21523 0.42805 0.81048
 C1617 C 0.22605 0.44519 0.79982
 C1618 C 0.21782 0.45373 0.78008
 C1619 C 0.19838 0.44494 0.77141
 C1620 C 0.18761 0.42778 0.78205
 H1621 H 0.16124 0.35129 0.80015
 H1622 H 0.17163 0.38125 0.86323
 H1623 H 0.24100 0.45156 0.80692
 H1624 H 0.19157 0.45119 0.75627
 H1625 H 0.18885 0.41283 0.84545
 H1626 H 0.22223 0.42150 0.82540
 H1627 H 0.17845 0.38273 0.78229
 H1628 H 0.17265 0.42138 0.77498
 C1629 C 0.18662 0.89978 0.31416
 C1630 C 0.16369 0.89895 0.31617
 C1631 C 0.15354 0.88103 0.32616
 C1632 C 0.16608 0.86355 0.33430
 C1633 C 0.18900 0.86446 0.33249
 C1634 C 0.19917 0.88238 0.32255
 C1635 C 0.19744 0.91846 0.30296
 C1636 C 0.21705 0.92729 0.31118
 C1637 C 0.22764 0.94436 0.30020
 C1638 C 0.21887 0.95297 0.28073
 C1639 C 0.19911 0.94433 0.27266
 C1640 C 0.18851 0.92728 0.28366
 H1641 H 0.13586 0.88075 0.32754
 H1642 H 0.19900 0.85105 0.33839
 H1643 H 0.24279 0.95069 0.30690
 H1644 H 0.19194 0.95057 0.25769
 H1645 H 0.21683 0.88237 0.32095
 H1646 H 0.22418 0.92103 0.32617
 H1647 H 0.15361 0.91224 0.31013
 H1648 H 0.17357 0.92066 0.27678
 C1649 C 0.39939 0.31471 0.68625
 C1650 C 0.39858 0.31653 0.66330
 C1651 C 0.38058 0.32627 0.65304
 C1652 C 0.36301 0.33436 0.66549
 C1653 C 0.36388 0.33271 0.68842
 C1654 C 0.38187 0.32301 0.69869
 C1655 C 0.41818 0.30380 0.69719
 C1656 C 0.42685 0.31226 0.71677
 C1657 C 0.44401 0.30155 0.72749
 C1658 C 0.45287 0.28212 0.71889
 C1659 C 0.44441 0.27382 0.69915
 C1660 C 0.42726 0.28455 0.68842
 H1661 H 0.38033 0.32753 0.63535
 H1662 H 0.35040 0.33857 0.69834
 H1663 H 0.45020 0.30842 0.74262
 H1664 H 0.45084 0.25887 0.69211
 H1665 H 0.38185 0.32155 0.71636
 H1666 H 0.42039 0.32722 0.72377
 H1667 H 0.41195 0.31054 0.65330
 H1668 H 0.42077 0.27749 0.67351
 C1669 C 0.40074 0.81393 0.18632
 C1670 C 0.39987 0.81579 0.16339
 C1671 C 0.38183 0.82554 0.15319
 C1672 C 0.36429 0.83359 0.16571
 C1673 C 0.36522 0.83188 0.18863
 C1674 C 0.38325 0.82218 0.19883
 C1675 C 0.41958 0.80306 0.19720
 C1676 C 0.42831 0.81155 0.21673
 C1677 C 0.44551 0.80087 0.22741
 C1678 C 0.45435 0.78142 0.21882
 C1679 C 0.44582 0.77309 0.19912
 C1680 C 0.42864 0.78380 0.18842
 H1681 H 0.38153 0.82684 0.13551
 H1682 H 0.35177 0.83771 0.19861
 H1683 H 0.45175 0.80777 0.24251
 H1684 H 0.45224 0.75813 0.19208
 H1685 H 0.38328 0.82069 0.21650
 H1686 H 0.42188 0.82652 0.22373
 H1687 H 0.41321 0.80984 0.15333
 H1688 H 0.42210 0.77672 0.17354
 C1689 C 0.90053 0.31459 0.18617
 C1690 C 0.89960 0.31644 0.16323
 C1691 C 0.88155 0.32621 0.15308
 C1692 C 0.86404 0.33427 0.16564
 C1693 C 0.86503 0.33259 0.18856
 C1694 C 0.88308 0.32287 0.19872
 C1695 C 0.91936 0.30364 0.19700
 C1696 C 0.92815 0.31207 0.21653
 C1697 C 0.94534 0.30132 0.22716
 C1698 C 0.95411 0.28186 0.21851
 C1699 C 0.94552 0.27360 0.19881
 C1700 C 0.92835 0.28438 0.18817
 H1701 H 0.88120 0.32749 0.13540
 H1702 H 0.85161 0.33843 0.19857
 H1703 H 0.95163 0.30817 0.24226
 H1704 H 0.95188 0.25862 0.19174
 H1705 H 0.88315 0.32138 0.21639
 H1706 H 0.92177 0.32705 0.22357
 H1707 H 0.91291 0.31047 0.15315
 H1708 H 0.92176 0.27733 0.17329
 C1709 C 0.89998 0.81516 0.68692
 C1710 C 0.89918 0.81713 0.66399
 C1711 C 0.88119 0.82694 0.65378
 C1712 C 0.86362 0.83496 0.66628
 C1713 C 0.86450 0.83320 0.68920
 C1714 C 0.88249 0.82343 0.69941
 C1715 C 0.91871 0.80408 0.69779
 C1716 C 0.92742 0.81231 0.71744
 C1717 C 0.94452 0.80141 0.72807
 C1718 C 0.95328 0.78201 0.71929
 C1719 C 0.94477 0.77394 0.69948
 C1720 C 0.92769 0.78486 0.68884
 H1721 H 0.88093 0.82829 0.63610
 H1722 H 0.85102 0.83901 0.69915
 H1723 H 0.95076 0.80810 0.74326
 H1724 H 0.95112 0.75902 0.69229
 H1725 H 0.88245 0.82186 0.71708
 H1726 H 0.92104 0.82724 0.72458
 H1727 H 0.91254 0.81119 0.65394
 H1728 H 0.92115 0.77796 0.67387
 C1729 C 0.59948 0.31596 0.31237
 C1730 C 0.61699 0.32399 0.29976
 C1731 C 0.63506 0.33376 0.30984
 C1732 C 0.63599 0.33576 0.33274
 C1733 C 0.61841 0.32794 0.34535
 C1734 C 0.60034 0.31812 0.33528
 C1735 C 0.58064 0.30493 0.30164
 C1736 C 0.57159 0.28580 0.31070
 C1737 C 0.55442 0.27493 0.30016
 C1738 C 0.54588 0.28296 0.28035
 C1739 C 0.55470 0.30229 0.27147
 C1740 C 0.57190 0.31313 0.28199
 H1741 H 0.64854 0.33940 0.29979
 H1742 H 0.61871 0.32947 0.36301
 H1743 H 0.54802 0.26006 0.30742
 H1744 H 0.54846 0.30895 0.25627
 H1745 H 0.58698 0.31234 0.34541
 H1746 H 0.57814 0.27893 0.32568
 H1747 H 0.61697 0.32226 0.28211
 H1748 H 0.57834 0.32800 0.27477
 C1749 C 0.60029 0.81617 0.81288
 C1750 C 0.61777 0.82427 0.80027
 C1751 C 0.63581 0.83409 0.81035
 C1752 C 0.63674 0.83609 0.83325
 C1753 C 0.61919 0.82820 0.84586
 C1754 C 0.60116 0.81832 0.83579
 C1755 C 0.58146 0.80513 0.80214
 C1756 C 0.57271 0.81335 0.78251
 C1757 C 0.55553 0.80249 0.77197
 C1758 C 0.54674 0.78314 0.78081
 C1759 C 0.55530 0.77508 0.80061
 C1760 C 0.57245 0.78596 0.81117
 H1761 H 0.64926 0.83979 0.80030
 H1762 H 0.61949 0.82972 0.86353
 H1763 H 0.54927 0.80918 0.75678
 H1764 H 0.54892 0.76019 0.80784
 H1765 H 0.58781 0.81249 0.84592
 H1766 H 0.57911 0.82824 0.77531
 H1767 H 0.61775 0.82255 0.78262
 H1768 H 0.57901 0.77908 0.82614
 C1769 C 0.10012 0.31402 0.81431
 C1770 C 0.11753 0.30145 0.82264
 C1771 C 0.13556 0.31159 0.83241
 C1772 C 0.13658 0.33450 0.83411
 C1773 C 0.11911 0.34708 0.82600
 C1774 C 0.10107 0.33696 0.81617
 C1775 C 0.08129 0.30322 0.80334
 C1776 C 0.07233 0.31206 0.78406
 C1777 C 0.05516 0.30144 0.77326
 C1778 C 0.04654 0.28175 0.78152
 C1779 C 0.05527 0.27309 0.80099
 C1780 C 0.07246 0.28370 0.81176
 H1781 H 0.14896 0.30156 0.83829
 H1782 H 0.11947 0.36477 0.82729
 H1783 H 0.04882 0.30852 0.75829
 H1784 H 0.04896 0.25800 0.80783
 H1785 H 0.08779 0.34706 0.81017
 H1786 H 0.07895 0.32693 0.77702
 H1787 H 0.11745 0.28378 0.82114
 H1788 H 0.07882 0.27664 0.82674
 C1789 C 0.09999 0.81550 0.31303
 C1790 C 0.10086 0.81761 0.33595
 C1791 C 0.11895 0.82736 0.34604
 C1792 C 0.13656 0.83515 0.33344
 C1793 C 0.13563 0.83317 0.31054
 C1794 C 0.11754 0.82348 0.30044
 C1795 C 0.08109 0.80460 0.30227
 C1796 C 0.07240 0.81291 0.28265
 C1797 C 0.05516 0.80218 0.27208
 C1798 C 0.04625 0.78286 0.28089
 C1799 C 0.05474 0.77472 0.30069
 C1800 C 0.07195 0.78548 0.31127
 H1801 H 0.11925 0.82887 0.36370
 H1802 H 0.14913 0.83880 0.30050
 H1803 H 0.04895 0.80892 0.25690
 H1804 H 0.04826 0.75986 0.30790
 H1805 H 0.11751 0.82178 0.28279
 H1806 H 0.07891 0.82777 0.27547
 H1807 H 0.08747 0.81186 0.34606
 H1808 H 0.07846 0.77854 0.32623
 C1809 C 0.60052 0.68626 0.68493
 C1810 C 0.61802 0.69876 0.67671
 C1811 C 0.63610 0.68856 0.66709
 C1812 C 0.63705 0.66564 0.66541
 C1813 C 0.61948 0.65312 0.67341
 C1814 C 0.60141 0.66332 0.68310
 C1815 C 0.58165 0.69713 0.69578
 C1816 C 0.57259 0.68836 0.71504
 C1817 C 0.55540 0.69905 0.72573
 C1818 C 0.54685 0.71873 0.71738
 C1819 C 0.55569 0.72731 0.69792
 C1820 C 0.57290 0.71664 0.68726
 H1821 H 0.64956 0.69854 0.66129
 H1822 H 0.61979 0.63544 0.67213
 H1823 H 0.54899 0.69201 0.74070
 H1824 H 0.54943 0.74240 0.69102
 H1825 H 0.58805 0.65326 0.68902
 H1826 H 0.57915 0.67349 0.72214
 H1827 H 0.61798 0.71644 0.67819
 H1828 H 0.57935 0.72364 0.67229
 C1829 C 0.59979 0.18619 0.18467
 C1830 C 0.60078 0.16325 0.18290
 C1831 C 0.61891 0.15311 0.17327
 C1832 C 0.63644 0.16567 0.16527
 C1833 C 0.63539 0.18860 0.16688
 C1834 C 0.61726 0.19875 0.17644
 C1835 C 0.58087 0.19702 0.19547
 C1836 C 0.57206 0.21648 0.18690
 C1837 C 0.55480 0.22712 0.19753
 C1838 C 0.54599 0.21855 0.21700
 C1839 C 0.55460 0.19892 0.22540
 C1840 C 0.57183 0.18826 0.21474
 H1841 H 0.61930 0.13542 0.17205
 H1842 H 0.64882 0.19861 0.16108
 H1843 H 0.54850 0.24217 0.19058
 H1844 H 0.54821 0.19190 0.24038
 H1845 H 0.61714 0.21643 0.17787
 H1846 H 0.57849 0.22346 0.17191
 H1847 H 0.58745 0.15316 0.18883
 H1848 H 0.57844 0.17343 0.22188
 C1849 C 0.09998 0.68642 0.18486
 C1850 C 0.11743 0.69899 0.17664
 C1851 C 0.13555 0.68886 0.16703
 C1852 C 0.13660 0.66594 0.16538
 C1853 C 0.11908 0.65336 0.17339
 C1854 C 0.10096 0.66349 0.18306
 C1855 C 0.08107 0.69723 0.19569
 C1856 C 0.07204 0.68844 0.21496
 C1857 C 0.05481 0.69909 0.22565
 C1858 C 0.04621 0.71874 0.21729
 C1859 C 0.05501 0.72733 0.19782
 C1860 C 0.07226 0.71671 0.18716
 H1861 H 0.14898 0.69889 0.16123
 H1862 H 0.11948 0.63567 0.17214
 H1863 H 0.04843 0.69205 0.24063
 H1864 H 0.04871 0.74240 0.19090
 H1865 H 0.08765 0.65338 0.18899
 H1866 H 0.07864 0.67360 0.22208
 H1867 H 0.11732 0.71667 0.17810
 H1868 H 0.07867 0.72371 0.17219
 C1869 C 0.10006 0.18575 0.68465
 C1870 C 0.11753 0.19830 0.67641
 C1871 C 0.13560 0.18813 0.66673
 C1872 C 0.13658 0.16522 0.66502
 C1873 C 0.11905 0.15266 0.67304
 C1874 C 0.10098 0.16282 0.68277
 C1875 C 0.08121 0.19659 0.69556
 C1876 C 0.07217 0.18775 0.71480
 C1877 C 0.05500 0.19841 0.72556
 C1878 C 0.04645 0.21812 0.71729
 C1879 C 0.05526 0.22677 0.69785
 C1880 C 0.07245 0.21613 0.68712
 H1881 H 0.14904 0.19814 0.66092
 H1882 H 0.11939 0.13498 0.67174
 H1883 H 0.04860 0.19133 0.74051
 H1884 H 0.04900 0.24189 0.69100
 H1885 H 0.08765 0.15274 0.68871
 H1886 H 0.07874 0.17286 0.72185
 H1887 H 0.11748 0.21597 0.67792
 H1888 H 0.07887 0.22318 0.67217
 C1889 C 0.40043 0.68510 0.31481
 C1890 C 0.39938 0.68326 0.33774
 C1891 C 0.38124 0.67358 0.34781
 C1892 C 0.36376 0.66558 0.33517
 C1893 C 0.36486 0.66728 0.31226
 C1894 C 0.38300 0.67691 0.30218
 C1895 C 0.41938 0.69593 0.30407
 C1896 C 0.42822 0.68741 0.28459
 C1897 C 0.44549 0.69807 0.27401
 C1898 C 0.45430 0.71751 0.28265
 C1899 C 0.44568 0.72585 0.30230
 C1900 C 0.42842 0.71516 0.31290
 H1901 H 0.38080 0.67229 0.36549
 H1902 H 0.35146 0.66150 0.30218
 H1903 H 0.45181 0.69116 0.25894
 H1904 H 0.45207 0.74081 0.30937
 H1905 H 0.38316 0.67840 0.28451
 H1906 H 0.42180 0.67245 0.27755
 H1907 H 0.41267 0.68918 0.34789
 H1908 H 0.42180 0.72226 0.32774
 C1909 C 0.39927 0.18482 0.81443
 C1910 C 0.38187 0.17656 0.80179
 C1911 C 0.36377 0.16685 0.81186
 C1912 C 0.36267 0.16514 0.83477
 C1913 C 0.38014 0.17316 0.84741
 C1914 C 0.39824 0.18292 0.83736
 C1915 C 0.41813 0.19582 0.80371
 C1916 C 0.42705 0.21508 0.81264
 C1917 C 0.44424 0.22593 0.80209
 C1918 C 0.45291 0.21775 0.78240
 C1919 C 0.44422 0.19830 0.77365
 C1920 C 0.42701 0.18748 0.78418
 H1921 H 0.35038 0.16104 0.80179
 H1922 H 0.37971 0.17186 0.86509
 H1923 H 0.45053 0.24089 0.80925
 H1924 H 0.45057 0.19152 0.75854
 H1925 H 0.41151 0.18887 0.84751
 H1926 H 0.42039 0.22206 0.82752
 H1927 H 0.38202 0.17809 0.78412
 H1928 H 0.42068 0.17252 0.77706
 C1929 C 0.89937 0.68440 0.81441
 C1930 C 0.88193 0.67620 0.80179
 C1931 C 0.86381 0.66655 0.81188
 C1932 C 0.86273 0.66485 0.83480
 C1933 C 0.88023 0.67282 0.84742
 C1934 C 0.89836 0.68251 0.83734
 C1935 C 0.91826 0.69534 0.80366
 C1936 C 0.92729 0.71453 0.81262
 C1937 C 0.94450 0.72532 0.80208
 C1938 C 0.95310 0.71716 0.78234
 C1939 C 0.94429 0.69779 0.77355
 C1940 C 0.92706 0.68701 0.78409
 H1941 H 0.85039 0.66077 0.80183
 H1942 H 0.87981 0.67152 0.86510
 H1943 H 0.95088 0.74023 0.80926
 H1944 H 0.95059 0.69102 0.75841
 H1945 H 0.91166 0.68842 0.84748
 H1946 H 0.92069 0.72151 0.82753
 H1947 H 0.88206 0.67772 0.78413
 H1948 H 0.92065 0.67210 0.77695
 C1949 C 0.90006 0.18543 0.31434
 C1950 C 0.89900 0.18363 0.33727
 C1951 C 0.88085 0.17397 0.34735
 C1952 C 0.86338 0.16595 0.33471
 C1953 C 0.86449 0.16760 0.31180
 C1954 C 0.88264 0.17721 0.30171
 C1955 C 0.91902 0.19623 0.30358
 C1956 C 0.92786 0.18770 0.28411
 C1957 C 0.94514 0.19834 0.27353
 C1958 C 0.95398 0.21777 0.28216
 C1959 C 0.94536 0.22612 0.30182
 C1960 C 0.92809 0.21546 0.31241
 H1961 H 0.88040 0.17271 0.36503
 H1962 H 0.85110 0.16180 0.30173
 H1963 H 0.95145 0.19143 0.25846
 H1964 H 0.95177 0.24107 0.30888
 H1965 H 0.88281 0.17867 0.28404
 H1966 H 0.92142 0.17275 0.27707
 H1967 H 0.91229 0.18955 0.34742
 H1968 H 0.92148 0.22257 0.32725
 C1969 C 0.31505 0.31237 0.59955
 C1970 C 0.31703 0.33531 0.60026
 C1971 C 0.32675 0.34557 0.61827
 C1972 C 0.33464 0.33314 0.63594
 C1973 C 0.33280 0.31022 0.63517
 C1974 C 0.32314 0.29995 0.61716
 C1975 C 0.30420 0.30142 0.58074
 C1976 C 0.31265 0.28181 0.57216
 C1977 C 0.30199 0.27107 0.55498
 C1978 C 0.28262 0.27970 0.54601
 C1979 C 0.27433 0.29948 0.55439
 C1980 C 0.28502 0.31023 0.57155
 H1981 H 0.32816 0.36325 0.61844
 H1982 H 0.33850 0.30031 0.64872
 H1983 H 0.30885 0.25591 0.54885
 H1984 H 0.25942 0.30655 0.54788
 H1985 H 0.32154 0.28228 0.61725
 H1986 H 0.32756 0.27478 0.57870
 H1987 H 0.31120 0.34529 0.58682
 H1988 H 0.27797 0.32518 0.57797
 C1989 C 0.31619 0.81201 0.09969
 C1990 C 0.32428 0.79946 0.11722
 C1991 C 0.33401 0.80961 0.13527
 C1992 C 0.33591 0.83252 0.13616
 C1993 C 0.32805 0.84507 0.11856
 C1994 C 0.31827 0.83493 0.10052
 C1995 C 0.30517 0.80121 0.08089
 C1996 C 0.28601 0.81021 0.07185
 C1997 C 0.27514 0.79962 0.05471
 C1998 C 0.28320 0.77980 0.04621
 C1999 C 0.30255 0.77097 0.05503
 C2000 C 0.31340 0.78155 0.07219
 H2001 H 0.33970 0.79961 0.14876
 H2002 H 0.32950 0.86274 0.11884
 H2003 H 0.26025 0.80684 0.04832
 H2004 H 0.30924 0.75577 0.04880
 H2005 H 0.31245 0.84501 0.08714
 H2006 H 0.27911 0.82519 0.07837
 H2007 H 0.32262 0.78181 0.11723
 H2008 H 0.32829 0.77437 0.07863
 C2009 C 0.81582 0.31241 0.09984
 C2010 C 0.81783 0.33534 0.10059
 C2011 C 0.82763 0.34556 0.11858
 C2012 C 0.83556 0.33308 0.13620
 C2013 C 0.83370 0.31017 0.13539
 C2014 C 0.82396 0.29994 0.11740
 C2015 C 0.80486 0.30151 0.08106
 C2016 C 0.81321 0.28188 0.07242
 C2017 C 0.80245 0.27120 0.05527
 C2018 C 0.78306 0.27990 0.04639
 C2019 C 0.77487 0.29969 0.05484
 C2020 C 0.78567 0.31039 0.07196
 H2021 H 0.82905 0.36323 0.11879
 H2022 H 0.83943 0.30022 0.14890
 H2023 H 0.80923 0.25602 0.04909
 H2024 H 0.75996 0.30682 0.04840
 H2025 H 0.82234 0.28228 0.11747
 H2026 H 0.82813 0.27479 0.07889
 H2027 H 0.81197 0.34536 0.08718
 H2028 H 0.77869 0.32535 0.07844
 C2029 C 0.81565 0.81301 0.60034
 C2030 C 0.81759 0.83594 0.60110
 C2031 C 0.82730 0.84620 0.61912
 C2032 C 0.83522 0.83375 0.63677
 C2033 C 0.83341 0.81083 0.63596
 C2034 C 0.82376 0.80057 0.61794
 C2035 C 0.80482 0.80207 0.58151
 C2036 C 0.81329 0.78247 0.57291
 C2037 C 0.80265 0.77175 0.55571
 C2038 C 0.78326 0.78036 0.54675
 C2039 C 0.77495 0.80012 0.55516
 C2040 C 0.78562 0.81086 0.57233
 H2041 H 0.82868 0.86388 0.61932
 H2042 H 0.83914 0.80090 0.64949
 H2043 H 0.80953 0.75660 0.54957
 H2044 H 0.76004 0.80717 0.54865
 H2045 H 0.82219 0.78290 0.61800
 H2046 H 0.82821 0.77545 0.57944
 H2047 H 0.81174 0.84595 0.58767
 H2048 H 0.77855 0.82580 0.57877
 C2049 C 0.31526 0.68737 0.40084
 C2050 C 0.32346 0.69988 0.38333
 C2051 C 0.33329 0.68969 0.36536
 C2052 C 0.33519 0.66678 0.36452
 C2053 C 0.32723 0.65426 0.38211
 C2054 C 0.31736 0.66444 0.40008
 C2055 C 0.30414 0.69820 0.41956
 C2056 C 0.28495 0.68919 0.42855
 C2057 C 0.27400 0.69980 0.44562
 C2058 C 0.28200 0.71965 0.45411
 C2059 C 0.30136 0.72850 0.44533
 C2060 C 0.31230 0.71790 0.42824
 H2061 H 0.33905 0.69966 0.35188
 H2062 H 0.32868 0.63659 0.38187
 H2063 H 0.25911 0.69256 0.45199
 H2064 H 0.30800 0.74372 0.45155
 H2065 H 0.31146 0.65439 0.41344
 H2066 H 0.27811 0.67418 0.42204
 H2067 H 0.32179 0.71753 0.38327
 H2068 H 0.32720 0.72509 0.42185
 C2069 C 0.31430 0.18728 0.90033
 C2070 C 0.31621 0.16434 0.89962
 C2071 C 0.32600 0.15404 0.88167
 C2072 C 0.33403 0.16645 0.86404
 C2073 C 0.33225 0.18937 0.86480
 C2074 C 0.32252 0.19968 0.88275
 C2075 C 0.30343 0.19827 0.91910
 C2076 C 0.31191 0.21786 0.92771
 C2077 C 0.30124 0.22862 0.94486
 C2078 C 0.28181 0.22006 0.95377
 C2079 C 0.27348 0.20031 0.94536
 C2080 C 0.28418 0.18952 0.92823
 H2081 H 0.32736 0.13636 0.88150
 H2082 H 0.33806 0.19927 0.85129
 H2083 H 0.30814 0.24376 0.95101
 H2084 H 0.25853 0.19329 0.95184
 H2085 H 0.32098 0.21735 0.88266
 H2086 H 0.32687 0.22483 0.92121
 H2087 H 0.31028 0.15437 0.91304
 H2088 H 0.27711 0.17460 0.92179
 C2089 C 0.81427 0.68710 0.90028
 C2090 C 0.82251 0.69947 0.88270
 C2091 C 0.83229 0.68914 0.86479
 C2092 C 0.83409 0.66622 0.86407
 C2093 C 0.82603 0.65383 0.88170
 C2094 C 0.81620 0.66416 0.89962
 C2095 C 0.80333 0.69811 0.91901
 C2096 C 0.78410 0.68933 0.92814
 C2097 C 0.77335 0.70012 0.94523
 C2098 C 0.78161 0.71992 0.95361
 C2099 C 0.80102 0.72852 0.94469
 C2100 C 0.81174 0.71774 0.92757
 H2101 H 0.83812 0.69902 0.85126
 H2102 H 0.82740 0.63615 0.88157
 H2103 H 0.75842 0.69307 0.95171
 H2104 H 0.80787 0.74369 0.95081
 H2105 H 0.81026 0.65420 0.91304
 H2106 H 0.77707 0.67437 0.92172
 H2107 H 0.82096 0.71714 0.88256
 H2108 H 0.82669 0.72475 0.92108
 C2109 C 0.81477 0.18788 0.40026
 C2110 C 0.81689 0.16496 0.39956
 C2111 C 0.82680 0.15473 0.38164
 C2112 C 0.83477 0.16720 0.36403
 C2113 C 0.83286 0.19012 0.36480
 C2114 C 0.82299 0.20035 0.38273
 C2115 C 0.80360 0.19876 0.41893
 C2116 C 0.81173 0.21848 0.42758
 C2117 C 0.80078 0.22910 0.44464
 C2118 C 0.78142 0.22025 0.45342
 C2119 C 0.77344 0.20038 0.44496
 C2120 C 0.78442 0.18975 0.42792
 H2121 H 0.82826 0.13706 0.38146
 H2122 H 0.83863 0.20005 0.35130
 H2123 H 0.80740 0.24435 0.45084
 H2124 H 0.75855 0.19314 0.45133
 H2125 H 0.82131 0.21800 0.38262
 H2126 H 0.82664 0.22567 0.42119
 H2127 H 0.81098 0.15493 0.41295
 H2128 H 0.77760 0.17472 0.42143
 C2129 C 0.68381 0.31484 0.39916
 C2130 C 0.67576 0.30209 0.38175
 C2131 C 0.66615 0.31204 0.36354
 C2132 C 0.66433 0.33494 0.36234
 C2133 C 0.67216 0.34769 0.37981
 C2134 C 0.68182 0.33775 0.39803
 C2135 C 0.69469 0.30423 0.41816
 C2136 C 0.71380 0.31330 0.42724
 C2137 C 0.72456 0.30285 0.44454
 C2138 C 0.71643 0.28311 0.45317
 C2139 C 0.69712 0.27424 0.44432
 C2140 C 0.68637 0.28467 0.42701
 H2141 H 0.66048 0.30189 0.35015
 H2142 H 0.67077 0.36537 0.37930
 H2143 H 0.73943 0.31011 0.45095
 H2144 H 0.69038 0.25909 0.45064
 H2145 H 0.68760 0.34799 0.41130
 H2146 H 0.72076 0.32821 0.42062
 H2147 H 0.67737 0.28443 0.38197
 H2148 H 0.67151 0.27745 0.42056
 C2149 C 0.68477 0.81530 0.89955
 C2150 C 0.67666 0.80255 0.88218
 C2151 C 0.66697 0.81249 0.86400
 C2152 C 0.66514 0.83539 0.86279
 C2153 C 0.67305 0.84815 0.88022
 C2154 C 0.68280 0.83822 0.89841
 C2155 C 0.69566 0.80470 0.91854
 C2156 C 0.71486 0.81368 0.92754
 C2157 C 0.72562 0.80321 0.94482
 C2158 C 0.71741 0.78353 0.95352
 C2159 C 0.69800 0.77475 0.94476
 C2160 C 0.68727 0.78521 0.92746
 H2161 H 0.66126 0.80233 0.85064
 H2162 H 0.67166 0.86582 0.87971
 H2163 H 0.74055 0.81039 0.95117
 H2164 H 0.69120 0.75966 0.95113
 H2165 H 0.68865 0.84846 0.91165
 H2166 H 0.72187 0.82854 0.92086
 H2167 H 0.67826 0.78489 0.88241
 H2168 H 0.67235 0.77805 0.92107
 C2169 C 0.18616 0.31632 0.89954
 C2170 C 0.19884 0.32428 0.88204
 C2171 C 0.18883 0.33382 0.86382
 C2172 C 0.16592 0.33566 0.86271
 C2173 C 0.15323 0.32788 0.88024
 C2174 C 0.16323 0.31829 0.89847
 C2175 C 0.19685 0.30560 0.91857
 C2176 C 0.21638 0.31407 0.92733
 C2177 C 0.22692 0.30348 0.94467
 C2178 C 0.21817 0.28416 0.95363
 C2179 C 0.19845 0.27588 0.94510
 C2180 C 0.18790 0.28649 0.92778
 H2181 H 0.19894 0.33943 0.85038
 H2182 H 0.13555 0.32928 0.87980
 H2183 H 0.24204 0.31033 0.95091
 H2184 H 0.19130 0.26100 0.95160
 H2185 H 0.15305 0.31255 0.91181
 H2186 H 0.22351 0.32893 0.92079
 H2187 H 0.21651 0.32268 0.88221
 H2188 H 0.17301 0.27943 0.92122
 C2189 C 0.18442 0.81424 0.39984
 C2190 C 0.18245 0.83716 0.39870
 C2191 C 0.17278 0.84710 0.38049
 C2192 C 0.16490 0.83435 0.36304
 C2193 C 0.16670 0.81145 0.36424
 C2194 C 0.17634 0.80150 0.38245
 C2195 C 0.19531 0.80363 0.41884
 C2196 C 0.18698 0.78408 0.42770
 C2197 C 0.19772 0.77365 0.44501
 C2198 C 0.21705 0.78251 0.45384
 C2199 C 0.22519 0.80224 0.44520
 C2200 C 0.21444 0.81269 0.42791
 H2201 H 0.17140 0.86477 0.37997
 H2202 H 0.16101 0.80130 0.35087
 H2203 H 0.19098 0.75851 0.45134
 H2204 H 0.24007 0.80949 0.45160
 H2205 H 0.17793 0.78384 0.38268
 H2206 H 0.17211 0.77687 0.42127
 H2207 H 0.18827 0.84739 0.41196
 H2208 H 0.22140 0.82758 0.42127
 C2209 C 0.68714 0.68385 0.60042
 C2210 C 0.66421 0.68191 0.60130
 C2211 C 0.65404 0.67227 0.61941
 C2212 C 0.66658 0.66441 0.63702
 C2213 C 0.68950 0.66620 0.63608
 C2214 C 0.69968 0.67579 0.61798
 C2215 C 0.69798 0.69467 0.58153
 C2216 C 0.71757 0.68625 0.57286
 C2217 C 0.72822 0.69691 0.55563
 C2218 C 0.71953 0.71627 0.54670
 C2219 C 0.69977 0.72453 0.55516
 C2220 C 0.68910 0.71383 0.57236
 H2221 H 0.63636 0.67090 0.61972
 H2222 H 0.69950 0.66052 0.64958
 H2223 H 0.74338 0.69008 0.54945
 H2224 H 0.69265 0.73942 0.54867
 H2225 H 0.71734 0.67736 0.61795
 H2226 H 0.72466 0.67135 0.57938
 H2227 H 0.65413 0.68772 0.58791
 H2228 H 0.67417 0.72087 0.57885
 C2229 C 0.68658 0.18384 0.10030
 C2230 C 0.66365 0.18188 0.10118
 C2231 C 0.65349 0.17226 0.11930
 C2232 C 0.66603 0.16446 0.13693
 C2233 C 0.68895 0.16627 0.13600
 C2234 C 0.69912 0.17583 0.11787
 C2235 C 0.69742 0.19462 0.08138
 C2236 C 0.71700 0.18616 0.07272
 C2237 C 0.72764 0.19678 0.05546
 C2238 C 0.71897 0.21614 0.04651
 C2239 C 0.69923 0.22444 0.05497
 C2240 C 0.68856 0.21378 0.07220
 H2241 H 0.63581 0.17088 0.11960
 H2242 H 0.69895 0.16063 0.14951
 H2243 H 0.74279 0.18992 0.04928
 H2244 H 0.69213 0.23933 0.04846
 H2245 H 0.71679 0.17741 0.11784
 H2246 H 0.72407 0.17127 0.07926
 H2247 H 0.65358 0.18766 0.08777
 H2248 H 0.67364 0.22084 0.07869
 C2249 C 0.18656 0.68414 0.10028
 C2250 C 0.19915 0.67609 0.11780
 C2251 C 0.18904 0.66653 0.13595
 C2252 C 0.16612 0.66475 0.13697
 C2253 C 0.15352 0.67259 0.11940
 C2254 C 0.16363 0.68222 0.10125
 C2255 C 0.19734 0.69491 0.08133
 C2256 C 0.21685 0.68640 0.07257
 C2257 C 0.22746 0.69701 0.05528
 C2258 C 0.21881 0.71641 0.04639
 C2259 C 0.19913 0.72475 0.05494
 C2260 C 0.18850 0.71411 0.07220
 H2261 H 0.19909 0.66086 0.14942
 H2262 H 0.13584 0.67123 0.11976
 H2263 H 0.24255 0.69010 0.04903
 H2264 H 0.19205 0.73968 0.04848
 H2265 H 0.15351 0.68802 0.08789
 H2266 H 0.22390 0.67147 0.07906
 H2267 H 0.21682 0.67765 0.11770
 H2268 H 0.17363 0.72121 0.07876
 C2269 C 0.18656 0.18339 0.59991
 C2270 C 0.19914 0.17537 0.61746
 C2271 C 0.18900 0.16581 0.63560
 C2272 C 0.16609 0.16402 0.63659
 C2273 C 0.15350 0.17184 0.61900
 C2274 C 0.16363 0.18144 0.60085
 C2275 C 0.19736 0.19416 0.58096
 C2276 C 0.21694 0.18571 0.57228
 C2277 C 0.22756 0.19633 0.55501
 C2278 C 0.21886 0.21567 0.54605
 C2279 C 0.19911 0.22394 0.55452
 C2280 C 0.18847 0.21329 0.57177
 H2281 H 0.19903 0.16016 0.64909
 H2282 H 0.13582 0.17046 0.61934
 H2283 H 0.24271 0.18948 0.54882
 H2284 H 0.19199 0.23883 0.54801
 H2285 H 0.15352 0.18722 0.58746
 H2286 H 0.22403 0.17082 0.57883
 H2287 H 0.21680 0.17694 0.61739
 H2288 H 0.17355 0.22035 0.57827
   
