data_POSCAR
  _audit_creation_date              2014-09-24
  _audit_creation_method            'ToBaCCo'
  _symmetry_space_group_name_H-M    'P1'
  _symmetry_Int_Tables_number       1
  _symmetry_cell_setting            triclinic
  loop_
  _symmetry_equiv_pos_as_xyz
 x,y,z
_cell_length_a 80.2037
_cell_length_b 80.3749
_cell_length_c 80.0590
_cell_angle_alpha 90.009400
_cell_angle_beta 90.130900
_cell_angle_gamma 89.892600
loop_
  _atom_site_label
  _atom_site_type_symbol
  _atom_site_fract_x
  _atom_site_fract_y
  _atom_site_fract_z
N1 N 0.18053 0.22599 0.22536
 N2 N 0.18367 0.21247 0.23402
 C3 C 0.17217 0.21096 0.24616
 C4 C 0.16117 0.22426 0.24504
 C5 C 0.16695 0.23354 0.23166
 H6 H 0.17169 0.20079 0.25496
 H7 H 0.16166 0.24491 0.22675
 Cu8 Cu 0.20226 0.19797 0.22825
 Cu9 Cu 0.19391 0.23260 0.20622
 Cu10 Cu 0.22737 0.20722 0.19600
 N11 N 0.22127 0.18399 0.22258
 N12 N 0.23103 0.18770 0.20997
 C13 C 0.24297 0.17600 0.20861
 C14 C 0.24061 0.16423 0.22105
 C15 C 0.22669 0.16978 0.22968
 H16 H 0.25250 0.17600 0.19910
 H17 H 0.22089 0.16391 0.24032
 N18 N 0.22161 0.22751 0.18340
 N19 N 0.20889 0.23717 0.18730
 C20 C 0.20799 0.24974 0.17622
 C21 C 0.22077 0.24796 0.16473
 C22 C 0.22915 0.23370 0.16973
 H23 H 0.19852 0.25930 0.17634
 H24 H 0.23989 0.22816 0.16382
 H25 H 0.20195 0.20899 0.19986
 H26 H 0.21566 0.22124 0.21416
 N27 N 0.68143 0.72480 0.72208
 N28 N 0.68591 0.71228 0.73165
 C29 C 0.67508 0.71105 0.74444
 C30 C 0.66316 0.72350 0.74281
 C31 C 0.66768 0.73197 0.72844
 H32 H 0.67575 0.70168 0.75408
 H33 H 0.66139 0.74247 0.72283
 Cu34 Cu 0.70508 0.69849 0.72597
 Cu35 Cu 0.69353 0.73085 0.70195
 Cu36 Cu 0.72784 0.70670 0.69169
 N37 N 0.72431 0.68492 0.71996
 N38 N 0.73284 0.68798 0.70630
 C39 C 0.74463 0.67621 0.70440
 C40 C 0.74355 0.66522 0.71764
 C41 C 0.73055 0.67117 0.72732
 H42 H 0.75331 0.67564 0.69410
 H43 H 0.72565 0.66552 0.73854
 N44 N 0.72075 0.72616 0.67849
 N45 N 0.70739 0.73505 0.68214
 C46 C 0.70547 0.74702 0.67052
 C47 C 0.71831 0.74571 0.65911
 C48 C 0.72779 0.73238 0.66457
 H49 H 0.69560 0.75620 0.67047
 H50 H 0.73881 0.72740 0.65862
 H51 H 0.70264 0.70729 0.69691
 H52 H 0.71630 0.72135 0.70949
 N53 N 0.31981 0.78008 0.72315
 N54 N 0.31836 0.79528 0.72903
 C55 C 0.33020 0.79784 0.74068
 C56 C 0.33956 0.78344 0.74227
 C57 C 0.33257 0.77240 0.73097
 H58 H 0.33181 0.80931 0.74756
 H59 H 0.33675 0.75988 0.72829
 Cu60 Cu 0.30126 0.81043 0.72103
 Cu61 Cu 0.30573 0.77188 0.70508
 Cu62 Cu 0.27200 0.79653 0.69428
 N63 N 0.28050 0.82238 0.71748
 N64 N 0.26909 0.81695 0.70706
 C65 C 0.25619 0.82767 0.70691
 C66 C 0.25963 0.84063 0.71791
 C67 C 0.27525 0.83672 0.72439
 H68 H 0.24518 0.82606 0.69928
 H69 H 0.28241 0.84370 0.73342
 N70 N 0.27721 0.77544 0.68289
 N71 N 0.29003 0.76599 0.68703
 C72 C 0.29073 0.75293 0.67652
 C73 C 0.27772 0.75419 0.66514
 C74 C 0.26941 0.76864 0.66966
 H75 H 0.30034 0.74350 0.67681
 H76 H 0.25866 0.77404 0.66357
 H77 H 0.29777 0.79443 0.69542
 H78 H 0.28567 0.78574 0.71341
 N79 N 0.82084 0.28125 0.21803
 N80 N 0.81895 0.29620 0.22436
 C81 C 0.83007 0.29841 0.23675
 C82 C 0.83953 0.28399 0.23840
 C83 C 0.83318 0.27334 0.22625
 H84 H 0.83099 0.30969 0.24403
 H85 H 0.83750 0.26098 0.22316
 Cu86 Cu 0.80215 0.31147 0.21594
 Cu87 Cu 0.80813 0.27399 0.19860
 Cu88 Cu 0.77208 0.29647 0.19070
 N89 N 0.78117 0.32310 0.21279
 N90 N 0.76933 0.31710 0.20318
 C91 C 0.75620 0.32753 0.20347
 C92 C 0.75996 0.34081 0.21389
 C93 C 0.77598 0.33751 0.21958
 H94 H 0.74475 0.32552 0.19662
 H95 H 0.78338 0.34499 0.22799
 N96 N 0.77744 0.27537 0.17929
 N97 N 0.79121 0.26685 0.18223
 C98 C 0.79177 0.25369 0.17183
 C99 C 0.77771 0.25397 0.16172
 C100 C 0.76891 0.26790 0.16689
 H101 H 0.80199 0.24494 0.17126
 H102 H 0.75734 0.27253 0.16174
 H103 H 0.79763 0.29612 0.18986
 H104 H 0.78783 0.28597 0.20836
 N105 N 0.81666 0.72493 0.27357
 N106 N 0.81312 0.71171 0.26460
 C107 C 0.82475 0.70992 0.25262
 C108 C 0.83624 0.72270 0.25417
 C109 C 0.83063 0.73199 0.26763
 H110 H 0.82498 0.69989 0.24363
 H111 H 0.83628 0.74305 0.27281
 Cu112 Cu 0.79385 0.69797 0.26979
 Cu113 Cu 0.80317 0.73184 0.29255
 Cu114 Cu 0.76854 0.70778 0.30170
 N115 N 0.77425 0.68468 0.27490
 N116 N 0.76442 0.68862 0.28739
 C117 C 0.75210 0.67735 0.28845
 C118 C 0.75427 0.66561 0.27594
 C119 C 0.76849 0.67073 0.26758
 H120 H 0.74246 0.67756 0.29785
 H121 H 0.77430 0.66472 0.25701
 N122 N 0.77481 0.72763 0.31471
 N123 N 0.78799 0.73678 0.31124
 C124 C 0.78912 0.74915 0.32252
 C125 C 0.77603 0.74776 0.33371
 C126 C 0.76722 0.73395 0.32830
 H127 H 0.79894 0.75833 0.32273
 H128 H 0.75614 0.72877 0.33388
 H129 H 0.79407 0.70852 0.29835
 H130 H 0.78115 0.72159 0.28403
 N131 N 0.31742 0.22596 -0.22240
 N132 N 0.31377 0.21290 -0.23154
 C133 C 0.32523 0.21131 -0.24371
 C134 C 0.33681 0.22408 -0.24214
 C135 C 0.33131 0.23314 -0.22841
 H136 H 0.32517 0.20145 -0.25287
 H137 H 0.33698 0.24407 -0.22300
 Cu138 Cu 0.29463 0.19904 -0.22631
 Cu139 Cu 0.30411 0.23253 -0.20315
 Cu140 Cu 0.26972 0.20808 -0.19389
 N141 N 0.27528 0.18544 -0.22113
 N142 N 0.26559 0.18907 -0.20843
 C143 C 0.25341 0.17763 -0.20737
 C144 C 0.25555 0.16612 -0.22010
 C145 C 0.26959 0.17154 -0.22858
 H146 H 0.24390 0.17758 -0.19784
 H147 H 0.27530 0.16578 -0.23933
 N148 N 0.27602 0.22782 -0.18071
 N149 N 0.28910 0.23711 -0.18421
 C150 C 0.29023 0.24938 -0.17281
 C151 C 0.27726 0.24776 -0.16153
 C152 C 0.26851 0.23393 -0.16699
 H153 H 0.29997 0.25863 -0.17258
 H154 H 0.25748 0.22866 -0.16138
 H155 H 0.29520 0.20907 -0.19758
 H156 H 0.28198 0.22232 -0.21147
 N157 N 0.68087 0.27881 -0.22056
 N158 N 0.68173 0.29416 -0.22608
 C159 C 0.66973 0.29661 -0.23759
 C160 C 0.66082 0.28192 -0.23955
 C161 C 0.66839 0.27088 -0.22849
 H162 H 0.66788 0.30822 -0.24415
 H163 H 0.66485 0.25816 -0.22597
 Cu164 Cu 0.69851 0.30958 -0.21801
 Cu165 Cu 0.69524 0.27073 -0.20263
 Cu166 Cu 0.72851 0.29584 -0.19188
 N167 N 0.71917 0.32171 -0.21478
 N168 N 0.73090 0.31632 -0.20465
 C169 C 0.74374 0.32707 -0.20489
 C170 C 0.73991 0.33993 -0.21582
 C171 C 0.72416 0.33605 -0.22185
 H172 H 0.75506 0.32551 -0.19772
 H173 H 0.71678 0.34307 -0.23070
 N174 N 0.72376 0.27462 -0.18052
 N175 N 0.71112 0.26499 -0.18469
 C176 C 0.71067 0.25189 -0.17421
 C177 C 0.72364 0.25332 -0.16283
 C178 C 0.73169 0.26791 -0.16730
 H179 H 0.70121 0.24235 -0.17452
 H180 H 0.74232 0.27347 -0.16118
 H181 H 0.70277 0.29331 -0.19272
 H182 H 0.71484 0.28515 -0.21102
 N183 N 0.18415 0.77283 0.27737
 N184 N 0.18742 0.78616 0.26849
 C185 C 0.17604 0.78752 0.25617
 C186 C 0.16498 0.77434 0.25739
 C187 C 0.17058 0.76527 0.27103
 H188 H 0.17565 0.79754 0.24719
 H189 H 0.16519 0.75403 0.27606
 Cu190 Cu 0.20599 0.80064 0.27424
 Cu191 Cu 0.19744 0.76646 0.29676
 Cu192 Cu 0.23082 0.79196 0.30693
 N193 N 0.22483 0.81477 0.27992
 N194 N 0.23451 0.81129 0.29271
 C195 C 0.24637 0.82304 0.29403
 C196 C 0.24405 0.83467 0.28136
 C197 C 0.23020 0.82888 0.27266
 H198 H 0.25583 0.82310 0.30365
 H199 H 0.22433 0.83450 0.26190
 N200 N 0.22504 0.77185 0.31977
 N201 N 0.21235 0.76215 0.31589
 C202 C 0.21147 0.74970 0.32711
 C203 C 0.22420 0.75162 0.33867
 C204 C 0.23254 0.76582 0.33357
 H205 H 0.20204 0.74013 0.32702
 H206 H 0.24327 0.77141 0.33949
 H207 H 0.20543 0.79014 0.30281
 H208 H 0.21926 0.77759 0.28893
 N209 N 0.47560 0.42914 0.47534
 N210 N 0.46374 0.43389 0.48556
 C211 C 0.46221 0.42254 0.49782
 C212 C 0.47378 0.40997 0.49519
 C213 C 0.48206 0.41465 0.48075
 H214 H 0.45322 0.42332 0.50782
 H215 H 0.49209 0.40809 0.47462
 Cu216 Cu 0.45115 0.45429 0.48186
 Cu217 Cu 0.48187 0.44215 0.45588
 Cu218 Cu 0.45952 0.47825 0.44827
 N219 N 0.43793 0.47389 0.47647
 N220 N 0.44128 0.48325 0.46346
 C221 C 0.42988 0.49552 0.46244
 C222 C 0.41868 0.49376 0.47550
 C223 C 0.42426 0.47987 0.48414
 H224 H 0.42952 0.50473 0.45261
 H225 H 0.41867 0.47434 0.49507
 N226 N 0.47835 0.47100 0.43428
 N227 N 0.48649 0.45695 0.43688
 C228 C 0.49799 0.45499 0.42481
 C229 C 0.49715 0.46851 0.41416
 C230 C 0.48460 0.47844 0.42058
 H231 H 0.50647 0.44456 0.42387
 H232 H 0.48007 0.49001 0.41537
 H233 H 0.47405 0.46498 0.46493
 H234 H 0.45857 0.45288 0.45237
 N235 N -0.02377 -0.06897 0.97564
 N236 N -0.03658 -0.06511 0.98508
 C237 C -0.03811 -0.07666 0.99718
 C238 C -0.02557 -0.08841 0.99523
 C239 C -0.01671 -0.08304 0.98140
 H240 H -0.04781 -0.07663 1.00652
 H241 H -0.00594 -0.08892 0.97585
 Cu242 Cu -0.05029 -0.04561 0.98049
 Cu243 Cu -0.01738 -0.05570 0.95638
 Cu244 Cu -0.04203 -0.02153 0.94709
 N245 N -0.06435 -0.02672 0.97458
 N246 N -0.06101 -0.01735 0.96157
 C247 C -0.07275 -0.00545 0.96018
 C248 C -0.08416 -0.00742 0.97300
 C249 C -0.07838 -0.02109 0.98189
 H250 H -0.07307 0.00374 0.95034
 H251 H -0.08398 -0.02659 0.99283
 N252 N -0.02231 -0.02775 0.93389
 N253 N -0.01292 -0.04078 0.93740
 C254 C -0.00067 -0.04190 0.92597
 C255 C -0.00242 -0.02897 0.91465
 C256 C -0.01629 -0.02025 0.92013
 H257 H 0.00865 -0.05161 0.92575
 H258 H -0.02168 -0.00927 0.91450
 H259 H -0.02736 -0.03349 0.96465
 H260 H -0.04115 -0.04690 0.95149
 N261 N 1.01937 0.56300 0.97588
 N262 N 1.03085 0.55764 0.98630
 C263 C 1.03229 0.56851 0.99902
 C264 C 1.02106 0.58143 0.99647
 C265 C 1.01307 0.57742 0.98162
 H266 H 1.04111 0.56718 1.00916
 H267 H 1.00360 0.58456 0.97521
 Cu268 Cu 1.04337 0.53738 0.98200
 Cu269 Cu 1.01391 0.55130 0.95530
 Cu270 Cu 1.04041 0.51926 0.94417
 N271 N 1.05982 0.52139 0.97428
 N272 N 1.05890 0.51475 0.95931
 C273 C 1.07212 0.50469 0.95697
 C274 C 1.08182 0.50497 0.97129
 C275 C 1.07360 0.51568 0.98205
 H276 H 1.07441 0.49756 0.94576
 H277 H 1.07754 0.51936 0.99444
 N278 N 1.02087 0.52570 0.93067
 N279 N 1.01068 0.53785 0.93498
 C280 C 0.99855 0.53918 0.92341
 C281 C 1.00117 0.52726 0.91116
 C282 C 1.01547 0.51895 0.91625
 H283 H 0.98860 0.54824 0.92386
 H284 H 1.02149 0.50866 0.91000
 H285 H 1.02312 0.52797 0.96132
 H286 H 1.03829 0.54349 0.95277
 N287 N 0.52235 0.06536 0.47585
 N288 N 0.53570 0.06186 0.48473
 C289 C 0.53701 0.07290 0.49731
 C290 C 0.52376 0.08398 0.49629
 C291 C 0.51472 0.07874 0.48248
 H292 H 0.54704 0.07307 0.50633
 H293 H 0.50346 0.08426 0.47750
 Cu294 Cu 0.55031 0.04352 0.47860
 Cu295 Cu 0.51609 0.05262 0.45610
 Cu296 Cu 0.54187 0.01963 0.44523
 N297 N 0.56461 0.02492 0.47251
 N298 N 0.56122 0.01562 0.45945
 C299 C 0.57311 0.00390 0.45785
 C300 C 0.58466 0.00593 0.47059
 C301 C 0.57880 0.01943 0.47966
 H302 H 0.57343 -0.00522 0.44794
 H303 H 0.58445 0.02487 0.49063
 N304 N 0.52171 0.02570 0.43245
 N305 N 0.51192 0.03824 0.43657
 C306 C 0.49948 0.03938 0.42529
 C307 C 0.50152 0.02698 0.41344
 C308 C 0.51577 0.01855 0.41844
 H309 H 0.48982 0.04876 0.42554
 H310 H 0.52146 0.00801 0.41232
 H311 H 0.52732 0.03067 0.46343
 H312 H 0.53989 0.04485 0.44999
 N313 N -0.02332 0.06649 0.52376
 N314 N -0.03644 0.06288 0.51460
 C315 C -0.03790 0.07423 0.50230
 C316 C -0.02500 0.08561 0.50383
 C317 C -0.01600 0.08023 0.51762
 H318 H -0.04781 0.07438 0.49314
 H319 H -0.00499 0.08590 0.52291
 Cu320 Cu -0.05055 0.04399 0.52006
 Cu321 Cu -0.01697 0.05346 0.54329
 Cu322 Cu -0.04187 0.01958 0.55300
 N323 N -0.06434 0.02485 0.52547
 N324 N -0.06086 0.01536 0.53838
 C325 C -0.07242 0.00331 0.53956
 C326 C -0.08385 0.00531 0.52669
 C327 C -0.07826 0.01913 0.51799
 H328 H -0.07260 -0.00601 0.54928
 H329 H -0.08393 0.02469 0.50709
 N330 N -0.02212 0.02590 0.56624
 N331 N -0.01264 0.03877 0.56253
 C332 C -0.00043 0.04002 0.57404
 C333 C -0.00229 0.02734 0.58561
 C334 C -0.01619 0.01863 0.58020
 H335 H 0.00892 0.04966 0.57415
 H336 H -0.02167 0.00784 0.58603
 H337 H -0.02742 0.03139 0.53528
 H338 H -0.04060 0.04494 0.54884
 N339 N 0.47721 0.56450 0.02230
 N340 N 0.46435 0.56081 0.01284
 C341 C 0.46307 0.57219 0.00055
 C342 C 0.47584 0.58367 0.00240
 C343 C 0.48456 0.57831 0.01637
 H344 H 0.45337 0.57227 -0.00883
 H345 H 0.49539 0.58406 0.02195
 Cu346 Cu 0.45019 0.54178 0.01772
 Cu347 Cu 0.48321 0.55151 0.04191
 Cu348 Cu 0.45774 0.51822 0.05174
 N349 N 0.43569 0.52339 0.02391
 N350 N 0.43875 0.51423 0.03715
 C351 C 0.42675 0.50266 0.03866
 C352 C 0.41547 0.50465 0.02568
 C353 C 0.42159 0.51797 0.01656
 H354 H 0.42616 0.49369 0.04869
 H355 H 0.41617 0.52335 0.00544
 N356 N 0.47754 0.52422 0.06499
 N357 N 0.48724 0.53690 0.06125
 C358 C 0.49943 0.53801 0.07278
 C359 C 0.49733 0.52542 0.08441
 C360 C 0.48330 0.51692 0.07900
 H361 H 0.50895 0.54750 0.07286
 H362 H 0.47762 0.50625 0.08486
 H363 H 0.47274 0.52937 0.03405
 H364 H 0.45921 0.54344 0.04677
 N365 N 0.52705 -0.06996 0.02911
 N366 N 0.54223 -0.06859 0.02312
 C367 C 0.54474 -0.08057 0.01165
 C368 C 0.53033 -0.08993 0.01031
 C369 C 0.51934 -0.08279 0.02156
 H370 H 0.55618 -0.08227 0.00472
 H371 H 0.50683 -0.08692 0.02438
 Cu372 Cu 0.55741 -0.05138 0.03075
 Cu373 Cu 0.51890 -0.05565 0.04698
 Cu374 Cu 0.54351 -0.02186 0.05717
 N375 N 0.56936 -0.03064 0.03405
 N376 N 0.56390 -0.01913 0.04433
 C377 C 0.57465 -0.00629 0.04436
 C378 C 0.58759 -0.00990 0.03347
 C379 C 0.58374 -0.02550 0.02715
 H380 H 0.57309 0.00484 0.05177
 H381 H 0.59092 -0.03272 0.01832
 N382 N 0.52244 -0.02690 0.06869
 N383 N 0.51302 -0.03976 0.06479
 C384 C 0.49997 -0.04030 0.07534
 C385 C 0.50123 -0.02715 0.08649
 C386 C 0.51565 -0.01892 0.08180
 H387 H 0.49057 -0.04990 0.07521
 H388 H 0.52106 -0.00811 0.08770
 H389 H 0.53265 -0.03574 0.03827
 H390 H 0.54155 -0.04758 0.05640
 N391 N 1.02338 0.43735 0.51993
 N392 N 1.03809 0.43886 0.51290
 C393 C 1.04037 0.42627 0.50206
 C394 C 1.02622 0.41641 0.50217
 C395 C 1.01565 0.42389 0.51359
 H396 H 1.05144 0.42450 0.49458
 H397 H 1.00345 0.41962 0.51741
 Cu398 Cu 1.05264 0.45744 0.51822
 Cu399 Cu 1.01590 0.45263 0.53731
 Cu400 Cu 1.04891 0.47254 0.55701
 N401 N 1.06816 0.47384 0.52687
 N402 N 1.06690 0.47942 0.54224
 C403 C 1.07962 0.48987 0.54537
 C404 C 1.08925 0.49108 0.53108
 C405 C 1.08157 0.48073 0.51958
 H406 H 1.08155 0.49626 0.55711
 H407 H 1.08565 0.47812 0.50698
 N408 N 1.02668 0.47009 0.56719
 N409 N 1.01399 0.46300 0.55948
 C410 C 1.00052 0.46362 0.56946
 C411 C 1.00489 0.47160 0.58418
 C412 C 1.02160 0.47553 0.58224
 H413 H 0.98845 0.45860 0.56619
 H414 H 1.02955 0.48183 0.59113
 H415 H 1.03351 0.47212 0.53688
 H416 H 1.03975 0.45129 0.54508
 C417 C 0.35197 -0.01518 0.25281
 C418 C 0.36048 -0.00024 0.25006
 C419 C 0.35152 0.01450 0.24745
 C420 C 0.33400 0.01446 0.24760
 C421 C 0.32559 -0.00064 0.25028
 C422 C 0.33446 -0.01553 0.25287
 C423 C 0.37880 -0.00003 0.24987
 C424 C 0.38735 -0.00149 0.23471
 C425 C 0.40486 -0.00128 0.23439
 C426 C 0.41368 0.00047 0.24949
 C427 C 0.40522 0.00196 0.26478
 C428 C 0.38770 0.00166 0.26484
 H429 H 0.35903 -0.02656 0.25460
 H430 H 0.35825 0.02603 0.24558
 H431 H 0.38033 -0.00261 0.22319
 H432 H 0.38094 0.00258 0.27651
 H433 H 0.31209 -0.00081 0.25034
 H434 H 0.42718 0.00068 0.24933
 C435 C 0.14561 -0.01361 0.74842
 C436 C 0.13668 0.00119 0.75074
 C437 C 0.14520 0.01622 0.75293
 C438 C 0.16271 0.01659 0.75279
 C439 C 0.17156 0.00164 0.75047
 C440 C 0.16312 -0.01353 0.74828
 C441 C 0.11836 0.00096 0.75075
 C442 C 0.10969 -0.00114 0.76575
 C443 C 0.09217 -0.00137 0.76587
 C444 C 0.08348 0.00052 0.75071
 C445 C 0.09208 0.00263 0.73557
 C446 C 0.10959 0.00283 0.73573
 H447 H 0.13887 -0.02519 0.74692
 H448 H 0.13815 0.02763 0.75448
 H449 H 0.11661 -0.00238 0.77732
 H450 H 0.11645 0.00424 0.72417
 H451 H 0.18506 0.00182 0.75035
 H452 H 0.06998 0.00035 0.75069
 C453 C 0.64418 0.48543 0.24818
 C454 C 0.63516 0.50017 0.25052
 C455 C 0.64358 0.51529 0.25248
 C456 C 0.66109 0.51579 0.25209
 C457 C 0.67002 0.50089 0.24982
 C458 C 0.66168 0.48565 0.24781
 C459 C 0.61685 0.49976 0.25043
 C460 C 0.60807 0.49732 0.26532
 C461 C 0.59062 0.49614 0.26514
 C462 C 0.58202 0.49764 0.24991
 C463 C 0.59069 0.50035 0.23491
 C464 C 0.60818 0.50131 0.23531
 H465 H 0.63753 0.47379 0.24676
 H466 H 0.63646 0.52666 0.25396
 H467 H 0.61486 0.49598 0.27698
 H468 H 0.61512 0.50301 0.22384
 H469 H 0.68352 0.50116 0.24949
 H470 H 0.56852 0.49712 0.24984
 C471 C 0.85349 0.48548 0.74815
 C472 C 0.86228 0.50032 0.74573
 C473 C 0.85360 0.51522 0.74306
 C474 C 0.83611 0.51531 0.74252
 C475 C 0.82739 0.50035 0.74478
 C476 C 0.83597 0.48536 0.74776
 C477 C 0.88061 0.50023 0.74594
 C478 C 0.88947 0.49839 0.73099
 C479 C 0.90699 0.49822 0.73106
 C480 C 0.91549 0.49993 0.74634
 C481 C 0.90672 0.50179 0.76142
 C482 C 0.88921 0.50190 0.76108
 H483 H 0.86035 0.47401 0.75014
 H484 H 0.86046 0.52667 0.74123
 H485 H 0.88268 0.49727 0.71933
 H486 H 0.88222 0.50311 0.77259
 H487 H 0.81388 0.50052 0.74477
 H488 H 0.92899 0.49983 0.74650
 C489 C 0.24958 0.36144 -0.01368
 C490 C 0.24768 0.37026 0.00128
 C491 C 0.24588 0.36166 0.01638
 C492 C 0.24600 0.34418 0.01664
 C493 C 0.24787 0.33545 0.00153
 C494 C 0.24968 0.34397 -0.01369
 C495 C 0.24789 0.38854 0.00111
 C496 C 0.23303 0.39746 -0.00103
 C497 C 0.23326 0.41490 -0.00190
 C498 C 0.24853 0.42332 -0.00042
 C499 C 0.26351 0.41449 0.00195
 C500 C 0.26304 0.39703 0.00262
 H501 H 0.25083 0.36823 -0.02530
 H502 H 0.24467 0.36862 0.02791
 H503 H 0.22136 0.39081 -0.00236
 H504 H 0.27448 0.38997 0.00407
 H505 H 0.24797 0.32198 0.00163
 H506 H 0.24867 0.43680 -0.00070
 C507 C 0.74852 0.13834 -0.01518
 C508 C 0.74996 0.12962 -0.00010
 C509 C 0.75140 0.13832 0.01498
 C510 C 0.75143 0.15579 0.01513
 C511 C 0.74994 0.16443 -0.00008
 C512 C 0.74847 0.15582 -0.01530
 C513 C 0.75002 0.11133 -0.00009
 C514 C 0.76498 0.10264 -0.00243
 C515 C 0.76522 0.08516 -0.00224
 C516 C 0.75019 0.07652 0.00020
 C517 C 0.73509 0.08512 0.00254
 C518 C 0.73515 0.10259 0.00243
 H519 H 0.74761 0.13147 -0.02679
 H520 H 0.75235 0.13144 0.02659
 H521 H 0.77645 0.10954 -0.00409
 H522 H 0.72362 0.10945 0.00408
 H523 H 0.74993 0.17791 -0.00006
 H524 H 0.75025 0.06304 0.00032
 C525 C 0.25041 0.63869 0.48764
 C526 C 0.25205 0.63010 0.50277
 C527 C 0.25346 0.63893 0.51778
 C528 C 0.25325 0.65640 0.51782
 C529 C 0.25157 0.66491 0.50256
 C530 C 0.25014 0.65617 0.48740
 C531 C 0.25240 0.61182 0.50297
 C532 C 0.26756 0.60335 0.50112
 C533 C 0.26814 0.58589 0.50190
 C534 C 0.25327 0.57704 0.50463
 C535 C 0.23800 0.58544 0.50638
 C536 C 0.23766 0.60287 0.50549
 H537 H 0.24955 0.63172 0.47608
 H538 H 0.25455 0.63214 0.52943
 H539 H 0.27891 0.61042 0.49939
 H540 H 0.22599 0.60952 0.50705
 H541 H 0.25138 0.67838 0.50248
 H542 H 0.25349 0.56357 0.50494
 C543 C 0.75130 0.86057 0.48288
 C544 C 0.74987 0.86905 0.49810
 C545 C 0.74733 0.86013 0.51290
 C546 C 0.74591 0.84274 0.51251
 C547 C 0.74726 0.83434 0.49720
 C548 C 0.75008 0.84314 0.48230
 C549 C 0.75023 0.88732 0.49839
 C550 C 0.73541 0.89628 0.49619
 C551 C 0.73551 0.91375 0.49617
 C552 C 0.75073 0.92213 0.49841
 C553 C 0.76571 0.91326 0.50060
 C554 C 0.76532 0.89577 0.50061
 H555 H 0.75305 0.86762 0.47148
 H556 H 0.74607 0.86676 0.52462
 H557 H 0.72379 0.88959 0.49465
 H558 H 0.77675 0.88870 0.50204
 H559 H 0.74652 0.82089 0.49699
 H560 H 0.75091 0.93560 0.49840
 C561 C -0.01777 0.25500 0.35724
 C562 C -0.00296 0.25207 0.36606
 C563 C 0.01208 0.25011 0.35740
 C564 C 0.01249 0.25125 0.33989
 C565 C -0.00242 0.25446 0.33119
 C566 C -0.01756 0.25626 0.33976
 C567 C -0.00301 0.25155 0.38441
 C568 C -0.00400 0.23628 0.39276
 C569 C -0.00329 0.23563 0.41029
 C570 C -0.00136 0.25053 0.41932
 C571 C -0.00038 0.26589 0.41103
 C572 C -0.00135 0.26631 0.39354
 H573 H -0.02938 0.25657 0.36398
 H574 H 0.02349 0.24800 0.36437
 H575 H -0.00507 0.22491 0.38555
 H576 H -0.00036 0.27807 0.38698
 H577 H -0.00236 0.25513 0.31767
 H578 H -0.00100 0.25024 0.43285
 C579 C -0.01339 0.74565 0.14324
 C580 C 0.00164 0.74748 0.13457
 C581 C 0.01661 0.74932 0.14339
 C582 C 0.01670 0.74931 0.16094
 C583 C 0.00153 0.74748 0.16952
 C584 C -0.01358 0.74565 0.16078
 C585 C 0.00166 0.74746 0.11622
 C586 C -0.00014 0.76242 0.10744
 C587 C -0.00033 0.76250 0.08990
 C588 C 0.00131 0.74734 0.08127
 C589 C 0.00310 0.73223 0.08997
 C590 C 0.00328 0.73244 0.10752
 H591 H -0.02492 0.74444 0.13627
 H592 H 0.02819 0.75052 0.13654
 H593 H -0.00123 0.77398 0.11433
 H594 H 0.00440 0.72091 0.11445
 H595 H 0.00149 0.74748 0.18304
 H596 H 0.00114 0.74729 0.06775
 C597 C 0.48546 0.24658 0.64591
 C598 C 0.50044 0.24832 0.63713
 C599 C 0.51532 0.25128 0.64580
 C600 C 0.51525 0.25279 0.66326
 C601 C 0.50016 0.25120 0.67197
 C602 C 0.48519 0.24797 0.66340
 C603 C 0.50037 0.24775 0.61878
 C604 C 0.49875 0.26253 0.60967
 C605 C 0.49826 0.26222 0.59214
 C606 C 0.49951 0.24684 0.58386
 C607 C 0.50114 0.23191 0.59288
 C608 C 0.50156 0.23249 0.61042
 H609 H 0.47399 0.24449 0.63905
 H610 H 0.52686 0.25273 0.63894
 H611 H 0.49795 0.27427 0.61629
 H612 H 0.50257 0.22110 0.61760
 H613 H 0.50018 0.25207 0.68547
 H614 H 0.49914 0.24649 0.57034
 C615 C 0.48601 0.75452 0.85772
 C616 C 0.50087 0.75137 0.86638
 C617 C 0.51580 0.74931 0.85758
 C618 C 0.51606 0.75055 0.84008
 C619 C 0.50110 0.75391 0.83153
 C620 C 0.48604 0.75585 0.84024
 C621 C 0.50093 0.75052 0.88472
 C622 C 0.49963 0.73511 0.89277
 C623 C 0.50038 0.73411 0.91028
 C624 C 0.50262 0.74878 0.91959
 C625 C 0.50390 0.76428 0.91162
 C626 C 0.50291 0.76507 0.89413
 H627 H 0.47450 0.75618 0.86461
 H628 H 0.52725 0.74703 0.86443
 H629 H 0.49829 0.72391 0.88535
 H630 H 0.50412 0.77693 0.88781
 H631 H 0.50106 0.75458 0.81801
 H632 H 0.50298 0.74822 0.93311
 C633 C 0.11742 0.23354 0.27500
 C634 C 0.12071 0.24320 0.26076
 C635 C 0.13492 0.24025 0.25113
 C636 C 0.14622 0.22757 0.25549
 C637 C 0.14299 0.21799 0.26981
 C638 C 0.12876 0.22094 0.27945
 C639 C 0.10217 0.23650 0.28503
 N640 N 0.09870 0.22698 0.29860
 N641 N 0.08488 0.22952 0.30744
 C642 C 0.07392 0.24169 0.30309
 N643 N 0.07741 0.25123 0.28956
 N644 N 0.09123 0.24870 0.28072
 C645 C 0.05838 0.24435 0.31275
 C646 C 0.04705 0.25692 0.30812
 C647 C 0.03224 0.25923 0.31699
 C648 C 0.02840 0.24903 0.33070
 C649 C 0.03977 0.23656 0.33543
 C650 C 0.05459 0.23424 0.32656
 H651 H 0.11225 0.25301 0.25695
 H652 H 0.13686 0.24786 0.24018
 H653 H 0.15141 0.20820 0.27368
 H654 H 0.12665 0.21328 0.29036
 H655 H 0.04959 0.26499 0.29760
 H656 H 0.02385 0.26910 0.31319
 H657 H 0.03706 0.22838 0.34581
 H658 H 0.06299 0.22442 0.33046
 C659 C 0.62015 0.73277 0.77388
 C660 C 0.63106 0.71953 0.77748
 C661 C 0.64505 0.71658 0.76751
 C662 C 0.64850 0.72679 0.75368
 C663 C 0.63765 0.74013 0.75022
 C664 C 0.62368 0.74307 0.76017
 C665 C 0.60507 0.73572 0.78416
 N666 N 0.59439 0.74831 0.78039
 N667 N 0.58069 0.75083 0.78942
 C668 C 0.57706 0.74087 0.80261
 N669 N 0.58777 0.72830 0.80643
 N670 N 0.60148 0.72578 0.79739
 C671 C 0.56163 0.74354 0.81245
 C672 C 0.55787 0.73328 0.82616
 C673 C 0.54315 0.73564 0.83520
 C674 C 0.53186 0.74827 0.83072
 C675 C 0.53568 0.75860 0.81711
 C676 C 0.55039 0.75627 0.80809
 H677 H 0.62874 0.71135 0.78797
 H678 H 0.65306 0.70621 0.77066
 H679 H 0.63982 0.74836 0.73978
 H680 H 0.61559 0.75341 0.75702
 H681 H 0.56622 0.72334 0.82986
 H682 H 0.54046 0.72736 0.84551
 H683 H 0.52734 0.76859 0.81351
 H684 H 0.55290 0.76445 0.79765
 C685 C 0.38253 0.77552 0.77361
 C686 C 0.37272 0.76200 0.76839
 C687 C 0.35878 0.76455 0.75817
 C688 C 0.35422 0.78069 0.75319
 C689 C 0.36388 0.79422 0.75861
 C690 C 0.37796 0.79165 0.76860
 C691 C 0.39758 0.77283 0.78402
 N692 N 0.40956 0.78471 0.78506
 N693 N 0.42324 0.78223 0.79418
 C694 C 0.42548 0.76781 0.80275
 N695 N 0.41345 0.75596 0.80180
 N696 N 0.39981 0.75840 0.79258
 C697 C 0.44083 0.76498 0.81266
 C698 C 0.44138 0.75259 0.82504
 C699 C 0.45598 0.74981 0.83422
 C700 C 0.47038 0.75918 0.83100
 C701 C 0.46984 0.77158 0.81866
 C702 C 0.45518 0.77454 0.80967
 H703 H 0.37595 0.74941 0.77200
 H704 H 0.35150 0.75390 0.75428
 H705 H 0.36077 0.80679 0.75488
 H706 H 0.38522 0.80233 0.77246
 H707 H 0.43052 0.74506 0.82768
 H708 H 0.45614 0.74011 0.84361
 H709 H 0.48076 0.77903 0.81604
 H710 H 0.45518 0.78414 0.80019
 C711 C -0.11966 0.27551 0.27120
 C712 C -0.12645 0.26237 0.26188
 C713 C -0.13988 0.26513 0.25105
 C714 C -0.14710 0.28107 0.24952
 C715 C -0.14044 0.29411 0.25926
 C716 C -0.12680 0.29138 0.26979
 C717 C -0.10497 0.27280 0.28206
 N718 N -0.09456 0.28560 0.28577
 N719 N -0.08108 0.28315 0.29521
 C720 C -0.07755 0.26783 0.30146
 N721 N -0.08803 0.25506 0.29787
 N722 N -0.10143 0.25748 0.28830
 C723 C -0.06239 0.26508 0.31163
 C724 C -0.06153 0.25185 0.32308
 C725 C -0.04707 0.24919 0.33251
 C726 C -0.03312 0.25948 0.33037
 C727 C -0.03395 0.27268 0.31894
 C728 C -0.04851 0.27557 0.30978
 H729 H -0.12115 0.24999 0.26270
 H730 H -0.14459 0.25464 0.24404
 H731 H -0.14539 0.30660 0.25855
 H732 H -0.12187 0.30174 0.27689
 H733 H -0.07206 0.24363 0.32480
 H734 H -0.04663 0.23890 0.34123
 H735 H -0.02333 0.28080 0.31717
 H736 H -0.04880 0.28582 0.30100
 C737 C -0.11937 0.73075 0.22487
 C738 C -0.13138 0.71908 0.21977
 C739 C -0.14580 0.71653 0.22921
 C740 C -0.14857 0.72558 0.24398
 C741 C -0.13660 0.73733 0.24900
 C742 C -0.12219 0.73988 0.23957
 C743 C -0.10392 0.73327 0.21505
 N744 N -0.09233 0.74456 0.21999
 N745 N -0.07835 0.74669 0.21131
 C746 C -0.07535 0.73762 0.19731
 N747 N -0.08696 0.72637 0.19234
 N748 N -0.10095 0.72424 0.20102
 C749 C -0.05967 0.73985 0.18779
 C750 C -0.05644 0.73028 0.17344
 C751 C -0.04154 0.73222 0.16464
 C752 C -0.02952 0.74376 0.16998
 C753 C -0.03278 0.75340 0.18424
 C754 C -0.04767 0.75148 0.19305
 H755 H -0.12965 0.71185 0.20849
 H756 H -0.15476 0.70748 0.22483
 H757 H -0.13818 0.74449 0.26032
 H758 H -0.11321 0.74897 0.24389
 H759 H -0.06538 0.72119 0.16905
 H760 H -0.03931 0.72447 0.15380
 H761 H -0.02386 0.76257 0.18852
 H762 H -0.04975 0.75911 0.20399
 C763 C 0.38008 0.23246 0.72845
 C764 C 0.37615 0.24307 0.74182
 C765 C 0.36186 0.24040 0.75142
 C766 C 0.35107 0.22699 0.74796
 C767 C 0.35502 0.21649 0.73441
 C768 C 0.36930 0.21919 0.72482
 C769 C 0.39541 0.23511 0.71848
 N770 N 0.39915 0.22495 0.70544
 N771 N 0.41303 0.22718 0.69662
 C772 C 0.42378 0.23966 0.70046
 N773 N 0.42002 0.24984 0.71347
 N774 N 0.40613 0.24761 0.72228
 C775 C 0.43935 0.24198 0.69079
 C776 C 0.45071 0.25458 0.69512
 C777 C 0.46553 0.25657 0.68620
 C778 C 0.46933 0.24603 0.67272
 C779 C 0.45793 0.23353 0.66830
 C780 C 0.44312 0.23151 0.67723
 H781 H 0.38415 0.25345 0.74496
 H782 H 0.35949 0.24891 0.76159
 H783 H 0.34721 0.20605 0.73109
 H784 H 0.37191 0.21078 0.71459
 H785 H 0.44821 0.26291 0.70545
 H786 H 0.47397 0.26647 0.68976
 H787 H 0.46059 0.22510 0.65809
 H788 H 0.43468 0.22166 0.67356
 C789 C 0.61875 0.27330 0.72933
 C790 C 0.62521 0.28939 0.73125
 C791 C 0.63923 0.29220 0.74125
 C792 C 0.64698 0.27900 0.74992
 C793 C 0.64042 0.26285 0.74791
 C794 C 0.62660 0.26004 0.73762
 C795 C 0.60375 0.27042 0.71895
 N796 N 0.60056 0.25518 0.71237
 N797 N 0.58692 0.25258 0.70320
 C798 C 0.57585 0.26508 0.70038
 N799 N 0.57903 0.28031 0.70699
 N800 N 0.59274 0.28295 0.71602
 C801 C 0.56048 0.26211 0.69059
 C802 C 0.54641 0.27231 0.69287
 C803 C 0.53171 0.26924 0.68400
 C804 C 0.53090 0.25612 0.67246
 C805 C 0.54502 0.24610 0.66993
 C806 C 0.55963 0.24896 0.67905
 H807 H 0.61946 0.29986 0.72494
 H808 H 0.64364 0.30485 0.74237
 H809 H 0.64596 0.25224 0.75410
 H810 H 0.62186 0.24748 0.73641
 H811 H 0.54667 0.28250 0.70172
 H812 H 0.52098 0.27717 0.68607
 H813 H 0.54463 0.23587 0.66113
 H814 H 0.57030 0.24094 0.67699
 C815 C 0.12144 0.76519 0.22698
 C816 C 0.13335 0.77703 0.22211
 C817 C 0.14751 0.77990 0.23189
 C818 C 0.15013 0.77101 0.24680
 C819 C 0.13829 0.75905 0.25157
 C820 C 0.12413 0.75618 0.24179
 C821 C 0.10622 0.76241 0.21680
 N822 N 0.09466 0.75102 0.22153
 N823 N 0.08086 0.74870 0.21255
 C824 C 0.07801 0.75768 0.19845
 N825 N 0.08959 0.76903 0.19369
 N826 N 0.10339 0.77135 0.20268
 C827 C 0.06249 0.75529 0.18863
 C828 C 0.05942 0.76479 0.17419
 C829 C 0.04463 0.76276 0.16514
 C830 C 0.03257 0.75121 0.17033
 C831 C 0.03571 0.74161 0.18466
 C832 C 0.05049 0.74362 0.19370
 H833 H 0.13173 0.78416 0.21074
 H834 H 0.15640 0.78909 0.22768
 H835 H 0.13977 0.75200 0.26298
 H836 H 0.11522 0.74696 0.24594
 H837 H 0.06837 0.77390 0.16992
 H838 H 0.04249 0.77047 0.15424
 H839 H 0.02678 0.73242 0.18883
 H840 H 0.05246 0.73604 0.20471
 C841 C 0.26933 0.11954 0.22979
 C842 C 0.27463 0.13140 0.21805
 C843 C 0.26538 0.14590 0.21529
 C844 C 0.25058 0.14892 0.22418
 C845 C 0.24534 0.13709 0.23598
 C846 C 0.25460 0.12259 0.23875
 C847 C 0.27905 0.10406 0.23258
 N848 N 0.27411 0.09271 0.24411
 N849 N 0.28278 0.07876 0.24653
 C850 C 0.29676 0.07555 0.23753
 N851 N 0.30171 0.08691 0.22601
 N852 N 0.29305 0.10087 0.22359
 C853 C 0.30634 0.05996 0.24016
 C854 C 0.32059 0.05649 0.23055
 C855 C 0.32957 0.04176 0.23297
 C856 C 0.32451 0.03014 0.24505
 C857 C 0.31029 0.03362 0.25469
 C858 C 0.30132 0.04835 0.25227
 H859 H 0.28594 0.12949 0.21094
 H860 H 0.26994 0.15470 0.20618
 H861 H 0.23400 0.13887 0.24305
 H862 H 0.25012 0.11374 0.24789
 H863 H 0.32481 0.06512 0.22108
 H864 H 0.34035 0.03934 0.22522
 H865 H 0.30622 0.02504 0.26426
 H866 H 0.29045 0.05063 0.25994
 C867 C 0.77221 0.62056 0.72530
 C868 C 0.76947 0.62675 0.70912
 C869 C 0.76035 0.64138 0.70667
 C870 C 0.75351 0.64995 0.72033
 C871 C 0.75615 0.64373 0.73651
 C872 C 0.76556 0.62926 0.73899
 C873 C 0.78184 0.60505 0.72784
 N874 N 0.78939 0.60181 0.74270
 N875 N 0.79808 0.58784 0.74493
 C876 C 0.79946 0.57648 0.73244
 N877 N 0.79186 0.57969 0.71761
 N878 N 0.78329 0.59372 0.71533
 C879 C 0.80897 0.56088 0.73494
 C880 C 0.80566 0.54685 0.72499
 C881 C 0.81444 0.53202 0.72751
 C882 C 0.82691 0.53105 0.73980
 C883 C 0.83040 0.54510 0.74960
 C884 C 0.82139 0.55984 0.74731
 H885 H 0.77449 0.62035 0.69833
 H886 H 0.75840 0.64580 0.69404
 H887 H 0.75110 0.65015 0.74727
 H888 H 0.76742 0.62475 0.75161
 H889 H 0.79611 0.54726 0.71541
 H890 H 0.81160 0.52134 0.71977
 H891 H 0.83991 0.54458 0.75921
 H892 H 0.82427 0.57047 0.75511
 C893 C 0.76995 0.38276 0.77193
 C894 C 0.75513 0.37945 0.76314
 C895 C 0.74544 0.36556 0.76708
 C896 C 0.75031 0.35461 0.77990
 C897 C 0.76518 0.35789 0.78862
 C898 C 0.77487 0.37178 0.78469
 C899 C 0.78009 0.39764 0.76792
 N900 N 0.79428 0.40103 0.77656
 N901 N 0.80326 0.41452 0.77310
 C902 C 0.79846 0.42520 0.76084
 N903 N 0.78430 0.42178 0.75217
 N904 N 0.77531 0.40830 0.75563
 C905 C 0.80830 0.44037 0.75719
 C906 C 0.80323 0.45145 0.74456
 C907 C 0.81228 0.46595 0.74139
 C908 C 0.82662 0.46972 0.75077
 C909 C 0.83178 0.45857 0.76329
 C910 C 0.82274 0.44407 0.76646
 H911 H 0.75095 0.38761 0.75322
 H912 H 0.73416 0.36347 0.75997
 H913 H 0.76936 0.34984 0.79861
 H914 H 0.78621 0.37393 0.79173
 H915 H 0.79222 0.44898 0.73713
 H916 H 0.80811 0.47418 0.73152
 H917 H 0.84265 0.46123 0.77088
 H918 H 0.82699 0.43585 0.77631
 C919 C 0.27202 -0.12139 0.27214
 C920 C 0.27640 -0.13212 0.28528
 C921 C 0.26726 -0.14661 0.28829
 C922 C 0.25345 -0.15081 0.27821
 C923 C 0.24921 -0.14004 0.26495
 C924 C 0.25835 -0.12556 0.26199
 C925 C 0.28154 -0.10587 0.26910
 N926 N 0.27692 -0.09521 0.25676
 N927 N 0.28534 -0.08119 0.25412
 C928 C 0.29876 -0.07723 0.26369
 N929 N 0.30341 -0.08791 0.27601
 N930 N 0.29498 -0.10192 0.27866
 C931 C 0.30803 -0.06153 0.26083
 C932 C 0.32220 -0.05763 0.27043
 C933 C 0.33081 -0.04275 0.26781
 C934 C 0.32543 -0.03141 0.25556
 C935 C 0.31131 -0.03533 0.24592
 C936 C 0.30272 -0.05021 0.24851
 H937 H 0.28688 -0.12931 0.29335
 H938 H 0.27116 -0.15439 0.29859
 H939 H 0.23879 -0.14258 0.25677
 H940 H 0.25462 -0.11760 0.25172
 H941 H 0.32663 -0.06603 0.28004
 H942 H 0.34155 -0.03999 0.27554
 H943 H 0.30701 -0.02695 0.23623
 H944 H 0.29190 -0.05281 0.24085
 C945 C 0.22978 -0.11687 0.72837
 C946 C 0.22435 -0.12894 0.71692
 C947 C 0.23410 -0.14297 0.71355
 C948 C 0.24963 -0.14533 0.72151
 C949 C 0.25495 -0.13321 0.73308
 C950 C 0.24516 -0.11921 0.73646
 C951 C 0.21956 -0.10184 0.73173
 N952 N 0.22460 -0.09036 0.74312
 N953 N 0.21554 -0.07675 0.74598
 C954 C 0.20106 -0.07402 0.73757
 N955 N 0.19601 -0.08552 0.72621
 N956 N 0.20506 -0.09914 0.72336
 C957 C 0.19114 -0.05872 0.74056
 C958 C 0.17654 -0.05556 0.73132
 C959 C 0.16739 -0.04097 0.73391
 C960 C 0.17262 -0.02921 0.74579
 C961 C 0.18712 -0.03244 0.75514
 C962 C 0.19627 -0.04701 0.75256
 H963 H 0.21254 -0.12756 0.71048
 H964 H 0.22933 -0.15183 0.70458
 H965 H 0.26669 -0.13435 0.73962
 H966 H 0.24974 -0.11017 0.74537
 H967 H 0.17223 -0.06428 0.72195
 H968 H 0.15638 -0.03874 0.72637
 H969 H 0.19132 -0.02374 0.76458
 H970 H 0.20740 -0.04907 0.75996
 C971 C 0.72918 0.38337 0.22551
 C972 C 0.72437 0.37206 0.21301
 C973 C 0.73430 0.35824 0.20929
 C974 C 0.74929 0.35538 0.21797
 C975 C 0.75403 0.36665 0.23054
 C976 C 0.74411 0.38046 0.23426
 C977 C 0.71880 0.39819 0.22927
 N978 N 0.72356 0.40925 0.24119
 N979 N 0.71437 0.42269 0.24440
 C980 C 0.70003 0.42566 0.23585
 N981 N 0.69524 0.41457 0.22397
 N982 N 0.70442 0.40112 0.22076
 C983 C 0.68998 0.44080 0.23921
 C984 C 0.67523 0.44394 0.23020
 C985 C 0.66598 0.45840 0.23310
 C986 C 0.67126 0.47006 0.24507
 C987 C 0.68590 0.46686 0.25419
 C988 C 0.69515 0.45239 0.25131
 H989 H 0.71295 0.37391 0.20600
 H990 H 0.73023 0.34994 0.19947
 H991 H 0.76539 0.36486 0.23762
 H992 H 0.74819 0.38888 0.24400
 H993 H 0.67088 0.43530 0.22078
 H994 H 0.65486 0.46062 0.22573
 H995 H 0.69016 0.47550 0.26365
 H996 H 0.70640 0.45035 0.25853
 C997 C 0.72472 0.62163 0.26697
 C998 C 0.73957 0.62434 0.25809
 C999 C 0.74907 0.63863 0.26089
 C1000 C 0.74396 0.65060 0.27264
 C1001 C 0.72900 0.64797 0.28138
 C1002 C 0.71951 0.63367 0.27859
 C1003 C 0.71486 0.60626 0.26431
 N1004 N 0.70089 0.60328 0.27338
 N1005 N 0.69220 0.58933 0.27120
 C1006 C 0.69712 0.57776 0.25985
 N1007 N 0.71105 0.58078 0.25074
 N1008 N 0.71974 0.59472 0.25292
 C1009 C 0.68764 0.56208 0.25763
 C1010 C 0.69270 0.55025 0.24573
 C1011 C 0.68402 0.53531 0.24387
 C1012 C 0.67008 0.53183 0.25387
 C1013 C 0.66490 0.54371 0.26565
 C1014 C 0.67358 0.55867 0.26752
 H1015 H 0.74397 0.61534 0.24905
 H1016 H 0.76050 0.64013 0.25394
 H1017 H 0.72453 0.65690 0.29042
 H1018 H 0.70811 0.63203 0.28561
 H1019 H 0.70341 0.55248 0.23785
 H1020 H 0.68815 0.52653 0.23449
 H1021 H 0.65430 0.54131 0.27365
 H1022 H 0.66934 0.56748 0.27682
 C1023 C 0.22633 0.12206 0.77031
 C1024 C 0.24121 0.12495 0.76155
 C1025 C 0.25061 0.13926 0.76457
 C1026 C 0.24538 0.15106 0.77644
 C1027 C 0.23041 0.14822 0.78509
 C1028 C 0.22101 0.13390 0.78207
 C1029 C 0.21655 0.10669 0.76733
 N1030 N 0.20249 0.10354 0.77622
 N1031 N 0.19385 0.08961 0.77371
 C1032 C 0.19889 0.07825 0.76221
 N1033 N 0.21291 0.08144 0.75329
 N1034 N 0.22155 0.09535 0.75579
 C1035 C 0.18943 0.06263 0.75959
 C1036 C 0.19464 0.05097 0.74758
 C1037 C 0.18592 0.03610 0.74532
 C1038 C 0.17179 0.03253 0.75500
 C1039 C 0.16647 0.04423 0.76691
 C1040 C 0.17519 0.05910 0.76918
 H1041 H 0.24570 0.11610 0.75240
 H1042 H 0.26207 0.14090 0.75769
 H1043 H 0.22585 0.15703 0.79422
 H1044 H 0.20959 0.13211 0.78902
 H1045 H 0.20550 0.05328 0.73992
 H1046 H 0.19017 0.02745 0.73586
 H1047 H 0.15574 0.04175 0.77469
 H1048 H 0.17084 0.06778 0.77856
 C1049 C 0.23043 0.27861 0.12153
 C1050 C 0.23911 0.26358 0.12393
 C1051 C 0.23608 0.25373 0.13798
 C1052 C 0.22430 0.25864 0.15000
 C1053 C 0.21578 0.27378 0.14769
 C1054 C 0.21880 0.28363 0.13364
 C1055 C 0.23330 0.28882 0.10638
 N1056 N 0.22443 0.30299 0.10368
 N1057 N 0.22676 0.31197 0.08989
 C1058 C 0.23806 0.30717 0.07823
 N1059 N 0.24698 0.29305 0.08097
 N1060 N 0.24464 0.28407 0.09475
 C1061 C 0.24040 0.31694 0.06269
 C1062 C 0.25213 0.31190 0.05068
 C1063 C 0.25404 0.32082 0.03584
 C1064 C 0.24426 0.33499 0.03263
 C1065 C 0.23267 0.34017 0.04470
 C1066 C 0.23075 0.33125 0.05956
 H1067 H 0.24816 0.25932 0.11487
 H1068 H 0.24287 0.24216 0.13922
 H1069 H 0.20674 0.27812 0.15670
 H1070 H 0.21193 0.29516 0.13224
 H1071 H 0.25984 0.30101 0.05269
 H1072 H 0.26327 0.31668 0.02690
 H1073 H 0.22483 0.35094 0.04251
 H1074 H 0.22157 0.33548 0.06851
 C1075 C 0.72657 0.77609 0.61571
 C1076 C 0.74004 0.76842 0.62392
 C1077 C 0.73735 0.75843 0.63795
 C1078 C 0.72117 0.75619 0.64423
 C1079 C 0.70773 0.76403 0.63616
 C1080 C 0.71038 0.77376 0.62195
 C1081 C 0.72934 0.78635 0.60064
 N1082 N 0.71680 0.78899 0.58952
 N1083 N 0.71933 0.79803 0.57582
 C1084 C 0.73446 0.80493 0.57275
 N1085 N 0.74698 0.80238 0.58392
 N1086 N 0.74449 0.79321 0.59756
 C1087 C 0.73728 0.81482 0.55744
 C1088 C 0.75034 0.82643 0.55667
 C1089 C 0.75300 0.83571 0.54215
 C1090 C 0.74285 0.83330 0.52805
 C1091 C 0.72985 0.82167 0.52878
 C1092 C 0.72698 0.81263 0.54339
 H1093 H 0.75265 0.76994 0.61936
 H1094 H 0.74796 0.75263 0.64400
 H1095 H 0.69511 0.76244 0.64065
 H1096 H 0.69976 0.77956 0.61592
 H1097 H 0.75843 0.82843 0.56733
 H1098 H 0.76315 0.84457 0.54181
 H1099 H 0.72181 0.81970 0.51807
 H1100 H 0.71686 0.80373 0.54359
 C1101 C 0.76634 0.77824 0.37706
 C1102 C 0.77886 0.78264 0.36564
 C1103 C 0.78191 0.77285 0.35154
 C1104 C 0.77253 0.75839 0.34850
 C1105 C 0.75991 0.75408 0.35987
 C1106 C 0.75685 0.76388 0.37395
 C1107 C 0.76337 0.78839 0.39224
 N1108 N 0.75129 0.78414 0.40331
 N1109 N 0.74884 0.79305 0.41711
 C1110 C 0.75835 0.80662 0.42045
 N1111 N 0.77039 0.81092 0.40935
 N1112 N 0.77284 0.80200 0.39555
 C1113 C 0.75589 0.81630 0.43603
 C1114 C 0.76608 0.83005 0.43970
 C1115 C 0.76408 0.83885 0.45462
 C1116 C 0.75185 0.83411 0.46622
 C1117 C 0.74153 0.82051 0.46246
 C1118 C 0.74352 0.81170 0.44755
 H1119 H 0.78639 0.79364 0.36761
 H1120 H 0.79165 0.77670 0.34309
 H1121 H 0.75243 0.74305 0.35807
 H1122 H 0.74710 0.76010 0.38248
 H1123 H 0.77575 0.83393 0.43114
 H1124 H 0.77235 0.84916 0.45724
 H1125 H 0.73183 0.81671 0.47104
 H1126 H 0.73539 0.80123 0.44511
 C1127 C 0.26752 0.27793 -0.11800
 C1128 C 0.27924 0.28301 -0.12997
 C1129 C 0.28233 0.27329 -0.14412
 C1130 C 0.27377 0.25824 -0.14665
 C1131 C 0.26196 0.25324 -0.13472
 C1132 C 0.25887 0.26295 -0.12058
 C1133 C 0.26445 0.28808 -0.10284
 N1134 N 0.25303 0.28325 -0.09132
 N1135 N 0.25044 0.29223 -0.07759
 C1136 C 0.25914 0.30644 -0.07477
 N1137 N 0.27053 0.31130 -0.08631
 N1138 N 0.27312 0.30232 -0.10005
 C1139 C 0.25645 0.31627 -0.05933
 C1140 C 0.26577 0.33076 -0.05623
 C1141 C 0.26348 0.33981 -0.04150
 C1142 C 0.25182 0.33459 -0.02953
 C1143 C 0.24238 0.32022 -0.03269
 C1144 C 0.24467 0.31116 -0.04741
 H1145 H 0.28610 0.29450 -0.12843
 H1146 H 0.29140 0.27768 -0.15306
 H1147 H 0.25517 0.24171 -0.13612
 H1148 H 0.24976 0.25864 -0.11162
 H1149 H 0.27497 0.33505 -0.06511
 H1150 H 0.27107 0.35073 -0.03933
 H1151 H 0.23313 0.31602 -0.02382
 H1152 H 0.23721 0.30012 -0.04941
 C1153 C 0.73356 0.22193 -0.12013
 C1154 C 0.72176 0.21721 -0.13222
 C1155 C 0.71870 0.22726 -0.14616
 C1156 C 0.72736 0.24231 -0.14835
 C1157 C 0.73936 0.24687 -0.13637
 C1158 C 0.74242 0.23682 -0.12245
 C1159 C 0.73639 0.21159 -0.10502
 N1160 N 0.74768 0.21624 -0.09325
 N1161 N 0.74993 0.20720 -0.07949
 C1162 C 0.74099 0.19310 -0.07688
 N1163 N 0.72976 0.18839 -0.08869
 N1164 N 0.72751 0.19744 -0.10246
 C1165 C 0.74322 0.18328 -0.06134
 C1166 C 0.73373 0.16886 -0.05848
 C1167 C 0.73554 0.15988 -0.04362
 C1168 C 0.74686 0.16511 -0.03127
 C1169 C 0.75647 0.17941 -0.03420
 C1170 C 0.75468 0.18838 -0.04905
 H1171 H 0.71474 0.20579 -0.13089
 H1172 H 0.70948 0.22319 -0.15513
 H1173 H 0.74629 0.25833 -0.13752
 H1174 H 0.75162 0.24085 -0.11340
 H1175 H 0.72477 0.16457 -0.06764
 H1176 H 0.72783 0.14901 -0.04165
 H1177 H 0.76548 0.18361 -0.02504
 H1178 H 0.76225 0.19937 -0.05084
 C1179 C 0.23397 0.72138 0.38221
 C1180 C 0.22259 0.71610 0.36995
 C1181 C 0.21953 0.72582 0.35579
 C1182 C 0.22776 0.74109 0.35353
 C1183 C 0.23927 0.74628 0.36573
 C1184 C 0.24234 0.73655 0.37988
 C1185 C 0.23691 0.71127 0.39744
 N1186 N 0.24801 0.71629 0.40925
 N1187 N 0.25043 0.70738 0.42307
 C1188 C 0.24186 0.69306 0.42570
 N1189 N 0.23081 0.68800 0.41387
 N1190 N 0.22839 0.69691 0.40004
 C1191 C 0.24431 0.68334 0.44127
 C1192 C 0.23505 0.66879 0.44423
 C1193 C 0.23705 0.65990 0.45911
 C1194 C 0.24835 0.66534 0.47138
 C1195 C 0.25775 0.67975 0.46834
 C1196 C 0.25576 0.68865 0.45348
 H1197 H 0.21596 0.70445 0.37128
 H1198 H 0.21071 0.72128 0.34664
 H1199 H 0.24582 0.75796 0.36454
 H1200 H 0.25118 0.74103 0.38907
 H1201 H 0.22610 0.66435 0.43513
 H1202 H 0.22950 0.64893 0.46115
 H1203 H 0.26675 0.68412 0.47744
 H1204 H 0.26317 0.69974 0.45160
 C1205 C 0.26812 0.72275 0.62244
 C1206 C 0.25906 0.73754 0.62482
 C1207 C 0.26202 0.74760 0.63874
 C1208 C 0.27414 0.74315 0.65067
 C1209 C 0.28302 0.72821 0.64841
 C1210 C 0.28006 0.71815 0.63447
 C1211 C 0.26535 0.71240 0.60734
 N1212 N 0.27441 0.69834 0.60471
 N1213 N 0.27218 0.68928 0.59095
 C1214 C 0.26080 0.69388 0.57923
 N1215 N 0.25169 0.70790 0.58190
 N1216 N 0.25392 0.71695 0.59565
 C1217 C 0.25857 0.68403 0.56371
 C1218 C 0.24693 0.68900 0.55152
 C1219 C 0.24512 0.67997 0.53671
 C1220 C 0.25490 0.66577 0.53373
 C1221 C 0.26642 0.66069 0.54597
 C1222 C 0.26824 0.66971 0.56078
 H1223 H 0.24975 0.74148 0.61583
 H1224 H 0.25492 0.75897 0.63993
 H1225 H 0.29234 0.72424 0.65735
 H1226 H 0.28723 0.70681 0.63308
 H1227 H 0.23922 0.69992 0.55337
 H1228 H 0.23596 0.68406 0.52763
 H1229 H 0.27426 0.64989 0.54395
 H1230 H 0.27735 0.66553 0.56987
 C1231 C 0.76707 0.22197 0.11973
 C1232 C 0.77952 0.21768 0.13136
 C1233 C 0.78279 0.22790 0.14510
 C1234 C 0.77370 0.24268 0.14758
 C1235 C 0.76103 0.24678 0.13612
 C1236 C 0.75777 0.23656 0.12238
 C1237 C 0.76407 0.21154 0.10473
 N1238 N 0.75240 0.21599 0.09324
 N1239 N 0.75003 0.20691 0.07952
 C1240 C 0.75923 0.19299 0.07668
 N1241 N 0.77084 0.18849 0.08822
 N1242 N 0.77322 0.19757 0.10194
 C1243 C 0.75689 0.18317 0.06116
 C1244 C 0.76645 0.16878 0.05819
 C1245 C 0.76456 0.15982 0.04334
 C1246 C 0.75310 0.16504 0.03111
 C1247 C 0.74342 0.17930 0.03415
 C1248 C 0.74528 0.18826 0.04900
 H1249 H 0.78688 0.20649 0.12977
 H1250 H 0.79251 0.22420 0.15373
 H1251 H 0.75378 0.25804 0.13750
 H1252 H 0.74806 0.24025 0.11371
 H1253 H 0.77552 0.16451 0.06727
 H1254 H 0.77232 0.14897 0.04128
 H1255 H 0.73431 0.18350 0.02506
 H1256 H 0.73766 0.19923 0.05087
 C1257 C 0.48198 0.36595 0.52507
 C1258 C 0.47101 0.37849 0.53049
 C1259 C 0.46838 0.39274 0.52084
 C1260 C 0.47663 0.39484 0.50550
 C1261 C 0.48763 0.38230 0.50011
 C1262 C 0.49028 0.36805 0.50977
 C1263 C 0.48469 0.35076 0.53524
 N1264 N 0.49550 0.33877 0.53016
 N1265 N 0.49784 0.32507 0.53922
 C1266 C 0.48947 0.32275 0.55376
 N1267 N 0.47867 0.33476 0.55886
 N1268 N 0.47634 0.34847 0.54980
 C1269 C 0.49194 0.30740 0.56375
 C1270 C 0.48290 0.30481 0.57855
 C1271 C 0.48503 0.29022 0.58780
 C1272 C 0.49626 0.27787 0.58249
 C1273 C 0.50539 0.28050 0.56777
 C1274 C 0.50326 0.29509 0.55850
 H1275 H 0.46443 0.37731 0.54222
 H1276 H 0.45990 0.40211 0.52551
 H1277 H 0.49418 0.38335 0.48837
 H1278 H 0.49880 0.35865 0.50518
 H1279 H 0.47405 0.31400 0.58295
 H1280 H 0.47766 0.28846 0.59898
 H1281 H 0.51431 0.27132 0.56347
 H1282 H 0.51049 0.29669 0.54722
 C1283 C -0.01695 0.86738 0.02469
 C1284 C -0.00816 0.87004 0.00977
 C1285 C -0.01090 0.88438 0.00027
 C1286 C -0.02252 0.89644 0.00545
 C1287 C -0.03126 0.89381 0.02042
 C1288 C -0.02851 0.87946 0.02992
 C1289 C -0.01417 0.85205 0.03464
 N1290 N -0.02288 0.84925 0.04890
 N1291 N -0.02048 0.83541 0.05774
 C1292 C -0.00926 0.82377 0.05272
 N1293 N -0.00053 0.82658 0.03848
 N1294 N -0.00293 0.84042 0.02964
 C1295 C -0.00674 0.80824 0.06243
 C1296 C 0.00487 0.79622 0.05715
 C1297 C 0.00702 0.78145 0.06611
 C1298 C -0.00237 0.77835 0.08057
 C1299 C -0.01388 0.79041 0.08594
 C1300 C -0.01604 0.80518 0.07698
 H1301 H 0.00083 0.86101 0.00533
 H1302 H -0.00398 0.88585 -0.01120
 H1303 H -0.04021 0.90282 0.02493
 H1304 H -0.03549 0.87784 0.04136
 H1305 H 0.01230 0.79818 0.04605
 H1306 H 0.01616 0.77250 0.06180
 H1307 H -0.02144 0.78829 0.09692
 H1308 H -0.02511 0.81414 0.08140
 C1309 C 0.01450 0.62587 0.02612
 C1310 C 0.00484 0.62318 0.01172
 C1311 C 0.00686 0.60874 0.00223
 C1312 C 0.01862 0.59658 0.00687
 C1313 C 0.02815 0.59919 0.02141
 C1314 C 0.02612 0.61365 0.03091
 C1315 C 0.01258 0.64142 0.03592
 N1316 N 0.02206 0.64429 0.04970
 N1317 N 0.02047 0.65838 0.05832
 C1318 C 0.00932 0.67021 0.05353
 N1319 N -0.00018 0.66732 0.03978
 N1320 N 0.00141 0.65324 0.03116
 C1321 C 0.00764 0.68600 0.06299
 C1322 C -0.00382 0.69824 0.05783
 C1323 C -0.00531 0.71319 0.06660
 C1324 C 0.00462 0.71628 0.08074
 C1325 C 0.01602 0.70403 0.08596
 C1326 C 0.01752 0.68907 0.07719
 H1327 H -0.00427 0.63229 0.00766
 H1328 H -0.00079 0.60726 -0.00879
 H1329 H 0.03729 0.59015 0.02548
 H1330 H 0.03374 0.61528 0.04196
 H1331 H -0.01168 0.69629 0.04699
 H1332 H -0.01438 0.72228 0.06241
 H1333 H 0.02397 0.70613 0.09671
 H1334 H 0.02650 0.67994 0.08150
 C1335 C 0.51464 0.12686 0.52746
 C1336 C 0.52666 0.11495 0.53203
 C1337 C 0.52950 0.10098 0.52202
 C1338 C 0.52040 0.09857 0.50718
 C1339 C 0.50822 0.11038 0.50274
 C1340 C 0.50538 0.12435 0.51275
 C1341 C 0.51197 0.14195 0.53780
 N1342 N 0.50043 0.15351 0.53333
 N1343 N 0.49829 0.16726 0.54238
 C1344 C 0.50760 0.17004 0.55629
 N1345 N 0.51910 0.15843 0.56081
 N1346 N 0.52123 0.14469 0.55176
 C1347 C 0.50553 0.18558 0.56607
 C1348 C 0.51546 0.18867 0.58024
 C1349 C 0.51389 0.20360 0.58907
 C1350 C 0.50239 0.21578 0.58392
 C1351 C 0.49228 0.21258 0.56993
 C1352 C 0.49383 0.19766 0.56111
 H1353 H 0.53398 0.11644 0.54331
 H1354 H 0.53886 0.09211 0.52598
 H1355 H 0.50099 0.10905 0.49141
 H1356 H 0.49601 0.13325 0.50884
 H1357 H 0.52460 0.17965 0.58442
 H1358 H 0.52194 0.20578 0.59972
 H1359 H 0.48311 0.22161 0.56582
 H1360 H 0.48591 0.19568 0.55033
 C1361 C -0.01649 0.12949 0.47396
 C1362 C -0.02813 0.11745 0.46888
 C1363 C -0.03080 0.10317 0.47848
 C1364 C -0.02189 0.10058 0.49340
 C1365 C -0.01012 0.11255 0.49838
 C1366 C -0.00745 0.12681 0.48878
 C1367 C -0.01397 0.14485 0.46402
 N1368 N -0.00267 0.15647 0.46889
 N1369 N -0.00064 0.17042 0.46017
 C1370 C -0.00981 0.17337 0.44619
 N1371 N -0.02106 0.16173 0.44128
 N1372 N -0.02309 0.14777 0.45000
 C1373 C -0.00780 0.18910 0.43671
 C1374 C -0.01774 0.19241 0.42259
 C1375 C -0.01616 0.20742 0.41394
 C1376 C -0.00462 0.21948 0.41920
 C1377 C 0.00545 0.21610 0.43318
 C1378 C 0.00388 0.20109 0.44184
 H1379 H -0.03528 0.11906 0.45750
 H1380 H -0.03985 0.09420 0.47412
 H1381 H -0.00306 0.11109 0.50981
 H1382 H 0.00161 0.13582 0.49309
 H1383 H -0.02688 0.18347 0.41830
 H1384 H -0.02423 0.20974 0.40333
 H1385 H 0.01464 0.22504 0.43738
 H1386 H 0.01180 0.19894 0.45260
 C1387 C 0.48497 0.62762 0.97279
 C1388 C 0.47295 0.61592 0.96778
 C1389 C 0.47007 0.60163 0.97729
 C1390 C 0.47912 0.59868 0.99207
 C1391 C 0.49125 0.61032 0.99697
 C1392 C 0.49414 0.62459 0.98746
 C1393 C 0.48779 0.64299 0.96295
 N1394 N 0.49947 0.65423 0.96779
 N1395 N 0.50181 0.66819 0.95917
 C1396 C 0.49257 0.67154 0.94533
 N1397 N 0.48093 0.66027 0.94045
 N1398 N 0.47859 0.64629 0.94907
 C1399 C 0.49493 0.68729 0.93599
 C1400 C 0.48501 0.69102 0.92197
 C1401 C 0.48691 0.70612 0.91351
 C1402 C 0.49875 0.71783 0.91889
 C1403 C 0.50882 0.71401 0.93275
 C1404 C 0.50694 0.69892 0.94120
 H1405 H 0.46569 0.61782 0.95653
 H1406 H 0.46072 0.59295 0.97299
 H1407 H 0.49847 0.60859 1.00826
 H1408 H 0.50349 0.63332 0.99172
 H1409 H 0.47562 0.68237 0.91761
 H1410 H 0.47884 0.70878 0.90298
 H1411 H 0.51823 0.72267 0.93704
 H1412 H 0.51486 0.69644 0.95189
 C1413 C 0.52216 0.86681 0.97966
 C1414 C 0.50865 0.87664 0.98490
 C1415 C 0.51128 0.89067 0.99490
 C1416 C 0.52750 0.89530 0.99963
 C1417 C 0.54103 0.88559 0.99420
 C1418 C 0.53838 0.87143 0.98443
 C1419 C 0.51941 0.85172 0.96940
 N1420 N 0.53136 0.83978 0.96832
 N1421 N 0.52888 0.82613 0.95923
 C1422 C 0.51437 0.82389 0.95074
 N1423 N 0.50243 0.83585 0.95176
 N1424 N 0.50487 0.84946 0.96095
 C1425 C 0.51165 0.80867 0.94068
 C1426 C 0.49925 0.80822 0.92824
 C1427 C 0.49682 0.79385 0.91868
 C1428 C 0.50654 0.77958 0.92158
 C1429 C 0.51884 0.77999 0.93407
 C1430 C 0.52146 0.79441 0.94344
 H1431 H 0.49600 0.87338 0.98147
 H1432 H 0.50062 0.89798 0.99879
 H1433 H 0.55366 0.88875 0.99774
 H1434 H 0.54906 0.86415 0.98054
 H1435 H 0.49153 0.81901 0.92578
 H1436 H 0.48720 0.79380 0.90917
 H1437 H 0.52657 0.76918 0.93644
 H1438 H 0.53107 0.79434 0.95296
 C1439 C 0.01771 0.37128 0.47449
 C1440 C 0.00422 0.38114 0.47977
 C1441 C 0.00698 0.39576 0.48883
 C1442 C 0.02328 0.40096 0.49255
 C1443 C 0.03676 0.39121 0.48711
 C1444 C 0.03401 0.37646 0.47829
 C1445 C 0.01484 0.35564 0.46516
 N1446 N 0.02690 0.34379 0.46435
 N1447 N 0.02435 0.32968 0.45601
 C1448 C 0.00966 0.32688 0.44803
 N1449 N -0.00240 0.33875 0.44879
 N1450 N 0.00012 0.35282 0.45724
 C1451 C 0.00690 0.31123 0.43869
 C1452 C -0.00563 0.31019 0.42642
 C1453 C -0.00796 0.29548 0.41738
 C1454 C 0.00199 0.28145 0.42064
 C1455 C 0.01437 0.28241 0.43303
 C1456 C 0.01689 0.29718 0.44187
 H1457 H -0.00848 0.37745 0.47707
 H1458 H -0.00366 0.40308 0.49277
 H1459 H 0.04946 0.39482 0.48990
 H1460 H 0.04467 0.36917 0.47435
 H1461 H -0.01348 0.32081 0.42364
 H1462 H -0.01765 0.29500 0.40795
 H1463 H 0.02227 0.27179 0.43567
 H1464 H 0.02661 0.29757 0.45127
 C1465 C 0.37444 0.52293 0.48502
 C1466 C 0.37751 0.50817 0.49392
 C1467 C 0.39189 0.49881 0.49093
 C1468 C 0.40360 0.50395 0.47896
 C1469 C 0.40061 0.51881 0.47018
 C1470 C 0.38621 0.52818 0.47316
 C1471 C 0.35897 0.53264 0.48793
 N1472 N 0.35561 0.54654 0.47887
 N1473 N 0.34158 0.55508 0.48129
 C1474 C 0.33029 0.55010 0.49288
 N1475 N 0.33368 0.53623 0.50197
 N1476 N 0.34771 0.52768 0.49955
 C1477 C 0.31453 0.55944 0.49539
 C1478 C 0.30300 0.55438 0.50757
 C1479 C 0.28801 0.56300 0.50974
 C1480 C 0.28419 0.57689 0.49978
 C1481 C 0.29575 0.58204 0.48768
 C1482 C 0.31075 0.57342 0.48551
 H1483 H 0.36872 0.50373 0.50314
 H1484 H 0.39363 0.48742 0.49791
 H1485 H 0.40935 0.52329 0.46097
 H1486 H 0.38429 0.53951 0.46610
 H1487 H 0.30552 0.54372 0.51546
 H1488 H 0.27947 0.55888 0.51934
 H1489 H 0.29308 0.59257 0.47968
 H1490 H 0.31930 0.57766 0.47599
 C1491 C 0.87121 0.02142 -0.01834
 C1492 C 0.87423 0.00672 -0.00931
 C1493 C 0.88873 -0.00257 -0.01202
 C1494 C 0.90058 0.00261 -0.02385
 C1495 C 0.89760 0.01740 -0.03277
 C1496 C 0.88311 0.02667 -0.03006
 C1497 C 0.85568 0.03112 -0.01568
 N1498 N 0.85250 0.04506 -0.02476
 N1499 N 0.83847 0.05365 -0.02251
 C1500 C 0.82701 0.04869 -0.01109
 N1501 N 0.83021 0.03478 -0.00199
 N1502 N 0.84424 0.02618 -0.00424
 C1503 C 0.81129 0.05815 -0.00871
 C1504 C 0.79955 0.05306 0.00325
 C1505 C 0.78466 0.06184 0.00537
 C1506 C 0.78113 0.07593 -0.00442
 C1507 C 0.79289 0.08110 -0.01632
 C1508 C 0.80779 0.07231 -0.01845
 H1509 H 0.86534 0.00229 -0.00019
 H1510 H 0.89049 -0.01389 -0.00495
 H1511 H 0.90645 0.02191 -0.04186
 H1512 H 0.88123 0.03796 -0.03721
 H1513 H 0.80185 0.04226 0.01102
 H1514 H 0.77597 0.05771 0.01482
 H1515 H 0.79045 0.09180 -0.02417
 H1516 H 0.81652 0.07658 -0.02780
 C1517 C 0.63103 0.01991 0.02287
 C1518 C 0.62738 0.00575 0.01323
 C1519 C 0.61327 -0.00384 0.01660
 C1520 C 0.60243 0.00047 0.02970
 C1521 C 0.60602 0.01471 0.03925
 C1522 C 0.62013 0.02431 0.03588
 C1523 C 0.64617 0.02992 0.01949
 N1524 N 0.64967 0.04369 0.02870
 N1525 N 0.66339 0.05254 0.02582
 C1526 C 0.67422 0.04801 0.01360
 N1527 N 0.67070 0.03427 0.00437
 N1528 N 0.65698 0.02542 0.00725
 C1529 C 0.68963 0.05771 0.01056
 C1530 C 0.70109 0.05263 -0.00171
 C1531 C 0.71577 0.06157 -0.00436
 C1532 C 0.71934 0.07582 0.00516
 C1533 C 0.70783 0.08101 0.01731
 C1534 C 0.69316 0.07205 0.01999
 H1535 H 0.63546 0.00202 0.00308
 H1536 H 0.61089 -0.01461 0.00886
 H1537 H 0.59808 0.01842 0.04949
 H1538 H 0.62255 0.03512 0.04357
 H1539 H 0.69877 0.04169 -0.00925
 H1540 H 0.72428 0.05740 -0.01398
 H1541 H 0.71032 0.09184 0.02496
 H1542 H 0.68463 0.07632 0.02955
 C1543 C 0.13373 0.52013 0.52398
 C1544 C 0.12371 0.51567 0.51028
 C1545 C 0.10933 0.50615 0.51258
 C1546 C 0.10451 0.50112 0.52866
 C1547 C 0.11442 0.50572 0.54239
 C1548 C 0.12895 0.51502 0.54006
 C1549 C 0.14909 0.53000 0.52150
 N1550 N 0.16114 0.53044 0.53345
 N1551 N 0.17503 0.53921 0.53115
 C1552 C 0.17740 0.54798 0.51686
 N1553 N 0.16533 0.54760 0.50494
 N1554 N 0.15149 0.53874 0.50719
 C1555 C 0.19286 0.55768 0.51427
 C1556 C 0.19349 0.57028 0.50211
 C1557 C 0.20809 0.57942 0.49967
 C1558 C 0.22243 0.57596 0.50916
 C1559 C 0.22186 0.56333 0.52125
 C1560 C 0.20718 0.55436 0.52387
 H1561 H 0.12706 0.51938 0.49773
 H1562 H 0.10187 0.50292 0.50178
 H1563 H 0.11110 0.50194 0.55492
 H1564 H 0.13637 0.51832 0.55088
 H1565 H 0.18265 0.57316 0.49455
 H1566 H 0.20828 0.58903 0.49019
 H1567 H 0.23274 0.56051 0.52878
 H1568 H 0.20712 0.54469 0.53329
 C1569 C 0.12766 0.47837 -0.02008
 C1570 C 0.11744 0.48300 -0.00661
 C1571 C 0.10263 0.49180 -0.00938
 C1572 C 0.09761 0.49589 -0.02569
 C1573 C 0.10777 0.49119 -0.03915
 C1574 C 0.12270 0.48264 -0.03637
 C1575 C 0.14337 0.46910 -0.01721
 N1576 N 0.15540 0.46866 -0.02912
 N1577 N 0.16951 0.46027 -0.02662
 C1578 C 0.17215 0.45186 -0.01213
 N1579 N 0.16012 0.45226 -0.00023
 N1580 N 0.14604 0.46076 -0.00269
 C1581 C 0.18780 0.44242 -0.00944
 C1582 C 0.18872 0.42994 0.00283
 C1583 C 0.20345 0.42090 0.00520
 C1584 C 0.21761 0.42435 -0.00447
 C1585 C 0.21675 0.43690 -0.01664
 C1586 C 0.20196 0.44576 -0.01919
 H1587 H 0.12095 0.47993 0.00610
 H1588 H 0.09499 0.49517 0.00123
 H1589 H 0.10430 0.49429 -0.05185
 H1590 H 0.13027 0.47921 -0.04701
 H1591 H 0.17800 0.42704 0.01049
 H1592 H 0.20385 0.41134 0.01472
 H1593 H 0.22748 0.43969 -0.02433
 H1594 H 0.20166 0.45532 -0.02871
 C1595 C 0.62971 0.97763 0.47903
 C1596 C 0.61773 0.97219 0.46741
 C1597 C 0.60311 0.98131 0.46474
 C1598 C 0.60009 0.99611 0.47361
 C1599 C 0.61203 1.00149 0.48530
 C1600 C 0.62665 0.99236 0.48798
 C1601 C 0.64532 0.96806 0.48172
 N1602 N 0.65684 0.97320 0.49306
 N1603 N 0.67091 0.96467 0.49539
 C1604 C 0.67408 0.95065 0.48647
 N1605 N 0.66256 0.94550 0.47514
 N1606 N 0.64848 0.95402 0.47282
 C1607 C 0.68979 0.94119 0.48899
 C1608 C 0.69315 0.92685 0.47951
 C1609 C 0.70797 0.91797 0.48184
 C1610 C 0.71977 0.92321 0.49372
 C1611 C 0.71643 0.93753 0.50321
 C1612 C 0.70161 0.94642 0.50088
 H1613 H 0.61964 0.96087 0.46033
 H1614 H 0.59419 0.97665 0.45575
 H1615 H 0.61026 1.01284 0.49232
 H1616 H 0.63560 0.99694 0.49702
 H1617 H 0.68437 0.92249 0.47020
 H1618 H 0.71029 0.90711 0.47418
 H1619 H 0.72518 0.94175 0.51261
 H1620 H 0.69942 0.95738 0.50844
 C1621 C 0.87180 0.97633 0.51741
 C1622 C 0.88365 0.97107 0.52926
 C1623 C 0.89806 0.98039 0.53218
 C1624 C 0.90100 0.99521 0.52333
 C1625 C 0.88921 1.00037 0.51136
 C1626 C 0.87480 0.99105 0.50845
 C1627 C 0.85633 0.96663 0.51456
 N1628 N 0.84491 0.97165 0.50306
 N1629 N 0.83090 0.96309 0.50066
 C1630 C 0.82770 0.94914 0.50966
 N1631 N 0.83914 0.94409 0.52114
 N1632 N 0.85315 0.95265 0.52353
 C1633 C 0.81198 0.93976 0.50716
 C1634 C 0.80850 0.92552 0.51674
 C1635 C 0.79355 0.91687 0.51455
 C1636 C 0.78172 0.92227 0.50275
 C1637 C 0.78524 0.93642 0.49309
 C1638 C 0.80019 0.94506 0.49526
 H1639 H 0.88178 0.95977 0.53637
 H1640 H 0.90687 0.97589 0.54138
 H1641 H 0.89093 1.01171 0.50433
 H1642 H 0.86595 0.99548 0.49923
 H1643 H 0.81728 0.92110 0.52603
 H1644 H 0.79111 0.90611 0.52230
 H1645 H 0.77650 0.94073 0.48372
 H1646 H 0.80246 0.95593 0.48761
 C1647 C 0.37039 0.47664 0.01706
 C1648 C 0.37353 0.49133 0.00808
 C1649 C 0.38818 0.50035 0.01078
 C1650 C 0.40005 0.49492 0.02254
 C1651 C 0.39695 0.48015 0.03141
 C1652 C 0.38231 0.47114 0.02871
 C1653 C 0.35472 0.46721 0.01445
 N1654 N 0.35147 0.45331 0.02351
 N1655 N 0.33732 0.44493 0.02134
 C1656 C 0.32579 0.45009 0.01001
 N1657 N 0.32905 0.46397 0.00091
 N1658 N 0.34321 0.47235 0.00309
 C1659 C 0.30995 0.44086 0.00776
 C1660 C 0.29813 0.44605 -0.00415
 C1661 C 0.28311 0.43746 -0.00610
 C1662 C 0.27956 0.42349 0.00383
 C1663 C 0.29140 0.41826 0.01568
 C1664 C 0.30642 0.42683 0.01762
 H1665 H 0.36462 0.49595 -0.00099
 H1666 H 0.39003 0.51169 0.00376
 H1667 H 0.40582 0.47544 0.04043
 H1668 H 0.38035 0.45985 0.03581
 H1669 H 0.30045 0.45676 -0.01200
 H1670 H 0.27433 0.44167 -0.01549
 H1671 H 0.28894 0.40768 0.02367
 H1672 H 0.31520 0.42251 0.02696
 C1673 C 0.52616 0.47695 0.36983
 C1674 C 0.52319 0.46070 0.37555
 C1675 C 0.51393 0.45798 0.39005
 C1676 C 0.50719 0.47144 0.39898
 C1677 C 0.51006 0.48769 0.39322
 C1678 C 0.51958 0.49043 0.37887
 C1679 C 0.53594 0.47978 0.35444
 N1680 N 0.54333 0.49469 0.35151
 N1681 N 0.55211 0.49720 0.33763
 C1682 C 0.55375 0.48494 0.32606
 N1683 N 0.54632 0.47006 0.32897
 N1684 N 0.53765 0.46751 0.34290
 C1685 C 0.56331 0.48777 0.31053
 C1686 C 0.56048 0.47778 0.29639
 C1687 C 0.56930 0.48058 0.28163
 C1688 C 0.58132 0.49322 0.28080
 C1689 C 0.58433 0.50308 0.29496
 C1690 C 0.57529 0.50048 0.30965
 H1691 H 0.52813 0.45006 0.36888
 H1692 H 0.51181 0.44532 0.39410
 H1693 H 0.50511 0.49831 0.39991
 H1694 H 0.52161 0.50309 0.37474
 H1695 H 0.55130 0.46793 0.29667
 H1696 H 0.56686 0.47276 0.27088
 H1697 H 0.59349 0.51295 0.29457
 H1698 H 0.57778 0.50833 0.32036
 C1699 C 0.02736 -0.01928 0.87087
 C1700 C 0.01241 -0.01056 0.87361
 C1701 C 0.00283 -0.01362 0.88783
 C1702 C 0.00795 -0.02549 0.89970
 C1703 C 0.02298 -0.03412 0.89701
 C1704 C 0.03256 -0.03106 0.88278
 C1705 C 0.03733 -0.01625 0.85559
 N1706 N 0.05157 -0.02494 0.85265
 N1707 N 0.06038 -0.02237 0.83881
 C1708 C 0.05533 -0.01099 0.82730
 N1709 N 0.04112 -0.00227 0.83027
 N1710 N 0.03232 -0.00484 0.84411
 C1711 C 0.06497 -0.00830 0.81175
 C1712 C 0.05965 0.00346 0.79987
 C1713 C 0.06852 0.00577 0.78506
 C1714 C 0.08294 -0.00361 0.78177
 C1715 C 0.08838 -0.01526 0.79369
 C1716 C 0.07949 -0.01759 0.80851
 H1717 H 0.00800 -0.00141 0.86470
 H1718 H -0.00868 -0.00678 0.88934
 H1719 H 0.02744 -0.04324 0.90590
 H1720 H 0.04403 -0.03797 0.88111
 H1721 H 0.04857 0.01089 0.80197
 H1722 H 0.06417 0.01502 0.77623
 H1723 H 0.09934 -0.02281 0.79142
 H1724 H 0.08395 -0.02677 0.81736
 C1725 C 0.02728 0.01851 0.62988
 C1726 C 0.01241 0.00970 0.62715
 C1727 C 0.00289 0.01247 0.61277
 C1728 C 0.00801 0.02413 0.60074
 C1729 C 0.02297 0.03284 0.60341
 C1730 C 0.03248 0.03007 0.61780
 C1731 C 0.03720 0.01581 0.64531
 N1732 N 0.05127 0.02473 0.64828
 N1733 N 0.06004 0.02245 0.66225
 C1734 C 0.05512 0.01116 0.67385
 N1735 N 0.04108 0.00221 0.67085
 N1736 N 0.03230 0.00449 0.65689
 C1737 C 0.06475 0.00879 0.68951
 C1738 C 0.05968 -0.00302 0.70142
 C1739 C 0.06859 -0.00507 0.71630
 C1740 C 0.08276 0.00463 0.71964
 C1741 C 0.08791 0.01635 0.70770
 C1742 C 0.07901 0.01841 0.69281
 H1743 H 0.00800 0.00071 0.63618
 H1744 H -0.00857 0.00557 0.61126
 H1745 H 0.02745 0.04180 0.59442
 H1746 H 0.04390 0.03705 0.61946
 H1747 H 0.04881 -0.01069 0.69928
 H1748 H 0.06446 -0.01437 0.72514
 H1749 H 0.09867 0.02415 0.70999
 H1750 H 0.08325 0.02764 0.68395
 C1751 C 0.52660 0.51634 0.12883
 C1752 C 0.51171 0.50759 0.12598
 C1753 C 0.50229 0.51044 0.11155
 C1754 C 0.50752 0.52212 0.09959
 C1755 C 0.52251 0.53076 0.10238
 C1756 C 0.53191 0.52791 0.11682
 C1757 C 0.53641 0.51356 0.14430
 N1758 N 0.55040 0.52255 0.14745
 N1759 N 0.55907 0.52024 0.16146
 C1760 C 0.55415 0.50882 0.17294
 N1761 N 0.54020 0.49979 0.16977
 N1762 N 0.53152 0.50212 0.15576
 C1763 C 0.56368 0.50643 0.18866
 C1764 C 0.55879 0.49433 0.20034
 C1765 C 0.56760 0.49228 0.21528
 C1766 C 0.58149 0.50230 0.21890
 C1767 C 0.58644 0.51432 0.20719
 C1768 C 0.57765 0.51636 0.19224
 H1769 H 0.50722 0.49859 0.13497
 H1770 H 0.49082 0.50358 0.10996
 H1771 H 0.52707 0.53974 0.09345
 H1772 H 0.54335 0.53484 0.11856
 H1773 H 0.54814 0.48641 0.19797
 H1774 H 0.56362 0.48275 0.22395
 H1775 H 0.59696 0.52238 0.20971
 H1776 H 0.58175 0.52584 0.18357
 C1777 C 0.46994 -0.01699 0.12917
 C1778 C 0.46555 -0.02940 0.11761
 C1779 C 0.47555 -0.03255 0.10367
 C1780 C 0.49022 -0.02338 0.10094
 C1781 C 0.49443 -0.01077 0.11238
 C1782 C 0.48443 -0.00762 0.12630
 C1783 C 0.45971 -0.01404 0.14430
 N1784 N 0.46417 -0.00227 0.15564
 N1785 N 0.45525 0.00009 0.16945
 C1786 C 0.44147 -0.00920 0.17254
 N1787 N 0.43695 -0.02092 0.16116
 N1788 N 0.44588 -0.02329 0.14735
 C1789 C 0.43180 -0.00685 0.18814
 C1790 C 0.41759 -0.01654 0.19139
 C1791 C 0.40877 -0.01462 0.20630
 C1792 C 0.41396 -0.00299 0.21834
 C1793 C 0.42805 0.00682 0.21503
 C1794 C 0.43686 0.00493 0.20011
 H1795 H 0.45444 -0.03682 0.11938
 H1796 H 0.47175 -0.04226 0.09514
 H1797 H 0.50557 -0.00340 0.11080
 H1798 H 0.48820 0.00207 0.13490
 H1799 H 0.41334 -0.02574 0.18247
 H1800 H 0.39806 -0.02249 0.20857
 H1801 H 0.43221 0.01606 0.22396
 H1802 H 0.44769 0.01266 0.19802
 C1803 C 0.97400 0.48117 0.62722
 C1804 C 0.98938 0.48930 0.62529
 C1805 C 0.99933 0.48625 0.61131
 C1806 C 0.99416 0.47502 0.59888
 C1807 C 0.97869 0.46702 0.60073
 C1808 C 0.96875 0.47003 0.61474
 C1809 C 0.96364 0.48414 0.64227
 N1810 N 0.94915 0.47574 0.64462
 N1811 N 0.94001 0.47823 0.65828
 C1812 C 0.94497 0.48922 0.67017
 N1813 N 0.95944 0.49765 0.66779
 N1814 N 0.96857 0.49516 0.65415
 C1815 C 0.93498 0.49180 0.68554
 C1816 C 0.94007 0.50341 0.69766
 C1817 C 0.93091 0.50559 0.71231
 C1818 C 0.91644 0.49621 0.71524
 C1819 C 0.91123 0.48472 0.70307
 C1820 C 0.92040 0.48254 0.68839
 H1821 H 0.99381 0.49799 0.63462
 H1822 H 1.01105 0.49280 0.61027
 H1823 H 0.97432 0.45822 0.59149
 H1824 H 0.95698 0.46355 0.61580
 H1825 H 0.95118 0.51082 0.69586
 H1826 H 0.93510 0.51472 0.72133
 H1827 H 0.90024 0.47718 0.70504
 H1828 H 0.91613 0.47346 0.67935
 C1829 C 0.97172 0.51843 0.86681
 C1830 C 0.98686 0.50995 0.86936
 C1831 C 0.99637 0.51278 0.88373
 C1832 C 0.99099 0.52415 0.89594
 C1833 C 0.97580 0.53258 0.89341
 C1834 C 0.96630 0.52976 0.87903
 C1835 C 0.96173 0.51555 0.85147
 N1836 N 0.94742 0.52418 0.84866
 N1837 N 0.93855 0.52172 0.83479
 C1838 C 0.94360 0.51052 0.82314
 N1839 N 0.95789 0.50186 0.82597
 N1840 N 0.96676 0.50432 0.83983
 C1841 C 0.93389 0.50798 0.80756
 C1842 C 0.93910 0.49624 0.79562
 C1843 C 0.93020 0.49412 0.78075
 C1844 C 0.91588 0.50370 0.77745
 C1845 C 0.91055 0.51528 0.78946
 C1846 C 0.91945 0.51740 0.80434
 H1847 H 0.99145 0.50115 0.86021
 H1848 H 1.00799 0.50609 0.88511
 H1849 H 0.97113 0.54134 0.90251
 H1850 H 0.95469 0.53649 0.87750
 H1851 H 0.95011 0.48870 0.79771
 H1852 H 0.93447 0.48490 0.77187
 H1853 H 0.89967 0.52297 0.78720
 H1854 H 0.91507 0.52656 0.81324
 C1855 C 0.47138 0.01801 0.36959
 C1856 C 0.46607 0.02926 0.38193
 C1857 C 0.47578 0.03209 0.39617
 C1858 C 0.49104 0.02374 0.39844
 C1859 C 0.49627 0.01239 0.38614
 C1860 C 0.48656 0.00956 0.37191
 C1861 C 0.46124 0.01523 0.35432
 N1862 N 0.46627 0.00422 0.34247
 N1863 N 0.45730 0.00188 0.32865
 C1864 C 0.44291 0.01046 0.32606
 N1865 N 0.43786 0.02144 0.33793
 N1866 N 0.44683 0.02377 0.35176
 C1867 C 0.43306 0.00804 0.31054
 C1868 C 0.41841 0.01725 0.30768
 C1869 C 0.40932 0.01519 0.29290
 C1870 C 0.41468 0.00389 0.28064
 C1871 C 0.42924 -0.00542 0.28355
 C1872 C 0.43833 -0.00337 0.29832
 H1873 H 0.45442 0.03596 0.38059
 H1874 H 0.47121 0.04081 0.40538
 H1875 H 0.50796 0.00577 0.38733
 H1876 H 0.49106 0.00081 0.36267
 H1877 H 0.41399 0.02617 0.31679
 H1878 H 0.39826 0.02269 0.29094
 H1879 H 0.43356 -0.01441 0.27445
 H1880 H 0.44951 -0.01073 0.30012
   
