data_POSCAR
  _audit_creation_date              2014-09-24
  _audit_creation_method            'ToBaCCo'
  _symmetry_space_group_name_H-M    'P1'
  _symmetry_Int_Tables_number       1
  _symmetry_cell_setting            triclinic
  loop_
  _symmetry_equiv_pos_as_xyz
 x,y,z
_cell_length_a 68.5567
_cell_length_b 68.3844
_cell_length_c 68.5590
_cell_angle_alpha 90.066800
_cell_angle_beta 90.065100
_cell_angle_gamma 89.959100
loop_
  _atom_site_label
  _atom_site_type_symbol
  _atom_site_fract_x
  _atom_site_fract_y
  _atom_site_fract_z
C1 C 0.29708 0.43907 0.92435
 C2 C 0.29680 0.42501 0.93923
 C3 C 0.31114 0.42511 0.95349
 C4 C 0.32592 0.43927 0.95306
 C5 C 0.32619 0.45317 0.93836
 C6 C 0.31168 0.45307 0.92393
 C7 C 0.28591 0.44156 0.90783
 N8 N 0.29340 0.45670 0.89757
 C9 C 0.30914 0.46385 0.90716
 C10 C 0.34291 0.46408 0.94073
 N11 N 0.35260 0.45709 0.95648
 C12 C 0.34249 0.44193 0.96413
 C13 C 0.30817 0.40895 0.96507
 N14 N 0.29242 0.39921 0.95814
 C15 C 0.28535 0.40879 0.94236
 H16 H 0.27366 0.43266 0.90327
 H17 H 0.31840 0.47557 0.90198
 H18 H 0.34797 0.47576 0.93135
 H19 H 0.34715 0.43312 0.97640
 H20 H 0.31722 0.40417 0.97712
 H21 H 0.27329 0.40386 0.93341
 C22 C 0.43938 0.82659 0.45309
 C23 C 0.42520 0.81182 0.45326
 C24 C 0.42515 0.79760 0.43883
 C25 C 0.43928 0.79800 0.42406
 C26 C 0.45330 0.81259 0.42389
 C27 C 0.45335 0.82697 0.43849
 C28 C 0.44205 0.84305 0.46439
 N29 N 0.45728 0.85321 0.45697
 C30 C 0.46430 0.84365 0.44115
 C31 C 0.46418 0.81017 0.40718
 N32 N 0.45707 0.79450 0.39739
 C33 C 0.44186 0.78695 0.40746
 C34 C 0.40894 0.78610 0.44176
 N35 N 0.39932 0.79302 0.45757
 C36 C 0.40901 0.80872 0.46472
 H37 H 0.43320 0.84761 0.47666
 H38 H 0.47604 0.84877 0.43192
 H39 H 0.47595 0.81944 0.40219
 H40 H 0.43299 0.77473 0.40272
 H41 H 0.40408 0.77410 0.43266
 H42 H 0.40421 0.81764 0.47687
 C43 C 0.93847 0.92388 0.79751
 C44 C 0.92401 0.93839 0.79767
 C45 C 0.92433 0.95289 0.81181
 C46 C 0.93912 0.95305 0.82596
 C47 C 0.95342 0.93870 0.82581
 C48 C 0.95308 0.92403 0.81150
 C49 C 0.94091 0.90723 0.78646
 N50 N 0.95663 0.89746 0.79343
 C51 C 0.96419 0.90746 0.80874
 C52 C 0.96490 0.94154 0.84207
 N53 N 0.95788 0.95724 0.85188
 C54 C 0.94214 0.96439 0.84230
 C55 C 0.90779 0.96406 0.80935
 N56 N 0.89762 0.95667 0.79410
 C57 C 0.90728 0.94100 0.78684
 H58 H 0.93159 0.90225 0.77468
 H59 H 0.97640 0.90270 0.81757
 H60 H 0.97694 0.93244 0.84681
 H61 H 0.93312 0.97642 0.84725
 H62 H 0.90315 0.97622 0.81836
 H63 H 0.90216 0.93181 0.77503
 C64 C 0.43848 -0.07626 0.29727
 C65 C 0.42404 -0.06171 0.29739
 C66 C 0.42409 -0.04750 0.31181
 C67 C 0.43856 -0.04765 0.32628
 C68 C 0.45282 -0.06202 0.32616
 C69 C 0.45278 -0.07640 0.31157
 C70 C 0.44115 -0.09269 0.28594
 N71 N 0.45671 -0.10261 0.29307
 C72 C 0.46394 -0.09292 0.30872
 C73 C 0.46401 -0.05945 0.34266
 N74 N 0.45684 -0.04391 0.35260
 C75 C 0.44130 -0.03658 0.34284
 C76 C 0.40764 -0.03622 0.30920
 N77 N 0.39779 -0.04328 0.29358
 C78 C 0.40756 -0.05885 0.28624
 H79 H 0.43209 -0.09743 0.27388
 H80 H 0.47595 -0.09786 0.31774
 H81 H 0.47601 -0.06857 0.34744
 H82 H 0.43230 -0.02454 0.34778
 H83 H 0.40283 -0.02424 0.31834
 H84 H 0.40267 -0.06780 0.27415
 C85 C 0.79528 0.30972 0.32420
 C86 C 0.79554 0.32442 0.30995
 C87 C 0.80984 0.32436 0.29568
 C88 C 0.82406 0.30960 0.29549
 C89 C 0.82380 0.29508 0.30957
 C90 C 0.80933 0.29514 0.32400
 C91 C 0.78418 0.30708 0.34072
 N92 N 0.79118 0.29129 0.35037
 C93 C 0.80654 0.28388 0.34040
 C94 C 0.84019 0.28375 0.30684
 N95 N 0.85021 0.29107 0.29148
 C96 C 0.84060 0.30686 0.28443
 C97 C 0.80749 0.34113 0.28482
 N98 N 0.79214 0.35118 0.29217
 C99 C 0.78472 0.34123 0.30753
 H100 H 0.77242 0.31637 0.34576
 H101 H 0.81548 0.27171 0.34516
 H102 H 0.84491 0.27161 0.31582
 H103 H 0.84569 0.31610 0.27267
 H104 H 0.81664 0.34601 0.27292
 H105 H 0.77282 0.34620 0.31664
 C106 C -0.18900 0.82592 0.79725
 C107 C -0.17453 0.81141 0.79737
 C108 C -0.17486 0.79686 0.81141
 C109 C -0.18967 0.79663 0.82551
 C110 C -0.20397 0.81097 0.82540
 C111 C -0.20363 0.82571 0.81119
 C112 C -0.19147 0.84260 0.78626
 N113 N -0.20722 0.85232 0.79324
 C114 C -0.21477 0.84226 0.80847
 C115 C -0.21549 0.80803 0.84158
 N116 N -0.20850 0.79228 0.85131
 C117 C -0.19272 0.78519 0.84174
 C118 C -0.15834 0.78567 0.80890
 N119 N -0.14817 0.79310 0.79370
 C120 C -0.15781 0.80883 0.78654
 H121 H -0.18217 0.84761 0.77453
 H122 H -0.22701 0.84696 0.81728
 H123 H -0.22756 0.81709 0.84633
 H124 H -0.18372 0.77313 0.84664
 H125 H -0.15372 0.77345 0.81782
 H126 H -0.15270 0.81804 0.77477
 C127 C 0.95431 0.32576 0.44022
 C128 C 0.95477 0.31099 0.42602
 C129 C 0.94092 0.29625 0.42625
 C130 C 0.92643 0.29609 0.44067
 C131 C 0.92597 0.31069 0.45471
 C132 C 0.93999 0.32562 0.45449
 C133 C 0.96497 0.34266 0.44265
 N134 N 0.95745 0.35258 0.45801
 C135 C 0.94217 0.34243 0.46536
 C136 C 0.90949 0.30775 0.46581
 N137 N 0.90013 0.29177 0.45881
 C138 C 0.91024 0.28453 0.44346
 C139 C 0.94391 0.28490 0.40991
 N140 N 0.95921 0.29242 0.39996
 C141 C 0.96597 0.30836 0.40955
 H142 H 0.97687 0.34767 0.43356
 H143 H 0.93297 0.34723 0.47728
 H144 H 0.90428 0.31695 0.47756
 H145 H 0.90572 0.27226 0.43454
 H146 H 0.93517 0.27258 0.40520
 H147 H 0.97763 0.31774 0.40451
 C148 C 0.45227 0.43829 0.82685
 C149 C 0.45221 0.42383 0.81233
 C150 C 0.43788 0.42388 0.79806
 C151 C 0.42343 0.43841 0.79814
 C152 C 0.42348 0.45270 0.81248
 C153 C 0.43798 0.45264 0.82692
 C154 C 0.46350 0.44095 0.84330
 N155 N 0.45634 0.45654 0.85317
 C156 C 0.44075 0.46381 0.84343
 C157 C 0.40703 0.46395 0.80982
 N158 N 0.39717 0.45680 0.79425
 C159 C 0.40694 0.44120 0.78698
 C160 C 0.44057 0.40740 0.78681
 N161 N 0.45614 0.39753 0.79395
 C162 C 0.46338 0.40732 0.80953
 H163 H 0.47552 0.43184 0.84809
 H164 H 0.43173 0.47586 0.84832
 H165 H 0.40222 0.47600 0.81889
 H166 H 0.40206 0.43219 0.77493
 H167 H 0.43151 0.40258 0.77479
 H168 H 0.47543 0.40242 0.81852
 C169 C 0.79583 0.92494 0.94017
 C170 C 0.79606 0.93910 0.92541
 C171 C 0.81038 0.95340 0.92531
 C172 C 0.82464 0.95370 0.93999
 C173 C 0.82442 0.93969 0.95459
 C174 C 0.80993 0.92522 0.95468
 C175 C 0.78468 0.90843 0.94296
 N176 N 0.79171 0.89888 0.95878
 C177 C 0.80714 0.90888 0.96606
 C178 C 0.84080 0.94255 0.96589
 N179 N 0.85077 0.95792 0.95847
 C180 C 0.84116 0.96486 0.94265
 C181 C 0.80793 0.96419 0.90853
 N182 N 0.79251 0.95676 0.89863
 C183 C 0.78515 0.94143 0.90869
 H184 H 0.77288 0.90334 0.93374
 H185 H 0.81611 0.90420 0.97821
 H186 H 0.84550 0.93366 0.97809
 H187 H 0.84620 0.97662 0.93336
 H188 H 0.81705 0.97610 0.90354
 H189 H 0.77319 0.93228 0.90387
 C190 C 0.29682 0.82593 0.31038
 C191 C 0.29649 0.81124 0.32464
 C192 C 0.31077 0.79689 0.32477
 C193 C 0.32555 0.79705 0.31065
 C194 C 0.32588 0.81155 0.29656
 C195 C 0.31143 0.82608 0.29642
 C196 C 0.28574 0.84251 0.30767
 N197 N 0.29329 0.85254 0.29243
 C198 C 0.30899 0.84276 0.28543
 C199 C 0.34260 0.80894 0.28575
 N200 N 0.35225 0.79325 0.29297
 C201 C 0.34208 0.78586 0.30818
 C202 C 0.30776 0.78557 0.34109
 N203 N 0.29204 0.79273 0.35068
 C204 C 0.28503 0.80842 0.34087
 H205 H 0.27354 0.84726 0.31652
 H206 H 0.31831 0.84776 0.27370
 H207 H 0.34772 0.81813 0.27397
 H208 H 0.34671 0.77369 0.31716
 H209 H 0.31675 0.77354 0.34606
 H210 H 0.27301 0.81752 0.34563
 C211 C 0.79758 0.42494 0.43899
 C212 C 0.79774 0.43907 0.42419
 C213 C 0.81227 0.45314 0.42378
 C214 C 0.82682 0.45325 0.43816
 C215 C 0.82668 0.43927 0.45279
 C216 C 0.81197 0.42504 0.45321
 C217 C 0.78620 0.40866 0.44210
 N218 N 0.79336 0.39905 0.45782
 C219 C 0.80909 0.40881 0.46473
 C220 C 0.84326 0.44198 0.46384
 N221 N 0.85327 0.45723 0.45623
 C222 C 0.84349 0.46424 0.44054
 C223 C 0.80961 0.46399 0.40707
 N224 N 0.79387 0.45681 0.39751
 C225 C 0.78649 0.44158 0.40772
 H226 H 0.77411 0.40374 0.43318
 H227 H 0.81819 0.40403 0.47674
 H228 H 0.84800 0.43314 0.47606
 H229 H 0.84845 0.47600 0.43121
 H230 H 0.81880 0.47577 0.40190
 H231 H 0.77428 0.43264 0.40316
 C232 C 0.94077 0.82238 -0.04568
 C233 C 0.92631 0.80789 -0.04589
 C234 C 0.92602 0.79403 -0.06066
 C235 C 0.94019 0.79450 -0.07539
 C236 C 0.95448 0.80883 -0.07517
 C237 C 0.95478 0.82285 -0.06023
 C238 C 0.94353 0.83866 -0.03417
 N239 N 0.95883 0.84882 -0.04140
 C240 C 0.96583 0.83941 -0.05732
 C241 C 0.96525 0.80673 -0.09200
 N242 N 0.95781 0.79150 -0.10222
 C243 C 0.94248 0.78392 -0.09234
 C244 C 0.90946 0.78293 -0.05814
 N245 N 0.89989 0.78974 -0.04226
 C246 C 0.90994 0.80499 -0.03466
 H247 H 0.93458 0.84323 -0.02197
 H248 H 0.97751 0.84468 -0.06654
 H249 H 0.97714 0.81598 -0.09677
 H250 H 0.93331 0.77206 -0.09742
 H251 H 0.90431 0.77133 -0.06760
 H252 H 0.90524 0.81380 -0.02239
 C253 C 0.29691 0.32523 0.81080
 C254 C 0.29657 0.31058 0.82509
 C255 C 0.31085 0.29623 0.82526
 C256 C 0.32564 0.29636 0.81114
 C257 C 0.32597 0.31084 0.79702
 C258 C 0.31152 0.32537 0.79685
 C259 C 0.28580 0.34179 0.80803
 N260 N 0.29334 0.35179 0.79276
 C261 C 0.30905 0.34201 0.78581
 C262 C 0.34268 0.30819 0.78620
 N263 N 0.35232 0.29250 0.79344
 C264 C 0.34215 0.28515 0.80868
 C265 C 0.30781 0.28491 0.84157
 N266 N 0.29207 0.29208 0.85113
 C267 C 0.28508 0.30775 0.84131
 H268 H 0.27359 0.34656 0.81683
 H269 H 0.31834 0.34698 0.77406
 H270 H 0.34780 0.31735 0.77439
 H271 H 0.34678 0.27299 0.81767
 H272 H 0.31679 0.27287 0.84655
 H273 H 0.27304 0.31685 0.84603
 C274 C 0.17600 0.56077 0.54507
 C275 C 0.19024 0.57547 0.54558
 C276 C 0.20447 0.57528 0.55996
 C277 C 0.20461 0.56039 0.57401
 C278 C 0.19053 0.54587 0.57351
 C279 C 0.17615 0.54606 0.55896
 C280 C 0.15952 0.55820 0.53383
 N281 N 0.14986 0.54234 0.54060
 C282 C 0.15977 0.53480 0.55594
 C283 C 0.19320 0.53438 0.58979
 N284 N 0.20853 0.54161 0.59996
 C285 C 0.21562 0.55749 0.59057
 C286 C 0.21536 0.59206 0.55784
 N287 N 0.20808 0.60224 0.54255
 C288 C 0.19273 0.59236 0.53494
 H289 H 0.15452 0.56760 0.52215
 H290 H 0.15499 0.52254 0.56470
 H291 H 0.18422 0.52219 0.59432
 H292 H 0.22736 0.56668 0.59583
 H293 H 0.22725 0.59684 0.56709
 H294 H 0.18368 0.59743 0.52302
 C295 C 0.57460 0.69014 0.04510
 C296 C 0.55982 0.67597 0.04500
 C297 C 0.54536 0.67641 0.05910
 C298 C 0.54550 0.69102 0.07346
 C299 C 0.56009 0.70503 0.07356
 C300 C 0.57473 0.70459 0.05930
 C301 C 0.59131 0.69234 0.03419
 N302 N 0.60141 0.70773 0.04145
 C303 C 0.59153 0.71533 0.05679
 C304 C 0.55753 0.71629 0.09004
 N305 N 0.54177 0.70942 0.09974
 C306 C 0.53430 0.69399 0.08986
 C307 C 0.53399 0.66002 0.05647
 N308 N 0.54122 0.64983 0.04115
 C309 C 0.55700 0.65933 0.03402
 H310 H 0.59612 0.68306 0.02233
 H311 H 0.59655 0.72731 0.06583
 H312 H 0.56686 0.72805 0.09502
 H313 H 0.52214 0.68513 0.09468
 H314 H 0.52187 0.65542 0.06548
 H315 H 0.56617 0.65408 0.02227
 C316 C 0.69048 0.20445 0.67552
 C317 C 0.67631 0.20472 0.69027
 C318 C 0.67669 0.19071 0.70486
 C319 C 0.69123 0.17628 0.70488
 C320 C 0.70523 0.17602 0.69032
 C321 C 0.70485 0.19019 0.67555
 C322 C 0.69272 0.21521 0.65870
 N323 N 0.70806 0.20779 0.64871
 C324 C 0.71559 0.19251 0.65875
 C325 C 0.71640 0.15950 0.69303
 N326 N 0.70948 0.14990 0.70884
 C327 C 0.69411 0.15991 0.71620
 C328 C 0.66032 0.19346 0.71615
 N329 N 0.65020 0.20877 0.70875
 C330 C 0.65972 0.21576 0.69294
 H331 H 0.68349 0.22707 0.65375
 H332 H 0.72753 0.18337 0.65385
 H333 H 0.72811 0.15439 0.68374
 H334 H 0.68522 0.15517 0.72835
 H335 H 0.65568 0.18454 0.72833
 H336 H 0.65453 0.22746 0.68364
 C337 C 1.07483 0.06068 0.20262
 C338 C 1.06056 0.07538 0.20230
 C339 C 1.04652 0.07551 0.18775
 C340 C 1.04658 0.06093 0.17333
 C341 C 1.06069 0.04641 0.17364
 C342 C 1.07490 0.04628 0.18838
 C343 C 1.09108 0.05783 0.21410
 N344 N 1.10085 0.04208 0.20714
 C345 C 1.09121 0.03491 0.19144
 C346 C 1.05809 0.03513 0.15718
 N347 N 1.04276 0.04249 0.14709
 C348 C 1.03561 0.05826 0.15670
 C349 C 1.03550 0.09218 0.19022
 N350 N 1.04255 0.10199 0.20588
 C351 C 1.05786 0.09197 0.21338
 H352 H 1.09586 0.06693 0.22612
 H353 H 1.09612 0.02280 0.18250
 H354 H 1.06703 0.02291 0.15257
 H355 H 1.02376 0.06744 0.15164
 H356 H 1.02369 0.09715 0.18097
 H357 H 1.06673 0.09674 0.22556
 C358 C 0.06207 0.17281 1.04908
 C359 C 0.07659 0.18724 1.04903
 C360 C 0.07670 0.20161 1.06330
 C361 C 0.06228 0.20172 1.07779
 C362 C 0.04792 0.18746 1.07784
 C363 C 0.04782 0.17292 1.06340
 C364 C 0.05920 0.15632 1.03789
 N365 N 0.04360 0.14660 1.04511
 C366 C 0.03652 0.15649 1.06069
 C367 C 0.03674 0.19033 1.09428
 N368 N 0.04401 0.20596 1.10402
 C369 C 0.05961 0.21305 1.09420
 C370 C 0.09316 0.21278 1.06048
 N371 N 0.10287 0.20549 1.04488
 C372 C 0.09299 0.18990 1.03777
 H373 H 0.06815 0.15141 1.02584
 H374 H 0.02447 0.15174 1.06972
 H375 H 0.02466 0.18136 1.09912
 H376 H 0.06868 0.22510 1.09898
 H377 H 0.09806 0.22487 1.06944
 H378 H 0.09773 0.18082 1.02572
 C379 C 0.17551 0.70501 0.68977
 C380 C 0.18966 0.70481 0.67502
 C381 C 0.20403 0.69053 0.67497
 C382 C 0.20440 0.67629 0.68966
 C383 C 0.19041 0.67649 0.70423
 C384 C 0.17588 0.69093 0.70429
 C385 C 0.15895 0.71608 0.69253
 N386 N 0.14944 0.70904 0.70833
 C387 C 0.15954 0.69367 0.71563
 C388 C 0.19332 0.66009 0.71551
 N389 N 0.20870 0.65012 0.70812
 C390 C 0.21560 0.65977 0.69233
 C391 C 0.21479 0.69297 0.65820
 N392 N 0.20729 0.70833 0.64825
 C393 C 0.19194 0.71568 0.65828
 H394 H 0.15378 0.72785 0.68331
 H395 H 0.15491 0.68471 0.72779
 H396 H 0.18446 0.65533 0.72768
 H397 H 0.22734 0.65472 0.68304
 H398 H 0.22674 0.68386 0.65326
 H399 H 0.18274 0.72760 0.65341
 C400 C 1.18940 0.17529 0.20277
 C401 C 1.17465 0.18950 0.20266
 C402 C 1.17426 0.20362 0.18818
 C403 C 1.18862 0.20368 0.17362
 C404 C 1.20320 0.18962 0.17373
 C405 C 1.20359 0.17534 0.18839
 C406 C 1.19246 0.15896 0.21410
 N407 N 1.20812 0.14927 0.20692
 C408 C 1.21505 0.15903 0.19122
 C409 C 1.21421 0.19231 0.15715
 N410 N 1.20663 0.20764 0.14719
 C411 C 1.19100 0.21471 0.15699
 C412 C 1.15757 0.21453 0.19084
 N413 N 1.14801 0.20734 0.20655
 C414 C 1.15820 0.19206 0.21389
 H415 H 1.18354 0.15406 0.22617
 H416 H 1.22702 0.15420 0.18211
 H417 H 1.22638 0.18341 0.15237
 H418 H 1.18169 0.22652 0.15206
 H419 H 1.15242 0.22634 0.18168
 H420 H 1.15362 0.18308 0.22605
 C421 C 0.67628 1.04635 0.55984
 C422 C 0.69073 1.04613 0.57432
 C423 C 0.70486 1.06060 0.57474
 C424 C 0.70471 1.07548 0.56067
 C425 C 0.69042 1.07570 0.54635
 C426 C 0.67611 1.06105 0.54593
 C427 C 0.65988 1.03512 0.55689
 N428 N 0.64993 1.04265 0.54157
 C429 C 0.65959 1.05849 0.53475
 C430 C 0.69295 1.09254 0.53563
 N431 N 0.70840 1.10234 0.54313
 C432 C 0.71570 1.09218 0.55844
 C433 C 0.71595 1.05764 0.59124
 N434 N 0.70886 1.04177 0.60066
 C435 C 0.69345 1.03461 0.59056
 H436 H 0.65512 1.02286 0.56567
 H437 H 0.65457 1.06787 0.52305
 H438 H 0.68387 1.09759 0.52371
 H439 H 0.72768 1.09690 0.56762
 H440 H 0.72777 1.06677 0.59644
 H441 H 0.68445 1.02244 0.59512
 C442 C 0.55839 0.54410 0.17674
 C443 C 0.57287 0.54423 0.19121
 C444 C 0.57284 0.55865 0.20543
 C445 C 0.55834 0.57312 0.20534
 C446 C 0.54403 0.57300 0.19104
 C447 C 0.54406 0.55840 0.17666
 C448 C 0.55585 0.53294 0.16020
 N449 N 0.54036 0.54015 0.15026
 C450 C 0.53304 0.55570 0.16006
 C451 C 0.53298 0.58965 0.19351
 N452 N 0.54025 0.59968 0.20893
 C453 C 0.55575 0.58983 0.21627
 C454 C 0.58946 0.55620 0.21646
 N455 N 0.59940 0.54067 0.20926
 C456 C 0.58951 0.53324 0.19383
 H457 H 0.56503 0.52101 0.15533
 H458 H 0.52112 0.56482 0.15507
 H459 H 0.52107 0.59452 0.18433
 H460 H 0.56490 0.59487 0.22814
 H461 H 0.59438 0.56546 0.22830
 H462 H 0.59448 0.52127 0.18475
 C463 C 0.67644 0.69105 0.20416
 C464 C 0.69096 0.67660 0.20415
 C465 C 0.70495 0.67635 0.18958
 C466 C 0.70459 0.69055 0.17484
 C467 C 0.69024 0.70484 0.17485
 C468 C 0.67608 0.70509 0.18960
 C469 C 0.66009 0.69382 0.21549
 N470 N 0.64999 0.70916 0.20813
 C471 C 0.65951 0.71616 0.19232
 C472 C 0.69249 0.71563 0.15805
 N473 N 0.70783 0.70821 0.14804
 C474 C 0.71533 0.69289 0.15804
 C475 C 0.71610 0.65980 0.19225
 N476 N 0.70918 0.65019 0.20805
 C477 C 0.69382 0.66020 0.21544
 H478 H 0.65546 0.68488 0.22765
 H479 H 0.65434 0.72790 0.18306
 H480 H 0.68328 0.72752 0.15313
 H481 H 0.72724 0.68374 0.15311
 H482 H 0.72781 0.65469 0.18296
 H483 H 0.68494 0.65547 0.22760
 C484 C 0.17415 0.06053 1.04601
 C485 C 0.18872 0.07492 1.04612
 C486 C 0.20327 0.07448 1.06017
 C487 C 0.20342 0.05964 1.07427
 C488 C 0.18903 0.04542 1.07416
 C489 C 0.17431 0.04587 1.05995
 C490 C 0.15743 0.05825 1.03511
 N491 N 0.14760 0.04259 1.04212
 C492 C 0.15767 0.03492 1.05730
 C493 C 0.19185 0.03393 1.09040
 N494 N 0.20757 0.04085 1.10018
 C495 C 0.21476 0.05656 1.09057
 C496 C 0.21445 0.09102 1.05773
 N497 N 0.20702 0.10130 1.04257
 C498 C 0.19130 0.09171 1.03536
 H499 H 0.15241 0.06764 1.02343
 H500 H 0.15288 0.02272 1.06615
 H501 H 0.18272 0.02195 1.09520
 H502 H 0.22682 0.06551 1.09552
 H503 H 0.22663 0.09560 1.06670
 H504 H 0.18206 0.09694 1.02365
 C505 C 0.57495 0.20528 0.55945
 C506 C 0.56022 0.20570 0.57362
 C507 C 0.54553 0.19179 0.57332
 C508 C 0.54539 0.17730 0.55884
 C509 C 0.55994 0.17688 0.54482
 C510 C 0.57480 0.19095 0.54513
 C511 C 0.59185 0.21590 0.55716
 N512 N 0.60179 0.20834 0.54184
 C513 C 0.59163 0.19310 0.53438
 C514 C 0.55712 0.16029 0.53376
 N515 N 0.54127 0.15082 0.54075
 C516 C 0.53398 0.16096 0.55607
 C517 C 0.53430 0.19465 0.58971
 N518 N 0.54182 0.20993 0.59978
 C519 C 0.55766 0.21680 0.59020
 H520 H 0.59690 0.22776 0.56635
 H521 H 0.59647 0.18386 0.52249
 H522 H 0.56637 0.15505 0.52207
 H523 H 0.52182 0.15635 0.56501
 H524 H 0.52208 0.18580 0.59440
 H525 H 0.56706 0.22843 0.59536
 C526 C 0.07279 0.55880 0.70539
 C527 C 0.05825 0.57324 0.70530
 C528 C 0.04400 0.57314 0.69094
 C529 C 0.04411 0.55859 0.67651
 C530 C 0.05847 0.54432 0.67660
 C531 C 0.07289 0.54442 0.69112
 C532 C 0.08938 0.55634 0.71647
 N533 N 0.09936 0.54085 0.70925
 C534 C 0.08954 0.53346 0.69377
 C535 C 0.05603 0.53322 0.65999
 N536 N 0.04057 0.54044 0.65001
 C537 C 0.03318 0.55594 0.65985
 C538 C 0.03290 0.58975 0.69341
 N539 N 0.04009 0.59976 0.70888
 C540 C 0.05558 0.58992 0.71626
 H541 H 0.09424 0.56557 0.72836
 H542 H 0.09456 0.52153 0.68466
 H543 H 0.06527 0.52134 0.65511
 H544 H 0.02127 0.56506 0.65484
 H545 H 0.02102 0.59462 0.68420
 H546 H 0.06467 0.59495 0.72817
 C547 C 0.67586 0.54500 0.05894
 C548 C 0.69029 0.54500 0.07346
 C549 C 0.70428 0.55962 0.07382
 C550 C 0.70400 0.57441 0.05967
 C551 C 0.68974 0.57440 0.04532
 C552 C 0.67560 0.55961 0.04496
 C553 C 0.65951 0.53367 0.05608
 N554 N 0.64951 0.54107 0.04072
 C555 C 0.65909 0.55692 0.03381
 C556 C 0.69205 0.59124 0.03458
 N557 N 0.70733 0.60129 0.04207
 C558 C 0.71475 0.59127 0.05741
 C559 C 0.71534 0.55690 0.09038
 N560 N 0.70837 0.54104 0.09990
 C561 C 0.69307 0.53365 0.08981
 H562 H 0.65479 0.52148 0.06497
 H563 H 0.65399 0.56624 0.02210
 H564 H 0.68292 0.59616 0.02265
 H565 H 0.72662 0.59622 0.06660
 H566 H 0.72704 0.56620 0.09555
 H567 H 0.68417 0.52143 0.09444
 C568 C 0.06032 0.70550 0.57406
 C569 C 0.07504 0.70517 0.55987
 C570 C 0.07503 0.69079 0.54561
 C571 C 0.06031 0.67656 0.54538
 C572 C 0.04577 0.67688 0.55941
 C573 C 0.04578 0.69144 0.57383
 C574 C 0.05761 0.71671 0.59054
 N575 N 0.04182 0.70976 0.60014
 C576 C 0.03447 0.69432 0.59017
 C577 C 0.03444 0.66049 0.55662
 N578 N 0.04177 0.65040 0.54128
 C579 C 0.05757 0.65997 0.53429
 C580 C 0.09178 0.69312 0.53478
 N581 N 0.10176 0.70854 0.54214
 C582 C 0.09178 0.71602 0.55747
 H583 H 0.06686 0.72851 0.59560
 H584 H 0.02231 0.68541 0.59489
 H585 H 0.02227 0.65583 0.56553
 H586 H 0.06680 0.65483 0.52254
 H587 H 0.09668 0.68392 0.52289
 H588 H 0.09669 0.72800 0.56657
 C589 C 0.55930 1.04526 0.67573
 C590 C 0.57372 1.04529 0.69026
 C591 C 0.57363 1.05962 0.70458
 C592 C 0.55913 1.07409 0.70453
 C593 C 0.54489 1.07408 0.69016
 C594 C 0.54497 1.05958 0.67568
 C595 C 0.55675 1.03413 0.65916
 N596 N 0.54124 1.04136 0.64925
 C597 C 0.53393 1.05692 0.65908
 C598 C 0.53374 1.09065 0.69276
 N599 N 0.54092 1.10053 0.70833
 C600 C 0.55643 1.09068 0.71564
 C601 C 0.59014 1.05700 0.71575
 N602 N 0.60006 1.04146 0.70854
 C603 C 0.59028 1.03419 0.69297
 H604 H 0.56591 1.02216 0.65431
 H605 H 0.52198 1.06603 0.65416
 H606 H 0.52183 1.09554 0.68359
 H607 H 0.56550 1.09558 0.72763
 H608 H 0.59496 1.06612 0.72773
 H609 H 0.59524 1.02222 0.68389
 C610 C 0.45293 0.32607 0.93873
 C611 C 0.45302 0.31162 0.92420
 C612 C 0.43912 0.29691 0.92442
 C613 C 0.42498 0.29646 0.93917
 C614 C 0.42489 0.31074 0.95353
 C615 C 0.43893 0.32563 0.95331
 C616 C 0.46370 0.34287 0.94132
 N617 N 0.45655 0.35244 0.95708
 C618 C 0.44141 0.34217 0.96453
 C619 C 0.40867 0.30761 0.96494
 N620 N 0.39910 0.29182 0.95783
 C621 C 0.40882 0.28488 0.94209
 C622 C 0.44180 0.28582 0.90786
 N623 N 0.45694 0.29346 0.89776
 C624 C 0.46392 0.30922 0.90750
 H625 H 0.47540 0.34808 0.93208
 H626 H 0.43250 0.34671 0.97676
 H627 H 0.40376 0.31658 0.97701
 H628 H 0.40404 0.27283 0.93301
 H629 H 0.43301 0.27352 0.90316
 H630 H 0.47560 0.31858 0.90246
 C631 C 0.95344 0.44014 0.32573
 C632 C 0.95362 0.42593 0.31097
 C633 C 0.93925 0.42596 0.29673
 C634 C 0.92454 0.44021 0.29709
 C635 C 0.92436 0.45426 0.31167
 C636 C 0.93890 0.45423 0.32607
 C637 C 0.96463 0.44269 0.34224
 N638 N 0.95718 0.45796 0.35240
 C639 C 0.94147 0.46513 0.34279
 C640 C 0.90765 0.46519 0.30927
 N641 N 0.89786 0.45808 0.29363
 C642 C 0.90793 0.44282 0.28607
 C643 C 0.94211 0.40964 0.28531
 N644 N 0.95782 0.39988 0.29229
 C645 C 0.96498 0.40959 0.30796
 H646 H 0.97680 0.43371 0.34686
 H647 H 0.93221 0.47690 0.34792
 H648 H 0.90262 0.47697 0.31858
 H649 H 0.90317 0.43390 0.27391
 H650 H 0.93301 0.40478 0.27333
 H651 H 0.97703 0.40468 0.31694
 C652 C 0.29851 0.93955 0.42301
 C653 C 0.29822 0.92552 0.43791
 C654 C 0.31252 0.92566 0.45222
 C655 C 0.32728 0.93984 0.45180
 C656 C 0.32758 0.95372 0.43707
 C657 C 0.31310 0.95357 0.42259
 C658 C 0.28730 0.94204 0.40652
 N659 N 0.29476 0.95722 0.39628
 C660 C 0.31052 0.96438 0.40583
 C661 C 0.34423 0.96472 0.43955
 N662 N 0.35385 0.95782 0.45539
 C663 C 0.34375 0.94262 0.46299
 C664 C 0.30947 0.90957 0.46388
 N665 N 0.29371 0.89984 0.45696
 C666 C 0.28671 0.90934 0.44111
 H667 H 0.27503 0.93314 0.40201
 H668 H 0.31974 0.97615 0.40068
 H669 H 0.34928 0.97644 0.43021
 H670 H 0.34834 0.93388 0.47534
 H671 H 0.31844 0.90486 0.47601
 H672 H 0.27463 0.90443 0.43217
 O673 O 0.19762 0.52529 0.74869
 O674 O 0.20394 0.52280 0.78192
 O675 O 0.24891 0.55222 0.72519
 O676 O 0.28098 0.54635 0.72445
 O677 O 0.22467 0.50088 0.69769
 O678 O 0.22606 0.46684 0.70492
 O679 O 0.30061 0.49921 0.77549
 O680 O 0.29507 0.53240 0.77172
 O681 O 0.25110 0.47486 0.80081
 O682 O 0.21599 0.47606 0.79396
 O683 O 0.27485 0.44888 0.75118
 O684 O 0.27398 0.45561 0.71640
 O685 O 0.30073 0.47557 0.75201
 O686 O 0.29357 0.47749 0.71582
 O687 O 0.25128 0.44869 0.77452
 O688 O 0.21539 0.45612 0.77237
 O689 O 0.27484 0.49812 0.80080
 O690 O 0.26833 0.53345 0.79441
 O691 O 0.19747 0.50131 0.72550
 O692 O 0.20490 0.46665 0.72696
 O693 O 0.24814 0.52442 0.69762
 O694 O 0.28338 0.52134 0.70568
 O695 O 0.22494 0.55218 0.74819
 O696 O 0.22928 0.54441 0.78334
 Zr697 Zr 0.22598 0.52388 0.76032
 O698 O 0.24295 0.50636 0.77905
 Zr699 Zr 0.26017 0.52361 0.72590
 O700 O 0.27883 0.50670 0.74353
 Zr701 Zr 0.22584 0.48932 0.72611
 O702 O 0.24326 0.47057 0.74319
 Zr703 Zr 0.27256 0.51126 0.77316
 O704 O 0.25568 0.53030 0.75559
 Zr705 Zr 0.23850 0.47663 0.77285
 O706 O 0.21958 0.49406 0.75575
 Zr707 Zr 0.27295 0.47693 0.73878
 O708 O 0.25551 0.49384 0.71959
 O709 O 0.23069 0.51890 0.73077
 O710 O 0.26812 0.48148 0.76839
 C711 C 0.18928 0.51509 0.73532
 C712 C 0.23516 0.56048 0.73488
 C713 C 0.23460 0.51441 0.68939
 C714 C 0.30873 0.48524 0.76597
 C715 C 0.26516 0.48427 0.80886
 C716 C 0.26526 0.44069 0.76499
 H717 H 0.23983 0.50958 0.79276
 H718 H 0.24017 0.45685 0.73990
 H719 H 0.22236 0.52726 0.72242
 H720 H 0.29255 0.51004 0.74064
 H721 H 0.28886 0.54478 0.76753
 H722 H 0.29092 0.54355 0.73452
 H723 H 0.21764 0.44710 0.76131
 H724 H 0.19827 0.46769 0.73974
 H725 H 0.27945 0.53294 0.80366
 H726 H 0.21895 0.55450 0.78214
 H727 H 0.26162 0.44819 0.71684
 H728 H 0.23915 0.46710 0.69885
 H729 H 0.19856 0.50937 0.78169
 H730 H 0.21705 0.48813 0.80186
 H731 H 0.28107 0.50933 0.69793
 H732 H 0.30272 0.48838 0.71835
 O733 O 0.19805 0.02509 0.24856
 O734 O 0.20448 0.02271 0.28185
 O735 O 0.24918 0.05182 0.22473
 O736 O 0.28127 0.04598 0.22394
 O737 O 0.22489 0.00025 0.19771
 O738 O 0.22633 -0.03375 0.20521
 O739 O 0.30118 -0.00080 0.27514
 O740 O 0.29556 0.03238 0.27119
 O741 O 0.25185 -0.02504 0.30088
 O742 O 0.21670 -0.02386 0.29425
 O743 O 0.27529 -0.05132 0.25130
 O744 O 0.27426 -0.04480 0.21647
 O745 O 0.30117 -0.02463 0.25184
 O746 O 0.29388 -0.02297 0.21570
 O747 O 0.25181 -0.05138 0.27474
 O748 O 0.21592 -0.04392 0.27277
 O749 O 0.27558 -0.00177 0.30058
 O750 O 0.26895 0.03352 0.29403
 O751 O 0.19784 0.00096 0.22553
 O752 O 0.20521 -0.03371 0.22734
 O753 O 0.24833 0.02384 0.19737
 O754 O 0.28361 0.02083 0.20529
 O755 O 0.22534 0.05192 0.24786
 O756 O 0.22980 0.04439 0.28304
 Zr757 Zr 0.22644 0.02370 0.26017
 O758 O 0.24352 0.00634 0.27895
 Zr759 Zr 0.26049 0.02323 0.22561
 O760 O 0.27924 0.00644 0.24326
 Zr761 Zr 0.22618 -0.01109 0.22620
 O762 O 0.24368 -0.02970 0.24334
 Zr763 Zr 0.27310 0.01121 0.27288
 O764 O 0.25612 0.03011 0.25527
 Zr765 Zr 0.23906 -0.02343 0.27299
 O766 O 0.22004 -0.00614 0.25584
 Zr767 Zr 0.27334 -0.02336 0.23873
 O768 O 0.25582 -0.00658 0.21951
 O769 O 0.23105 0.01853 0.23064
 O770 O 0.26865 -0.01861 0.26834
 C771 C 0.18970 0.01485 0.23523
 C772 C 0.23547 0.06013 0.23443
 C773 C 0.23475 0.01376 0.18928
 C774 C 0.30925 -0.01484 0.26568
 C775 C 0.26597 -0.01559 0.30878
 C776 C 0.26574 -0.05944 0.26518
 H777 H 0.24047 0.00965 0.29266
 H778 H 0.24057 -0.04345 0.24016
 H779 H 0.22270 0.02683 0.22226
 H780 H 0.29295 0.00977 0.24028
 H781 H 0.28931 0.04472 0.26696
 H782 H 0.29130 0.04321 0.23394
 H783 H 0.21807 -0.05297 0.26171
 H784 H 0.19860 -0.03252 0.24012
 H785 H 0.28012 0.03308 0.30322
 H786 H 0.21942 0.05444 0.28183
 H787 H 0.26193 -0.05226 0.21705
 H788 H 0.23937 -0.03350 0.19904
 H789 H 0.19906 0.00930 0.28166
 H790 H 0.21776 -0.01170 0.30201
 H791 H 0.28127 0.00877 0.19765
 H792 H 0.30301 -0.01203 0.21809
 O793 O 0.55222 0.72512 0.24845
 O794 O 0.54598 0.72769 0.28171
 O795 O 0.50086 0.69820 0.22496
 O796 O 0.46881 0.70413 0.22408
 O797 O 0.52512 0.74960 0.19755
 O798 O 0.52373 0.78362 0.20486
 O799 O 0.44925 0.75123 0.27524
 O800 O 0.45483 0.71805 0.27147
 O801 O 0.49885 0.77561 0.30069
 O802 O 0.53391 0.77440 0.29388
 O803 O 0.47499 0.80155 0.25113
 O804 O 0.47584 0.79484 0.21631
 O805 O 0.44911 0.77485 0.25179
 O806 O 0.45625 0.77297 0.21564
 O807 O 0.49862 0.80175 0.27447
 O808 O 0.53452 0.79431 0.27230
 O809 O 0.47506 0.75239 0.30061
 O810 O 0.48158 0.71703 0.29418
 O811 O 0.55233 0.74912 0.22534
 O812 O 0.54492 0.78379 0.22693
 O813 O 0.50168 0.72601 0.19739
 O814 O 0.46642 0.72912 0.20542
 O815 O 0.52486 0.69825 0.24798
 O816 O 0.52065 0.70607 0.28312
 Zr817 Zr 0.52389 0.72658 0.26012
 O818 O 0.50694 0.74409 0.27887
 Zr819 Zr 0.48965 0.72684 0.22566
 O820 O 0.47102 0.74375 0.24331
 Zr821 Zr 0.52397 0.76113 0.22598
 O822 O 0.50658 0.77988 0.24309
 Zr823 Zr 0.47731 0.73920 0.27295
 O824 O 0.49418 0.72017 0.25534
 Zr825 Zr 0.51139 0.77381 0.27274
 O826 O 0.53028 0.75639 0.25561
 Zr827 Zr 0.47689 0.77351 0.23863
 O828 O 0.49430 0.75660 0.21942
 O829 O 0.51913 0.73154 0.23057
 O830 O 0.48176 0.76898 0.26824
 C831 C 0.56052 0.73532 0.23510
 C832 C 0.51460 0.68993 0.23467
 C833 C 0.51521 0.73604 0.18920
 C834 C 0.44111 0.76517 0.26571
 C835 C 0.48477 0.76624 0.30870
 C836 C 0.48460 0.80974 0.26496
 H837 H 0.51008 0.74088 0.29258
 H838 H 0.50967 0.79361 0.23984
 H839 H 0.52744 0.72317 0.22222
 H840 H 0.45729 0.74039 0.24040
 H841 H 0.46103 0.70567 0.26725
 H842 H 0.45896 0.70685 0.23424
 H843 H 0.53223 0.80335 0.26128
 H844 H 0.55159 0.78272 0.23970
 H845 H 0.47049 0.71757 0.30343
 H846 H 0.53099 0.69599 0.28191
 H847 H 0.48818 0.80230 0.21681
 H848 H 0.51062 0.78338 0.19879
 H849 H 0.55139 0.74110 0.28147
 H850 H 0.53291 0.76230 0.30170
 H851 H 0.46875 0.74110 0.19767
 H852 H 0.44714 0.76204 0.21809
 O853 O 0.05171 0.72499 0.74871
 O854 O 0.04545 0.72740 0.78199
 O855 O 0.00038 0.69819 0.72506
 O856 O -0.03167 0.70413 0.72417
 O857 O 0.02467 0.74972 0.69793
 O858 O 0.02323 0.78372 0.70542
 O859 O -0.05126 0.75098 0.77562
 O860 O -0.04575 0.71783 0.77158
 O861 O -0.00166 0.77511 0.80123
 O862 O 0.03339 0.77401 0.79439
 O863 O -0.02549 0.80142 0.75174
 O864 O -0.02465 0.79488 0.71690
 O865 O -0.05140 0.77472 0.75229
 O866 O -0.04425 0.77303 0.71612
 O867 O -0.00192 0.80147 0.77514
 O868 O 0.03396 0.79408 0.77297
 O869 O -0.02542 0.75186 0.80100
 O870 O -0.01897 0.71658 0.79427
 O871 O 0.05184 0.74912 0.72574
 O872 O 0.04443 0.78378 0.72751
 O873 O 0.00123 0.72614 0.69763
 O874 O -0.03404 0.72924 0.70563
 O875 O 0.02436 0.69813 0.74810
 O876 O 0.02013 0.70576 0.78326
 Zr877 Zr 0.02338 0.72639 0.76037
 O878 O 0.00640 0.74379 0.77920
 Zr879 Zr -0.01083 0.72683 0.72589
 O880 O -0.02949 0.74365 0.74362
 Zr881 Zr 0.02348 0.76113 0.72643
 O882 O 0.00607 0.77977 0.74363
 Zr883 Zr -0.02321 0.73893 0.77323
 O884 O -0.00633 0.71999 0.75554
 Zr885 Zr 0.01086 0.77355 0.77325
 O886 O 0.02977 0.75622 0.75604
 Zr887 Zr -0.02361 0.77344 0.73912
 O888 O -0.00619 0.75663 0.71982
 O889 O 0.01864 0.73151 0.73085
 O890 O -0.01877 0.76874 0.76871
 C891 C 0.06003 0.73526 0.73543
 C892 C 0.01411 0.68988 0.73475
 C893 C 0.01478 0.73620 0.68951
 C894 C -0.05940 0.76498 0.76616
 C895 C -0.01569 0.76563 0.80920
 C896 C -0.01589 0.80953 0.76563
 H897 H 0.00954 0.74049 0.79289
 H898 H 0.00916 0.79352 0.74046
 H899 H 0.02695 0.72318 0.72246
 H900 H -0.04321 0.74031 0.74068
 H901 H -0.03956 0.70546 0.76728
 H902 H -0.04158 0.70684 0.73428
 H903 H 0.03171 0.80314 0.76196
 H904 H 0.05108 0.78265 0.74029
 H905 H -0.03008 0.71703 0.80352
 H906 H 0.03049 0.69569 0.78201
 H907 H -0.01229 0.80230 0.71742
 H908 H 0.01014 0.78348 0.69931
 H909 H 0.05091 0.74080 0.78178
 H910 H 0.03241 0.76185 0.80212
 H911 H -0.03170 0.74127 0.69796
 H912 H -0.05336 0.76208 0.71851
 O913 O -0.05266 -0.00210 -0.02492
 O914 O -0.04647 0.03126 -0.02228
 O915 O -0.00137 -0.02557 -0.05181
 O916 O 0.03074 -0.02616 -0.04601
 O917 O -0.02538 -0.05318 -0.00063
 O918 O -0.02405 -0.04590 0.03332
 O919 O 0.05029 0.02489 0.00107
 O920 O 0.04462 0.02121 -0.03201
 O921 O 0.00069 0.05024 0.02557
 O922 O -0.03441 0.04334 0.02432
 O923 O 0.02466 0.00061 0.05129
 O924 O 0.02385 -0.03430 0.04454
 O925 O 0.05050 0.00135 0.02461
 O926 O 0.04340 -0.03490 0.02272
 O927 O 0.00094 0.02391 0.05157
 O928 O -0.03494 0.02168 0.04416
 O929 O 0.02446 0.05025 0.00241
 O930 O 0.01785 0.04395 -0.03287
 O931 O -0.05271 -0.02539 -0.00109
 O932 O -0.04530 -0.02382 0.03352
 O933 O -0.00194 -0.05319 -0.02415
 O934 O 0.03325 -0.04504 -0.02112
 O935 O -0.02540 -0.00252 -0.05170
 O936 O -0.02115 0.03272 -0.04387
 Zr937 Zr -0.02436 0.00964 -0.02345
 O938 O -0.00743 0.02844 -0.00593
 Zr939 Zr 0.00996 -0.02480 -0.02329
 O940 O 0.02857 -0.00711 -0.00638
 Zr941 Zr -0.02434 -0.02467 0.01093
 O942 O -0.00697 -0.00752 0.02967
 Zr943 Zr 0.02219 0.02258 -0.01085
 O944 O 0.00535 0.00495 -0.02988
 Zr945 Zr -0.01184 0.02221 0.02370
 O946 O -0.03072 0.00503 0.00628
 Zr947 Zr 0.02273 -0.01189 0.02330
 O948 O 0.00535 -0.03115 0.00639
 O949 O -0.01953 -0.01998 -0.01856
 O950 O 0.01779 0.01778 0.01884
 C951 C -0.06093 -0.01557 -0.01482
 C952 C -0.01517 -0.01588 -0.06001
 C953 C -0.01542 -0.06147 -0.01416
 C954 C 0.05847 0.01531 0.01494
 C955 C 0.01477 0.05830 0.01626
 C956 C 0.01501 0.01442 0.05950
 H957 H -0.01060 0.04219 -0.00910
 H958 H -0.01003 -0.01082 0.04336
 H959 H -0.02782 -0.02838 -0.02691
 H960 H 0.04229 -0.01000 -0.00974
 H961 H 0.03839 0.01702 -0.04437
 H962 H 0.04067 -0.01608 -0.04316
 H963 H -0.03266 0.01057 0.05311
 H964 H -0.05200 -0.01104 0.03247
 H965 H 0.02894 0.05324 -0.03232
 H966 H -0.03151 0.03151 -0.05392
 H967 H 0.01152 -0.03383 0.05200
 H968 H -0.01091 -0.05191 0.03310
 H969 H -0.05187 0.03097 -0.00890
 H970 H -0.03338 0.05127 0.01231
 H971 H 0.03101 -0.05279 -0.00915
 H972 H 0.05249 -0.03241 0.01181
 O973 O 0.00126 0.55250 0.52493
 O974 O -0.03201 0.54625 0.52235
 O975 O 0.02475 0.50098 0.55165
 O976 O 0.02568 0.46887 0.54567
 O977 O 0.05213 0.52541 0.50040
 O978 O 0.04479 0.52404 0.46647
 O979 O -0.02554 0.44927 0.49877
 O980 O -0.02175 0.45486 0.53185
 O981 O -0.05103 0.49901 0.47452
 O982 O -0.04425 0.53417 0.47579
 O983 O -0.00150 0.47520 0.44853
 O984 O 0.03329 0.47598 0.45517
 O985 O -0.00215 0.44917 0.47516
 O986 O 0.03403 0.45637 0.47699
 O987 O -0.02481 0.49890 0.44840
 O988 O -0.02270 0.53484 0.45591
 O989 O -0.05092 0.47514 0.49764
 O990 O -0.04446 0.48167 0.53292
 O991 O 0.02435 0.55266 0.50097
 O992 O 0.02269 0.54527 0.46635
 O993 O 0.05232 0.50189 0.52389
 O994 O 0.04430 0.46653 0.52071
 O995 O 0.00173 0.52503 0.55166
 O996 O -0.03341 0.52083 0.54388
 Zr997 Zr -0.01042 0.52410 0.52342
 O998 O -0.02919 0.50711 0.50595
 Zr999 Zr 0.02405 0.48980 0.52306
 O1000 O 0.00638 0.47112 0.50619
 Zr1001 Zr 0.02368 0.52425 0.48892
 O1002 O 0.00656 0.50681 0.47022
 Zr1003 Zr -0.02325 0.47741 0.51077
 O1004 O -0.00563 0.49431 0.52976
 Zr1005 Zr -0.02309 0.51161 0.47630
 O1006 O -0.00595 0.53055 0.49369
 Zr1007 Zr 0.01101 0.47704 0.47650
 O1008 O 0.03025 0.49449 0.49337
 O1009 O 0.01913 0.51935 0.51843
 O1010 O -0.01859 0.48190 0.48107
 C1011 C 0.01461 0.56084 0.51477
 C1012 C 0.01503 0.51473 0.55993
 C1013 C 0.06049 0.51547 0.51391
 C1014 C -0.01603 0.44112 0.48485
 C1015 C -0.05903 0.48489 0.48386
 C1016 C -0.01530 0.48488 0.44038
 H1017 H -0.04289 0.51025 0.50917
 H1018 H 0.00980 0.50993 0.45653
 H1019 H 0.02748 0.52767 0.52680
 H1020 H 0.00930 0.45736 0.50951
 H1021 H -0.01751 0.46108 0.54420
 H1022 H 0.01550 0.45900 0.54296
 H1023 H -0.01163 0.53262 0.44693
 H1024 H 0.00994 0.55199 0.46749
 H1025 H -0.05371 0.47054 0.53238
 H1026 H -0.03220 0.53120 0.55395
 H1027 H 0.03286 0.48842 0.44785
 H1028 H 0.05087 0.51091 0.46670
 H1029 H -0.03175 0.55170 0.50898
 H1030 H -0.05205 0.53315 0.48787
 H1031 H 0.05204 0.46890 0.50877
 H1032 H 0.03158 0.44722 0.48787
 O1033 O 0.55227 0.02576 0.50140
 O1034 O 0.54608 0.02301 0.46814
 O1035 O 0.50089 0.05273 0.52465
 O1036 O 0.46883 0.04681 0.52542
 O1037 O 0.52518 0.00148 0.55236
 O1038 O 0.52388 -0.03256 0.54519
 O1039 O 0.44943 -0.00052 0.47433
 O1040 O 0.45490 0.03268 0.47808
 O1041 O 0.49907 -0.02497 0.44922
 O1042 O 0.53415 -0.02372 0.45618
 O1043 O 0.47519 -0.05074 0.49879
 O1044 O 0.47593 -0.04390 0.53356
 O1045 O 0.44927 -0.02406 0.49785
 O1046 O 0.45634 -0.02198 0.53409
 O1047 O 0.49884 -0.05102 0.47553
 O1048 O 0.53470 -0.04360 0.47780
 O1049 O 0.47527 -0.00172 0.44913
 O1050 O 0.48171 0.03366 0.45548
 O1051 O 0.55243 0.00188 0.52463
 O1052 O 0.54507 -0.03284 0.52315
 O1053 O 0.50169 0.02505 0.55234
 O1054 O 0.46645 0.02188 0.54420
 O1055 O 0.52490 0.05257 0.50169
 O1056 O 0.52071 0.04463 0.46658
 Zr1057 Zr 0.52397 0.02422 0.48967
 O1058 O 0.50708 0.00662 0.47094
 Zr1059 Zr 0.48970 0.02409 0.52402
 O1060 O 0.47111 0.00710 0.50637
 Zr1061 Zr 0.52409 -0.01018 0.52395
 O1062 O 0.50673 -0.02901 0.50687
 Zr1063 Zr 0.47745 0.01154 0.47675
 O1064 O 0.49425 0.03065 0.49433
 Zr1065 Zr 0.51157 -0.02307 0.47721
 O1066 O 0.53042 -0.00557 0.49433
 Zr1067 Zr 0.47702 -0.02264 0.51118
 O1068 O 0.49439 -0.00565 0.53039
 O1069 O 0.51920 0.01938 0.51922
 O1070 O 0.48193 -0.01821 0.48158
 C1071 C 0.56060 0.01565 0.51483
 C1072 C 0.51463 0.06094 0.51494
 C1073 C 0.51524 0.01506 0.56061
 C1074 C 0.44129 -0.01445 0.48384
 C1075 C 0.48500 -0.01560 0.44113
 C1076 C 0.48483 -0.05898 0.48502
 H1077 H 0.51023 0.00978 0.45722
 H1078 H 0.50983 -0.04272 0.51019
 H1079 H 0.52747 0.02779 0.52757
 H1080 H 0.45737 0.01046 0.50921
 H1081 H 0.46106 0.04508 0.48227
 H1082 H 0.45896 0.04401 0.51528
 H1083 H 0.53245 -0.05255 0.48889
 H1084 H 0.55177 -0.03180 0.51041
 H1085 H 0.47063 0.03310 0.44618
 H1086 H 0.53104 0.05471 0.46776
 H1087 H 0.48833 -0.05128 0.53320
 H1088 H 0.51076 -0.03233 0.55119
 H1089 H 0.55153 0.00961 0.46848
 H1090 H 0.53310 -0.01168 0.44826
 H1091 H 0.46879 0.00992 0.55198
 H1092 H 0.44716 -0.01113 0.53149
 O1093 O 0.50070 0.55179 0.02537
 O1094 O 0.46743 0.54554 0.02277
 O1095 O 0.52413 0.50026 0.05213
 O1096 O 0.52487 0.46811 0.04618
 O1097 O 0.55162 0.52457 0.00095
 O1098 O 0.54433 0.52328 -0.03299
 O1099 O 0.47382 0.44862 -0.00097
 O1100 O 0.47757 0.45412 0.03215
 O1101 O 0.44845 0.49843 -0.02514
 O1102 O 0.45532 0.53358 -0.02384
 O1103 O 0.49801 0.47453 -0.05105
 O1104 O 0.53289 0.47537 -0.04427
 O1105 O 0.49730 0.44852 -0.02450
 O1106 O 0.53341 0.45559 -0.02261
 O1107 O 0.47470 0.49824 -0.05121
 O1108 O 0.47690 0.53420 -0.04370
 O1109 O 0.44848 0.47454 -0.00205
 O1110 O 0.45490 0.48097 0.03323
 O1111 O 0.52386 0.55191 0.00147
 O1112 O 0.52231 0.54456 -0.03312
 O1113 O 0.55171 0.50102 0.02442
 O1114 O 0.54363 0.46572 0.02127
 O1115 O 0.50113 0.52433 0.05211
 O1116 O 0.46600 0.52011 0.04428
 Zr1117 Zr 0.48901 0.52339 0.02385
 O1118 O 0.47026 0.50645 0.00632
 Zr1119 Zr 0.52341 0.48903 0.02355
 O1120 O 0.50577 0.47040 0.00660
 Zr1121 Zr 0.52319 0.52351 -0.01058
 O1122 O 0.50607 0.50613 -0.02934
 Zr1123 Zr 0.47614 0.47673 0.01112
 O1124 O 0.49373 0.49359 0.03018
 Zr1125 Zr 0.47642 0.51097 -0.02331
 O1126 O 0.49356 0.52986 -0.00586
 Zr1127 Zr 0.51049 0.47635 -0.02307
 O1128 O 0.52970 0.49374 -0.00612
 O1129 O 0.51856 0.51860 0.01892
 O1130 O 0.48088 0.48125 -0.01856
 C1131 C 0.51408 0.56011 0.01523
 C1132 C 0.51443 0.51403 0.06039
 C1133 C 0.55994 0.51458 0.01444
 C1134 C 0.48336 0.44049 -0.01489
 C1135 C 0.44041 0.48432 -0.01583
 C1136 C 0.48421 0.48421 -0.05921
 H1137 H 0.45655 0.50960 0.00952
 H1138 H 0.50934 0.50926 -0.04302
 H1139 H 0.52692 0.52690 0.02729
 H1140 H 0.50866 0.45663 0.00991
 H1141 H 0.48178 0.46031 0.04453
 H1142 H 0.51479 0.45818 0.04335
 H1143 H 0.48795 0.53193 -0.05269
 H1144 H 0.50954 0.55125 -0.03207
 H1145 H 0.44563 0.46985 0.03267
 H1146 H 0.46720 0.53047 0.05436
 H1147 H 0.53231 0.48770 -0.05177
 H1148 H 0.55037 0.51013 -0.03279
 H1149 H 0.46771 0.55102 0.00941
 H1150 H 0.44747 0.53255 -0.01179
 H1151 H 0.55134 0.46803 0.00929
 H1152 H 0.53099 0.44650 -0.01167
 O1153 O 0.77606 0.30179 0.49912
 O1154 O 0.77345 0.29555 0.53242
 O1155 O 0.80278 0.25033 0.47564
 O1156 O 0.79691 0.21815 0.47501
 O1157 O 0.75155 0.27462 0.44818
 O1158 O 0.71762 0.27339 0.45545
 O1159 O 0.74979 0.19868 0.52598
 O1160 O 0.78288 0.20412 0.52222
 O1161 O 0.72563 0.24853 0.55132
 O1162 O 0.72686 0.28364 0.54448
 O1163 O 0.69961 0.22471 0.50165
 O1164 O 0.70642 0.22543 0.46684
 O1165 O 0.72621 0.19860 0.50250
 O1166 O 0.72809 0.20564 0.46637
 O1167 O 0.69947 0.24842 0.52497
 O1168 O 0.70703 0.28433 0.52287
 O1169 O 0.74879 0.22465 0.55132
 O1170 O 0.78404 0.23098 0.54488
 O1171 O 0.75216 0.30195 0.47592
 O1172 O 0.71753 0.29467 0.47750
 O1173 O 0.77502 0.25104 0.44809
 O1174 O 0.77195 0.21575 0.45616
 O1175 O 0.80276 0.27437 0.49869
 O1176 O 0.79502 0.27010 0.53382
 Zr1177 Zr 0.77454 0.27341 0.51081
 O1178 O 0.75704 0.25649 0.52953
 Zr1179 Zr 0.77423 0.23906 0.47639
 O1180 O 0.75731 0.22045 0.49402
 Zr1181 Zr 0.74007 0.27357 0.47661
 O1182 O 0.72134 0.25621 0.49369
 Zr1183 Zr 0.76186 0.22677 0.52365
 O1184 O 0.78089 0.24360 0.50609
 Zr1185 Zr 0.72740 0.26105 0.52335
 O1186 O 0.74481 0.27992 0.50624
 Zr1187 Zr 0.72763 0.22642 0.48928
 O1188 O 0.74454 0.24380 0.47009
 O1189 O 0.76957 0.26863 0.48126
 O1190 O 0.73216 0.23131 0.51890
 C1191 C 0.76595 0.31012 0.48569
 C1192 C 0.81102 0.26412 0.48535
 C1193 C 0.76503 0.26462 0.43987
 C1194 C 0.73586 0.19055 0.51644
 C1195 C 0.73502 0.23445 0.55939
 C1196 C 0.69144 0.23444 0.51540
 H1197 H 0.76027 0.25965 0.54325
 H1198 H 0.70766 0.25937 0.49039
 H1199 H 0.77791 0.27691 0.47290
 H1200 H 0.76062 0.20667 0.49113
 H1201 H 0.79525 0.21027 0.51800
 H1202 H 0.79402 0.20814 0.48499
 H1203 H 0.69807 0.28213 0.51176
 H1204 H 0.71866 0.30141 0.49024
 H1205 H 0.78351 0.21987 0.55414
 H1206 H 0.80507 0.28047 0.53265
 H1207 H 0.69898 0.23781 0.46733
 H1208 H 0.71784 0.26026 0.44937
 H1209 H 0.76011 0.30110 0.53206
 H1210 H 0.73897 0.28265 0.55228
 H1211 H 0.75994 0.21804 0.44847
 H1212 H 0.73902 0.19652 0.46883
 O1213 O 0.80178 0.75060 -0.02598
 O1214 O 0.79522 0.71732 -0.02355
 O1215 O 0.75061 0.77471 -0.05264
 O1216 O 0.71852 0.77556 -0.04677
 O1217 O 0.77517 0.80192 -0.00146
 O1218 O 0.77390 0.79464 0.03246
 O1219 O 0.69873 0.72455 0.00024
 O1220 O 0.70416 0.72828 -0.03282
 O1221 O 0.74828 0.69871 0.02437
 O1222 O 0.78335 0.70531 0.02314
 O1223 O 0.72492 0.74865 0.05045
 O1224 O 0.72590 0.78349 0.04377
 O1225 O 0.69885 0.74807 0.02385
 O1226 O 0.70625 0.78427 0.02201
 O1227 O 0.74836 0.72508 0.05055
 O1228 O 0.78422 0.72695 0.04300
 O1229 O 0.72442 0.69892 0.00125
 O1230 O 0.73076 0.70536 -0.03401
 O1231 O 0.80218 0.77382 -0.00204
 O1232 O 0.79489 0.77234 0.03257
 O1233 O 0.75157 0.80225 -0.02487
 O1234 O 0.71630 0.79441 -0.02177
 O1235 O 0.77441 0.75144 -0.05270
 O1236 O 0.76977 0.71621 -0.04506
 Zr1237 Zr 0.77335 0.73919 -0.02452
 O1238 O 0.75635 0.72053 -0.00702
 Zr1239 Zr 0.73939 0.77397 -0.02411
 O1240 O 0.72070 0.75641 -0.00721
 Zr1241 Zr 0.77386 0.77342 0.01002
 O1242 O 0.75642 0.75642 0.02873
 Zr1243 Zr 0.72676 0.72666 -0.01181
 O1244 O 0.74365 0.74418 -0.03083
 Zr1245 Zr 0.76098 0.72666 0.02263
 O1246 O 0.77992 0.74367 0.00521
 Zr1247 Zr 0.72673 0.76108 0.02247
 O1248 O 0.74421 0.78021 0.00559
 O1249 O 0.76885 0.76884 -0.01948
 O1250 O 0.73135 0.73135 0.01790
 C1251 C 0.81024 0.76392 -0.01582
 C1252 C 0.76429 0.76493 -0.06092
 C1253 C 0.76522 0.81036 -0.01491
 C1254 C 0.69070 0.73419 0.01417
 C1255 C 0.73416 0.69074 0.01499
 C1256 C 0.73451 0.73477 0.05860
 H1257 H 0.75939 0.70676 -0.01026
 H1258 H 0.75960 0.75968 0.04241
 H1259 H 0.77720 0.77717 -0.02781
 H1260 H 0.70698 0.75942 -0.01052
 H1261 H 0.71032 0.73248 -0.04518
 H1262 H 0.70849 0.76559 -0.04392
 H1263 H 0.78208 0.73805 0.05201
 H1264 H 0.80148 0.75951 0.03145
 H1265 H 0.71961 0.69615 -0.03347
 H1266 H 0.78008 0.71734 -0.05514
 H1267 H 0.73832 0.78299 0.05110
 H1268 H 0.76084 0.80083 0.03226
 H1269 H 0.80072 0.71751 -0.01019
 H1270 H 0.78227 0.69748 0.01105
 H1271 H 0.71869 0.80213 -0.00978
 H1272 H 0.69707 0.78185 0.01114
 O1273 O 0.97474 0.30226 0.25146
 O1274 O 0.97724 0.29597 0.21819
 O1275 O 0.94808 0.25079 0.27494
 O1276 O 0.95404 0.21865 0.27575
 O1277 O 0.99936 0.27522 0.30233
 O1278 O 1.03328 0.27387 0.29500
 O1279 O 1.00086 0.19906 0.22455
 O1280 O 0.96777 0.20461 0.22837
 O1281 O 1.02508 0.24873 0.19916
 O1282 O 1.02376 0.28394 0.20597
 O1283 O 1.05115 0.22502 0.24864
 O1284 O 1.04456 0.22583 0.28345
 O1285 O 1.02455 0.19898 0.24792
 O1286 O 1.02277 0.20616 0.28412
 O1287 O 1.05122 0.24871 0.22536
 O1288 O 1.04371 0.28464 0.22752
 O1289 O 1.00195 0.22487 0.19925
 O1290 O 0.96667 0.23140 0.20568
 O1291 O 0.99873 0.30245 0.27457
 O1292 O 1.03335 0.29509 0.27293
 O1293 O 0.97588 0.25168 0.30248
 O1294 O 0.97904 0.21632 0.29442
 O1295 O 0.94802 0.27481 0.25194
 O1296 O 0.95570 0.27053 0.21679
 Zr1297 Zr 0.97622 0.27385 0.23977
 O1298 O 0.99366 0.25687 0.22098
 Zr1299 Zr 0.97665 0.23958 0.27420
 O1300 O 0.99350 0.22090 0.25651
 Zr1301 Zr 1.01079 0.27405 0.27388
 O1302 O 1.02947 0.25662 0.25674
 Zr1303 Zr 0.98885 0.22718 0.22690
 O1304 O 0.96989 0.24407 0.24453
 Zr1305 Zr 1.02332 0.26140 0.22710
 O1306 O 1.00596 0.28033 0.24426
 Zr1307 Zr 1.02320 0.22684 0.26116
 O1308 O 1.00636 0.24429 0.28041
 O1309 O 0.98128 0.26913 0.26931
 O1310 O 1.01856 0.23169 0.23157
 C1311 C 0.98491 0.31061 0.26483
 C1312 C 0.93979 0.26455 0.26526
 C1313 C 0.98587 0.26528 0.31067
 C1314 C 1.01483 0.19093 0.23402
 C1315 C 1.01574 0.23458 0.19117
 C1316 C 1.05926 0.23469 0.23484
 H1317 H 0.99041 0.25999 0.20728
 H1318 H 1.04316 0.25975 0.25999
 H1319 H 0.97294 0.27745 0.27768
 H1320 H 0.99019 0.20714 0.25941
 H1321 H 0.95543 0.21083 0.23260
 H1322 H 0.95678 0.20873 0.26561
 H1323 H 1.05271 0.28244 0.23858
 H1324 H 1.03220 0.30179 0.26019
 H1325 H 0.96720 0.22027 0.19641
 H1326 H 0.94563 0.28090 0.21801
 H1327 H 1.05192 0.23826 0.28301
 H1328 H 1.03307 0.26074 0.30106
 H1329 H 0.99061 0.30142 0.21843
 H1330 H 1.01171 0.28284 0.19810
 H1331 H 0.99102 0.21868 0.30214
 H1332 H 1.01189 0.19700 0.28164
 O1333 O 0.69778 1.02505 0.74902
 O1334 O 0.70394 1.02245 0.78231
 O1335 O 0.74927 1.05181 0.72583
 O1336 O 0.78131 1.04583 0.72516
 O1337 O 0.72496 1.00054 0.69818
 O1338 O 0.72626 0.96647 0.70543
 O1339 O 0.80062 0.99868 0.77624
 O1340 O 0.79515 1.03187 0.77247
 O1341 O 0.75091 0.97449 0.80144
 O1342 O 0.71583 0.97577 0.79442
 O1343 O 0.77480 0.94840 0.75192
 O1344 O 0.77406 0.95508 0.71713
 O1345 O 0.80076 0.97505 0.75274
 O1346 O 0.79368 0.97691 0.71655
 O1347 O 0.75114 0.94828 0.77516
 O1348 O 0.71529 0.95577 0.77287
 O1349 O 0.77474 0.99765 0.80149
 O1350 O 0.76834 1.03299 0.79507
 O1351 O 0.69766 1.00106 0.72584
 O1352 O 0.70497 0.96638 0.72738
 O1353 O 0.74848 1.02405 0.69822
 O1354 O 0.78368 1.02081 0.70639
 O1355 O 0.72520 1.05183 0.74872
 O1356 O 0.72931 1.04402 0.78387
 Zr1357 Zr 0.72608 1.02351 0.76082
 O1358 O 0.74295 1.00597 0.77961
 Zr1359 Zr 0.76042 1.02316 0.72654
 O1360 O 0.77896 1.00619 0.74423
 Zr1361 Zr 0.72599 0.98897 0.72660
 O1362 O 0.74329 0.97017 0.74377
 Zr1363 Zr 0.77260 1.01078 0.77383
 O1364 O 0.75582 1.02986 0.75620
 Zr1365 Zr 0.73844 0.97625 0.77342
 O1366 O 0.71963 0.99372 0.75622
 Zr1367 Zr 0.77301 0.97644 0.73947
 O1368 O 0.75570 0.99341 0.72020
 O1369 O 0.73091 1.01854 0.73129
 O1370 O 0.76809 0.98101 0.76906
 C1371 C 0.68948 1.01489 0.73559
 C1372 C 0.73551 1.06011 0.73547
 C1373 C 0.73494 1.01408 0.68993
 C1374 C 0.80876 0.98472 0.76671
 C1375 C 0.76497 0.98386 0.80953
 C1376 C 0.76514 0.94024 0.76569
 H1377 H 0.73978 1.00920 0.79331
 H1378 H 0.74017 0.95645 0.74048
 H1379 H 0.72265 1.02693 0.72291
 H1380 H 0.79270 1.00950 0.74138
 H1381 H 0.78899 1.04427 0.76825
 H1382 H 0.79122 1.04298 0.73525
 H1383 H 0.71753 0.94679 0.76178
 H1384 H 0.69831 0.96743 0.74014
 H1385 H 0.77943 1.03246 0.80436
 H1386 H 0.71898 1.05412 0.78264
 H1387 H 0.76166 0.94771 0.71751
 H1388 H 0.73937 0.96672 0.69939
 H1389 H 0.69846 1.00906 0.78198
 H1390 H 0.71687 0.98784 0.80230
 H1391 H 0.78134 1.00883 0.69862
 H1392 H 0.80283 0.98781 0.71907
 O1393 O 0.69769 0.52529 0.24864
 O1394 O 0.70401 0.52288 0.28188
 O1395 O 0.74903 0.55215 0.22511
 O1396 O 0.78109 0.54624 0.22434
 O1397 O 0.72474 0.50074 0.19772
 O1398 O 0.72614 0.46672 0.20504
 O1399 O 0.80071 0.49933 0.27549
 O1400 O 0.79511 0.53248 0.27168
 O1401 O 0.75120 0.47497 0.30091
 O1402 O 0.71608 0.47621 0.29409
 O1403 O 0.77486 0.44884 0.25135
 O1404 O 0.77408 0.45547 0.21659
 O1405 O 0.80081 0.47558 0.25211
 O1406 O 0.79363 0.47735 0.21592
 O1407 O 0.75125 0.44872 0.27466
 O1408 O 0.71541 0.45622 0.27256
 O1409 O 0.77495 0.49822 0.30082
 O1410 O 0.76839 0.53354 0.29438
 O1411 O 0.69755 0.50125 0.22553
 O1412 O 0.70497 0.46659 0.22707
 O1413 O 0.74822 0.52428 0.19759
 O1414 O 0.78346 0.52118 0.20565
 O1415 O 0.72504 0.55217 0.24809
 O1416 O 0.72935 0.54449 0.28326
 Zr1417 Zr 0.72606 0.52390 0.26029
 O1418 O 0.74303 0.50644 0.27907
 Zr1419 Zr 0.76025 0.52352 0.22587
 O1420 O 0.77890 0.50666 0.24355
 Zr1421 Zr 0.72592 0.48925 0.22617
 O1422 O 0.74333 0.47055 0.24331
 Zr1423 Zr 0.77264 0.51131 0.27316
 O1424 O 0.75576 0.53030 0.25554
 Zr1425 Zr 0.73856 0.47670 0.27296
 O1426 O 0.71965 0.49408 0.25579
 Zr1427 Zr 0.77302 0.47688 0.23889
 O1428 O 0.75559 0.49374 0.21964
 O1429 O 0.73077 0.51885 0.23075
 O1430 O 0.76819 0.48151 0.26849
 C1431 C 0.68936 0.51505 0.23531
 C1432 C 0.73529 0.56044 0.23478
 C1433 C 0.73467 0.51426 0.18939
 C1434 C 0.80884 0.48534 0.26600
 C1435 C 0.76528 0.48439 0.30892
 C1436 C 0.76521 0.44068 0.26513
 H1437 H 0.73991 0.50969 0.29277
 H1438 H 0.74022 0.45682 0.24005
 H1439 H 0.72245 0.52719 0.22238
 H1440 H 0.79262 0.51000 0.24065
 H1441 H 0.78889 0.54484 0.26746
 H1442 H 0.79100 0.54348 0.23445
 H1443 H 0.71760 0.44722 0.26147
 H1444 H 0.69832 0.46768 0.23984
 H1445 H 0.77951 0.53305 0.30363
 H1446 H 0.71901 0.55458 0.28203
 H1447 H 0.76166 0.44813 0.21697
 H1448 H 0.73922 0.46698 0.19895
 H1449 H 0.69864 0.50945 0.28170
 H1450 H 0.71716 0.48828 0.30197
 H1451 H 0.78113 0.50916 0.19793
 H1452 H 0.80277 0.48826 0.21840
 O1453 O 0.55231 0.22450 0.74879
 O1454 O 0.54599 0.22686 0.78205
 O1455 O 0.50109 0.19759 0.72503
 O1456 O 0.46900 0.20341 0.72426
 O1457 O 0.52521 0.24916 0.69793
 O1458 O 0.52380 0.28312 0.70539
 O1459 O 0.44926 0.25033 0.77555
 O1460 O 0.45488 0.21717 0.77163
 O1461 O 0.49879 0.27468 0.80113
 O1462 O 0.53385 0.27355 0.79439
 O1463 O 0.47496 0.30077 0.75165
 O1464 O 0.47587 0.29417 0.71677
 O1465 O 0.44912 0.27405 0.75220
 O1466 O 0.45626 0.27233 0.71606
 O1467 O 0.49856 0.30092 0.77502
 O1468 O 0.53448 0.29352 0.77286
 O1469 O 0.47505 0.25142 0.80094
 O1470 O 0.48162 0.21609 0.79437
 O1471 O 0.55241 0.24857 0.72576
 O1472 O 0.54494 0.28323 0.72750
 O1473 O 0.50179 0.22555 0.69763
 O1474 O 0.46654 0.22849 0.70566
 O1475 O 0.52504 0.19758 0.74810
 O1476 O 0.52068 0.20520 0.78328
 Zr1477 Zr 0.52395 0.22583 0.76040
 O1478 O 0.50696 0.24325 0.77920
 Zr1479 Zr 0.48977 0.22618 0.72591
 O1480 O 0.47108 0.24300 0.74360
 Zr1481 Zr 0.52403 0.26054 0.72642
 O1482 O 0.50658 0.27919 0.74357
 Zr1483 Zr 0.47735 0.23834 0.77323
 O1484 O 0.49426 0.21939 0.75557
 Zr1485 Zr 0.51137 0.27301 0.77320
 O1486 O 0.53031 0.25567 0.75603
 Zr1487 Zr 0.47691 0.27279 0.73905
 O1488 O 0.49437 0.25598 0.71980
 O1489 O 0.51923 0.23092 0.73087
 O1490 O 0.48175 0.26814 0.76864
 C1491 C 0.56061 0.23475 0.73549
 C1492 C 0.51484 0.18931 0.73471
 C1493 C 0.51531 0.23565 0.68950
 C1494 C 0.44112 0.26431 0.76607
 C1495 C 0.48472 0.26525 0.80909
 C1496 C 0.48455 0.30893 0.76552
 H1497 H 0.51009 0.23999 0.79290
 H1498 H 0.50966 0.29293 0.74038
 H1499 H 0.52757 0.22262 0.72248
 H1500 H 0.45736 0.23963 0.74067
 H1501 H 0.46111 0.20481 0.76738
 H1502 H 0.45909 0.20612 0.73437
 H1503 H 0.53218 0.30262 0.76189
 H1504 H 0.55162 0.28209 0.74026
 H1505 H 0.47051 0.21657 0.80362
 H1506 H 0.53104 0.19514 0.78205
 H1507 H 0.48816 0.30171 0.71738
 H1508 H 0.51069 0.28292 0.69933
 H1509 H 0.55138 0.24029 0.78189
 H1510 H 0.53287 0.26141 0.80215
 H1511 H 0.46882 0.24054 0.69800
 H1512 H 0.44719 0.26135 0.71846
 O1513 O 0.27565 0.80300 0.49894
 O1514 O 0.27298 0.79677 0.53226
 O1515 O 0.30232 0.75154 0.47549
 O1516 O 0.29646 0.71935 0.47489
 O1517 O 0.25116 0.77585 0.44801
 O1518 O 0.21720 0.77463 0.45526
 O1519 O 0.24935 0.69988 0.52574
 O1520 O 0.28245 0.70536 0.52206
 O1521 O 0.22514 0.74973 0.55113
 O1522 O 0.22639 0.78485 0.54430
 O1523 O 0.19918 0.72590 0.50148
 O1524 O 0.20593 0.72667 0.46668
 O1525 O 0.22579 0.69981 0.50223
 O1526 O 0.22765 0.70694 0.46611
 O1527 O 0.19901 0.74961 0.52479
 O1528 O 0.20655 0.78554 0.52267
 O1529 O 0.24826 0.72581 0.55112
 O1530 O 0.28352 0.73219 0.54475
 O1531 O 0.25176 0.80317 0.47572
 O1532 O 0.21712 0.79593 0.47732
 O1533 O 0.27463 0.75226 0.44795
 O1534 O 0.27151 0.71698 0.45599
 O1535 O 0.30232 0.77558 0.49854
 O1536 O 0.29456 0.77131 0.53367
 Zr1537 Zr 0.27409 0.77463 0.51066
 O1538 O 0.25657 0.75770 0.52937
 Zr1539 Zr 0.27378 0.74027 0.47624
 O1540 O 0.25685 0.72167 0.49384
 Zr1541 Zr 0.23964 0.77481 0.47643
 O1542 O 0.22089 0.75745 0.49350
 Zr1543 Zr 0.26139 0.72798 0.52348
 O1544 O 0.28043 0.74482 0.50593
 Zr1545 Zr 0.22694 0.76227 0.52316
 O1546 O 0.24437 0.78114 0.50607
 Zr1547 Zr 0.22717 0.72766 0.48908
 O1548 O 0.24410 0.74503 0.46991
 O1549 O 0.26913 0.76984 0.48111
 O1550 O 0.23169 0.73253 0.51870
 C1551 C 0.26558 0.81132 0.48548
 C1552 C 0.31057 0.76534 0.48518
 C1553 C 0.26467 0.76586 0.43972
 C1554 C 0.23545 0.69175 0.51615
 C1555 C 0.23449 0.73561 0.55918
 C1556 C 0.19100 0.73560 0.51524
 H1557 H 0.25979 0.76085 0.54308
 H1558 H 0.20721 0.76060 0.49020
 H1559 H 0.27748 0.77812 0.47275
 H1560 H 0.26016 0.70790 0.49094
 H1561 H 0.29481 0.71153 0.51786
 H1562 H 0.29354 0.70934 0.48484
 H1563 H 0.19760 0.78333 0.51157
 H1564 H 0.21825 0.80266 0.49007
 H1565 H 0.28297 0.72107 0.55401
 H1566 H 0.30461 0.78168 0.53250
 H1567 H 0.19851 0.73907 0.46716
 H1568 H 0.21743 0.76149 0.44918
 H1569 H 0.25965 0.80234 0.53187
 H1570 H 0.23850 0.78387 0.55209
 H1571 H 0.25953 0.71929 0.44827
 H1572 H 0.23857 0.69781 0.46856
 O1573 O 0.25098 0.27516 0.94835
 O1574 O 0.21770 0.27261 0.95468
 O1575 O 0.27463 0.30202 0.99961
 O1576 O 0.27538 0.29618 1.03171
 O1577 O 0.30195 0.25065 0.97531
 O1578 O 0.29467 0.21661 0.97666
 O1579 O 0.22441 0.24911 1.05132
 O1580 O 0.22818 0.28229 1.04578
 O1581 O 0.19890 0.22471 1.00180
 O1582 O 0.20558 0.22598 0.96668
 O1583 O 0.24853 0.19870 1.02538
 O1584 O 0.28334 0.20542 1.02455
 O1585 O 0.24782 0.22541 1.05136
 O1586 O 0.28397 0.22725 1.04421
 O1587 O 0.22517 0.19854 1.00178
 O1588 O 0.22716 0.20604 0.96594
 O1589 O 0.19903 0.24796 1.02560
 O1590 O 0.20539 0.28331 1.01909
 O1591 O 0.27414 0.25117 0.94816
 O1592 O 0.27255 0.21647 0.95549
 O1593 O 0.30214 0.27422 0.99881
 O1594 O 0.29419 0.27115 1.03405
 O1595 O 0.25154 0.30199 0.97567
 O1596 O 0.21640 0.29428 0.98004
 Zr1597 Zr 0.23936 0.27371 0.97670
 O1598 O 0.22066 0.25623 0.99366
 Zr1599 Zr 0.27389 0.27342 1.01087
 O1600 O 0.25629 0.25652 1.02951
 Zr1601 Zr 0.27353 0.23912 0.97649
 O1602 O 0.25646 0.22040 0.99388
 Zr1603 Zr 0.22665 0.26112 1.02327
 O1604 O 0.24419 0.28014 1.00640
 Zr1605 Zr 0.22680 0.22651 0.98914
 O1606 O 0.24388 0.24390 0.97023
 Zr1607 Zr 0.26097 0.22675 1.02357
 O1608 O 0.28014 0.24365 1.00616
 O1609 O 0.26892 0.26870 0.98140
 O1610 O 0.23136 0.23133 1.01877
 C1611 C 0.26436 0.26499 0.94002
 C1612 C 0.26492 0.31027 0.98586
 C1613 C 0.31030 0.26420 0.98523
 C1614 C 0.23393 0.23513 1.05941
 C1615 C 0.19093 0.23409 1.01592
 C1616 C 0.23473 0.19052 1.01573
 H1617 H 0.20694 0.25946 0.99056
 H1618 H 0.25973 0.20667 0.99075
 H1619 H 0.27726 0.27705 0.97309
 H1620 H 0.25923 0.25987 1.04324
 H1621 H 0.23237 0.29467 1.03958
 H1622 H 0.26540 0.29333 1.04170
 H1623 H 0.23827 0.19705 0.96811
 H1624 H 0.25980 0.21760 0.94881
 H1625 H 0.19617 0.28279 1.03022
 H1626 H 0.21757 0.30434 0.96968
 H1627 H 0.28284 0.19799 1.01217
 H1628 H 0.30080 0.21688 0.98974
 H1629 H 0.21796 0.25921 0.94922
 H1630 H 0.19772 0.23806 0.96777
 H1631 H 0.30189 0.25911 1.03173
 H1632 H 0.28152 0.23819 1.05333
 C1633 C 0.28700 0.37019 0.78637
 C1634 C 0.28168 0.38613 0.78107
 C1635 C 0.27569 0.40497 0.77517
 C1636 C 0.27080 0.42120 0.77038
 C1637 C 0.28734 -0.13001 0.28647
 C1638 C 0.28206 -0.11403 0.28123
 C1639 C 0.27612 -0.09517 0.27537
 C1640 C 0.27125 -0.07893 0.27060
 C1641 C 0.78677 0.86974 0.78723
 C1642 C 0.78145 0.88568 0.78192
 C1643 C 0.77549 0.90452 0.77597
 C1644 C 0.77063 0.92075 0.77114
 C1645 C 0.46276 0.88005 0.28686
 C1646 C 0.46812 0.86417 0.28140
 C1647 C 0.47413 0.84539 0.27533
 C1648 C 0.47905 0.82920 0.27043
 C1649 C -0.03741 0.88002 0.78738
 C1650 C -0.03215 0.86408 0.78202
 C1651 C -0.02623 0.84524 0.77603
 C1652 C -0.02139 0.82901 0.77114
 C1653 C -0.03509 -0.13273 -0.03489
 C1654 C -0.03011 -0.11671 -0.02953
 C1655 C -0.02464 -0.09770 -0.02368
 C1656 C -0.02027 -0.08126 -0.01908
 C1657 C -0.03691 0.37018 0.46387
 C1658 C -0.03188 0.38627 0.46903
 C1659 C -0.02617 0.40525 0.47481
 C1660 C -0.02145 0.42157 0.47952
 C1661 C 0.46324 -0.12941 0.46315
 C1662 C 0.46852 -0.11349 0.46860
 C1663 C 0.47445 -0.09468 0.47467
 C1664 C 0.47931 -0.07846 0.47957
 C1665 C 0.46232 0.36991 -0.03679
 C1666 C 0.46741 0.38589 -0.03137
 C1667 C 0.47315 0.40476 -0.02529
 C1668 C 0.47789 0.42100 -0.02037
 C1669 C 0.78689 0.38080 0.46446
 C1670 C 0.78155 0.36494 0.46993
 C1671 C 0.77568 0.34611 0.47590
 C1672 C 0.77103 0.32980 0.48061
 C1673 C 0.78581 0.88145 -0.03519
 C1674 C 0.78062 0.86545 -0.02995
 C1675 C 0.77489 0.84649 -0.02424
 C1676 C 0.77029 0.83010 -0.01975
 C1677 C 0.78497 0.28500 0.36879
 C1678 C 0.77987 0.27981 0.38478
 C1679 C 0.77429 0.27409 0.40374
 C1680 C 0.76987 0.26956 0.42013
 C1681 C 0.78526 0.78613 -0.13146
 C1682 C 0.77981 0.78073 -0.11564
 C1683 C 0.77389 0.77478 -0.09685
 C1684 C 0.76925 0.77006 -0.08057
 C1685 C 0.28696 0.46286 0.87917
 C1686 C 0.28159 0.46803 0.86324
 C1687 C 0.27558 0.47387 0.84444
 C1688 C 0.27068 0.47870 0.82825
 C1689 C 0.28855 -0.03691 0.37891
 C1690 C 0.28302 -0.03173 0.36303
 C1691 C 0.27678 -0.02590 0.34428
 C1692 C 0.27169 -0.02110 0.32815
 C1693 C -0.03594 -0.03672 -0.13080
 C1694 C -0.03056 -0.03142 -0.11490
 C1695 C -0.02470 -0.02558 -0.09604
 C1696 C -0.02011 -0.02094 -0.07971
 C1697 C -0.03679 0.46378 0.36985
 C1698 C -0.03147 0.46892 0.38582
 C1699 C -0.02553 0.47470 0.40467
 C1700 C -0.02071 0.47945 0.42091
 C1701 C 0.46332 -0.03757 0.37094
 C1702 C 0.46869 -0.03225 0.38682
 C1703 C 0.47468 -0.02624 0.40559
 C1704 C 0.47953 -0.02128 0.42175
 C1705 C 0.46247 0.46257 -0.12948
 C1706 C 0.46787 0.46789 -0.11361
 C1707 C 0.47389 0.47385 -0.09483
 C1708 C 0.47876 0.47871 -0.07865
 C1709 C 0.46335 0.78816 0.37899
 C1710 C 0.46859 0.78283 0.36307
 C1711 C 0.47447 0.77681 0.34427
 C1712 C 0.47928 0.77187 0.32809
 C1713 C -0.03648 0.78599 0.88014
 C1714 C -0.03142 0.78109 0.86402
 C1715 C -0.02573 0.77555 0.84502
 C1716 C -0.02105 0.77095 0.82871
 C1717 C 0.37066 0.78680 0.28683
 C1718 C 0.38660 0.78143 0.28171
 C1719 C 0.40543 0.77544 0.27593
 C1720 C 0.42165 0.77059 0.27117
 C1721 C -0.12978 0.78665 0.78751
 C1722 C -0.11386 0.78126 0.78234
 C1723 C -0.09504 0.77526 0.77649
 C1724 C -0.07884 0.77040 0.77168
 C1725 C 0.88183 0.28514 0.46504
 C1726 C 0.86593 0.27967 0.47017
 C1727 C 0.84706 0.27371 0.47582
 C1728 C 0.83072 0.26905 0.48034
 C1729 C 0.88143 0.78356 -0.03607
 C1730 C 0.86540 0.77851 -0.03094
 C1731 C 0.84640 0.77302 -0.02527
 C1732 C 0.82999 0.76867 -0.02076
 C1733 C -0.13183 -0.03611 -0.03552
 C1734 C -0.11587 -0.03090 -0.03024
 C1735 C -0.09696 -0.02517 -0.02443
 C1736 C -0.08062 -0.02060 -0.01983
 C1737 C -0.12932 0.46325 0.46216
 C1738 C -0.11340 0.46856 0.46743
 C1739 C -0.09460 0.47451 0.47338
 C1740 C -0.07842 0.47937 0.47827
 C1741 C 0.37118 -0.03611 0.46151
 C1742 C 0.38703 -0.03076 0.46697
 C1743 C 0.40576 -0.02479 0.47313
 C1744 C 0.42190 -0.01994 0.47817
 C1745 C 0.37004 0.46301 -0.03758
 C1746 C 0.38599 0.46824 -0.03230
 C1747 C 0.40481 0.47409 -0.02634
 C1748 C 0.42101 0.47888 -0.02144
 C1749 C 0.37889 0.46334 0.78782
 C1750 C 0.36304 0.46879 0.78247
 C1751 C 0.34430 0.47485 0.77645
 C1752 C 0.32814 0.47976 0.77154
 C1753 C 0.37950 -0.03673 0.28722
 C1754 C 0.36363 -0.03127 0.28194
 C1755 C 0.34487 -0.02518 0.27602
 C1756 C 0.32869 -0.02028 0.27118
 C1757 C 0.11792 0.53483 0.71541
 C1758 C 0.13401 0.52985 0.72047
 C1759 C 0.15307 0.52435 0.72603
 C1760 C 0.16951 0.51995 0.73046
 C1761 C 0.11908 0.03562 0.21379
 C1762 C 0.13493 0.03032 0.21930
 C1763 C 0.15374 0.02450 0.22535
 C1764 C 0.17004 0.01989 0.23012
 C1765 C 0.63157 0.71532 0.21450
 C1766 C 0.61558 0.72039 0.21976
 C1767 C 0.59662 0.72596 0.22555
 C1768 C 0.58024 0.73040 0.23013
 C1769 C 0.13103 0.71521 0.71474
 C1770 C 0.11505 0.72030 0.72003
 C1771 C 0.09611 0.72589 0.72583
 C1772 C 0.07974 0.73035 0.73043
 C1773 C 0.62042 0.21420 0.53584
 C1774 C 0.63654 0.21910 0.53083
 C1775 C 0.65555 0.22462 0.52521
 C1776 C 0.67189 0.22918 0.52062
 C1777 C 0.61994 0.71370 0.03524
 C1778 C 0.63598 0.71867 0.03007
 C1779 C 0.65491 0.72428 0.02426
 C1780 C 0.67120 0.72889 0.01953
 C1781 C 0.12912 0.03646 0.03589
 C1782 C 0.11311 0.03133 0.03071
 C1783 C 0.09422 0.02554 0.02494
 C1784 C 0.07796 0.02078 0.02024
 C1785 C 0.13147 0.53606 0.53420
 C1786 C 0.11551 0.53086 0.52897
 C1787 C 0.09658 0.52509 0.52328
 C1788 C 0.08021 0.52050 0.51878
 C1789 C 0.63153 0.03635 0.53522
 C1790 C 0.61557 0.03111 0.53002
 C1791 C 0.59664 0.02530 0.52434
 C1792 C 0.58029 0.02068 0.51981
 C1793 C 0.63108 0.53479 0.03449
 C1794 C 0.61507 0.52963 0.02937
 C1795 C 0.59609 0.52397 0.02375
 C1796 C 0.57968 0.51949 0.01930
 C1797 C 0.03678 0.03631 0.12974
 C1798 C 0.03147 0.03086 0.11386
 C1799 C 0.02548 0.02480 0.09510
 C1800 C 0.02058 0.01990 0.07893
 C1801 C 0.03461 0.53431 0.63143
 C1802 C 0.02970 0.52927 0.61531
 C1803 C 0.02426 0.52378 0.59622
 C1804 C 0.01989 0.51944 0.57974
 C1805 C 0.53542 0.03545 0.63176
 C1806 C 0.53032 0.03027 0.61573
 C1807 C 0.52468 0.02457 0.59674
 C1808 C 0.52018 0.02003 0.58035
 C1809 C 0.53429 0.53392 0.13174
 C1810 C 0.52928 0.52881 0.11566
 C1811 C 0.52376 0.52321 0.09662
 C1812 C 0.51933 0.51880 0.08018
 C1813 C 0.21462 0.53509 0.61836
 C1814 C 0.21964 0.52974 0.63434
 C1815 C 0.22519 0.52390 0.65329
 C1816 C 0.22964 0.51932 0.66967
 C1817 C 0.21394 0.03430 0.11847
 C1818 C 0.21920 0.02893 0.13436
 C1819 C 0.22500 0.02312 0.15324
 C1820 C 0.22964 0.01858 0.16958
 C1821 C 0.71408 0.21382 0.63014
 C1822 C 0.71912 0.21884 0.61407
 C1823 C 0.72483 0.22449 0.59513
 C1824 C 0.72956 0.22913 0.57886
 C1825 C 0.71383 0.71426 0.12947
 C1826 C 0.71885 0.71929 0.11339
 C1827 C 0.72451 0.72492 0.09443
 C1828 C 0.72918 0.72952 0.07813
 C1829 C 0.53555 0.71579 0.11815
 C1830 C 0.53041 0.72100 0.13414
 C1831 C 0.52472 0.72668 0.15309
 C1832 C 0.52018 0.73117 0.16947
 C1833 C 0.03547 0.71609 0.61852
 C1834 C 0.03021 0.72127 0.63448
 C1835 C 0.02442 0.72693 0.65341
 C1836 C 0.01981 0.73138 0.66979
 C1837 C 0.53414 0.61830 0.21493
 C1838 C 0.52913 0.63446 0.21989
 C1839 C 0.52366 0.65358 0.22539
 C1840 C 0.51932 0.67009 0.22980
 C1841 C 0.03390 0.61835 0.71489
 C1842 C 0.02882 0.63447 0.71986
 C1843 C 0.02325 0.65357 0.72536
 C1844 C 0.01886 0.67006 0.72979
 C1845 C 0.03698 0.12834 0.03860
 C1846 C 0.03147 0.11252 0.03316
 C1847 C 0.02532 0.09381 0.02703
 C1848 C 0.02034 0.07768 0.02199
 C1849 C 0.03536 0.63196 0.53505
 C1850 C 0.03007 0.61596 0.52991
 C1851 C 0.02424 0.59699 0.52426
 C1852 C 0.01962 0.58059 0.51975
 C1853 C 0.53488 0.13234 0.53465
 C1854 C 0.52963 0.11628 0.52965
 C1855 C 0.52391 0.09723 0.52417
 C1856 C 0.51942 0.08077 0.51979
 C1857 C 0.53478 0.63135 0.03509
 C1858 C 0.52947 0.61531 0.03010
 C1859 C 0.52366 0.59630 0.02459
 C1860 C 0.51906 0.57987 0.02016
 C1861 C 0.71439 0.11987 0.53743
 C1862 C 0.71968 0.13589 0.53238
 C1863 C 0.72562 0.15479 0.52665
 C1864 C 0.73044 0.17106 0.52190
 C1865 C 0.71336 0.61990 0.03603
 C1866 C 0.71839 0.63599 0.03095
 C1867 C 0.72405 0.65496 0.02519
 C1868 C 0.72873 0.67125 0.02044
 C1869 C 0.21502 0.63168 0.71442
 C1870 C 0.22019 0.61567 0.71962
 C1871 C 0.22585 0.59668 0.72535
 C1872 C 0.23031 0.58026 0.72991
 C1873 C 0.21469 0.13097 0.21336
 C1874 C 0.22007 0.11507 0.21869
 C1875 C 0.22593 0.09619 0.22459
 C1876 C 0.23053 0.07984 0.22929
 C1877 C 0.71572 1.13143 0.71513
 C1878 C 0.72082 1.11539 0.72031
 C1879 C 0.72639 1.09637 0.72601
 C1880 C 0.73077 1.07992 0.73053
 C1881 C 0.71541 0.63172 0.21434
 C1882 C 0.72052 0.61568 0.21953
 C1883 C 0.72609 0.59666 0.22525
 C1884 C 0.73050 0.58023 0.22980
 C1885 C 0.53501 0.11805 0.71420
 C1886 C 0.52984 0.13410 0.71936
 C1887 C 0.52419 0.15311 0.72507
 C1888 C 0.51971 0.16954 0.72965
 C1889 C 1.03619 0.12040 0.21223
 C1890 C 1.03091 0.13636 0.21755
 C1891 C 1.02502 0.15521 0.22355
 C1892 C 1.02024 0.17145 0.22846
 C1893 C 0.21431 0.62083 0.53665
 C1894 C 0.21952 0.63692 0.53172
 C1895 C 0.22535 0.65589 0.52615
 C1896 C 0.23010 0.67221 0.52152
 C1897 C 0.21340 0.11978 1.03653
 C1898 C 0.21871 0.13579 1.03148
 C1899 C 0.22461 0.15471 1.02580
 C1900 C 0.22939 0.17099 1.02111
 C1901 C 0.21336 0.71452 0.62975
 C1902 C 0.21844 0.71968 0.61373
 C1903 C 0.22420 0.72547 0.59485
 C1904 C 0.22897 0.73022 0.57862
 C1905 C 0.21253 0.21365 1.12978
 C1906 C 0.21775 0.21896 1.11386
 C1907 C 0.22363 0.22489 1.09505
 C1908 C 0.22845 0.22971 1.07885
 C1909 C 0.71455 0.53466 0.11832
 C1910 C 0.71963 0.52940 0.13431
 C1911 C 0.72523 0.52365 0.15327
 C1912 C 0.72971 0.51912 0.16965
 C1913 C 0.71502 1.03517 0.61901
 C1914 C 0.72007 1.02973 0.63495
 C1915 C 0.72561 1.02376 0.65386
 C1916 C 0.73003 1.01908 0.67022
 C1917 C 0.53562 0.21610 0.61825
 C1918 C 0.53047 0.22113 0.63430
 C1919 C 0.52479 0.22661 0.65331
 C1920 C 0.52026 0.23093 0.66974
 C1921 C 1.03790 0.21222 0.12127
 C1922 C 1.03248 0.21775 0.13706
 C1923 C 1.02639 0.22393 0.15573
 C1924 C 1.02140 0.22894 0.17183
 C1925 C 0.63175 0.21490 0.71507
 C1926 C 0.61573 0.21995 0.72028
 C1927 C 0.59675 0.22549 0.72601
 C1928 C 0.58035 0.22990 0.73055
 C1929 C 1.12964 0.21354 0.21304
 C1930 C 1.11372 0.21870 0.21845
 C1931 C 1.09491 0.22449 0.22449
 C1932 C 1.07871 0.22925 0.22939
 C1933 C 0.12028 0.71465 0.53602
 C1934 C 0.13630 0.71976 0.53092
 C1935 C 0.15522 0.72551 0.52520
 C1936 C 0.17150 0.73023 0.52054
 C1937 C 0.12108 0.21196 1.03827
 C1938 C 0.13687 0.21736 1.03275
 C1939 C 0.15553 0.22344 1.02657
 C1940 C 0.17162 0.22842 1.02155
 C1941 C 0.61797 0.53466 0.21538
 C1942 C 0.63407 0.52970 0.22043
 C1943 C 0.65314 0.52425 0.22599
 C1944 C 0.66959 0.51988 0.23043
 C1945 C 0.61849 1.03524 0.71488
 C1946 C 0.63448 1.03010 0.72013
 C1947 C 0.65343 1.02442 0.72592
 C1948 C 0.66979 1.01989 0.73054
 C1949 C 0.87941 0.46432 0.28740
 C1950 C 0.86343 0.46951 0.28219
 C1951 C 0.84456 0.47529 0.27631
 C1952 C 0.82831 0.48001 0.27149
 C1953 C 0.87920 0.96311 0.78795
 C1954 C 0.86325 0.96846 0.78282
 C1955 C 0.84441 0.97444 0.77702
 C1956 C 0.82820 0.97929 0.77223
 C1957 C 0.37071 0.28601 0.78729
 C1958 C 0.38664 0.28060 0.78215
 C1959 C 0.40546 0.27458 0.77635
 C1960 C 0.42167 0.26971 0.77157
 C1961 C 0.86864 0.28472 0.28534
 C1962 C 0.88465 0.27951 0.28027
 C1963 C 0.90363 0.27382 0.27468
 C1964 C 0.92004 0.26935 0.27021
 C1965 C 0.38113 0.78638 0.46411
 C1966 C 0.36531 0.78092 0.46949
 C1967 C 0.34652 0.77496 0.47540
 C1968 C 0.33024 0.77030 0.48009
 C1969 C 0.38089 0.28518 0.96429
 C1970 C 0.36506 0.27973 0.96963
 C1971 C 0.34625 0.27381 0.97549
 C1972 C 0.32996 0.26917 0.98015
 C1973 C 0.78735 0.46300 0.37915
 C1974 C 0.78190 0.46817 0.36325
 C1975 C 0.77580 0.47401 0.34447
 C1976 C 0.77084 0.47884 0.32830
 C1977 C 0.78627 0.96283 0.88012
 C1978 C 0.78105 0.96789 0.86411
 C1979 C 0.77517 0.97361 0.84522
 C1980 C 0.77037 0.97835 0.82898
 C1981 C 0.28550 0.78638 0.36896
 C1982 C 0.28011 0.78114 0.38485
 C1983 C 0.27424 0.77540 0.40371
 C1984 C 0.26962 0.77084 0.42003
 C1985 C 0.28547 0.28568 0.86938
 C1986 C 0.28003 0.28041 0.88524
 C1987 C 0.27408 0.27462 0.90406
 C1988 C 0.26940 0.27002 0.92036
 C1989 C 0.46325 0.28711 0.87938
 C1990 C 0.46849 0.28177 0.86346
 C1991 C 0.47438 0.27575 0.84467
 C1992 C 0.47920 0.27082 0.82849
 C1993 C 0.96558 0.28605 0.38160
 C1994 C 0.97080 0.28078 0.36565
 C1995 C 0.97651 0.27497 0.34674
 C1996 C 0.98100 0.27034 0.33038
 C1997 C 0.46259 0.37921 0.78741
 C1998 C 0.46798 0.36333 0.78199
 C1999 C 0.47404 0.34456 0.77594
 C2000 C 0.47897 0.32837 0.77103
 C2001 C 0.96423 0.38154 0.28577
 C2002 C 0.96951 0.36561 0.28040
 C2003 C 0.97530 0.34670 0.27453
 C2004 C 0.97990 0.33034 0.26988
 C2005 C 0.28706 0.88171 0.46377
 C2006 C 0.28157 0.86595 0.46937
 C2007 C 0.27554 0.84721 0.47549
 C2008 C 0.27076 0.83096 0.48031
 C2009 C 0.28591 0.38099 0.96481
 C2010 C 0.28055 0.36514 0.97028
 C2011 C 0.27467 0.34631 0.97624
 C2012 C 0.27001 0.32998 0.98090
 C2013 C 0.78606 0.36975 0.28603
 C2014 C 0.78099 0.38583 0.28091
 C2015 C 0.77528 0.40480 0.27516
 C2016 C 0.77059 0.42112 0.27046
   
