data_POSCAR
  _audit_creation_date              2014-09-24
  _audit_creation_method            'ToBaCCo'
  _symmetry_space_group_name_H-M    'P1'
  _symmetry_Int_Tables_number       1
  _symmetry_cell_setting            triclinic
  loop_
  _symmetry_equiv_pos_as_xyz
 x,y,z
_cell_length_a 60.7668
_cell_length_b 63.6794
_cell_length_c 60.6271
_cell_angle_alpha 90.476600
_cell_angle_beta 90.282000
_cell_angle_gamma 89.854200
loop_
  _atom_site_label
  _atom_site_type_symbol
  _atom_site_fract_x
  _atom_site_fract_y
  _atom_site_fract_z
N1 N 0.34193 0.35223 0.35545
 N2 N 0.34503 0.84323 -0.15850
 N3 N 0.84064 0.34027 -0.16465
 N4 N 0.84538 0.85073 0.33805
 N5 N 0.65549 0.67021 0.33656
 N6 N 0.65658 0.14744 -0.14967
 N7 N 0.14558 0.64092 -0.14761
 N8 N 0.14762 0.16455 0.33940
 N9 N 0.65846 0.32993 0.65857
 N10 N 0.64632 0.85017 1.15302
 N11 N 0.16952 0.35457 1.16345
 N12 N 0.15805 0.83483 0.67873
 N13 N 0.33298 0.64638 0.67936
 N14 N 0.34556 0.16153 1.17587
 N15 N 0.85027 0.66895 1.16666
 N16 N 0.83796 0.14110 0.64599
 N17 N 0.34170 0.33817 0.66354
 N18 N 0.33049 0.84970 0.15774
 N19 N 0.84484 0.36500 0.14757
 N20 N 0.85270 0.84813 0.65725
 N21 N 0.66452 0.65766 0.65629
 N22 N 0.66310 0.16884 0.16711
 N23 N 0.16116 0.65437 0.15930
 N24 N 0.15851 0.14796 0.65437
 N25 N 0.35581 0.65891 0.36054
 N26 N 0.34536 0.14250 0.85152
 N27 N 0.82824 0.65212 0.84095
 N28 N 0.84391 0.16451 0.32363
 N29 N 0.66061 0.36579 0.34924
 N30 N 0.65246 0.84357 0.84620
 N31 N 0.15566 0.32248 0.84365
 N32 N 0.17168 0.84744 0.35843
 O33 O 0.25409 1.02827 0.29363
 O34 O 0.28239 0.98456 0.26649
 O35 O 0.28212 1.02538 0.26150
 O36 O 0.25098 0.98725 0.29536
 O37 O 0.22460 0.98743 0.27016
 O38 O 0.25629 1.02300 0.23584
 O39 O 0.25606 0.98256 0.24131
 O40 O 0.22825 1.02807 0.26788
 Cu41 Cu 0.26998 1.00648 0.28178
 Cu42 Cu 0.23871 1.00513 0.25129
 C43 C 0.23665 1.03585 0.28540
 C44 C 0.27413 0.97596 0.24949
 C45 C 0.27432 1.03053 0.24276
 C46 C 0.23231 0.98099 0.28832
 O47 O 0.24087 0.50057 0.79391
 O48 O 0.26568 0.46315 0.75447
 O49 O 0.27246 0.50236 0.76507
 O50 O 0.23562 0.46089 0.78450
 O51 O 0.21098 0.46943 0.75920
 O52 O 0.24768 0.51156 0.74016
 O53 O 0.24131 0.47236 0.72917
 O54 O 0.21615 0.50908 0.76867
 Cu55 Cu 0.25614 0.48086 0.77701
 Cu56 Cu 0.22656 0.49150 0.74677
 C57 C 0.22424 0.51124 0.78790
 C58 C 0.25766 0.46135 0.73514
 C59 C 0.26631 0.51413 0.74943
 C60 C 0.21716 0.45794 0.77511
 O61 O 0.75065 -0.01370 0.20939
 O62 O 0.77597 0.02672 0.24509
 O63 O 0.78189 -0.01352 0.23924
 O64 O 0.74436 0.02644 0.21638
 O65 O 0.72015 0.01930 0.24231
 O66 O 0.75762 -0.02039 0.26517
 O67 O 0.75192 0.01981 0.27123
 O68 O 0.72664 -0.02074 0.23551
 Cu69 Cu 0.76564 0.00710 0.22487
 Cu70 Cu 0.73666 -0.00122 0.25615
 C71 C 0.73439 -0.02415 0.21638
 C72 C 0.76815 0.03029 0.26415
 C73 C 0.77610 -0.02375 0.25613
 C74 C 0.72596 0.02981 0.22566
 O75 O 0.73832 0.47563 0.72334
 O76 O 0.75932 0.51587 0.76171
 O77 O 0.76217 0.47479 0.75922
 O78 O 0.73406 0.51638 0.72710
 O79 O 0.70439 0.51207 0.74745
 O80 O 0.73255 0.47175 0.77992
 O81 O 0.72970 0.51261 0.78234
 O82 O 0.70903 0.47137 0.74425
 Cu83 Cu 0.75146 0.49601 0.74080
 Cu84 Cu 0.71596 0.49165 0.76555
 C85 C 0.72030 0.46645 0.72735
 C86 C 0.74803 0.52134 0.77837
 C87 C 0.75193 0.46612 0.77497
 C88 C 0.71435 0.52125 0.73196
 O89 O 0.25112 0.52875 0.23848
 O90 O 0.28074 0.48885 0.27097
 O91 O 0.28053 0.53001 0.26998
 O92 O 0.25215 0.48767 0.23885
 O93 O 0.27917 0.48746 0.21461
 O94 O 0.30691 0.52993 0.24504
 O95 O 0.30777 0.48900 0.24675
 O96 O 0.27783 0.52830 0.21390
 Cu97 Cu 0.26345 0.50883 0.25706
 Cu98 Cu 0.29561 0.50859 0.22765
 C99 C 0.25951 0.53537 0.22070
 C100 C 0.29926 0.48209 0.26434
 C101 C 0.29844 0.53734 0.26253
 C102 C 0.26098 0.48034 0.22143
 O103 O 0.73216 1.01795 0.76235
 O104 O 0.76223 0.97654 0.73165
 O105 O 0.75771 1.01692 0.72794
 O106 O 0.73887 0.97780 0.76734
 O107 O 0.70936 0.97181 0.74684
 O108 O 0.72824 1.01177 0.70717
 O109 O 0.73272 0.97123 0.71094
 O110 O 0.70280 1.01194 0.74164
 Cu111 Cu 0.75067 0.99792 0.74940
 Cu112 Cu 0.71531 0.99112 0.72459
 C113 C 0.71228 1.02193 0.75713
 C114 C 0.75245 0.96685 0.71603
 C115 C 0.74640 1.02105 0.71087
 C116 C 0.72108 0.96800 0.76381
 O117 O 0.73117 0.53760 0.26083
 O118 O 0.76940 0.49686 0.24228
 O119 O 0.76487 0.53694 0.23490
 O120 O 0.73344 0.49701 0.26534
 O121 O 0.71280 0.49170 0.23573
 O122 O 0.74366 0.53150 0.20572
 O123 O 0.74901 0.49145 0.21251
 O124 O 0.70982 0.53230 0.23175
 Cu125 Cu 0.75180 0.51762 0.25378
 Cu126 Cu 0.72675 0.51110 0.21848
 C127 C 0.71416 0.54209 0.24961
 C128 C 0.76588 0.48727 0.22425
 C129 C 0.75935 0.54112 0.21514
 C130 C 0.71768 0.48760 0.25556
 O131 O 0.24456 0.01606 0.72659
 O132 O 0.27674 -0.02474 0.75566
 O133 O 0.27600 0.01622 0.75601
 O134 O 0.24377 -0.02494 0.72827
 O135 O 0.26766 -0.02580 0.70094
 O136 O 0.30003 0.01577 0.72882
 O137 O 0.30057 -0.02528 0.72825
 O138 O 0.26858 0.01499 0.69937
 Cu139 Cu 0.25787 -0.00423 0.74437
 Cu140 Cu 0.28662 -0.00508 0.71163
 C141 C 0.25119 0.02238 0.70792
 C142 C 0.29404 -0.03208 0.74667
 C143 C 0.29345 0.02304 0.74723
 C144 C 0.25029 -0.03256 0.71003
 O145 O 0.25888 0.27908 0.98767
 O146 O 0.29066 0.25200 1.03039
 O147 O 0.29154 0.25238 0.98756
 O148 O 0.25719 0.27759 1.03051
 O149 O 0.23355 0.25138 1.02790
 O150 O 0.26859 0.22557 0.98632
 O151 O 0.26713 0.22561 1.02961
 O152 O 0.23603 0.25223 0.98507
 Cu153 Cu 0.27688 0.26791 1.00920
 Cu154 Cu 0.24905 0.23598 1.00708
 C155 C 0.24218 0.27035 0.97899
 C156 C 0.28431 0.23437 1.03746
 C157 C 0.28588 0.23465 0.97966
 C158 C 0.23938 0.26881 1.03632
 O159 O 0.24870 0.76417 0.49999
 O160 O 0.26448 0.72579 0.54141
 O161 O 0.27048 0.72881 0.49902
 O162 O 0.23931 0.75868 0.54137
 O163 O 0.20963 0.74035 0.53275
 O164 O 0.24075 0.70991 0.49216
 O165 O 0.23467 0.70706 0.53454
 O166 O 0.21933 0.74538 0.49135
 Cu167 Cu 0.25872 0.74620 0.52119
 Cu168 Cu 0.22314 0.72381 0.51190
 C169 C 0.23147 0.76140 0.48855
 C170 C 0.25237 0.71012 0.54538
 C171 C 0.26072 0.71414 0.48847
 C172 C 0.21903 0.75450 0.54412
 O173 O 0.22127 0.74904 -0.02313
 O174 O 0.25855 0.77368 0.01715
 O175 O 0.25741 0.77095 -0.02570
 O176 O 0.22305 0.75162 0.01956
 O177 O 0.24282 0.72247 0.02049
 O178 O 0.27748 0.74202 -0.02441
 O179 O 0.27861 0.74474 0.01843
 O180 O 0.24135 0.72008 -0.02236
 Cu181 Cu 0.23810 0.76427 -0.00324
 Cu182 Cu 0.26207 0.72938 -0.00190
 C183 C 0.22488 0.73034 -0.02953
 C184 C 0.27475 0.76341 0.02484
 C185 C 0.27337 0.75984 -0.03266
 C186 C 0.22713 0.73376 0.02775
 O187 O 0.19709 0.26875 0.48070
 O188 O 0.22429 0.29228 0.52913
 O189 O 0.22626 0.29803 0.48665
 O190 O 0.19578 0.26242 0.52306
 O191 O 0.22305 0.23948 0.52129
 O192 O 0.25249 0.27417 0.48328
 O193 O 0.25168 0.26960 0.52604
 O194 O 0.22319 0.24462 0.47859
 Cu195 Cu 0.20818 0.28271 0.50516
 Cu196 Cu 0.24031 0.25462 0.50202
 C197 C 0.20536 0.25265 0.47146
 C198 C 0.24261 0.28509 0.53579
 C199 C 0.24446 0.29201 0.47853
 C200 C 0.20435 0.24502 0.52858
 O201 O 0.76581 0.73263 0.98598
 O202 O 0.73683 0.76464 1.02810
 O203 O 0.73172 0.75715 0.98597
 O204 O 0.77007 0.73847 1.02856
 O205 O 0.79204 0.76535 1.02249
 O206 O 0.75365 0.78391 0.97917
 O207 O 0.75915 0.79113 1.02140
 O208 O 0.78815 0.75927 0.97999
 Cu209 Cu 0.74891 0.74556 1.00786
 Cu210 Cu 0.77544 0.77757 1.00002
 C211 C 0.78194 0.74066 0.97578
 C212 C 0.74324 0.78333 1.03197
 C213 C 0.73616 0.77356 0.97520
 C214 C 0.78745 0.74873 1.03295
 O215 O 0.74558 0.27590 0.47207
 O216 O 0.78049 0.25094 0.51413
 O217 O 0.78184 0.25380 0.47119
 O218 O 0.74458 0.27280 0.51486
 O219 O 0.72487 0.24384 0.51142
 O220 O 0.76217 0.22481 0.46792
 O221 O 0.76103 0.22182 0.51089
 O222 O 0.72616 0.24678 0.46863
 Cu223 Cu 0.76511 0.26628 0.49331
 Cu224 Cu 0.74164 0.23136 0.48940
 C225 C 0.72993 0.26562 0.46320
 C226 C 0.77654 0.23222 0.51985
 C227 C 0.77826 0.23612 0.46203
 C228 C 0.72844 0.26148 0.52064
 O229 O 0.76817 0.26404 -0.02676
 O230 O 0.74845 0.23004 0.01774
 O231 O 0.73949 0.23410 -0.02383
 O232 O 0.77833 0.25918 0.01463
 O233 O 0.75286 0.28249 0.02361
 O234 O 0.71440 0.25820 -0.01613
 O235 O 0.72287 0.25350 0.02595
 O236 O 0.74345 0.28808 -0.01778
 Cu237 Cu 0.76115 0.24447 -0.00539
 Cu238 Cu 0.73082 0.27292 0.00482
 C239 C 0.75922 0.28185 -0.02983
 C240 C 0.73223 0.23596 0.02937
 C241 C 0.72048 0.24192 -0.02672
 C242 C 0.77218 0.27506 0.02574
 O243 O 0.77668 0.76381 0.47274
 O244 O 0.75398 0.72656 0.51268
 O245 O 0.74507 0.73625 0.47204
 O246 O 0.78464 0.75481 0.51414
 O247 O 0.76091 0.77927 0.52449
 O248 O 0.72112 0.76027 0.48297
 O249 O 0.73030 0.75068 0.52398
 O250 O 0.75265 0.78786 0.48337
 Cu251 Cu 0.76751 0.74299 0.49176
 Cu252 Cu 0.73883 0.77191 0.50481
 C253 C 0.76847 0.78210 0.47110
 C254 C 0.73843 0.73229 0.52525
 C255 C 0.72636 0.74510 0.47035
 C256 C 0.77944 0.77020 0.52652
 O257 O 1.02247 0.22098 0.21686
 O258 O 0.97966 0.25166 0.18841
 O259 O 1.02293 0.25121 0.18870
 O260 O 0.97988 0.22070 0.21610
 O261 O 0.97891 0.24389 0.24339
 O262 O 1.02311 0.27400 0.21636
 O263 O 0.97985 0.27498 0.21557
 O264 O 1.02179 0.24357 0.24471
 Cu265 Cu 1.00120 0.23395 0.19967
 Cu266 Cu 1.00085 0.26149 0.23271
 C267 C 1.02935 0.22700 0.23567
 C268 C 0.97233 0.26842 0.19720
 C269 C 1.03077 0.26744 0.19806
 C270 C 0.97209 0.22700 0.23437
 O271 O 0.48010 0.24352 0.73179
 O272 O 0.52147 0.22292 0.76986
 O273 O 0.47848 0.22124 0.76758
 O274 O 0.52246 0.24868 0.73667
 O275 O 0.51814 0.27613 0.75876
 O276 O 0.47447 0.24954 0.78852
 O277 O 0.51729 0.25034 0.79198
 O278 O 0.47609 0.27172 0.75286
 Cu279 Cu 0.50108 0.23128 0.74939
 Cu280 Cu 0.49612 0.26468 0.77519
 C281 C 0.47106 0.26107 0.73570
 C282 C 0.52653 0.23292 0.78731
 C283 C 0.46885 0.23106 0.78320
 C284 C 0.52761 0.26727 0.74263
 O285 O 0.02030 0.23180 0.71858
 O286 O -0.02079 0.27025 0.73740
 O287 O 0.01995 0.26149 0.74800
 O288 O -0.02066 0.23955 0.70862
 O289 O -0.03175 0.21762 0.73427
 O290 O 0.00902 0.23901 0.77322
 O291 O -0.03142 0.24817 0.76313
 O292 O 0.00927 0.20924 0.74367
 Cu293 Cu 0.00077 0.25303 0.72559
 Cu294 Cu -0.01240 0.22627 0.75608
 C295 C 0.02194 0.21409 0.72792
 C296 C -0.03303 0.26581 0.75357
 C297 C 0.02151 0.25380 0.76724
 C298 C -0.03318 0.22483 0.71485
 O299 O 0.48012 0.27677 0.27984
 O300 O 0.52299 0.25582 0.24367
 O301 O 0.48109 0.24871 0.24854
 O302 O 0.52263 0.28177 0.27719
 O303 O 0.52801 0.25633 0.30120
 O304 O 0.48830 0.22311 0.27189
 O305 O 0.53017 0.23058 0.26745
 O306 O 0.48571 0.25107 0.30345
 Cu307 Cu 0.50112 0.26833 0.25995
 Cu308 Cu 0.50871 0.23772 0.28834
 C309 C 0.47539 0.26754 0.29764
 C310 C 0.53393 0.23976 0.24928
 C311 C 0.47776 0.23017 0.25546
 C312 C 0.53220 0.27459 0.29428
 O313 O 0.97696 0.72695 0.70595
 O314 O 1.01322 0.69363 0.73962
 O315 O 0.97100 0.69715 0.73470
 O316 O 1.01942 0.72359 0.71156
 O317 O 1.01790 0.74755 0.73807
 O318 O 0.97003 0.72043 0.76189
 O319 O 1.01272 0.71744 0.76633
 O320 O 0.97533 0.75020 0.73312
 Cu321 Cu 0.99521 0.70801 0.72022
 Cu322 Cu 0.99384 0.73628 0.75256
 C323 C 0.96988 0.74419 0.71383
 C324 C 1.01930 0.69992 0.75860
 C325 C 0.96240 0.70414 0.75234
 C326 C 1.02693 0.74002 0.72086
 O327 O 0.46644 0.73802 0.20065
 O328 O 0.51559 0.71345 0.22530
 O329 O 0.47337 0.70931 0.23033
 O330 O 0.50900 0.74130 0.19514
 O331 O 0.51052 0.76579 0.22111
 O332 O 0.47343 0.73445 0.25565
 O333 O 0.51586 0.73773 0.25155
 O334 O 0.46785 0.76332 0.22575
 Cu335 Cu 0.49093 0.72307 0.21024
 Cu336 Cu 0.49192 0.75286 0.24106
 C337 C 0.45884 0.75490 0.20894
 C338 C 0.52404 0.72137 0.24266
 C339 C 0.46733 0.71641 0.24895
 C340 C 0.51624 0.75874 0.20232
 O341 O -0.00704 0.78033 0.26823
 O342 O 0.03694 0.74821 0.24195
 O343 O -0.00481 0.75450 0.23458
 O344 O 0.03571 0.77748 0.27238
 O345 O 0.03017 0.75207 0.29628
 O346 O -0.01166 0.72941 0.25853
 O347 O 0.03035 0.72303 0.26586
 O348 O -0.01205 0.75489 0.29225
 Cu349 Cu 0.01581 0.76765 0.25191
 Cu350 Cu 0.00861 0.73727 0.28051
 C351 C -0.01683 0.77290 0.28499
 C352 C 0.04105 0.73006 0.24968
 C353 C -0.01529 0.73824 0.24008
 C354 C 0.03995 0.76882 0.29067
 O355 O 0.52272 0.75981 0.76048
 O356 O 0.47789 0.72915 0.73502
 O357 O 0.52093 0.72934 0.73156
 O358 O 0.47978 0.76133 0.76191
 O359 O 0.47936 0.78395 0.73448
 O360 O 0.51854 0.75141 0.70372
 O361 O 0.47610 0.75176 0.70764
 O362 O 0.52198 0.78166 0.73238
 Cu363 Cu 0.50043 0.74264 0.75001
 Cu364 Cu 0.49879 0.76942 0.71682
 C365 C 0.53012 0.77584 0.75068
 C366 C 0.46929 0.73527 0.71706
 C367 C 0.52668 0.73509 0.71237
 C368 C 0.47279 0.77826 0.75330
 C369 C 0.36037 0.34338 0.34365
 C370 C 0.37497 0.32904 0.35318
 C371 C 0.39329 0.31971 0.34063
 N372 N 0.40597 0.30445 0.34974
 N373 N 0.42246 0.29578 0.33840
 C374 C 0.42687 0.30215 0.31755
 N375 N 0.41425 0.31745 0.30852
 N376 N 0.39775 0.32605 0.31981
 C377 C 0.44494 0.29301 0.30461
 C378 C 0.45767 0.27604 0.31162
 H379 H 0.37298 0.32447 0.37021
 H380 H 0.44808 0.29984 0.28862
 H381 H 0.36306 0.34809 0.32676
 H382 H 0.45440 0.26872 0.32733
 C383 C 0.36110 0.82989 0.83090
 C384 C 0.38048 0.83779 0.82202
 C385 C 0.39720 0.82397 0.81205
 N386 N 0.41329 0.83227 0.79940
 N387 N 0.42840 0.81993 0.79009
 C388 C 0.42812 0.79882 0.79322
 N389 N 0.41220 0.79054 0.80610
 N390 N 0.39698 0.80287 0.81528
 C391 C 0.44454 0.78502 0.78270
 C392 C 0.45702 0.79184 0.76495
 H393 H 0.38338 0.85456 0.82218
 H394 H 0.44599 0.76893 0.78820
 H395 H 0.35851 0.81307 0.83075
 H396 H 0.45437 0.80749 0.75856
 C397 C -0.13891 0.33045 0.82930
 C398 C -0.12875 0.33345 0.80899
 C399 C -0.11033 0.31991 0.80195
 N400 N -0.10067 0.32276 0.78206
 N401 N -0.08473 0.30987 0.77522
 C402 C -0.07796 0.29362 0.78799
 N403 N -0.08757 0.29083 0.80787
 N404 N -0.10342 0.30373 0.81472
 C405 C -0.06104 0.27869 0.78052
 C406 C -0.04929 0.28137 0.76110
 H407 H -0.13522 0.34482 0.79746
 H408 H -0.05778 0.26511 0.79069
 H409 H -0.13233 0.31852 0.84017
 H410 H -0.05188 0.29530 0.75127
 C411 C -0.13531 0.84475 0.32575
 C412 C -0.11751 0.83470 0.33573
 C413 C -0.09827 0.82724 0.32328
 N414 N -0.08303 0.81517 0.33354
 N415 N -0.06596 0.80744 0.32245
 C416 C -0.06337 0.81155 0.30066
 N417 N -0.07843 0.82394 0.29043
 N418 N -0.09561 0.83161 0.30153
 C419 C -0.04515 0.80191 0.28816
 C420 C -0.03379 0.78483 0.29684
 H421 H -0.11791 0.83164 0.35326
 H422 H -0.04170 0.80722 0.27162
 H423 H -0.13451 0.84833 0.30833
 H424 H -0.03849 0.77887 0.31282
 C425 C 0.63541 0.67981 0.32877
 C426 C 0.63088 0.68197 0.30631
 C427 C 0.61028 0.69111 0.29792
 N428 N 0.60508 0.68897 0.27624
 N429 N 0.58648 0.69705 0.26826
 C430 C 0.57242 0.70770 0.28165
 N431 N 0.57769 0.71000 0.30332
 N432 N 0.59624 0.70177 0.31134
 C433 C 0.55200 0.71698 0.27289
 C434 C 0.54376 0.71147 0.25214
 H435 H 0.64269 0.67638 0.29429
 H436 H 0.54313 0.72814 0.28310
 H437 H 0.62382 0.68601 0.34068
 H438 H 0.55194 0.69939 0.24251
 C439 C 0.63946 0.15735 0.83752
 C440 C 0.62180 0.16797 0.84721
 C441 C 0.60475 0.17827 0.83378
 N442 N 0.59032 0.19192 0.84322
 N443 N 0.57496 0.20144 0.83107
 C444 C 0.57344 0.19752 0.80905
 N445 N 0.58776 0.18377 0.79968
 N446 N 0.60317 0.17439 0.81178
 C447 C 0.55646 0.20733 0.79524
 C448 C 0.54336 0.22414 0.80217
 H449 H 0.62068 0.16912 0.86499
 H450 H 0.55459 0.20126 0.77859
 H451 H 0.64006 0.15600 0.81971
 H452 H 0.54581 0.23116 0.81832
 C453 C 1.12734 0.65338 0.84452
 C454 C 1.10980 0.64453 0.83280
 C455 C 1.09248 0.65737 0.82256
 N456 N 1.07839 0.64842 0.80785
 N457 N 1.06317 0.65995 0.79768
 C458 C 1.06140 0.68086 0.80194
 N459 N 1.07529 0.68977 0.81689
 N460 N 1.09061 0.67825 0.82696
 C461 C 1.04517 0.69389 0.79025
 C462 C 1.03424 0.68658 0.77147
 H463 H 1.10919 0.62770 0.83018
 H464 H 1.04272 0.70994 0.79581
 H465 H 1.12747 0.67020 0.84734
 H466 H 1.03757 0.67089 0.76528
 C467 C 1.12900 0.17549 0.33005
 C468 C 1.12372 0.17401 0.30765
 C469 C 1.10527 0.18559 0.29769
 N470 N 1.09998 0.18214 0.27621
 N471 N 1.08352 0.19265 0.26676
 C472 C 1.07177 0.20707 0.27843
 N473 N 1.07710 0.21057 0.29992
 N474 N 1.09352 0.20000 0.30940
 C475 C 1.05384 0.21907 0.26803
 C476 C 1.04650 0.21456 0.24670
 H477 H 1.13364 0.16429 0.29684
 H478 H 1.04627 0.23171 0.27738
 H479 H 1.11922 0.18566 0.34055
 H480 H 1.05360 0.20148 0.23765
 C481 C 0.64137 0.31594 0.66584
 C482 C 0.62301 0.32338 0.67721
 C483 C 0.60599 0.30953 0.68616
 N484 N 0.58989 0.31795 0.69887
 N485 N 0.57462 0.30577 0.70776
 C486 C 0.57478 0.28467 0.70428
 N487 N 0.59076 0.27622 0.69136
 N488 N 0.60613 0.28843 0.68250
 C489 C 0.55815 0.27121 0.71472
 C490 C 0.54443 0.27937 0.73104
 H491 H 0.62120 0.34009 0.68011
 H492 H 0.55714 0.25478 0.71009
 H493 H 0.64271 0.29930 0.66220
 H494 H 0.54633 0.29563 0.73610
 C495 C 0.62571 0.84259 0.16150
 C496 C 0.61595 0.82388 0.15432
 C497 C 0.59598 0.81548 0.16462
 N498 N 0.58699 0.79739 0.15683
 N499 N 0.56942 0.78912 0.16650
 C500 C 0.56020 0.79863 0.18435
 N501 N 0.56912 0.81679 0.19207
 N502 N 0.58665 0.82508 0.18237
 C503 C 0.54166 0.78902 0.19603
 C504 C 0.53201 0.77035 0.18879
 H505 H 0.62350 0.81454 0.14143
 H506 H 0.53625 0.79626 0.21131
 H507 H 0.61801 0.85124 0.17488
 H508 H 0.53717 0.76329 0.17334
 C509 C 1.14781 0.34730 0.16915
 C510 C 1.14124 0.32640 0.16674
 C511 C 1.11949 0.31901 0.17394
 N512 N 1.11241 0.29964 0.16778
 N513 N 1.09303 0.29249 0.17456
 C514 C 1.08002 0.30439 0.18790
 N515 N 1.08712 0.32375 0.19414
 N516 N 1.10645 0.33097 0.18722
 C517 C 1.05907 0.29618 0.19638
 C518 C 1.04954 0.27799 0.18771
 H519 H 1.15235 0.31493 0.15965
 H520 H 1.05133 0.30430 0.21008
 H521 H 1.13658 0.35829 0.17697
 H522 H 1.05679 0.27053 0.17335
 C523 C 1.13809 0.82615 0.68766
 C524 C 1.13274 0.80488 0.68561
 C525 C 1.11227 0.79594 0.69436
 N526 N 1.10675 0.77587 0.68912
 N527 N 1.08833 0.76741 0.69683
 C528 C 1.07475 0.77867 0.71018
 N529 N 1.08032 0.79872 0.71554
 N530 N 1.09870 0.80723 0.70771
 C531 C 1.05452 0.76934 0.71908
 C532 C 1.04654 0.75005 0.71152
 H533 H 1.14380 0.79423 0.67715
 H534 H 1.04563 0.77793 0.73172
 H535 H 1.12712 0.83642 0.69679
 H536 H 1.05492 0.74193 0.69821
 C537 C 0.35343 0.65277 0.68956
 C538 C 0.36933 0.66378 0.67778
 C539 C 0.38844 0.67402 0.68818
 N540 N 0.40090 0.68726 0.67610
 N541 N 0.41767 0.69757 0.68530
 C542 C 0.42267 0.69498 0.70695
 N543 N 0.41037 0.68154 0.71901
 N544 N 0.39349 0.67130 0.70983
 C545 C 0.44092 0.70664 0.71736
 C546 C 0.45127 0.72326 0.70676
 H547 H 0.36704 0.66611 0.66025
 H548 H 0.44583 0.70247 0.73396
 H549 H 0.35622 0.64953 0.70686
 H550 H 0.44570 0.72799 0.69054
 C551 C 0.36262 0.17570 0.18322
 C552 C 0.38038 0.16887 0.19594
 C553 C 0.39774 0.18313 0.20393
 N554 N 0.41380 0.17563 0.21733
 N555 N 0.42946 0.18831 0.22510
 C556 C 0.42970 0.20897 0.21973
 N557 N 0.41371 0.21647 0.20619
 N558 N 0.39799 0.20378 0.19844
 C559 C 0.44667 0.22316 0.22878
 C560 C 0.46154 0.21635 0.24476
 H561 H 0.38166 0.15246 0.20029
 H562 H 0.44691 0.23935 0.22344
 H563 H 0.36190 0.19200 0.17826
 H564 H 0.46075 0.20029 0.25048
 C565 C -0.13496 0.68077 0.18052
 C566 C -0.11562 0.68956 0.17259
 C567 C -0.09828 0.69689 0.18783
 N568 N -0.08038 0.70705 0.18001
 N569 N -0.06434 0.71316 0.19368
 C570 C -0.06551 0.70915 0.21564
 N571 N -0.08333 0.69888 0.22342
 N572 N -0.09941 0.69289 0.20978
 C573 C -0.04802 0.71587 0.23096
 C574 C -0.03181 0.72992 0.22462
 H575 H -0.11257 0.68991 0.15502
 H576 H -0.04859 0.71052 0.24787
 H577 H -0.13735 0.68009 0.19820
 H578 H -0.03202 0.73615 0.20804
 C579 C -0.14623 0.15220 0.65943
 C580 C -0.12927 0.16424 0.65066
 C581 C -0.11260 0.17416 0.66505
 N582 N -0.09700 0.18689 0.65644
 N583 N -0.08181 0.19576 0.66944
 C584 C -0.08166 0.19214 0.69150
 N585 N -0.09721 0.17939 0.70005
 N586 N -0.11240 0.17060 0.68710
 C587 C -0.06500 0.20142 0.70626
 C588 C -0.04953 0.21606 0.69936
 H589 H -0.12794 0.16612 0.63299
 H590 H -0.06517 0.19665 0.72337
 H591 H -0.14656 0.14969 0.67709
 H592 H -0.04958 0.22140 0.68244
 C593 C 0.33148 0.37103 0.34727
 C594 C 0.34305 0.38621 0.33557
 C595 C 0.33218 0.40444 0.32541
 N596 N 0.34369 0.41695 0.31164
 N597 N 0.33397 0.43313 0.30172
 C598 C 0.31237 0.43745 0.30528
 N599 N 0.30091 0.42506 0.31923
 N600 N 0.31060 0.40882 0.32907
 C601 C 0.30123 0.45491 0.29399
 C602 C 0.31108 0.46585 0.27684
 H603 H 0.36060 0.38444 0.33318
 H604 H 0.28443 0.45855 0.29860
 H605 H 0.31404 0.37334 0.35004
 H606 H 0.32757 0.46169 0.27165
 C607 C 0.33950 -0.13614 0.83360
 C608 C 0.34070 -0.13074 0.81139
 C609 C 0.33138 -0.11094 0.80310
 N610 N 0.33468 -0.10534 0.78184
 N611 N 0.32555 -0.08792 0.77386
 C612 C 0.31267 -0.07551 0.78682
 N613 N 0.30936 -0.08111 0.80808
 N614 N 0.31859 -0.09847 0.81609
 C615 C 0.30162 -0.05680 0.77790
 C616 C 0.30660 -0.04910 0.75709
 H617 H 0.34765 -0.14166 0.79954
 H618 H 0.28902 -0.04919 0.78774
 H619 H 0.33182 -0.12517 0.84498
 H620 H 0.31986 -0.05618 0.74772
 C621 C 0.83409 0.36024 0.82630
 C622 C 0.81206 0.36629 0.82473
 C623 C 0.80498 0.38607 0.81448
 N624 N 0.78365 0.39215 0.81607
 N625 N 0.77671 0.40974 0.80653
 C626 C 0.79079 0.42190 0.79493
 N627 N 0.81215 0.41579 0.79326
 N628 N 0.81914 0.39823 0.80292
 C629 C 0.78291 0.44099 0.78373
 C630 C 0.76184 0.44885 0.78755
 H631 H 0.79937 0.35607 0.83097
 H632 H 0.79361 0.44865 0.77206
 H633 H 0.84659 0.37042 0.81957
 H634 H 0.75161 0.44148 0.79985
 C635 C 0.83146 -0.13255 0.33013
 C636 C 0.83952 -0.11632 0.31712
 C637 C 0.82518 -0.09974 0.30827
 N638 N 0.83334 -0.08571 0.29372
 N639 N 0.82049 -0.07076 0.28533
 C640 C 0.79901 -0.06927 0.29125
 N641 N 0.79089 -0.08322 0.30589
 N642 N 0.80372 -0.09822 0.31421
 C643 C 0.78453 -0.05294 0.28216
 C644 C 0.79105 -0.03970 0.26521
 H645 H 0.85683 -0.11577 0.31304
 H646 H 0.76803 -0.05166 0.28873
 H647 H 0.81418 -0.13254 0.33444
 H648 H 0.80729 -0.04134 0.25810
 C649 C 0.31952 0.63043 0.68915
 C650 C 0.32829 0.61351 0.70073
 C651 C 0.31415 0.59621 0.70813
 N652 N 0.32268 0.58041 0.72042
 N653 N 0.31002 0.56451 0.72677
 C654 C 0.28841 0.56380 0.72095
 N655 N 0.27992 0.57955 0.70862
 N656 N 0.29254 0.59545 0.70235
 C657 C 0.27413 0.54640 0.72763
 C658 C 0.28106 0.53097 0.74225
 H659 H 0.34584 0.61249 0.70369
 H660 H 0.25744 0.54607 0.72125
 H661 H 0.30192 0.63096 0.68630
 H662 H 0.29748 0.53163 0.74926
 C663 C 0.33922 1.14440 0.18987
 C664 C 0.32875 1.12649 0.18165
 C665 C 0.32235 1.10894 0.19590
 N666 N 0.31073 1.09269 0.18724
 N667 N 0.30431 1.07690 0.19994
 C668 C 0.30935 1.07670 0.22180
 N669 N 0.32119 1.09285 0.23045
 N670 N 0.32756 1.10870 0.21774
 C671 C 0.30129 1.05980 0.23614
 C672 C 0.28567 1.04550 0.22848
 H673 H 0.32509 1.12523 0.16419
 H674 H 0.30639 1.05959 0.25328
 H675 H 0.34341 1.14514 0.20725
 H676 H 0.27988 1.04654 0.21160
 C677 C 0.84199 0.64984 0.17600
 C678 C 0.82331 0.63948 0.16809
 C679 C 0.81458 0.62084 0.17919
 N680 N 0.79700 0.61055 0.17053
 N681 N 0.78865 0.59394 0.18070
 C682 C 0.79753 0.58703 0.19995
 N683 N 0.81511 0.59732 0.20860
 N684 N 0.82350 0.61389 0.19839
 C685 C 0.78798 0.56918 0.21174
 C686 C 0.77069 0.55757 0.20282
 H687 H 0.81440 0.64538 0.15394
 H688 H 0.79437 0.56543 0.22795
 H689 H 0.85006 0.64377 0.19062
 H690 H 0.76467 0.56108 0.18641
 C691 C 0.83016 1.12152 0.65460
 C692 C 0.80949 1.11321 0.64941
 C693 C 0.80090 1.09477 0.66105
 N694 N 0.78004 1.08797 0.65725
 N695 N 0.77188 1.07190 0.66857
 C696 C 0.78434 1.06210 0.68408
 N697 N 0.80520 1.06880 0.68770
 N698 N 0.81333 1.08481 0.67641
 C699 C 0.77563 1.04509 0.69767
 C700 C 0.75448 1.03689 0.69534
 H701 H 0.79884 1.12107 0.63771
 H702 H 0.78636 1.03908 0.71049
 H703 H 0.84001 1.11385 0.66713
 H704 H 0.74377 1.04219 0.68217
 C705 C 0.66731 0.65455 0.32407
 C706 C 0.65692 0.63905 0.31138
 C707 C 0.66972 0.62192 0.30114
 N708 N 0.66002 0.60808 0.28698
 N709 N 0.67160 0.59235 0.27808
 C710 C 0.69326 0.58989 0.28316
 N711 N 0.70288 0.60368 0.29732
 N712 N 0.69136 0.61941 0.30609
 C713 C 0.70648 0.57248 0.27431
 C714 C 0.69954 0.55903 0.25742
 H715 H 0.63920 0.63912 0.30945
 H716 H 0.72282 0.57053 0.28124
 H717 H 0.68499 0.65361 0.32639
 H718 H 0.68372 0.56134 0.24949
 C719 C 0.66839 1.12962 0.84156
 C720 C 0.65971 1.11655 0.82513
 C721 C 0.67242 1.09913 0.81539
 N722 N 0.66320 1.08698 0.79939
 N723 N 0.67461 1.07146 0.79001
 C724 C 0.69570 1.06748 0.79627
 N725 N 0.70492 1.07958 0.81233
 N726 N 0.69350 1.09513 0.82172
 C727 C 0.70859 1.05062 0.78567
 C728 C 0.69972 1.03829 0.76876
 H729 H 0.64315 1.11912 0.81907
 H730 H 0.72542 1.04810 0.79100
 H731 H 0.68452 1.12603 0.84828
 H732 H 0.68287 1.04090 0.76350
 C733 C 0.15207 0.62247 0.84008
 C734 C 0.16512 0.60664 0.84916
 C735 C 0.17289 0.58874 0.83582
 N736 N 0.18777 0.57504 0.84432
 N737 N 0.19548 0.55920 0.83207
 C738 C 0.18850 0.55647 0.81092
 N739 N 0.17348 0.57004 0.80253
 N740 N 0.16584 0.58590 0.81473
 C741 C 0.19726 0.53960 0.79681
 C742 C 0.21450 0.52654 0.80332
 H743 H 0.17021 0.60759 0.86628
 H744 H 0.19049 0.53809 0.78031
 H745 H 0.14671 0.62089 0.82308
 H746 H 0.22158 0.52812 0.81967
 C747 C 0.15458 1.14482 0.32983
 C748 C 0.17606 1.13733 0.33205
 C749 C 0.18366 1.11788 0.32123
 N750 N 0.20410 1.11046 0.32571
 N751 N 0.21147 1.09306 0.31588
 C752 C 0.19873 1.08245 0.30110
 N753 N 0.17828 1.08991 0.29652
 N754 N 0.17086 1.10729 0.30644
 C755 C 0.20701 1.06336 0.28998
 C756 C 0.22676 1.05411 0.29653
 H757 H 0.18795 1.14617 0.34165
 H758 H 0.19753 1.05655 0.27655
 H759 H 0.14304 1.13597 0.31977
 H760 H 0.23569 1.06065 0.31047
 C761 C 0.66400 0.34795 0.67208
 C762 C 0.67526 0.36532 0.66394
 C763 C 0.68044 0.38371 0.67792
 N764 N 0.69370 0.39906 0.67017
 N765 N 0.69871 0.41568 0.68271
 C766 C 0.69053 0.41763 0.70345
 N767 N 0.67711 0.40237 0.71113
 N768 N 0.67219 0.38571 0.69863
 C769 C 0.69629 0.43565 0.71772
 C770 C 0.71287 0.44973 0.71220
 H771 H 0.68040 0.36558 0.64688
 H772 H 0.68811 0.43720 0.73349
 H773 H 0.65867 0.34828 0.68910
 H774 H 0.72173 0.44761 0.69687
 C775 C 0.65740 -0.13402 0.16606
 C776 C 0.67084 -0.11864 0.15692
 C777 C 0.68075 -0.10188 0.17062
 N778 N 0.69488 -0.08793 0.16157
 N779 N 0.70381 -0.07268 0.17385
 C780 C 0.69888 -0.07077 0.19562
 N781 N 0.68472 -0.08468 0.20463
 N782 N 0.67585 -0.09995 0.19238
 C783 C 0.70845 -0.05405 0.20953
 C784 C 0.72463 -0.04042 0.20200
 H785 H 0.67389 -0.11865 0.13935
 H786 H 0.70285 -0.05273 0.22642
 H787 H 0.65381 -0.13312 0.18354
 H788 H 0.73073 -0.04203 0.18531
 C789 C 0.17767 0.37272 0.17527
 C790 C 0.19552 0.38449 0.16789
 C791 C 0.20436 0.40260 0.18029
 N792 N 0.22215 0.41292 0.17247
 N793 N 0.23068 0.42911 0.18360
 C794 C 0.22174 0.43562 0.20298
 N795 N 0.20388 0.42535 0.21078
 N796 N 0.19535 0.40912 0.19965
 C797 C 0.23131 0.45329 0.21559
 C798 C 0.25044 0.46331 0.20874
 H799 H 0.20343 0.38037 0.15249
 H800 H 0.22343 0.45817 0.23079
 H801 H 0.16929 0.37773 0.19016
 H802 H 0.25842 0.45818 0.19369
 C803 C 0.16549 -0.14511 0.68699
 C804 C 0.18079 -0.13308 0.67550
 C805 C 0.19017 -0.11344 0.68421
 N806 N 0.20587 -0.10339 0.67251
 N807 N 0.21526 -0.08600 0.68040
 C808 C 0.20927 -0.07798 0.70031
 N809 N 0.19343 -0.08794 0.71195
 N810 N 0.18406 -0.10537 0.70407
 C811 C 0.22013 -0.05929 0.70964
 C812 C 0.23796 -0.04972 0.69938
 H813 H 0.18663 -0.13845 0.65957
 H814 H 0.21459 -0.05352 0.72554
 H815 H 0.15885 -0.13910 0.70235
 H816 H 0.24374 -0.05563 0.68363
 C817 C 0.33132 0.33998 0.37223
 C818 C 0.31713 0.34878 0.38784
 C819 C 0.30623 0.33589 0.40459
 N820 N 0.29052 0.34446 0.41772
 N821 N 0.28035 0.33285 0.43275
 C822 C 0.28563 0.31226 0.43525
 N823 N 0.30145 0.30374 0.42223
 N824 N 0.31153 0.31532 0.40716
 C825 C 0.27447 0.29906 0.45152
 C826 C 0.25612 0.30591 0.46330
 H827 H 0.31380 0.36549 0.38780
 H828 H 0.28046 0.28317 0.45368
 H829 H 0.33460 0.32327 0.37287
 H830 H 0.24962 0.32155 0.46068
 C831 C 0.33204 0.83551 -0.14050
 C832 C 0.33780 0.81777 -0.12837
 C833 C 0.32375 0.80987 -0.11061
 N834 N 0.32916 0.79180 -0.10017
 N835 N 0.31642 0.78434 -0.08424
 C836 C 0.29782 0.79471 -0.07815
 N837 N 0.29246 0.81281 -0.08853
 N838 N 0.30517 0.82024 -0.10449
 C839 C 0.28356 0.78674 -0.06063
 C840 C 0.28748 0.76757 -0.05040
 H841 H 0.35286 0.80933 -0.13189
 H842 H 0.26953 0.79619 -0.05575
 H843 H 0.31727 0.84407 -0.13598
 H844 H 0.30130 0.75793 -0.05548
 C845 C 0.82736 0.32863 -0.14949
 C846 C 0.81661 0.33798 -0.13165
 C847 C 0.80677 0.32506 -0.11424
 N848 N 0.79508 0.33413 -0.09766
 N849 N 0.78679 0.32248 -0.08153
 C850 C 0.79002 0.30134 -0.08135
 N851 N 0.80172 0.29232 -0.09788
 N852 N 0.80989 0.30393 -0.11402
 C853 C 0.78165 0.28814 -0.06350
 C854 C 0.76713 0.29554 -0.04751
 H855 H 0.81633 0.35491 -0.12990
 H856 H 0.78687 0.27186 -0.06321
 H857 H 0.82814 0.31163 -0.15040
 H858 H 0.76101 0.31151 -0.04825
 C859 C 0.83792 0.83737 0.35561
 C860 C 0.82375 0.84442 0.37218
 C861 C 0.81603 0.83052 0.38984
 N862 N 0.80146 0.83778 0.40502
 N863 N 0.79417 0.82530 0.42093
 C864 C 0.80124 0.80508 0.42229
 N865 N 0.81587 0.79786 0.40717
 N866 N 0.82311 0.81032 0.39124
 C867 C 0.79321 0.79092 0.43954
 C868 C 0.77710 0.79685 0.45470
 H869 H 0.81818 0.86058 0.37235
 H870 H 0.79987 0.77512 0.43995
 H871 H 0.84394 0.82136 0.35622
 H872 H 0.77015 0.81252 0.45416
 C873 C 0.67220 0.32405 0.64016
 C874 C 0.66490 0.31055 0.62340
 C875 C 0.67890 0.30439 0.60469
 N876 N 0.67187 0.28943 0.59025
 N877 N 0.68439 0.28353 0.57331
 C878 C 0.70440 0.29245 0.57013
 N879 N 0.71137 0.30750 0.58449
 N880 N 0.69889 0.31334 0.60148
 C881 C 0.71854 0.28596 0.55164
 C882 C 0.71367 0.26861 0.53834
 H883 H 0.64841 0.30420 0.62393
 H884 H 0.73359 0.29464 0.54896
 H885 H 0.68862 0.33051 0.63912
 H886 H 0.69906 0.25942 0.54153
 C887 C 0.65526 0.84172 1.13279
 C888 C 0.67775 0.83830 1.12999
 C889 C 0.68651 0.82663 1.11088
 N890 N 0.70827 0.82761 1.10616
 N891 N 0.71657 0.81660 1.08935
 C892 C 0.70345 0.80399 1.07679
 N893 N 0.68171 0.80287 1.08163
 N894 N 0.67337 0.81405 1.09831
 C895 C 0.71263 0.79133 1.05858
 C896 C 0.73284 0.79623 1.04923
 H897 H 0.68927 0.84373 1.14245
 H898 H 0.70316 0.77822 1.05215
 H899 H 0.64404 0.83624 1.12008
 H900 H 0.74138 0.81030 1.05460
 C901 C 0.18363 0.34354 1.14812
 C902 C 0.17572 0.33462 1.12854
 C903 C 0.19043 0.32436 1.11246
 N904 N 0.18191 0.31198 1.09623
 N905 N 0.19503 0.30264 1.08156
 C906 C 0.21718 0.30548 1.08244
 N907 N 0.22568 0.31803 1.09854
 N908 N 0.21258 0.32722 1.11332
 C909 C 0.23188 0.29547 1.06618
 C910 C 0.22495 0.27883 1.05278
 H911 H 0.15825 0.33505 1.12494
 H912 H 0.24872 0.30089 1.06521
 H913 H 0.20119 0.34334 1.15127
 H914 H 0.20855 0.27253 1.05478
 C915 C 0.17139 0.82354 0.66304
 C916 C 0.16248 0.81537 0.64361
 C917 C 0.17630 0.80590 0.62633
 N918 N 0.16675 0.79651 0.60858
 N919 N 0.17905 0.78789 0.59279
 C920 C 0.20137 0.78843 0.59409
 N921 N 0.21094 0.79795 0.61177
 N922 N 0.19863 0.80651 0.62762
 C923 C 0.21509 0.77860 0.57691
 C924 C 0.20586 0.76585 0.56058
 H925 H 0.14487 0.81623 0.64088
 H926 H 0.23277 0.78065 0.57770
 H927 H 0.18909 0.82350 0.66532
 H928 H 0.18826 0.76314 0.56046
 C929 C 0.32387 0.65881 0.66176
 C930 C 0.30871 0.65077 0.64650
 C931 C 0.30013 0.66368 0.62839
 N932 N 0.28410 0.65618 0.61479
 N933 N 0.27638 0.66784 0.59827
 C934 C 0.28452 0.68737 0.59479
 N935 N 0.30056 0.69480 0.60834
 N936 N 0.30819 0.68320 0.62485
 C937 C 0.27676 0.70059 0.57667
 C938 C 0.25901 0.69558 0.56295
 H939 H 0.30324 0.63466 0.64762
 H940 H 0.28536 0.71529 0.57436
 H941 H 0.32940 0.67486 0.65999
 H942 H 0.24971 0.68132 0.56544
 C943 C 0.33251 0.16663 1.15668
 C944 C 0.34098 0.17852 1.13946
 C945 C 0.32769 0.18525 1.12042
 N946 N 0.33651 0.19870 1.10570
 N947 N 0.32467 0.20560 1.08870
 C948 C 0.30354 0.19925 1.08569
 N949 N 0.29475 0.18559 1.10028
 N950 N 0.30659 0.17875 1.11738
 C951 C 0.29017 0.20747 1.06729
 C952 C 0.29744 0.22443 1.05492
 H953 H 0.35797 0.18357 1.14011
 H954 H 0.27404 0.20084 1.06417
 H955 H 0.31574 0.16098 1.15553
 H956 H 0.31314 0.23157 1.05890
 C957 C 0.84430 0.67525 1.14461
 C958 C 0.84327 0.69628 1.13833
 C959 C 0.83325 0.70267 1.11722
 N960 N 0.83420 0.72301 1.11071
 N961 N 0.82411 0.72915 1.09227
 C962 C 0.81258 0.71519 1.07972
 N963 N 0.81166 0.69488 1.08621
 N964 N 0.82185 0.68872 1.10456
 C965 C 0.80003 0.72185 1.06014
 C966 C 0.80223 0.74164 1.05074
 H967 H 0.84876 0.70846 1.14962
 H968 H 0.78831 0.71083 1.05314
 H969 H 0.83882 0.66336 1.13298
 H970 H 0.81479 0.75230 1.05678
 C971 C 0.82990 0.14886 0.62519
 C972 C 0.82783 0.17028 0.62101
 C973 C 0.81797 0.17828 0.60054
 N974 N 0.81868 0.19913 0.59621
 N975 N 0.80930 0.20673 0.57804
 C976 C 0.79877 0.19377 0.56357
 N977 N 0.79803 0.17292 0.56791
 N978 N 0.80751 0.16530 0.58603
 C979 C 0.78748 0.20212 0.54399
 C980 C 0.78986 0.22294 0.53758
 H981 H 0.83312 0.18162 0.63332
 H982 H 0.77668 0.19176 0.53474
 H983 H 0.82391 0.13769 0.61301
 H984 H 0.80137 0.23304 0.54627
 C985 C 0.66505 0.67578 0.35756
 C986 C 0.66118 0.69488 0.36836
 C987 C 0.67430 0.70109 0.38788
 N988 N 0.67030 0.71958 0.39845
 N989 N 0.68277 0.72562 0.41551
 C990 C 0.69975 0.71341 0.42255
 N991 N 0.70369 0.69493 0.41202
 N992 N 0.69120 0.68888 0.39505
 C993 C 0.71440 0.72007 0.44066
 C994 C 0.71058 0.73801 0.45339
 H995 H 0.64935 0.70595 0.36181
 H996 H 0.72885 0.71056 0.44392
 H997 H 0.67734 0.66529 0.36443
 H998 H 0.69577 0.74717 0.45080
 C999 C 0.66459 0.15607 -0.12915
 C1000 C 0.66436 0.17757 -0.12450
 C1001 C 0.67521 0.18631 -0.10478
 N1002 N 0.67244 0.20685 -0.09933
 N1003 N 0.68293 0.21513 -0.08200
 C1004 C 0.69667 0.20316 -0.06958
 N1005 N 0.69943 0.18264 -0.07502
 N1006 N 0.68883 0.17433 -0.09225
 C1007 C 0.70953 0.21226 -0.05136
 C1008 C 0.70546 0.23226 -0.04286
 H1009 H 0.65687 0.18843 -0.13594
 H1010 H 0.72296 0.20300 -0.04471
 H1011 H 0.67301 0.14565 -0.11784
 H1012 H 0.69122 0.24110 -0.04834
 C1013 C 0.16022 0.64928 -0.13096
 C1014 C 0.15361 0.66439 -0.11555
 C1015 C 0.16911 0.67360 -0.09952
 N1016 N 0.16310 0.69071 -0.08750
 N1017 N 0.17713 0.69951 -0.07326
 C1018 C 0.19767 0.69145 -0.07045
 N1019 N 0.20360 0.67421 -0.08230
 N1020 N 0.18961 0.66548 -0.09664
 C1021 C 0.21336 0.70106 -0.05488
 C1022 C 0.20946 0.72065 -0.04527
 H1023 H 0.13678 0.67000 -0.11545
 H1024 H 0.22853 0.69275 -0.05132
 H1025 H 0.17710 0.64377 -0.13047
 H1026 H 0.19472 0.72933 -0.04957
 C1027 C 0.15763 0.17201 0.35964
 C1028 C 0.15690 0.19310 0.36615
 C1029 C 0.16794 0.20093 0.38624
 N1030 N 0.16435 0.22096 0.39314
 N1031 N 0.17439 0.22846 0.41112
 C1032 C 0.18851 0.21625 0.42283
 N1033 N 0.19221 0.19624 0.41587
 N1034 N 0.18207 0.18869 0.39794
 C1035 C 0.19990 0.22451 0.44257
 C1036 C 0.19399 0.24367 0.45213
 H1037 H 0.14822 0.20442 0.35610
 H1038 H 0.21295 0.21522 0.44987
 H1039 H 0.16665 0.16102 0.36982
 H1040 H 0.18026 0.25244 0.44537
 C1041 C 0.32931 0.35229 0.67732
 C1042 C 0.31719 0.36903 0.66889
 C1043 C 0.30778 0.38511 0.68369
 N1044 N 0.29495 0.40071 0.67552
 N1045 N 0.28678 0.41550 0.68889
 C1046 C 0.29127 0.41525 0.71088
 N1047 N 0.30414 0.39970 0.71899
 N1048 N 0.31222 0.38491 0.70567
 C1049 C 0.28254 0.43133 0.72598
 C1050 C 0.26710 0.44621 0.71940
 H1051 H 0.31532 0.37079 0.65124
 H1052 H 0.28794 0.43095 0.74304
 H1053 H 0.33183 0.35137 0.69500
 H1054 H 0.26107 0.44621 0.70256
 C1055 C 0.32077 0.86892 0.16581
 C1056 C 0.32550 0.87753 0.18652
 C1057 C 0.31368 0.89612 0.19499
 N1058 N 0.31934 0.90456 0.21481
 N1059 N 0.30852 0.92114 0.22285
 C1060 C 0.29157 0.92986 0.21140
 N1061 N 0.28588 0.92140 0.19159
 N1062 N 0.29674 0.90486 0.18352
 C1063 C 0.27935 0.94805 0.22028
 C1064 C 0.28594 0.95805 0.23971
 H1065 H 0.33761 0.87023 0.19714
 H1066 H 0.26507 0.95370 0.21135
 H1067 H 0.30822 0.87641 0.15580
 H1068 H 0.30055 0.95260 0.24825
 C1069 C 0.83737 0.38597 0.15213
 C1070 C 0.83840 0.39495 0.17313
 C1071 C 0.82463 0.41327 0.17887
 N1072 N 0.82481 0.42115 0.19972
 N1073 N 0.81125 0.43675 0.20539
 C1074 C 0.79693 0.44497 0.19045
 N1075 N 0.79685 0.43717 0.16959
 N1076 N 0.81043 0.42163 0.16392
 C1077 C 0.78122 0.46159 0.19666
 C1078 C 0.78172 0.47106 0.21740
 H1079 H 0.84762 0.38724 0.18609
 H1080 H 0.76901 0.46645 0.18464
 H1081 H 0.82744 0.39365 0.13965
 H1082 H 0.79443 0.46669 0.22910
 C1083 C 0.84406 0.86672 0.66782
 C1084 C 0.82359 0.87523 0.66226
 C1085 C 0.81401 0.89329 0.67407
 N1086 N 0.79362 0.90017 0.66845
 N1087 N 0.78442 0.91621 0.67921
 C1088 C 0.79525 0.92601 0.69601
 N1089 N 0.81570 0.91921 0.70158
 N1090 N 0.82492 0.90313 0.69081
 C1091 C 0.78497 0.94347 0.70829
 C1092 C 0.76366 0.95019 0.70349
 H1093 H 0.81374 0.86800 0.64939
 H1094 H 0.79415 0.95084 0.72161
 H1095 H 0.85316 0.87357 0.68151
 H1096 H 0.75452 0.94269 0.69023
 C1097 C 0.67684 0.63915 0.66227
 C1098 C 0.66672 0.62193 0.67205
 C1099 C 0.67894 0.60346 0.67994
 N1100 N 0.66799 0.58814 0.69071
 N1101 N 0.67872 0.57161 0.69872
 C1102 C 0.70084 0.56971 0.69624
 N1103 N 0.71180 0.58494 0.68528
 N1104 N 0.70105 0.60154 0.67729
 C1105 C 0.71291 0.55186 0.70591
 C1106 C 0.70255 0.53784 0.72000
 H1107 H 0.64909 0.62213 0.67450
 H1108 H 0.73040 0.55042 0.70288
 H1109 H 0.69433 0.63853 0.65897
 H1110 H 0.68521 0.53984 0.72357
 C1111 C 0.67587 0.15017 0.17126
 C1112 C 0.66710 0.13287 0.18208
 C1113 C 0.68023 0.11397 0.18668
 N1114 N 0.67160 0.09839 0.19905
 N1115 N 0.68347 0.08140 0.20381
 C1116 C 0.70439 0.07932 0.19629
 N1117 N 0.71295 0.09481 0.18376
 N1118 N 0.70110 0.11183 0.17906
 C1119 C 0.71803 0.06107 0.20214
 C1120 C 0.71121 0.04637 0.21754
 H1121 H 0.65014 0.13318 0.18748
 H1122 H 0.73436 0.05991 0.19514
 H1123 H 0.69267 0.14939 0.16541
 H1124 H 0.69514 0.04787 0.22504
 C1125 C 0.16954 0.63643 0.17112
 C1126 C 0.19118 0.62940 0.16854
 C1127 C 0.20029 0.61117 0.18024
 N1128 N 0.22086 0.60436 0.17531
 N1129 N 0.22963 0.58803 0.18577
 C1130 C 0.21818 0.57791 0.20164
 N1131 N 0.19760 0.58475 0.20662
 N1132 N 0.18877 0.60106 0.19608
 C1133 C 0.22803 0.56020 0.21370
 C1134 C 0.24839 0.55176 0.20780
 H1135 H 0.20214 0.63764 0.15759
 H1136 H 0.21923 0.55392 0.22766
 H1137 H 0.15893 0.62845 0.18264
 H1138 H 0.25684 0.55770 0.19346
 C1139 C 0.16720 0.13036 0.66647
 C1140 C 0.18042 0.11504 0.65660
 C1141 C 0.19046 0.09778 0.66915
 N1142 N 0.20507 0.08477 0.65910
 N1143 N 0.21480 0.06939 0.67028
 C1144 C 0.21025 0.06637 0.69194
 N1145 N 0.19547 0.07926 0.70196
 N1146 N 0.18578 0.09471 0.69078
 C1147 C 0.22137 0.04971 0.70454
 C1148 C 0.23894 0.03844 0.69564
 H1149 H 0.18395 0.11586 0.63915
 H1150 H 0.21619 0.04681 0.72130
 H1151 H 0.16332 0.12897 0.68382
 H1152 H 0.24453 0.04196 0.67914
 C1153 C 0.34667 0.63947 0.35218
 C1154 C 0.34246 0.63630 0.32976
 C1155 C 0.33257 0.61689 0.32094
 N1156 N 0.33366 0.61274 0.29900
 N1157 N 0.32467 0.59537 0.29058
 C1158 C 0.31408 0.58156 0.30375
 N1159 N 0.31280 0.58580 0.32570
 N1160 N 0.32198 0.60311 0.33416
 C1161 C 0.30375 0.56256 0.29438
 C1162 C 0.30951 0.55508 0.27352
 H1163 H 0.34675 0.64840 0.31812
 H1164 H 0.29165 0.55427 0.30403
 H1165 H 0.34182 0.62750 0.36376
 H1166 H 0.32271 0.56264 0.26467
 C1167 C 0.33577 0.12393 0.84171
 C1168 C 0.34254 0.11587 0.82129
 C1169 C 0.33171 0.09780 0.81061
 N1170 N 0.33875 0.09088 0.79061
 N1171 N 0.32882 0.07482 0.78048
 C1172 C 0.31146 0.06510 0.78999
 N1173 N 0.30446 0.07198 0.81001
 N1174 N 0.31439 0.08802 0.82015
 C1175 C 0.29987 0.04771 0.77890
 C1176 C 0.30615 0.03972 0.75836
 H1177 H 0.35570 0.12337 0.81238
 H1178 H 0.28569 0.04118 0.78712
 H1179 H 0.32202 0.11658 0.84992
 H1180 H 0.32047 0.04597 0.75014
 C1181 C 0.81883 0.63502 0.82830
 C1182 C 0.80560 0.61954 0.83762
 C1183 C 0.79713 0.60173 0.82443
 N1184 N 0.78216 0.58837 0.83312
 N1185 N 0.77454 0.57215 0.82132
 C1186 C 0.78174 0.56864 0.80042
 N1187 N 0.79678 0.58192 0.79181
 N1188 N 0.80430 0.59817 0.80355
 C1189 C 0.77377 0.55084 0.78700
 C1190 C 0.75609 0.53823 0.79306
 H1191 H 0.80159 0.62021 0.85498
 H1192 H 0.78172 0.54807 0.77128
 H1193 H 0.82258 0.63383 0.81089
 H1194 H 0.74740 0.54140 0.80828
 C1195 C 0.83673 0.14645 0.31097
 C1196 C 0.82542 0.12974 0.32047
 C1197 C 0.81741 0.11169 0.30739
 N1198 N 0.80455 0.09699 0.31698
 N1199 N 0.79687 0.08075 0.30529
 C1200 C 0.80186 0.07857 0.28357
 N1201 N 0.81485 0.09319 0.27403
 N1202 N 0.82245 0.10947 0.28570
 C1203 C 0.79328 0.06094 0.27025
 C1204 C 0.77768 0.04691 0.27822
 H1205 H 0.82214 0.12989 0.33800
 H1206 H 0.79882 0.05949 0.25335
 H1207 H 0.84037 0.14573 0.29351
 H1208 H 0.77158 0.04868 0.29489
 C1209 C 0.67149 0.38434 0.34143
 C1210 C 0.66261 0.39713 0.32504
 C1211 C 0.67477 0.41500 0.31601
 N1212 N 0.66676 0.42510 0.29808
 N1213 N 0.67795 0.44081 0.28914
 C1214 C 0.69753 0.44705 0.29784
 N1215 N 0.70543 0.43712 0.31594
 N1216 N 0.69428 0.42133 0.32483
 C1217 C 0.71034 0.46390 0.28759
 C1218 C 0.70466 0.47168 0.26694
 H1219 H 0.64658 0.39371 0.31807
 H1220 H 0.72498 0.46958 0.29595
 H1221 H 0.68726 0.38856 0.34861
 H1222 H 0.69047 0.46536 0.25830
 C1223 C 0.65601 0.86324 0.83519
 C1224 C 0.67665 0.87269 0.83428
 C1225 C 0.68089 0.89098 0.82028
 N1226 N 0.70092 0.90029 0.82083
 N1227 N 0.70532 0.91634 0.80764
 C1228 C 0.68988 0.92363 0.79331
 N1229 N 0.66983 0.91432 0.79275
 N1230 N 0.66540 0.89831 0.80602
 C1231 C 0.69489 0.94087 0.77813
 C1232 C 0.71461 0.95186 0.77964
 H1233 H 0.69041 0.86591 0.84313
 H1234 H 0.68301 0.94477 0.76542
 H1235 H 0.64257 0.87007 0.82585
 H1236 H 0.72610 0.94833 0.79283
 C1237 C 0.16828 0.34064 0.83749
 C1238 C 0.15941 0.35672 0.82466
 C1239 C 0.17246 0.37503 0.81809
 N1240 N 0.16371 0.38944 0.80418
 N1241 N 0.17547 0.40597 0.79788
 C1242 C 0.19639 0.40869 0.80535
 N1243 N 0.20508 0.39434 0.81934
 N1244 N 0.19335 0.37780 0.82557
 C1245 C 0.20979 0.42662 0.79844
 C1246 C 0.20279 0.44088 0.78253
 H1247 H 0.14243 0.35591 0.81922
 H1248 H 0.22603 0.42824 0.80571
 H1249 H 0.18510 0.34202 0.84331
 H1250 H 0.18676 0.43912 0.77485
 C1251 C 0.18499 0.86559 0.35388
 C1252 C 0.17610 0.88377 0.34471
 C1253 C 0.18963 0.90191 0.33851
 N1254 N 0.18008 0.91822 0.32787
 N1255 N 0.19210 0.93439 0.32117
 C1256 C 0.21416 0.93493 0.32491
 N1257 N 0.22370 0.91873 0.33584
 N1258 N 0.21167 0.90250 0.34250
 C1259 C 0.22770 0.95213 0.31615
 C1260 C 0.21899 0.96602 0.30074
 H1261 H 0.15860 0.88462 0.34142
 H1262 H 0.24504 0.95275 0.32032
 H1263 H 0.20237 0.86517 0.35793
 H1264 H 0.20192 0.96444 0.29577
 C1265 C 0.36344 0.33329 0.67137
 C1266 C 0.37321 0.31366 0.66835
 C1267 C 0.39281 0.30757 0.68120
 N1268 N 0.40127 0.28792 0.67917
 N1269 N 0.41809 0.28187 0.69182
 C1270 C 0.42701 0.29522 0.70701
 N1271 N 0.41866 0.31490 0.70891
 N1272 N 0.40189 0.32095 0.69624
 C1273 C 0.44482 0.28847 0.72187
 C1274 C 0.45441 0.26868 0.72006
 H1275 H 0.36534 0.30194 0.65798
 H1276 H 0.45019 0.29918 0.73478
 H1277 H 0.37129 0.34443 0.68248
 H1278 H 0.44944 0.25822 0.70677
 C1279 C 0.35036 0.84129 0.16743
 C1280 C 0.35394 0.81971 0.16915
 C1281 C 0.37428 0.81078 0.17847
 N1282 N 0.37856 0.78999 0.17588
 N1283 N 0.39692 0.78159 0.18409
 C1284 C 0.41164 0.79367 0.19533
 N1285 N 0.40728 0.81444 0.19808
 N1286 N 0.38898 0.82287 0.18972
 C1287 C 0.43183 0.78452 0.20478
 C1288 C 0.43915 0.76446 0.19895
 H1289 H 0.34159 0.80889 0.16301
 H1290 H 0.44133 0.79393 0.21632
 H1291 H 0.36243 0.85204 0.17425
 H1292 H 0.43032 0.75550 0.18649
 C1293 C 0.86466 0.35674 0.15751
 C1294 C 0.86872 0.33519 0.15883
 C1295 C 0.88926 0.32630 0.16767
 N1296 N 0.89397 0.30576 0.16385
 N1297 N 0.91239 0.29723 0.17173
 C1298 C 0.92677 0.30888 0.18385
 N1299 N 0.92201 0.32942 0.18782
 N1300 N 0.90365 0.33802 0.17976
 C1301 C 0.94673 0.29928 0.19331
 C1302 C 0.95437 0.27974 0.18608
 H1303 H 0.85659 0.32418 0.15264
 H1304 H 0.95537 0.30759 0.20637
 H1305 H 0.87659 0.36761 0.16440
 H1306 H 0.94647 0.27209 0.17213
 C1307 C 0.86898 0.83636 0.66931
 C1308 C 0.88454 0.82345 0.65910
 C1309 C 0.90052 0.81115 0.67198
 N1310 N 0.91299 0.79623 0.66190
 N1311 N 0.92713 0.78466 0.67352
 C1312 C 0.92938 0.78768 0.69563
 N1313 N 0.91706 0.80272 0.70566
 N1314 N 0.90285 0.81419 0.69407
 C1315 C 0.94469 0.77495 0.70881
 C1316 C 0.95517 0.75719 0.70027
 H1317 H 0.88480 0.82195 0.64131
 H1318 H 0.94719 0.77931 0.72594
 H1319 H 0.86967 0.83830 0.68708
 H1320 H 0.95209 0.75234 0.68337
 C1321 C 0.64299 0.35627 0.33667
 C1322 C 0.62550 0.34613 0.34682
 C1323 C 0.60771 0.33604 0.33411
 N1324 N 0.59370 0.32280 0.34434
 N1325 N 0.57786 0.31307 0.33300
 C1326 C 0.57532 0.31632 0.31101
 N1327 N 0.58913 0.32980 0.30082
 N1328 N 0.60509 0.33943 0.31214
 C1329 C 0.55829 0.30505 0.29827
 C1330 C 0.54826 0.28722 0.30670
 H1331 H 0.62517 0.34503 0.36463
 H1332 H 0.55454 0.31008 0.28165
 H1333 H 0.64304 0.35758 0.31888
 H1334 H 0.55322 0.28153 0.32278
 C1335 C 0.63515 0.82992 0.83829
 C1336 C 0.62907 0.82948 0.81604
 C1337 C 0.61048 0.81721 0.80729
 N1338 N 0.60430 0.81969 0.78595
 N1339 N 0.58730 0.80908 0.77761
 C1340 C 0.57585 0.79551 0.79031
 N1341 N 0.58210 0.79291 0.81166
 N1342 N 0.59908 0.80361 0.82004
 C1343 C 0.55707 0.78368 0.78118
 C1344 C 0.54848 0.78786 0.76029
 H1345 H 0.63806 0.83893 0.80439
 H1346 H 0.54973 0.77159 0.79121
 H1347 H 0.62672 0.81985 0.84979
 H1348 H 0.55534 0.80045 0.75060
 C1349 C 0.13911 0.31458 0.82868
 C1350 C 0.12165 0.30213 0.83562
 C1351 C 0.10415 0.29533 0.82029
 N1352 N 0.08775 0.28274 0.82746
 N1353 N 0.07177 0.27658 0.81375
 C1354 C 0.07157 0.28285 0.79238
 N1355 N 0.08794 0.29549 0.78524
 N1356 N 0.10393 0.30161 0.79893
 C1357 C 0.05420 0.27603 0.77695
 C1358 C 0.03803 0.26175 0.78297
 H1359 H 0.12044 0.29769 0.85276
 H1360 H 0.05456 0.28192 0.76024
 H1361 H 0.13970 0.31928 0.81156
 H1362 H 0.03794 0.25550 0.79953
 C1363 C 0.15226 0.84298 0.34546
 C1364 C 0.13563 0.83003 0.35346
 C1365 C 0.11763 0.82199 0.33956
 N1366 N 0.10407 0.80701 0.34757
 N1367 N 0.08833 0.79868 0.33492
 C1368 C 0.08558 0.80506 0.31377
 N1369 N 0.09899 0.82020 0.30582
 N1370 N 0.11480 0.82848 0.31846
 C1371 C 0.06864 0.79571 0.29942
 C1372 C 0.05639 0.77822 0.30558
 H1373 H 0.13652 0.82451 0.37028
 H1374 H 0.06622 0.80246 0.28325
 H1375 H 0.15085 0.84930 0.32899
 H1376 H 0.05915 0.77105 0.32150
 C1377 C 0.64541 0.66364 0.66892
 C1378 C 0.62846 0.67558 0.65975
 C1379 C 0.60943 0.68305 0.67254
 N1380 N 0.59424 0.69551 0.66269
 N1381 N 0.57731 0.70315 0.67408
 C1382 C 0.57486 0.69860 0.69578
 N1383 N 0.58994 0.68595 0.70561
 N1384 N 0.60694 0.67832 0.69421
 C1385 C 0.55673 0.70791 0.70868
 C1386 C 0.54309 0.72323 0.69962
 H1387 H 0.62931 0.67996 0.64256
 H1388 H 0.55494 0.70361 0.72583
 H1389 H 0.64400 0.65840 0.68581
 H1390 H 0.54551 0.72791 0.68266
 C1391 C 0.64678 0.17541 0.18295
 C1392 C 0.62960 0.18901 0.17752
 C1393 C 0.61291 0.19566 0.19365
 N1394 N 0.59756 0.21010 0.18783
 N1395 N 0.58237 0.21642 0.20220
 C1396 C 0.58190 0.20851 0.22294
 N1397 N 0.59719 0.19398 0.22875
 N1398 N 0.61244 0.18769 0.21438
 C1399 C 0.56519 0.21556 0.23893
 C1400 C 0.55091 0.23204 0.23407
 H1401 H 0.62818 0.19494 0.16090
 H1402 H 0.56434 0.20791 0.25479
 H1403 H 0.64755 0.16912 0.19949
 H1404 H 0.55230 0.23995 0.21839
 C1405 C 0.14204 0.66562 0.16703
 C1406 C 0.13659 0.66709 0.18930
 C1407 C 0.11873 0.68087 0.19714
 N1408 N 0.11195 0.67969 0.21836
 N1409 N 0.09609 0.69231 0.22582
 C1410 C 0.08652 0.70672 0.21239
 N1411 N 0.09342 0.70803 0.19120
 N1412 N 0.10920 0.69530 0.18370
 C1413 C 0.06900 0.72073 0.22060
 C1414 C 0.05852 0.71673 0.24047
 H1415 H 0.14600 0.65850 0.20145
 H1416 H 0.06388 0.73393 0.21064
 H1417 H 0.13233 0.67443 0.15524
 H1418 H 0.06294 0.70280 0.24965
 C1419 C 0.14153 0.16085 0.66399
 C1420 C 0.12472 0.15276 0.67698
 C1421 C 0.10656 0.16626 0.68469
 N1422 N 0.09076 0.15852 0.69811
 N1423 N 0.07416 0.17070 0.70484
 C1424 C 0.07277 0.19102 0.69828
 N1425 N 0.08852 0.19870 0.68485
 N1426 N 0.10509 0.18657 0.67820
 C1427 C 0.05475 0.20489 0.70533
 C1428 C 0.03890 0.19908 0.72062
 H1429 H 0.12445 0.13622 0.68095
 H1430 H 0.05437 0.22058 0.69855
 H1431 H 0.14114 0.17739 0.65994
 H1432 H 0.03940 0.18363 0.72794
 C1433 C 0.37179 0.67089 0.34851
 C1434 C 0.38666 0.66173 0.33381
 C1435 C 0.40198 0.67446 0.32084
 N1436 N 0.41349 0.66549 0.30411
 N1437 N 0.42692 0.67698 0.29181
 C1438 C 0.42939 0.69786 0.29586
 N1439 N 0.41805 0.70679 0.31273
 N1440 N 0.40454 0.69532 0.32495
 C1441 C 0.44392 0.71084 0.28228
 C1442 C 0.45313 0.70335 0.26274
 H1443 H 0.38666 0.64489 0.33122
 H1444 H 0.44688 0.72691 0.28749
 H1445 H 0.37277 0.68765 0.35164
 H1446 H 0.44953 0.68753 0.25712
 C1447 C 0.36624 0.15008 0.84378
 C1448 C 0.36932 0.17110 0.83852
 C1449 C 0.38916 0.17854 0.82722
 N1450 N 0.39269 0.19944 0.82526
 N1451 N 0.41026 0.20650 0.81462
 C1452 C 0.42491 0.19293 0.80537
 N1453 N 0.42131 0.17199 0.80718
 N1454 N 0.40379 0.16492 0.81797
 C1455 C 0.44422 0.20077 0.79337
 C1456 C 0.45054 0.22170 0.79535
 H1457 H 0.35647 0.18239 0.84220
 H1458 H 0.45367 0.19001 0.78322
 H1459 H 0.37889 0.13876 0.83952
 H1460 H 0.44163 0.23196 0.80654
 C1461 C 0.84631 0.66389 0.83184
 C1462 C 0.86168 0.65484 0.81753
 C1463 C 0.87985 0.66689 0.80784
 N1464 N 0.89263 0.65788 0.79208
 N1465 N 0.90911 0.66850 0.78306
 C1466 C 0.91351 0.68854 0.78953
 N1467 N 0.90080 0.69752 0.80537
 N1468 N 0.88424 0.68692 0.81432
 C1469 C 0.93186 0.70038 0.77987
 C1470 C 0.94356 0.69286 0.76170
 H1471 H 0.86042 0.63838 0.81317
 H1472 H 0.93611 0.71544 0.78713
 H1473 H 0.84819 0.68027 0.83641
 H1474 H 0.93877 0.67816 0.75397
 C1475 C 0.86118 0.17770 0.31519
 C1476 C 0.87769 0.16988 0.30142
 C1477 C 0.89483 0.18330 0.29190
 N1478 N 0.90853 0.17524 0.27637
 N1479 N 0.92397 0.18715 0.26730
 C1480 C 0.92639 0.20757 0.27348
 N1481 N 0.91280 0.21561 0.28915
 N1482 N 0.89726 0.20372 0.29815
 C1483 C 0.94337 0.22087 0.26342
 C1484 C 0.95508 0.21419 0.24492
 H1485 H 0.87799 0.15334 0.29714
 H1486 H 0.94631 0.23635 0.27035
 H1487 H 0.86142 0.19419 0.31969
 H1488 H 0.95140 0.19906 0.23751
 C1489 C 0.33309 0.32896 0.64346
 C1490 C 0.31052 0.32727 0.63940
 C1491 C 0.30144 0.31768 0.61916
 N1492 N 0.27959 0.31936 0.61485
 N1493 N 0.27094 0.31075 0.59670
 C1494 C 0.28380 0.30001 0.58221
 N1495 N 0.30566 0.29819 0.58658
 N1496 N 0.31434 0.30693 0.60469
 C1497 C 0.27429 0.29027 0.56221
 C1498 C 0.25292 0.29491 0.55528
 H1499 H 0.29894 0.33320 0.65145
 H1500 H 0.28436 0.27956 0.55261
 H1501 H 0.34450 0.32248 0.63152
 H1502 H 0.24333 0.30642 0.56434
 C1503 C 0.31935 0.83973 0.13944
 C1504 C 0.33016 0.82754 0.12360
 C1505 C 0.31813 0.81839 0.10475
 N1506 N 0.32746 0.80304 0.09223
 N1507 N 0.31642 0.79447 0.07536
 C1508 C 0.29574 0.80111 0.07035
 N1509 N 0.28655 0.81660 0.08271
 N1510 N 0.29750 0.82504 0.09963
 C1511 C 0.28304 0.79180 0.05211
 C1512 C 0.28906 0.77310 0.04166
 H1513 H 0.34764 0.82452 0.12502
 H1514 H 0.26769 0.79939 0.04762
 H1515 H 0.30197 0.84295 0.13717
 H1516 H 0.30384 0.76487 0.04673
 C1517 C 0.83089 0.35298 0.13306
 C1518 C 0.83909 0.34057 0.11594
 C1519 C 0.82414 0.33012 0.10022
 N1520 N 0.83210 0.31640 0.08497
 N1521 N 0.81854 0.30696 0.07068
 C1522 C 0.79657 0.31099 0.07110
 N1523 N 0.78866 0.32477 0.08626
 N1524 N 0.80218 0.33412 0.10057
 C1525 C 0.78130 0.30094 0.05548
 C1526 C 0.78778 0.28489 0.04120
 H1527 H 0.85669 0.33874 0.11388
 H1528 H 0.76431 0.30613 0.05554
 H1529 H 0.81328 0.35548 0.13416
 H1530 H 0.80457 0.27915 0.04157
 C1531 C 0.84470 0.84183 0.63575
 C1532 C 0.84092 0.82084 0.63016
 C1533 C 0.82933 0.81477 0.60973
 N1534 N 0.82931 0.79443 0.60288
 N1535 N 0.81801 0.78860 0.58496
 C1536 C 0.80616 0.80290 0.57334
 N1537 N 0.80614 0.82322 0.58022
 N1538 N 0.81758 0.82907 0.59802
 C1539 C 0.79247 0.79655 0.55439
 C1540 C 0.79493 0.77722 0.54375
 H1541 H 0.84575 0.80854 0.64142
 H1542 H 0.77996 0.80743 0.54874
 H1543 H 0.83943 0.85391 0.62439
 H1544 H 0.80842 0.76693 0.54823
 C1545 C 0.34864 0.66764 0.38129
 C1546 C 0.32878 0.66209 0.39108
 C1547 C 0.32028 0.67298 0.41078
 N1548 N 0.30026 0.66773 0.41875
 N1549 N 0.29183 0.67797 0.43598
 C1550 C 0.30308 0.69388 0.44592
 N1551 N 0.32321 0.69904 0.43806
 N1552 N 0.33165 0.68879 0.42080
 C1553 C 0.29338 0.70582 0.46440
 C1554 C 0.27208 0.70169 0.47151
 H1555 H 0.31844 0.65023 0.38351
 H1556 H 0.30273 0.71848 0.47189
 H1557 H 0.35827 0.68014 0.38876
 H1558 H 0.26280 0.68914 0.46372
 C1559 C 0.33310 0.15289 0.86881
 C1560 C 0.34255 0.16711 0.88377
 C1561 C 0.32956 0.17739 0.90132
 N1562 N 0.33858 0.19300 0.91376
 N1563 N 0.32696 0.20246 0.92961
 C1564 C 0.30589 0.19658 0.93366
 N1565 N 0.29693 0.18091 0.92130
 N1566 N 0.30850 0.17153 0.90541
 C1567 C 0.29272 0.20669 0.95113
 C1568 C 0.29963 0.22463 0.96256
 H1569 H 0.35984 0.17091 0.88267
 H1570 H 0.27676 0.20003 0.95470
 H1571 H 0.31589 0.14891 0.87075
 H1572 H 0.31520 0.23184 0.95851
 C1573 C 0.81732 0.65982 0.86052
 C1574 C 0.82825 0.67192 0.87645
 C1575 C 0.81702 0.68131 0.89562
 N1576 N 0.82777 0.69562 0.90835
 N1577 N 0.81777 0.70481 0.92539
 C1578 C 0.79665 0.69996 0.93045
 N1579 N 0.78595 0.68544 0.91788
 N1580 N 0.79593 0.67633 0.90073
 C1581 C 0.78525 0.71054 0.94886
 C1582 C 0.79377 0.72865 0.95873
 H1583 H 0.84560 0.67520 0.87458
 H1584 H 0.76931 0.70472 0.95385
 H1585 H 0.80008 0.65624 0.86291
 H1586 H 0.80910 0.73510 0.95279
 C1587 C 0.83107 0.17140 0.34232
 C1588 C 0.83935 0.18492 0.35861
 C1589 C 0.82596 0.19170 0.37758
 N1590 N 0.83354 0.20682 0.39155
 N1591 N 0.82150 0.21318 0.40869
 C1592 C 0.80147 0.20455 0.41253
 N1593 N 0.79397 0.18933 0.39865
 N1594 N 0.80596 0.18305 0.38147
 C1595 C 0.78779 0.21139 0.43122
 C1596 C 0.79289 0.22889 0.44423
 H1597 H 0.85604 0.19070 0.35756
 H1598 H 0.77277 0.20279 0.43430
 H1599 H 0.81442 0.16563 0.34398
 H1600 H 0.80746 0.23802 0.44073
 C1601 C 0.66967 0.35626 0.36875
 C1602 C 0.67010 0.33455 0.37173
 C1603 C 0.68188 0.32485 0.39031
 N1604 N 0.68101 0.30376 0.39317
 N1605 N 0.69216 0.29471 0.40953
 C1606 C 0.70466 0.30643 0.42358
 N1607 N 0.70552 0.32751 0.42073
 N1608 N 0.69431 0.33657 0.40443
 C1609 C 0.71766 0.29668 0.44127
 C1610 C 0.71603 0.27542 0.44623
 H1611 H 0.66239 0.32427 0.35969
 H1612 H 0.72889 0.30655 0.45060
 H1613 H 0.67835 0.36619 0.38047
 H1614 H 0.70426 0.26565 0.43749
 C1615 C 0.66465 0.83891 0.86607
 C1616 C 0.66669 0.81861 0.87439
 C1617 C 0.68093 0.81380 0.89345
 N1618 N 0.68052 0.79435 0.90241
 N1619 N 0.69367 0.78957 0.91929
 C1620 C 0.70786 0.80402 0.92779
 N1621 N 0.70834 0.82345 0.91879
 N1622 N 0.69509 0.82827 0.90197
 C1623 C 0.72287 0.79871 0.94611
 C1624 C 0.72077 0.78003 0.95771
 H1625 H 0.65816 0.80569 0.86645
 H1626 H 0.73575 0.80971 0.95056
 H1627 H 0.67342 0.85151 0.87436
 H1628 H 0.70730 0.76951 0.95378
 C1629 C 0.16245 0.31024 0.86243
 C1630 C 0.17357 0.31932 0.88029
 C1631 C 0.18307 0.30704 0.89846
 N1632 N 0.19604 0.31681 0.91360
 N1633 N 0.20557 0.30599 0.92974
 C1634 C 0.20246 0.28496 0.93142
 N1635 N 0.18928 0.27518 0.91640
 N1636 N 0.17980 0.28601 0.90016
 C1637 C 0.21351 0.27287 0.94891
 C1638 C 0.23011 0.28183 0.96182
 H1639 H 0.17621 0.33612 0.88066
 H1640 H 0.20911 0.25655 0.95112
 H1641 H 0.15900 0.29355 0.86259
 H1642 H 0.23504 0.29789 0.95885
 C1643 C 0.17976 0.83148 0.37307
 C1644 C 0.19180 0.83619 0.39205
 C1645 C 0.19676 0.81995 0.40846
 N1646 N 0.21001 0.82444 0.42591
 N1647 N 0.21419 0.80995 0.44109
 C1648 C 0.20517 0.79048 0.43946
 N1649 N 0.19183 0.78603 0.42207
 N1650 N 0.18773 0.80049 0.40685
 C1651 C 0.20970 0.77436 0.45610
 C1652 C 0.22593 0.77728 0.47206
 H1653 H 0.19685 0.85219 0.39545
 H1654 H 0.20063 0.75975 0.45536
 H1655 H 0.17478 0.81537 0.37013
 H1656 H 0.23560 0.79156 0.47210
 C1657 C 0.67315 0.67221 0.64044
 C1658 C 0.68660 0.66593 0.62297
 C1659 C 0.69405 0.68083 0.60611
 N1660 N 0.70755 0.67421 0.58969
 N1661 N 0.71425 0.68749 0.57424
 C1662 C 0.70765 0.70790 0.57459
 N1663 N 0.69411 0.71451 0.59098
 N1664 N 0.68745 0.70124 0.60645
 C1665 C 0.71499 0.72284 0.55772
 C1666 C 0.73012 0.71724 0.54149
 H1667 H 0.69135 0.64961 0.62123
 H1668 H 0.70872 0.73876 0.55845
 H1669 H 0.66812 0.68852 0.64150
 H1670 H 0.73675 0.70143 0.54106
 C1671 C 0.66928 0.18262 0.14942
 C1672 C 0.68020 0.17528 0.13065
 C1673 C 0.68730 0.18925 0.11286
 N1674 N 0.70012 0.18154 0.09641
 N1675 N 0.70695 0.19397 0.08027
 C1676 C 0.70114 0.21457 0.07994
 N1677 N 0.68820 0.22226 0.09632
 N1678 N 0.68144 0.20985 0.11252
 C1679 C 0.70866 0.22849 0.06225
 C1680 C 0.72438 0.22209 0.04691
 H1681 H 0.68392 0.15872 0.12892
 H1682 H 0.70205 0.24429 0.06164
 H1683 H 0.66520 0.19915 0.15063
 H1684 H 0.73160 0.20656 0.04804
 C1685 C 0.17066 0.66003 0.13844
 C1686 C 0.17046 0.68067 0.13093
 C1687 C 0.18175 0.68698 0.11068
 N1688 N 0.18006 0.70707 0.10363
 N1689 N 0.19070 0.71324 0.08567
 C1690 C 0.20350 0.69955 0.07416
 N1691 N 0.20520 0.67944 0.08121
 N1692 N 0.19449 0.67325 0.09913
 C1693 C 0.21594 0.70633 0.05478
 C1694 C 0.21357 0.72639 0.04607
 H1695 H 0.16246 0.69285 0.14056
 H1696 H 0.22743 0.69534 0.04737
 H1697 H 0.17919 0.64813 0.12886
 H1698 H 0.20158 0.73715 0.05302
 C1699 C 0.16959 0.15556 0.63501
 C1700 C 0.15856 0.16769 0.61935
 C1701 C 0.16989 0.17872 0.60151
 N1702 N 0.15862 0.19291 0.58927
 N1703 N 0.16875 0.20395 0.57379
 C1704 C 0.19055 0.20116 0.56992
 N1705 N 0.20179 0.18676 0.58196
 N1706 N 0.19167 0.17578 0.59754
 C1707 C 0.20209 0.21382 0.55342
 C1708 C 0.19235 0.23137 0.54378
 H1709 H 0.14102 0.17025 0.62096
 H1710 H 0.21901 0.20985 0.54964
 H1711 H 0.18697 0.15234 0.63292
 H1712 H 0.17574 0.23584 0.54825
   
