data_POSCAR
  _audit_creation_date              2014-09-24
  _audit_creation_method            'ToBaCCo'
  _symmetry_space_group_name_H-M    'P1'
  _symmetry_Int_Tables_number       1
  _symmetry_cell_setting            triclinic
  loop_
  _symmetry_equiv_pos_as_xyz
 x,y,z
_cell_length_a 54.8098
_cell_length_b 54.8260
_cell_length_c 54.8342
_cell_angle_alpha 89.160000
_cell_angle_beta 90.367600
_cell_angle_gamma 89.662500
loop_
  _atom_site_label
  _atom_site_type_symbol
  _atom_site_fract_x
  _atom_site_fract_y
  _atom_site_fract_z
C1 C 0.10897 0.00001 0.23154
 C2 C 0.12465 0.02228 0.23681
 C3 C 0.13897 0.02000 0.25696
 C4 C 0.13623 -0.00447 0.27060
 C5 C 0.12732 -0.02145 0.23075
 C6 C 0.14152 -0.02394 0.25131
 C7 C 0.09473 -0.00477 0.25498
 C8 C 0.10880 -0.00703 0.27534
 H9 H 0.12588 0.03774 0.22433
 H10 H 0.14734 -0.00597 0.28754
 H11 H 0.12862 -0.03401 0.21586
 H12 H 0.07516 -0.00755 0.25520
 C13 C 0.39530 0.00414 0.73374
 C14 C 0.38250 -0.01974 0.74016
 C15 C 0.36835 -0.01893 0.76034
 C16 C 0.36870 0.00616 0.77293
 C17 C 0.37449 0.02322 0.73200
 C18 C 0.36072 0.02474 0.75276
 C19 C 0.40863 0.01082 0.75547
 C20 C 0.39439 0.01200 0.77710
 H21 H 0.38241 -0.03515 0.72799
 H22 H 0.35749 0.00673 0.78968
 H23 H 0.37210 0.03578 0.71683
 H24 H 0.42792 0.01505 0.75517
 C25 C 0.89181 0.50080 0.22622
 C26 C 0.87677 0.47784 0.23059
 C27 C 0.86186 0.47870 0.25017
 C28 C 0.86339 0.50281 0.26415
 C29 C 0.87297 0.52183 0.22493
 C30 C 0.85822 0.52317 0.24497
 C31 C 0.90527 0.50510 0.25033
 C32 C 0.89057 0.50607 0.27012
 H33 H 0.87687 0.46264 0.21817
 H34 H 0.85178 0.50326 0.28063
 H35 H 0.87273 0.53563 0.21068
 H36 H 0.92457 0.50920 0.25132
 C37 C 0.61399 0.49842 0.72389
 C38 C 0.63149 0.51953 0.72859
 C39 C 0.64359 0.51822 0.75005
 C40 C 0.63660 0.49611 0.76587
 C41 C 0.62927 0.47523 0.72790
 C42 C 0.64107 0.47377 0.74978
 C43 C 0.59660 0.49908 0.74582
 C44 C 0.60857 0.49807 0.76781
 H45 H 0.63414 0.53449 0.71572
 H46 H 0.64601 0.49542 0.78385
 H47 H 0.63079 0.46136 0.71412
 H48 H 0.57741 0.50363 0.74441
 C49 C 0.22442 0.10952 0.99807
 C50 C 0.22630 0.12446 1.02132
 C51 C 0.24453 0.14102 1.02125
 C52 C 0.25929 0.14149 0.99762
 C53 C 0.22216 0.12854 0.97721
 C54 C 0.24050 0.14531 0.97695
 C55 C 0.25000 0.09850 0.99452
 C56 C 0.26832 0.11516 0.99440
 H57 H 0.21522 0.12081 1.03725
 H58 H 0.27401 0.15523 0.99789
 H59 H 0.20857 0.12771 0.96288
 H60 H 0.25301 0.07940 0.99075
 C61 C 0.73181 0.39111 0.99579
 C62 C 0.73206 0.37540 0.97474
 C63 C 0.75078 0.35722 0.97516
 C64 C 0.76614 0.35838 0.99723
 C65 C 0.73061 0.37470 1.01717
 C66 C 0.74968 0.35640 1.01836
 C67 C 0.75628 0.40132 0.99719
 C68 C 0.77546 0.38348 0.99808
 H69 H 0.71802 0.37634 0.96072
 H70 H 0.78123 0.34512 0.99657
 H71 H 0.71780 0.37751 1.03175
 H72 H 0.75943 0.42011 1.00210
 C73 C 0.23449 0.88811 0.49539
 C74 C 0.24068 0.87298 0.47317
 C75 C 0.26173 0.86003 0.47506
 C76 C 0.27522 0.86339 0.49955
 C77 C 0.23494 0.86972 0.51695
 C78 C 0.25639 0.85700 0.51947
 C79 C 0.25703 0.90388 0.49982
 C80 C 0.27832 0.89111 0.50219
 H81 H 0.22836 0.87136 0.45774
 H82 H 0.29273 0.85321 0.50095
 H83 H 0.22061 0.86823 0.53024
 H84 H 0.25581 0.92330 0.50299
 C85 C 0.72733 0.61482 0.49929
 C86 C 0.73418 0.62960 0.52170
 C87 C 0.75503 0.64267 0.51942
 C88 C 0.76747 0.63985 0.49458
 C89 C 0.72644 0.63376 0.47829
 C90 C 0.74749 0.64682 0.47577
 C91 C 0.74992 0.59940 0.49375
 C92 C 0.77081 0.61228 0.49132
 H93 H 0.72349 0.62928 0.53826
 H94 H 0.78469 0.65023 0.49258
 H95 H 0.71107 0.63649 0.46614
 H96 H 0.74915 0.57991 0.49079
 C97 C 0.00437 0.22666 0.11205
 C98 C 0.02742 0.22970 0.12731
 C99 C 0.02705 0.24909 0.14233
 C100 C 0.00340 0.26426 0.14073
 C101 C -0.01657 0.22606 0.13073
 C102 C -0.01726 0.24586 0.14565
 C103 C 0.00074 0.25110 0.09875
 C104 C 0.00025 0.27073 0.11355
 H105 H 0.04218 0.21645 0.12748
 H106 H 0.00337 0.28053 0.15252
 H107 H -0.03047 0.21221 0.13120
 H108 H -0.00330 0.25252 0.07940
 C109 C -0.00672 0.72864 0.39102
 C110 C -0.02731 0.73141 0.37457
 C111 C -0.02627 0.75216 0.35858
 C112 C -0.00405 0.76638 0.36193
 C113 C 0.01586 0.72829 0.37442
 C114 C 0.01738 0.74815 0.35913
 C115 C -0.00444 0.75309 0.40422
 C116 C -0.00317 0.77279 0.38900
 H117 H -0.04322 0.71988 0.37608
 H118 H -0.00244 0.78275 0.35001
 H119 H 0.03003 0.71456 0.37564
 H120 H -0.00084 0.75438 0.42361
 C121 C 0.49390 0.23722 0.89591
 C122 C 0.47117 0.23929 0.87987
 C123 C 0.47194 0.25736 0.86277
 C124 C 0.49562 0.27234 0.86340
 C125 C 0.51534 0.23507 0.87801
 C126 C 0.51649 0.25352 0.86105
 C127 C 0.49726 0.26262 0.90673
 C128 C 0.49817 0.28098 0.88982
 H129 H 0.45634 0.22633 0.88091
 H130 H 0.49587 0.28766 0.84998
 H131 H 0.52925 0.22110 0.87977
 H132 H 0.50232 0.26545 0.92561
 C133 C 0.50094 0.72629 0.60786
 C134 C 0.52498 0.72511 0.62210
 C135 C 0.52710 0.74206 0.63964
 C136 C 0.50467 0.75863 0.64190
 C137 C 0.48094 0.72441 0.62731
 C138 C 0.48272 0.74149 0.64513
 C139 C 0.49875 0.75289 0.59856
 C140 C 0.50093 0.76996 0.61631
 H141 H 0.54019 0.71370 0.61672
 H142 H 0.50700 0.77196 0.65667
 H143 H 0.46571 0.71204 0.62595
 H144 H 0.49411 0.75758 0.57987
 C145 C 0.88700 0.99344 0.77314
 C146 C 0.86846 1.01269 0.77307
 C147 C 0.85351 1.01378 0.75128
 C148 C 0.86007 0.99477 0.73380
 C149 C 0.87298 0.96999 0.76857
 C150 C 0.85891 0.97045 0.74818
 C151 C 0.90132 0.99818 0.74976
 C152 C 0.88746 0.99885 0.72917
 H153 H 0.86620 1.02522 0.78784
 H154 H 0.84954 0.99459 0.71652
 H155 H 0.87285 0.95486 0.78153
 H156 H 0.92068 1.00212 0.74970
 C157 C 0.38671 0.49192 0.26865
 C158 C 0.36818 0.51318 0.26835
 C159 C 0.35494 0.51536 0.24716
 C160 C 0.36123 0.49572 0.22829
 C161 C 0.37148 0.46951 0.26295
 C162 C 0.35821 0.47133 0.24206
 C163 C 0.40199 0.49644 0.24583
 C164 C 0.38888 0.49839 0.22476
 H165 H 0.36582 0.52568 0.28316
 H166 H 0.35075 0.49703 0.21093
 H167 H 0.37009 0.45402 0.27537
 H168 H 0.42156 0.49915 0.24652
 C169 C 0.61191 1.00209 0.27413
 C170 C 0.63116 0.98136 0.27427
 C171 C 0.64543 0.98104 0.25378
 C172 C 0.63952 1.00222 0.23567
 C173 C 0.62545 1.02433 0.27057
 C174 C 0.64091 1.02475 0.24977
 C175 C 0.59801 0.99827 0.25021
 C176 C 0.61226 0.99830 0.23008
 H177 H 0.63152 0.96673 0.28767
 H178 H 0.65044 1.00238 0.21873
 H179 H 0.62602 1.03821 0.28443
 H180 H 0.57891 0.99330 0.24958
 C181 C 0.10858 0.50736 0.76750
 C182 C 0.12658 0.48561 0.76848
 C183 C 0.14248 0.48492 0.74938
 C184 C 0.13905 0.50643 0.73123
 C185 C 0.12457 0.52994 0.76541
 C186 C 0.14057 0.52961 0.74669
 C187 C 0.09629 0.50512 0.74243
 C188 C 0.11208 0.50455 0.72341
 H189 H 0.12556 0.47107 0.78192
 H190 H 0.15173 0.50666 0.71555
 H191 H 0.12413 0.54447 0.77860
 H192 H 0.07703 0.50131 0.74027
 C193 C 0.76851 0.88922 -0.01068
 C194 C 0.76870 0.87013 0.01031
 C195 C 0.74749 0.85721 0.01244
 C196 C 0.72824 0.86424 -0.00713
 C197 C 0.76224 0.87461 -0.03334
 C198 C 0.74139 0.86153 -0.03165
 C199 C 0.74580 0.90470 -0.00577
 C200 C 0.72482 0.89178 -0.00393
 H201 H 0.78376 0.86741 0.02281
 H202 H 0.71080 0.85415 -0.00599
 H203 H 0.77445 0.87325 -0.04874
 H204 H 0.74661 0.92407 -0.00218
 C205 C 0.27123 0.39156 0.49335
 C206 C 0.27198 0.37190 0.51379
 C207 C 0.25119 0.35822 0.51533
 C208 C 0.23185 0.36517 0.49586
 C209 C 0.26555 0.37756 0.47020
 C210 C 0.24520 0.36373 0.47136
 C211 C 0.24806 0.40613 0.49869
 C212 C 0.22753 0.39248 0.49998
 H213 H 0.28667 0.36994 0.52687
 H214 H 0.21479 0.35440 0.49656
 H215 H 0.27804 0.37681 0.45497
 H216 H 0.24819 0.42542 0.50270
 C217 C 0.27092 0.60618 0.00237
 C218 C 0.27097 0.62510 -0.01866
 C219 C 0.25042 0.63936 -0.01990
 C220 C 0.23175 0.63349 0.00028
 C221 C 0.26650 0.62105 0.02523
 C222 C 0.24628 0.63547 0.02436
 C223 C 0.24722 0.59205 -0.00179
 C224 C 0.22676 0.60615 -0.00290
 H225 H 0.28515 0.62627 -0.03219
 H226 H 0.21492 0.64481 -0.00060
 H227 H 0.27838 0.61976 0.04107
 H228 H 0.24699 0.57280 -0.00599
 C229 C 0.77435 0.10428 0.50244
 C230 C 0.77417 0.12164 0.48185
 C231 C 0.75203 0.13622 0.47993
 C232 C 0.73453 0.13031 0.49964
 C233 C 0.76984 0.11903 0.52369
 C234 C 0.74814 0.13354 0.52265
 C235 C 0.75233 0.09009 0.49870
 C236 C 0.73028 0.10406 0.49702
 H237 H 0.78863 0.12285 0.46867
 H238 H 0.71728 0.14071 0.49855
 H239 H 0.78139 0.11775 0.53977
 H240 H 0.75279 0.07057 0.49580
 C241 C 1.00458 0.77228 0.89464
 C242 C 1.02521 0.77478 0.87588
 C243 C 1.02550 0.75673 0.85894
 C244 C 1.00497 0.73792 0.86239
 C245 C 0.98122 0.77077 0.87943
 C246 C 0.98123 0.75281 0.86279
 C247 C 1.00845 0.74652 0.90550
 C248 C 1.00851 0.72845 0.88873
 H249 H 1.03919 0.78857 0.87682
 H250 H 1.00448 0.72340 0.84856
 H251 H 0.96505 0.78151 0.88327
 H252 H 1.01247 0.74317 0.92461
 C253 C 0.50457 0.27006 0.39646
 C254 C 0.52662 0.27067 0.37916
 C255 C 0.52575 0.25369 0.36118
 C256 C 0.50277 0.23769 0.36223
 C257 C 0.48217 0.27229 0.37982
 C258 C 0.48122 0.25556 0.36199
 C259 C 0.50431 0.24357 0.40604
 C260 C 0.50304 0.22659 0.38818
 H261 H 0.54191 0.28278 0.38159
 H262 H 0.50173 0.22393 0.34770
 H263 H 0.46830 0.28628 0.38184
 H264 H 0.50499 0.23871 0.42521
 C265 C 0.99230 0.26677 0.60551
 C266 C 0.97005 0.26703 0.62258
 C267 C 0.97084 0.24954 0.64061
 C268 C 0.99410 0.23360 0.63992
 C269 C 1.01453 0.26857 0.62236
 C270 C 1.01556 0.25141 0.64031
 C271 C 0.99288 0.24051 0.59610
 C272 C 0.99415 0.22309 0.61401
 H273 H 0.95450 0.27897 0.61966
 H274 H 0.99515 0.21949 0.65452
 H275 H 1.02833 0.28252 0.62025
 H276 H 0.99234 0.23614 0.57695
 C277 C 0.49145 0.77280 0.10703
 C278 C 0.47056 0.77342 0.12569
 C279 C 0.47109 0.75442 0.14213
 C280 C 0.49271 0.73680 0.13844
 C281 C 0.51483 0.77146 0.12234
 C282 C 0.51571 0.75264 0.13862
 C283 C 0.48900 0.74745 0.09557
 C284 C 0.48975 0.72858 0.11194
 H285 H 0.45568 0.78644 0.12466
 H286 H 0.49374 0.72147 0.15179
 H287 H 0.53023 0.78335 0.11907
 H288 H 0.48472 0.74486 0.07649
 O289 O 0.05641 1.03874 0.99894
 O290 O 0.04261 1.04049 0.95923
 O291 O -0.00597 1.05868 1.04124
 O292 O -0.04720 1.04267 1.04488
 O293 O 0.03678 0.99623 1.06247
 O294 O 0.03971 0.95564 1.04844
 O295 O -0.06984 0.99196 0.97819
 O296 O -0.06931 1.03189 0.98805
 O297 O -0.01031 0.97604 0.93584
 O298 O 0.03374 0.98298 0.93859
 O299 O -0.02442 0.93132 0.99641
 O300 O -0.01896 0.93504 1.04038
 O301 O -0.06192 0.95941 1.00325
 O302 O -0.04751 0.95690 1.04652
 O303 O -0.00014 0.93967 0.96401
 O304 O 0.04220 0.95558 0.96145
 O305 O -0.04273 1.00081 0.94307
 O306 O -0.04032 1.04388 0.95703
 O307 O 0.06505 1.00585 1.02338
 O308 O 0.06139 0.96246 1.01828
 O309 O 0.00404 1.02044 1.07026
 O310 O -0.03898 1.01315 1.06656
 O311 O 0.01862 1.06667 1.00894
 O312 O 0.00780 1.06223 0.96526
 Zr313 Zr 0.01966 1.03398 0.98954
 O314 O -0.00158 1.01247 0.96632
 Zr315 Zr -0.01562 1.02184 1.03721
 O316 O -0.03874 1.00031 1.01576
 Zr317 Zr 0.03209 0.98637 1.02588
 O318 O 0.01093 0.96293 1.00448
 Zr319 Zr -0.03748 1.01191 0.97919
 O320 O -0.01687 1.03573 1.00119
 Zr321 Zr 0.01018 0.97607 0.96832
 O322 O 0.03351 0.99807 0.98927
 Zr323 Zr -0.02571 0.96426 1.01556
 O324 O -0.00383 0.98526 1.03924
 O325 O 0.02041 1.02241 1.02582
 O326 O -0.02613 0.97550 0.97914
 C327 C 0.07116 1.02546 1.01181
 C328 C 0.00739 1.07302 1.02833
 C329 C 0.02383 1.00936 1.07672
 C330 C -0.07595 0.97191 0.98881
 C331 C -0.03018 0.98687 0.92928
 C332 C -0.01326 0.92517 0.97689
 H333 H -0.00085 1.01929 0.94954
 H334 H 0.01789 0.94629 1.00585
 H335 H 0.03093 1.03275 1.03610
 H336 H -0.05557 1.00145 1.02204
 H337 H -0.06381 1.04769 0.99453
 H338 H -0.04897 1.05503 1.03166
 H339 H 0.04358 0.94267 0.97419
 H340 H 0.06693 0.96660 1.00159
 H341 H -0.05543 1.04269 0.94708
 H342 H 0.01888 1.07638 0.96686
 H343 H -0.00274 0.92815 1.03656
 H344 H 0.02482 0.95258 1.05812
 H345 H 0.05116 1.02495 0.95595
 H346 H 0.02860 0.99858 0.93077
 H347 H -0.03480 0.99628 1.07185
 H348 H -0.06020 0.96976 1.04734
 O349 O 0.49810 0.55950 0.53622
 O350 O 0.45925 0.54474 0.54096
 O351 O 0.54305 0.49650 0.55387
 O352 O 0.54860 0.45861 0.54070
 O353 O 0.55935 0.54080 0.49134
 O354 O 0.54309 0.54379 0.45147
 O355 O 0.47828 0.43229 0.49279
 O356 O 0.48840 0.43486 0.53299
 O357 O 0.43264 0.49286 0.47656
 O358 O 0.43508 0.53651 0.48258
 O359 O 0.48979 0.47664 0.43074
 O360 O 0.53134 0.48243 0.42932
 O361 O 0.50135 0.44033 0.45932
 O362 O 0.54457 0.45830 0.45465
 O363 O 0.45814 0.50201 0.43901
 O364 O 0.45685 0.54518 0.45462
 O365 O 0.44187 0.45970 0.50022
 O366 O 0.45670 0.46305 0.54310
 O367 O 0.52000 0.56846 0.50213
 O368 O 0.51200 0.56416 0.45860
 O369 O 0.56908 0.50776 0.51500
 O370 O 0.56443 0.46325 0.50630
 O371 O 0.51235 0.52250 0.56405
 O372 O 0.46829 0.50963 0.56207
 Zr373 Zr 0.48967 0.52252 0.53250
 O374 O 0.46527 0.50148 0.51184
 Zr375 Zr 0.53675 0.48759 0.51766
 O376 O 0.51417 0.46414 0.49805
 Zr377 Zr 0.52230 0.53548 0.48282
 O378 O 0.50008 0.51382 0.46051
 Zr379 Zr 0.47827 0.46549 0.51114
 O380 O 0.50187 0.48603 0.53354
 Zr381 Zr 0.46485 0.51305 0.47512
 O382 O 0.48657 0.53640 0.49642
 Zr383 Zr 0.51172 0.47721 0.46204
 O384 O 0.53637 0.49969 0.48115
 O385 O 0.52492 0.52358 0.51877
 O386 O 0.47603 0.47668 0.47467
 C387 C 0.50957 0.57444 0.52219
 C388 C 0.53252 0.51111 0.56854
 C389 C 0.57451 0.52787 0.50408
 C390 C 0.48883 0.42588 0.47302
 C391 C 0.42709 0.47258 0.48699
 C392 C 0.46979 0.48755 0.42491
 H393 H 0.44885 0.50224 0.51920
 H394 H 0.50022 0.52042 0.44364
 H395 H 0.53564 0.53427 0.52845
 H396 H 0.52110 0.44747 0.49927
 H397 H 0.49553 0.44130 0.54822
 H398 H 0.53571 0.44610 0.54017
 H399 H 0.46782 0.54562 0.44037
 H400 H 0.49587 0.57012 0.46404
 H401 H 0.44700 0.44786 0.54231
 H402 H 0.47093 0.52043 0.57619
 H403 H 0.53169 0.50019 0.42599
 H404 H 0.55280 0.52898 0.44795
 H405 H 0.45411 0.55290 0.52553
 H406 H 0.42865 0.53189 0.49881
 H407 H 0.57172 0.47040 0.49137
 H408 H 0.54531 0.44377 0.46556
 O409 O 0.45201 -0.04958 0.51235
 O410 O 0.46614 -0.05824 0.47399
 O411 O 0.51693 -0.04855 0.55692
 O412 O 0.55611 -0.02681 0.55260
 O413 O 0.46560 0.00789 0.56371
 O414 O 0.45596 0.04369 0.54075
 O415 O 0.56898 0.01152 0.47672
 O416 O 0.57451 -0.02571 0.49484
 O417 O 0.50604 0.00810 0.43347
 O418 O 0.46395 -0.00625 0.44015
 O419 O 0.51488 0.06572 0.47902
 O420 O 0.50923 0.07220 0.52295
 O421 O 0.55645 0.04693 0.49396
 O422 O 0.54055 0.05693 0.53489
 O423 O 0.49057 0.04640 0.45187
 O424 O 0.45135 0.02397 0.45599
 O425 O 0.54300 -0.00747 0.44463
 O426 O 0.54789 -0.04717 0.46744
 O427 O 0.43894 -0.01411 0.52926
 O428 O 0.43516 0.02735 0.51344
 O429 O 0.50244 -0.00784 0.57519
 O430 O 0.54351 0.00528 0.56791
 O431 O 0.49453 -0.06814 0.52819
 O432 O 0.50419 -0.07177 0.48405
 Zr433 Zr 0.48770 -0.04131 0.50102
 O434 O 0.50453 -0.02221 0.47216
 Zr435 Zr 0.52128 -0.01307 0.54249
 O436 O 0.53985 0.00676 0.51536
 Zr437 Zr 0.46806 0.01064 0.52543
 O438 O 0.48438 0.03188 0.49777
 Zr439 Zr 0.54003 -0.01265 0.48266
 O440 O 0.52421 -0.03418 0.51084
 Zr441 Zr 0.48657 0.01112 0.46601
 O442 O 0.46789 -0.00912 0.49286
 Zr443 Zr 0.52093 0.03927 0.50692
 O444 O 0.50354 0.02064 0.53622
 O445 O 0.48571 -0.02206 0.53332
 O446 O 0.52246 0.02027 0.47442
 C447 C 0.43569 -0.03633 0.52265
 C448 C 0.50603 -0.06743 0.54866
 C449 C 0.48093 0.00014 0.57994
 C450 C 0.57234 0.03384 0.48279
 C451 C 0.52780 0.00099 0.42865
 C452 C 0.50238 0.06508 0.45908
 H453 H 0.50474 -0.03240 0.45743
 H454 H 0.47475 0.04698 0.49510
 H455 H 0.47711 -0.03136 0.54623
 H456 H 0.55666 0.00974 0.52120
 H457 H 0.57144 -0.04048 0.50491
 H458 H 0.55853 -0.04224 0.54378
 H459 H 0.44827 0.03928 0.46482
 H460 H 0.42987 0.01853 0.49871
 H461 H 0.56242 -0.04533 0.45691
 H462 H 0.49585 -0.08684 0.48965
 H463 H 0.49211 0.07515 0.51791
 H464 H 0.47057 0.05144 0.54789
 H465 H 0.45519 -0.04546 0.46707
 H466 H 0.47221 -0.02144 0.43514
 H467 H 0.53634 0.02176 0.56975
 H468 H 0.55481 0.04654 0.53919
 O469 O -0.04117 0.50022 1.05515
 O470 O -0.04830 0.53791 1.03768
 O471 O -0.05393 0.44984 0.99738
 O472 O -0.03811 0.44664 0.95571
 O473 O 0.00806 0.44125 1.04170
 O474 O 0.04753 0.46029 1.04206
 O475 O 0.00299 0.51547 0.92694
 O476 O -0.03628 0.50134 0.93029
 O477 O 0.01502 0.56568 0.98181
 O478 O 0.00628 0.56585 1.02641
 O479 O 0.06524 0.51153 0.97280
 O480 O 0.06884 0.46878 0.98284
 O481 O 0.03887 0.49676 0.93715
 O482 O 0.04691 0.45508 0.95669
 O483 O 0.05375 0.54377 0.99573
 O484 O 0.03629 0.54741 1.03752
 O485 O -0.00643 0.55128 0.94944
 O486 O -0.04908 0.53571 0.95495
 O487 O -0.00554 0.48098 1.06553
 O488 O 0.03704 0.49148 1.06131
 O489 O -0.01378 0.42818 1.00907
 O490 O -0.00597 0.42912 0.96591
 O491 O -0.06743 0.48276 1.01842
 O492 O -0.06815 0.52632 1.00315
 Zr493 Zr -0.03743 0.50711 1.01753
 O494 O -0.01861 0.53144 0.99426
 Zr495 Zr -0.01852 0.45894 0.98649
 O496 O 0.00027 0.48110 0.96156
 Zr497 Zr 0.01449 0.47843 1.03300
 O498 O 0.03523 0.50131 1.01000
 Zr499 Zr -0.01606 0.51574 0.95975
 O500 O -0.03716 0.49244 0.98224
 Zr501 Zr 0.01770 0.53539 1.00599
 O502 O -0.00183 0.51331 1.03104
 Zr503 Zr 0.03574 0.48722 0.97452
 O504 O 0.01781 0.46255 0.99844
 O505 O -0.02104 0.47302 1.02130
 O506 O 0.01983 0.52150 0.97097
 C507 C -0.02654 0.49009 1.07078
 C508 C -0.07011 0.46125 1.00968
 C509 C -0.00374 0.42478 1.03006
 C510 C 0.02439 0.50756 0.92177
 C511 C 0.00580 0.56784 0.96025
 C512 C 0.06917 0.53241 0.98240
 H513 H -0.02725 0.54730 0.99323
 H514 H 0.05183 0.50286 1.01691
 H515 H -0.03012 0.46245 1.03281
 H516 H 0.00005 0.47323 0.94545
 H517 H -0.05190 0.49541 0.93704
 H518 H -0.05246 0.45751 0.95360
 H519 H 0.05071 0.53671 1.04006
 H520 H 0.03067 0.50781 1.06552
 H521 H -0.04864 0.54361 0.93857
 H522 H -0.08228 0.52333 1.01398
 H523 H 0.07352 0.47309 0.99967
 H524 H 0.05124 0.44942 1.02830
 H525 H -0.03322 0.54486 1.04467
 H526 H -0.00925 0.57199 1.01932
 H527 H 0.01115 0.42604 0.97099
 H528 H 0.03512 0.45203 0.94337
 O529 O 0.01698 0.42898 0.50432
 O530 O 0.00836 0.43326 0.46316
 O531 O 0.06529 0.48857 0.51874
 O532 O 0.06188 0.53307 0.51101
 O533 O 0.00831 0.47398 0.56697
 O534 O -0.03498 0.48346 0.56627
 O535 O -0.00194 0.55734 0.45911
 O536 O 0.03746 0.54425 0.45675
 O537 O -0.04667 0.49737 0.44242
 O538 O -0.04923 0.45499 0.45813
 O539 O -0.06127 0.53964 0.50322
 O540 O -0.04507 0.54108 0.54495
 O541 O -0.02440 0.56540 0.49284
 O542 O -0.01506 0.56095 0.53752
 O543 O -0.07092 0.50785 0.47896
 O544 O -0.06851 0.46248 0.48833
 O545 O -0.01546 0.52305 0.43358
 O546 O 0.02796 0.50825 0.43360
 O547 O -0.00598 0.43711 0.53776
 O548 O -0.04525 0.45411 0.54477
 O549 O 0.04016 0.49853 0.55671
 O550 O 0.04170 0.53983 0.54211
 O551 O 0.05550 0.45621 0.49521
 O552 O 0.03867 0.45962 0.45280
 Zr553 Zr 0.01862 0.46262 0.48563
 O554 O -0.00447 0.48448 0.46350
 Zr555 Zr 0.03309 0.50932 0.52061
 O556 O 0.01097 0.53318 0.49988
 Zr557 Zr -0.01413 0.47465 0.53528
 O558 O -0.03854 0.49710 0.51511
 Zr559 Zr 0.00791 0.52059 0.46406
 O560 O 0.03287 0.49823 0.48404
 Zr561 Zr -0.03947 0.48593 0.47860
 O562 O -0.01723 0.46180 0.49936
 Zr563 Zr -0.02476 0.53274 0.51342
 O564 O -0.00188 0.51091 0.53620
 O565 O 0.02101 0.47350 0.52167
 O566 O -0.02754 0.52185 0.47736
 C567 C 0.00589 0.42248 0.52395
 C568 C 0.07052 0.46838 0.50835
 C569 C 0.02874 0.48453 0.57159
 C570 C -0.01463 0.57166 0.47244
 C571 C -0.03562 0.51249 0.42824
 C572 C -0.07596 0.52818 0.48915
 H573 H -0.00469 0.47814 0.44670
 H574 H -0.05489 0.49659 0.52256
 H575 H 0.03144 0.46229 0.53152
 H576 H 0.01828 0.54962 0.50019
 H577 H 0.05257 0.53461 0.45947
 H578 H 0.06954 0.52649 0.49619
 H579 H -0.07720 0.46975 0.50224
 H580 H -0.05055 0.44586 0.52972
 H581 H 0.02654 0.52088 0.42053
 H582 H 0.04950 0.44508 0.45408
 H583 H -0.05642 0.52745 0.54806
 H584 H -0.02990 0.49999 0.57117
 H585 H -0.00887 0.42956 0.46697
 H586 H -0.03733 0.45339 0.44475
 H587 H 0.02771 0.54238 0.55313
 H588 H -0.00020 0.56882 0.53107
 O589 O 0.51409 0.93668 0.00752
 O590 O 0.50414 0.94259 -0.03319
 O591 O 0.56630 0.99201 0.02240
 O592 O 0.56641 1.03633 0.01604
 O593 O 0.50937 0.98032 0.07152
 O594 O 0.46707 0.99186 0.07226
 O595 O 0.50133 1.06703 -0.03379
 O596 O 0.53988 1.05231 -0.03785
 O597 O 0.45271 1.01085 -0.05052
 O598 O 0.44720 0.96900 -0.03598
 O599 O 0.44449 1.05330 0.01096
 O600 O 0.46125 1.05073 0.05351
 O601 O 0.48213 1.07587 0.00167
 O602 O 0.49222 1.06921 0.04559
 O603 O 0.43021 1.02235 -0.01224
 O604 O 0.43016 0.97636 -0.00432
 O605 O 0.48596 1.03352 -0.06008
 O606 O 0.52887 1.01691 -0.06073
 O607 O 0.49277 0.94513 0.04193
 O608 O 0.45429 0.96434 0.04966
 O609 O 0.54233 1.00344 0.06172
 O610 O 0.54740 1.04446 0.04713
 O611 O 0.55390 0.96149 -0.00231
 O612 O 0.53558 0.96735 -0.04406
 Zr613 Zr 0.51707 0.97061 -0.01037
 O614 O 0.49465 0.99465 -0.03097
 Zr615 Zr 0.53583 1.01494 0.02562
 O616 O 0.51503 1.04093 0.00614
 Zr617 Zr 0.48657 0.98312 0.04040
 O618 O 0.46331 1.00813 0.02196
 Zr619 Zr 0.50967 1.02973 -0.02992
 O620 O 0.53366 1.00518 -0.01132
 Zr621 Zr 0.46018 0.99821 -0.01477
 O622 O 0.48152 0.97178 0.00424
 Zr623 Zr 0.47991 1.04257 0.02090
 O624 O 0.50155 1.01833 0.04224
 O625 O 0.52127 0.98008 0.02594
 O626 O 0.47490 1.03307 -0.01538
 C627 C 0.50350 0.93027 0.02745
 C628 C 0.57002 0.97208 0.01098
 C629 C 0.53018 0.98990 0.07651
 C630 C 0.49066 1.08189 -0.01932
 C631 C 0.46488 1.02464 -0.06510
 C632 C 0.42808 1.04328 -0.00220
 H633 H 0.49350 0.98878 -0.04791
 H634 H 0.44724 1.00866 0.03000
 H635 H 0.53124 0.96805 0.03530
 H636 H 0.52350 1.05680 0.00661
 H637 H 0.55468 1.04238 -0.03453
 H638 H 0.57268 1.03003 0.00045
 H639 H 0.42237 0.98394 0.00994
 H640 H 0.44879 0.95607 0.03469
 H641 H 0.52746 1.02950 -0.07383
 H642 H 0.54560 0.95222 -0.04356
 H643 H 0.44688 1.03997 0.05468
 H644 H 0.47214 1.00852 0.07673
 H645 H 0.48683 0.93995 -0.02892
 H646 H 0.45923 0.96608 -0.04900
 H647 H 0.53409 1.04780 0.05876
 H648 H 0.50745 1.07621 0.03899
 O649 O 0.43578 0.50680 0.01643
 O650 O 0.44019 0.46581 0.00386
 O651 O 0.49407 0.51261 0.06864
 O652 O 0.53777 0.50698 0.06713
 O653 O 0.48219 0.56969 0.01671
 O654 O 0.49149 0.57475 -0.02551
 O655 O 0.56389 0.46290 -0.00186
 O656 O 0.54901 0.45502 0.03605
 O657 O 0.50524 0.45390 -0.05152
 O658 O 0.46457 0.46972 -0.05525
 O659 O 0.54812 0.51799 -0.05580
 O660 O 0.55176 0.55444 -0.03370
 O661 O 0.57337 0.49932 -0.01965
 O662 O 0.56897 0.54239 -0.00363
 O663 O 0.51689 0.49581 -0.07125
 O664 O 0.47132 0.50331 -0.06835
 O665 O 0.52953 0.44004 -0.02048
 O666 O 0.51333 0.43375 0.02121
 O667 O 0.44480 0.54352 -0.00102
 O668 O 0.46300 0.55412 -0.03972
 O669 O 0.50407 0.55434 0.04897
 O670 O 0.54618 0.53942 0.04979
 O671 O 0.46107 0.49192 0.05482
 O672 O 0.46219 0.45276 0.03295
 Zr673 Zr 0.46894 0.48750 0.01722
 O674 O 0.49128 0.46895 -0.00768
 Zr675 Zr 0.51543 0.51960 0.03794
 O676 O 0.53985 0.50170 0.01491
 Zr677 Zr 0.48242 0.54109 -0.00868
 O678 O 0.50600 0.52475 -0.03388
 Zr679 Zr 0.52687 0.46694 0.00635
 O680 O 0.50406 0.48340 0.03264
 Zr681 Zr 0.49448 0.48895 -0.04055
 O682 O 0.46934 0.50604 -0.01687
 Zr683 Zr 0.54107 0.52048 -0.01854
 O684 O 0.51830 0.54007 0.00538
 O685 O 0.48004 0.52275 0.02451
 O686 O 0.52998 0.48535 -0.02707
 C687 C 0.42980 0.52822 0.00858
 C688 C 0.47316 0.50269 0.07176
 C689 C 0.49139 0.57115 0.03828
 C690 C 0.57897 0.47765 -0.01204
 C691 C 0.51927 0.43778 -0.04144
 C692 C 0.53670 0.50811 -0.07354
 H693 H 0.48465 0.45245 -0.01032
 H694 H 0.50620 0.53492 -0.04891
 H695 H 0.46872 0.53114 0.03563
 H696 H 0.55596 0.50064 0.02308
 H697 H 0.53858 0.45510 0.05071
 H698 H 0.53278 0.49003 0.07084
 H699 H 0.47830 0.51895 -0.07410
 H700 H 0.45276 0.54047 -0.04535
 H701 H 0.52611 0.42105 0.01929
 H702 H 0.47544 0.44955 0.04495
 H703 H 0.53770 0.56100 -0.04314
 H704 H 0.50792 0.57906 -0.01940
 H705 H 0.43620 0.47225 -0.01266
 H706 H 0.46034 0.45660 -0.04348
 H707 H 0.54820 0.55322 0.03814
 H708 H 0.57697 0.53297 0.00973
 O709 O -0.06418 0.00300 0.52657
 O710 O -0.06395 -0.03741 0.51282
 O711 O -0.00340 0.00589 0.57508
 O712 O 0.04028 -0.00781 0.57016
 O713 O -0.01241 0.06189 0.52456
 O714 O -0.00423 0.06568 0.48084
 O715 O 0.05953 -0.05035 0.50105
 O716 O 0.04632 -0.05668 0.54030
 O717 O -0.00341 -0.05624 0.45579
 O718 O -0.04437 -0.03649 0.45591
 O719 O 0.04453 0.00175 0.44691
 O720 O 0.04930 0.04177 0.46789
 O721 O 0.06965 -0.01490 0.48157
 O722 O 0.07006 0.02815 0.49562
 O723 O 0.01016 -0.01816 0.43554
 O724 O -0.03406 -0.00502 0.43944
 O725 O 0.02303 -0.07060 0.48480
 O726 O 0.00863 -0.07610 0.52766
 O727 O -0.05322 0.03847 0.50751
 O728 O -0.03658 0.04922 0.46961
 O729 O 0.01227 0.04474 0.55359
 O730 O 0.05033 0.02543 0.55513
 O731 O -0.03800 -0.01344 0.56321
 O732 O -0.03875 -0.05351 0.54239
 Zr733 Zr -0.03264 -0.01897 0.52562
 O734 O -0.01321 -0.03973 0.50010
 Zr735 Zr 0.01769 0.00892 0.54322
 O736 O 0.03921 -0.01002 0.51833
 Zr737 Zr -0.01614 0.03347 0.49865
 O738 O 0.00348 0.01470 0.47160
 Zr739 Zr 0.02323 -0.04390 0.51171
 O740 O 0.00292 -0.02596 0.53903
 Zr741 Zr -0.01119 -0.02034 0.46699
 O742 O -0.03266 -0.00043 0.49168
 Zr743 Zr 0.03915 0.00818 0.48434
 O744 O 0.02029 0.02913 0.51035
 O745 O -0.01802 0.01526 0.53189
 O746 O 0.02475 -0.02610 0.47800
 C747 C -0.06893 0.02453 0.51802
 C748 C -0.02472 -0.00284 0.57925
 C749 C -0.00016 0.06264 0.54476
 C750 C 0.07450 -0.03669 0.48917
 C751 C 0.01133 -0.07249 0.46459
 C752 C 0.03147 -0.00963 0.43125
 H753 H -0.02110 -0.05577 0.49816
 H754 H 0.00331 0.02420 0.45616
 H755 H -0.02787 0.02494 0.54334
 H756 H 0.05581 -0.01198 0.52531
 H757 H 0.03675 -0.05591 0.55551
 H758 H 0.03102 -0.02154 0.57738
 H759 H -0.02556 0.00913 0.43210
 H760 H -0.04540 0.03563 0.46188
 H761 H 0.02044 -0.08954 0.52491
 H762 H -0.05333 -0.05232 0.55296
 H763 H 0.03706 0.04595 0.45515
 H764 H 0.01278 0.06835 0.48631
 H765 H -0.06819 -0.03008 0.49673
 H766 H -0.04682 -0.05131 0.46610
 H767 H 0.05554 0.03645 0.54171
 H768 H 0.07773 0.01915 0.50946
 O769 O 0.79367 0.30895 0.25773
 O770 O 0.79478 0.29246 0.29670
 O771 O 0.81282 0.24785 0.21247
 O772 O 0.79869 0.21081 0.20493
 O773 O 0.75033 0.29371 0.19303
 O774 O 0.70990 0.29595 0.20824
 O775 O 0.74676 0.18050 0.26914
 O776 O 0.78711 0.18352 0.26264
 O777 O 0.73051 0.23886 0.31834
 O778 O 0.73794 0.28315 0.31709
 O779 O 0.68511 0.22880 0.25744
 O780 O 0.68785 0.23682 0.21454
 O781 O 0.71307 0.19148 0.24688
 O782 O 0.71045 0.21009 0.20490
 O783 O 0.69375 0.25076 0.29113
 O784 O 0.70979 0.29243 0.29581
 O785 O 0.75357 0.20584 0.30884
 O786 O 0.79672 0.20946 0.29571
 O787 O 0.76013 0.31959 0.23511
 O788 O 0.71705 0.31581 0.23904
 O789 O 0.77412 0.26111 0.18395
 O790 O 0.76517 0.21715 0.18654
 O791 O 0.82119 0.27093 0.24550
 O792 O 0.81654 0.25804 0.28842
 Zr793 Zr 0.78830 0.27159 0.26513
 O794 O 0.76661 0.24892 0.28745
 Zr795 Zr 0.77557 0.23955 0.21593
 O796 O 0.75391 0.21531 0.23635
 Zr797 Zr 0.74077 0.28685 0.22990
 O798 O 0.71721 0.26452 0.25065
 Zr799 Zr 0.76543 0.21371 0.27295
 O800 O 0.78925 0.23573 0.25176
 Zr801 Zr 0.73030 0.26106 0.28665
 O802 O 0.75243 0.28550 0.26654
 Zr803 Zr 0.71794 0.22865 0.23768
 O804 O 0.73912 0.25180 0.21487
 O805 O 0.77676 0.27490 0.22894
 O806 O 0.72909 0.22538 0.27401
 C807 C 0.77991 0.32476 0.24671
 C808 C 0.82749 0.26018 0.22583
 C809 C 0.76308 0.28110 0.17804
 C810 C 0.72663 0.17562 0.25806
 C811 C 0.74053 0.21819 0.32375
 C812 C 0.67908 0.23859 0.27771
 H813 H 0.77342 0.24854 0.30419
 H814 H 0.70060 0.27163 0.24997
 H815 H 0.78728 0.28586 0.21913
 H816 H 0.75490 0.19910 0.22875
 H817 H 0.80258 0.19024 0.25627
 H818 H 0.79553 0.19686 0.21606
 H819 H 0.69708 0.29494 0.28312
 H820 H 0.72028 0.31945 0.25638
 H821 H 0.79536 0.19373 0.30475
 H822 H 0.83061 0.26933 0.28758
 H823 H 0.68219 0.25349 0.21835
 H824 H 0.70671 0.28170 0.19783
 H825 H 0.77943 0.30129 0.30022
 H826 H 0.75328 0.27713 0.32472
 H827 H 0.74955 0.22375 0.18002
 H828 H 0.72272 0.19692 0.20328
 O829 O 0.70948 0.74964 0.69469
 O830 O 0.73034 0.78598 0.69164
 O831 O 0.77495 0.70079 0.69449
 O832 O 0.80509 0.69127 0.71931
 O833 O 0.71289 0.68459 0.74309
 O834 O 0.69854 0.70219 0.77891
 O835 O 0.82000 0.76044 0.77489
 O836 O 0.82906 0.75026 0.73626
 O837 O 0.75930 0.81028 0.76800
 O838 O 0.71801 0.80715 0.74977
 O839 O 0.75723 0.75036 0.81950
 O840 O 0.75064 0.70892 0.81811
 O841 O 0.80112 0.73663 0.80332
 O842 O 0.78000 0.69556 0.80252
 O843 O 0.73961 0.78461 0.80340
 O844 O 0.70374 0.78920 0.77762
 O845 O 0.79747 0.79946 0.75633
 O846 O 0.80754 0.78336 0.71672
 O847 O 0.69047 0.72557 0.72271
 O848 O 0.68239 0.73317 0.76443
 O849 O 0.75063 0.67324 0.73056
 O850 O 0.79122 0.67667 0.75034
 O851 O 0.75323 0.73244 0.67798
 O852 O 0.76428 0.77510 0.68218
 Zr853 Zr 0.74499 0.75404 0.70823
 O854 O 0.76051 0.77710 0.73432
 Zr855 Zr 0.77167 0.70517 0.73232
 O856 O 0.78908 0.72635 0.75882
 Zr857 Zr 0.71660 0.72178 0.75093
 O858 O 0.73166 0.74293 0.77892
 Zr859 Zr 0.79393 0.76249 0.74656
 O860 O 0.77958 0.74030 0.71853
 Zr861 Zr 0.73874 0.77826 0.76564
 O862 O 0.72144 0.75778 0.73819
 Zr863 Zr 0.76619 0.72935 0.78916
 O864 O 0.74957 0.70612 0.76352
 O865 O 0.73807 0.71845 0.71998
 O866 O 0.77265 0.76529 0.77790
 C867 C 0.69060 0.73876 0.70314
 C868 C 0.76630 0.71305 0.67625
 C869 C 0.72859 0.66844 0.73675
 C870 C 0.81978 0.74808 0.79501
 C871 C 0.78148 0.81537 0.76274
 C872 C 0.74678 0.77123 0.82151
 H873 H 0.76256 0.79334 0.72654
 H874 H 0.72035 0.74302 0.79288
 H875 H 0.73029 0.70823 0.70740
 H876 H 0.80489 0.71845 0.76283
 H877 H 0.82740 0.74364 0.71963
 H878 H 0.81733 0.70412 0.72202
 H879 H 0.69742 0.77627 0.78860
 H880 H 0.68016 0.75037 0.75909
 H881 H 0.82272 0.79157 0.72202
 H882 H 0.78098 0.76818 0.68141
 H883 H 0.73278 0.71148 0.81727
 H884 H 0.71117 0.69221 0.78743
 H885 H 0.71849 0.79275 0.70331
 H886 H 0.72805 0.81492 0.73693
 H887 H 0.78043 0.66991 0.76314
 H888 H 0.79650 0.69328 0.79566
 O889 O 0.23818 0.32024 0.72400
 O890 O 0.28084 0.31761 0.73046
 O891 O 0.22500 0.25840 0.67859
 O892 O 0.23173 0.21502 0.68350
 O893 O 0.17754 0.27119 0.74002
 O894 O 0.18171 0.26722 0.78248
 O895 O 0.28950 0.19456 0.74709
 O896 O 0.28880 0.20527 0.70728
 O897 O 0.30557 0.25683 0.78767
 O898 O 0.28903 0.29809 0.78943
 O899 O 0.24546 0.21328 0.80715
 O900 O 0.20397 0.20861 0.79130
 O901 O 0.25669 0.18577 0.77072
 O902 O 0.21208 0.18774 0.76312
 O903 O 0.26827 0.24666 0.81514
 O904 O 0.26010 0.29080 0.81011
 O905 O 0.31526 0.23308 0.75547
 O906 O 0.31082 0.24287 0.71208
 O907 O 0.20549 0.31185 0.74789
 O908 O 0.20348 0.29693 0.78921
 O909 O 0.18666 0.24768 0.70746
 O910 O 0.20358 0.20728 0.70615
 O911 O 0.24867 0.29131 0.68616
 O912 O 0.28938 0.29506 0.70201
 Zr913 Zr 0.25817 0.28746 0.72322
 O914 O 0.28196 0.26720 0.74603
 Zr915 Zr 0.22402 0.23925 0.71215
 O916 O 0.24681 0.21687 0.73413
 Zr917 Zr 0.21091 0.27504 0.75868
 O918 O 0.23262 0.25378 0.78276
 Zr919 Zr 0.28245 0.23064 0.73534
 O920 O 0.26044 0.25140 0.71052
 Zr921 Zr 0.26873 0.26631 0.78189
 O922 O 0.24644 0.28930 0.75965
 Zr923 Zr 0.23505 0.21772 0.77041
 O924 O 0.21061 0.23827 0.74804
 O925 O 0.22223 0.27550 0.72257
 O926 O 0.27100 0.22990 0.77160
 C927 C 0.21851 0.32653 0.73495
 C928 C 0.23599 0.27799 0.67182
 C929 C 0.17154 0.25947 0.72078
 C930 C 0.27697 0.17994 0.76057
 C931 C 0.32083 0.24450 0.77504
 C932 C 0.25796 0.22661 0.82160
 H933 H 0.29839 0.27447 0.74492
 H934 H 0.22557 0.25458 0.79927
 H935 H 0.21141 0.28554 0.71186
 H936 H 0.24677 0.20017 0.72757
 H937 H 0.28451 0.21361 0.69172
 H938 H 0.24737 0.22022 0.67625
 H939 H 0.24479 0.28521 0.81779
 H940 H 0.21781 0.30759 0.79146
 H941 H 0.32426 0.23067 0.71283
 H942 H 0.29243 0.28050 0.69198
 H943 H 0.20128 0.22182 0.80310
 H944 H 0.17784 0.24976 0.78037
 H945 H 0.27720 0.32268 0.74731
 H946 H 0.30075 0.30056 0.77600
 H947 H 0.19358 0.20457 0.72090
 H948 H 0.21795 0.17995 0.74808
 O949 O 0.19078 0.74838 0.29778
 O950 O 0.20421 0.70677 0.30225
 O951 O 0.25997 0.78632 0.30827
 O952 O 0.29556 0.78907 0.28918
 O953 O 0.20966 0.80637 0.24852
 O954 O 0.20222 0.78895 0.20953
 O955 O 0.31185 0.71821 0.24118
 O956 O 0.31347 0.72960 0.28144
 O957 O 0.24786 0.67546 0.23401
 O958 O 0.20545 0.68091 0.24733
 O959 O 0.25861 0.73055 0.18318
 O960 O 0.25517 0.77662 0.18492
 O961 O 0.30092 0.73971 0.20701
 O962 O 0.28843 0.77994 0.19945
 O963 O 0.23220 0.70188 0.19728
 O964 O 0.19380 0.70172 0.21972
 O965 O 0.28375 0.68343 0.25305
 O966 O 0.28683 0.69794 0.29472
 O967 O 0.18078 0.77065 0.26388
 O968 O 0.17914 0.76159 0.22167
 O969 O 0.24467 0.81391 0.26930
 O970 O 0.28665 0.80655 0.25546
 O971 O 0.23520 0.75598 0.32195
 O972 O 0.23569 0.71355 0.32114
 Zr973 Zr 0.22666 0.73587 0.29062
 O974 O 0.24462 0.70964 0.26935
 Zr975 Zr 0.26300 0.78003 0.27058
 O976 O 0.28221 0.75560 0.24836
 Zr977 Zr 0.21144 0.76884 0.24152
 O978 O 0.22825 0.74386 0.21817
 Zr979 Zr 0.28079 0.72013 0.26316
 O980 O 0.26382 0.74499 0.28696
 Zr981 Zr 0.22874 0.70892 0.23450
 O982 O 0.20904 0.73339 0.25656
 Zr983 Zr 0.26527 0.75271 0.21397
 O984 O 0.24761 0.77967 0.23529
 O985 O 0.22667 0.77119 0.27629
 O986 O 0.26532 0.71737 0.22837
 C987 C 0.17563 0.76111 0.28469
 C988 C 0.24904 0.77450 0.32539
 C989 C 0.22433 0.82075 0.25953
 C990 C 0.31648 0.72748 0.22006
 C991 C 0.26904 0.66904 0.24210
 C992 C 0.24413 0.71240 0.18012
 H993 H 0.24412 0.69353 0.27767
 H994 H 0.21919 0.74432 0.20253
 H995 H 0.21824 0.78275 0.28716
 H996 H 0.29921 0.76136 0.24700
 H997 H 0.30866 0.73670 0.29722
 H998 H 0.30793 0.77672 0.28484
 H999 H 0.19036 0.71433 0.20706
 H1000 H 0.17277 0.74589 0.22801
 H1001 H 0.30207 0.68842 0.29237
 H1002 H 0.25371 0.71355 0.32241
 H1003 H 0.23924 0.77116 0.17848
 H1004 H 0.21697 0.79813 0.20473
 H1005 H 0.19282 0.70352 0.28861
 H1006 H 0.21251 0.67406 0.26261
 H1007 H 0.27898 0.81253 0.24008
 H1008 H 0.29858 0.78589 0.21307
 O1009 O 0.18589 0.73587 0.75619
 O1010 O 0.19015 0.74615 0.71562
 O1011 O 0.24670 0.68569 0.76872
 O1012 O 0.28682 0.68655 0.77094
 O1013 O 0.23113 0.74616 0.81985
 O1014 O 0.23913 0.78847 0.81798
 O1015 O 0.31509 0.75115 0.71410
 O1016 O 0.30081 0.71225 0.71221
 O1017 O 0.25729 0.79817 0.69495
 O1018 O 0.21671 0.80405 0.70718
 O1019 O 0.29771 0.81221 0.75945
 O1020 O 0.30032 0.79489 0.79898
 O1021 O 0.32383 0.77334 0.74773
 O1022 O 0.31812 0.76378 0.79275
 O1023 O 0.26553 0.82385 0.73560
 O1024 O 0.21981 0.81991 0.73944
 O1025 O 0.28046 0.76484 0.68686
 O1026 O 0.26522 0.72253 0.68833
 O1027 O 0.19412 0.75842 0.78972
 O1028 O 0.21108 0.79878 0.79434
 O1029 O 0.25345 0.71239 0.81126
 O1030 O 0.29673 0.71117 0.79708
 O1031 O 0.21354 0.69719 0.74612
 O1032 O 0.21599 0.71555 0.70476
 Zr1033 Zr 0.21962 0.73440 0.73814
 O1034 O 0.24240 0.75669 0.71663
 Zr1035 Zr 0.26548 0.71840 0.77520
 O1036 O 0.29024 0.73928 0.75457
 Zr1037 Zr 0.23153 0.76685 0.78727
 O1038 O 0.25534 0.79003 0.76795
 Zr1039 Zr 0.27813 0.74292 0.71836
 O1040 O 0.25506 0.71918 0.73815
 Zr1041 Zr 0.24491 0.79184 0.73100
 O1042 O 0.21951 0.77046 0.75090
 Zr1043 Zr 0.29082 0.77515 0.76748
 O1044 O 0.26760 0.75359 0.78988
 O1045 O 0.22982 0.73133 0.77470
 O1046 O 0.28067 0.77868 0.73089
 C1047 C 0.17945 0.74657 0.77589
 C1048 C 0.22685 0.68100 0.75707
 C1049 C 0.24093 0.72558 0.82588
 C1050 C 0.32992 0.76298 0.72770
 C1051 C 0.27071 0.78537 0.68072
 C1052 C 0.28512 0.82842 0.74769
 H1053 H 0.23620 0.75706 0.69965
 H1054 H 0.25488 0.80617 0.77573
 H1055 H 0.21871 0.72066 0.78416
 H1056 H 0.30648 0.73135 0.75538
 H1057 H 0.29080 0.69762 0.71560
 H1058 H 0.29602 0.68885 0.75564
 H1059 H 0.22534 0.82742 0.75479
 H1060 H 0.20057 0.80188 0.77986
 H1061 H 0.27789 0.72287 0.67549
 H1062 H 0.20116 0.70526 0.70546
 H1063 H 0.28597 0.80489 0.80336
 H1064 H 0.25572 0.78381 0.82367
 H1065 H 0.18692 0.76344 0.71951
 H1066 H 0.21154 0.78994 0.69743
 H1067 H 0.29711 0.72371 0.80988
 H1068 H 0.32652 0.74938 0.78600
 O1069 O 0.26267 0.19760 0.19853
 O1070 O 0.29999 0.19431 0.21736
 O1071 O 0.21491 0.18412 0.26122
 O1072 O 0.20798 0.20155 0.29668
 O1073 O 0.19579 0.24081 0.20914
 O1074 O 0.21055 0.27948 0.20001
 O1075 O 0.27213 0.25788 0.31937
 O1076 O 0.26559 0.21736 0.32166
 O1077 O 0.32049 0.26743 0.25835
 O1078 O 0.31874 0.25577 0.21564
 O1079 O 0.25805 0.31344 0.26377
 O1080 O 0.21643 0.30986 0.25824
 O1081 O 0.24801 0.28912 0.30550
 O1082 O 0.20581 0.28878 0.28574
 O1083 O 0.29206 0.30290 0.24288
 O1084 O 0.29702 0.28225 0.20371
 O1085 O 0.31139 0.24890 0.29442
 O1086 O 0.29974 0.20615 0.29744
 O1087 O 0.23701 0.22722 0.18393
 O1088 O 0.24235 0.27079 0.18239
 O1089 O 0.18600 0.22232 0.24503
 O1090 O 0.18962 0.23387 0.28779
 O1091 O 0.24891 0.17293 0.24061
 O1092 O 0.29183 0.17880 0.25004
 Zr1093 Zr 0.26800 0.20579 0.23530
 O1094 O 0.29003 0.23052 0.25418
 Zr1095 Zr 0.21858 0.22183 0.26548
 O1096 O 0.23882 0.24627 0.28661
 Zr1097 Zr 0.23248 0.25057 0.21391
 O1098 O 0.25226 0.27707 0.23301
 Zr1099 Zr 0.27568 0.23566 0.28900
 O1100 O 0.25460 0.20906 0.27092
 Zr1101 Zr 0.28848 0.26519 0.23747
 O1102 O 0.26922 0.23955 0.21648
 Zr1103 Zr 0.23944 0.28043 0.26891
 O1104 O 0.21723 0.25647 0.24854
 O1105 O 0.23164 0.21622 0.23045
 O1106 O 0.27605 0.27049 0.27296
 C1107 C 0.25085 0.20845 0.18123
 C1108 C 0.22884 0.16806 0.25161
 C1109 C 0.18038 0.23133 0.22398
 C1110 C 0.25978 0.27753 0.32251
 C1111 C 0.32623 0.25971 0.27982
 C1112 C 0.27795 0.31867 0.25272
 H1113 H 0.30686 0.22393 0.25507
 H1114 H 0.25107 0.29269 0.22383
 H1115 H 0.22190 0.20447 0.22095
 H1116 H 0.23125 0.24692 0.30291
 H1117 H 0.26034 0.20078 0.31706
 H1118 H 0.21995 0.20526 0.30964
 H1119 H 0.28387 0.29410 0.19970
 H1120 H 0.25926 0.26591 0.17840
 H1121 H 0.30799 0.20951 0.31319
 H1122 H 0.28591 0.17479 0.26663
 H1123 H 0.21815 0.31206 0.24041
 H1124 H 0.20078 0.28544 0.21385
 H1125 H 0.30582 0.20862 0.20791
 H1126 H 0.32675 0.24128 0.22319
 H1127 H 0.18264 0.24873 0.27993
 H1128 H 0.20501 0.27937 0.30125
 O1129 O 0.74464 0.71560 0.30621
 O1130 O 0.70611 0.70729 0.28788
 O1131 O 0.79413 0.69656 0.24854
 O1132 O 0.80388 0.70994 0.21197
 O1133 O 0.80236 0.76786 0.28731
 O1134 O 0.77963 0.80376 0.28851
 O1135 O 0.73075 0.75262 0.17431
 O1136 O 0.74765 0.71399 0.18021
 O1137 O 0.67900 0.76445 0.22738
 O1138 O 0.67706 0.76173 0.27018
 O1139 O 0.73508 0.81691 0.21628
 O1140 O 0.77941 0.81792 0.22755
 O1141 O 0.75031 0.78810 0.18226
 O1142 O 0.78958 0.79769 0.19981
 O1143 O 0.70138 0.80661 0.23785
 O1144 O 0.69590 0.79101 0.28067
 O1145 O 0.69416 0.73850 0.19917
 O1146 O 0.71418 0.69985 0.20469
 O1147 O 0.76397 0.75114 0.31418
 O1148 O 0.74935 0.79226 0.30672
 O1149 O 0.81724 0.74025 0.26056
 O1150 O 0.81633 0.74591 0.21577
 O1151 O 0.76074 0.68633 0.27067
 O1152 O 0.71835 0.68489 0.26074
 Zr1153 Zr 0.73785 0.71709 0.26841
 O1154 O 0.71452 0.73394 0.24261
 Zr1155 Zr 0.78718 0.73309 0.23752
 O1156 O 0.76572 0.75033 0.21015
 Zr1157 Zr 0.76478 0.76936 0.28013
 O1158 O 0.74284 0.78847 0.25457
 Zr1159 Zr 0.73114 0.73436 0.20825
 O1160 O 0.75360 0.71497 0.23349
 Zr1161 Zr 0.70906 0.77088 0.25080
 O1162 O 0.73012 0.75315 0.27858
 Zr1163 Zr 0.75853 0.78658 0.21978
 O1164 O 0.78214 0.77012 0.24600
 O1165 O 0.77201 0.73301 0.27213
 O1166 O 0.72414 0.77096 0.21599
 C1167 C 0.75488 0.73056 0.32086
 C1168 C 0.78140 0.68121 0.26102
 C1169 C 0.81983 0.75568 0.27780
 C1170 C 0.73941 0.77344 0.16776
 C1171 C 0.67660 0.75028 0.20902
 C1172 C 0.71410 0.82187 0.22530
 H1173 H 0.69907 0.72472 0.24231
 H1174 H 0.74113 0.80544 0.26018
 H1175 H 0.78278 0.72450 0.28412
 H1176 H 0.77406 0.74932 0.19426
 H1177 H 0.75526 0.69949 0.18818
 H1178 H 0.79365 0.71067 0.19706
 H1179 H 0.70665 0.80528 0.28269
 H1180 H 0.73360 0.78490 0.31151
 H1181 H 0.70743 0.69867 0.18792
 H1182 H 0.72415 0.67920 0.24473
 H1183 H 0.77078 0.82715 0.24029
 H1184 H 0.78912 0.80902 0.27410
 H1185 H 0.70059 0.72210 0.29643
 H1186 H 0.67523 0.74383 0.26947
 H1187 H 0.81969 0.76283 0.22084
 H1188 H 0.79530 0.78361 0.19030
 O1189 O 0.70692 0.30309 0.74791
 O1190 O 0.70254 0.28805 0.70837
 O1191 O 0.68809 0.24379 0.79491
 O1192 O 0.70008 0.20564 0.80213
 O1193 O 0.75554 0.28395 0.80725
 O1194 O 0.79458 0.28323 0.78750
 O1195 O 0.74656 0.17270 0.73081
 O1196 O 0.70770 0.17634 0.74518
 O1197 O 0.75846 0.22926 0.68133
 O1198 O 0.75478 0.27509 0.68381
 O1199 O 0.81021 0.21614 0.73957
 O1200 O 0.81037 0.22396 0.78330
 O1201 O 0.78124 0.18042 0.75228
 O1202 O 0.78897 0.19669 0.79309
 O1203 O 0.80018 0.23836 0.70570
 O1204 O 0.78746 0.27893 0.69957
 O1205 O 0.73257 0.19955 0.69429
 O1206 O 0.69310 0.20456 0.71418
 O1207 O 0.74221 0.31076 0.76837
 O1208 O 0.78413 0.30502 0.75738
 O1209 O 0.73154 0.25264 0.82013
 O1210 O 0.73583 0.20843 0.81723
 O1211 O 0.67879 0.26701 0.76144
 O1212 O 0.67893 0.25535 0.71874
 Zr1213 Zr 0.70987 0.26584 0.73955
 O1214 O 0.72763 0.24164 0.71605
 Zr1215 Zr 0.72443 0.23224 0.78856
 O1216 O 0.74268 0.20659 0.76681
 Zr1217 Zr 0.76081 0.27699 0.76989
 O1218 O 0.78075 0.25321 0.74751
 Zr1219 Zr 0.72782 0.20637 0.73149
 O1220 O 0.70758 0.23001 0.75405
 Zr1221 Zr 0.76451 0.25084 0.71272
 O1222 O 0.74616 0.27700 0.73433
 Zr1223 Zr 0.77901 0.21745 0.76167
 O1224 O 0.76149 0.24179 0.78575
 O1225 O 0.72451 0.26760 0.77462
 O1226 O 0.76453 0.21520 0.72646
 C1227 C 0.72156 0.31746 0.75911
 C1228 C 0.67322 0.25694 0.78189
 C1229 C 0.74438 0.27178 0.82396
 C1230 C 0.76713 0.16610 0.74039
 C1231 C 0.74453 0.21080 0.67759
 C1232 C 0.81539 0.22583 0.71877
 H1233 H 0.71889 0.24221 0.70022
 H1234 H 0.79770 0.25919 0.74661
 H1235 H 0.71561 0.27887 0.78540
 H1236 H 0.74163 0.19020 0.77448
 H1237 H 0.69310 0.18319 0.75319
 H1238 H 0.70222 0.19101 0.79202
 H1239 H 0.79761 0.28426 0.71345
 H1240 H 0.77823 0.30989 0.74091
 H1241 H 0.69196 0.18878 0.70562
 H1242 H 0.66597 0.26796 0.72028
 H1243 H 0.81796 0.23915 0.77714
 H1244 H 0.79737 0.26926 0.79885
 H1245 H 0.71767 0.29706 0.70457
 H1246 H 0.73878 0.26992 0.67732
 H1247 H 0.75287 0.21277 0.82129
 H1248 H 0.77561 0.18514 0.79665
 C1249 C 0.07831 0.99876 1.16838
 C1250 C 0.06072 1.01642 1.17134
 C1251 C 0.05792 1.02910 1.19284
 C1252 C 0.07388 1.02328 1.21211
 C1253 C 0.09211 1.00484 1.20984
 C1254 C 0.09435 0.99254 1.18737
 O1255 O 0.07812 0.98922 1.14628
 C1256 C 0.05998 1.00112 1.13512
 C1257 C 0.04872 1.01793 1.14966
 C1258 C 0.02931 1.03243 1.14162
 C1259 C 0.02114 1.02944 1.11756
 C1260 C 0.03251 1.01225 1.10209
 C1261 C 0.05226 0.99792 1.11114
 H1262 H 0.04407 1.04310 1.19466
 H1263 H 0.07214 1.03323 1.22894
 H1264 H 0.10816 0.97888 1.18425
 H1265 H 0.02076 1.04556 1.15344
 H1266 H 0.00607 1.04064 1.11100
 H1267 H 0.06136 0.98459 1.09994
 C1268 C 0.57295 0.50633 0.66700
 C1269 C 0.59091 0.51093 0.65022
 C1270 C 0.61555 0.50905 0.65543
 C1271 C 0.62215 0.50316 0.67931
 C1272 C 0.60432 0.50049 0.69793
 C1273 C 0.57915 0.50138 0.69148
 O1274 O 0.55066 0.50680 0.65708
 C1275 C 0.55490 0.51210 0.63368
 C1276 C 0.57929 0.51528 0.62893
 C1277 C 0.58843 0.52049 0.60599
 C1278 C 0.57186 0.52135 0.58669
 C1279 C 0.54681 0.51638 0.59047
 C1280 C 0.53787 0.51252 0.61441
 H1281 H 0.62924 0.51179 0.64154
 H1282 H 0.64143 0.50173 0.68365
 H1283 H 0.56496 0.49851 0.70479
 H1284 H 0.60775 0.52302 0.60292
 H1285 H 0.57876 0.52447 0.56844
 H1286 H 0.51890 0.50823 0.61763
 C1287 C 0.42531 0.00808 0.67047
 C1288 C 0.44519 -0.00682 0.67463
 C1289 C 0.44945 -0.01886 0.69664
 C1290 C 0.43266 -0.01517 0.71531
 C1291 C 0.41227 0.00083 0.71209
 C1292 C 0.40845 0.01236 0.68898
 O1293 O 0.42436 0.01700 0.64780
 C1294 C 0.44415 0.00756 0.63759
 C1295 C 0.45754 -0.00700 0.65336
 C1296 C 0.47889 -0.01880 0.64669
 C1297 C 0.48674 -0.01565 0.62263
 C1298 C 0.47308 -0.00113 0.60567
 C1299 C 0.45148 0.01076 0.61340
 H1300 H 0.46502 -0.03085 0.69929
 H1301 H 0.43562 -0.02468 0.73255
 H1302 H 0.39292 0.02400 0.68514
 H1303 H 0.48906 -0.03017 0.65951
 H1304 H 0.50319 -0.02506 0.61714
 H1305 H 0.44060 0.02189 0.60096
 C1306 C -0.07901 0.50231 1.16270
 C1307 C -0.05955 0.48683 1.16681
 C1308 C -0.05479 0.47584 1.18927
 C1309 C -0.07075 0.48100 1.20835
 C1310 C -0.09084 0.49733 1.20498
 C1311 C -0.09507 0.50793 1.18153
 O1312 O -0.08060 0.51013 1.13969
 C1313 C -0.06170 0.49936 1.12915
 C1314 C -0.04825 0.48495 1.14501
 C1315 C -0.02783 0.47180 1.13791
 C1316 C -0.02086 0.47366 1.11341
 C1317 C -0.03438 0.48839 1.09653
 C1318 C -0.05519 0.50138 1.10463
 H1319 H -0.03958 0.46338 1.19193
 H1320 H -0.06764 0.47198 1.22580
 H1321 H -0.11062 0.51956 1.17763
 H1322 H -0.01761 0.46052 1.15076
 H1323 H -0.00498 0.46348 1.10765
 H1324 H -0.06592 0.51279 1.09232
 C1325 C -0.08999 0.50726 0.33614
 C1326 C -0.07705 0.52870 0.33624
 C1327 C -0.07537 0.54407 0.31596
 C1328 C -0.08709 0.53680 0.29451
 C1329 C -0.10012 0.51455 0.29375
 C1330 C -0.10210 0.49981 0.31500
 O1331 O -0.08788 0.49462 0.35692
 C1332 C -0.07321 0.50835 0.37032
 C1333 C -0.06610 0.52937 0.35846
 C1334 C -0.04959 0.54565 0.36841
 C1335 C -0.03988 0.53999 0.39153
 C1336 C -0.04680 0.51837 0.40423
 C1337 C -0.06399 0.50248 0.39350
 H1338 H -0.06483 0.56069 0.31642
 H1339 H -0.08553 0.54816 0.27827
 H1340 H -0.11154 0.48253 0.31465
 H1341 H -0.04404 0.56191 0.35855
 H1342 H -0.02689 0.55244 0.39947
 H1343 H -0.06938 0.48568 0.40252
 C1344 C 0.41014 1.01984 -0.15722
 C1345 C 0.42805 1.03718 -0.15942
 C1346 C 0.43460 1.04761 -0.18155
 C1347 C 0.42268 1.03945 -0.20246
 C1348 C 0.40417 1.02133 -0.20111
 C1349 C 0.39719 1.01207 -0.17785
 O1350 O 0.40871 1.01054 -0.13471
 C1351 C 0.42608 1.02232 -0.12262
 C1352 C 0.43823 1.03895 -0.13697
 C1353 C 0.45808 1.05221 -0.12873
 C1354 C 0.46607 1.04794 -0.10474
 C1355 C 0.45438 1.03044 -0.08952
 C1356 C 0.43373 1.01776 -0.09856
 H1357 H 0.44900 1.06099 -0.18281
 H1358 H 0.42786 1.04761 -0.21975
 H1359 H 0.38374 0.99779 -0.17604
 H1360 H 0.46750 1.06496 -0.14056
 H1361 H 0.48178 1.05792 -0.09829
 H1362 H 0.42461 1.00402 -0.08763
 C1363 C 0.57218 0.49838 -0.17385
 C1364 C 0.57955 0.52041 -0.16474
 C1365 C 0.59536 0.53597 -0.17698
 C1366 C 0.60421 0.52844 -0.19952
 C1367 C 0.59709 0.50583 -0.20939
 C1368 C 0.58061 0.49063 -0.19656
 O1369 O 0.55809 0.48591 -0.15844
 C1370 C 0.55665 0.50042 -0.13923
 C1371 C 0.56950 0.52172 -0.14234
 C1372 C 0.57168 0.53909 -0.12437
 C1373 C 0.56035 0.53432 -0.10208
 C1374 C 0.54708 0.51246 -0.09804
 C1375 C 0.54487 0.49537 -0.11708
 H1376 H 0.60109 0.55305 -0.16920
 H1377 H 0.61689 0.54008 -0.20919
 H1378 H 0.57534 0.47306 -0.20360
 H1379 H 0.58210 0.55558 -0.12726
 H1380 H 0.56206 0.54772 -0.08785
 H1381 H 0.53514 0.47841 -0.11444
 C1382 C 0.08767 -0.00682 0.34056
 C1383 C 0.07250 -0.02673 0.34035
 C1384 C 0.06988 -0.04170 0.32032
 C1385 C 0.08297 -0.03557 0.29933
 C1386 C 0.09826 -0.01481 0.29877
 C1387 C 0.10116 -0.00054 0.31985
 O1388 O 0.08630 0.00568 0.36112
 C1389 C 0.06981 -0.00656 0.37403
 C1390 C 0.06084 -0.02648 0.36201
 C1391 C 0.04249 -0.04115 0.37131
 C1392 C 0.03292 -0.03512 0.39402
 C1393 C 0.04181 -0.01473 0.40703
 C1394 C 0.06074 -0.00035 0.39693
 H1395 H 0.05762 -0.05711 0.32059
 H1396 H 0.08071 -0.04657 0.28322
 H1397 H 0.11237 0.01567 0.31962
 H1398 H 0.03559 -0.05656 0.36132
 H1399 H 0.01871 -0.04656 0.40157
 H1400 H 0.06778 0.01537 0.40633
 C1401 C 0.16228 1.07838 0.99724
 C1402 C 0.16728 1.05806 1.01144
 C1403 C 0.19033 1.05291 1.02080
 C1404 C 0.20895 1.06949 1.01546
 C1405 C 0.20447 1.09059 1.00058
 C1406 C 0.18054 1.09505 0.99155
 O1407 O 0.13893 1.08038 0.99101
 C1408 C 0.12903 1.06090 1.00150
 C1409 C 0.14557 1.04666 1.01426
 C1410 C 0.13898 1.02568 1.02708
 C1411 C 0.11433 1.01894 1.02648
 C1412 C 0.09689 1.03323 1.01323
 C1413 C 0.10450 1.05461 1.00068
 H1414 H 0.19372 1.03705 1.03234
 H1415 H 0.22674 1.06625 1.02359
 H1416 H 0.17581 1.11144 0.98136
 H1417 H 0.15234 1.01486 1.03713
 H1418 H 0.10894 1.00253 1.03619
 H1419 H 0.09178 1.06601 0.99043
 C1420 C 0.66426 0.58472 0.49670
 C1421 C 0.66738 0.56712 0.51457
 C1422 C 0.68867 0.56452 0.52813
 C1423 C 0.70767 0.58061 0.52290
 C1424 C 0.70534 0.59878 0.50418
 C1425 C 0.68302 0.60091 0.49104
 O1426 O 0.64240 0.58406 0.48615
 C1427 C 0.63161 0.56558 0.49761
 C1428 C 0.64620 0.55459 0.51509
 C1429 C 0.63878 0.53474 0.52911
 C1430 C 0.61524 0.52586 0.52504
 C1431 C 0.59958 0.53702 0.50731
 C1432 C 0.60802 0.55719 0.49336
 H1433 H 0.69060 0.55059 0.54221
 H1434 H 0.72447 0.57882 0.53331
 H1435 H 0.68001 0.61447 0.47689
 H1436 H 0.65068 0.52638 0.54271
 H1437 H 0.60919 0.51044 0.53593
 H1438 H 0.59663 0.56609 0.47966
 C1439 C 0.66990 0.42149 -0.00340
 C1440 C 0.67470 0.44262 -0.01620
 C1441 C 0.69762 0.44809 -0.02519
 C1442 C 0.71644 0.43116 -0.02072
 C1443 C 0.71249 0.40933 -0.00667
 C1444 C 0.68834 0.40440 0.00142
 O1445 O 0.64665 0.41946 0.00290
 C1446 C 0.63663 0.43981 -0.00608
 C1447 C 0.65299 0.45460 -0.01797
 C1448 C 0.64633 0.47676 -0.02881
 C1449 C 0.62182 0.48412 -0.02707
 C1450 C 0.60455 0.46928 -0.01470
 C1451 C 0.61220 0.44667 -0.00423
 H1452 H 0.70082 0.46457 -0.03577
 H1453 H 0.73400 0.43496 -0.02880
 H1454 H 0.68364 0.38749 0.01057
 H1455 H 0.65955 0.48807 -0.03813
 H1456 H 0.61641 0.50144 -0.03523
 H1457 H 0.59963 0.43485 0.00538
 C1458 C 0.16865 -0.08729 0.49649
 C1459 C 0.17003 -0.06978 0.47839
 C1460 C 0.19135 -0.06479 0.46583
 C1461 C 0.21212 -0.07853 0.47209
 C1462 C 0.21145 -0.09683 0.49075
 C1463 C 0.18911 -0.10125 0.50303
 O1464 O 0.14661 -0.08887 0.50633
 C1465 C 0.13385 -0.07195 0.49414
 C1466 C 0.14738 -0.05983 0.47681
 C1467 C 0.13792 -0.04111 0.46223
 C1468 C 0.11361 -0.03422 0.46599
 C1469 C 0.09927 -0.04604 0.48412
 C1470 C 0.10951 -0.06551 0.49810
 H1471 H 0.19195 -0.05089 0.45163
 H1472 H 0.22882 -0.07513 0.46218
 H1473 H 0.18718 -0.11522 0.51692
 H1474 H 0.14897 -0.03186 0.44871
 H1475 H 0.10610 -0.01940 0.45497
 H1476 H 0.09918 -0.07475 0.51221
 C1477 C 0.34398 -0.08922 0.51030
 C1478 C 0.34147 -0.07345 0.52943
 C1479 C 0.31931 -0.06913 0.54075
 C1480 C 0.29879 -0.08132 0.53184
 C1481 C 0.30069 -0.09745 0.51189
 C1482 C 0.32375 -0.10182 0.50127
 O1483 O 0.36647 -0.08956 0.50133
 C1484 C 0.37830 -0.07363 0.51507
 C1485 C 0.36379 -0.06333 0.53254
 C1486 C 0.37195 -0.04518 0.54798
 C1487 C 0.39596 -0.03700 0.54508
 C1488 C 0.41134 -0.04704 0.52701
 C1489 C 0.40242 -0.06598 0.51207
 H1490 H 0.31777 -0.05648 0.55564
 H1491 H 0.28134 -0.07810 0.54040
 H1492 H 0.32564 -0.11384 0.48589
 H1493 H 0.36005 -0.03715 0.56138
 H1494 H 0.40243 -0.02253 0.55666
 H1495 H 0.41348 -0.07366 0.49777
 C1496 C -0.16774 0.42016 1.00345
 C1497 C -0.15286 0.40395 1.01582
 C1498 C -0.16013 0.38045 1.02204
 C1499 C -0.18387 0.37342 1.01557
 C1500 C -0.20008 0.38998 1.00326
 C1501 C -0.19149 0.41373 0.99710
 O1502 O -0.15689 0.44120 0.99817
 C1503 C -0.13466 0.43823 1.00756
 C1504 C -0.13137 0.41577 1.01873
 C1505 C -0.10932 0.40843 1.02918
 C1506 C -0.08969 0.42459 1.02741
 C1507 C -0.09232 0.44743 1.01520
 C1508 C -0.11528 0.45466 1.00562
 H1509 H -0.14797 0.36794 1.03164
 H1510 H -0.18966 0.35546 1.02135
 H1511 H -0.20265 0.42678 0.98701
 H1512 H -0.10715 0.39068 1.03785
 H1513 H -0.07219 0.41914 1.03497
 H1514 H -0.11756 0.47179 0.99576
 C1515 C -0.16498 0.58766 0.49126
 C1516 C -0.16615 0.57270 0.47136
 C1517 C -0.18665 0.57123 0.45644
 C1518 C -0.20701 0.58534 0.46262
 C1519 C -0.20647 0.60050 0.48337
 C1520 C -0.18498 0.60207 0.49758
 O1521 O -0.14426 0.58527 0.50378
 C1522 C -0.13217 0.56836 0.49157
 C1523 C -0.14482 0.56008 0.47162
 C1524 C -0.13622 0.54151 0.45697
 C1525 C -0.11357 0.53106 0.46307
 C1526 C -0.10001 0.53928 0.48352
 C1527 C -0.10948 0.55836 0.49788
 H1528 H -0.18720 0.55912 0.44104
 H1529 H -0.22346 0.58402 0.45168
 H1530 H -0.18433 0.61290 0.51385
 H1531 H -0.14666 0.53514 0.44153
 H1532 H -0.10658 0.51665 0.45171
 H1533 H -0.09973 0.56492 0.51369
 C1534 C 0.32819 1.08045 -0.00560
 C1535 C 0.34326 1.09767 -0.01583
 C1536 C 0.33500 1.12047 -0.02372
 C1537 C 0.31017 1.12583 -0.02079
 C1538 C 0.29425 1.10866 -0.00967
 C1539 C 0.30351 1.08551 -0.00218
 O1540 O 0.33979 1.06003 0.00097
 C1541 C 0.36274 1.06455 -0.00514
 C1542 C 0.36582 1.08742 -0.01533
 C1543 C 0.38849 1.09655 -0.02183
 C1544 C 0.40887 1.08153 -0.01748
 C1545 C 0.40612 1.05782 -0.00725
 C1546 C 0.38273 1.04903 -0.00123
 H1547 H 0.34723 1.13365 -0.03186
 H1548 H 0.30346 1.14331 -0.02740
 H1549 H 0.29208 1.07205 0.00667
 H1550 H 0.39048 1.11473 -0.02948
 H1551 H 0.42683 1.08833 -0.02201
 H1552 H 0.38035 1.03114 0.00700
 C1553 C -0.00025 1.16434 1.08163
 C1554 C 0.01597 1.16763 1.06286
 C1555 C 0.02851 1.18921 1.05901
 C1556 C 0.02413 1.20822 1.07517
 C1557 C 0.00716 1.20562 1.09458
 C1558 C -0.00503 1.18307 1.09787
 O1559 O -0.00963 1.14209 1.08245
 C1560 C 0.00089 1.13118 1.06376
 C1561 C 0.01669 1.14605 1.05120
 C1562 C 0.02991 1.13832 1.03121
 C1563 C 0.02667 1.11422 1.02378
 C1564 C 0.01047 1.09839 1.03643
 C1565 C -0.00259 1.10713 1.05676
 H1566 H 0.04146 1.19122 1.04431
 H1567 H 0.03421 1.22501 1.07275
 H1568 H -0.01730 1.17964 1.11283
 H1569 H 0.04232 1.15039 1.02170
 H1570 H 0.03690 1.10793 1.00823
 H1571 H -0.01505 1.09561 1.06687
 C1572 C 0.49726 0.66507 0.57591
 C1573 C 0.50856 0.67061 0.55424
 C1574 C 0.51645 0.69393 0.54829
 C1575 C 0.51277 0.71225 0.56548
 C1576 C 0.50087 0.70721 0.58802
 C1577 C 0.49323 0.68303 0.59321
 O1578 O 0.49229 0.64154 0.57855
 C1579 C 0.50067 0.63204 0.55809
 C1580 C 0.51086 0.64902 0.54262
 C1581 C 0.52144 0.64285 0.52055
 C1582 C 0.52124 0.61818 0.51403
 C1583 C 0.51060 0.60027 0.52960
 C1584 C 0.50026 0.60748 0.55202
 H1585 H 0.52586 0.69773 0.53137
 H1586 H 0.52017 0.73010 0.56154
 H1587 H 0.48550 0.67794 0.61063
 H1588 H 0.52955 0.65653 0.50876
 H1589 H 0.52921 0.61312 0.49681
 H1590 H 0.49209 0.59441 0.56445
 C1591 C -0.00527 0.66466 0.41995
 C1592 C -0.02115 0.66789 0.43895
 C1593 C -0.03238 0.69004 0.44361
 C1594 C -0.02703 0.70971 0.42803
 C1595 C -0.01031 0.70715 0.40843
 C1596 C 0.00042 0.68399 0.40425
 O1597 O 0.00301 0.64195 0.41844
 C1598 C -0.00787 0.63066 0.43693
 C1599 C -0.02286 0.64573 0.45002
 C1600 C -0.03608 0.63770 0.47008
 C1601 C -0.03351 0.61315 0.47714
 C1602 C -0.01794 0.59720 0.46410
 C1603 C -0.00511 0.60618 0.44354
 H1604 H -0.04511 0.69202 0.45847
 H1605 H -0.03627 0.72691 0.43099
 H1606 H 0.01222 0.68067 0.38894
 H1607 H -0.04783 0.64993 0.48002
 H1608 H -0.04357 0.60667 0.49286
 H1609 H 0.00694 0.59461 0.43317
 C1610 C 0.49530 1.17380 -0.07450
 C1611 C 0.48449 1.17839 -0.05249
 C1612 C 0.47643 1.20145 -0.04600
 C1613 C 0.47986 1.22061 -0.06283
 C1614 C 0.49164 1.21657 -0.08550
 C1615 C 0.49882 1.19251 -0.09150
 O1616 O 0.50132 1.15055 -0.07729
 C1617 C 0.49420 1.14024 -0.05653
 C1618 C 0.48371 1.15646 -0.04077
 C1619 C 0.47485 1.14952 -0.01806
 C1620 C 0.47707 1.12486 -0.01122
 C1621 C 0.48807 1.10772 -0.02707
 C1622 C 0.49662 1.11566 -0.05014
 H1623 H 0.46757 1.20453 -0.02873
 H1624 H 0.47297 1.23849 -0.05828
 H1625 H 0.50653 1.18821 -0.10903
 H1626 H 0.46660 1.16261 -0.00600
 H1627 H 0.47032 1.11922 0.00648
 H1628 H 0.50500 1.10316 -0.06275
 C1629 C 0.50400 0.34719 -0.09390
 C1630 C 0.52774 0.34738 -0.08550
 C1631 C 0.54298 0.32705 -0.08626
 C1632 C 0.53322 0.30552 -0.09562
 C1633 C 0.50866 0.30470 -0.10381
 C1634 C 0.49397 0.32593 -0.10344
 O1635 O 0.49216 0.36794 -0.08988
 C1636 C 0.50870 0.38141 -0.07857
 C1637 C 0.53075 0.36963 -0.07539
 C1638 C 0.54995 0.37950 -0.06216
 C1639 C 0.54619 0.40233 -0.05153
 C1640 C 0.52361 0.41485 -0.05450
 C1641 C 0.50476 0.40438 -0.06860
 H1642 H 0.56145 0.32754 -0.07921
 H1643 H 0.54448 0.28921 -0.09577
 H1644 H 0.47501 0.32550 -0.10910
 H1645 H 0.56694 0.36965 -0.05948
 H1646 H 0.56071 0.41011 -0.04070
 H1647 H 0.48712 0.41322 -0.07059
 C1648 C -0.00153 -0.16222 0.40994
 C1649 C 0.02244 -0.16084 0.41741
 C1650 C 0.03893 -0.18003 0.41519
 C1651 C 0.03029 -0.20168 0.40511
 C1652 C 0.00562 -0.20364 0.39761
 C1653 C -0.01047 -0.18358 0.39965
 O1654 O -0.01447 -0.14243 0.41520
 C1655 C 0.00167 -0.12834 0.42633
 C1656 C 0.02450 -0.13883 0.42811
 C1657 C 0.04373 -0.12820 0.44057
 C1658 C 0.03920 -0.10597 0.45198
 C1659 C 0.01578 -0.09482 0.45066
 C1660 C -0.00315 -0.10594 0.43722
 H1661 H 0.05760 -0.17859 0.42153
 H1662 H 0.04259 -0.21711 0.40355
 H1663 H -0.02947 -0.18495 0.39433
 H1664 H 0.06142 -0.13701 0.44200
 H1665 H 0.05386 -0.09758 0.46213
 H1666 H -0.02130 -0.09804 0.43634
 C1667 C 0.50423 -0.16814 0.58470
 C1668 C 0.49911 -0.15303 0.60379
 C1669 C 0.49341 -0.16176 0.62693
 C1670 C 0.49328 -0.18712 0.63066
 C1671 C 0.49948 -0.20326 0.61154
 C1672 C 0.50485 -0.19338 0.58813
 O1673 O 0.50839 -0.15617 0.56394
 C1674 C 0.50597 -0.13297 0.57012
 C1675 C 0.50059 -0.13005 0.59438
 C1676 C 0.49784 -0.10728 0.60490
 C1677 C 0.50053 -0.08667 0.58971
 C1678 C 0.50532 -0.08925 0.56448
 C1679 C 0.50809 -0.11275 0.55456
 H1680 H 0.48891 -0.14949 0.64155
 H1681 H 0.48806 -0.19392 0.64844
 H1682 H 0.50986 -0.20481 0.57303
 H1683 H 0.49375 -0.10545 0.62407
 H1684 H 0.49816 -0.06873 0.59739
 H1685 H 0.51180 -0.11515 0.53537
 C1686 C 0.00045 0.33609 1.09147
 C1687 C -0.02059 0.33608 1.07765
 C1688 C -0.03654 0.31654 1.07703
 C1689 C -0.03015 0.29567 1.09056
 C1690 C -0.00801 0.29462 1.10405
 C1691 C 0.00720 0.31535 1.10519
 O1692 O 0.01357 0.35623 1.08819
 C1693 C 0.00060 0.36897 1.07176
 C1694 C -0.02030 0.35718 1.06466
 C1695 C -0.03549 0.36573 1.04612
 C1696 C -0.02914 0.38757 1.03452
 C1697 C -0.00825 0.40087 1.04196
 C1698 C 0.00690 0.39138 1.06095
 H1699 H -0.05287 0.31702 1.06584
 H1700 H -0.04185 0.27985 1.08966
 H1701 H 0.02443 0.31469 1.11495
 H1702 H -0.05143 0.35567 1.04042
 H1703 H -0.04077 0.39421 1.01982
 H1704 H 0.02320 0.40083 1.06670
 C1705 C 0.74979 0.33077 0.08252
 C1706 C 0.76628 0.31208 0.08017
 C1707 C 0.77691 0.30633 0.05811
 C1708 C 0.77072 0.32067 0.03759
 C1709 C 0.75422 0.34086 0.03912
 C1710 C 0.74328 0.34541 0.06226
 O1711 O 0.74178 0.33303 0.10529
 C1712 C 0.75356 0.31532 0.11750
 C1713 C 0.76880 0.30207 0.10286
 C1714 C 0.78300 0.28277 0.11159
 C1715 C 0.78127 0.27659 0.13640
 C1716 C 0.76544 0.28957 0.15217
 C1717 C 0.75150 0.30945 0.14245
 H1718 H 0.78958 0.29120 0.05669
 H1719 H 0.77876 0.31525 0.02064
 H1720 H 0.73085 0.36041 0.06513
 H1721 H 0.79494 0.27270 0.09967
 H1722 H 0.79220 0.26140 0.14319
 H1723 H 0.73917 0.31973 0.15379
 C1724 C 0.25958 0.83377 0.58504
 C1725 C 0.27652 0.81537 0.58301
 C1726 C 0.28696 0.80916 0.56088
 C1727 C 0.27983 0.82262 0.54000
 C1728 C 0.26259 0.84197 0.54153
 C1729 C 0.25236 0.84749 0.56457
 O1730 O 0.25149 0.83642 0.60766
 C1731 C 0.26361 0.81929 0.62021
 C1732 C 0.27924 0.80600 0.60597
 C1733 C 0.29350 0.78698 0.61526
 C1734 C 0.29121 0.78105 0.64011
 C1735 C 0.27474 0.79402 0.65524
 C1736 C 0.26102 0.81373 0.64506
 H1737 H 0.30010 0.79441 0.55970
 H1738 H 0.28771 0.81779 0.52269
 H1739 H 0.23956 0.86237 0.56679
 H1740 H 0.30569 0.77679 0.60370
 H1741 H 0.30196 0.76596 0.64738
 H1742 H 0.24813 0.82389 0.65589
 C1743 C 0.75680 0.68034 0.57606
 C1744 C 0.78083 0.67743 0.58293
 C1745 C 0.79786 0.66562 0.56845
 C1746 C 0.78957 0.65572 0.54642
 C1747 C 0.76460 0.65727 0.53974
 C1748 C 0.74820 0.67048 0.55445
 O1749 O 0.74325 0.69102 0.59282
 C1750 C 0.75898 0.69470 0.61083
 C1751 C 0.78219 0.68653 0.60583
 C1752 C 0.80092 0.68654 0.62307
 C1753 C 0.79547 0.69532 0.64635
 C1754 C 0.77176 0.70419 0.65172
 C1755 C 0.75336 0.70412 0.63360
 H1756 H 0.81667 0.66342 0.57427
 H1757 H 0.80229 0.64575 0.53534
 H1758 H 0.72901 0.67198 0.54982
 H1759 H 0.81889 0.67949 0.61894
 H1760 H 0.80966 0.69530 0.66019
 H1761 H 0.73498 0.71026 0.63744
 C1762 C 0.24110 0.17364 0.08124
 C1763 C 0.26542 0.17402 0.08749
 C1764 C 0.28372 0.16542 0.07236
 C1765 C 0.27664 0.15560 0.04997
 C1766 C 0.25164 0.15427 0.04338
 C1767 C 0.23364 0.16375 0.05914
 O1768 O 0.22664 0.18205 0.09862
 C1769 C 0.24219 0.18766 0.11632
 C1770 C 0.26611 0.18287 0.11040
 C1771 C 0.28533 0.18581 0.12664
 C1772 C 0.27973 0.19405 0.14997
 C1773 C 0.25530 0.19949 0.15652
 C1774 C 0.23622 0.19651 0.13936
 H1775 H 0.30272 0.16576 0.07783
 H1776 H 0.29056 0.14802 0.03832
 H1777 H 0.21442 0.16285 0.05461
 H1778 H 0.30394 0.18157 0.12165
 H1779 H 0.29449 0.19645 0.16292
 H1780 H 0.21742 0.20028 0.14403
 C1781 C 0.24461 0.17339 0.91376
 C1782 C 0.25583 0.19511 0.91886
 C1783 C 0.26141 0.20212 0.94251
 C1784 C 0.25552 0.18590 0.96161
 C1785 C 0.24436 0.16315 0.95679
 C1786 C 0.23864 0.15700 0.93243
 O1787 O 0.24079 0.17019 0.89012
 C1788 C 0.24981 0.19033 0.88005
 C1789 C 0.25934 0.20614 0.89680
 C1790 C 0.26974 0.22830 0.89012
 C1791 C 0.26996 0.23460 0.86519
 C1792 C 0.25975 0.21881 0.84754
 C1793 C 0.24980 0.19619 0.85524
 H1794 H 0.27009 0.21938 0.94612
 H1795 H 0.25971 0.19110 0.98013
 H1796 H 0.23056 0.13966 0.92796
 H1797 H 0.27718 0.24044 0.90362
 H1798 H 0.27757 0.25201 0.85976
 H1799 H 0.24183 0.18367 0.84240
 C1800 C 0.74641 0.67693 0.41345
 C1801 C 0.75990 0.69753 0.41773
 C1802 C 0.76962 0.70274 0.44057
 C1803 C 0.76529 0.68599 0.45970
 C1804 C 0.75138 0.66466 0.45569
 C1805 C 0.74181 0.66018 0.43216
 O1806 O 0.73915 0.67507 0.39045
 C1807 C 0.74818 0.69495 0.37993
 C1808 C 0.76101 0.70936 0.39577
 C1809 C 0.77211 0.73096 0.38839
 C1810 C 0.76990 0.73795 0.36370
 C1811 C 0.75683 0.72330 0.34695
 C1812 C 0.74581 0.70148 0.35539
 H1813 H 0.78022 0.71903 0.44353
 H1814 H 0.77258 0.68976 0.47764
 H1815 H 0.73155 0.64385 0.42832
 H1816 H 0.78216 0.74201 0.40116
 H1817 H 0.77852 0.75469 0.35768
 H1818 H 0.73571 0.68980 0.34324
 C1819 C 0.26645 0.83155 0.41341
 C1820 C 0.26714 0.80724 0.41994
 C1821 C 0.26940 0.79929 0.44412
 C1822 C 0.27004 0.81710 0.46236
 C1823 C 0.26804 0.84219 0.45611
 C1824 C 0.26693 0.84947 0.43122
 O1825 O 0.26308 0.83536 0.38964
 C1826 C 0.26136 0.81297 0.38091
 C1827 C 0.26346 0.79510 0.39872
 C1828 C 0.26027 0.77049 0.39385
 C1829 C 0.25499 0.76404 0.36968
 C1830 C 0.25332 0.78207 0.35086
 C1831 C 0.25668 0.80691 0.35663
 H1832 H 0.26964 0.78006 0.44886
 H1833 H 0.27027 0.81131 0.48131
 H1834 H 0.26479 0.86849 0.42599
 H1835 H 0.26151 0.75676 0.40820
 H1836 H 0.25260 0.74495 0.36554
 H1837 H 0.25519 0.82110 0.34274
 C1838 C 0.74725 0.32883 0.91366
 C1839 C 0.75628 0.30593 0.91886
 C1840 C 0.76474 0.29914 0.94197
 C1841 C 0.76363 0.31656 0.96055
 C1842 C 0.75346 0.34018 0.95607
 C1843 C 0.74531 0.34618 0.93196
 O1844 O 0.74078 0.33192 0.89040
 C1845 C 0.74556 0.31035 0.88071
 C1846 C 0.75478 0.29369 0.89744
 C1847 C 0.76017 0.26969 0.89142
 C1848 C 0.75602 0.26264 0.86721
 C1849 C 0.74722 0.27965 0.84946
 C1850 C 0.74200 0.30391 0.85630
 H1851 H 0.77189 0.28100 0.94563
 H1852 H 0.76955 0.31094 0.97860
 H1853 H 0.73822 0.36409 0.92719
 H1854 H 0.76717 0.25681 0.90492
 H1855 H 0.76013 0.24406 0.86211
 H1856 H 0.73511 0.31720 0.84313
 C1857 C 0.83484 0.41581 0.25488
 C1858 C 0.81038 0.42145 0.25540
 C1859 C 0.80176 0.44536 0.25665
 C1860 C 0.81906 0.46423 0.25668
 C1861 C 0.84431 0.45888 0.25512
 C1862 C 0.85227 0.43426 0.25467
 O1863 O 0.83926 0.39205 0.25314
 C1864 C 0.81709 0.38244 0.25233
 C1865 C 0.79878 0.39966 0.25340
 C1866 C 0.77422 0.39370 0.25144
 C1867 C 0.76831 0.36900 0.24856
 C1868 C 0.78683 0.35078 0.24805
 C1869 C 0.81161 0.35770 0.24999
 H1870 H 0.78241 0.44939 0.25690
 H1871 H 0.81274 0.48295 0.25648
 H1872 H 0.87145 0.42969 0.25313
 H1873 H 0.76011 0.40757 0.25197
 H1874 H 0.74926 0.36401 0.24727
 H1875 H 0.82616 0.34427 0.24943
 C1876 C 0.34070 0.91836 0.76294
 C1877 C 0.31632 0.92430 0.76159
 C1878 C 0.30784 0.94825 0.76287
 C1879 C 0.32524 0.96690 0.76474
 C1880 C 0.35052 0.96136 0.76499
 C1881 C 0.35827 0.93664 0.76463
 O1882 O 0.34499 0.89460 0.76066
 C1883 C 0.32285 0.88533 0.75757
 C1884 C 0.30470 0.90278 0.75772
 C1885 C 0.28034 0.89732 0.75334
 C1886 C 0.27437 0.87286 0.74909
 C1887 C 0.29258 0.85430 0.74961
 C1888 C 0.31724 0.86075 0.75389
 H1889 H 0.28857 0.95250 0.76156
 H1890 H 0.31907 0.98566 0.76420
 H1891 H 0.37748 0.93192 0.76421
 H1892 H 0.26641 0.91140 0.75316
 H1893 H 0.25539 0.86830 0.74610
 H1894 H 0.33159 0.84708 0.75426
 C1895 C 0.17142 0.91355 0.24992
 C1896 C 0.19133 0.91715 0.26477
 C1897 C 0.19612 0.93936 0.27561
 C1898 C 0.17971 0.95865 0.27096
 C1899 C 0.15906 0.95558 0.25550
 C1900 C 0.15497 0.93250 0.24491
 O1901 O 0.16985 0.89090 0.24190
 C1902 C 0.18923 0.87998 0.25187
 C1903 C 0.20301 0.89522 0.26601
 C1904 C 0.22398 0.88743 0.27830
 C1905 C 0.23102 0.86291 0.27594
 C1906 C 0.21702 0.84671 0.26154
 C1907 C 0.19581 0.85556 0.24933
 H1908 H 0.21182 0.94173 0.28739
 H1909 H 0.18332 0.97590 0.27946
 H1910 H 0.13914 0.92907 0.23362
 H1911 H 0.23451 0.89977 0.28938
 H1912 H 0.24725 0.85656 0.28549
 H1913 H 0.18464 0.84382 0.23820
 C1914 C 0.66753 0.40993 0.75326
 C1915 C 0.68796 0.41358 0.76738
 C1916 C 0.69363 0.43618 0.77710
 C1917 C 0.67777 0.45585 0.77175
 C1918 C 0.65682 0.45263 0.75681
 C1919 C 0.65156 0.42911 0.74781
 O1920 O 0.66555 0.38725 0.74542
 C1921 C 0.68521 0.37629 0.75470
 C1922 C 0.69956 0.39155 0.76829
 C1923 C 0.72127 0.38382 0.77925
 C1924 C 0.72843 0.35941 0.77609
 C1925 C 0.71390 0.34325 0.76214
 C1926 C 0.69191 0.35200 0.75137
 H1927 H 0.70986 0.43868 0.78811
 H1928 H 0.68227 0.47362 0.77871
 H1929 H 0.63557 0.42574 0.73672
 H1930 H 0.73236 0.39615 0.78978
 H1931 H 0.74527 0.35317 0.78457
 H1932 H 0.68036 0.34033 0.74056
 C1933 C 0.67238 0.57946 0.75310
 C1934 C 0.69667 0.57305 0.75261
 C1935 C 0.70465 0.54894 0.75500
 C1936 C 0.68680 0.53067 0.75683
 C1937 C 0.66170 0.53690 0.75610
 C1938 C 0.65447 0.56168 0.75500
 O1939 O 0.66843 0.60312 0.74943
 C1940 C 0.69069 0.61191 0.74637
 C1941 C 0.70863 0.59429 0.74794
 C1942 C 0.73312 0.59944 0.74406
 C1943 C 0.73940 0.62382 0.73908
 C1944 C 0.72127 0.64249 0.73817
 C1945 C 0.69650 0.63622 0.74159
 H1946 H 0.72385 0.54428 0.75430
 H1947 H 0.69244 0.51172 0.75688
 H1948 H 0.63538 0.56681 0.75364
 H1949 H 0.74692 0.58525 0.74502
 H1950 H 0.75849 0.62820 0.73676
 H1951 H 0.68217 0.64989 0.74099
 C1952 C 0.17025 0.08012 0.26311
 C1953 C 0.19429 0.07300 0.26132
 C1954 C 0.20141 0.04863 0.26047
 C1955 C 0.18295 0.03097 0.26082
 C1956 C 0.15807 0.03800 0.26192
 C1957 C 0.15170 0.06291 0.26348
 O1958 O 0.16719 0.10412 0.26243
 C1959 C 0.18974 0.11235 0.25998
 C1960 C 0.20702 0.09410 0.25904
 C1961 C 0.23161 0.09875 0.25502
 C1962 C 0.23867 0.12321 0.25213
 C1963 C 0.22119 0.14236 0.25349
 C1964 C 0.19637 0.13671 0.25748
 H1965 H 0.22038 0.04344 0.25862
 H1966 H 0.18793 0.01205 0.25853
 H1967 H 0.13278 0.06872 0.26363
 H1968 H 0.24484 0.08408 0.25395
 H1969 H 0.25775 0.12724 0.24919
 H1970 H 0.18252 0.15084 0.25827
 C1971 C 0.33108 0.08761 0.75208
 C1972 C 0.31225 0.08395 0.76811
 C1973 C 0.30785 0.06143 0.77919
 C1974 C 0.32358 0.04196 0.77368
 C1975 C 0.34327 0.04517 0.75723
 C1976 C 0.34691 0.06852 0.74630
 O1977 O 0.33223 0.11041 0.74361
 C1978 C 0.31368 0.12139 0.75452
 C1979 C 0.30090 0.10602 0.76973
 C1980 C 0.28078 0.11374 0.78293
 C1981 C 0.27336 0.13820 0.78013
 C1982 C 0.28604 0.15450 0.76432
 C1983 C 0.30668 0.14583 0.75150
 H1984 H 0.29289 0.05896 0.79177
 H1985 H 0.32030 0.02445 0.78230
 H1986 H 0.36202 0.07209 0.73420
 H1987 H 0.27102 0.10133 0.79483
 H1988 H 0.25757 0.14432 0.79016
 H1989 H 0.31677 0.15759 0.73921
 C1990 C 0.83251 0.58771 0.24790
 C1991 C 0.81309 0.58398 0.26319
 C1992 C 0.80680 0.56104 0.27214
 C1993 C 0.82133 0.54112 0.26537
 C1994 C 0.84186 0.54433 0.24999
 C1995 C 0.84732 0.56814 0.24101
 O1996 O 0.83511 0.61098 0.24122
 C1997 C 0.81693 0.62216 0.25261
 C1998 C 0.80304 0.60641 0.26637
 C1999 C 0.78307 0.61406 0.27976
 C2000 C 0.77680 0.63888 0.27856
 C2001 C 0.79035 0.65564 0.26402
 C2002 C 0.81100 0.64704 0.25111
 H2003 H 0.79127 0.55854 0.28398
 H2004 H 0.81647 0.52325 0.27223
 H2005 H 0.86301 0.57158 0.22963
 H2006 H 0.77247 0.60130 0.29051
 H2007 H 0.76098 0.64486 0.28863
 H2008 H 0.82168 0.65915 0.23969
 C2009 C 0.91967 0.24840 0.17352
 C2010 C 0.92420 0.26195 0.19392
 C2011 C 0.94734 0.27036 0.19985
 C2012 C 0.96655 0.26468 0.18404
 C2013 C 0.96241 0.25076 0.16277
 C2014 C 0.93846 0.24255 0.15757
 O2015 O 0.89641 0.24223 0.17111
 C2016 C 0.88602 0.25208 0.19045
 C2017 C 0.90220 0.26439 0.20498
 C2018 C 0.89514 0.27610 0.22614
 C2019 C 0.87044 0.27490 0.23269
 C2020 C 0.85333 0.26211 0.21813
 C2021 C 0.86140 0.25065 0.19659
 H2022 H 0.95049 0.28098 0.21604
 H2023 H 0.98460 0.27111 0.18853
 H2024 H 0.93431 0.23243 0.14129
 H2025 H 0.90820 0.28572 0.23727
 H2026 H 0.86476 0.28379 0.24923
 H2027 H 0.84898 0.24071 0.18501
 C2028 C 0.42042 0.74827 0.67368
 C2029 C 0.42650 0.75799 0.69586
 C2030 C 0.45058 0.76188 0.70294
 C2031 C 0.46904 0.75577 0.68637
 C2032 C 0.46319 0.74603 0.66321
 C2033 C 0.43841 0.74215 0.65696
 O2034 O 0.39657 0.74584 0.67043
 C2035 C 0.38734 0.75419 0.69101
 C2036 C 0.40482 0.76196 0.70719
 C2037 C 0.39898 0.77134 0.72988
 C2038 C 0.37418 0.77236 0.73628
 C2039 C 0.35582 0.76395 0.72007
 C2040 C 0.36269 0.75501 0.69697
 H2041 H 0.45499 0.76939 0.72056
 H2042 H 0.48785 0.75859 0.69167
 H2043 H 0.43308 0.73526 0.63933
 H2044 H 0.41302 0.77739 0.74234
 H2045 H 0.36938 0.77916 0.75407
 H2046 H 0.34929 0.74843 0.68408
 C2047 C 0.41019 0.25690 0.83249
 C2048 C 0.41672 0.25411 0.80851
 C2049 C 0.44092 0.25465 0.80091
 C2050 C 0.45911 0.25750 0.81885
 C2051 C 0.45281 0.25941 0.84377
 C2052 C 0.42795 0.25951 0.85057
 O2053 O 0.38629 0.25565 0.83602
 C2054 C 0.37750 0.25178 0.81381
 C2055 C 0.39534 0.25042 0.79634
 C2056 C 0.39014 0.24557 0.77203
 C2057 C 0.36553 0.24251 0.76539
 C2058 C 0.34671 0.24467 0.78293
 C2059 C 0.35293 0.24918 0.80756
 H2060 H 0.44566 0.25235 0.78195
 H2061 H 0.47807 0.25681 0.81352
 H2062 H 0.42269 0.26061 0.86953
 H2063 H 0.40448 0.24432 0.75862
 H2064 H 0.36112 0.23930 0.74644
 H2065 H 0.33905 0.25085 0.82141
 C2066 C 0.91694 0.74750 0.32157
 C2067 C 0.91249 0.77165 0.31621
 C2068 C 0.92840 0.79010 0.32287
 C2069 C 0.94954 0.78343 0.33606
 C2070 C 0.95411 0.75864 0.34290
 C2071 C 0.93756 0.74050 0.33487
 O2072 O 0.89930 0.73280 0.31416
 C2073 C 0.88314 0.74806 0.30413
 C2074 C 0.89026 0.77208 0.30510
 C2075 C 0.87533 0.79126 0.29729
 C2076 C 0.85212 0.78544 0.28827
 C2077 C 0.84452 0.76080 0.28682
 C2078 C 0.86037 0.74180 0.29457
 H2079 H 0.92439 0.80904 0.31859
 H2080 H 0.96123 0.79795 0.34219
 H2081 H 0.94044 0.72130 0.33878
 H2082 H 0.88111 0.81004 0.29863
 H2083 H 0.84001 0.80009 0.28236
 H2084 H 0.85476 0.72291 0.29407
 C2085 C 0.08223 0.75137 0.33557
 C2086 C 0.07872 0.76563 0.31504
 C2087 C 0.05586 0.77389 0.30742
 C2088 C 0.03575 0.76745 0.32175
 C2089 C 0.03879 0.75328 0.34344
 C2090 C 0.06251 0.74502 0.35030
 O2091 O 0.10540 0.74480 0.33907
 C2092 C 0.11675 0.75521 0.32032
 C2093 C 0.10121 0.76830 0.30523
 C2094 C 0.10898 0.78055 0.28443
 C2095 C 0.13374 0.77884 0.27857
 C2096 C 0.15027 0.76481 0.29331
 C2097 C 0.14158 0.75312 0.31477
 H2098 H 0.05356 0.78475 0.29091
 H2099 H 0.01781 0.77339 0.31572
 H2100 H 0.06573 0.73442 0.36681
 H2101 H 0.09637 0.79078 0.27290
 H2102 H 0.13980 0.78803 0.26210
 H2103 H 0.15352 0.74215 0.32635
 C2104 C 0.58051 0.25228 0.83496
 C2105 C 0.57691 0.26548 0.81377
 C2106 C 0.55426 0.27471 0.80667
 C2107 C 0.53444 0.27029 0.82214
 C2108 C 0.53754 0.25696 0.84436
 C2109 C 0.56111 0.24785 0.85074
 O2110 O 0.60348 0.24485 0.83811
 C2111 C 0.61462 0.25361 0.81842
 C2112 C 0.59913 0.26647 0.80308
 C2113 C 0.60676 0.27726 0.78144
 C2114 C 0.63130 0.27445 0.77514
 C2115 C 0.64780 0.26084 0.79030
 C2116 C 0.63923 0.25043 0.81245
 H2117 H 0.55189 0.28490 0.78975
 H2118 H 0.51674 0.27719 0.81657
 H2119 H 0.56455 0.23806 0.86769
 H2120 H 0.59421 0.28735 0.76972
 H2121 H 0.63725 0.28265 0.75813
 H2122 H 0.65117 0.23991 0.82444
 C2123 C 0.58942 0.73511 0.66834
 C2124 C 0.59856 0.75801 0.66375
 C2125 C 0.58473 0.77680 0.65328
 C2126 C 0.56058 0.77162 0.64673
 C2127 C 0.55104 0.74788 0.65028
 C2128 C 0.56558 0.72941 0.66147
 O2129 O 0.60562 0.72005 0.67876
 C2130 C 0.62548 0.73371 0.68055
 C2131 C 0.62213 0.75696 0.67127
 C2132 C 0.64061 0.77411 0.67036
 C2133 C 0.66342 0.76722 0.67985
 C2134 C 0.66725 0.74369 0.69045
 C2135 C 0.64796 0.72662 0.69071
 H2136 H 0.59235 0.79470 0.64998
 H2137 H 0.54967 0.78576 0.63789
 H2138 H 0.55869 0.71111 0.66419
 H2139 H 0.63755 0.79220 0.66274
 H2140 H 0.67786 0.78061 0.67978
 H2141 H 0.65033 0.70858 0.69870
 C2142 C 0.08950 0.24855 0.17005
 C2143 C 0.08387 0.24576 0.19434
 C2144 C 0.06004 0.24702 0.20293
 C2145 C 0.04122 0.25036 0.18564
 C2146 C 0.04662 0.25215 0.16046
 C2147 C 0.07114 0.25184 0.15266
 O2148 O 0.11312 0.24608 0.16552
 C2149 C 0.12264 0.24143 0.18739
 C2150 C 0.10552 0.24080 0.20563
 C2151 C 0.11147 0.23522 0.22975
 C2152 C 0.13613 0.23079 0.23540
 C2153 C 0.15429 0.23220 0.21702
 C2154 C 0.14725 0.23731 0.19260
 H2155 H 0.05602 0.24458 0.22210
 H2156 H 0.02248 0.24982 0.19167
 H2157 H 0.07564 0.25260 0.13346
 H2158 H 0.09766 0.23452 0.24377
 H2159 H 0.14114 0.22714 0.25424
 H2160 H 0.16056 0.23850 0.17813
 C2161 C -0.08366 0.99613 0.83696
 C2162 C -0.06531 0.97920 0.83424
 C2163 C -0.06129 0.96706 0.81267
 C2164 C -0.07692 0.97248 0.79307
 C2165 C -0.09609 0.99002 0.79508
 C2166 C -0.09944 1.00196 0.81763
 O2167 O -0.08446 1.00525 0.85923
 C2168 C -0.06620 0.99381 0.87070
 C2169 C -0.05394 0.97768 0.85619
 C2170 C -0.03427 0.96369 0.86444
 C2171 C -0.02673 0.96663 0.88868
 C2172 C -0.03894 0.98331 0.90407
 C2173 C -0.05910 0.99697 0.89486
 H2174 H -0.04684 0.95365 0.81105
 H2175 H -0.07433 0.96271 0.77625
 H2176 H -0.11399 1.01488 0.82061
 H2177 H -0.02499 0.95106 0.85263
 H2178 H -0.01133 0.95596 0.89534
 H2179 H -0.06883 1.00988 0.90602
 C2180 C 0.41536 0.49484 0.33276
 C2181 C 0.43202 0.47611 0.33119
 C2182 C 0.43497 0.46240 0.31037
 C2183 C 0.42005 0.46817 0.29030
 C2184 C 0.40258 0.48746 0.29116
 C2185 C 0.40029 0.50097 0.31295
 O2186 O 0.41565 0.50559 0.35432
 C2187 C 0.43289 0.49334 0.36655
 C2188 C 0.44342 0.47512 0.35316
 C2189 C 0.46198 0.46015 0.36217
 C2190 C 0.47025 0.46425 0.38595
 C2191 C 0.45992 0.48309 0.40023
 C2192 C 0.44076 0.49770 0.39035
 H2193 H 0.44822 0.44772 0.30962
 H2194 H 0.42198 0.45750 0.27395
 H2195 H 0.38727 0.51561 0.31491
 H2196 H 0.46994 0.44593 0.35123
 H2197 H 0.48482 0.45276 0.39314
 H2198 H 0.43253 0.51227 0.40064
 C2199 C 0.58238 -0.00414 0.33729
 C2200 C 0.56233 0.01068 0.33375
 C2201 C 0.55753 0.02305 0.31203
 C2202 C 0.57402 0.01989 0.29301
 C2203 C 0.59463 0.00410 0.29563
 C2204 C 0.59898 -0.00784 0.31843
 O2205 O 0.58385 -0.01340 0.35980
 C2206 C 0.56422 -0.00424 0.37055
 C2207 C 0.55046 0.01051 0.35528
 C2208 C 0.52927 0.02219 0.36257
 C2209 C 0.52187 0.01855 0.38669
 C2210 C 0.53576 0.00358 0.40307
 C2211 C 0.55731 -0.00799 0.39479
 H2212 H 0.54184 0.03499 0.30990
 H2213 H 0.57078 0.02989 0.27611
 H2214 H 0.61488 -0.01914 0.32177
 H2215 H 0.51885 0.03379 0.35016
 H2216 H 0.50549 0.02778 0.39266
 H2217 H 0.56836 -0.01944 0.40679
 C2218 C 0.07892 0.50303 0.83046
 C2219 C 0.05872 0.51757 0.82665
 C2220 C 0.05357 0.52897 0.80444
 C2221 C 0.06989 0.52514 0.78530
 C2222 C 0.09068 0.50968 0.78840
 C2223 C 0.09537 0.49888 0.81167
 O2224 O 0.08071 0.49438 0.85315
 C2225 C 0.06114 0.50363 0.86384
 C2226 C 0.04712 0.51796 0.84839
 C2227 C 0.02587 0.52954 0.85574
 C2228 C 0.01864 0.52604 0.87999
 C2229 C 0.03268 0.51121 0.89638
 C2230 C 0.05438 0.49997 0.88809
 H2231 H 0.03775 0.54069 0.80202
 H2232 H 0.06647 0.53450 0.76809
 H2233 H 0.11155 0.48812 0.81548
 H2234 H 0.01520 0.54081 0.84324
 H2235 H 0.00208 0.53497 0.88593
 H2236 H 0.06554 0.48857 0.90003
 C2237 C 0.07327 0.49774 0.66675
 C2238 C 0.08671 0.48076 0.65434
 C2239 C 0.10909 0.47187 0.66282
 C2240 C 0.11773 0.48048 0.68525
 C2241 C 0.10394 0.49758 0.69869
 C2242 C 0.08145 0.50644 0.68912
 O2243 O 0.05297 0.50454 0.65510
 C2244 C 0.05353 0.49149 0.63491
 C2245 C 0.07375 0.47652 0.63364
 C2246 C 0.07850 0.46195 0.61366
 C2247 C 0.06215 0.46340 0.59391
 C2248 C 0.04154 0.47911 0.59456
 C2249 C 0.03695 0.49311 0.61546
 H2250 H 0.11945 0.45866 0.65260
 H2251 H 0.13477 0.47323 0.69245
 H2252 H 0.07062 0.51965 0.69886
 H2253 H 0.09467 0.45057 0.61293
 H2254 H 0.06611 0.45323 0.57759
 H2255 H 0.02186 0.50593 0.61592
 C2256 C 0.58909 0.99631 0.16544
 C2257 C 0.57654 0.97461 0.16624
 C2258 C 0.57701 0.95900 0.18640
 C2259 C 0.59031 0.96641 0.20686
 C2260 C 0.60261 0.98913 0.20685
 C2261 C 0.60260 1.00398 0.18562
 O2262 O 0.58513 1.00899 0.14499
 C2263 C 0.56967 0.99509 0.13275
 C2264 C 0.56373 0.97392 0.14500
 C2265 C 0.54663 0.95750 0.13621
 C2266 C 0.53534 0.96305 0.11373
 C2267 C 0.54144 0.98459 0.10054
 C2268 C 0.55893 1.00078 0.11027
 H2269 H 0.56687 0.94212 0.18667
 H2270 H 0.59027 0.95494 0.22312
 H2271 H 0.61143 1.02160 0.18540
 H2272 H 0.54198 0.94115 0.14640
 H2273 H 0.52209 0.95044 0.10648
 H2274 H 0.56373 1.01755 0.10083
 C2275 C 0.41285 0.49820 0.16029
 C2276 C 0.42878 0.51742 0.16170
 C2277 C 0.43096 0.53201 0.18204
 C2278 C 0.41659 0.52619 0.20221
 C2279 C 0.40059 0.50598 0.20178
 C2280 C 0.39815 0.49211 0.18029
 O2281 O 0.41468 0.48618 0.13941
 C2282 C 0.43228 0.49803 0.12759
 C2283 C 0.44147 0.51715 0.14068
 C2284 C 0.46088 0.53121 0.13292
 C2285 C 0.47129 0.52557 0.11056
 C2286 C 0.46205 0.50634 0.09605
 C2287 C 0.44210 0.49234 0.10473
 H2288 H 0.44376 0.54695 0.18261
 H2289 H 0.41845 0.53697 0.21851
 H2290 H 0.38634 0.47637 0.17973
 H2291 H 0.46798 0.54589 0.14384
 H2292 H 0.48644 0.53662 0.10446
 H2293 H 0.43475 0.47746 0.09427
 C2294 C -0.08693 -0.00375 0.66581
 C2295 C -0.07244 0.01666 0.66616
 C2296 C -0.07254 0.03314 0.68513
 C2297 C -0.08750 0.02789 0.70507
 C2298 C -0.10176 0.00639 0.70576
 C2299 C -0.10210 -0.00931 0.68554
 O2300 O -0.08316 -0.01745 0.64635
 C2301 C -0.06580 -0.00548 0.63438
 C2302 C -0.05853 0.01537 0.64593
 C2303 C -0.03965 0.02996 0.63755
 C2304 C -0.02802 0.02306 0.61606
 C2305 C -0.03554 0.00202 0.60327
 C2306 C -0.05474 -0.01250 0.61265
 H2307 H -0.06088 0.04900 0.68498
 H2308 H -0.08713 0.03995 0.72054
 H2309 H -0.11242 -0.02610 0.68595
 H2310 H -0.03406 0.04609 0.64721
 H2311 H -0.01363 0.03458 0.60901
 H2312 H -0.06083 -0.02867 0.60334
 C2313 C -0.16763 0.91769 0.99344
 C2314 C -0.16958 0.93498 0.97513
 C2315 C -0.19053 0.93822 0.96113
 C2316 C -0.21033 0.92302 0.96623
 C2317 C -0.20908 0.90498 0.98516
 C2318 C -0.18714 0.90233 0.99890
 O2319 O -0.14603 0.91770 1.00456
 C2320 C -0.13416 0.93542 0.99300
 C2321 C -0.14780 0.94655 0.97484
 C2322 C -0.13910 0.96569 0.96056
 C2323 C -0.11536 0.97380 0.96526
 C2324 C -0.10082 0.96272 0.98396
 C2325 C -0.11044 0.94311 0.99794
 H2326 H -0.19160 0.95195 0.94677
 H2327 H -0.22681 0.92525 0.95540
 H2328 H -0.18487 0.88891 1.01330
 H2329 H -0.15022 0.97414 0.94638
 H2330 H -0.10836 0.98872 0.95426
 H2331 H -0.09995 0.93428 1.01239
 C2332 C 0.33509 0.41972 0.49585
 C2333 C 0.33216 0.43807 0.47872
 C2334 C 0.31041 0.44242 0.46636
 C2335 C 0.29082 0.42714 0.47182
 C2336 C 0.29310 0.40799 0.48953
 C2337 C 0.31579 0.40427 0.50166
 O2338 O 0.35747 0.41868 0.50525
 C2339 C 0.36881 0.43680 0.49377
 C2340 C 0.35408 0.44916 0.47735
 C2341 C 0.36207 0.46874 0.46329
 C2342 C 0.38627 0.47608 0.46645
 C2343 C 0.40193 0.46382 0.48345
 C2344 C 0.39301 0.44372 0.49718
 H2345 H 0.30864 0.45691 0.45284
 H2346 H 0.27380 0.43001 0.46203
 H2347 H 0.31883 0.38971 0.51479
 H2348 H 0.35008 0.47810 0.45044
 H2349 H 0.39271 0.49141 0.45565
 H2350 H 0.40439 0.43399 0.51033
 C2351 C 0.33570 0.57917 -0.00002
 C2352 C 0.33295 0.55924 0.01519
 C2353 C 0.31107 0.55357 0.02641
 C2354 C 0.29113 0.56904 0.02173
 C2355 C 0.29308 0.58956 0.00565
 C2356 C 0.31602 0.59477 -0.00510
 O2357 O 0.35831 0.58155 -0.00831
 C2358 C 0.36999 0.56265 0.00187
 C2359 C 0.35525 0.54846 0.01637
 C2360 C 0.36361 0.52781 0.02884
 C2361 C 0.38821 0.52138 0.02614
 C2362 C 0.40396 0.53565 0.01125
 C2363 C 0.39462 0.55671 -0.00098
 H2364 H 0.30948 0.53798 0.03862
 H2365 H 0.27410 0.56516 0.03086
 H2366 H 0.31893 0.61067 -0.01653
 H2367 H 0.35162 0.51698 0.04020
 H2368 H 0.39495 0.50531 0.03578
 H2369 H 0.40605 0.56798 -0.01251
 C2370 C -0.16162 0.07710 0.50303
 C2371 C -0.16478 0.05908 0.52038
 C2372 C -0.18682 0.05481 0.53172
 C2373 C -0.20652 0.06975 0.52504
 C2374 C -0.20442 0.08859 0.50679
 C2375 C -0.18115 0.09228 0.49583
 O2376 O -0.13878 0.07817 0.49497
 C2377 C -0.12750 0.06040 0.50753
 C2378 C -0.14269 0.04824 0.52331
 C2379 C -0.13493 0.02898 0.53823
 C2380 C -0.11049 0.02165 0.53662
 C2381 C -0.09428 0.03365 0.52035
 C2382 C -0.10296 0.05353 0.50575
 H2383 H -0.18872 0.04068 0.54557
 H2384 H -0.22357 0.06689 0.53452
 H2385 H -0.17779 0.10673 0.48272
 H2386 H -0.14733 0.01977 0.55053
 H2387 H -0.10426 0.00652 0.54800
 H2388 H -0.09117 0.06298 0.49303
 C2389 C 0.66443 0.08801 0.48879
 C2390 C 0.66679 0.06959 0.47222
 C2391 C 0.68903 0.06247 0.46274
 C2392 C 0.70989 0.07444 0.47095
 C2393 C 0.70843 0.09365 0.48814
 C2394 C 0.68505 0.10105 0.49656
 O2395 O 0.64174 0.09005 0.49720
 C2396 C 0.62970 0.07256 0.48559
 C2397 C 0.64428 0.05977 0.46993
 C2398 C 0.63613 0.03984 0.45691
 C2399 C 0.61204 0.03234 0.46048
 C2400 C 0.59655 0.04455 0.47709
 C2401 C 0.60545 0.06538 0.48944
 H2402 H 0.69038 0.04768 0.44995
 H2403 H 0.72719 0.06888 0.46335
 H2404 H 0.68313 0.11510 0.51008
 H2405 H 0.64812 0.02996 0.44489
 H2406 H 0.60571 0.01650 0.45075
 H2407 H 0.59433 0.07485 0.50257
 C2408 C 0.16089 0.58614 0.99296
 C2409 C 0.16162 0.57329 0.97159
 C2410 C 0.18243 0.57161 0.95737
 C2411 C 0.20350 0.58329 0.96568
 C2412 C 0.20347 0.59631 0.98785
 C2413 C 0.18171 0.59820 1.00146
 O2414 O 0.13961 0.58418 1.00434
 C2415 C 0.12673 0.56975 0.98986
 C2416 C 0.13943 0.56261 0.96961
 C2417 C 0.13008 0.54641 0.95272
 C2418 C 0.10674 0.53697 0.95694
 C2419 C 0.09317 0.54384 0.97775
 C2420 C 0.10327 0.56079 0.99428
 H2421 H 0.18260 0.56119 0.94076
 H2422 H 0.22005 0.58184 0.95509
 H2423 H 0.18135 0.60768 1.01864
 H2424 H 0.14058 0.54086 0.93708
 H2425 H 0.09933 0.52413 0.94407
 H2426 H 0.09358 0.56608 1.01053
 C2427 C 0.16216 0.41354 0.50195
 C2428 C 0.16290 0.42766 0.52249
 C2429 C 0.18354 0.42971 0.53710
 C2430 C 0.20452 0.41713 0.52993
 C2431 C 0.20443 0.40290 0.50854
 C2432 C 0.18280 0.40056 0.49464
 O2433 O 0.14108 0.41533 0.48994
 C2434 C 0.12836 0.43098 0.50315
 C2435 C 0.14095 0.43903 0.52323
 C2436 C 0.13175 0.45642 0.53890
 C2437 C 0.10854 0.46598 0.53369
 C2438 C 0.09503 0.45805 0.51309
 C2439 C 0.10508 0.44009 0.49772
 H2440 H 0.18370 0.44113 0.55303
 H2441 H 0.22104 0.41888 0.54070
 H2442 H 0.18250 0.39014 0.47802
 H2443 H 0.14216 0.46261 0.55444
 H2444 H 0.10107 0.47948 0.54583
 H2445 H 0.09534 0.43382 0.48178
 C2446 C 0.66007 0.91500 -0.00023
 C2447 C 0.66168 0.92833 0.02078
 C2448 C 0.68275 0.92945 0.03491
 C2449 C 0.70323 0.91664 0.02684
 C2450 C 0.70225 0.90305 0.00506
 C2451 C 0.68024 0.90176 -0.00844
 O2452 O 0.63865 0.91762 -0.01155
 C2453 C 0.62660 0.93300 0.00262
 C2454 C 0.63998 0.94001 0.02260
 C2455 C 0.63162 0.95684 0.03927
 C2456 C 0.60849 0.96704 0.03518
 C2457 C 0.59416 0.96035 0.01466
 C2458 C 0.60330 0.94280 -0.00174
 H2459 H 0.68357 0.94029 0.05123
 H2460 H 0.72002 0.91758 0.03730
 H2461 H 0.67925 0.89178 -0.02531
 H2462 H 0.64265 0.96219 0.05472
 H2463 H 0.60180 0.98021 0.04810
 H2464 H 0.59294 0.93748 -0.01765
 C2465 C 0.00329 0.83440 0.92500
 C2466 C -0.01029 0.82908 0.94537
 C2467 C -0.01826 0.80572 0.95098
 C2468 C -0.01224 0.78716 0.93477
 C2469 C 0.00197 0.79201 0.91359
 C2470 C 0.00965 0.81621 0.90870
 O2471 O 0.00829 0.85793 0.92255
 C2472 C -0.00238 0.86762 0.94179
 C2473 C -0.01406 0.85080 0.95632
 C2474 C -0.02676 0.85715 0.97719
 C2475 C -0.02701 0.88186 0.98358
 C2476 C -0.01470 0.89954 0.96909
 C2477 C -0.00245 0.89218 0.94772
 H2478 H -0.02934 0.80205 0.96687
 H2479 H -0.01948 0.76914 0.93830
 H2480 H 0.01922 0.82117 0.89220
 H2481 H -0.03595 0.84357 0.98825
 H2482 H -0.03644 0.88708 1.00001
 H2483 H 0.00712 0.90507 0.93616
 C2484 C 0.50574 0.33257 0.42550
 C2485 C 0.49238 0.32822 0.44622
 C2486 C 0.48424 0.30517 0.45287
 C2487 C 0.48968 0.28587 0.43728
 C2488 C 0.50354 0.28972 0.41568
 C2489 C 0.51155 0.31365 0.40986
 O2490 O 0.51066 0.35600 0.42184
 C2491 C 0.50014 0.36665 0.44066
 C2492 C 0.48863 0.35048 0.45607
 C2493 C 0.47584 0.35783 0.47651
 C2494 C 0.47534 0.38284 0.48157
 C2495 C 0.48752 0.39991 0.46621
 C2496 C 0.49986 0.39155 0.44528
 H2497 H 0.47324 0.30230 0.46897
 H2498 H 0.48187 0.26827 0.44153
 H2499 H 0.52074 0.31783 0.39292
 H2500 H 0.46670 0.34478 0.48824
 H2501 H 0.46581 0.38878 0.49769
 H2502 H 0.50933 0.40396 0.43310
 C2503 C -0.01048 0.32912 0.57403
 C2504 C 0.00333 0.32484 0.55370
 C2505 C 0.01270 0.30201 0.54832
 C2506 C 0.00790 0.28285 0.56474
 C2507 C -0.00663 0.28654 0.58585
 C2508 C -0.01576 0.31028 0.59047
 O2509 O -0.01633 0.35246 0.57656
 C2510 C -0.00594 0.36308 0.55740
 C2511 C 0.00634 0.34699 0.54286
 C2512 C 0.01928 0.35434 0.52234
 C2513 C 0.01930 0.37930 0.51639
 C2514 C 0.00658 0.39634 0.53099
 C2515 C -0.00615 0.38795 0.55188
 H2516 H 0.02414 0.29924 0.53257
 H2517 H 0.01660 0.26547 0.56146
 H2518 H -0.02549 0.31438 0.60703
 H2519 H 0.02902 0.34132 0.51133
 H2520 H 0.02914 0.38527 0.50034
 H2521 H -0.01598 0.40035 0.56352
 C2522 C 0.48915 0.83653 0.07784
 C2523 C 0.50166 0.83241 0.05664
 C2524 C 0.51038 0.80958 0.05033
 C2525 C 0.50613 0.79018 0.06659
 C2526 C 0.49280 0.79363 0.08851
 C2527 C 0.48447 0.81742 0.09422
 O2528 O 0.48359 0.85989 0.08091
 C2529 C 0.49282 0.87066 0.06120
 C2530 C 0.50407 0.85462 0.04581
 C2531 C 0.51559 0.86199 0.02447
 C2532 C 0.51536 0.88697 0.01864
 C2533 C 0.50380 0.90402 0.03414
 C2534 C 0.49238 0.89559 0.05579
 H2535 H 0.52074 0.80693 0.03383
 H2536 H 0.51400 0.77261 0.06239
 H2537 H 0.47557 0.82126 0.11129
 H2538 H 0.52449 0.84900 0.01276
 H2539 H 0.52422 0.89293 0.00202
 H2540 H 0.48349 0.90801 0.06812
 C2541 C 0.48965 0.66980 0.07666
 C2542 C 0.47830 0.65451 0.09305
 C2543 C 0.47001 0.66223 0.11557
 C2544 C 0.47364 0.68674 0.12149
 C2545 C 0.48564 0.70288 0.10509
 C2546 C 0.49362 0.69420 0.08225
 O2547 O 0.49654 0.65867 0.05646
 C2548 C 0.48943 0.63582 0.06023
 C2549 C 0.47824 0.63234 0.08241
 C2550 C 0.47034 0.60965 0.09065
 C2551 C 0.47441 0.58968 0.07552
 C2552 C 0.48593 0.59280 0.05263
 C2553 C 0.49325 0.61623 0.04467
 H2554 H 0.46106 0.64983 0.12813
 H2555 H 0.46678 0.69308 0.13875
 H2556 H 0.50309 0.70589 0.06941
 H2557 H 0.46179 0.60733 0.10826
 H2558 H 0.46870 0.57175 0.08159
 H2559 H 0.50244 0.61890 0.02742
 C2560 C -0.01030 0.16188 0.58298
 C2561 C 0.00208 0.14751 0.59965
 C2562 C 0.01206 0.15637 0.62107
 C2563 C 0.00923 0.18126 0.62558
 C2564 C -0.00372 0.19669 0.60894
 C2565 C -0.01373 0.18669 0.58730
 O2566 O -0.01735 0.14980 0.56328
 C2567 C -0.00917 0.12727 0.56770
 C2568 C 0.00271 0.12509 0.58982
 C2569 C 0.01318 0.10358 0.59826
 C2570 C 0.01161 0.08336 0.58326
 C2571 C -0.00014 0.08482 0.55997
 C2572 C -0.01094 0.10720 0.55220
 H2573 H 0.02216 0.14464 0.63362
 H2574 H 0.01783 0.18847 0.64172
 H2575 H -0.02379 0.19778 0.57418
 H2576 H 0.02241 0.10242 0.61576
 H2577 H 0.01988 0.06655 0.58995
 H2578 H -0.01998 0.10903 0.53465
 C2579 C 0.50903 0.16454 0.41894
 C2580 C 0.49599 0.15058 0.40291
 C2581 C 0.48505 0.16012 0.38191
 C2582 C 0.48761 0.18516 0.37721
 C2583 C 0.50113 0.20006 0.39331
 C2584 C 0.51207 0.18944 0.41448
 O2585 O 0.51715 0.15199 0.43829
 C2586 C 0.50900 0.12962 0.43436
 C2587 C 0.49604 0.12785 0.41290
 C2588 C 0.48543 0.10636 0.40529
 C2589 C 0.48806 0.08581 0.42052
 C2590 C 0.50102 0.08704 0.44306
 C2591 C 0.51185 0.10935 0.44991
 H2592 H 0.47452 0.14878 0.36981
 H2593 H 0.47843 0.19292 0.36137
 H2594 H 0.52261 0.20014 0.42714
 H2595 H 0.47528 0.10548 0.38833
 H2596 H 0.47970 0.06899 0.41473
 H2597 H 0.52176 0.11101 0.46694
 C2598 C 0.00870 0.66817 0.92329
 C2599 C 0.01888 0.65318 0.90621
 C2600 C 0.02659 0.66160 0.88353
 C2601 C 0.02355 0.68652 0.87814
 C2602 C 0.01257 0.70238 0.89519
 C2603 C 0.00520 0.69294 0.91820
 O2604 O 0.00228 0.65642 0.94359
 C2605 C 0.00845 0.63347 0.93917
 C2606 C 0.01855 0.63053 0.91646
 C2607 C 0.02516 0.60791 0.90745
 C2608 C 0.02100 0.58743 0.92238
 C2609 C 0.01080 0.58999 0.94591
 C2610 C 0.00470 0.61334 0.95461
 H2611 H 0.03467 0.64942 0.87045
 H2612 H 0.03000 0.69334 0.86075
 H2613 H -0.00358 0.70432 0.93155
 H2614 H 0.03277 0.60603 0.88940
 H2615 H 0.02566 0.56953 0.91565
 H2616 H -0.00349 0.61562 0.97235
 C2617 C 0.24857 0.66891 0.91722
 C2618 C 0.23495 0.68948 0.92168
 C2619 C 0.22612 0.69488 0.94473
 C2620 C 0.23148 0.67837 0.96392
 C2621 C 0.24544 0.65695 0.95978
 C2622 C 0.25404 0.65226 0.93595
 O2623 O 0.25546 0.66723 0.89413
 C2624 C 0.24601 0.68719 0.88376
 C2625 C 0.23324 0.70141 0.89978
 C2626 C 0.22202 0.72323 0.89274
 C2627 C 0.22427 0.73081 0.86827
 C2628 C 0.23761 0.71662 0.85135
 C2629 C 0.24847 0.69435 0.85936
 H2630 H 0.21556 0.71127 0.94787
 H2631 H 0.22501 0.68248 0.98201
 H2632 H 0.26435 0.63594 0.93191
 H2633 H 0.21207 0.73415 0.90566
 H2634 H 0.21582 0.74790 0.86265
 H2635 H 0.25887 0.68305 0.84711
 C2636 C 0.75210 0.16499 0.41733
 C2637 C 0.73393 0.18208 0.41976
 C2638 C 0.72175 0.18558 0.44156
 C2639 C 0.72823 0.17062 0.46163
 C2640 C 0.74667 0.15224 0.45984
 C2641 C 0.75898 0.14993 0.43710
 O2642 O 0.76140 0.16461 0.39497
 C2643 C 0.74881 0.18191 0.38305
 C2644 C 0.73179 0.19314 0.39744
 C2645 C 0.71670 0.21185 0.38878
 C2646 C 0.71944 0.21953 0.36441
 C2647 C 0.73703 0.20850 0.34904
 C2648 C 0.75178 0.18917 0.35861
 H2649 H 0.70774 0.19945 0.44314
 H2650 H 0.71915 0.17421 0.47863
 H2651 H 0.77278 0.13616 0.43415
 H2652 H 0.70339 0.22040 0.40045
 H2653 H 0.70790 0.23425 0.35761
 H2654 H 0.76551 0.18042 0.34758
 C2655 C 0.24205 0.33508 0.40985
 C2656 C 0.24358 0.31085 0.41655
 C2657 C 0.24258 0.30280 0.44070
 C2658 C 0.24083 0.32053 0.45879
 C2659 C 0.24037 0.34564 0.45241
 C2660 C 0.24039 0.35298 0.42756
 O2661 O 0.24454 0.33891 0.38601
 C2662 C 0.24797 0.31661 0.37751
 C2663 C 0.24780 0.29887 0.39553
 C2664 C 0.25278 0.27451 0.39109
 C2665 C 0.25767 0.26805 0.36700
 C2666 C 0.25723 0.28581 0.34785
 C2667 C 0.25230 0.31051 0.35324
 H2668 H 0.24417 0.28363 0.44550
 H2669 H 0.24178 0.31479 0.47770
 H2670 H 0.24075 0.37210 0.42230
 H2671 H 0.25298 0.26097 0.40565
 H2672 H 0.26112 0.24901 0.36321
 H2673 H 0.25198 0.32447 0.33906
 C2674 C 0.73494 0.83226 0.90712
 C2675 C 0.73130 0.80838 0.91415
 C2676 C 0.72851 0.80118 0.93839
 C2677 C 0.73020 0.81925 0.95617
 C2678 C 0.73477 0.84383 0.94946
 C2679 C 0.73664 0.85046 0.92450
 O2680 O 0.73866 0.83505 0.88336
 C2681 C 0.73756 0.81241 0.87522
 C2682 C 0.73325 0.79540 0.89337
 C2683 C 0.73333 0.77045 0.88926
 C2684 C 0.73795 0.76273 0.86546
 C2685 C 0.74216 0.77992 0.84635
 C2686 C 0.74174 0.80516 0.85132
 H2687 H 0.72613 0.78220 0.94350
 H2688 H 0.72963 0.81378 0.97511
 H2689 H 0.74064 0.86903 0.91890
 H2690 H 0.73036 0.75740 0.90392
 H2691 H 0.73812 0.74335 0.86189
 H2692 H 0.74531 0.81865 0.83719
 C2693 C 0.74860 0.82672 0.07501
 C2694 C 0.73233 0.80808 0.07162
 C2695 C 0.72041 0.80446 0.04956
 C2696 C 0.72552 0.82066 0.03021
 C2697 C 0.74256 0.83989 0.03301
 C2698 C 0.75411 0.84289 0.05600
 O2699 O 0.75752 0.82740 0.09753
 C2700 C 0.74669 0.80873 0.10858
 C2701 C 0.73113 0.79624 0.09354
 C2702 C 0.71791 0.77609 0.10149
 C2703 C 0.72085 0.76852 0.12594
 C2704 C 0.73668 0.78123 0.14190
 C2705 C 0.74976 0.80165 0.13291
 H2706 H 0.70746 0.78981 0.04736
 H2707 H 0.71606 0.81799 0.01318
 H2708 H 0.76658 0.85771 0.05935
 H2709 H 0.70574 0.76655 0.08933
 H2710 H 0.71061 0.75292 0.13244
 H2711 H 0.76205 0.81178 0.14446
 C2712 C 0.24954 0.32931 0.57849
 C2713 C 0.23393 0.31020 0.57463
 C2714 C 0.22389 0.30539 0.55188
 C2715 C 0.23004 0.32101 0.53239
 C2716 C 0.24611 0.34095 0.53582
 C2717 C 0.25599 0.34499 0.55938
 O2718 O 0.25679 0.33098 0.60153
 C2719 C 0.24553 0.31249 0.61245
 C2720 C 0.23131 0.29919 0.59683
 C2721 C 0.21785 0.27912 0.60454
 C2722 C 0.21927 0.27237 0.62933
 C2723 C 0.23394 0.28573 0.64586
 C2724 C 0.24716 0.30619 0.63713
 H2725 H 0.21157 0.29028 0.54927
 H2726 H 0.22212 0.31748 0.51472
 H2727 H 0.26772 0.36032 0.56304
 H2728 H 0.20673 0.26895 0.59192
 H2729 H 0.20901 0.25669 0.63556
 H2730 H 0.25858 0.31682 0.64909
 C2731 C 0.75271 0.16954 0.57982
 C2732 C 0.72862 0.17474 0.58397
 C2733 C 0.71017 0.16835 0.56769
 C2734 C 0.71677 0.15559 0.54655
 C2735 C 0.74149 0.14885 0.54229
 C2736 C 0.75963 0.15680 0.55916
 O2737 O 0.76749 0.17660 0.59768
 C2738 C 0.75237 0.18631 0.61372
 C2739 C 0.72833 0.18549 0.60625
 C2740 C 0.70927 0.19316 0.62092
 C2741 C 0.71519 0.20176 0.64421
 C2742 C 0.73981 0.20292 0.65233
 C2743 C 0.75874 0.19539 0.63670
 H2744 H 0.69125 0.17256 0.57139
 H2745 H 0.70227 0.14984 0.53453
 H2746 H 0.77887 0.15338 0.55654
 H2747 H 0.69047 0.19201 0.61490
 H2748 H 0.70054 0.20740 0.65609
 H2749 H 0.77762 0.19560 0.64262
 C2750 C 0.25071 0.67338 0.08131
 C2751 C 0.22655 0.67488 0.08761
 C2752 C 0.20789 0.66541 0.07327
 C2753 C 0.21445 0.65344 0.05175
 C2754 C 0.23931 0.65093 0.04522
 C2755 C 0.25760 0.66160 0.06004
 O2756 O 0.26569 0.68250 0.09801
 C2757 C 0.25065 0.68978 0.11540
 C2758 C 0.22652 0.68542 0.10990
 C2759 C 0.20776 0.68996 0.12612
 C2760 C 0.21410 0.69916 0.14898
 C2761 C 0.23881 0.70388 0.15522
 C2762 C 0.25738 0.69949 0.13799
 H2763 H 0.18900 0.66660 0.07878
 H2764 H 0.20028 0.64519 0.04086
 H2765 H 0.27676 0.66014 0.05556
 H2766 H 0.18896 0.68603 0.12156
 H2767 H 0.19970 0.70252 0.16196
 H2768 H 0.27639 0.70251 0.14242
 C2769 C 0.16968 0.59173 0.74584
 C2770 C 0.19399 0.58535 0.74630
 C2771 C 0.20194 0.56123 0.74477
 C2772 C 0.18411 0.54295 0.74331
 C2773 C 0.15896 0.54904 0.74375
 C2774 C 0.15171 0.57384 0.74467
 O2775 O 0.16590 0.61557 0.74783
 C2776 C 0.18830 0.62446 0.74979
 C2777 C 0.20614 0.60672 0.74922
 C2778 C 0.23078 0.61193 0.75215
 C2779 C 0.23731 0.63642 0.75548
 C2780 C 0.21931 0.65517 0.75547
 C2781 C 0.19441 0.64899 0.75259
 H2782 H 0.22117 0.55662 0.74527
 H2783 H 0.18986 0.52405 0.74317
 H2784 H 0.13262 0.57897 0.74532
 H2785 H 0.24450 0.59766 0.75194
 H2786 H 0.25644 0.64083 0.75747
 H2787 H 0.18023 0.66282 0.75269
 C2788 C 0.66930 0.08615 0.25320
 C2789 C 0.69195 0.08142 0.24378
 C2790 C 0.69804 0.05896 0.23388
 C2791 C 0.68034 0.04042 0.23443
 C2792 C 0.65732 0.04424 0.24567
 C2793 C 0.65176 0.06790 0.25455
 O2794 O 0.66674 0.10883 0.26101
 C2795 C 0.68841 0.11863 0.25676
 C2796 C 0.70466 0.10252 0.24658
 C2797 C 0.72869 0.10879 0.24153
 C2798 C 0.73609 0.13268 0.24678
 C2799 C 0.71935 0.14986 0.25633
 C2800 C 0.69517 0.14267 0.26144
 H2801 H 0.71590 0.05572 0.22622
 H2802 H 0.68540 0.02281 0.22750
 H2803 H 0.63418 0.07223 0.26230
 H2804 H 0.74127 0.09580 0.23375
 H2805 H 0.75456 0.13813 0.24250
 H2806 H 0.68202 0.15547 0.26863
 C2807 C 0.82097 0.07390 0.75243
 C2808 C 0.80337 0.07057 0.73489
 C2809 C 0.80094 0.04877 0.72255
 C2810 C 0.81745 0.02977 0.72831
 C2811 C 0.83611 0.03261 0.74634
 C2812 C 0.83736 0.05524 0.75870
 O2813 O 0.82075 0.09619 0.76156
 C2814 C 0.80255 0.10715 0.74957
 C2815 C 0.79119 0.09230 0.73308
 C2816 C 0.77175 0.10033 0.71851
 C2817 C 0.76374 0.12461 0.72107
 C2818 C 0.77533 0.14038 0.73784
 C2819 C 0.79505 0.13130 0.75228
 H2820 H 0.78688 0.04646 0.70884
 H2821 H 0.81495 0.01278 0.71894
 H2822 H 0.85142 0.05907 0.77198
 H2823 H 0.76309 0.08835 0.70559
 H2824 H 0.74869 0.13115 0.70982
 H2825 H 0.80433 0.14266 0.76534
 C2826 C 0.32469 0.57763 0.24773
 C2827 C 0.30475 0.57382 0.23297
 C2828 C 0.30023 0.55150 0.22214
 C2829 C 0.31688 0.53236 0.22681
 C2830 C 0.33746 0.53572 0.24226
 C2831 C 0.34136 0.55890 0.25268
 O2832 O 0.32586 0.60015 0.25614
 C2833 C 0.30618 0.61082 0.24654
 C2834 C 0.29258 0.59555 0.23224
 C2835 C 0.27113 0.60312 0.22062
 C2836 C 0.26341 0.62735 0.22394
 C2837 C 0.27720 0.64349 0.23859
 C2838 C 0.29896 0.63491 0.24998
 H2839 H 0.28446 0.54891 0.21050
 H2840 H 0.31348 0.51493 0.21854
 H2841 H 0.35711 0.56249 0.26404
 H2842 H 0.26067 0.59080 0.20946
 H2843 H 0.24675 0.63351 0.21502
 H2844 H 0.30996 0.64657 0.26136
 C2845 C 0.33114 0.40940 0.23630
 C2846 C 0.30669 0.41505 0.23756
 C2847 C 0.29799 0.43897 0.23703
 C2848 C 0.31526 0.45780 0.23613
 C2849 C 0.34053 0.45230 0.23598
 C2850 C 0.34851 0.42777 0.23537
 O2851 O 0.33579 0.38570 0.23851
 C2852 C 0.31383 0.37615 0.24146
 C2853 C 0.29540 0.39332 0.24122
 C2854 C 0.27121 0.38742 0.24575
 C2855 C 0.26575 0.36278 0.25027
 C2856 C 0.28438 0.34466 0.25002
 C2857 C 0.30879 0.35156 0.24557
 H2858 H 0.27869 0.44299 0.23843
 H2859 H 0.30905 0.47648 0.23748
 H2860 H 0.36775 0.42317 0.23602
 H2861 H 0.25707 0.40127 0.24592
 H2862 H 0.24694 0.35779 0.25346
 H2863 H 0.32345 0.33823 0.24552
 C2864 C 0.83375 0.90717 0.74739
 C2865 C 0.80917 0.91223 0.74786
 C2866 C 0.79977 0.93579 0.74507
 C2867 C 0.81648 0.95503 0.74273
 C2868 C 0.84189 0.95032 0.74354
 C2869 C 0.85059 0.92598 0.74517
 O2870 O 0.83898 0.88371 0.75102
 C2871 C 0.81721 0.87369 0.75407
 C2872 C 0.79840 0.89041 0.75257
 C2873 C 0.77423 0.88409 0.75636
 C2874 C 0.76913 0.85946 0.76117
 C2875 C 0.78806 0.84156 0.76185
 C2876 C 0.81255 0.84899 0.75854
 H2877 H 0.78034 0.93931 0.74562
 H2878 H 0.80969 0.97361 0.74211
 H2879 H 0.86995 0.92199 0.74633
 H2880 H 0.75977 0.89761 0.75545
 H2881 H 0.75023 0.85430 0.76343
 H2882 H 0.82744 0.83593 0.75892
 C2883 C 0.66728 0.91584 0.24481
 C2884 C 0.68584 0.91965 0.22851
 C2885 C 0.69303 0.94281 0.22099
 C2886 C 0.68025 0.96287 0.23025
 C2887 C 0.66050 0.95960 0.24661
 C2888 C 0.65416 0.93555 0.25412
 O2889 O 0.66381 0.89238 0.25011
 C2890 C 0.68054 0.88116 0.23680
 C2891 C 0.69436 0.89704 0.22313
 C2892 C 0.71315 0.88932 0.20817
 C2893 C 0.71846 0.86426 0.20785
 C2894 C 0.70515 0.84741 0.22249
 C2895 C 0.68549 0.85608 0.23676
 H2896 H 0.70796 0.94536 0.20840
 H2897 H 0.68578 0.98088 0.22447
 H2898 H 0.63901 0.93205 0.26618
 H2899 H 0.72376 0.90219 0.19755
 H2900 H 0.73357 0.85816 0.19682
 H2901 H 0.67515 0.84392 0.24843
 C2902 C 0.16798 0.42040 0.74655
 C2903 C 0.18858 0.42431 0.73296
 C2904 C 0.19552 0.44735 0.72483
 C2905 C 0.18049 0.46719 0.73077
 C2906 C 0.15889 0.46378 0.74456
 C2907 C 0.15269 0.43985 0.75257
 O2908 O 0.16478 0.39709 0.75264
 C2909 C 0.18381 0.38604 0.74265
 C2910 C 0.19886 0.40189 0.73033
 C2911 C 0.21984 0.39428 0.71850
 C2912 C 0.22575 0.36936 0.71966
 C2913 C 0.21080 0.35251 0.73261
 C2914 C 0.18936 0.36112 0.74411
 H2915 H 0.21193 0.44999 0.71426
 H2916 H 0.18588 0.48516 0.72461
 H2917 H 0.13618 0.43621 0.76265
 H2918 H 0.23138 0.40711 0.70888
 H2919 H 0.24224 0.36334 0.71075
 H2920 H 0.17755 0.34892 0.75421
 C2921 C 0.08796 0.75601 0.82983
 C2922 C 0.08269 0.74539 0.80787
 C2923 C 0.05914 0.73873 0.80122
 C2924 C 0.04034 0.74300 0.81797
 C2925 C 0.04533 0.75370 0.84088
 C2926 C 0.06960 0.76038 0.84673
 O2927 O 0.11148 0.76088 0.83273
 C2928 C 0.12130 0.75318 0.81215
 C2929 C 0.10452 0.74348 0.79632
 C2930 C 0.11102 0.73413 0.77382
 C2931 C 0.13577 0.73496 0.76731
 C2932 C 0.15347 0.74510 0.78324
 C2933 C 0.14594 0.75426 0.80605
 H2934 H 0.05538 0.73047 0.78380
 H2935 H 0.02190 0.73807 0.81297
 H2936 H 0.07427 0.76811 0.86417
 H2937 H 0.09752 0.72651 0.76167
 H2938 H 0.14106 0.72789 0.74977
 H2939 H 0.15883 0.76206 0.81874
 C2940 C 0.58862 0.24897 0.33300
 C2941 C 0.58289 0.23920 0.31075
 C2942 C 0.55905 0.23450 0.30359
 C2943 C 0.54038 0.23983 0.32011
 C2944 C 0.54574 0.24956 0.34343
 C2945 C 0.57037 0.25429 0.34978
 O2946 O 0.61239 0.25240 0.33610
 C2947 C 0.62184 0.24461 0.31536
 C2948 C 0.60460 0.23624 0.29927
 C2949 C 0.61054 0.22734 0.27643
 C2950 C 0.63524 0.22744 0.26974
 C2951 C 0.65340 0.23650 0.28580
 C2952 C 0.64646 0.24494 0.30909
 H2953 H 0.55495 0.22704 0.28587
 H2954 H 0.52180 0.23644 0.31450
 H2955 H 0.57536 0.26136 0.36743
 H2956 H 0.59664 0.22082 0.26407
 H2957 H 0.64009 0.22100 0.25183
 H2958 H 0.65972 0.25201 0.32185
 C2959 C 0.57612 0.75750 0.17191
 C2960 C 0.58318 0.73341 0.17241
 C2961 C 0.56857 0.71479 0.16364
 C2962 C 0.54585 0.72128 0.15352
 C2963 C 0.53834 0.74606 0.15209
 C2964 C 0.55364 0.76440 0.16173
 O2965 O 0.59307 0.77236 0.18064
 C2966 C 0.61132 0.75730 0.18661
 C2967 C 0.60616 0.73330 0.18172
 C2968 C 0.62299 0.71455 0.18514
 C2969 C 0.64612 0.72072 0.19396
 C2970 C 0.65195 0.74524 0.19951
 C2971 C 0.63417 0.76382 0.19602
 H2972 H 0.57468 0.69597 0.16409
 H2973 H 0.53462 0.70711 0.14583
 H2974 H 0.54844 0.78347 0.16081
 H2975 H 0.61859 0.69587 0.18085
 H2976 H 0.65949 0.70631 0.19675
 H2977 H 0.63824 0.78269 0.19986
 C2978 C 0.07910 0.25203 0.66705
 C2979 C 0.07395 0.25296 0.69154
 C2980 C 0.05022 0.25203 0.70046
 C2981 C 0.03103 0.25046 0.68342
 C2982 C 0.03588 0.25031 0.65809
 C2983 C 0.06030 0.25088 0.64984
 O2984 O 0.10282 0.25302 0.66234
 C2985 C 0.11290 0.25481 0.68432
 C2986 C 0.09602 0.25510 0.70279
 C2987 C 0.10256 0.25771 0.72714
 C2988 C 0.12749 0.25985 0.73271
 C2989 C 0.14535 0.25895 0.71408
 C2990 C 0.13785 0.25640 0.68949
 H2991 H 0.04661 0.25274 0.71982
 H2992 H 0.01241 0.25033 0.68986
 H2993 H 0.06446 0.25078 0.63056
 H2994 H 0.08895 0.25812 0.74135
 H2995 H 0.13292 0.26161 0.75163
 H2996 H 0.15101 0.25579 0.67486
 C2997 C 0.90687 0.24155 0.66596
 C2998 C 0.91214 0.22995 0.68775
 C2999 C 0.93585 0.22547 0.69575
 C3000 C 0.95496 0.23282 0.68047
 C3001 C 0.95021 0.24413 0.65742
 C3002 C 0.92562 0.24878 0.65029
 O3003 O 0.88306 0.24468 0.66217
 C3004 C 0.87313 0.23477 0.68201
 C3005 C 0.89017 0.22532 0.69811
 C3006 C 0.88389 0.21422 0.72010
 C3007 C 0.85906 0.21334 0.72608
 C3008 C 0.84100 0.22370 0.71025
 C3009 C 0.84827 0.23421 0.68764
 H3010 H 0.93954 0.21670 0.71321
 H3011 H 0.97342 0.22964 0.68682
 H3012 H 0.92107 0.25712 0.63284
 H3013 H 0.89766 0.20688 0.73244
 H3014 H 0.85407 0.20531 0.74349
 H3015 H 0.83513 0.24247 0.67517
 C3016 C 0.40760 0.74576 0.16780
 C3017 C 0.41296 0.73246 0.18861
 C3018 C 0.43672 0.72713 0.19599
 C3019 C 0.45575 0.73539 0.18104
 C3020 C 0.45079 0.74850 0.15901
 C3021 C 0.42623 0.75398 0.15254
 O3022 O 0.38381 0.74936 0.16443
 C3023 C 0.37395 0.73804 0.18352
 C3024 C 0.39101 0.72725 0.19875
 C3025 C 0.38476 0.71461 0.21991
 C3026 C 0.35996 0.71360 0.22602
 C3027 C 0.34192 0.72534 0.21113
 C3028 C 0.34915 0.73732 0.18925
 H3029 H 0.44050 0.71696 0.21267
 H3030 H 0.47432 0.73147 0.18668
 H3031 H 0.42160 0.76362 0.13577
 H3032 H 0.39852 0.70622 0.23159
 H3033 H 0.35499 0.70438 0.24284
 H3034 H 0.33604 0.74668 0.17753
 C3035 C 0.41807 0.25596 0.33492
 C3036 C 0.42336 0.25972 0.31067
 C3037 C 0.44712 0.26088 0.30193
 C3038 C 0.46623 0.25847 0.31898
 C3039 C 0.46118 0.25530 0.34409
 C3040 C 0.43678 0.25388 0.35217
 O3041 O 0.39431 0.25503 0.33936
 C3042 C 0.38434 0.25843 0.31744
 C3043 C 0.40134 0.26163 0.29934
 C3044 C 0.39498 0.26582 0.27510
 C3045 C 0.37008 0.26624 0.26916
 C3046 C 0.35207 0.26219 0.28733
 C3047 C 0.35942 0.25847 0.31191
 H3048 H 0.45080 0.26378 0.28274
 H3049 H 0.48487 0.26000 0.31279
 H3050 H 0.43256 0.25152 0.37132
 H3051 H 0.40870 0.26841 0.26120
 H3052 H 0.36494 0.26892 0.25020
 H3053 H 0.34623 0.25527 0.32620
 C3054 C 0.92025 0.75592 0.83105
 C3055 C 0.91176 0.73291 0.83635
 C3056 C 0.92594 0.71504 0.84796
 C3057 C 0.94967 0.72136 0.85505
 C3058 C 0.95841 0.74531 0.85089
 C3059 C 0.94363 0.76273 0.83838
 O3060 O 0.90380 0.77010 0.81982
 C3061 C 0.88439 0.75579 0.81824
 C3062 C 0.88828 0.73300 0.82844
 C3063 C 0.87022 0.71544 0.82990
 C3064 C 0.84733 0.72138 0.81996
 C3065 C 0.84300 0.74437 0.80835
 C3066 C 0.86185 0.76191 0.80761
 H3067 H 0.91881 0.69704 0.85185
 H3068 H 0.96075 0.70806 0.86494
 H3069 H 0.94988 0.78121 0.83526
 H3070 H 0.87365 0.69776 0.83831
 H3071 H 0.83324 0.70762 0.82046
 H3072 H 0.85911 0.77956 0.79888
   
