data_POSCAR
  _audit_creation_date              2014-09-24
  _audit_creation_method            'ToBaCCo'
  _symmetry_space_group_name_H-M    'P1'
  _symmetry_Int_Tables_number       1
  _symmetry_cell_setting            triclinic
  loop_
  _symmetry_equiv_pos_as_xyz
 x,y,z
_cell_length_a 54.4806
_cell_length_b 54.8161
_cell_length_c 55.2565
_cell_angle_alpha 89.926900
_cell_angle_beta 90.082400
_cell_angle_gamma 89.917900
loop_
  _atom_site_label
  _atom_site_type_symbol
  _atom_site_fract_x
  _atom_site_fract_y
  _atom_site_fract_z
C1 C 0.26344 0.36841 0.01610
 C2 C 0.26293 0.36808 -0.00868
 C3 C 0.28558 0.35931 -0.01626
 N4 N 0.29959 0.35355 0.00314
 C5 C 0.28608 0.35915 0.02293
 C6 C 0.29380 0.35844 -0.04063
 C7 C 0.31425 0.34384 -0.04733
 C8 C 0.32850 0.34733 -0.06785
 C9 C 0.34593 0.32918 -0.06799
 C10 C 0.34194 0.31502 -0.04755
 N11 N 0.32276 0.32425 -0.03489
 C12 C 0.35580 0.29409 -0.04093
 C13 C 0.35625 0.28590 -0.01660
 C14 C 0.36336 0.26279 -0.00899
 C15 C 0.36426 0.26343 0.01578
 C16 C 0.35718 0.28672 0.02248
 N17 N 0.35211 0.30042 0.00272
 C18 C 0.35777 0.29578 0.04635
 C19 C 0.34419 0.31656 0.05325
 C20 C 0.34655 0.32896 0.07499
 C21 C 0.32851 0.34661 0.07522
 C22 C 0.31593 0.34465 0.05348
 N23 N 0.32550 0.32624 0.04030
 C24 C 0.29490 0.35814 0.04693
 H25 H 0.24885 0.37487 0.02771
 H26 H 0.24770 0.37397 -0.01985
 H27 H 0.31791 0.31892 0.02461
 H28 H 0.32687 0.36177 -0.08113
 H29 H 0.36026 0.32706 -0.08136
 H30 H 0.36785 0.24721 -0.02016
 H31 H 0.36964 0.24854 0.02753
 H32 H 0.32492 0.35921 0.08986
 H33 H 0.31469 0.31644 -0.01964
 H34 H 0.35960 0.32543 0.08936
 C35 C 0.61254 0.71884 0.01356
 C36 C 0.61290 0.71851 -0.01125
 C37 C 0.63416 0.70635 -0.01791
 N38 N 0.64684 0.69935 0.00195
 C39 C 0.63360 0.70688 0.02122
 C40 C 0.64238 0.70356 -0.04196
 C41 C 0.66278 0.68910 -0.04854
 C42 C 0.67451 0.69039 -0.07074
 C43 C 0.69280 0.67312 -0.07039
 C44 C 0.69157 0.66147 -0.04808
 N45 N 0.67317 0.67136 -0.03487
 C46 C 0.70709 0.64201 -0.04066
 C47 C 0.70940 0.63483 -0.01606
 C48 C 0.71999 0.61315 -0.00819
 C49 C 0.71960 0.61360 0.01656
 C50 C 0.70843 0.63531 0.02310
 N51 N 0.70223 0.64833 0.00317
 C52 C 0.70534 0.64318 0.04722
 C53 C 0.69017 0.66290 0.05389
 C54 C 0.68982 0.67363 0.07660
 C55 C 0.67151 0.69094 0.07616
 C56 C 0.66120 0.69026 0.05320
 N57 N 0.67258 0.67301 0.03981
 C58 C 0.64098 0.70450 0.04563
 H59 H 0.59850 0.72717 0.02468
 H60 H 0.59921 0.72657 -0.02303
 H61 H 0.66692 0.66658 0.02305
 H62 H 0.67046 0.70265 -0.08558
 H63 H 0.70567 0.66971 -0.08489
 H64 H 0.72709 0.59839 -0.01913
 H65 H 0.72655 0.59943 0.02840
 H66 H 0.66626 0.70256 0.09111
 H67 H 0.66655 0.66478 -0.01848
 H68 H 0.70139 0.66928 0.09195
 C69 C 0.61059 0.28244 0.98465
 C70 C 0.61099 0.28269 1.00946
 C71 C 0.63223 0.29484 1.01618
 N72 N 0.64486 0.30190 0.99635
 C73 C 0.63161 0.29442 0.97704
 C74 C 0.64050 0.29752 1.04024
 C75 C 0.66085 0.31197 1.04691
 C76 C 0.67260 0.31062 1.06913
 C77 C 0.69084 0.32788 1.06887
 C78 C 0.68959 0.33958 1.04659
 N79 N 0.67120 0.32974 1.03330
 C80 C 0.70509 0.35902 1.03924
 C81 C 0.70744 0.36617 1.01464
 C82 C 0.71811 0.38777 1.00680
 C83 C 0.71779 0.38730 0.98205
 C84 C 0.70656 0.36565 0.97547
 N85 N 0.70026 0.35269 0.99539
 C86 C 0.70354 0.35775 0.95134
 C87 C 0.68825 0.33816 0.94458
 C88 C 0.68789 0.32746 0.92186
 C89 C 0.66951 0.31027 0.92221
 C90 C 0.65919 0.31099 0.94514
 N91 N 0.67061 0.32817 0.95858
 C92 C 0.63897 0.29680 0.95265
 H93 H 0.59656 0.27413 0.97350
 H94 H 0.59735 0.27460 1.02120
 H95 H 0.66497 0.33459 0.97534
 H96 H 0.66859 0.29832 1.08394
 H97 H 0.70372 0.33125 1.08341
 H98 H 0.72525 0.40250 1.01775
 H99 H 0.72483 0.40140 0.97022
 H100 H 0.66424 0.29869 0.90724
 H101 H 0.66457 0.33635 1.01691
 H102 H 0.69950 0.33174 0.90656
 C103 C 0.26493 0.63303 1.00871
 C104 C 0.26592 0.63216 0.98394
 C105 C 0.28932 0.63953 0.97751
 N106 N 0.30271 0.64486 0.99745
 C107 C 0.28792 0.64051 1.01660
 C108 C 0.29882 0.63904 0.95377
 C109 C 0.31983 0.65256 0.94733
 C110 C 0.33350 0.64953 0.92639
 C111 C 0.35117 0.66752 0.92648
 C112 C 0.34769 0.68093 0.94746
 N113 N 0.32859 0.67170 0.96001
 C114 C 0.36075 0.70209 0.95406
 C115 C 0.35978 0.71153 0.97778
 C116 C 0.36656 0.73496 0.98426
 C117 C 0.36555 0.73589 1.00902
 C118 C 0.35862 0.71283 1.01684
 N119 N 0.35470 0.69805 0.99767
 C120 C 0.35814 0.70492 1.04126
 C121 C 0.34417 0.68417 1.04804
 C122 C 0.34799 0.67015 1.06863
 C123 C 0.33041 0.65217 1.06856
 C124 C 0.31628 0.65564 1.04792
 N125 N 0.32499 0.67501 1.03536
 C126 C 0.29578 0.64125 1.04106
 H127 H 0.24919 0.62834 1.01968
 H128 H 0.25119 0.62658 0.97202
 H129 H 0.31705 0.68272 1.01995
 H130 H 0.33093 0.63592 0.91245
 H131 H 0.36486 0.67047 0.91261
 H132 H 0.37188 0.74974 0.97237
 H133 H 0.36986 0.75162 1.02004
 H134 H 0.32864 0.63785 1.08194
 H135 H 0.32035 0.67962 0.97508
 H136 H 0.36229 0.67225 1.08207
 C137 C -0.00929 0.36703 0.26510
 C138 C 0.01580 0.36798 0.26608
 C139 C 0.02241 0.36031 0.28905
 N140 N 0.00225 0.35485 0.30226
 C141 C -0.01722 0.35925 0.28770
 C142 C 0.04658 0.36040 0.29819
 C143 C 0.05345 0.34644 0.31858
 C144 C 0.07552 0.34844 0.33092
 C145 C 0.07566 0.33032 0.34819
 C146 C 0.05352 0.31800 0.34609
 N147 N 0.04021 0.32784 0.32790
 C148 C 0.04680 0.29726 0.35968
 C149 C 0.02249 0.28837 0.36109
 C150 C 0.01562 0.26747 0.37343
 C151 C -0.00950 0.26663 0.37277
 C152 C -0.01732 0.28701 0.35988
 N153 N 0.00235 0.30035 0.35298
 C154 C -0.04209 0.29478 0.35753
 C155 C -0.04896 0.31558 0.34367
 C156 C -0.07149 0.32742 0.34489
 C157 C -0.07137 0.34533 0.32749
 C158 C -0.04914 0.34356 0.31542
 N159 N -0.03554 0.32549 0.32551
 C160 C -0.04208 0.35793 0.29516
 H161 H -0.02045 0.37174 0.24956
 H162 H 0.02784 0.37366 0.25156
 H163 H -0.01918 0.31858 0.31862
 H164 H 0.09015 0.36135 0.32765
 H165 H 0.09047 0.32658 0.36073
 H166 H 0.02740 0.25459 0.38273
 H167 H -0.02059 0.25302 0.38174
 H168 H -0.08615 0.35810 0.32414
 H169 H 0.02427 0.32055 0.32048
 H170 H -0.08670 0.32362 0.35682
 C171 C -0.00665 0.63169 0.73571
 C172 C 0.01845 0.63165 0.73455
 C173 C 0.02457 0.64129 0.71220
 N174 N 0.00406 0.64681 0.69945
 C175 C -0.01512 0.64071 0.71372
 C176 C 0.04865 0.64285 0.70301
 C177 C 0.05455 0.65654 0.68222
 C178 C 0.07637 0.65488 0.66946
 C179 C 0.07541 0.67242 0.65164
 C180 C 0.05316 0.68449 0.65425
 N181 N 0.04061 0.67472 0.67297
 C182 C 0.04555 0.70487 0.64045
 C183 C 0.02121 0.71388 0.64073
 C184 C 0.01378 0.73568 0.63034
 C185 C -0.01130 0.73632 0.63188
 C186 C -0.01848 0.71501 0.64353
 N187 N 0.00151 0.70132 0.64880
 C188 C -0.04301 0.70670 0.64595
 C189 C -0.04902 0.68534 0.65928
 C190 C -0.07120 0.67295 0.65801
 C191 C -0.07026 0.65460 0.67491
 C192 C -0.04788 0.65662 0.68676
 N193 N -0.03499 0.67532 0.67699
 C194 C -0.04015 0.64189 0.70657
 H195 H -0.01742 0.62558 0.75099
 H196 H 0.03072 0.62520 0.74858
 H197 H -0.01873 0.68250 0.68383
 H198 H 0.09150 0.64250 0.67275
 H199 H 0.08963 0.67605 0.63847
 H200 H 0.02517 0.74942 0.62190
 H201 H -0.02277 0.75054 0.62438
 H202 H -0.08461 0.64138 0.67814
 H203 H 0.02475 0.68177 0.68074
 H204 H -0.08672 0.67671 0.64636
 C205 C 1.00822 0.73242 0.37228
 C206 C 0.98308 0.73170 0.37244
 C207 C 0.97637 0.71032 0.36084
 N208 N 0.99658 0.69783 0.35388
 C209 C 1.01609 0.71130 0.36085
 C210 C 0.95210 0.70156 0.35882
 C211 C 0.94577 0.68102 0.34475
 C212 C 0.92366 0.66862 0.34618
 C213 C 0.92434 0.65067 0.32881
 C214 C 0.94672 0.65281 0.31704
 N215 N 0.95960 0.67143 0.32680
 C216 C 0.95414 0.63860 0.29699
 C217 C 0.97849 0.63824 0.28808
 C218 C 0.98563 0.62737 0.26660
 C219 C 1.01073 0.62854 0.26583
 C220 C 1.01825 0.64050 0.28673
 N221 N 0.99841 0.64622 0.30034
 C222 C 1.04297 0.64314 0.29451
 C223 C 1.04945 0.65670 0.31549
 C224 C 1.07236 0.65657 0.32659
 C225 C 1.07163 0.67362 0.34478
 C226 C 1.04850 0.68413 0.34411
 N227 N 1.03515 0.67379 0.32619
 C228 C 1.04086 0.70386 0.35880
 H229 H 1.01942 0.74672 0.38003
 H230 H 0.97116 0.74523 0.38051
 H231 H 1.01839 0.68016 0.31976
 H232 H 0.90856 0.67214 0.35838
 H233 H 0.90987 0.63768 0.32515
 H234 H 0.97403 0.61890 0.25311
 H235 H 1.02197 0.62069 0.25175
 H236 H 1.08667 0.67810 0.35679
 H237 H 0.97567 0.67887 0.31990
 H238 H 1.08830 0.64583 0.32188
 C239 C 0.98707 0.37226 0.73296
 C240 C 1.01218 0.37140 0.73339
 C241 C 1.01954 0.35947 0.71243
 N242 N 0.99957 0.35346 0.69911
 C243 C 0.97973 0.36123 0.71161
 C244 C 1.04417 0.35710 0.70431
 C245 C 1.05051 0.34354 0.68331
 C246 C 1.07324 0.34387 0.67192
 C247 C 1.07245 0.32675 0.65378
 C248 C 1.04947 0.31601 0.65478
 N249 N 1.03627 0.32625 0.67285
 C250 C 1.04185 0.29619 0.64021
 C251 C 1.01717 0.28842 0.63857
 C252 C 1.00944 0.26720 0.62725
 C253 C 0.98429 0.26761 0.62744
 C254 C 0.97746 0.28891 0.63913
 N255 N 0.99759 0.30165 0.64581
 C256 C 0.95312 0.29741 0.64142
 C257 C 0.94671 0.31792 0.65551
 C258 C 0.92444 0.33011 0.65429
 C259 C 0.92515 0.34812 0.67159
 C260 C 0.94772 0.34622 0.68311
 N261 N 0.96068 0.32769 0.67328
 C262 C 0.95525 0.36057 0.70302
 H263 H 0.97556 0.38064 0.74657
 H264 H 1.02353 0.37946 0.74729
 H265 H 0.97695 0.32043 0.68003
 H266 H 1.08910 0.35480 0.67639
 H267 H 1.08735 0.32240 0.64160
 H268 H 1.02072 0.25306 0.61931
 H269 H 0.97244 0.25395 0.61951
 H270 H 0.91058 0.36099 0.67536
 H271 H 1.01970 0.31973 0.67951
 H272 H 0.90921 0.32641 0.64226
 C273 C 0.38804 -0.01041 0.28214
 C274 C 0.38803 0.01455 0.28176
 C275 C 0.36624 0.02189 0.29237
 N276 N 0.35279 0.00226 0.29906
 C277 C 0.36606 -0.01757 0.29268
 C278 C 0.35859 0.04641 0.29443
 C279 C 0.33868 0.05382 0.30892
 C280 C 0.32797 0.07678 0.30838
 C281 C 0.31053 0.07711 0.32637
 C282 C 0.31113 0.05434 0.33731
 N283 N 0.32840 0.04032 0.32666
 C284 C 0.29721 0.04756 0.35769
 C285 C 0.29504 0.02327 0.36586
 C286 C 0.28496 0.01659 0.38787
 C287 C 0.28484 -0.00836 0.38839
 C288 C 0.29449 -0.01618 0.36647
 N289 N 0.30087 0.00324 0.35275
 C290 C 0.29619 -0.04089 0.35908
 C291 C 0.31091 -0.04833 0.33921
 C292 C 0.30845 -0.07039 0.32716
 C293 C 0.32585 -0.07073 0.30923
 C294 C 0.33856 -0.04886 0.31070
 N295 N 0.32931 -0.03526 0.32903
 C296 C 0.35817 -0.04209 0.29520
 H297 H 0.40263 -0.02197 0.27545
 H298 H 0.40247 0.02599 0.27457
 H299 H 0.33647 -0.01891 0.33546
 H300 H 0.33249 0.09183 0.29649
 H301 H 0.29897 0.09246 0.33107
 H302 H 0.27842 0.02847 0.40211
 H303 H 0.27837 -0.01949 0.40325
 H304 H 0.32845 -0.08525 0.29624
 H305 H 0.33476 0.02360 0.33296
 H306 H 0.29513 -0.08461 0.33055
 C307 C 0.71736 -0.00772 0.61066
 C308 C 0.71687 0.01723 0.61108
 C309 C 0.70558 0.02384 0.63253
 N310 N 0.69938 0.00374 0.64541
 C311 C 0.70671 -0.01565 0.63209
 C312 C 0.70242 0.04819 0.64031
 C313 C 0.68712 0.05498 0.65975
 C314 C 0.68672 0.07788 0.67037
 C315 C 0.66838 0.07748 0.68748
 C316 C 0.65811 0.05436 0.68679
 N317 N 0.66953 0.04084 0.66970
 C318 C 0.63797 0.04671 0.70095
 C319 C 0.63063 0.02210 0.70318
 C320 C 0.60959 0.01437 0.71497
 C321 C 0.61003 -0.01062 0.71466
 C322 C 0.63134 -0.01735 0.70268
 N323 N 0.64395 0.00267 0.69576
 C324 C 0.63969 -0.04159 0.70011
 C325 C 0.66007 -0.04831 0.68577
 C326 C 0.67187 -0.07067 0.68715
 C327 C 0.69017 -0.07038 0.67007
 C328 C 0.68889 -0.04793 0.65843
 N329 N 0.67043 -0.03459 0.66814
 C330 C 0.70448 -0.04047 0.63920
 H331 H 0.72458 -0.01874 0.59607
 H332 H 0.72385 0.02916 0.59707
 H333 H 0.66379 -0.01806 0.66159
 H334 H 0.69829 0.09333 0.66611
 H335 H 0.66312 0.09256 0.69900
 H336 H 0.59551 0.02557 0.72319
 H337 H 0.59638 -0.02249 0.72261
 H338 H 0.70311 -0.08500 0.66681
 H339 H 0.66395 0.02391 0.66334
 H340 H 0.66788 -0.08559 0.69938
 C341 C 0.38444 0.98403 0.71957
 C342 C 0.38461 1.00899 0.71927
 C343 C 0.36253 1.01639 0.70901
 N344 N 0.34904 0.99671 0.70271
 C345 C 0.36245 0.97693 0.70918
 C346 C 0.35479 1.04099 0.70659
 C347 C 0.33505 1.04794 0.69126
 C348 C 0.32248 1.06992 0.69283
 C349 C 0.30498 1.06980 0.67495
 C350 C 0.30721 1.04775 0.66284
 N351 N 0.32557 1.03447 0.67294
 C352 C 0.29240 1.04055 0.64293
 C353 C 0.29039 1.01586 0.63555
 C354 C 0.28070 1.00817 0.61359
 C355 C 0.28057 0.98322 0.61409
 C356 C 0.29056 0.97641 0.63614
 N357 N 0.29656 0.99636 0.64929
 C358 C 0.29261 0.95207 0.64425
 C359 C 0.30664 0.94512 0.66457
 C360 C 0.30604 0.92231 0.67541
 C361 C 0.32367 0.92242 0.69327
 C362 C 0.33448 0.94531 0.69276
 N363 N 0.32407 0.95897 0.67517
 C364 C 0.35462 0.95249 0.70708
 H365 H 0.39891 0.97243 0.72655
 H366 H 0.39939 1.02039 0.72582
 H367 H 0.33045 0.97566 0.66889
 H368 H 0.32529 1.08440 0.70583
 H369 H 0.29176 1.08417 0.67159
 H370 H 0.27439 1.01937 0.59868
 H371 H 0.27399 0.97143 0.59979
 H372 H 0.32827 0.90728 0.70504
 H373 H 0.33260 1.01809 0.66641
 H374 H 0.29438 0.90706 0.67070
 C375 C 0.63301 0.98457 0.26621
 C376 C 0.63350 1.00954 0.26584
 C377 C 0.64103 1.01700 0.28868
 N378 N 0.64575 0.99737 0.30279
 C379 C 0.64070 0.97756 0.28907
 C380 C 0.64172 1.04152 0.29683
 C381 C 0.65609 1.04818 0.31725
 C382 C 0.65324 1.06936 0.33073
 C383 C 0.67110 1.06906 0.34835
 C384 C 0.68417 1.04756 0.34543
 N385 N 0.67492 1.03492 0.32647
 C386 C 0.70468 1.04056 0.35954
 C387 C 0.71312 1.01619 0.36075
 C388 C 0.73487 1.00876 0.37155
 C389 C 0.73466 0.98374 0.37169
 C390 C 0.71293 0.97670 0.36068
 N391 N 0.69977 0.99656 0.35406
 C392 C 0.70438 0.95244 0.35912
 C393 C 0.68351 0.94578 0.34549
 C394 C 0.67129 0.92366 0.34720
 C395 C 0.65305 0.92400 0.32991
 C396 C 0.65489 0.94617 0.31796
 N397 N 0.67351 0.95928 0.32753
 C398 C 0.64083 0.95332 0.29768
 H399 H 0.62758 0.97287 0.25138
 H400 H 0.62863 1.02093 0.25055
 H401 H 0.68070 0.97533 0.32041
 H402 H 0.63953 1.08347 0.32838
 H403 H 0.67391 1.08295 0.36197
 H404 H 0.74918 1.02016 0.37906
 H405 H 0.74869 0.97213 0.37946
 H406 H 0.64017 0.90942 0.32636
 H407 H 0.68245 1.01922 0.31889
 H408 H 0.67519 0.90875 0.35946
 O409 O 0.82090 0.85333 0.52464
 O410 O 0.85322 0.81686 0.47893
 O411 O 0.82013 0.85083 0.47791
 O412 O 0.85419 0.81896 0.52606
 O413 O 0.82542 0.79074 0.52765
 O414 O 0.79065 0.82337 0.48028
 O415 O 0.82414 0.78895 0.48062
 O416 O 0.79213 0.82517 0.52734
 Cu417 Cu 0.84006 0.83773 0.50177
 Cu418 Cu 0.80518 0.80424 0.50417
 C419 C 0.80090 0.84568 0.53366
 C420 C 0.84423 0.79674 0.47186
 C421 C 0.79943 0.84272 0.47103
 C422 C 0.84580 0.79927 0.53493
 O423 O 0.17904 0.14536 0.52428
 O424 O 0.14800 0.18069 0.47679
 O425 O 0.18101 0.14674 0.47758
 O426 O 0.14564 0.17974 0.52349
 O427 O 0.17492 0.20738 0.52629
 O428 O 0.20999 0.17476 0.47922
 O429 O 0.17653 0.20911 0.47932
 O430 O 0.20823 0.17314 0.52649
 Cu431 Cu 0.16053 0.16033 0.50043
 Cu432 Cu 0.19539 0.19388 0.50304
 C433 C 0.19906 0.15297 0.53330
 C434 C 0.15677 0.20103 0.47006
 C435 C 0.20150 0.15506 0.47045
 C436 C 0.15402 0.19931 0.53256
 O437 O 0.17870 0.85581 0.47450
 O438 O 0.14497 0.82036 0.51985
 O439 O 0.17843 0.85405 0.52131
 O440 O 0.14492 0.82194 0.47341
 O441 O 0.17362 0.79351 0.47241
 O442 O 0.20756 0.82609 0.52035
 O443 O 0.17398 0.79220 0.51953
 O444 O 0.20740 0.82740 0.47304
 Cu445 Cu 0.15894 0.84092 0.49728
 Cu446 Cu 0.19360 0.80698 0.49620
 C447 C 0.19884 0.84783 0.46609
 C448 C 0.15354 0.80016 0.52733
 C449 C 0.19872 0.84568 0.52903
 C450 C 0.15319 0.80199 0.46509
 O451 O 0.85321 0.18230 0.52166
 O452 O 0.82034 0.14667 0.47561
 O453 O 0.85406 0.18064 0.47456
 O454 O 0.82002 0.14847 0.52223
 O455 O 0.79096 0.17650 0.52082
 O456 O 0.82538 0.20904 0.47319
 O457 O 0.79160 0.17501 0.47364
 O458 O 0.82444 0.21063 0.52018
 Cu459 Cu 0.83985 0.16176 0.49857
 Cu460 Cu 0.80519 0.19563 0.49676
 C461 C 0.84448 0.20253 0.52885
 C462 C 0.80018 0.15450 0.46702
 C463 C 0.84576 0.20048 0.46589
 C464 C 0.79960 0.15681 0.52959
 O465 O 0.47846 0.85336 0.82057
 O466 O 0.52740 0.82109 0.85315
 O467 O 0.52600 0.85438 0.81947
 O468 O 0.48008 0.81962 0.85377
 O469 O 0.47978 0.79127 0.82546
 O470 O 0.52648 0.82582 0.79140
 O471 O 0.52755 0.79229 0.82531
 O472 O 0.47861 0.82508 0.79221
 Cu473 Cu 0.50298 0.83998 0.83951
 Cu474 Cu 0.50317 0.80577 0.80573
 C475 C 0.47021 0.84492 0.80078
 C476 C 0.53561 0.80099 0.84511
 C477 C 0.53402 0.84617 0.79950
 C478 C 0.47219 0.79944 0.84562
 O479 O 0.52766 0.17899 0.14588
 O480 O 0.47941 0.14642 0.17890
 O481 O 0.48030 0.18006 0.14564
 O482 O 0.52685 0.14572 0.17967
 O483 O 0.52758 0.17438 0.20765
 O484 O 0.47994 0.20843 0.17394
 O485 O 0.47970 0.17467 0.20728
 O486 O 0.52778 0.20788 0.17363
 Cu487 Cu 0.50357 0.15995 0.15974
 Cu488 Cu 0.50383 0.19422 0.19347
 C489 C 0.53572 0.19919 0.15379
 C490 C 0.47139 0.15477 0.19880
 C491 C 0.47221 0.20015 0.15385
 C492 C 0.53504 0.15398 0.19957
 O493 O 0.51941 0.14592 0.81984
 O494 O 0.47215 0.17856 0.85441
 O495 O 0.47206 0.14483 0.82108
 O496 O 0.51958 0.17920 0.85328
 O497 O 0.51844 0.20782 0.82521
 O498 O 0.47011 0.17341 0.79299
 O499 O 0.47061 0.20723 0.82640
 O500 O 0.51800 0.17426 0.79150
 Cu501 Cu 0.49589 0.15930 0.83996
 Cu502 Cu 0.49414 0.19355 0.80617
 C503 C 0.52669 0.15434 0.79967
 C504 C 0.46349 0.19860 0.84656
 C505 C 0.46311 0.15301 0.80146
 C506 C 0.52710 0.19943 0.84492
 O507 O 0.47419 0.82090 0.14563
 O508 O 0.52092 0.85404 0.18037
 O509 O 0.52165 0.82098 0.14659
 O510 O 0.47371 0.85440 0.17911
 O511 O 0.47267 0.82578 0.20721
 O512 O 0.52100 0.79200 0.17431
 O513 O 0.52060 0.82523 0.20829
 O514 O 0.47315 0.79215 0.17358
 Cu515 Cu 0.49767 0.84041 0.16012
 Cu516 Cu 0.49677 0.80588 0.19367
 C517 C 0.46580 0.80078 0.15347
 C518 C 0.52861 0.84549 0.20036
 C519 C 0.52944 0.80071 0.15468
 C520 C 0.46521 0.84610 0.19884
 O521 O 0.85564 0.52573 0.82212
 O522 O 0.82164 0.47730 0.85332
 O523 O 0.85526 0.47890 0.81991
 O524 O 0.82208 0.52444 0.85573
 O525 O 0.79345 0.52684 0.82754
 O526 O 0.82617 0.47992 0.79207
 O527 O 0.79247 0.47921 0.82567
 O528 O 0.82707 0.52738 0.79381
 Cu529 Cu 0.84148 0.50144 0.84061
 Cu530 Cu 0.80684 0.50352 0.80698
 C531 C 0.84749 0.53452 0.80240
 C532 C 0.80118 0.47005 0.84501
 C533 C 0.84659 0.47177 0.79980
 C534 C 0.80210 0.53341 0.84788
 O535 O 0.18006 0.47802 0.14839
 O536 O 0.14717 0.52725 0.17996
 O537 O 0.18060 0.52528 0.14629
 O538 O 0.14668 0.48013 0.18204
 O539 O 0.17612 0.47995 0.20950
 O540 O 0.20922 0.52708 0.17450
 O541 O 0.17561 0.52748 0.20841
 O542 O 0.20968 0.47965 0.17561
 Cu543 Cu 0.16076 0.50259 0.16138
 Cu544 Cu 0.19557 0.50364 0.19482
 C545 C 0.20067 0.47066 0.15636
 C546 C 0.15549 0.53549 0.19981
 C547 C 0.20071 0.53389 0.15414
 C548 C 0.15547 0.47234 0.20189
 O549 O 0.85389 0.47281 0.17820
 O550 O 0.82101 0.52195 0.14674
 O551 O 0.85428 0.51968 0.18053
 O552 O 0.82070 0.47485 0.14421
 O553 O 0.79182 0.47285 0.17210
 O554 O 0.82492 0.51918 0.20801
 O555 O 0.79154 0.52048 0.17402
 O556 O 0.82513 0.47169 0.20625
 Cu557 Cu 0.84033 0.49743 0.15962
 Cu558 Cu 0.80537 0.49591 0.19286
 C559 C 0.84547 0.46415 0.19783
 C560 C 0.80057 0.52953 0.15481
 C561 C 0.84552 0.52699 0.20053
 C562 C 0.80053 0.46620 0.15182
 O563 O 0.18174 0.52139 0.85135
 O564 O 0.14730 0.47490 0.81772
 O565 O 0.18029 0.47453 0.85193
 O566 O 0.14889 0.52244 0.81713
 O567 O 0.17780 0.52083 0.78926
 O568 O 0.20978 0.47318 0.82465
 O569 O 0.17658 0.47338 0.79024
 O570 O 0.21091 0.52068 0.82370
 Cu571 Cu 0.16155 0.49843 0.83718
 Cu572 Cu 0.19669 0.49687 0.80417
 C573 C 0.20233 0.52879 0.84351
 C574 C 0.15595 0.46618 0.79822
 C575 C 0.20062 0.46598 0.84456
 C576 C 0.15785 0.52977 0.79721
 C577 C 0.25613 0.40222 0.09856
 C578 C 0.27845 0.41028 0.08865
 C579 C 0.29126 0.39572 0.07220
 C580 C 0.28215 0.37275 0.06565
 C581 C 0.26026 0.36432 0.07602
 C582 C 0.24725 0.37901 0.09223
 C583 C 0.24164 0.41850 0.11451
 C584 C 0.21640 0.42181 0.11045
 C585 C 0.20301 0.43846 0.12431
 C586 C 0.21452 0.45193 0.14273
 C587 C 0.23963 0.44809 0.14726
 C588 C 0.25309 0.43166 0.13317
 H589 H 0.30808 0.40250 0.06423
 H590 H 0.25301 0.34662 0.07108
 H591 H 0.18368 0.44099 0.12041
 H592 H 0.24902 0.45823 0.16129
 H593 H 0.23019 0.37232 0.09974
 H594 H 0.20718 0.41207 0.09603
 H595 H 0.28555 0.42819 0.09301
 H596 H 0.27250 0.42931 0.13676
 C597 C 0.74596 0.60077 0.09895
 C598 C 0.72024 0.59876 0.09754
 C599 C 0.70688 0.61331 0.08141
 C600 C 0.71901 0.63000 0.06641
 C601 C 0.74449 0.63273 0.06835
 C602 C 0.75785 0.61835 0.08456
 C603 C 0.76048 0.58356 0.11411
 C604 C 0.78273 0.57402 0.10540
 C605 C 0.79590 0.55688 0.11886
 C606 C 0.78708 0.54869 0.14133
 C607 C 0.76501 0.55843 0.15026
 C608 C 0.75185 0.57572 0.13680
 H609 H 0.68720 0.61092 0.07996
 H610 H 0.75407 0.64561 0.05686
 H611 H 0.81277 0.54966 0.11138
 H612 H 0.75778 0.55256 0.16756
 H613 H 0.77755 0.62069 0.08553
 H614 H 0.78968 0.57927 0.08781
 H615 H 0.71055 0.58523 0.10813
 H616 H 0.73492 0.58292 0.14415
 C617 C 0.74508 0.39962 0.90011
 C618 C 0.71938 0.40204 0.90126
 C619 C 0.70569 0.38765 0.91720
 C620 C 0.71749 0.37072 0.93227
 C621 C 0.74294 0.36757 0.93057
 C622 C 0.75661 0.38180 0.91454
 C623 C 0.75994 0.41665 0.88517
 C624 C 0.78225 0.42580 0.89415
 C625 C 0.79578 0.44275 0.88088
 C626 C 0.78728 0.45113 0.85833
 C627 C 0.76514 0.44178 0.84913
 C628 C 0.75163 0.42469 0.86240
 H629 H 0.68604 0.39036 0.91848
 H630 H 0.75226 0.35451 0.94211
 H631 H 0.81269 0.44966 0.88856
 H632 H 0.75816 0.44780 0.83176
 H633 H 0.77629 0.37914 0.91376
 H634 H 0.78898 0.42040 0.91181
 H635 H 0.70995 0.41577 0.89063
 H636 H 0.73466 0.41779 0.85485
 C637 C 0.26058 0.59303 0.90316
 C638 C 0.26558 0.61743 0.89715
 C639 C 0.27842 0.63238 0.91334
 C640 C 0.28676 0.62300 0.93557
 C641 C 0.28263 0.59832 0.94102
 C642 C 0.26950 0.58355 0.92509
 C643 C 0.24518 0.57761 0.88731
 C644 C 0.22521 0.56491 0.89717
 C645 C 0.21098 0.54960 0.88272
 C646 C 0.21662 0.54636 0.85812
 C647 C 0.23646 0.55930 0.84813
 C648 C 0.25049 0.57501 0.86258
 H649 H 0.28134 0.65138 0.90880
 H650 H 0.28914 0.59064 0.95793
 H651 H 0.19588 0.53985 0.89098
 H652 H 0.24119 0.55718 0.82922
 H653 H 0.26611 0.56471 0.92996
 H654 H 0.22065 0.56682 0.91615
 H655 H 0.25879 0.62511 0.88036
 H656 H 0.26585 0.58462 0.85463
 C657 C 0.09955 0.25847 0.40282
 C658 C 0.08948 0.28054 0.41115
 C659 C 0.07268 0.29346 0.39690
 C660 C 0.06598 0.28465 0.37402
 C661 C 0.07653 0.26304 0.36534
 C662 C 0.09312 0.24998 0.37967
 C663 C 0.11547 0.24361 0.41884
 C664 C 0.11108 0.21852 0.42145
 C665 C 0.12483 0.20465 0.43777
 C666 C 0.14345 0.21552 0.45166
 C667 C 0.14834 0.24050 0.44856
 C668 C 0.13434 0.25446 0.43241
 H669 H 0.06453 0.31006 0.40385
 H670 H 0.07144 0.25604 0.34772
 H671 H 0.12066 0.18543 0.43972
 H672 H 0.16254 0.24938 0.45906
 H673 H 0.10075 0.23311 0.37279
 H674 H 0.09647 0.20975 0.41140
 H675 H 0.09392 0.28732 0.42902
 H676 H 0.13817 0.27376 0.43060
 C677 C 0.09531 0.74211 0.59276
 C678 C 0.10084 0.74007 0.61751
 C679 C 0.08491 0.72761 0.63305
 C680 C 0.06349 0.71671 0.62394
 C681 C 0.05860 0.71787 0.59901
 C682 C 0.07423 0.73066 0.58361
 C683 C 0.11065 0.75719 0.57661
 C684 C 0.09961 0.77537 0.56239
 C685 C 0.11372 0.78959 0.54679
 C686 C 0.13912 0.78564 0.54476
 C687 C 0.15022 0.76744 0.55903
 C688 C 0.13611 0.75350 0.57505
 H689 H 0.08897 0.72689 0.65223
 H690 H 0.04230 0.70936 0.59162
 H691 H 0.10464 0.80339 0.53594
 H692 H 0.16977 0.76407 0.55783
 H693 H 0.06977 0.73184 0.56453
 H694 H 0.08003 0.77864 0.56347
 H695 H 0.11697 0.74886 0.62492
 H696 H 0.14494 0.73951 0.58587
 C697 C 0.89997 0.73968 0.40312
 C698 C 0.90964 0.71713 0.41068
 C699 C 0.92606 0.70436 0.39594
 C700 C 0.93278 0.71378 0.37330
 C701 C 0.92248 0.73581 0.36529
 C702 C 0.90629 0.74873 0.38014
 C703 C 0.88464 0.75442 0.41977
 C704 C 0.88968 0.77931 0.42306
 C705 C 0.87638 0.79304 0.43980
 C706 C 0.85753 0.78226 0.45345
 C707 C 0.85208 0.75748 0.44978
 C708 C 0.86565 0.74364 0.43322
 H709 H 0.93403 0.68745 0.40240
 H710 H 0.92759 0.74333 0.34788
 H711 H 0.88097 0.81211 0.44216
 H712 H 0.83769 0.74866 0.46006
 H713 H 0.89895 0.76597 0.37382
 H714 H 0.90440 0.78802 0.41314
 H715 H 0.90528 0.70987 0.42839
 H716 H 0.86134 0.72450 0.43094
 C717 C 0.90092 0.25909 0.59740
 C718 C 0.90763 0.24994 0.62026
 C719 C 0.92385 0.26291 0.63503
 C720 C 0.93379 0.28508 0.62706
 C721 C 0.92671 0.29456 0.60453
 C722 C 0.91027 0.28174 0.58987
 C723 C 0.88544 0.24441 0.58085
 C724 C 0.86620 0.25526 0.56772
 C725 C 0.85248 0.24154 0.55120
 C726 C 0.85800 0.21680 0.54725
 C727 C 0.87710 0.20594 0.56059
 C728 C 0.89057 0.21956 0.57730
 H729 H 0.92926 0.25535 0.65236
 H730 H 0.93441 0.31157 0.59808
 H731 H 0.83790 0.25042 0.54117
 H732 H 0.88175 0.18690 0.55799
 H733 H 0.90560 0.28907 0.57224
 H734 H 0.86180 0.27436 0.57023
 H735 H 0.90055 0.23261 0.62655
 H736 H 0.90549 0.21081 0.58698
 C737 C 0.40131 0.09755 0.25335
 C738 C 0.38439 0.08207 0.24176
 C739 C 0.37002 0.06593 0.25520
 C740 C 0.37211 0.06514 0.28046
 C741 C 0.38822 0.08114 0.29223
 C742 C 0.40276 0.09719 0.27879
 C743 C 0.41833 0.11292 0.23890
 C744 C 0.42512 0.13637 0.24674
 C745 C 0.44211 0.15017 0.23360
 C746 C 0.45260 0.14084 0.21231
 C747 C 0.44550 0.11758 0.20428
 C748 C 0.42866 0.10378 0.21744
 H749 H 0.35758 0.05371 0.24591
 H750 H 0.39009 0.08060 0.31174
 H751 H 0.44714 0.16808 0.24020
 H752 H 0.45332 0.10977 0.18803
 H753 H 0.41578 0.10863 0.28826
 H754 H 0.41728 0.14407 0.26303
 H755 H 0.38248 0.08221 0.22226
 H756 H 0.42423 0.08562 0.21111
 C757 C 0.59533 0.09735 0.74286
 C758 C 0.59267 0.09636 0.71753
 C759 C 0.60711 0.08046 0.70378
 C760 C 0.62435 0.06526 0.71512
 C761 C 0.62761 0.06668 0.74023
 C762 C 0.61331 0.08264 0.75397
 C763 C 0.57859 0.11264 0.75777
 C764 C 0.56960 0.10375 0.77992
 C765 C 0.55312 0.11749 0.79363
 C766 C 0.54508 0.14046 0.78550
 C767 C 0.55422 0.14953 0.76348
 C768 C 0.57082 0.13578 0.74977
 H769 H 0.60434 0.07944 0.68439
 H770 H 0.64093 0.05508 0.74920
 H771 H 0.54636 0.10988 0.81043
 H772 H 0.54844 0.16719 0.75675
 H773 H 0.61615 0.08328 0.77336
 H774 H 0.57480 0.08583 0.78643
 H775 H 0.57883 0.10720 0.70843
 H776 H 0.57761 0.14328 0.73293
 C777 C 0.39824 0.90127 0.74736
 C778 C 0.38128 0.91651 0.75922
 C779 C 0.36654 0.93260 0.74603
 C780 C 0.36830 0.93358 0.72076
 C781 C 0.38438 0.91777 0.70872
 C782 C 0.39929 0.90176 0.72191
 C783 C 0.41575 0.88610 0.76154
 C784 C 0.42280 0.86277 0.75354
 C785 C 0.44027 0.84919 0.76639
 C786 C 0.45099 0.85864 0.78755
 C787 C 0.44364 0.88178 0.79572
 C788 C 0.42631 0.89536 0.78284
 H789 H 0.35413 0.94470 0.75553
 H790 H 0.38601 0.91847 0.68920
 H791 H 0.44548 0.83137 0.75969
 H792 H 0.45162 0.88966 0.81187
 H793 H 0.41233 0.89051 0.71223
 H794 H 0.41480 0.85500 0.73735
 H795 H 0.37967 0.91625 0.77874
 H796 H 0.42170 0.91344 0.78928
 C797 C 0.59424 0.90351 0.25881
 C798 C 0.61908 0.89770 0.26257
 C799 C 0.63427 0.91359 0.27559
 C800 C 0.62469 0.93526 0.28537
 C801 C 0.59962 0.94046 0.28239
 C802 C 0.58460 0.92486 0.26908
 C803 C 0.57847 0.88810 0.24331
 C804 C 0.56499 0.89886 0.22444
 C805 C 0.54931 0.88481 0.21018
 C806 C 0.54646 0.85975 0.21471
 C807 C 0.56014 0.84889 0.23347
 C808 C 0.57623 0.86294 0.24751
 H809 H 0.65358 0.90930 0.27758
 H810 H 0.59181 0.95696 0.28995
 H811 H 0.53898 0.89373 0.19593
 H812 H 0.55833 0.82960 0.23732
 H813 H 0.56544 0.92956 0.26661
 H814 H 0.56659 0.91821 0.22077
 H815 H 0.62688 0.88135 0.25471
 H816 H 0.58644 0.85431 0.26202
 C817 C 0.39958 0.25528 0.90823
 C818 C 0.37633 0.26408 0.90148
 C819 C 0.36199 0.27723 0.91799
 C820 C 0.37065 0.28197 0.94162
 C821 C 0.39450 0.27398 0.94772
 C822 C 0.40862 0.26070 0.93136
 C823 C 0.41440 0.24001 0.89163
 C824 C 0.42569 0.21869 0.90034
 C825 C 0.44101 0.20492 0.88544
 C826 C 0.44559 0.21226 0.86149
 C827 C 0.43380 0.23329 0.85254
 C828 C 0.41821 0.24696 0.86745
 H829 H 0.34369 0.28277 0.91259
 H830 H 0.40242 0.27817 0.96521
 H831 H 0.44973 0.18882 0.89291
 H832 H 0.43693 0.23938 0.83416
 H833 H 0.42676 0.25470 0.93680
 H834 H 0.42279 0.21276 0.91883
 H835 H 0.36895 0.26009 0.88372
 H836 H 0.40976 0.26337 0.86035
 C837 C 0.60269 0.74529 0.90497
 C838 C 0.59979 0.71981 0.90633
 C839 C 0.61323 0.70612 0.92313
 C840 C 0.62966 0.71770 0.93888
 C841 C 0.63318 0.74294 0.93715
 C842 C 0.61990 0.75662 0.92027
 C843 C 0.58681 0.76017 0.88873
 C844 C 0.57744 0.78265 0.89673
 C845 C 0.56138 0.79612 0.88226
 C846 C 0.55414 0.78742 0.85943
 C847 C 0.56384 0.76518 0.85115
 C848 C 0.58004 0.75170 0.86565
 H849 H 0.61031 0.68662 0.92435
 H850 H 0.64594 0.75207 0.94915
 H851 H 0.55417 0.81312 0.88926
 H852 H 0.55867 0.75801 0.83362
 H853 H 0.62292 0.77612 0.91940
 H854 H 0.58190 0.78953 0.91456
 H855 H 0.58649 0.71056 0.89504
 H856 H 0.58718 0.73460 0.85882
 C857 C 0.40190 0.74396 0.09194
 C858 C 0.37868 0.73523 0.09871
 C859 C 0.36432 0.72204 0.08224
 C860 C 0.37296 0.71717 0.05865
 C861 C 0.39677 0.72513 0.05253
 C862 C 0.41091 0.73845 0.06884
 C863 C 0.41674 0.75925 0.10850
 C864 C 0.42789 0.78057 0.09976
 C865 C 0.44320 0.79437 0.11463
 C866 C 0.44793 0.78705 0.13857
 C867 C 0.43629 0.76601 0.14755
 C868 C 0.42069 0.75231 0.13268
 H869 H 0.34604 0.71657 0.08765
 H870 H 0.40467 0.72084 0.03506
 H871 H 0.45182 0.81048 0.10714
 H872 H 0.43952 0.75994 0.16594
 H873 H 0.42903 0.74442 0.06340
 H874 H 0.42488 0.78648 0.08127
 H875 H 0.37133 0.73932 0.11645
 H876 H 0.41234 0.73589 0.13980
 C877 C 0.60144 0.25540 0.09330
 C878 C 0.61854 0.24420 0.07780
 C879 C 0.63158 0.25799 0.06090
 C880 C 0.62792 0.28324 0.05933
 C881 C 0.61157 0.29469 0.07524
 C882 C 0.59837 0.28088 0.09206
 C883 C 0.58589 0.24042 0.10966
 C884 C 0.57938 0.24880 0.13284
 C885 C 0.56352 0.23519 0.14748
 C886 C 0.55390 0.21291 0.13927
 C887 C 0.56088 0.20430 0.11634
 C888 C 0.57660 0.21790 0.10171
 H889 H 0.64428 0.24896 0.04879
 H890 H 0.60855 0.31419 0.07415
 H891 H 0.55855 0.24229 0.16509
 H892 H 0.55371 0.18727 0.10939
 H893 H 0.58514 0.29005 0.10349
 H894 H 0.58648 0.26592 0.13962
 H895 H 0.62168 0.22470 0.07857
 H896 H 0.58085 0.21109 0.08382
 C897 C 0.25124 0.09190 0.60195
 C898 C 0.27618 0.09615 0.60715
 C899 C 0.28954 0.07976 0.62148
 C900 C 0.27844 0.05842 0.63046
 C901 C 0.25327 0.05476 0.62606
 C902 C 0.23983 0.07137 0.61222
 C903 C 0.23742 0.10802 0.58496
 C904 C 0.21958 0.09806 0.56942
 C905 C 0.20686 0.11281 0.55308
 C906 C 0.21195 0.13784 0.55147
 C907 C 0.22979 0.14793 0.56684
 C908 C 0.24226 0.13321 0.58356
 H909 H 0.30891 0.08309 0.62443
 H910 H 0.24394 0.03896 0.63340
 H911 H 0.19343 0.10445 0.54124
 H912 H 0.23399 0.16722 0.56605
 H913 H 0.22048 0.06792 0.60940
 H914 H 0.21576 0.07869 0.56942
 H915 H 0.28569 0.11160 0.59939
 H916 H 0.25559 0.14162 0.59545
 C917 C 0.74298 0.09248 0.40414
 C918 C 0.73212 0.07172 0.41446
 C919 C 0.71898 0.05538 0.40010
 C920 C 0.71692 0.05917 0.37503
 C921 C 0.72719 0.08028 0.36478
 C922 C 0.73999 0.09692 0.37927
 C923 C 0.75818 0.10879 0.41929
 C924 C 0.77689 0.09891 0.43378
 C925 C 0.79094 0.11393 0.44872
 C926 C 0.78629 0.13913 0.44982
 C927 C 0.76768 0.14908 0.43514
 C928 C 0.75391 0.13405 0.41979
 H929 H 0.71087 0.03942 0.40843
 H930 H 0.72574 0.08357 0.34550
 H931 H 0.80506 0.10570 0.45989
 H932 H 0.76373 0.16844 0.43561
 H933 H 0.74825 0.11281 0.37096
 H934 H 0.78063 0.07950 0.43352
 H935 H 0.73394 0.06811 0.43366
 H936 H 0.73952 0.14202 0.40877
 C937 C 0.74672 0.90806 0.59946
 C938 C 0.72155 0.90408 0.60363
 C939 C 0.70780 0.92056 0.61742
 C940 C 0.71874 0.94173 0.62697
 C941 C 0.74407 0.94523 0.62346
 C942 C 0.75788 0.92855 0.61010
 C943 C 0.76108 0.89163 0.58327
 C944 C 0.77965 0.90123 0.56837
 C945 C 0.79284 0.88616 0.55273
 C946 C 0.78756 0.86116 0.55120
 C947 C 0.76903 0.85143 0.56600
 C948 C 0.75605 0.86647 0.58199
 H949 H 0.68830 0.91738 0.61959
 H950 H 0.75326 0.96091 0.63120
 H951 H 0.80681 0.89427 0.54135
 H952 H 0.76464 0.83219 0.56528
 H953 H 0.77734 0.93184 0.60802
 H954 H 0.78369 0.92055 0.56832
 H955 H 0.71221 0.88872 0.59552
 H956 H 0.74217 0.85833 0.59341
 C957 C 0.25374 0.90841 0.39936
 C958 C 0.24281 0.92922 0.38902
 C959 C 0.25669 0.94563 0.37547
 C960 C 0.28184 0.94149 0.37140
 C961 C 0.29248 0.91991 0.38046
 C962 C 0.27867 0.90372 0.39453
 C963 C 0.23939 0.89244 0.41598
 C964 C 0.24373 0.86714 0.41725
 C965 C 0.23059 0.85253 0.43351
 C966 C 0.21258 0.86285 0.44852
 C967 C 0.20806 0.88802 0.44708
 C968 C 0.22143 0.90264 0.43122
 H969 H 0.24771 0.96163 0.36805
 H970 H 0.31183 0.91622 0.37776
 H971 H 0.23437 0.83314 0.43419
 H972 H 0.19453 0.89655 0.45866
 H973 H 0.28781 0.88804 0.40234
 H974 H 0.25714 0.85856 0.40560
 H975 H 0.22348 0.93302 0.39155
 H976 H 0.21799 0.92209 0.43133
 C977 C 0.09648 0.39854 0.74324
 C978 C 0.08530 0.37810 0.75392
 C979 C 0.06862 0.36395 0.74083
 C980 C 0.06268 0.36998 0.71678
 C981 C 0.07434 0.39005 0.70590
 C982 C 0.09113 0.40412 0.71896
 C983 C 0.11260 0.41476 0.75772
 C984 C 0.13427 0.42441 0.74784
 C985 C 0.14868 0.44071 0.76116
 C986 C 0.14159 0.44784 0.78457
 C987 C 0.12010 0.43788 0.79455
 C988 C 0.10582 0.42149 0.78131
 H989 H 0.06000 0.34847 0.74957
 H990 H 0.06978 0.39536 0.68753
 H991 H 0.16514 0.44805 0.75296
 H992 H 0.11413 0.44298 0.81253
 H993 H 0.09921 0.41995 0.71036
 H994 H 0.14004 0.41939 0.72977
 H995 H 0.08930 0.37320 0.77250
 H996 H 0.08906 0.41460 0.78930
 C997 C 0.09555 0.60268 0.25488
 C998 C 0.08385 0.62299 0.24440
 C999 C 0.06702 0.63678 0.25770
 C1000 C 0.06147 0.63053 0.28176
 C1001 C 0.07359 0.61055 0.29242
 C1002 C 0.09050 0.59683 0.27914
 C1003 C 0.11193 0.58685 0.24023
 C1004 C 0.13369 0.57725 0.25012
 C1005 C 0.14823 0.56109 0.23677
 C1006 C 0.14123 0.55406 0.21329
 C1007 C 0.11975 0.56409 0.20323
 C1008 C 0.10531 0.58033 0.21652
 H1009 H 0.05803 0.65218 0.24912
 H1010 H 0.06933 0.60507 0.31078
 H1011 H 0.16467 0.55371 0.24504
 H1012 H 0.11383 0.55906 0.18520
 H1013 H 0.09893 0.58108 0.28760
 H1014 H 0.13939 0.58215 0.26826
 H1015 H 0.08759 0.62810 0.22583
 H1016 H 0.08851 0.58718 0.20850
 C1017 C 0.90656 0.40023 0.25506
 C1018 C 0.90046 0.37648 0.26238
 C1019 C 0.91714 0.36254 0.27591
 C1020 C 0.94017 0.37220 0.28260
 C1021 C 0.94556 0.39646 0.27599
 C1022 C 0.92909 0.41017 0.26227
 C1023 C 0.89000 0.41469 0.23938
 C1024 C 0.89945 0.42626 0.21875
 C1025 C 0.88465 0.44157 0.20480
 C1026 C 0.86011 0.44589 0.21134
 C1027 C 0.85041 0.43373 0.23162
 C1028 C 0.86522 0.41809 0.24544
 H1029 H 0.91242 0.34385 0.28024
 H1030 H 0.96261 0.40495 0.28152
 H1031 H 0.89270 0.45062 0.18930
 H1032 H 0.83155 0.43666 0.23706
 H1033 H 0.93396 0.42865 0.25727
 H1034 H 0.91846 0.42369 0.21359
 H1035 H 0.88317 0.36845 0.25692
 H1036 H 0.85759 0.40937 0.26133
 C1037 C 0.90916 0.59851 0.74609
 C1038 C 0.90305 0.62253 0.73966
 C1039 C 0.91955 0.63682 0.72639
 C1040 C 0.94243 0.62726 0.71906
 C1041 C 0.94788 0.60278 0.72483
 C1042 C 0.93158 0.58871 0.73832
 C1043 C 0.89266 0.58365 0.76138
 C1044 C 0.90220 0.57115 0.78148
 C1045 C 0.88725 0.55587 0.79524
 C1046 C 0.86247 0.55251 0.78901
 C1047 C 0.85274 0.56546 0.76919
 C1048 C 0.86769 0.58108 0.75560
 H1049 H 0.91478 0.65565 0.72268
 H1050 H 0.96481 0.59441 0.71878
 H1051 H 0.89532 0.54615 0.81036
 H1052 H 0.83370 0.56327 0.76400
 H1053 H 0.93646 0.57004 0.74264
 H1054 H 0.92135 0.57306 0.78643
 H1055 H 0.88587 0.63048 0.74557
 H1056 H 0.85998 0.59051 0.74012
 C1057 C 0.74862 0.60121 0.90853
 C1058 C 0.76005 0.61212 0.92861
 C1059 C 0.74647 0.62589 0.94505
 C1060 C 0.72113 0.62953 0.94169
 C1061 C 0.70994 0.61979 0.92086
 C1062 C 0.72346 0.60559 0.90462
 C1063 C 0.76267 0.58440 0.89254
 C1064 C 0.75764 0.58285 0.86759
 C1065 C 0.77042 0.56632 0.85296
 C1066 C 0.78872 0.55127 0.86293
 C1067 C 0.79393 0.55300 0.88775
 C1068 C 0.78095 0.56918 0.90239
 H1069 H 0.75582 0.63378 0.96049
 H1070 H 0.69042 0.62209 0.91780
 H1071 H 0.76611 0.56544 0.83385
 H1072 H 0.80773 0.54143 0.89602
 H1073 H 0.71396 0.59728 0.88952
 H1074 H 0.74393 0.59450 0.85931
 H1075 H 0.77953 0.60987 0.93179
 H1076 H 0.78493 0.56933 0.92159
 C1077 C 0.25624 0.40242 0.90768
 C1078 C 0.26227 0.41173 0.93054
 C1079 C 0.27516 0.39753 0.94721
 C1080 C 0.28205 0.37335 0.94170
 C1081 C 0.27667 0.36440 0.91834
 C1082 C 0.26397 0.37881 0.90151
 C1083 C 0.24130 0.41730 0.89078
 C1084 C 0.24836 0.42043 0.86653
 C1085 C 0.23493 0.43591 0.85124
 C1086 C 0.21401 0.44819 0.85987
 C1087 C 0.20657 0.44430 0.88391
 C1088 C 0.22013 0.42915 0.89920
 H1089 H 0.27991 0.40561 0.96447
 H1090 H 0.28138 0.34586 0.91339
 H1091 H 0.24109 0.43852 0.83280
 H1092 H 0.19057 0.45347 0.89115
 H1093 H 0.25947 0.37122 0.88397
 H1094 H 0.26467 0.41151 0.85966
 H1095 H 0.25703 0.43013 0.93551
 H1096 H 0.21415 0.42678 0.91775
 C1097 C 0.25736 0.59724 0.09195
 C1098 C 0.26312 0.58826 0.06891
 C1099 C 0.27622 0.60249 0.05250
 C1100 C 0.28369 0.62637 0.05849
 C1101 C 0.27855 0.63501 0.08201
 C1102 C 0.26559 0.62056 0.09856
 C1103 C 0.24224 0.58233 0.10859
 C1104 C 0.22104 0.57074 0.09988
 C1105 C 0.20729 0.55557 0.11491
 C1106 C 0.21453 0.55143 0.13899
 C1107 C 0.23548 0.56343 0.14791
 C1108 C 0.24913 0.57889 0.13287
 H1109 H 0.28072 0.59462 0.03509
 H1110 H 0.28362 0.65333 0.08731
 H1111 H 0.19125 0.54666 0.10745
 H1112 H 0.24148 0.56064 0.16640
 H1113 H 0.26128 0.62792 0.11623
 H1114 H 0.21516 0.57335 0.08132
 H1115 H 0.25752 0.57008 0.06358
 H1116 H 0.26545 0.58758 0.13998
 C1117 C 0.74664 0.39946 0.09036
 C1118 C 0.72147 0.39522 0.09413
 C1119 C 0.70793 0.38117 0.07777
 C1120 C 0.71912 0.37144 0.05695
 C1121 C 0.74448 0.37496 0.05370
 C1122 C 0.75807 0.38857 0.07027
 C1123 C 0.76075 0.41604 0.10655
 C1124 C 0.77918 0.43113 0.09691
 C1125 C 0.79227 0.44704 0.11175
 C1126 C 0.78700 0.44864 0.13655
 C1127 C 0.76853 0.43374 0.14630
 C1128 C 0.75565 0.41746 0.13148
 H1129 H 0.68840 0.37895 0.08073
 H1130 H 0.75383 0.36707 0.03829
 H1131 H 0.80619 0.45852 0.10365
 H1132 H 0.76418 0.43453 0.16540
 H1133 H 0.77756 0.39071 0.06719
 H1134 H 0.78322 0.43108 0.07774
 H1135 H 0.71196 0.40350 0.10922
 H1136 H 0.74183 0.40591 0.13961
 C1137 C 0.90498 0.74522 0.60363
 C1138 C 0.91095 0.72090 0.59814
 C1139 C 0.92760 0.70794 0.61252
 C1140 C 0.93844 0.71894 0.63286
 C1141 C 0.93193 0.74304 0.63874
 C1142 C 0.91542 0.75606 0.62425
 C1143 C 0.88894 0.75955 0.58718
 C1144 C 0.89544 0.78342 0.58048
 C1145 C 0.88124 0.79644 0.56378
 C1146 C 0.86012 0.78595 0.55355
 C1147 C 0.85329 0.76228 0.56070
 C1148 C 0.86762 0.74919 0.57725
 H1149 H 0.93270 0.68959 0.60725
 H1150 H 0.94001 0.75191 0.65435
 H1151 H 0.88699 0.81463 0.55867
 H1152 H 0.83712 0.75369 0.55316
 H1153 H 0.91096 0.77469 0.62903
 H1154 H 0.91193 0.79177 0.58762
 H1155 H 0.90347 0.71220 0.58217
 H1156 H 0.86207 0.73090 0.58226
 C1157 C 0.90618 0.25532 0.39915
 C1158 C 0.91150 0.27978 0.40467
 C1159 C 0.92819 0.29299 0.39066
 C1160 C 0.93974 0.28210 0.37065
 C1161 C 0.93406 0.25779 0.36485
 C1162 C 0.91748 0.24454 0.37895
 C1163 C 0.88983 0.24081 0.41508
 C1164 C 0.89633 0.21693 0.42180
 C1165 C 0.88178 0.20369 0.43793
 C1166 C 0.86029 0.21397 0.44762
 C1167 C 0.85345 0.23765 0.44044
 C1168 C 0.86812 0.25096 0.42442
 H1169 H 0.93268 0.31151 0.39588
 H1170 H 0.94272 0.24899 0.34952
 H1171 H 0.88757 0.18550 0.44308
 H1172 H 0.83700 0.24610 0.44758
 H1173 H 0.91355 0.22581 0.37413
 H1174 H 0.91310 0.20872 0.41512
 H1175 H 0.90339 0.28844 0.42036
 H1176 H 0.86253 0.26924 0.41937
 C1177 C 0.09314 0.25680 0.59594
 C1178 C 0.09679 0.25819 0.62106
 C1179 C 0.08036 0.27132 0.63551
 C1180 C 0.06036 0.28355 0.62494
 C1181 C 0.05738 0.28296 0.59971
 C1182 C 0.07347 0.26949 0.58537
 C1183 C 0.10911 0.24139 0.58074
 C1184 C 0.09859 0.22383 0.56549
 C1185 C 0.11334 0.20969 0.55039
 C1186 C 0.13887 0.21315 0.54992
 C1187 C 0.14945 0.23058 0.56538
 C1188 C 0.13468 0.24442 0.58088
 H1189 H 0.08293 0.27157 0.65495
 H1190 H 0.04220 0.29248 0.59122
 H1191 H 0.10466 0.19648 0.53861
 H1192 H 0.16910 0.23357 0.56539
 H1193 H 0.07050 0.26882 0.56599
 H1194 H 0.07890 0.22111 0.56526
 H1195 H 0.11184 0.24846 0.62953
 H1196 H 0.14311 0.25793 0.59251
 C1197 C 0.09261 0.74387 0.40206
 C1198 C 0.07320 0.73121 0.41300
 C1199 C 0.05696 0.71754 0.39900
 C1200 C 0.05951 0.71677 0.37373
 C1201 C 0.07925 0.72900 0.36280
 C1202 C 0.09585 0.74229 0.37692
 C1203 C 0.10861 0.75956 0.41691
 C1204 C 0.13413 0.75603 0.41739
 C1205 C 0.14885 0.77004 0.43282
 C1206 C 0.13827 0.78813 0.44752
 C1207 C 0.11282 0.79211 0.44633
 C1208 C 0.09812 0.77780 0.43135
 H1209 H 0.04200 0.70803 0.40778
 H1210 H 0.08150 0.72860 0.34333
 H1211 H 0.16843 0.76663 0.43339
 H1212 H 0.10413 0.80580 0.45756
 H1213 H 0.11070 0.75201 0.36818
 H1214 H 0.14251 0.74199 0.40637
 H1215 H 0.07054 0.73208 0.43241
 H1216 H 0.07847 0.78086 0.43111
 C1217 C 0.59998 0.90591 0.74254
 C1218 C 0.61707 0.92165 0.75351
 C1219 C 0.63047 0.93822 0.73960
 C1220 C 0.62717 0.93924 0.71446
 C1221 C 0.61088 0.92303 0.70327
 C1222 C 0.59734 0.90651 0.71719
 C1223 C 0.58408 0.88994 0.75759
 C1224 C 0.57446 0.89859 0.77957
 C1225 C 0.55863 0.88417 0.79333
 C1226 C 0.55189 0.86077 0.78542
 C1227 C 0.56172 0.85193 0.76361
 C1228 C 0.57766 0.86635 0.74985
 H1229 H 0.64308 0.95060 0.74845
 H1230 H 0.60810 0.92372 0.68387
 H1231 H 0.55130 0.89160 0.80998
 H1232 H 0.55694 0.83394 0.75705
 H1233 H 0.58416 0.89486 0.70820
 H1234 H 0.57864 0.91681 0.78587
 H1235 H 0.61989 0.92136 0.77290
 H1236 H 0.58498 0.85904 0.73316
 C1237 C 0.39704 0.90603 0.25304
 C1238 C 0.38606 0.92653 0.24215
 C1239 C 0.37286 0.94327 0.25594
 C1240 C 0.36976 0.93977 0.28097
 C1241 C 0.37922 0.91838 0.29160
 C1242 C 0.39298 0.90185 0.27785
 C1243 C 0.41381 0.89009 0.23878
 C1244 C 0.41573 0.86489 0.24345
 C1245 C 0.43234 0.85042 0.23046
 C1246 C 0.44707 0.86080 0.21233
 C1247 C 0.44495 0.88585 0.20750
 C1248 C 0.42875 0.90032 0.22068
 H1249 H 0.36506 0.95911 0.24702
 H1250 H 0.37722 0.91515 0.31085
 H1251 H 0.43357 0.83112 0.23450
 H1252 H 0.45631 0.89447 0.19389
 H1253 H 0.40127 0.88640 0.28693
 H1254 H 0.40434 0.85631 0.25704
 H1255 H 0.38794 0.92990 0.22294
 H1256 H 0.42841 0.91972 0.21700
 C1257 C 0.59814 0.09277 0.25797
 C1258 C 0.58874 0.06983 0.26420
 C1259 C 0.60280 0.05340 0.27759
 C1260 C 0.62691 0.05923 0.28487
 C1261 C 0.63592 0.08273 0.27936
 C1262 C 0.62163 0.09934 0.26611
 C1263 C 0.58351 0.10925 0.24231
 C1264 C 0.57983 0.13383 0.24848
 C1265 C 0.56442 0.14864 0.23439
 C1266 C 0.55275 0.13917 0.21371
 C1267 C 0.55722 0.11481 0.20715
 C1268 C 0.57232 0.10001 0.22135
 H1269 H 0.59470 0.03599 0.28231
 H1270 H 0.65444 0.08789 0.28430
 H1271 H 0.56137 0.16736 0.23987
 H1272 H 0.54856 0.10693 0.19134
 H1273 H 0.62928 0.11695 0.26146
 H1274 H 0.58824 0.14133 0.26461
 H1275 H 0.57042 0.06457 0.25863
 H1276 H 0.57512 0.08119 0.21604
 C1277 C 0.39456 0.09267 0.74819
 C1278 C 0.38381 0.07218 0.75923
 C1279 C 0.37034 0.05549 0.74563
 C1280 C 0.36674 0.05903 0.72065
 C1281 C 0.37605 0.08039 0.70989
 C1282 C 0.39005 0.09686 0.72344
 C1283 C 0.41146 0.10867 0.76222
 C1284 C 0.41310 0.13387 0.75752
 C1285 C 0.42980 0.14843 0.77027
 C1286 C 0.44491 0.13815 0.78821
 C1287 C 0.44307 0.11309 0.79310
 C1288 C 0.42676 0.09852 0.78014
 H1289 H 0.36268 0.03968 0.75467
 H1290 H 0.37369 0.08363 0.69068
 H1291 H 0.43079 0.16774 0.76620
 H1292 H 0.45471 0.10456 0.80658
 H1293 H 0.39816 0.11230 0.71424
 H1294 H 0.40142 0.14239 0.74408
 H1295 H 0.38606 0.06879 0.77840
 H1296 H 0.42661 0.07913 0.78385
 C1297 C 0.59841 0.74553 0.09679
 C1298 C 0.59595 0.72001 0.09532
 C1299 C 0.61029 0.70657 0.07915
 C1300 C 0.62722 0.71842 0.06414
 C1301 C 0.63026 0.74372 0.06597
 C1302 C 0.61606 0.75715 0.08222
 C1303 C 0.58175 0.76011 0.11239
 C1304 C 0.57233 0.78246 0.10404
 C1305 C 0.55578 0.79578 0.11802
 C1306 C 0.54807 0.78704 0.14068
 C1307 C 0.55770 0.76485 0.14926
 C1308 C 0.57439 0.75153 0.13526
 H1309 H 0.60774 0.68702 0.07783
 H1310 H 0.64338 0.75305 0.05454
 H1311 H 0.54863 0.81275 0.11080
 H1312 H 0.55218 0.75766 0.16668
 H1313 H 0.61873 0.77669 0.08321
 H1314 H 0.57723 0.78940 0.08634
 H1315 H 0.58234 0.71054 0.10605
 H1316 H 0.58153 0.73451 0.14234
 C1317 C 0.40531 0.25726 0.09559
 C1318 C 0.41445 0.26701 0.07392
 C1319 C 0.39912 0.28017 0.05845
 C1320 C 0.37423 0.28352 0.06413
 C1321 C 0.36514 0.27423 0.08607
 C1322 C 0.38065 0.26135 0.10181
 C1323 C 0.42144 0.24208 0.11104
 C1324 C 0.42393 0.24682 0.13589
 C1325 C 0.44033 0.23312 0.14997
 C1326 C 0.45411 0.21417 0.13949
 C1327 C 0.45104 0.20909 0.11476
 C1328 C 0.43502 0.22301 0.10066
 H1329 H 0.40655 0.28736 0.04173
 H1330 H 0.34597 0.27650 0.09072
 H1331 H 0.44228 0.23738 0.16901
 H1332 H 0.46143 0.19466 0.10614
 H1333 H 0.37322 0.25389 0.11841
 H1334 H 0.41367 0.26150 0.14423
 H1335 H 0.43347 0.26432 0.06891
 H1336 H 0.43322 0.21890 0.08157
 C1337 C 0.59629 0.25547 0.90180
 C1338 C 0.61431 0.24401 0.91614
 C1339 C 0.62858 0.25756 0.93223
 C1340 C 0.62525 0.28282 0.93413
 C1341 C 0.60798 0.29453 0.91931
 C1342 C 0.59357 0.28097 0.90328
 C1343 C 0.57951 0.24073 0.88646
 C1344 C 0.57168 0.24916 0.86366
 C1345 C 0.55494 0.23564 0.84991
 C1346 C 0.54571 0.21338 0.85868
 C1347 C 0.55386 0.20481 0.88129
 C1348 C 0.57047 0.21833 0.89502
 H1349 H 0.64195 0.24833 0.94354
 H1350 H 0.60520 0.31405 0.92069
 H1351 H 0.54907 0.24270 0.83253
 H1352 H 0.54704 0.18781 0.88866
 H1353 H 0.57969 0.29032 0.89272
 H1354 H 0.57851 0.26622 0.85644
 H1355 H 0.61718 0.22449 0.91512
 H1356 H 0.57573 0.21150 0.91267
 C1357 C 0.40730 0.74102 0.90447
 C1358 C 0.38287 0.73589 0.89808
 C1359 C 0.36775 0.72278 0.91391
 C1360 C 0.37699 0.71434 0.93616
 C1361 C 0.40170 0.71864 0.94200
 C1362 C 0.41664 0.73200 0.92641
 C1363 C 0.42292 0.75651 0.88889
 C1364 C 0.43591 0.77606 0.89908
 C1365 C 0.45141 0.79033 0.88484
 C1366 C 0.45453 0.78513 0.86014
 C1367 C 0.44130 0.76571 0.84985
 C1368 C 0.42544 0.75165 0.86408
 H1369 H 0.34873 0.71973 0.90911
 H1370 H 0.40926 0.71207 0.95894
 H1371 H 0.46138 0.80511 0.89332
 H1372 H 0.44330 0.76133 0.83085
 H1373 H 0.43551 0.73545 0.93156
 H1374 H 0.43406 0.78030 0.91814
 H1375 H 0.37529 0.74274 0.88127
 H1376 H 0.41562 0.73661 0.85587
 C1377 C 0.74323 0.90034 0.40293
 C1378 C 0.72073 0.91008 0.41078
 C1379 C 0.70785 0.92665 0.39629
 C1380 C 0.71711 0.93349 0.37362
 C1381 C 0.73918 0.92330 0.36540
 C1382 C 0.75222 0.90693 0.37999
 C1383 C 0.75786 0.88442 0.41918
 C1384 C 0.78306 0.88870 0.42240
 C1385 C 0.79662 0.87488 0.43895
 C1386 C 0.78533 0.85630 0.45247
 C1387 C 0.76025 0.85155 0.44877
 C1388 C 0.74661 0.86559 0.43240
 H1389 H 0.69089 0.93452 0.40290
 H1390 H 0.74655 0.92848 0.34794
 H1391 H 0.81592 0.87895 0.44136
 H1392 H 0.75103 0.83738 0.45894
 H1393 H 0.76943 0.89955 0.37346
 H1394 H 0.79213 0.90326 0.41263
 H1395 H 0.71353 0.90554 0.42847
 H1396 H 0.72724 0.86182 0.43012
 C1397 C 0.25257 0.90097 0.60077
 C1398 C 0.27837 0.90184 0.59964
 C1399 C 0.29152 0.91774 0.61456
 C1400 C 0.27909 0.93305 0.63073
 C1401 C 0.25350 0.93163 0.63258
 C1402 C 0.24035 0.91563 0.61783
 C1403 C 0.23837 0.88608 0.58320
 C1404 C 0.21662 0.89538 0.57304
 C1405 C 0.20366 0.88208 0.55575
 C1406 C 0.21218 0.85917 0.54804
 C1407 C 0.23382 0.84970 0.55831
 C1408 C 0.24676 0.86301 0.57574
 H1409 H 0.31129 0.91881 0.61286
 H1410 H 0.24370 0.94336 0.64504
 H1411 H 0.18713 0.88997 0.54812
 H1412 H 0.24080 0.83206 0.55281
 H1413 H 0.22056 0.91506 0.61949
 H1414 H 0.20989 0.91329 0.57798
 H1415 H 0.28832 0.89102 0.58653
 H1416 H 0.26331 0.85522 0.58341
 C1417 C 0.25691 0.09910 0.40043
 C1418 C 0.24491 0.08479 0.38292
 C1419 C 0.25818 0.06863 0.36845
 C1420 C 0.28367 0.06670 0.37104
 C1421 C 0.29593 0.08165 0.38766
 C1422 C 0.28265 0.09772 0.40230
 C1423 C 0.24247 0.11413 0.41767
 C1424 C 0.25090 0.13706 0.42544
 C1425 C 0.23757 0.15054 0.44246
 C1426 C 0.21552 0.14136 0.45199
 C1427 C 0.20702 0.11855 0.44402
 C1428 C 0.22035 0.10509 0.42715
 H1429 H 0.24853 0.05718 0.35562
 H1430 H 0.31563 0.08019 0.38990
 H1431 H 0.24455 0.16810 0.44820
 H1432 H 0.19019 0.11087 0.45108
 H1433 H 0.29241 0.10828 0.41576
 H1434 H 0.26776 0.14462 0.41831
 H1435 H 0.22519 0.08576 0.38069
 H1436 H 0.21358 0.08729 0.42197
 C1437 C 0.74367 0.10020 0.59883
 C1438 C 0.71796 0.09899 0.59655
 C1439 C 0.70438 0.08277 0.61077
 C1440 C 0.71629 0.06747 0.62741
 C1441 C 0.74176 0.06921 0.63039
 C1442 C 0.75533 0.08552 0.61634
 C1443 C 0.75843 0.11550 0.58204
 C1444 C 0.78077 0.10664 0.57284
 C1445 C 0.79425 0.12028 0.55619
 C1446 C 0.78569 0.14310 0.54817
 C1447 C 0.76351 0.15216 0.55754
 C1448 C 0.75003 0.13851 0.57432
 H1449 H 0.68471 0.08148 0.60819
 H1450 H 0.75117 0.05751 0.64322
 H1451 H 0.81119 0.11268 0.54925
 H1452 H 0.75646 0.16972 0.55177
 H1453 H 0.77501 0.08633 0.61889
 H1454 H 0.78757 0.08881 0.57799
 H1455 H 0.70844 0.10981 0.58308
 H1456 H 0.73303 0.14598 0.58126
 C1457 C 0.90368 0.59152 0.25974
 C1458 C 0.92428 0.58183 0.27164
 C1459 C 0.94008 0.59705 0.28451
 C1460 C 0.93585 0.62230 0.28527
 C1461 C 0.91486 0.63195 0.27397
 C1462 C 0.89875 0.61660 0.26144
 C1463 C 0.88836 0.57557 0.24441
 C1464 C 0.86282 0.57439 0.24752
 C1465 C 0.84871 0.55857 0.23329
 C1466 C 0.85993 0.54419 0.21537
 C1467 C 0.88542 0.54586 0.21201
 C1468 C 0.89951 0.56123 0.22652
 H1469 H 0.95605 0.58925 0.29332
 H1470 H 0.91131 0.65139 0.27438
 H1471 H 0.82908 0.55765 0.23620
 H1472 H 0.89459 0.53491 0.19844
 H1473 H 0.88299 0.62442 0.25229
 H1474 H 0.85390 0.58532 0.26127
 H1475 H 0.92827 0.56249 0.27071
 H1476 H 0.91917 0.56203 0.22371
 C1477 C 0.90466 0.40720 0.74064
 C1478 C 0.90002 0.38207 0.73904
 C1479 C 0.91619 0.36687 0.72641
 C1480 C 0.93692 0.37670 0.71491
 C1481 C 0.94084 0.40200 0.71559
 C1482 C 0.92499 0.41708 0.72857
 C1483 C 0.88933 0.42302 0.75606
 C1484 C 0.90048 0.43716 0.77411
 C1485 C 0.88641 0.45253 0.78862
 C1486 C 0.86094 0.45442 0.78508
 C1487 C 0.84972 0.44020 0.76703
 C1488 C 0.86381 0.42437 0.75280
 H1489 H 0.91289 0.34739 0.72605
 H1490 H 0.95660 0.40993 0.70662
 H1491 H 0.89557 0.46336 0.80229
 H1492 H 0.83011 0.44130 0.76398
 H1493 H 0.92875 0.43646 0.72945
 H1494 H 0.92013 0.43623 0.77701
 H1495 H 0.88447 0.37414 0.74833
 H1496 H 0.85491 0.41359 0.73892
 C1497 C 0.10157 0.59896 0.74083
 C1498 C 0.09553 0.62237 0.74933
 C1499 C 0.07907 0.63710 0.73648
 C1500 C 0.06819 0.62849 0.71514
 C1501 C 0.07462 0.60541 0.70627
 C1502 C 0.09133 0.59081 0.71893
 C1503 C 0.11722 0.58245 0.75548
 C1504 C 0.13602 0.56872 0.74465
 C1505 C 0.14973 0.55207 0.75834
 C1506 C 0.14461 0.54856 0.78303
 C1507 C 0.12603 0.56256 0.79389
 C1508 C 0.11259 0.57943 0.78030
 H1509 H 0.07420 0.65487 0.74355
 H1510 H 0.06623 0.59851 0.68988
 H1511 H 0.16390 0.54151 0.74947
 H1512 H 0.12171 0.56031 0.81289
 H1513 H 0.09549 0.57275 0.71213
 H1514 H 0.14000 0.57081 0.72556
 H1515 H 0.10331 0.62911 0.76608
 H1516 H 0.09803 0.58960 0.78903
 C1517 C 0.09697 0.40722 0.26035
 C1518 C 0.10289 0.38253 0.26401
 C1519 C 0.08682 0.36727 0.27674
 C1520 C 0.06486 0.37663 0.28631
 C1521 C 0.05955 0.40154 0.28349
 C1522 C 0.07534 0.41663 0.27048
 C1523 C 0.11248 0.42302 0.24499
 C1524 C 0.10166 0.43656 0.22623
 C1525 C 0.11580 0.45212 0.21198
 C1526 C 0.14106 0.45478 0.21639
 C1527 C 0.15199 0.44107 0.23507
 C1528 C 0.13783 0.42511 0.24911
 H1529 H 0.09120 0.34808 0.27863
 H1530 H 0.04282 0.40916 0.29089
 H1531 H 0.10683 0.46246 0.19778
 H1532 H 0.17143 0.44273 0.23882
 H1533 H 0.07055 0.43567 0.26810
 H1534 H 0.08217 0.43506 0.22259
 H1535 H 0.11944 0.37489 0.25625
 H1536 H 0.14653 0.41485 0.26353
   
