data_POSCAR
  _audit_creation_date              2014-09-24
  _audit_creation_method            'ToBaCCo'
  _symmetry_space_group_name_H-M    'P1'
  _symmetry_Int_Tables_number       1
  _symmetry_cell_setting            triclinic
  loop_
  _symmetry_equiv_pos_as_xyz
 x,y,z
_cell_length_a 99.1731
_cell_length_b 99.1871
_cell_length_c 99.6187
_cell_angle_alpha 89.989400
_cell_angle_beta 89.995600
_cell_angle_gamma 89.949500
loop_
  _atom_site_label
  _atom_site_type_symbol
  _atom_site_fract_x
  _atom_site_fract_y
  _atom_site_fract_z
N1 N 0.35466 0.31727 0.32722
 N2 N 0.35454 0.32678 0.31803
 C3 C 0.36531 0.32519 0.30995
 C4 C 0.37262 0.31408 0.31429
 C5 C 0.36547 0.30930 0.32527
 H6 H 0.36776 0.33181 0.30169
 H7 H 0.36801 0.30082 0.33158
 Cu8 Cu 0.34066 0.34063 0.31810
 Cu9 Cu 0.34125 0.31634 0.34149
 Cu10 Cu 0.31647 0.34111 0.34163
 N11 N 0.32681 0.35451 0.31817
 N12 N 0.31734 0.35460 0.32740
 C13 C 0.30935 0.36541 0.32549
 C14 C 0.31407 0.37256 0.31447
 C15 C 0.32517 0.36527 0.31010
 H16 H 0.30087 0.36793 0.33182
 H17 H 0.33175 0.36773 0.30181
 N18 N 0.31739 0.32657 0.35514
 N19 N 0.32681 0.31717 0.35506
 C20 C 0.32506 0.30908 0.36577
 C21 C 0.31403 0.31359 0.37303
 C22 C 0.30940 0.32468 0.36591
 H23 H 0.33154 0.30067 0.36821
 H24 H 0.30099 0.33109 0.36850
 H25 H 0.32597 0.32592 0.33114
 H26 H 0.33686 0.33674 0.34195
 N27 N 0.35506 0.81760 -0.17305
 N28 N 0.35499 0.82711 -0.18223
 C29 C 0.36576 0.82547 -0.19030
 C30 C 0.37307 0.81431 -0.18593
 C31 C 0.36584 0.80959 -0.17495
 H32 H 0.36817 0.83207 -0.19857
 H33 H 0.36827 0.80112 -0.16858
 Cu34 Cu 0.34105 0.84097 -0.18215
 Cu35 Cu 0.34159 0.81661 -0.15884
 Cu36 Cu 0.31676 0.84124 -0.15871
 N37 N 0.32711 0.85483 -0.18206
 N38 N 0.31762 0.85479 -0.17286
 C39 C 0.30955 0.86553 -0.17467
 C40 C 0.31419 0.87286 -0.18562
 C41 C 0.32539 0.86566 -0.19006
 H42 H 0.30108 0.86788 -0.16826
 H43 H 0.33196 0.86816 -0.19833
 N44 N 0.31765 0.82668 -0.14525
 N45 N 0.32711 0.81732 -0.14532
 C46 C 0.32539 0.80923 -0.13461
 C47 C 0.31432 0.81369 -0.12735
 C48 C 0.30966 0.82477 -0.13447
 H49 H 0.33192 0.80088 -0.13214
 H50 H 0.30124 0.83117 -0.13187
 H51 H 0.32637 0.82618 -0.16929
 H52 H 0.33717 0.83700 -0.15835
 N53 N 0.85461 0.31775 -0.17289
 N54 N 0.85427 0.32697 -0.18234
 C55 C 0.86506 0.32538 -0.19039
 C56 C 0.87261 0.31455 -0.18575
 C57 C 0.86559 0.30997 -0.17461
 H58 H 0.86733 0.33178 -0.19887
 H59 H 0.86833 0.30173 -0.16806
 Cu60 Cu 0.84012 0.34057 -0.18301
 Cu61 Cu 0.84119 0.31690 -0.15870
 Cu62 Cu 0.81655 0.34162 -0.15857
 N63 N 0.82656 0.35474 -0.18225
 N64 N 0.81739 0.35508 -0.17275
 C65 C 0.80964 0.36608 -0.17440
 C66 C 0.81419 0.37318 -0.18555
 C67 C 0.82498 0.36557 -0.19026
 H68 H 0.80145 0.36876 -0.16776
 H69 H 0.83137 0.36778 -0.19876
 N70 N 0.81740 0.32713 -0.14506
 N71 N 0.82678 0.31771 -0.14515
 C72 C 0.82502 0.30962 -0.13445
 C73 C 0.81401 0.31416 -0.12717
 C74 C 0.80942 0.32529 -0.13427
 H75 H 0.83148 0.30120 -0.13202
 H76 H 0.80104 0.33174 -0.13167
 H77 H 0.82573 0.32625 -0.16910
 H78 H 0.83697 0.33738 -0.15892
 N79 N 0.85457 0.81767 0.32715
 N80 N 0.85449 0.82723 0.31802
 C81 C 0.86527 0.82566 0.30995
 C82 C 0.87255 0.81451 0.31424
 C83 C 0.86538 0.80970 0.32519
 H84 H 0.86773 0.83229 0.30170
 H85 H 0.86791 0.80120 0.33148
 Cu86 Cu 0.84050 0.84102 0.31787
 Cu87 Cu 0.84111 0.81670 0.34136
 Cu88 Cu 0.81633 0.84142 0.34151
 N89 N 0.82664 0.85493 0.31815
 N90 N 0.81716 0.85492 0.32735
 C91 C 0.80913 0.86570 0.32552
 C92 C 0.81381 0.87301 0.31457
 C93 C 0.82497 0.86575 0.31014
 H94 H 0.80069 0.86809 0.33194
 H95 H 0.83154 0.86821 0.30185
 N96 N 0.81722 0.82689 0.35500
 N97 N 0.82663 0.81748 0.35493
 C98 C 0.82487 0.80941 0.36565
 C99 C 0.81385 0.81396 0.37293
 C100 C 0.80924 0.82505 0.36579
 H101 H 0.83134 0.80100 0.36811
 H102 H 0.80085 0.83148 0.36837
 H103 H 0.82583 0.82624 0.33096
 H104 H 0.83670 0.83707 0.34177
 N105 N 0.64536 0.68258 0.32706
 N106 N 0.64577 0.67341 0.31757
 C107 C 0.63498 0.67499 0.30950
 C108 C 0.62736 0.68575 0.31419
 C109 C 0.63434 0.69031 0.32536
 H110 H 0.63276 0.66864 0.30098
 H111 H 0.63155 0.69849 0.33195
 Cu112 Cu 0.66002 0.65989 0.31693
 Cu113 Cu 0.65871 0.68351 0.34131
 Cu114 Cu 0.68344 0.65894 0.34148
 N115 N 0.67367 0.64577 0.31776
 N116 N 0.68276 0.64548 0.32734
 C117 C 0.69060 0.63452 0.32576
 C118 C 0.68619 0.62745 0.31458
 C119 C 0.67541 0.63497 0.30976
 H120 H 0.69875 0.63182 0.33243
 H121 H 0.66915 0.63267 0.30119
 N122 N 0.68251 0.67339 0.35497
 N123 N 0.67309 0.68277 0.35492
 C124 C 0.67483 0.69082 0.36567
 C125 C 0.68588 0.68628 0.37291
 C126 C 0.69050 0.67522 0.36574
 H127 H 0.66836 0.69922 0.36814
 H128 H 0.69891 0.66879 0.36829
 H129 H 0.67416 0.67434 0.33091
 H130 H 0.66293 0.66311 0.34103
 N131 N 0.64546 0.18232 -0.17310
 N132 N 0.64560 0.17287 -0.18233
 C133 C 0.63484 0.17453 -0.19043
 C134 C 0.62752 0.18561 -0.18600
 C135 C 0.63466 0.19029 -0.17498
 H136 H 0.63241 0.16801 -0.19877
 H137 H 0.63210 0.19871 -0.16859
 Cu138 Cu 0.65953 0.15902 -0.18223
 Cu139 Cu 0.65882 0.18325 -0.15880
 Cu140 Cu 0.68364 0.15858 -0.15860
 N141 N 0.67344 0.14517 -0.18214
 N142 N 0.68282 0.14509 -0.17283
 C143 C 0.69082 0.13428 -0.17459
 C144 C 0.68622 0.12704 -0.18563
 C145 C 0.67517 0.13438 -0.19018
 H146 H 0.69919 0.13184 -0.16811
 H147 H 0.66869 0.13199 -0.19855
 N148 N 0.68265 0.17310 -0.14509
 N149 N 0.67319 0.18246 -0.14517
 C150 C 0.67489 0.19054 -0.13445
 C151 C 0.68593 0.18606 -0.12718
 C152 C 0.69061 0.17499 -0.13429
 H153 H 0.66836 0.19891 -0.13201
 H154 H 0.69903 0.16860 -0.13170
 H155 H 0.67412 0.17368 -0.16911
 H156 H 0.66324 0.16282 -0.15833
 N157 N 0.14538 0.68265 -0.17294
 N158 N 0.14572 0.67350 -0.18245
 C159 C 0.13493 0.67516 -0.19049
 C160 C 0.12739 0.68596 -0.18575
 C161 C 0.13442 0.69045 -0.17459
 H162 H 0.13265 0.66884 -0.19901
 H163 H 0.13170 0.69863 -0.16798
 Cu164 Cu 0.15989 0.65991 -0.18316
 Cu165 Cu 0.15874 0.68345 -0.15873
 Cu166 Cu 0.18335 0.65876 -0.15858
 N167 N 0.17340 0.64568 -0.18228
 N168 N 0.18253 0.64530 -0.17274
 C169 C 0.19030 0.63429 -0.17442
 C170 C 0.18578 0.62731 -0.18561
 C171 C 0.17502 0.63490 -0.19033
 H172 H 0.19849 0.63153 -0.16783
 H173 H 0.16870 0.63269 -0.19887
 N174 N 0.18248 0.67325 -0.14507
 N175 N 0.17308 0.68265 -0.14515
 C176 C 0.17482 0.69073 -0.13444
 C177 C 0.18584 0.68621 -0.12717
 C178 C 0.19047 0.67511 -0.13429
 H179 H 0.16834 0.69914 -0.13200
 H180 H 0.19887 0.66869 -0.13171
 H181 H 0.17419 0.67415 -0.16915
 H182 H 0.16289 0.66295 -0.15906
 N183 N 0.14524 0.18249 0.32713
 N184 N 0.14570 0.17330 0.31766
 C185 C 0.13495 0.17485 0.30956
 C186 C 0.12728 0.18559 0.31420
 C187 C 0.13420 0.19019 0.32539
 H188 H 0.13279 0.16848 0.30103
 H189 H 0.13135 0.19838 0.33195
 Cu190 Cu 0.15994 0.15978 0.31707
 Cu191 Cu 0.15863 0.18344 0.34135
 Cu192 Cu 0.18343 0.15890 0.34157
 N193 N 0.17361 0.14571 0.31787
 N194 N 0.18271 0.14541 0.32744
 C195 C 0.19055 0.13445 0.32585
 C196 C 0.18614 0.12740 0.31467
 C197 C 0.17536 0.13491 0.30986
 H198 H 0.19869 0.13174 0.33252
 H199 H 0.16911 0.13262 0.30128
 N200 N 0.18247 0.17339 0.35503
 N201 N 0.17302 0.18275 0.35494
 C202 C 0.17473 0.19083 0.36566
 C203 C 0.18578 0.18635 0.37293
 C204 C 0.19044 0.17528 0.36581
 H205 H 0.16820 0.19920 0.36811
 H206 H 0.19887 0.16888 0.36840
 H207 H 0.17415 0.17419 0.33098
 H208 H 0.16296 0.16299 0.34116
 N209 N 0.64523 0.31761 0.67294
 N210 N 0.64526 0.32714 0.68210
 C211 C 0.63445 0.32552 0.69014
 C212 C 0.62723 0.31437 0.68578
 C213 C 0.63445 0.30962 0.67484
 H214 H 0.63193 0.33212 0.69839
 H215 H 0.63198 0.30113 0.66852
 Cu216 Cu 0.65913 0.34102 0.68202
 Cu217 Cu 0.65872 0.31663 0.65877
 Cu218 Cu 0.68343 0.34138 0.65857
 N219 N 0.67299 0.35490 0.68193
 N220 N 0.68247 0.35496 0.67272
 C221 C 0.69046 0.36575 0.67460
 C222 C 0.68574 0.37295 0.68558
 C223 C 0.67463 0.36568 0.68998
 H224 H 0.69894 0.36825 0.66826
 H225 H 0.66807 0.36815 0.69828
 N226 N 0.68260 0.32676 0.64514
 N227 N 0.67321 0.31735 0.64525
 C228 C 0.67498 0.30923 0.63457
 C229 C 0.68600 0.31373 0.62728
 C230 C 0.69059 0.32486 0.63436
 H231 H 0.66851 0.30083 0.63214
 H232 H 0.69895 0.33130 0.63173
 H233 H 0.67393 0.32631 0.66913
 H234 H 0.66307 0.33706 0.65819
 N235 N 0.64524 0.81775 1.17300
 N236 N 0.64528 0.82732 1.18212
 C237 C 0.63447 0.82576 1.19016
 C238 C 0.62723 0.81460 1.18584
 C239 C 0.63445 0.80978 1.17492
 H240 H 0.63196 0.83239 1.19838
 H241 H 0.63198 0.80127 1.16864
 Cu242 Cu 0.65920 0.84114 1.18205
 Cu243 Cu 0.65874 0.81668 1.15883
 Cu244 Cu 0.68354 0.84132 1.15868
 N245 N 0.67315 0.85494 1.18199
 N246 N 0.68264 0.85488 1.17279
 C247 C 0.69071 0.86561 1.17462
 C248 C 0.68604 0.87289 1.18556
 C249 C 0.67486 0.86576 1.18998
 H250 H 0.69920 0.86800 1.16826
 H251 H 0.66831 0.86834 1.19826
 N252 N 0.68268 0.82673 1.14526
 N253 N 0.67326 0.81735 1.14532
 C254 C 0.67503 0.80927 1.13460
 C255 C 0.68607 0.81379 1.12736
 C256 C 0.69068 0.82486 1.13450
 H257 H 0.66854 0.80091 1.13211
 H258 H 0.69906 0.83130 1.13191
 H259 H 0.67392 0.82627 1.16926
 H260 H 0.66314 0.83705 1.15827
 N261 N 0.14524 0.31774 1.17305
 N262 N 0.14535 0.32728 1.18220
 C263 C 0.13457 0.32574 1.19027
 C264 C 0.12727 0.31462 1.18595
 C265 C 0.13443 0.30981 1.17499
 H266 H 0.13210 0.33237 1.19851
 H267 H 0.13190 0.30131 1.16870
 Cu268 Cu 0.15931 0.34103 1.18209
 Cu269 Cu 0.15865 0.31672 1.15879
 Cu270 Cu 0.18346 0.34140 1.15852
 N271 N 0.17317 0.35488 1.18196
 N272 N 0.18262 0.35495 1.17272
 C273 C 0.19060 0.36574 1.17458
 C274 C 0.18592 0.37292 1.18558
 C275 C 0.17482 0.36567 1.19001
 H276 H 0.19906 0.36825 1.16821
 H277 H 0.16827 0.36815 1.19830
 N278 N 0.18251 0.32681 1.14507
 N279 N 0.17309 0.31742 1.14520
 C280 C 0.17483 0.30929 1.13452
 C281 C 0.18585 0.31376 1.12722
 C282 C 0.19048 0.32487 1.13429
 H283 H 0.16836 0.30088 1.13212
 H284 H 0.19888 0.33127 1.13168
 H285 H 0.17401 0.32629 1.16911
 H286 H 0.16312 0.33711 1.15827
 N287 N 0.14520 0.81766 0.67271
 N288 N 0.14555 0.82685 0.68219
 C289 C 0.13477 0.82523 0.69025
 C290 C 0.12721 0.81444 0.68557
 C291 C 0.13422 0.80990 0.67441
 H292 H 0.13253 0.83156 0.69879
 H293 H 0.13149 0.80168 0.66783
 Cu294 Cu 0.15976 0.84040 0.68289
 Cu295 Cu 0.15865 0.81673 0.65854
 Cu296 Cu 0.18332 0.84132 0.65851
 N297 N 0.17343 0.85448 0.68219
 N298 N 0.18256 0.85477 0.67264
 C299 C 0.19041 0.86569 0.67427
 C300 C 0.18598 0.87274 0.68545
 C301 C 0.17518 0.86525 0.69023
 H302 H 0.19859 0.86837 0.66763
 H303 H 0.16893 0.86754 0.69881
 N304 N 0.18250 0.82689 0.64500
 N305 N 0.17312 0.81748 0.64501
 C306 C 0.17495 0.80945 0.63425
 C307 C 0.18601 0.81404 0.62706
 C308 C 0.19053 0.82511 0.63425
 H309 H 0.16852 0.80105 0.63172
 H310 H 0.19890 0.83159 0.63173
 H311 H 0.17400 0.82592 0.66904
 H312 H 0.16280 0.83712 0.65883
 N313 N 0.35465 0.68264 0.67266
 N314 N 0.35463 0.67314 0.68186
 C315 C 0.36541 0.67479 0.68990
 C316 C 0.37263 0.68594 0.68553
 C317 C 0.36542 0.69066 0.67456
 H318 H 0.36793 0.66820 0.69817
 H319 H 0.36790 0.69913 0.66822
 Cu320 Cu 0.34075 0.65928 0.68188
 Cu321 Cu 0.34117 0.68351 0.65845
 Cu322 Cu 0.31647 0.65872 0.65845
 N323 N 0.32695 0.64535 0.68188
 N324 N 0.31743 0.64526 0.67270
 C325 C 0.30946 0.63446 0.67466
 C326 C 0.31425 0.62730 0.68564
 C327 C 0.32538 0.63458 0.68995
 H328 H 0.30097 0.63192 0.66835
 H329 H 0.33200 0.63212 0.69820
 N330 N 0.31729 0.67323 0.64491
 N331 N 0.32668 0.68264 0.64492
 C332 C 0.32484 0.69071 0.63421
 C333 C 0.31378 0.68616 0.62701
 C334 C 0.30923 0.67507 0.63418
 H335 H 0.33126 0.69913 0.63172
 H336 H 0.30083 0.66864 0.63165
 H337 H 0.32597 0.67391 0.66889
 H338 H 0.33684 0.66308 0.65804
 N339 N 0.35493 0.18247 1.17275
 N340 N 0.35484 0.17290 1.18187
 C341 C 0.36562 0.17443 1.18994
 C342 C 0.37291 0.18557 1.18567
 C343 C 0.36574 0.19042 1.17472
 H344 H 0.36808 0.16778 1.19817
 H345 H 0.36824 0.19897 1.16850
 Cu346 Cu 0.34083 0.15917 1.18203
 Cu347 Cu 0.34145 0.18352 1.15858
 Cu348 Cu 0.31663 0.15889 1.15841
 N349 N 0.32695 0.14531 1.18174
 N350 N 0.31747 0.14535 1.17254
 C351 C 0.30943 0.13460 1.17437
 C352 C 0.31412 0.12731 1.18530
 C353 C 0.32527 0.13449 1.18974
 H354 H 0.30094 0.13220 1.16802
 H355 H 0.33181 0.13192 1.19802
 N356 N 0.31753 0.17345 1.14496
 N357 N 0.32695 0.18283 1.14506
 C358 C 0.32522 0.19092 1.13435
 C359 C 0.31421 0.18642 1.12706
 C360 C 0.30957 0.17534 1.13417
 H361 H 0.33172 0.19930 1.13191
 H362 H 0.30118 0.16892 1.13155
 H363 H 0.32615 0.17402 1.16902
 H364 H 0.33701 0.16317 1.15817
 N365 N 0.85463 0.68255 1.17290
 N366 N 0.85423 0.67337 1.18240
 C367 C 0.86500 0.67496 1.19047
 C368 C 0.87261 0.68572 1.18580
 C369 C 0.86564 0.69028 1.17462
 H370 H 0.86721 0.66860 1.19900
 H371 H 0.86842 0.69849 1.16805
 Cu372 Cu 0.84002 0.65986 1.18312
 Cu373 Cu 0.84124 0.68343 1.15870
 Cu374 Cu 0.81657 0.65884 1.15858
 N375 N 0.82642 0.64573 1.18233
 N376 N 0.81732 0.64541 1.17275
 C377 C 0.80953 0.63444 1.17435
 C378 C 0.81396 0.62739 1.18553
 C379 C 0.82471 0.63492 1.19035
 H380 H 0.80139 0.63174 1.16768
 H381 H 0.83096 0.63264 1.19893
 N382 N 0.81744 0.67328 1.14504
 N383 N 0.82684 0.68267 1.14512
 C384 C 0.82509 0.69073 1.13440
 C385 C 0.81408 0.68621 1.12712
 C386 C 0.80947 0.67512 1.13425
 H387 H 0.83157 0.69913 1.13195
 H388 H 0.80109 0.66868 1.13165
 H389 H 0.82577 0.67421 1.16913
 H390 H 0.83703 0.66297 1.15902
 N391 N 0.85475 0.18240 0.67283
 N392 N 0.85436 0.17320 0.68229
 C393 C 0.86512 0.17478 0.69038
 C394 C 0.87272 0.18556 0.68573
 C395 C 0.86574 0.19015 0.67456
 H396 H 0.86733 0.16842 0.69891
 H397 H 0.86851 0.19837 0.66801
 Cu398 Cu 0.84016 0.15966 0.68293
 Cu399 Cu 0.84134 0.18333 0.65863
 Cu400 Cu 0.81665 0.15875 0.65844
 N401 N 0.82648 0.14559 0.68218
 N402 N 0.81739 0.14529 0.67260
 C403 C 0.80957 0.13434 0.67420
 C404 C 0.81397 0.12728 0.68538
 C405 C 0.82473 0.13480 0.69021
 H406 H 0.80143 0.13164 0.66752
 H407 H 0.83097 0.13251 0.69880
 N408 N 0.81756 0.17322 0.64493
 N409 N 0.82695 0.18261 0.64505
 C410 C 0.82523 0.19070 0.63433
 C411 C 0.81423 0.18618 0.62703
 C412 C 0.80962 0.17507 0.63412
 H413 H 0.83171 0.19909 0.63191
 H414 H 0.80125 0.16863 0.63149
 H415 H 0.82588 0.17404 0.66902
 H416 H 0.83711 0.16285 0.65883
 N417 N 0.31758 0.35473 0.67282
 N418 N 0.32674 0.35439 0.68233
 C419 C 0.32508 0.36519 0.69037
 C420 C 0.31430 0.37274 0.68563
 C421 C 0.30979 0.36571 0.67447
 H422 H 0.33137 0.36744 0.69893
 H423 H 0.30160 0.36843 0.66786
 Cu424 Cu 0.34034 0.34023 0.68309
 Cu425 Cu 0.31671 0.34125 0.65867
 Cu426 Cu 0.34137 0.31661 0.65876
 N427 N 0.35450 0.32663 0.68239
 N428 N 0.35483 0.31746 0.67289
 C429 C 0.36579 0.30965 0.67455
 C430 C 0.37283 0.31415 0.68571
 C431 C 0.36529 0.32495 0.69044
 H432 H 0.36850 0.30144 0.66795
 H433 H 0.36755 0.33124 0.69899
 N434 N 0.32694 0.31736 0.64525
 N435 N 0.31753 0.32675 0.64517
 C436 C 0.30955 0.32489 0.63438
 C437 C 0.31417 0.31379 0.62726
 C438 C 0.32521 0.30928 0.63453
 H439 H 0.30117 0.33134 0.63177
 H440 H 0.33171 0.30091 0.63207
 H441 H 0.32595 0.32597 0.66922
 H442 H 0.33715 0.33714 0.65900
 N443 N 0.31740 0.85488 0.17247
 N444 N 0.32687 0.85491 0.18169
 C445 C 0.32518 0.86575 0.18966
 C446 C 0.31403 0.87294 0.18520
 C447 C 0.30936 0.86566 0.17427
 H448 H 0.33173 0.86833 0.19793
 H449 H 0.30091 0.86808 0.16788
 Cu450 Cu 0.34079 0.84106 0.18179
 Cu451 Cu 0.31657 0.84136 0.15830
 Cu452 Cu 0.34137 0.81664 0.15854
 N453 N 0.35473 0.82724 0.18188
 N454 N 0.35480 0.81767 0.17278
 C455 C 0.36562 0.80971 0.17473
 C456 C 0.37281 0.81456 0.18565
 C457 C 0.36553 0.82572 0.18992
 H458 H 0.36815 0.80119 0.16847
 H459 H 0.36804 0.83241 0.19811
 N460 N 0.32691 0.81738 0.14498
 N461 N 0.31749 0.82679 0.14485
 C462 C 0.30954 0.82490 0.13405
 C463 C 0.31417 0.81378 0.12697
 C464 C 0.32518 0.80927 0.13428
 H465 H 0.30115 0.83133 0.13141
 H466 H 0.33166 0.80086 0.13187
 H467 H 0.32610 0.82626 0.16889
 H468 H 0.33696 0.83704 0.15798
 N469 N 0.81746 0.35488 0.17245
 N470 N 0.82665 0.35469 0.18193
 C471 C 0.82496 0.36554 0.18988
 C472 C 0.81409 0.37296 0.18514
 C473 C 0.80958 0.36581 0.17406
 H474 H 0.83131 0.36793 0.19836
 H475 H 0.80133 0.36841 0.16748
 Cu476 Cu 0.84029 0.34059 0.18280
 Cu477 Cu 0.81674 0.34138 0.15834
 Cu478 Cu 0.84149 0.31680 0.15860
 N479 N 0.85451 0.32707 0.18218
 N480 N 0.85487 0.31775 0.17283
 C481 C 0.86584 0.30998 0.17466
 C482 C 0.87284 0.31469 0.18575
 C483 C 0.86529 0.32557 0.19026
 H484 H 0.86858 0.30165 0.16823
 H485 H 0.86754 0.33206 0.19866
 N486 N 0.82711 0.31750 0.14499
 N487 N 0.81768 0.32687 0.14487
 C488 C 0.80970 0.32496 0.13410
 C489 C 0.81435 0.31386 0.12701
 C490 C 0.82539 0.30938 0.13430
 H491 H 0.80128 0.33135 0.13150
 H492 H 0.83187 0.30097 0.13190
 H493 H 0.82605 0.32613 0.16896
 H494 H 0.83725 0.33730 0.15873
 N495 N 0.81755 0.85503 0.67267
 N496 N 0.82672 0.85478 0.68217
 C497 C 0.82503 0.86561 0.69016
 C498 C 0.81419 0.87309 0.68540
 C499 C 0.80972 0.86598 0.67428
 H500 H 0.83134 0.86794 0.69869
 H501 H 0.80151 0.86863 0.66767
 Cu502 Cu 0.84036 0.84064 0.68292
 Cu503 Cu 0.81673 0.84155 0.65854
 Cu504 Cu 0.84140 0.81692 0.65865
 N505 N 0.85454 0.82704 0.68226
 N506 N 0.85484 0.81782 0.67281
 C507 C 0.86581 0.81002 0.67450
 C508 C 0.87288 0.81458 0.68561
 C509 C 0.86536 0.82542 0.69029
 H510 H 0.86850 0.80178 0.66794
 H511 H 0.86765 0.83179 0.69878
 N512 N 0.82696 0.81767 0.64512
 N513 N 0.81756 0.82706 0.64506
 C514 C 0.80953 0.82519 0.63432
 C515 C 0.81411 0.81408 0.62719
 C516 C 0.82517 0.80957 0.63442
 H517 H 0.80112 0.83163 0.63176
 H518 H 0.83164 0.80116 0.63197
 H519 H 0.82603 0.82625 0.66907
 H520 H 0.83721 0.83741 0.65882
 N521 N 0.68240 0.64501 0.67282
 N522 N 0.67291 0.64508 0.68201
 C523 C 0.67453 0.63428 0.69005
 C524 C 0.68565 0.62700 0.68566
 C525 C 0.69039 0.63420 0.67469
 H526 H 0.66796 0.63181 0.69834
 H527 H 0.69887 0.63169 0.66836
 Cu528 Cu 0.65906 0.65899 0.68207
 Cu529 Cu 0.68338 0.65856 0.65865
 Cu530 Cu 0.65867 0.68336 0.65877
 N531 N 0.64520 0.67292 0.68213
 N532 N 0.64518 0.68242 0.67295
 C533 C 0.63443 0.69046 0.67483
 C534 C 0.62719 0.68576 0.68578
 C535 C 0.63440 0.67458 0.69017
 H536 H 0.63197 0.69895 0.66849
 H537 H 0.63187 0.66801 0.69843
 N538 N 0.67316 0.68257 0.64526
 N539 N 0.68256 0.67315 0.64519
 C540 C 0.69057 0.67502 0.63443
 C541 C 0.68599 0.68615 0.62732
 C542 C 0.67495 0.69067 0.63457
 H543 H 0.69894 0.66857 0.63183
 H544 H 0.66847 0.69907 0.63211
 H545 H 0.67385 0.67367 0.66918
 H546 H 0.66301 0.66292 0.65825
 N547 N 0.68270 0.14496 0.17261
 N548 N 0.67323 0.14493 0.18184
 C549 C 0.67494 0.13410 0.18982
 C550 C 0.68609 0.12693 0.18536
 C551 C 0.69075 0.13420 0.17442
 H552 H 0.66840 0.13153 0.19811
 H553 H 0.69923 0.13179 0.16805
 Cu554 Cu 0.65934 0.15880 0.18197
 Cu555 Cu 0.68355 0.15854 0.15848
 Cu556 Cu 0.65873 0.18323 0.15875
 N557 N 0.64535 0.17258 0.18208
 N558 N 0.64528 0.18215 0.17297
 C559 C 0.63450 0.19013 0.17492
 C560 C 0.62730 0.18531 0.18585
 C561 C 0.63455 0.17413 0.19013
 H562 H 0.63202 0.19868 0.16867
 H563 H 0.63204 0.16748 0.19835
 N564 N 0.67321 0.18255 0.14520
 N565 N 0.68263 0.17316 0.14507
 C566 C 0.69060 0.17508 0.13430
 C567 C 0.68597 0.18619 0.12722
 C568 C 0.67495 0.19069 0.13452
 H569 H 0.69899 0.16865 0.13166
 H570 H 0.66846 0.19909 0.13210
 H571 H 0.67402 0.17363 0.16908
 H572 H 0.66318 0.16286 0.15817
 N573 N 0.18236 0.64513 0.17246
 N574 N 0.17324 0.64550 0.18202
 C575 C 0.17494 0.63473 0.19008
 C576 C 0.18570 0.62716 0.18533
 C577 C 0.19015 0.63415 0.17412
 H578 H 0.16868 0.63252 0.19868
 H579 H 0.19832 0.63139 0.16749
 Cu580 Cu 0.15964 0.65965 0.18280
 Cu581 Cu 0.18321 0.65864 0.15833
 Cu582 Cu 0.15855 0.68331 0.15852
 N583 N 0.14548 0.67325 0.18216
 N584 N 0.14511 0.68243 0.17267
 C585 C 0.13413 0.69022 0.17438
 C586 C 0.12714 0.68570 0.18556
 C587 C 0.13471 0.67490 0.19025
 H588 H 0.13138 0.69842 0.16779
 H589 H 0.13250 0.66859 0.19880
 N590 N 0.17297 0.68259 0.14497
 N591 N 0.18237 0.67318 0.14487
 C592 C 0.19037 0.67507 0.13411
 C593 C 0.18579 0.68620 0.12702
 C594 C 0.17475 0.69071 0.13429
 H595 H 0.19876 0.66863 0.13152
 H596 H 0.16828 0.69913 0.13186
 H597 H 0.17403 0.67393 0.16894
 H598 H 0.16280 0.66279 0.15872
 N599 N 0.18247 0.14484 0.67277
 N600 N 0.17301 0.14481 0.68201
 C601 C 0.17474 0.13399 0.68999
 C602 C 0.18589 0.12681 0.68553
 C603 C 0.19053 0.13408 0.67458
 H604 H 0.16821 0.13142 0.69829
 H605 H 0.19900 0.13167 0.66819
 Cu606 Cu 0.15906 0.15864 0.68214
 Cu607 Cu 0.18329 0.15841 0.65863
 Cu608 Cu 0.15850 0.18311 0.65891
 N609 N 0.14513 0.17249 0.68226
 N610 N 0.14507 0.18206 0.67313
 C611 C 0.13428 0.19005 0.67509
 C612 C 0.12708 0.18524 0.68602
 C613 C 0.13433 0.17406 0.69031
 H614 H 0.13180 0.19858 0.66882
 H615 H 0.13181 0.16741 0.69852
 N616 N 0.17296 0.18242 0.64534
 N617 N 0.18237 0.17301 0.64521
 C618 C 0.19034 0.17493 0.63443
 C619 C 0.18572 0.18605 0.62736
 C620 C 0.17470 0.19055 0.63466
 H621 H 0.19872 0.16850 0.63179
 H622 H 0.16822 0.19896 0.63225
 H623 H 0.17374 0.17349 0.66925
 H624 H 0.16290 0.16273 0.65833
 N625 N 0.31752 0.64529 0.32704
 N626 N 0.32704 0.64533 0.31787
 C627 C 0.32544 0.63451 0.30985
 C628 C 0.31430 0.62729 0.31422
 C629 C 0.30953 0.63451 0.32515
 H630 H 0.33205 0.63199 0.30161
 H631 H 0.30103 0.63205 0.33146
 Cu632 Cu 0.34081 0.65927 0.31789
 Cu633 Cu 0.31655 0.65875 0.34126
 Cu634 Cu 0.34131 0.68349 0.34132
 N635 N 0.35478 0.67300 0.31795
 N636 N 0.35484 0.68252 0.32712
 C637 C 0.36565 0.69048 0.32521
 C638 C 0.37285 0.68569 0.31426
 C639 C 0.36559 0.67456 0.30993
 H640 H 0.36813 0.69900 0.33149
 H641 H 0.36809 0.66794 0.30169
 N642 N 0.32674 0.68266 0.35480
 N643 N 0.31734 0.67325 0.35478
 C644 C 0.30927 0.67505 0.36550
 C645 C 0.31379 0.68611 0.37271
 C646 C 0.32487 0.69069 0.36555
 H647 H 0.30088 0.66858 0.36800
 H648 H 0.33130 0.69908 0.36809
 H649 H 0.32609 0.67402 0.33087
 H650 H 0.33693 0.66316 0.34170
 N651 N 0.31745 0.14518 0.82730
 N652 N 0.32659 0.14545 0.81777
 C653 C 0.32491 0.13463 0.80977
 C654 C 0.31410 0.12713 0.81455
 C655 C 0.30963 0.13422 0.82569
 H656 H 0.33121 0.13230 0.80124
 H657 H 0.30144 0.13155 0.83232
 Cu658 Cu 0.34019 0.15960 0.81694
 Cu659 Cu 0.31667 0.15864 0.84145
 Cu660 Cu 0.34134 0.18322 0.84131
 N661 N 0.35440 0.17314 0.81765
 N662 N 0.35475 0.18234 0.82712
 C663 C 0.36573 0.19011 0.82542
 C664 C 0.37275 0.18554 0.81428
 C665 C 0.36520 0.17474 0.80960
 H666 H 0.36846 0.19834 0.83197
 H667 H 0.36746 0.16837 0.80110
 N668 N 0.32695 0.18248 0.85489
 N669 N 0.31754 0.17310 0.85496
 C670 C 0.30955 0.17496 0.86575
 C671 C 0.31418 0.18604 0.87288
 C672 C 0.32521 0.19055 0.86561
 H673 H 0.30115 0.16855 0.86832
 H674 H 0.33169 0.19894 0.86805
 H675 H 0.32589 0.17396 0.83087
 H676 H 0.33713 0.16274 0.84102
 N677 N 0.81773 0.64521 0.82733
 N678 N 0.82685 0.64561 0.81779
 C679 C 0.82520 0.63485 0.80971
 C680 C 0.81447 0.62725 0.81445
 C681 C 0.80997 0.63422 0.82566
 H682 H 0.83147 0.63265 0.80112
 H683 H 0.80181 0.63144 0.83229
 Cu684 Cu 0.84045 0.65974 0.81712
 Cu685 Cu 0.81689 0.65863 0.84152
 Cu686 Cu 0.84146 0.68336 0.84149
 N687 N 0.85457 0.67335 0.81781
 N688 N 0.85490 0.68252 0.82732
 C689 C 0.86588 0.69030 0.82564
 C690 C 0.87291 0.68578 0.81448
 C691 C 0.86536 0.67500 0.80976
 H692 H 0.86862 0.69849 0.83225
 H693 H 0.86761 0.66868 0.80122
 N694 N 0.82702 0.68251 0.85503
 N695 N 0.81767 0.67307 0.85507
 C696 C 0.80964 0.67486 0.86582
 C697 C 0.81414 0.68597 0.87298
 C698 C 0.82518 0.69056 0.86576
 H699 H 0.80129 0.66837 0.86837
 H700 H 0.83159 0.69899 0.86825
 H701 H 0.82613 0.67406 0.83103
 H702 H 0.83738 0.66290 0.84123
 N703 N 0.81759 0.14513 0.32734
 N704 N 0.82709 0.14506 0.31816
 C705 C 0.82524 0.13438 0.31000
 C706 C 0.81404 0.12726 0.31442
 C707 C 0.80943 0.13449 0.32542
 H708 H 0.83166 0.13193 0.30160
 H709 H 0.80095 0.13209 0.33178
 Cu710 Cu 0.84106 0.15882 0.31820
 Cu711 Cu 0.81675 0.15867 0.34152
 Cu712 Cu 0.84159 0.18332 0.34131
 N713 N 0.85493 0.17267 0.31793
 N714 N 0.85502 0.18226 0.32702
 C715 C 0.86570 0.19033 0.32491
 C716 C 0.87277 0.18557 0.31386
 C717 C 0.86552 0.17438 0.30964
 H718 H 0.86822 0.19887 0.33114
 H719 H 0.86783 0.16786 0.30128
 N720 N 0.82716 0.18256 0.35495
 N721 N 0.81772 0.17320 0.35504
 C722 C 0.80982 0.17503 0.36590
 C723 C 0.81448 0.18610 0.37302
 C724 C 0.82551 0.19057 0.36573
 H725 H 0.80147 0.16858 0.36856
 H726 H 0.83207 0.19888 0.36824
 H727 H 0.82629 0.17379 0.33078
 H728 H 0.83700 0.16309 0.34191
 N729 N 0.68268 0.35482 0.32718
 N730 N 0.67321 0.35485 0.31796
 C731 C 0.67494 0.36567 0.30995
 C732 C 0.68609 0.37283 0.31441
 C733 C 0.69073 0.36556 0.32538
 H734 H 0.66840 0.36825 0.30167
 H735 H 0.69918 0.36799 0.33178
 Cu736 Cu 0.65924 0.34109 0.31785
 Cu737 Cu 0.68349 0.34127 0.34134
 Cu738 Cu 0.65871 0.31663 0.34107
 N739 N 0.64535 0.32722 0.31772
 N740 N 0.64529 0.31766 0.32684
 C741 C 0.63453 0.30967 0.32489
 C742 C 0.62734 0.31446 0.31394
 C743 C 0.63457 0.32564 0.30964
 H744 H 0.63204 0.30116 0.33118
 H745 H 0.63206 0.33228 0.30142
 N746 N 0.67313 0.31731 0.35466
 N747 N 0.68255 0.32669 0.35478
 C748 C 0.69050 0.32479 0.36557
 C749 C 0.68585 0.31371 0.37268
 C750 C 0.67485 0.30921 0.36536
 H751 H 0.69889 0.33120 0.36820
 H752 H 0.66836 0.30082 0.36779
 H753 H 0.67395 0.32625 0.33068
 H754 H 0.66311 0.33701 0.34165
 N755 N 0.68247 0.85495 0.82733
 N756 N 0.67335 0.85465 0.81778
 C757 C 0.67506 0.86544 0.80976
 C758 C 0.68585 0.87295 0.81454
 C759 C 0.69029 0.86589 0.82571
 H760 H 0.66879 0.86773 0.80119
 H761 H 0.69849 0.86857 0.83234
 Cu762 Cu 0.65976 0.84049 0.81695
 Cu763 Cu 0.68326 0.84148 0.84147
 Cu764 Cu 0.65860 0.81690 0.84135
 N765 N 0.64558 0.82691 0.81762
 N766 N 0.64521 0.81776 0.82714
 C767 C 0.63425 0.80998 0.82546
 C768 C 0.62726 0.81446 0.81426
 C769 C 0.63482 0.82524 0.80954
 H770 H 0.63151 0.80179 0.83207
 H771 H 0.63258 0.83154 0.80098
 N772 N 0.67299 0.81766 0.85493
 N773 N 0.68241 0.82702 0.85497
 C774 C 0.69041 0.82517 0.86574
 C775 C 0.68579 0.81412 0.87292
 C776 C 0.67473 0.80962 0.86569
 H777 H 0.69882 0.83158 0.86829
 H778 H 0.66822 0.80126 0.86819
 H779 H 0.67407 0.82613 0.83088
 H780 H 0.66282 0.83735 0.84102
 N781 N 0.18229 0.35486 0.82721
 N782 N 0.17317 0.35453 0.81767
 C783 C 0.17485 0.36531 0.80962
 C784 C 0.18562 0.37286 0.81438
 C785 C 0.19008 0.36584 0.82557
 H786 H 0.16858 0.36756 0.80104
 H787 H 0.19825 0.36857 0.83220
 Cu788 Cu 0.15954 0.34043 0.81693
 Cu789 Cu 0.18312 0.34138 0.84136
 Cu790 Cu 0.15845 0.31676 0.84121
 N791 N 0.14537 0.32685 0.81757
 N792 N 0.14502 0.31767 0.82706
 C793 C 0.13405 0.30989 0.82536
 C794 C 0.12705 0.31441 0.81419
 C795 C 0.13460 0.32521 0.80950
 H796 H 0.13131 0.30169 0.83195
 H797 H 0.13236 0.33153 0.80095
 N798 N 0.17287 0.31748 0.85476
 N799 N 0.18227 0.32687 0.85485
 C800 C 0.19026 0.32498 0.86563
 C801 C 0.18566 0.31387 0.87273
 C802 C 0.17463 0.30937 0.86546
 H803 H 0.19865 0.33140 0.86823
 H804 H 0.16815 0.30098 0.86789
 H805 H 0.17390 0.32608 0.83078
 H806 H 0.16269 0.33725 0.84101
 N807 N 0.18247 0.85505 0.32709
 N808 N 0.17298 0.85508 0.31789
 C809 C 0.17468 0.86588 0.30987
 C810 C 0.18585 0.87305 0.31430
 C811 C 0.19052 0.86579 0.32525
 H812 H 0.16814 0.86844 0.30159
 H813 H 0.19899 0.86822 0.33161
 Cu814 Cu 0.15903 0.84128 0.31787
 Cu815 Cu 0.18340 0.84152 0.34125
 Cu816 Cu 0.15859 0.81689 0.34117
 N817 N 0.14511 0.82745 0.31784
 N818 N 0.14507 0.81793 0.32701
 C819 C 0.13428 0.80995 0.32511
 C820 C 0.12706 0.81470 0.31416
 C821 C 0.13431 0.82584 0.30980
 H822 H 0.13180 0.80145 0.33143
 H823 H 0.13181 0.83243 0.30152
 N824 N 0.17312 0.81759 0.35467
 N825 N 0.18254 0.82696 0.35470
 C826 C 0.19056 0.82510 0.36545
 C827 C 0.18597 0.81404 0.37262
 C828 C 0.17490 0.80953 0.36540
 H829 H 0.19895 0.83154 0.36801
 H830 H 0.16841 0.80116 0.36791
 H831 H 0.17380 0.82649 0.33070
 H832 H 0.16303 0.83730 0.34168
 C833 C 0.24199 0.97166 0.25913
 C834 C 0.25013 0.96481 0.24996
 C835 C 0.25824 0.97166 0.24076
 C836 C 0.25837 0.98591 0.24071
 C837 C 0.25010 0.99305 0.24995
 C838 C 0.24184 0.98591 0.25918
 C839 C 0.23386 0.99319 0.26831
 C840 C 0.23384 1.00723 0.26831
 C841 C 0.24181 1.01451 0.25916
 C842 C 0.25008 1.00736 0.24993
 C843 C 0.26634 0.99318 0.23158
 C844 C 0.26631 1.00722 0.23156
 C845 C 0.25832 1.01450 0.24069
 C846 C 0.25815 1.02875 0.24071
 C847 C 0.25002 1.03561 0.24990
 C848 C 0.24192 1.02876 0.25910
 H849 H 0.22758 0.98808 0.27559
 H850 H 0.22755 1.01235 0.27558
 H851 H 0.27264 0.98807 0.22431
 H852 H 0.27259 1.01233 0.22428
 H853 H 0.25013 0.95386 0.24995
 H854 H 0.25001 1.04656 0.24988
 C855 C 0.25859 0.47146 0.74122
 C856 C 0.24999 0.46460 0.74996
 C857 C 0.24139 0.47145 0.75870
 C858 C 0.24117 0.48570 0.75868
 C859 C 0.24999 0.49285 0.74999
 C860 C 0.25881 0.48571 0.74128
 C861 C 0.26747 0.49299 0.73279
 C862 C 0.26757 0.50703 0.73290
 C863 C 0.25887 0.51430 0.74137
 C864 C 0.24998 0.50716 0.75000
 C865 C 0.23251 0.49297 0.76720
 C866 C 0.23240 0.50702 0.76710
 C867 C 0.24109 0.51429 0.75863
 C868 C 0.24105 0.52854 0.75843
 C869 C 0.24996 0.53540 0.75000
 C870 C 0.25888 0.52855 0.74158
 H871 H 0.27429 0.48787 0.72600
 H872 H 0.27452 0.51215 0.72625
 H873 H 0.22571 0.48785 0.77399
 H874 H 0.22546 0.51213 0.77376
 H875 H 0.25000 0.45365 0.74995
 H876 H 0.24995 0.54635 0.75001
 C877 C 0.75838 -0.02870 0.25940
 C878 C 0.75025 -0.03555 0.25022
 C879 C 0.74215 -0.02869 0.24101
 C880 C 0.74204 -0.01444 0.24093
 C881 C 0.75030 -0.00730 0.25016
 C882 C 0.75854 -0.01445 0.25941
 C883 C 0.76651 -0.00718 0.26854
 C884 C 0.76650 0.00686 0.26854
 C885 C 0.75854 0.01415 0.25940
 C886 C 0.75031 0.00701 0.25014
 C887 C 0.73409 -0.00716 0.23177
 C888 C 0.73412 0.00688 0.23173
 C889 C 0.74209 0.01415 0.24087
 C890 C 0.74225 0.02840 0.24090
 C891 C 0.75034 0.03526 0.25012
 C892 C 0.75839 0.02840 0.25936
 H893 H 0.77279 -0.01230 0.27582
 H894 H 0.77278 0.01196 0.27583
 H895 H 0.72780 -0.01227 0.22449
 H896 H 0.72786 0.01199 0.22443
 H897 H 0.75022 -0.04650 0.25024
 H898 H 0.75036 0.04620 0.25010
 C899 C 0.75831 0.47138 0.75959
 C900 C 0.74929 0.46455 0.75126
 C901 C 0.74081 0.47140 0.74239
 C902 C 0.74116 0.48564 0.74187
 C903 C 0.75012 0.49277 0.75043
 C904 C 0.75885 0.48562 0.75923
 C905 C 0.76756 0.49289 0.76767
 C906 C 0.76755 0.50694 0.76767
 C907 C 0.75882 0.51422 0.75925
 C908 C 0.75010 0.50709 0.75045
 C909 C 0.73254 0.49292 0.73333
 C910 C 0.73251 0.50697 0.73336
 C911 C 0.74111 0.51423 0.74191
 C912 C 0.74073 0.52847 0.74248
 C913 C 0.74920 0.53531 0.75135
 C914 C 0.75826 0.52846 0.75964
 H915 H 0.77432 0.48777 0.77452
 H916 H 0.77432 0.51204 0.77451
 H917 H 0.72556 0.48782 0.72671
 H918 H 0.72551 0.51208 0.72676
 H919 H 0.74893 0.45361 0.75163
 H920 H 0.74882 0.54624 0.75173
 C921 C 0.24140 0.52863 0.24131
 C922 C 0.25000 0.53549 0.25003
 C923 C 0.25863 0.52864 0.25876
 C924 C 0.25888 0.51440 0.25872
 C925 C 0.25006 0.50725 0.25003
 C926 C 0.24121 0.51438 0.24134
 C927 C 0.23257 0.50710 0.23284
 C928 C 0.23251 0.49306 0.23294
 C929 C 0.24123 0.48579 0.24139
 C930 C 0.25010 0.49294 0.25003
 C931 C 0.26756 0.50713 0.26721
 C932 C 0.26768 0.49309 0.26713
 C933 C 0.25899 0.48580 0.25868
 C934 C 0.25902 0.47155 0.25850
 C935 C 0.25014 0.46469 0.25004
 C936 C 0.24125 0.47155 0.24158
 H937 H 0.22574 0.51221 0.22606
 H938 H 0.22557 0.48793 0.22629
 H939 H 0.27438 0.51226 0.27398
 H940 H 0.27464 0.48798 0.27377
 H941 H 0.24998 0.54644 0.25003
 H942 H 0.25015 0.45375 0.25005
 C943 C 0.75814 0.97166 0.74100
 C944 C 0.75002 0.96481 0.75019
 C945 C 0.74188 0.97166 0.75937
 C946 C 0.74174 0.98592 0.75942
 C947 C 0.75001 0.99306 0.75020
 C948 C 0.75827 0.98591 0.74097
 C949 C 0.76625 0.99319 0.73183
 C950 C 0.76623 1.00723 0.73183
 C951 C 0.75824 1.01451 0.74095
 C952 C 0.74999 1.00737 0.75019
 C953 C 0.73375 0.99320 0.76855
 C954 C 0.73374 1.00724 0.76855
 C955 C 0.74171 1.01452 0.75941
 C956 C 0.74182 1.02877 0.75935
 C957 C 0.74994 1.03562 0.75015
 C958 C 0.75807 1.02877 0.74097
 H959 H 0.77254 0.98808 0.72456
 H960 H 0.77252 1.01234 0.72455
 H961 H 0.72746 0.98808 0.77582
 H962 H 0.72745 1.01236 0.77582
 H963 H 0.75002 0.95386 0.75019
 H964 H 0.74992 1.04657 0.75014
 C965 C 0.75824 0.47157 0.24080
 C966 C 0.75013 0.46471 0.24999
 C967 C 0.74201 0.47157 0.25918
 C968 C 0.74187 0.48582 0.25924
 C969 C 0.75013 0.49296 0.25001
 C970 C 0.75838 0.48582 0.24076
 C971 C 0.76634 0.49310 0.23162
 C972 C 0.76635 0.50714 0.23164
 C973 C 0.75838 0.51442 0.24078
 C974 C 0.75012 0.50727 0.25001
 C975 C 0.73389 0.49309 0.26837
 C976 C 0.73388 0.50714 0.26838
 C977 C 0.74185 0.51442 0.25924
 C978 C 0.74198 0.52867 0.25920
 C979 C 0.75011 0.53552 0.25002
 C980 C 0.75823 0.52866 0.24083
 H981 H 0.77262 0.48799 0.22433
 H982 H 0.77263 0.51225 0.22436
 H983 H 0.72760 0.48798 0.27565
 H984 H 0.72759 0.51225 0.27565
 H985 H 0.75013 0.45377 0.24998
 H986 H 0.75011 0.54647 0.25002
 C987 C 0.24216 0.02826 0.74102
 C988 C 0.25027 0.03509 0.75022
 C989 C 0.25840 0.02822 0.75939
 C990 C 0.25854 0.01396 0.75941
 C991 C 0.25030 0.00684 0.75015
 C992 C 0.24204 0.01401 0.74092
 C993 C 0.23409 0.00676 0.73175
 C994 C 0.23410 -0.00729 0.73173
 C995 C 0.24205 -0.01459 0.74086
 C996 C 0.25031 -0.00747 0.75012
 C997 C 0.26649 0.00666 0.76855
 C998 C 0.26651 -0.00739 0.76851
 C999 C 0.25856 -0.01464 0.75935
 C1000 C 0.25843 -0.02889 0.75927
 C1001 C 0.25031 -0.03572 0.75006
 C1002 C 0.24218 -0.02884 0.74089
 H1003 H 0.22783 0.01189 0.72447
 H1004 H 0.22783 -0.01238 0.72442
 H1005 H 0.27275 0.01176 0.77587
 H1006 H 0.27278 -0.01252 0.77579
 H1007 H 0.25026 0.04604 0.75024
 H1008 H 0.25031 -0.04666 0.75004
 C1009 C 0.24054 0.25804 1.02839
 C1010 C 0.24981 0.24996 1.03522
 C1011 C 0.25909 0.24190 1.02840
 C1012 C 0.25914 0.24175 1.01421
 C1013 C 0.24981 0.24995 1.00709
 C1014 C 0.24049 0.25817 1.01420
 C1015 C 0.23127 0.26609 1.00695
 C1016 C 0.23127 0.26609 0.99296
 C1017 C 0.24050 0.25816 0.98572
 C1018 C 0.24982 0.24994 0.99284
 C1019 C 0.26837 0.23383 1.00698
 C1020 C 0.26838 0.23382 0.99299
 C1021 C 0.25915 0.24173 0.98574
 C1022 C 0.25911 0.24185 0.97155
 C1023 C 0.24985 0.24994 0.96471
 C1024 C 0.24057 0.25803 0.97153
 H1025 H 0.22392 0.27234 1.01204
 H1026 H 0.22393 0.27234 0.98787
 H1027 H 0.27573 0.22759 1.01207
 H1028 H 0.27574 0.22758 0.98792
 H1029 H 0.24982 0.24997 1.04612
 H1030 H 0.24986 0.24994 0.95382
 C1031 C 0.25695 0.73979 0.47151
 C1032 C 0.24773 0.74798 0.46473
 C1033 C 0.23956 0.75721 0.47151
 C1034 C 0.24039 0.75820 0.48565
 C1035 C 0.24955 0.74980 0.49274
 C1036 C 0.25792 0.74060 0.48565
 C1037 C 0.26687 0.73235 0.49288
 C1038 C 0.26769 0.73317 0.50682
 C1039 C 0.25950 0.74218 0.51404
 C1040 C 0.25034 0.75059 0.50695
 C1041 C 0.23219 0.76721 0.49287
 C1042 C 0.23303 0.76804 0.50681
 C1043 C 0.24198 0.75979 0.51404
 C1044 C 0.24297 0.76061 0.52818
 C1045 C 0.25217 0.75241 0.53496
 C1046 C 0.26032 0.74316 0.52818
 H1047 H 0.27330 0.72514 0.48783
 H1048 H 0.27486 0.72670 0.51188
 H1049 H 0.22502 0.77368 0.48781
 H1050 H 0.22660 0.77526 0.51187
 H1051 H 0.24715 0.74740 0.45386
 H1052 H 0.25275 0.75299 0.54583
 C1053 C 0.25941 0.75810 -0.02859
 C1054 C 0.25012 0.75005 -0.03541
 C1055 C 0.24085 0.74198 -0.02858
 C1056 C 0.24079 0.74187 -0.01439
 C1057 C 0.25012 0.75005 -0.00728
 C1058 C 0.25946 0.75823 -0.01440
 C1059 C 0.26873 0.76610 -0.00716
 C1060 C 0.26874 0.76608 0.00682
 C1061 C 0.25948 0.75821 0.01407
 C1062 C 0.25012 0.75005 0.00697
 C1063 C 0.23153 0.73399 -0.00714
 C1064 C 0.23152 0.73400 0.00685
 C1065 C 0.24077 0.74189 0.01409
 C1066 C 0.24083 0.74202 0.02829
 C1067 C 0.25014 0.75006 0.03510
 C1068 C 0.25944 0.75808 0.02826
 H1069 H 0.27610 0.77230 -0.01225
 H1070 H 0.27612 0.77228 0.01190
 H1071 H 0.22417 0.72778 -0.01223
 H1072 H 0.22415 0.72780 0.01194
 H1073 H 0.25012 0.75006 -0.04631
 H1074 H 0.25015 0.75006 0.04599
 C1075 C 0.25923 0.25790 0.47176
 C1076 C 0.24997 0.24984 0.46492
 C1077 C 0.24067 0.24179 0.47173
 C1078 C 0.24059 0.24167 0.48592
 C1079 C 0.24990 0.24986 0.49305
 C1080 C 0.25925 0.25805 0.48595
 C1081 C 0.26846 0.26596 0.49320
 C1082 C 0.26843 0.26597 0.50719
 C1083 C 0.25919 0.25806 0.51443
 C1084 C 0.24988 0.24987 0.50730
 C1085 C 0.23134 0.23377 0.49315
 C1086 C 0.23132 0.23377 0.50714
 C1087 C 0.24054 0.24167 0.51440
 C1088 C 0.24058 0.24178 0.52859
 C1089 C 0.24984 0.24986 0.53543
 C1090 C 0.25912 0.25793 0.52862
 H1091 H 0.27582 0.27219 0.48812
 H1092 H 0.27577 0.27221 0.51229
 H1093 H 0.22399 0.22755 0.48805
 H1094 H 0.22396 0.22754 0.51221
 H1095 H 0.24999 0.24983 0.45402
 H1096 H 0.24983 0.24985 0.54632
 C1097 C 0.74130 0.75887 1.02841
 C1098 C 0.75045 0.75064 1.03523
 C1099 C 0.75942 0.74223 1.02839
 C1100 C 0.75922 0.74186 1.01420
 C1101 C 0.75003 0.75023 1.00710
 C1102 C 0.74109 0.75885 1.01423
 C1103 C 0.73202 0.76698 1.00700
 C1104 C 0.73170 0.76665 0.99303
 C1105 C 0.74040 0.75816 0.98577
 C1106 C 0.74967 0.74987 0.99286
 C1107 C 0.76798 0.73343 1.00695
 C1108 C 0.76754 0.73298 0.99298
 C1109 C 0.75845 0.74108 0.98575
 C1110 C 0.75769 0.74047 0.97160
 C1111 C 0.74842 0.74858 0.96479
 C1112 C 0.73989 0.75746 0.97160
 H1113 H 0.72503 0.77360 1.01211
 H1114 H 0.72443 0.77301 0.98796
 H1115 H 0.77520 0.72703 1.01203
 H1116 H 0.77435 0.72615 0.98789
 H1117 H 0.75054 0.75072 1.04612
 H1118 H 0.74798 0.74811 0.95391
 C1119 C 0.75913 0.24187 0.47150
 C1120 C 0.74986 0.24995 0.46467
 C1121 C 0.74058 0.25802 0.47148
 C1122 C 0.74050 0.25813 0.48567
 C1123 C 0.74980 0.24990 0.49279
 C1124 C 0.75915 0.24171 0.48569
 C1125 C 0.76836 0.23377 0.49294
 C1126 C 0.76834 0.23375 0.50692
 C1127 C 0.75910 0.24167 0.51416
 C1128 C 0.74978 0.24988 0.50704
 C1129 C 0.73126 0.26605 0.49290
 C1130 C 0.73124 0.26603 0.50689
 C1131 C 0.74045 0.25809 0.51414
 C1132 C 0.74049 0.25796 0.52833
 C1133 C 0.74975 0.24986 0.53516
 C1134 C 0.75904 0.24179 0.52834
 H1135 H 0.77573 0.22754 0.48785
 H1136 H 0.77568 0.22750 0.51201
 H1137 H 0.72392 0.27230 0.48781
 H1138 H 0.72388 0.27228 0.51197
 H1139 H 0.74989 0.24997 0.45377
 H1140 H 0.74974 0.24986 0.54606
 C1141 C 0.75911 0.25821 -0.02846
 C1142 C 0.74986 0.25012 -0.03529
 C1143 C 0.74062 0.24200 -0.02847
 C1144 C 0.74057 0.24186 -0.01428
 C1145 C 0.74986 0.25009 -0.00716
 C1146 C 0.75916 0.25832 -0.01427
 C1147 C 0.76836 0.26625 -0.00701
 C1148 C 0.76837 0.26622 0.00697
 C1149 C 0.75918 0.25827 0.01421
 C1150 C 0.74987 0.25006 0.00709
 C1151 C 0.73137 0.23392 -0.00704
 C1152 C 0.73137 0.23390 0.00694
 C1153 C 0.74058 0.24182 0.01420
 C1154 C 0.74064 0.24191 0.02839
 C1155 C 0.74990 0.24999 0.03522
 C1156 C 0.75915 0.25810 0.02841
 H1157 H 0.77569 0.27252 -0.01210
 H1158 H 0.77571 0.27246 0.01207
 H1159 H 0.72404 0.22767 -0.01214
 H1160 H 0.72404 0.22763 0.01202
 H1161 H 0.74986 0.25013 -0.04619
 H1162 H 0.74991 0.24996 0.04612
 C1163 C 0.74214 0.74046 0.47173
 C1164 C 0.75143 0.74852 0.46492
 C1165 C 0.75997 0.75738 0.47172
 C1166 C 0.75945 0.75810 0.48589
 C1167 C 0.75016 0.74985 0.49299
 C1168 C 0.74137 0.74108 0.48588
 C1169 C 0.73227 0.73301 0.49311
 C1170 C 0.73184 0.73346 0.50708
 C1171 C 0.74061 0.74187 0.51433
 C1172 C 0.74980 0.75022 0.50723
 C1173 C 0.76816 0.76656 0.49314
 C1174 C 0.76782 0.76691 0.50712
 C1175 C 0.75874 0.75882 0.51435
 C1176 C 0.75853 0.75885 0.52854
 C1177 C 0.74936 0.75065 0.53535
 C1178 C 0.74042 0.74223 0.52852
 H1179 H 0.72545 0.72621 0.48802
 H1180 H 0.72460 0.72708 0.51216
 H1181 H 0.77545 0.77289 0.48807
 H1182 H 0.77483 0.77351 0.51222
 H1183 H 0.75187 0.74805 0.45404
 H1184 H 0.74927 0.75074 0.54625
 C1185 C 0.97155 0.25969 0.24215
 C1186 C 0.96466 0.25068 0.25045
 C1187 C 0.97148 0.24147 0.25860
 C1188 C 0.98574 0.24126 0.25860
 C1189 C 0.99291 0.25025 0.25010
 C1190 C 0.98580 0.25949 0.24181
 C1191 C 0.99310 0.26830 0.23350
 C1192 C 1.00714 0.26787 0.23309
 C1193 C 1.01438 0.25872 0.24110
 C1194 C 1.00722 0.24988 0.24976
 C1195 C 0.99299 0.23212 0.26662
 C1196 C 1.00703 0.23178 0.26631
 C1197 C 1.01434 0.24054 0.25794
 C1198 C 1.02857 0.24002 0.25725
 C1199 C 1.03543 0.24863 0.24851
 C1200 C 1.02860 0.25796 0.24051
 H1201 H 0.98802 0.27557 0.22716
 H1202 H 1.01227 0.27474 0.22636
 H1203 H 0.98786 0.22507 0.27315
 H1204 H 1.01211 0.22445 0.27258
 H1205 H 0.95372 0.25076 0.25049
 H1206 H 1.04636 0.24820 0.24807
 C1207 C 0.47153 0.25719 0.74005
 C1208 C 0.46469 0.24826 0.74849
 C1209 C 0.47151 0.24014 0.75770
 C1210 C 0.48573 0.24080 0.75853
 C1211 C 0.49288 0.24960 0.74981
 C1212 C 0.48576 0.25788 0.74057
 C1213 C 0.49305 0.26635 0.73190
 C1214 C 0.50709 0.26669 0.73226
 C1215 C 0.51434 0.25861 0.74133
 C1216 C 0.50718 0.24999 0.75021
 C1217 C 0.49298 0.23274 0.76762
 C1218 C 0.50701 0.23321 0.76809
 C1219 C 0.51431 0.24160 0.75935
 C1220 C 0.52855 0.24194 0.75953
 C1221 C 0.53543 0.25041 0.75068
 C1222 C 0.52859 0.25867 0.74159
 H1223 H 0.48797 0.27266 0.72462
 H1224 H 0.51222 0.27329 0.72528
 H1225 H 0.48786 0.22593 0.77441
 H1226 H 0.51211 0.22685 0.77532
 H1227 H 0.45376 0.24779 0.74803
 H1228 H 0.54637 0.25050 0.75079
 C1229 C -0.02871 0.24114 0.74160
 C1230 C -0.03558 0.25003 0.75003
 C1231 C -0.02874 0.25893 0.75848
 C1232 C -0.01449 0.25887 0.75874
 C1233 C -0.00733 0.25002 0.75007
 C1234 C -0.01446 0.24118 0.74138
 C1235 C -0.00717 0.23254 0.73286
 C1236 C 0.00687 0.23263 0.73278
 C1237 C 0.01414 0.24122 0.74136
 C1238 C 0.00698 0.25001 0.75009
 C1239 C -0.00722 0.26749 0.76727
 C1240 C 0.00682 0.26739 0.76738
 C1241 C 0.01411 0.25879 0.75882
 C1242 C 0.02836 0.25859 0.75884
 C1243 C 0.03523 0.24998 0.75012
 C1244 C 0.02838 0.24139 0.74137
 H1245 H -0.01228 0.22566 0.72614
 H1246 H 0.01200 0.22588 0.72594
 H1247 H -0.01235 0.27438 0.77399
 H1248 H 0.01193 0.27414 0.77423
 H1249 H -0.04653 0.25003 0.75003
 H1250 H 0.04618 0.24997 0.75013
 C1251 C 0.47150 0.25880 0.25849
 C1252 C 0.46466 0.24993 0.25002
 C1253 C 0.47154 0.24105 0.24157
 C1254 C 0.48578 0.24109 0.24135
 C1255 C 0.49291 0.24992 0.25004
 C1256 C 0.48575 0.25876 0.25872
 C1257 C 0.49302 0.26738 0.26726
 C1258 C 0.50707 0.26728 0.26736
 C1259 C 0.51435 0.25869 0.25879
 C1260 C 0.50722 0.24991 0.25005
 C1261 C 0.49307 0.23245 0.23283
 C1262 C 0.50712 0.23254 0.23275
 C1263 C 0.51438 0.24112 0.24133
 C1264 C 0.52863 0.24130 0.24134
 C1265 C 0.53547 0.24989 0.25008
 C1266 C 0.52860 0.25850 0.25881
 H1267 H 0.48789 0.27426 0.27397
 H1268 H 0.51218 0.27403 0.27421
 H1269 H 0.48797 0.22557 0.22611
 H1270 H 0.51225 0.22578 0.22592
 H1271 H 0.45371 0.24992 0.25002
 H1272 H 0.54642 0.24989 0.25009
 C1273 C 1.02857 0.74224 0.75947
 C1274 C 1.03543 0.75071 0.75061
 C1275 C 1.02858 0.75896 0.74152
 C1276 C 1.01433 0.75890 0.74128
 C1277 C 1.00718 0.75024 0.75014
 C1278 C 1.01432 0.74186 0.75927
 C1279 C 1.00705 0.73341 0.76798
 C1280 C 0.99302 0.73294 0.76752
 C1281 C 0.98574 0.74102 0.75847
 C1282 C 0.99288 0.74984 0.74976
 C1283 C 1.00706 0.76702 0.73226
 C1284 C 0.99302 0.76665 0.73191
 C1285 C 0.98574 0.75813 0.74054
 C1286 C 0.97151 0.75741 0.74003
 C1287 C 0.96469 0.74847 0.74846
 C1288 C 0.97153 0.74037 0.75768
 H1289 H 1.01216 0.72703 0.77518
 H1290 H 0.98792 0.72610 0.77429
 H1291 H 1.01217 0.77366 0.72532
 H1292 H 0.98792 0.77299 0.72467
 H1293 H 1.04638 0.75081 0.75071
 H1294 H 0.95376 0.74798 0.74800
 C1295 C 0.47150 0.75900 0.24150
 C1296 C 0.46464 0.75009 0.24992
 C1297 C 0.47150 0.74119 0.25837
 C1298 C 0.48574 0.74123 0.25862
 C1299 C 0.49289 0.75009 0.24996
 C1300 C 0.48575 0.75895 0.24129
 C1301 C 0.49303 0.76760 0.23279
 C1302 C 0.50708 0.76750 0.23270
 C1303 C 0.51435 0.75889 0.24126
 C1304 C 0.50720 0.75009 0.24998
 C1305 C 0.49302 0.73259 0.26714
 C1306 C 0.50706 0.73270 0.26727
 C1307 C 0.51434 0.74130 0.25872
 C1308 C 0.52859 0.74149 0.25874
 C1309 C 0.53545 0.75009 0.25001
 C1310 C 0.52859 0.75869 0.24126
 H1311 H 0.48791 0.77451 0.22609
 H1312 H 0.51220 0.77427 0.22588
 H1313 H 0.48790 0.72569 0.27383
 H1314 H 0.51218 0.72594 0.27411
 H1315 H 0.45369 0.75009 0.24991
 H1316 H 0.54640 0.75009 0.25002
 C1317 C -0.02866 0.75893 0.25839
 C1318 C -0.03551 0.75003 0.24996
 C1319 C -0.02864 0.74113 0.24152
 C1320 C -0.01439 0.74119 0.24127
 C1321 C -0.00726 0.75005 0.24994
 C1322 C -0.01441 0.75889 0.25862
 C1323 C -0.00714 0.76753 0.26714
 C1324 C 0.00691 0.76742 0.26724
 C1325 C 0.01419 0.75884 0.25867
 C1326 C 0.00706 0.75005 0.24994
 C1327 C -0.00710 0.73257 0.23274
 C1328 C 0.00694 0.73268 0.23263
 C1329 C 0.01421 0.74127 0.24120
 C1330 C 0.02846 0.74146 0.24119
 C1331 C 0.03531 0.75006 0.24993
 C1332 C 0.02845 0.75865 0.25868
 H1333 H -0.01226 0.77442 0.27385
 H1334 H 0.01203 0.77417 0.27409
 H1335 H -0.01221 0.72567 0.22603
 H1336 H 0.01207 0.72594 0.22577
 H1337 H -0.04646 0.75002 0.24997
 H1338 H 0.04626 0.75006 0.24993
 C1339 C 0.47136 0.74033 0.74252
 C1340 C 0.46452 0.74842 0.75175
 C1341 C 0.47134 0.75735 0.76020
 C1342 C 0.48557 0.75806 0.75968
 C1343 C 0.49271 0.74978 0.75046
 C1344 C 0.48558 0.74099 0.74172
 C1345 C 0.49286 0.73293 0.73265
 C1346 C 0.50689 0.73340 0.73221
 C1347 C 0.51417 0.74181 0.74094
 C1348 C 0.50702 0.75018 0.75008
 C1349 C 0.49285 0.76655 0.76834
 C1350 C 0.50689 0.76692 0.76799
 C1351 C 0.51416 0.75883 0.75895
 C1352 C 0.52842 0.75891 0.75870
 C1353 C 0.53527 0.75067 0.74961
 C1354 C 0.52842 0.74219 0.74075
 H1355 H 0.48776 0.72612 0.72586
 H1356 H 0.51201 0.72703 0.72500
 H1357 H 0.48775 0.77287 0.77560
 H1358 H 0.51201 0.77354 0.77496
 H1359 H 0.45359 0.74794 0.75220
 H1360 H 0.54621 0.75078 0.74950
 C1361 C 0.41000 0.29881 0.29836
 C1362 C 0.40408 0.29269 0.30955
 C1363 C 0.39194 0.29762 0.31472
 C1364 C 0.38550 0.30878 0.30876
 C1365 C 0.39156 0.31486 0.29749
 C1366 C 0.40371 0.30990 0.29234
 C1367 C 0.42216 0.29333 0.29268
 C1368 C 0.43207 0.28850 0.28758
 C1369 C 0.44342 0.28240 0.28091
 C1370 C 0.45146 0.27288 0.28756
 C1371 C 0.46131 0.26570 0.28045
 C1372 C 0.46315 0.26802 0.26667
 C1373 C 0.45541 0.27793 0.26021
 C1374 C 0.44562 0.28511 0.26731
 H1375 H 0.40881 0.28402 0.31421
 H1376 H 0.38765 0.29261 0.32335
 H1377 H 0.38695 0.32340 0.29254
 H1378 H 0.40813 0.31465 0.28359
 H1379 H 0.44976 0.27063 0.29807
 H1380 H 0.46706 0.25792 0.28552
 H1381 H 0.45658 0.27969 0.24954
 H1382 H 0.43940 0.29238 0.26205
 C1383 C 0.40978 0.79892 0.79848
 C1384 C 0.40364 0.79274 0.80950
 C1385 C 0.39153 0.79778 0.81463
 C1386 C 0.38527 0.80916 0.80882
 C1387 C 0.39159 0.81527 0.79765
 C1388 C 0.40372 0.81018 0.79256
 C1389 C 0.42194 0.79324 0.79296
 C1390 C 0.43185 0.78793 0.78834
 C1391 C 0.44318 0.78086 0.78267
 C1392 C 0.44496 0.76718 0.78562
 C1393 C 0.45477 0.75969 0.77887
 C1394 C 0.46296 0.76583 0.76914
 C1395 C 0.46156 0.77969 0.76662
 C1396 C 0.45168 0.78719 0.77336
 H1397 H 0.40817 0.78392 0.81408
 H1398 H 0.38717 0.79260 0.82313
 H1399 H 0.38725 0.82395 0.79273
 H1400 H 0.40832 0.81497 0.78392
 H1401 H 0.43841 0.76217 0.79275
 H1402 H 0.45561 0.74897 0.78080
 H1403 H 0.46764 0.78453 0.75899
 H1404 H 0.45034 0.79775 0.77095
 C1405 C -0.09000 0.29922 0.79841
 C1406 C -0.09597 0.29307 0.80955
 C1407 C -0.10810 0.29805 0.81471
 C1408 C -0.11448 0.30927 0.80878
 C1409 C -0.10834 0.31537 0.79756
 C1410 C -0.09621 0.31037 0.79243
 C1411 C -0.07789 0.29369 0.79268
 C1412 C -0.06803 0.28884 0.78752
 C1413 C -0.05674 0.28270 0.78082
 C1414 C -0.04871 0.27318 0.78749
 C1415 C -0.03890 0.26593 0.78040
 C1416 C -0.03709 0.26819 0.76661
 C1417 C -0.04483 0.27808 0.76010
 C1418 C -0.05458 0.28532 0.76719
 H1419 H -0.09132 0.28434 0.81419
 H1420 H -0.11247 0.29300 0.82328
 H1421 H -0.11289 0.32396 0.79264
 H1422 H -0.09172 0.31513 0.78372
 H1423 H -0.05039 0.27100 0.79801
 H1424 H -0.03318 0.25816 0.78549
 H1425 H -0.04368 0.27977 0.74942
 H1426 H -0.06080 0.29257 0.76190
 C1427 C -0.09017 0.79908 0.29816
 C1428 C -0.09606 0.79299 0.30937
 C1429 C -0.10815 0.79799 0.31460
 C1430 C -0.11458 0.80918 0.30866
 C1431 C -0.10854 0.81521 0.29736
 C1432 C -0.09644 0.81019 0.29216
 C1433 C -0.07803 0.79356 0.29245
 C1434 C -0.06812 0.78872 0.28734
 C1435 C -0.05677 0.78261 0.28070
 C1436 C -0.04874 0.77309 0.28738
 C1437 C -0.03888 0.76589 0.28031
 C1438 C -0.03701 0.76819 0.26653
 C1439 C -0.04474 0.77809 0.26003
 C1440 C -0.05454 0.78529 0.26710
 H1441 H -0.09136 0.78430 0.31401
 H1442 H -0.11242 0.79301 0.32326
 H1443 H -0.11314 0.82376 0.29242
 H1444 H -0.09203 0.81490 0.28338
 H1445 H -0.05047 0.77086 0.29789
 H1446 H -0.03315 0.75812 0.28541
 H1447 H -0.04355 0.77982 0.24936
 H1448 H -0.06074 0.79255 0.26181
 C1449 C 0.58989 0.70109 0.29852
 C1450 C 0.59582 0.70710 0.30975
 C1451 C 0.60797 0.70211 0.31485
 C1452 C 0.61441 0.69102 0.30877
 C1453 C 0.60832 0.68504 0.29746
 C1454 C 0.59616 0.69006 0.29238
 C1455 C 0.57775 0.70668 0.29290
 C1456 C 0.56787 0.71181 0.28803
 C1457 C 0.55659 0.71860 0.28197
 C1458 C 0.55436 0.73222 0.28487
 C1459 C 0.54461 0.73946 0.27781
 C1460 C 0.53692 0.73314 0.26781
 C1461 C 0.53879 0.71934 0.26526
 C1462 C 0.54861 0.71209 0.27233
 H1463 H 0.59112 0.71573 0.31450
 H1464 H 0.61228 0.70706 0.32350
 H1465 H 0.61291 0.67654 0.29244
 H1466 H 0.59171 0.68541 0.28360
 H1467 H 0.56055 0.73738 0.29221
 H1468 H 0.54342 0.75015 0.27973
 H1469 H 0.53310 0.71439 0.25740
 H1470 H 0.55034 0.70157 0.26992
 C1471 C 0.59001 0.20105 0.79855
 C1472 C 0.59611 0.18988 0.79249
 C1473 C 0.60831 0.18486 0.79747
 C1474 C 0.61460 0.19095 0.80860
 C1475 C 0.60833 0.20220 0.81459
 C1476 C 0.59615 0.20719 0.80960
 C1477 C 0.57782 0.20668 0.79305
 C1478 C 0.56792 0.21189 0.78833
 C1479 C 0.55662 0.21882 0.78246
 C1480 C 0.54820 0.21232 0.77320
 C1481 C 0.53835 0.21968 0.76628
 C1482 C 0.53690 0.23358 0.76859
 C1483 C 0.54504 0.23990 0.77822
 C1484 C 0.55482 0.23255 0.78515
 H1485 H 0.59149 0.18513 0.78384
 H1486 H 0.61277 0.17624 0.79253
 H1487 H 0.61279 0.20725 0.82311
 H1488 H 0.59158 0.21593 0.81429
 H1489 H 0.54960 0.20173 0.77095
 H1490 H 0.53232 0.21472 0.75868
 H1491 H 0.54419 0.25065 0.77994
 H1492 H 0.56135 0.23770 0.79220
 C1493 C 1.08991 0.70148 0.79885
 C1494 C 1.09609 0.69044 0.79264
 C1495 C 1.10826 0.68536 0.79763
 C1496 C 1.11444 0.69129 0.80891
 C1497 C 1.10808 0.70239 0.81507
 C1498 C 1.09593 0.70743 0.81007
 C1499 C 1.07777 0.70719 0.79334
 C1500 C 1.06790 0.71244 0.78858
 C1501 C 1.05662 0.71933 0.78264
 C1502 C 1.04830 0.71277 0.77333
 C1503 C 1.03847 0.72006 0.76632
 C1504 C 1.03692 0.73395 0.76859
 C1505 C 1.04496 0.74034 0.77827
 C1506 C 1.05473 0.73306 0.78528
 H1507 H 1.09157 0.68584 0.78387
 H1508 H 1.11280 0.67685 0.79257
 H1509 H 1.11246 0.70730 0.82371
 H1510 H 1.09129 0.71607 0.81488
 H1511 H 1.04977 0.70217 0.77113
 H1512 H 1.03252 0.71504 0.75870
 H1513 H 1.04402 0.75109 0.77997
 H1514 H 1.06118 0.73825 0.79237
 C1515 C 1.08983 0.20057 0.29812
 C1516 C 1.09614 0.18942 0.29225
 C1517 C 1.10828 0.18454 0.29747
 C1518 C 1.11433 0.19075 0.30867
 C1519 C 1.10784 0.20195 0.31451
 C1520 C 1.09569 0.20682 0.30926
 C1521 C 1.07772 0.20598 0.29225
 C1522 C 1.06786 0.21069 0.28693
 C1523 C 1.05658 0.21662 0.28002
 C1524 C 1.05479 0.21405 0.26632
 C1525 C 1.04503 0.22112 0.25907
 C1526 C 1.03691 0.23078 0.26546
 C1527 C 1.03834 0.23293 0.27931
 C1528 C 1.04815 0.22587 0.28658
 H1529 H 1.09174 0.18457 0.28355
 H1530 H 1.11290 0.17594 0.29264
 H1531 H 1.11213 0.20708 0.32308
 H1532 H 1.09095 0.21553 0.31382
 H1533 H 1.06130 0.20699 0.26114
 H1534 H 1.04418 0.21948 0.24835
 H1535 H 1.03231 0.24051 0.28434
 H1536 H 1.04953 0.22800 0.29715
 C1537 C 0.58992 0.29876 0.70152
 C1538 C 0.59587 0.31011 0.70736
 C1539 C 0.60799 0.31520 0.70228
 C1540 C 0.61436 0.30898 0.69125
 C1541 C 0.60825 0.29754 0.68547
 C1542 C 0.59614 0.29250 0.69058
 C1543 C 0.57781 0.29311 0.70714
 C1544 C 0.56795 0.28795 0.71201
 C1545 C 0.55668 0.28116 0.71809
 C1546 C 0.54832 0.28789 0.72725
 C1547 C 0.53848 0.28074 0.73438
 C1548 C 0.53697 0.26681 0.73238
 C1549 C 0.54504 0.26024 0.72283
 C1550 C 0.55482 0.26738 0.71571
 H1551 H 0.59120 0.31497 0.71592
 H1552 H 0.61233 0.32396 0.70706
 H1553 H 0.61279 0.29239 0.67705
 H1554 H 0.59168 0.28362 0.68605
 H1555 H 0.54975 0.29853 0.72925
 H1556 H 0.53248 0.28589 0.74188
 H1557 H 0.54413 0.24946 0.72133
 H1558 H 0.56129 0.26205 0.70873
 C1559 C 0.58992 0.79914 0.20167
 C1560 C 0.59608 0.79285 0.19071
 C1561 C 0.60819 0.79784 0.18557
 C1562 C 0.61436 0.80925 0.19134
 C1563 C 0.60805 0.81549 0.20238
 C1564 C 0.59593 0.81047 0.20750
 C1565 C 0.57779 0.79356 0.20731
 C1566 C 0.56792 0.78842 0.21216
 C1567 C 0.55663 0.78162 0.21817
 C1568 C 0.55442 0.76801 0.21522
 C1569 C 0.54465 0.76075 0.22223
 C1570 C 0.53693 0.76706 0.23223
 C1571 C 0.53878 0.78084 0.23482
 C1572 C 0.54861 0.78811 0.22780
 H1573 H 0.59157 0.78399 0.18620
 H1574 H 0.61268 0.79268 0.17713
 H1575 H 0.61245 0.82423 0.20716
 H1576 H 0.59130 0.81534 0.21607
 H1577 H 0.56063 0.76287 0.20787
 H1578 H 0.54347 0.75008 0.22027
 H1579 H 0.53305 0.78578 0.24267
 H1580 H 0.55031 0.79862 0.23023
 C1581 C 1.08996 0.29926 0.20187
 C1582 C 1.09614 0.31042 0.20785
 C1583 C 1.10826 0.31542 0.20271
 C1584 C 1.11440 0.30932 0.19149
 C1585 C 1.10806 0.29809 0.18557
 C1586 C 1.09596 0.29312 0.19074
 C1587 C 1.07783 0.29365 0.20747
 C1588 C 1.06795 0.28844 0.21220
 C1589 C 1.05663 0.28153 0.21803
 C1590 C 1.04894 0.28764 0.22815
 C1591 C 1.03911 0.28019 0.23498
 C1592 C 1.03694 0.26660 0.23172
 C1593 C 1.04432 0.26069 0.22124
 C1594 C 1.05409 0.26814 0.21440
 H1595 H 1.09164 0.31518 0.21656
 H1596 H 1.11280 0.32402 0.20760
 H1597 H 1.11241 0.29305 0.17699
 H1598 H 1.09132 0.28439 0.18611
 H1599 H 1.05090 0.29796 0.23110
 H1600 H 1.03365 0.28481 0.24320
 H1601 H 1.04289 0.25016 0.21874
 H1602 H 1.06003 0.26329 0.20665
 C1603 C 1.08982 0.79904 0.70134
 C1604 C 1.09594 0.81024 0.70730
 C1605 C 1.10808 0.81527 0.70220
 C1606 C 1.11430 0.80914 0.69103
 C1607 C 1.10801 0.79788 0.68512
 C1608 C 1.09588 0.79289 0.69025
 C1609 C 1.07771 0.79342 0.70699
 C1610 C 1.06786 0.78827 0.71187
 C1611 C 1.05659 0.78147 0.71796
 C1612 C 1.04825 0.78820 0.72714
 C1613 C 1.03844 0.78103 0.73430
 C1614 C 1.03694 0.76710 0.73229
 C1615 C 1.04500 0.76053 0.72273
 C1616 C 1.05475 0.76769 0.71558
 H1617 H 1.09140 0.81502 0.71598
 H1618 H 1.11255 0.82391 0.70707
 H1619 H 1.11242 0.79280 0.67659
 H1620 H 1.09129 0.78413 0.68563
 H1621 H 1.04967 0.79884 0.72913
 H1622 H 1.03245 0.78618 0.74181
 H1623 H 1.04410 0.74976 0.72123
 H1624 H 1.06121 0.76237 0.70859
 C1625 C 0.40988 0.70152 0.70143
 C1626 C 0.40391 0.70760 0.69025
 C1627 C 0.39182 0.70255 0.68507
 C1628 C 0.38549 0.69133 0.69103
 C1629 C 0.39162 0.68530 0.70229
 C1630 C 0.40371 0.69037 0.70744
 C1631 C 0.42202 0.70705 0.70714
 C1632 C 0.43191 0.71180 0.71234
 C1633 C 0.44325 0.71766 0.71920
 C1634 C 0.45107 0.72766 0.71301
 C1635 C 0.46094 0.73452 0.72038
 C1636 C 0.46303 0.73143 0.73398
 C1637 C 0.45550 0.72106 0.73996
 C1638 C 0.44570 0.71419 0.73259
 H1639 H 0.40853 0.71632 0.68559
 H1640 H 0.38747 0.70752 0.67644
 H1641 H 0.38711 0.67671 0.70723
 H1642 H 0.40819 0.68566 0.71618
 H1643 H 0.44918 0.73050 0.70268
 H1644 H 0.46650 0.74266 0.71569
 H1645 H 0.45684 0.71870 0.75049
 H1646 H 0.43966 0.70655 0.73750
 C1647 C 0.41013 0.20089 0.20187
 C1648 C 0.40426 0.20704 0.19067
 C1649 C 0.39217 0.20208 0.18541
 C1650 C 0.38574 0.19089 0.19130
 C1651 C 0.39173 0.18483 0.20262
 C1652 C 0.40383 0.18980 0.20784
 C1653 C 0.42228 0.20634 0.20759
 C1654 C 0.43219 0.21115 0.21269
 C1655 C 0.44354 0.21726 0.21930
 C1656 C 0.45153 0.22677 0.21260
 C1657 C 0.46136 0.23402 0.21966
 C1658 C 0.46321 0.23177 0.23345
 C1659 C 0.45554 0.22186 0.23997
 C1660 C 0.44578 0.21461 0.23292
 H1661 H 0.40898 0.21572 0.18605
 H1662 H 0.38792 0.20710 0.17675
 H1663 H 0.38712 0.17628 0.20753
 H1664 H 0.40822 0.18505 0.21661
 H1665 H 0.44981 0.22896 0.20209
 H1666 H 0.46705 0.24179 0.21454
 H1667 H 0.45673 0.22016 0.25064
 H1668 H 0.43959 0.20736 0.23822
 C1669 C -0.09001 0.70088 0.20178
 C1670 C -0.09639 0.68989 0.20786
 C1671 C -0.10851 0.68495 0.20268
 C1672 C -0.11447 0.69094 0.19131
 C1673 C -0.10792 0.70199 0.18526
 C1674 C -0.09580 0.70691 0.19047
 C1675 C -0.07788 0.70636 0.20752
 C1676 C -0.06800 0.71119 0.21266
 C1677 C -0.05668 0.71733 0.21930
 C1678 C -0.05445 0.71471 0.23292
 C1679 C -0.04467 0.72195 0.23996
 C1680 C -0.03698 0.73183 0.23342
 C1681 C -0.03885 0.73408 0.21963
 C1682 C -0.04868 0.72683 0.21259
 H1683 H -0.09205 0.68521 0.21669
 H1684 H -0.11319 0.67648 0.20767
 H1685 H -0.11213 0.70693 0.17655
 H1686 H -0.09100 0.71550 0.18576
 H1687 H -0.06064 0.70746 0.23824
 H1688 H -0.04348 0.72026 0.25064
 H1689 H -0.03315 0.74183 0.21450
 H1690 H -0.05041 0.72901 0.20207
 C1691 C -0.08994 0.20080 0.70172
 C1692 C -0.09585 0.20696 0.69056
 C1693 C -0.10797 0.20201 0.68534
 C1694 C -0.11437 0.19081 0.69124
 C1695 C -0.10829 0.18467 0.70247
 C1696 C -0.09617 0.18964 0.70766
 C1697 C -0.07784 0.20631 0.70749
 C1698 C -0.06798 0.21118 0.71264
 C1699 C -0.05669 0.21734 0.71931
 C1700 C -0.04866 0.22682 0.71261
 C1701 C -0.03885 0.23407 0.71968
 C1702 C -0.03704 0.23186 0.73348
 C1703 C -0.04478 0.22200 0.74001
 C1704 C -0.05453 0.21475 0.73295
 H1705 H -0.09117 0.21567 0.68595
 H1706 H -0.11228 0.20707 0.67674
 H1707 H -0.11284 0.17607 0.70734
 H1708 H -0.09173 0.18486 0.71638
 H1709 H -0.05033 0.22897 0.70208
 H1710 H -0.03311 0.24181 0.71456
 H1711 H -0.04363 0.22033 0.75069
 H1712 H -0.06075 0.20753 0.73825
 C1713 C 0.29869 0.40987 0.29845
 C1714 C 0.30978 0.40359 0.29244
 C1715 C 0.31477 0.39146 0.29761
 C1716 C 0.30872 0.38542 0.30890
 C1717 C 0.29753 0.39183 0.31484
 C1718 C 0.29257 0.40395 0.30963
 C1719 C 0.29323 0.42206 0.29278
 C1720 C 0.28845 0.43200 0.28769
 C1721 C 0.28245 0.44339 0.28101
 C1722 C 0.28522 0.44559 0.26742
 C1723 C 0.27812 0.45542 0.26030
 C1724 C 0.26822 0.46321 0.26672
 C1725 C 0.26584 0.46139 0.28049
 C1726 C 0.27294 0.45149 0.28763
 H1727 H 0.31453 0.40801 0.28369
 H1728 H 0.32333 0.38688 0.29268
 H1729 H 0.29253 0.38754 0.32347
 H1730 H 0.28388 0.40866 0.31429
 H1731 H 0.29247 0.43933 0.26218
 H1732 H 0.27991 0.45657 0.24963
 H1733 H 0.25807 0.46717 0.28553
 H1734 H 0.27065 0.44981 0.29813
 C1735 C 0.29847 -0.09052 0.79895
 C1736 C 0.29237 -0.09672 0.80998
 C1737 C 0.29752 -0.10880 0.81507
 C1738 C 0.30894 -0.11496 0.80919
 C1739 C 0.31496 -0.10856 0.79803
 C1740 C 0.30976 -0.09647 0.79298
 C1741 C 0.29275 -0.07838 0.79345
 C1742 C 0.28754 -0.06847 0.78872
 C1743 C 0.28074 -0.05711 0.78280
 C1744 C 0.26689 -0.05543 0.78494
 C1745 C 0.25978 -0.04559 0.77785
 C1746 C 0.26646 -0.03728 0.76859
 C1747 C 0.28045 -0.03858 0.76689
 C1748 C 0.28757 -0.04848 0.77398
 H1749 H 0.28353 -0.09226 0.81460
 H1750 H 0.29242 -0.11322 0.82358
 H1751 H 0.32367 -0.11281 0.79307
 H1752 H 0.31449 -0.09182 0.78434
 H1753 H 0.26149 -0.06210 0.79167
 H1754 H 0.24896 -0.04482 0.77913
 H1755 H 0.28570 -0.03239 0.75962
 H1756 H 0.29828 -0.04975 0.77220
 C1757 C 0.79904 0.41005 0.79905
 C1758 C 0.79302 0.40407 0.81024
 C1759 C 0.79801 0.39193 0.81534
 C1760 C 0.80917 0.38548 0.80930
 C1761 C 0.81514 0.39167 0.79799
 C1762 C 0.81010 0.40384 0.79294
 C1763 C 0.79339 0.42218 0.79346
 C1764 C 0.78820 0.43206 0.78864
 C1765 C 0.78135 0.44335 0.78265
 C1766 C 0.76775 0.44560 0.78569
 C1767 C 0.76045 0.45537 0.77869
 C1768 C 0.76670 0.46304 0.76863
 C1769 C 0.78047 0.46115 0.76596
 C1770 C 0.78778 0.45131 0.77295
 H1771 H 0.78435 0.40873 0.81497
 H1772 H 0.79296 0.38767 0.82396
 H1773 H 0.82367 0.38721 0.79291
 H1774 H 0.81477 0.40833 0.78419
 H1775 H 0.76266 0.43943 0.79310
 H1776 H 0.74979 0.45657 0.78072
 H1777 H 0.78536 0.46683 0.75806
 H1778 H 0.79826 0.44957 0.77044
 C1779 C 0.79832 -0.09022 0.29926
 C1780 C 0.79214 -0.09647 0.31022
 C1781 C 0.79721 -0.10860 0.31525
 C1782 C 0.80863 -0.11477 0.30940
 C1783 C 0.81473 -0.10833 0.29831
 C1784 C 0.80961 -0.09618 0.29331
 C1785 C 0.79265 -0.07805 0.29379
 C1786 C 0.78747 -0.06813 0.28906
 C1787 C 0.78069 -0.05678 0.28310
 C1788 C 0.76684 -0.05509 0.28523
 C1789 C 0.75972 -0.04530 0.27807
 C1790 C 0.76640 -0.03706 0.26875
 C1791 C 0.78039 -0.03837 0.26706
 C1792 C 0.78752 -0.04821 0.27422
 H1793 H 0.78329 -0.09201 0.31482
 H1794 H 0.79204 -0.11306 0.32370
 H1795 H 0.82345 -0.11258 0.29336
 H1796 H 0.81439 -0.09149 0.28472
 H1797 H 0.76144 -0.06171 0.29201
 H1798 H 0.74890 -0.04452 0.27936
 H1799 H 0.78564 -0.03222 0.25975
 H1800 H 0.79822 -0.04949 0.27244
 C1801 C 0.29893 0.59004 0.70176
 C1802 C 0.29280 0.59592 0.69056
 C1803 C 0.29776 0.60801 0.68532
 C1804 C 0.30895 0.61444 0.69123
 C1805 C 0.31502 0.60841 0.70252
 C1806 C 0.31004 0.59631 0.70774
 C1807 C 0.29345 0.57789 0.70749
 C1808 C 0.28862 0.56799 0.71259
 C1809 C 0.28252 0.55664 0.71923
 C1810 C 0.27298 0.54864 0.71257
 C1811 C 0.26579 0.53878 0.71965
 C1812 C 0.26812 0.53690 0.73343
 C1813 C 0.27804 0.54460 0.73991
 C1814 C 0.28522 0.55439 0.73283
 H1815 H 0.28411 0.59122 0.68594
 H1816 H 0.29275 0.61228 0.67667
 H1817 H 0.32358 0.61301 0.70743
 H1818 H 0.31478 0.59192 0.71651
 H1819 H 0.27073 0.55038 0.70207
 H1820 H 0.25801 0.53308 0.71457
 H1821 H 0.27979 0.54340 0.75057
 H1822 H 0.29249 0.56058 0.73811
 C1823 C 0.29836 1.08996 0.20076
 C1824 C 0.29231 1.09614 0.18968
 C1825 C 0.29740 1.10827 0.18468
 C1826 C 0.30868 1.11443 0.19069
 C1827 C 0.31469 1.10810 0.20186
 C1828 C 0.30956 1.09596 0.20684
 C1829 C 0.29263 1.07783 0.20624
 C1830 C 0.28740 1.06797 0.21101
 C1831 C 0.28056 1.05670 0.21701
 C1832 C 0.26670 1.05509 0.21489
 C1833 C 0.25955 1.04536 0.22206
 C1834 C 0.26620 1.03709 0.23138
 C1835 C 0.28019 1.03833 0.23309
 C1836 C 0.28735 1.04812 0.22592
 H1837 H 0.28355 1.09164 0.18497
 H1838 H 0.29242 1.11276 0.17613
 H1839 H 0.32332 1.11250 0.20683
 H1840 H 0.31425 1.09132 0.21551
 H1841 H 0.26133 1.06173 0.20809
 H1842 H 0.24873 1.04463 0.22077
 H1843 H 0.28542 1.03217 0.24042
 H1844 H 0.29806 1.04936 0.22770
 C1845 C 0.79840 0.58989 0.20080
 C1846 C 0.80943 0.59602 0.20704
 C1847 C 0.81452 0.60820 0.20210
 C1848 C 0.80862 0.61443 0.19083
 C1849 C 0.79753 0.60811 0.18463
 C1850 C 0.79248 0.59594 0.18959
 C1851 C 0.79266 0.57776 0.20630
 C1852 C 0.78743 0.56791 0.21107
 C1853 C 0.78059 0.55665 0.21710
 C1854 C 0.78741 0.54804 0.22597
 C1855 C 0.78026 0.53824 0.23315
 C1856 C 0.76626 0.53701 0.23149
 C1857 C 0.75959 0.54530 0.22220
 C1858 C 0.76673 0.55505 0.21503
 H1859 H 0.81403 0.59146 0.21581
 H1860 H 0.82303 0.61270 0.20719
 H1861 H 0.79263 0.61252 0.17599
 H1862 H 0.78385 0.59134 0.18474
 H1863 H 0.79812 0.54926 0.22771
 H1864 H 0.78551 0.53206 0.24044
 H1865 H 0.74877 0.54458 0.22094
 H1866 H 0.76134 0.56171 0.20827
 C1867 C 0.79837 1.08978 0.70065
 C1868 C 0.80957 1.09578 0.70674
 C1869 C 0.81467 1.10796 0.70180
 C1870 C 0.80862 1.11432 0.69067
 C1871 C 0.79739 1.10812 0.68461
 C1872 C 0.79232 1.09596 0.68957
 C1873 C 0.79259 1.07770 0.70620
 C1874 C 0.78731 1.06789 0.71104
 C1875 C 0.78045 1.05668 0.71714
 C1876 C 0.78726 1.04810 0.72603
 C1877 C 0.78010 1.03833 0.73326
 C1878 C 0.76610 1.03711 0.73162
 C1879 C 0.75942 1.04541 0.72233
 C1880 C 0.76657 1.05512 0.71511
 H1881 H 0.81427 1.09112 0.71539
 H1882 H 0.82330 1.11235 0.70677
 H1883 H 0.79237 1.11265 0.67610
 H1884 H 0.78358 1.09146 0.68484
 H1885 H 0.79798 1.04929 0.72775
 H1886 H 0.78535 1.03216 0.74055
 H1887 H 0.74859 1.04472 0.72110
 H1888 H 0.76118 1.06177 0.70834
 C1889 C 0.70181 0.59000 0.29917
 C1890 C 0.69078 0.59618 0.29296
 C1891 C 0.68568 0.60833 0.29795
 C1892 C 0.69157 0.61451 0.30925
 C1893 C 0.70268 0.60816 0.31542
 C1894 C 0.70775 0.59602 0.31040
 C1895 C 0.70749 0.57786 0.29363
 C1896 C 0.71267 0.56800 0.28880
 C1897 C 0.71950 0.55673 0.28276
 C1898 C 0.71272 0.54812 0.27389
 C1899 C 0.71990 0.53827 0.26677
 C1900 C 0.73390 0.53703 0.26849
 C1901 C 0.74053 0.54536 0.27776
 C1902 C 0.73336 0.55514 0.28487
 H1903 H 0.68619 0.59166 0.28418
 H1904 H 0.67717 0.61285 0.29288
 H1905 H 0.70757 0.61255 0.32407
 H1906 H 0.71639 0.59139 0.31521
 H1907 H 0.70201 0.54935 0.27209
 H1908 H 0.71469 0.53207 0.25949
 H1909 H 0.75135 0.54466 0.27905
 H1910 H 0.73872 0.56182 0.29162
 C1911 C 0.70162 1.09021 0.79915
 C1912 C 0.69050 1.09631 0.79304
 C1913 C 0.68540 1.10848 0.79801
 C1914 C 0.69138 1.11479 0.80924
 C1915 C 0.70262 1.10847 0.81527
 C1916 C 0.70766 1.09631 0.81026
 C1917 C 0.70729 1.07805 0.79364
 C1918 C 0.71248 1.06816 0.78886
 C1919 C 0.71933 1.05687 0.78287
 C1920 C 0.71255 1.04822 0.77403
 C1921 C 0.71974 1.03837 0.76693
 C1922 C 0.73374 1.03714 0.76864
 C1923 C 0.74037 1.04551 0.77788
 C1924 C 0.73319 1.05529 0.78498
 H1925 H 0.68582 1.09172 0.78434
 H1926 H 0.67682 1.11284 0.79294
 H1927 H 0.70766 1.11281 0.82385
 H1928 H 0.71637 1.09174 0.81499
 H1929 H 0.70185 1.04944 0.77223
 H1930 H 0.71453 1.03216 0.75965
 H1931 H 0.75119 1.04483 0.77915
 H1932 H 0.73855 1.06200 0.79171
 C1933 C 0.20106 0.58993 0.79845
 C1934 C 0.20707 0.59573 0.80975
 C1935 C 0.20212 0.60786 0.81494
 C1936 C 0.19106 0.61440 0.80889
 C1937 C 0.18511 0.60844 0.79750
 C1938 C 0.19008 0.59631 0.79234
 C1939 C 0.20654 0.57778 0.79274
 C1940 C 0.21135 0.56788 0.78760
 C1941 C 0.21743 0.55655 0.78090
 C1942 C 0.22696 0.54850 0.78752
 C1943 C 0.23415 0.53867 0.78039
 C1944 C 0.23182 0.53687 0.76661
 C1945 C 0.22190 0.54462 0.76017
 C1946 C 0.21472 0.55439 0.76729
 H1947 H 0.21566 0.59094 0.81448
 H1948 H 0.20705 0.61208 0.82366
 H1949 H 0.17664 0.61311 0.79249
 H1950 H 0.18543 0.59197 0.78350
 H1951 H 0.22921 0.55017 0.79803
 H1952 H 0.24193 0.53292 0.78544
 H1953 H 0.22015 0.54348 0.74949
 H1954 H 0.20745 0.56062 0.76205
 C1955 C 0.20173 1.08996 0.29923
 C1956 C 0.19053 1.09600 0.29318
 C1957 C 0.18544 1.10816 0.29818
 C1958 C 0.19151 1.11447 0.30931
 C1959 C 0.20278 1.10825 0.31531
 C1960 C 0.20784 1.09610 0.31029
 C1961 C 0.20743 1.07783 0.29369
 C1962 C 0.21264 1.06798 0.28887
 C1963 C 0.21949 1.05673 0.28282
 C1964 C 0.21269 1.04814 0.27393
 C1965 C 0.21986 1.03835 0.26675
 C1966 C 0.23387 1.03711 0.26842
 C1967 C 0.24051 1.04541 0.27771
 C1968 C 0.23335 1.05514 0.28489
 H1969 H 0.18581 1.09139 0.28452
 H1970 H 0.17680 1.11258 0.29324
 H1971 H 0.20782 1.11275 0.32382
 H1972 H 0.21660 1.09157 0.31497
 H1973 H 0.20198 1.04936 0.27217
 H1974 H 0.21463 1.03218 0.25945
 H1975 H 0.25134 1.04470 0.27896
 H1976 H 0.23873 1.06179 0.29166
 C1977 C 0.70132 0.41011 0.70169
 C1978 C 0.70757 0.40406 0.69063
 C1979 C 0.70252 0.39200 0.68539
 C1980 C 0.69113 0.38578 0.69114
 C1981 C 0.68494 0.39199 0.70227
 C1982 C 0.69001 0.40405 0.70748
 C1983 C 0.70685 0.42220 0.70748
 C1984 C 0.71163 0.43205 0.71272
 C1985 C 0.71759 0.44335 0.71956
 C1986 C 0.72714 0.45148 0.71309
 C1987 C 0.73417 0.46132 0.72033
 C1988 C 0.73168 0.46307 0.73410
 C1989 C 0.72171 0.45526 0.74039
 C1990 C 0.71468 0.44548 0.73315
 H1991 H 0.71641 0.40861 0.68613
 H1992 H 0.70763 0.38758 0.67687
 H1993 H 0.67620 0.38758 0.70704
 H1994 H 0.68515 0.40859 0.71612
 H1995 H 0.72953 0.44986 0.70260
 H1996 H 0.74198 0.46712 0.71539
 H1997 H 0.71979 0.45638 0.75103
 H1998 H 0.70738 0.43920 0.73827
 C1999 C 0.70190 -0.08986 0.20108
 C2000 C 0.69055 -0.09572 0.20701
 C2001 C 0.68539 -0.10784 0.20200
 C2002 C 0.69154 -0.11427 0.19097
 C2003 C 0.70298 -0.10825 0.18512
 C2004 C 0.70810 -0.09615 0.19015
 C2005 C 0.70761 -0.07774 0.20659
 C2006 C 0.71283 -0.06789 0.21138
 C2007 C 0.71968 -0.05664 0.21738
 C2008 C 0.71290 -0.04802 0.22625
 C2009 C 0.72008 -0.03822 0.23340
 C2010 C 0.73409 -0.03703 0.23170
 C2011 C 0.74072 -0.04536 0.22243
 C2012 C 0.73355 -0.05510 0.21528
 H2013 H 0.68575 -0.09100 0.21557
 H2014 H 0.67664 -0.11212 0.20685
 H2015 H 0.70808 -0.11285 0.17670
 H2016 H 0.71699 -0.09176 0.18557
 H2017 H 0.70218 -0.04921 0.22801
 H2018 H 0.71487 -0.03202 0.24069
 H2019 H 0.75155 -0.04469 0.22116
 H2020 H 0.73891 -0.06179 0.20853
 C2021 C 0.20131 0.41019 0.20158
 C2022 C 0.20743 0.40428 0.19039
 C2023 C 0.20246 0.39217 0.18519
 C2024 C 0.19127 0.38577 0.19113
 C2025 C 0.18523 0.39183 0.20242
 C2026 C 0.19021 0.40394 0.20759
 C2027 C 0.20680 0.42233 0.20728
 C2028 C 0.21162 0.43222 0.21241
 C2029 C 0.21769 0.44354 0.21910
 C2030 C 0.22723 0.45158 0.21248
 C2031 C 0.23440 0.46140 0.21961
 C2032 C 0.23206 0.46320 0.23339
 C2033 C 0.22215 0.45546 0.23983
 C2034 C 0.21498 0.44570 0.23271
 H2035 H 0.21613 0.40896 0.18575
 H2036 H 0.20746 0.38786 0.17655
 H2037 H 0.17668 0.38725 0.20737
 H2038 H 0.18548 0.40836 0.21635
 H2039 H 0.22948 0.44990 0.20197
 H2040 H 0.24217 0.46715 0.21456
 H2041 H 0.22039 0.45661 0.25050
 H2042 H 0.20772 0.43947 0.23795
 C2043 C 0.20165 -0.08987 0.70089
 C2044 C 0.20771 -0.09601 0.68979
 C2045 C 0.20263 -0.10814 0.68477
 C2046 C 0.19138 -0.11434 0.69079
 C2047 C 0.18533 -0.10803 0.70194
 C2048 C 0.19045 -0.09589 0.70694
 C2049 C 0.20740 -0.07780 0.70646
 C2050 C 0.21267 -0.06799 0.71130
 C2051 C 0.21958 -0.05679 0.71735
 C2052 C 0.23345 -0.05531 0.71525
 C2053 C 0.24067 -0.04557 0.72236
 C2054 C 0.23407 -0.03718 0.73161
 C2055 C 0.22006 -0.03833 0.73333
 C2056 C 0.21284 -0.04812 0.72621
 H2057 H 0.21647 -0.09149 0.68509
 H2058 H 0.20764 -0.11263 0.67623
 H2059 H 0.17669 -0.11243 0.70689
 H2060 H 0.18574 -0.09127 0.71561
 H2061 H 0.23879 -0.06203 0.70852
 H2062 H 0.25150 -0.04494 0.72108
 H2063 H 0.21487 -0.03209 0.74061
 H2064 H 0.20213 -0.04928 0.72799
 C2065 C 0.29897 0.29786 0.41043
 C2066 C 0.29275 0.30902 0.40447
 C2067 C 0.29760 0.31412 0.39231
 C2068 C 0.30876 0.30811 0.38591
 C2069 C 0.31491 0.29687 0.39202
 C2070 C 0.31004 0.29180 0.40418
 C2071 C 0.29359 0.29218 0.42259
 C2072 C 0.28889 0.28700 0.43248
 C2073 C 0.28295 0.28020 0.44378
 C2074 C 0.27414 0.28704 0.45242
 C2075 C 0.26699 0.27991 0.46224
 C2076 C 0.26863 0.26591 0.46345
 C2077 C 0.27787 0.25921 0.45511
 C2078 C 0.28501 0.26633 0.44535
 H2079 H 0.28408 0.31371 0.40917
 H2080 H 0.29253 0.32273 0.38797
 H2081 H 0.32345 0.29189 0.38747
 H2082 H 0.31485 0.28307 0.40864
 H2083 H 0.27238 0.29776 0.45120
 H2084 H 0.25972 0.28518 0.46844
 H2085 H 0.27908 0.24838 0.45579
 H2086 H 0.29172 0.26092 0.43865
 C2087 C 0.29935 0.79789 -0.08994
 C2088 C 0.29310 0.80904 -0.09587
 C2089 C 0.29792 0.81417 -0.10804
 C2090 C 0.30908 0.80820 -0.11447
 C2091 C 0.31526 0.79696 -0.10838
 C2092 C 0.31043 0.79186 -0.09622
 C2093 C 0.29399 0.79218 -0.07778
 C2094 C 0.28928 0.78701 -0.06789
 C2095 C 0.28328 0.78025 -0.05659
 C2096 C 0.27449 0.78715 -0.04797
 C2097 C 0.26729 0.78008 -0.03815
 C2098 C 0.26884 0.76606 -0.03692
 C2099 C 0.27805 0.75930 -0.04524
 C2100 C 0.28525 0.76637 -0.05501
 H2101 H 0.28443 0.81370 -0.09116
 H2102 H 0.29282 0.82277 -0.11237
 H2103 H 0.32380 0.79199 -0.11296
 H2104 H 0.31526 0.78313 -0.09178
 H2105 H 0.27280 0.79788 -0.04920
 H2106 H 0.26004 0.78539 -0.03196
 H2107 H 0.27920 0.74846 -0.04455
 H2108 H 0.29193 0.76091 -0.06169
 C2109 C 0.79882 0.29825 -0.08988
 C2110 C 0.79264 0.30947 -0.09578
 C2111 C 0.79754 0.31465 -0.10790
 C2112 C 0.80871 0.30866 -0.11431
 C2113 C 0.81481 0.29736 -0.10825
 C2114 C 0.80989 0.29222 -0.09614
 C2115 C 0.79342 0.29251 -0.07774
 C2116 C 0.78873 0.28730 -0.06785
 C2117 C 0.78279 0.28050 -0.05654
 C2118 C 0.77399 0.28735 -0.04789
 C2119 C 0.76686 0.28023 -0.03804
 C2120 C 0.76850 0.26622 -0.03680
 C2121 C 0.77774 0.25953 -0.04515
 C2122 C 0.78487 0.26664 -0.05494
 H2123 H 0.78397 0.31415 -0.09108
 H2124 H 0.79251 0.32330 -0.11220
 H2125 H 0.82336 0.29239 -0.11282
 H2126 H 0.81468 0.28345 -0.09173
 H2127 H 0.77223 0.29806 -0.04911
 H2128 H 0.75959 0.28550 -0.03184
 H2129 H 0.77897 0.24870 -0.04445
 H2130 H 0.79157 0.26122 -0.06163
 C2131 C 0.79879 0.79837 0.41041
 C2132 C 0.80988 0.79232 0.40418
 C2133 C 0.81475 0.79735 0.39201
 C2134 C 0.80859 0.80856 0.38584
 C2135 C 0.79742 0.81458 0.39223
 C2136 C 0.79257 0.80951 0.40442
 C2137 C 0.79343 0.79267 0.42257
 C2138 C 0.78881 0.78740 0.43246
 C2139 C 0.78302 0.78045 0.44376
 C2140 C 0.78579 0.76674 0.44560
 C2141 C 0.77884 0.75939 0.45534
 C2142 C 0.76910 0.76570 0.46341
 C2143 C 0.76675 0.77959 0.46193
 C2144 C 0.77369 0.78694 0.45213
 H2145 H 0.81471 0.78361 0.40867
 H2146 H 0.82331 0.79237 0.38748
 H2147 H 0.79235 0.82318 0.38786
 H2148 H 0.78390 0.81421 0.40910
 H2149 H 0.79292 0.76160 0.43912
 H2150 H 0.78063 0.74865 0.45622
 H2151 H 0.75909 0.78455 0.46791
 H2152 H 0.77138 0.79752 0.45072
 C2153 C 0.70097 0.29804 0.58980
 C2154 C 0.68992 0.29197 0.59609
 C2155 C 0.68510 0.29702 0.60828
 C2156 C 0.69125 0.30825 0.61439
 C2157 C 0.70240 0.31424 0.60797
 C2158 C 0.70720 0.30916 0.59577
 C2159 C 0.70630 0.29239 0.57758
 C2160 C 0.71096 0.28723 0.56766
 C2161 C 0.71686 0.28042 0.55633
 C2162 C 0.71473 0.26656 0.55475
 C2163 C 0.72185 0.25939 0.54499
 C2164 C 0.73112 0.26602 0.53665
 C2165 C 0.73282 0.28003 0.53785
 C2166 C 0.72570 0.28720 0.54768
 H2167 H 0.68510 0.28326 0.59162
 H2168 H 0.67657 0.29203 0.61286
 H2169 H 0.70748 0.32282 0.61232
 H2170 H 0.71586 0.31385 0.59106
 H2171 H 0.70800 0.26119 0.56144
 H2172 H 0.72059 0.24857 0.54432
 H2173 H 0.74011 0.28524 0.53165
 H2174 H 0.72750 0.29791 0.54888
 C2175 C 0.70117 0.79845 1.08980
 C2176 C 0.69013 0.79229 1.09601
 C2177 C 0.68525 0.79722 1.10822
 C2178 C 0.69135 0.80843 1.11444
 C2179 C 0.70248 0.81452 1.10808
 C2180 C 0.70734 0.80956 1.09586
 C2181 C 0.70661 0.79291 1.07759
 C2182 C 0.71141 0.78786 1.06767
 C2183 C 0.71747 0.78118 1.05636
 C2184 C 0.71512 0.76741 1.05442
 C2185 C 0.72235 0.76032 1.04469
 C2186 C 0.73197 0.76695 1.03674
 C2187 C 0.73393 0.78087 1.03831
 C2188 C 0.72669 0.78797 1.04810
 H2189 H 0.68536 0.78359 1.09147
 H2190 H 0.67673 0.79218 1.11275
 H2191 H 0.70752 0.82310 1.11248
 H2192 H 0.71598 0.81432 1.09121
 H2193 H 0.70811 0.76203 1.06081
 H2194 H 0.72089 0.74954 1.04373
 H2195 H 0.74148 0.78607 1.03241
 H2196 H 0.72867 0.79861 1.04960
 C2197 C 0.20085 0.29807 1.08976
 C2198 C 0.18979 0.29201 1.09603
 C2199 C 0.18494 0.29706 1.10821
 C2200 C 0.19109 0.30828 1.11433
 C2201 C 0.20223 0.31428 1.10791
 C2202 C 0.20706 0.30921 1.09573
 C2203 C 0.20622 0.29242 1.07758
 C2204 C 0.21094 0.28726 1.06768
 C2205 C 0.21689 0.28045 1.05639
 C2206 C 0.21481 0.26659 1.05483
 C2207 C 0.22194 0.25944 1.04507
 C2208 C 0.23118 0.26609 1.03672
 C2209 C 0.23286 0.28009 1.03793
 C2210 C 0.22572 0.28726 1.04775
 H2211 H 0.18498 0.28329 1.09155
 H2212 H 0.17640 0.29208 1.11277
 H2213 H 0.20731 0.32288 1.11225
 H2214 H 0.21572 0.31390 1.09103
 H2215 H 0.20810 0.26121 1.06153
 H2216 H 0.22072 0.24860 1.04442
 H2217 H 0.24015 0.28532 1.03173
 H2218 H 0.22751 0.29796 1.04895
 C2219 C 0.20156 0.79890 0.58959
 C2220 C 0.20764 0.80996 0.59581
 C2221 C 0.20263 0.81485 0.60799
 C2222 C 0.19142 0.80873 0.61417
 C2223 C 0.18539 0.79757 0.60781
 C2224 C 0.19043 0.79270 0.59562
 C2225 C 0.20722 0.79354 0.57740
 C2226 C 0.21247 0.78894 0.56749
 C2227 C 0.21944 0.78321 0.55617
 C2228 C 0.23300 0.78650 0.55402
 C2229 C 0.24046 0.77967 0.54427
 C2230 C 0.23442 0.76954 0.53650
 C2231 C 0.22067 0.76665 0.53828
 C2232 C 0.21321 0.77346 0.54810
 H2233 H 0.21635 0.81476 0.59130
 H2234 H 0.20765 0.82338 0.61251
 H2235 H 0.17681 0.79251 0.61221
 H2236 H 0.18572 0.78403 0.59095
 H2237 H 0.23794 0.79395 0.56026
 H2238 H 0.25110 0.78187 0.54316
 H2239 H 0.21594 0.75868 0.53254
 H2240 H 0.20276 0.77076 0.54976
 C2241 C 0.29853 0.70167 0.58957
 C2242 C 0.29235 0.69055 0.59561
 C2243 C 0.29726 0.68552 0.60779
 C2244 C 0.30843 0.69156 0.61413
 C2245 C 0.31453 0.70277 0.60792
 C2246 C 0.30961 0.70776 0.59575
 C2247 C 0.29314 0.70731 0.57738
 C2248 C 0.28854 0.71256 0.56747
 C2249 C 0.28284 0.71955 0.55616
 C2250 C 0.27308 0.71335 0.54808
 C2251 C 0.26629 0.72084 0.53827
 C2252 C 0.26921 0.73458 0.53650
 C2253 C 0.27935 0.74059 0.54428
 C2254 C 0.28616 0.73310 0.55403
 H2255 H 0.28368 0.68582 0.59097
 H2256 H 0.29222 0.67693 0.61220
 H2257 H 0.32308 0.70778 0.61242
 H2258 H 0.31439 0.71647 0.59122
 H2259 H 0.27034 0.70291 0.54972
 H2260 H 0.25831 0.71613 0.53251
 H2261 H 0.28158 0.75122 0.54319
 H2262 H 0.29362 0.73802 0.56028
 C2263 C 0.29929 0.20210 1.08958
 C2264 C 0.31034 0.20815 1.09586
 C2265 C 0.31516 0.20309 1.10804
 C2266 C 0.30899 0.19187 1.11415
 C2267 C 0.29787 0.18586 1.10771
 C2268 C 0.29306 0.19096 1.09552
 C2269 C 0.29392 0.20781 1.07742
 C2270 C 0.28917 0.21299 1.06755
 C2271 C 0.28312 0.21974 1.05628
 C2272 C 0.28511 0.23361 1.05466
 C2273 C 0.27783 0.24069 1.04495
 C2274 C 0.26854 0.23394 1.03672
 C2275 C 0.26696 0.21994 1.03799
 C2276 C 0.27425 0.21285 1.04776
 H2277 H 0.31516 0.21687 1.09141
 H2278 H 0.32369 0.20807 1.11263
 H2279 H 0.29278 0.17726 1.11204
 H2280 H 0.28441 0.18627 1.09080
 H2281 H 0.29186 0.23906 1.06127
 H2282 H 0.27899 0.25152 1.04422
 H2283 H 0.25965 0.21464 1.03188
 H2284 H 0.27255 0.20214 1.04902
 C2285 C 0.79896 0.70198 1.08974
 C2286 C 0.79277 0.69081 1.09568
 C2287 C 0.79764 0.68568 1.10783
 C2288 C 0.80879 0.69168 1.11424
 C2289 C 0.81490 0.70294 1.10815
 C2290 C 0.81002 0.70803 1.09600
 C2291 C 0.79357 0.70768 1.07758
 C2292 C 0.78887 0.71287 1.06768
 C2293 C 0.78292 0.71965 1.05636
 C2294 C 0.77364 0.71297 1.04811
 C2295 C 0.76653 0.72015 1.03828
 C2296 C 0.76868 0.73405 1.03669
 C2297 C 0.77837 0.74055 1.04464
 C2298 C 0.78548 0.73338 1.05440
 H2299 H 0.78411 0.68613 1.09098
 H2300 H 0.79259 0.67706 1.11216
 H2301 H 0.82343 0.70792 1.11271
 H2302 H 0.81481 0.71677 1.09155
 H2303 H 0.77150 0.70237 1.04962
 H2304 H 0.75891 0.71504 1.03239
 H2305 H 0.77998 0.75131 1.04365
 H2306 H 0.79256 0.73867 1.06079
 C2307 C 0.79913 0.20205 0.58967
 C2308 C 0.81019 0.20809 0.59596
 C2309 C 0.81506 0.20297 0.60810
 C2310 C 0.80895 0.19169 0.61416
 C2311 C 0.79780 0.18571 0.60774
 C2312 C 0.79294 0.19087 0.59559
 C2313 C 0.79375 0.20776 0.57752
 C2314 C 0.78902 0.21293 0.56763
 C2315 C 0.78301 0.21967 0.55632
 C2316 C 0.78501 0.23353 0.55465
 C2317 C 0.77777 0.24059 0.54490
 C2318 C 0.76849 0.23384 0.53667
 C2319 C 0.76692 0.21983 0.53796
 C2320 C 0.77416 0.21277 0.54777
 H2321 H 0.81498 0.21684 0.59153
 H2322 H 0.82358 0.20795 0.61269
 H2323 H 0.79274 0.17710 0.61205
 H2324 H 0.78428 0.18619 0.59088
 H2325 H 0.79175 0.23899 0.56127
 H2326 H 0.77896 0.25142 0.54414
 H2327 H 0.75963 0.21452 0.53183
 H2328 H 0.77246 0.20206 0.54905
 C2329 C 0.70122 0.70165 0.41037
 C2330 C 0.70736 0.69055 0.40424
 C2331 C 0.70241 0.68558 0.39207
 C2332 C 0.69120 0.69164 0.38582
 C2333 C 0.68509 0.70281 0.39210
 C2334 C 0.69007 0.70777 0.40428
 C2335 C 0.70680 0.70713 0.42254
 C2336 C 0.71196 0.71184 0.43244
 C2337 C 0.71879 0.71770 0.44377
 C2338 C 0.73223 0.71421 0.44628
 C2339 C 0.73960 0.72111 0.45603
 C2340 C 0.73358 0.73154 0.46343
 C2341 C 0.71994 0.73466 0.46130
 C2342 C 0.71256 0.72775 0.45148
 H2343 H 0.71607 0.68580 0.40880
 H2344 H 0.70746 0.67702 0.38762
 H2345 H 0.67649 0.70781 0.38766
 H2346 H 0.68530 0.71644 0.40888
 H2347 H 0.73718 0.70652 0.44032
 H2348 H 0.75017 0.71873 0.45743
 H2349 H 0.71522 0.74284 0.46676
 H2350 H 0.70220 0.73061 0.44955
 C2351 C 0.70094 0.20184 -0.08977
 C2352 C 0.70718 0.19069 -0.09572
 C2353 C 0.70235 0.18558 -0.10789
 C2354 C 0.69118 0.19156 -0.11430
 C2355 C 0.68502 0.20281 -0.10821
 C2356 C 0.68987 0.20789 -0.09605
 C2357 C 0.70631 0.20753 -0.07760
 C2358 C 0.71102 0.21272 -0.06771
 C2359 C 0.71697 0.21955 -0.05643
 C2360 C 0.72583 0.21275 -0.04779
 C2361 C 0.73297 0.21993 -0.03800
 C2362 C 0.73128 0.23394 -0.03681
 C2363 C 0.72200 0.24058 -0.04515
 C2364 C 0.71486 0.23341 -0.05488
 H2365 H 0.71585 0.18601 -0.09102
 H2366 H 0.70744 0.17698 -0.11223
 H2367 H 0.67649 0.20779 -0.11279
 H2368 H 0.68505 0.21662 -0.09160
 H2369 H 0.72762 0.20204 -0.04898
 H2370 H 0.74027 0.21471 -0.03180
 H2371 H 0.72074 0.25141 -0.04449
 H2372 H 0.70812 0.23878 -0.06156
 C2373 C 0.20096 0.70187 -0.08977
 C2374 C 0.18988 0.70796 -0.09600
 C2375 C 0.18499 0.70291 -0.10816
 C2376 C 0.19112 0.69166 -0.11429
 C2377 C 0.20227 0.68564 -0.10791
 C2378 C 0.20714 0.69071 -0.09574
 C2379 C 0.20639 0.70755 -0.07762
 C2380 C 0.21115 0.71273 -0.06776
 C2381 C 0.21716 0.71956 -0.05651
 C2382 C 0.21512 0.73344 -0.05502
 C2383 C 0.22227 0.74060 -0.04530
 C2384 C 0.23149 0.73394 -0.03691
 C2385 C 0.23312 0.71993 -0.03805
 C2386 C 0.22597 0.71275 -0.04784
 H2387 H 0.18509 0.71669 -0.09152
 H2388 H 0.17644 0.70791 -0.11270
 H2389 H 0.20733 0.67703 -0.11226
 H2390 H 0.21581 0.68600 -0.09106
 H2391 H 0.20842 0.73883 -0.06174
 H2392 H 0.22107 0.75144 -0.04468
 H2393 H 0.24038 0.71469 -0.03182
 H2394 H 0.22771 0.70203 -0.04899
 C2395 C 0.20078 0.20201 0.41038
 C2396 C 0.20700 0.19086 0.40441
 C2397 C 0.20217 0.18578 0.39223
 C2398 C 0.19103 0.19181 0.38581
 C2399 C 0.18488 0.20305 0.39193
 C2400 C 0.18973 0.20809 0.40410
 C2401 C 0.20615 0.20766 0.42255
 C2402 C 0.21087 0.21281 0.43245
 C2403 C 0.21686 0.21957 0.44375
 C2404 C 0.22571 0.21270 0.45233
 C2405 C 0.23290 0.21980 0.46214
 C2406 C 0.23127 0.23381 0.46340
 C2407 C 0.22201 0.24053 0.45510
 C2408 C 0.21481 0.23343 0.44536
 H2409 H 0.21565 0.18615 0.40912
 H2410 H 0.20725 0.17718 0.38789
 H2411 H 0.17636 0.20805 0.38735
 H2412 H 0.18492 0.21682 0.40857
 H2413 H 0.22746 0.20199 0.45109
 H2414 H 0.24020 0.21453 0.46830
 H2415 H 0.22080 0.25136 0.45581
 H2416 H 0.20808 0.23886 0.43871
 C2417 C 0.29887 0.41021 0.70120
 C2418 C 0.31009 0.40413 0.70718
 C2419 C 0.31513 0.39196 0.70213
 C2420 C 0.30899 0.38569 0.69101
 C2421 C 0.29773 0.39196 0.68506
 C2422 C 0.29272 0.40412 0.69013
 C2423 C 0.29321 0.42232 0.70682
 C2424 C 0.28806 0.43218 0.71171
 C2425 C 0.28130 0.44346 0.71782
 C2426 C 0.28788 0.45138 0.72745
 C2427 C 0.28069 0.46121 0.73458
 C2428 C 0.26688 0.46313 0.73210
 C2429 C 0.26049 0.45550 0.72210
 C2430 C 0.26767 0.44573 0.71498
 H2431 H 0.31487 0.40872 0.71582
 H2432 H 0.32378 0.38752 0.70703
 H2433 H 0.29266 0.38751 0.67655
 H2434 H 0.28396 0.40869 0.68548
 H2435 H 0.29840 0.44963 0.72980
 H2436 H 0.28570 0.46686 0.74243
 H2437 H 0.24980 0.45674 0.72023
 H2438 H 0.26245 0.43959 0.70764
 C2439 C 0.29821 0.91030 0.20063
 C2440 C 0.29218 0.90413 0.18954
 C2441 C 0.29730 0.89201 0.18454
 C2442 C 0.30858 0.88583 0.19057
 C2443 C 0.31458 0.89215 0.20173
 C2444 C 0.30941 0.90429 0.20672
 C2445 C 0.29247 0.92243 0.20612
 C2446 C 0.28725 0.93231 0.21090
 C2447 C 0.28047 0.94361 0.21693
 C2448 C 0.26661 0.94530 0.21487
 C2449 C 0.25952 0.95507 0.22208
 C2450 C 0.26623 0.96330 0.23138
 C2451 C 0.28023 0.96198 0.23303
 C2452 C 0.28733 0.95216 0.22581
 H2453 H 0.28341 0.90863 0.18483
 H2454 H 0.29234 0.88752 0.17598
 H2455 H 0.32321 0.88776 0.20671
 H2456 H 0.31409 0.90892 0.21540
 H2457 H 0.26118 0.93870 0.20810
 H2458 H 0.24869 0.95585 0.22084
 H2459 H 0.28551 0.96810 0.24033
 H2460 H 0.29804 0.95087 0.22755
 C2461 C 0.79833 0.41035 0.20056
 C2462 C 0.80955 0.40435 0.20662
 C2463 C 0.81471 0.39222 0.20162
 C2464 C 0.80868 0.38589 0.19048
 C2465 C 0.79739 0.39206 0.18447
 C2466 C 0.79227 0.40418 0.18948
 C2467 C 0.79258 0.42246 0.20609
 C2468 C 0.78735 0.43231 0.21091
 C2469 C 0.78054 0.44357 0.21698
 C2470 C 0.78738 0.45214 0.22585
 C2471 C 0.78025 0.46194 0.23307
 C2472 C 0.76625 0.46321 0.23143
 C2473 C 0.75955 0.45493 0.22217
 C2474 C 0.76667 0.44519 0.21495
 H2475 H 0.81425 0.40898 0.21529
 H2476 H 0.82336 0.38783 0.20657
 H2477 H 0.79239 0.38755 0.17594
 H2478 H 0.78350 0.40868 0.18479
 H2479 H 0.79809 0.45088 0.22758
 H2480 H 0.78552 0.46809 0.24036
 H2481 H 0.74872 0.45565 0.22096
 H2482 H 0.76126 0.43855 0.20821
 C2483 C 0.79834 0.91046 0.70079
 C2484 C 0.79231 0.90427 0.68970
 C2485 C 0.79747 0.89216 0.68470
 C2486 C 0.80877 0.88601 0.69072
 C2487 C 0.81477 0.89237 0.70186
 C2488 C 0.80958 0.90449 0.70685
 C2489 C 0.79254 0.92254 0.70633
 C2490 C 0.78729 0.93237 0.71117
 C2491 C 0.78046 0.94361 0.71727
 C2492 C 0.76659 0.94520 0.71524
 C2493 C 0.75947 0.95498 0.72241
 C2494 C 0.76616 0.96330 0.73165
 C2495 C 0.78016 0.96204 0.73328
 C2496 C 0.78730 0.95221 0.72611
 H2497 H 0.78353 0.90873 0.68500
 H2498 H 0.79249 0.88764 0.67617
 H2499 H 0.82344 0.88801 0.70681
 H2500 H 0.81425 0.90915 0.71551
 H2501 H 0.76118 0.93853 0.70852
 H2502 H 0.74863 0.95569 0.72119
 H2503 H 0.78543 0.96823 0.74055
 H2504 H 0.79801 0.95098 0.72783
 C2505 C 0.70119 0.58976 0.70169
 C2506 C 0.68988 0.59583 0.70749
 C2507 C 0.68482 0.60791 0.70230
 C2508 C 0.69102 0.61414 0.69120
 C2509 C 0.70240 0.60790 0.68542
 C2510 C 0.70744 0.59581 0.69064
 C2511 C 0.70675 0.57767 0.70749
 C2512 C 0.71155 0.56783 0.71274
 C2513 C 0.71754 0.55655 0.71960
 C2514 C 0.71461 0.55443 0.73319
 C2515 C 0.72163 0.54464 0.74044
 C2516 C 0.73160 0.53681 0.73417
 C2517 C 0.73413 0.53857 0.72042
 C2518 C 0.72712 0.54842 0.71316
 H2519 H 0.68503 0.59128 0.71612
 H2520 H 0.67610 0.61234 0.70709
 H2521 H 0.70752 0.61233 0.67692
 H2522 H 0.71628 0.59125 0.68613
 H2523 H 0.70729 0.56072 0.73829
 H2524 H 0.71969 0.54353 0.75109
 H2525 H 0.74196 0.53276 0.71550
 H2526 H 0.72955 0.55005 0.70268
 C2527 C 0.70196 0.08967 0.20098
 C2528 C 0.70801 0.09580 0.18986
 C2529 C 0.70287 0.10789 0.18479
 C2530 C 0.69158 0.11407 0.19079
 C2531 C 0.68559 0.10780 0.20198
 C2532 C 0.69076 0.09570 0.20703
 C2533 C 0.70770 0.07757 0.20652
 C2534 C 0.71294 0.06772 0.21131
 C2535 C 0.71979 0.05645 0.21732
 C2536 C 0.73365 0.05486 0.21518
 C2537 C 0.74082 0.04508 0.22230
 C2538 C 0.73419 0.03676 0.23158
 C2539 C 0.72019 0.03800 0.23330
 C2540 C 0.71301 0.04783 0.22619
 H2541 H 0.71678 0.09128 0.18518
 H2542 H 0.70784 0.11235 0.17622
 H2543 H 0.67695 0.11221 0.20694
 H2544 H 0.68608 0.09110 0.21573
 H2545 H 0.73901 0.06153 0.20843
 H2546 H 0.75164 0.04436 0.22100
 H2547 H 0.71498 0.03180 0.24060
 H2548 H 0.70231 0.04907 0.22799
 C2549 C 0.20114 0.58979 0.20112
 C2550 C 0.20731 0.59583 0.19003
 C2551 C 0.20231 0.60796 0.18489
 C2552 C 0.19103 0.61425 0.19079
 C2553 C 0.18490 0.60804 0.20195
 C2554 C 0.18993 0.59591 0.20706
 C2555 C 0.20676 0.57769 0.20680
 C2556 C 0.21188 0.56784 0.21174
 C2557 C 0.21864 0.55659 0.21789
 C2558 C 0.23228 0.55436 0.21508
 C2559 C 0.23948 0.54461 0.22222
 C2560 C 0.23309 0.53696 0.23220
 C2561 C 0.21928 0.53884 0.23467
 C2562 C 0.21207 0.54865 0.22752
 H2563 H 0.21608 0.59124 0.18542
 H2564 H 0.20740 0.61239 0.17637
 H2565 H 0.17624 0.61251 0.20682
 H2566 H 0.18514 0.59137 0.21573
 H2567 H 0.23749 0.56051 0.20775
 H2568 H 0.25017 0.54341 0.22036
 H2569 H 0.21427 0.53317 0.24251
 H2570 H 0.20153 0.55038 0.22985
 C2571 C 0.20180 0.08955 0.70113
 C2572 C 0.20784 0.09569 0.69002
 C2573 C 0.20269 0.10778 0.68496
 C2574 C 0.19139 0.11396 0.69095
 C2575 C 0.18541 0.10767 0.70215
 C2576 C 0.19059 0.09557 0.70719
 C2577 C 0.20756 0.07745 0.70667
 C2578 C 0.21280 0.06760 0.71146
 C2579 C 0.21967 0.05633 0.71747
 C2580 C 0.23353 0.05475 0.71535
 C2581 C 0.24070 0.04498 0.72247
 C2582 C 0.23408 0.03664 0.73173
 C2583 C 0.22008 0.03787 0.73345
 C2584 C 0.21289 0.04770 0.72633
 H2585 H 0.21661 0.09119 0.68533
 H2586 H 0.20765 0.11225 0.67639
 H2587 H 0.17677 0.11207 0.70712
 H2588 H 0.18593 0.09096 0.71589
 H2589 H 0.23888 0.06143 0.70860
 H2590 H 0.25153 0.04429 0.72119
 H2591 H 0.21487 0.03166 0.74075
 H2592 H 0.20218 0.04891 0.72812
 C2593 C 0.29874 0.58998 0.29854
 C2594 C 0.30992 0.59607 0.29251
 C2595 C 0.31499 0.60820 0.29758
 C2596 C 0.30892 0.61442 0.30877
 C2597 C 0.29766 0.60817 0.31473
 C2598 C 0.29262 0.59606 0.30964
 C2599 C 0.29312 0.57785 0.29297
 C2600 C 0.28800 0.56797 0.28813
 C2601 C 0.28129 0.55667 0.28208
 C2602 C 0.28787 0.54875 0.27244
 C2603 C 0.28070 0.53892 0.26533
 C2604 C 0.26691 0.53698 0.26785
 C2605 C 0.26051 0.54460 0.27786
 C2606 C 0.26767 0.55437 0.28497
 H2607 H 0.31465 0.59150 0.28382
 H2608 H 0.32361 0.61266 0.29265
 H2609 H 0.29264 0.61259 0.32329
 H2610 H 0.28388 0.59149 0.31431
 H2611 H 0.29838 0.55054 0.27006
 H2612 H 0.28571 0.53329 0.25746
 H2613 H 0.24983 0.54334 0.27976
 H2614 H 0.26246 0.56051 0.29232
 C2615 C 0.29845 0.08971 0.79914
 C2616 C 0.30950 0.09585 0.79292
 C2617 C 0.31461 0.10800 0.79791
 C2618 C 0.30872 0.11421 0.80920
 C2619 C 0.29760 0.10789 0.81536
 C2620 C 0.29253 0.09575 0.81036
 C2621 C 0.29275 0.07755 0.79367
 C2622 C 0.28756 0.06765 0.78892
 C2623 C 0.28075 0.05633 0.78297
 C2624 C 0.28757 0.04771 0.77411
 C2625 C 0.28043 0.03785 0.76700
 C2626 C 0.26644 0.03657 0.76872
 C2627 C 0.25977 0.04489 0.77799
 C2628 C 0.26690 0.05469 0.78510
 H2629 H 0.31409 0.09131 0.78414
 H2630 H 0.32313 0.11250 0.79284
 H2631 H 0.29271 0.11229 0.82401
 H2632 H 0.28388 0.09115 0.81518
 H2633 H 0.29827 0.04897 0.77231
 H2634 H 0.28567 0.03167 0.75971
 H2635 H 0.24895 0.04416 0.77927
 H2636 H 0.26151 0.06136 0.79184
 C2637 C 0.79924 0.58976 0.79881
 C2638 C 0.81042 0.59590 0.79283
 C2639 C 0.81540 0.60807 0.79790
 C2640 C 0.80924 0.61429 0.80904
 C2641 C 0.79802 0.60796 0.81500
 C2642 C 0.79309 0.59580 0.80991
 C2643 C 0.79360 0.57764 0.79319
 C2644 C 0.78837 0.56779 0.78839
 C2645 C 0.78145 0.55652 0.78248
 C2646 C 0.78783 0.54845 0.77282
 C2647 C 0.78048 0.53860 0.76591
 C2648 C 0.76670 0.53680 0.76862
 C2649 C 0.76051 0.54457 0.77866
 C2650 C 0.76786 0.55436 0.78556
 H2651 H 0.81522 0.59135 0.78417
 H2652 H 0.82402 0.61257 0.79301
 H2653 H 0.79294 0.61237 0.82353
 H2654 H 0.78436 0.59118 0.81456
 H2655 H 0.79832 0.55011 0.77028
 H2656 H 0.78533 0.53284 0.75804
 H2657 H 0.74985 0.54343 0.78073
 H2658 H 0.76280 0.56061 0.79294
 C2659 C 0.79867 0.08962 0.29930
 C2660 C 0.80998 0.09555 0.29334
 C2661 C 0.81495 0.10781 0.29819
 C2662 C 0.80867 0.11433 0.30909
 C2663 C 0.79731 0.10822 0.31501
 C2664 C 0.79238 0.09597 0.31016
 C2665 C 0.79297 0.07745 0.29386
 C2666 C 0.78769 0.06759 0.28913
 C2667 C 0.78080 0.05633 0.28314
 C2668 C 0.78759 0.04773 0.27426
 C2669 C 0.78042 0.03796 0.26706
 C2670 C 0.76642 0.03674 0.26872
 C2671 C 0.75977 0.04502 0.27805
 C2672 C 0.76693 0.05474 0.28524
 H2673 H 0.81490 0.09076 0.28488
 H2674 H 0.82367 0.11214 0.29333
 H2675 H 0.79212 0.11287 0.32336
 H2676 H 0.78358 0.09149 0.31481
 H2677 H 0.79830 0.04893 0.27251
 H2678 H 0.78565 0.03179 0.25976
 H2679 H 0.74894 0.04430 0.27933
 H2680 H 0.76156 0.06138 0.29204
 C2681 C 0.70181 0.41017 0.29889
 C2682 C 0.69063 0.40413 0.29282
 C2683 C 0.68552 0.39200 0.29783
 C2684 C 0.69154 0.38570 0.30901
 C2685 C 0.70282 0.39189 0.31500
 C2686 C 0.70789 0.40402 0.30997
 C2687 C 0.70748 0.42233 0.29340
 C2688 C 0.71268 0.43222 0.28866
 C2689 C 0.71952 0.44352 0.28270
 C2690 C 0.71275 0.45216 0.27384
 C2691 C 0.71994 0.46199 0.26673
 C2692 C 0.73393 0.46321 0.26847
 C2693 C 0.74056 0.45486 0.27774
 C2694 C 0.73338 0.44509 0.28484
 H2695 H 0.68593 0.40874 0.28414
 H2696 H 0.67690 0.38758 0.29286
 H2697 H 0.70782 0.38740 0.32354
 H2698 H 0.71665 0.40853 0.31466
 H2699 H 0.70205 0.45095 0.27204
 H2700 H 0.71473 0.46819 0.25943
 H2701 H 0.75138 0.45553 0.27902
 H2702 H 0.73873 0.43840 0.29160
 C2703 C 0.70142 0.91037 0.79905
 C2704 C 0.69044 0.90415 0.79281
 C2705 C 0.68536 0.89200 0.79782
 C2706 C 0.69122 0.88587 0.80917
 C2707 C 0.70227 0.89226 0.81536
 C2708 C 0.70732 0.90440 0.81033
 C2709 C 0.70712 0.92249 0.79351
 C2710 C 0.71236 0.93234 0.78873
 C2711 C 0.71926 0.94360 0.78276
 C2712 C 0.71253 0.95231 0.77394
 C2713 C 0.71976 0.96215 0.76688
 C2714 C 0.73376 0.96330 0.76862
 C2715 C 0.74034 0.95487 0.77786
 C2716 C 0.73312 0.94510 0.78491
 H2717 H 0.68587 0.90862 0.78399
 H2718 H 0.67690 0.88743 0.79272
 H2719 H 0.70714 0.88792 0.82406
 H2720 H 0.71591 0.90907 0.81517
 H2721 H 0.70182 0.95116 0.77212
 H2722 H 0.71458 0.96842 0.75962
 H2723 H 0.75117 0.95551 0.77917
 H2724 H 0.73844 0.93835 0.79163
 C2725 C 0.20106 0.41023 0.79867
 C2726 C 0.18985 0.40415 0.79271
 C2727 C 0.18480 0.39202 0.79781
 C2728 C 0.19093 0.38577 0.80895
 C2729 C 0.20220 0.39204 0.81488
 C2730 C 0.20721 0.40417 0.80976
 C2731 C 0.20670 0.42232 0.79300
 C2732 C 0.21184 0.43216 0.78808
 C2733 C 0.21862 0.44341 0.78197
 C2734 C 0.21206 0.45140 0.77237
 C2735 C 0.21927 0.46123 0.76528
 C2736 C 0.23308 0.46310 0.76778
 C2737 C 0.23946 0.45539 0.77773
 C2738 C 0.23226 0.44561 0.78481
 H2739 H 0.18507 0.40871 0.78405
 H2740 H 0.17615 0.38758 0.79293
 H2741 H 0.20728 0.38759 0.82340
 H2742 H 0.21598 0.40874 0.81439
 H2743 H 0.20153 0.44969 0.77001
 H2744 H 0.21427 0.46694 0.75745
 H2745 H 0.25015 0.45657 0.77961
 H2746 H 0.23746 0.43941 0.79212
 C2747 C 0.20159 0.91038 0.29879
 C2748 C 0.19024 0.90449 0.29287
 C2749 C 0.18512 0.89235 0.29788
 C2750 C 0.19130 0.88592 0.30889
 C2751 C 0.20273 0.89196 0.31473
 C2752 C 0.20782 0.90408 0.30971
 C2753 C 0.20729 0.92250 0.29328
 C2754 C 0.21252 0.93237 0.28852
 C2755 C 0.21940 0.94363 0.28256
 C2756 C 0.21266 0.95232 0.27372
 C2757 C 0.21988 0.96214 0.26664
 C2758 C 0.23388 0.96332 0.26839
 C2759 C 0.24047 0.95493 0.27765
 C2760 C 0.23326 0.94516 0.28472
 H2761 H 0.18542 0.90922 0.28432
 H2762 H 0.17636 0.88806 0.29304
 H2763 H 0.20786 0.88736 0.32314
 H2764 H 0.21669 0.90849 0.31428
 H2765 H 0.20195 0.95114 0.27190
 H2766 H 0.21470 0.96839 0.25936
 H2767 H 0.25129 0.95559 0.27897
 H2768 H 0.23859 0.93844 0.29146
 C2769 C 0.41029 0.29867 0.70122
 C2770 C 0.40421 0.30986 0.70726
 C2771 C 0.39204 0.31491 0.70223
 C2772 C 0.38577 0.30882 0.69108
 C2773 C 0.39204 0.29759 0.68509
 C2774 C 0.40419 0.29257 0.69013
 C2775 C 0.42241 0.29296 0.70677
 C2776 C 0.43226 0.28764 0.71149
 C2777 C 0.44351 0.28058 0.71731
 C2778 C 0.45194 0.28696 0.72664
 C2779 C 0.46177 0.27950 0.73349
 C2780 C 0.46318 0.26562 0.73105
 C2781 C 0.45504 0.25942 0.72132
 C2782 C 0.44529 0.26688 0.71447
 H2783 H 0.40880 0.31461 0.71592
 H2784 H 0.38758 0.32354 0.70715
 H2785 H 0.38759 0.29255 0.67656
 H2786 H 0.40877 0.28382 0.68545
 H2787 H 0.45058 0.29753 0.72899
 H2788 H 0.46781 0.28437 0.74113
 H2789 H 0.45589 0.24870 0.71946
 H2790 H 0.43876 0.26183 0.70734
 C2791 C 0.41012 0.79925 0.20171
 C2792 C 0.40424 0.79312 0.19052
 C2793 C 0.39213 0.79807 0.18529
 C2794 C 0.38569 0.80926 0.19121
 C2795 C 0.39171 0.81533 0.20249
 C2796 C 0.40383 0.81035 0.20769
 C2797 C 0.42227 0.79377 0.20743
 C2798 C 0.43217 0.78893 0.21254
 C2799 C 0.44350 0.78280 0.21918
 C2800 C 0.45149 0.77325 0.21251
 C2801 C 0.46130 0.76599 0.21958
 C2802 C 0.46316 0.76827 0.23337
 C2803 C 0.45548 0.77820 0.23987
 C2804 C 0.44573 0.78545 0.23280
 H2805 H 0.40895 0.78442 0.18590
 H2806 H 0.38786 0.79306 0.17665
 H2807 H 0.38710 0.82387 0.20742
 H2808 H 0.40823 0.81509 0.21646
 H2809 H 0.44976 0.77104 0.20200
 H2810 H 0.46699 0.75820 0.21449
 H2811 H 0.45666 0.77990 0.25054
 H2812 H 0.43954 0.79273 0.23808
 C2813 C 0.91019 0.29961 0.20196
 C2814 C 0.90434 0.29338 0.19080
 C2815 C 0.89222 0.29827 0.18551
 C2816 C 0.88574 0.30948 0.19134
 C2817 C 0.89175 0.31566 0.20258
 C2818 C 0.90387 0.31075 0.20783
 C2819 C 0.92232 0.29420 0.20778
 C2820 C 0.93220 0.28944 0.21300
 C2821 C 0.94352 0.28341 0.21976
 C2822 C 0.95190 0.27423 0.21305
 C2823 C 0.96173 0.26705 0.22018
 C2824 C 0.96322 0.26902 0.23406
 C2825 C 0.95514 0.27860 0.24060
 C2826 C 0.94537 0.28578 0.23348
 H2827 H 0.90908 0.28466 0.18625
 H2828 H 0.88796 0.29317 0.17692
 H2829 H 0.88713 0.32426 0.20741
 H2830 H 0.90825 0.31558 0.21656
 H2831 H 0.95048 0.27224 0.20245
 H2832 H 0.96773 0.25952 0.21503
 H2833 H 0.95604 0.28008 0.25134
 H2834 H 0.93888 0.29277 0.23880
 C2835 C 0.91027 0.79900 0.70123
 C2836 C 0.90421 0.81021 0.70724
 C2837 C 0.89207 0.81531 0.70217
 C2838 C 0.88581 0.80924 0.69101
 C2839 C 0.89205 0.79798 0.68505
 C2840 C 0.90417 0.79291 0.69013
 C2841 C 0.92237 0.79325 0.70680
 C2842 C 0.93220 0.78792 0.71155
 C2843 C 0.94344 0.78085 0.71738
 C2844 C 0.95187 0.78720 0.72672
 C2845 C 0.96171 0.77973 0.73354
 C2846 C 0.96314 0.76586 0.73106
 C2847 C 0.95497 0.75968 0.72134
 C2848 C 0.94520 0.76715 0.71451
 H2849 H 0.90879 0.81493 0.71591
 H2850 H 0.88763 0.82396 0.70708
 H2851 H 0.88761 0.79294 0.67651
 H2852 H 0.90871 0.78413 0.68547
 H2853 H 0.95051 0.79777 0.72911
 H2854 H 0.96777 0.78458 0.74118
 H2855 H 0.95581 0.74896 0.71945
 H2856 H 0.93867 0.76213 0.70738
 C2857 C 0.59005 0.29896 0.29812
 C2858 C 0.59617 0.31014 0.29213
 C2859 C 0.60829 0.31518 0.29724
 C2860 C 0.61449 0.30909 0.30842
 C2861 C 0.60822 0.29781 0.31433
 C2862 C 0.59611 0.29280 0.30921
 C2863 C 0.57789 0.29338 0.29255
 C2864 C 0.56798 0.28826 0.28777
 C2865 C 0.55665 0.28146 0.28183
 C2866 C 0.54859 0.28795 0.27225
 C2867 C 0.53874 0.28067 0.26525
 C2868 C 0.53693 0.26688 0.26783
 C2869 C 0.54470 0.26057 0.27779
 C2870 C 0.55448 0.26784 0.28478
 H2871 H 0.59163 0.31490 0.28344
 H2872 H 0.61278 0.32380 0.29233
 H2873 H 0.61263 0.29275 0.32288
 H2874 H 0.59153 0.28404 0.31383
 H2875 H 0.55027 0.29846 0.26982
 H2876 H 0.53300 0.28561 0.25741
 H2877 H 0.54356 0.24989 0.27973
 H2878 H 0.56073 0.26269 0.29209
 C2879 C 0.58986 0.79896 0.79861
 C2880 C 0.59606 0.81004 0.79249
 C2881 C 0.60820 0.81509 0.79755
 C2882 C 0.61434 0.80912 0.80884
 C2883 C 0.60798 0.79798 0.81491
 C2884 C 0.59585 0.79296 0.80982
 C2885 C 0.57773 0.79332 0.79302
 C2886 C 0.56785 0.78816 0.78819
 C2887 C 0.55655 0.78138 0.78216
 C2888 C 0.54817 0.78813 0.77301
 C2889 C 0.53831 0.78097 0.76591
 C2890 C 0.53679 0.76705 0.76792
 C2891 C 0.54487 0.76047 0.77746
 C2892 C 0.55468 0.76761 0.78456
 H2893 H 0.59156 0.81469 0.78372
 H2894 H 0.61273 0.82363 0.79255
 H2895 H 0.61234 0.79303 0.82354
 H2896 H 0.59121 0.78430 0.81457
 H2897 H 0.54961 0.79876 0.77101
 H2898 H 0.53231 0.78614 0.75841
 H2899 H 0.54396 0.74970 0.77897
 H2900 H 0.56116 0.76228 0.79152
 C2901 C 0.08966 0.29903 0.79848
 C2902 C 0.09577 0.31023 0.79251
 C2903 C 0.10791 0.31524 0.79760
 C2904 C 0.11414 0.30911 0.80875
 C2905 C 0.10786 0.29784 0.81467
 C2906 C 0.09572 0.29286 0.80956
 C2907 C 0.07754 0.29343 0.79285
 C2908 C 0.06767 0.28830 0.78798
 C2909 C 0.05639 0.28150 0.78195
 C2910 C 0.04836 0.28801 0.77235
 C2911 C 0.03852 0.28075 0.76533
 C2912 C 0.03670 0.26695 0.76788
 C2913 C 0.04445 0.26062 0.77784
 C2914 C 0.05422 0.26787 0.78486
 H2915 H 0.09122 0.31501 0.78384
 H2916 H 0.11238 0.32389 0.79272
 H2917 H 0.11229 0.29276 0.82319
 H2918 H 0.09114 0.28410 0.81418
 H2919 H 0.05004 0.29853 0.76994
 H2920 H 0.03278 0.28570 0.75749
 H2921 H 0.04331 0.24993 0.77976
 H2922 H 0.06046 0.26271 0.79217
 C2923 C 0.08983 0.79904 0.29832
 C2924 C 0.09578 0.81040 0.29249
 C2925 C 0.10787 0.81550 0.29762
 C2926 C 0.11421 0.80930 0.30866
 C2927 C 0.10810 0.79786 0.31443
 C2928 C 0.09602 0.79279 0.30929
 C2929 C 0.07773 0.79339 0.29268
 C2930 C 0.06787 0.78823 0.28782
 C2931 C 0.05657 0.78146 0.28178
 C2932 C 0.04856 0.78799 0.27218
 C2933 C 0.03868 0.78077 0.26516
 C2934 C 0.03680 0.76698 0.26773
 C2935 C 0.04453 0.76063 0.27769
 C2936 C 0.05434 0.76784 0.28470
 H2937 H 0.09113 0.81524 0.28391
 H2938 H 0.11221 0.82427 0.29284
 H2939 H 0.11261 0.79272 0.32288
 H2940 H 0.09156 0.78391 0.31381
 H2941 H 0.05029 0.79850 0.26977
 H2942 H 0.03297 0.78574 0.25733
 H2943 H 0.04334 0.74995 0.27961
 H2944 H 0.06055 0.76265 0.29201
 C2945 C 0.58988 0.70151 0.70142
 C2946 C 0.59580 0.69015 0.70729
 C2947 C 0.60792 0.68501 0.70224
 C2948 C 0.61432 0.69120 0.69122
 C2949 C 0.60825 0.70264 0.68541
 C2950 C 0.59613 0.70774 0.69047
 C2951 C 0.57776 0.70722 0.70698
 C2952 C 0.56789 0.71244 0.71176
 C2953 C 0.55659 0.71932 0.71769
 C2954 C 0.54823 0.71274 0.72695
 C2955 C 0.53834 0.72001 0.73392
 C2956 C 0.53678 0.73390 0.73164
 C2957 C 0.54486 0.74031 0.72200
 C2958 C 0.55469 0.73305 0.71505
 H2959 H 0.59110 0.68532 0.71585
 H2960 H 0.61224 0.67625 0.70705
 H2961 H 0.61281 0.70777 0.67698
 H2962 H 0.59171 0.71662 0.68592
 H2963 H 0.54970 0.70214 0.72916
 H2964 H 0.53236 0.71498 0.74150
 H2965 H 0.54392 0.75105 0.72030
 H2966 H 0.56117 0.73826 0.70799
 C2967 C 0.59006 0.20090 0.20179
 C2968 C 0.59619 0.18970 0.20775
 C2969 C 0.60829 0.18462 0.20260
 C2970 C 0.61445 0.19070 0.19139
 C2971 C 0.60817 0.20199 0.18550
 C2972 C 0.59608 0.20704 0.19067
 C2973 C 0.57793 0.20651 0.20740
 C2974 C 0.56804 0.21165 0.21223
 C2975 C 0.55672 0.21843 0.21823
 C2976 C 0.54871 0.21191 0.22783
 C2977 C 0.53885 0.21916 0.23486
 C2978 C 0.53698 0.23295 0.23230
 C2979 C 0.54469 0.23928 0.22232
 C2980 C 0.55449 0.23205 0.21530
 H2981 H 0.59167 0.18495 0.21645
 H2982 H 0.61278 0.17599 0.20749
 H2983 H 0.61255 0.20703 0.17692
 H2984 H 0.59149 0.21581 0.18606
 H2985 H 0.55044 0.20140 0.23024
 H2986 H 0.53314 0.21420 0.24271
 H2987 H 0.54350 0.24997 0.22040
 H2988 H 0.56069 0.23721 0.20798
 C2989 C 0.08973 0.70104 0.20133
 C2990 C 0.09587 0.68983 0.20727
 C2991 C 0.10802 0.68483 0.20216
 C2992 C 0.11422 0.69099 0.19102
 C2993 C 0.10792 0.70227 0.18512
 C2994 C 0.09577 0.70724 0.19025
 C2995 C 0.07762 0.70664 0.20701
 C2996 C 0.06776 0.71177 0.21192
 C2997 C 0.05650 0.71858 0.21800
 C2998 C 0.04851 0.71206 0.22762
 C2999 C 0.03868 0.71931 0.23469
 C3000 C 0.03681 0.73311 0.23214
 C3001 C 0.04454 0.73945 0.22218
 C3002 C 0.05431 0.73221 0.21513
 H3003 H 0.09133 0.68503 0.21593
 H3004 H 0.11250 0.67618 0.20702
 H3005 H 0.11233 0.70737 0.17661
 H3006 H 0.09117 0.71601 0.18565
 H3007 H 0.05022 0.70154 0.23002
 H3008 H 0.03297 0.71435 0.24253
 H3009 H 0.04337 0.75014 0.22028
 H3010 H 0.06051 0.73738 0.20780
 C3011 C 0.08981 0.20084 0.70191
 C3012 C 0.09593 0.18963 0.70788
 C3013 C 0.10804 0.18455 0.70274
 C3014 C 0.11422 0.19063 0.69154
 C3015 C 0.10795 0.20192 0.68564
 C3016 C 0.09585 0.20697 0.69079
 C3017 C 0.07768 0.20646 0.70752
 C3018 C 0.06780 0.21162 0.71235
 C3019 C 0.05649 0.21844 0.71834
 C3020 C 0.04845 0.21195 0.72794
 C3021 C 0.03859 0.21923 0.73494
 C3022 C 0.03674 0.23302 0.73235
 C3023 C 0.04448 0.23932 0.72238
 C3024 C 0.05428 0.23206 0.71538
 H3025 H 0.09141 0.18489 0.71658
 H3026 H 0.11253 0.17592 0.70764
 H3027 H 0.11233 0.20695 0.67707
 H3028 H 0.09126 0.21573 0.68617
 H3029 H 0.05016 0.20144 0.73038
 H3030 H 0.03286 0.21429 0.74278
 H3031 H 0.04331 0.25000 0.72043
 H3032 H 0.06050 0.23720 0.70806
 C3033 C 0.41005 0.70112 0.29814
 C3034 C 0.40379 0.69002 0.29215
 C3035 C 0.39171 0.68501 0.29736
 C3036 C 0.38568 0.69104 0.30868
 C3037 C 0.39209 0.70223 0.31460
 C3038 C 0.40417 0.70722 0.30935
 C3039 C 0.42219 0.70660 0.29242
 C3040 C 0.43209 0.71142 0.28730
 C3041 C 0.44344 0.71751 0.28067
 C3042 C 0.44570 0.71481 0.26706
 C3043 C 0.45548 0.72201 0.26001
 C3044 C 0.46316 0.73193 0.26650
 C3045 C 0.46127 0.73424 0.28027
 C3046 C 0.45143 0.72704 0.28734
 H3047 H 0.40819 0.68530 0.28337
 H3048 H 0.38712 0.67646 0.29244
 H3049 H 0.38782 0.70721 0.32326
 H3050 H 0.40887 0.71591 0.31399
 H3051 H 0.43952 0.70753 0.26178
 H3052 H 0.45669 0.72027 0.24934
 H3053 H 0.46697 0.74203 0.28537
 H3054 H 0.44968 0.72927 0.29784
 C3055 C 0.41014 0.20088 0.79845
 C3056 C 0.40429 0.20687 0.80974
 C3057 C 0.39216 0.20190 0.81490
 C3058 C 0.38567 0.19083 0.80882
 C3059 C 0.39170 0.18487 0.79747
 C3060 C 0.40383 0.18987 0.79234
 C3061 C 0.42226 0.20639 0.79273
 C3062 C 0.43214 0.21118 0.78753
 C3063 C 0.44346 0.21715 0.78074
 C3064 C 0.45116 0.22717 0.78702
 C3065 C 0.46101 0.23415 0.77973
 C3066 C 0.46318 0.23115 0.76613
 C3067 C 0.45577 0.22076 0.76005
 C3068 C 0.44598 0.21378 0.76733
 H3069 H 0.40903 0.21548 0.81449
 H3070 H 0.38789 0.20682 0.82360
 H3071 H 0.38708 0.17640 0.79245
 H3072 H 0.40822 0.18523 0.78352
 H3073 H 0.44920 0.22994 0.79735
 H3074 H 0.46648 0.24230 0.78449
 H3075 H 0.45719 0.21847 0.74951
 H3076 H 0.44002 0.20612 0.76235
 C3077 C 0.91035 0.70109 0.79875
 C3078 C 0.90419 0.68991 0.79279
 C3079 C 0.89204 0.68492 0.79789
 C3080 C 0.88585 0.69105 0.80906
 C3081 C 0.89219 0.70227 0.81501
 C3082 C 0.90434 0.70724 0.80988
 C3083 C 0.92245 0.70663 0.79301
 C3084 C 0.93229 0.71145 0.78778
 C3085 C 0.94357 0.71743 0.78091
 C3086 C 0.94601 0.71406 0.76749
 C3087 C 0.95575 0.72103 0.76015
 C3088 C 0.96321 0.73141 0.76617
 C3089 C 0.96113 0.73442 0.77979
 C3090 C 0.95132 0.72745 0.78714
 H3091 H 0.90870 0.68513 0.78411
 H3092 H 0.88755 0.67630 0.79300
 H3093 H 0.88780 0.70732 0.82356
 H3094 H 0.90897 0.71597 0.81451
 H3095 H 0.94001 0.70640 0.76255
 H3096 H 0.95711 0.71873 0.74960
 H3097 H 0.96664 0.74256 0.78451
 H3098 H 0.94943 0.73023 0.79749
 C3099 C 0.91033 0.20042 0.29801
 C3100 C 0.90428 0.20682 0.30897
 C3101 C 0.89204 0.20208 0.31406
 C3102 C 0.88565 0.19080 0.30828
 C3103 C 0.89187 0.18444 0.29725
 C3104 C 0.90411 0.18921 0.29218
 C3105 C 0.92249 0.20588 0.29229
 C3106 C 0.93234 0.21083 0.28718
 C3107 C 0.94355 0.21718 0.28054
 C3108 C 0.95181 0.22633 0.28742
 C3109 C 0.96157 0.23375 0.28043
 C3110 C 0.96309 0.23205 0.26652
 C3111 C 0.95508 0.22256 0.25979
 C3112 C 0.94539 0.21515 0.26676
 H3113 H 0.90896 0.21557 0.31350
 H3114 H 0.88762 0.20733 0.32250
 H3115 H 0.88731 0.17579 0.29246
 H3116 H 0.90865 0.18422 0.28362
 H3117 H 0.95037 0.22810 0.29806
 H3118 H 0.96750 0.24121 0.28573
 H3119 H 0.95599 0.22130 0.24902
 H3120 H 0.93896 0.20822 0.26131
 C3121 C 0.29907 0.29788 0.58993
 C3122 C 0.31015 0.29186 0.59621
 C3123 C 0.31502 0.29699 0.60834
 C3124 C 0.30889 0.30827 0.61440
 C3125 C 0.29772 0.31423 0.60798
 C3126 C 0.29286 0.30906 0.59584
 C3127 C 0.29368 0.29214 0.57778
 C3128 C 0.28896 0.28693 0.56791
 C3129 C 0.28296 0.28015 0.55662
 C3130 C 0.28497 0.26627 0.55502
 C3131 C 0.27778 0.25918 0.54527
 C3132 C 0.26854 0.26591 0.53696
 C3133 C 0.26695 0.27992 0.53818
 C3134 C 0.27415 0.28702 0.54799
 H3135 H 0.31496 0.28310 0.59180
 H3136 H 0.32356 0.29201 0.61293
 H3137 H 0.29264 0.32285 0.61230
 H3138 H 0.28418 0.31373 0.59113
 H3139 H 0.29168 0.26083 0.56169
 H3140 H 0.27896 0.24835 0.54457
 H3141 H 0.25969 0.28522 0.53200
 H3142 H 0.27244 0.29774 0.54921
 C3143 C 0.29928 0.79802 0.08951
 C3144 C 0.31032 0.79197 0.09583
 C3145 C 0.31513 0.79706 0.10800
 C3146 C 0.30895 0.80830 0.11408
 C3147 C 0.29782 0.81430 0.10761
 C3148 C 0.29303 0.80918 0.09543
 C3149 C 0.29396 0.79232 0.07733
 C3150 C 0.28929 0.78713 0.06743
 C3151 C 0.28334 0.78035 0.05613
 C3152 C 0.28535 0.76647 0.05457
 C3153 C 0.27812 0.75935 0.04486
 C3154 C 0.26887 0.76606 0.03656
 C3155 C 0.26730 0.78008 0.03773
 C3156 C 0.27452 0.78721 0.04750
 H3157 H 0.31516 0.78324 0.09140
 H3158 H 0.32366 0.79208 0.11260
 H3159 H 0.29273 0.82291 0.11192
 H3160 H 0.28438 0.81387 0.09069
 H3161 H 0.29207 0.76105 0.06125
 H3162 H 0.27930 0.74851 0.04420
 H3163 H 0.26004 0.78536 0.03154
 H3164 H 0.27282 0.79793 0.04869
 C3165 C 0.79918 0.29792 0.08973
 C3166 C 0.81027 0.29190 0.09599
 C3167 C 0.81518 0.29704 0.10810
 C3168 C 0.80905 0.30833 0.11417
 C3169 C 0.79788 0.31430 0.10775
 C3170 C 0.79299 0.30912 0.09563
 C3171 C 0.79377 0.29219 0.07759
 C3172 C 0.78902 0.28701 0.06772
 C3173 C 0.78301 0.28026 0.05642
 C3174 C 0.78504 0.26639 0.05478
 C3175 C 0.77783 0.25932 0.04502
 C3176 C 0.76857 0.26606 0.03675
 C3177 C 0.76696 0.28007 0.03802
 C3178 C 0.77417 0.28715 0.04784
 H3179 H 0.81507 0.28314 0.09156
 H3180 H 0.82374 0.29209 0.11266
 H3181 H 0.79284 0.32295 0.11204
 H3182 H 0.78432 0.31380 0.09093
 H3183 H 0.79177 0.26094 0.06141
 H3184 H 0.77904 0.24849 0.04429
 H3185 H 0.75968 0.28538 0.03187
 H3186 H 0.77244 0.29786 0.04910
 C3187 C 0.79881 0.79837 0.58987
 C3188 C 0.80989 0.79227 0.59609
 C3189 C 0.81484 0.79733 0.60822
 C3190 C 0.80876 0.80861 0.61435
 C3191 C 0.79759 0.81464 0.60799
 C3192 C 0.79267 0.80955 0.59586
 C3193 C 0.79335 0.79274 0.57771
 C3194 C 0.78854 0.78766 0.56782
 C3195 C 0.78244 0.78100 0.55651
 C3196 C 0.78470 0.76721 0.55459
 C3197 C 0.77745 0.76017 0.54484
 C3198 C 0.76790 0.76687 0.53687
 C3199 C 0.76604 0.78082 0.53841
 C3200 C 0.77330 0.78787 0.54822
 H3201 H 0.81465 0.78352 0.59161
 H3202 H 0.82338 0.79232 0.61275
 H3203 H 0.79257 0.82327 0.61235
 H3204 H 0.78400 0.81427 0.59120
 H3205 H 0.79167 0.76178 0.56100
 H3206 H 0.77885 0.74938 0.54389
 H3207 H 0.75854 0.78608 0.53248
 H3208 H 0.77140 0.79852 0.54968
 C3209 C 0.29833 0.70133 0.41018
 C3210 C 0.29224 0.69024 0.40402
 C3211 C 0.29721 0.68531 0.39184
 C3212 C 0.30840 0.69143 0.38561
 C3213 C 0.31444 0.70261 0.39192
 C3214 C 0.30944 0.70751 0.40411
 C3215 C 0.29270 0.70677 0.42235
 C3216 C 0.28748 0.71143 0.43225
 C3217 C 0.28051 0.71720 0.44354
 C3218 C 0.26694 0.71395 0.44565
 C3219 C 0.25947 0.72077 0.45539
 C3220 C 0.26551 0.73087 0.46320
 C3221 C 0.27927 0.73374 0.46145
 C3222 C 0.28674 0.72693 0.45164
 H3223 H 0.28355 0.68545 0.40857
 H3224 H 0.29221 0.67675 0.38735
 H3225 H 0.32301 0.70766 0.38749
 H3226 H 0.31417 0.71619 0.40873
 H3227 H 0.26200 0.70652 0.43938
 H3228 H 0.24882 0.71859 0.45647
 H3229 H 0.28401 0.74168 0.46723
 H3230 H 0.29720 0.72961 0.45002
 C3231 C 0.29907 0.20178 0.91030
 C3232 C 0.29289 0.19061 0.90435
 C3233 C 0.29775 0.18550 0.89219
 C3234 C 0.30890 0.19150 0.88577
 C3235 C 0.31503 0.20275 0.89188
 C3236 C 0.31014 0.20783 0.90404
 C3237 C 0.29367 0.20748 0.92246
 C3238 C 0.28895 0.21268 0.93234
 C3239 C 0.28296 0.21949 0.94363
 C3240 C 0.27414 0.21266 0.95227
 C3241 C 0.26694 0.21981 0.96206
 C3242 C 0.26853 0.23382 0.96324
 C3243 C 0.27779 0.24050 0.95492
 C3244 C 0.28499 0.23336 0.94520
 H3245 H 0.28423 0.18591 0.90905
 H3246 H 0.29271 0.17688 0.88785
 H3247 H 0.32356 0.20772 0.88732
 H3248 H 0.31494 0.21656 0.90849
 H3249 H 0.27243 0.20194 0.95109
 H3250 H 0.25968 0.21454 0.96826
 H3251 H 0.27900 0.25133 0.95560
 H3252 H 0.29172 0.23876 0.93853
 C3253 C 0.79863 0.70149 0.91031
 C3254 C 0.79251 0.69037 0.90420
 C3255 C 0.79751 0.68535 0.89207
 C3256 C 0.80873 0.69139 0.88583
 C3257 C 0.81477 0.70261 0.89207
 C3258 C 0.80975 0.70761 0.90421
 C3259 C 0.79304 0.70700 0.92247
 C3260 C 0.78790 0.71175 0.93237
 C3261 C 0.78106 0.71764 0.94368
 C3262 C 0.76762 0.71418 0.94619
 C3263 C 0.76024 0.72112 0.95592
 C3264 C 0.76625 0.73154 0.96331
 C3265 C 0.77990 0.73464 0.96118
 C3266 C 0.78729 0.72770 0.95138
 H3267 H 0.78380 0.68563 0.90877
 H3268 H 0.79249 0.67677 0.88762
 H3269 H 0.82335 0.70762 0.88762
 H3270 H 0.81448 0.71632 0.90878
 H3271 H 0.76268 0.70649 0.94024
 H3272 H 0.74967 0.71875 0.95731
 H3273 H 0.78461 0.74282 0.96664
 H3274 H 0.79765 0.73055 0.94944
 C3275 C 0.79918 0.20212 0.41024
 C3276 C 0.79301 0.19093 0.40433
 C3277 C 0.79793 0.18572 0.39223
 C3278 C 0.80914 0.19166 0.38585
 C3279 C 0.81519 0.20299 0.39187
 C3280 C 0.81024 0.20816 0.40396
 C3281 C 0.79379 0.20782 0.42238
 C3282 C 0.78907 0.21298 0.43228
 C3283 C 0.78307 0.21972 0.44358
 C3284 C 0.77422 0.21283 0.45214
 C3285 C 0.76698 0.21991 0.46194
 C3286 C 0.76858 0.23391 0.46320
 C3287 C 0.77785 0.24065 0.45496
 C3288 C 0.78508 0.23358 0.44522
 H3289 H 0.78431 0.18630 0.40902
 H3290 H 0.79288 0.17710 0.38793
 H3291 H 0.82371 0.20798 0.38729
 H3292 H 0.81499 0.21695 0.40836
 H3293 H 0.77250 0.20212 0.45087
 H3294 H 0.75968 0.21462 0.46807
 H3295 H 0.77903 0.25149 0.45568
 H3296 H 0.79181 0.23903 0.43858
 C3297 C 0.70076 0.29812 0.41021
 C3298 C 0.68972 0.29204 0.40393
 C3299 C 0.68489 0.29707 0.39173
 C3300 C 0.69105 0.30828 0.38560
 C3301 C 0.70216 0.31432 0.39204
 C3302 C 0.70696 0.30927 0.40424
 C3303 C 0.70614 0.29245 0.42238
 C3304 C 0.71087 0.28726 0.43226
 C3305 C 0.71686 0.28044 0.44353
 C3306 C 0.71479 0.26657 0.44508
 C3307 C 0.72196 0.25941 0.45481
 C3308 C 0.73122 0.26606 0.46314
 C3309 C 0.73288 0.28007 0.46194
 C3310 C 0.72572 0.28724 0.45214
 H3311 H 0.68490 0.28332 0.40841
 H3312 H 0.67637 0.29207 0.38716
 H3313 H 0.70723 0.32292 0.38770
 H3314 H 0.71560 0.31398 0.40896
 H3315 H 0.70806 0.26120 0.43840
 H3316 H 0.72074 0.24858 0.45546
 H3317 H 0.74018 0.28530 0.46812
 H3318 H 0.72749 0.29795 0.45094
 C3319 C 0.70089 0.79858 0.91041
 C3320 C 0.68990 0.79243 0.90412
 C3321 C 0.68503 0.79743 0.89194
 C3322 C 0.69108 0.80871 0.88582
 C3323 C 0.70216 0.81482 0.89226
 C3324 C 0.70702 0.80978 0.90445
 C3325 C 0.70629 0.79289 0.92257
 C3326 C 0.71096 0.78762 0.93245
 C3327 C 0.71679 0.78065 0.94372
 C3328 C 0.71402 0.76694 0.94554
 C3329 C 0.72100 0.75955 0.95525
 C3330 C 0.73077 0.76583 0.96329
 C3331 C 0.73312 0.77971 0.96184
 C3332 C 0.72616 0.78710 0.95206
 H3333 H 0.68516 0.78366 0.90858
 H3334 H 0.67657 0.79236 0.88734
 H3335 H 0.70717 0.82345 0.88791
 H3336 H 0.71562 0.81455 0.90917
 H3337 H 0.70687 0.76183 0.93908
 H3338 H 0.71920 0.74882 0.95613
 H3339 H 0.74080 0.78464 0.96781
 H3340 H 0.72846 0.79768 0.95067
 C3341 C 0.20078 0.29806 0.91012
 C3342 C 0.20697 0.30923 0.90416
 C3343 C 0.20210 0.31435 0.89201
 C3344 C 0.19095 0.30837 0.88560
 C3345 C 0.18482 0.29711 0.89170
 C3346 C 0.18971 0.29202 0.90385
 C3347 C 0.20617 0.29236 0.92228
 C3348 C 0.21089 0.28718 0.93218
 C3349 C 0.21685 0.28038 0.94349
 C3350 C 0.22569 0.28721 0.95212
 C3351 C 0.23283 0.28007 0.96195
 C3352 C 0.23119 0.26607 0.96319
 C3353 C 0.22193 0.25940 0.95487
 C3354 C 0.21478 0.26652 0.94510
 H3355 H 0.21563 0.31391 0.90886
 H3356 H 0.20716 0.32296 0.88767
 H3357 H 0.17629 0.29213 0.88714
 H3358 H 0.18491 0.28328 0.90830
 H3359 H 0.22745 0.29792 0.95089
 H3360 H 0.24011 0.28533 0.96814
 H3361 H 0.22069 0.24857 0.95557
 H3362 H 0.20805 0.26112 0.93843
 C3363 C 0.20117 0.79859 0.41011
 C3364 C 0.19009 0.79249 0.40393
 C3365 C 0.18518 0.79746 0.39174
 C3366 C 0.19129 0.80865 0.38552
 C3367 C 0.20246 0.81470 0.39185
 C3368 C 0.20735 0.80970 0.40404
 C3369 C 0.20658 0.79296 0.42230
 C3370 C 0.21122 0.78774 0.43221
 C3371 C 0.21698 0.78077 0.44352
 C3372 C 0.21365 0.76724 0.44570
 C3373 C 0.22048 0.75976 0.45544
 C3374 C 0.23065 0.76578 0.46319
 C3375 C 0.23358 0.77951 0.46137
 C3376 C 0.22677 0.78699 0.45156
 H3377 H 0.18530 0.78380 0.40847
 H3378 H 0.17663 0.79245 0.38724
 H3379 H 0.20752 0.82327 0.38742
 H3380 H 0.21603 0.81442 0.40868
 H3381 H 0.20617 0.76231 0.43948
 H3382 H 0.21825 0.74914 0.45658
 H3383 H 0.24157 0.78423 0.46710
 H3384 H 0.22950 0.79742 0.44988
 C3385 C 0.70114 0.70186 0.58993
 C3386 C 0.69007 0.70794 0.59618
 C3387 C 0.68518 0.70289 0.60834
 C3388 C 0.69130 0.69163 0.61446
 C3389 C 0.70247 0.68562 0.60808
 C3390 C 0.70734 0.69071 0.59592
 C3391 C 0.70652 0.70750 0.57775
 C3392 C 0.71121 0.71266 0.56784
 C3393 C 0.71711 0.71948 0.55652
 C3394 C 0.71452 0.73322 0.55464
 C3395 C 0.72156 0.74045 0.54488
 C3396 C 0.73122 0.73399 0.53683
 C3397 C 0.73341 0.72008 0.53835
 C3398 C 0.72637 0.71284 0.54818
 H3399 H 0.68527 0.71668 0.59171
 H3400 H 0.67664 0.70788 0.61288
 H3401 H 0.70753 0.67702 0.61244
 H3402 H 0.71602 0.68601 0.59124
 H3403 H 0.70747 0.73847 0.56110
 H3404 H 0.71993 0.75121 0.54398
 H3405 H 0.74101 0.71501 0.53239
 H3406 H 0.72854 0.70224 0.54963
 C3407 C 0.70093 0.20184 0.08973
 C3408 C 0.68987 0.20792 0.09601
 C3409 C 0.68503 0.20288 0.10820
 C3410 C 0.69120 0.19165 0.11432
 C3411 C 0.70233 0.18562 0.10789
 C3412 C 0.70715 0.19069 0.09570
 C3413 C 0.70631 0.20751 0.07756
 C3414 C 0.71103 0.21268 0.06767
 C3415 C 0.71699 0.21950 0.05638
 C3416 C 0.71491 0.23336 0.05483
 C3417 C 0.72203 0.24051 0.04507
 C3418 C 0.73128 0.23386 0.03671
 C3419 C 0.73294 0.21985 0.03790
 C3420 C 0.72582 0.21268 0.04773
 H3421 H 0.68505 0.21664 0.09154
 H3422 H 0.67650 0.20787 0.11277
 H3423 H 0.70742 0.17703 0.11224
 H3424 H 0.71580 0.18598 0.09099
 H3425 H 0.70820 0.23875 0.06154
 H3426 H 0.72079 0.25134 0.04441
 H3427 H 0.74021 0.21461 0.03168
 H3428 H 0.72759 0.20197 0.04892
 C3429 C 0.20100 0.70203 0.08969
 C3430 C 0.18992 0.70809 0.09594
 C3431 C 0.18501 0.70299 0.10807
 C3432 C 0.19111 0.69171 0.11417
 C3433 C 0.20228 0.68571 0.10778
 C3434 C 0.20718 0.69084 0.09564
 C3435 C 0.20642 0.70773 0.07753
 C3436 C 0.21115 0.71291 0.06765
 C3437 C 0.21712 0.71972 0.05635
 C3438 C 0.21507 0.73359 0.05477
 C3439 C 0.22222 0.74071 0.04500
 C3440 C 0.23144 0.73401 0.03663
 C3441 C 0.23307 0.72000 0.03785
 C3442 C 0.22593 0.71287 0.04769
 H3443 H 0.18514 0.71684 0.09149
 H3444 H 0.17646 0.70798 0.11262
 H3445 H 0.20732 0.67708 0.11211
 H3446 H 0.21585 0.68614 0.09096
 H3447 H 0.20837 0.73900 0.06146
 H3448 H 0.22101 0.75154 0.04432
 H3449 H 0.24033 0.71473 0.03164
 H3450 H 0.22767 0.70216 0.04890
 C3451 C 0.20073 0.20176 0.58990
 C3452 C 0.18967 0.20783 0.59617
 C3453 C 0.18481 0.20277 0.60835
 C3454 C 0.19097 0.19153 0.61447
 C3455 C 0.20212 0.18552 0.60805
 C3456 C 0.20695 0.19061 0.59587
 C3457 C 0.20611 0.20744 0.57772
 C3458 C 0.21083 0.21261 0.56783
 C3459 C 0.21681 0.21941 0.55653
 C3460 C 0.21477 0.23329 0.55499
 C3461 C 0.22195 0.24043 0.54526
 C3462 C 0.23118 0.23376 0.53691
 C3463 C 0.23279 0.21974 0.53808
 C3464 C 0.22562 0.21258 0.54787
 H3465 H 0.18485 0.21656 0.59171
 H3466 H 0.17628 0.20775 0.61292
 H3467 H 0.20720 0.17692 0.61239
 H3468 H 0.21561 0.18591 0.59117
 H3469 H 0.20806 0.23869 0.56169
 H3470 H 0.22075 0.25127 0.54461
 H3471 H 0.24005 0.21448 0.53186
 H3472 H 0.22735 0.20186 0.54905
   
