data_POSCAR
  _audit_creation_date              2014-09-24
  _audit_creation_method            'ToBaCCo'
  _symmetry_space_group_name_H-M    'P1'
  _symmetry_Int_Tables_number       1
  _symmetry_cell_setting            triclinic
  loop_
  _symmetry_equiv_pos_as_xyz
 x,y,z
_cell_length_a 45.3246
_cell_length_b 45.3239
_cell_length_c 40.4457
_cell_angle_alpha 89.998600
_cell_angle_beta 90.001500
_cell_angle_gamma 89.999900
loop_
  _atom_site_label
  _atom_site_type_symbol
  _atom_site_fract_x
  _atom_site_fract_y
  _atom_site_fract_z
C1 C 0.35628 -0.00002 0.24998
 C2 C 0.14370 -0.00003 0.74999
 C3 C 0.64367 0.49997 0.25001
 C4 C 0.85632 0.49998 0.74997
 C5 C 0.25000 0.39368 0.99997
 C6 C 0.75000 0.10624 0.99998
 C7 C 0.25000 0.60630 0.49999
 C8 C 0.75000 0.89367 0.50000
 C9 C -0.00003 0.24996 0.37496
 C10 C -0.00003 0.74996 0.12500
 C11 C 0.49999 0.24994 0.62499
 C12 C 0.49998 0.74996 0.87500
 C13 C -0.25000 0.60627 1.00000
 C14 C -0.25000 0.39369 0.49995
 C15 C 0.25000 -0.10635 -0.00004
 C16 C 0.25000 1.10627 0.49997
 C17 C 0.14367 0.49998 0.24996
 C18 C -0.14369 0.99997 0.24998
 C19 C 0.35628 0.49997 -0.25001
 C20 C 0.64371 -0.00002 -0.25001
 C21 C -0.00001 0.24995 0.87495
 C22 C 0.49996 0.24996 0.12498
 C23 C -0.00003 0.74995 0.62497
 C24 C 0.49999 0.74995 0.37499
 B25 B -0.01669 0.01643 1.02858
 B26 B -0.03277 0.00893 0.99253
 B27 B -0.00584 0.03399 0.99447
 B28 B 0.01946 0.02279 1.02243
 B29 B 0.00741 -0.01040 1.03756
 B30 B -0.02543 -0.01868 1.01899
 B31 B 0.01670 -0.01652 0.97138
 B32 B 0.03278 -0.00902 1.00743
 B33 B 0.00585 -0.03408 1.00549
 B34 B -0.01945 -0.02288 0.97753
 B35 B -0.00741 0.01031 0.96240
 B36 B 0.02543 0.01860 0.98097
 B37 B 0.48330 0.51643 0.52861
 B38 B 0.46721 0.50893 0.49256
 B39 B 0.49414 0.53399 0.49450
 B40 B 0.51944 0.52278 0.52245
 B41 B 0.50740 0.48959 0.53758
 B42 B 0.47456 0.48131 0.51902
 B43 B 0.51667 0.48348 0.47140
 B44 B 0.53276 0.49097 0.50745
 B45 B 0.50583 0.46592 0.50551
 B46 B 0.48052 0.47712 0.47756
 B47 B 0.49256 0.51031 0.46243
 B48 B 0.52541 0.51859 0.48099
 B49 B 0.51668 0.98348 0.52860
 B50 B 0.53276 0.99097 0.49255
 B51 B 0.50584 0.96591 0.49450
 B52 B 0.48054 0.97712 0.52245
 B53 B 0.49258 1.01031 0.53757
 B54 B 0.52542 1.01859 0.51900
 B55 B 0.48329 1.01641 0.47139
 B56 B 0.46721 1.00892 0.50744
 B57 B 0.49414 1.03398 0.50549
 B58 B 0.51944 1.02278 0.47754
 B59 B 0.50740 0.98958 0.46242
 B60 B 0.47456 0.98130 0.48099
 B61 B 0.01669 0.48347 1.02857
 B62 B 0.03276 0.49098 0.99252
 B63 B 0.00584 0.46592 0.99446
 B64 B -0.01946 0.47712 1.02242
 B65 B -0.00742 0.51031 1.03756
 B66 B 0.02543 0.51859 1.01899
 B67 B -0.01670 0.51644 0.97137
 B68 B -0.03278 0.50894 1.00743
 B69 B -0.00585 0.53399 1.00549
 B70 B 0.01945 0.52279 0.97753
 B71 B 0.00740 0.48961 0.96239
 B72 B -0.02544 0.48132 0.98096
 B73 B 0.01672 0.51642 0.47140
 B74 B 0.03280 0.50892 0.50745
 B75 B 0.00587 0.53398 0.50551
 B76 B -0.01943 0.52277 0.47755
 B77 B -0.00738 0.48958 0.46242
 B78 B 0.02546 0.48130 0.48099
 B79 B -0.01666 0.48346 0.52860
 B80 B -0.03274 0.49096 0.49255
 B81 B -0.00581 0.46590 0.49449
 B82 B 0.01949 0.47711 0.52245
 B83 B 0.00744 0.51030 0.53758
 B84 B -0.02540 0.51857 0.51901
 B85 B 0.51668 0.01643 -0.02863
 B86 B 0.53276 0.00895 0.00743
 B87 B 0.50583 0.03401 0.00547
 B88 B 0.48053 0.02279 -0.02249
 B89 B 0.49258 -0.01040 -0.03760
 B90 B 0.52542 -0.01868 -0.01902
 B91 B 0.48329 -0.01650 0.02858
 B92 B 0.46721 -0.00901 -0.00748
 B93 B 0.49414 -0.03407 -0.00552
 B94 B 0.51944 -0.02286 0.02244
 B95 B 0.50739 0.01034 0.03756
 B96 B 0.47455 0.01861 0.01898
 B97 B 0.48332 0.48348 -0.02864
 B98 B 0.46724 0.49098 0.00742
 B99 B 0.49416 0.46592 0.00547
 B100 B 0.51947 0.47712 -0.02249
 B101 B 0.50743 0.51032 -0.03761
 B102 B 0.47459 0.51860 -0.01904
 B103 B 0.51671 0.51642 0.02858
 B104 B 0.53279 0.50893 -0.00748
 B105 B 0.50586 0.53399 -0.00553
 B106 B 0.48056 0.52278 0.02242
 B107 B 0.49260 0.48959 0.03755
 B108 B 0.52544 0.48131 0.01898
 B109 B -0.01670 0.98350 0.47139
 B110 B -0.03277 0.99099 0.50744
 B111 B -0.00585 0.96593 0.50549
 B112 B 0.01945 0.97714 0.47753
 B113 B 0.00740 1.01033 0.46241
 B114 B -0.02543 1.01861 0.48098
 B115 B 0.01670 1.01644 0.52859
 B116 B 0.03277 1.00895 0.49254
 B117 B 0.00584 1.03400 0.49449
 B118 B -0.01945 1.02280 0.52245
 B119 B -0.00741 0.98960 0.53757
 B120 B 0.02543 0.98133 0.51900
 B121 B 0.76643 0.23328 0.22136
 B122 B 0.75895 0.21719 0.25741
 B123 B 0.78400 0.24412 0.25547
 B124 B 0.77279 0.26943 0.22751
 B125 B 0.73960 0.25738 0.21239
 B126 B 0.73132 0.22454 0.23096
 B127 B 0.73350 0.26666 0.27858
 B128 B 0.74099 0.28274 0.24252
 B129 B 0.71593 0.25581 0.24447
 B130 B 0.72714 0.23051 0.27243
 B131 B 0.76033 0.24255 0.28755
 B132 B 0.76861 0.27540 0.26898
 B133 B 0.73350 0.76665 0.72138
 B134 B 0.74099 0.78273 0.75744
 B135 B 0.71593 0.75580 0.75549
 B136 B 0.72714 0.73050 0.72753
 B137 B 0.76033 0.74255 0.71240
 B138 B 0.76861 0.77539 0.73097
 B139 B 0.76644 0.73326 0.77858
 B140 B 0.75895 0.71718 0.74253
 B141 B 0.78401 0.74411 0.74448
 B142 B 0.77280 0.76941 0.77244
 B143 B 0.73961 0.75737 0.78757
 B144 B 0.73133 0.72452 0.76899
 B145 B 0.26646 0.26667 0.77858
 B146 B 0.25896 0.28275 0.74252
 B147 B 0.28402 0.25582 0.74447
 B148 B 0.27282 0.23052 0.77244
 B149 B 0.23963 0.24257 0.78756
 B150 B 0.23134 0.27540 0.76898
 B151 B 0.23352 0.23327 0.72137
 B152 B 0.24101 0.21720 0.75743
 B153 B 0.21595 0.24412 0.75547
 B154 B 0.22716 0.26942 0.72751
 B155 B 0.26035 0.25738 0.71239
 B156 B 0.26863 0.22454 0.73097
 B157 B 0.23352 0.73328 0.27857
 B158 B 0.24101 0.71720 0.24252
 B159 B 0.21595 0.74413 0.24447
 B160 B 0.22716 0.76943 0.27242
 B161 B 0.26035 0.75738 0.28755
 B162 B 0.26863 0.72454 0.26898
 B163 B 0.26647 0.76666 0.22137
 B164 B 0.25898 0.78274 0.25742
 B165 B 0.28403 0.75581 0.25547
 B166 B 0.27282 0.73051 0.22752
 B167 B 0.23963 0.74256 0.21239
 B168 B 0.23136 0.77540 0.23096
 B169 B 0.26645 0.73327 0.72140
 B170 B 0.25895 0.71719 0.75745
 B171 B 0.28401 0.74412 0.75551
 B172 B 0.27281 0.76942 0.72754
 B173 B 0.23962 0.75737 0.71241
 B174 B 0.23134 0.72453 0.73098
 B175 B 0.23349 0.76666 0.77859
 B176 B 0.24099 0.78274 0.74254
 B177 B 0.21593 0.75581 0.74447
 B178 B 0.22714 0.73051 0.77244
 B179 B 0.26032 0.74256 0.78758
 B180 B 0.26860 0.77540 0.76901
 B181 B 0.23350 0.26668 0.22137
 B182 B 0.24099 0.28276 0.25742
 B183 B 0.21593 0.25583 0.25548
 B184 B 0.22714 0.23053 0.22752
 B185 B 0.26033 0.24257 0.21240
 B186 B 0.26861 0.27541 0.23097
 B187 B 0.26644 0.23329 0.27858
 B188 B 0.25895 0.21721 0.24253
 B189 B 0.28401 0.24413 0.24448
 B190 B 0.27280 0.26944 0.27243
 B191 B 0.23961 0.25740 0.28755
 B192 B 0.23133 0.22455 0.26899
 B193 B 0.76645 0.76667 0.27859
 B194 B 0.75896 0.78275 0.24254
 B195 B 0.78401 0.75582 0.24449
 B196 B 0.77280 0.73052 0.27245
 B197 B 0.73961 0.74257 0.28756
 B198 B 0.73134 0.77541 0.26899
 B199 B 0.73351 0.73329 0.22138
 B200 B 0.74099 0.71721 0.25744
 B201 B 0.71594 0.74414 0.25548
 B202 B 0.72715 0.76944 0.22752
 B203 B 0.76034 0.75739 0.21241
 B204 B 0.76862 0.72455 0.23098
 B205 B 0.73352 0.23330 0.77861
 B206 B 0.74100 0.21722 0.74255
 B207 B 0.71594 0.24415 0.74451
 B208 B 0.72715 0.26945 0.77247
 B209 B 0.76035 0.25741 0.78757
 B210 B 0.76863 0.22457 0.76900
 B211 B 0.76644 0.26670 0.72139
 B212 B 0.75895 0.28277 0.75745
 B213 B 0.78401 0.25585 0.75549
 B214 B 0.77280 0.23055 0.72753
 B215 B 0.73960 0.24259 0.71242
 B216 B 0.73133 0.27543 0.73100
 C217 C 0.40187 1.03710 0.38287
 C218 C 0.40818 1.05156 0.34877
 C219 C 0.40544 1.02105 0.33242
 C220 C 0.39884 1.00663 0.36595
 C221 C 0.43508 1.03158 0.38699
 C222 C 0.43218 1.00114 0.37044
 C223 C 0.44177 1.04603 0.35350
 C224 C 0.43861 1.01549 0.33660
 C225 C 0.38885 1.01366 0.30261
 C226 C 0.37464 1.00715 0.27856
 C227 C 0.45202 1.03322 0.41759
 C228 C 0.46612 1.02943 0.44235
 H229 H 0.38702 1.04615 0.40220
 H230 H 0.39803 1.07220 0.33934
 H231 H 0.38114 0.99025 0.37074
 H232 H 0.44223 0.98037 0.37970
 H233 H 0.45952 1.06238 0.34881
 H234 H 0.45350 1.00640 0.31733
 C235 C -0.09812 0.53707 0.88288
 C236 C -0.09186 0.55157 0.84879
 C237 C -0.09453 0.52107 0.83241
 C238 C -0.10109 0.50660 0.86592
 C239 C -0.06490 0.53162 0.88698
 C240 C -0.06773 0.50118 0.87040
 C241 C -0.05825 0.54611 0.85350
 C242 C -0.06134 0.51559 0.83657
 C243 C -0.11112 0.51367 0.80260
 C244 C -0.12533 0.50716 0.77855
 C245 C -0.04797 0.53326 0.91758
 C246 C -0.03386 0.52947 0.94235
 H247 H -0.11298 0.54606 0.90223
 H248 H -0.10206 0.57220 0.83939
 H249 H -0.11875 0.49018 0.87070
 H250 H -0.05763 0.48043 0.87962
 H251 H -0.04054 0.56251 0.84883
 H252 H -0.04645 0.50655 0.81728
 C253 C 0.05825 -0.04613 0.85350
 C254 C 0.06137 -0.01560 0.83659
 C255 C 0.09456 -0.02112 0.83243
 C256 C 0.09185 -0.05163 0.84879
 C257 C 0.06492 -0.03167 0.88699
 C258 C 0.09814 -0.03716 0.88289
 C259 C 0.06778 -0.00123 0.87044
 C260 C 0.10113 -0.00668 0.86595
 C261 C 0.11114 -0.01372 0.80262
 C262 C 0.12535 -0.00721 0.77857
 C263 C 0.04798 -0.03332 0.91759
 C264 C 0.03387 -0.02953 0.94235
 H265 H 0.04052 -0.06251 0.84882
 H266 H 0.04649 -0.00654 0.81732
 H267 H 0.10202 -0.07226 0.83937
 H268 H 0.11299 -0.04619 0.90223
 H269 H 0.05771 0.01953 0.87968
 H270 H 0.11882 0.00972 0.87074
 C271 C 0.59808 0.46286 0.38290
 C272 C 0.59181 0.44837 0.34880
 C273 C 0.59450 0.47888 0.33243
 C274 C 0.60106 0.49333 0.36595
 C275 C 0.56486 0.46832 0.38699
 C276 C 0.56771 0.49876 0.37042
 C277 C 0.55821 0.45384 0.35351
 C278 C 0.56131 0.48437 0.33659
 C279 C 0.61109 0.48627 0.30262
 C280 C 0.62531 0.49279 0.27859
 C281 C 0.54793 0.46667 0.41759
 C282 C 0.53383 0.47046 0.44236
 H283 H 0.61294 0.45385 0.40224
 H284 H 0.60200 0.42774 0.33940
 H285 H 0.61873 0.50975 0.37073
 H286 H 0.55762 0.51952 0.37965
 H287 H 0.54049 0.43745 0.34883
 H288 H 0.54642 0.49342 0.31730
 C289 C 0.59812 0.53706 0.11709
 C290 C 0.59183 0.55155 0.15119
 C291 C 0.59453 0.52104 0.16755
 C292 C 0.60111 0.50659 0.13404
 C293 C 0.56491 0.53158 0.11298
 C294 C 0.56776 0.50114 0.12955
 C295 C 0.55823 0.54606 0.14646
 C296 C 0.56135 0.51553 0.16338
 C297 C 0.61111 0.51365 0.19738
 C298 C 0.62532 0.50714 0.22142
 C299 C 0.54797 0.53322 0.08238
 C300 C 0.53387 0.52943 0.05761
 H301 H 0.61298 0.54608 0.09776
 H302 H 0.60200 0.57218 0.16060
 H303 H 0.61880 0.49019 0.12927
 H304 H 0.55769 0.48038 0.12031
 H305 H 0.54050 0.56243 0.15113
 H306 H 0.54646 0.50647 0.18266
 C307 C 0.09813 1.03708 0.61709
 C308 C 0.09184 1.05157 0.65119
 C309 C 0.09455 1.02106 0.66755
 C310 C 0.10112 1.00661 0.63404
 C311 C 0.06491 1.03160 0.61299
 C312 C 0.06777 1.00116 0.62956
 C313 C 0.05824 1.04607 0.64647
 C314 C 0.06137 1.01555 0.66339
 C315 C 0.11113 1.01367 0.69737
 C316 C 0.12535 1.00715 0.72141
 C317 C 0.04797 1.03324 0.58239
 C318 C 0.03387 1.02945 0.55762
 H319 H 0.11298 1.04611 0.59775
 H320 H 0.10202 1.07220 0.66060
 H321 H 0.11881 0.99021 0.62926
 H322 H 0.05770 0.98040 0.62032
 H323 H 0.04051 1.06245 0.65115
 H324 H 0.04648 1.00648 0.68267
 C325 C -0.05821 0.45384 0.64649
 C326 C -0.06132 0.48437 0.66340
 C327 C -0.09451 0.47887 0.66755
 C328 C -0.09181 0.44836 0.65120
 C329 C -0.06486 0.46831 0.61300
 C330 C -0.09808 0.46284 0.61710
 C331 C -0.06771 0.49875 0.62956
 C332 C -0.10107 0.49332 0.63403
 C333 C -0.11110 0.48628 0.69736
 C334 C -0.12532 0.49280 0.72140
 C335 C -0.04793 0.46666 0.58240
 C336 C -0.03382 0.47044 0.55764
 H337 H -0.04049 0.43745 0.65118
 H338 H -0.04643 0.49342 0.68269
 H339 H -0.10200 0.42773 0.66061
 H340 H -0.11294 0.45383 0.59775
 H341 H -0.05762 0.51951 0.62032
 H342 H -0.11874 0.50973 0.62924
 C343 C 0.44176 -0.04608 0.14648
 C344 C 0.43860 -0.01555 0.16337
 C345 C 0.40543 -0.02109 0.16754
 C346 C 0.40816 -0.05161 0.15120
 C347 C 0.43507 -0.03164 0.11298
 C348 C 0.40186 -0.03715 0.11709
 C349 C 0.43218 -0.00119 0.12952
 C350 C 0.39883 -0.00668 0.13401
 C351 C 0.38884 -0.01370 0.19736
 C352 C 0.37463 -0.00719 0.22140
 C353 C 0.45201 -0.03329 0.08238
 C354 C 0.46611 -0.02951 0.05762
 H355 H 0.45950 -0.06244 0.15116
 H356 H 0.45349 -0.00646 0.18264
 H357 H 0.39801 -0.07225 0.16063
 H358 H 0.38701 -0.04620 0.09776
 H359 H 0.44223 0.01957 0.12026
 H360 H 0.38113 0.00971 0.12922
 C361 C 0.37320 0.42913 0.02221
 C362 C 0.34728 0.43830 0.04494
 C363 C 0.32702 0.43935 0.01454
 C364 C 0.35255 0.42998 -0.00815
 C365 C 0.38032 0.46184 0.01657
 C366 C 0.36003 0.46283 -0.01381
 C367 C 0.35491 0.47133 0.03932
 C368 C 0.33408 0.47207 0.00885
 C369 C 0.29825 0.42526 0.01159
 C370 C 0.27568 0.41190 0.00728
 C371 C 0.41035 0.47321 0.01587
 C372 C 0.43535 0.48158 0.01337
 H373 H 0.38967 0.41166 0.02767
 H374 H 0.34161 0.42807 0.06905
 H375 H 0.35124 0.41285 -0.02772
 H376 H 0.36571 0.47302 -0.03795
 H377 H 0.35638 0.48848 0.05883
 H378 H 0.31760 0.48952 0.00335
 C379 C -0.12679 0.92912 0.52227
 C380 C -0.15272 0.93830 0.54499
 C381 C -0.17297 0.93933 0.51458
 C382 C -0.14745 0.92996 0.49190
 C383 C -0.11968 0.96184 0.51662
 C384 C -0.13997 0.96281 0.48623
 C385 C -0.14509 0.97132 0.53936
 C386 C -0.16592 0.97205 0.50888
 C387 C -0.20174 0.92524 0.51163
 C388 C -0.22432 0.91189 0.50732
 C389 C -0.08966 0.97321 0.51591
 C390 C -0.06466 0.98158 0.51341
 H391 H -0.11032 0.91166 0.52773
 H392 H -0.15840 0.92806 0.56910
 H393 H -0.14874 0.91283 0.47233
 H394 H -0.13429 0.97300 0.46209
 H395 H -0.14364 0.98848 0.55887
 H396 H -0.18240 0.98949 0.50337
 C397 C -0.14509 0.02859 0.96061
 C398 C -0.16593 0.02784 0.99108
 C399 C -0.17298 0.06057 0.98540
 C400 C -0.15272 0.06162 0.95500
 C401 C -0.11969 0.03806 0.98336
 C402 C -0.12680 0.07078 0.97774
 C403 C -0.13997 0.03707 1.01374
 C404 C -0.14746 0.06992 1.00809
 C405 C -0.20175 0.07466 0.98836
 C406 C -0.22432 0.08801 0.99266
 C407 C -0.08966 0.02670 0.98406
 C408 C -0.06466 0.01833 0.98656
 H409 H -0.14363 0.01144 0.94109
 H410 H -0.18241 0.01039 0.99657
 H411 H -0.15840 0.07186 0.93090
 H412 H -0.11033 0.08825 0.97228
 H413 H -0.13430 0.02687 1.03788
 H414 H -0.14876 0.08704 1.02768
 C415 C 0.35489 0.52861 0.46066
 C416 C 0.33405 0.52788 0.49113
 C417 C 0.32701 0.56061 0.48542
 C418 C 0.34727 0.56164 0.45502
 C419 C 0.38030 0.53809 0.48340
 C420 C 0.37320 0.57081 0.47775
 C421 C 0.36001 0.53712 0.51378
 C422 C 0.35254 0.56998 0.50811
 C423 C 0.29825 0.57471 0.48837
 C424 C 0.27568 0.58807 0.49267
 C425 C 0.41032 0.52671 0.48411
 C426 C 0.43532 0.51834 0.48661
 H427 H 0.35634 0.51145 0.44115
 H428 H 0.31757 0.51045 0.49664
 H429 H 0.34160 0.57187 0.43091
 H430 H 0.38967 0.58827 0.47228
 H431 H 0.36568 0.52693 0.53793
 H432 H 0.35124 0.58711 0.52768
 C433 C 0.14000 0.53710 0.48624
 C434 C 0.14746 0.56996 0.49188
 C435 C 0.17299 0.56062 0.51458
 C436 C 0.16595 0.52788 0.50891
 C437 C 0.11971 0.53809 0.51661
 C438 C 0.14511 0.52864 0.53938
 C439 C 0.12680 0.57081 0.52223
 C440 C 0.15272 0.56167 0.54497
 C441 C 0.20175 0.57472 0.51162
 C442 C 0.22432 0.58808 0.50731
 C443 C 0.08969 0.52671 0.51591
 C444 C 0.06468 0.51833 0.51341
 H445 H 0.13433 0.52689 0.46210
 H446 H 0.14876 0.58708 0.47229
 H447 H 0.18244 0.51045 0.50342
 H448 H 0.14366 0.51149 0.55890
 H449 H 0.11032 0.58828 0.52768
 H450 H 0.15839 0.57192 0.56908
 C451 C 0.62680 0.07079 0.02224
 C452 C 0.65272 0.06161 0.04496
 C453 C 0.67297 0.06057 0.01455
 C454 C 0.64744 0.06995 -0.00813
 C455 C 0.61968 0.03808 0.01659
 C456 C 0.63996 0.03709 -0.01379
 C457 C 0.64509 0.02859 0.03933
 C458 C 0.66591 0.02785 0.00885
 C459 C 0.70174 0.07466 0.01160
 C460 C 0.72432 0.08801 0.00729
 C461 C 0.58965 0.02671 0.01589
 C462 C 0.56464 0.01835 0.01340
 H463 H 0.61033 0.08826 0.02770
 H464 H 0.65840 0.07184 0.06907
 H465 H 0.64875 0.08708 -0.02770
 H466 H 0.63428 0.02691 -0.03794
 H467 H 0.64363 0.01143 0.05884
 H468 H 0.68239 0.01041 0.00335
 C469 C 0.64509 0.97133 0.46066
 C470 C 0.66592 0.97207 0.49113
 C471 C 0.67298 0.93935 0.48543
 C472 C 0.65272 0.93831 0.45503
 C473 C 0.61969 0.96185 0.48340
 C474 C 0.62680 0.92913 0.47775
 C475 C 0.63997 0.96283 0.51378
 C476 C 0.64745 0.92997 0.50811
 C477 C 0.70175 0.92526 0.48838
 C478 C 0.72432 0.91190 0.49269
 C479 C 0.58966 0.97321 0.48410
 C480 C 0.56465 0.98158 0.48659
 H481 H 0.64363 0.98849 0.44115
 H482 H 0.68240 0.98951 0.49664
 H483 H 0.65840 0.92808 0.43092
 H484 H 0.61033 0.91166 0.47228
 H485 H 0.63429 0.97301 0.53793
 H486 H 0.64876 0.91284 0.52769
 C487 C 0.14509 0.47134 0.96061
 C488 C 0.16592 0.47207 0.99109
 C489 C 0.17298 0.43935 0.98539
 C490 C 0.15273 0.43832 0.95498
 C491 C 0.11968 0.46184 0.98335
 C492 C 0.12680 0.42913 0.97769
 C493 C 0.13996 0.46282 1.01373
 C494 C 0.14745 0.42997 1.00806
 C495 C 0.20175 0.42526 0.98834
 C496 C 0.22432 0.41191 0.99265
 C497 C 0.08966 0.47321 0.98405
 C498 C 0.06465 0.48158 0.98655
 H499 H 0.14363 0.48850 0.94111
 H500 H 0.18239 0.48951 0.99661
 H501 H 0.15841 0.42810 0.93086
 H502 H 0.11033 0.41166 0.97222
 H503 H 0.13428 0.47300 1.03788
 H504 H 0.14875 0.41283 1.02763
 C505 C 0.00416 0.37306 0.42788
 C506 C 0.01865 0.34487 0.44205
 C507 C -0.00816 0.32687 0.43042
 C508 C -0.02263 0.35476 0.41606
 C509 C -0.01135 0.37816 0.46125
 C510 C -0.03821 0.36021 0.44963
 C511 C 0.00314 0.35030 0.47566
 C512 C -0.02372 0.33183 0.46379
 C513 C -0.00568 0.29887 0.41200
 C514 C -0.00323 0.27649 0.39583
 C515 C -0.01178 0.40770 0.47651
 C516 C -0.01047 0.43282 0.48655
 H517 H 0.01565 0.39025 0.41316
 H518 H 0.04210 0.33842 0.43876
 H519 H -0.03319 0.35644 0.39136
 H520 H -0.06163 0.36676 0.45292
 H521 H 0.01370 0.34868 0.50035
 H522 H -0.03518 0.31458 0.47843
 C523 C 0.50416 -0.12693 -0.07209
 C524 C 0.51864 -0.15511 -0.05790
 C525 C 0.49184 -0.17312 -0.06954
 C526 C 0.47737 -0.14523 -0.08392
 C527 C 0.48862 -0.12183 -0.03873
 C528 C 0.46177 -0.13977 -0.05037
 C529 C 0.50311 -0.14968 -0.02430
 C530 C 0.47625 -0.16815 -0.03619
 C531 C 0.49433 -0.20112 -0.08796
 C532 C 0.49678 -0.22350 -0.10413
 C533 C 0.48818 -0.09228 -0.02348
 C534 C 0.48948 -0.06716 -0.01345
 H535 H 0.51566 -0.10974 -0.08680
 H536 H 0.54209 -0.16157 -0.06116
 H537 H 0.46684 -0.14356 -0.10863
 H538 H 0.43835 -0.13323 -0.04710
 H539 H 0.51365 -0.15129 0.00040
 H540 H 0.46478 -0.18540 -0.02156
 C541 C 0.03822 -0.13981 1.05031
 C542 C 0.02266 -0.14526 1.08390
 C543 C 0.00814 -0.17312 1.06954
 C544 C 0.02367 -0.16817 1.03616
 C545 C 0.01136 -0.12183 1.03873
 C546 C -0.00318 -0.14966 1.02433
 C547 C -0.00412 -0.12692 1.07212
 C548 C -0.01866 -0.15508 1.05796
 C549 C 0.00564 -0.20112 1.08796
 C550 C 0.00318 -0.22350 1.10413
 C551 C 0.01181 -0.09228 1.02348
 C552 C 0.01051 -0.06716 1.01343
 H553 H 0.06164 -0.13330 1.04698
 H554 H 0.03324 -0.14360 1.10858
 H555 H 0.03509 -0.18543 1.02150
 H556 H -0.01377 -0.15126 0.99965
 H557 H -0.01557 -0.10972 1.08686
 H558 H -0.04211 -0.16150 1.06128
 C559 C 0.49680 0.35033 0.52434
 C560 C 0.52365 0.33182 0.53615
 C561 C 0.50814 0.32687 0.56955
 C562 C 0.48133 0.34491 0.55798
 C563 C 0.51135 0.37816 0.53874
 C564 C 0.49588 0.37307 0.57213
 C565 C 0.53821 0.36018 0.55030
 C566 C 0.52267 0.35473 0.58389
 C567 C 0.50565 0.29887 0.58796
 C568 C 0.50319 0.27648 0.60413
 C569 C 0.51178 0.40771 0.52348
 C570 C 0.51049 0.43283 0.51345
 H571 H 0.48620 0.34873 0.49967
 H572 H 0.53507 0.31456 0.52148
 H573 H 0.45788 0.33848 0.56131
 H574 H 0.48444 0.39027 0.58689
 H575 H 0.56163 0.36669 0.54696
 H576 H 0.53326 0.35639 0.60857
 C577 C 0.50292 1.14964 0.52421
 C578 C 0.47608 1.16802 0.53631
 C579 C 0.49184 1.17302 0.56955
 C580 C 0.51863 1.15511 0.55770
 C581 C 0.48862 1.12173 0.53873
 C582 C 0.50433 1.12688 0.57197
 C583 C 0.46177 1.13958 0.55057
 C584 C 0.47755 1.14508 0.58401
 C585 C 0.49433 1.20102 0.58797
 C586 C 0.49678 1.22340 0.60413
 C587 C 0.48818 1.09219 0.52347
 C588 C 0.48948 1.06707 0.51343
 H589 H 0.51332 1.15130 0.49943
 H590 H 0.46446 1.18524 0.52177
 H591 H 0.54208 1.16165 0.56080
 H592 H 0.51597 1.10972 0.58659
 H593 H 0.43835 1.13296 0.54746
 H594 H 0.46717 1.14336 0.60880
 C595 C 0.00317 0.64957 1.02435
 C596 C -0.02369 0.66808 1.03616
 C597 C -0.00817 0.67303 1.06956
 C598 C 0.01864 0.65499 1.05799
 C599 C -0.01137 0.62174 1.03874
 C600 C 0.00410 0.62683 1.07214
 C601 C -0.03823 0.63972 1.05030
 C602 C -0.02270 0.64516 1.08390
 C603 C -0.00568 0.70103 1.08797
 C604 C -0.00323 0.72342 1.10414
 C605 C -0.01181 0.59219 1.02348
 C606 C -0.01050 0.56708 1.01344
 H607 H 0.01377 0.65118 0.99968
 H608 H -0.03511 0.68534 1.02149
 H609 H 0.04208 0.66142 1.06132
 H610 H 0.01554 0.60963 1.08689
 H611 H -0.06166 0.63319 1.04697
 H612 H -0.03329 0.64350 1.10858
 C613 C 0.49589 0.62684 -0.07213
 C614 C 0.48135 0.65500 -0.05797
 C615 C 0.50815 0.67304 -0.06955
 C616 C 0.52268 0.64517 -0.08391
 C617 C 0.51138 0.62175 -0.03875
 C618 C 0.53823 0.63973 -0.05033
 C619 C 0.49684 0.64958 -0.02434
 C620 C 0.52369 0.66808 -0.03617
 C621 C 0.50565 0.70104 -0.08797
 C622 C 0.50319 0.72343 -0.10413
 C623 C 0.51182 0.59219 -0.02350
 C624 C 0.51052 0.56707 -0.01347
 H625 H 0.48444 0.60964 -0.08688
 H626 H 0.45791 0.66143 -0.06128
 H627 H 0.53325 0.64352 -0.10860
 H628 H 0.56166 0.63321 -0.04701
 H629 H 0.48626 0.65118 0.00034
 H630 H 0.53512 0.68534 -0.02151
 C631 C -0.00317 1.14959 0.47564
 C632 C 0.02368 1.16809 0.46379
 C633 C 0.00813 1.17304 0.43041
 C634 C -0.01867 1.15501 0.44202
 C635 C 0.01135 1.12175 0.46124
 C636 C -0.00415 1.12684 0.42786
 C637 C 0.03821 1.13972 0.44964
 C638 C 0.02264 1.14516 0.41606
 C639 C 0.00563 1.20103 0.41199
 C640 C 0.00318 1.22342 0.39582
 C641 C 0.01179 1.09221 0.47650
 C642 C 0.01050 1.06709 0.48654
 H643 H -0.01375 1.15120 0.50033
 H644 H 0.03512 1.18535 0.47844
 H645 H -0.04212 1.16144 0.43871
 H646 H -0.01561 1.10964 0.41313
 H647 H 0.06163 1.13320 0.45295
 H648 H 0.03321 1.14349 0.39137
 C649 C 0.78696 0.65180 0.86703
 C650 C 0.80155 0.65800 0.90109
 C651 C 0.77107 0.65541 0.91754
 C652 C 0.75652 0.64892 0.88406
 C653 C 0.78161 0.68504 0.86297
 C654 C 0.75120 0.68230 0.87963
 C655 C 0.79619 0.69163 0.89642
 C656 C 0.76569 0.68862 0.91343
 C657 C 0.76368 0.63883 0.94736
 C658 C 0.75718 0.62462 0.97141
 C659 C 0.78325 0.70198 0.83238
 C660 C 0.77946 0.71609 0.80761
 H661 H 0.79588 0.63692 0.84765
 H662 H 0.82217 0.64773 0.91043
 H663 H 0.74003 0.63131 0.87931
 H664 H 0.73046 0.69246 0.87046
 H665 H 0.81265 0.70928 0.90107
 H666 H 0.75674 0.70353 0.93275
 C667 C 0.28708 0.15186 0.36708
 C668 C 0.30158 0.15814 0.40117
 C669 C 0.27107 0.15544 0.41755
 C670 C 0.25662 0.14887 0.38403
 C671 C 0.28161 0.18508 0.36298
 C672 C 0.25117 0.18222 0.37956
 C673 C 0.29609 0.19174 0.39647
 C674 C 0.26557 0.18862 0.41339
 C675 C 0.26369 0.13885 0.44736
 C676 C 0.25717 0.12463 0.47140
 C677 C 0.28325 0.20202 0.33238
 C678 C 0.27946 0.21612 0.30762
 H679 H 0.29610 0.13701 0.34774
 H680 H 0.32221 0.14796 0.41058
 H681 H 0.24021 0.13119 0.37925
 H682 H 0.23041 0.19230 0.37033
 H683 H 0.31247 0.20946 0.40114
 H684 H 0.25651 0.20351 0.43268
 C685 C 0.71292 0.34810 0.36706
 C686 C 0.69840 0.34185 0.40115
 C687 C 0.72891 0.34452 0.41753
 C688 C 0.74338 0.35105 0.38402
 C689 C 0.71835 0.31487 0.36298
 C690 C 0.74878 0.31769 0.37957
 C691 C 0.70385 0.30823 0.39646
 C692 C 0.73437 0.31132 0.41340
 C693 C 0.73630 0.36111 0.44734
 C694 C 0.74282 0.37533 0.47138
 C695 C 0.71670 0.29793 0.33238
 C696 C 0.72049 0.28382 0.30762
 H697 H 0.70392 0.36295 0.34770
 H698 H 0.67778 0.35206 0.41054
 H699 H 0.75981 0.36871 0.37924
 H700 H 0.76954 0.30758 0.37035
 H701 H 0.68745 0.29054 0.40113
 H702 H 0.74340 0.29643 0.43269
 C703 C 0.21287 0.84809 0.86707
 C704 C 0.19837 0.84183 0.90116
 C705 C 0.22888 0.84451 0.91753
 C706 C 0.24334 0.85106 0.88402
 C707 C 0.21832 0.81487 0.86297
 C708 C 0.24876 0.81770 0.87955
 C709 C 0.20384 0.80822 0.89646
 C710 C 0.23436 0.81132 0.91338
 C711 C 0.23629 0.86109 0.94735
 C712 C 0.24281 0.87530 0.97139
 C713 C 0.21667 0.79793 0.83238
 C714 C 0.22046 0.78382 0.80761
 H715 H 0.20387 0.86295 0.84772
 H716 H 0.17775 0.85203 0.91057
 H717 H 0.25976 0.86873 0.87924
 H718 H 0.26951 0.80760 0.87032
 H719 H 0.18744 0.79051 0.90114
 H720 H 0.24341 0.79642 0.93267
 C721 C 0.25120 0.81769 0.12037
 C722 C 0.25662 0.85104 0.11590
 C723 C 0.27109 0.84450 0.08239
 C724 C 0.26561 0.81130 0.08654
 C725 C 0.28164 0.81486 0.13696
 C726 C 0.29613 0.80821 0.10348
 C727 C 0.28708 0.84808 0.13287
 C728 C 0.30159 0.84182 0.09878
 C729 C 0.26370 0.86108 0.05258
 C730 C 0.25718 0.87530 0.02854
 C731 C 0.28328 0.79792 0.16756
 C732 C 0.27949 0.78382 0.19233
 H733 H 0.23045 0.80759 0.12959
 H734 H 0.24019 0.86871 0.12067
 H735 H 0.25658 0.79641 0.06725
 H736 H 0.31253 0.79050 0.09881
 H737 H 0.29608 0.86294 0.15222
 H738 H 0.32222 0.85202 0.08938
 C739 C 0.75114 0.31781 0.62044
 C740 C 0.75663 0.35115 0.61594
 C741 C 0.77105 0.34455 0.58242
 C742 C 0.76550 0.31138 0.58660
 C743 C 0.78158 0.31492 0.63699
 C744 C 0.79603 0.30822 0.60349
 C745 C 0.78711 0.34812 0.63287
 C746 C 0.80156 0.34181 0.59876
 C747 C 0.76367 0.36113 0.55259
 C748 C 0.75717 0.37534 0.52854
 C749 C 0.78322 0.29798 0.66759
 C750 C 0.77944 0.28387 0.69235
 H751 H 0.73037 0.30777 0.62969
 H752 H 0.74025 0.36886 0.62072
 H753 H 0.75641 0.29649 0.56733
 H754 H 0.81238 0.29047 0.59881
 H755 H 0.79616 0.36297 0.65220
 H756 H 0.82220 0.35196 0.58933
 C757 C 0.20390 0.19172 0.60349
 C758 C 0.23443 0.18860 0.58658
 C759 C 0.22892 0.15541 0.58242
 C760 C 0.19841 0.15812 0.59878
 C761 C 0.21837 0.18505 0.63698
 C762 C 0.21289 0.15183 0.63288
 C763 C 0.24881 0.18219 0.62042
 C764 C 0.24336 0.14884 0.61594
 C765 C 0.23631 0.13883 0.55260
 C766 C 0.24282 0.12462 0.52856
 C767 C 0.21673 0.20199 0.66758
 C768 C 0.22051 0.21610 0.69234
 H769 H 0.18753 0.20944 0.59881
 H770 H 0.24350 0.20349 0.56730
 H771 H 0.17778 0.14794 0.58936
 H772 H 0.20387 0.13698 0.65222
 H773 H 0.26957 0.19227 0.62966
 H774 H 0.25977 0.13115 0.62072
 C775 C 0.71287 0.65186 0.13288
 C776 C 0.69840 0.65814 0.09878
 C777 C 0.72891 0.65543 0.08243
 C778 C 0.74334 0.64886 0.11595
 C779 C 0.71835 0.68507 0.13699
 C780 C 0.74880 0.68221 0.12043
 C781 C 0.70389 0.69174 0.10349
 C782 C 0.73442 0.68862 0.08659
 C783 C 0.73630 0.63884 0.05261
 C784 C 0.74282 0.62463 0.02857
 C785 C 0.71671 0.70201 0.16758
 C786 C 0.72049 0.71612 0.19235
 H787 H 0.70384 0.63701 0.15222
 H788 H 0.67776 0.64796 0.08936
 H789 H 0.75975 0.63117 0.12074
 H790 H 0.76955 0.69228 0.12967
 H791 H 0.68752 0.70947 0.09881
 H792 H 0.74349 0.70350 0.06730
 C793 C 0.21282 0.61000 0.26372
 C794 C 0.17997 0.60253 0.25806
 C795 C 0.18933 0.57700 0.23537
 C796 C 0.22206 0.58405 0.24107
 C797 C 0.21185 0.63029 0.23335
 C798 C 0.22132 0.60488 0.21060
 C799 C 0.17913 0.62318 0.22770
 C800 C 0.18830 0.59726 0.20497
 C801 C 0.17524 0.54823 0.23833
 C802 C 0.16188 0.52566 0.24264
 C803 C 0.22323 0.66031 0.23405
 C804 C 0.23160 0.68531 0.23656
 H805 H 0.22301 0.61568 0.28787
 H806 H 0.16284 0.60123 0.27763
 H807 H 0.23949 0.56756 0.24658
 H808 H 0.23848 0.60634 0.19109
 H809 H 0.16167 0.63966 0.22223
 H810 H 0.17807 0.59159 0.18086
 C811 C 0.71285 0.11002 0.76377
 C812 C 0.68000 0.10253 0.75809
 C813 C 0.68938 0.07701 0.73542
 C814 C 0.72210 0.08407 0.74113
 C815 C 0.71187 0.13030 0.73338
 C816 C 0.72137 0.10489 0.71065
 C817 C 0.67916 0.12318 0.72773
 C818 C 0.68835 0.09726 0.70501
 C819 C 0.67529 0.04823 0.73837
 C820 C 0.66194 0.02566 0.74267
 C821 C 0.72324 0.16033 0.73408
 C822 C 0.73160 0.18534 0.73658
 H823 H 0.72303 0.11570 0.78791
 H824 H 0.66286 0.10123 0.77766
 H825 H 0.73954 0.06759 0.74664
 H826 H 0.73853 0.10635 0.69114
 H827 H 0.66169 0.13965 0.72225
 H828 H 0.67812 0.09158 0.68090
 C829 C 0.82082 0.12318 0.27221
 C830 C 0.81165 0.09725 0.29494
 C831 C 0.81062 0.07699 0.26453
 C832 C 0.81998 0.10252 0.24185
 C833 C 0.78810 0.13028 0.26656
 C834 C 0.78713 0.11000 0.23618
 C835 C 0.77863 0.10487 0.28931
 C836 C 0.77789 0.08404 0.25883
 C837 C 0.82472 0.04823 0.26158
 C838 C 0.83808 0.02566 0.25729
 C839 C 0.77673 0.16030 0.26587
 C840 C 0.76835 0.18531 0.26337
 H841 H 0.83828 0.13965 0.27767
 H842 H 0.82189 0.09157 0.31905
 H843 H 0.83711 0.10123 0.22227
 H844 H 0.77694 0.11567 0.21204
 H845 H 0.76147 0.10632 0.30882
 H846 H 0.76046 0.06755 0.25333
 C847 C 0.32080 0.62317 0.77228
 C848 C 0.31163 0.59724 0.79499
 C849 C 0.31060 0.57699 0.76458
 C850 C 0.31997 0.60252 0.74191
 C851 C 0.28809 0.63028 0.76662
 C852 C 0.28712 0.61000 0.73624
 C853 C 0.27861 0.60486 0.78936
 C854 C 0.27787 0.58404 0.75888
 C855 C 0.32469 0.54822 0.76163
 C856 C 0.33805 0.52565 0.75731
 C857 C 0.27672 0.66030 0.76592
 C858 C 0.26835 0.68531 0.76342
 H859 H 0.33827 0.63964 0.77775
 H860 H 0.32185 0.59155 0.81911
 H861 H 0.33711 0.60122 0.72234
 H862 H 0.27694 0.61568 0.71209
 H863 H 0.26144 0.60632 0.80886
 H864 H 0.26044 0.56756 0.75336
 C865 C 0.27862 0.39508 0.71062
 C866 C 0.27788 0.41590 0.74110
 C867 C 0.31061 0.42295 0.73540
 C868 C 0.31163 0.40270 0.70499
 C869 C 0.28810 0.36966 0.73335
 C870 C 0.32081 0.37677 0.72770
 C871 C 0.28712 0.38994 0.76374
 C872 C 0.31998 0.39742 0.75807
 C873 C 0.32470 0.45172 0.73836
 C874 C 0.33805 0.47429 0.74267
 C875 C 0.27673 0.33964 0.73405
 C876 C 0.26836 0.31463 0.73655
 H877 H 0.26145 0.39362 0.69111
 H878 H 0.26044 0.43238 0.74661
 H879 H 0.32186 0.40839 0.68088
 H880 H 0.33828 0.36030 0.72223
 H881 H 0.27694 0.38426 0.78788
 H882 H 0.33711 0.39872 0.77764
 C883 C 0.82084 0.87676 0.22778
 C884 C 0.81170 0.90268 0.20502
 C885 C 0.81064 0.92295 0.23541
 C886 C 0.81997 0.89743 0.25813
 C887 C 0.78812 0.86966 0.23338
 C888 C 0.78711 0.88996 0.26375
 C889 C 0.77867 0.89506 0.21061
 C890 C 0.77790 0.91591 0.24107
 C891 C 0.82473 0.95172 0.23836
 C892 C 0.83809 0.97429 0.24267
 C893 C 0.77674 0.83964 0.23408
 C894 C 0.76836 0.81464 0.23658
 H895 H 0.83831 0.86028 0.22235
 H896 H 0.82196 0.90834 0.18093
 H897 H 0.83708 0.89874 0.27773
 H898 H 0.77689 0.88430 0.28788
 H899 H 0.76154 0.89360 0.19107
 H900 H 0.76046 0.93240 0.24654
 C901 C 0.71286 0.88994 0.73622
 C902 C 0.68000 0.89743 0.74187
 C903 C 0.68937 0.92295 0.76456
 C904 C 0.72210 0.91589 0.75888
 C905 C 0.71186 0.86965 0.76660
 C906 C 0.72134 0.89506 0.78935
 C907 C 0.67915 0.87677 0.77223
 C908 C 0.68832 0.90269 0.79496
 C909 C 0.67529 0.95172 0.76161
 C910 C 0.66193 0.97430 0.75730
 C911 C 0.72323 0.83962 0.76590
 C912 C 0.73159 0.81462 0.76340
 H913 H 0.72305 0.88426 0.71208
 H914 H 0.66288 0.89873 0.72229
 H915 H 0.73954 0.93236 0.75338
 H916 H 0.73850 0.89359 0.80887
 H917 H 0.66167 0.86030 0.77769
 H918 H 0.67808 0.90837 0.81907
 C919 C 0.21284 0.38996 0.23620
 C920 C 0.17999 0.39744 0.24186
 C921 C 0.18935 0.42297 0.26455
 C922 C 0.22208 0.41592 0.25885
 C923 C 0.21186 0.36968 0.26658
 C924 C 0.22133 0.39508 0.28933
 C925 C 0.17914 0.37679 0.27222
 C926 C 0.18831 0.40271 0.29495
 C927 C 0.17526 0.45174 0.26159
 C928 C 0.16190 0.47430 0.25728
 C929 C 0.22322 0.33965 0.26588
 C930 C 0.23159 0.31464 0.26338
 H931 H 0.22303 0.38429 0.21206
 H932 H 0.16286 0.39874 0.22229
 H933 H 0.23952 0.43240 0.25335
 H934 H 0.23849 0.39362 0.30884
 H935 H 0.16167 0.36032 0.27768
 H936 H 0.17808 0.40839 0.31906
 C937 C 0.11022 0.21173 0.80025
 C938 C 0.10477 0.22727 0.83385
 C939 C 0.07691 0.24180 0.81951
 C940 C 0.08186 0.22629 0.78611
 C941 C 0.12820 0.23859 0.78870
 C942 C 0.10037 0.25315 0.77431
 C943 C 0.12311 0.25406 0.82210
 C944 C 0.09495 0.26861 0.80794
 C945 C 0.04891 0.24429 0.83792
 C946 C 0.02653 0.24675 0.85409
 C947 C 0.15775 0.23816 0.77345
 C948 C 0.18287 0.23946 0.76341
 H949 H 0.11673 0.18831 0.79691
 H950 H 0.10643 0.21667 0.85853
 H951 H 0.06460 0.21487 0.77144
 H952 H 0.09877 0.26375 0.74963
 H953 H 0.14031 0.26550 0.83685
 H954 H 0.08853 0.29206 0.81128
 C955 C 0.61021 0.71175 0.30028
 C956 C 0.60477 0.72728 0.33387
 C957 C 0.57690 0.74181 0.31954
 C958 C 0.58185 0.72630 0.28614
 C959 C 0.62819 0.73861 0.28872
 C960 C 0.60035 0.75316 0.27433
 C961 C 0.62310 0.75408 0.32211
 C962 C 0.59494 0.76862 0.30797
 C963 C 0.54890 0.74430 0.33796
 C964 C 0.52652 0.74675 0.35413
 C965 C 0.65774 0.73818 0.27346
 C966 C 0.68285 0.73948 0.26342
 H967 H 0.61673 0.68833 0.29694
 H968 H 0.60643 0.71669 0.35855
 H969 H 0.56459 0.71488 0.27147
 H970 H 0.59875 0.76376 0.24966
 H971 H 0.64031 0.76552 0.33686
 H972 H 0.58851 0.79207 0.31130
 C973 C 0.61019 0.28819 0.19969
 C974 C 0.60475 0.27265 0.16609
 C975 C 0.57688 0.25811 0.18043
 C976 C 0.58183 0.27362 0.21383
 C977 C 0.62817 0.26133 0.21125
 C978 C 0.60035 0.24677 0.22564
 C979 C 0.62309 0.24586 0.17785
 C980 C 0.59493 0.23131 0.19200
 C981 C 0.54888 0.25562 0.16201
 C982 C 0.52650 0.25316 0.14585
 C983 C 0.65772 0.26177 0.22650
 C984 C 0.68284 0.26047 0.23654
 H985 H 0.61670 0.31161 0.20303
 H986 H 0.60640 0.28325 0.14141
 H987 H 0.56457 0.28504 0.22850
 H988 H 0.59875 0.23617 0.25031
 H989 H 0.64029 0.23443 0.16309
 H990 H 0.58851 0.20786 0.18866
 C991 C 0.12309 0.74585 0.67783
 C992 C 0.09493 0.73130 0.69199
 C993 C 0.07689 0.75811 0.68042
 C994 C 0.10476 0.77263 0.66607
 C995 C 0.12818 0.76132 0.71122
 C996 C 0.11020 0.78818 0.69966
 C997 C 0.10035 0.74677 0.72562
 C998 C 0.08185 0.77363 0.71381
 C999 C 0.04889 0.75561 0.66200
 C1000 C 0.02650 0.75316 0.64584
 C1001 C 0.15773 0.76176 0.72648
 C1002 C 0.18285 0.76046 0.73652
 H1003 H 0.14029 0.73440 0.66308
 H1004 H 0.08850 0.70785 0.68867
 H1005 H 0.10641 0.78322 0.64139
 H1006 H 0.11672 0.81160 0.70299
 H1007 H 0.09876 0.73618 0.75030
 H1008 H 0.06459 0.78505 0.72848
 C1009 C 0.89014 0.71173 0.70053
 C1010 C 0.89541 0.72652 0.66648
 C1011 C 0.92304 0.74180 0.68042
 C1012 C 0.91827 0.72704 0.71427
 C1013 C 0.87175 0.73859 0.71124
 C1014 C 0.89935 0.75390 0.72522
 C1015 C 0.87667 0.75332 0.67739
 C1016 C 0.90459 0.76861 0.69113
 C1017 C 0.95104 0.74430 0.66200
 C1018 C 0.97343 0.74675 0.64584
 C1019 C 0.84221 0.73816 0.72649
 C1020 C 0.81709 0.73945 0.73653
 H1021 H 0.88396 0.68830 0.70458
 H1022 H 0.89395 0.71531 0.64213
 H1023 H 0.93567 0.71624 0.72931
 H1024 H 0.90076 0.76512 0.74956
 H1025 H 0.85933 0.76414 0.66226
 H1026 H 0.91068 0.79206 0.68709
 C1027 C 0.37684 0.25407 0.17784
 C1028 C 0.40500 0.26862 0.19198
 C1029 C 0.42304 0.24181 0.18043
 C1030 C 0.39518 0.22727 0.16609
 C1031 C 0.37175 0.23861 0.21124
 C1032 C 0.38974 0.21175 0.19969
 C1033 C 0.39958 0.25317 0.22563
 C1034 C 0.41809 0.22631 0.21383
 C1035 C 0.45104 0.24430 0.16201
 C1036 C 0.47342 0.24675 0.14584
 C1037 C 0.34221 0.23817 0.22650
 C1038 C 0.31709 0.23947 0.23654
 H1039 H 0.35964 0.26550 0.16308
 H1040 H 0.41142 0.29207 0.18864
 H1041 H 0.39352 0.21667 0.14142
 H1042 H 0.38322 0.18832 0.20304
 H1043 H 0.40118 0.26377 0.25030
 H1044 H 0.43536 0.21490 0.22851
 C1045 C 0.39961 0.74677 0.27434
 C1046 C 0.41812 0.77362 0.28614
 C1047 C 0.42307 0.75811 0.31954
 C1048 C 0.40502 0.73130 0.30797
 C1049 C 0.37178 0.76133 0.28872
 C1050 C 0.37686 0.74586 0.32212
 C1051 C 0.38976 0.78818 0.30028
 C1052 C 0.39520 0.77265 0.33388
 C1053 C 0.45107 0.75562 0.33796
 C1054 C 0.47345 0.75316 0.35413
 C1055 C 0.34223 0.76176 0.27346
 C1056 C 0.31711 0.76047 0.26342
 H1057 H 0.40121 0.73617 0.24966
 H1058 H 0.43538 0.78504 0.27147
 H1059 H 0.41145 0.70786 0.31131
 H1060 H 0.35966 0.73442 0.33687
 H1061 H 0.38325 0.81161 0.29694
 H1062 H 0.39354 0.78324 0.35856
 C1063 C 0.89960 0.24681 0.77430
 C1064 C 0.91811 0.27366 0.78612
 C1065 C 0.92307 0.25812 0.81951
 C1066 C 0.90502 0.23132 0.80792
 C1067 C 0.87177 0.26135 0.78870
 C1068 C 0.87686 0.24586 0.82209
 C1069 C 0.88976 0.28820 0.80028
 C1070 C 0.89520 0.27265 0.83386
 C1071 C 0.95107 0.25562 0.83792
 C1072 C 0.97345 0.25316 0.85409
 C1073 C 0.84222 0.26180 0.77345
 C1074 C 0.81710 0.26051 0.76342
 H1075 H 0.90120 0.23622 0.74961
 H1076 H 0.93537 0.28508 0.77146
 H1077 H 0.91145 0.20787 0.81124
 H1078 H 0.85966 0.23441 0.83683
 H1079 H 0.88324 0.31163 0.79695
 H1080 H 0.89355 0.28323 0.85855
 C1081 C 0.59812 0.96287 0.61709
 C1082 C 0.60111 0.99334 0.63403
 C1083 C 0.59455 0.97889 0.66755
 C1084 C 0.59185 0.94838 0.65119
 C1085 C 0.56491 0.96834 0.61300
 C1086 C 0.55825 0.95386 0.64649
 C1087 C 0.56776 0.99878 0.62956
 C1088 C 0.56136 0.98439 0.66340
 C1089 C 0.61114 0.98629 0.69737
 C1090 C 0.62536 0.99280 0.72141
 C1091 C 0.54796 0.96669 0.58240
 C1092 C 0.53385 0.97047 0.55764
 H1093 H 0.61298 0.95385 0.59775
 H1094 H 0.61878 1.00975 0.62925
 H1095 H 0.60204 0.92775 0.66060
 H1096 H 0.54053 0.93748 0.65117
 H1097 H 0.55767 1.01953 0.62033
 H1098 H 0.54647 0.99345 0.68269
 C1099 C 0.09810 0.46285 1.11707
 C1100 C 0.10107 0.49332 1.13402
 C1101 C 0.09451 0.47886 1.16754
 C1102 C 0.09184 0.44836 1.15117
 C1103 C 0.06488 0.46830 1.11297
 C1104 C 0.05823 0.45382 1.14646
 C1105 C 0.06771 0.49874 1.12954
 C1106 C 0.06132 0.48434 1.16338
 C1107 C 0.11110 0.48627 1.19735
 C1108 C 0.12531 0.49279 1.22139
 C1109 C 0.04795 0.46665 1.08237
 C1110 C 0.03385 0.47045 1.05760
 H1111 H 0.11297 0.45385 1.09773
 H1112 H 0.11874 0.50975 1.12924
 H1113 H 0.10204 0.42773 1.16057
 H1114 H 0.04052 0.43742 1.15113
 H1115 H 0.05762 0.51949 1.12031
 H1116 H 0.04643 0.49339 1.18266
 C1117 C -0.06776 0.00116 1.12954
 C1118 C -0.06135 0.01554 1.16338
 C1119 C -0.09454 0.02105 1.16754
 C1120 C -0.10111 0.00661 1.13402
 C1121 C -0.06490 0.03160 1.11297
 C1122 C -0.09812 0.03708 1.11708
 C1123 C -0.05823 0.04607 1.14646
 C1124 C -0.09183 0.05156 1.15118
 C1125 C -0.11112 0.01366 1.19736
 C1126 C -0.12534 0.00715 1.22140
 C1127 C -0.04797 0.03324 1.08238
 C1128 C -0.03386 0.02945 1.05761
 H1129 H -0.05769 -0.01960 1.12030
 H1130 H -0.04646 0.00648 1.18266
 H1131 H -0.11879 -0.00980 1.12924
 H1132 H -0.11297 0.04610 1.09774
 H1133 H -0.04051 0.06244 1.15114
 H1134 H -0.10201 0.07219 1.16059
 C1135 C 0.43224 0.50116 0.62959
 C1136 C 0.43863 0.51557 0.66342
 C1137 C 0.40544 0.52106 0.66757
 C1138 C 0.39889 0.50660 0.63405
 C1139 C 0.43509 0.53160 0.61301
 C1140 C 0.40187 0.53706 0.61710
 C1141 C 0.44174 0.54609 0.64649
 C1142 C 0.40814 0.55156 0.65119
 C1143 C 0.38885 0.51367 0.69738
 C1144 C 0.37463 0.50715 0.72142
 C1145 C 0.45203 0.53324 0.58241
 C1146 C 0.46613 0.52945 0.55765
 H1147 H 0.44233 0.48041 0.62037
 H1148 H 0.45352 0.50652 0.68271
 H1149 H 0.38121 0.49018 0.62927
 H1150 H 0.38702 0.54607 0.59774
 H1151 H 0.45945 0.56247 0.65117
 H1152 H 0.39794 0.57220 0.66059
 C1153 C 0.40188 0.46285 -0.11712
 C1154 C 0.39888 0.49332 -0.13406
 C1155 C 0.40544 0.47888 -0.16758
 C1156 C 0.40815 0.44837 -0.15122
 C1157 C 0.43509 0.46833 -0.11302
 C1158 C 0.44175 0.45386 -0.14652
 C1159 C 0.43223 0.49877 -0.12959
 C1160 C 0.43863 0.48439 -0.16343
 C1161 C 0.38885 0.48627 -0.19739
 C1162 C 0.37463 0.49279 -0.22143
 C1163 C 0.45204 0.46668 -0.08243
 C1164 C 0.46615 0.47047 -0.05767
 H1165 H 0.38703 0.45383 -0.09777
 H1166 H 0.38120 0.50973 -0.12927
 H1167 H 0.39797 0.42774 -0.16063
 H1168 H 0.45947 0.43748 -0.15120
 H1169 H 0.44231 0.51953 -0.12036
 H1170 H 0.45351 0.49345 -0.18272
 C1171 C -0.09813 0.96288 0.38288
 C1172 C -0.10111 0.99335 0.36593
 C1173 C -0.09454 0.97890 0.33242
 C1174 C -0.09185 0.94839 0.34879
 C1175 C -0.06491 0.96835 0.38699
 C1176 C -0.05824 0.95386 0.35350
 C1177 C -0.06775 0.99878 0.37042
 C1178 C -0.06135 0.98439 0.33658
 C1179 C -0.11112 0.98629 0.30260
 C1180 C -0.12534 0.99280 0.27856
 C1181 C -0.04797 0.96670 0.41759
 C1182 C -0.03387 0.97048 0.44236
 H1183 H -0.11298 0.95387 0.40223
 H1184 H -0.11878 1.00976 0.37071
 H1185 H -0.10204 0.92776 0.33938
 H1186 H -0.04053 0.93748 0.34883
 H1187 H -0.05767 1.01954 0.37965
 H1188 H -0.04646 0.99344 0.31730
 C1189 C 0.06777 0.50116 0.37042
 C1190 C 0.06135 0.51555 0.33659
 C1191 C 0.09453 0.52106 0.33242
 C1192 C 0.10112 0.50661 0.36593
 C1193 C 0.06491 0.53159 0.38699
 C1194 C 0.09812 0.53707 0.38288
 C1195 C 0.05823 0.54607 0.35351
 C1196 C 0.09183 0.55156 0.34879
 C1197 C 0.11111 0.51367 0.30260
 C1198 C 0.12532 0.50716 0.27855
 C1199 C 0.04798 0.53323 0.41759
 C1200 C 0.03388 0.52944 0.44236
 H1201 H 0.05769 0.48039 0.37966
 H1202 H 0.04646 0.50649 0.31731
 H1203 H 0.11880 0.49020 0.37070
 H1204 H 0.11298 0.54609 0.40222
 H1205 H 0.04051 0.56245 0.34884
 H1206 H 0.10201 0.57220 0.33937
 C1207 C 0.59812 0.03706 -0.11711
 C1208 C 0.60111 0.00660 -0.13407
 C1209 C 0.59455 0.02105 -0.16758
 C1210 C 0.59185 0.05156 -0.15121
 C1211 C 0.56490 0.03159 -0.11302
 C1212 C 0.55825 0.04608 -0.14651
 C1213 C 0.56776 0.00116 -0.12960
 C1214 C 0.56136 0.01555 -0.16343
 C1215 C 0.61114 0.01367 -0.19739
 C1216 C 0.62536 0.00715 -0.22143
 C1217 C 0.54796 0.03323 -0.08243
 C1218 C 0.53386 0.02945 -0.05766
 H1219 H 0.61298 0.04607 -0.09777
 H1220 H 0.61879 -0.00982 -0.12929
 H1221 H 0.60204 0.07219 -0.16061
 H1222 H 0.54053 0.06246 -0.15118
 H1223 H 0.55767 -0.01960 -0.12037
 H1224 H 0.54647 0.00650 -0.18272
 C1225 C 0.64511 0.52860 -0.03937
 C1226 C 0.65273 0.56163 -0.04498
 C1227 C 0.67299 0.56058 -0.01458
 C1228 C 0.66594 0.52785 -0.00889
 C1229 C 0.61970 0.53807 -0.01662
 C1230 C 0.63999 0.53708 0.01376
 C1231 C 0.62681 0.57079 -0.02225
 C1232 C 0.64746 0.56994 0.00811
 C1233 C 0.70176 0.57468 -0.01162
 C1234 C 0.72432 0.58804 -0.00731
 C1235 C 0.58968 0.52670 -0.01593
 C1236 C 0.56467 0.51833 -0.01343
 H1237 H 0.64366 0.51145 -0.05889
 H1238 H 0.65841 0.57187 -0.06908
 H1239 H 0.68243 0.51041 -0.00340
 H1240 H 0.63431 0.52688 0.03790
 H1241 H 0.61033 0.58826 -0.02771
 H1242 H 0.64876 0.58706 0.02769
 C1243 C 0.13996 1.03712 0.51375
 C1244 C 0.16592 1.02788 0.49110
 C1245 C 0.17297 1.06061 0.48540
 C1246 C 0.14744 1.06998 0.50807
 C1247 C 0.11968 1.03810 0.48337
 C1248 C 0.12679 1.07081 0.47771
 C1249 C 0.14509 1.02861 0.46063
 C1250 C 0.15272 1.06163 0.45499
 C1251 C 0.20174 1.07469 0.48835
 C1252 C 0.22431 1.08805 0.49266
 C1253 C 0.08966 1.02672 0.48407
 C1254 C 0.06465 1.01835 0.48657
 H1255 H 0.13429 1.02694 0.53790
 H1256 H 0.18240 1.01044 0.49662
 H1257 H 0.14874 1.08711 0.52764
 H1258 H 0.11032 1.08828 0.47224
 H1259 H 0.14363 1.01145 0.44112
 H1260 H 0.15839 1.07186 0.43088
 C1261 C 0.13999 -0.03715 0.98622
 C1262 C 0.16594 -0.02793 1.00889
 C1263 C 0.17298 -0.06067 1.01456
 C1264 C 0.14746 -0.07001 0.99186
 C1265 C 0.11970 -0.03816 1.01660
 C1266 C 0.12680 -0.07088 1.02221
 C1267 C 0.14510 -0.02870 1.03936
 C1268 C 0.15272 -0.06172 1.04496
 C1269 C 0.20175 -0.07476 1.01160
 C1270 C 0.22432 -0.08812 1.00729
 C1271 C 0.08967 -0.02679 1.01590
 C1272 C 0.06466 -0.01842 1.01340
 H1273 H 0.13432 -0.02695 0.96209
 H1274 H 0.18242 -0.01049 1.00341
 H1275 H 0.14877 -0.08713 0.97227
 H1276 H 0.11033 -0.08835 1.02766
 H1277 H 0.14364 -0.01155 1.05889
 H1278 H 0.15839 -0.07197 1.06906
 C1279 C 0.63996 0.46284 0.48619
 C1280 C 0.66592 0.47209 0.50883
 C1281 C 0.67298 0.43936 0.51452
 C1282 C 0.64745 0.42999 0.49185
 C1283 C 0.61968 0.46185 0.51658
 C1284 C 0.62681 0.42914 0.52222
 C1285 C 0.64509 0.47134 0.53931
 C1286 C 0.65273 0.43832 0.54493
 C1287 C 0.70175 0.42528 0.51157
 C1288 C 0.72432 0.41192 0.50726
 C1289 C 0.58965 0.47321 0.51589
 C1290 C 0.56464 0.48158 0.51340
 H1291 H 0.63427 0.47303 0.46205
 H1292 H 0.68239 0.48953 0.50332
 H1293 H 0.64875 0.41286 0.47227
 H1294 H 0.61034 0.41167 0.52769
 H1295 H 0.64363 0.48850 0.55883
 H1296 H 0.65842 0.42809 0.56904
 C1297 C -0.12678 0.42911 0.47769
 C1298 C -0.14743 0.42994 0.50805
 C1299 C -0.17296 0.43933 0.48539
 C1300 C -0.15271 0.43832 0.45498
 C1301 C -0.11966 0.46182 0.48337
 C1302 C -0.14507 0.47133 0.46064
 C1303 C -0.13994 0.46278 0.51375
 C1304 C -0.16590 0.47205 0.49112
 C1305 C -0.20174 0.42525 0.48833
 C1306 C -0.22431 0.41190 0.49264
 C1307 C -0.08963 0.47318 0.48408
 C1308 C -0.06463 0.48155 0.48658
 H1309 H -0.11032 0.41164 0.47220
 H1310 H -0.14874 0.41279 0.52761
 H1311 H -0.15839 0.42811 0.43086
 H1312 H -0.14361 0.48850 0.44114
 H1313 H -0.13426 0.47295 0.53791
 H1314 H -0.18237 0.48949 0.49664
 C1315 C 0.35490 -0.02871 -0.03942
 C1316 C 0.34728 -0.06173 -0.04501
 C1317 C 0.32702 -0.06067 -0.01462
 C1318 C 0.33406 -0.02794 -0.00896
 C1319 C 0.38030 -0.03816 -0.01665
 C1320 C 0.36001 -0.03715 0.01372
 C1321 C 0.37320 -0.07088 -0.02226
 C1322 C 0.35253 -0.07001 0.00809
 C1323 C 0.29825 -0.07477 -0.01167
 C1324 C 0.27568 -0.08812 -0.00736
 C1325 C 0.41033 -0.02679 -0.01595
 C1326 C 0.43533 -0.01841 -0.01345
 H1327 H 0.35637 -0.01156 -0.05895
 H1328 H 0.34162 -0.07199 -0.06911
 H1329 H 0.31758 -0.01050 -0.00348
 H1330 H 0.36567 -0.02694 0.03785
 H1331 H 0.38968 -0.08835 -0.02770
 H1332 H 0.35123 -0.08713 0.02768
 C1333 C 0.35487 1.02855 0.53929
 C1334 C 0.34724 1.06157 0.54497
 C1335 C 0.32701 1.06058 0.51455
 C1336 C 0.33406 1.02786 0.50879
 C1337 C 0.38030 1.03807 0.51659
 C1338 C 0.36004 1.03714 0.48619
 C1339 C 0.37319 1.07077 0.52229
 C1340 C 0.35256 1.06998 0.49191
 C1341 C 0.29824 1.07468 0.51159
 C1342 C 0.27568 1.08804 0.50729
 C1343 C 0.41032 1.02669 0.51590
 C1344 C 0.43533 1.01832 0.51340
 H1345 H 0.35631 1.01136 0.55877
 H1346 H 0.34155 1.07176 0.56910
 H1347 H 0.31759 1.01044 0.50323
 H1348 H 0.36573 1.02699 0.46203
 H1349 H 0.38965 1.08823 0.52781
 H1350 H 0.35127 1.08714 0.47237
 C1351 C -0.13998 0.53711 0.98623
 C1352 C -0.16593 0.52787 1.00888
 C1353 C -0.17298 0.56060 1.01458
 C1354 C -0.14745 0.56997 0.99190
 C1355 C -0.11969 0.53809 1.01660
 C1356 C -0.12679 0.57080 1.02225
 C1357 C -0.14509 0.52861 1.03935
 C1358 C -0.15272 0.56163 1.04498
 C1359 C -0.20174 0.57469 1.01163
 C1360 C -0.22432 0.58805 1.00732
 C1361 C -0.08966 0.52671 1.01590
 C1362 C -0.06466 0.51834 1.01339
 H1363 H -0.13430 0.52693 0.96208
 H1364 H -0.18241 0.51044 1.00338
 H1365 H -0.14875 0.58710 0.97232
 H1366 H -0.11032 0.58827 1.02772
 H1367 H -0.14363 0.51145 1.05886
 H1368 H -0.15839 0.57186 1.06909
 C1369 C -0.00327 0.64953 0.52438
 C1370 C -0.01867 0.65493 0.55805
 C1371 C 0.00813 0.67303 0.56954
 C1372 C 0.02358 0.66809 0.53610
 C1373 C 0.01136 0.62173 0.53874
 C1374 C 0.03821 0.63976 0.55021
 C1375 C -0.00404 0.62680 0.57217
 C1376 C 0.02274 0.64519 0.58385
 C1377 C 0.00563 0.70103 0.58795
 C1378 C 0.00317 0.72341 0.60411
 C1379 C 0.01181 0.59218 0.52348
 C1380 C 0.01052 0.56706 0.51345
 H1381 H -0.01393 0.65111 0.49973
 H1382 H -0.04212 0.66132 0.56145
 H1383 H 0.03493 0.68537 0.52139
 H1384 H 0.06164 0.63329 0.54681
 H1385 H -0.01542 0.60959 0.58696
 H1386 H 0.03339 0.64355 0.60850
 C1387 C 0.49678 0.14959 0.02432
 C1388 C 0.48132 0.15499 0.05796
 C1389 C 0.50812 0.17304 0.06952
 C1390 C 0.52363 0.16810 0.03613
 C1391 C 0.51134 0.12176 0.03870
 C1392 C 0.53820 0.13975 0.05026
 C1393 C 0.49588 0.12684 0.07210
 C1394 C 0.52266 0.14518 0.08386
 C1395 C 0.50562 0.20104 0.08795
 C1396 C 0.50317 0.22342 0.10412
 C1397 C 0.51178 0.09221 0.02344
 C1398 C 0.51049 0.06709 0.01341
 H1399 H 0.48617 0.15119 -0.00035
 H1400 H 0.45787 0.16141 0.06130
 H1401 H 0.53504 0.18537 0.02146
 H1402 H 0.56162 0.13324 0.04691
 H1403 H 0.48444 0.10963 0.08686
 H1404 H 0.53326 0.14352 0.10854
 C1405 C -0.03823 0.13973 0.94966
 C1406 C -0.02367 0.16808 0.96380
 C1407 C -0.00816 0.17303 0.93041
 C1408 C -0.02270 0.14517 0.91607
 C1409 C -0.01137 0.12174 0.96122
 C1410 C 0.00409 0.12683 0.92782
 C1411 C 0.00319 0.14957 0.97561
 C1412 C 0.01865 0.15499 0.94197
 C1413 C -0.00567 0.20103 0.91198
 C1414 C -0.00322 0.22342 0.89582
 C1415 C -0.01181 0.09219 0.97648
 C1416 C -0.01051 0.06708 0.98652
 H1417 H -0.06165 0.13321 0.95301
 H1418 H -0.03508 0.18535 0.97847
 H1419 H -0.03329 0.14351 0.89139
 H1420 H 0.01553 0.10962 0.91307
 H1421 H 0.01379 0.15117 1.00028
 H1422 H 0.04209 0.16141 0.93863
 C1423 C 0.46176 0.63973 0.44970
 C1424 C 0.47633 0.66808 0.46384
 C1425 C 0.49184 0.67303 0.43044
 C1426 C 0.47729 0.64517 0.41610
 C1427 C 0.48862 0.62174 0.46126
 C1428 C 0.50408 0.62682 0.42786
 C1429 C 0.50318 0.64957 0.47564
 C1430 C 0.51864 0.65498 0.44200
 C1431 C 0.49433 0.70103 0.41202
 C1432 C 0.49678 0.72341 0.39586
 C1433 C 0.48818 0.59219 0.47652
 C1434 C 0.48948 0.56708 0.48656
 H1435 H 0.43834 0.63322 0.45305
 H1436 H 0.46492 0.68535 0.47851
 H1437 H 0.46670 0.64351 0.39143
 H1438 H 0.51552 0.60962 0.41311
 H1439 H 0.51379 0.65117 0.50032
 H1440 H 0.54209 0.66140 0.43867
 C1441 C 0.49589 0.87307 0.42787
 C1442 C 0.52268 0.85473 0.41611
 C1443 C 0.50814 0.82687 0.43045
 C1444 C 0.48134 0.84492 0.44202
 C1445 C 0.51137 0.87816 0.46127
 C1446 C 0.49681 0.85033 0.47566
 C1447 C 0.53822 0.86017 0.44971
 C1448 C 0.52366 0.83182 0.46385
 C1449 C 0.50565 0.79887 0.41203
 C1450 C 0.50319 0.77649 0.39586
 C1451 C 0.51180 0.90771 0.47652
 C1452 C 0.51050 0.93283 0.48656
 H1453 H 0.48445 0.89028 0.41312
 H1454 H 0.53327 0.85639 0.39143
 H1455 H 0.45789 0.83849 0.43869
 H1456 H 0.48621 0.84873 0.50033
 H1457 H 0.56164 0.86668 0.45304
 H1458 H 0.53508 0.81455 0.47852
 C1459 C -0.00411 0.37308 0.92781
 C1460 C 0.02268 0.35474 0.91606
 C1461 C 0.00814 0.32688 0.93040
 C1462 C -0.01867 0.34492 0.94195
 C1463 C 0.01135 0.37817 0.96121
 C1464 C -0.00321 0.35034 0.97560
 C1465 C 0.03821 0.36019 0.94966
 C1466 C 0.02365 0.33183 0.96380
 C1467 C 0.00565 0.29888 0.91198
 C1468 C 0.00319 0.27649 0.89582
 C1469 C 0.01179 0.40772 0.97646
 C1470 C 0.01049 0.43284 0.98651
 H1471 H -0.01555 0.39028 0.91305
 H1472 H 0.03328 0.35640 0.89138
 H1473 H -0.04211 0.33850 0.93862
 H1474 H -0.01381 0.34874 1.00027
 H1475 H 0.06163 0.36670 0.95300
 H1476 H 0.03506 0.31457 0.97847
 C1477 C 0.50408 0.37308 0.07211
 C1478 C 0.47728 0.35474 0.08385
 C1479 C 0.49182 0.32687 0.06952
 C1480 C 0.51863 0.34492 0.05797
 C1481 C 0.48862 0.37817 0.03870
 C1482 C 0.50318 0.35033 0.02432
 C1483 C 0.46176 0.36018 0.05025
 C1484 C 0.47632 0.33182 0.03612
 C1485 C 0.49431 0.29888 0.08794
 C1486 C 0.49676 0.27650 0.10411
 C1487 C 0.48819 0.40771 0.02345
 C1488 C 0.48950 0.43283 0.01341
 H1489 H 0.51551 0.39028 0.08687
 H1490 H 0.46668 0.35640 0.10853
 H1491 H 0.54208 0.33849 0.06131
 H1492 H 0.51379 0.34873 -0.00035
 H1493 H 0.43834 0.36670 0.04689
 H1494 H 0.46491 0.31456 0.02144
 C1495 C 0.00321 0.85035 0.52435
 C1496 C 0.01863 0.84494 0.55801
 C1497 C -0.00818 0.82687 0.56952
 C1498 C -0.02365 0.83182 0.53610
 C1499 C -0.01138 0.87817 0.53872
 C1500 C -0.03824 0.86017 0.55022
 C1501 C 0.00404 0.87309 0.57214
 C1502 C -0.02275 0.85473 0.58385
 C1503 C -0.00569 0.79887 0.58794
 C1504 C -0.00324 0.77649 0.60411
 C1505 C -0.01181 0.90772 0.52347
 C1506 C -0.01051 0.93284 0.51343
 H1507 H 0.01385 0.84877 0.49969
 H1508 H 0.04208 0.83853 0.56139
 H1509 H -0.03503 0.81456 0.52140
 H1510 H -0.06166 0.86667 0.54684
 H1511 H 0.01545 0.89029 0.58693
 H1512 H -0.03339 0.85638 0.60850
 C1513 C 0.21287 0.34811 0.13286
 C1514 C 0.24334 0.35110 0.11593
 C1515 C 0.22891 0.34453 0.08241
 C1516 C 0.19840 0.34182 0.09876
 C1517 C 0.21835 0.31489 0.13697
 C1518 C 0.20389 0.30822 0.10348
 C1519 C 0.24879 0.31775 0.12041
 C1520 C 0.23442 0.31135 0.08657
 C1521 C 0.23630 0.36112 0.05259
 C1522 C 0.24282 0.37533 0.02855
 C1523 C 0.21670 0.29795 0.16757
 C1524 C 0.22049 0.28384 0.19233
 H1525 H 0.20384 0.36296 0.15220
 H1526 H 0.25975 0.36879 0.12072
 H1527 H 0.17776 0.35200 0.08934
 H1528 H 0.18751 0.29050 0.09879
 H1529 H 0.26955 0.30767 0.12966
 H1530 H 0.24348 0.29646 0.06729
 C1531 C 0.71289 0.84809 0.63289
 C1532 C 0.74336 0.85106 0.61594
 C1533 C 0.72890 0.84451 0.58242
 C1534 C 0.69839 0.84182 0.59879
 C1535 C 0.71834 0.81487 0.63699
 C1536 C 0.70386 0.80822 0.60350
 C1537 C 0.74878 0.81770 0.62041
 C1538 C 0.73438 0.81132 0.58658
 C1539 C 0.73630 0.86109 0.55261
 C1540 C 0.74282 0.87531 0.52857
 C1541 C 0.71669 0.79793 0.66758
 C1542 C 0.72048 0.78382 0.69235
 H1543 H 0.70388 0.86295 0.65223
 H1544 H 0.75978 0.86873 0.62072
 H1545 H 0.67777 0.85202 0.58939
 H1546 H 0.68746 0.79051 0.59882
 H1547 H 0.76953 0.80761 0.62964
 H1548 H 0.74343 0.79642 0.56729
 C1549 C 0.25120 0.68223 0.62042
 C1550 C 0.26560 0.68864 0.58659
 C1551 C 0.27109 0.65545 0.58243
 C1552 C 0.25663 0.64888 0.61594
 C1553 C 0.28163 0.68507 0.63700
 C1554 C 0.28710 0.65186 0.63289
 C1555 C 0.29612 0.69174 0.60352
 C1556 C 0.30160 0.65814 0.59880
 C1557 C 0.26370 0.63887 0.55261
 C1558 C 0.25718 0.62466 0.52857
 C1559 C 0.28328 0.70200 0.66760
 C1560 C 0.27948 0.71611 0.69237
 H1561 H 0.23044 0.69232 0.62965
 H1562 H 0.25655 0.70353 0.56731
 H1563 H 0.24022 0.63121 0.62071
 H1564 H 0.29611 0.63699 0.65224
 H1565 H 0.31251 0.70945 0.59885
 H1566 H 0.32223 0.64795 0.58940
 C1567 C 0.78709 0.15184 0.13288
 C1568 C 0.75662 0.14884 0.11593
 C1569 C 0.77107 0.15540 0.08241
 C1570 C 0.80157 0.15812 0.09878
 C1571 C 0.78160 0.18506 0.13697
 C1572 C 0.79607 0.19172 0.10348
 C1573 C 0.75116 0.18219 0.12040
 C1574 C 0.76555 0.18859 0.08656
 C1575 C 0.76368 0.13881 0.05260
 C1576 C 0.75717 0.12459 0.02856
 C1577 C 0.78324 0.20200 0.16756
 C1578 C 0.77945 0.21611 0.19232
 H1579 H 0.79611 0.13699 0.15223
 H1580 H 0.74022 0.13115 0.12072
 H1581 H 0.82221 0.14794 0.08938
 H1582 H 0.81245 0.20945 0.09880
 H1583 H 0.73040 0.19226 0.12963
 H1584 H 0.75649 0.20347 0.06727
 C1585 C 0.71290 0.15185 0.86709
 C1586 C 0.74337 0.14885 0.88403
 C1587 C 0.72892 0.15541 0.91755
 C1588 C 0.69841 0.15812 0.90118
 C1589 C 0.71838 0.18507 0.86300
 C1590 C 0.70390 0.19172 0.89649
 C1591 C 0.74881 0.18221 0.87957
 C1592 C 0.73442 0.18860 0.91341
 C1593 C 0.73631 0.13882 0.94736
 C1594 C 0.74282 0.12460 0.97140
 C1595 C 0.71673 0.20201 0.83241
 C1596 C 0.72051 0.21613 0.80764
 H1597 H 0.70388 0.13700 0.84774
 H1598 H 0.75978 0.13118 0.87925
 H1599 H 0.67778 0.14793 0.91059
 H1600 H 0.68752 0.20944 0.90117
 H1601 H 0.76957 0.19229 0.87034
 H1602 H 0.74348 0.20348 0.93270
 C1603 C 0.21287 0.65187 0.36709
 C1604 C 0.24335 0.64887 0.38403
 C1605 C 0.22891 0.65545 0.41755
 C1606 C 0.19840 0.65816 0.40119
 C1607 C 0.21836 0.68508 0.36298
 C1608 C 0.20389 0.69176 0.39647
 C1609 C 0.24880 0.68222 0.37954
 C1610 C 0.23442 0.68863 0.41338
 C1611 C 0.23630 0.63887 0.44737
 C1612 C 0.24282 0.62466 0.47141
 C1613 C 0.21671 0.70202 0.33238
 C1614 C 0.22050 0.71612 0.30761
 H1615 H 0.20385 0.63701 0.34776
 H1616 H 0.25975 0.63119 0.37925
 H1617 H 0.17776 0.64798 0.41061
 H1618 H 0.18752 0.70949 0.40115
 H1619 H 0.26956 0.69230 0.37030
 H1620 H 0.24349 0.70353 0.43266
 C1621 C 0.78713 0.84809 0.36711
 C1622 C 0.75665 0.85113 0.38402
 C1623 C 0.77107 0.84453 0.41755
 C1624 C 0.80158 0.84178 0.40121
 C1625 C 0.78161 0.81489 0.36299
 C1626 C 0.79605 0.80819 0.39649
 C1627 C 0.75116 0.81778 0.37953
 C1628 C 0.76551 0.81135 0.41338
 C1629 C 0.76368 0.86111 0.44737
 C1630 C 0.75717 0.87532 0.47141
 C1631 C 0.78325 0.79795 0.33239
 C1632 C 0.77946 0.78384 0.30763
 H1633 H 0.79619 0.86294 0.34778
 H1634 H 0.74028 0.86883 0.37923
 H1635 H 0.82222 0.85193 0.41065
 H1636 H 0.81239 0.79044 0.40117
 H1637 H 0.73039 0.80774 0.37027
 H1638 H 0.75642 0.79647 0.43264
 C1639 C 0.28707 0.34811 0.86706
 C1640 C 0.25661 0.35108 0.88402
 C1641 C 0.27108 0.34453 0.91753
 C1642 C 0.30158 0.34185 0.90115
 C1643 C 0.28162 0.31489 0.86297
 C1644 C 0.29611 0.30824 0.89645
 C1645 C 0.25118 0.31773 0.87955
 C1646 C 0.26559 0.31134 0.91338
 C1647 C 0.26369 0.36111 0.94735
 C1648 C 0.25717 0.37533 0.97139
 C1649 C 0.28326 0.29795 0.83237
 C1650 C 0.27947 0.28385 0.80761
 H1651 H 0.29607 0.36297 0.84771
 H1652 H 0.24018 0.36875 0.87925
 H1653 H 0.32221 0.35204 0.91055
 H1654 H 0.31251 0.29053 0.90112
 H1655 H 0.23043 0.30763 0.87033
 H1656 H 0.25655 0.29644 0.93267
 C1657 C 0.78710 0.38998 0.73622
 C1658 C 0.77790 0.41593 0.75890
 C1659 C 0.81064 0.42297 0.76455
 C1660 C 0.81996 0.39744 0.74184
 C1661 C 0.78811 0.36968 0.76659
 C1662 C 0.82083 0.37678 0.77219
 C1663 C 0.77867 0.39509 0.78936
 C1664 C 0.81170 0.40270 0.79494
 C1665 C 0.82473 0.45173 0.76159
 C1666 C 0.83810 0.47430 0.75729
 C1667 C 0.77673 0.33966 0.76590
 C1668 C 0.76835 0.31466 0.76341
 H1669 H 0.77688 0.38432 0.71209
 H1670 H 0.76046 0.43242 0.75343
 H1671 H 0.83707 0.39874 0.72224
 H1672 H 0.83830 0.36030 0.77762
 H1673 H 0.76154 0.39363 0.80890
 H1674 H 0.82197 0.40836 0.81904
 C1675 C 0.32083 0.87678 0.27225
 C1676 C 0.32000 0.89742 0.24188
 C1677 C 0.31062 0.92295 0.26455
 C1678 C 0.31164 0.90270 0.29496
 C1679 C 0.28812 0.86966 0.26658
 C1680 C 0.27862 0.89507 0.28931
 C1681 C 0.28715 0.88994 0.23620
 C1682 C 0.27789 0.91590 0.25883
 C1683 C 0.32470 0.95173 0.26160
 C1684 C 0.33806 0.97430 0.25730
 C1685 C 0.27675 0.83963 0.26588
 C1686 C 0.26838 0.81463 0.26338
 H1687 H 0.33829 0.86031 0.27773
 H1688 H 0.33714 0.89873 0.22232
 H1689 H 0.32185 0.90839 0.31908
 H1690 H 0.26145 0.89361 0.30881
 H1691 H 0.27698 0.88426 0.21205
 H1692 H 0.26046 0.93237 0.25331
 C1693 C 0.22136 0.89507 0.71064
 C1694 C 0.18834 0.90270 0.70499
 C1695 C 0.18937 0.92295 0.73540
 C1696 C 0.22209 0.91589 0.74112
 C1697 C 0.21186 0.86966 0.73337
 C1698 C 0.21283 0.88993 0.76375
 C1699 C 0.17915 0.87678 0.72770
 C1700 C 0.17998 0.89742 0.75807
 C1701 C 0.17528 0.95172 0.73836
 C1702 C 0.16193 0.97429 0.74267
 C1703 C 0.22322 0.83963 0.73407
 C1704 C 0.23159 0.81462 0.73657
 H1705 H 0.23852 0.89361 0.69113
 H1706 H 0.17812 0.90839 0.68088
 H1707 H 0.23953 0.93237 0.74664
 H1708 H 0.22301 0.88425 0.78790
 H1709 H 0.16168 0.86031 0.72222
 H1710 H 0.16284 0.89872 0.77764
 C1711 C 0.72135 0.39508 0.21067
 C1712 C 0.68833 0.40272 0.20502
 C1713 C 0.68935 0.42296 0.23544
 C1714 C 0.72207 0.41590 0.24116
 C1715 C 0.71185 0.36966 0.23339
 C1716 C 0.71281 0.38993 0.26378
 C1717 C 0.67914 0.37678 0.22772
 C1718 C 0.67996 0.39742 0.25809
 C1719 C 0.67526 0.45173 0.23839
 C1720 C 0.66190 0.47430 0.24270
 C1721 C 0.72322 0.33964 0.23408
 C1722 C 0.73159 0.31463 0.23657
 H1723 H 0.73852 0.39363 0.19117
 H1724 H 0.67812 0.40841 0.18090
 H1725 H 0.73951 0.43237 0.24669
 H1726 H 0.72298 0.38424 0.28793
 H1727 H 0.66167 0.36032 0.22222
 H1728 H 0.66282 0.39871 0.27765
 C1729 C 0.72130 0.60489 0.28937
 C1730 C 0.68828 0.59727 0.29498
 C1731 C 0.68932 0.57700 0.26458
 C1732 C 0.72205 0.58405 0.25890
 C1733 C 0.71183 0.63030 0.26660
 C1734 C 0.71282 0.61000 0.23623
 C1735 C 0.67912 0.62319 0.27224
 C1736 C 0.67997 0.60253 0.24189
 C1737 C 0.67524 0.54823 0.26164
 C1738 C 0.66189 0.52566 0.25733
 C1739 C 0.72321 0.66032 0.26590
 C1740 C 0.73159 0.68532 0.26340
 H1741 H 0.73845 0.60636 0.30888
 H1742 H 0.67804 0.59160 0.31909
 H1743 H 0.73949 0.56757 0.25341
 H1744 H 0.72302 0.61567 0.21209
 H1745 H 0.66165 0.63966 0.27769
 H1746 H 0.66285 0.60122 0.22230
 C1747 C 0.22136 0.10487 0.78935
 C1748 C 0.18834 0.09725 0.79497
 C1749 C 0.18938 0.07699 0.76457
 C1750 C 0.22211 0.08404 0.75888
 C1751 C 0.21188 0.13028 0.76660
 C1752 C 0.21287 0.11000 0.73622
 C1753 C 0.17917 0.12317 0.77224
 C1754 C 0.18002 0.10252 0.74188
 C1755 C 0.17529 0.04822 0.76162
 C1756 C 0.16193 0.02565 0.75731
 C1757 C 0.22325 0.16031 0.76590
 C1758 C 0.23162 0.18531 0.76340
 H1759 H 0.23852 0.10634 0.80887
 H1760 H 0.17810 0.09157 0.81908
 H1761 H 0.23955 0.06756 0.75338
 H1762 H 0.22306 0.11567 0.71208
 H1763 H 0.16170 0.13964 0.77770
 H1764 H 0.16289 0.10121 0.72230
 C1765 C 0.28712 0.11001 0.26377
 C1766 C 0.27787 0.08405 0.24112
 C1767 C 0.31060 0.07700 0.23542
 C1768 C 0.31997 0.10253 0.25809
 C1769 C 0.28809 0.13029 0.23338
 C1770 C 0.32080 0.12318 0.22773
 C1771 C 0.27861 0.10488 0.21064
 C1772 C 0.31163 0.09726 0.20501
 C1773 C 0.32469 0.04823 0.23837
 C1774 C 0.33805 0.02566 0.24267
 C1775 C 0.27672 0.16032 0.23408
 C1776 C 0.26835 0.18532 0.23657
 H1777 H 0.27693 0.11569 0.28791
 H1778 H 0.26044 0.06757 0.24663
 H1779 H 0.33710 0.10124 0.27766
 H1780 H 0.33827 0.13965 0.22226
 H1781 H 0.26144 0.10634 0.19114
 H1782 H 0.32185 0.09157 0.18090
 C1783 C 0.78692 0.60989 0.76365
 C1784 C 0.77787 0.58400 0.74081
 C1785 C 0.81064 0.57699 0.73539
 C1786 C 0.81982 0.60245 0.75826
 C1787 C 0.78811 0.63027 0.73336
 C1788 C 0.82087 0.62320 0.72799
 C1789 C 0.77882 0.60493 0.71043
 C1790 C 0.81188 0.59735 0.70508
 C1791 C 0.82474 0.54823 0.73834
 C1792 C 0.83810 0.52566 0.74265
 C1793 C 0.77673 0.66030 0.73406
 C1794 C 0.76835 0.68530 0.73657
 H1795 H 0.77655 0.61548 0.78772
 H1796 H 0.76040 0.56749 0.74609
 H1797 H 0.83681 0.60110 0.77799
 H1798 H 0.83837 0.63971 0.72275
 H1799 H 0.76180 0.60644 0.69076
 H1800 H 0.82230 0.59176 0.68104
 C1801 C 0.89960 0.74678 0.22565
 C1802 C 0.90501 0.73132 0.19201
 C1803 C 0.92306 0.75812 0.18045
 C1804 C 0.91811 0.77364 0.21384
 C1805 C 0.87177 0.76134 0.21126
 C1806 C 0.88975 0.78819 0.19970
 C1807 C 0.87685 0.74587 0.17786
 C1808 C 0.89519 0.77266 0.16610
 C1809 C 0.95105 0.75562 0.16203
 C1810 C 0.97344 0.75317 0.14586
 C1811 C 0.84222 0.76178 0.22651
 C1812 C 0.81710 0.76048 0.23655
 H1813 H 0.90120 0.73619 0.25033
 H1814 H 0.91144 0.70787 0.18869
 H1815 H 0.93537 0.78506 0.22851
 H1816 H 0.88324 0.81162 0.20303
 H1817 H 0.85965 0.73443 0.16311
 H1818 H 0.89353 0.78325 0.14142
 C1819 C 0.37685 0.24589 0.67783
 C1820 C 0.39521 0.27268 0.66611
 C1821 C 0.42307 0.25811 0.68044
 C1822 C 0.40500 0.23131 0.69197
 C1823 C 0.37178 0.26133 0.71125
 C1824 C 0.39959 0.24674 0.72563
 C1825 C 0.38978 0.28819 0.69972
 C1826 C 0.41813 0.27360 0.71385
 C1827 C 0.45106 0.25561 0.66202
 C1828 C 0.47345 0.25315 0.64586
 C1829 C 0.34223 0.26178 0.72650
 C1830 C 0.31711 0.26048 0.73654
 H1831 H 0.35964 0.23448 0.66307
 H1832 H 0.39356 0.28329 0.64144
 H1833 H 0.41141 0.20786 0.68861
 H1834 H 0.40118 0.23612 0.75029
 H1835 H 0.38328 0.31161 0.70309
 H1836 H 0.43540 0.28499 0.72853
 C1837 C 0.38973 0.71175 0.80033
 C1838 C 0.41809 0.72630 0.78618
 C1839 C 0.42305 0.74182 0.81957
 C1840 C 0.39518 0.72729 0.83392
 C1841 C 0.37175 0.73861 0.78876
 C1842 C 0.37685 0.75408 0.82216
 C1843 C 0.39959 0.75315 0.77437
 C1844 C 0.40501 0.76862 0.80800
 C1845 C 0.45105 0.74431 0.83799
 C1846 C 0.47344 0.74676 0.85415
 C1847 C 0.34221 0.73817 0.77351
 C1848 C 0.31709 0.73947 0.76346
 H1849 H 0.38322 0.68833 0.79700
 H1850 H 0.43535 0.71487 0.77151
 H1851 H 0.39352 0.71670 0.85860
 H1852 H 0.35965 0.76553 0.83691
 H1853 H 0.40119 0.76375 0.74969
 H1854 H 0.41144 0.79207 0.81132
 C1855 C 0.89960 0.25312 0.27429
 C1856 C 0.90502 0.26862 0.30790
 C1857 C 0.92305 0.24181 0.31951
 C1858 C 0.91809 0.22626 0.28614
 C1859 C 0.87176 0.23860 0.28869
 C1860 C 0.88972 0.21174 0.30029
 C1861 C 0.87685 0.25410 0.32207
 C1862 C 0.89517 0.22731 0.33387
 C1863 C 0.95105 0.24430 0.33793
 C1864 C 0.97343 0.24675 0.35409
 C1865 C 0.84221 0.23816 0.27344
 C1866 C 0.81709 0.23946 0.26340
 H1867 H 0.90121 0.26369 0.24960
 H1868 H 0.91147 0.29206 0.31120
 H1869 H 0.93534 0.21481 0.27148
 H1870 H 0.88319 0.18832 0.29699
 H1871 H 0.85966 0.26557 0.33680
 H1872 H 0.89350 0.21675 0.35856
 C1873 C 0.12308 0.24583 0.32207
 C1874 C 0.10476 0.27261 0.33388
 C1875 C 0.07689 0.25812 0.31951
 C1876 C 0.09491 0.23132 0.30789
 C1877 C 0.12818 0.26135 0.28870
 C1878 C 0.10034 0.24683 0.27428
 C1879 C 0.11022 0.28820 0.30031
 C1880 C 0.08185 0.27368 0.28614
 C1881 C 0.04889 0.25562 0.33793
 C1882 C 0.02651 0.25316 0.35409
 C1883 C 0.15773 0.26179 0.27345
 C1884 C 0.18285 0.26049 0.26341
 H1885 H 0.14028 0.23435 0.33680
 H1886 H 0.10643 0.28316 0.35858
 H1887 H 0.08847 0.20787 0.31117
 H1888 H 0.09873 0.23627 0.24959
 H1889 H 0.11675 0.31162 0.29702
 H1890 H 0.06459 0.28514 0.27150
 C1891 C 0.62309 0.74582 0.82210
 C1892 C 0.60477 0.77261 0.83391
 C1893 C 0.57689 0.75812 0.81954
 C1894 C 0.59492 0.73131 0.80793
 C1895 C 0.62819 0.76133 0.78873
 C1896 C 0.60034 0.74681 0.77432
 C1897 C 0.61023 0.78818 0.80033
 C1898 C 0.58185 0.77367 0.78617
 C1899 C 0.54890 0.75562 0.83796
 C1900 C 0.52652 0.75317 0.85413
 C1901 C 0.65773 0.76176 0.77347
 C1902 C 0.68285 0.76046 0.76343
 H1903 H 0.64028 0.73434 0.83684
 H1904 H 0.60644 0.78317 0.85860
 H1905 H 0.58847 0.70786 0.81123
 H1906 H 0.59873 0.73625 0.74963
 H1907 H 0.61676 0.81160 0.79703
 H1908 H 0.56460 0.78512 0.77152
 C1909 C 0.60034 0.25313 0.72568
 C1910 C 0.59492 0.26862 0.69206
 C1911 C 0.57690 0.24181 0.68046
 C1912 C 0.58186 0.22627 0.71384
 C1913 C 0.62819 0.23861 0.71128
 C1914 C 0.61023 0.21175 0.69969
 C1915 C 0.62309 0.25410 0.67790
 C1916 C 0.60478 0.22731 0.66611
 C1917 C 0.54890 0.24429 0.66204
 C1918 C 0.52652 0.24674 0.64586
 C1919 C 0.65773 0.23818 0.72654
 C1920 C 0.68285 0.23948 0.73658
 H1921 H 0.59873 0.26371 0.75037
 H1922 H 0.58848 0.29206 0.68875
 H1923 H 0.56460 0.21482 0.72850
 H1924 H 0.61676 0.18833 0.70301
 H1925 H 0.64029 0.26557 0.66317
 H1926 H 0.60645 0.21673 0.64142
 C1927 C 0.11023 0.71175 0.19965
 C1928 C 0.08187 0.72627 0.21381
 C1929 C 0.07690 0.74181 0.18044
 C1930 C 0.10478 0.72731 0.16608
 C1931 C 0.12820 0.73861 0.21124
 C1932 C 0.12310 0.75411 0.17786
 C1933 C 0.10036 0.75313 0.22565
 C1934 C 0.09493 0.76862 0.19203
 C1935 C 0.04890 0.74430 0.16202
 C1936 C 0.02651 0.74675 0.14586
 C1937 C 0.15775 0.73817 0.22649
 C1938 C 0.18287 0.73947 0.23653
 H1939 H 0.11676 0.68833 0.20297
 H1940 H 0.06462 0.71483 0.22848
 H1941 H 0.10644 0.71674 0.14139
 H1942 H 0.14029 0.76557 0.16312
 H1943 H 0.09876 0.76371 0.25034
 H1944 H 0.08849 0.79207 0.18873
   
