data_POSCAR
  _audit_creation_date              2014-09-24
  _audit_creation_method            'ToBaCCo'
  _symmetry_space_group_name_H-M    'P1'
  _symmetry_Int_Tables_number       1
  _symmetry_cell_setting            triclinic
  loop_
  _symmetry_equiv_pos_as_xyz
 x,y,z
_cell_length_a 68.1320
_cell_length_b 68.0251
_cell_length_c 68.1263
_cell_angle_alpha 90.368100
_cell_angle_beta 90.107600
_cell_angle_gamma 89.166700
loop_
  _atom_site_label
  _atom_site_type_symbol
  _atom_site_fract_x
  _atom_site_fract_y
  _atom_site_fract_z
C1 C 0.09101 0.00986 0.22357
 H2 H 0.08335 0.01257 0.23720
 C3 C 0.08061 0.01033 0.20581
 H4 H 0.06496 0.01330 0.20602
 C5 C 0.12043 0.00172 0.20674
 H6 H 0.13581 -0.00232 0.20719
 C7 C 0.11072 0.00224 0.18876
 H8 H 0.11905 -0.00065 0.17551
 N9 N 0.11062 0.00573 0.22368
 C10 C 0.11021 -0.01363 0.28101
 H11 H 0.11937 -0.02601 0.27680
 C12 C 0.09987 -0.01437 0.29861
 H13 H 0.10112 -0.02736 0.30768
 C14 C 0.09812 0.01863 0.27501
 H15 H 0.09779 0.03157 0.26586
 C16 C 0.08788 0.01867 0.29280
 H17 H 0.07950 0.03159 0.29722
 Zn18 Zn 0.12570 0.00386 0.24706
 N19 N 0.10933 0.00275 0.26965
 C20 C 0.14288 0.03661 0.26607
 N21 N 0.14249 0.02594 0.24910
 C22 C 0.15298 0.03157 0.23317
 C23 C 0.16330 0.04915 0.23347
 C24 C 0.15298 0.05430 0.26701
 C25 C 0.13049 -0.03598 0.23994
 C26 C 0.13972 -0.05436 0.23959
 C27 C 0.16975 -0.03897 0.24995
 C28 C 0.15982 -0.02082 0.25008
 N29 N 0.14048 -0.01975 0.24538
 H30 H 0.13506 0.03165 0.27884
 H31 H 0.15289 0.02283 0.21993
 H32 H 0.17077 0.05379 0.22032
 H33 H 0.15278 0.06277 0.28052
 H34 H 0.11501 -0.03469 0.23650
 H35 H 0.13041 -0.06670 0.23648
 H36 H 0.18527 -0.03877 0.25318
 H37 H 0.16750 -0.00760 0.25418
 C38 C 0.08885 0.00203 0.30484
 C39 C 0.09049 0.00641 0.18807
 C40 C 0.15979 -0.05649 0.24487
 C41 C 0.16296 0.06102 0.25039
 C42 C 0.40065 0.01317 0.77374
 H43 H 0.40118 0.02503 0.76326
 C44 C 0.40986 0.01513 0.79201
 H45 H 0.41754 0.02854 0.79547
 C46 C 0.38888 -0.01820 0.78246
 H47 H 0.38028 -0.03095 0.77898
 C48 C 0.39784 -0.01686 0.80081
 H49 H 0.39643 -0.02890 0.81101
 N50 N 0.39028 -0.00324 0.76940
 C51 C 0.38117 -0.00736 0.70629
 H52 H 0.36554 -0.00989 0.70656
 C53 C 0.39110 -0.00729 0.68846
 H54 H 0.38300 -0.01000 0.67505
 C55 C 0.41065 -0.00114 0.72364
 H56 H 0.41815 0.00121 0.73743
 C57 C 0.42122 -0.00092 0.70604
 H58 H 0.43682 0.00187 0.70639
 Zn59 Zn 0.37514 -0.00400 0.74611
 N60 N 0.39094 -0.00401 0.72337
 C61 C 0.36026 0.03189 0.73146
 N62 N 0.35868 0.01869 0.74626
 C63 C 0.34727 0.02260 0.76222
 C64 C 0.33723 0.04063 0.76392
 C65 C 0.35048 0.05000 0.73254
 C66 C 0.37172 -0.04410 0.74210
 C67 C 0.36290 -0.06242 0.74152
 C68 C 0.33150 -0.04638 0.74709
 C69 C 0.34097 -0.02825 0.74750
 N70 N 0.36078 -0.02753 0.74530
 H71 H 0.36967 0.02878 0.71907
 H72 H 0.34660 0.01203 0.77399
 H73 H 0.32878 0.04380 0.77703
 H74 H 0.35212 0.06035 0.72067
 H75 H 0.38742 -0.04303 0.74015
 H76 H 0.37193 -0.07539 0.73887
 H77 H 0.31579 -0.04680 0.74935
 H78 H 0.33254 -0.01485 0.74979
 C79 C 0.41134 -0.00377 0.68813
 C80 C 0.40819 0.00011 0.80593
 C81 C 0.34256 -0.06379 0.74428
 C82 C 0.33913 0.05475 0.74911
 C83 C 0.90374 0.50946 0.27632
 H84 H 0.90623 0.52112 0.26603
 C85 C 0.91332 0.50986 0.29447
 H86 H 0.92235 0.52241 0.29771
 C87 C 0.88831 0.47975 0.28447
 H88 H 0.87876 0.46784 0.28055
 C89 C 0.89748 0.47958 0.30279
 H90 H 0.89503 0.46707 0.31215
 N91 N 0.89102 0.49487 0.27187
 C92 C 0.88047 0.49979 0.20899
 H93 H 0.86463 0.50107 0.20961
 C94 C 0.88999 0.50054 0.19098
 H95 H 0.88128 0.50215 0.17776
 C96 C 0.91078 0.49534 0.22563
 H97 H 0.91872 0.49321 0.23923
 C98 C 0.92098 0.49613 0.20783
 H99 H 0.93684 0.49486 0.20788
 Zn100 Zn 0.87536 0.49608 0.24865
 N101 N 0.89087 0.49713 0.22580
 C102 C 0.84003 0.52027 0.25011
 N103 N 0.85998 0.51965 0.24893
 C104 C 0.87038 0.53642 0.24691
 C105 C 0.86094 0.55469 0.24681
 C106 C 0.82991 0.53835 0.24997
 C107 C 0.86509 0.45918 0.23362
 C108 C 0.85581 0.44107 0.23309
 C109 C 0.83520 0.45193 0.25997
 C110 C 0.84508 0.46982 0.26016
 N111 N 0.85974 0.47312 0.24708
 H112 H 0.83185 0.50684 0.25091
 H113 H 0.88607 0.53564 0.24495
 H114 H 0.86970 0.56778 0.24562
 H115 H 0.81404 0.53858 0.25075
 H116 H 0.87710 0.46173 0.22369
 H117 H 0.86048 0.43006 0.22247
 H118 H 0.82386 0.44932 0.27072
 H119 H 0.84156 0.48075 0.27124
 C120 C 0.91053 0.49878 0.19018
 C121 C 0.90986 0.49508 0.30846
 C122 C 0.84082 0.43722 0.24650
 C123 C 0.84043 0.55589 0.24832
 C124 C 0.59751 0.51833 0.72562
 H125 H 0.59636 0.53022 0.73620
 C126 C 0.58747 0.51960 0.70771
 H127 H 0.57856 0.53253 0.70461
 C128 C 0.61150 0.48759 0.71628
 H129 H 0.62126 0.47536 0.71933
 C130 C 0.60177 0.48825 0.69830
 H131 H 0.60379 0.47621 0.68799
 N132 N 0.60935 0.50254 0.72949
 C133 C 0.62123 0.49942 0.79226
 H134 H 0.63700 0.49765 0.79125
 C135 C 0.61213 0.49883 0.81051
 H136 H 0.62103 0.49640 0.82348
 C137 C 0.59057 0.50413 0.77634
 H138 H 0.58229 0.50607 0.76293
 C139 C 0.58081 0.50365 0.79440
 H140 H 0.56501 0.50551 0.79479
 Zn141 Zn 0.62532 0.50244 0.75231
 N142 N 0.61046 0.50225 0.77569
 C143 C 0.63890 0.53875 0.76656
 N144 N 0.64080 0.52534 0.75177
 C145 C 0.65211 0.52898 0.73580
 C146 C 0.66190 0.54685 0.73419
 C147 C 0.64842 0.55671 0.76557
 C148 C 0.63040 0.46255 0.75583
 C149 C 0.63983 0.44429 0.75616
 C150 C 0.67067 0.46044 0.75055
 C151 C 0.66057 0.47853 0.75035
 N152 N 0.64074 0.47915 0.75267
 H153 H 0.62955 0.53586 0.77894
 H154 H 0.65305 0.51824 0.72404
 H155 H 0.67039 0.54975 0.72114
 H156 H 0.64665 0.56716 0.77751
 H157 H 0.61468 0.46355 0.75793
 H158 H 0.63125 0.43128 0.75873
 H159 H 0.68638 0.46004 0.74825
 H160 H 0.66853 0.49196 0.74815
 C161 C 0.59168 0.50113 0.81180
 C162 C 0.58985 0.50456 0.69364
 C163 C 0.66018 0.44300 0.75324
 C164 C 0.65983 0.56111 0.74909
 C165 C 0.27034 0.09845 0.98574
 H166 H 0.25940 0.09756 0.97426
 C167 C 0.28849 0.08880 0.98347
 H168 H 0.29139 0.08041 0.97020
 C169 C 0.28038 0.11157 1.01640
 H170 H 0.27751 0.12091 1.02896
 C171 C 0.29862 0.10220 1.01474
 H172 H 0.30931 0.10403 1.02637
 N173 N 0.26670 0.10969 1.00197
 C174 C 0.20385 0.12097 1.00726
 H175 H 0.20469 0.13666 1.00974
 C176 C 0.18573 0.11182 1.00768
 H177 H 0.17268 0.12059 1.01073
 C178 C 0.22009 0.09058 1.00071
 H179 H 0.23356 0.08242 0.99806
 C180 C 0.20215 0.08077 1.00095
 H181 H 0.20192 0.06509 0.99822
 Zn182 Zn 0.24356 0.12544 1.00317
 N183 N 0.22051 0.11038 1.00354
 C184 C 0.22834 0.14000 0.96755
 N185 N 0.24334 0.14160 0.98063
 C186 C 0.25923 0.15279 0.97669
 C187 C 0.26066 0.16254 0.95873
 C188 C 0.22914 0.14951 0.94952
 C189 C 0.24144 0.12929 1.04324
 C190 C 0.24107 0.13824 1.06165
 C191 C 0.24402 0.16974 1.04587
 C192 C 0.24445 0.16003 1.02767
 N193 N 0.24341 0.14015 1.02677
 H194 H 0.21601 0.13076 0.97069
 H195 H 0.27114 0.15349 0.98718
 H196 H 0.27373 0.17078 0.95553
 H197 H 0.21710 0.14786 0.93926
 H198 H 0.24008 0.11350 1.04201
 H199 H 0.23854 0.12874 1.07401
 H200 H 0.24591 0.18547 1.04572
 H201 H 0.24581 0.16840 1.01432
 C202 C 0.18465 0.09151 1.00425
 C203 C 0.30303 0.09095 0.99795
 C204 C 0.24258 0.15892 1.06357
 C205 C 0.24564 0.16060 0.94471
 C206 C 0.72499 0.40461 0.98822
 H207 H 0.73540 0.40624 0.97640
 C208 C 0.70712 0.41497 0.98767
 H209 H 0.70402 0.42466 0.97546
 C210 C 0.71560 0.38870 1.01750
 H211 H 0.71860 0.37804 1.02882
 C212 C 0.69766 0.39879 1.01756
 H213 H 0.68731 0.39611 1.02926
 N214 N 0.72875 0.39146 1.00280
 C215 C 0.79174 0.37818 1.00304
 H216 H 0.79108 0.36260 1.00579
 C217 C 0.80991 0.38733 1.00289
 H218 H 0.82307 0.37856 1.00532
 C219 C 0.77531 0.40867 0.99816
 H220 H 0.76182 0.41704 0.99672
 C221 C 0.79323 0.41845 0.99787
 H222 H 0.79330 0.43421 0.99574
 Zn223 Zn 0.75123 0.37444 1.00156
 N224 N 0.77490 0.38881 1.00040
 C225 C 0.76364 0.34468 0.97433
 N226 N 0.74913 0.35792 0.97888
 C227 C 0.73342 0.36052 0.96673
 C228 C 0.73260 0.35079 0.94869
 C229 C 0.76320 0.33432 0.95653
 C230 C 0.75632 0.37006 1.04140
 C231 C 0.75716 0.36088 1.05958
 C232 C 0.75085 0.32992 1.04340
 C233 C 0.74999 0.33985 1.02547
 N234 N 0.75253 0.35958 1.02487
 H235 H 0.77577 0.34237 0.98428
 H236 H 0.72161 0.37045 0.97072
 H237 H 0.72031 0.35353 0.93892
 H238 H 0.77512 0.32427 0.95281
 H239 H 0.75868 0.38571 1.04040
 H240 H 0.76112 0.37000 1.07197
 H241 H 0.74771 0.31441 1.04308
 H242 H 0.74691 0.33183 1.01209
 C243 C 0.81086 0.40771 1.00015
 C244 C 0.69299 0.41175 1.00224
 C245 C 0.75417 0.34038 1.06120
 C246 C 0.74780 0.33783 0.94327
 C247 C 0.23130 0.90189 0.48672
 H248 H 0.24174 0.90252 0.47480
 C249 C 0.21323 0.91181 0.48522
 H250 H 0.20987 0.92012 0.47211
 C251 C 0.22245 0.88917 0.51771
 H252 H 0.22579 0.87994 0.53014
 C253 C 0.20429 0.89882 0.51683
 H254 H 0.19408 0.89724 0.52886
 N255 N 0.23547 0.89069 0.50271
 C256 C 0.29845 0.87920 0.50613
 H257 H 0.29787 0.86346 0.50821
 C258 C 0.31647 0.88857 0.50631
 H259 H 0.32971 0.87994 0.50879
 C260 C 0.28168 0.90948 0.50081
 H261 H 0.26805 0.91751 0.49871
 C262 C 0.29948 0.91950 0.50084
 H263 H 0.29942 0.93522 0.49849
 Zn264 Zn 0.25844 0.87464 0.50278
 N265 N 0.28156 0.88963 0.50313
 C266 C 0.27276 0.86049 0.46644
 N267 N 0.25788 0.85909 0.47962
 C268 C 0.24162 0.84845 0.47547
 C269 C 0.23974 0.83898 0.45728
 C270 C 0.27152 0.85124 0.44818
 C271 C 0.26247 0.86932 0.54264
 C272 C 0.26277 0.85973 0.56062
 C273 C 0.25632 0.82919 0.54364
 C274 C 0.25622 0.83943 0.52586
 N275 N 0.25896 0.85920 0.52577
 H276 H 0.28540 0.86930 0.46976
 H277 H 0.22980 0.84792 0.48602
 H278 H 0.22641 0.83113 0.45397
 H279 H 0.28351 0.85265 0.43790
 H280 H 0.26486 0.88500 0.54209
 H281 H 0.26564 0.86813 0.57384
 H282 H 0.25360 0.81355 0.54358
 H283 H 0.25369 0.83164 0.51224
 C284 C 0.31720 0.90896 0.50340
 C285 C 0.19930 0.91000 0.50026
 C286 C 0.25938 0.83944 0.56136
 C287 C 0.25469 0.84063 0.44323
 C288 C 0.77307 0.59749 0.48186
 H289 H 0.76244 0.59653 0.47009
 C290 C 0.79112 0.58748 0.48029
 H291 H 0.79425 0.57879 0.46728
 C292 C 0.78242 0.61099 0.51257
 H293 H 0.77931 0.62055 0.52491
 C294 C 0.80054 0.60129 0.51161
 H295 H 0.81091 0.60314 0.52352
 N296 N 0.76915 0.60908 0.49777
 C297 C 0.70620 0.62083 0.50162
 H298 H 0.70694 0.63661 0.50346
 C299 C 0.68812 0.61161 0.50220
 H300 H 0.67498 0.62041 0.50472
 C301 C 0.72267 0.59028 0.49662
 H302 H 0.73622 0.58208 0.49454
 C303 C 0.70478 0.58039 0.49710
 H304 H 0.70468 0.56459 0.49512
 Zn305 Zn 0.74615 0.62511 0.49817
 N306 N 0.72297 0.61018 0.49862
 C307 C 0.73146 0.63903 0.46205
 N308 N 0.74638 0.64071 0.47523
 C309 C 0.76235 0.65178 0.47126
 C310 C 0.76385 0.66148 0.45327
 C311 C 0.73235 0.64847 0.44399
 C312 C 0.74277 0.63012 0.53809
 C313 C 0.74270 0.63953 0.55628
 C314 C 0.74850 0.67031 0.53989
 C315 C 0.74841 0.66025 0.52189
 N316 N 0.74588 0.64045 0.52140
 H317 H 0.71908 0.62987 0.46520
 H318 H 0.77421 0.65254 0.48180
 H319 H 0.77693 0.66973 0.45010
 H320 H 0.72033 0.64684 0.43371
 H321 H 0.74054 0.61443 0.53722
 H322 H 0.74015 0.63097 0.56935
 H323 H 0.75102 0.68599 0.54015
 H324 H 0.75061 0.66820 0.50840
 C325 C 0.68719 0.59115 0.49975
 C326 C 0.80526 0.58965 0.49516
 C327 C 0.74587 0.65985 0.55741
 C328 C 0.74885 0.65958 0.43924
 C329 C 0.01762 0.22210 0.10130
 H330 H 0.03135 0.22909 0.10484
 C331 C 0.01772 0.20435 0.09089
 H332 H 0.03159 0.19772 0.08652
 C333 C -0.01709 0.22175 0.10357
 H334 H -0.03058 0.22855 0.10871
 C335 C -0.01766 0.20391 0.09335
 H336 H -0.03167 0.19712 0.09056
 N337 N 0.00042 0.23020 0.10773
 C338 C 0.00400 0.29277 0.12066
 H339 H 0.00601 0.29217 0.13641
 C340 C 0.00409 0.31083 0.11119
 H341 H 0.00547 0.32382 0.12028
 C342 C -0.00150 0.27613 0.09061
 H343 H -0.00354 0.26248 0.08270
 C344 C -0.00154 0.29396 0.08045
 H345 H -0.00309 0.29340 0.06467
 Zn346 Zn 0.00129 0.25215 0.12485
 N347 N 0.00119 0.27589 0.11037
 C348 C 0.04010 0.26219 0.13398
 N349 N 0.02510 0.25045 0.13949
 C350 C 0.02759 0.23697 0.15399
 C351 C 0.04567 0.23508 0.16368
 C352 C 0.05829 0.26087 0.14329
 C353 C -0.03299 0.26812 0.14293
 C354 C -0.05049 0.26762 0.15347
 C355 C -0.04391 0.23346 0.16068
 C356 C -0.02627 0.23471 0.15032
 N357 N -0.02121 0.25183 0.14151
 H358 H 0.03820 0.27233 0.12199
 H359 H 0.01569 0.22745 0.15789
 H360 H 0.04747 0.22405 0.17495
 H361 H 0.06986 0.27057 0.13874
 H362 H -0.02924 0.28145 0.13546
 H363 H -0.05983 0.28063 0.15409
 H364 H -0.04799 0.21964 0.16721
 H365 H -0.01705 0.22176 0.14856
 C366 C 0.00137 0.31186 0.09066
 C367 C -0.00006 0.19480 0.08723
 C368 C -0.05627 0.25007 0.16224
 C369 C 0.06136 0.24707 0.15824
 C370 C 0.01618 0.77288 0.40191
 H371 H 0.02781 0.76192 0.40286
 C372 C 0.01816 0.79102 0.41148
 H373 H 0.03136 0.79389 0.41983
 C374 C -0.01452 0.78297 0.38872
 H375 H -0.02697 0.78014 0.37938
 C376 C -0.01317 0.80119 0.39804
 H377 H -0.02495 0.81188 0.39617
 N378 N 0.00010 0.76928 0.39065
 C379 C -0.00392 0.70635 0.37918
 H380 H -0.00571 0.70730 0.36343
 C381 C -0.00481 0.68816 0.38833
 H382 H -0.00749 0.67519 0.37948
 C383 C 0.00109 0.72239 0.40973
 H384 H 0.00323 0.73583 0.41795
 C385 C 0.00033 0.70437 0.41955
 H386 H 0.00221 0.70405 0.43532
 Zn387 Zn -0.00054 0.74624 0.37487
 N388 N -0.00083 0.72296 0.38986
 C389 C 0.03563 0.73149 0.36059
 N390 N 0.02215 0.74632 0.35887
 C391 C 0.02569 0.76227 0.34755
 C392 C 0.04359 0.76392 0.33770
 C393 C 0.05364 0.73252 0.35101
 C394 C -0.04051 0.74412 0.37068
 C395 C -0.05880 0.74378 0.36160
 C396 C -0.04266 0.74689 0.33027
 C397 C -0.02460 0.74729 0.34011
 N398 N -0.02393 0.74617 0.35998
 H399 H 0.03279 0.71911 0.36995
 H400 H 0.01489 0.77405 0.34675
 H401 H 0.04645 0.77703 0.32930
 H402 H 0.06423 0.72062 0.35274
 H403 H -0.03946 0.74267 0.38646
 H404 H -0.07124 0.74119 0.37099
 H405 H -0.04234 0.74884 0.31456
 H406 H -0.01116 0.74868 0.33186
 C407 C -0.00251 0.68693 0.40876
 C408 C 0.00350 0.80559 0.40927
 C409 C -0.06047 0.74540 0.34093
 C410 C 0.05799 0.74907 0.33971
 C411 C 0.51696 0.27693 0.90351
 H412 H 0.52848 0.26586 0.90443
 C413 C 0.51904 0.29497 0.91326
 H414 H 0.53219 0.29766 0.92176
 C415 C 0.48643 0.28743 0.89022
 H416 H 0.47399 0.28478 0.88079
 C417 C 0.48790 0.30555 0.89968
 H418 H 0.47624 0.31638 0.89783
 N419 N 0.50091 0.27359 0.89211
 C420 C 0.49585 0.21092 0.87985
 H421 H 0.49393 0.21216 0.86413
 C422 C 0.49484 0.19260 0.88869
 H423 H 0.49192 0.17981 0.87967
 C424 C 0.50141 0.22638 0.91060
 H425 H 0.50386 0.23965 0.91901
 C426 C 0.50053 0.20821 0.92012
 H427 H 0.50258 0.20758 0.93587
 Zn428 Zn 0.50000 0.25074 0.87608
 N429 N 0.49931 0.22730 0.89077
 C430 C 0.53581 0.23530 0.86172
 N431 N 0.52275 0.25052 0.86013
 C432 C 0.52677 0.26646 0.84894
 C433 C 0.54471 0.26765 0.83908
 C434 C 0.55383 0.23586 0.85211
 C435 C 0.46000 0.24873 0.87185
 C436 C 0.44173 0.24849 0.86270
 C437 C 0.45785 0.25285 0.83149
 C438 C 0.47594 0.25301 0.84130
 N439 N 0.47660 0.25117 0.86116
 H440 H 0.53263 0.22294 0.87097
 H441 H 0.51630 0.27855 0.84824
 H442 H 0.54794 0.28071 0.83075
 H443 H 0.56404 0.22362 0.85371
 H444 H 0.46102 0.24698 0.88759
 H445 H 0.42875 0.24634 0.87153
 H446 H 0.45746 0.25463 0.81571
 H447 H 0.48937 0.25462 0.83308
 C448 C 0.49737 0.19100 0.90906
 C449 C 0.50454 0.30970 0.91105
 C450 C 0.44044 0.25071 0.84228
 C451 C 0.55866 0.25234 0.84092
 C452 C 0.51444 0.72365 0.59930
 H453 H 0.52789 0.73176 0.59987
 C454 C 0.51407 0.70581 0.58906
 H455 H 0.52736 0.70037 0.58208
 C456 C 0.48109 0.72035 0.60823
 H457 H 0.46819 0.72609 0.61560
 C458 C 0.48009 0.70242 0.59822
 H459 H 0.46640 0.69453 0.59802
 N460 N 0.49826 0.73032 0.60911
 C461 C 0.50449 0.79287 0.62116
 H462 H 0.50650 0.79228 0.63690
 C463 C 0.50541 0.81081 0.61152
 H464 H 0.50783 0.82403 0.62007
 C465 C 0.49830 0.77622 0.59116
 H466 H 0.49557 0.76262 0.58337
 C467 C 0.49926 0.79390 0.58085
 H468 H 0.49745 0.79375 0.56507
 Zn469 Zn 0.49994 0.75282 0.62580
 N470 N 0.50079 0.77610 0.61096
 C471 C 0.54020 0.75572 0.63022
 N472 N 0.52364 0.75161 0.64041
 C473 C 0.52434 0.74786 0.66000
 C474 C 0.54235 0.74775 0.66995
 C475 C 0.55842 0.75558 0.63948
 C476 C 0.46526 0.76965 0.64199
 C477 C 0.44775 0.76979 0.65258
 C478 C 0.45575 0.73713 0.66410
 C479 C 0.47335 0.73778 0.65363
 N480 N 0.47760 0.75375 0.64255
 H481 H 0.53924 0.75942 0.61484
 H482 H 0.51098 0.74512 0.66797
 H483 H 0.54261 0.74498 0.68558
 H484 H 0.57137 0.75844 0.63085
 H485 H 0.46856 0.78205 0.63284
 H486 H 0.43786 0.78235 0.65158
 H487 H 0.45223 0.72410 0.67237
 H488 H 0.48324 0.72520 0.65363
 C489 C 0.50283 0.81153 0.59108
 C490 C 0.49686 0.69472 0.58885
 C491 C 0.44267 0.75323 0.66347
 C492 C 0.55973 0.75164 0.65965
 C493 C 0.91290 1.00125 0.72281
 H494 H 0.92063 1.00437 0.73633
 C495 C 0.92263 1.00090 0.70570
 H496 H 0.93830 1.00316 0.70601
 C497 C 0.88263 0.99334 0.70729
 H498 H 0.86700 0.99087 0.70798
 C499 C 0.89264 0.99281 0.68820
 H500 H 0.88347 0.99057 0.67545
 N501 N 0.89221 0.99752 0.72324
 C502 C 0.88874 1.01769 0.78254
 H503 H 0.87890 1.02954 0.77840
 C504 C 0.89758 1.01828 0.80006
 H505 H 0.89487 1.03095 0.80939
 C506 C 0.90573 0.98831 0.77321
 H507 H 0.90885 0.97661 0.76290
 C508 C 0.91592 0.98836 0.79235
 H509 H 0.92544 0.97591 0.79543
 Zn510 Zn 0.87668 0.99933 0.74615
 N511 N 0.89248 1.00166 0.76916
 C512 C 0.87272 0.95875 0.74658
 N513 N 0.86199 0.97573 0.74746
 C514 C 0.84203 0.97538 0.74853
 C515 C 0.83226 0.95742 0.74939
 C516 C 0.86362 0.94059 0.74751
 C517 C 0.86490 1.03538 0.72989
 C518 C 0.85504 1.05342 0.72885
 C519 C 0.83526 1.04393 0.75650
 C520 C 0.84571 1.02609 0.75720
 N521 N 0.86028 1.02216 0.74401
 H522 H 0.88842 0.95922 0.74478
 H523 H 0.83359 0.98892 0.74847
 H524 H 0.81638 0.95742 0.75003
 H525 H 0.87264 0.92735 0.74720
 H526 H 0.87679 1.03233 0.71982
 H527 H 0.85919 1.06390 0.71775
 H528 H 0.82405 1.04709 0.76736
 H529 H 0.84271 1.01570 0.76872
 C530 C 0.91163 1.00234 0.80595
 C531 C 0.91204 0.99658 0.68692
 C532 C 0.84019 1.05796 0.74240
 C533 C 0.84311 0.93969 0.74891
 C534 C 0.41142 0.50041 0.22885
 H535 H 0.41923 0.50250 0.24252
 C536 C 0.42173 0.49966 0.21109
 H537 H 0.43755 0.50090 0.21124
 C538 C 0.38129 0.49625 0.21197
 H539 H 0.36547 0.49516 0.21248
 C540 C 0.39093 0.49551 0.19399
 H541 H 0.38232 0.49407 0.18070
 N542 N 0.39154 0.49884 0.22888
 C543 C 0.38951 0.51659 0.28760
 H544 H 0.38032 0.52904 0.28380
 C545 C 0.39884 0.51629 0.30586
 H546 H 0.39676 0.52862 0.31581
 C547 C 0.40362 0.48565 0.27931
 H548 H 0.40557 0.47373 0.26898
 C549 C 0.41321 0.48474 0.29743
 H550 H 0.42209 0.47189 0.30090
 Zn551 Zn 0.37593 0.50068 0.25168
 N552 N 0.39157 0.50115 0.27493
 C553 C 0.37010 0.46061 0.24910
 N554 N 0.36011 0.47786 0.25175
 C555 C 0.34020 0.47820 0.25355
 C556 C 0.32974 0.46062 0.25342
 C557 C 0.36032 0.44281 0.24897
 C558 C 0.36588 0.53767 0.23636
 C559 C 0.35646 0.55594 0.23540
 C560 C 0.33614 0.54662 0.26272
 C561 C 0.34618 0.52855 0.26334
 N562 N 0.36070 0.52435 0.25018
 H563 H 0.38575 0.46066 0.24669
 H564 H 0.33231 0.49200 0.25489
 H565 H 0.31390 0.46114 0.25474
 H566 H 0.36878 0.42931 0.24729
 H567 H 0.37778 0.53443 0.22635
 H568 H 0.36093 0.56639 0.22440
 H569 H 0.32482 0.54990 0.27343
 H570 H 0.34277 0.51810 0.27469
 C571 C 0.41050 0.50000 0.31117
 C572 C 0.41142 0.49726 0.19333
 C573 C 0.34147 0.56063 0.24874
 C574 C 0.33985 0.44260 0.25115
 C575 C 0.61193 0.98304 0.28341
 H576 H 0.62124 0.97070 0.27937
 C577 C 0.60338 0.98338 0.30106
 H578 H 0.60577 0.97094 0.31062
 C579 C 0.59607 1.01287 0.27381
 H580 H 0.59337 1.02443 0.26337
 C581 C 0.58615 1.01380 0.29303
 H582 H 0.57716 1.02668 0.29603
 N583 N 0.60858 0.99878 0.26979
 C584 C 0.61700 1.00392 0.20672
 H585 H 0.63274 1.00575 0.20676
 C586 C 0.60669 1.00435 0.18907
 H587 H 0.61472 1.00634 0.17555
 C588 C 0.58773 0.99822 0.22442
 H589 H 0.58050 0.99562 0.23826
 C590 C 0.57676 0.99865 0.20702
 H591 H 0.56103 0.99672 0.20766
 Zn592 Zn 0.62375 0.99965 0.24636
 N593 N 0.60748 1.00078 0.22390
 C594 C 0.63490 0.96300 0.23053
 N595 N 0.63973 0.97648 0.24452
 C596 C 0.65437 0.97271 0.25768
 C597 C 0.66477 0.95483 0.25700
 C598 C 0.64471 0.94492 0.22951
 C599 C 0.62829 1.03997 0.24430
 C600 C 0.63745 1.05812 0.24486
 C601 C 0.66852 1.04125 0.24918
 C602 C 0.65864 1.02334 0.24856
 N603 N 0.63879 1.02303 0.24656
 H604 H 0.62295 0.96592 0.22049
 H605 H 0.65752 0.98329 0.26913
 H606 H 0.67610 0.95184 0.26779
 H607 H 0.64046 0.93429 0.21844
 H608 H 0.61264 1.03946 0.24195
 H609 H 0.62811 1.07105 0.24406
 H610 H 0.68435 1.04074 0.25029
 H611 H 0.66695 1.00977 0.24955
 C612 C 0.58627 1.00174 0.18902
 C613 C 0.59003 1.00003 0.30678
 C614 C 0.65798 1.05922 0.24742
 C615 C 0.65972 0.94059 0.24295
 C616 C 0.11069 0.48617 0.78600
 H617 H 0.12016 0.47364 0.78308
 C618 C 0.10127 0.48769 0.80409
 H619 H 0.10325 0.47603 0.81469
 C620 C 0.09712 0.51682 0.77611
 H621 H 0.09603 0.52834 0.76527
 C622 C 0.08736 0.51892 0.79408
 H623 H 0.07869 0.53209 0.79697
 N624 N 0.10858 0.50066 0.77247
 C625 C 0.11854 0.49592 0.70950
 H626 H 0.13431 0.49386 0.71002
 C627 C 0.10880 0.49539 0.69154
 H628 H 0.11719 0.49273 0.67828
 C629 C 0.08854 0.50140 0.72637
 H630 H 0.08075 0.50360 0.74002
 C631 C 0.07814 0.50097 0.70862
 H632 H 0.06237 0.50317 0.70872
 Zn633 Zn 0.12400 0.49949 0.74938
 N634 N 0.10842 0.49917 0.72640
 C635 C 0.12816 0.45932 0.74624
 N636 N 0.13885 0.47582 0.74899
 C637 C 0.15873 0.47491 0.75077
 C638 C 0.16855 0.45668 0.75034
 C639 C 0.13732 0.44091 0.74565
 C640 C 0.13825 0.53515 0.73452
 C641 C 0.14814 0.55293 0.73530
 C642 C 0.16190 0.54340 0.76658
 C643 C 0.15174 0.52571 0.76519
 N644 N 0.14008 0.52200 0.74939
 H645 H 0.11239 0.46053 0.74457
 H646 H 0.16697 0.48825 0.75266
 H647 H 0.18433 0.45611 0.75221
 H648 H 0.12846 0.42801 0.74329
 H649 H 0.12864 0.53222 0.72228
 H650 H 0.14636 0.56321 0.72333
 H651 H 0.17062 0.54639 0.77953
 H652 H 0.15262 0.51519 0.77701
 C653 C 0.08836 0.49816 0.69089
 C654 C 0.08967 0.50436 0.80846
 C655 C 0.15986 0.55743 0.75164
 C656 C 0.15776 0.43935 0.74792
 C657 C 0.76892 0.91188 -0.00168
 H658 H 0.75508 0.91928 -0.00458
 C659 C 0.78627 0.92265 -0.00100
 H660 H 0.78560 0.93841 -0.00307
 C661 C 0.78669 0.88234 0.00449
 H662 H 0.78670 0.86656 0.00636
 C663 C 0.80429 0.89244 0.00518
 H664 H 0.81782 0.88422 0.00741
 N665 N 0.76952 0.89208 0.00097
 C666 C 0.71102 0.88838 -0.01738
 H667 H 0.71485 0.87832 -0.02911
 C668 C 0.69276 0.89798 -0.01776
 H669 H 0.68284 0.89523 -0.02987
 C670 C 0.71923 0.90443 0.01238
 H671 H 0.72958 0.90712 0.02403
 C672 C 0.70113 0.91434 0.01259
 H673 H 0.69766 0.92415 0.02471
 Zn674 Zn 0.74726 0.87594 -0.00078
 N675 N 0.72367 0.89134 -0.00220
 C676 C 0.74849 0.87104 0.03957
 N677 N 0.74704 0.86062 0.02254
 C678 C 0.74624 0.84063 0.02272
 C679 C 0.74627 0.83049 0.04057
 C680 C 0.74844 0.86158 0.05762
 C681 C 0.76384 0.86541 -0.03707
 C682 C 0.76555 0.85573 -0.05507
 C683 C 0.73868 0.83498 -0.04586
 C684 C 0.73731 0.84525 -0.02803
 N685 N 0.74984 0.86017 -0.02394
 H686 H 0.75010 0.88678 0.03918
 H687 H 0.74582 0.83244 0.00912
 H688 H 0.74582 0.81459 0.04043
 H689 H 0.74918 0.87037 0.07090
 H690 H 0.77338 0.87756 -0.03393
 H691 H 0.77664 0.86030 -0.06539
 H692 H 0.72839 0.82341 -0.04910
 H693 H 0.72585 0.84172 -0.01772
 C694 C 0.68746 0.91086 -0.00242
 C695 C 0.80429 0.91288 0.00240
 C696 C 0.75278 0.84043 -0.05972
 C697 C 0.74736 0.84102 0.05835
 C698 C 0.27245 0.41028 0.50348
 H699 H 0.25874 0.41810 0.50108
 C700 C 0.29014 0.42052 0.50382
 H701 H 0.28986 0.43632 0.50200
 C702 C 0.28953 0.38015 0.50874
 H703 H 0.28913 0.36436 0.51037
 C704 C 0.30744 0.38973 0.50907
 H705 H 0.32079 0.38107 0.51078
 N706 N 0.27256 0.39043 0.50577
 C707 C 0.21462 0.38881 0.48667
 H708 H 0.21897 0.37946 0.47455
 C709 C 0.19638 0.39838 0.48605
 H710 H 0.18699 0.39629 0.47338
 C711 C 0.22154 0.40320 0.51759
 H712 H 0.23134 0.40519 0.52984
 C713 C 0.20339 0.41303 0.51758
 H714 H 0.19936 0.42212 0.53008
 Zn715 Zn 0.24984 0.37495 0.50407
 N716 N 0.22659 0.39086 0.50255
 C717 C 0.25091 0.36974 0.54437
 N718 N 0.24920 0.35950 0.52728
 C719 C 0.24782 0.33954 0.52730
 C720 C 0.24742 0.32928 0.54507
 C721 C 0.25042 0.36017 0.56236
 C722 C 0.26568 0.36422 0.46751
 C723 C 0.26656 0.35486 0.44929
 C724 C 0.23922 0.33488 0.45885
 C725 C 0.23867 0.34485 0.47688
 N726 N 0.25182 0.35924 0.48088
 H727 H 0.25305 0.38542 0.54410
 H728 H 0.24725 0.33146 0.51365
 H729 H 0.24651 0.31341 0.54481
 H730 H 0.25134 0.36884 0.57569
 H731 H 0.27567 0.37602 0.47059
 H732 H 0.27748 0.35927 0.43872
 H733 H 0.22842 0.32377 0.45567
 H734 H 0.22728 0.34163 0.48736
 C735 C 0.19035 0.41030 0.50186
 C736 C 0.30797 0.41019 0.50653
 C737 C 0.25311 0.34015 0.44472
 C738 C 0.24869 0.33965 0.56293
 C739 C 0.22390 0.59003 -0.00149
 H740 H 0.23735 0.58184 -0.00423
 C741 C 0.20588 0.58041 -0.00180
 H742 H 0.20609 0.56467 -0.00409
 C743 C 0.20793 0.62039 0.00546
 H744 H 0.20888 0.63608 0.00786
 C745 C 0.18968 0.61147 0.00527
 H746 H 0.17693 0.62094 0.00703
 N747 N 0.22451 0.60970 0.00192
 C748 C 0.28267 0.60938 -0.01620
 H749 H 0.27883 0.61901 -0.02817
 C750 C 0.30060 0.59923 -0.01669
 H751 H 0.31028 0.60117 -0.02910
 C752 C 0.27478 0.59492 0.01423
 H753 H 0.26472 0.59314 0.02624
 C754 C 0.29261 0.58450 0.01436
 H755 H 0.29617 0.57520 0.02673
 Zn756 Zn 0.24776 0.62437 0.00098
 N757 N 0.27041 0.60760 -0.00059
 C758 C 0.24633 0.62911 0.04143
 N759 N 0.24869 0.63944 0.02461
 C760 C 0.25084 0.65931 0.02512
 C761 C 0.25137 0.66936 0.04311
 C762 C 0.24692 0.63848 0.05964
 C763 C 0.23247 0.63644 -0.03532
 C764 C 0.23204 0.64611 -0.05327
 C765 C 0.26034 0.66458 -0.04307
 C766 C 0.26041 0.65432 -0.02532
 N767 N 0.24659 0.64050 -0.02178
 H768 H 0.24361 0.61354 0.04075
 H769 H 0.25194 0.66748 0.01166
 H770 H 0.25290 0.68518 0.04323
 H771 H 0.24548 0.62973 0.07276
 H772 H 0.22190 0.62512 -0.03259
 H773 H 0.22092 0.64239 -0.06399
 H774 H 0.27167 0.67518 -0.04592
 H775 H 0.27192 0.65685 -0.01470
 C776 C 0.30602 0.58701 -0.00101
 C777 C 0.18819 0.59109 0.00149
 C778 C 0.24622 0.66019 -0.05739
 C779 C 0.24945 0.65889 0.06072
 C780 C 0.73178 0.08997 0.49740
 H781 H 0.74535 0.08167 0.49634
 C782 C 0.71392 0.08002 0.49707
 H783 H 0.71401 0.06416 0.49572
 C784 C 0.71505 0.12043 0.50157
 H785 H 0.71550 0.13609 0.50406
 C786 C 0.69698 0.11117 0.50120
 H787 H 0.68374 0.12006 0.50257
 N788 N 0.73201 0.10991 0.49929
 C789 C 0.79189 0.11393 0.51544
 H790 H 0.78894 0.12590 0.52553
 C791 C 0.80990 0.10404 0.51648
 H792 H 0.82043 0.10827 0.52761
 C793 C 0.78234 0.09447 0.48818
 H794 H 0.77183 0.09131 0.47671
 C795 C 0.80016 0.08399 0.48886
 H796 H 0.80319 0.07263 0.47803
 Zn797 Zn 0.75528 0.12509 0.49986
 N798 N 0.77850 0.10912 0.50141
 C799 C 0.75088 0.13036 0.53961
 N800 N 0.75381 0.14066 0.52288
 C801 C 0.75585 0.16052 0.52323
 C802 C 0.75512 0.17077 0.54113
 C803 C 0.75017 0.13994 0.55771
 C804 C 0.77122 0.13805 0.46388
 C805 C 0.77098 0.14743 0.44571
 C806 C 0.74043 0.16339 0.45473
 C807 C 0.74126 0.15372 0.47275
 N808 N 0.75620 0.14085 0.47679
 H809 H 0.74944 0.11456 0.53886
 H810 H 0.75823 0.16837 0.50972
 H811 H 0.75665 0.18659 0.54121
 H812 H 0.74837 0.13128 0.57085
 H813 H 0.78323 0.12818 0.46740
 H814 H 0.78294 0.14473 0.43555
 H815 H 0.72798 0.17291 0.45154
 H816 H 0.72972 0.15629 0.48329
 C817 C 0.81428 0.08899 0.50300
 C818 C 0.69618 0.09069 0.49894
 C819 C 0.75519 0.15992 0.44073
 C820 C 0.75227 0.16042 0.55869
 C821 C 0.98360 0.72197 0.90091
 H822 H 0.97028 0.73068 0.89930
 C823 C 0.98325 0.70503 0.91080
 H824 H 0.96964 0.70065 0.91755
 C825 C 1.01773 0.71843 0.89404
 H826 H 1.03095 0.72296 0.88683
 C827 C 1.01826 0.70017 0.90553
 H828 H 1.03202 0.69204 0.90601
 N829 N 1.00142 0.72838 0.89184
 C830 C 1.00736 0.79137 0.88117
 H831 H 1.01527 0.79002 0.86747
 C832 C 1.00592 0.80885 0.89008
 H833 H 1.01355 0.82100 0.88356
 C834 C 0.98935 0.77549 0.90629
 H835 H 0.98273 0.76256 0.91238
 C836 C 0.98732 0.79456 0.91672
 H837 H 0.97860 0.79486 0.92996
 Zn838 Zn 1.00077 0.75067 0.87499
 N839 N 0.99865 0.77435 0.88966
 C840 C 0.97212 0.76630 0.84969
 N841 N 0.97883 0.74932 0.85794
 C842 C 0.96920 0.73213 0.85529
 C843 C 0.95148 0.73182 0.84496
 C844 C 0.95452 0.76664 0.83916
 C845 C 1.04099 0.75591 0.87026
 C846 C 1.05898 0.75609 0.86060
 C847 C 1.04229 0.74784 0.83038
 C848 C 1.02457 0.74766 0.84071
 N849 N 1.02430 0.75146 0.86033
 H850 H 0.98008 0.77977 0.85189
 H851 H 0.97500 0.71870 0.86157
 H852 H 0.94376 0.71810 0.84337
 H853 H 0.94900 0.78046 0.83342
 H854 H 1.04033 0.75898 0.88585
 H855 H 1.07212 0.75902 0.86902
 H856 H 1.04224 0.74488 0.81475
 H857 H 1.01106 0.74431 0.83310
 C858 C 0.99497 0.81104 0.90895
 C859 C 1.00159 0.69305 0.91323
 C860 C 1.05985 0.75198 0.84039
 C861 C 0.94372 0.74933 0.83713
 C862 C 0.50132 0.22750 0.40963
 H863 H 0.49874 0.24094 0.41782
 C864 C 0.50234 0.20950 0.41947
 H865 H 0.50021 0.20920 0.43521
 C866 C 0.50703 0.21142 0.37916
 H867 H 0.50891 0.21234 0.36343
 C868 C 0.50823 0.19323 0.38835
 H869 H 0.51126 0.18023 0.37956
 N870 N 0.50337 0.22804 0.38978
 C871 C 0.51530 0.28788 0.38886
 H872 H 0.52753 0.28521 0.37912
 C873 C 0.51385 0.30581 0.39881
 H874 H 0.52528 0.31652 0.39692
 C875 C 0.48528 0.27755 0.40264
 H876 H 0.47396 0.26661 0.40362
 C877 C 0.48327 0.29534 0.41293
 H878 H 0.47037 0.29800 0.42187
 Zn879 Zn 0.50212 0.25132 0.37481
 N880 N 0.50108 0.27421 0.39082
 C881 C 0.47467 0.26714 0.34782
 N882 N 0.47912 0.25126 0.35911
 C883 C 0.46641 0.23614 0.36085
 C884 C 0.44832 0.23674 0.35129
 C885 C 0.45663 0.26837 0.33800
 C886 C 0.54211 0.24858 0.36997
 C887 C 0.56018 0.24775 0.36050
 C888 C 0.54340 0.25213 0.32952
 C889 C 0.52552 0.25283 0.33965
 N890 N 0.52527 0.25126 0.35955
 H891 H 0.48487 0.27915 0.34698
 H892 H 0.46996 0.22380 0.37015
 H893 H 0.43841 0.22457 0.35299
 H894 H 0.45305 0.28139 0.32958
 H895 H 0.54143 0.24703 0.38575
 H896 H 0.57335 0.24537 0.36915
 H897 H 0.54344 0.25373 0.31372
 H898 H 0.51191 0.25462 0.33164
 C899 C 0.49754 0.30987 0.41078
 C900 C 0.50562 0.19203 0.40873
 C901 C 0.56105 0.24968 0.34002
 C902 C 0.44304 0.25316 0.33998
 C903 C 0.98850 0.27450 0.59524
 H904 H 0.97806 0.26341 0.59102
 C905 C 0.98872 0.29241 0.58522
 H906 H 0.97836 0.29459 0.57335
 C907 C 1.01311 0.28553 0.61702
 H908 H 1.02245 0.28302 0.62960
 C909 C 1.01346 0.30375 0.60782
 H910 H 1.02383 0.31444 0.61316
 N911 N 1.00073 0.27131 0.61074
 C912 C 1.00104 0.20761 0.62144
 H913 H 1.00249 0.20821 0.63719
 C914 C 1.00100 0.18938 0.61206
 H915 H 1.00163 0.17620 0.62088
 C916 C 0.99914 0.22402 0.59098
 H917 H 0.99898 0.23750 0.58273
 C918 C 0.99916 0.20598 0.58091
 H919 H 0.99886 0.20586 0.56502
 Zn920 Zn 0.99979 0.24810 0.62632
 N921 N 0.99972 0.22452 0.61097
 C922 C 0.97347 0.23513 0.65599
 N923 N 0.97676 0.24917 0.64226
 C924 C 0.96310 0.26351 0.63870
 C925 C 0.94499 0.26346 0.64824
 C926 C 0.95550 0.23448 0.66582
 C927 C 1.03963 0.24425 0.63101
 C928 C 1.05791 0.24423 0.64015
 C929 C 1.04169 0.24994 0.67119
 C930 C 1.02362 0.24987 0.66134
 N931 N 1.02298 0.24713 0.64159
 H932 H 0.98461 0.22421 0.65920
 H933 H 0.96596 0.27481 0.62809
 H934 H 0.93428 0.27490 0.64496
 H935 H 0.95295 0.22271 0.67609
 H936 H 1.03867 0.24245 0.61525
 H937 H 1.07066 0.24294 0.63079
 H938 H 1.04151 0.25164 0.68698
 H939 H 1.01015 0.25221 0.66946
 C940 C 1.00006 0.18832 0.59151
 C941 C 1.00108 0.30765 0.59168
 C942 C 1.05942 0.24713 0.66065
 C943 C 0.94079 0.24852 0.66166
 C944 C 0.48156 0.77952 0.09942
 H945 H 0.46892 0.77017 0.10018
 C946 C 0.48049 0.79679 0.08837
 H947 H 0.46719 0.80040 0.08037
 C948 C 0.51373 0.78719 0.10988
 H949 H 0.52641 0.78410 0.11885
 C950 C 0.51345 0.80429 0.09872
 H951 H 0.52601 0.81387 0.09907
 N952 N 0.49802 0.77502 0.10997
 C953 C 0.51011 0.71379 0.11641
 H954 H 0.52116 0.71593 0.12755
 C955 C 0.50889 0.69549 0.10726
 H956 H 0.51953 0.68413 0.11100
 C957 C 0.48249 0.72555 0.09867
 H958 H 0.47191 0.73710 0.09572
 C959 C 0.48070 0.70735 0.08916
 H960 H 0.46875 0.70516 0.07891
 Zn961 Zn 0.49869 0.75243 0.12663
 N962 N 0.49713 0.72850 0.11195
 C963 C 0.47165 0.73638 0.15279
 N964 N 0.47691 0.75333 0.14386
 C965 C 0.46571 0.76997 0.14553
 C966 C 0.44791 0.76967 0.15565
 C967 C 0.45397 0.73544 0.16310
 C968 C 0.53937 0.75008 0.13000
 C969 C 0.55771 0.75011 0.13900
 C970 C 0.54165 0.75412 0.17039
 C971 C 0.52349 0.75413 0.16071
 N972 N 0.52272 0.75218 0.14083
 H973 H 0.48078 0.72334 0.15115
 H974 H 0.47028 0.78337 0.13856
 H975 H 0.43898 0.78294 0.15647
 H976 H 0.44960 0.72158 0.16935
 H977 H 0.53834 0.74859 0.11421
 H978 H 0.57071 0.74889 0.12994
 H979 H 0.54204 0.75548 0.18623
 H980 H 0.51006 0.75574 0.16902
 C981 C 0.49394 0.69197 0.09356
 C982 C 0.49664 0.80933 0.08795
 C983 C 0.55909 0.75207 0.15948
 C984 C 0.44160 0.75210 0.16416
 O985 O -0.01627 0.98966 0.94427
 O986 O 0.01591 0.99947 0.94310
 O987 O -0.01659 0.94613 0.98987
 O988 O -0.00909 0.94441 1.02158
 O989 O -0.06128 0.99211 0.98885
 O990 O -0.06165 1.02573 0.99801
 O991 O 0.03396 0.99824 1.04180
 O992 O 0.03660 0.96787 1.02753
 O993 O 0.03735 1.03954 0.99631
 O994 O 0.02017 1.04445 0.96508
 O995 O -0.00790 1.04528 1.03778
 O996 O -0.03837 1.02916 1.04381
 O997 O 0.00727 1.01439 1.05433
 O998 O -0.02827 1.00411 1.05552
 O999 O 0.00688 1.05706 1.01053
 O1000 O -0.00415 1.05739 0.97562
 O1001 O 0.04978 1.01266 1.01182
 O1002 O 0.04961 0.97921 0.99701
 O1003 O -0.04322 1.00571 0.95637
 O1004 O -0.04764 1.03678 0.97336
 O1005 O -0.04890 0.96521 1.00444
 O1006 O -0.03077 0.96201 1.03570
 O1007 O -0.00289 0.95808 0.96208
 O1008 O 0.02961 0.97408 0.96021
 Zr1009 Zr 0.00265 0.98778 0.96849
 O1010 O 0.02143 1.00583 0.98495
 Zr1011 Zr -0.01892 0.97087 1.00850
 O1012 O -0.00052 0.98766 1.02666
 Zr1013 Zr -0.03691 1.01061 0.98639
 O1014 O -0.01980 1.02924 1.00413
 Zr1015 Zr 0.02616 0.99310 1.01251
 O1016 O 0.00884 0.97390 0.99539
 Zr1017 Zr 0.00774 1.03300 0.99099
 O1018 O -0.01014 1.01593 0.97227
 Zr1019 Zr -0.01326 1.01563 1.03105
 O1020 O -0.03277 0.99813 1.01435
 O1021 O -0.02463 0.98300 0.98117
 O1022 O 0.01391 1.02083 1.01832
 C1023 C -0.03337 0.99762 0.94226
 C1024 C -0.01000 0.94406 0.97228
 C1025 C -0.06315 0.97520 0.99690
 C1026 C 0.02460 1.00675 1.05592
 C1027 C 0.05147 1.02992 1.00454
 C1028 C 0.00000 1.05915 1.02798
 H1029 H 0.03392 1.00733 0.97778
 H1030 H -0.02690 1.04188 1.00601
 H1031 H -0.03319 0.97465 0.97295
 H1032 H 0.00170 0.98061 1.03913
 H1033 H 0.03353 0.95640 1.01911
 H1034 H 0.00319 0.94746 1.02864
 H1035 H -0.01605 1.06197 0.98268
 H1036 H -0.03747 1.04103 0.96401
 H1037 H 0.06156 0.97984 1.00531
 H1038 H 0.02753 0.96639 0.94797
 H1039 H -0.04394 1.03839 1.03406
 H1040 H -0.06318 1.02108 1.01165
 H1041 H 0.01139 1.01332 0.94212
 H1042 H 0.03063 1.03519 0.96068
 H1043 H -0.04116 0.97173 1.03921
 H1044 H -0.02063 0.99265 1.06038
 O1045 O 0.53682 0.49830 0.54583
 O1046 O 0.54056 0.46764 0.53119
 O1047 O 0.53981 0.53852 0.49765
 O1048 O 0.52358 0.54481 0.47000
 O1049 O 0.49305 0.54443 0.54093
 O1050 O 0.46345 0.52736 0.54623
 O1051 O 0.48700 0.48710 0.44811
 O1052 O 0.51833 0.49865 0.44666
 O1053 O 0.48616 0.44489 0.49302
 O1054 O 0.49655 0.44416 0.52706
 O1055 O 0.44246 0.48868 0.49193
 O1056 O 0.44041 0.52291 0.50059
 O1057 O 0.45941 0.50165 0.46054
 O1058 O 0.45427 0.53436 0.47761
 O1059 O 0.45539 0.46224 0.50780
 O1060 O 0.47394 0.45859 0.53935
 O1061 O 0.49974 0.45709 0.46533
 O1062 O 0.53288 0.47206 0.46473
 O1063 O 0.50924 0.51274 0.55846
 O1064 O 0.47545 0.50251 0.55959
 O1065 O 0.50754 0.55631 0.51355
 O1066 O 0.49562 0.55508 0.47921
 O1067 O 0.55293 0.51219 0.51359
 O1068 O 0.55281 0.47773 0.50187
 Zr1069 Zr 0.52938 0.49271 0.51639
 O1070 O 0.51244 0.47332 0.49936
 Zr1071 Zr 0.50991 0.53194 0.49449
 O1072 O 0.49268 0.51415 0.47613
 Zr1073 Zr 0.48938 0.51437 0.53471
 O1074 O 0.47076 0.49620 0.51810
 Zr1075 Zr 0.50604 0.48643 0.47229
 O1076 O 0.52467 0.50516 0.48849
 Zr1077 Zr 0.48500 0.46916 0.51244
 O1078 O 0.50286 0.48663 0.53084
 Zr1079 Zr 0.46598 0.50830 0.49013
 O1080 O 0.48243 0.52789 0.50782
 O1081 O 0.51624 0.52002 0.52176
 O1082 O 0.47880 0.48081 0.48488
 C1083 C 0.52688 0.50588 0.56010
 C1084 C 0.55433 0.52908 0.50540
 C1085 C 0.50019 0.55850 0.53080
 C1086 C 0.46934 0.49378 0.44639
 C1087 C 0.49233 0.44305 0.47527
 C1088 C 0.44103 0.47162 0.49974
 H1089 H 0.51973 0.46076 0.49751
 H1090 H 0.45836 0.49457 0.52537
 H1091 H 0.52459 0.52872 0.52983
 H1092 H 0.49078 0.52081 0.46340
 H1093 H 0.53068 0.50501 0.45074
 H1094 H 0.52109 0.53607 0.45866
 H1095 H 0.46249 0.46692 0.54303
 H1096 H 0.48170 0.48951 0.56197
 H1097 H 0.53108 0.46545 0.45185
 H1098 H 0.56509 0.47974 0.50943
 H1099 H 0.43798 0.51821 0.51407
 H1100 H 0.45789 0.53576 0.53573
 H1101 H 0.52980 0.46268 0.53945
 H1102 H 0.50961 0.44112 0.52139
 H1103 H 0.48337 0.55823 0.48644
 H1104 H 0.46213 0.53741 0.46585
 O1105 O 0.46375 -0.03710 0.49538
 O1106 O 0.47926 -0.04073 0.46534
 O1107 O 0.51139 -0.04155 0.53696
 O1108 O 0.53866 -0.02559 0.54440
 O1109 O 0.46761 0.00557 0.54218
 O1110 O 0.46246 0.03566 0.52554
 O1111 O 0.56136 0.01199 0.48697
 O1112 O 0.56305 -0.01945 0.49865
 O1113 O 0.51690 0.01361 0.44429
 O1114 O 0.48284 0.00394 0.44284
 O1115 O 0.51745 0.05679 0.48847
 O1116 O 0.50835 0.05859 0.52215
 O1117 O 0.54862 0.03909 0.50231
 O1118 O 0.53060 0.04376 0.53454
 O1119 O 0.50247 0.04441 0.46141
 O1120 O 0.47071 0.02682 0.45700
 O1121 O 0.54448 -0.00092 0.45655
 O1122 O 0.54530 -0.03394 0.47188
 O1123 O 0.45075 -0.00970 0.50997
 O1124 O 0.44970 0.02441 0.50011
 O1125 O 0.49480 -0.00944 0.55473
 O1126 O 0.52926 0.00233 0.55439
 O1127 O 0.49542 -0.05387 0.51038
 O1128 O 0.50834 -0.05345 0.47641
 Zr1129 Zr 0.49331 -0.03001 0.49094
 O1130 O 0.51051 -0.01287 0.47220
 Zr1131 Zr 0.51439 -0.01149 0.53086
 O1132 O 0.53298 0.00583 0.51369
 Zr1133 Zr 0.47438 0.00987 0.51248
 O1134 O 0.49120 0.02869 0.49505
 Zr1135 Zr 0.53739 -0.00702 0.48592
 O1136 O 0.52098 -0.02582 0.50411
 Zr1137 Zr 0.49733 0.01484 0.46809
 O1138 O 0.47876 -0.00320 0.48479
 Zr1139 Zr 0.51893 0.03285 0.50785
 O1140 O 0.50097 0.01625 0.52677
 O1141 O 0.48737 -0.01728 0.51818
 O1142 O 0.52471 0.02051 0.48038
 C1143 C 0.44931 -0.02715 0.50273
 C1144 C 0.50348 -0.05571 0.52734
 C1145 C 0.47743 -0.00199 0.55644
 C1146 C 0.56289 0.02934 0.49434
 C1147 C 0.53451 0.00682 0.44248
 C1148 C 0.51028 0.05854 0.47111
 H1149 H 0.51250 -0.02001 0.45965
 H1150 H 0.48395 0.04126 0.49335
 H1151 H 0.47914 -0.02570 0.52653
 H1152 H 0.54560 0.00746 0.52067
 H1153 H 0.55907 -0.03186 0.50493
 H1154 H 0.55007 -0.02349 0.53578
 H1155 H 0.46704 0.03830 0.46527
 H1156 H 0.44763 0.01846 0.48698
 H1157 H 0.55828 -0.03228 0.46559
 H1158 H 0.50081 -0.06570 0.47812
 H1159 H 0.49470 0.06089 0.51768
 H1160 H 0.47279 0.04094 0.53426
 H1161 H 0.47095 -0.02985 0.46024
 H1162 H 0.48871 -0.00906 0.43961
 H1163 H 0.52164 0.01437 0.55780
 H1164 H 0.54252 0.03591 0.53768
 O1165 O -0.04249 0.46201 0.99452
 O1166 O -0.02718 0.45886 0.96447
 O1167 O 0.00525 0.45803 1.03593
 O1168 O 0.03259 0.47406 1.04296
 O1169 O -0.03872 0.50477 1.04192
 O1170 O -0.04483 0.53450 1.02529
 O1171 O 0.05435 0.51258 0.98640
 O1172 O 0.05638 0.48088 0.99731
 O1173 O 0.00969 0.51454 0.94368
 O1174 O -0.02398 0.50407 0.94199
 O1175 O 0.01033 0.55659 0.98802
 O1176 O 0.00051 0.55795 1.02215
 O1177 O 0.04126 0.53944 1.00182
 O1178 O 0.02352 0.54381 1.03394
 O1179 O -0.00603 0.54482 0.96143
 O1180 O -0.03709 0.52593 0.95687
 O1181 O 0.03754 0.50050 0.95588
 O1182 O 0.03876 0.46692 0.97024
 O1183 O -0.05575 0.48902 1.00962
 O1184 O -0.05750 0.52319 1.00000
 O1185 O -0.01135 0.48967 1.05400
 O1186 O 0.02280 0.50178 1.05359
 O1187 O -0.01028 0.44549 1.00920
 O1188 O 0.00226 0.44664 0.97503
 Zr1189 Zr -0.01307 0.46960 0.99003
 O1190 O 0.00370 0.48727 0.97133
 Zr1191 Zr 0.00798 0.48808 1.02995
 O1192 O 0.02619 0.50587 1.01290
 Zr1193 Zr -0.03246 0.50901 1.01207
 O1194 O -0.01606 0.52829 0.99471
 Zr1195 Zr 0.03056 0.49338 0.98498
 O1196 O 0.01460 0.47409 1.00304
 Zr1197 Zr -0.00993 0.51485 0.96754
 O1198 O -0.02804 0.49627 0.98422
 Zr1199 Zr 0.01170 0.53271 1.00740
 O1200 O -0.00587 0.51565 1.02624
 O1201 O -0.01904 0.48198 1.01743
 O1202 O 0.01743 0.52076 0.97978
 C1203 C -0.05702 0.47166 1.00209
 C1204 C -0.00226 0.44372 1.02622
 C1205 C -0.02864 0.49720 1.05600
 C1206 C 0.05565 0.52993 0.99382
 C1207 C 0.02752 0.50834 0.94191
 C1208 C 0.00236 0.55865 0.97106
 H1209 H 0.00579 0.48035 0.95867
 H1210 H -0.02354 0.54075 0.99321
 H1211 H -0.02709 0.47340 1.02579
 H1212 H 0.03881 0.50760 1.01984
 H1213 H 0.05254 0.46831 1.00336
 H1214 H 0.04394 0.47670 1.03441
 H1215 H -0.04104 0.53722 0.96527
 H1216 H -0.05975 0.51712 0.98696
 H1217 H 0.05165 0.46896 0.96387
 H1218 H -0.00495 0.43419 0.97675
 H1219 H -0.01264 0.56093 1.01666
 H1220 H -0.03432 0.54033 1.03341
 H1221 H -0.03538 0.46979 0.95932
 H1222 H -0.01806 0.49108 0.93879
 H1223 H 0.01521 0.51384 1.05698
 H1224 H 0.03529 0.53579 1.03722
 O1225 O 0.00676 0.48667 0.55639
 O1226 O -0.02561 0.49721 0.55684
 O1227 O 0.00673 0.44133 0.51122
 O1228 O 0.00144 0.43884 0.47929
 O1229 O 0.05202 0.48666 0.51205
 O1230 O 0.05221 0.51996 0.50223
 O1231 O -0.04250 0.49296 0.45781
 O1232 O -0.04492 0.46294 0.47274
 O1233 O -0.04673 0.53590 0.50194
 O1234 O -0.03060 0.54151 0.53341
 O1235 O -0.00098 0.53901 0.46145
 O1236 O 0.02982 0.52195 0.45631
 O1237 O -0.01555 0.50779 0.44544
 O1238 O 0.01989 0.49696 0.44481
 O1239 O -0.01580 0.55227 0.48834
 O1240 O -0.00570 0.55316 0.52365
 O1241 O -0.05881 0.50855 0.48726
 O1242 O -0.05855 0.47565 0.50282
 O1243 O 0.03360 0.50161 0.54386
 O1244 O 0.03795 0.53199 0.52649
 O1245 O 0.04011 0.45900 0.49785
 O1246 O 0.02279 0.45572 0.46570
 O1247 O -0.00627 0.45461 0.53912
 O1248 O -0.03893 0.47142 0.54018
 Zr1249 Zr -0.01197 0.48424 0.53193
 O1250 O -0.03072 0.50208 0.51473
 Zr1251 Zr 0.01024 0.46548 0.49252
 O1252 O -0.00807 0.48199 0.47374
 Zr1253 Zr 0.02750 0.50566 0.51385
 O1254 O 0.01050 0.52402 0.49555
 Zr1255 Zr -0.03500 0.48852 0.48735
 O1256 O -0.01772 0.46961 0.50519
 Zr1257 Zr -0.01724 0.52879 0.50824
 O1258 O 0.00055 0.51203 0.52758
 Zr1259 Zr 0.00454 0.50952 0.46892
 O1260 O 0.02396 0.49221 0.48620
 O1261 O 0.01546 0.47845 0.51964
 O1262 O -0.02287 0.51576 0.48110
 C1263 C 0.02386 0.49429 0.55816
 C1264 C 0.00034 0.44002 0.52889
 C1265 C 0.05418 0.46917 0.50508
 C1266 C -0.03287 0.50069 0.44368
 C1267 C -0.06067 0.52623 0.49381
 C1268 C -0.00875 0.55353 0.47093
 H1269 H -0.04335 0.50410 0.52163
 H1270 H 0.01758 0.53642 0.49354
 H1271 H 0.02391 0.47016 0.52818
 H1272 H -0.01007 0.47453 0.46141
 H1273 H -0.04191 0.45173 0.48150
 H1274 H -0.01135 0.44156 0.47294
 H1275 H 0.00623 0.55737 0.51668
 H1276 H 0.02772 0.53673 0.53574
 H1277 H -0.07036 0.47616 0.49429
 H1278 H -0.03695 0.46420 0.55266
 H1279 H 0.03495 0.53172 0.46575
 H1280 H 0.05405 0.51474 0.48875
 H1281 H -0.02130 0.51104 0.55742
 H1282 H -0.04078 0.53242 0.53801
 H1283 H 0.03351 0.46485 0.46258
 H1284 H 0.01270 0.48518 0.44043
 O1285 O 0.50661 0.94447 0.00954
 O1286 O 0.49608 0.94330 -0.02275
 O1287 O 0.55025 0.98940 0.01001
 O1288 O 0.55224 1.02113 0.00313
 O1289 O 0.50456 0.98924 0.05445
 O1290 O 0.47109 0.99937 0.05440
 O1291 O 0.49858 1.04221 -0.04062
 O1292 O 0.52882 1.02725 -0.04288
 O1293 O 0.45683 0.99749 -0.04481
 O1294 O 0.45175 0.96626 -0.02804
 O1295 O 0.45186 1.03924 0.00010
 O1296 O 0.46770 1.04487 0.03120
 O1297 O 0.48316 1.05515 -0.01382
 O1298 O 0.49293 1.05606 0.02186
 O1299 O 0.43960 1.01188 -0.01434
 O1300 O 0.43910 0.97689 -0.00367
 O1301 O 0.48386 1.01242 -0.05675
 O1302 O 0.51706 0.99690 -0.05627
 O1303 O 0.49006 0.95703 0.03591
 O1304 O 0.45966 0.97485 0.04041
 O1305 O 0.53154 1.00421 0.04241
 O1306 O 0.53493 1.03548 0.02462
 O1307 O 0.53812 0.96179 -0.00414
 O1308 O 0.52159 0.95966 -0.03638
 Zr1309 Zr 0.50836 0.96855 -0.00949
 O1310 O 0.49050 0.98537 -0.02847
 Zr1311 Zr 0.52574 1.00842 0.01243
 O1312 O 0.50913 1.02688 -0.00607
 Zr1313 Zr 0.48589 0.98718 0.02984
 O1314 O 0.46740 1.00516 0.01251
 Zr1315 Zr 0.50346 1.01276 -0.03290
 O1316 O 0.52245 0.99524 -0.01541
 Zr1317 Zr 0.46347 0.99197 -0.01515
 O1318 O 0.48034 0.97301 0.00294
 Zr1319 Zr 0.48128 1.03182 0.00632
 O1320 O 0.49866 1.01489 0.02598
 O1321 O 0.51338 0.98130 0.01790
 O1322 O 0.47588 1.01911 -0.02099
 C1323 C 0.49826 0.94275 0.02635
 C1324 C 0.55226 0.97188 0.00305
 C1325 C 0.52156 0.99694 0.05652
 C1326 C 0.49057 1.05660 -0.03110
 C1327 C 0.46651 1.00554 -0.05872
 C1328 C 0.43780 1.02955 -0.00779
 H1329 H 0.48889 0.97822 -0.04104
 H1330 H 0.45481 1.00729 0.01942
 H1331 H 0.52172 0.97293 0.02646
 H1332 H 0.51632 1.03922 -0.00809
 H1333 H 0.54017 1.01856 -0.03976
 H1334 H 0.54929 1.02804 -0.00927
 H1335 H 0.43449 0.98413 0.00813
 H1336 H 0.45501 0.96573 0.03009
 H1337 H 0.51651 1.00522 -0.06816
 H1338 H 0.52898 0.94717 -0.03428
 H1339 H 0.45828 1.03531 0.03645
 H1340 H 0.47598 1.01293 0.05600
 H1341 H 0.48235 0.94258 -0.01813
 H1342 H 0.46104 0.96158 -0.03824
 H1343 H 0.52538 1.03914 0.03500
 H1344 H 0.50466 1.06052 0.01470
 O1345 O 0.44406 0.51013 0.01305
 O1346 O 0.44430 0.47812 0.00203
 O1347 O 0.48911 0.51096 0.05765
 O1348 O 0.52114 0.50500 0.05990
 O1349 O 0.48674 0.55624 0.01287
 O1350 O 0.49664 0.55709 -0.02044
 O1351 O 0.54381 0.46242 0.00513
 O1352 O 0.52943 0.45950 0.03545
 O1353 O 0.49963 0.45809 -0.03696
 O1354 O 0.46773 0.47407 -0.04226
 O1355 O 0.53897 0.50461 -0.04021
 O1356 O 0.54332 0.53526 -0.02326
 O1357 O 0.55558 0.48998 -0.00913
 O1358 O 0.55496 0.52547 0.00185
 O1359 O 0.51249 0.48937 -0.05321
 O1360 O 0.47702 0.49912 -0.05399
 O1361 O 0.51469 0.44585 -0.00982
 O1362 O 0.49953 0.44561 0.02329
 O1363 O 0.45563 0.53741 -0.00196
 O1364 O 0.47279 0.54244 -0.03247
 O1365 O 0.50142 0.54408 0.04027
 O1366 O 0.53416 0.52752 0.04310
 O1367 O 0.46235 0.49592 0.04485
 O1368 O 0.46139 0.46413 0.02709
 Zr1369 Zr 0.46903 0.49165 0.01493
 O1370 O 0.48670 0.47346 -0.00312
 Zr1371 Zr 0.50780 0.51443 0.03348
 O1372 O 0.52707 0.49662 0.01677
 Zr1373 Zr 0.48580 0.53191 -0.00630
 O1374 O 0.50455 0.51543 -0.02487
 Zr1375 Zr 0.51422 0.46951 0.01020
 O1376 O 0.49598 0.48625 0.02930
 Zr1377 Zr 0.49267 0.48749 -0.02971
 O1378 O 0.47290 0.50475 -0.01272
 Zr1379 Zr 0.53143 0.50970 -0.01068
 O1380 O 0.51362 0.52865 0.00684
 O1381 O 0.48047 0.51927 0.02079
 O1382 O 0.52001 0.48214 -0.01697
 C1383 C 0.44170 0.52731 0.00552
 C1384 C 0.47211 0.50321 0.05928
 C1385 C 0.49354 0.55817 0.03037
 C1386 C 0.55772 0.47241 -0.00246
 C1387 C 0.50806 0.44408 -0.02739
 C1388 C 0.52969 0.49670 -0.05460
 H1389 H 0.48015 0.46073 -0.00516
 H1390 H 0.50632 0.52270 -0.03724
 H1391 H 0.47167 0.52736 0.02923
 H1392 H 0.53950 0.49472 0.02407
 H1393 H 0.52077 0.46234 0.04681
 H1394 H 0.52884 0.49299 0.05670
 H1395 H 0.48363 0.51127 -0.05811
 H1396 H 0.46383 0.53208 -0.03716
 H1397 H 0.50834 0.43389 0.02261
 H1398 H 0.44894 0.46574 0.03451
 H1399 H 0.53349 0.54060 -0.03257
 H1400 H 0.51004 0.55913 -0.01523
 H1401 H 0.44361 0.48265 -0.01174
 H1402 H 0.46347 0.46362 -0.03325
 H1403 H 0.53688 0.53844 0.03400
 H1404 H 0.55969 0.51814 0.01347
 O1405 O 0.04966 -0.04037 0.50115
 O1406 O 0.03459 -0.04431 0.53129
 O1407 O 0.00261 -0.04496 0.45953
 O1408 O -0.02583 -0.02969 0.45317
 O1409 O 0.04357 0.00351 0.45531
 O1410 O 0.04785 0.03298 0.47336
 O1411 O -0.05009 0.00710 0.51047
 O1412 O -0.05026 -0.02419 0.49826
 O1413 O -0.00593 0.00889 0.55382
 O1414 O 0.02872 -0.00051 0.55495
 O1415 O -0.00781 0.05276 0.51066
 O1416 O 0.00157 0.05441 0.47630
 O1417 O -0.03819 0.03511 0.49716
 O1418 O -0.02144 0.04049 0.46487
 O1419 O 0.00763 0.04024 0.53745
 O1420 O 0.03979 0.02291 0.54171
 O1421 O -0.03272 -0.00580 0.54077
 O1422 O -0.03205 -0.03865 0.52473
 O1423 O 0.06149 -0.01261 0.48727
 O1424 O 0.06125 0.02119 0.49807
 O1425 O 0.01726 -0.01248 0.44276
 O1426 O -0.01733 -0.00131 0.44317
 O1427 O 0.01839 -0.05747 0.48617
 O1428 O 0.00606 -0.05748 0.52020
 Zr1429 Zr 0.01987 -0.03368 0.50599
 O1430 O 0.00183 -0.01708 0.52510
 Zr1431 Zr -0.00206 -0.01509 0.46655
 O1432 O -0.02135 0.00190 0.48405
 Zr1433 Zr 0.03702 0.00671 0.48539
 O1434 O 0.01943 0.02501 0.50345
 Zr1435 Zr -0.02524 -0.01146 0.51139
 O1436 O -0.00797 -0.02984 0.49290
 Zr1437 Zr 0.01378 0.01074 0.53008
 O1438 O 0.03316 -0.00672 0.51280
 Zr1439 Zr -0.00847 0.02900 0.49072
 O1440 O 0.01010 0.01282 0.47136
 O1441 O 0.02524 -0.02058 0.47904
 O1442 O -0.01378 0.01615 0.51782
 C1443 C 0.06369 -0.03014 0.49406
 C1444 C 0.01070 -0.05923 0.46902
 C1445 C 0.03400 -0.00425 0.44102
 C1446 C -0.05213 0.02488 0.50442
 C1447 C -0.02327 0.00181 0.55520
 C1448 C -0.00065 0.05442 0.52804
 H1449 H 0.00008 -0.02443 0.53744
 H1450 H 0.02617 0.03763 0.50548
 H1451 H 0.03381 -0.02874 0.47043
 H1452 H -0.03403 0.00351 0.47714
 H1453 H -0.04566 -0.03640 0.49161
 H1454 H -0.03762 -0.02648 0.46105
 H1455 H 0.04335 0.03419 0.53342
 H1456 H 0.06339 0.01525 0.51114
 H1457 H -0.04512 -0.03725 0.53102
 H1458 H 0.01417 -0.06957 0.51827
 H1459 H 0.01436 0.05790 0.48217
 H1460 H 0.03723 0.03845 0.46499
 H1461 H 0.04248 -0.03334 0.53652
 H1462 H 0.02321 -0.01354 0.55790
 H1463 H -0.01075 0.01132 0.44072
 H1464 H -0.03263 0.03207 0.46130
 O1465 O 0.79449 0.24223 0.21055
 O1466 O 0.77873 0.21268 0.20654
 O1467 O 0.74774 0.28540 0.20644
 O1468 O 0.71943 0.29214 0.22151
 O1469 O 0.79013 0.28917 0.25322
 O1470 O 0.79439 0.27210 0.28345
 O1471 O 0.69580 0.23583 0.25919
 O1472 O 0.69480 0.24770 0.22781
 O1473 O 0.73979 0.19179 0.26050
 O1474 O 0.77418 0.18989 0.25079
 O1475 O 0.73951 0.23597 0.30408
 O1476 O 0.74875 0.26978 0.30578
 O1477 O 0.70849 0.25015 0.28657
 O1478 O 0.72614 0.28204 0.29164
 O1479 O 0.75410 0.20844 0.29157
 O1480 O 0.78592 0.20341 0.27400
 O1481 O 0.71260 0.20510 0.24621
 O1482 O 0.71241 0.22048 0.21334
 O1483 O 0.80686 0.25689 0.23798
 O1484 O 0.80752 0.24658 0.27175
 O1485 O 0.76277 0.30234 0.23906
 O1486 O 0.72835 0.30257 0.24977
 O1487 O 0.76267 0.25813 0.19363
 O1488 O 0.74990 0.22420 0.19394
 Zr1489 Zr 0.76464 0.23848 0.21741
 O1490 O 0.74695 0.21997 0.23436
 Zr1491 Zr 0.74343 0.27871 0.23616
 O1492 O 0.72452 0.26184 0.25338
 Zr1493 Zr 0.78301 0.25949 0.25745
 O1494 O 0.76586 0.24208 0.27603
 Zr1495 Zr 0.72010 0.23427 0.24027
 O1496 O 0.73697 0.25217 0.22162
 Zr1497 Zr 0.75964 0.21526 0.26203
 O1498 O 0.77862 0.23188 0.24424
 Zr1499 Zr 0.73819 0.25546 0.28028
 O1500 O 0.75641 0.27423 0.26385
 O1501 O 0.77048 0.26557 0.23034
 O1502 O 0.73231 0.22817 0.26774
 C1503 C 0.80867 0.24953 0.22062
 C1504 C 0.75532 0.27557 0.19209
 C1505 C 0.78015 0.30371 0.24622
 C1506 C 0.69420 0.24279 0.27672
 C1507 C 0.72222 0.19061 0.25372
 C1508 C 0.74644 0.21840 0.30577
 H1509 H 0.74492 0.20751 0.22713
 H1510 H 0.77295 0.24016 0.28855
 H1511 H 0.77890 0.27387 0.22207
 H1512 H 0.71193 0.26905 0.25509
 H1513 H 0.69906 0.25390 0.21545
 H1514 H 0.70767 0.28453 0.22485
 H1515 H 0.78972 0.21176 0.28529
 H1516 H 0.80943 0.23335 0.26587
 H1517 H 0.69931 0.21453 0.21494
 H1518 H 0.75754 0.22592 0.18169
 H1519 H 0.76214 0.26461 0.30837
 H1520 H 0.78417 0.28134 0.28845
 H1521 H 0.78662 0.20720 0.21748
 H1522 H 0.76821 0.18671 0.23793
 H1523 H 0.73518 0.30527 0.26231
 H1524 H 0.71451 0.28559 0.28363
 O1525 O 0.75434 0.71207 0.70564
 O1526 O 0.78445 0.70751 0.72074
 O1527 O 0.71297 0.70833 0.75304
 O1528 O 0.70700 0.72377 0.78146
 O1529 O 0.70810 0.75604 0.71137
 O1530 O 0.72545 0.78558 0.70678
 O1531 O 0.76421 0.75984 0.80472
 O1532 O 0.75250 0.72868 0.80538
 O1533 O 0.80693 0.76106 0.75999
 O1534 O 0.80782 0.75132 0.72555
 O1535 O 0.76358 0.80534 0.76172
 O1536 O 0.72933 0.80760 0.75290
 O1537 O 0.75047 0.78796 0.79260
 O1538 O 0.71789 0.79357 0.77579
 O1539 O 0.79019 0.79234 0.74610
 O1540 O 0.79409 0.77466 0.71413
 O1541 O 0.79460 0.74666 0.78721
 O1542 O 0.77888 0.71393 0.78711
 O1543 O 0.73999 0.73991 0.69357
 O1544 O 0.75032 0.77368 0.69335
 O1545 O 0.69583 0.74081 0.73818
 O1546 O 0.69667 0.75228 0.77268
 O1547 O 0.73946 0.69531 0.73715
 O1548 O 0.77365 0.69484 0.74954
 Zr1549 Zr 0.75923 0.71874 0.73537
 O1550 O 0.77848 0.73523 0.75293
 Zr1551 Zr 0.71993 0.73806 0.75736
 O1552 O 0.73760 0.75488 0.77624
 Zr1553 Zr 0.73810 0.75932 0.71780
 O1554 O 0.75619 0.77751 0.73496
 Zr1555 Zr 0.76513 0.74120 0.78007
 O1556 O 0.74648 0.72298 0.76327
 Zr1557 Zr 0.78298 0.76291 0.74050
 O1558 O 0.76564 0.74552 0.72158
 Zr1559 Zr 0.74384 0.78184 0.76295
 O1560 O 0.72435 0.76583 0.74476
 O1561 O 0.73215 0.73221 0.73004
 O1562 O 0.77112 0.76867 0.76815
 C1563 C 0.74702 0.72233 0.69154
 C1564 C 0.72237 0.69391 0.74492
 C1565 C 0.69392 0.74861 0.72114
 C1566 C 0.75791 0.77765 0.80663
 C1567 C 0.80873 0.75416 0.77743
 C1568 C 0.78082 0.80670 0.75427
 H1569 H 0.79092 0.72776 0.75466
 H1570 H 0.75801 0.79005 0.72801
 H1571 H 0.72355 0.72411 0.72161
 H1572 H 0.73082 0.75664 0.78896
 H1573 H 0.74587 0.71656 0.80098
 H1574 H 0.71510 0.72684 0.79311
 H1575 H 0.78581 0.78617 0.71060
 H1576 H 0.76337 0.76752 0.69105
 H1577 H 0.78538 0.71536 0.80007
 H1578 H 0.77162 0.68269 0.74169
 H1579 H 0.73442 0.81045 0.73965
 H1580 H 0.71702 0.79105 0.71736
 H1581 H 0.78972 0.71840 0.71285
 H1582 H 0.81105 0.73835 0.73129
 H1583 H 0.69387 0.76478 0.76579
 H1584 H 0.71466 0.78543 0.78728
 O1585 O 0.28829 0.20433 0.74964
 O1586 O 0.29186 0.21929 0.71949
 O1587 O 0.29176 0.25236 0.79092
 O1588 O 0.27547 0.27998 0.79795
 O1589 O 0.24525 0.20931 0.79550
 O1590 O 0.21520 0.20482 0.77826
 O1591 O 0.23834 0.30292 0.73985
 O1592 O 0.26948 0.30414 0.75230
 O1593 O 0.23765 0.25840 0.69710
 O1594 O 0.24777 0.22397 0.69600
 O1595 O 0.19392 0.25960 0.74064
 O1596 O 0.19211 0.25083 0.77444
 O1597 O 0.21108 0.29073 0.75432
 O1598 O 0.20626 0.27335 0.78665
 O1599 O 0.20675 0.24435 0.71376
 O1600 O 0.22477 0.21237 0.70957
 O1601 O 0.25199 0.28559 0.70986
 O1602 O 0.28462 0.28591 0.72596
 O1603 O 0.26076 0.19190 0.76340
 O1604 O 0.22690 0.19139 0.75325
 O1605 O 0.25966 0.23649 0.80816
 O1606 O 0.24756 0.27105 0.80757
 O1607 O 0.30459 0.23633 0.76444
 O1608 O 0.30424 0.24831 0.73033
 Zr1609 Zr 0.28088 0.23400 0.74477
 O1610 O 0.26383 0.25148 0.72568
 Zr1611 Zr 0.26176 0.25581 0.78428
 O1612 O 0.24441 0.27461 0.76677
 Zr1613 Zr 0.24105 0.21600 0.76565
 O1614 O 0.22232 0.23306 0.74771
 Zr1615 Zr 0.25758 0.27857 0.73931
 O1616 O 0.27631 0.26189 0.75781
 Zr1617 Zr 0.23633 0.23884 0.72095
 O1618 O 0.25428 0.21998 0.73815
 Zr1619 Zr 0.21767 0.26099 0.76038
 O1620 O 0.23424 0.24287 0.77970
 O1621 O 0.26799 0.22852 0.77181
 O1622 O 0.23027 0.26641 0.73315
 C1623 C 0.27832 0.19007 0.75663
 C1624 C 0.30619 0.24450 0.78142
 C1625 C 0.25247 0.21923 0.80986
 C1626 C 0.22079 0.30479 0.74656
 C1627 C 0.24451 0.27584 0.69556
 C1628 C 0.19241 0.25232 0.72326
 H1629 H 0.27110 0.25329 0.71329
 H1630 H 0.20988 0.22599 0.74580
 H1631 H 0.27644 0.22023 0.78034
 H1632 H 0.24254 0.28733 0.77366
 H1633 H 0.28182 0.29999 0.75887
 H1634 H 0.27291 0.29150 0.78951
 H1635 H 0.21343 0.20879 0.71778
 H1636 H 0.23271 0.18928 0.74008
 H1637 H 0.28297 0.29894 0.71967
 H1638 H 0.31653 0.24055 0.73227
 H1639 H 0.18992 0.23723 0.76981
 H1640 H 0.20998 0.21524 0.78711
 H1641 H 0.28107 0.21118 0.71427
 H1642 H 0.26070 0.22965 0.69302
 H1643 H 0.23543 0.26382 0.81054
 H1644 H 0.21400 0.28513 0.78990
 O1645 O 0.20678 0.74948 0.28982
 O1646 O 0.22225 0.71916 0.29346
 O1647 O 0.25369 0.79073 0.29368
 O1648 O 0.28159 0.79683 0.27801
 O1649 O 0.21097 0.79533 0.24643
 O1650 O 0.20594 0.77793 0.21685
 O1651 O 0.30493 0.73904 0.24047
 O1652 O 0.30611 0.75103 0.27190
 O1653 O 0.26045 0.69636 0.23963
 O1654 O 0.22649 0.69553 0.24904
 O1655 O 0.26134 0.73973 0.19584
 O1656 O 0.25171 0.77406 0.19422
 O1657 O 0.29228 0.75350 0.21314
 O1658 O 0.27461 0.78568 0.20808
 O1659 O 0.24614 0.71316 0.20845
 O1660 O 0.21432 0.70954 0.22641
 O1661 O 0.28819 0.70890 0.25303
 O1662 O 0.28848 0.72447 0.28623
 O1663 O 0.19394 0.76347 0.26230
 O1664 O 0.19323 0.75300 0.22836
 O1665 O 0.23797 0.80791 0.26121
 O1666 O 0.27241 0.80690 0.24993
 O1667 O 0.23853 0.76415 0.30633
 O1668 O 0.25122 0.72996 0.30599
 Zr1669 Zr 0.23639 0.74438 0.28258
 O1670 O 0.25385 0.72506 0.26555
 Zr1671 Zr 0.25746 0.78372 0.26376
 O1672 O 0.27628 0.76597 0.24645
 Zr1673 Zr 0.21775 0.76534 0.24267
 O1674 O 0.23480 0.74727 0.22396
 Zr1675 Zr 0.28072 0.73837 0.25944
 O1676 O 0.26405 0.75712 0.27819
 Zr1677 Zr 0.24090 0.72049 0.23800
 O1678 O 0.22212 0.73784 0.25593
 Zr1679 Zr 0.26254 0.75967 0.21956
 O1680 O 0.24438 0.77916 0.23612
 O1681 O 0.23042 0.77149 0.26971
 O1682 O 0.26828 0.73234 0.23207
 C1683 C 0.19236 0.75664 0.27981
 C1684 C 0.24614 0.78125 0.30802
 C1685 C 0.22077 0.80970 0.25358
 C1686 C 0.30656 0.74577 0.22296
 C1687 C 0.27820 0.69467 0.24585
 C1688 C 0.25404 0.72248 0.19423
 H1689 H 0.25586 0.71262 0.27276
 H1690 H 0.22764 0.74540 0.21147
 H1691 H 0.22208 0.78017 0.27803
 H1692 H 0.28887 0.77277 0.24470
 H1693 H 0.30191 0.75752 0.28427
 H1694 H 0.29319 0.78839 0.27519
 H1695 H 0.21073 0.71754 0.21483
 H1696 H 0.19113 0.74001 0.23440
 H1697 H 0.30149 0.71798 0.28446
 H1698 H 0.24357 0.73194 0.31824
 H1699 H 0.23862 0.76868 0.19125
 H1700 H 0.21639 0.78611 0.21122
 H1701 H 0.21388 0.71410 0.28273
 H1702 H 0.23187 0.69282 0.26226
 H1703 H 0.26534 0.80973 0.23754
 H1704 H 0.28606 0.78918 0.21627
 O1705 O 0.24010 0.69174 0.76318
 O1706 O 0.27238 0.69003 0.75263
 O1707 O 0.24049 0.73819 0.80662
 O1708 O 0.24703 0.76994 0.80821
 O1709 O 0.19525 0.73707 0.76120
 O1710 O 0.19496 0.74594 0.72754
 O1711 O 0.29020 0.78886 0.75375
 O1712 O 0.29279 0.77477 0.78430
 O1713 O 0.29403 0.74233 0.71273
 O1714 O 0.27685 0.71162 0.70775
 O1715 O 0.24860 0.78478 0.70771
 O1716 O 0.21767 0.79106 0.72411
 O1717 O 0.26325 0.80145 0.73832
 O1718 O 0.22788 0.80327 0.74875
 O1719 O 0.26334 0.75720 0.69549
 O1720 O 0.25233 0.72222 0.69534
 O1721 O 0.30593 0.75890 0.73916
 O1722 O 0.30617 0.74405 0.77245
 O1723 O 0.21316 0.70438 0.74771
 O1724 O 0.20892 0.72065 0.71655
 O1725 O 0.20757 0.75254 0.78810
 O1726 O 0.22546 0.78388 0.79090
 O1727 O 0.25384 0.70981 0.79447
 O1728 O 0.28618 0.70719 0.77787
 Zr1729 Zr 0.25916 0.71576 0.76468
 O1730 O 0.27790 0.73190 0.74648
 Zr1731 Zr 0.23751 0.75641 0.78194
 O1732 O 0.25578 0.77421 0.76497
 Zr1733 Zr 0.21962 0.73408 0.74244
 O1734 O 0.23667 0.75134 0.72361
 Zr1735 Zr 0.28250 0.75966 0.75913
 O1736 O 0.26528 0.74285 0.77845
 Zr1737 Zr 0.26427 0.73779 0.71947
 O1738 O 0.24640 0.71946 0.73672
 Zr1739 Zr 0.24297 0.77834 0.73724
 O1740 O 0.22357 0.76212 0.75495
 O1741 O 0.23190 0.72897 0.76987
 O1742 O 0.27020 0.76524 0.73162
 C1743 C 0.22284 0.69012 0.75569
 C1744 C 0.24705 0.72050 0.80860
 C1745 C 0.19337 0.74512 0.77822
 C1746 C 0.28067 0.80299 0.74543
 C1747 C 0.30785 0.75104 0.72208
 C1748 C 0.25652 0.77481 0.69367
 H1749 H 0.29045 0.72458 0.74483
 H1750 H 0.22957 0.75317 0.71108
 H1751 H 0.22342 0.72099 0.77839
 H1752 H 0.25795 0.78676 0.77199
 H1753 H 0.28992 0.76635 0.79572
 H1754 H 0.25955 0.77639 0.80517
 H1755 H 0.24049 0.72950 0.69084
 H1756 H 0.21915 0.71110 0.71221
 H1757 H 0.31801 0.75233 0.77169
 H1758 H 0.28416 0.69499 0.78548
 H1759 H 0.21259 0.78150 0.71443
 H1760 H 0.19330 0.75963 0.73233
 H1761 H 0.26748 0.68878 0.73900
 H1762 H 0.28681 0.70679 0.71721
 H1763 H 0.21493 0.78728 0.78143
 H1764 H 0.23523 0.80795 0.76037
 O1765 O 0.30617 0.26394 0.26220
 O1766 O 0.30686 0.25269 0.23021
 O1767 O 0.26044 0.30806 0.26297
 O1768 O 0.22855 0.31016 0.25639
 O1769 O 0.26190 0.26263 0.30787
 O1770 O 0.25367 0.22916 0.30832
 O1771 O 0.20777 0.25480 0.21345
 O1772 O 0.22127 0.28564 0.21106
 O1773 O 0.25270 0.21341 0.20954
 O1774 O 0.28433 0.20821 0.22558
 O1775 O 0.21246 0.20971 0.25552
 O1776 O 0.20745 0.22691 0.28657
 O1777 O 0.19561 0.24056 0.24091
 O1778 O 0.19494 0.25143 0.27614
 O1779 O 0.23956 0.19693 0.24058
 O1780 O 0.27490 0.19641 0.25063
 O1781 O 0.23760 0.24065 0.19724
 O1782 O 0.25189 0.27401 0.19740
 O1783 O 0.29436 0.24885 0.28937
 O1784 O 0.27803 0.21774 0.29371
 O1785 O 0.24739 0.29030 0.29575
 O1786 O 0.21518 0.29315 0.27880
 O1787 O 0.28761 0.29540 0.24793
 O1788 O 0.28961 0.27779 0.21616
 Zr1789 Zr 0.28160 0.26545 0.24351
 O1790 O 0.26469 0.24735 0.22512
 Zr1791 Zr 0.24201 0.28372 0.26598
 O1792 O 0.22342 0.26689 0.24797
 Zr1793 Zr 0.26445 0.24385 0.28339
 O1794 O 0.24637 0.22521 0.26674
 Zr1795 Zr 0.23699 0.26052 0.22100
 O1796 O 0.25450 0.27971 0.23793
 Zr1797 Zr 0.25896 0.22060 0.23895
 O1798 O 0.27807 0.23766 0.25639
 Zr1799 Zr 0.21934 0.23930 0.26086
 O1800 O 0.23644 0.25688 0.27995
 O1801 O 0.26946 0.27113 0.27101
 O1802 O 0.23151 0.23321 0.23344
 C1803 C 0.30832 0.25657 0.27944
 C1804 C 0.27755 0.30977 0.25529
 C1805 C 0.25472 0.28008 0.30986
 C1806 C 0.19383 0.24698 0.22325
 C1807 C 0.24446 0.22305 0.19552
 C1808 C 0.22220 0.19540 0.24766
 H1809 H 0.27155 0.24543 0.21245
 H1810 H 0.24469 0.21278 0.27393
 H1811 H 0.27782 0.27962 0.27929
 H1812 H 0.21087 0.27408 0.24595
 H1813 H 0.22958 0.29712 0.21398
 H1814 H 0.22080 0.30685 0.24458
 H1815 H 0.26813 0.19218 0.26269
 H1816 H 0.28749 0.21343 0.28349
 H1817 H 0.24335 0.27334 0.18562
 H1818 H 0.30192 0.28522 0.21789
 H1819 H 0.21678 0.21668 0.29121
 H1820 H 0.23988 0.23365 0.30999
 H1821 H 0.30784 0.23897 0.23488
 H1822 H 0.28880 0.21747 0.21545
 H1823 H 0.21220 0.28376 0.28940
 H1824 H 0.19038 0.26326 0.26899
 O1825 O 0.78912 0.70515 0.24428
 O1826 O 0.79318 0.72047 0.21464
 O1827 O 0.79357 0.75244 0.28652
 O1828 O 0.77816 0.78075 0.29326
 O1829 O 0.74668 0.71055 0.29083
 O1830 O 0.71644 0.70665 0.27388
 O1831 O 0.74106 0.80468 0.23605
 O1832 O 0.77233 0.80520 0.24787
 O1833 O 0.73893 0.76034 0.19289
 O1834 O 0.74868 0.72579 0.19141
 O1835 O 0.69575 0.76204 0.23665
 O1836 O 0.69406 0.75317 0.27047
 O1837 O 0.71331 0.79270 0.24982
 O1838 O 0.70873 0.77561 0.28254
 O1839 O 0.70806 0.74648 0.20969
 O1840 O 0.72575 0.71435 0.20518
 O1841 O 0.75384 0.78725 0.20556
 O1842 O 0.78676 0.78688 0.22132
 O1843 O 0.76165 0.69314 0.25863
 O1844 O 0.72767 0.69329 0.24854
 O1845 O 0.76138 0.73751 0.30362
 O1846 O 0.74998 0.77227 0.30323
 O1847 O 0.80618 0.73674 0.25972
 O1848 O 0.80580 0.74922 0.22563
 Zr1849 Zr 0.78235 0.73505 0.24004
 O1850 O 0.76542 0.75283 0.22113
 Zr1851 Zr 0.76375 0.75688 0.27979
 O1852 O 0.74666 0.77608 0.26246
 Zr1853 Zr 0.74232 0.71752 0.26108
 O1854 O 0.72373 0.73499 0.24339
 Zr1855 Zr 0.75974 0.77995 0.23493
 O1856 O 0.77830 0.76290 0.25329
 Zr1857 Zr 0.73767 0.74064 0.21658
 O1858 O 0.75549 0.72147 0.23353
 Zr1859 Zr 0.71965 0.76296 0.25619
 O1860 O 0.73600 0.74443 0.27531
 O1861 O 0.76949 0.72959 0.26711
 O1862 O 0.73219 0.76826 0.22891
 C1863 C 0.77901 0.69105 0.25139
 C1864 C 0.80785 0.74443 0.27692
 C1865 C 0.75408 0.72028 0.30522
 C1866 C 0.72338 0.80667 0.24238
 C1867 C 0.74598 0.77769 0.19132
 C1868 C 0.69397 0.75473 0.21933
 H1869 H 0.77261 0.75459 0.20868
 H1870 H 0.71117 0.72813 0.24155
 H1871 H 0.77782 0.72105 0.27550
 H1872 H 0.74503 0.78880 0.26941
 H1873 H 0.78458 0.80074 0.25442
 H1874 H 0.77538 0.79242 0.28509
 H1875 H 0.71439 0.71089 0.21342
 H1876 H 0.73356 0.69102 0.23544
 H1877 H 0.78522 0.79990 0.21499
 H1878 H 0.81805 0.74140 0.22759
 H1879 H 0.69160 0.73963 0.26581
 H1880 H 0.71140 0.71713 0.28276
 H1881 H 0.78214 0.71295 0.20905
 H1882 H 0.76155 0.73148 0.18819
 H1883 H 0.73765 0.76534 0.30615
 H1884 H 0.71647 0.78746 0.28548
 O1885 O 0.70709 0.24736 0.78967
 O1886 O 0.72176 0.21656 0.79233
 O1887 O 0.75418 0.28780 0.79426
 O1888 O 0.78263 0.29325 0.77909
 O1889 O 0.71187 0.29395 0.74747
 O1890 O 0.70660 0.27746 0.71735
 O1891 O 0.80498 0.23651 0.73995
 O1892 O 0.80633 0.24748 0.77169
 O1893 O 0.75983 0.19445 0.73788
 O1894 O 0.72595 0.19381 0.74722
 O1895 O 0.76140 0.23899 0.69530
 O1896 O 0.75228 0.27352 0.69462
 O1897 O 0.79249 0.25149 0.71282
 O1898 O 0.77554 0.28429 0.70875
 O1899 O 0.74580 0.21231 0.70715
 O1900 O 0.71381 0.20882 0.72514
 O1901 O 0.78778 0.20626 0.75151
 O1902 O 0.78827 0.22087 0.78523
 O1903 O 0.69443 0.26206 0.76243
 O1904 O 0.69351 0.25240 0.72821
 O1905 O 0.73916 0.30577 0.76233
 O1906 O 0.77355 0.30452 0.75111
 O1907 O 0.73961 0.26062 0.80649
 O1908 O 0.75104 0.22610 0.80502
 Zr1909 Zr 0.73656 0.24169 0.78215
 O1910 O 0.75368 0.22255 0.76458
 Zr1911 Zr 0.75824 0.28121 0.76431
 O1912 O 0.77676 0.26361 0.74655
 Zr1913 Zr 0.71823 0.26399 0.74280
 O1914 O 0.73498 0.24616 0.72359
 Zr1915 Zr 0.78074 0.23561 0.75884
 O1916 O 0.76440 0.25414 0.77806
 Zr1917 Zr 0.74065 0.21892 0.73691
 O1918 O 0.72217 0.23609 0.75534
 Zr1919 Zr 0.76291 0.25824 0.71953
 O1920 O 0.74506 0.27758 0.73658
 O1921 O 0.73104 0.26920 0.76997
 O1922 O 0.76821 0.23051 0.73133
 C1923 C 0.69278 0.25501 0.77984
 C1924 C 0.74699 0.27780 0.80842
 C1925 C 0.72190 0.30799 0.75495
 C1926 C 0.80665 0.24339 0.72252
 C1927 C 0.77759 0.19237 0.74396
 C1928 C 0.75390 0.22189 0.69322
 H1929 H 0.75550 0.20988 0.77143
 H1930 H 0.72779 0.24474 0.71106
 H1931 H 0.72286 0.27781 0.77853
 H1932 H 0.78948 0.27023 0.74495
 H1933 H 0.80219 0.25379 0.78418
 H1934 H 0.79417 0.28502 0.77553
 H1935 H 0.71046 0.21705 0.71365
 H1936 H 0.69116 0.23932 0.73399
 H1937 H 0.80113 0.21413 0.78325
 H1938 H 0.74350 0.22792 0.81737
 H1939 H 0.73912 0.26841 0.69151
 H1940 H 0.71716 0.28569 0.71198
 H1941 H 0.71329 0.21198 0.78145
 H1942 H 0.73102 0.19092 0.76051
 H1943 H 0.76661 0.30767 0.73871
 H1944 H 0.78715 0.28724 0.71694
 C1945 C 0.06156 1.00651 1.13201
 C1946 C 0.07643 0.99258 1.13587
 C1947 C 0.08539 0.99235 1.15437
 C1948 C 0.07993 1.00620 1.16893
 C1949 C 0.06482 1.01999 1.16486
 C1950 C 0.05554 1.02016 1.14642
 C1951 C 0.05218 1.00684 1.11249
 C1952 C 0.03711 1.02059 1.10863
 C1953 C 0.02810 1.02065 1.09006
 C1954 C 0.03430 1.00724 1.07538
 C1955 C 0.04960 0.99372 1.07952
 C1956 C 0.05847 0.99335 1.09806
 C1957 C 0.04048 1.03379 1.14199
 C1958 C 0.03138 1.03395 1.12345
 C1959 C 0.08219 0.97921 1.12110
 C1960 C 0.07341 0.97964 1.10248
 H1961 H 0.03567 1.04440 1.15295
 H1962 H 0.01979 1.04466 1.12068
 H1963 H 0.09367 0.96840 1.12392
 H1964 H 0.07834 0.96913 1.09146
 H1965 H 0.09663 0.98135 1.15740
 H1966 H 0.06058 1.03082 1.17585
 H1967 H 0.01638 1.03114 1.08701
 H1968 H 0.05437 0.98321 1.06843
 C1969 C 0.56341 0.50733 0.63651
 C1970 C 0.55245 0.51345 0.65295
 C1971 C 0.56119 0.51284 0.67163
 C1972 C 0.58070 0.50604 0.67389
 C1973 C 0.59153 0.50028 0.65715
 C1974 C 0.58295 0.50082 0.63846
 C1975 C 0.55420 0.50749 0.61689
 C1976 C 0.56512 0.50112 0.60053
 C1977 C 0.55618 0.50088 0.58198
 C1978 C 0.53642 0.50690 0.57968
 C1979 C 0.52577 0.51350 0.59628
 C1980 C 0.53458 0.51376 0.61492
 C1981 C 0.59348 0.49479 0.62171
 C1982 C 0.58471 0.49493 0.60306
 C1983 C 0.53290 0.51980 0.65036
 C1984 C 0.52412 0.51996 0.63168
 H1985 H 0.60859 0.48978 0.62304
 H1986 H 0.59331 0.49003 0.59054
 H1987 H 0.52426 0.52458 0.66290
 H1988 H 0.50897 0.52486 0.63036
 H1989 H 0.55271 0.51720 0.68443
 H1990 H 0.60666 0.49539 0.65867
 H1991 H 0.56461 0.49584 0.56939
 H1992 H 0.51057 0.51817 0.59478
 C1993 C 0.44037 -0.00220 0.63241
 C1994 C 0.42195 0.00703 0.63470
 C1995 C 0.41278 0.00675 0.65305
 C1996 C 0.42179 -0.00280 0.66908
 C1997 C 0.44042 -0.01176 0.66662
 C1998 C 0.44976 -0.01154 0.64826
 C1999 C 0.44992 -0.00218 0.61301
 C2000 C 0.46831 -0.01145 0.61064
 C2001 C 0.47730 -0.01142 0.59211
 C2002 C 0.46796 -0.00223 0.57602
 C2003 C 0.44947 0.00696 0.57876
 C2004 C 0.44042 0.00705 0.59718
 C2005 C 0.46819 -0.02063 0.64534
 C2006 C 0.47731 -0.02058 0.62686
 C2007 C 0.41296 0.01621 0.61854
 C2008 C 0.42204 0.01621 0.60008
 H2009 H 0.47560 -0.02790 0.65742
 H2010 H 0.49151 -0.02779 0.62524
 H2011 H 0.39874 0.02338 0.62014
 H2012 H 0.41458 0.02340 0.58798
 H2013 H 0.39862 0.01399 0.65489
 H2014 H 0.44738 -0.01928 0.67882
 H2015 H 0.49151 -0.01856 0.59025
 H2016 H 0.44211 0.01414 0.56658
 C2017 C -0.06227 0.49900 1.13348
 C2018 C -0.07789 0.51206 1.13748
 C2019 C -0.08622 0.51237 1.15625
 C2020 C -0.07931 0.49946 1.17092
 C2021 C -0.06339 0.48665 1.16674
 C2022 C -0.05480 0.48638 1.14801
 C2023 C -0.05370 0.49838 1.11362
 C2024 C -0.03802 0.48538 1.10958
 C2025 C -0.02988 0.48494 1.09067
 C2026 C -0.03750 0.49724 1.07582
 C2027 C -0.05337 0.51005 1.08014
 C2028 C -0.06144 0.51077 1.09903
 C2029 C -0.03909 0.47354 1.14342
 C2030 C -0.03080 0.47310 1.12455
 C2031 C -0.08509 0.52438 1.12256
 C2032 C -0.07704 0.52371 1.10363
 H2033 H -0.03318 0.46373 1.15448
 H2034 H -0.01871 0.46299 1.12163
 H2035 H -0.09716 0.53452 1.12549
 H2036 H -0.08308 0.53338 1.09251
 H2037 H -0.09819 0.52256 1.15939
 H2038 H -0.05808 0.47652 1.17782
 H2039 H -0.01771 0.47498 1.08750
 H2040 H -0.05925 0.51970 1.06890
 C2041 C -0.06632 0.49840 0.36598
 C2042 C -0.08371 0.48812 0.36275
 C2043 C -0.09139 0.48691 0.34369
 C2044 C -0.08193 0.49598 0.32766
 C2045 C -0.06436 0.50628 0.33143
 C2046 C -0.05654 0.50748 0.35046
 C2047 C -0.05813 0.49959 0.38600
 C2048 C -0.04055 0.50964 0.38919
 C2049 C -0.03258 0.51034 0.40817
 C2050 C -0.04205 0.50104 0.42393
 C2051 C -0.05989 0.49133 0.42047
 C2052 C -0.06793 0.49049 0.40153
 C2053 C -0.03903 0.51751 0.35426
 C2054 C -0.03117 0.51856 0.37329
 C2055 C -0.09319 0.47933 0.37868
 C2056 C -0.08544 0.48049 0.39774
 H2057 H -0.03131 0.52458 0.34240
 H2058 H -0.01759 0.52637 0.37555
 H2059 H -0.10670 0.47140 0.37639
 H2060 H -0.09316 0.47341 0.40959
 H2061 H -0.10527 0.47961 0.34173
 H2062 H -0.05621 0.51280 0.31958
 H2063 H -0.01889 0.51791 0.41058
 H2064 H -0.06733 0.48408 0.43240
 C2065 C 0.43214 1.00517 -0.13604
 C2066 C 0.41329 0.99753 -0.13867
 C2067 C 0.40550 0.99619 -0.15765
 C2068 C 0.41644 1.00230 -0.17401
 C2069 C 0.43522 1.01023 -0.17108
 C2070 C 0.44317 1.01163 -0.15210
 C2071 C 0.44061 1.00612 -0.11613
 C2072 C 0.45959 1.01343 -0.11351
 C2073 C 0.46781 1.01370 -0.09461
 C2074 C 0.45723 1.00657 -0.07842
 C2075 C 0.43804 0.99964 -0.08133
 C2076 C 0.42969 0.99933 -0.10014
 C2077 C 0.46203 1.01911 -0.14886
 C2078 C 0.47010 1.01999 -0.12989
 C2079 C 0.40268 0.99118 -0.12228
 C2080 C 0.41075 0.99205 -0.10334
 H2081 H 0.47069 1.02417 -0.16110
 H2082 H 0.48476 1.02570 -0.12806
 H2083 H 0.38809 0.98530 -0.12414
 H2084 H 0.40216 0.98682 -0.09112
 H2085 H 0.39088 0.99043 -0.15971
 H2086 H 0.44378 1.01485 -0.18357
 H2087 H 0.48258 1.01909 -0.09263
 H2088 H 0.42968 0.99417 -0.06904
 C2089 C 0.56501 0.49912 -0.13131
 C2090 C 0.58246 0.50949 -0.13385
 C2091 C 0.59083 0.51040 -0.15257
 C2092 C 0.58199 0.50090 -0.16870
 C2093 C 0.56434 0.49074 -0.16593
 C2094 C 0.55580 0.48978 -0.14722
 C2095 C 0.55622 0.49803 -0.11158
 C2096 C 0.53871 0.48774 -0.10901
 C2097 C 0.53027 0.48700 -0.09027
 C2098 C 0.53922 0.49648 -0.07415
 C2099 C 0.55695 0.50650 -0.07703
 C2100 C 0.56546 0.50738 -0.09570
 C2101 C 0.53833 0.47955 -0.14405
 C2102 C 0.52992 0.47856 -0.12528
 C2103 C 0.59128 0.51866 -0.11761
 C2104 C 0.58293 0.51760 -0.09885
 H2105 H 0.53108 0.47225 -0.15619
 H2106 H 0.51641 0.47057 -0.12348
 H2107 H 0.60477 0.52669 -0.11941
 H2108 H 0.59018 0.52490 -0.08672
 H2109 H 0.60424 0.51853 -0.15460
 H2110 H 0.55754 0.48322 -0.17819
 H2111 H 0.51665 0.47921 -0.08830
 H2112 H 0.56399 0.51391 -0.06483
 C2113 C 0.06457 -0.00002 0.36255
 C2114 C 0.05988 -0.01477 0.34887
 C2115 C 0.06750 -0.01377 0.32981
 C2116 C 0.07946 0.00197 0.32436
 C2117 C 0.08364 0.01689 0.33809
 C2118 C 0.07641 0.01584 0.35732
 C2119 C 0.05713 -0.00134 0.38280
 C2120 C 0.06223 0.01312 0.39664
 C2121 C 0.05512 0.01177 0.41589
 C2122 C 0.04266 -0.00366 0.42118
 C2123 C 0.03772 -0.01803 0.40711
 C2124 C 0.04505 -0.01704 0.38794
 C2125 C 0.08106 0.03012 0.37152
 C2126 C 0.07415 0.02874 0.39086
 C2127 C 0.04786 -0.03032 0.35460
 C2128 C 0.04048 -0.03138 0.37378
 H2129 H 0.09022 0.04239 0.36768
 H2130 H 0.07813 0.04003 0.40137
 H2131 H 0.04412 -0.04176 0.34417
 H2132 H 0.03120 -0.04357 0.37758
 H2133 H 0.06428 -0.02525 0.31923
 H2134 H 0.09309 0.02887 0.33398
 H2135 H 0.05881 0.02299 0.42659
 H2136 H 0.02821 -0.03001 0.41110
 C2137 C 0.12799 1.06491 1.00445
 C2138 C 0.13045 1.08310 0.99525
 C2139 C 0.14910 1.09145 0.99493
 C2140 C 0.16523 1.08188 1.00389
 C2141 C 0.16255 1.06352 1.01288
 C2142 C 0.14391 1.05497 1.01323
 C2143 C 0.10833 1.05613 1.00491
 C2144 C 0.10582 1.03790 1.01404
 C2145 C 0.08713 1.02950 1.01420
 C2146 C 0.07101 1.03922 1.00529
 C2147 C 0.07384 1.05764 0.99642
 C2148 C 0.09245 1.06611 0.99613
 C2149 C 0.14081 1.03678 1.02229
 C2150 C 0.12210 1.02838 1.02267
 C2151 C 0.11421 1.09264 0.98662
 C2152 C 0.09552 1.08429 0.98707
 H2153 H 0.15295 1.02896 1.02914
 H2154 H 0.12036 1.01430 1.02977
 H2155 H 0.11595 1.10669 0.97948
 H2156 H 0.08337 1.09212 0.98024
 H2157 H 0.15106 1.10542 0.98767
 H2158 H 0.17483 1.05613 1.01996
 H2159 H 0.08520 1.01534 1.02109
 H2160 H 0.06164 1.06530 0.98949
 C2161 C 0.63079 0.56406 0.50162
 C2162 C 0.63305 0.58171 0.49137
 C2163 C 0.65161 0.59022 0.49049
 C2164 C 0.66787 0.58133 0.49992
 C2165 C 0.66539 0.56347 0.50994
 C2166 C 0.64684 0.55479 0.51087
 C2167 C 0.61120 0.55519 0.50278
 C2168 C 0.60889 0.53755 0.51305
 C2169 C 0.59024 0.52914 0.51403
 C2170 C 0.57394 0.53827 0.50484
 C2171 C 0.57658 0.55604 0.49471
 C2172 C 0.59516 0.56453 0.49360
 C2173 C 0.64395 0.53715 0.52102
 C2174 C 0.62530 0.52867 0.52208
 C2175 C 0.61667 0.59058 0.48231
 C2176 C 0.59804 0.58214 0.48342
 H2177 H 0.65619 0.52985 0.52824
 H2178 H 0.62372 0.51506 0.53005
 H2179 H 0.61824 0.60421 0.47435
 H2180 H 0.58578 0.58948 0.47625
 H2181 H 0.65342 0.60378 0.48247
 H2182 H 0.67775 0.55662 0.51739
 H2183 H 0.58846 0.51548 0.52189
 H2184 H 0.56424 0.56323 0.48752
 C2185 C 0.63524 0.43743 -0.00147
 C2186 C 0.63757 0.41776 0.00429
 C2187 C 0.65649 0.40952 0.00540
 C2188 C 0.67307 0.42080 0.00092
 C2189 C 0.67045 0.44048 -0.00500
 C2190 C 0.65153 0.44888 -0.00619
 C2191 C 0.61534 0.44622 -0.00242
 C2192 C 0.61297 0.46594 -0.00800
 C2193 C 0.59404 0.47435 -0.00845
 C2194 C 0.57757 0.46320 -0.00320
 C2195 C 0.58028 0.44334 0.00209
 C2196 C 0.59911 0.43480 0.00252
 C2197 C 0.64856 0.46853 -0.01186
 C2198 C 0.62961 0.47691 -0.01276
 C2199 C 0.62095 0.40673 0.00889
 C2200 C 0.60204 0.41511 0.00804
 H2201 H 0.66099 0.47754 -0.01556
 H2202 H 0.62799 0.49214 -0.01710
 H2203 H 0.62258 0.39152 0.01331
 H2204 H 0.58961 0.40614 0.01185
 H2205 H 0.65828 0.39425 0.00955
 H2206 H 0.68311 0.44931 -0.00838
 H2207 H 0.59221 0.48965 -0.01251
 H2208 H 0.56777 0.43454 0.00607
 C2209 C 0.14140 -0.06482 0.49572
 C2210 C 0.15755 -0.05375 0.48975
 C2211 C 0.17651 -0.06205 0.49105
 C2212 C 0.17931 -0.08121 0.49839
 C2213 C 0.16287 -0.09214 0.50408
 C2214 C 0.14391 -0.08402 0.50281
 C2215 C 0.12147 -0.05610 0.49471
 C2216 C 0.10539 -0.06714 0.50085
 C2217 C 0.08653 -0.05867 0.50028
 C2218 C 0.08363 -0.03923 0.49369
 C2219 C 0.09996 -0.02845 0.48733
 C2220 C 0.11892 -0.03681 0.48785
 C2221 C 0.12744 -0.09468 0.50863
 C2222 C 0.10849 -0.08638 0.50767
 C2223 C 0.15439 -0.03454 0.48281
 C2224 C 0.13541 -0.02622 0.48188
 H2225 H 0.12921 -0.10953 0.51409
 H2226 H 0.09619 -0.09506 0.51242
 H2227 H 0.16671 -0.02583 0.47815
 H2228 H 0.13366 -0.01133 0.47654
 H2229 H 0.18908 -0.05350 0.48674
 H2230 H 0.16483 -0.10703 0.50938
 H2231 H 0.07417 -0.06720 0.50518
 H2232 H 0.09798 -0.01349 0.48223
 C2233 C 0.37329 -0.06324 0.50269
 C2234 C 0.35742 -0.05372 0.51206
 C2235 C 0.33899 -0.06269 0.51207
 C2236 C 0.33644 -0.08108 0.50283
 C2237 C 0.35251 -0.09026 0.49329
 C2238 C 0.37096 -0.08146 0.49325
 C2239 C 0.39274 -0.05402 0.50282
 C2240 C 0.40859 -0.06363 0.49353
 C2241 C 0.42706 -0.05483 0.49369
 C2242 C 0.42977 -0.03649 0.50299
 C2243 C 0.41366 -0.02707 0.51227
 C2244 C 0.39512 -0.03580 0.51225
 C2245 C 0.38715 -0.09059 0.48404
 C2246 C 0.40566 -0.08183 0.48420
 C2247 C 0.36038 -0.03549 0.52136
 C2248 C 0.37890 -0.02668 0.52143
 H2249 H 0.38551 -0.10465 0.47671
 H2250 H 0.41778 -0.08937 0.47696
 H2251 H 0.34827 -0.02798 0.52866
 H2252 H 0.38053 -0.01262 0.52877
 H2253 H 0.32678 -0.05561 0.51960
 H2254 H 0.35063 -0.10423 0.48584
 H2255 H 0.43926 -0.06225 0.48644
 H2256 H 0.41551 -0.01299 0.51951
 C2257 C -0.13293 0.43533 1.00075
 C2258 C -0.14893 0.44476 1.00998
 C2259 C -0.16737 0.43583 1.00954
 C2260 C -0.16984 0.41759 0.99998
 C2261 C -0.15362 0.40848 0.99063
 C2262 C -0.13514 0.41724 0.99103
 C2263 C -0.11347 0.44453 1.00132
 C2264 C -0.09748 0.43505 0.99214
 C2265 C -0.07903 0.44388 0.99266
 C2266 C -0.07647 0.46214 1.00219
 C2267 C -0.09271 0.47139 1.01139
 C2268 C -0.11124 0.46264 1.01101
 C2269 C -0.11881 0.40822 0.98197
 C2270 C -0.10029 0.41697 0.98253
 C2271 C -0.14611 0.46285 1.01957
 C2272 C -0.12759 0.47165 1.02006
 H2273 H -0.12033 0.39426 0.97442
 H2274 H -0.08806 0.40952 0.97538
 H2275 H -0.15833 0.47028 1.02677
 H2276 H -0.12607 0.48562 1.02760
 H2277 H -0.17967 0.44284 1.01699
 H2278 H -0.15541 0.39460 0.98297
 H2279 H -0.06673 0.43659 0.98546
 H2280 H -0.09100 0.48541 1.01880
 C2281 C -0.13727 0.56327 0.49166
 C2282 C -0.15359 0.55235 0.48566
 C2283 C -0.17239 0.56109 0.48647
 C2284 C -0.17487 0.58055 0.49337
 C2285 C -0.15824 0.59135 0.49898
 C2286 C -0.13945 0.58278 0.49823
 C2287 C -0.11755 0.55402 0.49140
 C2288 C -0.10132 0.56486 0.49774
 C2289 C -0.08271 0.55582 0.49807
 C2290 C -0.08022 0.53602 0.49221
 C2291 C -0.09666 0.52549 0.48552
 C2292 C -0.11537 0.53440 0.48517
 C2293 C -0.12281 0.59326 0.50415
 C2294 C -0.10407 0.58444 0.50392
 C2295 C -0.15079 0.53283 0.47928
 C2296 C -0.13201 0.52401 0.47903
 H2297 H -0.12432 0.60834 0.50919
 H2298 H -0.09165 0.59298 0.50879
 H2299 H -0.16323 0.52423 0.47458
 H2300 H -0.13052 0.50887 0.47416
 H2301 H -0.18510 0.55264 0.48223
 H2302 H -0.15995 0.60645 0.50394
 H2303 H -0.07023 0.56416 0.50316
 H2304 H -0.09500 0.51026 0.48097
 C2305 C 0.36077 1.06564 -0.00769
 C2306 C 0.35847 1.08498 -0.00070
 C2307 C 0.33958 1.09322 0.00074
 C2308 C 0.32298 1.08224 -0.00460
 C2309 C 0.32558 1.06297 -0.01195
 C2310 C 0.34447 1.05456 -0.01345
 C2311 C 0.38061 1.05670 -0.00863
 C2312 C 0.38291 1.03723 -0.01526
 C2313 C 0.40173 1.02857 -0.01548
 C2314 C 0.41817 1.03921 -0.00896
 C2315 C 0.41557 1.05888 -0.00273
 C2316 C 0.39683 1.06766 -0.00249
 C2317 C 0.34740 1.03521 -0.02028
 C2318 C 0.36629 1.02669 -0.02117
 C2319 C 0.37509 1.09561 0.00498
 C2320 C 0.39395 1.08709 0.00411
 H2321 H 0.33497 1.02650 -0.02480
 H2322 H 0.36787 1.01166 -0.02635
 H2323 H 0.37349 1.11058 0.01035
 H2324 H 0.40636 1.09573 0.00884
 H2325 H 0.33777 1.10820 0.00604
 H2326 H 0.31290 1.05439 -0.01598
 H2327 H 0.40347 1.01344 -0.02032
 H2328 H 0.42804 1.06728 0.00225
 C2329 C 0.00046 1.13689 1.06206
 C2330 C 0.01203 1.15149 1.05361
 C2331 C 0.01175 1.17049 1.06178
 C2332 C -0.00016 1.17493 1.07815
 C2333 C -0.01176 1.16010 1.08634
 C2334 C -0.01144 1.14104 1.07841
 C2335 C 0.00078 1.11685 1.05363
 C2336 C -0.01070 1.10224 1.06218
 C2337 C -0.01052 1.08328 1.05400
 C2338 C 0.00084 1.07892 1.03720
 C2339 C 0.01239 1.09376 1.02891
 C2340 C 0.01245 1.11274 1.03710
 C2341 C -0.02270 1.12602 1.08658
 C2342 C -0.02231 1.10694 1.07862
 C2343 C 0.02366 1.14677 1.03717
 C2344 C 0.02382 1.12774 1.02903
 H2345 H -0.03190 1.12904 1.09924
 H2346 H -0.03125 1.09579 1.08535
 H2347 H 0.03265 1.15789 1.03050
 H2348 H 0.03292 1.12475 1.01630
 H2349 H 0.02063 1.18186 1.05534
 H2350 H -0.02070 1.16331 1.09914
 H2351 H -0.01956 1.07206 1.06047
 H2352 H 0.02127 1.09059 1.01605
 C2353 C 0.49789 0.63676 0.56376
 C2354 C 0.50694 0.65214 0.55371
 C2355 C 0.50632 0.67116 0.56180
 C2356 C 0.49673 0.67482 0.57979
 C2357 C 0.48760 0.65922 0.58956
 C2358 C 0.48818 0.64016 0.58164
 C2359 C 0.49869 0.61669 0.55545
 C2360 C 0.48976 0.60129 0.56557
 C2361 C 0.49049 0.58225 0.55758
 C2362 C 0.50001 0.57854 0.53953
 C2363 C 0.50897 0.59421 0.52965
 C2364 C 0.50837 0.61329 0.53756
 C2365 C 0.47940 0.62438 0.59133
 C2366 C 0.48018 0.60528 0.58344
 C2367 C 0.51650 0.64815 0.53584
 C2368 C 0.51719 0.62906 0.52789
 H2369 H 0.47189 0.62682 0.60516
 H2370 H 0.47322 0.59353 0.59138
 H2371 H 0.52353 0.65989 0.52794
 H2372 H 0.52470 0.62663 0.51406
 H2373 H 0.51324 0.68310 0.55410
 H2374 H 0.48046 0.66183 0.60357
 H2375 H 0.48349 0.57039 0.56533
 H2376 H 0.51638 0.59161 0.51579
 C2377 C -0.00552 0.63012 0.43549
 C2378 C -0.01435 0.64637 0.44495
 C2379 C -0.01307 0.66505 0.43639
 C2380 C -0.00307 0.66746 0.41849
 C2381 C 0.00594 0.65098 0.40942
 C2382 C 0.00468 0.63230 0.41778
 C2383 C -0.00695 0.61043 0.44429
 C2384 C 0.00190 0.59423 0.43479
 C2385 C 0.00077 0.57560 0.44332
 C2386 C -0.00897 0.57307 0.46136
 C2387 C -0.01799 0.58950 0.47057
 C2388 C -0.01701 0.60822 0.46208
 C2389 C 0.01333 0.61573 0.40871
 C2390 C 0.01195 0.59701 0.41706
 C2391 C -0.02441 0.64356 0.46269
 C2392 C -0.02569 0.62482 0.47112
 H2393 H 0.02122 0.61724 0.39502
 H2394 H 0.01886 0.58462 0.40960
 H2395 H -0.03132 0.65595 0.47014
 H2396 H -0.03351 0.62332 0.48485
 H2397 H -0.02022 0.67758 0.44339
 H2398 H 0.01397 0.65270 0.39583
 H2399 H 0.00783 0.56317 0.43606
 H2400 H -0.02554 0.58780 0.48442
 C2401 C 0.49415 1.13375 -0.06525
 C2402 C 0.48544 1.14988 -0.05547
 C2403 C 0.48680 1.16869 -0.06368
 C2404 C 0.49676 1.17136 -0.08157
 C2405 C 0.50565 1.15501 -0.09097
 C2406 C 0.50431 1.13619 -0.08294
 C2407 C 0.49263 1.11391 -0.05681
 C2408 C 0.50138 1.09783 -0.06661
 C2409 C 0.50018 1.07906 -0.05840
 C2410 C 0.49045 1.07627 -0.04040
 C2411 C 0.48152 1.09259 -0.03091
 C2412 C 0.48259 1.11144 -0.03905
 C2413 C 0.51286 1.11974 -0.09233
 C2414 C 0.51140 1.10087 -0.08431
 C2415 C 0.47540 1.14680 -0.03777
 C2416 C 0.47402 1.12792 -0.02969
 H2417 H 0.52072 1.12145 -0.10601
 H2418 H 0.51823 1.08858 -0.09200
 H2419 H 0.46858 1.15909 -0.03008
 H2420 H 0.46622 1.12621 -0.01598
 H2421 H 0.47976 1.18114 -0.05643
 H2422 H 0.51362 1.15694 -0.10456
 H2423 H 0.50716 1.06671 -0.06587
 H2424 H 0.47397 1.09070 -0.01707
 C2425 C 0.50957 0.36730 -0.06361
 C2426 C 0.50283 0.36520 -0.08297
 C2427 C 0.50163 0.34635 -0.09122
 C2428 C 0.50692 0.32960 -0.08023
 C2429 C 0.51404 0.33199 -0.06094
 C2430 C 0.51531 0.35085 -0.05252
 C2431 C 0.51021 0.38709 -0.05465
 C2432 C 0.51655 0.38920 -0.03514
 C2433 C 0.51642 0.40797 -0.02646
 C2434 C 0.50980 0.42454 -0.03709
 C2435 C 0.50391 0.42213 -0.05681
 C2436 C 0.50403 0.40346 -0.06562
 C2437 C 0.52187 0.35358 -0.03313
 C2438 C 0.52249 0.37243 -0.02460
 C2439 C 0.49714 0.38197 -0.09362
 C2440 C 0.49772 0.40078 -0.08508
 H2441 H 0.52639 0.34104 -0.02442
 H2442 H 0.52744 0.37386 -0.00955
 H2443 H 0.49198 0.38052 -0.10860
 H2444 H 0.49298 0.41330 -0.09372
 H2445 H 0.49652 0.34470 -0.10621
 H2446 H 0.51806 0.31920 -0.05234
 H2447 H 0.52099 0.40956 -0.01130
 H2448 H 0.49887 0.43471 -0.06521
 C2449 C 0.00891 -0.13658 0.43405
 C2450 C 0.00154 -0.13884 0.41494
 C2451 C 0.00009 -0.15776 0.40689
 C2452 C 0.00579 -0.17442 0.41784
 C2453 C 0.01343 -0.17186 0.43691
 C2454 C 0.01497 -0.15295 0.44511
 C2455 C 0.01005 -0.11670 0.44274
 C2456 C 0.01719 -0.11444 0.46194
 C2457 C 0.01778 -0.09556 0.47031
 C2458 C 0.01113 -0.07900 0.45967
 C2459 C 0.00428 -0.08158 0.44030
 C2460 C 0.00369 -0.10039 0.43178
 C2461 C 0.02222 -0.15006 0.46422
 C2462 C 0.02332 -0.13114 0.47249
 C2463 C -0.00442 -0.12214 0.40432
 C2464 C -0.00338 -0.10324 0.41260
 H2465 H 0.02697 -0.16254 0.47291
 H2466 H 0.02888 -0.12958 0.48732
 H2467 H -0.01009 -0.12371 0.38953
 H2468 H -0.00828 -0.09077 0.40397
 H2469 H -0.00542 -0.15951 0.39206
 H2470 H 0.01774 -0.18458 0.44549
 H2471 H 0.02307 -0.09384 0.48523
 H2472 H -0.00081 -0.06902 0.43189
 C2473 C 0.50403 -0.13236 0.56272
 C2474 C 0.51728 -0.13644 0.57801
 C2475 C 0.51717 -0.15498 0.58681
 C2476 C 0.50369 -0.16934 0.58070
 C2477 C 0.49063 -0.16504 0.56518
 C2478 C 0.49077 -0.14658 0.55611
 C2479 C 0.50391 -0.11276 0.55361
 C2480 C 0.49070 -0.10868 0.53827
 C2481 C 0.49065 -0.09000 0.52966
 C2482 C 0.50354 -0.07540 0.53646
 C2483 C 0.51660 -0.07977 0.55194
 C2484 C 0.51693 -0.09845 0.56048
 C2485 C 0.47776 -0.14194 0.54074
 C2486 C 0.47777 -0.12333 0.53193
 C2487 C 0.53024 -0.12182 0.58434
 C2488 C 0.53002 -0.10312 0.57576
 H2489 H 0.46746 -0.15277 0.53549
 H2490 H 0.46749 -0.12035 0.52012
 H2491 H 0.54053 -0.12480 0.59613
 H2492 H 0.54018 -0.09222 0.58116
 H2493 H 0.52755 -0.15821 0.59847
 H2494 H 0.48004 -0.17585 0.56049
 H2495 H 0.48047 -0.08678 0.51783
 H2496 H 0.52667 -0.06871 0.55720
 C2497 C 0.00058 0.36735 1.06244
 C2498 C 0.01098 0.36495 1.08004
 C2499 C 0.01148 0.34652 1.08905
 C2500 C 0.00146 0.33029 1.08084
 C2501 C -0.00866 0.33310 1.06283
 C2502 C -0.00918 0.35155 1.05367
 C2503 C -0.00016 0.38684 1.05307
 C2504 C -0.01063 0.38933 1.03546
 C2505 C -0.01132 0.40795 1.02666
 C2506 C -0.00168 0.42401 1.03541
 C2507 C 0.00873 0.42114 1.05311
 C2508 C 0.00956 0.40263 1.06195
 C2509 C -0.01951 0.35459 1.03603
 C2510 C -0.02020 0.37315 1.02708
 C2511 C 0.02068 0.38107 1.08839
 C2512 C 0.01995 0.39961 1.07951
 H2513 H -0.02715 0.34254 1.02909
 H2514 H -0.02834 0.37484 1.01350
 H2515 H 0.02881 0.37939 1.10197
 H2516 H 0.02755 0.41167 1.08649
 H2517 H 0.02030 0.34490 1.10217
 H2518 H -0.01699 0.32134 1.05626
 H2519 H -0.01940 0.40992 1.01307
 H2520 H 0.01629 0.43328 1.06001
 C2521 C 0.75508 0.31283 0.11632
 C2522 C 0.75845 0.30153 0.09936
 C2523 C 0.75797 0.31068 0.08093
 C2524 C 0.75440 0.33126 0.07914
 C2525 C 0.75099 0.34213 0.09676
 C2526 C 0.75129 0.33306 0.11515
 C2527 C 0.75544 0.30328 0.13572
 C2528 C 0.75171 0.31460 0.15264
 C2529 C 0.75181 0.30545 0.17100
 C2530 C 0.75571 0.28512 0.17259
 C2531 C 0.75964 0.27401 0.15545
 C2532 C 0.75940 0.28302 0.13695
 C2533 C 0.74767 0.34392 0.13243
 C2534 C 0.74786 0.33484 0.15086
 C2535 C 0.76240 0.28127 0.10118
 C2536 C 0.76290 0.27218 0.11965
 H2537 H 0.74466 0.35958 0.13172
 H2538 H 0.74496 0.34374 0.16380
 H2539 H 0.76511 0.27234 0.08822
 H2540 H 0.76597 0.25653 0.12037
 H2541 H 0.76149 0.30166 0.06826
 H2542 H 0.74694 0.35755 0.09646
 H2543 H 0.74887 0.31421 0.18405
 H2544 H 0.76258 0.25835 0.15644
 C2545 C 0.25813 0.81136 0.61756
 C2546 C 0.26711 0.80153 0.60168
 C2547 C 0.26732 0.81059 0.58320
 C2548 C 0.25865 0.82936 0.58062
 C2549 C 0.24948 0.83881 0.59672
 C2550 C 0.24927 0.82994 0.61520
 C2551 C 0.25802 0.80204 0.63705
 C2552 C 0.24907 0.81194 0.65288
 C2553 C 0.24890 0.80304 0.67135
 C2554 C 0.25749 0.78427 0.67413
 C2555 C 0.26651 0.77457 0.65806
 C2556 C 0.26681 0.78342 0.63948
 C2557 C 0.24042 0.83937 0.63139
 C2558 C 0.24035 0.83053 0.64992
 C2559 C 0.27582 0.78292 0.60468
 C2560 C 0.27565 0.77402 0.62324
 H2561 H 0.23354 0.85372 0.62973
 H2562 H 0.23338 0.83830 0.66203
 H2563 H 0.28282 0.77517 0.59257
 H2564 H 0.28250 0.75965 0.62489
 H2565 H 0.27454 0.80326 0.57096
 H2566 H 0.24244 0.85306 0.59484
 H2567 H 0.24188 0.81071 0.68350
 H2568 H 0.27318 0.76015 0.65995
 C2569 C 0.74695 0.68722 0.61428
 C2570 C 0.75633 0.66893 0.61140
 C2571 C 0.75623 0.66033 0.59268
 C2572 C 0.74668 0.66975 0.57688
 C2573 C 0.73755 0.68824 0.57997
 C2574 C 0.73762 0.69703 0.59869
 C2575 C 0.74682 0.69620 0.63405
 C2576 C 0.73743 0.71448 0.63700
 C2577 C 0.73740 0.72297 0.65584
 C2578 C 0.74663 0.71324 0.67168
 C2579 C 0.75588 0.69483 0.66838
 C2580 C 0.75606 0.68629 0.64962
 C2581 C 0.72838 0.71532 0.60220
 C2582 C 0.72830 0.72391 0.62103
 C2583 C 0.76551 0.65952 0.62733
 C2584 C 0.76535 0.66804 0.64613
 H2585 H 0.72111 0.72306 0.59032
 H2586 H 0.72101 0.73803 0.62309
 H2587 H 0.77280 0.64539 0.62526
 H2588 H 0.77256 0.66027 0.65803
 H2589 H 0.76361 0.64628 0.59040
 H2590 H 0.73003 0.69553 0.56795
 H2591 H 0.73022 0.73711 0.65814
 H2592 H 0.76311 0.68718 0.68036
 C2593 C 0.24240 0.18593 0.11929
 C2594 C 0.24763 0.16604 0.11750
 C2595 C 0.24772 0.15716 0.09890
 C2596 C 0.24261 0.16787 0.08171
 C2597 C 0.23758 0.18812 0.08412
 C2598 C 0.23736 0.19708 0.10276
 C2599 C 0.24237 0.19532 0.13888
 C2600 C 0.23709 0.21526 0.14071
 C2601 C 0.23737 0.22418 0.15933
 C2602 C 0.24310 0.21333 0.17603
 C2603 C 0.24815 0.19326 0.17389
 C2604 C 0.24780 0.18420 0.15536
 C2605 C 0.23204 0.21700 0.10520
 C2606 C 0.23189 0.22593 0.12384
 C2607 C 0.25288 0.15535 0.13435
 C2608 C 0.25297 0.16428 0.15297
 H2609 H 0.22801 0.22579 0.09257
 H2610 H 0.22777 0.24133 0.12504
 H2611 H 0.25700 0.13995 0.13316
 H2612 H 0.25718 0.15553 0.16557
 H2613 H 0.25292 0.14209 0.09807
 H2614 H 0.23275 0.19695 0.07185
 H2615 H 0.23350 0.23964 0.16074
 H2616 H 0.25248 0.18470 0.18658
 C2617 C 0.25020 0.18517 0.88709
 C2618 C 0.24287 0.16615 0.88936
 C2619 C 0.24160 0.15821 0.90822
 C2620 C 0.24747 0.16917 0.92481
 C2621 C 0.25499 0.18816 0.92224
 C2622 C 0.25635 0.19626 0.90339
 C2623 C 0.25129 0.19369 0.86727
 C2624 C 0.25844 0.21278 0.86498
 C2625 C 0.25909 0.22095 0.84614
 C2626 C 0.25256 0.21020 0.82964
 C2627 C 0.24564 0.19096 0.83226
 C2628 C 0.24495 0.18265 0.85102
 C2629 C 0.26356 0.21527 0.90049
 C2630 C 0.26459 0.22338 0.88161
 C2631 C 0.23686 0.15548 0.87273
 C2632 C 0.23787 0.16360 0.85389
 H2633 H 0.26836 0.22398 0.91292
 H2634 H 0.27015 0.23813 0.88004
 H2635 H 0.23122 0.14076 0.87431
 H2636 H 0.23297 0.15492 0.84147
 H2637 H 0.23616 0.14343 0.90998
 H2638 H 0.25943 0.19674 0.93491
 H2639 H 0.26445 0.23576 0.84440
 H2640 H 0.24060 0.18248 0.81974
 C2641 C 0.75285 0.68501 0.38193
 C2642 C 0.75909 0.69588 0.39834
 C2643 C 0.75799 0.68747 0.41708
 C2644 C 0.75059 0.66839 0.41943
 C2645 C 0.74465 0.65765 0.40273
 C2646 C 0.74568 0.66590 0.38398
 C2647 C 0.75363 0.69387 0.36225
 C2648 C 0.74717 0.68305 0.34590
 C2649 C 0.74757 0.69167 0.32727
 C2650 C 0.75433 0.71100 0.32488
 C2651 C 0.76098 0.72154 0.34147
 C2652 C 0.76060 0.71305 0.36019
 C2653 C 0.73956 0.65545 0.36725
 C2654 C 0.74028 0.66389 0.34853
 C2655 C 0.76613 0.71499 0.39567
 C2656 C 0.76688 0.72343 0.37692
 H2657 H 0.73404 0.64067 0.36866
 H2658 H 0.73530 0.65538 0.33603
 H2659 H 0.77101 0.72354 0.40818
 H2660 H 0.77231 0.73824 0.37552
 H2661 H 0.76247 0.69590 0.42983
 H2662 H 0.73930 0.64282 0.40432
 H2663 H 0.74248 0.68335 0.31468
 H2664 H 0.76622 0.73641 0.33990
 C2665 C 0.24926 0.81594 0.38538
 C2666 C 0.24277 0.80516 0.40159
 C2667 C 0.24441 0.81332 0.42050
 C2668 C 0.25254 0.83207 0.42323
 C2669 C 0.25874 0.84273 0.40673
 C2670 C 0.25720 0.83472 0.38780
 C2671 C 0.24792 0.80732 0.36550
 C2672 C 0.25463 0.81801 0.34934
 C2673 C 0.25373 0.80957 0.33053
 C2674 C 0.24622 0.79053 0.32780
 C2675 C 0.23929 0.78016 0.34421
 C2676 C 0.24017 0.78846 0.36309
 C2677 C 0.26356 0.84507 0.37125
 C2678 C 0.26231 0.83684 0.35235
 C2679 C 0.23496 0.78638 0.39855
 C2680 C 0.23367 0.77818 0.37963
 H2681 H 0.26968 0.85960 0.37294
 H2682 H 0.26750 0.84526 0.34000
 H2683 H 0.22988 0.77792 0.41091
 H2684 H 0.22764 0.76361 0.37795
 H2685 H 0.23973 0.80494 0.43309
 H2686 H 0.26466 0.85733 0.40860
 H2687 H 0.25907 0.81775 0.31808
 H2688 H 0.23347 0.76552 0.34239
 C2689 C 0.74770 0.31211 0.88583
 C2690 C 0.74941 0.29984 0.90228
 C2691 C 0.74975 0.30830 0.92113
 C2692 C 0.74793 0.32880 0.92349
 C2693 C 0.74611 0.34087 0.90686
 C2694 C 0.74618 0.33262 0.88796
 C2695 C 0.74748 0.30334 0.86598
 C2696 C 0.74621 0.31565 0.84953
 C2697 C 0.74623 0.30723 0.83068
 C2698 C 0.74707 0.28666 0.82827
 C2699 C 0.74809 0.27453 0.84495
 C2700 C 0.74852 0.28281 0.86384
 C2701 C 0.74477 0.34445 0.87117
 C2702 C 0.74489 0.33611 0.85227
 C2703 C 0.75061 0.27937 0.89953
 C2704 C 0.75006 0.27100 0.88064
 H2705 H 0.74364 0.36029 0.87265
 H2706 H 0.74386 0.34575 0.83970
 H2707 H 0.75187 0.26973 0.91209
 H2708 H 0.75094 0.25514 0.87917
 H2709 H 0.75105 0.29901 0.93395
 H2710 H 0.74489 0.35669 0.90868
 H2711 H 0.74529 0.31663 0.81791
 H2712 H 0.74891 0.25869 0.84319
 C2713 C 0.81491 0.38030 0.24682
 C2714 C 0.80270 0.39713 0.24689
 C2715 C 0.81122 0.41578 0.24710
 C2716 C 0.83176 0.41759 0.24688
 C2717 C 0.84378 0.40057 0.24679
 C2718 C 0.83543 0.38187 0.24688
 C2719 C 0.80605 0.36065 0.24663
 C2720 C 0.81826 0.34383 0.24686
 C2721 C 0.80975 0.32517 0.24684
 C2722 C 0.78919 0.32332 0.24626
 C2723 C 0.77719 0.34038 0.24586
 C2724 C 0.78554 0.35908 0.24620
 C2725 C 0.84718 0.36471 0.24700
 C2726 C 0.83874 0.34601 0.24706
 C2727 C 0.78223 0.39494 0.24659
 C2728 C 0.77380 0.37623 0.24618
 H2729 H 0.86303 0.36575 0.24708
 H2730 H 0.84832 0.33315 0.24720
 H2731 H 0.77265 0.40779 0.24660
 H2732 H 0.75795 0.37519 0.24589
 H2733 H 0.80195 0.42887 0.24703
 H2734 H 0.85962 0.40192 0.24684
 H2735 H 0.81908 0.31213 0.24702
 H2736 H 0.76135 0.33910 0.24557
 C2737 C 0.31625 0.87930 0.74413
 C2738 C 0.30639 0.89505 0.73500
 C2739 C 0.31492 0.91372 0.73520
 C2740 C 0.33318 0.91664 0.74445
 C2741 C 0.34273 0.90065 0.75367
 C2742 C 0.33439 0.88196 0.75350
 C2743 C 0.30739 0.85965 0.74396
 C2744 C 0.31725 0.84394 0.75316
 C2745 C 0.30864 0.82535 0.75322
 C2746 C 0.29020 0.82241 0.74432
 C2747 C 0.28064 0.83835 0.73495
 C2748 C 0.28917 0.85699 0.73475
 C2749 C 0.34384 0.86587 0.76249
 C2750 C 0.33542 0.84717 0.76230
 C2751 C 0.28823 0.89178 0.72581
 C2752 C 0.27976 0.87308 0.72570
 H2753 H 0.35786 0.86776 0.76974
 H2754 H 0.34317 0.83517 0.76944
 H2755 H 0.28048 0.90379 0.71868
 H2756 H 0.26570 0.87122 0.71852
 H2757 H 0.30754 0.92586 0.72789
 H2758 H 0.35662 0.90278 0.76113
 H2759 H 0.31618 0.81328 0.76048
 H2760 H 0.26649 0.83633 0.72799
 C2761 C 0.18617 0.88729 0.24813
 C2762 C 0.16926 0.89008 0.23673
 C2763 C 0.16086 0.90892 0.23527
 C2764 C 0.16885 0.92532 0.24544
 C2765 C 0.18629 0.92194 0.25654
 C2766 C 0.19486 0.90309 0.25794
 C2767 C 0.19492 0.86740 0.24983
 C2768 C 0.21190 0.86457 0.26122
 C2769 C 0.22024 0.84563 0.26264
 C2770 C 0.21162 0.82959 0.25281
 C2771 C 0.19447 0.83276 0.24160
 C2772 C 0.18613 0.85162 0.23999
 C2773 C 0.21184 0.89968 0.26928
 C2774 C 0.22023 0.88076 0.27086
 C2775 C 0.16098 0.87393 0.22695
 C2776 C 0.16924 0.85501 0.22860
 H2777 H 0.21872 0.91173 0.27700
 H2778 H 0.23334 0.87880 0.27971
 H2779 H 0.14792 0.87590 0.21804
 H2780 H 0.16235 0.84296 0.22088
 H2781 H 0.14850 0.91057 0.22543
 H2782 H 0.19283 0.93347 0.26523
 H2783 H 0.23343 0.84342 0.27132
 H2784 H 0.18774 0.82063 0.23384
 C2785 C 0.68734 0.38579 0.75336
 C2786 C 0.69683 0.40141 0.76283
 C2787 C 0.68816 0.42027 0.76245
 C2788 C 0.67010 0.42345 0.75277
 C2789 C 0.66103 0.40762 0.74307
 C2790 C 0.66951 0.38878 0.74340
 C2791 C 0.69615 0.36587 0.75398
 C2792 C 0.68656 0.35029 0.74459
 C2793 C 0.69495 0.33140 0.74520
 C2794 C 0.71290 0.32797 0.75502
 C2795 C 0.72231 0.34381 0.76442
 C2796 C 0.71397 0.36280 0.76396
 C2797 C 0.66040 0.37283 0.73410
 C2798 C 0.66878 0.35390 0.73471
 C2799 C 0.71465 0.39777 0.77267
 C2800 C 0.72308 0.37880 0.77321
 H2801 H 0.64663 0.37498 0.72637
 H2802 H 0.66126 0.34198 0.72738
 H2803 H 0.72212 0.40967 0.78006
 H2804 H 0.73684 0.37664 0.78096
 H2805 H 0.69516 0.43233 0.77008
 H2806 H 0.64731 0.40999 0.73528
 H2807 H 0.68756 0.31942 0.73784
 H2808 H 0.73611 0.34141 0.77205
 C2809 C 0.68600 0.61793 0.74529
 C2810 C 0.69677 0.60125 0.73911
 C2811 C 0.68811 0.58267 0.74010
 C2812 C 0.66887 0.58075 0.74732
 C2813 C 0.65821 0.59772 0.75315
 C2814 C 0.66672 0.61631 0.75224
 C2815 C 0.69515 0.63743 0.74470
 C2816 C 0.68444 0.65404 0.75112
 C2817 C 0.69333 0.67249 0.75095
 C2818 C 0.71283 0.67444 0.74442
 C2819 C 0.72326 0.65760 0.73777
 C2820 C 0.71450 0.63906 0.73794
 C2821 C 0.65638 0.63330 0.75832
 C2822 C 0.66509 0.65184 0.75778
 C2823 C 0.71606 0.60349 0.73229
 C2824 C 0.72477 0.62207 0.73171
 H2825 H 0.64147 0.63222 0.76367
 H2826 H 0.65666 0.66456 0.76273
 H2827 H 0.72454 0.59077 0.72746
 H2828 H 0.73971 0.62313 0.72644
 H2829 H 0.69647 0.56970 0.73570
 H2830 H 0.64327 0.59646 0.75836
 H2831 H 0.68508 0.68528 0.75601
 H2832 H 0.73826 0.65884 0.73271
 C2833 C 0.18822 0.11835 0.24893
 C2834 C 0.19841 0.10240 0.24035
 C2835 C 0.19026 0.08360 0.24110
 C2836 C 0.17206 0.08071 0.25036
 C2837 C 0.16211 0.09689 0.25897
 C2838 C 0.17011 0.11574 0.25828
 C2839 C 0.19665 0.13816 0.24810
 C2840 C 0.18646 0.15409 0.25669
 C2841 C 0.19467 0.17285 0.25613
 C2842 C 0.21303 0.17576 0.24715
 C2843 C 0.22292 0.15959 0.23838
 C2844 C 0.21481 0.14077 0.23884
 C2845 C 0.16029 0.13205 0.26663
 C2846 C 0.16833 0.15090 0.26586
 C2847 C 0.21651 0.10561 0.23114
 C2848 C 0.22457 0.12447 0.23041
 H2849 H 0.14629 0.13022 0.27386
 H2850 H 0.16032 0.16308 0.27254
 H2851 H 0.22452 0.09343 0.22445
 H2852 H 0.23859 0.12629 0.22321
 H2853 H 0.19810 0.07122 0.23458
 H2854 H 0.14794 0.09490 0.26582
 H2855 H 0.18689 0.18510 0.26296
 H2856 H 0.23703 0.16157 0.23139
 C2857 C 0.31367 0.11258 0.75436
 C2858 C 0.33287 0.11023 0.74722
 C2859 C 0.34110 0.09130 0.74575
 C2860 C 0.33027 0.07472 0.75124
 C2861 C 0.31109 0.07736 0.75863
 C2862 C 0.30270 0.09629 0.76016
 C2863 C 0.30482 0.13247 0.75557
 C2864 C 0.28554 0.13485 0.76247
 C2865 C 0.27704 0.15376 0.76315
 C2866 C 0.28767 0.17023 0.75689
 C2867 C 0.30713 0.16752 0.75026
 C2868 C 0.31575 0.14870 0.74954
 C2869 C 0.28349 0.09928 0.76717
 C2870 C 0.27506 0.11822 0.76830
 C2871 C 0.34343 0.12684 0.74155
 C2872 C 0.33500 0.14576 0.74269
 H2873 H 0.27486 0.08686 0.77171
 H2874 H 0.26016 0.11986 0.77367
 H2875 H 0.35828 0.12520 0.73606
 H2876 H 0.34360 0.15817 0.73803
 H2877 H 0.35600 0.08947 0.74042
 H2878 H 0.30261 0.06470 0.76279
 H2879 H 0.26207 0.15557 0.76828
 H2880 H 0.31553 0.18001 0.74544
 C2881 C 0.81310 0.61310 0.24888
 C2882 C 0.82885 0.60919 0.23613
 C2883 C 0.83726 0.59030 0.23561
 C2884 C 0.83032 0.57539 0.24798
 C2885 C 0.81428 0.57950 0.26048
 C2886 C 0.80561 0.59836 0.26097
 C2887 C 0.80441 0.63307 0.24967
 C2888 C 0.78859 0.63702 0.26234
 C2889 C 0.78032 0.65604 0.26295
 C2890 C 0.78795 0.67108 0.25115
 C2891 C 0.80394 0.66683 0.23866
 C2892 C 0.81214 0.64785 0.23778
 C2893 C 0.78977 0.60288 0.27349
 C2894 C 0.78137 0.62186 0.27412
 C2895 C 0.83606 0.62431 0.22431
 C2896 C 0.82787 0.64333 0.22516
 H2897 H 0.78384 0.59165 0.28291
 H2898 H 0.76918 0.62471 0.28397
 H2899 H 0.84822 0.62144 0.21442
 H2900 H 0.83392 0.65459 0.21588
 H2901 H 0.84930 0.58723 0.22563
 H2902 H 0.80892 0.56822 0.27018
 H2903 H 0.76807 0.65915 0.27266
 H2904 H 0.80983 0.67820 0.22939
 C2905 C 0.88657 0.24900 0.18804
 C2906 C 0.89980 0.26357 0.19386
 C2907 C 0.91867 0.26359 0.18568
 C2908 C 0.92438 0.24904 0.17197
 C2909 C 0.91109 0.23427 0.16662
 C2910 C 0.89206 0.23430 0.17447
 C2911 C 0.86650 0.24926 0.19616
 C2912 C 0.85309 0.23499 0.18998
 C2913 C 0.83399 0.23539 0.19767
 C2914 C 0.82844 0.24969 0.21173
 C2915 C 0.84212 0.26387 0.21776
 C2916 C 0.86111 0.26382 0.20990
 C2917 C 0.87829 0.22016 0.16877
 C2918 C 0.85912 0.22055 0.17634
 C2919 C 0.89382 0.27795 0.20758
 C2920 C 0.87483 0.27802 0.21553
 H2921 H 0.88233 0.20878 0.15827
 H2922 H 0.84894 0.20942 0.17149
 H2923 H 0.90391 0.28926 0.21220
 H2924 H 0.87082 0.28935 0.22610
 H2925 H 0.92890 0.27495 0.18985
 H2926 H 0.91537 0.22321 0.15587
 H2927 H 0.82360 0.22434 0.19308
 H2928 H 0.83792 0.27502 0.22846
 C2929 C 0.38538 0.75211 0.68889
 C2930 C 0.39162 0.73656 0.67664
 C2931 C 0.41067 0.73668 0.66891
 C2932 C 0.42325 0.75242 0.67302
 C2933 C 0.41678 0.76791 0.68531
 C2934 C 0.39789 0.76774 0.69344
 C2935 C 0.36533 0.75209 0.69701
 C2936 C 0.35923 0.76743 0.70958
 C2937 C 0.34030 0.76712 0.71759
 C2938 C 0.32741 0.75179 0.71283
 C2939 C 0.33362 0.73675 0.69986
 C2940 C 0.35267 0.73670 0.69209
 C2941 C 0.39119 0.78292 0.70592
 C2942 C 0.37223 0.78272 0.71394
 C2943 C 0.37857 0.72135 0.67216
 C2944 C 0.35940 0.72147 0.67969
 H2945 H 0.40071 0.79504 0.70956
 H2946 H 0.36767 0.79466 0.72358
 H2947 H 0.38319 0.70931 0.66268
 H2948 H 0.34979 0.70949 0.67583
 H2949 H 0.41555 0.72489 0.65923
 H2950 H 0.42648 0.78002 0.68849
 H2951 H 0.33557 0.77881 0.72748
 H2952 H 0.32383 0.72481 0.69629
 C2953 C 0.38344 0.24866 0.81568
 C2954 C 0.39934 0.23913 0.80636
 C2955 C 0.41810 0.24019 0.81484
 C2956 C 0.42094 0.25061 0.83254
 C2957 C 0.40484 0.26036 0.84145
 C2958 C 0.38606 0.25936 0.83314
 C2959 C 0.36363 0.24733 0.80705
 C2960 C 0.34774 0.25678 0.81644
 C2961 C 0.32895 0.25553 0.80817
 C2962 C 0.32596 0.24500 0.79054
 C2963 C 0.34211 0.23551 0.78139
 C2964 C 0.36096 0.23663 0.78959
 C2965 C 0.36982 0.26868 0.84208
 C2966 C 0.35098 0.26740 0.83387
 C2967 C 0.39609 0.22855 0.78890
 C2968 C 0.37723 0.22733 0.78065
 H2969 H 0.37168 0.27697 0.85557
 H2970 H 0.33884 0.27478 0.84124
 H2971 H 0.40821 0.22111 0.78157
 H2972 H 0.37537 0.21903 0.76717
 H2973 H 0.43035 0.23248 0.80798
 H2974 H 0.40692 0.26868 0.85489
 H2975 H 0.31673 0.26296 0.81536
 H2976 H 0.34006 0.22735 0.76784
 C2977 C 0.88410 0.74484 0.31368
 C2978 C 0.90083 0.73997 0.30265
 C2979 C 0.91938 0.74039 0.31166
 C2980 C 0.92151 0.74542 0.33185
 C2981 C 0.90413 0.75047 0.34241
 C2982 C 0.88562 0.75017 0.33349
 C2983 C 0.86457 0.74443 0.30429
 C2984 C 0.84788 0.74960 0.31532
 C2985 C 0.82939 0.74940 0.30633
 C2986 C 0.82745 0.74403 0.28641
 C2987 C 0.84437 0.73869 0.27559
 C2988 C 0.86298 0.73897 0.28446
 C2989 C 0.86857 0.75525 0.34406
 C2990 C 0.85002 0.75497 0.33513
 C2991 C 0.89865 0.73454 0.28281
 C2992 C 0.88006 0.73402 0.27388
 H2993 H 0.86956 0.75946 0.35940
 H2994 H 0.83725 0.75900 0.34381
 H2995 H 0.91144 0.73065 0.27410
 H2996 H 0.87906 0.72978 0.25856
 H2997 H 0.93184 0.73565 0.30294
 H2998 H 0.90472 0.75572 0.35741
 H2999 H 0.81653 0.75346 0.31486
 H3000 H 0.84312 0.73461 0.26024
 C3001 C 0.11538 0.75432 0.31463
 C3002 C 0.09888 0.76008 0.30357
 C3003 C 0.08009 0.75852 0.31183
 C3004 C 0.07780 0.75114 0.33096
 C3005 C 0.09458 0.74565 0.34188
 C3006 C 0.11337 0.74716 0.33378
 C3007 C 0.13513 0.75558 0.30593
 C3008 C 0.15157 0.74960 0.31694
 C3009 C 0.17026 0.75036 0.30846
 C3010 C 0.17263 0.75698 0.28904
 C3011 C 0.15595 0.76322 0.27832
 C3012 C 0.13716 0.76249 0.28668
 C3013 C 0.13019 0.74153 0.34443
 C3014 C 0.14897 0.74272 0.33615
 C3015 C 0.10151 0.76710 0.28441
 C3016 C 0.12032 0.76828 0.27611
 H3017 H 0.12882 0.73603 0.35925
 H3018 H 0.16155 0.73809 0.34481
 H3019 H 0.08893 0.77161 0.27571
 H3020 H 0.12169 0.77366 0.26125
 H3021 H 0.06727 0.76267 0.30328
 H3022 H 0.09302 0.74033 0.35675
 H3023 H 0.18291 0.74555 0.31693
 H3024 H 0.15750 0.76833 0.26337
 C3025 C 0.61602 0.25541 0.81534
 C3026 C 0.61390 0.24824 0.83448
 C3027 C 0.59513 0.24752 0.84276
 C3028 C 0.57848 0.25378 0.83205
 C3029 C 0.58090 0.26119 0.81294
 C3030 C 0.59967 0.26198 0.80450
 C3031 C 0.63573 0.25584 0.80643
 C3032 C 0.63786 0.26281 0.78722
 C3033 C 0.65659 0.26281 0.77868
 C3034 C 0.67312 0.25581 0.78919
 C3035 C 0.67065 0.24909 0.80856
 C3036 C 0.65201 0.24906 0.81723
 C3037 C 0.60242 0.26900 0.78536
 C3038 C 0.62119 0.26941 0.77687
 C3039 C 0.63057 0.24178 0.84490
 C3040 C 0.64931 0.24217 0.83641
 H3041 H 0.58995 0.27413 0.77682
 H3042 H 0.62264 0.27484 0.76203
 H3043 H 0.62911 0.23625 0.85970
 H3044 H 0.66176 0.23693 0.84491
 H3045 H 0.59349 0.24216 0.85761
 H3046 H 0.56818 0.26592 0.80454
 H3047 H 0.65822 0.26802 0.76378
 H3048 H 0.68318 0.24371 0.81687
 C3049 C 0.61661 0.75093 0.68690
 C3050 C 0.61224 0.76492 0.67243
 C3051 C 0.59346 0.76540 0.66403
 C3052 C 0.57915 0.75177 0.66967
 C3053 C 0.58375 0.73795 0.68438
 C3054 C 0.60246 0.73751 0.69308
 C3055 C 0.63643 0.75025 0.69563
 C3056 C 0.64079 0.73638 0.71023
 C3057 C 0.65963 0.73588 0.71856
 C3058 C 0.67413 0.74896 0.71217
 C3059 C 0.66952 0.76265 0.69737
 C3060 C 0.65065 0.76345 0.68916
 C3061 C 0.60739 0.72379 0.70769
 C3062 C 0.62621 0.72328 0.71616
 C3063 C 0.62679 0.77802 0.66649
 C3064 C 0.64570 0.77726 0.67466
 H3065 H 0.59663 0.71335 0.71261
 H3066 H 0.62939 0.71248 0.72740
 H3067 H 0.62358 0.78888 0.65532
 H3068 H 0.65653 0.78756 0.66959
 H3069 H 0.59002 0.77640 0.65306
 H3070 H 0.57299 0.72725 0.68872
 H3071 H 0.66307 0.72522 0.72987
 H3072 H 0.68051 0.77288 0.69247
 C3073 C 0.11802 0.24395 0.18580
 C3074 C 0.10112 0.24162 0.19728
 C3075 C 0.08260 0.24223 0.18820
 C3076 C 0.08095 0.24519 0.16779
 C3077 C 0.09815 0.24700 0.15649
 C3078 C 0.11668 0.24655 0.16543
 C3079 C 0.13748 0.24404 0.19534
 C3080 C 0.15432 0.24687 0.18389
 C3081 C 0.17272 0.24758 0.19308
 C3082 C 0.17440 0.24541 0.21359
 C3083 C 0.15737 0.24219 0.22480
 C3084 C 0.13885 0.24164 0.21575
 C3085 C 0.13389 0.24897 0.15442
 C3086 C 0.15239 0.24917 0.16350
 C3087 C 0.10310 0.23907 0.21765
 C3088 C 0.12164 0.23904 0.22672
 H3089 H 0.13303 0.25094 0.13867
 H3090 H 0.16527 0.25128 0.15450
 H3091 H 0.09019 0.23722 0.22669
 H3092 H 0.12249 0.23715 0.24248
 H3093 H 0.06949 0.24098 0.19706
 H3094 H 0.09712 0.24886 0.14074
 H3095 H 0.18570 0.24989 0.18427
 H3096 H 0.15845 0.24055 0.24058
 C3097 C -0.06531 0.99984 0.86387
 C3098 C -0.05499 0.99060 0.84852
 C3099 C -0.06248 0.99159 0.82936
 C3100 C -0.08036 1.00172 0.82527
 C3101 C -0.09035 1.01102 0.84113
 C3102 C -0.08294 1.01008 0.86033
 C3103 C -0.05747 0.99882 0.88405
 C3104 C -0.06779 1.00810 0.89943
 C3105 C -0.06010 1.00735 0.91855
 C3106 C -0.04215 0.99748 0.92231
 C3107 C -0.03216 0.98805 0.90666
 C3108 C -0.03973 0.98871 0.88754
 C3109 C -0.09294 1.01909 0.87612
 C3110 C -0.08549 1.01812 0.89533
 C3111 C -0.03728 0.98057 0.85261
 C3112 C -0.02979 0.97963 0.87179
 H3113 H -0.10662 1.02700 0.87360
 H3114 H -0.09362 1.02534 0.90704
 H3115 H -0.02914 0.97338 0.84089
 H3116 H -0.01607 0.97178 0.87429
 H3117 H -0.05386 0.98497 0.81768
 H3118 H -0.10439 1.01830 0.83892
 H3119 H -0.06794 1.01470 0.93039
 H3120 H -0.01837 0.98036 0.90927
 C3121 C 0.43507 0.49562 0.36904
 C3122 C 0.44630 0.48937 0.35284
 C3123 C 0.43828 0.49090 0.33391
 C3124 C 0.41917 0.49863 0.33115
 C3125 C 0.40811 0.50473 0.34763
 C3126 C 0.41600 0.50330 0.36659
 C3127 C 0.44352 0.49428 0.38895
 C3128 C 0.43237 0.50076 0.40512
 C3129 C 0.44067 0.50002 0.42395
 C3130 C 0.46004 0.49295 0.42670
 C3131 C 0.47084 0.48610 0.41030
 C3132 C 0.46267 0.48682 0.39140
 C3133 C 0.40520 0.50941 0.38315
 C3134 C 0.41326 0.50818 0.40208
 C3135 C 0.46536 0.48181 0.35590
 C3136 C 0.47340 0.48055 0.37485
 H3137 H 0.39045 0.51531 0.38144
 H3138 H 0.40450 0.51320 0.41444
 H3139 H 0.47417 0.47691 0.34353
 H3140 H 0.48820 0.47475 0.37654
 H3141 H 0.44697 0.48632 0.32134
 H3142 H 0.39327 0.51036 0.34573
 H3143 H 0.43216 0.50530 0.43638
 H3144 H 0.48574 0.48062 0.41214
 C3145 C 0.56722 0.00445 0.36460
 C3146 C 0.58472 -0.00609 0.36121
 C3147 C 0.59207 -0.00760 0.34205
 C3148 C 0.58217 0.00143 0.32609
 C3149 C 0.56450 0.01201 0.33002
 C3150 C 0.55701 0.01350 0.34915
 C3151 C 0.55932 0.00586 0.38472
 C3152 C 0.54158 0.01607 0.38805
 C3153 C 0.53381 0.01685 0.40708
 C3154 C 0.54363 0.00744 0.42276
 C3155 C 0.56167 -0.00236 0.41918
 C3156 C 0.56951 -0.00329 0.40017
 C3157 C 0.53938 0.02376 0.35309
 C3158 C 0.53179 0.02501 0.37220
 C3159 C 0.59463 -0.01487 0.37709
 C3160 C 0.58715 -0.01349 0.39624
 H3161 H 0.53133 0.03082 0.34128
 H3162 H 0.51809 0.03295 0.37458
 H3163 H 0.60822 -0.02298 0.37468
 H3164 H 0.59517 -0.02060 0.40804
 H3165 H 0.60599 -0.01517 0.33991
 H3166 H 0.55599 0.01850 0.31824
 H3167 H 0.51996 0.02449 0.40960
 H3168 H 0.56938 -0.00970 0.43104
 C3169 C 0.06384 0.50941 0.86563
 C3170 C 0.05265 0.51473 0.84911
 C3171 C 0.06123 0.51346 0.83039
 C3172 C 0.08076 0.50671 0.82821
 C3173 C 0.09182 0.50178 0.84501
 C3174 C 0.08344 0.50304 0.86373
 C3175 C 0.05476 0.51012 0.88527
 C3176 C 0.06589 0.50444 0.90170
 C3177 C 0.05702 0.50444 0.92023
 C3178 C 0.03710 0.50993 0.92245
 C3179 C 0.02628 0.51601 0.90582
 C3180 C 0.03504 0.51605 0.88718
 C3181 C 0.09419 0.49781 0.88056
 C3182 C 0.08556 0.49850 0.89923
 C3183 C 0.03303 0.52089 0.85163
 C3184 C 0.02437 0.52153 0.87034
 H3185 H 0.10935 0.49294 0.87927
 H3186 H 0.09431 0.49413 0.91182
 H3187 H 0.02423 0.52507 0.83903
 H3188 H 0.00915 0.52617 0.87161
 H3189 H 0.05259 0.51718 0.81753
 H3190 H 0.10697 0.49692 0.84350
 H3191 H 0.06559 0.49982 0.93286
 H3192 H 0.01096 0.52026 0.90728
 C3193 C 0.05993 0.49719 0.63471
 C3194 C 0.07760 0.50729 0.63708
 C3195 C 0.08652 0.50786 0.65558
 C3196 C 0.07804 0.49829 0.67169
 C3197 C 0.06013 0.48845 0.66915
 C3198 C 0.05103 0.48781 0.65063
 C3199 C 0.05065 0.49632 0.61516
 C3200 C 0.03300 0.48618 0.61270
 C3201 C 0.02426 0.48542 0.59402
 C3202 C 0.03311 0.49469 0.57789
 C3203 C 0.05088 0.50472 0.58072
 C3204 C 0.05967 0.50561 0.59928
 C3205 C 0.03335 0.47782 0.64762
 C3206 C 0.02449 0.47703 0.62898
 C3207 C 0.08612 0.51649 0.62085
 C3208 C 0.07731 0.51565 0.60225
 H3209 H 0.02633 0.47050 0.65975
 H3210 H 0.01087 0.46915 0.62731
 H3211 H 0.09975 0.52433 0.62251
 H3212 H 0.08438 0.52289 0.59010
 H3213 H 0.10011 0.51576 0.65746
 H3214 H 0.05358 0.48091 0.68141
 H3215 H 0.01062 0.47764 0.59208
 H3216 H 0.05786 0.51198 0.56851
 C3217 C 0.55674 1.00087 0.13336
 C3218 C 0.57159 1.01455 0.13684
 C3219 C 0.58064 1.01518 0.15529
 C3220 C 0.57526 1.00200 0.17016
 C3221 C 0.56006 0.98858 0.16652
 C3222 C 0.55073 0.98797 0.14812
 C3223 C 0.54751 0.99986 0.11379
 C3224 C 0.53263 0.98620 0.11021
 C3225 C 0.52399 0.98527 0.09148
 C3226 C 0.53042 0.99769 0.07637
 C3227 C 0.54538 1.01126 0.08030
 C3228 C 0.55389 1.01248 0.09896
 C3229 C 0.53577 0.97452 0.14403
 C3230 C 0.52683 0.97370 0.12542
 C3231 C 0.57735 1.02713 0.12171
 C3232 C 0.56869 1.02607 0.10306
 H3233 H 0.53097 0.96449 0.15527
 H3234 H 0.51538 0.96308 0.12289
 H3235 H 0.58880 1.03775 0.12425
 H3236 H 0.57367 1.03593 0.09174
 H3237 H 0.59201 1.02584 0.15801
 H3238 H 0.55591 0.97824 0.17776
 H3239 H 0.51251 0.97477 0.08860
 H3240 H 0.55030 1.02106 0.06888
 C3241 C 0.43864 0.49878 0.13666
 C3242 C 0.42351 0.48547 0.14013
 C3243 C 0.41522 0.48455 0.15888
 C3244 C 0.42166 0.49708 0.17408
 C3245 C 0.43711 0.51012 0.17042
 C3246 C 0.44566 0.51102 0.15171
 C3247 C 0.44713 0.50007 0.11682
 C3248 C 0.46231 0.51334 0.11332
 C3249 C 0.47038 0.51443 0.09443
 C3250 C 0.46322 0.50251 0.07907
 C3251 C 0.44784 0.48943 0.08286
 C3252 C 0.43984 0.48807 0.10172
 C3253 C 0.46086 0.52413 0.14764
 C3254 C 0.46908 0.52523 0.12879
 C3255 C 0.41675 0.47355 0.12469
 C3256 C 0.42474 0.47486 0.10580
 H3257 H 0.46641 0.53367 0.15911
 H3258 H 0.48077 0.53554 0.12628
 H3259 H 0.40507 0.46322 0.12721
 H3260 H 0.41904 0.46548 0.09427
 H3261 H 0.40361 0.47420 0.16160
 H3262 H 0.44204 0.51999 0.18190
 H3263 H 0.48216 0.52460 0.09168
 H3264 H 0.44231 0.48007 0.07122
 C3265 C -0.06001 -0.00125 0.63127
 C3266 C -0.07693 -0.01247 0.63354
 C3267 C -0.08579 -0.01353 0.65201
 C3268 C -0.07822 -0.00313 0.66842
 C3269 C -0.06087 0.00781 0.66573
 C3270 C -0.05179 0.00880 0.64725
 C3271 C -0.05073 -0.00005 0.61177
 C3272 C -0.03368 0.01105 0.60945
 C3273 C -0.02479 0.01192 0.59087
 C3274 C -0.03295 0.00184 0.57470
 C3275 C -0.05021 -0.00902 0.57737
 C3276 C -0.05906 -0.01010 0.59583
 C3277 C -0.03477 0.01987 0.64435
 C3278 C -0.02585 0.02094 0.62580
 C3279 C -0.08475 -0.02244 0.61725
 C3280 C -0.07600 -0.02123 0.59870
 H3281 H -0.02825 0.02776 0.65653
 H3282 H -0.01271 0.02958 0.62424
 H3283 H -0.09782 -0.03118 0.61883
 H3284 H -0.08253 -0.02910 0.58651
 H3285 H -0.09830 -0.02301 0.65347
 H3286 H -0.05477 0.01638 0.67763
 H3287 H -0.01154 0.02033 0.58904
 H3288 H -0.05662 -0.01697 0.56516
 C3289 C -0.14000 0.94140 1.00129
 C3290 C -0.15483 0.94762 0.98830
 C3291 C -0.17326 0.93867 0.98903
 C3292 C -0.17686 0.92362 1.00266
 C3293 C -0.16193 0.91804 1.01594
 C3294 C -0.14345 0.92671 1.01519
 C3295 C -0.12039 0.95020 1.00014
 C3296 C -0.10549 0.94360 1.01284
 C3297 C -0.08680 0.95174 1.01150
 C3298 C -0.08294 0.96656 0.99773
 C3299 C -0.09812 0.97317 0.98520
 C3300 C -0.11687 0.96491 0.98626
 C3301 C -0.12824 0.92071 1.02785
 C3302 C -0.10956 0.92898 1.02665
 C3303 C -0.15078 0.96240 0.97463
 C3304 C -0.13214 0.97095 0.97367
 H3305 H -0.13075 0.90939 1.03863
 H3306 H -0.09818 0.92383 1.03658
 H3307 H -0.16208 0.96736 0.96452
 H3308 H -0.12964 0.98227 0.96288
 H3309 H -0.18455 0.94295 0.97861
 H3310 H -0.16463 0.90677 1.02674
 H3311 H -0.07532 0.94669 1.02137
 H3312 H -0.09530 0.98454 0.97454
 C3313 C 0.36436 0.43736 0.50406
 C3314 C 0.34925 0.44417 0.49169
 C3315 C 0.33066 0.43560 0.49283
 C3316 C 0.32715 0.42036 0.50627
 C3317 C 0.34241 0.41411 0.51888
 C3318 C 0.36106 0.42240 0.51771
 C3319 C 0.38406 0.44594 0.50260
 C3320 C 0.39919 0.43888 0.51479
 C3321 C 0.41788 0.44704 0.51339
 C3322 C 0.42149 0.46238 0.50011
 C3323 C 0.40612 0.46928 0.48795
 C3324 C 0.38738 0.46102 0.48908
 C3325 C 0.37654 0.41585 0.52976
 C3326 C 0.39530 0.42391 0.52829
 C3327 C 0.35315 0.45923 0.47827
 C3328 C 0.37187 0.46756 0.47704
 H3329 H 0.37416 0.40430 0.54034
 H3330 H 0.40686 0.41840 0.53781
 H3331 H 0.34164 0.46463 0.46864
 H3332 H 0.37422 0.47917 0.46653
 H3333 H 0.31913 0.44039 0.48290
 H3334 H 0.33983 0.40268 0.52954
 H3335 H 0.42950 0.44173 0.52296
 H3336 H 0.40872 0.48104 0.47766
 C3337 C 0.36381 0.56135 0.00221
 C3338 C 0.36130 0.58059 -0.00478
 C3339 C 0.34235 0.58876 -0.00594
 C3340 C 0.32592 0.57785 -0.00021
 C3341 C 0.32870 0.55853 0.00676
 C3342 C 0.34765 0.55021 0.00800
 C3343 C 0.38375 0.55272 0.00348
 C3344 C 0.38631 0.53347 0.01043
 C3345 C 0.40532 0.52526 0.01139
 C3346 C 0.42168 0.53618 0.00537
 C3347 C 0.41875 0.55557 -0.00138
 C3348 C 0.39986 0.56388 -0.00236
 C3349 C 0.35079 0.53099 0.01491
 C3350 C 0.36978 0.52277 0.01611
 C3351 C 0.37780 0.59133 -0.01040
 C3352 C 0.39676 0.58311 -0.00922
 H3353 H 0.33845 0.52223 0.01944
 H3354 H 0.37154 0.50789 0.02149
 H3355 H 0.37604 0.60621 -0.01578
 H3356 H 0.40909 0.59187 -0.01376
 H3357 H 0.34044 0.60375 -0.01096
 H3358 H 0.31616 0.54997 0.01107
 H3359 H 0.40731 0.51033 0.01657
 H3360 H 0.43115 0.56419 -0.00601
 C3361 C -0.12886 0.06139 0.50451
 C3362 C -0.14561 0.04961 0.50351
 C3363 C -0.16425 0.05867 0.50271
 C3364 C -0.16612 0.07930 0.50325
 C3365 C -0.14916 0.09085 0.50431
 C3366 C -0.13049 0.08199 0.50482
 C3367 C -0.10922 0.05199 0.50514
 C3368 C -0.09249 0.06380 0.50566
 C3369 C -0.07385 0.05483 0.50572
 C3370 C -0.07186 0.03418 0.50548
 C3371 C -0.08882 0.02255 0.50539
 C3372 C -0.10755 0.03140 0.50501
 C3373 C -0.11342 0.09330 0.50559
 C3374 C -0.09473 0.08437 0.50593
 C3375 C -0.14335 0.02904 0.50340
 C3376 C -0.12465 0.02009 0.50421
 H3377 H -0.11451 0.10921 0.50582
 H3378 H -0.08193 0.09363 0.50638
 H3379 H -0.15614 0.01978 0.50269
 H3380 H -0.12356 0.00419 0.50406
 H3381 H -0.17729 0.04974 0.50203
 H3382 H -0.15053 0.10675 0.50450
 H3383 H -0.06089 0.06390 0.50593
 H3384 H -0.08742 0.00665 0.50504
 C3385 C 0.63959 0.06380 0.49709
 C3386 C 0.64298 0.07936 0.51023
 C3387 C 0.66166 0.08762 0.51113
 C3388 C 0.67687 0.08074 0.49875
 C3389 C 0.67327 0.06492 0.48581
 C3390 C 0.65463 0.05637 0.48495
 C3391 C 0.61988 0.05517 0.49600
 C3392 C 0.61646 0.03945 0.48304
 C3393 C 0.59772 0.03113 0.48229
 C3394 C 0.58244 0.03859 0.49428
 C3395 C 0.58615 0.05456 0.50698
 C3396 C 0.60483 0.06279 0.50801
 C3397 C 0.65064 0.04069 0.47207
 C3398 C 0.63190 0.03234 0.47118
 C3399 C 0.62759 0.08649 0.52209
 C3400 C 0.60881 0.07839 0.52096
 H3401 H 0.66209 0.03482 0.46261
 H3402 H 0.62948 0.02023 0.46109
 H3403 H 0.63004 0.09851 0.53227
 H3404 H 0.59732 0.08435 0.53033
 H3405 H 0.66432 0.09948 0.52145
 H3406 H 0.68478 0.05961 0.47610
 H3407 H 0.59504 0.01888 0.47244
 H3408 H 0.57461 0.06033 0.51642
 C3409 C 0.13202 0.56504 0.99780
 C3410 C 0.13448 0.58210 1.00910
 C3411 C 0.15313 0.59035 1.01061
 C3412 C 0.16952 0.58195 1.00067
 C3413 C 0.16660 0.56450 0.98958
 C3414 C 0.14795 0.55607 0.98810
 C3415 C 0.11236 0.55635 0.99617
 C3416 C 0.10987 0.53914 0.98501
 C3417 C 0.09120 0.53072 0.98387
 C3418 C 0.07510 0.53945 0.99380
 C3419 C 0.07789 0.55692 1.00463
 C3420 C 0.09647 0.56535 1.00596
 C3421 C 0.14486 0.53894 0.97691
 C3422 C 0.12616 0.53060 0.97543
 C3423 C 0.11822 0.59066 1.01871
 C3424 C 0.09952 0.58245 1.01713
 H3425 H 0.15701 0.53188 0.96928
 H3426 H 0.12446 0.51733 0.96674
 H3427 H 0.11994 0.60386 1.02751
 H3428 H 0.08737 0.58951 1.02479
 H3429 H 0.15475 0.60301 1.02013
 H3430 H 0.17847 0.55783 0.98125
 H3431 H 0.08928 0.51731 0.97546
 H3432 H 0.06571 0.56378 1.01242
 C3433 C 0.13222 0.43534 0.50377
 C3434 C 0.13508 0.41617 0.49647
 C3435 C 0.15414 0.40816 0.49578
 C3436 C 0.17030 0.41917 0.50228
 C3437 C 0.16714 0.43840 0.50954
 C3438 C 0.14812 0.44656 0.51033
 C3439 C 0.11220 0.44383 0.50453
 C3440 C 0.10933 0.46302 0.51176
 C3441 C 0.09029 0.47112 0.51222
 C3442 C 0.07415 0.46020 0.50542
 C3443 C 0.07734 0.44087 0.49838
 C3444 C 0.09632 0.43264 0.49789
 C3445 C 0.14465 0.46569 0.51752
 C3446 C 0.12559 0.47378 0.51823
 C3447 C 0.11883 0.40538 0.49007
 C3448 C 0.09977 0.41348 0.49075
 H3449 H 0.15678 0.47450 0.52263
 H3450 H 0.12357 0.48861 0.52384
 H3451 H 0.12085 0.39056 0.48444
 H3452 H 0.08765 0.40468 0.48560
 H3453 H 0.15634 0.39323 0.49049
 H3454 H 0.17948 0.44707 0.51440
 H3455 H 0.08811 0.48600 0.51765
 H3456 H 0.06512 0.43228 0.49311
 C3457 C 0.62978 0.93688 0.00050
 C3458 C 0.63208 0.91729 -0.00581
 C3459 C 0.65099 0.90896 -0.00688
 C3460 C 0.66756 0.92006 -0.00173
 C3461 C 0.66495 0.93972 0.00453
 C3462 C 0.64609 0.94819 0.00568
 C3463 C 0.60991 0.94571 0.00165
 C3464 C 0.60759 0.96531 0.00788
 C3465 C 0.58867 0.97372 0.00869
 C3466 C 0.57215 0.96268 0.00319
 C3467 C 0.57481 0.94294 -0.00282
 C3468 C 0.59363 0.93440 -0.00363
 C3469 C 0.64318 0.96775 0.01191
 C3470 C 0.62426 0.97617 0.01299
 C3471 C 0.61542 0.90641 -0.01084
 C3472 C 0.59652 0.91482 -0.00979
 H3473 H 0.65563 0.97665 0.01596
 H3474 H 0.62267 0.99131 0.01782
 H3475 H 0.61701 0.89127 -0.01569
 H3476 H 0.58407 0.90594 -0.01388
 H3477 H 0.65277 0.89373 -0.01138
 H3478 H 0.67760 0.94844 0.00835
 H3479 H 0.58689 0.98892 0.01330
 H3480 H 0.56227 0.93423 -0.00704
 C3481 C -0.00977 0.86740 0.93587
 C3482 C -0.01170 0.85059 0.94747
 C3483 C -0.01046 0.83192 0.93858
 C3484 C -0.00720 0.82984 0.91809
 C3485 C -0.00581 0.84719 0.90679
 C3486 C -0.00692 0.86584 0.91556
 C3487 C -0.01049 0.88703 0.94519
 C3488 C -0.00822 0.90380 0.93356
 C3489 C -0.00833 0.92238 0.94251
 C3490 C -0.01076 0.92434 0.96298
 C3491 C -0.01341 0.90737 0.97440
 C3492 C -0.01316 0.88865 0.96557
 C3493 C -0.00508 0.88298 0.90435
 C3494 C -0.00566 0.90164 0.91320
 C3495 C -0.01449 0.85279 0.96782
 C3496 C -0.01524 0.87149 0.97671
 H3497 H -0.00294 0.88196 0.88862
 H3498 H -0.00397 0.91448 0.90406
 H3499 H -0.01600 0.83994 0.97698
 H3500 H -0.01731 0.87250 0.99245
 H3501 H -0.01109 0.81917 0.94795
 H3502 H -0.00443 0.84646 0.89099
 H3503 H -0.00645 0.93531 0.93352
 H3504 H -0.01525 0.90867 0.99016
 C3505 C 0.49231 0.36679 0.43787
 C3506 C 0.48763 0.35007 0.44880
 C3507 C 0.48898 0.33142 0.43984
 C3508 C 0.49517 0.32952 0.42018
 C3509 C 0.49948 0.34652 0.40940
 C3510 C 0.49813 0.36516 0.41816
 C3511 C 0.49144 0.38637 0.44731
 C3512 C 0.49643 0.40300 0.43640
 C3513 C 0.49621 0.42149 0.44555
 C3514 C 0.49117 0.42351 0.46554
 C3515 C 0.48582 0.40668 0.47618
 C3516 C 0.48601 0.38805 0.46712
 C3517 C 0.50271 0.38218 0.40766
 C3518 C 0.50187 0.40079 0.41662
 C3519 C 0.48198 0.35235 0.46854
 C3520 C 0.48120 0.37100 0.47754
 H3521 H 0.50716 0.38110 0.39242
 H3522 H 0.50571 0.41353 0.40805
 H3523 H 0.47831 0.33959 0.47715
 H3524 H 0.47695 0.37207 0.49283
 H3525 H 0.48573 0.31841 0.44826
 H3526 H 0.50389 0.34523 0.39416
 H3527 H 0.50025 0.43426 0.43711
 H3528 H 0.48192 0.40798 0.49155
 C3529 C 0.00071 0.36375 0.56492
 C3530 C 0.00472 0.36216 0.58503
 C3531 C 0.00498 0.34355 0.59374
 C3532 C 0.00082 0.32641 0.58265
 C3533 C -0.00360 0.32851 0.56244
 C3534 C -0.00336 0.34705 0.55349
 C3535 C 0.00074 0.38330 0.55565
 C3536 C -0.00271 0.38485 0.53539
 C3537 C -0.00246 0.40346 0.52663
 C3538 C 0.00067 0.42044 0.53810
 C3539 C 0.00388 0.41863 0.55843
 C3540 C 0.00418 0.40006 0.56724
 C3541 C -0.00691 0.34923 0.53328
 C3542 C -0.00647 0.36778 0.52437
 C3543 C 0.00826 0.37924 0.59612
 C3544 C 0.00789 0.39788 0.58740
 H3545 H -0.00998 0.33646 0.52425
 H3546 H -0.00921 0.36878 0.50873
 H3547 H 0.01129 0.37821 0.61170
 H3548 H 0.01061 0.41068 0.59650
 H3549 H 0.00757 0.34268 0.60939
 H3550 H -0.00632 0.31570 0.55337
 H3551 H -0.00511 0.40479 0.51099
 H3552 H 0.00643 0.43165 0.56729
 C3553 C 0.49624 0.86543 0.06003
 C3554 C 0.51130 0.85179 0.05567
 C3555 C 0.51108 0.83321 0.06447
 C3556 C 0.49581 0.82820 0.07731
 C3557 C 0.48054 0.84184 0.08112
 C3558 C 0.48081 0.86060 0.07269
 C3559 C 0.49682 0.88526 0.05144
 C3560 C 0.48211 0.89910 0.05631
 C3561 C 0.48288 0.91803 0.04833
 C3562 C 0.49801 0.92301 0.03527
 C3563 C 0.51257 0.90888 0.03043
 C3564 C 0.51215 0.89003 0.03864
 C3565 C 0.46622 0.87477 0.07700
 C3566 C 0.46690 0.89372 0.06900
 C3567 C 0.52642 0.85711 0.04283
 C3568 C 0.52678 0.87587 0.03438
 H3569 H 0.45427 0.87125 0.08677
 H3570 H 0.45543 0.90426 0.07281
 H3571 H 0.53810 0.84670 0.03932
 H3572 H 0.53869 0.87937 0.02455
 H3573 H 0.52284 0.82270 0.06152
 H3574 H 0.46892 0.83808 0.09122
 H3575 H 0.47152 0.92875 0.05197
 H3576 H 0.52431 0.91263 0.02047
 C3577 C 0.49083 0.63477 0.06695
 C3578 C 0.49496 0.63649 0.08707
 C3579 C 0.49544 0.65521 0.09572
 C3580 C 0.49209 0.67220 0.08439
 C3581 C 0.48760 0.67018 0.06427
 C3582 C 0.48699 0.65147 0.05547
 C3583 C 0.49087 0.61511 0.05767
 C3584 C 0.48698 0.61336 0.03750
 C3585 C 0.48749 0.59466 0.02867
 C3586 C 0.49209 0.57781 0.03985
 C3587 C 0.49574 0.57989 0.06013
 C3588 C 0.49514 0.59848 0.06911
 C3589 C 0.48296 0.64911 0.03536
 C3590 C 0.48293 0.63038 0.02654
 C3591 C 0.49882 0.61948 0.09809
 C3592 C 0.49894 0.60080 0.08926
 H3593 H 0.47995 0.66186 0.02632
 H3594 H 0.47988 0.62924 0.01096
 H3595 H 0.50199 0.62064 0.11365
 H3596 H 0.50217 0.58807 0.09824
 H3597 H 0.49851 0.65655 0.11128
 H3598 H 0.48514 0.68315 0.05539
 H3599 H 0.48469 0.59329 0.01306
 H3600 H 0.49916 0.56707 0.06894
 C3601 C -0.00036 0.13136 0.56398
 C3602 C 0.01185 0.13468 0.58024
 C3603 C 0.01225 0.15344 0.58879
 C3604 C 0.00033 0.16884 0.58143
 C3605 C -0.01169 0.16530 0.56494
 C3606 C -0.01208 0.14656 0.55615
 C3607 C -0.00089 0.11157 0.55501
 C3608 C -0.01294 0.10822 0.53862
 C3609 C -0.01311 0.08942 0.52996
 C3610 C -0.00141 0.07402 0.53770
 C3611 C 0.01035 0.07766 0.55435
 C3612 C 0.01076 0.09639 0.56297
 C3613 C -0.02406 0.14262 0.53980
 C3614 C -0.02444 0.12380 0.53116
 C3615 C 0.02334 0.11913 0.58774
 C3616 C 0.02276 0.10030 0.57927
 H3617 H -0.03319 0.15419 0.53361
 H3618 H -0.03383 0.12143 0.51854
 H3619 H 0.03280 0.12153 0.60030
 H3620 H 0.03184 0.08871 0.58552
 H3621 H 0.02186 0.15604 0.60120
 H3622 H -0.02105 0.17696 0.55925
 H3623 H -0.02225 0.08682 0.51720
 H3624 H 0.01953 0.06603 0.56039
 C3625 C 0.50792 0.13522 0.43565
 C3626 C 0.51656 0.15122 0.44532
 C3627 C 0.51559 0.16990 0.43665
 C3628 C 0.50607 0.17255 0.41845
 C3629 C 0.49727 0.15633 0.40915
 C3630 C 0.49823 0.13766 0.41761
 C3631 C 0.50901 0.11554 0.44456
 C3632 C 0.50037 0.09960 0.43483
 C3633 C 0.50123 0.08097 0.44342
 C3634 C 0.51052 0.07816 0.46173
 C3635 C 0.51929 0.09432 0.47121
 C3636 C 0.51857 0.11306 0.46267
 C3637 C 0.48976 0.12135 0.40833
 C3638 C 0.49083 0.10263 0.41679
 C3639 C 0.52609 0.14815 0.46339
 C3640 C 0.52705 0.12941 0.47193
 H3641 H 0.48225 0.12306 0.39440
 H3642 H 0.48409 0.09043 0.40916
 H3643 H 0.53284 0.16035 0.47101
 H3644 H 0.53448 0.12771 0.48590
 H3645 H 0.52256 0.18223 0.44384
 H3646 H 0.48959 0.15826 0.39533
 H3647 H 0.49438 0.06874 0.43594
 H3648 H 0.52649 0.09240 0.48529
 C3649 C 0.00162 0.63651 0.93881
 C3650 C 0.01826 0.64824 0.94082
 C3651 C 0.01816 0.66705 0.93253
 C3652 C 0.00138 0.67447 0.92254
 C3653 C -0.01545 0.66257 0.92141
 C3654 C -0.01525 0.64350 0.92914
 C3655 C 0.00193 0.61644 0.94689
 C3656 C -0.01446 0.60442 0.94424
 C3657 C -0.01399 0.58526 0.95172
 C3658 C 0.00248 0.57838 0.96228
 C3659 C 0.01871 0.59067 0.96500
 C3660 C 0.01862 0.60965 0.95708
 C3661 C -0.03147 0.63113 0.92702
 C3662 C -0.03103 0.61187 0.93432
 C3663 C 0.03474 0.64090 0.95100
 C3664 C 0.03486 0.62198 0.95912
 H3665 H -0.04457 0.63631 0.91950
 H3666 H -0.04381 0.60278 0.93226
 H3667 H 0.04765 0.64987 0.95273
 H3668 H 0.04784 0.61692 0.96692
 H3669 H 0.03101 0.67605 0.93442
 H3670 H -0.02835 0.66754 0.91345
 H3671 H -0.02661 0.57590 0.94982
 H3672 H 0.03143 0.58536 0.97307
 C3673 C 0.24687 0.68616 0.88559
 C3674 C 0.24751 0.69840 0.90228
 C3675 C 0.24767 0.68987 0.92100
 C3676 C 0.24679 0.66932 0.92298
 C3677 C 0.24615 0.65730 0.90610
 C3678 C 0.24631 0.66563 0.88736
 C3679 C 0.24673 0.69500 0.86589
 C3680 C 0.24644 0.68272 0.84924
 C3681 C 0.24655 0.69117 0.83054
 C3682 C 0.24665 0.71175 0.82841
 C3683 C 0.24669 0.72387 0.84528
 C3684 C 0.24692 0.71554 0.86407
 C3685 C 0.24589 0.65383 0.87037
 C3686 C 0.24603 0.66224 0.85162
 C3687 C 0.24782 0.71889 0.89987
 C3688 C 0.24745 0.72732 0.88109
 H3689 H 0.24550 0.63797 0.87157
 H3690 H 0.24577 0.65262 0.83888
 H3691 H 0.24826 0.72850 0.91260
 H3692 H 0.24764 0.74319 0.87989
 H3693 H 0.24805 0.69914 0.93399
 H3694 H 0.24569 0.64145 0.90760
 H3695 H 0.24637 0.68174 0.81765
 H3696 H 0.24692 0.73972 0.84377
 C3697 C 0.75016 0.18454 0.38305
 C3698 C 0.74489 0.19608 0.39943
 C3699 C 0.74671 0.18806 0.41829
 C3700 C 0.75373 0.16864 0.42081
 C3701 C 0.75892 0.15730 0.40416
 C3702 C 0.75719 0.16519 0.38526
 C3703 C 0.74841 0.19293 0.36319
 C3704 C 0.75388 0.18146 0.34684
 C3705 C 0.75270 0.18968 0.32804
 C3706 C 0.74614 0.20926 0.32550
 C3707 C 0.74033 0.22041 0.34210
 C3708 C 0.74152 0.21234 0.36097
 C3709 C 0.76233 0.15409 0.36853
 C3710 C 0.76072 0.16210 0.34965
 C3711 C 0.73793 0.21540 0.39660
 C3712 C 0.73627 0.22339 0.37770
 H3713 H 0.76773 0.13912 0.37005
 H3714 H 0.76497 0.15308 0.33715
 H3715 H 0.73379 0.22446 0.40911
 H3716 H 0.73094 0.23839 0.37619
 H3717 H 0.74286 0.19698 0.43098
 H3718 H 0.76399 0.14224 0.40588
 H3719 H 0.75718 0.18090 0.31544
 H3720 H 0.73531 0.23550 0.34042
 C3721 C 0.25378 0.31443 0.38727
 C3722 C 0.25361 0.30211 0.40375
 C3723 C 0.25306 0.31057 0.42260
 C3724 C 0.25307 0.33113 0.42492
 C3725 C 0.25328 0.34324 0.40824
 C3726 C 0.25350 0.33497 0.38936
 C3727 C 0.25427 0.30565 0.36743
 C3728 C 0.25405 0.31797 0.35095
 C3729 C 0.25422 0.30954 0.33211
 C3730 C 0.25492 0.28896 0.32972
 C3731 C 0.25540 0.27684 0.34642
 C3732 C 0.25489 0.28511 0.36532
 C3733 C 0.25345 0.34682 0.37254
 C3734 C 0.25364 0.33846 0.35366
 C3735 C 0.25413 0.28162 0.40104
 C3736 C 0.25484 0.27326 0.38214
 H3737 H 0.25320 0.36269 0.37399
 H3738 H 0.25351 0.34812 0.34107
 H3739 H 0.25406 0.27196 0.41362
 H3740 H 0.25527 0.25739 0.38070
 H3741 H 0.25302 0.30123 0.43543
 H3742 H 0.25307 0.35910 0.41000
 H3743 H 0.25397 0.31898 0.31934
 H3744 H 0.25576 0.26098 0.34471
 C3745 C 0.75619 0.81345 0.88339
 C3746 C 0.75569 0.83403 0.88506
 C3747 C 0.75457 0.84270 0.90374
 C3748 C 0.75372 0.83096 0.92066
 C3749 C 0.75400 0.81034 0.91874
 C3750 C 0.75541 0.80149 0.90010
 C3751 C 0.75741 0.80427 0.86375
 C3752 C 0.75805 0.78369 0.86205
 C3753 C 0.75891 0.77503 0.84330
 C3754 C 0.75871 0.78683 0.82636
 C3755 C 0.75823 0.80746 0.82838
 C3756 C 0.75768 0.81625 0.84704
 C3757 C 0.75610 0.78095 0.89780
 C3758 C 0.75747 0.77220 0.87911
 C3759 C 0.75625 0.84553 0.86802
 C3760 C 0.75716 0.83679 0.84932
 H3761 H 0.75557 0.77154 0.91056
 H3762 H 0.75792 0.75631 0.87799
 H3763 H 0.75587 0.86143 0.86914
 H3764 H 0.75740 0.84619 0.83654
 H3765 H 0.75413 0.85859 0.90514
 H3766 H 0.75348 0.80126 0.93175
 H3767 H 0.75910 0.75915 0.84190
 H3768 H 0.75819 0.81665 0.81544
 C3769 C 0.74692 0.81332 0.11481
 C3770 C 0.73524 0.80568 0.09965
 C3771 C 0.73563 0.81452 0.08106
 C3772 C 0.74765 0.83086 0.07763
 C3773 C 0.75956 0.83799 0.09298
 C3774 C 0.75913 0.82941 0.11159
 C3775 C 0.74632 0.80436 0.13446
 C3776 C 0.75787 0.81218 0.14961
 C3777 C 0.75731 0.80363 0.16824
 C3778 C 0.74551 0.78717 0.17179
 C3779 C 0.73397 0.77952 0.15639
 C3780 C 0.73427 0.78813 0.13770
 C3781 C 0.77056 0.83674 0.12710
 C3782 C 0.76990 0.82830 0.14581
 C3783 C 0.72328 0.78948 0.10347
 C3784 C 0.72285 0.78082 0.12214
 H3785 H 0.78003 0.84917 0.12478
 H3786 H 0.77892 0.83443 0.15738
 H3787 H 0.71418 0.78343 0.09192
 H3788 H 0.71346 0.76832 0.12443
 H3789 H 0.72627 0.80900 0.06946
 H3790 H 0.76919 0.85026 0.09045
 H3791 H 0.76638 0.80958 0.17987
 H3792 H 0.72481 0.76690 0.15892
 C3793 C 0.24703 0.31159 0.61917
 C3794 C 0.23535 0.30429 0.60385
 C3795 C 0.23612 0.31325 0.58533
 C3796 C 0.24853 0.32935 0.58214
 C3797 C 0.26045 0.33609 0.59764
 C3798 C 0.25962 0.32743 0.61619
 C3799 C 0.24603 0.30254 0.63876
 C3800 C 0.25755 0.31007 0.65408
 C3801 C 0.25658 0.30148 0.67265
 C3802 C 0.24442 0.28525 0.67600
 C3803 C 0.23294 0.27784 0.66044
 C3804 C 0.23362 0.28653 0.64179
 C3805 C 0.27103 0.33445 0.63185
 C3806 C 0.26996 0.32595 0.65050
 C3807 C 0.22303 0.28831 0.60745
 C3808 C 0.22223 0.27954 0.62606
 H3809 H 0.28079 0.34668 0.62971
 H3810 H 0.27896 0.33184 0.66222
 H3811 H 0.21393 0.28251 0.59577
 H3812 H 0.21257 0.26722 0.62818
 H3813 H 0.22675 0.30801 0.57360
 H3814 H 0.27040 0.34814 0.59530
 H3815 H 0.26563 0.30724 0.68439
 H3816 H 0.22352 0.26539 0.66284
 C3817 C 0.75239 0.18774 0.61565
 C3818 C 0.73913 0.17265 0.61156
 C3819 C 0.73875 0.16430 0.59273
 C3820 C 0.75175 0.17063 0.57806
 C3821 C 0.76478 0.18601 0.58235
 C3822 C 0.76514 0.19463 0.60114
 C3823 C 0.75304 0.19636 0.63556
 C3824 C 0.76620 0.21154 0.63968
 C3825 C 0.76661 0.21979 0.65862
 C3826 C 0.75409 0.21279 0.67341
 C3827 C 0.74116 0.19738 0.66900
 C3828 C 0.74047 0.18922 0.65010
 C3829 C 0.77816 0.20981 0.60582
 C3830 C 0.77864 0.21816 0.62474
 C3831 C 0.72667 0.16603 0.62645
 C3832 C 0.72737 0.17414 0.64542
 H3833 H 0.78809 0.21527 0.59478
 H3834 H 0.78889 0.22984 0.62772
 H3835 H 0.71638 0.15438 0.62346
 H3836 H 0.71757 0.16855 0.65650
 H3837 H 0.72839 0.15276 0.58954
 H3838 H 0.77498 0.19087 0.57127
 H3839 H 0.77666 0.23159 0.66185
 H3840 H 0.73133 0.19199 0.68018
 C3841 C 0.25148 0.68657 0.11749
 C3842 C 0.23834 0.67122 0.11404
 C3843 C 0.23743 0.66265 0.09534
 C3844 C 0.24980 0.66901 0.08014
 C3845 C 0.26278 0.68458 0.08382
 C3846 C 0.26364 0.69345 0.10248
 C3847 C 0.25252 0.69557 0.13721
 C3848 C 0.26547 0.71109 0.14067
 C3849 C 0.26616 0.71978 0.15942
 C3850 C 0.25414 0.71287 0.17466
 C3851 C 0.24145 0.69709 0.17091
 C3852 C 0.24048 0.68850 0.15222
 C3853 C 0.27652 0.70893 0.10652
 C3854 C 0.27737 0.71764 0.12527
 C3855 C 0.22644 0.66464 0.12941
 C3856 C 0.22754 0.67309 0.14819
 H3857 H 0.28599 0.71439 0.09509
 H3858 H 0.28745 0.72959 0.12773
 H3859 H 0.21626 0.65279 0.12691
 H3860 H 0.21814 0.66756 0.15965
 H3861 H 0.22707 0.65100 0.09263
 H3862 H 0.27250 0.68950 0.07233
 H3863 H 0.27600 0.73188 0.16213
 H3864 H 0.23198 0.69175 0.18242
 C3865 C 0.18636 0.61416 0.75542
 C3866 C 0.19716 0.59750 0.76142
 C3867 C 0.18842 0.57894 0.76040
 C3868 C 0.16908 0.57703 0.75333
 C3869 C 0.15842 0.59399 0.74766
 C3870 C 0.16700 0.61255 0.74861
 C3871 C 0.19557 0.63366 0.75606
 C3872 C 0.18481 0.65024 0.74983
 C3873 C 0.19374 0.66866 0.75002
 C3874 C 0.21333 0.67064 0.75635
 C3875 C 0.22382 0.65384 0.76284
 C3876 C 0.21501 0.63530 0.76266
 C3877 C 0.15663 0.62952 0.74273
 C3878 C 0.16539 0.64804 0.74331
 C3879 C 0.21654 0.59976 0.76810
 C3880 C 0.22531 0.61833 0.76871
 H3881 H 0.14165 0.62845 0.73749
 H3882 H 0.15692 0.66074 0.73851
 H3883 H 0.22504 0.58704 0.77279
 H3884 H 0.24031 0.61938 0.77386
 H3885 H 0.19677 0.56597 0.76469
 H3886 H 0.14340 0.59275 0.74259
 H3887 H 0.18542 0.68141 0.74508
 H3888 H 0.23889 0.65512 0.76775
 C3889 C 0.68538 0.11488 0.25070
 C3890 C 0.69467 0.09852 0.25925
 C3891 C 0.68574 0.08005 0.25797
 C3892 C 0.66749 0.07775 0.24819
 C3893 C 0.65875 0.09458 0.23941
 C3894 C 0.66749 0.11304 0.24075
 C3895 C 0.69461 0.13434 0.25208
 C3896 C 0.68528 0.15064 0.24343
 C3897 C 0.69417 0.16903 0.24452
 C3898 C 0.71244 0.17125 0.25398
 C3899 C 0.72154 0.15473 0.26277
 C3900 C 0.71265 0.13623 0.26186
 C3901 C 0.65861 0.12971 0.23225
 C3902 C 0.66733 0.14821 0.23361
 C3903 C 0.71265 0.10100 0.26908
 C3904 C 0.72150 0.11951 0.27033
 H3905 H 0.64477 0.12846 0.22451
 H3906 H 0.66000 0.16068 0.22685
 H3907 H 0.71999 0.08852 0.27581
 H3908 H 0.73541 0.12073 0.27795
 H3909 H 0.69275 0.06781 0.26539
 H3910 H 0.64543 0.09348 0.23085
 H3911 H 0.68698 0.18152 0.23763
 H3912 H 0.73558 0.15620 0.27010
 C3913 C 0.81332 0.11522 0.74205
 C3914 C 0.83387 0.11335 0.74177
 C3915 C 0.84250 0.09454 0.74180
 C3916 C 0.83076 0.07769 0.74238
 C3917 C 0.81019 0.07978 0.74287
 C3918 C 0.80137 0.09856 0.74253
 C3919 C 0.80417 0.13499 0.74196
 C3920 C 0.78362 0.13688 0.74203
 C3921 C 0.77500 0.15573 0.74212
 C3922 C 0.78678 0.17259 0.74255
 C3923 C 0.80737 0.17040 0.74242
 C3924 C 0.81614 0.15163 0.74199
 C3925 C 0.78086 0.10105 0.74261
 C3926 C 0.77214 0.11988 0.74229
 C3927 C 0.84536 0.13033 0.74157
 C3928 C 0.83665 0.14916 0.74175
 H3929 H 0.77147 0.08834 0.74292
 H3930 H 0.75627 0.12115 0.74238
 H3931 H 0.86123 0.12906 0.74138
 H3932 H 0.84604 0.16187 0.74173
 H3933 H 0.85836 0.09297 0.74165
 H3934 H 0.80113 0.06682 0.74321
 H3935 H 0.75914 0.15726 0.74240
 H3936 H 0.81655 0.18329 0.74264
 C3937 C 0.31442 0.61775 0.24683
 C3938 C 0.33497 0.61599 0.24703
 C3939 C 0.34370 0.59723 0.24768
 C3940 C 0.33202 0.58034 0.24838
 C3941 C 0.31143 0.58234 0.24842
 C3942 C 0.30254 0.60105 0.24747
 C3943 C 0.30517 0.63746 0.24600
 C3944 C 0.28462 0.63922 0.24557
 C3945 C 0.27590 0.65800 0.24495
 C3946 C 0.28757 0.67494 0.24515
 C3947 C 0.30817 0.67289 0.24552
 C3948 C 0.31705 0.65416 0.24582
 C3949 C 0.28202 0.60342 0.24704
 C3950 C 0.27322 0.62218 0.24604
 C3951 C 0.34638 0.63303 0.24662
 C3952 C 0.33757 0.65180 0.24610
 H3953 H 0.27269 0.59067 0.24747
 H3954 H 0.25734 0.62336 0.24575
 H3955 H 0.36226 0.63185 0.24679
 H3956 H 0.34690 0.66456 0.24593
 H3957 H 0.35956 0.59573 0.24784
 H3958 H 0.30242 0.56935 0.24881
 H3959 H 0.26003 0.65943 0.24485
 H3960 H 0.31727 0.68583 0.24558
 C3961 C 0.31171 0.38662 0.25192
 C3962 C 0.30488 0.40164 0.26450
 C3963 C 0.31377 0.42014 0.26392
 C3964 C 0.32937 0.42359 0.25086
 C3965 C 0.33561 0.40843 0.23801
 C3966 C 0.32699 0.38991 0.23860
 C3967 C 0.30287 0.36699 0.25285
 C3968 C 0.31001 0.35191 0.24051
 C3969 C 0.30177 0.33323 0.24159
 C3970 C 0.28632 0.32954 0.25472
 C3971 C 0.27922 0.34488 0.26692
 C3972 C 0.28755 0.36363 0.26612
 C3973 C 0.33355 0.37452 0.22632
 C3974 C 0.32524 0.35582 0.22730
 C3975 C 0.28952 0.39774 0.27760
 C3976 C 0.28096 0.37908 0.27835
 H3977 H 0.34534 0.37690 0.21598
 H3978 H 0.33082 0.34431 0.21766
 H3979 H 0.28410 0.40919 0.28739
 H3980 H 0.26917 0.37670 0.28868
 H3981 H 0.30896 0.43162 0.27399
 H3982 H 0.34730 0.41101 0.22761
 H3983 H 0.30725 0.32162 0.23200
 H3984 H 0.26738 0.34220 0.27713
 C3985 C 0.81623 0.88306 0.75156
 C3986 C 0.80841 0.89862 0.76287
 C3987 C 0.81703 0.91723 0.76181
 C3988 C 0.83331 0.92030 0.74949
 C3989 C 0.84066 0.90453 0.73801
 C3990 C 0.83230 0.88589 0.73909
 C3991 C 0.80742 0.86342 0.75275
 C3992 C 0.81535 0.84790 0.74149
 C3993 C 0.80686 0.82932 0.74251
 C3994 C 0.79035 0.82617 0.75447
 C3995 C 0.78264 0.84191 0.76579
 C3996 C 0.79118 0.86057 0.76502
 C3997 C 0.83979 0.87000 0.72802
 C3998 C 0.83148 0.85131 0.72924
 C3999 C 0.79224 0.89517 0.77510
 C4000 C 0.78374 0.87650 0.77612
 H4001 H 0.85220 0.87202 0.71836
 H4002 H 0.83770 0.83945 0.72045
 H4003 H 0.78606 0.90703 0.78393
 H4004 H 0.77124 0.87451 0.78567
 H4005 H 0.81135 0.92918 0.77084
 H4006 H 0.85290 0.90675 0.72816
 H4007 H 0.81288 0.81743 0.73361
 H4008 H 0.76998 0.83968 0.77509
 C4009 C 0.68704 0.88355 0.24190
 C4010 C 0.69886 0.90030 0.24256
 C4011 C 0.68988 0.91901 0.24317
 C4012 C 0.66929 0.92093 0.24278
 C4013 C 0.65769 0.90398 0.24204
 C4014 C 0.66648 0.88524 0.24173
 C4015 C 0.69636 0.86385 0.24148
 C4016 C 0.68453 0.84711 0.24130
 C4017 C 0.69345 0.82841 0.24138
 C4018 C 0.71406 0.82640 0.24140
 C4019 C 0.72571 0.84335 0.24119
 C4020 C 0.71692 0.86213 0.24143
 C4021 C 0.65513 0.86816 0.24132
 C4022 C 0.66400 0.84941 0.24118
 C4023 C 0.71939 0.89798 0.24252
 C4024 C 0.72826 0.87922 0.24190
 H4025 H 0.63925 0.86929 0.24120
 H4026 H 0.65472 0.83661 0.24099
 H4027 H 0.72867 0.91078 0.24297
 H4028 H 0.74414 0.87809 0.24190
 H4029 H 0.69884 0.93204 0.24361
 H4030 H 0.64182 0.90541 0.24196
 H4031 H 0.68438 0.81545 0.24141
 H4032 H 0.74157 0.84194 0.24136
 C4033 C 0.18484 0.38201 0.74698
 C4034 C 0.19427 0.39763 0.73769
 C4035 C 0.18553 0.41647 0.73821
 C4036 C 0.16751 0.41967 0.74793
 C4037 C 0.15845 0.40382 0.75738
 C4038 C 0.16698 0.38497 0.75687
 C4039 C 0.19383 0.36216 0.74638
 C4040 C 0.18436 0.34659 0.75568
 C4041 C 0.19305 0.32780 0.75528
 C4042 C 0.21121 0.32450 0.74582
 C4043 C 0.22042 0.34031 0.73640
 C4044 C 0.21178 0.35917 0.73663
 C4045 C 0.15794 0.36902 0.76600
 C4046 C 0.16648 0.35014 0.76539
 C4047 C 0.21216 0.39405 0.72797
 C4048 C 0.22078 0.37516 0.72748
 H4049 H 0.14415 0.37114 0.77366
 H4050 H 0.15904 0.33824 0.77264
 H4051 H 0.21958 0.40595 0.72072
 H4052 H 0.23462 0.37305 0.71990
 H4053 H 0.19254 0.42850 0.73073
 H4054 H 0.14477 0.40616 0.76521
 H4055 H 0.18580 0.31586 0.76265
 H4056 H 0.23436 0.33800 0.72904
 C4057 C 0.11629 0.74980 0.81253
 C4058 C 0.11232 0.76422 0.82686
 C4059 C 0.09366 0.76523 0.83541
 C4060 C 0.07907 0.75170 0.83007
 C4061 C 0.08326 0.73746 0.81546
 C4062 C 0.10185 0.73648 0.80661
 C4063 C 0.13601 0.74851 0.80370
 C4064 C 0.14000 0.73418 0.78927
 C4065 C 0.15880 0.73307 0.78089
 C4066 C 0.17359 0.74600 0.78711
 C4067 C 0.16931 0.76018 0.80172
 C4068 C 0.15053 0.76159 0.80995
 C4069 C 0.10639 0.72231 0.79215
 C4070 C 0.12512 0.72122 0.78357
 C4071 C 0.12716 0.77720 0.83255
 C4072 C 0.14598 0.77586 0.82429
 H4073 H 0.09538 0.71195 0.78743
 H4074 H 0.12800 0.71008 0.77247
 H4075 H 0.12426 0.78839 0.84360
 H4076 H 0.15705 0.78607 0.82917
 H4077 H 0.09054 0.77651 0.84632
 H4078 H 0.07228 0.72681 0.81137
 H4079 H 0.16197 0.72207 0.76971
 H4080 H 0.18052 0.77033 0.80646
 C4081 C 0.61759 0.24678 0.31244
 C4082 C 0.61519 0.25726 0.33010
 C4083 C 0.59657 0.25852 0.33871
 C4084 C 0.58039 0.24919 0.32996
 C4085 C 0.58300 0.23892 0.31208
 C4086 C 0.60162 0.23767 0.30325
 C4087 C 0.63724 0.24530 0.30344
 C4088 C 0.63971 0.23492 0.28570
 C4089 C 0.65842 0.23380 0.27709
 C4090 C 0.67458 0.24294 0.28616
 C4091 C 0.67176 0.25305 0.30410
 C4092 C 0.65316 0.25435 0.31273
 C4093 C 0.60466 0.22734 0.28555
 C4094 C 0.62337 0.22602 0.27691
 C4095 C 0.63148 0.26617 0.33892
 C4096 C 0.65016 0.26472 0.33039
 H4097 H 0.59249 0.22021 0.27831
 H4098 H 0.62505 0.21796 0.26324
 H4099 H 0.62978 0.27429 0.35256
 H4100 H 0.66234 0.27179 0.33767
 H4101 H 0.59468 0.26676 0.35226
 H4102 H 0.57071 0.23154 0.30531
 H4103 H 0.66035 0.22596 0.26331
 H4104 H 0.68397 0.26024 0.31124
 C4105 C 0.61648 0.75329 0.18548
 C4106 C 0.60159 0.76561 0.19311
 C4107 C 0.58270 0.76495 0.18485
 C4108 C 0.57869 0.75203 0.16911
 C4109 C 0.59377 0.73951 0.16199
 C4110 C 0.61269 0.74020 0.16998
 C4111 C 0.63644 0.75413 0.19384
 C4112 C 0.65131 0.74191 0.18606
 C4113 C 0.67021 0.74263 0.19413
 C4114 C 0.67427 0.75523 0.21008
 C4115 C 0.65918 0.76750 0.21764
 C4116 C 0.64023 0.76705 0.20951
 C4117 C 0.62794 0.72815 0.16264
 C4118 C 0.64694 0.72903 0.17052
 C4119 C 0.60599 0.77846 0.20870
 C4120 C 0.62496 0.77913 0.21679
 H4121 H 0.62518 0.71800 0.15066
 H4122 H 0.65830 0.71949 0.16443
 H4123 H 0.59466 0.78807 0.21472
 H4124 H 0.62769 0.78919 0.22885
 H4125 H 0.57129 0.77479 0.19034
 H4126 H 0.59080 0.72924 0.15016
 H4127 H 0.68162 0.73300 0.18827
 H4128 H 0.66214 0.77730 0.22986
 C4129 C 0.11571 0.24956 0.68749
 C4130 C 0.09967 0.25888 0.69669
 C4131 C 0.08098 0.25781 0.68800
 C4132 C 0.07813 0.24752 0.67005
 C4133 C 0.09464 0.23792 0.66143
 C4134 C 0.11331 0.23902 0.66994
 C4135 C 0.13541 0.25079 0.69643
 C4136 C 0.15140 0.24139 0.68719
 C4137 C 0.17004 0.24240 0.69580
 C4138 C 0.17281 0.25255 0.71369
 C4139 C 0.15658 0.26205 0.72269
 C4140 C 0.13784 0.26122 0.71410
 C4141 C 0.12967 0.22975 0.66116
 C4142 C 0.14840 0.23096 0.66961
 C4143 C 0.10270 0.26930 0.71431
 C4144 C 0.12144 0.27042 0.72288
 H4145 H 0.12800 0.22154 0.64759
 H4146 H 0.16062 0.22360 0.66236
 H4147 H 0.09048 0.27663 0.72157
 H4148 H 0.12309 0.27854 0.73650
 H4149 H 0.06901 0.26583 0.69490
 H4150 H 0.09309 0.22897 0.64835
 H4151 H 0.18231 0.23494 0.68872
 H4152 H 0.15846 0.26992 0.73644
 C4153 C 0.88345 0.24457 0.68729
 C4154 C 0.90006 0.24023 0.69879
 C4155 C 0.91880 0.24160 0.69042
 C4156 C 0.92098 0.24724 0.67067
 C4157 C 0.90408 0.25140 0.65935
 C4158 C 0.88532 0.25016 0.66760
 C4159 C 0.86373 0.24344 0.69609
 C4160 C 0.84716 0.24809 0.68466
 C4161 C 0.82848 0.24757 0.69324
 C4162 C 0.82629 0.24247 0.71314
 C4163 C 0.84310 0.23741 0.72425
 C4164 C 0.86185 0.23800 0.71583
 C4165 C 0.86837 0.25444 0.65655
 C4166 C 0.84961 0.25345 0.66494
 C4167 C 0.89758 0.23469 0.71846
 C4168 C 0.87881 0.23358 0.72683
 H4169 H 0.86962 0.25872 0.64131
 H4170 H 0.83694 0.25703 0.65595
 H4171 H 0.91027 0.23127 0.72750
 H4172 H 0.87756 0.22936 0.74208
 H4173 H 0.93167 0.23855 0.69933
 H4174 H 0.90552 0.25538 0.64405
 H4175 H 0.81571 0.25139 0.68447
 H4176 H 0.84166 0.23351 0.73958
 C4177 C 0.38388 0.74807 0.18881
 C4178 C 0.39980 0.73914 0.19858
 C4179 C 0.41872 0.74054 0.19057
 C4180 C 0.42173 0.75089 0.17299
 C4181 C 0.40553 0.75973 0.16343
 C4182 C 0.38659 0.75835 0.17125
 C4183 C 0.36398 0.74674 0.19719
 C4184 C 0.34810 0.75573 0.18742
 C4185 C 0.32929 0.75483 0.19564
 C4186 C 0.32626 0.74521 0.21365
 C4187 C 0.34237 0.73600 0.22309
 C4188 C 0.36126 0.73674 0.21491
 C4189 C 0.37031 0.76701 0.16182
 C4190 C 0.35139 0.76571 0.16977
 C4191 C 0.39647 0.72907 0.21619
 C4192 C 0.37754 0.72791 0.22423
 H4193 H 0.37221 0.77493 0.14823
 H4194 H 0.33925 0.77270 0.16208
 H4195 H 0.40862 0.72210 0.22388
 H4196 H 0.37565 0.72011 0.23790
 H4197 H 0.43110 0.73378 0.19807
 H4198 H 0.40762 0.76741 0.14971
 H4199 H 0.31711 0.76203 0.18820
 H4200 H 0.34029 0.72850 0.23690
 C4201 C 0.38545 0.25637 0.31449
 C4202 C 0.40158 0.26277 0.30355
 C4203 C 0.42042 0.26193 0.31197
 C4204 C 0.42313 0.25464 0.33112
 C4205 C 0.40670 0.24854 0.34191
 C4206 C 0.38786 0.24930 0.33366
 C4207 C 0.36567 0.25688 0.30564
 C4208 C 0.34961 0.25027 0.31653
 C4209 C 0.33090 0.25043 0.30796
 C4210 C 0.32811 0.25710 0.28858
 C4211 C 0.34441 0.26389 0.27794
 C4212 C 0.36322 0.26376 0.28639
 C4213 C 0.37141 0.24301 0.34418
 C4214 C 0.35261 0.24348 0.33575
 C4215 C 0.39853 0.26970 0.28438
 C4216 C 0.37969 0.27018 0.27595
 H4217 H 0.37310 0.23757 0.35900
 H4218 H 0.34033 0.23838 0.34432
 H4219 H 0.41083 0.27470 0.27577
 H4220 H 0.37801 0.27555 0.26109
 H4221 H 0.43297 0.26655 0.30351
 H4222 H 0.40855 0.24328 0.35679
 H4223 H 0.31855 0.24522 0.31637
 H4224 H 0.34253 0.26905 0.26303
 C4225 C 0.88614 0.75181 0.81168
 C4226 C 0.90154 0.76167 0.80247
 C4227 C 0.92044 0.76066 0.81069
 C4228 C 0.92396 0.74979 0.82792
 C4229 C 0.90833 0.73990 0.83685
 C4230 C 0.88939 0.74091 0.82884
 C4231 C 0.86622 0.75292 0.80319
 C4232 C 0.85083 0.74313 0.81247
 C4233 C 0.83197 0.74400 0.80423
 C4234 C 0.82845 0.75441 0.78670
 C4235 C 0.84408 0.76431 0.77771
 C4236 C 0.86298 0.76363 0.78591
 C4237 C 0.87361 0.73135 0.83772
 C4238 C 0.85465 0.73246 0.82968
 C4239 C 0.89771 0.77235 0.78526
 C4240 C 0.87877 0.77329 0.77711
 H4241 H 0.87593 0.72293 0.85099
 H4242 H 0.84289 0.72483 0.83697
 H4243 H 0.90945 0.78003 0.77801
 H4244 H 0.87647 0.78162 0.76378
 H4245 H 0.93241 0.76822 0.80367
 H4246 H 0.91084 0.73178 0.85029
 H4247 H 0.82016 0.73624 0.81128
 H4248 H 0.84159 0.77242 0.76426
   
