data_POSCAR
  _audit_creation_date              2014-09-24
  _audit_creation_method            'ToBaCCo'
  _symmetry_space_group_name_H-M    'P1'
  _symmetry_Int_Tables_number       1
  _symmetry_cell_setting            triclinic
  loop_
  _symmetry_equiv_pos_as_xyz
 x,y,z
_cell_length_a 66.2801
_cell_length_b 66.3397
_cell_length_c 66.3483
_cell_angle_alpha 89.960200
_cell_angle_beta 90.072800
_cell_angle_gamma 89.896200
loop_
  _atom_site_label
  _atom_site_type_symbol
  _atom_site_fract_x
  _atom_site_fract_y
  _atom_site_fract_z
C1 C 0.24550 0.99558 -0.01317
 C2 C 0.24709 0.99481 0.00720
 C3 C 0.24785 0.97555 0.01853
 C4 C 0.24801 1.01336 0.01957
 C5 C 0.24480 1.01502 -0.02421
 C6 C 0.24478 0.97712 -0.02564
 C7 C 0.23186 0.96173 0.01771
 C8 C 0.23162 0.94501 0.03059
 C9 C 0.24731 0.94192 0.04458
 C10 C 0.26354 0.95552 0.04491
 C11 C 0.26377 0.97216 0.03205
 C12 C 0.23224 1.01774 0.03276
 C13 C 0.23338 1.03424 0.04571
 C14 C 0.25076 1.04677 0.04642
 C15 C 0.26639 1.04222 0.03243
 C16 C 0.26496 1.02583 0.01925
 C17 C 0.25947 1.01918 -0.03882
 C18 C 0.25889 1.03720 -0.04966
 C19 C 0.24352 1.05141 -0.04619
 C20 C 0.22875 1.04717 -0.03159
 C21 C 0.22936 1.02910 -0.02072
 C22 C 0.26201 0.96517 -0.02838
 C23 C 0.26168 0.94904 -0.04197
 C24 C 0.24401 0.94445 -0.05288
 C25 C 0.22659 0.95612 -0.04941
 C26 C 0.22707 0.97244 -0.03615
 H27 H 0.21922 0.96428 0.00766
 H28 H 0.21900 0.93470 0.02985
 H29 H 0.27569 0.95382 0.05570
 H30 H 0.27614 0.98276 0.03306
 H31 H 0.21888 1.00835 0.03296
 H32 H 0.22007 1.03714 0.05458
 H33 H 0.27743 1.02242 0.00927
 H34 H 0.27142 1.00843 -0.04183
 H35 H 0.27027 1.03985 -0.06105
 H36 H 0.21678 1.05786 -0.02852
 H37 H 0.21771 1.02602 -0.00972
 H38 H 0.27588 0.96879 -0.02054
 H39 H 0.27547 0.94064 -0.04441
 H40 H 0.21256 0.95279 -0.05707
 H41 H 0.21364 0.98155 -0.03416
 H42 H 0.28050 1.05028 0.03211
 C43 C 0.74525 0.49546 0.48289
 C44 C 0.74610 0.49565 0.50329
 C45 C 0.74771 0.51463 0.51492
 C46 C 0.74571 0.47693 0.51533
 C47 C 0.74439 0.47646 0.47121
 C48 C 0.74548 0.51438 0.47110
 C49 C 0.76435 0.51757 0.52762
 C50 C 0.76547 0.53459 0.53989
 C51 C 0.74989 0.54898 0.53978
 C52 C 0.73332 0.54614 0.52681
 C53 C 0.73222 0.52907 0.51450
 C54 C 0.76320 0.46534 0.51792
 C55 C 0.76352 0.44958 0.53194
 C56 C 0.74623 0.44504 0.54343
 C57 C 0.72844 0.45613 0.53989
 C58 C 0.72829 0.47209 0.52619
 C59 C 0.72819 0.46303 0.47327
 C60 C 0.72710 0.44576 0.46121
 C61 C 0.74218 0.44169 0.44686
 C62 C 0.75842 0.45516 0.44497
 C63 C 0.75946 0.47238 0.45697
 C64 C 0.72803 0.52049 0.46086
 C65 C 0.72814 0.53793 0.44909
 C66 C 0.74589 0.54936 0.44691
 C67 C 0.76335 0.54318 0.45738
 C68 C 0.76311 0.52590 0.46946
 H69 H 0.77639 0.50653 0.52824
 H70 H 0.77826 0.53615 0.54994
 H71 H 0.72115 0.55704 0.52631
 H72 H 0.71911 0.52688 0.50501
 H73 H 0.77685 0.46912 0.50979
 H74 H 0.77755 0.44157 0.53440
 H75 H 0.71469 0.48098 0.52435
 H76 H 0.71620 0.46612 0.48390
 H77 H 0.71446 0.43562 0.46308
 H78 H 0.77007 0.45265 0.43382
 H79 H 0.77199 0.48267 0.45504
 H80 H 0.71429 0.51176 0.46209
 H81 H 0.71428 0.54242 0.44170
 H82 H 0.77738 0.55137 0.45584
 H83 H 0.77674 0.52123 0.47719
 H84 H 0.71470 0.45276 0.54800
 C85 C 0.75348 1.00519 0.99383
 C86 C 0.75458 0.98481 0.99397
 C87 C 0.75581 0.97311 0.97508
 C88 C 0.75402 0.97305 1.01297
 C89 C 0.75264 1.01701 1.01265
 C90 C 0.75278 1.01699 0.97491
 C91 C 0.73849 0.96931 0.96360
 C92 C 0.73943 0.95627 0.94706
 C93 C 0.75779 0.94702 0.94162
 C94 C 0.77526 0.95166 0.95278
 C95 C 0.77421 0.96439 0.96949
 C96 C 0.73858 0.95895 1.01596
 C97 C 0.73797 0.94740 1.03353
 C98 C 0.75284 0.94965 1.04849
 C99 C 0.76838 0.96375 1.04541
 C100 C 0.76900 0.97529 1.02776
 C101 C 0.76972 1.02769 1.01888
 C102 C 0.76880 1.04030 1.03566
 C103 C 0.75058 1.04292 1.04623
 C104 C 0.73354 1.03180 1.04009
 C105 C 0.73462 1.01886 1.02349
 C106 C 0.76965 1.01835 0.96233
 C107 C 0.76957 1.03158 0.94588
 C108 C 0.75257 1.04382 0.94161
 C109 C 0.73545 1.04166 0.95414
 C110 C 0.73566 1.02855 0.97058
 H111 H 0.72415 0.97585 0.96790
 H112 H 0.72562 0.95287 0.93905
 H113 H 0.78974 0.94527 0.94878
 H114 H 0.78770 0.96725 0.97825
 H115 H 0.72696 0.95688 1.00467
 H116 H 0.72603 0.93641 1.03522
 H117 H 0.78127 0.98582 1.02556
 H118 H 0.78375 1.02635 1.01061
 H119 H 0.78236 1.04815 1.04022
 H120 H 0.71919 1.03361 1.04763
 H121 H 0.72125 1.01080 1.01867
 H122 H 0.78306 1.00958 0.96556
 H123 H 0.78286 1.03184 0.93645
 H124 H 0.72218 1.05097 0.95228
 H125 H 0.72257 1.02784 0.98031
 H126 H 0.78000 0.96592 1.05668
 C127 C 0.25368 0.50396 0.49753
 C128 C 0.25425 0.48355 0.49701
 C129 C 0.25381 0.47142 0.51572
 C130 C 0.25502 0.47214 0.47782
 C131 C 0.25347 0.51624 0.47894
 C132 C 0.25294 0.51535 0.51674
 C133 C 0.27096 0.46049 0.52148
 C134 C 0.27047 0.44810 0.53848
 C135 C 0.25263 0.44597 0.54978
 C136 C 0.23549 0.45717 0.54398
 C137 C 0.23613 0.46988 0.52716
 C138 C 0.27117 0.47445 0.46435
 C139 C 0.27239 0.46245 0.44705
 C140 C 0.25751 0.44791 0.44297
 C141 C 0.24127 0.44583 0.45642
 C142 C 0.24009 0.45777 0.47368
 C143 C 0.23578 0.51828 0.46753
 C144 C 0.23488 0.53224 0.45173
 C145 C 0.25176 0.54420 0.44695
 C146 C 0.26974 0.54127 0.45791
 C147 C 0.27047 0.52765 0.47392
 C148 C 0.23692 0.52870 0.52026
 C149 C 0.23671 0.54078 0.53746
 C150 C 0.25262 0.53983 0.55147
 C151 C 0.26856 0.52623 0.54805
 C152 C 0.26873 0.51410 0.53080
 H153 H 0.28473 0.46160 0.51278
 H154 H 0.28412 0.44016 0.54271
 H155 H 0.22139 0.45570 0.55205
 H156 H 0.22270 0.47810 0.52273
 H157 H 0.28305 0.48518 0.46748
 H158 H 0.28502 0.46447 0.43692
 H159 H 0.22761 0.45564 0.48399
 H160 H 0.22244 0.50973 0.47146
 H161 H 0.22070 0.53421 0.44386
 H162 H 0.28321 0.54975 0.45435
 H163 H 0.28422 0.52622 0.48265
 H164 H 0.22467 0.52999 0.50951
 H165 H 0.22439 0.55132 0.53947
 H166 H 0.28096 0.52508 0.55863
 H167 H 0.28140 0.50412 0.52817
 H168 H 0.22975 0.43455 0.45390
 C169 C 0.99579 0.24908 0.01868
 C170 C 0.99559 0.24967 -0.00174
 C171 C 0.97672 0.24927 -0.01359
 C172 C 1.01433 0.25074 -0.01371
 C173 C 1.01500 0.24912 0.03019
 C174 C 0.97693 0.24821 0.03066
 C175 C 0.97178 0.23191 -0.02440
 C176 C 0.95587 0.23209 -0.03816
 C177 C 0.94472 0.24992 -0.04201
 C178 C 0.94940 0.26712 -0.03022
 C179 C 0.96519 0.26674 -0.01620
 C180 C 1.02668 0.23380 -0.01610
 C181 C 1.04315 0.23441 -0.02925
 C182 C 1.04774 0.25209 -0.04035
 C183 C 1.03551 0.26928 -0.03694
 C184 C 1.01894 0.26848 -0.02405
 C185 C 1.02858 0.26521 0.02880
 C186 C 1.04641 0.26516 0.04010
 C187 C 1.05113 0.24900 0.05324
 C188 C 1.03715 0.23294 0.05446
 C189 C 1.01937 0.23309 0.04318
 C190 C 0.97322 0.26305 0.04522
 C191 C 0.95624 0.26187 0.05760
 C192 C 0.94269 0.24569 0.05578
 C193 C 0.94640 0.23084 0.04110
 C194 C 0.96340 0.23207 0.02868
 H195 H 0.98054 0.21824 -0.02242
 H196 H 0.95242 0.21801 -0.04556
 H197 H 0.94195 0.28142 -0.03254
 H198 H 0.96909 0.28038 -0.00813
 H199 H 1.02309 0.21989 -0.00835
 H200 H 1.05138 0.22051 -0.03139
 H201 H 1.00961 0.28177 -0.02216
 H202 H 1.02533 0.27789 0.01902
 H203 H 1.05666 0.27762 0.03788
 H204 H 1.03926 0.22052 0.06481
 H205 H 1.00890 0.22066 0.04467
 H206 H 0.98362 0.27549 0.04714
 H207 H 0.95402 0.27335 0.06898
 H208 H 0.93619 0.21825 0.03927
 H209 H 0.96624 0.22021 0.01784
 H210 H 1.03870 0.28366 -0.04386
 C211 C 0.49722 0.74598 0.51410
 C212 C 0.49685 0.74774 0.49372
 C213 C 0.47769 0.74862 0.48220
 C214 C 0.51562 0.74876 0.48159
 C215 C 0.51637 0.74540 0.52566
 C216 C 0.47849 0.74494 0.52614
 C217 C 0.46391 0.73259 0.48258
 C218 C 0.44701 0.73279 0.46993
 C219 C 0.44368 0.74899 0.45661
 C220 C 0.45734 0.76518 0.45661
 C221 C 0.47418 0.76495 0.46923
 C222 C 0.51882 0.73449 0.46634
 C223 C 0.53584 0.73562 0.45408
 C224 C 0.54999 0.75116 0.45670
 C225 C 0.54678 0.76547 0.47201
 C226 C 0.52970 0.76430 0.48434
 C227 C 0.51987 0.75998 0.54054
 C228 C 0.53761 0.75961 0.55185
 C229 C 0.55217 0.74453 0.54863
 C230 C 0.54858 0.72981 0.53381
 C231 C 0.53080 0.73023 0.52242
 C232 C 0.46640 0.76205 0.52897
 C233 C 0.45002 0.76140 0.54224
 C234 C 0.44533 0.74353 0.55273
 C235 C 0.45712 0.72623 0.54913
 C236 C 0.47368 0.72702 0.53618
 H237 H 0.46657 0.71966 0.49220
 H238 H 0.43668 0.72017 0.47036
 H239 H 0.45542 0.77770 0.44631
 H240 H 0.48477 0.77735 0.46857
 H241 H 0.50801 0.72251 0.46387
 H242 H 0.53769 0.72459 0.44219
 H243 H 0.52732 0.77564 0.49583
 H244 H 0.50885 0.77172 0.54335
 H245 H 0.53976 0.77092 0.56341
 H246 H 0.55957 0.71806 0.53095
 H247 H 0.52822 0.71869 0.51118
 H248 H 0.47012 0.77607 0.52148
 H249 H 0.44151 0.77509 0.54481
 H250 H 0.45371 0.71206 0.55646
 H251 H 0.48289 0.71368 0.53411
 H252 H 0.55747 0.77756 0.47444
 C253 C 0.00626 0.75296 0.00268
 C254 C -0.01417 0.75428 0.00263
 C255 C -0.02596 0.75432 -0.01636
 C256 C -0.02600 0.75538 0.02148
 C257 C 0.01818 0.75260 0.02159
 C258 C 0.01800 0.75185 -0.01628
 C259 C -0.02383 0.76977 -0.03058
 C260 C -0.03554 0.76983 -0.04814
 C261 C -0.04969 0.75433 -0.05196
 C262 C -0.05154 0.73885 -0.03741
 C263 C -0.03995 0.73897 -0.01986
 C264 C -0.03710 0.77279 0.02569
 C265 C -0.04980 0.77358 0.04241
 C266 C -0.05226 0.75669 0.05524
 C267 C -0.04044 0.73936 0.05101
 C268 C -0.02748 0.73878 0.03439
 C269 C 0.03160 0.73661 0.02504
 C270 C 0.04444 0.73680 0.04170
 C271 C 0.04423 0.75309 0.05522
 C272 C 0.03053 0.76900 0.05193
 C273 C 0.01763 0.76877 0.03522
 C274 C 0.01604 0.73548 -0.02944
 C275 C 0.02820 0.73411 -0.04661
 C276 C 0.04264 0.74916 -0.05108
 C277 C 0.04415 0.76569 -0.03773
 C278 C 0.03212 0.76689 -0.02054
 H279 H -0.01313 0.78184 -0.02804
 H280 H -0.03287 0.78176 -0.05891
 H281 H -0.06263 0.72701 -0.03890
 H282 H -0.04196 0.72703 -0.00890
 H283 H -0.03594 0.78584 0.01592
 H284 H -0.05731 0.78776 0.04524
 H285 H -0.01916 0.72509 0.03113
 H286 H 0.03239 0.72411 0.01456
 H287 H 0.05503 0.72450 0.04361
 H288 H 0.02995 0.78169 0.06216
 H289 H 0.00763 0.78144 0.03261
 H290 H 0.00526 0.72365 -0.02629
 H291 H 0.02576 0.72143 -0.05654
 H292 H 0.05537 0.77733 -0.03973
 H293 H 0.03400 0.77952 -0.01036
 H294 H -0.04183 0.72565 0.05968
 C295 C 0.48494 0.25330 0.50659
 C296 C 0.50532 0.25119 0.50649
 C297 C 0.51692 0.24950 0.48745
 C298 C 0.51739 0.25068 0.52534
 C299 C 0.47333 0.25411 0.52560
 C300 C 0.47299 0.25435 0.48767
 C301 C 0.51340 0.23372 0.47381
 C302 C 0.52519 0.23187 0.45644
 C303 C 0.54072 0.24575 0.45248
 C304 C 0.54411 0.26154 0.46617
 C305 C 0.53238 0.26334 0.48351
 C306 C 0.53066 0.23453 0.52872
 C307 C 0.54398 0.23483 0.54502
 C308 C 0.54441 0.25138 0.55823
 C309 C 0.53076 0.26736 0.55510
 C310 C 0.51739 0.26703 0.53876
 C311 C 0.46294 0.27177 0.53069
 C312 C 0.45041 0.27225 0.54758
 C313 C 0.44757 0.25487 0.55944
 C314 C 0.45841 0.23727 0.55445
 C315 C 0.47126 0.23694 0.53774
 C316 C 0.47661 0.26935 0.47318
 C317 C 0.46514 0.27007 0.45547
 C318 C 0.44982 0.25583 0.45199
 C319 C 0.44614 0.24099 0.46666
 C320 C 0.45755 0.24031 0.48433
 H321 H 0.50172 0.22272 0.47677
 H322 H 0.52219 0.21961 0.44610
 H323 H 0.55618 0.27224 0.46372
 H324 H 0.53543 0.27549 0.49396
 H325 H 0.53105 0.22189 0.51840
 H326 H 0.55449 0.22245 0.54681
 H327 H 0.50755 0.27982 0.53618
 H328 H 0.46441 0.28515 0.52145
 H329 H 0.44278 0.28622 0.55119
 H330 H 0.45642 0.22351 0.56298
 H331 H 0.47902 0.22311 0.53382
 H332 H 0.48827 0.28050 0.47562
 H333 H 0.46838 0.28162 0.44441
 H334 H 0.43421 0.23004 0.46459
 H335 H 0.45443 0.22871 0.49538
 H336 H 0.53064 0.28024 0.56510
 C337 C 1.00394 0.01694 0.25195
 C338 C 1.00405 -0.00349 0.25117
 C339 C 1.02299 -0.01526 0.24971
 C340 C 0.98522 -0.01546 0.25194
 C341 C 0.98491 0.02871 0.25290
 C342 C 1.02287 0.02869 0.25162
 C343 C 1.02600 -0.02783 0.23308
 C344 C 1.04233 -0.04110 0.23249
 C345 C 1.05605 -0.04244 0.24879
 C346 C 1.05314 -0.02916 0.26524
 C347 C 1.03681 -0.01577 0.26567
 C348 C 0.97074 -0.01422 0.23661
 C349 C 0.95366 -0.02657 0.23707
 C350 C 0.95059 -0.04046 0.25299
 C351 C 0.96528 -0.04123 0.26845
 C352 C 0.98236 -0.02903 0.26781
 C353 C 0.97114 0.02610 0.26875
 C354 C 0.95329 0.03739 0.26932
 C355 C 0.94897 0.05154 0.25410
 C356 C 0.96293 0.05423 0.23840
 C357 C 0.98073 0.04297 0.23785
 C358 C 1.02926 0.03850 0.26915
 C359 C 1.04614 0.05105 0.26877
 C360 C 1.05669 0.05444 0.25067
 C361 C 1.05039 0.04417 0.23317
 C362 C 1.03368 0.03131 0.23368
 H363 H 1.01526 -0.02781 0.22075
 H364 H 1.04316 -0.05119 0.21974
 H365 H 1.06353 -0.02879 0.27781
 H366 H 1.03461 -0.00625 0.27874
 H367 H 0.97279 -0.00384 0.22417
 H368 H 0.94269 -0.02470 0.22514
 H369 H 0.99355 -0.03033 0.27966
 H370 H 0.97424 0.01538 0.28067
 H371 H 0.94279 0.03492 0.28155
 H372 H 0.96024 0.06527 0.22667
 H373 H 0.99122 0.04531 0.22557
 H374 H 1.02104 0.03656 0.28312
 H375 H 1.05079 0.05823 0.28265
 H376 H 1.05791 0.04659 0.21890
 H377 H 1.02876 0.02395 0.21997
 H378 H 0.96437 -0.05202 0.28064
 C379 C 0.50370 0.49354 0.74987
 C380 C 0.50370 0.51399 0.74929
 C381 C 0.48461 0.52571 0.74928
 C382 C 0.52263 0.52589 0.74885
 C383 C 0.52250 0.48141 0.74992
 C384 C 0.48470 0.48191 0.75053
 C385 C 0.47049 0.52371 0.73362
 C386 C 0.45304 0.53559 0.73340
 C387 C 0.44948 0.54974 0.74877
 C388 C 0.46366 0.55163 0.76443
 C389 C 0.48107 0.53978 0.76463
 C390 C 0.52551 0.54006 0.73344
 C391 C 0.54261 0.55229 0.73328
 C392 C 0.55715 0.55071 0.74865
 C393 C 0.55428 0.53643 0.76407
 C394 C 0.53714 0.52414 0.76419
 C395 C 0.52579 0.46753 0.76554
 C396 C 0.54247 0.45472 0.76514
 C397 C 0.55618 0.45539 0.74903
 C398 C 0.55302 0.46949 0.73347
 C399 C 0.53629 0.48240 0.73391
 C400 C 0.47325 0.48088 0.76824
 C401 C 0.45662 0.46796 0.76935
 C402 C 0.45107 0.45604 0.75267
 C403 C 0.46220 0.45789 0.73470
 C404 C 0.47899 0.47048 0.73376
 H405 H 0.47315 0.51319 0.72144
 H406 H 0.44235 0.53372 0.72120
 H407 H 0.46153 0.56264 0.77629
 H408 H 0.49191 0.54167 0.77671
 H409 H 0.51438 0.54178 0.72159
 H410 H 0.54419 0.56337 0.72140
 H411 H 0.53501 0.51353 0.77641
 H412 H 0.51524 0.46644 0.77794
 H413 H 0.54428 0.44382 0.77717
 H414 H 0.56340 0.47042 0.72092
 H415 H 0.53384 0.49282 0.72157
 H416 H 0.47765 0.48949 0.78139
 H417 H 0.44863 0.46677 0.78351
 H418 H 0.45810 0.44940 0.72139
 H419 H 0.48771 0.47118 0.71998
 H420 H 0.56527 0.53480 0.77605
 C421 C 1.01450 1.00255 0.74987
 C422 C 0.99404 1.00282 0.75025
 C423 C 0.98192 0.98406 0.74965
 C424 C 0.98247 1.02193 0.75110
 C425 C 1.02644 1.02131 0.75105
 C426 C 1.02616 0.98351 0.74860
 C427 C 0.96737 0.98165 0.73450
 C428 C 0.95504 0.96464 0.73420
 C429 C 0.95690 0.94975 0.74917
 C430 C 0.97155 0.95216 0.76434
 C431 C 0.98394 0.96921 0.76460
 C432 C 0.98304 1.03571 0.73513
 C433 C 0.97012 1.05240 0.73497
 C434 C 0.95627 1.05576 0.75085
 C435 C 0.95645 1.04202 0.76716
 C436 C 0.96924 1.02530 0.76715
 C437 C 1.02801 1.03199 0.76919
 C438 C 1.04115 1.04840 0.77073
 C439 C 1.05278 1.05452 0.75405
 C440 C 1.05046 1.04415 0.73569
 C441 C 1.03761 1.02756 0.73429
 C442 C 1.03996 0.97872 0.76383
 C443 C 1.05144 0.96111 0.76278
 C444 C 1.04964 0.94780 0.74624
 C445 C 1.03569 0.95291 0.73088
 C446 C 1.02411 0.97052 0.73210
 H447 H 0.96548 0.99305 0.72295
 H448 H 0.94368 0.96340 0.72253
 H449 H 0.97339 0.94088 0.77600
 H450 H 0.99487 0.97097 0.77661
 H451 H 0.99309 1.03324 0.72251
 H452 H 0.97136 1.06275 0.72244
 H453 H 0.96843 1.01461 0.77948
 H454 H 1.01962 1.02715 0.78233
 H455 H 1.04272 1.05579 0.78518
 H456 H 1.05872 1.04870 0.72239
 H457 H 1.03651 1.01944 0.72018
 H458 H 1.04192 0.98871 0.77659
 H459 H 1.06238 0.95864 0.77462
 H460 H 1.03307 0.94310 0.71815
 H461 H 1.01357 0.97406 0.72011
 H462 H 0.94585 1.04321 0.77947
 C463 C 0.51552 0.50562 0.24866
 C464 C 0.49508 0.50593 0.24855
 C465 C 0.48285 0.48724 0.24847
 C466 C 0.48367 0.52507 0.24908
 C467 C 0.52731 0.52449 0.24947
 C468 C 0.52720 0.48651 0.24799
 C469 C 0.46882 0.48401 0.23297
 C470 C 0.45665 0.46689 0.23304
 C471 C 0.45815 0.45268 0.24869
 C472 C 0.47223 0.45593 0.26423
 C473 C 0.48446 0.47309 0.26413
 C474 C 0.47883 0.53517 0.23117
 C475 C 0.46515 0.55124 0.23138
 C476 C 0.45626 0.55760 0.24958
 C477 C 0.46215 0.54808 0.26764
 C478 C 0.47557 0.53183 0.26734
 C479 C 0.53093 0.53407 0.26792
 C480 C 0.54406 0.55052 0.26894
 C481 C 0.55362 0.55780 0.25144
 C482 C 0.54918 0.54858 0.23284
 C483 C 0.53630 0.53195 0.23192
 C484 C 0.54152 0.48243 0.26303
 C485 C 0.55259 0.46453 0.26271
 C486 C 0.54966 0.45032 0.24727
 C487 C 0.53549 0.45455 0.23204
 C488 C 0.52441 0.47252 0.23235
 H489 H 0.46728 0.49477 0.22079
 H490 H 0.44572 0.46500 0.22104
 H491 H 0.47380 0.44518 0.27642
 H492 H 0.49504 0.47546 0.27636
 H493 H 0.48489 0.52997 0.21694
 H494 H 0.46084 0.55800 0.21717
 H495 H 0.47920 0.52412 0.28129
 H496 H 0.52417 0.52833 0.28163
 H497 H 0.54728 0.55701 0.28355
 H498 H 0.55583 0.55403 0.21899
 H499 H 0.53358 0.52468 0.21756
 H500 H 0.54402 0.49304 0.27517
 H501 H 0.56367 0.46193 0.27444
 H502 H 0.53282 0.44387 0.21999
 H503 H 0.51367 0.47552 0.22041
 H504 H 0.45606 0.55288 0.28198
 O505 O 0.26193 0.19758 0.21404
 O506 O 0.28351 0.19188 0.24243
 O507 O 0.20908 0.22273 0.24190
 O508 O 0.20202 0.24892 0.26204
 O509 O 0.23375 0.25021 0.18881
 O510 O 0.26209 0.27181 0.18297
 O511 O 0.26247 0.27866 0.29305
 O512 O 0.23864 0.25258 0.29882
 O513 O 0.31365 0.25091 0.26935
 O514 O 0.31963 0.22721 0.24084
 O515 O 0.28988 0.30187 0.24170
 O516 O 0.26122 0.30807 0.21826
 O517 O 0.26276 0.30247 0.26844
 O518 O 0.23975 0.30854 0.23964
 O519 O 0.31389 0.27742 0.24206
 O520 O 0.31998 0.24849 0.21930
 O521 O 0.28938 0.25193 0.29345
 O522 O 0.26159 0.22858 0.29995
 O523 O 0.26163 0.22149 0.18944
 O524 O 0.28431 0.24909 0.18347
 O525 O 0.20954 0.25042 0.21303
 O526 O 0.20485 0.27423 0.24066
 O527 O 0.23315 0.19823 0.24259
 O528 O 0.26119 0.19243 0.26455
 Zr529 Zr 0.26062 0.21407 0.24115
 O530 O 0.27960 0.23138 0.25978
 Zr531 Zr 0.22548 0.24980 0.24045
 O532 O 0.24284 0.26865 0.25923
 Zr533 Zr 0.26099 0.24898 0.20519
 O534 O 0.27996 0.26787 0.22226
 Zr535 Zr 0.26211 0.25117 0.27730
 O536 O 0.24288 0.23211 0.26038
 Zr537 Zr 0.29758 0.25031 0.24195
 O538 O 0.28032 0.23120 0.22312
 Zr539 Zr 0.26239 0.28604 0.24135
 O540 O 0.24327 0.26886 0.22240
 O541 O 0.24207 0.23065 0.22207
 O542 O 0.28114 0.26961 0.26049
 C543 C 0.26219 0.20306 0.19543
 C544 C 0.21466 0.20416 0.24275
 C545 C 0.21521 0.25069 0.19451
 C546 C 0.26281 0.29709 0.28705
 C547 C 0.30792 0.25176 0.28783
 C548 C 0.30836 0.29599 0.24212
 H549 H 0.28793 0.22231 0.26818
 H550 H 0.28838 0.27602 0.21308
 H551 H 0.23341 0.22196 0.21359
 H552 H 0.23385 0.27710 0.26759
 H553 H 0.22833 0.24264 0.29462
 H554 H 0.20623 0.25737 0.27357
 H555 H 0.31724 0.25923 0.20931
 H556 H 0.29482 0.23972 0.18846
 H557 H 0.27236 0.21868 0.29703
 H558 H 0.25227 0.19764 0.27532
 H559 H 0.27228 0.30521 0.20868
 H560 H 0.25306 0.28274 0.18766
 H561 H 0.29445 0.19655 0.23342
 H562 H 0.31708 0.21785 0.25216
 H563 H 0.20925 0.28376 0.23005
 H564 H 0.22991 0.30595 0.25053
 O565 O 0.74967 0.81243 0.23001
 O566 O 0.72753 0.81794 0.25809
 O567 O 0.80297 0.78936 0.25831
 O568 O 0.81079 0.76371 0.27893
 O569 O 0.77859 0.75950 0.20597
 O570 O 0.75047 0.73761 0.20061
 O571 O 0.75136 0.73275 0.31077
 O572 O 0.77505 0.75985 0.31545
 O573 O 0.69951 0.75889 0.28698
 O574 O 0.69249 0.78178 0.25845
 O575 O 0.72423 0.70800 0.26033
 O576 O 0.75283 0.70228 0.23636
 O577 O 0.75244 0.70858 0.28654
 O578 O 0.77435 0.70240 0.25756
 O579 O 0.69960 0.73184 0.25940
 O580 O 0.69262 0.76061 0.23687
 O581 O 0.72403 0.75906 0.31091
 O582 O 0.74814 0.78248 0.31681
 O583 O 0.74988 0.78803 0.20597
 O584 O 0.72806 0.75978 0.20064
 O585 O 0.80308 0.76109 0.22995
 O586 O 0.80866 0.73810 0.25820
 O587 O 0.77823 0.81310 0.25777
 O588 O 0.74923 0.81901 0.28001
 Zr589 Zr 0.75119 0.79653 0.25747
 O590 O 0.73302 0.77902 0.27667
 Zr591 Zr 0.78727 0.76184 0.25743
 O592 O 0.77059 0.74275 0.27657
 Zr593 Zr 0.75141 0.76088 0.22234
 O594 O 0.73310 0.74188 0.23993
 Zr595 Zr 0.75100 0.75995 0.29444
 O596 O 0.76955 0.77947 0.27716
 Zr597 Zr 0.71523 0.75935 0.25940
 O598 O 0.73178 0.77852 0.23999
 Zr599 Zr 0.75135 0.72451 0.25920
 O600 O 0.76986 0.74190 0.23988
 O601 O 0.77001 0.78003 0.23865
 O602 O 0.73228 0.74071 0.27817
 C603 C 0.74924 0.80658 0.21153
 C604 C 0.79687 0.80778 0.25826
 C605 C 0.79719 0.75978 0.21153
 C606 C 0.75209 0.71427 0.30503
 C607 C 0.70544 0.75877 0.30544
 C608 C 0.70560 0.71343 0.26000
 H609 H 0.72481 0.78804 0.28525
 H610 H 0.72482 0.73339 0.23093
 H611 H 0.77841 0.78867 0.22986
 H612 H 0.77992 0.73470 0.28500
 H613 H 0.78394 0.77129 0.31188
 H614 H 0.80644 0.75605 0.29095
 H615 H 0.69566 0.75003 0.22681
 H616 H 0.71734 0.76903 0.20541
 H617 H 0.75638 0.79400 0.31230
 H618 H 0.76105 0.81737 0.28899
 H619 H 0.74114 0.70424 0.22727
 H620 H 0.75963 0.72687 0.20551
 H621 H 0.71693 0.81287 0.24888
 H622 H 0.69551 0.79178 0.26908
 H623 H 0.80459 0.72827 0.24775
 H624 H 0.78473 0.70586 0.26770
 O625 O 0.75297 0.19876 0.77687
 O626 O 0.73135 0.19297 0.74921
 O627 O 0.80524 0.22427 0.74868
 O628 O 0.81303 0.25072 0.73015
 O629 O 0.78048 0.25079 0.80260
 O630 O 0.75284 0.27229 0.80909
 O631 O 0.75055 0.27968 0.69826
 O632 O 0.77412 0.25419 0.69175
 O633 O 0.70021 0.25282 0.72321
 O634 O 0.69347 0.23056 0.75091
 O635 O 0.72530 0.30383 0.74991
 O636 O 0.75313 0.31059 0.77191
 O637 O 0.75222 0.30376 0.72255
 O638 O 0.77613 0.30869 0.75216
 O639 O 0.70084 0.27994 0.75012
 O640 O 0.69564 0.25020 0.77397
 O641 O 0.72385 0.25302 0.69848
 O642 O 0.75227 0.22919 0.69227
 O643 O 0.75266 0.22227 0.80177
 O644 O 0.72980 0.25064 0.80766
 O645 O 0.80482 0.25187 0.77853
 O646 O 0.80892 0.27601 0.74988
 O647 O 0.78139 0.19970 0.74856
 O648 O 0.75275 0.19459 0.72612
 Zr649 Zr 0.75378 0.21556 0.75008
 O650 O 0.73426 0.23302 0.73210
 Zr651 Zr 0.78885 0.25122 0.75090
 O652 O 0.77138 0.26979 0.73184
 Zr653 Zr 0.75342 0.25009 0.78627
 O654 O 0.73485 0.26964 0.76941
 Zr655 Zr 0.75156 0.25246 0.71419
 O656 O 0.77135 0.23367 0.73089
 Zr657 Zr 0.71675 0.25234 0.75014
 O658 O 0.73406 0.23256 0.76834
 Zr659 Zr 0.75238 0.28750 0.74992
 O660 O 0.77114 0.27013 0.76914
 O661 O 0.77239 0.23194 0.76920
 O662 O 0.73308 0.27130 0.73120
 C663 C 0.75248 0.20390 0.79553
 C664 C 0.79984 0.20569 0.74801
 C665 C 0.79899 0.25170 0.79704
 C666 C 0.75111 0.29812 0.70404
 C667 C 0.70544 0.25316 0.70459
 C668 C 0.70673 0.29840 0.74987
 H669 H 0.72570 0.22399 0.72393
 H670 H 0.72668 0.27797 0.77868
 H671 H 0.78114 0.22317 0.77756
 H672 H 0.78034 0.27804 0.72326
 H673 H 0.78508 0.24493 0.69596
 H674 H 0.80798 0.25678 0.71749
 H675 H 0.69715 0.26228 0.78257
 H676 H 0.71985 0.24040 0.80335
 H677 H 0.74067 0.22014 0.69460
 H678 H 0.76270 0.19917 0.71599
 H679 H 0.74435 0.30634 0.78316
 H680 H 0.76132 0.28354 0.80422
 H681 H 0.72018 0.19779 0.75786
 H682 H 0.69739 0.21949 0.74175
 H683 H 0.80578 0.28470 0.76160
 H684 H 0.78461 0.30738 0.73998
 O685 O 0.24047 0.79401 0.77603
 O686 O 0.26248 0.79965 0.74810
 O687 O 0.18847 0.76829 0.74597
 O688 O 0.18205 0.74165 0.72663
 O689 O 0.21167 0.74140 0.80066
 O690 O 0.24007 0.72012 0.80773
 O691 O 0.24406 0.71213 0.69785
 O692 O 0.21992 0.73798 0.69108
 O693 O 0.29399 0.74136 0.72284
 O694 O 0.29894 0.76442 0.75180
 O695 O 0.26975 0.68960 0.75042
 O696 O 0.24044 0.68356 0.77284
 O697 O 0.24373 0.68863 0.72274
 O698 O 0.21969 0.68278 0.75071
 O699 O 0.29362 0.71409 0.75015
 O700 O 0.29894 0.74305 0.77304
 O701 O 0.27049 0.73919 0.69797
 O702 O 0.24277 0.76209 0.69031
 O703 O 0.23937 0.77034 0.80083
 O704 O 0.26197 0.74296 0.80781
 O705 O 0.18817 0.74109 0.77570
 O706 O 0.18472 0.71673 0.74823
 O707 O 0.21227 0.79291 0.74670
 O708 O 0.24079 0.79871 0.72546
 Zr709 Zr 0.23983 0.77727 0.74902
 O710 O 0.25951 0.75988 0.73120
 Zr711 Zr 0.20500 0.74136 0.74884
 O712 O 0.22310 0.72241 0.73084
 Zr713 Zr 0.23940 0.74273 0.78527
 O714 O 0.25905 0.72379 0.76903
 Zr715 Zr 0.24279 0.73981 0.71327
 O716 O 0.22290 0.75894 0.72935
 Zr717 Zr 0.27714 0.74122 0.74975
 O718 O 0.25914 0.76042 0.76782
 Zr719 Zr 0.24221 0.70535 0.74957
 O720 O 0.22239 0.72261 0.76769
 O721 O 0.22081 0.76080 0.76762
 O722 O 0.26146 0.72164 0.73088
 C723 C 0.24023 0.78870 0.79469
 C724 C 0.19387 0.78689 0.74543
 C725 C 0.19331 0.74085 0.79438
 C726 C 0.24445 0.69379 0.70409
 C727 C 0.28881 0.74022 0.70420
 C728 C 0.28820 0.69550 0.75033
 H729 H 0.26798 0.76899 0.72303
 H730 H 0.26725 0.71576 0.77856
 H731 H 0.21183 0.76956 0.77571
 H732 H 0.21447 0.71382 0.72226
 H733 H 0.20947 0.74800 0.69477
 H734 H 0.18683 0.73339 0.71519
 H735 H 0.29594 0.73239 0.78301
 H736 H 0.27272 0.75209 0.80295
 H737 H 0.25298 0.77237 0.69376
 H738 H 0.23218 0.79336 0.71450
 H739 H 0.25114 0.68657 0.78279
 H740 H 0.23122 0.70912 0.80291
 H741 H 0.27317 0.79527 0.75759
 H742 H 0.29643 0.77401 0.74065
 H743 H 0.18878 0.70746 0.75922
 H744 H 0.21028 0.68513 0.73937
 O745 O 0.24877 0.30894 0.73186
 O746 O 0.22608 0.31548 0.75914
 O747 O 0.30106 0.28633 0.76338
 O748 O 0.30884 0.26044 0.78322
 O749 O 0.27785 0.25528 0.71013
 O750 O 0.24994 0.23319 0.70478
 O751 O 0.24801 0.23191 0.81507
 O752 O 0.27169 0.25909 0.81944
 O753 O 0.19689 0.25676 0.78914
 O754 O 0.19063 0.27950 0.76010
 O755 O 0.22188 0.20565 0.76464
 O756 O 0.25105 0.19888 0.74186
 O757 O 0.24850 0.20694 0.79168
 O758 O 0.27214 0.19982 0.76371
 O759 O 0.19742 0.22957 0.76227
 O760 O 0.19131 0.25793 0.73875
 O761 O 0.22078 0.25833 0.81368
 O762 O 0.24484 0.28181 0.81941
 O763 O 0.24886 0.28377 0.70859
 O764 O 0.22754 0.25519 0.70354
 O765 O 0.30179 0.25766 0.73461
 O766 O 0.30623 0.23479 0.76365
 O767 O 0.27671 0.31026 0.75990
 O768 O 0.24736 0.31696 0.78167
 Zr769 Zr 0.24955 0.29387 0.75977
 O770 O 0.23073 0.27711 0.77904
 Zr771 Zr 0.28531 0.25888 0.76172
 O772 O 0.26802 0.24058 0.78110
 Zr773 Zr 0.25031 0.25713 0.72580
 O774 O 0.23146 0.23879 0.74350
 Zr775 Zr 0.24815 0.25855 0.79787
 O776 O 0.26729 0.27731 0.78043
 Zr777 Zr 0.21325 0.25699 0.76196
 O778 O 0.23041 0.27545 0.74241
 Zr779 Zr 0.24909 0.22195 0.76380
 O780 O 0.26817 0.23857 0.74436
 O781 O 0.26870 0.27665 0.74195
 O782 O 0.22973 0.23893 0.78172
 C783 C 0.24833 0.30248 0.71360
 C784 C 0.29519 0.30476 0.76200
 C785 C 0.29631 0.25581 0.71610
 C786 C 0.24795 0.21321 0.80998
 C787 C 0.20236 0.25735 0.80773
 C788 C 0.20331 0.21118 0.76369
 H789 H 0.22235 0.28642 0.78713
 H790 H 0.22334 0.23006 0.73457
 H791 H 0.27734 0.28504 0.73315
 H792 H 0.27703 0.23275 0.79006
 H793 H 0.28070 0.27039 0.81571
 H794 H 0.30364 0.25450 0.79585
 H795 H 0.19425 0.24678 0.72930
 H796 H 0.21664 0.26450 0.70775
 H797 H 0.25315 0.29319 0.81467
 H798 H 0.25915 0.31565 0.79074
 H799 H 0.23986 0.20083 0.73217
 H800 H 0.25893 0.22259 0.71027
 H801 H 0.21546 0.31000 0.75020
 H802 H 0.19327 0.28953 0.77079
 H803 H 0.30247 0.22494 0.75310
 H804 H 0.28181 0.20322 0.77454
 O805 O 0.76011 0.69566 0.71212
 O806 O 0.78250 0.68975 0.74009
 O807 O 0.70770 0.71965 0.74161
 O808 O 0.69996 0.74599 0.76093
 O809 O 0.73204 0.74823 0.68806
 O810 O 0.75992 0.77056 0.68268
 O811 O 0.75977 0.77514 0.79282
 O812 O 0.73698 0.74834 0.79814
 O813 O 0.81192 0.74826 0.76841
 O814 O 0.81821 0.72546 0.73956
 O815 O 0.78763 0.79969 0.74181
 O816 O 0.75878 0.80603 0.71862
 O817 O 0.76076 0.79945 0.76869
 O818 O 0.73743 0.80591 0.74019
 O819 O 0.81183 0.77544 0.74172
 O820 O 0.81809 0.74695 0.71828
 O821 O 0.78771 0.74913 0.79259
 O822 O 0.76031 0.72490 0.79866
 O823 O 0.76029 0.72014 0.68813
 O824 O 0.78247 0.74821 0.68264
 O825 O 0.70774 0.74755 0.71218
 O826 O 0.70295 0.77129 0.74022
 O827 O 0.73205 0.69548 0.74098
 O828 O 0.76028 0.68948 0.76249
 Zr829 Zr 0.75927 0.71162 0.73959
 O830 O 0.77806 0.72874 0.75857
 Zr831 Zr 0.72370 0.74698 0.73966
 O832 O 0.74091 0.76562 0.75879
 Zr833 Zr 0.75923 0.74725 0.70441
 O834 O 0.77801 0.76600 0.72181
 Zr835 Zr 0.76039 0.74799 0.77651
 O836 O 0.74136 0.72910 0.75920
 Zr837 Zr 0.79580 0.74819 0.74108
 O838 O 0.77876 0.72928 0.72188
 Zr839 Zr 0.76028 0.78359 0.74128
 O840 O 0.74130 0.76659 0.72201
 O841 O 0.74048 0.72838 0.72092
 O842 O 0.77921 0.76696 0.76006
 C843 C 0.76050 0.70156 0.69364
 C844 C 0.71351 0.70113 0.74196
 C845 C 0.71349 0.74817 0.69368
 C846 C 0.76031 0.79367 0.78717
 C847 C 0.80624 0.74901 0.78690
 C848 C 0.80616 0.79395 0.74209
 H849 H 0.78649 0.71960 0.76678
 H850 H 0.78633 0.77440 0.71277
 H851 H 0.73184 0.71970 0.71240
 H852 H 0.73181 0.77379 0.76731
 H853 H 0.72674 0.73848 0.79359
 H854 H 0.70446 0.75352 0.77297
 H855 H 0.81544 0.75808 0.70870
 H856 H 0.79314 0.73886 0.68738
 H857 H 0.77161 0.71556 0.79587
 H858 H 0.75166 0.69452 0.77358
 H859 H 0.76981 0.80346 0.70893
 H860 H 0.75064 0.78120 0.68755
 H861 H 0.79309 0.69459 0.73077
 H862 H 0.81540 0.71550 0.75029
 H863 H 0.70713 0.78086 0.72957
 H864 H 0.72761 0.80292 0.75099
 O865 O 0.24787 0.69752 0.27958
 O866 O 0.22596 0.69152 0.25200
 O867 O 0.30012 0.72247 0.25190
 O868 O 0.30803 0.74851 0.23263
 O869 O 0.27476 0.74980 0.30482
 O870 O 0.24723 0.77161 0.31068
 O871 O 0.24652 0.77729 0.19971
 O872 O 0.26993 0.75149 0.19398
 O873 O 0.19553 0.75122 0.22437
 O874 O 0.18811 0.72946 0.25194
 O875 O 0.22048 0.80239 0.25101
 O876 O 0.24837 0.80923 0.27302
 O877 O 0.24710 0.80176 0.22362
 O878 O 0.27124 0.80713 0.25307
 O879 O 0.19589 0.77862 0.25123
 O880 O 0.19038 0.74891 0.27522
 O881 O 0.21954 0.75100 0.20000
 O882 O 0.24780 0.72676 0.19451
 O883 O 0.24624 0.72151 0.30401
 O884 O 0.22408 0.75037 0.30936
 O885 O 0.29939 0.75021 0.28103
 O886 O 0.30396 0.77418 0.25238
 O887 O 0.27614 0.69800 0.25115
 O888 O 0.24745 0.69259 0.22892
 Zr889 Zr 0.24856 0.71395 0.25254
 O890 O 0.22936 0.73126 0.23405
 Zr891 Zr 0.28376 0.74949 0.25327
 O892 O 0.26663 0.76788 0.23372
 Zr893 Zr 0.24785 0.74908 0.28817
 O894 O 0.22959 0.76845 0.27079
 Zr895 Zr 0.24700 0.75034 0.21609
 O896 O 0.26646 0.73169 0.23331
 Zr897 Zr 0.21168 0.75093 0.25154
 O898 O 0.22866 0.73135 0.27026
 Zr899 Zr 0.24746 0.78594 0.25126
 O900 O 0.26590 0.76876 0.27097
 O901 O 0.26695 0.73057 0.27164
 O902 O 0.22835 0.76952 0.23255
 C903 C 0.24661 0.70304 0.29809
 C904 C 0.29463 0.70393 0.25108
 C905 C 0.29337 0.75034 0.29948
 C906 C 0.24652 0.79585 0.20516
 C907 C 0.20105 0.75136 0.20584
 C908 C 0.20189 0.79706 0.25095
 H909 H 0.22086 0.72217 0.22588
 H910 H 0.22136 0.77693 0.27987
 H911 H 0.27554 0.72186 0.28023
 H912 H 0.27570 0.77598 0.22512
 H913 H 0.28075 0.74223 0.19853
 H914 H 0.30330 0.75498 0.22005
 H915 H 0.19166 0.76116 0.28361
 H916 H 0.21398 0.74023 0.30512
 H917 H 0.23600 0.71794 0.19670
 H918 H 0.25737 0.69701 0.21870
 H919 H 0.23936 0.80525 0.28420
 H920 H 0.25594 0.78269 0.30579
 H921 H 0.21493 0.69642 0.26079
 H922 H 0.19257 0.71782 0.24377
 H923 H 0.30051 0.78308 0.26384
 H924 H 0.27968 0.80565 0.24087
 O925 O 0.73692 0.29071 0.27851
 O926 O 0.75932 0.29687 0.25084
 O927 O 0.68477 0.26668 0.24827
 O928 O 0.67783 0.24067 0.22812
 O929 O 0.70838 0.23769 0.30175
 O930 O 0.73656 0.21574 0.30770
 O931 O 0.73829 0.21161 0.19757
 O932 O 0.71505 0.23832 0.19209
 O933 O 0.78964 0.23847 0.22284
 O934 O 0.79526 0.26135 0.25207
 O935 O 0.76536 0.18686 0.24962
 O936 O 0.73590 0.18042 0.27159
 O937 O 0.73930 0.18719 0.22160
 O938 O 0.71526 0.18048 0.24940
 O939 O 0.78939 0.21118 0.25000
 O940 O 0.79532 0.23962 0.27298
 O941 O 0.76577 0.23828 0.19827
 O942 O 0.73847 0.26161 0.19166
 O943 O 0.73654 0.26622 0.30248
 O944 O 0.75871 0.23826 0.30836
 O945 O 0.68455 0.23823 0.27710
 O946 O 0.68040 0.21507 0.24885
 O947 O 0.70897 0.29089 0.24969
 O948 O 0.73729 0.29706 0.22819
 Zr949 Zr 0.73631 0.27485 0.25103
 O950 O 0.75552 0.25790 0.23233
 Zr951 Zr 0.70102 0.23940 0.25005
 O952 O 0.71870 0.22087 0.23123
 Zr953 Zr 0.73593 0.23913 0.28605
 O954 O 0.75516 0.22056 0.26893
 Zr955 Zr 0.73829 0.23868 0.21397
 O956 O 0.71886 0.25747 0.23096
 Zr957 Zr 0.77317 0.23841 0.24999
 O958 O 0.75566 0.25717 0.26898
 Zr959 Zr 0.73793 0.20293 0.24905
 O960 O 0.71849 0.21980 0.26797
 O961 O 0.71731 0.25796 0.26927
 O962 O 0.75705 0.21966 0.23062
 C963 C 0.73702 0.28481 0.29699
 C964 C 0.69047 0.28522 0.24845
 C965 C 0.68993 0.23740 0.29570
 C966 C 0.73904 0.19307 0.20315
 C967 C 0.78422 0.23831 0.20423
 C968 C 0.78386 0.19264 0.24992
 H969 H 0.76400 0.26714 0.22432
 H970 H 0.76335 0.21218 0.27815
 H971 H 0.70850 0.26649 0.27777
 H972 H 0.70983 0.21269 0.22249
 H973 H 0.70485 0.24837 0.19638
 H974 H 0.68241 0.23278 0.21634
 H975 H 0.79209 0.22906 0.28299
 H976 H 0.76943 0.24759 0.30384
 H977 H 0.74852 0.27188 0.19557
 H978 H 0.72834 0.29229 0.21723
 H979 H 0.74650 0.18313 0.28173
 H980 H 0.72732 0.20513 0.30274
 H981 H 0.76998 0.29196 0.26010
 H982 H 0.79283 0.27107 0.24101
 H983 H 0.68472 0.20520 0.25920
 H984 H 0.70578 0.18334 0.23823
 C985 C 0.25654 0.09352 0.08962
 C986 C 0.26929 0.09277 0.07280
 C987 C 0.26727 0.07755 0.05835
 C988 C 0.25246 0.06220 0.06023
 C989 C 0.23968 0.06337 0.07736
 C990 C 0.24162 0.07874 0.09158
 C991 C 0.25872 0.10958 0.10515
 C992 C 0.25532 0.10528 0.12563
 C993 C 0.25660 0.12044 0.14016
 C994 C 0.26160 0.14029 0.13468
 C995 C 0.26543 0.14451 0.11425
 C996 C 0.26390 0.12939 0.09966
 C997 C 0.26238 0.15654 0.15014
 C998 C 0.25584 0.17618 0.14548
 C999 C 0.25608 0.19132 0.16010
 C1000 C 0.26260 0.18714 0.17983
 C1001 C 0.26918 0.16756 0.18453
 C1002 C 0.26922 0.15248 0.16983
 H1003 H 0.28103 0.10392 0.07080
 H1004 H 0.27712 0.07867 0.04547
 H1005 H 0.22857 0.05205 0.08085
 H1006 H 0.23131 0.07895 0.10422
 H1007 H 0.25167 0.09015 0.13049
 H1008 H 0.25329 0.11663 0.15567
 H1009 H 0.26963 0.15954 0.10948
 H1010 H 0.26644 0.13332 0.08404
 H1011 H 0.25010 0.17981 0.13063
 H1012 H 0.25072 0.20622 0.15606
 H1013 H 0.27447 0.16393 0.19956
 H1014 H 0.27473 0.13765 0.17389
 C1015 C 0.75272 0.59709 0.58323
 C1016 C 0.76996 0.59147 0.57226
 C1017 C 0.76891 0.57626 0.55775
 C1018 C 0.75061 0.56630 0.55390
 C1019 C 0.73325 0.57228 0.56449
 C1020 C 0.73430 0.58751 0.57899
 C1021 C 0.75410 0.61250 0.59939
 C1022 C 0.74372 0.60985 0.61766
 C1023 C 0.74529 0.62414 0.63303
 C1024 C 0.75729 0.64140 0.63049
 C1025 C 0.76768 0.64404 0.61223
 C1026 C 0.76609 0.62975 0.59685
 C1027 C 0.75872 0.65673 0.64672
 C1028 C 0.75856 0.67736 0.64196
 C1029 C 0.75945 0.69185 0.65717
 C1030 C 0.76048 0.68607 0.67755
 C1031 C 0.76084 0.66542 0.68232
 C1032 C 0.75998 0.65091 0.66706
 H1033 H 0.78441 0.59844 0.57527
 H1034 H 0.78249 0.57214 0.54968
 H1035 H 0.71897 0.56477 0.56200
 H1036 H 0.72070 0.59170 0.58699
 H1037 H 0.73457 0.59659 0.62019
 H1038 H 0.73691 0.62180 0.64683
 H1039 H 0.77720 0.65707 0.60988
 H1040 H 0.77414 0.63231 0.58289
 H1041 H 0.75731 0.68234 0.62646
 H1042 H 0.75903 0.70760 0.65292
 H1043 H 0.76167 0.66043 0.69784
 H1044 H 0.76041 0.63512 0.67119
 C1045 C 0.75085 0.91078 0.10054
 C1046 C 0.76941 0.91579 0.09163
 C1047 C 0.77012 0.92871 0.07499
 C1048 C 0.75229 0.93695 0.06693
 C1049 C 0.73379 0.93235 0.07621
 C1050 C 0.73308 0.91938 0.09278
 C1051 C 0.74995 0.89612 0.11741
 C1052 C 0.73507 0.88106 0.11765
 C1053 C 0.73452 0.86682 0.13315
 C1054 C 0.74878 0.86738 0.14882
 C1055 C 0.76351 0.88259 0.14874
 C1056 C 0.76414 0.89677 0.13315
 C1057 C 0.74849 0.85191 0.16498
 C1058 C 0.75147 0.85735 0.18522
 C1059 C 0.75143 0.84270 0.20038
 C1060 C 0.74856 0.82224 0.19559
 C1061 C 0.74552 0.81684 0.17532
 C1062 C 0.74542 0.83151 0.16021
 H1063 H 0.78332 0.90920 0.09714
 H1064 H 0.78457 0.93173 0.06804
 H1065 H 0.71983 0.93876 0.07063
 H1066 H 0.71860 0.91607 0.09956
 H1067 H 0.72406 0.88005 0.10562
 H1068 H 0.72288 0.85538 0.13292
 H1069 H 0.77479 0.88328 0.16054
 H1070 H 0.77568 0.90830 0.13343
 H1071 H 0.75368 0.87299 0.18935
 H1072 H 0.75387 0.84739 0.21582
 H1073 H 0.74328 0.80124 0.17108
 H1074 H 0.74332 0.82685 0.14471
 C1075 C 0.24985 0.40392 0.59958
 C1076 C 0.23868 0.42197 0.60003
 C1077 C 0.23975 0.43572 0.58406
 C1078 C 0.25179 0.43165 0.56709
 C1079 C 0.26288 0.41356 0.56665
 C1080 C 0.26208 0.40001 0.58273
 C1081 C 0.24875 0.38917 0.61652
 C1082 C 0.25017 0.36834 0.61279
 C1083 C 0.24973 0.35449 0.62864
 C1084 C 0.24747 0.36101 0.64868
 C1085 C 0.24570 0.38182 0.65239
 C1086 C 0.24649 0.39571 0.63655
 C1087 C 0.24720 0.34616 0.66557
 C1088 C 0.25564 0.35099 0.68443
 C1089 C 0.25569 0.33693 0.70014
 C1090 C 0.24765 0.31758 0.69723
 C1091 C 0.23921 0.31269 0.67846
 C1092 C 0.23879 0.32687 0.66288
 H1093 H 0.22888 0.42543 0.61260
 H1094 H 0.23119 0.44959 0.58511
 H1095 H 0.27204 0.40965 0.55373
 H1096 H 0.27121 0.38649 0.58194
 H1097 H 0.25153 0.36264 0.59757
 H1098 H 0.25146 0.33865 0.62513
 H1099 H 0.24361 0.38744 0.66756
 H1100 H 0.24560 0.41161 0.64009
 H1101 H 0.26261 0.36550 0.68700
 H1102 H 0.26248 0.34104 0.71441
 H1103 H 0.23271 0.29794 0.67588
 H1104 H 0.23173 0.32270 0.64877
 C1105 C 0.75308 0.08959 0.89640
 C1106 C 0.73490 0.08069 0.90245
 C1107 C 0.73475 0.06537 0.91689
 C1108 C 0.75284 0.05841 0.92586
 C1109 C 0.77113 0.06708 0.91916
 C1110 C 0.77120 0.08247 0.90475
 C1111 C 0.75305 0.10645 0.88165
 C1112 C 0.76562 0.12327 0.88448
 C1113 C 0.76529 0.13931 0.87079
 C1114 C 0.75244 0.13884 0.85393
 C1115 C 0.73988 0.12201 0.85112
 C1116 C 0.74018 0.10602 0.86481
 C1117 C 0.75232 0.15564 0.83912
 C1118 C 0.75133 0.15153 0.81839
 C1119 C 0.75126 0.16720 0.80435
 C1120 C 0.75218 0.18742 0.81067
 C1121 C 0.75315 0.19156 0.83143
 C1122 C 0.75325 0.17583 0.84551
 H1123 H 0.72066 0.08582 0.89627
 H1124 H 0.72030 0.05879 0.92055
 H1125 H 0.78549 0.06290 0.92569
 H1126 H 0.78549 0.08891 0.90021
 H1127 H 0.77552 0.12415 0.89744
 H1128 H 0.77528 0.15196 0.87326
 H1129 H 0.72967 0.12129 0.83839
 H1130 H 0.73045 0.09320 0.86212
 H1131 H 0.75090 0.13614 0.81298
 H1132 H 0.75057 0.16339 0.78850
 H1133 H 0.75390 0.20695 0.83682
 H1134 H 0.75384 0.17947 0.86140
 C1135 C 0.24739 0.59162 0.40235
 C1136 C 0.23663 0.57351 0.39989
 C1137 C 0.23823 0.55802 0.41414
 C1138 C 0.25042 0.56034 0.43135
 C1139 C 0.26104 0.57851 0.43383
 C1140 C 0.25971 0.59382 0.41946
 C1141 C 0.24597 0.60810 0.38712
 C1142 C 0.24709 0.62844 0.39303
 C1143 C 0.24671 0.64388 0.37869
 C1144 C 0.24485 0.63945 0.35806
 C1145 C 0.24316 0.61914 0.35219
 C1146 C 0.24388 0.60368 0.36650
 C1147 C 0.24512 0.65586 0.34269
 C1148 C 0.25411 0.65267 0.32376
 C1149 C 0.25442 0.66795 0.30931
 C1150 C 0.24608 0.68696 0.31351
 C1151 C 0.23731 0.69035 0.33245
 C1152 C 0.23666 0.67491 0.34682
 H1153 H 0.22677 0.57132 0.38707
 H1154 H 0.22999 0.54419 0.41157
 H1155 H 0.27025 0.58110 0.44706
 H1156 H 0.26852 0.60735 0.42175
 H1157 H 0.24828 0.63251 0.40878
 H1158 H 0.24828 0.65928 0.38382
 H1159 H 0.24130 0.61510 0.33650
 H1160 H 0.24319 0.58824 0.36130
 H1161 H 0.26124 0.63843 0.32016
 H1162 H 0.26153 0.66498 0.29492
 H1163 H 0.23063 0.70482 0.33604
 H1164 H 0.22930 0.67787 0.36107
 C1165 C 0.24386 0.89752 0.90178
 C1166 C 0.23204 0.91499 0.89943
 C1167 C 0.23219 0.93013 0.91404
 C1168 C 0.24387 0.92812 0.93166
 C1169 C 0.25555 0.91056 0.93413
 C1170 C 0.25564 0.89553 0.91934
 C1171 C 0.24382 0.88152 0.88597
 C1172 C 0.24566 0.86104 0.89120
 C1173 C 0.24538 0.84607 0.87637
 C1174 C 0.24294 0.85111 0.85590
 C1175 C 0.24112 0.87159 0.85068
 C1176 C 0.24173 0.88657 0.86547
 C1177 C 0.24218 0.83512 0.84010
 C1178 C 0.25010 0.83857 0.82071
 C1179 C 0.24921 0.82362 0.80588
 C1180 C 0.24072 0.80473 0.81018
 C1181 C 0.23289 0.80118 0.82952
 C1182 C 0.23344 0.81624 0.84423
 H1183 H 0.22248 0.91697 0.88634
 H1184 H 0.22330 0.94355 0.91132
 H1185 H 0.26455 0.90832 0.94757
 H1186 H 0.26516 0.88245 0.92160
 H1187 H 0.24704 0.85648 0.90681
 H1188 H 0.24719 0.83053 0.88100
 H1189 H 0.23894 0.87612 0.83515
 H1190 H 0.24065 0.90215 0.86075
 H1191 H 0.25730 0.85273 0.81703
 H1192 H 0.25554 0.82672 0.79116
 H1193 H 0.22606 0.78683 0.83320
 H1194 H 0.22677 0.81312 0.85877
 C1195 C 0.73854 0.39182 0.40541
 C1196 C 0.72112 0.40270 0.41073
 C1197 C 0.72219 0.41856 0.42455
 C1198 C 0.74073 0.42393 0.43333
 C1199 C 0.75806 0.41275 0.42837
 C1200 C 0.75698 0.39689 0.41457
 C1201 C 0.73766 0.37569 0.38992
 C1202 C 0.74891 0.35785 0.39223
 C1203 C 0.74864 0.34302 0.37728
 C1204 C 0.73712 0.34569 0.35967
 C1205 C 0.72572 0.36343 0.35745
 C1206 C 0.72598 0.37826 0.37240
 C1207 C 0.73713 0.33009 0.34361
 C1208 C 0.73766 0.33567 0.32317
 C1209 C 0.73771 0.32101 0.30805
 C1210 C 0.73724 0.30040 0.31301
 C1211 C 0.73674 0.29484 0.33347
 C1212 C 0.73669 0.30951 0.34858
 H1213 H 0.70665 0.39900 0.40412
 H1214 H 0.70861 0.42699 0.42793
 H1215 H 0.77251 0.41638 0.43505
 H1216 H 0.77071 0.38893 0.41068
 H1217 H 0.75790 0.35534 0.40563
 H1218 H 0.75773 0.32960 0.37936
 H1219 H 0.71651 0.36583 0.34417
 H1220 H 0.71733 0.39192 0.37006
 H1221 H 0.73829 0.35140 0.31886
 H1222 H 0.73814 0.32586 0.29247
 H1223 H 0.73627 0.27912 0.33787
 H1224 H 0.73601 0.30473 0.36417
 C1225 C 0.10350 0.24898 0.09075
 C1226 C 0.09444 0.23082 0.08491
 C1227 C 0.07754 0.23079 0.07233
 C1228 C 0.06903 0.24900 0.06515
 C1229 C 0.07872 0.26718 0.07062
 C1230 C 0.09564 0.26714 0.08323
 C1231 C 0.12059 0.24899 0.10525
 C1232 C 0.13705 0.26209 0.10272
 C1233 C 0.15279 0.26239 0.11680
 C1234 C 0.15230 0.24969 0.13376
 C1235 C 0.13595 0.23646 0.13615
 C1236 C 0.12030 0.23610 0.12206
 C1237 C 0.16853 0.25044 0.14919
 C1238 C 0.16365 0.24971 0.16977
 C1239 C 0.17878 0.25000 0.18440
 C1240 C 0.19923 0.25100 0.17883
 C1241 C 0.20412 0.25193 0.15822
 C1242 C 0.18892 0.25171 0.14356
 H1243 H 0.10050 0.21653 0.09003
 H1244 H 0.07164 0.21627 0.06789
 H1245 H 0.07273 0.28170 0.06623
 H1246 H 0.10213 0.28142 0.08771
 H1247 H 0.13778 0.27206 0.08981
 H1248 H 0.16513 0.27283 0.11464
 H1249 H 0.13527 0.22633 0.14894
 H1250 H 0.10773 0.22600 0.12456
 H1251 H 0.14806 0.24904 0.17458
 H1252 H 0.17441 0.24930 0.20010
 H1253 H 0.21971 0.25269 0.15339
 H1254 H 0.19313 0.25214 0.12780
 C1255 C 0.60430 0.74354 0.58742
 C1256 C 0.59454 0.72551 0.58213
 C1257 C 0.57794 0.72573 0.56910
 C1258 C 0.57073 0.74402 0.56115
 C1259 C 0.58084 0.76198 0.56601
 C1260 C 0.59744 0.76174 0.57899
 C1261 C 0.62103 0.74355 0.60232
 C1262 C 0.63790 0.75608 0.59965
 C1263 C 0.65313 0.75681 0.61422
 C1264 C 0.65179 0.74507 0.63181
 C1265 C 0.63507 0.73233 0.63433
 C1266 C 0.61987 0.73156 0.61975
 C1267 C 0.66762 0.74628 0.64761
 C1268 C 0.66231 0.74650 0.66810
 C1269 C 0.67716 0.74739 0.68303
 C1270 C 0.69771 0.74807 0.67781
 C1271 C 0.70301 0.74805 0.65728
 C1272 C 0.68813 0.74719 0.64236
 H1273 H 0.59964 0.71122 0.58820
 H1274 H 0.57038 0.71168 0.56573
 H1275 H 0.57577 0.77626 0.55992
 H1276 H 0.60452 0.77591 0.58290
 H1277 H 0.63931 0.76535 0.58629
 H1278 H 0.66576 0.76688 0.61192
 H1279 H 0.63374 0.72290 0.64759
 H1280 H 0.60697 0.72193 0.62235
 H1281 H 0.64662 0.74613 0.67261
 H1282 H 0.67250 0.74741 0.69867
 H1283 H 0.71867 0.74848 0.65270
 H1284 H 0.69270 0.74684 0.62670
 C1285 C 0.08350 0.74429 0.89959
 C1286 C 0.07476 0.72698 0.90799
 C1287 C 0.06094 0.72855 0.92382
 C1288 C 0.05563 0.74754 0.93195
 C1289 C 0.06421 0.76486 0.92298
 C1290 C 0.07787 0.76323 0.90707
 C1291 C 0.09891 0.74266 0.88348
 C1292 C 0.09861 0.75592 0.86696
 C1293 C 0.11367 0.75499 0.85227
 C1294 C 0.12941 0.74085 0.85385
 C1295 C 0.12958 0.72744 0.87025
 C1296 C 0.11445 0.72828 0.88488
 C1297 C 0.14575 0.74035 0.83860
 C1298 C 0.16600 0.73829 0.84456
 C1299 C 0.18145 0.73837 0.83024
 C1300 C 0.17696 0.74040 0.80961
 C1301 C 0.15666 0.74227 0.80367
 C1302 C 0.14125 0.74229 0.81801
 H1303 H 0.07874 0.71217 0.90241
 H1304 H 0.05538 0.71466 0.93026
 H1305 H 0.06011 0.77988 0.92780
 H1306 H 0.08436 0.77686 0.90087
 H1307 H 0.08673 0.76703 0.86542
 H1308 H 0.11324 0.76562 0.83989
 H1309 H 0.14142 0.71626 0.87174
 H1310 H 0.11516 0.71800 0.89754
 H1311 H 0.16993 0.73700 0.86036
 H1312 H 0.19690 0.73692 0.83535
 H1313 H 0.15263 0.74386 0.78792
 H1314 H 0.12576 0.74369 0.81297
 C1315 C 0.58120 0.23975 0.40212
 C1316 C 0.57332 0.25870 0.40743
 C1317 C 0.55982 0.26056 0.42346
 C1318 C 0.55385 0.24352 0.43452
 C1319 C 0.56130 0.22450 0.42889
 C1320 C 0.57487 0.22264 0.41288
 C1321 C 0.59650 0.23804 0.38589
 C1322 C 0.61344 0.22549 0.38835
 C1323 C 0.62839 0.22466 0.37355
 C1324 C 0.62672 0.23633 0.35593
 C1325 C 0.60962 0.24862 0.35333
 C1326 C 0.59469 0.24948 0.36815
 C1327 C 0.64292 0.23601 0.34051
 C1328 C 0.63812 0.23608 0.31989
 C1329 C 0.65336 0.23636 0.30537
 C1330 C 0.67379 0.23658 0.31114
 C1331 C 0.67859 0.23631 0.33179
 C1332 C 0.66333 0.23603 0.34630
 H1333 H 0.57804 0.27219 0.39956
 H1334 H 0.55415 0.27538 0.42731
 H1335 H 0.55710 0.21112 0.43724
 H1336 H 0.58051 0.20782 0.40898
 H1337 H 0.61537 0.21665 0.40195
 H1338 H 0.64128 0.21488 0.37588
 H1339 H 0.60798 0.25793 0.34001
 H1340 H 0.58172 0.25914 0.36574
 H1341 H 0.62254 0.23581 0.31496
 H1342 H 0.64909 0.23647 0.28961
 H1343 H 0.69415 0.23653 0.33679
 H1344 H 0.66751 0.23624 0.36208
 C1345 C 0.90409 0.75687 0.10274
 C1346 C 0.90279 0.77067 0.08677
 C1347 C 0.91707 0.77066 0.07133
 C1348 C 0.93348 0.75698 0.07136
 C1349 C 0.93484 0.74337 0.08775
 C1350 C 0.92036 0.74329 0.10309
 C1351 C 0.88842 0.75662 0.11881
 C1352 C 0.89359 0.75264 0.13898
 C1353 C 0.87883 0.75268 0.15404
 C1354 C 0.85855 0.75689 0.14934
 C1355 C 0.85339 0.76081 0.12915
 C1356 C 0.86809 0.76055 0.11409
 C1357 C 0.84285 0.75738 0.16539
 C1358 C 0.82311 0.75065 0.16146
 C1359 C 0.80827 0.75153 0.17638
 C1360 C 0.81287 0.75890 0.19569
 C1361 C 0.83262 0.76544 0.19972
 C1362 C 0.84740 0.76481 0.18472
 H1363 H 0.89063 0.78157 0.08611
 H1364 H 0.91442 0.78100 0.05903
 H1365 H 0.94730 0.73298 0.08931
 H1366 H 0.92182 0.73236 0.11512
 H1367 H 0.90910 0.74976 0.14323
 H1368 H 0.88333 0.74928 0.16936
 H1369 H 0.83801 0.76439 0.12496
 H1370 H 0.86345 0.76333 0.09868
 H1371 H 0.81913 0.74447 0.14690
 H1372 H 0.79323 0.74621 0.17287
 H1373 H 0.83660 0.77138 0.21440
 H1374 H 0.86230 0.77048 0.18820
 C1375 C 0.40358 0.25420 0.60758
 C1376 C 0.42146 0.24283 0.60913
 C1377 C 0.43588 0.24327 0.59374
 C1378 C 0.43269 0.25490 0.57628
 C1379 C 0.41482 0.26628 0.57478
 C1380 C 0.40059 0.26609 0.59027
 C1381 C 0.38800 0.25361 0.62376
 C1382 C 0.36737 0.25499 0.61892
 C1383 C 0.35272 0.25498 0.63403
 C1384 C 0.35822 0.25321 0.65444
 C1385 C 0.37884 0.25150 0.65929
 C1386 C 0.39353 0.25183 0.64416
 C1387 C 0.34252 0.25338 0.67052
 C1388 C 0.34635 0.26240 0.68934
 C1389 C 0.33146 0.26290 0.70425
 C1390 C 0.31228 0.25470 0.70059
 C1391 C 0.30841 0.24565 0.68186
 C1392 C 0.32340 0.24483 0.66708
 H1393 H 0.42422 0.23332 0.62210
 H1394 H 0.44955 0.23451 0.59558
 H1395 H 0.41157 0.27514 0.56146
 H1396 H 0.38723 0.27536 0.58864
 H1397 H 0.36244 0.25599 0.60340
 H1398 H 0.33707 0.25664 0.62966
 H1399 H 0.38368 0.24980 0.67478
 H1400 H 0.40924 0.25097 0.64853
 H1401 H 0.36072 0.26948 0.69245
 H1402 H 0.33482 0.27014 0.71849
 H1403 H 0.29384 0.23901 0.67870
 H1404 H 0.31999 0.23734 0.65300
 C1405 C 0.90158 0.25281 0.91004
 C1406 C 0.90079 0.26663 0.92604
 C1407 C 0.91467 0.26556 0.94192
 C1408 C 0.92998 0.25066 0.94230
 C1409 C 0.93048 0.23680 0.92610
 C1410 C 0.91651 0.23781 0.91038
 C1411 C 0.88686 0.25385 0.89309
 C1412 C 0.89285 0.24922 0.87328
 C1413 C 0.87886 0.24932 0.85750
 C1414 C 0.85855 0.25423 0.86108
 C1415 C 0.85267 0.25935 0.88080
 C1416 C 0.86661 0.25906 0.89661
 C1417 C 0.84344 0.25355 0.84447
 C1418 C 0.82375 0.24669 0.84823
 C1419 C 0.80943 0.24610 0.83281
 C1420 C 0.81447 0.25213 0.81314
 C1421 C 0.83421 0.25871 0.80923
 C1422 C 0.84852 0.25952 0.82475
 H1423 H 0.88953 0.27846 0.92624
 H1424 H 0.91280 0.27622 0.95407
 H1425 H 0.94214 0.22549 0.92477
 H1426 H 0.91743 0.22672 0.89845
 H1427 H 0.90840 0.24550 0.86993
 H1428 H 0.88392 0.24513 0.84257
 H1429 H 0.83723 0.26357 0.88406
 H1430 H 0.86139 0.26253 0.91167
 H1431 H 0.81941 0.24150 0.86308
 H1432 H 0.79442 0.24070 0.83630
 H1433 H 0.83851 0.26356 0.79425
 H1434 H 0.86346 0.26511 0.82136
 C1435 C 0.39666 0.74871 0.41171
 C1436 C 0.40119 0.76642 0.42241
 C1437 C 0.41604 0.76638 0.43737
 C1438 C 0.42674 0.74864 0.44196
 C1439 C 0.42188 0.73082 0.43160
 C1440 C 0.40701 0.73086 0.41664
 C1441 C 0.38152 0.74899 0.39519
 C1442 C 0.38495 0.73822 0.37727
 C1443 C 0.37085 0.73871 0.36160
 C1444 C 0.35298 0.74998 0.36349
 C1445 C 0.34956 0.76078 0.38139
 C1446 C 0.36365 0.76028 0.39706
 C1447 C 0.33781 0.75027 0.34699
 C1448 C 0.31713 0.74950 0.35146
 C1449 C 0.30278 0.74967 0.33605
 C1450 C 0.30875 0.75057 0.31573
 C1451 C 0.32946 0.75136 0.31122
 C1452 C 0.34383 0.75122 0.32669
 H1453 H 0.39361 0.78046 0.41887
 H1454 H 0.41929 0.78030 0.44523
 H1455 H 0.42999 0.71696 0.43463
 H1456 H 0.40367 0.71691 0.40887
 H1457 H 0.39869 0.72960 0.37524
 H1458 H 0.37382 0.73005 0.34809
 H1459 H 0.33605 0.76979 0.38324
 H1460 H 0.36047 0.76859 0.41073
 H1461 H 0.31200 0.74843 0.36692
 H1462 H 0.28699 0.74892 0.34012
 H1463 H 0.33459 0.75208 0.29575
 H1464 H 0.35966 0.75207 0.32276
 C1465 C 0.10497 0.09819 0.24801
 C1466 C 0.08849 0.10091 0.26106
 C1467 C 0.07294 0.08677 0.26187
 C1468 C 0.07356 0.06926 0.24994
 C1469 C 0.09019 0.06635 0.23710
 C1470 C 0.10563 0.08068 0.23607
 C1471 C 0.12122 0.11366 0.24682
 C1472 C 0.14144 0.10804 0.24362
 C1473 C 0.15663 0.12262 0.24265
 C1474 C 0.15206 0.14320 0.24511
 C1475 C 0.13184 0.14878 0.24835
 C1476 C 0.11664 0.13425 0.24902
 C1477 C 0.16823 0.15878 0.24438
 C1478 C 0.16434 0.17801 0.23625
 C1479 C 0.17934 0.19277 0.23594
 C1480 C 0.19872 0.18859 0.24343
 C1481 C 0.20278 0.16935 0.25132
 C1482 C 0.18767 0.15468 0.25194
 H1483 H 0.08757 0.11398 0.27078
 H1484 H 0.06026 0.08979 0.27168
 H1485 H 0.09135 0.05295 0.22787
 H1486 H 0.11794 0.07814 0.22566
 H1487 H 0.14562 0.09234 0.24210
 H1488 H 0.17196 0.11773 0.23982
 H1489 H 0.12771 0.16441 0.25062
 H1490 H 0.10123 0.13925 0.25114
 H1491 H 0.14974 0.18163 0.22985
 H1492 H 0.17584 0.20738 0.22950
 H1493 H 0.21756 0.16574 0.25731
 H1494 H 0.19117 0.14021 0.25866
 C1495 C 0.60666 0.59274 0.74865
 C1496 C 0.59695 0.58756 0.76676
 C1497 C 0.58122 0.57355 0.76685
 C1498 C 0.57480 0.56446 0.74883
 C1499 C 0.58480 0.56931 0.73080
 C1500 C 0.60054 0.58328 0.73071
 C1501 C 0.62271 0.60834 0.74833
 C1502 C 0.63987 0.60592 0.73615
 C1503 C 0.65465 0.62091 0.73536
 C1504 C 0.65259 0.63867 0.74672
 C1505 C 0.63549 0.64103 0.75902
 C1506 C 0.62073 0.62603 0.75983
 C1507 C 0.66817 0.65472 0.74565
 C1508 C 0.66258 0.67516 0.74505
 C1509 C 0.67726 0.69024 0.74387
 C1510 C 0.69787 0.68521 0.74328
 C1511 C 0.70343 0.66474 0.74393
 C1512 C 0.68876 0.64969 0.74510
 H1513 H 0.60149 0.59441 0.78086
 H1514 H 0.57370 0.57025 0.78095
 H1515 H 0.58034 0.56239 0.71671
 H1516 H 0.60759 0.58706 0.71649
 H1517 H 0.64192 0.59239 0.72726
 H1518 H 0.66754 0.61872 0.72559
 H1519 H 0.63358 0.65444 0.76812
 H1520 H 0.60758 0.62845 0.76918
 H1521 H 0.64683 0.67951 0.74518
 H1522 H 0.67241 0.70582 0.74333
 H1523 H 0.71915 0.66028 0.74358
 H1524 H 0.69356 0.63409 0.74581
 C1525 C 0.91176 0.10219 0.74868
 C1526 C 0.91879 0.09485 0.76722
 C1527 C 0.93365 0.07992 0.76797
 C1528 C 0.94206 0.07185 0.75014
 C1529 C 0.93528 0.07983 0.73155
 C1530 C 0.92028 0.09466 0.73087
 C1531 C 0.89539 0.11745 0.74796
 C1532 C 0.87941 0.11554 0.73415
 C1533 C 0.86374 0.12968 0.73381
 C1534 C 0.86382 0.14610 0.74717
 C1535 C 0.87985 0.14803 0.76093
 C1536 C 0.89543 0.13384 0.76135
 C1537 C 0.84735 0.16126 0.74678
 C1538 C 0.85185 0.18186 0.74835
 C1539 C 0.83644 0.19621 0.74849
 C1540 C 0.81610 0.19032 0.74712
 C1541 C 0.81159 0.16969 0.74534
 C1542 C 0.82707 0.15531 0.74510
 H1543 H 0.91252 0.10041 0.78123
 H1544 H 0.93877 0.07518 0.78271
 H1545 H 0.94062 0.07400 0.71731
 H1546 H 0.91525 0.10018 0.71634
 H1547 H 0.87888 0.10293 0.72380
 H1548 H 0.85166 0.12791 0.72295
 H1549 H 0.88021 0.16042 0.77154
 H1550 H 0.90762 0.13577 0.77205
 H1551 H 0.86735 0.18691 0.74938
 H1552 H 0.84052 0.21195 0.74985
 H1553 H 0.79610 0.16462 0.74427
 H1554 H 0.82316 0.13950 0.74403
 C1555 C 0.40803 0.60158 0.24868
 C1556 C 0.42446 0.60331 0.23537
 C1557 C 0.44029 0.58934 0.23591
 C1558 C 0.44001 0.57316 0.24961
 C1559 C 0.42361 0.57150 0.26294
 C1560 C 0.40793 0.58558 0.26257
 C1561 C 0.39109 0.61637 0.24815
 C1562 C 0.37116 0.61019 0.25201
 C1563 C 0.35534 0.62417 0.25216
 C1564 C 0.35899 0.64466 0.24823
 C1565 C 0.37886 0.65076 0.24393
 C1566 C 0.39470 0.63683 0.24402
 C1567 C 0.34229 0.65971 0.24899
 C1568 C 0.34584 0.67922 0.25645
 C1569 C 0.33036 0.69348 0.25704
 C1570 C 0.31082 0.68856 0.25046
 C1571 C 0.30709 0.66899 0.24331
 C1572 C 0.32269 0.65476 0.24245
 H1573 H 0.42498 0.61529 0.22431
 H1574 H 0.45276 0.59126 0.22556
 H1575 H 0.42262 0.55907 0.27346
 H1576 H 0.39574 0.58393 0.27329
 H1577 H 0.36771 0.59451 0.25488
 H1578 H 0.34031 0.61892 0.25573
 H1579 H 0.38222 0.66634 0.24046
 H1580 H 0.40984 0.64221 0.24119
 H1581 H 0.36056 0.68345 0.26211
 H1582 H 0.33367 0.70834 0.26292
 H1583 H 0.29221 0.66480 0.23804
 H1584 H 0.31945 0.63998 0.23637
 C1585 C 0.08776 0.89606 0.74259
 C1586 C 0.07982 0.90484 0.72504
 C1587 C 0.06694 0.92152 0.72619
 C1588 C 0.06179 0.93013 0.74499
 C1589 C 0.06955 0.92083 0.76256
 C1590 C 0.08228 0.90409 0.76134
 C1591 C 0.10226 0.87904 0.74143
 C1592 C 0.10095 0.86280 0.75498
 C1593 C 0.11535 0.84739 0.75469
 C1594 C 0.13143 0.84794 0.74091
 C1595 C 0.13252 0.86398 0.72711
 C1596 C 0.11806 0.87934 0.72733
 C1597 C 0.14734 0.83219 0.74139
 C1598 C 0.16778 0.83752 0.73975
 C1599 C 0.18285 0.82282 0.74093
 C1600 C 0.17784 0.80242 0.74369
 C1601 C 0.15736 0.79706 0.74508
 C1602 C 0.14229 0.81179 0.74401
 H1603 H 0.08371 0.89887 0.71036
 H1604 H 0.06199 0.92814 0.71214
 H1605 H 0.06550 0.92602 0.77746
 H1606 H 0.08818 0.89766 0.77516
 H1607 H 0.08883 0.86208 0.76588
 H1608 H 0.11420 0.83531 0.76560
 H1609 H 0.14463 0.86469 0.71619
 H1610 H 0.11956 0.89175 0.71683
 H1611 H 0.17214 0.85314 0.73798
 H1612 H 0.19846 0.82749 0.73978
 H1613 H 0.15294 0.78150 0.74721
 H1614 H 0.12665 0.80722 0.74513
 C1615 C 0.58665 0.39681 0.24715
 C1616 C 0.57825 0.40407 0.26517
 C1617 C 0.56587 0.42112 0.26511
 C1618 C 0.56164 0.43136 0.24704
 C1619 C 0.56955 0.42376 0.22892
 C1620 C 0.58191 0.40664 0.22897
 C1621 C 0.60105 0.37966 0.24748
 C1622 C 0.60027 0.36449 0.23272
 C1623 C 0.61433 0.34872 0.23283
 C1624 C 0.62955 0.34794 0.24758
 C1625 C 0.63017 0.36300 0.26244
 C1626 C 0.61607 0.37865 0.26241
 C1627 C 0.64506 0.33179 0.24732
 C1628 C 0.66542 0.33655 0.25068
 C1629 C 0.68011 0.32146 0.25082
 C1630 C 0.67479 0.30118 0.24770
 C1631 C 0.65441 0.29642 0.24419
 C1632 C 0.63971 0.31159 0.24392
 H1633 H 0.58134 0.39659 0.27936
 H1634 H 0.55965 0.42634 0.27927
 H1635 H 0.56675 0.43143 0.21477
 H1636 H 0.58834 0.40151 0.21488
 H1637 H 0.58877 0.36481 0.22112
 H1638 H 0.61358 0.33737 0.22113
 H1639 H 0.64159 0.36267 0.27412
 H1640 H 0.61719 0.39023 0.27386
 H1641 H 0.67002 0.35202 0.25307
 H1642 H 0.69563 0.32572 0.25357
 H1643 H 0.64980 0.28097 0.24172
 H1644 H 0.62409 0.30749 0.24142
 C1645 C 0.90167 0.91795 0.25372
 C1646 C 0.91055 0.92443 0.27176
 C1647 C 0.92631 0.93835 0.27156
 C1648 C 0.93371 0.94634 0.25325
 C1649 C 0.92415 0.94022 0.23521
 C1650 C 0.90848 0.92614 0.23547
 C1651 C 0.88577 0.90224 0.25399
 C1652 C 0.88631 0.88622 0.24016
 C1653 C 0.87187 0.87092 0.24098
 C1654 C 0.85653 0.87139 0.25556
 C1655 C 0.85584 0.88755 0.26922
 C1656 C 0.87034 0.90279 0.26848
 C1657 C 0.84132 0.85505 0.25656
 C1658 C 0.82085 0.85961 0.25956
 C1659 C 0.80647 0.84426 0.26028
 C1660 C 0.81225 0.82396 0.25814
 C1661 C 0.83278 0.81939 0.25533
 C1662 C 0.84714 0.83478 0.25449
 H1663 H 0.90559 0.91839 0.28609
 H1664 H 0.93226 0.94309 0.28598
 H1665 H 0.92934 0.94533 0.22064
 H1666 H 0.90177 0.92151 0.22132
 H1667 H 0.89815 0.88531 0.22897
 H1668 H 0.87265 0.85876 0.23013
 H1669 H 0.84426 0.88823 0.28071
 H1670 H 0.86947 0.91504 0.27923
 H1671 H 0.81589 0.87511 0.26100
 H1672 H 0.79079 0.84835 0.26244
 H1673 H 0.83776 0.80394 0.25357
 H1674 H 0.86286 0.83080 0.25240
 C1675 C 0.40348 0.41185 0.75771
 C1676 C 0.40207 0.43037 0.76795
 C1677 C 0.41731 0.44483 0.76613
 C1678 C 0.43444 0.44105 0.75422
 C1679 C 0.43581 0.42251 0.74403
 C1680 C 0.42049 0.40822 0.74559
 C1681 C 0.38739 0.39631 0.75959
 C1682 C 0.39231 0.37568 0.75938
 C1683 C 0.37725 0.36104 0.76034
 C1684 C 0.35682 0.36659 0.76190
 C1685 C 0.35191 0.38722 0.76256
 C1686 C 0.36698 0.40189 0.76128
 C1687 C 0.34077 0.35091 0.76246
 C1688 C 0.32198 0.35431 0.75314
 C1689 C 0.30708 0.33943 0.75327
 C1690 C 0.31073 0.32068 0.76242
 C1691 C 0.32944 0.31722 0.77174
 C1692 C 0.34421 0.33222 0.77193
 H1693 H 0.38933 0.43362 0.77760
 H1694 H 0.41559 0.45901 0.77402
 H1695 H 0.44891 0.41883 0.73503
 H1696 H 0.42197 0.39434 0.73717
 H1697 H 0.40787 0.37076 0.75850
 H1698 H 0.38165 0.34534 0.75949
 H1699 H 0.33640 0.39210 0.76409
 H1700 H 0.36257 0.41760 0.76128
 H1701 H 0.31888 0.36831 0.74534
 H1702 H 0.29286 0.34245 0.74578
 H1703 H 0.33259 0.30297 0.77909
 H1704 H 0.35830 0.32917 0.77964
 C1705 C 0.09449 0.25263 0.91529
 C1706 C 0.09478 0.23846 0.93101
 C1707 C 0.07969 0.23840 0.94573
 C1708 C 0.06362 0.25247 0.94515
 C1709 C 0.06364 0.26673 0.92927
 C1710 C 0.07883 0.26685 0.91475
 C1711 C 0.11032 0.25260 0.89941
 C1712 C 0.10537 0.25724 0.87931
 C1713 C 0.12026 0.25781 0.86446
 C1714 C 0.14048 0.25352 0.86924
 C1715 C 0.14540 0.24855 0.88927
 C1716 C 0.13052 0.24818 0.90419
 C1717 C 0.15637 0.25445 0.85343
 C1718 C 0.17575 0.26171 0.85803
 C1719 C 0.19066 0.26266 0.84320
 C1720 C 0.18647 0.25660 0.82334
 C1721 C 0.16709 0.24944 0.81867
 C1722 C 0.15225 0.24827 0.83357
 H1723 H 0.10660 0.22721 0.93186
 H1724 H 0.08118 0.22754 0.95777
 H1725 H 0.05153 0.27746 0.92724
 H1726 H 0.07823 0.27819 0.90301
 H1727 H 0.08992 0.26037 0.87499
 H1728 H 0.11593 0.26193 0.84927
 H1729 H 0.16076 0.24485 0.89345
 H1730 H 0.13493 0.24474 0.91952
 H1731 H 0.17936 0.26696 0.87305
 H1732 H 0.20542 0.26835 0.84725
 H1733 H 0.16347 0.24443 0.80356
 H1734 H 0.13762 0.24225 0.82955
 C1735 C 0.59935 0.75508 0.41469
 C1736 C 0.58922 0.77259 0.42107
 C1737 C 0.57354 0.77140 0.43510
 C1738 C 0.56761 0.75267 0.44300
 C1739 C 0.57805 0.73523 0.43697
 C1740 C 0.59374 0.73642 0.42299
 C1741 C 0.61528 0.75615 0.39901
 C1742 C 0.63277 0.74423 0.40054
 C1743 C 0.64743 0.74474 0.38543
 C1744 C 0.64493 0.75716 0.36843
 C1745 C 0.62751 0.76919 0.36698
 C1746 C 0.61286 0.76870 0.38210
 C1747 C 0.66040 0.75752 0.35226
 C1748 C 0.65467 0.75813 0.33186
 C1749 C 0.66925 0.75847 0.31666
 C1750 C 0.68991 0.75825 0.32150
 C1751 C 0.69561 0.75759 0.34193
 C1752 C 0.68104 0.75723 0.35711
 H1753 H 0.59336 0.78721 0.41514
 H1754 H 0.56567 0.78507 0.43933
 H1755 H 0.57397 0.72061 0.44297
 H1756 H 0.60112 0.72264 0.41826
 H1757 H 0.63515 0.73454 0.41347
 H1758 H 0.66059 0.73516 0.38690
 H1759 H 0.62526 0.77909 0.35419
 H1760 H 0.59945 0.77789 0.38037
 H1761 H 0.63888 0.75808 0.32764
 H1762 H 0.66430 0.75891 0.30110
 H1763 H 0.71137 0.75741 0.34625
 H1764 H 0.68594 0.75700 0.37268
 C1765 C 0.91182 0.75466 0.89651
 C1766 C 0.91995 0.77271 0.90390
 C1767 C 0.93297 0.77262 0.92051
 C1768 C 0.93804 0.75443 0.93044
 C1769 C 0.93006 0.73632 0.92252
 C1770 C 0.91722 0.73647 0.90584
 C1771 C 0.89721 0.75477 0.87956
 C1772 C 0.89839 0.74019 0.86425
 C1773 C 0.88399 0.73967 0.84885
 C1774 C 0.86803 0.75364 0.84852
 C1775 C 0.86702 0.76840 0.86367
 C1776 C 0.88149 0.76900 0.87899
 C1777 C 0.85225 0.75254 0.83269
 C1778 C 0.83180 0.75479 0.83774
 C1779 C 0.81687 0.75350 0.82292
 C1780 C 0.82207 0.75003 0.80267
 C1781 C 0.84257 0.74784 0.79763
 C1782 C 0.85748 0.74901 0.81249
 H1783 H 0.91613 0.78697 0.89690
 H1784 H 0.93808 0.78706 0.92604
 H1785 H 0.93404 0.72179 0.92877
 H1786 H 0.91116 0.72230 0.90047
 H1787 H 0.91044 0.72914 0.86422
 H1788 H 0.88507 0.72804 0.83746
 H1789 H 0.85501 0.77949 0.86366
 H1790 H 0.88010 0.78029 0.89068
 H1791 H 0.82731 0.75728 0.85323
 H1792 H 0.80125 0.75532 0.82735
 H1793 H 0.84712 0.74521 0.78218
 H1794 H 0.87315 0.74741 0.80814
 C1795 C 0.41202 0.25748 0.39908
 C1796 C 0.41768 0.27544 0.40879
 C1797 C 0.43030 0.27497 0.42571
 C1798 C 0.43745 0.25651 0.43332
 C1799 C 0.43213 0.23860 0.42335
 C1800 C 0.41958 0.23908 0.40643
 C1801 C 0.39767 0.25779 0.38186
 C1802 C 0.40041 0.24490 0.36528
 C1803 C 0.38627 0.24442 0.34963
 C1804 C 0.36903 0.25677 0.35025
 C1805 C 0.36650 0.26995 0.36664
 C1806 C 0.38066 0.27046 0.38225
 C1807 C 0.35347 0.25555 0.33417
 C1808 C 0.33287 0.25594 0.33914
 C1809 C 0.31815 0.25461 0.32413
 C1810 C 0.32364 0.25286 0.30374
 C1811 C 0.34426 0.25247 0.29875
 C1812 C 0.35901 0.25377 0.31380
 H1813 H 0.41228 0.28987 0.40336
 H1814 H 0.43401 0.28900 0.43314
 H1815 H 0.43761 0.22418 0.42871
 H1816 H 0.41535 0.22497 0.39942
 H1817 H 0.41348 0.23511 0.36444
 H1818 H 0.38857 0.23400 0.33728
 H1819 H 0.35351 0.27984 0.36742
 H1820 H 0.37800 0.28042 0.39490
 H1821 H 0.32812 0.25700 0.35472
 H1822 H 0.30243 0.25497 0.32856
 H1823 H 0.34905 0.25124 0.28320
 H1824 H 0.37475 0.25363 0.30948
 C1825 C 0.08920 0.75432 0.10215
 C1826 C 0.07869 0.73646 0.09778
 C1827 C 0.06374 0.73620 0.08293
 C1828 C 0.05895 0.75378 0.07209
 C1829 C 0.06914 0.77175 0.07676
 C1830 C 0.08411 0.77201 0.09162
 C1831 C 0.10564 0.75434 0.11738
 C1832 C 0.12357 0.76510 0.11392
 C1833 C 0.13921 0.76475 0.12808
 C1834 C 0.13726 0.75367 0.14602
 C1835 C 0.11932 0.74293 0.14947
 C1836 C 0.10370 0.74328 0.13534
 C1837 C 0.15375 0.75336 0.16120
 C1838 C 0.14921 0.75425 0.18185
 C1839 C 0.16456 0.75361 0.19623
 C1840 C 0.18490 0.75211 0.19036
 C1841 C 0.18949 0.75142 0.16968
 C1842 C 0.17407 0.75204 0.15526
 H1843 H 0.08236 0.72254 0.10549
 H1844 H 0.05601 0.72217 0.07982
 H1845 H 0.06594 0.78549 0.06853
 H1846 H 0.09175 0.78606 0.09483
 H1847 H 0.12563 0.77356 0.10012
 H1848 H 0.15276 0.77334 0.12508
 H1849 H 0.11743 0.73405 0.16304
 H1850 H 0.09002 0.73498 0.13854
 H1851 H 0.13375 0.75565 0.18691
 H1852 H 0.16043 0.75436 0.21200
 H1853 H 0.20498 0.75029 0.16463
 H1854 H 0.17804 0.75114 0.13946
 C1855 C 0.59117 0.25340 0.60342
 C1856 C 0.58049 0.23547 0.59977
 C1857 C 0.56500 0.23495 0.58549
 C1858 C 0.55981 0.25232 0.57450
 C1859 C 0.57021 0.27035 0.57843
 C1860 C 0.58572 0.27088 0.59272
 C1861 C 0.60809 0.25375 0.61815
 C1862 C 0.62586 0.26453 0.61398
 C1863 C 0.64186 0.26463 0.62774
 C1864 C 0.64044 0.25398 0.64600
 C1865 C 0.62268 0.24317 0.65013
 C1866 C 0.60671 0.24307 0.63639
 C1867 C 0.65727 0.25423 0.66083
 C1868 C 0.65315 0.25556 0.68154
 C1869 C 0.66879 0.25531 0.69562
 C1870 C 0.68902 0.25376 0.68938
 C1871 C 0.69320 0.25274 0.66863
 C1872 C 0.67748 0.25296 0.65450
 H1873 H 0.58442 0.22170 0.60763
 H1874 H 0.55714 0.22088 0.58294
 H1875 H 0.56673 0.28394 0.57006
 H1876 H 0.59348 0.28498 0.59537
 H1877 H 0.62749 0.27270 0.59994
 H1878 H 0.65526 0.27325 0.62420
 H1879 H 0.62120 0.23461 0.66394
 H1880 H 0.59317 0.23477 0.64014
 H1881 H 0.63778 0.25695 0.68689
 H1882 H 0.66496 0.25634 0.71145
 H1883 H 0.70859 0.25156 0.66330
 H1884 H 0.68114 0.25175 0.63865
 C1885 C 0.89324 0.24140 0.09774
 C1886 C 0.89830 0.25999 0.08893
 C1887 C 0.91409 0.26130 0.07505
 C1888 C 0.92518 0.24406 0.06964
 C1889 C 0.91989 0.22541 0.07817
 C1890 C 0.90412 0.22410 0.09208
 C1891 C 0.87697 0.24019 0.11309
 C1892 C 0.87935 0.22815 0.13037
 C1893 C 0.86429 0.22746 0.14510
 C1894 C 0.84648 0.23877 0.14285
 C1895 C 0.84402 0.25069 0.12549
 C1896 C 0.85909 0.25140 0.11079
 C1897 C 0.83057 0.23829 0.15862
 C1898 C 0.81007 0.23790 0.15321
 C1899 C 0.79508 0.23782 0.16800
 C1900 C 0.80020 0.23815 0.18858
 C1901 C 0.82073 0.23838 0.19399
 C1902 C 0.83573 0.23845 0.17918
 H1903 H 0.89035 0.27363 0.09310
 H1904 H 0.91766 0.27585 0.06859
 H1905 H 0.92827 0.21189 0.07446
 H1906 H 0.90043 0.20952 0.09843
 H1907 H 0.89304 0.21951 0.13270
 H1908 H 0.86654 0.21797 0.15819
 H1909 H 0.83057 0.25974 0.12340
 H1910 H 0.85671 0.26066 0.09755
 H1911 H 0.80560 0.23747 0.13752
 H1912 H 0.77944 0.23752 0.16325
 H1913 H 0.82524 0.23865 0.20968
 H1914 H 0.85138 0.23900 0.18383
 C1915 C 0.39799 0.74262 0.59758
 C1916 C 0.41550 0.73086 0.59995
 C1917 C 0.43075 0.73122 0.58547
 C1918 C 0.42882 0.74307 0.56797
 C1919 C 0.41121 0.75466 0.56545
 C1920 C 0.39605 0.75454 0.58011
 C1921 C 0.38194 0.74247 0.61330
 C1922 C 0.36146 0.74414 0.60799
 C1923 C 0.34644 0.74386 0.62278
 C1924 C 0.35147 0.74161 0.64327
 C1925 C 0.37195 0.73990 0.64857
 C1926 C 0.38697 0.74049 0.63382
 C1927 C 0.33546 0.74104 0.65903
 C1928 C 0.33885 0.74938 0.67825
 C1929 C 0.32384 0.74881 0.69302
 C1930 C 0.30495 0.74021 0.68883
 C1931 C 0.30150 0.73189 0.66968
 C1932 C 0.31661 0.73215 0.65501
 H1933 H 0.41743 0.72122 0.61297
 H1934 H 0.44422 0.72238 0.58820
 H1935 H 0.40904 0.76379 0.55209
 H1936 H 0.38292 0.76400 0.57785
 H1937 H 0.35694 0.74543 0.59236
 H1938 H 0.33088 0.74556 0.61810
 H1939 H 0.37645 0.73786 0.66412
 H1940 H 0.40256 0.73952 0.63858
 H1941 H 0.35299 0.75669 0.68182
 H1942 H 0.32686 0.75550 0.70760
 H1943 H 0.28715 0.72496 0.66608
 H1944 H 0.31356 0.72516 0.64060
 C1945 C 0.24158 0.10456 0.91647
 C1946 C 0.22371 0.09441 0.92161
 C1947 C 0.22426 0.07747 0.93414
 C1948 C 0.24271 0.07028 0.94177
 C1949 C 0.26050 0.08077 0.93710
 C1950 C 0.25995 0.09771 0.92460
 C1951 C 0.24126 0.12157 0.90191
 C1952 C 0.25372 0.13848 0.90470
 C1953 C 0.25432 0.15384 0.89027
 C1954 C 0.24252 0.15259 0.87270
 C1955 C 0.22972 0.13592 0.87015
 C1956 C 0.22910 0.12059 0.88457
 C1957 C 0.24400 0.16824 0.85676
 C1958 C 0.24439 0.16264 0.83635
 C1959 C 0.24582 0.17721 0.82125
 C1960 C 0.24691 0.19781 0.82617
 C1961 C 0.24658 0.20343 0.84661
 C1962 C 0.24519 0.18880 0.86174
 H1963 H 0.20929 0.09947 0.91578
 H1964 H 0.21031 0.06963 0.93736
 H1965 H 0.27491 0.07574 0.94296
 H1966 H 0.27400 0.10507 0.92079
 H1967 H 0.26311 0.13976 0.91801
 H1968 H 0.26442 0.16644 0.89261
 H1969 H 0.22025 0.13466 0.85690
 H1970 H 0.21950 0.10769 0.88186
 H1971 H 0.24383 0.14691 0.83204
 H1972 H 0.24602 0.17229 0.80570
 H1973 H 0.24731 0.21915 0.85094
 H1974 H 0.24474 0.19358 0.87733
 C1975 C 0.74765 0.60055 0.40655
 C1976 C 0.73536 0.58381 0.40234
 C1977 C 0.73484 0.56732 0.41539
 C1978 C 0.74629 0.56721 0.43326
 C1979 C 0.75828 0.58411 0.43769
 C1980 C 0.75904 0.60052 0.42445
 C1981 C 0.74879 0.61770 0.39208
 C1982 C 0.75108 0.63765 0.39888
 C1983 C 0.75219 0.65365 0.38515
 C1984 C 0.75083 0.65011 0.36429
 C1985 C 0.74840 0.63017 0.35755
 C1986 C 0.74759 0.61420 0.37121
 C1987 C 0.75190 0.66701 0.34952
 C1988 C 0.76106 0.66413 0.33062
 C1989 C 0.76118 0.67953 0.31629
 C1990 C 0.75251 0.69835 0.32061
 C1991 C 0.74387 0.70155 0.33966
 C1992 C 0.74342 0.68599 0.35392
 H1993 H 0.72606 0.58340 0.38893
 H1994 H 0.72568 0.55449 0.41123
 H1995 H 0.76708 0.58473 0.45143
 H1996 H 0.76885 0.61303 0.42811
 H1997 H 0.75181 0.64098 0.41483
 H1998 H 0.75430 0.66876 0.39091
 H1999 H 0.74692 0.62683 0.34165
 H2000 H 0.74619 0.59905 0.36533
 H2001 H 0.76823 0.64996 0.32686
 H2002 H 0.76819 0.67673 0.30182
 H2003 H 0.73694 0.71588 0.34333
 H2004 H 0.73599 0.68870 0.36818
 C2005 C 0.74610 0.08689 0.09406
 C2006 C 0.75893 0.09007 0.07752
 C2007 C 0.76030 0.07586 0.06210
 C2008 C 0.74920 0.05783 0.06294
 C2009 C 0.73658 0.05447 0.07963
 C2010 C 0.73496 0.06887 0.09494
 C2011 C 0.74435 0.10238 0.11021
 C2012 C 0.74160 0.09675 0.13045
 C2013 C 0.74024 0.11136 0.14557
 C2014 C 0.74187 0.13198 0.14087
 C2015 C 0.74459 0.13759 0.12062
 C2016 C 0.74563 0.12301 0.10549
 C2017 C 0.74090 0.14758 0.15698
 C2018 C 0.73208 0.16653 0.15318
 C2019 C 0.73163 0.18135 0.16812
 C2020 C 0.73964 0.17745 0.18732
 C2021 C 0.74823 0.15849 0.19127
 C2022 C 0.74902 0.14379 0.17622
 H2023 H 0.76804 0.10355 0.07646
 H2024 H 0.76989 0.07922 0.04934
 H2025 H 0.72799 0.04068 0.08094
 H2026 H 0.72474 0.06598 0.10731
 H2027 H 0.74078 0.08102 0.13472
 H2028 H 0.73780 0.10646 0.16093
 H2029 H 0.74622 0.15326 0.11640
 H2030 H 0.74735 0.12799 0.09005
 H2031 H 0.72529 0.16989 0.13872
 H2032 H 0.72473 0.19577 0.16473
 H2033 H 0.75471 0.15515 0.20590
 H2034 H 0.75631 0.12957 0.17961
 C2035 C 0.25269 0.58258 0.60033
 C2036 C 0.27068 0.57781 0.59018
 C2037 C 0.27078 0.56353 0.57470
 C2038 C 0.25288 0.55371 0.56901
 C2039 C 0.23501 0.55810 0.57951
 C2040 C 0.23491 0.57237 0.59498
 C2041 C 0.25228 0.59859 0.61597
 C2042 C 0.24058 0.59628 0.63347
 C2043 C 0.23960 0.61166 0.64781
 C2044 C 0.25031 0.62972 0.64499
 C2045 C 0.26216 0.63195 0.62759
 C2046 C 0.26314 0.61657 0.61325
 C2047 C 0.24899 0.64619 0.66010
 C2048 C 0.24766 0.66644 0.65394
 C2049 C 0.24618 0.68190 0.66818
 C2050 C 0.24596 0.67746 0.68890
 C2051 C 0.24738 0.65720 0.69503
 C2052 C 0.24888 0.64177 0.68080
 H2053 H 0.28467 0.58523 0.59412
 H2054 H 0.28475 0.56061 0.56678
 H2055 H 0.22102 0.55063 0.57562
 H2056 H 0.22076 0.57581 0.60238
 H2057 H 0.23219 0.58254 0.63610
 H2058 H 0.23018 0.60955 0.66095
 H2059 H 0.27077 0.64558 0.62510
 H2060 H 0.27210 0.61891 0.59982
 H2061 H 0.24746 0.67032 0.63809
 H2062 H 0.24512 0.69732 0.66291
 H2063 H 0.24742 0.65321 0.71086
 H2064 H 0.25020 0.62636 0.68604
 C2065 C 0.75926 0.90213 0.89440
 C2066 C 0.74641 0.91897 0.89287
 C2067 C 0.74616 0.93371 0.90795
 C2068 C 0.75858 0.93187 0.92505
 C2069 C 0.77148 0.91506 0.92651
 C2070 C 0.77194 0.90051 0.91133
 C2071 C 0.75935 0.88620 0.87858
 C2072 C 0.76235 0.86585 0.88379
 C2073 C 0.76270 0.85089 0.86899
 C2074 C 0.75974 0.85579 0.84858
 C2075 C 0.75653 0.87612 0.84338
 C2076 C 0.75646 0.89113 0.85816
 C2077 C 0.75998 0.83979 0.83283
 C2078 C 0.76789 0.84369 0.81355
 C2079 C 0.76793 0.82874 0.79873
 C2080 C 0.76034 0.80943 0.80291
 C2081 C 0.75268 0.80539 0.82221
 C2082 C 0.75234 0.82043 0.83694
 H2083 H 0.73625 0.92064 0.88019
 H2084 H 0.73622 0.94655 0.90615
 H2085 H 0.78102 0.91288 0.93958
 H2086 H 0.78231 0.88799 0.91290
 H2087 H 0.76428 0.86138 0.89937
 H2088 H 0.76551 0.83548 0.87359
 H2089 H 0.75388 0.88046 0.82787
 H2090 H 0.75436 0.90663 0.85351
 H2091 H 0.77430 0.85824 0.80994
 H2092 H 0.77415 0.83223 0.78405
 H2093 H 0.74657 0.79069 0.82581
 H2094 H 0.74578 0.81694 0.85145
 C2095 C 0.26189 0.40626 0.39331
 C2096 C 0.24332 0.41523 0.39826
 C2097 C 0.24199 0.42909 0.41405
 C2098 C 0.25921 0.43433 0.42526
 C2099 C 0.27788 0.42574 0.42000
 C2100 C 0.27920 0.41185 0.40422
 C2101 C 0.26304 0.39070 0.37725
 C2102 C 0.27490 0.37331 0.37993
 C2103 C 0.27535 0.35827 0.36520
 C2104 C 0.26397 0.36027 0.34742
 C2105 C 0.25231 0.37777 0.34462
 C2106 C 0.25184 0.39281 0.35937
 C2107 C 0.26402 0.34406 0.33197
 C2108 C 0.26432 0.34885 0.31134
 C2109 C 0.26399 0.33363 0.29680
 C2110 C 0.26333 0.31322 0.30253
 C2111 C 0.26318 0.30842 0.32318
 C2112 C 0.26352 0.32367 0.33772
 H2113 H 0.22968 0.41113 0.39027
 H2114 H 0.22744 0.43562 0.41759
 H2115 H 0.29138 0.42933 0.42847
 H2116 H 0.29377 0.40539 0.40061
 H2117 H 0.28353 0.37113 0.39363
 H2118 H 0.28467 0.34507 0.36770
 H2119 H 0.24322 0.37969 0.33118
 H2120 H 0.24271 0.40611 0.35676
 H2121 H 0.26500 0.36440 0.30643
 H2122 H 0.26425 0.33790 0.28105
 H2123 H 0.26268 0.29288 0.32816
 H2124 H 0.26303 0.31948 0.35349
 C2125 C 0.24506 0.89671 0.09119
 C2126 C 0.26328 0.90097 0.08128
 C2127 C 0.26388 0.91511 0.06568
 C2128 C 0.24630 0.92541 0.05971
 C2129 C 0.22797 0.92074 0.06928
 C2130 C 0.22735 0.90650 0.08482
 C2131 C 0.24465 0.88242 0.10839
 C2132 C 0.22911 0.86816 0.11016
 C2133 C 0.22890 0.85457 0.12626
 C2134 C 0.24413 0.85506 0.14102
 C2135 C 0.25950 0.86952 0.13941
 C2136 C 0.25979 0.88301 0.12323
 C2137 C 0.24434 0.84012 0.15766
 C2138 C 0.24886 0.84596 0.17753
 C2139 C 0.24941 0.83168 0.19306
 C2140 C 0.24566 0.81123 0.18898
 C2141 C 0.24106 0.80547 0.16909
 C2142 C 0.24036 0.81974 0.15365
 H2143 H 0.27709 0.89337 0.08562
 H2144 H 0.27817 0.91810 0.05838
 H2145 H 0.21421 0.92861 0.06528
 H2146 H 0.21313 0.90364 0.09230
 H2147 H 0.21730 0.86729 0.09890
 H2148 H 0.21678 0.84369 0.12722
 H2149 H 0.27152 0.87013 0.15047
 H2150 H 0.27181 0.89401 0.12238
 H2151 H 0.25182 0.86162 0.18106
 H2152 H 0.25295 0.83662 0.20821
 H2153 H 0.23797 0.78988 0.16540
 H2154 H 0.23706 0.81476 0.13846
 C2155 C 0.74899 0.40117 0.59159
 C2156 C 0.73683 0.41847 0.59327
 C2157 C 0.73599 0.43259 0.57769
 C2158 C 0.74698 0.42967 0.55980
 C2159 C 0.75900 0.41227 0.55801
 C2160 C 0.76008 0.39826 0.57375
 C2161 C 0.74993 0.38624 0.60836
 C2162 C 0.75174 0.36552 0.60433
 C2163 C 0.75219 0.35151 0.62005
 C2164 C 0.75052 0.35778 0.64024
 C2165 C 0.74885 0.37852 0.64428
 C2166 C 0.74871 0.39256 0.62857
 C2167 C 0.75031 0.34274 0.65692
 C2168 C 0.75919 0.34707 0.67572
 C2169 C 0.75910 0.33277 0.69124
 C2170 C 0.75043 0.31373 0.68816
 C2171 C 0.74141 0.30944 0.66949
 C2172 C 0.74120 0.32381 0.65414
 H2173 H 0.72780 0.42110 0.60658
 H2174 H 0.72689 0.44597 0.57986
 H2175 H 0.76752 0.40938 0.54440
 H2176 H 0.76982 0.38527 0.57199
 H2177 H 0.75248 0.36003 0.58899
 H2178 H 0.75390 0.33571 0.61633
 H2179 H 0.74732 0.38394 0.65958
 H2180 H 0.74769 0.40840 0.63232
 H2181 H 0.76660 0.36135 0.67835
 H2182 H 0.76626 0.33641 0.70545
 H2183 H 0.73435 0.29497 0.66680
 H2184 H 0.73372 0.32009 0.64011
 C2185 C 0.09719 0.10185 0.75996
 C2186 C 0.07890 0.10283 0.77067
 C2187 C 0.06439 0.08768 0.76860
 C2188 C 0.06789 0.07102 0.75596
 C2189 C 0.08622 0.07003 0.74534
 C2190 C 0.10056 0.08530 0.74717
 C2191 C 0.11269 0.11797 0.76197
 C2192 C 0.13337 0.11326 0.76101
 C2193 C 0.14793 0.12842 0.76197
 C2194 C 0.14225 0.14872 0.76427
 C2195 C 0.12159 0.15340 0.76575
 C2196 C 0.10700 0.13825 0.76447
 C2197 C 0.15779 0.16493 0.76464
 C2198 C 0.15382 0.18386 0.75590
 C2199 C 0.16852 0.19893 0.75583
 C2200 C 0.18766 0.19534 0.76418
 C2201 C 0.19171 0.17649 0.77295
 C2202 C 0.17689 0.16152 0.77333
 H2203 H 0.07584 0.11520 0.78085
 H2204 H 0.05038 0.08910 0.77685
 H2205 H 0.08968 0.05730 0.73576
 H2206 H 0.11426 0.08415 0.73838
 H2207 H 0.13838 0.09780 0.75950
 H2208 H 0.16364 0.12420 0.76051
 H2209 H 0.11662 0.16880 0.76788
 H2210 H 0.09125 0.14253 0.76507
 H2211 H 0.13949 0.18696 0.74869
 H2212 H 0.16502 0.21328 0.74884
 H2213 H 0.20626 0.17339 0.77974
 H2214 H 0.18039 0.14732 0.78059
 C2215 C 0.59857 0.60481 0.25575
 C2216 C 0.58147 0.60505 0.26830
 C2217 C 0.56673 0.59005 0.26670
 C2218 C 0.56882 0.57430 0.25268
 C2219 C 0.58591 0.57410 0.24013
 C2220 C 0.60049 0.58921 0.24154
 C2221 C 0.61436 0.62070 0.25743
 C2222 C 0.63483 0.61599 0.25432
 C2223 C 0.64960 0.63097 0.25527
 C2224 C 0.64436 0.65105 0.25963
 C2225 C 0.62394 0.65569 0.26314
 C2226 C 0.60913 0.64075 0.26193
 C2227 C 0.66005 0.66712 0.26012
 C2228 C 0.65563 0.68667 0.25317
 C2229 C 0.67036 0.70170 0.25335
 C2230 C 0.68998 0.69751 0.26020
 C2231 C 0.69449 0.67800 0.26713
 C2232 C 0.67966 0.66302 0.26723
 H2233 H 0.57956 0.61667 0.27958
 H2234 H 0.55368 0.59086 0.27645
 H2235 H 0.58827 0.56206 0.22938
 H2236 H 0.61323 0.58869 0.23137
 H2237 H 0.63951 0.60068 0.25118
 H2238 H 0.66510 0.62683 0.25223
 H2239 H 0.61934 0.67090 0.26688
 H2240 H 0.59353 0.64503 0.26420
 H2241 H 0.64086 0.69032 0.24719
 H2242 H 0.66645 0.71655 0.24774
 H2243 H 0.70943 0.67437 0.27271
 H2244 H 0.68355 0.64827 0.27306
 C2245 C 0.10063 0.91110 0.24918
 C2246 C 0.09353 0.91909 0.23093
 C2247 C 0.07927 0.93461 0.23077
 C2248 C 0.07161 0.94273 0.24892
 C2249 C 0.07937 0.93497 0.26722
 C2250 C 0.09355 0.91934 0.26731
 C2251 C 0.11520 0.89408 0.24927
 C2252 C 0.11290 0.87794 0.26282
 C2253 C 0.12655 0.86184 0.26277
 C2254 C 0.14285 0.86160 0.24926
 C2255 C 0.14509 0.87770 0.23566
 C2256 C 0.13141 0.89374 0.23565
 C2257 C 0.15779 0.84490 0.24963
 C2258 C 0.17846 0.84912 0.24798
 C2259 C 0.19266 0.83358 0.24841
 C2260 C 0.18656 0.81338 0.25047
 C2261 C 0.16584 0.80912 0.25206
 C2262 C 0.15161 0.82474 0.25171
 H2263 H 0.09874 0.91308 0.21668
 H2264 H 0.07473 0.94045 0.21623
 H2265 H 0.07382 0.94005 0.28167
 H2266 H 0.09892 0.91361 0.28164
 H2267 H 0.10042 0.87768 0.27332
 H2268 H 0.12454 0.84974 0.27354
 H2269 H 0.15739 0.87784 0.22493
 H2270 H 0.13366 0.90602 0.22513
 H2271 H 0.18371 0.86451 0.24664
 H2272 H 0.20847 0.83748 0.24714
 H2273 H 0.16062 0.79374 0.25363
 H2274 H 0.13574 0.82104 0.25282
 C2275 C 0.60330 0.41060 0.74746
 C2276 C 0.59872 0.42080 0.76545
 C2277 C 0.58384 0.43571 0.76581
 C2278 C 0.57315 0.44078 0.74821
 C2279 C 0.57805 0.43094 0.73011
 C2280 C 0.59295 0.41599 0.72974
 C2281 C 0.61853 0.39413 0.74735
 C2282 C 0.61515 0.37638 0.73629
 C2283 C 0.62926 0.36068 0.73663
 C2284 C 0.64708 0.36241 0.74800
 C2285 C 0.65045 0.38019 0.75901
 C2286 C 0.63637 0.39586 0.75867
 C2287 C 0.66221 0.34587 0.74829
 C2288 C 0.68290 0.35033 0.74772
 C2289 C 0.69725 0.33493 0.74828
 C2290 C 0.69129 0.31461 0.74938
 C2291 C 0.67057 0.31010 0.74979
 C2292 C 0.65619 0.32557 0.74926
 H2293 H 0.60629 0.41689 0.77939
 H2294 H 0.58055 0.44317 0.77995
 H2295 H 0.56995 0.43439 0.71634
 H2296 H 0.59632 0.40859 0.71560
 H2297 H 0.60144 0.37449 0.72761
 H2298 H 0.62632 0.34727 0.72782
 H2299 H 0.66392 0.38191 0.76810
 H2300 H 0.63950 0.40941 0.76720
 H2301 H 0.68804 0.36578 0.74662
 H2302 H 0.71305 0.33901 0.74776
 H2303 H 0.66545 0.29463 0.75061
 H2304 H 0.64035 0.32166 0.74991
 C2305 C 0.89584 0.08912 0.25523
 C2306 C 0.90628 0.08463 0.27315
 C2307 C 0.92326 0.07209 0.27287
 C2308 C 0.93019 0.06379 0.25466
 C2309 C 0.91945 0.06788 0.23684
 C2310 C 0.90248 0.08039 0.23711
 C2311 C 0.87861 0.10349 0.25525
 C2312 C 0.86154 0.10007 0.24311
 C2313 C 0.84583 0.11416 0.24240
 C2314 C 0.84687 0.13201 0.25376
 C2315 C 0.86377 0.13524 0.26615
 C2316 C 0.87945 0.12116 0.26689
 C2317 C 0.83063 0.14742 0.25242
 C2318 C 0.83550 0.16802 0.25180
 C2319 C 0.82034 0.18262 0.25081
 C2320 C 0.79989 0.17701 0.25042
 C2321 C 0.79501 0.15638 0.25079
 C2322 C 0.81022 0.14175 0.25177
 H2323 H 0.90140 0.09093 0.28738
 H2324 H 0.93129 0.06934 0.28683
 H2325 H 0.92426 0.06149 0.22261
 H2326 H 0.89489 0.08368 0.22303
 H2327 H 0.86035 0.08650 0.23413
 H2328 H 0.83308 0.11130 0.23260
 H2329 H 0.86489 0.14870 0.27530
 H2330 H 0.89247 0.12435 0.27622
 H2331 H 0.85109 0.17286 0.25190
 H2332 H 0.82470 0.19834 0.25041
 H2333 H 0.77942 0.15151 0.25051
 H2334 H 0.80598 0.12601 0.25239
 C2335 C 0.39847 0.59011 0.74764
 C2336 C 0.40874 0.58525 0.72976
 C2337 C 0.42502 0.57183 0.73005
 C2338 C 0.43141 0.56300 0.74824
 C2339 C 0.42088 0.56754 0.76604
 C2340 C 0.40459 0.58093 0.76575
 C2341 C 0.38184 0.60515 0.74754
 C2342 C 0.36450 0.60219 0.75933
 C2343 C 0.34917 0.61669 0.75971
 C2344 C 0.35087 0.63449 0.74833
 C2345 C 0.36813 0.63735 0.73640
 C2346 C 0.38343 0.62285 0.73600
 C2347 C 0.33479 0.65009 0.74903
 C2348 C 0.33980 0.67066 0.74970
 C2349 C 0.32471 0.68537 0.75026
 C2350 C 0.30423 0.67987 0.75018
 C2351 C 0.29923 0.65928 0.74958
 C2352 C 0.31434 0.64457 0.74903
 H2353 H 0.40423 0.59189 0.71554
 H2354 H 0.43294 0.56877 0.71612
 H2355 H 0.42530 0.56080 0.78025
 H2356 H 0.39710 0.58449 0.77980
 H2357 H 0.36275 0.58862 0.76824
 H2358 H 0.33613 0.61412 0.76919
 H2359 H 0.36977 0.65079 0.72728
 H2360 H 0.39670 0.62568 0.72693
 H2361 H 0.35543 0.67538 0.75000
 H2362 H 0.32913 0.70107 0.75074
 H2363 H 0.28362 0.65448 0.74938
 H2364 H 0.31000 0.62886 0.74827
 C2365 C 0.91467 0.90050 0.74879
 C2366 C 0.92020 0.90977 0.76702
 C2367 C 0.93428 0.92543 0.76723
 C2368 C 0.94309 0.93218 0.74919
 C2369 C 0.93788 0.92262 0.73103
 C2370 C 0.92384 0.90695 0.73083
 C2371 C 0.89902 0.88453 0.74838
 C2372 C 0.90125 0.86761 0.73585
 C2373 C 0.88622 0.85290 0.73497
 C2374 C 0.86861 0.85479 0.74660
 C2375 C 0.86643 0.87164 0.75924
 C2376 C 0.88149 0.88634 0.76014
 C2377 C 0.85256 0.83926 0.74549
 C2378 C 0.83208 0.84483 0.74519
 C2379 C 0.81700 0.83017 0.74400
 C2380 C 0.82207 0.80960 0.74309
 C2381 C 0.84257 0.80406 0.74344
 C2382 C 0.85761 0.81871 0.74462
 H2383 H 0.91357 0.90496 0.78113
 H2384 H 0.93787 0.93262 0.78143
 H2385 H 0.94458 0.92735 0.71693
 H2386 H 0.91978 0.90024 0.71653
 H2387 H 0.91467 0.86570 0.72675
 H2388 H 0.88825 0.84019 0.72495
 H2389 H 0.85314 0.87340 0.76855
 H2390 H 0.87923 0.89932 0.76977
 H2391 H 0.82773 0.86056 0.74561
 H2392 H 0.80138 0.83498 0.74379
 H2393 H 0.84704 0.78836 0.74290
 H2394 H 0.87323 0.81392 0.74512
 C2395 C 0.41667 0.40277 0.24889
 C2396 C 0.42145 0.41284 0.26691
 C2397 C 0.43529 0.42872 0.26695
 C2398 C 0.44459 0.43491 0.24896
 C2399 C 0.44015 0.42454 0.23104
 C2400 C 0.42635 0.40866 0.23100
 C2401 C 0.40118 0.38664 0.24856
 C2402 C 0.40390 0.36931 0.23670
 C2403 C 0.38896 0.35451 0.23579
 C2404 C 0.37094 0.35671 0.24673
 C2405 C 0.36830 0.37394 0.25876
 C2406 C 0.38326 0.38873 0.25968
 C2407 C 0.35490 0.34117 0.24546
 C2408 C 0.33447 0.34680 0.24432
 C2409 C 0.31937 0.33217 0.24310
 C2410 C 0.32435 0.31156 0.24299
 C2411 C 0.34481 0.30595 0.24410
 C2412 C 0.35989 0.32058 0.24532
 H2413 H 0.41442 0.40849 0.28097
 H2414 H 0.43829 0.43652 0.28096
 H2415 H 0.44726 0.42881 0.21699
 H2416 H 0.42287 0.40133 0.21684
 H2417 H 0.41763 0.36718 0.22812
 H2418 H 0.39137 0.34149 0.22625
 H2419 H 0.35469 0.37595 0.26755
 H2420 H 0.38061 0.40201 0.26878
 H2421 H 0.33017 0.36255 0.24413
 H2422 H 0.30379 0.33705 0.24227
 H2423 H 0.34921 0.29022 0.24418
 H2424 H 0.37547 0.31576 0.24645
   
