data_POSCAR
  _audit_creation_date              2014-09-24
  _audit_creation_method            'ToBaCCo'
  _symmetry_space_group_name_H-M    'P1'
  _symmetry_Int_Tables_number       1
  _symmetry_cell_setting            triclinic
  loop_
  _symmetry_equiv_pos_as_xyz
 x,y,z
_cell_length_a 62.8157
_cell_length_b 61.4448
_cell_length_c 60.1685
_cell_angle_alpha 89.121400
_cell_angle_beta 89.266900
_cell_angle_gamma 89.501100
loop_
  _atom_site_label
  _atom_site_type_symbol
  _atom_site_fract_x
  _atom_site_fract_y
  _atom_site_fract_z
C1 C 0.75781 0.62137 0.99891
 C2 C 0.73787 0.38227 0.50058
 C3 C 0.25472 -0.11684 -0.00045
 C4 C 0.24579 0.13153 0.49841
 C5 C 0.12019 0.49627 0.23682
 C6 C -0.11032 0.00076 0.25954
 C7 C 0.37942 0.52193 0.74437
 C8 C 0.61621 1.00934 0.75426
 C9 C 0.00919 0.23395 -0.11444
 C10 C 0.50604 0.24531 0.12017
 C11 C 0.99398 0.74057 0.61564
 C12 C 0.49883 0.75073 0.39159
 C13 C 0.41919 -0.02668 0.26379
 H14 H 0.42916 -0.01250 0.26213
 C15 C 0.42794 -0.04642 0.27129
 H16 H 0.44459 -0.04712 0.27567
 C17 C 0.38524 -0.04283 0.26080
 H18 H 0.36857 -0.04121 0.25674
 C19 C 0.39333 -0.06286 0.26803
 H20 H 0.38277 -0.07667 0.26919
 N21 N 0.39810 -0.02520 0.25911
 C22 C 0.40698 0.02962 0.22084
 H23 H 0.39700 0.02290 0.20827
 C24 C 0.42118 0.04601 0.21489
 H25 H 0.42198 0.05161 0.19774
 C26 C 0.41727 0.03149 0.25852
 H27 H 0.41540 0.02584 0.27554
 C28 C 0.43154 0.04823 0.25331
 H29 H 0.44084 0.05532 0.26634
 Zn30 Zn 0.38492 0.00115 0.25009
 N31 N 0.40538 0.02252 0.24231
 C32 C 0.35923 0.03223 0.27166
 N33 N 0.36815 0.01208 0.27382
 C34 C 0.36659 0.00053 0.29324
 C35 C 0.35583 0.00925 0.31151
 C36 C 0.34840 0.04163 0.28959
 C37 C 0.37811 -0.01542 0.20807
 C38 C 0.36700 -0.02066 0.18901
 C39 C 0.33510 -0.00548 0.20573
 C40 C 0.34692 -0.00029 0.22444
 N41 N 0.36808 -0.00512 0.22514
 H42 H 0.36103 0.04121 0.25616
 H43 H 0.37402 -0.01532 0.29478
 H44 H 0.35472 -0.00028 0.32676
 H45 H 0.34195 0.05794 0.28772
 H46 H 0.39487 -0.01944 0.20927
 H47 H 0.37526 -0.02892 0.17562
 H48 H 0.31830 -0.00143 0.20529
 H49 H 0.33918 0.00754 0.23837
 C50 C 0.43365 0.05557 0.23120
 C51 C 0.41487 -0.06480 0.27375
 C52 C 0.34522 -0.01567 0.18766
 C53 C 0.34677 0.03018 0.30994
 C54 C 0.09044 1.00439 0.77169
 H55 H 0.09040 0.98870 0.78009
 C56 C 0.08010 1.02216 0.78139
 H57 H 0.07175 1.01986 0.79709
 C58 C 0.10199 1.02653 0.74137
 H59 H 0.11115 1.02843 0.72618
 C60 C 0.09196 1.04472 0.75050
 H61 H 0.09354 1.06035 0.74212
 N62 N 0.10116 1.00687 0.75206
 C63 C 0.11067 0.94205 0.72489
 H64 H 0.12747 0.94325 0.72091
 C65 C 0.09968 0.92319 0.71989
 H66 H 0.10811 0.91002 0.71178
 C67 C 0.07928 0.95818 0.73974
 H68 H 0.07139 0.97193 0.74732
 C69 C 0.06761 0.93957 0.73498
 H70 H 0.05082 0.93907 0.73923
 Zn71 Zn 0.11756 0.98319 0.74127
 N72 N 0.10049 0.95892 0.73495
 C73 C 0.13813 0.95497 0.77199
 N74 N 0.13743 0.97563 0.76356
 C75 C 0.14966 0.99159 0.77207
 C76 C 0.16320 0.98704 0.78985
 C77 C 0.15159 0.94967 0.78952
 C78 C 0.11850 0.99609 0.69698
 C79 C 0.12708 1.00391 0.67698
 C80 C 0.16218 1.00091 0.69281
 C81 C 0.15288 0.99329 0.71265
 N82 N 0.13136 0.99155 0.71448
 H83 H 0.12790 0.94262 0.76552
 H84 H 0.14854 1.00798 0.76531
 H85 H 0.17272 0.99993 0.79656
 H86 H 0.15161 0.93322 0.79626
 H87 H 0.10146 0.99424 0.69886
 H88 H 0.11655 1.00800 0.66340
 H89 H 0.17927 1.00300 0.69178
 H90 H 0.16281 0.98926 0.72669
 C91 C 0.07789 0.92168 0.72512
 C92 C 0.08107 1.04276 0.77094
 C93 C 0.14914 1.00679 0.67486
 C94 C 0.16423 0.96583 0.79879
 C95 C 0.57835 0.52422 0.27519
 H96 H 0.57916 0.50887 0.28420
 C97 C 0.56848 0.54220 0.28496
 H98 H 0.56144 0.54057 0.30142
 C99 C 0.58775 0.54544 0.24337
 H100 H 0.59592 0.54688 0.22753
 C101 C 0.57772 0.56372 0.25234
 H102 H 0.57820 0.57908 0.24328
 N103 N 0.58812 0.52626 0.25498
 C104 C 0.59956 0.46447 0.22307
 H105 H 0.61659 0.46587 0.22065
 C106 C 0.58877 0.44725 0.21374
 H107 H 0.59764 0.43529 0.20425
 C108 C 0.56737 0.47848 0.23838
 H109 H 0.55915 0.49088 0.24782
 C110 C 0.55592 0.46126 0.22950
 H111 H 0.53884 0.46049 0.23208
 Zn112 Zn 0.60537 0.50280 0.24541
 N113 N 0.58880 0.47970 0.23499
 C114 C 0.62144 0.47184 0.27619
 N115 N 0.62147 0.49323 0.27010
 C116 C 0.63135 0.50831 0.28257
 C117 C 0.64129 0.50214 0.30238
 C118 C 0.63135 0.46494 0.29568
 C119 C 0.61423 0.51571 0.20166
 C120 C 0.62662 0.52195 0.18329
 C121 C 0.65779 0.51987 0.20639
 C122 C 0.64478 0.51356 0.22432
 N123 N 0.62339 0.51186 0.22170
 H124 H 0.61336 0.46011 0.26621
 H125 H 0.63086 0.52528 0.27750
 H126 H 0.64839 0.51450 0.31248
 H127 H 0.63118 0.44780 0.30013
 H128 H 0.59720 0.51395 0.19999
 H129 H 0.61896 0.52534 0.16759
 H130 H 0.67479 0.52112 0.20874
 H131 H 0.65179 0.51000 0.24029
 C132 C 0.56667 0.44558 0.21676
 C133 C 0.56844 0.56231 0.27362
 C134 C 0.64870 0.52420 0.18555
 C135 C 0.64108 0.48021 0.30934
 C136 C 0.91411 0.46165 0.77615
 H137 H 0.91618 0.47716 0.78408
 C138 C 0.92402 0.44297 0.78483
 H139 H 0.93371 0.44431 0.79949
 C140 C 0.89776 0.44092 0.74833
 H141 H 0.88707 0.44000 0.73449
 C142 C 0.90743 0.42190 0.75637
 H143 H 0.90449 0.40669 0.74814
 N144 N 0.90119 0.46029 0.75828
 C145 C 0.89221 0.52481 0.72885
 H146 H 0.87510 0.52383 0.72741
 C147 C 0.90269 0.54347 0.72157
 H148 H 0.89355 0.55668 0.71421
 C149 C 0.92475 0.50862 0.74030
 H150 H 0.93317 0.49500 0.74776
 C151 C 0.93598 0.52710 0.73305
 H152 H 0.95307 0.52766 0.73508
 Zn153 Zn 0.88558 0.48531 0.74914
 N154 N 0.90319 0.50808 0.73846
 C155 C 0.87307 0.51606 0.78104
 N156 N 0.86969 0.49544 0.77405
 C157 C 0.85601 0.48198 0.78521
 C158 C 0.84473 0.48937 0.80392
 C159 C 0.86202 0.52413 0.79937
 C160 C 0.87767 0.47319 0.70589
 C161 C 0.86590 0.46876 0.68703
 C162 C 0.83368 0.47572 0.70823
 C163 C 0.84612 0.47996 0.72676
 N164 N 0.86769 0.47843 0.72528
 H165 H 0.88452 0.52634 0.77260
 H166 H 0.85389 0.46551 0.77959
 H167 H 0.83373 0.47861 0.81255
 H168 H 0.86498 0.54060 0.80462
 H169 H 0.89488 0.47244 0.70513
 H170 H 0.87421 0.46412 0.67193
 H171 H 0.81653 0.47721 0.70962
 H172 H 0.83854 0.48470 0.74218
 C173 C 0.92479 0.54498 0.72399
 C174 C 0.92054 0.42268 0.77505
 C175 C 0.84359 0.46999 0.68802
 C176 C 0.84754 0.51081 0.81098
 C177 C 0.27654 0.40281 -0.03252
 H178 H 0.27947 0.40861 -0.01600
 C179 C 0.28376 0.41484 -0.05099
 H180 H 0.29236 0.42975 -0.04834
 C181 C 0.26291 0.37576 -0.05593
 H182 H 0.25530 0.36021 -0.05781
 C183 C 0.26962 0.38737 -0.07482
 H184 H 0.26641 0.38085 -0.09103
 N185 N 0.26625 0.38368 -0.03527
 C186 C 0.22655 0.38388 0.01850
 H187 H 0.21578 0.37428 0.00899
 C188 C 0.21851 0.39574 0.03630
 H189 H 0.20164 0.39500 0.04016
 C190 C 0.26155 0.39560 0.02583
 H191 H 0.27840 0.39508 0.02191
 C192 C 0.25415 0.40767 0.04398
 H193 H 0.26533 0.41676 0.05367
 Zn194 Zn 0.25790 0.36642 -0.01018
 N195 N 0.24771 0.38411 0.01342
 C196 C 0.28142 0.34061 0.02015
 N197 N 0.28183 0.35037 -0.00028
 C198 C 0.29960 0.34981 -0.01340
 C199 C 0.31805 0.33937 -0.00598
 C200 C 0.29958 0.33003 0.02827
 C201 C 0.21976 0.35676 -0.03077
 C202 C 0.20271 0.34426 -0.03753
 C203 C 0.21839 0.31305 -0.01884
 C204 C 0.23543 0.32614 -0.01271
 N205 N 0.23575 0.34759 -0.01870
 H206 H 0.26712 0.34148 0.03033
 H207 H 0.29958 0.35761 -0.02961
 H208 H 0.33199 0.33905 -0.01674
 H209 H 0.29914 0.32287 0.04482
 H210 H 0.22026 0.37390 -0.03508
 H211 H 0.19014 0.35186 -0.04714
 H212 H 0.21825 0.29599 -0.01405
 H213 H 0.24826 0.31919 -0.00305
 C214 C 0.23231 0.40788 0.04931
 C215 C 0.28036 0.40715 -0.07255
 C216 C 0.20189 0.32215 -0.03156
 C217 C 0.31830 0.32951 0.01522
 C218 C 0.78299 0.08487 1.02445
 H219 H 0.79085 0.08353 1.00842
 C220 C 0.79097 0.07338 1.04284
 H221 H 0.80501 0.06322 1.04087
 C222 C 0.75602 0.10093 1.04687
 H223 H 0.74284 0.11219 1.04863
 C224 C 0.76351 0.08989 1.06563
 H225 H 0.75569 0.09245 1.08154
 N226 N 0.76585 0.09838 1.02679
 C227 C 0.74145 0.11100 0.96046
 H228 H 0.74015 0.12852 0.96161
 C229 C 0.73446 0.10064 0.94154
 H230 H 0.72751 0.11040 0.92833
 C231 C 0.75114 0.07717 0.97704
 H232 H 0.75736 0.06811 0.99108
 C233 C 0.74442 0.06608 0.95824
 H234 H 0.74589 0.04853 0.95787
 Zn235 Zn 0.75730 0.11604 1.00233
 N236 N 0.74967 0.09926 0.97767
 C237 C 0.79074 0.13099 0.97475
 N238 N 0.78060 0.13415 0.99455
 C239 C 0.78833 0.14824 1.00967
 C240 C 0.80722 0.15955 1.00521
 C241 C 0.80969 0.14172 0.96976
 C242 C 0.71532 0.12009 1.01552
 C243 C 0.69642 0.13009 1.02232
 C244 C 0.71300 0.16511 1.01650
 C245 C 0.73180 0.15438 1.01010
 N246 N 0.73268 0.13223 1.01017
 H247 H 0.78469 0.11939 0.96316
 H248 H 0.78021 0.15012 1.02550
 H249 H 0.81358 0.17019 1.01763
 H250 H 0.81784 0.13855 0.95415
 H251 H 0.71638 0.10252 1.01498
 H252 H 0.68289 0.12015 1.02704
 H253 H 0.71254 0.18272 1.01691
 H254 H 0.74565 0.16370 1.00525
 C255 C 0.73595 0.07788 0.94014
 C256 C 0.78141 0.07619 1.06384
 C257 C 0.69519 0.15285 1.02312
 C258 C 0.81836 0.15587 0.98525
 C259 C 0.26758 0.59925 0.50944
 H260 H 0.27539 0.59781 0.49339
 C261 C 0.27636 0.58900 0.52810
 H262 H 0.29069 0.57926 0.52615
 C263 C 0.24003 0.61465 0.53157
 H264 H 0.22641 0.62540 0.53304
 C265 C 0.24830 0.60473 0.55067
 H266 H 0.24080 0.60790 0.56662
 N267 N 0.24993 0.61204 0.51153
 C268 C 0.22854 0.62434 0.44367
 H269 H 0.22821 0.64194 0.44404
 C270 C 0.22210 0.61364 0.42467
 H271 H 0.21661 0.62315 0.41054
 C272 C 0.23529 0.59070 0.46216
 H273 H 0.24017 0.58187 0.47693
 C274 C 0.22890 0.57929 0.44346
 H275 H 0.22923 0.56166 0.44390
 Zn276 Zn 0.24224 0.62958 0.48674
 N277 N 0.23505 0.61284 0.46186
 C278 C 0.27718 0.64379 0.46057
 N279 N 0.26629 0.64684 0.47997
 C280 C 0.27394 0.65994 0.49600
 C281 C 0.29349 0.67034 0.49297
 C282 C 0.29681 0.65372 0.45693
 C283 C 0.19990 0.63538 0.49805
 C284 C 0.18101 0.64633 0.50316
 C285 C 0.19957 0.68044 0.49877
 C286 C 0.21820 0.66879 0.49374
 N287 N 0.21804 0.64665 0.49373
 H288 H 0.27117 0.63287 0.44829
 H289 H 0.26522 0.66162 0.51151
 H290 H 0.29971 0.68015 0.50615
 H291 H 0.30548 0.65074 0.44159
 H292 H 0.20023 0.61778 0.49771
 H293 H 0.16691 0.63695 0.50713
 H294 H 0.19991 0.69806 0.49865
 H295 H 0.23269 0.67743 0.48975
 C296 C 0.22215 0.59080 0.42440
 C297 C 0.26703 0.59217 0.54917
 C298 C 0.18064 0.66917 0.50361
 C299 C 0.30539 0.66682 0.47343
 C300 C 0.77433 0.90470 0.48520
 H301 H 0.78294 0.90358 0.50064
 C302 C 0.78278 0.91649 0.46722
 H303 H 0.79810 0.92412 0.46902
 C304 C 0.74446 0.89489 0.46406
 H305 H 0.72971 0.88613 0.46277
 C306 C 0.75220 0.90671 0.44571
 H307 H 0.74295 0.90725 0.43067
 N308 N 0.75556 0.89412 0.48330
 C309 C 0.73179 0.88525 0.55102
 H310 H 0.73114 0.86767 0.55207
 C311 C 0.72513 0.89768 0.56906
 H312 H 0.71928 0.88961 0.58403
 C313 C 0.73948 0.91717 0.52988
 H314 H 0.74479 0.92468 0.51445
 C315 C 0.73261 0.93025 0.54741
 H316 H 0.73292 0.94780 0.54547
 Zn317 Zn 0.74637 0.87703 0.50791
 N318 N 0.73895 0.89511 0.53200
 C319 C 0.77902 0.86100 0.53555
 N320 N 0.76936 0.85834 0.51568
 C321 C 0.77738 0.84424 0.50041
 C322 C 0.79583 0.83211 0.50492
 C323 C 0.79754 0.84943 0.54062
 C324 C 0.70368 0.87404 0.49861
 C325 C 0.68444 0.86468 0.49285
 C326 C 0.70216 0.82967 0.49153
 C327 C 0.72109 0.83971 0.49762
 N328 N 0.72156 0.86160 0.50060
 H329 H 0.77289 0.87273 0.54722
 H330 H 0.76981 0.84291 0.48444
 H331 H 0.80232 0.82131 0.49245
 H332 H 0.80519 0.85202 0.55638
 H333 H 0.70444 0.89137 0.50138
 H334 H 0.67042 0.87497 0.49157
 H335 H 0.70225 0.81235 0.48846
 H336 H 0.73539 0.83003 0.49964
 C337 C 0.72534 0.92046 0.56727
 C338 C 0.77177 0.91756 0.44701
 C339 C 0.68353 0.84225 0.48883
 C340 C 0.80630 0.83499 0.52510
 C341 C -0.02930 0.28535 0.41783
 H342 H -0.01430 0.29341 0.42035
 C343 C -0.04782 0.29294 0.42855
 H344 H -0.04698 0.30686 0.43931
 C345 C -0.04899 0.25824 0.39977
 H346 H -0.04968 0.24514 0.38809
 C347 C -0.06776 0.26533 0.40997
 H348 H -0.08253 0.25722 0.40635
 N349 N -0.03021 0.26824 0.40377
 C350 C 0.03309 0.24017 0.39430
 H351 H 0.03179 0.23800 0.37656
 C352 C 0.05071 0.23189 0.40540
 H353 H 0.06302 0.22338 0.39612
 C354 C 0.01837 0.25363 0.42794
 H355 H 0.00550 0.26175 0.43665
 C356 C 0.03602 0.24578 0.43975
 H357 H 0.03671 0.24788 0.45756
 Zn358 Zn -0.00584 0.25881 0.38733
 N359 N 0.01729 0.25067 0.40559
 C360 C 0.02283 0.28941 0.36915
 N361 N 0.00279 0.28147 0.36748
 C362 C -0.01103 0.28980 0.35224
 C363 C -0.00459 0.30643 0.33750
 C364 C 0.02993 0.30581 0.35473
 C365 C -0.01764 0.21582 0.38507
 C366 C -0.02344 0.19617 0.37577
 C367 C -0.01789 0.21221 0.33925
 C368 C -0.01238 0.23175 0.34931
 N369 N -0.01274 0.23325 0.37186
 H370 H 0.03342 0.28312 0.38174
 H371 H -0.02699 0.28342 0.35144
 H372 H -0.01561 0.31269 0.32523
 H373 H 0.04596 0.31188 0.35640
 H374 H -0.01738 0.21737 0.40295
 H375 H -0.02762 0.18258 0.38660
 H376 H -0.01802 0.21129 0.32129
 H377 H -0.00799 0.24568 0.33912
 C378 C 0.05224 0.23446 0.42841
 C379 C -0.06741 0.28305 0.42434
 C380 C -0.02385 0.19425 0.35259
 C381 C 0.01626 0.31441 0.33849
 C382 C 1.02602 0.76547 0.07111
 H383 H 1.01309 0.75814 0.06234
 C384 C 1.04328 0.77425 0.05911
 H385 H 1.04356 0.77361 0.04114
 C386 C 1.04135 0.77595 0.10508
 H387 H 1.04047 0.77654 0.12303
 C388 C 1.05862 0.78514 0.09381
 H389 H 1.07106 0.79274 0.10319
 N390 N 1.02547 0.76641 0.09371
 C391 C 0.95955 0.75581 0.10068
 H392 H 0.95800 0.76802 0.11331
 C393 C 0.94128 0.74813 0.09058
 H394 H 0.92587 0.75478 0.09529
 C395 C 0.98117 0.73129 0.08015
 H396 H 0.99671 0.72430 0.07676
 C397 C 0.96328 0.72335 0.06936
 H398 H 0.96515 0.71030 0.05759
 Zn399 Zn 1.00293 0.75591 0.11203
 N400 N 0.97901 0.74728 0.09545
 C401 C 0.98946 0.79813 0.12011
 N402 N 0.99516 0.77931 0.13069
 C403 C 0.99621 0.77803 0.15323
 C404 C 0.99105 0.79618 0.16606
 C405 C 0.98417 0.81661 0.13223
 C406 C 1.03250 0.72345 0.12485
 C407 C 1.03936 0.70428 0.13527
 C408 C 1.00511 0.70157 0.15375
 C409 C 0.99884 0.72086 0.14288
 N410 N 1.01250 0.73131 0.12867
 H411 H 0.98899 0.79873 0.10214
 H412 H 1.00126 0.76305 0.16128
 H413 H 0.99214 0.79495 0.18397
 H414 H 0.97925 0.83126 0.12343
 H415 H 1.04304 0.73169 0.11325
 H416 H 1.05531 0.69827 0.13185
 H417 H 0.99388 0.69315 0.16456
 H418 H 0.98290 0.72726 0.14536
 C419 C 0.94301 0.73155 0.07489
 C420 C 1.05969 0.78445 0.07055
 C421 C 1.02551 0.69287 0.14967
 C422 C 0.98492 0.81583 0.15554
 C423 C 0.50905 0.28436 0.59330
 H424 H 0.49370 0.29239 0.59201
 C425 C 0.52626 0.29175 0.58044
 H426 H 0.52391 0.30529 0.56899
 C427 C 0.53076 0.25726 0.61022
 H428 H 0.53263 0.24422 0.62230
 C429 C 0.54842 0.26420 0.59780
 H430 H 0.56369 0.25639 0.60057
 N431 N 0.51159 0.26747 0.60790
 C432 C 0.44816 0.24294 0.62313
 H433 H 0.44891 0.24329 0.64107
 C434 C 0.43023 0.23468 0.61293
 H435 H 0.41710 0.22892 0.62319
 C436 C 0.46452 0.25006 0.58809
 H437 H 0.47811 0.25569 0.57851
 C438 C 0.44682 0.24190 0.57715
 H439 H 0.44695 0.24129 0.55917
 Zn440 Zn 0.48854 0.25994 0.62696
 N441 N 0.46482 0.25046 0.61069
 C442 C 0.46140 0.29416 0.64042
 N443 N 0.48101 0.28509 0.64337
 C444 C 0.49577 0.29487 0.65616
 C445 C 0.49101 0.31462 0.66652
 C446 C 0.45607 0.31387 0.65028
 C447 C 0.49920 0.21697 0.63504
 C448 C 0.50563 0.19841 0.64682
 C449 C 0.50666 0.21980 0.68016
 C450 C 0.49990 0.23797 0.66774
 N451 N 0.49669 0.23628 0.64552
 H452 H 0.45004 0.28655 0.62978
 H453 H 0.51144 0.28764 0.65780
 H454 H 0.50306 0.32250 0.67619
 H455 H 0.44046 0.32095 0.64746
 H456 H 0.49646 0.21610 0.61736
 H457 H 0.50802 0.18330 0.63805
 H458 H 0.50947 0.22136 0.69778
 H459 H 0.49749 0.25338 0.67583
 C460 C 0.42946 0.23387 0.58965
 C461 C 0.54640 0.28187 0.58288
 C462 C 0.50966 0.19973 0.66962
 C463 C 0.47105 0.32452 0.66324
 C464 C 0.47563 0.78671 0.91669
 H465 H 0.48253 0.79830 0.90510
 C466 C 0.45905 0.79343 0.93061
 H467 H 0.45350 0.81015 0.92949
 C468 C 0.47347 0.75073 0.93120
 H469 H 0.47891 0.73398 0.93098
 C470 C 0.45658 0.75675 0.94531
 H471 H 0.44931 0.74463 0.95616
 N472 N 0.48250 0.76565 0.91708
 C473 C 0.54619 0.74445 0.89653
 H474 H 0.54562 0.74988 0.87939
 C475 C 0.56512 0.73594 0.90492
 H476 H 0.57889 0.73455 0.89400
 C477 C 0.52929 0.74072 0.93178
 H478 H 0.51534 0.74272 0.94223
 C479 C 0.54804 0.73220 0.94094
 H480 H 0.54824 0.72737 0.95832
 Zn481 Zn 0.50369 0.75725 0.89580
 N482 N 0.52858 0.74619 0.90977
 C483 C 0.52343 0.79736 0.88941
 N484 N 0.51187 0.78209 0.87891
 C485 C 0.50625 0.78472 0.85727
 C486 C 0.51211 0.80352 0.84540
 C487 C 0.52950 0.81641 0.87823
 C488 C 0.47156 0.73014 0.87878
 C489 C 0.46316 0.71391 0.86558
 C490 C 0.49754 0.70985 0.84772
 C491 C 0.50531 0.72616 0.86131
 N492 N 0.49241 0.73577 0.87671
 H493 H 0.52775 0.79477 0.90660
 H494 H 0.49697 0.77240 0.84930
 H495 H 0.50725 0.80555 0.82829
 H496 H 0.53878 0.82832 0.88687
 H497 H 0.46133 0.73820 0.89067
 H498 H 0.44666 0.70937 0.86794
 H499 H 0.50808 0.70251 0.83554
 H500 H 0.52167 0.73109 0.85946
 C501 C 0.56614 0.72937 0.92731
 C502 C 0.44913 0.77836 0.94502
 C503 C 0.47622 0.70341 0.84987
 C504 C 0.52377 0.81973 0.85596
 C505 C 0.47239 -0.19980 0.34611
 C506 C 0.45870 -0.21349 0.35838
 C507 C 0.46684 -0.22973 0.37242
 C508 C 0.48901 -0.23227 0.37528
 C509 C 0.50256 -0.21993 0.36113
 C510 C 0.49441 -0.20367 0.34708
 C511 C 0.46370 -0.18113 0.33314
 N512 N 0.47667 -0.16808 0.32068
 N513 N 0.46895 -0.15048 0.31024
 C514 C 0.44795 -0.14517 0.31191
 N515 N 0.43498 -0.15836 0.32418
 N516 N 0.44268 -0.17595 0.33455
 C517 C 0.43944 -0.12498 0.30144
 C518 C 0.41866 -0.11784 0.30652
 C519 C 0.41077 -0.09841 0.29748
 C520 C 0.42337 -0.08566 0.28296
 C521 C 0.44409 -0.09289 0.27766
 C522 C 0.45207 -0.11232 0.28686
 H523 H 0.44159 -0.21156 0.35734
 H524 H 0.45554 -0.24021 0.38088
 H525 H 0.51965 -0.22237 0.36166
 H526 H 0.50544 -0.19382 0.33738
 H527 H 0.40854 -0.12707 0.31784
 H528 H 0.39489 -0.09315 0.30228
 H529 H 0.45411 -0.08361 0.26630
 H530 H 0.46813 -0.11739 0.28253
 C531 C 0.98082 0.28952 0.84930
 C532 C 0.99686 0.29267 0.86485
 C533 C 1.00572 0.27516 0.87645
 C534 C 0.99955 0.25351 0.87234
 C535 C 0.98243 0.25058 0.85771
 C536 C 0.97337 0.26830 0.84612
 C537 C 0.97204 0.30859 0.83696
 N538 N 0.95382 0.30728 0.82512
 N539 N 0.94596 0.32480 0.81459
 C540 C 0.95605 0.34428 0.81538
 N541 N 0.97431 0.34547 0.82705
 N542 N 0.98211 0.32804 0.83761
 C543 C 0.94720 0.36403 0.80426
 C544 C 0.95900 0.38339 0.80327
 C545 C 0.95048 0.40230 0.79359
 C546 C 0.92991 0.40237 0.78470
 C547 C 0.91818 0.38295 0.78548
 C548 C 0.92675 0.36399 0.79508
 H549 H 1.00247 0.30885 0.86841
 H550 H 1.01726 0.27899 0.88893
 H551 H 0.97621 0.23445 0.85508
 H552 H 0.96064 0.26536 0.83461
 H553 H 0.97487 0.38400 0.81004
 H554 H 0.96007 0.41686 0.79296
 H555 H 0.90216 0.38249 0.77911
 H556 H 0.91718 0.34941 0.79566
 C557 C 0.03178 1.17795 0.84708
 C558 C 0.03242 1.17813 0.87035
 C559 C 0.02536 1.19619 0.88201
 C560 C 0.01699 1.21476 0.87097
 C561 C 0.01746 1.21502 0.84749
 C562 C 0.02449 1.19670 0.83572
 C563 C 0.03872 1.15812 0.83515
 N564 N 0.03693 1.15652 0.81275
 N565 N 0.04293 1.13835 0.80243
 C566 C 0.05092 1.12106 0.81411
 N567 N 0.05271 1.12275 0.83646
 N568 N 0.04673 1.14083 0.84673
 C569 C 0.05781 1.10079 0.80294
 C570 C 0.06710 1.08370 0.81536
 C571 C 0.07422 1.06478 0.80502
 C572 C 0.07217 1.06237 0.78198
 C573 C 0.06255 1.07928 0.76955
 C574 C 0.05546 1.09830 0.77992
 H575 H 0.03819 1.16416 0.87975
 H576 H 0.02595 1.19552 0.89999
 H577 H 0.01272 1.22927 0.83800
 H578 H 0.02430 1.19727 0.81773
 H579 H 0.06922 1.08503 0.83312
 H580 H 0.08189 1.05228 0.81503
 H581 H 0.06053 1.07782 0.75180
 H582 H 0.04826 1.11108 0.76988
 C583 C 0.52201 0.69862 0.34832
 C584 C 0.53667 0.71156 0.35939
 C585 C 0.52969 0.72883 0.37255
 C586 C 0.50772 0.73292 0.37594
 C587 C 0.49329 0.72084 0.36330
 C588 C 0.50030 0.70389 0.34982
 C589 C 0.52921 0.67919 0.33606
 N590 N 0.51688 0.67042 0.32016
 N591 N 0.52289 0.65222 0.30999
 C592 C 0.54135 0.64193 0.31551
 N593 N 0.55370 0.65075 0.33133
 N594 N 0.54779 0.66904 0.34135
 C595 C 0.54771 0.62130 0.30490
 C596 C 0.56154 0.60673 0.31584
 C597 C 0.56772 0.58727 0.30589
 C598 C 0.56049 0.58216 0.28464
 C599 C 0.54663 0.59666 0.27366
 C600 C 0.54009 0.61597 0.28381
 H601 H 0.55360 0.70835 0.35786
 H602 H 0.54168 0.73879 0.37996
 H603 H 0.47634 0.72408 0.36453
 H604 H 0.48861 0.69445 0.34117
 H605 H 0.56753 0.61034 0.33216
 H606 H 0.57862 0.57645 0.31455
 H607 H 0.54089 0.59303 0.25724
 H608 H 0.52943 0.62692 0.27500
 C609 C 0.51702 0.30864 0.15056
 C610 C 0.49976 0.29578 0.15758
 C611 C 0.49644 0.27536 0.14813
 C612 C 0.51085 0.26683 0.13218
 C613 C 0.52777 0.28033 0.12496
 C614 C 0.53087 0.30066 0.13411
 C615 C 0.52080 0.33049 0.15968
 N616 N 0.53360 0.34459 0.14839
 N617 N 0.53829 0.36381 0.15676
 C618 C 0.53044 0.36985 0.17686
 N619 N 0.51734 0.35589 0.18812
 N620 N 0.51255 0.33659 0.17966
 C621 C 0.53741 0.39059 0.18662
 C622 C 0.53199 0.39613 0.20860
 C623 C 0.54076 0.41459 0.21826
 C624 C 0.55518 0.42765 0.20614
 C625 C 0.55974 0.42268 0.18391
 C626 C 0.55094 0.40444 0.17425
 H627 H 0.48853 0.30172 0.16991
 H628 H 0.48248 0.26623 0.15314
 H629 H 0.53847 0.27574 0.11160
 H630 H 0.54418 0.31024 0.12805
 H631 H 0.52156 0.38586 0.21856
 H632 H 0.53702 0.41812 0.23546
 H633 H 0.57051 0.43273 0.17409
 H634 H 0.55530 0.40089 0.15721
 C635 C 0.01117 0.78994 0.66399
 C636 C -0.00847 0.79141 0.65319
 C637 C -0.01459 0.77536 0.63844
 C638 C -0.00085 0.75773 0.63339
 C639 C 0.01766 0.75516 0.64627
 C640 C 0.02378 0.77120 0.66104
 C641 C 0.01902 0.80842 0.67705
 N642 N 0.03815 0.80719 0.68728
 N643 N 0.04616 0.82448 0.69719
 C644 C 0.03541 0.84376 0.69727
 N645 N 0.01611 0.84489 0.68738
 N646 N 0.00809 0.82759 0.67748
 C647 C 0.04526 0.86349 0.70644
 C648 C 0.03530 0.88398 0.70414
 C649 C 0.04561 0.90285 0.71078
 C650 C 0.06609 0.90162 0.71986
 C651 C 0.07566 0.88105 0.72298
 C652 C 0.06538 0.86222 0.71635
 H653 H -0.01900 0.80521 0.65576
 H654 H -0.03006 0.77712 0.63095
 H655 H 0.02800 0.74115 0.64401
 H656 H 0.03875 0.76920 0.66958
 H657 H 0.01980 0.88557 0.69658
 H658 H 0.03788 0.91846 0.70803
 H659 H 0.09125 0.87954 0.73035
 H660 H 0.07345 0.84671 0.71856
 C661 C 0.97925 0.68245 0.65618
 C662 C 0.96597 0.70095 0.65654
 C663 C 0.97094 0.71935 0.64366
 C664 C 0.98905 0.71971 0.62952
 C665 C 1.00310 0.70162 0.63058
 C666 C 0.99806 0.68316 0.64337
 C667 C 0.97331 0.66243 0.66878
 N668 N 0.98454 0.64360 0.66622
 N669 N 0.97849 0.62535 0.67666
 C670 C 0.96098 0.62518 0.69015
 N671 N 0.94993 0.64407 0.69289
 N672 N 0.95595 0.66229 0.68244
 C673 C 0.95325 0.60467 0.70064
 C674 C 0.93501 0.60493 0.71439
 C675 C 0.92633 0.58556 0.72257
 C676 C 0.93565 0.56541 0.71725
 C677 C 0.95448 0.56509 0.70443
 C678 C 0.96319 0.58455 0.69614
 H679 H 0.95155 0.70118 0.66658
 H680 H 0.96035 0.73333 0.64437
 H681 H 1.01822 0.70156 0.62185
 H682 H 1.00901 0.66946 0.64327
 H683 H 0.92705 0.62009 0.71843
 H684 H 0.91203 0.58631 0.73279
 H685 H 0.96196 0.54977 0.70006
 H686 H 0.97732 0.58377 0.68568
 C687 C 0.49409 0.18748 0.16191
 C688 C 0.49203 0.18719 0.13877
 C689 C 0.49552 0.20589 0.12602
 C690 C 0.50113 0.22571 0.13587
 C691 C 0.50396 0.22571 0.15915
 C692 C 0.50004 0.20691 0.17203
 C693 C 0.48981 0.16741 0.17501
 N694 N 0.48342 0.16815 0.19665
 N695 N 0.47777 0.15000 0.20759
 C696 C 0.47847 0.13041 0.19736
 N697 N 0.48535 0.12972 0.17591
 N698 N 0.49086 0.14780 0.16498
 C699 C 0.46997 0.11047 0.20830
 C700 C 0.47146 0.09046 0.19735
 C701 C 0.46055 0.07231 0.20551
 C702 C 0.44798 0.07370 0.22488
 C703 C 0.44764 0.09320 0.23677
 C704 C 0.45854 0.11148 0.22853
 H705 H 0.48747 0.17249 0.13040
 H706 H 0.49381 0.20495 0.10817
 H707 H 0.50967 0.23988 0.16754
 H708 H 0.50216 0.20743 0.18985
 H709 H 0.48035 0.08897 0.18190
 H710 H 0.46134 0.05734 0.19625
 H711 H 0.43800 0.09468 0.25172
 H712 H 0.45714 0.12662 0.23742
 C713 C 0.34374 0.48838 -0.20203
 C714 C 0.34248 0.48156 -0.22412
 C715 C 0.35354 0.49266 -0.24111
 C716 C 0.36615 0.51099 -0.23659
 C717 C 0.36785 0.51706 -0.21409
 C718 C 0.35651 0.50625 -0.19726
 C719 C 0.33253 0.47664 -0.18373
 N720 N 0.32914 0.48639 -0.16387
 N721 N 0.31991 0.47567 -0.14699
 C722 C 0.31380 0.45469 -0.14919
 N723 N 0.31706 0.44495 -0.16910
 N724 N 0.32618 0.45573 -0.18606
 C725 C 0.30447 0.44255 -0.13001
 C726 C 0.30397 0.41971 -0.12982
 C727 C 0.29614 0.40826 -0.11124
 C728 C 0.28836 0.41938 -0.09249
 C729 C 0.28853 0.44227 -0.09289
 C730 C 0.29660 0.45371 -0.11137
 H731 H 0.33293 0.46765 -0.22830
 H732 H 0.35235 0.48685 -0.25795
 H733 H 0.37832 0.52979 -0.20891
 H734 H 0.35832 0.51154 -0.18031
 H735 H 0.31011 0.41062 -0.14382
 H736 H 0.29665 0.39065 -0.11141
 H737 H 0.28230 0.45141 -0.07897
 H738 H 0.29662 0.47132 -0.11105
 C739 C 0.84901 0.98109 0.31612
 C740 C 0.83956 0.98753 0.29604
 C741 C 0.85212 0.99411 0.27780
 C742 C 0.87459 0.99348 0.27887
 C743 C 0.88378 0.98741 0.29941
 C744 C 0.87122 0.98137 0.31769
 C745 C 0.83591 0.97389 0.33539
 N746 N 0.84333 0.97567 0.35638
 N747 N 0.83201 0.96834 0.37375
 C748 C 0.81289 0.95874 0.37082
 N749 N 0.80540 0.95704 0.34984
 N750 N 0.81663 0.96458 0.33247
 C751 C 0.80107 0.94935 0.39003
 C752 C 0.78747 0.93163 0.38723
 C753 C 0.77776 0.92151 0.40563
 C754 C 0.78107 0.92916 0.42725
 C755 C 0.79405 0.94748 0.42985
 C756 C 0.80413 0.95729 0.41149
 H757 H 0.82239 0.98793 0.29459
 H758 H 0.84395 0.99997 0.26320
 H759 H 0.90092 0.98721 0.30118
 H760 H 0.87898 0.97654 0.33299
 H761 H 0.78499 0.92505 0.37088
 H762 H 0.76824 0.90724 0.40288
 H763 H 0.79657 0.95424 0.44610
 H764 H 0.81438 0.97108 0.41410
 C765 C 0.85594 0.01953 1.19847
 C766 C 0.86984 0.03406 1.20841
 C767 C 0.88082 0.02814 1.22753
 C768 C 0.87766 0.00767 1.23809
 C769 C 0.86467 -0.00738 1.22712
 C770 C 0.85381 -0.00147 1.20769
 C771 C 0.84382 0.02680 1.17874
 N772 N 0.83561 0.01240 1.16428
 N773 N 0.82510 0.01943 1.14637
 C774 C 0.82226 0.04110 1.14236
 N775 N 0.83035 0.05538 1.15693
 N776 N 0.84093 0.04839 1.17468
 C777 C 0.81089 0.04934 1.12249
 C778 C 0.80351 0.07099 1.12180
 C779 C 0.79367 0.07944 1.10289
 C780 C 0.79106 0.06652 1.08410
 C781 C 0.79827 0.04480 1.08473
 C782 C 0.80795 0.03621 1.10386
 H783 H 0.87250 0.05010 1.20124
 H784 H 0.89197 0.03985 1.23359
 H785 H 0.86265 -0.02366 1.23392
 H786 H 0.84348 -0.01320 1.20013
 H787 H 0.80545 0.08154 1.13587
 H788 H 0.78854 0.09632 1.10278
 H789 H 0.79636 0.03448 1.07047
 H790 H 0.81353 0.01949 1.10388
 C791 C 0.34205 0.54810 0.68866
 C792 C 0.36424 0.55028 0.68933
 C793 C 0.37566 0.54245 0.70750
 C794 C 0.36540 0.53175 0.72557
 C795 C 0.34290 0.53118 0.72558
 C796 C 0.33145 0.53897 0.70723
 C797 C 0.33036 0.55483 0.66837
 N798 N 0.30896 0.55219 0.66686
 N799 N 0.29879 0.55757 0.64821
 C800 C 0.30960 0.56576 0.63028
 N801 N 0.33095 0.56845 0.63187
 N802 N 0.34109 0.56309 0.65046
 C803 C 0.29854 0.57170 0.60937
 C804 C 0.31024 0.57954 0.59090
 C805 C 0.30002 0.58568 0.57130
 C806 C 0.27780 0.58414 0.56960
 C807 C 0.26606 0.57604 0.58794
 C808 C 0.27632 0.56983 0.60761
 H809 H 0.37298 0.55761 0.67556
 H810 H 0.39283 0.54390 0.70709
 H811 H 0.33391 0.52469 0.73953
 H812 H 0.31427 0.53761 0.70752
 H813 H 0.32737 0.58121 0.59160
 H814 H 0.30951 0.59224 0.55767
 H815 H 0.24893 0.57451 0.58708
 H816 H 0.26682 0.56377 0.62147
 C817 C 0.15485 0.52348 0.29290
 C818 C 0.15980 0.52977 0.27090
 C819 C 0.14876 0.52097 0.25309
 C820 C 0.13282 0.50517 0.25668
 C821 C 0.12728 0.49994 0.27898
 C822 C 0.13832 0.50863 0.29666
 C823 C 0.16633 0.53255 0.31202
 N824 N 0.16224 0.52505 0.33299
 N825 N 0.17211 0.53333 0.35034
 C826 C 0.18653 0.54948 0.34752
 N827 N 0.19075 0.55693 0.32654
 N828 N 0.18089 0.54862 0.30914
 C829 C 0.19682 0.55920 0.36706
 C830 C 0.21061 0.57698 0.36446
 C831 C 0.21924 0.58690 0.38303
 C832 C 0.21433 0.57924 0.40462
 C833 C 0.20103 0.56110 0.40720
 C834 C 0.19237 0.55121 0.38865
 H835 H 0.17218 0.54154 0.26740
 H836 H 0.15277 0.52640 0.23637
 H837 H 0.11408 0.48943 0.28315
 H838 H 0.13358 0.50389 0.31340
 H839 H 0.21449 0.58349 0.34810
 H840 H 0.22969 0.60067 0.38050
 H841 H 0.19676 0.55496 0.42361
 H842 H 0.18185 0.53752 0.39131
 C843 C 0.65541 0.02409 0.81195
 C844 C 0.64042 0.03932 0.80425
 C845 C 0.62741 0.03459 0.78642
 C846 C 0.62975 0.01484 0.77484
 C847 C 0.64390 -0.00096 0.78378
 C848 C 0.65663 0.00363 0.80202
 C849 C 0.66977 0.03004 0.83004
 N850 N 0.67679 0.01502 0.84514
 N851 N 0.68916 0.02093 0.86183
 C852 C 0.69522 0.04199 0.86382
 N853 N 0.68840 0.05686 0.84855
 N854 N 0.67588 0.05103 0.83206
 C855 C 0.70804 0.04916 0.88273
 C856 C 0.72015 0.06817 0.88064
 C857 C 0.73015 0.07677 0.89905
 C858 C 0.72795 0.06680 0.92013
 C859 C 0.71674 0.04710 0.92201
 C860 C 0.70696 0.03829 0.90342
 H861 H 0.63858 0.05493 0.81222
 H862 H 0.61549 0.04662 0.78210
 H863 H 0.64547 -0.01676 0.77617
 H864 H 0.66784 -0.00856 0.80794
 H865 H 0.72154 0.07671 0.86481
 H866 H 0.73920 0.09158 0.89686
 H867 H 0.71464 0.03905 0.93800
 H868 H 0.69765 0.02363 0.90550
 C869 C 0.65377 0.99229 0.69493
 C870 C 0.63146 0.99232 0.69480
 C871 C 0.61983 0.99797 0.71377
 C872 C 0.63010 1.00368 0.73360
 C873 C 0.65255 1.00513 0.73298
 C874 C 0.66419 0.99904 0.71408
 C875 C 0.66604 0.98452 0.67544
 N876 N 0.68613 0.97655 0.67780
 N877 N 0.69666 0.96815 0.66054
 C878 C 0.68758 0.96755 0.64019
 N879 N 0.66762 0.97585 0.63777
 N880 N 0.65703 0.98408 0.65506
 C881 C 0.69859 0.95689 0.62137
 C882 C 0.69243 0.96142 0.59940
 C883 C 0.70171 0.95012 0.58172
 C884 C 0.71704 0.93382 0.58574
 C885 C 0.72354 0.92959 0.60763
 C886 C 0.71455 0.94116 0.62527
 H887 H 0.62294 0.98737 0.68021
 H888 H 0.60262 0.99735 0.71323
 H889 H 0.66142 1.01102 0.74687
 H890 H 0.68140 0.99975 0.71442
 H891 H 0.68024 0.97352 0.59589
 H892 H 0.69637 0.95356 0.56498
 H893 H 0.73544 0.91716 0.61108
 H894 H 0.71957 0.93726 0.64203
 C895 C 0.15859 0.46929 0.18213
 C896 C 0.13639 0.47142 0.18086
 C897 C 0.12456 0.47949 0.19867
 C898 C 0.13449 0.48647 0.21820
 C899 C 0.15667 0.48289 0.21999
 C900 C 0.16857 0.47461 0.20208
 C901 C 0.17094 0.46174 0.16250
 N902 N 0.19174 0.45565 0.16402
 N903 N 0.20250 0.44874 0.14616
 C904 C 0.19293 0.44782 0.12605
 N905 N 0.17221 0.45406 0.12459
 N906 N 0.16148 0.46086 0.14239
 C907 C 0.20432 0.43944 0.10616
 C908 C 0.19466 0.44087 0.08524
 C909 C 0.20422 0.43137 0.06670
 C910 C 0.22368 0.42012 0.06855
 C911 C 0.23390 0.41948 0.08921
 C912 C 0.22431 0.42906 0.10786
 H913 H 0.12804 0.46694 0.16600
 H914 H 0.10746 0.48102 0.19695
 H915 H 0.16500 0.48626 0.23512
 H916 H 0.18561 0.47260 0.20379
 H917 H 0.17943 0.44900 0.08320
 H918 H 0.19617 0.43251 0.05091
 H919 H 0.24886 0.41082 0.09115
 H920 H 0.23221 0.42772 0.12372
 C921 C -0.20505 0.34570 0.47971
 C922 C -0.21437 0.34195 0.50074
 C923 C -0.23309 0.35305 0.50701
 C924 C -0.24297 0.36822 0.49244
 C925 C -0.23285 0.37223 0.47165
 C926 C -0.21460 0.36086 0.46529
 C927 C -0.18514 0.33463 0.47254
 N928 N -0.18047 0.33309 0.45054
 N929 N -0.16214 0.32440 0.44364
 C930 C -0.14755 0.31698 0.45842
 N931 N -0.15222 0.31835 0.48050
 N932 N -0.17070 0.32696 0.48744
 C933 C -0.12696 0.30795 0.45026
 C934 C -0.10942 0.30521 0.46437
 C935 C -0.08989 0.29737 0.45603
 C936 C -0.08771 0.29184 0.43352
 C937 C -0.10527 0.29455 0.41952
 C938 C -0.12459 0.30254 0.42775
 H939 H -0.20721 0.33048 0.51233
 H940 H -0.23973 0.35009 0.52347
 H941 H -0.23835 0.38469 0.46022
 H942 H -0.20749 0.36461 0.44920
 H943 H -0.11070 0.30935 0.48177
 H944 H -0.07660 0.29535 0.46718
 H945 H -0.10399 0.29070 0.40205
 H946 H -0.13772 0.30445 0.41637
 C947 C 0.31359 0.84485 0.99355
 C948 C 0.31181 0.86587 0.98443
 C949 C 0.29275 0.87744 0.98593
 C950 C 0.27459 0.86841 0.99647
 C951 C 0.27672 0.84754 1.00644
 C952 C 0.29585 0.83567 1.00447
 C953 C 0.33417 0.83311 0.99165
 N954 N 0.33517 0.81107 0.99029
 N955 N 0.35376 0.80098 0.98655
 C956 C 0.37206 0.81254 0.98426
 N957 N 0.37101 0.83450 0.98614
 N958 N 0.35249 0.84456 0.98969
 C959 C 0.39249 0.80200 0.97775
 C960 C 0.41145 0.81397 0.97812
 C961 C 0.43015 0.80569 0.96864
 C962 C 0.43037 0.78526 0.95851
 C963 C 0.41183 0.77259 0.95949
 C964 C 0.39304 0.78089 0.96904
 H965 H 0.32521 0.87346 0.97598
 H966 H 0.29228 0.89377 0.97895
 H967 H 0.26390 0.84050 1.01621
 H968 H 0.29700 0.81963 1.01211
 H969 H 0.41170 0.83014 0.98500
 H970 H 0.44431 0.81562 0.96854
 H971 H 0.41151 0.75681 0.95173
 H972 H 0.37872 0.77124 0.96852
 C973 C 1.19313 0.85227 0.01327
 C974 C 1.20842 0.84171 -0.00011
 C975 C 1.22826 0.85133 -0.00448
 C976 C 1.23370 0.87127 0.00527
 C977 C 1.21767 0.88217 0.01756
 C978 C 1.19797 0.87274 0.02175
 C979 C 1.17216 0.84242 0.01869
 N980 N 1.15744 0.85396 0.03040
 N981 N 1.13897 0.84518 0.03645
 C982 C 1.13429 0.82442 0.03108
 N983 N 1.14887 0.81286 0.01909
 N984 N 1.16745 0.82169 0.01299
 C985 C 1.11421 0.81451 0.03944
 C986 C 1.10812 0.79347 0.03327
 C987 C 1.08988 0.78387 0.04269
 C988 C 1.07764 0.79505 0.05862
 C989 C 1.08335 0.81625 0.06423
 C990 C 1.10132 0.82590 0.05469
 H991 H 1.20497 0.82616 -0.00742
 H992 H 1.23930 0.84320 -0.01560
 H993 H 1.22022 0.89830 0.02393
 H994 H 1.18649 0.88169 0.03169
 H995 H 1.11764 0.78430 0.02149
 H996 H 1.08576 0.76746 0.03817
 H997 H 1.07401 0.82528 0.07628
 H998 H 1.10539 0.84215 0.05980
 C999 C 0.68010 0.34756 0.52171
 C1000 C 0.69758 0.33560 0.51340
 C1001 C 0.71640 0.34616 0.50669
 C1002 C 0.71830 0.36895 0.50861
 C1003 C 0.70042 0.38067 0.51661
 C1004 C 0.68182 0.37023 0.52314
 C1005 C 0.65996 0.33698 0.52889
 N1006 N 0.64301 0.34942 0.53508
 N1007 N 0.62496 0.34039 0.54212
 C1008 C 0.62298 0.31844 0.54332
 N1009 N 0.63988 0.30588 0.53699
 N1010 N 0.65801 0.31496 0.52989
 C1011 C 0.60297 0.30873 0.55210
 C1012 C 0.60052 0.28606 0.55400
 C1013 C 0.58195 0.27725 0.56346
 C1014 C 0.56546 0.29092 0.57124
 C1015 C 0.56779 0.31355 0.56889
 C1016 C 0.58625 0.32233 0.55941
 H1017 H 0.69663 0.31811 0.51178
 H1018 H 0.72909 0.33641 0.49962
 H1019 H 0.70097 0.39823 0.51787
 H1020 H 0.66873 0.38009 0.52933
 H1021 H 0.61303 0.27512 0.54845
 H1022 H 0.58054 0.25972 0.56479
 H1023 H 0.55563 0.32459 0.57504
 H1024 H 0.58753 0.33987 0.55827
 C1025 C 0.30044 0.16644 0.52476
 C1026 C 0.29226 0.14804 0.53586
 C1027 C 0.27465 0.13728 0.52782
 C1028 C 0.26394 0.14486 0.50866
 C1029 C 0.27259 0.16304 0.49718
 C1030 C 0.29042 0.17386 0.50528
 C1031 C 0.31970 0.17703 0.53348
 N1032 N 0.32854 0.19473 0.52326
 N1033 N 0.34601 0.20379 0.53137
 C1034 C 0.35534 0.19547 0.54997
 N1035 N 0.34645 0.17784 0.56010
 N1036 N 0.32907 0.16884 0.55205
 C1037 C 0.37470 0.20526 0.55939
 C1038 C 0.38405 0.19573 0.57833
 C1039 C 0.40190 0.20492 0.58784
 C1040 C 0.41092 0.22393 0.57874
 C1041 C 0.40191 0.23333 0.55954
 C1042 C 0.38392 0.22410 0.54997
 H1043 H 0.29977 0.14149 0.55064
 H1044 H 0.27003 0.12251 0.53651
 H1045 H 0.26564 0.16870 0.48174
 H1046 H 0.29654 0.18779 0.49608
 H1047 H 0.37756 0.18113 0.58597
 H1048 H 0.40873 0.19704 0.60234
 H1049 H 0.40848 0.24805 0.55222
 H1050 H 0.37715 0.23182 0.53537
 C1051 C 0.81435 0.65755 0.01814
 C1052 C 0.80977 0.63712 0.02759
 C1053 C 0.79191 0.62568 0.02113
 C1054 C 0.77724 0.63480 0.00595
 C1055 C 0.78266 0.65477 -0.00454
 C1056 C 0.80093 0.66607 0.00161
 C1057 C 0.83302 0.66965 0.02592
 N1058 N 0.84362 0.68392 0.01240
 N1059 N 0.86073 0.69427 0.01961
 C1060 C 0.86775 0.69092 0.04069
 N1061 N 0.85702 0.67679 0.05419
 N1062 N 0.84010 0.66632 0.04693
 C1063 C 0.88673 0.70216 0.04901
 C1064 C 0.88895 0.70532 0.07193
 C1065 C 0.90708 0.71519 0.08017
 C1066 C 0.92358 0.72181 0.06571
 C1067 C 0.92145 0.71870 0.04276
 C1068 C 0.90305 0.70917 0.03444
 H1069 H 0.82021 0.62978 0.03983
 H1070 H 0.78947 0.60962 0.02830
 H1071 H 0.77282 0.66166 -0.01753
 H1072 H 0.80437 0.68162 -0.00631
 H1073 H 0.87662 0.70016 0.08356
 H1074 H 0.90842 0.71725 0.09794
 H1075 H 0.93397 0.72373 0.03131
 H1076 H 0.90179 0.70684 0.01671
 C1077 C 0.70016 0.65720 0.97932
 C1078 C 0.71426 0.66642 0.99443
 C1079 C 0.73298 0.65534 1.00054
 C1080 C 0.73833 0.63500 0.99126
 C1081 C 0.72337 0.62549 0.97713
 C1082 C 0.70491 0.63653 0.97095
 C1083 C 0.68040 0.66859 0.97224
 N1084 N 0.66935 0.66105 0.95476
 N1085 N 0.65151 0.67084 0.94820
 C1086 C 0.64380 0.68859 0.95887
 N1087 N 0.65481 0.69621 0.97641
 N1088 N 0.67278 0.68642 0.98295
 C1089 C 0.62386 0.69924 0.95120
 C1090 C 0.61328 0.71509 0.96399
 C1091 C 0.59434 0.72476 0.95647
 C1092 C 0.58582 0.71895 0.93591
 C1093 C 0.59639 0.70311 0.92323
 C1094 C 0.61511 0.69334 0.93079
 H1095 H 0.71081 0.68215 1.00157
 H1096 H 0.74310 0.66262 1.01274
 H1097 H 0.72587 0.60926 0.97081
 H1098 H 0.69414 0.62858 0.95980
 H1099 H 0.61957 0.71993 0.97982
 H1100 H 0.58654 0.73701 0.96651
 H1101 H 0.59004 0.69810 0.90748
 H1102 H 0.62277 0.68121 0.92048
 C1103 C 0.18698 0.16642 0.48114
 C1104 C 0.19080 0.14486 0.47481
 C1105 C 0.20985 0.13442 0.47993
 C1106 C 0.22616 0.14519 0.49122
 C1107 C 0.22219 0.16684 0.49786
 C1108 C 0.20292 0.17738 0.49265
 C1109 C 0.16621 0.17685 0.47588
 N1110 N 0.16204 0.19810 0.48041
 N1111 N 0.14335 0.20716 0.47508
 C1112 C 0.12808 0.19529 0.46509
 N1113 N 0.13227 0.17407 0.46081
 N1114 N 0.15087 0.16507 0.46609
 C1115 C 0.10767 0.20522 0.45781
 C1116 C 0.09355 0.19288 0.44526
 C1117 C 0.07520 0.20232 0.43650
 C1118 C 0.07035 0.22428 0.44019
 C1119 C 0.08378 0.23649 0.45360
 C1120 C 0.10240 0.22706 0.46225
 H1121 H 0.17893 0.13576 0.46606
 H1122 H 0.21185 0.11757 0.47527
 H1123 H 0.23347 0.17550 0.50774
 H1124 H 0.20033 0.19392 0.49806
 H1125 H 0.09693 0.17599 0.44159
 H1126 H 0.06495 0.19254 0.42638
 H1127 H 0.08031 0.25350 0.45658
 H1128 H 0.11287 0.23698 0.47196
 C1129 C 0.57987 0.06662 0.73135
 C1130 C 0.60213 0.06691 0.73276
 C1131 C 0.61334 0.04843 0.73971
 C1132 C 0.60270 0.02920 0.74640
 C1133 C 0.58037 0.02870 0.74384
 C1134 C 0.56914 0.04721 0.73656
 C1135 C 0.56814 0.08650 0.72423
 N1136 N 0.54772 0.08548 0.71719
 N1137 N 0.53749 0.10340 0.71029
 C1138 C 0.54720 0.12308 0.71032
 N1139 N 0.56754 0.12409 0.71758
 N1140 N 0.57779 0.10619 0.72435
 C1141 C 0.53633 0.14289 0.70165
 C1142 C 0.54479 0.16361 0.70541
 C1143 C 0.53557 0.18219 0.69574
 C1144 C 0.51786 0.18041 0.68192
 C1145 C 0.50898 0.15980 0.67872
 C1146 C 0.51805 0.14124 0.68859
 H1147 H 0.61097 0.08143 0.72835
 H1148 H 0.63054 0.04925 0.74044
 H1149 H 0.57139 0.01407 0.74707
 H1150 H 0.55200 0.04634 0.73515
 H1151 H 0.55879 0.16546 0.71551
 H1152 H 0.54281 0.19787 0.69835
 H1153 H 0.49519 0.15803 0.66830
 H1154 H 0.51112 0.12553 0.68538
 C1155 C 1.08590 0.55455 0.21254
 C1156 C 1.08047 0.54493 0.23316
 C1157 C 1.09130 0.52621 0.24079
 C1158 C 1.10749 0.51629 0.22780
 C1159 C 1.11356 0.52709 0.20781
 C1160 C 1.10271 0.54547 0.20016
 C1161 C 1.07477 0.57419 0.20368
 N1162 N 1.07796 0.58039 0.18216
 N1163 N 1.06887 0.59833 0.17395
 C1164 C 1.05615 0.61099 0.18686
 N1165 N 1.05273 0.60476 0.20841
 N1166 N 1.06183 0.58668 0.21666
 C1167 C 1.04700 0.63149 0.17748
 C1168 C 1.03531 0.64614 0.19073
 C1169 C 1.02791 0.66596 0.18170
 C1170 C 1.03219 0.67152 0.15933
 C1171 C 1.04336 0.65660 0.14604
 C1172 C 1.05065 0.63689 0.15496
 H1173 H 1.06787 0.55182 0.24336
 H1174 H 1.08699 0.51936 0.25690
 H1175 H 1.12710 0.52185 0.19796
 H1176 H 1.10792 0.55286 0.18459
 H1177 H 1.03219 0.64248 0.20812
 H1178 H 1.01934 0.67718 0.19234
 H1179 H 1.04650 0.66018 0.12863
 H1180 H 1.05939 0.62598 0.14414
 C1181 C 0.92828 0.94632 0.23421
 C1182 C 0.91318 0.94285 0.25121
 C1183 C 0.90135 0.96008 0.25985
 C1184 C 0.90458 0.98176 0.25233
 C1185 C 0.91993 0.98512 0.23527
 C1186 C 0.93168 0.96770 0.22643
 C1187 C 0.93926 0.92740 0.22396
 N1188 N 0.95173 0.92980 0.20547
 N1189 N 0.96037 0.91247 0.19562
 C1190 C 0.95691 0.89205 0.20384
 N1191 N 0.94468 0.88973 0.22247
 N1192 N 0.93606 0.90701 0.23229
 C1193 C 0.96534 0.87258 0.19224
 C1194 C 0.96022 0.85154 0.20006
 C1195 C 0.96693 0.83315 0.18841
 C1196 C 0.97896 0.83532 0.16868
 C1197 C 0.98457 0.85633 0.16117
 C1198 C 0.97783 0.87474 0.17280
 H1199 H 0.90982 0.92658 0.25738
 H1200 H 0.88904 0.95584 0.27178
 H1201 H 0.92244 1.00129 0.22837
 H1202 H 0.94307 0.97096 0.21316
 H1203 H 0.95061 0.84922 0.21496
 H1204 H 0.96213 0.81725 0.19453
 H1205 H 0.99413 0.85856 0.14622
 H1206 H 0.98218 0.89066 0.16637
 C1207 C 0.41769 0.46643 0.72042
 C1208 C 0.42000 0.47401 0.74215
 C1209 C 0.40830 0.49220 0.74944
 C1210 C 0.39404 0.50343 0.73520
 C1211 C 0.39161 0.49510 0.71359
 C1212 C 0.40347 0.47733 0.70628
 C1213 C 0.42894 0.44666 0.71236
 N1214 N 0.42875 0.44199 0.69039
 N1215 N 0.43724 0.42359 0.68291
 C1216 C 0.44634 0.40893 0.69702
 N1217 N 0.44693 0.41370 0.71902
 N1218 N 0.43840 0.43222 0.72654
 C1219 C 0.45418 0.38774 0.68845
 C1220 C 0.46422 0.37224 0.70235
 C1221 C 0.47024 0.35180 0.69414
 C1222 C 0.46608 0.34645 0.67199
 C1223 C 0.45657 0.36212 0.65804
 C1224 C 0.45077 0.38248 0.66611
 H1225 H 0.43065 0.46578 0.75360
 H1226 H 0.41009 0.49736 0.76644
 H1227 H 0.37996 0.50147 0.70214
 H1228 H 0.40079 0.47164 0.68961
 H1229 H 0.46713 0.37577 0.71961
 H1230 H 0.47757 0.33997 0.70522
 H1231 H 0.45352 0.35857 0.64079
 H1232 H 0.44319 0.39396 0.65483
 C1233 C 0.41238 0.57912 0.76970
 C1234 C 0.39011 0.57805 0.76916
 C1235 C 0.38009 0.55979 0.76093
 C1236 C 0.39189 0.54172 0.75307
 C1237 C 0.41432 0.54338 0.75258
 C1238 C 0.42439 0.56169 0.76111
 C1239 C 0.42275 0.59825 0.77957
 N1240 N 0.44388 0.59809 0.78414
 N1241 N 0.45279 0.61499 0.79399
 C1242 C 0.44096 0.63276 0.79960
 N1243 N 0.41990 0.63296 0.79479
 N1244 N 0.41100 0.61608 0.78503
 C1245 C 0.45050 0.65126 0.81142
 C1246 C 0.43834 0.67008 0.81576
 C1247 C 0.44681 0.68710 0.82786
 C1248 C 0.46765 0.68573 0.83602
 C1249 C 0.47998 0.66711 0.83132
 C1250 C 0.47152 0.65007 0.81913
 H1251 H 0.38029 0.59119 0.77547
 H1252 H 0.36285 0.55949 0.76113
 H1253 H 0.42431 0.53080 0.74557
 H1254 H 0.44162 0.56223 0.76086
 H1255 H 0.42215 0.67165 0.80994
 H1256 H 0.43702 0.70138 0.83081
 H1257 H 0.49601 0.66543 0.83757
 H1258 H 0.48131 0.63580 0.81616
 C1259 C -0.07954 0.05759 0.28813
 C1260 C -0.06685 0.03996 0.28118
 C1261 C -0.07620 0.02142 0.27219
 C1262 C -0.09846 0.02047 0.26923
 C1263 C -0.11091 0.03824 0.27669
 C1264 C -0.10166 0.05640 0.28591
 C1265 C -0.07023 0.07722 0.29799
 N1266 N -0.08263 0.09046 0.31065
 N1267 N -0.07483 0.10852 0.31915
 C1268 C -0.05430 0.11426 0.31526
 N1269 N -0.04180 0.10102 0.30260
 N1270 N -0.04960 0.08280 0.29418
 C1271 C -0.04604 0.13459 0.32471
 C1272 C -0.02736 0.14434 0.31632
 C1273 C -0.02019 0.16392 0.32511
 C1274 C -0.03139 0.17384 0.34266
 C1275 C -0.04997 0.16402 0.35105
 C1276 C -0.05726 0.14471 0.34213
 H1277 H -0.04974 0.04031 0.28310
 H1278 H -0.06586 0.00795 0.26795
 H1279 H -0.12807 0.03811 0.27509
 H1280 H -0.11195 0.06967 0.29109
 H1281 H -0.01845 0.13698 0.30283
 H1282 H -0.00576 0.17116 0.31844
 H1283 H -0.05902 0.17145 0.36442
 H1284 H -0.07169 0.13765 0.34900
 C1285 C 0.08319 0.43924 0.25837
 C1286 C 0.10538 0.43996 0.26037
 C1287 C 0.11665 0.45827 0.25344
 C1288 C 0.10623 0.47673 0.24430
 C1289 C 0.08399 0.47552 0.24128
 C1290 C 0.07259 0.45716 0.24864
 C1291 C 0.07157 0.41982 0.26675
 N1292 N 0.05034 0.42058 0.27143
 N1293 N 0.04050 0.40336 0.28045
 C1294 C 0.05147 0.38466 0.28505
 N1295 N 0.07257 0.38388 0.27999
 N1296 N 0.08239 0.40106 0.27109
 C1297 C 0.04125 0.36590 0.29665
 C1298 C 0.05305 0.34670 0.30056
 C1299 C 0.04458 0.32979 0.31349
 C1300 C 0.02406 0.33156 0.32285
 C1301 C 0.01177 0.35025 0.31810
 C1302 C 0.02031 0.36731 0.30515
 H1303 H 0.11414 0.42645 0.26768
 H1304 H 0.13375 0.45820 0.25551
 H1305 H 0.07525 0.48843 0.23304
 H1306 H 0.05551 0.45686 0.24643
 H1307 H 0.06912 0.34488 0.29409
 H1308 H 0.05425 0.31539 0.31650
 H1309 H -0.00408 0.35205 0.32515
 H1310 H 0.01077 0.38183 0.30241
 C1311 C 0.58022 0.95337 0.78045
 C1312 C 0.57706 0.97428 0.78908
 C1313 C 0.58811 0.99211 0.78011
 C1314 C 0.60249 0.98970 0.76204
 C1315 C 0.60571 0.96847 0.75378
 C1316 C 0.59453 0.95077 0.76259
 C1317 C 0.56964 0.93411 0.79064
 N1318 N 0.57123 0.91435 0.78089
 N1319 N 0.56273 0.89676 0.79051
 C1320 C 0.55229 0.89812 0.81035
 N1321 N 0.55051 0.91791 0.82002
 N1322 N 0.55898 0.93554 0.81036
 C1323 C 0.54387 0.87827 0.82158
 C1324 C 0.53562 0.87914 0.84338
 C1325 C 0.52886 0.86019 0.85441
 C1326 C 0.53008 0.83996 0.84387
 C1327 C 0.53785 0.83913 0.82190
 C1328 C 0.54472 0.85806 0.81090
 H1329 H 0.56629 0.97684 0.80300
 H1330 H 0.58570 1.00790 0.78754
 H1331 H 0.61744 0.96499 0.74103
 H1332 H 0.59771 0.93483 0.75581
 H1333 H 0.53468 0.89441 0.85209
 H1334 H 0.52267 0.86137 0.87123
 H1335 H 0.53914 0.82375 0.81342
 H1336 H 0.55096 0.85677 0.79411
 C1337 C 0.72829 0.58652 0.05529
 C1338 C 0.72828 0.57734 0.03404
 C1339 C 0.73803 0.58811 0.01596
 C1340 C 0.74858 0.60806 0.01877
 C1341 C 0.74734 0.61761 0.03996
 C1342 C 0.73782 0.60684 0.05795
 C1343 C 0.71785 0.57558 0.07460
 N1344 N 0.72050 0.58329 0.09541
 N1345 N 0.71064 0.57412 0.11281
 C1346 C 0.69766 0.55684 0.11021
 N1347 N 0.69511 0.54897 0.08941
 N1348 N 0.70503 0.55813 0.07197
 C1349 C 0.68595 0.54743 0.12958
 C1350 C 0.67026 0.53159 0.12672
 C1351 C 0.65839 0.52378 0.14492
 C1352 C 0.66203 0.53155 0.16639
 C1353 C 0.67806 0.54699 0.16931
 C1354 C 0.68985 0.55487 0.15113
 H1355 H 0.72057 0.56193 0.03132
 H1356 H 0.73696 0.58091 -0.00027
 H1357 H 0.75366 0.63367 0.04267
 H1358 H 0.73755 0.61477 0.07390
 H1359 H 0.66686 0.52547 0.11037
 H1360 H 0.64630 0.51167 0.14221
 H1361 H 0.68108 0.55347 0.18560
 H1362 H 0.70183 0.56705 0.15397
 C1363 C 0.21572 1.08892 0.54856
 C1364 C 0.21768 1.11134 0.55172
 C1365 C 0.22762 1.12440 0.53571
 C1366 C 0.23606 1.11557 0.51590
 C1367 C 0.23332 1.09306 0.51245
 C1368 C 0.22367 1.07985 0.52882
 C1369 C 0.20499 1.07546 0.56581
 N1370 N 0.20949 1.05390 0.56833
 N1371 N 0.20029 1.04222 0.58462
 C1372 C 0.18610 1.05164 0.59886
 N1373 N 0.18149 1.07312 0.59612
 N1374 N 0.19078 1.08479 0.58001
 C1375 C 0.17616 1.03916 0.61739
 C1376 C 0.15744 1.04705 0.62756
 C1377 C 0.14852 1.03621 0.64588
 C1378 C 0.15822 1.01734 0.65463
 C1379 C 0.17682 1.00924 0.64438
 C1380 C 0.18563 1.01996 0.62577
 H1381 H 0.21163 1.11885 0.56672
 H1382 H 0.22880 1.14166 0.53879
 H1383 H 0.23806 1.08555 0.49703
 H1384 H 0.22189 1.06264 0.52577
 H1385 H 0.14973 1.06176 0.62145
 H1386 H 0.13431 1.04294 0.65361
 H1387 H 0.18452 0.99465 0.65078
 H1388 H 0.20011 1.01356 0.61831
 C1389 C 0.23515 0.91511 0.93739
 C1390 C 0.24612 0.89513 0.93727
 C1391 C 0.25280 0.88535 0.95705
 C1392 C 0.24944 0.89551 0.97770
 C1393 C 0.23789 0.91533 0.97775
 C1394 C 0.23114 0.92515 0.95787
 C1395 C 0.22702 0.92460 0.91629
 N1396 N 0.21552 0.94344 0.91598
 N1397 N 0.20735 0.95120 0.89707
 C1398 C 0.21035 0.94044 0.87769
 N1399 N 0.22205 0.92176 0.87799
 N1400 N 0.23021 0.91404 0.89685
 C1401 C 0.20009 0.94807 0.85688
 C1402 C 0.20078 0.93501 0.83788
 C1403 C 0.18964 0.94112 0.81883
 C1404 C 0.17768 0.96052 0.81823
 C1405 C 0.17764 0.97406 0.83684
 C1406 C 0.18867 0.96786 0.85602
 H1407 H 0.24912 0.88664 0.92189
 H1408 H 0.26024 0.86943 0.95610
 H1409 H 0.23369 0.92309 0.99324
 H1410 H 0.22233 0.94035 0.95862
 H1411 H 0.20949 0.91973 0.83787
 H1412 H 0.19014 0.93052 0.80462
 H1413 H 0.16842 0.98903 0.83686
 H1414 H 0.18787 0.97834 0.87031
 C1415 C 0.70862 0.41876 0.44553
 C1416 C 0.71038 0.39604 0.44557
 C1417 C 0.72023 0.38500 0.46297
 C1418 C 0.72871 0.39619 0.48114
 C1419 C 0.72654 0.41912 0.48123
 C1420 C 0.71696 0.43027 0.46338
 C1421 C 0.69753 0.42988 0.42703
 N1422 N 0.70258 0.45046 0.42039
 N1423 N 0.69312 0.45969 0.40284
 C1424 C 0.67812 0.44876 0.39144
 N1425 N 0.67294 0.42834 0.39833
 N1426 N 0.68249 0.41908 0.41568
 C1427 C 0.66805 0.45825 0.37138
 C1428 C 0.64896 0.44951 0.36372
 C1429 C 0.64008 0.45700 0.34390
 C1430 C 0.65019 0.47325 0.33103
 C1431 C 0.66901 0.48247 0.33898
 C1432 C 0.67781 0.47510 0.35904
 H1433 H 0.70416 0.38669 0.43203
 H1434 H 0.72119 0.36741 0.46237
 H1435 H 0.73160 0.42858 0.49514
 H1436 H 0.71544 0.44783 0.46388
 H1437 H 0.64088 0.43673 0.37301
 H1438 H 0.62525 0.45000 0.33864
 H1439 H 0.67725 0.49494 0.32942
 H1440 H 0.69259 0.48207 0.36450
 C1441 C 0.76632 0.41751 0.55571
 C1442 C 0.75029 0.40220 0.55974
 C1443 C 0.74102 0.39126 0.54234
 C1444 C 0.74678 0.39575 0.51994
 C1445 C 0.76334 0.41082 0.51603
 C1446 C 0.77283 0.42170 0.53363
 C1447 C 0.77663 0.42797 0.57478
 N1448 N 0.79444 0.44018 0.57206
 N1449 N 0.80416 0.44839 0.58961
 C1450 C 0.79646 0.44475 0.61056
 N1451 N 0.77852 0.43281 0.61318
 N1452 N 0.76885 0.42461 0.59570
 C1453 C 0.80782 0.45259 0.63031
 C1454 C 0.80054 0.44693 0.65183
 C1455 C 0.81191 0.45294 0.67052
 C1456 C 0.83081 0.46484 0.66819
 C1457 C 0.83779 0.47105 0.64671
 C1458 C 0.82644 0.46496 0.62798
 H1459 H 0.74523 0.39804 0.57654
 H1460 H 0.72979 0.37871 0.54694
 H1461 H 0.76908 0.41399 0.49926
 H1462 H 0.78543 0.43317 0.52996
 H1463 H 0.78627 0.43740 0.65429
 H1464 H 0.80622 0.44768 0.68677
 H1465 H 0.85209 0.48057 0.64437
 H1466 H 0.83242 0.46973 0.61168
 C1467 C 0.27664 -0.07814 0.05528
 C1468 C 0.26712 -0.09848 0.05875
 C1469 C 0.26009 -0.11046 0.04087
 C1470 C 0.26135 -0.10214 0.01889
 C1471 C 0.27155 -0.08195 0.01544
 C1472 C 0.27896 -0.07006 0.03342
 C1473 C 0.28487 -0.06613 0.07447
 N1474 N 0.29989 -0.05051 0.07167
 N1475 N 0.30818 -0.04079 0.08919
 C1476 C 0.30170 -0.04618 0.11019
 N1477 N 0.28645 -0.06154 0.11292
 N1478 N 0.27825 -0.07133 0.09544
 C1479 C 0.31187 -0.03658 0.12980
 C1480 C 0.30291 -0.03953 0.15118
 C1481 C 0.31339 -0.03209 0.16992
 C1482 C 0.33315 -0.02173 0.16770
 C1483 C 0.34182 -0.01820 0.14632
 C1484 C 0.33125 -0.02544 0.12756
 H1485 H 0.26564 -0.10550 0.07531
 H1486 H 0.25366 -0.12649 0.04425
 H1487 H 0.27430 -0.07550 -0.00116
 H1488 H 0.28666 -0.05461 0.03019
 H1489 H 0.28796 -0.04796 0.15349
 H1490 H 0.30640 -0.03513 0.18621
 H1491 H 0.35693 -0.01003 0.14415
 H1492 H 0.33859 -0.02289 0.11136
 C1493 C 0.27771 0.10044 0.44163
 C1494 C 0.28247 0.09404 0.46353
 C1495 C 0.27225 0.10401 0.48156
 C1496 C 0.25648 0.12022 0.47825
 C1497 C 0.25294 0.12746 0.45617
 C1498 C 0.26305 0.11748 0.43823
 C1499 C 0.28797 0.08972 0.42230
 N1500 N 0.28138 0.09441 0.40134
 N1501 N 0.29044 0.08484 0.38387
 C1502 C 0.30651 0.07018 0.38658
 N1503 N 0.31313 0.06546 0.40755
 N1504 N 0.30402 0.07500 0.42505
 C1505 C 0.31665 0.05970 0.36703
 C1506 C 0.33493 0.04659 0.36948
 C1507 C 0.34464 0.03701 0.35098
 C1508 C 0.33625 0.04020 0.32961
 C1509 C 0.31789 0.05321 0.32718
 C1510 C 0.30823 0.06288 0.34566
 H1511 H 0.29406 0.08127 0.46679
 H1512 H 0.27648 0.09886 0.49823
 H1513 H 0.24256 0.14112 0.45248
 H1514 H 0.25951 0.12336 0.42162
 H1515 H 0.34192 0.04390 0.38566
 H1516 H 0.35898 0.02741 0.35340
 H1517 H 0.31085 0.05576 0.31101
 H1518 H 0.29410 0.07278 0.34317
 C1519 C 0.78433 0.58406 0.94332
 C1520 C 0.78471 0.57517 0.96499
 C1521 C 0.77643 0.58696 0.98297
 C1522 C 0.76684 0.60760 0.97960
 C1523 C 0.76802 0.61689 0.95804
 C1524 C 0.77623 0.60522 0.94021
 C1525 C 0.79247 0.57182 0.92387
 N1526 N 0.79152 0.58094 0.90322
 N1527 N 0.79883 0.57036 0.88556
 C1528 C 0.80741 0.55011 0.88768
 N1529 N 0.80830 0.54084 0.90833
 N1530 N 0.80095 0.55147 0.92607
 C1531 C 0.81628 0.53899 0.86785
 C1532 C 0.82497 0.51783 0.86931
 C1533 C 0.83447 0.50821 0.85063
 C1534 C 0.83560 0.51966 0.83026
 C1535 C 0.82632 0.54047 0.82867
 C1536 C 0.81673 0.54998 0.84717
 H1537 H 0.79146 0.55916 0.96808
 H1538 H 0.77756 0.57987 0.99949
 H1539 H 0.76230 0.63329 0.95482
 H1540 H 0.77621 0.61294 0.92391
 H1541 H 0.82480 0.50888 0.88495
 H1542 H 0.84161 0.49217 0.85228
 H1543 H 0.82674 0.54953 0.81308
 H1544 H 0.81008 0.56621 0.84531
 C1545 C 0.04704 0.72872 0.56914
 C1546 C 0.04721 0.74703 0.58278
 C1547 C 0.03014 0.75144 0.59713
 C1548 C 0.01266 0.73716 0.59893
 C1549 C 0.01170 0.72010 0.58353
 C1550 C 0.02876 0.71573 0.56910
 C1551 C 0.06621 0.72261 0.55598
 N1552 N 0.06593 0.70540 0.54210
 N1553 N 0.08363 0.69880 0.53172
 C1554 C 0.10240 0.70909 0.53481
 N1555 N 0.10262 0.72650 0.54843
 N1556 N 0.08490 0.73313 0.55877
 C1557 C 0.12243 0.70049 0.52490
 C1558 C 0.14225 0.70868 0.53124
 C1559 C 0.16119 0.69897 0.52376
 C1560 C 0.16071 0.68092 0.50972
 C1561 C 0.14090 0.67340 0.50257
 C1562 C 0.12199 0.68303 0.51010
 H1563 H 0.06070 0.75790 0.58259
 H1564 H 0.03090 0.76610 0.60676
 H1565 H -0.00202 0.70955 0.58335
 H1566 H 0.02782 0.70179 0.55839
 H1567 H 0.14318 0.72211 0.54261
 H1568 H 0.17617 0.70507 0.52970
 H1569 H 0.14001 0.65982 0.49138
 H1570 H 0.10701 0.67646 0.50468
 C1571 C 0.56308 0.22002 1.08631
 C1572 C 0.56290 0.22476 1.10900
 C1573 C 0.54471 0.23319 1.11918
 C1574 C 0.52595 0.23730 1.10709
 C1575 C 0.52605 0.23206 1.08430
 C1576 C 0.54455 0.22387 1.07397
 C1577 C 0.58244 0.21033 1.07614
 N1578 N 0.58645 0.21191 1.05392
 N1579 N 0.60417 0.20328 1.04516
 C1580 C 0.61845 0.19261 1.05828
 N1581 N 0.61434 0.19099 1.08042
 N1582 N 0.59678 0.19973 1.08917
 C1583 C 0.63802 0.18262 1.04889
 C1584 C 0.64832 0.16572 1.06064
 C1585 C 0.66683 0.15615 1.05216
 C1586 C 0.67568 0.16344 1.03189
 C1587 C 0.66562 0.18051 1.02017
 C1588 C 0.64679 0.18989 1.02850
 H1589 H 0.57689 0.22195 1.11901
 H1590 H 0.54519 0.23649 1.13680
 H1591 H 0.51187 0.23363 1.07443
 H1592 H 0.54414 0.21992 1.05651
 H1593 H 0.64194 0.15971 1.07635
 H1594 H 0.67440 0.14311 1.06155
 H1595 H 0.67216 0.18632 1.00445
 H1596 H 0.63924 0.20296 1.01915
 C1597 C 0.95573 0.21357 0.92871
 C1598 C 0.96324 0.20024 0.91164
 C1599 C 0.98009 0.20667 0.89801
 C1600 C 0.99105 0.22631 0.90157
 C1601 C 0.98291 0.24008 0.91835
 C1602 C 0.96546 0.23378 0.93179
 C1603 C 0.93728 0.20607 0.94221
 N1604 N 0.92248 0.22018 0.95045
 N1605 N 0.90459 0.21277 0.96004
 C1606 C 0.90089 0.19100 0.96179
 N1607 N 0.91603 0.17705 0.95411
 N1608 N 0.93376 0.18440 0.94451
 C1609 C 0.88019 0.18230 0.96999
 C1610 C 0.87637 0.15982 0.96890
 C1611 C 0.85641 0.15141 0.97425
 C1612 C 0.83975 0.16517 0.98108
 C1613 C 0.84363 0.18753 0.98321
 C1614 C 0.86368 0.19607 0.97755
 H1615 H 0.95555 0.18495 0.90822
 H1616 H 0.98391 0.19614 0.88429
 H1617 H 0.99001 0.25582 0.92093
 H1618 H 0.95967 0.24460 0.94460
 H1619 H 0.88865 0.14863 0.96331
 H1620 H 0.85392 0.13406 0.97285
 H1621 H 0.83099 0.19843 0.98853
 H1622 H 0.86609 0.21344 0.97862
 C1623 C 0.44858 0.72501 0.43542
 C1624 C 0.45227 0.74750 0.43387
 C1625 C 0.46921 0.75553 0.42094
 C1626 C 0.48224 0.74135 0.40834
 C1627 C 0.48010 0.71879 0.41246
 C1628 C 0.46335 0.71076 0.42551
 C1629 C 0.42868 0.71640 0.44557
 N1630 N 0.42496 0.69466 0.44584
 N1631 N 0.40618 0.68688 0.45243
 C1632 C 0.39025 0.70048 0.45904
 N1633 N 0.39408 0.72221 0.45926
 N1634 N 0.41290 0.73001 0.45262
 C1635 C 0.36877 0.69179 0.46421
 C1636 C 0.35239 0.70531 0.47246
 C1637 C 0.33180 0.69719 0.47582
 C1638 C 0.32721 0.67551 0.47074
 C1639 C 0.34366 0.66193 0.46295
 C1640 C 0.36420 0.66993 0.45981
 H1641 H 0.44161 0.75896 0.44193
 H1642 H 0.47129 0.77298 0.41956
 H1643 H 0.49099 0.70708 0.40521
 H1644 H 0.46155 0.69330 0.42710
 H1645 H 0.35539 0.72221 0.47607
 H1646 H 0.31937 0.70798 0.48187
 H1647 H 0.34064 0.64503 0.45931
 H1648 H 0.37639 0.65902 0.45348
 C1649 C 0.54930 0.77846 0.43187
 C1650 C 0.54587 0.75591 0.43183
 C1651 C 0.52918 0.74727 0.41965
 C1652 C 0.51603 0.76083 0.40641
 C1653 C 0.51814 0.78355 0.40873
 C1654 C 0.53474 0.79218 0.42087
 C1655 C 0.56835 0.78777 0.44237
 N1656 N 0.57266 0.80927 0.43981
 N1657 N 0.59040 0.81760 0.44785
 C1658 C 0.60465 0.80481 0.45882
 N1659 N 0.60026 0.78332 0.46166
 N1660 N 0.58250 0.77495 0.45354
 C1661 C 0.62479 0.81416 0.46680
 C1662 C 0.63832 0.80226 0.48103
 C1663 C 0.65737 0.81130 0.48825
 C1664 C 0.66336 0.83237 0.48129
 C1665 C 0.64987 0.84410 0.46689
 C1666 C 0.63082 0.83518 0.45987
 H1667 H 0.55638 0.74487 0.44071
 H1668 H 0.52712 0.72979 0.41971
 H1669 H 0.50715 0.79493 0.40109
 H1670 H 0.53632 0.80970 0.42133
 H1671 H 0.63412 0.78604 0.48671
 H1672 H 0.66726 0.80191 0.49953
 H1673 H 0.65416 0.86014 0.46075
 H1674 H 0.62093 0.84474 0.44872
 C1675 C 0.06960 0.25323 -0.08496
 C1676 C 0.05331 0.24504 -0.07099
 C1677 C 0.03374 0.23869 -0.07984
 C1678 C 0.02991 0.24089 -0.10286
 C1679 C 0.04671 0.24850 -0.11662
 C1680 C 0.06603 0.25464 -0.10788
 C1681 C 0.09024 0.26072 -0.07622
 N1682 N 0.10541 0.26821 -0.09058
 N1683 N 0.12364 0.27600 -0.08326
 C1684 C 0.12762 0.27664 -0.06119
 N1685 N 0.11260 0.26887 -0.04670
 N1686 N 0.09425 0.26106 -0.05407
 C1687 C 0.14746 0.28681 -0.05344
 C1688 C 0.15369 0.28533 -0.03108
 C1689 C 0.17190 0.29615 -0.02399
 C1690 C 0.18392 0.30885 -0.03907
 C1691 C 0.17799 0.30988 -0.06143
 C1692 C 0.16007 0.29891 -0.06856
 H1693 H 0.05570 0.24343 -0.05325
 H1694 H 0.02196 0.23183 -0.06861
 H1695 H 0.04468 0.24992 -0.13444
 H1696 H 0.07816 0.26067 -0.11929
 H1697 H 0.14437 0.27607 -0.01906
 H1698 H 0.17618 0.29522 -0.00662
 H1699 H 0.18712 0.31943 -0.07339
 H1700 H 0.15582 0.30042 -0.08590
 C1701 C 0.45042 0.26604 0.08156
 C1702 C 0.47083 0.27382 0.07613
 C1703 C 0.48862 0.26655 0.08801
 C1704 C 0.48663 0.25103 0.10546
 C1705 C 0.46590 0.24375 0.11099
 C1706 C 0.44825 0.25082 0.09902
 C1707 C 0.43123 0.27442 0.07002
 N1708 N 0.41188 0.26552 0.07436
 N1709 N 0.39440 0.27356 0.06490
 C1710 C 0.39549 0.29090 0.05070
 N1711 N 0.41488 0.29972 0.04619
 N1712 N 0.43239 0.29164 0.05563
 C1713 C 0.37585 0.30037 0.04096
 C1714 C 0.37665 0.31958 0.02801
 C1715 C 0.35801 0.32892 0.01958
 C1716 C 0.33812 0.31925 0.02382
 C1717 C 0.33735 0.29991 0.03655
 C1718 C 0.35598 0.29059 0.04503
 H1719 H 0.47304 0.28579 0.06294
 H1720 H 0.50401 0.27338 0.08382
 H1721 H 0.46285 0.23313 0.12512
 H1722 H 0.43272 0.24483 0.10403
 H1723 H 0.39164 0.32761 0.02464
 H1724 H 0.35914 0.34400 0.01011
 H1725 H 0.32233 0.29189 0.03984
 H1726 H 0.35476 0.27573 0.05485
 C1727 C 0.94071 0.76393 0.57503
 C1728 C 0.95934 0.77615 0.57702
 C1729 C 0.97643 0.76810 0.58931
 C1730 C 0.97519 0.74791 0.60076
 C1731 C 0.95725 0.73484 0.59685
 C1732 C 0.94014 0.74288 0.58443
 C1733 C 0.92169 0.77365 0.56427
 N1734 N 0.90417 0.76155 0.56030
 N1735 N 0.88657 0.77081 0.55218
 C1736 C 0.88574 0.79257 0.54783
 N1737 N 0.90335 0.80457 0.55154
 N1738 N 0.92094 0.79532 0.55954
 C1739 C 0.86574 0.80332 0.54060
 C1740 C 0.86323 0.82595 0.54276
 C1741 C 0.84399 0.83613 0.53749
 C1742 C 0.82688 0.82401 0.52967
 C1743 C 0.82951 0.80150 0.52678
 C1744 C 0.84873 0.79120 0.53239
 H1745 H 0.96060 0.79220 0.56946
 H1746 H 0.99041 0.77814 0.59076
 H1747 H 0.95615 0.71842 0.60340
 H1748 H 0.92626 0.73276 0.58265
 H1749 H 0.87598 0.83578 0.54904
 H1750 H 0.84243 0.85355 0.53958
 H1751 H 0.81652 0.79184 0.52074
 H1752 H 0.85022 0.77376 0.53045
   
