data_POSCAR
  _audit_creation_date              2014-09-24
  _audit_creation_method            'ToBaCCo'
  _symmetry_space_group_name_H-M    'P1'
  _symmetry_Int_Tables_number       1
  _symmetry_cell_setting            triclinic
  loop_
  _symmetry_equiv_pos_as_xyz
 x,y,z
_cell_length_a 85.6383
_cell_length_b 85.6635
_cell_length_c 86.2559
_cell_angle_alpha 89.771900
_cell_angle_beta 90.104300
_cell_angle_gamma 89.800100
loop_
  _atom_site_label
  _atom_site_type_symbol
  _atom_site_fract_x
  _atom_site_fract_y
  _atom_site_fract_z
C1 C 0.40140 0.01186 0.26899
 H2 H 0.40169 0.02119 0.26050
 C3 C 0.41091 0.01259 0.28217
 H4 H 0.41856 0.02248 0.28385
 C5 C 0.39107 -0.01242 0.27727
 H6 H 0.38322 -0.02207 0.27547
 C7 C 0.40036 -0.01215 0.29059
 H8 H 0.39970 -0.02165 0.29889
 N9 N 0.39193 -0.00065 0.26665
 C10 C 0.38569 -0.00394 0.21644
 H11 H 0.37310 -0.00477 0.21576
 C12 C 0.39458 -0.00396 0.20288
 H13 H 0.38885 -0.00481 0.19171
 C14 C 0.40856 -0.00159 0.23178
 H15 H 0.41400 -0.00077 0.24305
 C16 C 0.41789 -0.00158 0.21850
 H17 H 0.43045 -0.00061 0.21959
 Zn18 Zn 0.37964 -0.00131 0.24827
 N19 N 0.39272 -0.00242 0.23052
 C20 C 0.36920 0.02739 0.23529
 N21 N 0.36739 0.01730 0.24740
 C22 C 0.35764 0.02077 0.25938
 C23 C 0.34910 0.03474 0.25934
 C24 C 0.36090 0.04144 0.23480
 C25 C 0.37457 -0.03344 0.24746
 C26 C 0.36630 -0.04745 0.24819
 C27 C 0.34236 -0.03259 0.25042
 C28 C 0.35112 -0.01883 0.24964
 N29 N 0.36697 -0.01951 0.24846
 H30 H 0.37731 0.02475 0.22610
 H31 H 0.35664 0.01274 0.26904
 H32 H 0.34143 0.03744 0.26894
 H33 H 0.36252 0.04940 0.22515
 H34 H 0.38715 -0.03365 0.24637
 H35 H 0.37258 -0.05844 0.24763
 H36 H 0.32977 -0.03189 0.25160
 H37 H 0.34526 -0.00766 0.25015
 C38 C 0.41082 -0.00259 0.20391
 C39 C 0.41046 0.00040 0.29301
 C40 C 0.35004 -0.04705 0.24983
 C41 C 0.35077 0.04518 0.24692
 C42 C 0.09723 0.01175 0.73013
 H43 H 0.09651 0.02117 0.73841
 C44 C 0.08790 0.01206 0.71680
 H45 H 0.07996 0.02173 0.71479
 C46 C 0.10840 -0.01240 0.72255
 H47 H 0.11650 -0.02185 0.72469
 C48 C 0.09932 -0.01254 0.70910
 H49 H 0.10037 -0.02215 0.70104
 N50 N 0.10700 -0.00053 0.73291
 C51 C 0.11202 -0.00335 0.78328
 H52 H 0.12460 -0.00406 0.78430
 C53 C 0.10277 -0.00334 0.79661
 H54 H 0.10823 -0.00404 0.80793
 C55 C 0.08952 -0.00136 0.76732
 H56 H 0.08436 -0.00070 0.75591
 C57 C 0.07985 -0.00132 0.78035
 H58 H 0.06730 -0.00048 0.77892
 Zn59 Zn 0.11884 -0.00089 0.75158
 N60 N 0.10533 -0.00201 0.76901
 C61 C 0.12857 0.02790 0.76446
 N62 N 0.13080 0.01779 0.75250
 C63 C 0.14086 0.02124 0.74077
 C64 C 0.14937 0.03517 0.74097
 C65 C 0.13682 0.04191 0.76509
 C66 C 0.12430 -0.03295 0.75305
 C67 C 0.13275 -0.04691 0.75246
 C68 C 0.15651 -0.03196 0.75027
 C69 C 0.14761 -0.01823 0.75090
 N70 N 0.13176 -0.01899 0.75196
 H71 H 0.12021 0.02528 0.77343
 H72 H 0.14220 0.01320 0.73122
 H73 H 0.15734 0.03783 0.73159
 H74 H 0.13490 0.04986 0.77465
 H75 H 0.11171 -0.03322 0.75401
 H76 H 0.12665 -0.05796 0.75301
 H77 H 0.16909 -0.03129 0.74912
 H78 H 0.15336 -0.00705 0.75031
 C79 C 0.08655 -0.00213 0.79513
 C80 C 0.08886 -0.00029 0.70627
 C81 C 0.14898 -0.04643 0.75088
 C82 C 0.14733 0.04559 0.75327
 C83 C 0.59796 0.51243 0.22988
 H84 H 0.59739 0.52173 0.23831
 C85 C 0.58867 0.51312 0.21654
 H86 H 0.58090 0.52296 0.21467
 C87 C 0.60874 0.48821 0.22194
 H88 H 0.61666 0.47859 0.22394
 C89 C 0.59968 0.48845 0.20847
 H90 H 0.60058 0.47896 0.20026
 N91 N 0.60752 0.49995 0.23248
 C92 C 0.61244 0.49631 0.28281
 H93 H 0.62501 0.49544 0.28383
 C94 C 0.60317 0.49622 0.29612
 H95 H 0.60860 0.49528 0.30744
 C96 C 0.58999 0.49881 0.26685
 H97 H 0.58485 0.49970 0.25544
 C98 C 0.58029 0.49876 0.27987
 H99 H 0.56776 0.49976 0.27843
 Zn100 Zn 0.61933 0.49913 0.25115
 N101 N 0.60578 0.49794 0.26855
 C102 C 0.62938 0.52763 0.26441
 N103 N 0.63153 0.51765 0.25234
 C104 C 0.64164 0.52113 0.24066
 C105 C 0.65026 0.53499 0.24102
 C106 C 0.63775 0.54156 0.26520
 C107 C 0.62435 0.46698 0.25217
 C108 C 0.63262 0.45292 0.25151
 C109 C 0.65660 0.46758 0.24966
 C110 C 0.64787 0.48141 0.25036
 N111 N 0.63200 0.48086 0.25130
 H112 H 0.62099 0.52499 0.27335
 H113 H 0.64290 0.51319 0.23102
 H114 H 0.65826 0.53768 0.23167
 H115 H 0.63589 0.54942 0.27484
 H116 H 0.61175 0.46687 0.25305
 H117 H 0.62637 0.44195 0.25192
 H118 H 0.66919 0.46809 0.24863
 H119 H 0.65377 0.49252 0.24994
 C120 C 0.58696 0.49764 0.29464
 C121 C 0.58944 0.50093 0.20581
 C122 C 0.64887 0.45320 0.25008
 C123 C 0.64829 0.54529 0.25342
 C124 C 0.90256 0.51180 0.77039
 H125 H 0.90296 0.52116 0.76194
 C126 C 0.91197 0.51243 0.78365
 H127 H 0.91964 0.52230 0.78540
 C128 C 0.89205 0.48753 0.77847
 H129 H 0.88416 0.47793 0.77656
 C130 C 0.90123 0.48770 0.79187
 H131 H 0.90042 0.47814 0.80010
 N132 N 0.89305 0.49934 0.76791
 C133 C 0.88703 0.49633 0.71765
 H134 H 0.87445 0.49550 0.71693
 C135 C 0.89597 0.49636 0.70412
 H136 H 0.89027 0.49554 0.69293
 C137 C 0.90985 0.49863 0.73308
 H138 H 0.91526 0.49941 0.74436
 C139 C 0.91923 0.49869 0.71982
 H140 H 0.93179 0.49966 0.72096
 Zn141 Zn 0.88086 0.49880 0.74946
 N142 N 0.89403 0.49780 0.73176
 C143 C 0.87043 0.52755 0.73658
 N144 N 0.86859 0.51740 0.74863
 C145 C 0.85876 0.52077 0.76057
 C146 C 0.85012 0.53469 0.76052
 C147 C 0.86204 0.54155 0.73609
 C148 C 0.87580 0.46666 0.74844
 C149 C 0.86751 0.45266 0.74906
 C150 C 0.84358 0.46750 0.75123
 C151 C 0.85234 0.48127 0.75056
 N152 N 0.86819 0.48060 0.74947
 H153 H 0.87859 0.52498 0.72742
 H154 H 0.85773 0.51270 0.77018
 H155 H 0.84237 0.53730 0.77008
 H156 H 0.86367 0.54955 0.72647
 H157 H 0.88839 0.46645 0.74743
 H158 H 0.87373 0.44164 0.74851
 H159 H 0.83100 0.46812 0.75235
 H160 H 0.84646 0.49243 0.75110
 C161 C 0.91221 0.49773 0.70521
 C162 C 0.91137 0.50019 0.79444
 C163 C 0.85126 0.45307 0.75061
 C164 C 0.85180 0.54518 0.74815
 C165 C 0.22979 0.39222 0.98744
 H166 H 0.23835 0.39238 0.97823
 C167 C 0.21612 0.40110 0.98604
 H168 H 0.21421 0.40821 0.97579
 C169 C 0.22150 0.38231 1.01176
 H170 H 0.22344 0.37468 1.02158
 C171 C 0.20768 0.39101 1.01082
 H172 H 0.19911 0.39018 1.02002
 N173 N 0.23223 0.38307 1.00015
 C174 C 0.28254 0.37387 1.00135
 H175 H 0.28237 0.36124 1.00163
 C176 C 0.29674 0.38178 1.00231
 H177 H 0.30755 0.37523 1.00323
 C178 C 0.26863 0.39784 1.00025
 H179 H 0.25764 0.40405 0.99974
 C180 C 0.28261 0.40622 1.00119
 H181 H 0.28234 0.41886 1.00125
 Zn182 Zn 0.25021 0.37001 1.00028
 N183 N 0.26886 0.38194 1.00028
 C184 C 0.26044 0.35742 0.97139
 N185 N 0.24898 0.35736 0.98232
 C186 C 0.23580 0.34874 0.98043
 C187 C 0.23385 0.33952 0.96724
 C188 C 0.25895 0.34836 0.95803
 C189 C 0.25239 0.36471 1.03226
 C190 C 0.25380 0.35604 1.04595
 C191 C 0.25203 0.33240 1.03089
 C192 C 0.25065 0.34151 1.01746
 N193 N 0.25077 0.35737 1.01839
 H194 H 0.27066 0.36461 0.97292
 H195 H 0.22677 0.34909 0.98917
 H196 H 0.22331 0.33271 0.96584
 H197 H 0.26809 0.34850 0.94936
 H198 H 0.25274 0.37733 1.03264
 H199 H 0.25514 0.36199 1.05693
 H200 H 0.25201 0.31978 1.03005
 H201 H 0.24976 0.33587 1.00633
 C202 C 0.29679 0.39810 1.00227
 C203 C 0.20492 0.40042 0.99780
 C204 C 0.25366 0.33974 1.04525
 C205 C 0.24552 0.33933 0.95594
 C206 C 0.76979 0.10785 0.98780
 H207 H 0.76132 0.10734 0.97849
 C208 C 0.78374 0.09938 0.98673
 H209 H 0.78594 0.09225 0.97661
 C210 C 0.77757 0.11829 1.01202
 H211 H 0.77534 0.12600 1.02165
 C212 C 0.79166 0.11003 1.01141
 H213 H 0.80010 0.11128 1.02070
 N214 N 0.76697 0.11709 1.00030
 C215 C 0.71651 0.12570 1.00068
 H216 H 0.71661 0.13833 1.00092
 C217 C 0.70233 0.11772 1.00139
 H218 H 0.69148 0.12422 1.00209
 C219 C 0.73055 0.10181 0.99983
 H220 H 0.74158 0.09567 0.99949
 C221 C 0.71660 0.09336 1.00054
 H222 H 0.71692 0.08072 1.00059
 Zn223 Zn 0.74876 0.12985 0.99998
 N224 N 0.73024 0.11771 0.99984
 C225 C 0.73866 0.14210 0.97080
 N226 N 0.74999 0.14245 0.98188
 C227 C 0.76304 0.15129 0.98004
 C228 C 0.76498 0.16042 0.96672
 C229 C 0.74014 0.15106 0.95730
 C230 C 0.74618 0.13515 1.03185
 C231 C 0.74474 0.14378 1.04549
 C232 C 0.74656 0.16747 1.03031
 C233 C 0.74797 0.15840 1.01694
 N234 N 0.74786 0.14253 1.01795
 H235 H 0.72855 0.13474 0.97229
 H236 H 0.77198 0.15116 0.98891
 H237 H 0.77542 0.16738 0.96534
 H238 H 0.73111 0.15067 0.94850
 H239 H 0.74586 0.12253 1.03230
 H240 H 0.74340 0.13780 1.05649
 H241 H 0.74662 0.18009 1.02941
 H242 H 0.74892 0.16406 1.00578
 C243 C 0.70236 0.10140 1.00135
 C244 C 0.79485 0.10058 0.99859
 C245 C 0.74492 0.16009 1.04471
 C246 C 0.75343 0.16029 0.95524
 C247 C 0.26990 0.60875 0.48735
 H248 H 0.26140 0.60824 0.47807
 C249 C 0.28382 0.60025 0.48626
 H250 H 0.28601 0.59307 0.47618
 C251 C 0.27777 0.61924 0.51152
 H252 H 0.27560 0.62696 0.52114
 C253 C 0.29184 0.61093 0.51089
 H254 H 0.30033 0.61216 0.52012
 N255 N 0.26714 0.61803 0.49984
 C256 C 0.21668 0.62664 0.50040
 H257 H 0.21678 0.63927 0.50061
 C258 C 0.20251 0.61865 0.50119
 H259 H 0.19166 0.62515 0.50192
 C260 C 0.23073 0.60275 0.49956
 H261 H 0.24176 0.59661 0.49919
 C262 C 0.21678 0.59429 0.50034
 H263 H 0.21711 0.58165 0.50043
 Zn264 Zn 0.24893 0.63079 0.49956
 N265 N 0.23041 0.61865 0.49952
 C266 C 0.23868 0.64300 0.47041
 N267 N 0.25008 0.64335 0.48144
 C268 C 0.26311 0.65220 0.47952
 C269 C 0.26496 0.66136 0.46622
 C270 C 0.24008 0.65199 0.45692
 C271 C 0.24646 0.63618 0.53143
 C272 C 0.24502 0.64486 0.54503
 C273 C 0.24672 0.66850 0.52977
 C274 C 0.24814 0.65938 0.51643
 N275 N 0.24808 0.64351 0.51750
 H276 H 0.22859 0.63564 0.47195
 H277 H 0.27210 0.65208 0.48835
 H278 H 0.27538 0.66835 0.46479
 H279 H 0.23099 0.65161 0.44818
 H280 H 0.24618 0.62356 0.53192
 H281 H 0.24372 0.63892 0.55606
 H282 H 0.24672 0.68111 0.52882
 H283 H 0.24904 0.66501 0.50524
 C284 C 0.20254 0.60233 0.50120
 C285 C 0.29495 0.60144 0.49809
 C286 C 0.24513 0.66116 0.54419
 C287 C 0.25334 0.66125 0.45481
 C288 C 0.72828 0.89076 0.48761
 H289 H 0.73680 0.89101 0.47838
 C290 C 0.71456 0.89958 0.48632
 H291 H 0.71257 0.90672 0.47611
 C292 C 0.72014 0.88067 0.51192
 H293 H 0.72215 0.87300 0.52169
 C294 C 0.70627 0.88930 0.51108
 H295 H 0.69774 0.88838 0.52030
 N296 N 0.73081 0.88154 0.50027
 C297 C 0.78115 0.87259 0.50118
 H298 H 0.78104 0.85996 0.50139
 C299 C 0.79532 0.88055 0.50213
 H300 H 0.80616 0.87405 0.50296
 C301 C 0.76713 0.89650 0.50028
 H302 H 0.75611 0.90266 0.49986
 C303 C 0.78107 0.90493 0.50121
 H304 H 0.78075 0.91758 0.50135
 Zn305 Zn 0.74885 0.86858 0.50025
 N306 N 0.76743 0.88060 0.50022
 C307 C 0.75900 0.85625 0.47124
 N308 N 0.74761 0.85603 0.48223
 C309 C 0.73447 0.84733 0.48036
 C310 C 0.73250 0.83819 0.46712
 C311 C 0.75749 0.84727 0.45782
 C312 C 0.75124 0.86314 0.53218
 C313 C 0.75284 0.85442 0.54582
 C314 C 0.75116 0.83083 0.53065
 C315 C 0.74959 0.83999 0.51728
 N316 N 0.74959 0.85586 0.51829
 H317 H 0.76918 0.86349 0.47275
 H318 H 0.72549 0.84756 0.48916
 H319 H 0.72200 0.83132 0.46573
 H320 H 0.76657 0.84754 0.44910
 H321 H 0.75149 0.87576 0.53262
 H322 H 0.75422 0.86032 0.55682
 H323 H 0.75125 0.81822 0.52974
 H324 H 0.74867 0.83440 0.50612
 C325 C 0.79529 0.89688 0.50219
 C326 C 0.70341 0.89877 0.49812
 C327 C 0.75285 0.83811 0.54503
 C328 C 0.74411 0.83817 0.45575
 C329 C 0.01273 0.27022 0.39020
 H330 H 0.02333 0.26331 0.39002
 C331 C 0.01199 0.28373 0.39913
 H332 H 0.02202 0.28727 0.40591
 C333 C -0.01319 0.27433 0.38124
 H334 H -0.02285 0.27080 0.37402
 C335 C -0.01442 0.28793 0.39001
 H336 H -0.02507 0.29478 0.38963
 N337 N 0.00021 0.26575 0.38159
 C338 C 0.00634 0.21603 0.37456
 H339 H 0.00581 0.21558 0.36204
 C340 C 0.00771 0.20228 0.38315
 H341 H 0.00827 0.19115 0.37723
 C342 C 0.00576 0.23108 0.39761
 H343 H 0.00464 0.24228 0.40319
 C344 C 0.00711 0.21760 0.40665
 H345 H 0.00716 0.21849 0.41918
 Zn346 Zn 0.00262 0.24782 0.36932
 N347 N 0.00549 0.23004 0.38187
 C348 C 0.03264 0.24131 0.35738
 N349 N 0.02013 0.25112 0.35662
 C350 C 0.02028 0.26415 0.34754
 C351 C 0.03338 0.26766 0.33860
 C352 C 0.04594 0.24439 0.34863
 C353 C -0.02863 0.24074 0.36522
 C354 C -0.04248 0.23796 0.35721
 C355 C -0.02870 0.24221 0.33311
 C356 C -0.01508 0.24491 0.34158
 N357 N -0.01538 0.24436 0.35735
 H358 H 0.03246 0.23128 0.36498
 H359 H 0.01027 0.27189 0.34742
 H360 H 0.03351 0.27811 0.33148
 H361 H 0.05592 0.23661 0.34939
 H362 H -0.02842 0.24015 0.37775
 H363 H -0.05305 0.23532 0.36356
 H364 H -0.02850 0.24287 0.32056
 H365 H -0.00434 0.24743 0.33555
 C366 C 0.00806 0.20310 0.39933
 C367 C -0.00171 0.29263 0.39900
 C368 C -0.04251 0.23879 0.34104
 C369 C 0.04631 0.25769 0.33922
 C370 C 0.00716 0.72850 0.11319
 H371 H 0.01767 0.73547 0.11288
 C372 C 0.00632 0.71470 0.10475
 H373 H 0.01619 0.71098 0.09783
 C374 C -0.01844 0.72458 0.12295
 H375 H -0.02792 0.72832 0.13031
 C376 C -0.01976 0.71068 0.11468
 H377 H -0.03031 0.70379 0.11556
 N378 N -0.00516 0.73320 0.12197
 C379 C 0.00092 0.78311 0.12728
 H380 H 0.00067 0.78396 0.13979
 C381 C 0.00234 0.79656 0.11825
 H382 H 0.00322 0.80786 0.12378
 C383 C -0.00022 0.76737 0.10472
 H384 H -0.00150 0.75601 0.09951
 C385 C 0.00117 0.78053 0.09526
 H386 H 0.00109 0.77929 0.08276
 Zn387 Zn -0.00248 0.75151 0.13360
 N388 N -0.00015 0.76889 0.12043
 C389 C 0.02796 0.75831 0.14422
 N390 N 0.01554 0.74858 0.14578
 C391 C 0.01615 0.73583 0.15522
 C392 C 0.02968 0.73249 0.16367
 C393 C 0.04168 0.75541 0.15245
 C394 C -0.03360 0.75869 0.13851
 C395 C -0.04718 0.76169 0.14686
 C396 C -0.03248 0.75821 0.17064
 C397 C -0.01915 0.75528 0.16180
 N398 N -0.02004 0.75533 0.14604
 H399 H 0.02742 0.76811 0.13633
 H400 H 0.00619 0.72813 0.15597
 H401 H 0.03018 0.72225 0.17106
 H402 H 0.05160 0.76310 0.15103
 H403 H -0.03385 0.75888 0.12596
 H404 H -0.05798 0.76410 0.14071
 H405 H -0.03174 0.75791 0.18318
 H406 H -0.00817 0.75295 0.16753
 C407 C 0.00249 0.79522 0.10212
 C408 C -0.00725 0.70573 0.10553
 C409 C -0.04662 0.76135 0.16307
 C410 C 0.04255 0.74236 0.16219
 C411 C 0.50829 0.22801 0.61151
 H412 H 0.51893 0.23479 0.61147
 C413 C 0.50719 0.21462 0.60246
 H414 H 0.51698 0.21102 0.59537
 C415 C 0.48262 0.22418 0.62109
 H416 H 0.47319 0.22779 0.62858
 C417 C 0.48102 0.21069 0.61222
 H418 H 0.47033 0.20399 0.61279
 N419 N 0.49606 0.23259 0.62046
 C420 C 0.50260 0.28225 0.62732
 H421 H 0.50236 0.28273 0.63985
 C422 C 0.50404 0.29595 0.61868
 H423 H 0.50496 0.30708 0.62453
 C424 C 0.50134 0.26719 0.60431
 H425 H 0.49998 0.25600 0.59876
 C426 C 0.50275 0.28062 0.59523
 H427 H 0.50262 0.27974 0.58271
 Zn428 Zn 0.49892 0.25048 0.63268
 N429 N 0.50144 0.26824 0.62005
 C430 C 0.52933 0.25673 0.64369
 N431 N 0.51685 0.24702 0.64485
 C432 C 0.51731 0.23401 0.65396
 C433 C 0.53069 0.23045 0.66255
 C434 C 0.54291 0.25361 0.65208
 C435 C 0.46785 0.25785 0.63771
 C436 C 0.45427 0.26071 0.64612
 C437 C 0.46881 0.25627 0.66980
 C438 C 0.48215 0.25349 0.66094
 N439 N 0.48134 0.25409 0.64519
 H440 H 0.52891 0.26674 0.63607
 H441 H 0.50731 0.22634 0.65440
 H442 H 0.53105 0.22004 0.66971
 H443 H 0.55285 0.26132 0.65102
 H444 H 0.46765 0.25848 0.62518
 H445 H 0.44349 0.26345 0.64008
 H446 H 0.46942 0.25555 0.68233
 H447 H 0.49308 0.25085 0.66664
 C448 C 0.50413 0.29509 0.60251
 C449 C 0.49342 0.20592 0.60284
 C450 C 0.45476 0.25981 0.66228
 C451 C 0.54359 0.24034 0.66153
 C452 C 0.51345 0.77068 0.88657
 H453 H 0.52421 0.76408 0.88576
 C454 C 0.51256 0.78362 0.89628
 H455 H 0.52266 0.78705 0.90303
 C456 C 0.48722 0.77457 0.87844
 H457 H 0.47749 0.77119 0.87124
 C458 C 0.48584 0.78759 0.88800
 H459 H 0.47501 0.79416 0.88824
 N460 N 0.50085 0.76637 0.87800
 C461 C 0.50776 0.71725 0.86812
 H462 H 0.50693 0.71747 0.85560
 C463 C 0.50944 0.70306 0.87593
 H464 H 0.50993 0.69227 0.86944
 C465 C 0.50754 0.73100 0.89196
 H466 H 0.50642 0.74186 0.89817
 C467 C 0.50920 0.71706 0.90022
 H468 H 0.50949 0.71722 0.91278
 Zn469 Zn 0.50338 0.74921 0.86470
 N470 N 0.50692 0.73083 0.87619
 C471 C 0.53318 0.74400 0.85180
 N472 N 0.52049 0.75358 0.85179
 C473 C 0.52020 0.76707 0.84340
 C474 C 0.53307 0.77133 0.83443
 C475 C 0.54625 0.74781 0.84300
 C476 C 0.47228 0.74146 0.86104
 C477 C 0.45833 0.73852 0.85328
 C478 C 0.47123 0.74449 0.82905
 C479 C 0.48498 0.74731 0.83728
 N480 N 0.48516 0.74595 0.85301
 H481 H 0.53335 0.73358 0.85887
 H482 H 0.51005 0.77460 0.84387
 H483 H 0.53287 0.78215 0.82789
 H484 H 0.55640 0.74021 0.84319
 H485 H 0.47289 0.74023 0.87352
 H486 H 0.44806 0.73513 0.85977
 H487 H 0.47105 0.74574 0.81655
 H488 H 0.49545 0.75053 0.83111
 C489 C 0.51010 0.70300 0.89211
 C490 C 0.49864 0.79213 0.89697
 C491 C 0.45781 0.74012 0.83717
 C492 C 0.54621 0.76161 0.83432
 C493 C -0.23734 0.65322 0.98059
 H494 H -0.22801 0.65347 0.98906
 C495 C -0.23663 0.66278 0.96743
 H496 H -0.22672 0.67043 0.96574
 C497 C -0.26167 0.64297 0.97239
 H498 H -0.27134 0.63514 0.97422
 C499 C -0.26140 0.65231 0.95909
 H500 H -0.27093 0.65172 0.95083
 N501 N -0.24988 0.64378 0.98298
 C502 C -0.25329 0.63768 1.03318
 H503 H -0.25419 0.62511 1.03392
 C504 C -0.25327 0.64661 1.04670
 H505 H -0.25416 0.64087 1.05789
 C506 C -0.25081 0.66049 1.01772
 H507 H -0.24996 0.66588 1.00643
 C508 C -0.25075 0.66986 1.03095
 H509 H -0.24971 0.68241 1.02975
 Zn510 Zn -0.25063 0.63154 1.00139
 N511 N -0.25171 0.64467 1.01908
 C512 C -0.22205 0.62096 1.01445
 N513 N -0.23210 0.61919 1.00233
 C514 C -0.22866 0.60937 0.99042
 C515 C -0.21478 0.60067 0.99056
 C516 C -0.20809 0.61250 1.01504
 C517 C -0.28279 0.62665 1.00224
 C518 C -0.29683 0.61844 1.00148
 C519 C -0.28209 0.59445 0.99930
 C520 C -0.26829 0.60313 1.00011
 N521 N -0.26889 0.61897 1.00126
 H522 H -0.22465 0.62912 1.02359
 H523 H -0.23666 0.60840 0.98075
 H524 H -0.21212 0.59292 0.98103
 H525 H -0.20017 0.61408 1.02471
 H526 H -0.28295 0.63923 1.00330
 H527 H -0.30783 0.62471 1.00199
 H528 H -0.28154 0.58188 0.99813
 H529 H -0.25715 0.59720 0.99962
 C530 C -0.25180 0.66284 1.04559
 C531 C -0.24885 0.66241 0.95665
 C532 C -0.29650 0.60221 0.99985
 C533 C -0.20440 0.60227 1.00301
 C534 C -0.23703 0.34686 0.52059
 H535 H -0.22771 0.34642 0.51213
 C536 C -0.23638 0.33781 0.53328
 H537 H -0.22654 0.33004 0.53510
 C538 C -0.26133 0.35824 0.52818
 H539 H -0.27094 0.36620 0.52630
 C540 C -0.26111 0.34850 0.54233
 H541 H -0.27069 0.34938 0.55049
 N542 N -0.25017 0.35708 0.51798
 C543 C -0.25379 0.36231 0.46767
 H544 H -0.25458 0.37488 0.46668
 C545 C -0.25395 0.35310 0.45434
 H546 H -0.25487 0.35857 0.44303
 C547 C -0.25144 0.33979 0.48359
 H548 H -0.25056 0.33461 0.49499
 C549 C -0.25156 0.33015 0.47056
 H550 H -0.25064 0.31761 0.47197
 Zn551 Zn -0.25092 0.36903 0.49936
 N552 N -0.25220 0.35559 0.48192
 C553 C -0.22233 0.37897 0.48608
 N554 N -0.23230 0.38110 0.49818
 C555 C -0.22874 0.39109 0.50990
 C556 C -0.21481 0.39961 0.50957
 C557 C -0.20833 0.38724 0.48530
 C558 C -0.28307 0.37435 0.49844
 C559 C -0.29705 0.38274 0.49915
 C560 C -0.28215 0.40657 0.50097
 C561 C -0.26840 0.39771 0.50023
 N562 N -0.26911 0.38186 0.49928
 H563 H -0.22503 0.37068 0.47710
 H564 H -0.23667 0.39234 0.51956
 H565 H -0.21205 0.40751 0.51895
 H566 H -0.20047 0.38540 0.47564
 H567 H -0.28330 0.36176 0.49755
 H568 H -0.30807 0.37657 0.49878
 H569 H -0.28147 0.41916 0.50200
 H570 H -0.25723 0.40349 0.50061
 C571 C -0.25265 0.33688 0.45580
 C572 C -0.24922 0.33856 0.54471
 C573 C -0.29662 0.39900 0.50059
 C574 C -0.20451 0.39766 0.49713
 C575 C 0.26251 -0.15287 0.01971
 H576 H 0.27174 -0.15338 0.01118
 C577 C 0.26325 -0.16184 0.03246
 H578 H 0.27310 -0.16961 0.03423
 C579 C 0.23829 -0.14140 0.02746
 H580 H 0.22868 -0.13344 0.02560
 C581 C 0.23863 -0.15105 0.04166
 H582 H 0.22912 -0.15011 0.04989
 N583 N 0.24935 -0.14265 0.01716
 C584 C 0.24527 -0.13785 -0.03314
 H585 H 0.24451 -0.12528 -0.03425
 C586 C 0.24499 -0.14719 -0.04638
 H587 H 0.24401 -0.14182 -0.05774
 C588 C 0.24768 -0.16023 -0.01703
 H589 H 0.24863 -0.16530 -0.00560
 C590 C 0.24744 -0.16999 -0.02997
 H591 H 0.24835 -0.18252 -0.02845
 Zn592 Zn 0.24845 -0.13085 -0.00154
 N593 N 0.24696 -0.14444 -0.01885
 C594 C 0.27697 -0.12119 -0.01517
 N595 N 0.26711 -0.11888 -0.00301
 C596 C 0.27084 -0.10879 0.00858
 C597 C 0.28483 -0.10037 0.00806
 C598 C 0.29102 -0.11303 -0.01614
 C599 C 0.21632 -0.12544 -0.00220
 C600 C 0.20236 -0.11701 -0.00142
 C601 C 0.21734 -0.09321 0.00011
 C602 C 0.23106 -0.10211 -0.00071
 N603 N 0.23030 -0.11797 -0.00154
 H604 H 0.27413 -0.12956 -0.02405
 H605 H 0.26300 -0.10739 0.01830
 H606 H 0.28772 -0.09240 0.01734
 H607 H 0.29878 -0.11503 -0.02585
 H608 H 0.21605 -0.13804 -0.00301
 H609 H 0.19132 -0.12316 -0.00165
 H610 H 0.21806 -0.08062 0.00106
 H611 H 0.24225 -0.09635 -0.00046
 C612 C 0.24628 -0.16340 -0.04479
 C613 C 0.25052 -0.16100 0.04399
 C614 C 0.20284 -0.10075 -0.00008
 C615 C 0.29501 -0.10253 -0.00444
 C616 C 0.26089 1.15203 0.48045
 H617 H 0.27028 1.15245 0.48885
 C618 C 0.26144 1.16145 0.46718
 H619 H 0.27127 1.16916 0.46533
 C620 C 0.23662 1.14147 0.47251
 H621 H 0.22703 1.13356 0.47448
 C622 C 0.23672 1.15066 0.45911
 H623 H 0.22715 1.14988 0.45091
 N624 N 0.24846 1.14250 0.48301
 C625 C 0.24555 1.13663 0.53329
 H626 H 0.24474 1.12405 0.53409
 C627 C 0.24562 1.14562 0.54677
 H628 H 0.24486 1.13996 0.55800
 C629 C 0.24775 1.15939 0.51772
 H630 H 0.24848 1.16475 0.50640
 C631 C 0.24785 1.16881 0.53091
 H632 H 0.24881 1.18137 0.52970
 Zn633 Zn 0.24798 1.13036 0.50151
 N634 N 0.24696 1.14357 0.51914
 C635 C 0.27675 1.12002 0.51436
 N636 N 0.26660 1.11815 0.50233
 C637 C 0.26998 1.10830 0.49043
 C638 C 0.28390 1.09967 0.49049
 C639 C 0.29075 1.11163 0.51487
 C640 C 0.21585 1.12520 0.50265
 C641 C 0.20188 1.11686 0.50206
 C642 C 0.21683 1.09299 0.49994
 C643 C 0.23056 1.10180 0.50057
 N644 N 0.22982 1.11764 0.50162
 H645 H 0.27417 1.12820 0.52349
 H646 H 0.26190 1.10725 0.48084
 H647 H 0.28652 1.09190 0.48096
 H648 H 0.29874 1.11328 0.52446
 H649 H 0.21559 1.13779 0.50362
 H650 H 0.19084 1.12303 0.50260
 H651 H 0.21749 1.08041 0.49885
 H652 H 0.24174 1.09596 0.50004
 C653 C 0.24697 1.16185 0.54557
 C654 C 0.24917 1.16084 0.45647
 C655 C 0.20236 1.10062 0.50054
 C656 C 0.29438 1.10137 0.50284
 C657 C 0.14129 0.47997 0.26166
 H658 H 0.14153 0.48855 0.27083
 C659 C 0.15008 0.46625 0.26307
 H660 H 0.15720 0.46431 0.27330
 C661 C 0.13126 0.47170 0.23742
 H662 H 0.12361 0.47367 0.22762
 C663 C 0.13986 0.45782 0.23838
 H664 H 0.13895 0.44925 0.22923
 N665 N 0.13211 0.48245 0.24898
 C666 C 0.12310 0.53280 0.24765
 H667 H 0.11047 0.53266 0.24735
 C668 C 0.13105 0.54698 0.24676
 H669 H 0.12452 0.55781 0.24586
 C670 C 0.14704 0.51884 0.24882
 H671 H 0.15323 0.50784 0.24934
 C672 C 0.15546 0.53280 0.24794
 H673 H 0.16810 0.53252 0.24794
 Zn674 Zn 0.11913 0.50049 0.24883
 N675 N 0.13114 0.51910 0.24874
 C676 C 0.10669 0.51083 0.27774
 N677 N 0.10650 0.49937 0.26685
 C678 C 0.09779 0.48625 0.26885
 C679 C 0.08862 0.48438 0.28211
 C680 C 0.09768 0.50942 0.29117
 C681 C 0.11381 0.50262 0.21685
 C682 C 0.10515 0.50397 0.20316
 C683 C 0.08148 0.50230 0.21830
 C684 C 0.09060 0.50097 0.23171
 N685 N 0.10647 0.50108 0.23075
 H686 H 0.11395 0.52099 0.27613
 H687 H 0.09804 0.47720 0.26014
 H688 H 0.08175 0.47389 0.28360
 H689 H 0.09793 0.51857 0.29980
 H690 H 0.12643 0.50295 0.21644
 H691 H 0.11117 0.50525 0.19218
 H692 H 0.06885 0.50227 0.21925
 H693 H 0.08496 0.50013 0.24287
 C694 C 0.14737 0.54700 0.24687
 C695 C 0.14929 0.45502 0.25137
 C696 C 0.08881 0.50385 0.20388
 C697 C 0.08857 0.49607 0.29338
 C698 C -0.14075 1.01944 0.26257
 H699 H -0.14120 1.01086 0.27179
 C700 C -0.14925 1.03334 0.26382
 H701 H -0.15637 1.03542 0.27398
 C702 C -0.13039 1.02756 0.23837
 H703 H -0.12272 1.02547 0.22868
 C704 C -0.13871 1.04161 0.23918
 H705 H -0.13754 1.05019 0.23000
 N706 N -0.13153 1.01682 0.25000
 C707 C -0.12304 0.96639 0.24930
 H708 H -0.11041 0.96642 0.24911
 C709 C -0.13110 0.95227 0.24851
 H710 H -0.12467 0.94138 0.24780
 C711 C -0.14687 0.98055 0.25010
 H712 H -0.15296 0.99161 0.25045
 C713 C -0.15540 0.96666 0.24932
 H714 H -0.16804 0.96705 0.24922
 Zn715 Zn -0.11878 0.99862 0.25016
 N716 N -0.13097 0.98015 0.25016
 C717 C -0.10668 0.98829 0.27932
 N718 N -0.10626 0.99969 0.26828
 C719 C -0.09745 1.01273 0.27021
 C720 C -0.08842 1.01462 0.28357
 C721 C -0.09781 0.98972 0.29287
 C722 C -0.11330 0.99638 0.21827
 C723 C -0.10457 0.99498 0.20467
 C724 C -0.08097 0.99645 0.22002
 C725 C -0.09015 0.99783 0.23333
 N726 N -0.10602 0.99787 0.23222
 H727 H -0.11402 0.97819 0.27777
 H728 H -0.09754 1.02173 0.26136
 H729 H -0.08149 1.02507 0.28502
 H730 H -0.09826 0.98065 0.30164
 H731 H -0.12592 0.99617 0.21775
 H732 H -0.11051 0.99378 0.19364
 H733 H -0.06836 0.99637 0.22104
 H734 H -0.08458 0.99862 0.24454
 C735 C -0.14743 0.95239 0.24849
 C736 C -0.14813 1.04458 0.25207
 C737 C -0.08825 0.99498 0.20555
 C738 C -0.08862 1.00302 0.29501
 C739 C 0.35802 0.51922 -0.23757
 H740 H 0.35763 0.51075 -0.22824
 C741 C 0.34946 0.53310 -0.23646
 H742 H 0.34237 0.53528 -0.22630
 C743 C 0.36825 0.52707 -0.26190
 H744 H 0.37589 0.52489 -0.27160
 C745 C 0.35988 0.54110 -0.26124
 H746 H 0.36098 0.54957 -0.27053
 N747 N 0.36720 0.51647 -0.25015
 C748 C 0.37633 0.46528 -0.25055
 H749 H 0.38896 0.46541 -0.25068
 C750 C 0.36870 0.45170 -0.25132
 H751 H 0.37518 0.44085 -0.25202
 C752 C 0.35263 0.48006 -0.24971
 H753 H 0.34645 0.49107 -0.24949
 C754 C 0.34371 0.46532 -0.25048
 H755 H 0.33105 0.46573 -0.25054
 Zn756 Zn 0.37998 0.49829 -0.24989
 N757 N 0.36785 0.47978 -0.24967
 C758 C 0.39231 0.48812 -0.22079
 N759 N 0.39261 0.49949 -0.23186
 C760 C 0.40142 0.51255 -0.23004
 C761 C 0.41060 0.51446 -0.21678
 C762 C 0.40132 0.48958 -0.20734
 C763 C 0.38527 0.49573 -0.28177
 C764 C 0.39392 0.49420 -0.29540
 C765 C 0.41760 0.49590 -0.28024
 C766 C 0.40851 0.49741 -0.26688
 N767 N 0.39264 0.49739 -0.26788
 H768 H 0.38497 0.47801 -0.22226
 H769 H 0.40125 0.52152 -0.23891
 H770 H 0.41755 0.52491 -0.21543
 H771 H 0.40098 0.48051 -0.19855
 H772 H 0.37265 0.49547 -0.28221
 H773 H 0.38795 0.49285 -0.30640
 H774 H 0.43022 0.49586 -0.27934
 H775 H 0.41416 0.49834 -0.25572
 C776 C 0.35144 0.45170 -0.25132
 C777 C 0.35049 0.54419 -0.24835
 C778 C 0.41023 0.49425 -0.29462
 C779 C 0.41053 0.50287 -0.20532
 C780 C 0.64295 -0.02074 -0.23801
 H781 H 0.64323 -0.01217 -0.22884
 C782 C 0.65139 -0.03388 -0.23675
 H783 H 0.65856 -0.03588 -0.22656
 C784 C 0.63254 -0.02820 -0.26260
 H785 H 0.62481 -0.02626 -0.27233
 C786 C 0.64173 -0.04282 -0.26173
 H787 H 0.64081 -0.05124 -0.27104
 N788 N 0.63326 -0.01803 -0.25142
 C789 C 0.62399 0.03226 -0.25206
 H790 H 0.61136 0.03208 -0.25232
 C791 C 0.63189 0.04648 -0.25284
 H792 H 0.62530 0.05727 -0.25361
 C793 C 0.64798 0.01836 -0.25113
 H794 H 0.65419 0.00736 -0.25075
 C795 C 0.65636 0.03234 -0.25190
 H796 H 0.66901 0.03205 -0.25196
 Zn797 Zn 0.62016 -0.00008 -0.25131
 N798 N 0.63207 0.01857 -0.25115
 C799 C 0.60772 0.00977 -0.22225
 N800 N 0.60754 -0.00153 -0.23330
 C801 C 0.59889 -0.01471 -0.23148
 C802 C 0.58976 -0.01682 -0.21823
 C803 C 0.59874 0.00811 -0.20881
 C804 C 0.61485 0.00257 -0.28325
 C805 C 0.60620 0.00416 -0.29692
 C806 C 0.58253 0.00209 -0.28187
 C807 C 0.59162 0.00053 -0.26847
 N808 N 0.60749 0.00072 -0.26939
 H809 H 0.61493 0.01998 -0.22371
 H810 H 0.59916 -0.02362 -0.24033
 H811 H 0.58292 -0.02736 -0.21689
 H812 H 0.59898 0.01713 -0.20004
 H813 H 0.62747 0.00297 -0.28363
 H814 H 0.61217 0.00570 -0.30788
 H815 H 0.56991 0.00203 -0.28103
 H816 H 0.58596 -0.00055 -0.25734
 C817 C 0.64823 0.04655 -0.25280
 C818 C 0.65068 -0.04563 -0.24924
 C819 C 0.58989 0.00397 -0.29622
 C820 C 0.58969 -0.00530 -0.20679
 C821 C 0.02098 0.26250 0.86201
 H822 H 0.01420 0.27318 0.86223
 C823 C 0.03418 0.26144 0.85265
 H824 H 0.03763 0.27132 0.84557
 C825 C 0.02501 0.23666 0.87127
 H826 H 0.02157 0.22715 0.87875
 C827 C 0.03831 0.23511 0.86207
 H828 H 0.04502 0.22437 0.86239
 N829 N 0.01660 0.25017 0.87096
 C830 C -0.03291 0.25683 0.87914
 H831 H -0.03310 0.25654 0.89168
 C832 C -0.04683 0.25811 0.87083
 H833 H -0.05785 0.25885 0.87695
 C834 C -0.01835 0.25570 0.85576
 H835 H -0.00728 0.25440 0.84994
 C836 C -0.03202 0.25696 0.84702
 H837 H -0.03143 0.25676 0.83447
 Zn838 Zn -0.00099 0.25296 0.88367
 N839 N -0.01905 0.25575 0.87153
 C840 C -0.00696 0.28323 0.89512
 N841 N 0.00277 0.27066 0.89591
 C842 C 0.01602 0.27089 0.90465
 C843 C 0.01986 0.28415 0.91318
 C844 C -0.00356 0.29669 0.90347
 C845 C -0.00833 0.22191 0.88854
 C846 C -0.01115 0.20824 0.89685
 C847 C -0.00610 0.22230 0.92060
 C848 C -0.00339 0.23574 0.91182
 N849 N -0.00432 0.23522 0.89608
 H850 H -0.01718 0.28298 0.88779
 H851 H 0.02368 0.26082 0.90479
 H852 H 0.03049 0.28433 0.92001
 H853 H -0.01127 0.30672 0.90268
 H854 H -0.00923 0.22194 0.87602
 H855 H -0.01412 0.19762 0.89076
 H856 H -0.00515 0.22268 0.93312
 H857 H -0.00055 0.24654 0.91759
 C858 C -0.04635 0.25813 0.85465
 C859 C 0.04289 0.24762 0.85270
 C860 C -0.00994 0.20844 0.91300
 C861 C 0.00999 0.29715 0.91250
 C862 C 0.47946 0.25813 0.13891
 H863 H 0.48678 0.26840 0.13897
 C864 C 0.46615 0.25757 0.14818
 H865 H 0.46317 0.26742 0.15546
 C866 C 0.47411 0.23288 0.12903
 H867 H 0.47709 0.22342 0.12133
 C868 C 0.46069 0.23184 0.13812
 H869 H 0.45341 0.22155 0.13750
 N870 N 0.48322 0.24585 0.12969
 C871 C 0.53296 0.25006 0.12146
 H872 H 0.53306 0.24987 0.10892
 C873 C 0.54696 0.25094 0.12966
 H874 H 0.55794 0.25147 0.12346
 C875 C 0.51854 0.24937 0.14493
 H876 H 0.50747 0.24850 0.15083
 C877 C 0.53229 0.25023 0.15359
 H878 H 0.53178 0.25018 0.16614
 Zn879 Zn 0.50093 0.24802 0.11703
 N880 N 0.51913 0.24949 0.12916
 C881 C 0.50841 0.27825 0.10629
 N882 N 0.49807 0.26628 0.10517
 C883 C 0.48495 0.26751 0.09632
 C884 C 0.48192 0.28116 0.08793
 C885 C 0.50583 0.29207 0.09810
 C886 C 0.50668 0.21673 0.11146
 C887 C 0.50885 0.20320 0.10283
 C888 C 0.50464 0.21828 0.07941
 C889 C 0.50255 0.23157 0.08850
 N890 N 0.50339 0.23049 0.10423
 H891 H 0.51852 0.27723 0.11372
 H892 H 0.47679 0.25790 0.09591
 H893 H 0.47144 0.28211 0.08094
 H894 H 0.51406 0.30159 0.09910
 H895 H 0.50752 0.21631 0.12397
 H896 H 0.51127 0.19223 0.10867
 H897 H 0.50380 0.21912 0.06690
 H898 H 0.50031 0.24269 0.08298
 C899 C 0.54659 0.25107 0.14585
 C900 C 0.45671 0.24432 0.14775
 C901 C 0.50775 0.20399 0.08668
 C902 C 0.49247 0.29352 0.08889
 C903 C -0.02198 0.75743 0.64064
 H904 H -0.01555 0.76829 0.64054
 C905 C -0.03456 0.75589 0.64964
 H906 H -0.03834 0.76550 0.65686
 C907 C -0.02453 0.73157 0.63060
 H908 H -0.02084 0.72234 0.62295
 C909 C -0.03847 0.72934 0.64034
 H910 H -0.04477 0.71839 0.63982
 N911 N -0.01694 0.74473 0.63100
 C912 C 0.03214 0.75343 0.62251
 H913 H 0.03225 0.75324 0.60997
 C914 C 0.04602 0.75546 0.63071
 H915 H 0.05692 0.75685 0.62451
 C916 C 0.01784 0.75149 0.64600
 H917 H 0.00689 0.74965 0.65189
 C918 C 0.03147 0.75347 0.65464
 H919 H 0.03098 0.75327 0.66719
 Zn920 Zn 0.00040 0.74843 0.61819
 N921 N 0.01842 0.75165 0.63023
 C922 C 0.00501 0.77915 0.60726
 N923 N -0.00421 0.76630 0.60626
 C924 C -0.01744 0.76630 0.59748
 C925 C -0.02171 0.77959 0.58903
 C926 C 0.00117 0.79264 0.59901
 C927 C 0.00900 0.71776 0.61277
 C928 C 0.01210 0.70435 0.60423
 C929 C 0.00617 0.71876 0.58076
 C930 C 0.00318 0.73195 0.58976
 N931 N 0.00438 0.73111 0.60548
 H932 H 0.01521 0.77909 0.61463
 H933 H -0.02471 0.75600 0.59717
 H934 H -0.03226 0.77956 0.58208
 H935 H 0.00854 0.80286 0.59990
 H936 H 0.01008 0.71755 0.62527
 H937 H 0.01548 0.69367 0.61013
 H938 H 0.00493 0.71937 0.56827
 H939 H -0.00014 0.74277 0.58419
 C940 C 0.04564 0.75548 0.64690
 C941 C -0.04327 0.74104 0.64944
 C942 C 0.01056 0.70485 0.58811
 C943 C -0.01230 0.79285 0.58985
 C944 C 0.52063 0.76234 0.36064
 H945 H 0.51388 0.77302 0.36103
 C946 C 0.53367 0.76130 0.35105
 H947 H 0.53703 0.77120 0.34396
 C948 C 0.52480 0.73646 0.36974
 H949 H 0.52149 0.72693 0.37725
 C950 C 0.53793 0.73493 0.36031
 H951 H 0.54465 0.72419 0.36049
 N952 N 0.51641 0.74998 0.36963
 C953 C 0.46710 0.75658 0.37893
 H954 H 0.46722 0.75614 0.39147
 C955 C 0.45298 0.75792 0.37098
 H956 H 0.44212 0.75856 0.37737
 C957 C 0.48109 0.75574 0.35520
 H958 H 0.49202 0.75454 0.34911
 C959 C 0.46721 0.75707 0.34680
 H960 H 0.46749 0.75702 0.33424
 Zn961 Zn 0.49908 0.75270 0.38271
 N962 N 0.48077 0.75561 0.37098
 C963 C 0.49333 0.78285 0.39453
 N964 N 0.50308 0.77030 0.39504
 C965 C 0.51646 0.77045 0.40359
 C966 C 0.52038 0.78360 0.41225
 C967 C 0.49680 0.79620 0.40301
 C968 C 0.49177 0.72162 0.38744
 C969 C 0.48907 0.70789 0.39568
 C970 C 0.49461 0.72170 0.41946
 C971 C 0.49721 0.73522 0.41075
 N972 N 0.49596 0.73485 0.39503
 H973 H 0.48300 0.78267 0.38734
 H974 H 0.52414 0.76039 0.40351
 H975 H 0.53109 0.78372 0.41896
 H976 H 0.48905 0.80621 0.40247
 H977 H 0.49063 0.72178 0.37494
 H978 H 0.48594 0.69733 0.38954
 H979 H 0.49580 0.72196 0.43196
 H980 H 0.50018 0.74595 0.41657
 C981 C 0.45307 0.75813 0.35478
 C982 C 0.54237 0.74747 0.35091
 C983 C 0.49058 0.70793 0.41180
 C984 C 0.51046 0.79658 0.41189
 Zr985 Zr 0.01166 -0.01301 1.02124
 O986 O 0.02659 -0.00495 1.03908
 O987 O 0.00988 -0.03682 1.02661
 O988 O 0.00110 -0.01493 1.04330
 O989 O 0.04085 -0.01631 0.99362
 O990 O -0.02272 -0.00326 1.04007
 O991 O 0.03469 -0.02165 1.01885
 O992 O -0.00736 -0.04598 1.00859
 O993 O -0.01188 -0.01756 1.01651
 O994 O 0.01096 -0.02297 0.99916
 O995 O 0.00022 0.00871 1.02273
 O996 O 0.02238 0.00336 1.00632
 Zr997 Zr -0.01437 0.01081 0.97971
 Zr998 Zr -0.02307 0.00422 1.01681
 Zr999 Zr 0.02038 -0.00641 0.98413
 Zr1000 Zr -0.01247 -0.02669 0.99414
 O1001 O 0.03983 0.00762 0.97834
 O1002 O -0.03402 -0.03560 1.00232
 O1003 O -0.00290 -0.01098 0.97800
 O1004 O -0.02481 -0.00556 0.99467
 O1005 O -0.01375 0.02095 1.00175
 O1006 O 0.00914 0.01521 0.98457
 C1007 C 0.00164 -0.04764 1.02043
 C1008 C 0.04410 -0.02163 1.00721
 C1009 C -0.01233 -0.01036 1.04825
 O1010 O -0.04352 -0.00892 1.02097
 O1011 O -0.04251 0.01653 1.00801
 O1012 O -0.03672 0.02094 0.98253
 C1013 C -0.04569 0.02198 0.99446
 O1014 O 0.02637 0.02735 1.02493
 Zr1015 Zr 0.00980 0.02447 1.00680
 O1016 O -0.01284 0.03470 0.97452
 O1017 O -0.02756 0.02349 1.03144
 O1018 O 0.00035 0.04099 1.02248
 O1019 O 0.03034 0.03487 0.99783
 O1020 O 0.00271 0.04418 0.99384
 C1021 C -0.00594 0.04580 0.98174
 O1022 O -0.03024 0.00299 0.96258
 O1023 O 0.02604 -0.02649 0.97103
 O1024 O -0.00457 0.01115 0.95724
 O1025 O 0.01883 -0.00142 0.96028
 O1026 O -0.00282 -0.04438 0.97990
 O1027 O -0.02687 -0.03017 0.97436
 C1028 C 0.00835 0.00549 0.95204
 H1029 H 0.01691 -0.03287 0.99849
 H1030 H -0.03583 -0.00742 0.99174
 H1031 H 0.01397 0.02248 0.97704
 H1032 H 0.00111 0.01309 1.03330
 H1033 H -0.03422 -0.04691 0.99996
 H1034 H -0.04977 -0.00302 1.02865
 H1035 H -0.03788 0.02165 1.03629
 H1036 H 0.00593 0.05097 1.02082
 H1037 H -0.00885 -0.05405 0.98178
 H1038 H 0.03629 -0.02447 0.96610
 H1039 H 0.04611 0.00162 0.97078
 H1040 H 0.03009 0.04606 1.00067
 H1041 H -0.03109 -0.04091 0.97456
 H1042 H -0.03297 0.01213 0.95600
 H1043 H 0.02945 -0.01412 1.04557
 H1044 H 0.02872 0.03859 1.02618
 Zr1045 Zr 0.51218 0.48694 0.52103
 O1046 O 0.52712 0.49517 0.53878
 O1047 O 0.51038 0.46319 0.52665
 O1048 O 0.50163 0.48521 0.54310
 O1049 O 0.54134 0.48331 0.49342
 O1050 O 0.47781 0.49687 0.53978
 O1051 O 0.53520 0.47825 0.51872
 O1052 O 0.49310 0.45386 0.50875
 O1053 O 0.48863 0.48237 0.51636
 O1054 O 0.51145 0.47675 0.49906
 O1055 O 0.50076 0.50868 0.52232
 O1056 O 0.52290 0.50314 0.50594
 Zr1057 Zr 0.48615 0.51036 0.47930
 Zr1058 Zr 0.47746 0.50416 0.51646
 Zr1059 Zr 0.52088 0.49314 0.48385
 Zr1060 Zr 0.48801 0.47301 0.49409
 O1061 O 0.54035 0.50708 0.47792
 O1062 O 0.46645 0.46420 0.50236
 O1063 O 0.49759 0.48854 0.47778
 O1064 O 0.47569 0.49416 0.49442
 O1065 O 0.48680 0.52072 0.50123
 O1066 O 0.50967 0.51479 0.48410
 C1067 C 0.50211 0.45231 0.52060
 C1068 C 0.54459 0.47813 0.50707
 C1069 C 0.48819 0.48982 0.54802
 O1070 O 0.45699 0.49110 0.52075
 O1071 O 0.45804 0.51643 0.50756
 O1072 O 0.46382 0.52056 0.48203
 C1073 C 0.45487 0.52175 0.49396
 O1074 O 0.52694 0.52731 0.52432
 Zr1075 Zr 0.51035 0.52427 0.50623
 O1076 O 0.48771 0.53419 0.47387
 O1077 O 0.47302 0.52356 0.53093
 O1078 O 0.50093 0.54095 0.52175
 O1079 O 0.53090 0.53456 0.49715
 O1080 O 0.50328 0.54385 0.49308
 C1081 C 0.49463 0.54536 0.48097
 O1082 O 0.47026 0.50239 0.46226
 O1083 O 0.52650 0.47293 0.47094
 O1084 O 0.49594 0.51049 0.45682
 O1085 O 0.51933 0.49792 0.45996
 O1086 O 0.49764 0.45515 0.48004
 O1087 O 0.47361 0.46934 0.47435
 C1088 C 0.50885 0.50477 0.45167
 H1089 H 0.51738 0.46683 0.49848
 H1090 H 0.46467 0.49228 0.49151
 H1091 H 0.51450 0.52197 0.47649
 H1092 H 0.50166 0.51315 0.53285
 H1093 H 0.46624 0.45287 0.50012
 H1094 H 0.45075 0.49708 0.52837
 H1095 H 0.46270 0.52178 0.53580
 H1096 H 0.50651 0.55091 0.51999
 H1097 H 0.49159 0.44551 0.48203
 H1098 H 0.53674 0.47488 0.46599
 H1099 H 0.54662 0.50100 0.47041
 H1100 H 0.53066 0.54578 0.49989
 H1101 H 0.46937 0.45860 0.47465
 H1102 H 0.46753 0.51146 0.45558
 H1103 H 0.52998 0.48606 0.54536
 H1104 H 0.52929 0.53855 0.52547
 Zr1105 Zr 0.48782 1.01526 0.51910
 O1106 O 0.47315 1.00612 0.53664
 O1107 O 0.48899 1.03889 0.52521
 O1108 O 0.49839 1.01661 0.54123
 O1109 O 0.45848 1.01891 0.49154
 O1110 O 0.52254 1.00580 0.53766
 O1111 O 0.46459 1.02344 0.51693
 O1112 O 0.50589 1.04920 0.50748
 O1113 O 0.51121 1.02064 0.51453
 O1114 O 0.48817 1.02606 0.49732
 O1115 O 0.49985 0.99382 0.51996
 O1116 O 0.47749 0.99918 0.50370
 Zr1117 Zr 0.51432 0.99378 0.47691
 Zr1118 Zr 0.52298 0.99918 0.51421
 Zr1119 Zr 0.47913 1.00983 0.48180
 Zr1120 Zr 0.51147 1.03062 0.49244
 O1121 O 0.46002 0.99551 0.47569
 O1122 O 0.53280 1.03980 0.50088
 O1123 O 0.50225 1.01529 0.47582
 O1124 O 0.52439 1.00983 0.49236
 O1125 O 0.51405 0.98282 0.49864
 O1126 O 0.49097 0.98851 0.48162
 C1127 C 0.49691 1.05016 0.51937
 C1128 C 0.45516 1.02366 0.50527
 C1129 C 0.51198 1.01226 0.54605
 O1130 O 0.54312 1.01268 0.51868
 O1131 O 0.54261 0.98755 0.50509
 O1132 O 0.53689 0.98405 0.47946
 C1133 C 0.54585 0.98265 0.49140
 O1134 O 0.47411 0.97444 0.52148
 Zr1135 Zr 0.49065 0.97841 0.50356
 O1136 O 0.51358 0.97006 0.47109
 O1137 O 0.52803 0.97955 0.52834
 O1138 O 0.50048 0.96162 0.51889
 O1139 O 0.47050 0.96768 0.49413
 O1140 O 0.49851 0.95938 0.49019
 C1141 C 0.50721 0.95847 0.47809
 O1142 O 0.52987 1.00276 0.46005
 O1143 O 0.47292 1.03020 0.46922
 O1144 O 0.50438 0.99386 0.45445
 O1145 O 0.48066 1.00565 0.45783
 O1146 O 0.50128 1.04861 0.47876
 O1147 O 0.52567 1.03524 0.47278
 C1148 C 0.49126 0.99929 0.44941
 H1149 H 0.48197 1.03583 0.49693
 H1150 H 0.53535 1.01208 0.48949
 H1151 H 0.48634 0.98137 0.47389
 H1152 H 0.49912 0.98903 0.53039
 H1153 H 0.53268 1.05120 0.49887
 H1154 H 0.54956 1.00666 0.52618
 H1155 H 0.53832 0.98148 0.53323
 H1156 H 0.49518 0.95155 0.51693
 H1157 H 0.50708 1.05835 0.48093
 H1158 H 0.46271 1.02810 0.46424
 H1159 H 0.45353 1.00161 0.46830
 H1160 H 0.47113 0.95639 0.49665
 H1161 H 0.52961 1.04608 0.47330
 H1162 H 0.53286 0.99396 0.45321
 H1163 H 0.47007 1.01495 0.54341
 H1164 H 0.47201 0.96311 0.52237
 Zr1165 Zr -0.01114 0.51569 1.01981
 O1166 O -0.02586 0.50636 1.03721
 O1167 O -0.00988 0.53922 1.02626
 O1168 O -0.00059 0.51674 1.04197
 O1169 O -0.04044 0.51976 0.99227
 O1170 O 0.02355 0.50595 1.03829
 O1171 O -0.03435 0.52396 1.01772
 O1172 O 0.00710 0.54970 1.00870
 O1173 O 0.01226 0.52108 1.01532
 O1174 O -0.01075 0.52678 0.99817
 O1175 O 0.00085 0.49422 1.02042
 O1176 O -0.02148 0.49983 1.00420
 Zr1177 Zr 0.01536 0.49469 0.97739
 Zr1178 Zr 0.02400 0.49961 1.01475
 Zr1179 Zr -0.01980 0.51076 0.98244
 Zr1180 Zr 0.01256 0.53135 0.99336
 O1181 O -0.03895 0.49656 0.97615
 O1182 O 0.03394 0.54037 1.00186
 O1183 O 0.00333 0.51624 0.97654
 O1184 O 0.02544 0.51053 0.99304
 O1185 O 0.01505 0.48346 0.99898
 O1186 O -0.00801 0.48941 0.98202
 C1187 C -0.00186 0.55052 1.02062
 C1188 C -0.04376 0.52435 1.00605
 C1189 C 0.01299 0.51232 1.04675
 O1190 O 0.04415 0.51302 1.01943
 O1191 O 0.04364 0.48810 1.00551
 O1192 O 0.03793 0.48493 0.97983
 C1193 C 0.04689 0.48339 0.99175
 O1194 O -0.02492 0.47488 1.02169
 Zr1195 Zr -0.00836 0.47904 1.00383
 O1196 O 0.01459 0.47105 0.97128
 O1197 O 0.02900 0.47979 1.02864
 O1198 O 0.00143 0.46204 1.01896
 O1199 O -0.02853 0.46846 0.99426
 O1200 O -0.00054 0.46017 0.99022
 C1201 C 0.00818 0.45939 0.97813
 O1202 O 0.03091 0.50385 0.96063
 O1203 O -0.02594 0.53129 0.97010
 O1204 O 0.00542 0.49502 0.95492
 O1205 O -0.01828 0.50683 0.95843
 O1206 O 0.00238 0.54955 0.97996
 O1207 O 0.02673 0.53619 0.97373
 C1208 C -0.00770 0.50052 0.94994
 H1209 H -0.01692 0.53657 0.99791
 H1210 H 0.03640 0.51280 0.99021
 H1211 H -0.01264 0.48237 0.97420
 H1212 H 0.00010 0.48930 1.03080
 H1213 H 0.03384 0.55179 0.99999
 H1214 H 0.05058 0.50690 1.02686
 H1215 H 0.03929 0.48164 1.03356
 H1216 H -0.00389 0.45201 1.01687
 H1217 H 0.00820 0.55925 0.98228
 H1218 H -0.03615 0.52927 0.96508
 H1219 H -0.04542 0.50276 0.96882
 H1220 H -0.02792 0.45715 0.99665
 H1221 H 0.03066 0.54703 0.97435
 H1222 H 0.03390 0.49514 0.95368
 H1223 H -0.02891 0.51510 1.04410
 H1224 H -0.02703 0.46354 1.02244
 Zr1225 Zr -0.01223 0.48513 0.47832
 O1226 O -0.02726 0.49334 0.46053
 O1227 O -0.00995 0.46145 0.47268
 O1228 O -0.00157 0.48373 0.45627
 O1229 O -0.04143 0.48104 0.50583
 O1230 O 0.02206 0.49554 0.45970
 O1231 O -0.03511 0.47619 0.48057
 O1232 O 0.00741 0.45218 0.49065
 O1233 O 0.01138 0.48073 0.48310
 O1234 O -0.01143 0.47479 0.50031
 O1235 O -0.00115 0.50698 0.47707
 O1236 O -0.02326 0.50113 0.49336
 Zr1237 Zr 0.01327 0.50847 0.52016
 Zr1238 Zr 0.02220 0.50261 0.48303
 Zr1239 Zr -0.02118 0.49099 0.51547
 Zr1240 Zr 0.01204 0.47121 0.50538
 O1241 O -0.04090 0.50471 0.52127
 O1242 O 0.03381 0.46267 0.49730
 O1243 O 0.00215 0.48654 0.52165
 O1244 O 0.02403 0.49247 0.50509
 O1245 O 0.01255 0.51898 0.49821
 O1246 O -0.01030 0.51274 0.51525
 C1247 C -0.00148 0.45063 0.47873
 C1248 C -0.04454 0.47591 0.49218
 C1249 C 0.01181 0.48850 0.45141
 O1250 O 0.04288 0.48974 0.47882
 O1251 O 0.04139 0.51497 0.49201
 O1252 O 0.03547 0.51884 0.51752
 C1253 C 0.04444 0.52020 0.50563
 O1254 O -0.02765 0.52537 0.47500
 Zr1255 Zr -0.01103 0.52237 0.49311
 O1256 O 0.01139 0.53226 0.52550
 O1257 O 0.02641 0.52217 0.46860
 O1258 O -0.00187 0.53922 0.47755
 O1259 O -0.03173 0.53246 0.50216
 O1260 O -0.00422 0.54194 0.50620
 C1261 C 0.00440 0.54344 0.51831
 O1262 O 0.02916 0.50048 0.53730
 O1263 O -0.02650 0.47065 0.52839
 O1264 O 0.00333 0.50843 0.54258
 O1265 O -0.01984 0.49567 0.53936
 O1266 O 0.00260 0.45314 0.51933
 O1267 O 0.02636 0.46753 0.52523
 C1268 C -0.00953 0.50259 0.54769
 H1269 H -0.01720 0.46481 0.50086
 H1270 H 0.03507 0.49066 0.50804
 H1271 H -0.01526 0.51985 0.52282
 H1272 H -0.00207 0.51153 0.46654
 H1273 H 0.03419 0.45132 0.49956
 H1274 H 0.04906 0.49584 0.47123
 H1275 H 0.03678 0.52052 0.46377
 H1276 H -0.00762 0.54912 0.47928
 H1277 H 0.00881 0.44357 0.51737
 H1278 H -0.03680 0.47247 0.53330
 H1279 H -0.04711 0.49852 0.52876
 H1280 H -0.03164 0.54370 0.49940
 H1281 H 0.03073 0.45681 0.52499
 H1282 H 0.03174 0.50953 0.54397
 H1283 H -0.02993 0.48426 0.45393
 H1284 H -0.03021 0.53659 0.47384
 Zr1285 Zr 0.48825 -0.01691 -0.02231
 O1286 O 0.47342 -0.00914 -0.04047
 O1287 O 0.49072 -0.04069 -0.02746
 O1288 O 0.49920 -0.01861 -0.04420
 O1289 O 0.45870 -0.02062 0.00488
 O1290 O 0.52270 -0.00655 -0.04069
 O1291 O 0.46537 -0.02587 -0.02021
 O1292 O 0.50789 -0.04953 -0.00910
 O1293 O 0.51182 -0.02106 -0.01717
 O1294 O 0.48883 -0.02685 -0.00014
 O1295 O 0.49920 0.00500 -0.02380
 O1296 O 0.47693 -0.00071 -0.00770
 Zr1297 Zr 0.51305 0.00736 0.01942
 Zr1298 Zr 0.52250 0.00090 -0.01748
 Zr1299 Zr 0.47879 -0.01044 0.01461
 Zr1300 Zr 0.51226 -0.03017 0.00529
 O1301 O 0.45893 0.00326 0.01998
 O1302 O 0.53417 -0.03872 -0.00242
 O1303 O 0.50207 -0.01462 0.02115
 O1304 O 0.52411 -0.00884 0.00477
 O1305 O 0.51255 0.01748 -0.00271
 O1306 O 0.48953 0.01137 0.01415
 C1307 C 0.49914 -0.05136 -0.02108
 C1308 C 0.45577 -0.02596 -0.00872
 C1309 C 0.51260 -0.01380 -0.04899
 O1310 O 0.54330 -0.01193 -0.02122
 O1311 O 0.54151 0.01352 -0.00848
 O1312 O 0.53522 0.01785 0.01687
 C1313 C 0.54434 0.01903 0.00507
 O1314 O 0.47266 0.02320 -0.02658
 Zr1315 Zr 0.48901 0.02061 -0.00817
 O1316 O 0.51088 0.03122 0.02436
 O1317 O 0.52678 0.02024 -0.03218
 O1318 O 0.49832 0.03727 -0.02384
 O1319 O 0.46808 0.03066 0.00039
 O1320 O 0.49541 0.04044 0.00473
 C1321 C 0.50383 0.04221 0.01694
 O1322 O 0.52881 -0.00018 0.03688
 O1323 O 0.47342 -0.03061 0.02778
 O1324 O 0.50285 0.00760 0.04173
 O1325 O 0.47981 -0.00537 0.03843
 O1326 O 0.50277 -0.04802 0.01950
 O1327 O 0.52640 -0.03341 0.02534
 C1328 C 0.48998 0.00175 0.04677
 H1329 H 0.48310 -0.03684 0.00052
 H1330 H 0.53512 -0.01052 0.00789
 H1331 H 0.48440 0.01856 0.02154
 H1332 H 0.49838 0.00936 -0.03442
 H1333 H 0.53459 -0.05003 0.00004
 H1334 H 0.54954 -0.00593 -0.02883
 H1335 H 0.53722 0.01857 -0.03685
 H1336 H 0.49248 0.04716 -0.02236
 H1337 H 0.50906 -0.05759 0.01779
 H1338 H 0.46305 -0.02877 0.03253
 H1339 H 0.45266 -0.00285 0.02749
 H1340 H 0.46811 0.04185 -0.00255
 H1341 H 0.53084 -0.04409 0.02533
 H1342 H 0.53122 0.00901 0.04343
 H1343 H 0.47089 -0.01837 -0.04692
 H1344 H 0.47007 0.03439 -0.02797
 Zr1345 Zr 0.51213 0.51343 -0.02049
 O1346 O 0.52718 0.50434 -0.03772
 O1347 O 0.51028 0.53690 -0.02718
 O1348 O 0.50167 0.51426 -0.04270
 O1349 O 0.54111 0.51823 0.00718
 O1350 O 0.47785 0.50289 -0.03906
 O1351 O 0.53509 0.52216 -0.01837
 O1352 O 0.49286 0.54710 -0.00989
 O1353 O 0.48854 0.51831 -0.01623
 O1354 O 0.51125 0.52460 0.00100
 O1355 O 0.50077 0.49170 -0.02094
 O1356 O 0.52282 0.49788 -0.00462
 Zr1357 Zr 0.48595 0.49199 0.02200
 Zr1358 Zr 0.47744 0.49658 -0.01548
 Zr1359 Zr 0.52066 0.50886 0.01699
 Zr1360 Zr 0.48778 0.52866 0.00560
 O1361 O 0.54016 0.49515 0.02365
 O1362 O 0.46622 0.53715 -0.00321
 O1363 O 0.49732 0.51382 0.02266
 O1364 O 0.47553 0.50755 0.00610
 O1365 O 0.48674 0.48067 0.00055
 O1366 O 0.50951 0.48726 0.01758
 C1367 C 0.50192 0.54806 -0.02172
 C1368 C 0.54441 0.52279 -0.00665
 C1369 C 0.48825 0.50954 -0.04751
 O1370 O 0.45692 0.50949 -0.02045
 O1371 O 0.45805 0.48472 -0.00623
 O1372 O 0.46368 0.48173 0.01951
 C1373 C 0.45483 0.48001 0.00756
 O1374 O 0.52702 0.47290 -0.02189
 Zr1375 Zr 0.51032 0.47681 -0.00410
 O1376 O 0.48752 0.46841 0.02848
 O1377 O 0.47313 0.47660 -0.02916
 O1378 O 0.50102 0.45949 -0.01896
 O1379 O 0.53084 0.46683 0.00560
 O1380 O 0.50321 0.45786 0.00984
 C1381 C 0.49450 0.45691 0.02191
 O1382 O 0.46998 0.50082 0.03853
 O1383 O 0.52610 0.52960 0.02908
 O1384 O 0.49568 0.49272 0.04453
 O1385 O 0.51904 0.50506 0.04104
 O1386 O 0.49730 0.54710 0.01890
 O1387 O 0.47328 0.53327 0.02503
 C1388 C 0.50857 0.49857 0.04953
 H1389 H 0.51715 0.53452 0.00119
 H1390 H 0.46448 0.50959 0.00882
 H1391 H 0.51433 0.48039 0.02552
 H1392 H 0.50173 0.48677 -0.03125
 H1393 H 0.46597 0.54858 -0.00149
 H1394 H 0.45074 0.50321 -0.02787
 H1395 H 0.46283 0.47820 -0.03418
 H1396 H 0.50661 0.44959 -0.01671
 H1397 H 0.49125 0.55667 0.01642
 H1398 H 0.53633 0.52784 0.03420
 H1399 H 0.54638 0.50154 0.03094
 H1400 H 0.53063 0.45549 0.00335
 H1401 H 0.46904 0.54401 0.02423
 H1402 H 0.46723 0.49206 0.04557
 H1403 H 0.53004 0.51313 -0.04468
 H1404 H 0.52939 0.46160 -0.02253
 Zr1405 Zr 0.01120 1.01177 0.48079
 O1406 O 0.02609 1.00294 0.46329
 O1407 O 0.00972 1.03546 0.47477
 O1408 O 0.00073 1.01333 0.45862
 O1409 O 0.04036 1.01527 0.50849
 O1410 O -0.02328 1.00229 0.46201
 O1411 O 0.03430 1.02009 0.48310
 O1412 O -0.00743 1.04542 0.49245
 O1413 O -0.01228 1.01693 0.48526
 O1414 O 0.01059 1.02231 0.50260
 O1415 O -0.00052 0.99026 0.47978
 O1416 O 0.02168 0.99557 0.49617
 Zr1417 Zr -0.01521 0.98959 0.52275
 Zr1418 Zr -0.02376 0.99539 0.48543
 Zr1419 Zr 0.01978 1.00595 0.51809
 Zr1420 Zr -0.01279 1.02664 0.50739
 O1421 O 0.03904 0.99167 0.52427
 O1422 O -0.03422 1.03578 0.49890
 O1423 O -0.00344 1.01117 0.52398
 O1424 O -0.02542 1.00576 0.50732
 O1425 O -0.01468 0.97889 0.50098
 O1426 O 0.00824 0.98455 0.51815
 C1427 C 0.00159 1.04660 0.48061
 C1428 C 0.04367 1.02023 0.49479
 C1429 C -0.01276 1.00894 0.45371
 O1430 O -0.04405 1.00881 0.48087
 O1431 O -0.04332 0.98360 0.49442
 O1432 O -0.03767 0.97981 0.52005
 C1433 C -0.04658 0.97855 0.50808
 O1434 O 0.02549 0.97107 0.47831
 Zr1435 Zr 0.00880 0.97472 0.49616
 O1436 O -0.01416 0.96580 0.52848
 O1437 O -0.02847 0.97587 0.47124
 O1438 O -0.00070 0.95804 0.48072
 O1439 O 0.02906 0.96402 0.50566
 O1440 O 0.00116 0.95547 0.50942
 C1441 C -0.00759 0.95434 0.52146
 O1442 O -0.03097 0.99822 0.53958
 O1443 O 0.02569 1.02621 0.53076
 O1444 O -0.00542 0.98954 0.54527
 O1445 O 0.01815 1.00155 0.54204
 O1446 O -0.00292 1.04453 0.52118
 O1447 O -0.02714 1.03092 0.52701
 C1448 C 0.00758 0.99506 0.55039
 H1449 H 0.01665 1.03212 0.50306
 H1450 H -0.03642 1.00792 0.51014
 H1451 H 0.01292 0.97735 0.52588
 H1452 H 0.00033 0.98560 0.46933
 H1453 H -0.03427 1.04715 0.50097
 H1454 H -0.05036 1.00284 0.47331
 H1455 H -0.03876 0.97779 0.46629
 H1456 H 0.00473 0.94798 0.48267
 H1457 H -0.00884 1.05426 0.51902
 H1458 H 0.03590 1.02411 0.53579
 H1459 H 0.04540 0.99772 0.53172
 H1460 H 0.02861 0.95276 0.50309
 H1461 H -0.03122 1.04174 0.52653
 H1462 H -0.03387 0.98932 0.54637
 H1463 H 0.02907 1.01187 0.45657
 H1464 H 0.02776 0.95977 0.47740
 Zr1465 Zr 0.73783 0.26144 0.22930
 O1466 O 0.74632 0.27643 0.21167
 O1467 O 0.71422 0.25941 0.22322
 O1468 O 0.73660 0.25086 0.20724
 O1469 O 0.73347 0.29058 0.25675
 O1470 O 0.74831 0.22711 0.21083
 O1471 O 0.72892 0.28438 0.23140
 O1472 O 0.70468 0.24203 0.24096
 O1473 O 0.73332 0.23787 0.23397
 O1474 O 0.72720 0.26066 0.25109
 O1475 O 0.75967 0.25016 0.22842
 O1476 O 0.75366 0.27227 0.24464
 Zr1477 Zr 0.76058 0.23559 0.27151
 Zr1478 Zr 0.75517 0.22685 0.23427
 Zr1479 Zr 0.74324 0.27020 0.26656
 Zr1480 Zr 0.72351 0.23721 0.25607
 O1481 O 0.75692 0.28977 0.27265
 O1482 O 0.71502 0.21554 0.24784
 O1483 O 0.73866 0.24690 0.27262
 O1484 O 0.74474 0.22503 0.25614
 O1485 O 0.77138 0.23628 0.24976
 O1486 O 0.76496 0.25913 0.26671
 C1487 C 0.70331 0.25098 0.22903
 C1488 C 0.72852 0.29378 0.24302
 C1489 C 0.74135 0.23744 0.20245
 O1490 O 0.74232 0.20629 0.22983
 O1491 O 0.76738 0.20752 0.24344
 O1492 O 0.77095 0.21332 0.26903
 C1493 C 0.77244 0.20438 0.25715
 O1494 O 0.77818 0.27645 0.22668
 Zr1495 Zr 0.77488 0.25984 0.24475
 O1496 O 0.78430 0.23727 0.27733
 O1497 O 0.77488 0.22251 0.22015
 O1498 O 0.79193 0.25052 0.22954
 O1499 O 0.78489 0.28044 0.25396
 O1500 O 0.79426 0.25288 0.25825
 C1501 C 0.79558 0.24423 0.27040
 O1502 O 0.75235 0.21970 0.28847
 O1503 O 0.72273 0.27567 0.27910
 O1504 O 0.76027 0.24544 0.29395
 O1505 O 0.74761 0.26873 0.29052
 O1506 O 0.70526 0.24679 0.26968
 O1507 O 0.71954 0.22289 0.27585
 C1508 C 0.75439 0.25832 0.29896
 H1509 H 0.71722 0.26652 0.25146
 H1510 H 0.74287 0.21400 0.25905
 H1511 H 0.77198 0.26401 0.27442
 H1512 H 0.76434 0.25107 0.21797
 H1513 H 0.70364 0.21526 0.24989
 H1514 H 0.74849 0.20008 0.22233
 H1515 H 0.77326 0.21218 0.21528
 H1516 H 0.80182 0.25616 0.23145
 H1517 H 0.69570 0.24067 0.26753
 H1518 H 0.72451 0.28594 0.28406
 H1519 H 0.75064 0.29601 0.28003
 H1520 H 0.79617 0.28026 0.25141
 H1521 H 0.70882 0.21864 0.27542
 H1522 H 0.76131 0.21702 0.29531
 H1523 H 0.73734 0.27921 0.20491
 H1524 H 0.78943 0.27886 0.22571
 Zr1525 Zr 0.76606 0.73862 0.73084
 O1526 O 0.75709 0.72379 0.71340
 O1527 O 0.78979 0.73960 0.72500
 O1528 O 0.76773 0.74892 0.70859
 O1529 O 0.76919 0.70958 0.75882
 O1530 O 0.75697 0.77315 0.71172
 O1531 O 0.77411 0.71539 0.73341
 O1532 O 0.79995 0.75661 0.74266
 O1533 O 0.77150 0.76203 0.73516
 O1534 O 0.77656 0.73916 0.75274
 O1535 O 0.74469 0.75074 0.72959
 O1536 O 0.74971 0.72854 0.74619
 Zr1537 Zr 0.74413 0.76569 0.77243
 Zr1538 Zr 0.75009 0.77391 0.73509
 Zr1539 Zr 0.76007 0.73038 0.76818
 Zr1540 Zr 0.78118 0.76249 0.75736
 O1541 O 0.74554 0.71142 0.77437
 O1542 O 0.79058 0.78366 0.74871
 O1543 O 0.76556 0.75352 0.77392
 O1544 O 0.76044 0.77551 0.75704
 O1545 O 0.73346 0.76523 0.75058
 O1546 O 0.73880 0.74232 0.76797
 C1547 C 0.80104 0.74749 0.73090
 C1548 C 0.77414 0.70609 0.74519
 C1549 C 0.76347 0.76245 0.70353
 O1550 O 0.76376 0.79391 0.73048
 O1551 O 0.73846 0.79372 0.74382
 O1552 O 0.73457 0.78829 0.76948
 C1553 C 0.73339 0.79714 0.75742
 O1554 O 0.72521 0.72506 0.72821
 Zr1555 Zr 0.72900 0.74181 0.74592
 O1556 O 0.72031 0.76517 0.77796
 O1557 O 0.73065 0.77891 0.72071
 O1558 O 0.71247 0.75148 0.73023
 O1559 O 0.71801 0.72186 0.75554
 O1560 O 0.70982 0.74998 0.75891
 C1561 C 0.70878 0.75884 0.77087
 O1562 O 0.75295 0.78138 0.78919
 O1563 O 0.78023 0.72418 0.78107
 O1564 O 0.74388 0.75603 0.79502
 O1565 O 0.75561 0.73222 0.79207
 O1566 O 0.79891 0.75239 0.77141
 O1567 O 0.78560 0.77690 0.77688
 C1568 C 0.74920 0.74295 0.80028
 H1569 H 0.78630 0.73292 0.75333
 H1570 H 0.76272 0.78648 0.75979
 H1571 H 0.73152 0.73783 0.77569
 H1572 H 0.74003 0.74992 0.71912
 H1573 H 0.80196 0.78350 0.75086
 H1574 H 0.75788 0.80029 0.72283
 H1575 H 0.73270 0.78913 0.71570
 H1576 H 0.70235 0.74625 0.73215
 H1577 H 0.80872 0.75811 0.76929
 H1578 H 0.77799 0.71404 0.78616
 H1579 H 0.75149 0.70499 0.78192
 H1580 H 0.70677 0.72253 0.75288
 H1581 H 0.79646 0.78080 0.77641
 H1582 H 0.74407 0.78450 0.79589
 H1583 H 0.76600 0.72060 0.70677
 H1584 H 0.71389 0.72296 0.72725
 Zr1585 Zr 0.23439 0.23786 0.77175
 O1586 O 0.24252 0.22291 0.78966
 O1587 O 0.21063 0.23996 0.77719
 O1588 O 0.23274 0.24854 0.79375
 O1589 O 0.23068 0.20862 0.74431
 O1590 O 0.24449 0.27221 0.79031
 O1591 O 0.22560 0.21494 0.76953
 O1592 O 0.20139 0.25722 0.75908
 O1593 O 0.22991 0.26144 0.76688
 O1594 O 0.22423 0.23859 0.74969
 O1595 O 0.25619 0.24904 0.77309
 O1596 O 0.25057 0.22689 0.75685
 Zr1597 Zr 0.25797 0.26341 0.72998
 Zr1598 Zr 0.25176 0.27235 0.76704
 Zr1599 Zr 0.24061 0.22890 0.73467
 Zr1600 Zr 0.22058 0.26204 0.74453
 O1601 O 0.25448 0.20925 0.72900
 O1602 O 0.21185 0.28372 0.75260
 O1603 O 0.23610 0.25220 0.72839
 O1604 O 0.24179 0.27412 0.74491
 O1605 O 0.26830 0.26276 0.75198
 O1606 O 0.26231 0.23988 0.73498
 C1607 C 0.19979 0.24830 0.77099
 C1608 C 0.22546 0.20550 0.75794
 C1609 C 0.23742 0.26194 0.79860
 O1610 O 0.23876 0.29298 0.77109
 O1611 O 0.26413 0.29157 0.75808
 O1612 O 0.26826 0.28563 0.73262
 C1613 C 0.26949 0.29461 0.74449
 O1614 O 0.27470 0.22266 0.77539
 Zr1615 Zr 0.27176 0.23921 0.75719
 O1616 O 0.28181 0.26160 0.72475
 O1617 O 0.27117 0.27667 0.78159
 O1618 O 0.28846 0.24850 0.77278
 O1619 O 0.28200 0.21852 0.74829
 O1620 O 0.29141 0.24604 0.74415
 C1621 C 0.29296 0.25463 0.73200
 O1622 O 0.25006 0.27927 0.71276
 O1623 O 0.22039 0.22346 0.72165
 O1624 O 0.25813 0.25348 0.70758
 O1625 O 0.24546 0.23026 0.71080
 O1626 O 0.20271 0.25253 0.73042
 O1627 O 0.21699 0.27639 0.72467
 C1628 C 0.25238 0.24060 0.70248
 H1629 H 0.21429 0.23277 0.74909
 H1630 H 0.23996 0.28514 0.74191
 H1631 H 0.26949 0.23493 0.72746
 H1632 H 0.26066 0.24815 0.78366
 H1633 H 0.20052 0.28405 0.75028
 H1634 H 0.24477 0.29919 0.77870
 H1635 H 0.26943 0.28704 0.78637
 H1636 H 0.29840 0.24279 0.77113
 H1637 H 0.19308 0.25869 0.73229
 H1638 H 0.22230 0.21317 0.71678
 H1639 H 0.24838 0.20301 0.72149
 H1640 H 0.29322 0.21866 0.75111
 H1641 H 0.20626 0.28073 0.72487
 H1642 H 0.25915 0.28188 0.70613
 H1643 H 0.23340 0.22020 0.79619
 H1644 H 0.28593 0.22017 0.77663
 Zr1645 Zr 0.26205 0.76293 0.26966
 O1646 O 0.25272 0.77786 0.28685
 O1647 O 0.28556 0.76147 0.27628
 O1648 O 0.26311 0.75252 0.29190
 O1649 O 0.26628 0.79195 0.24186
 O1650 O 0.25221 0.72848 0.28840
 O1651 O 0.27042 0.78602 0.26740
 O1652 O 0.29601 0.74421 0.25899
 O1653 O 0.26734 0.73944 0.26544
 O1654 O 0.27317 0.76224 0.24811
 O1655 O 0.24053 0.75118 0.27024
 O1656 O 0.24625 0.77332 0.25383
 Zr1657 Zr 0.24099 0.73632 0.22736
 Zr1658 Zr 0.24583 0.72793 0.26484
 Zr1659 Zr 0.25721 0.77134 0.23217
 Zr1660 Zr 0.27765 0.73884 0.24357
 O1661 O 0.24309 0.79057 0.22556
 O1662 O 0.28657 0.71743 0.25234
 O1663 O 0.26260 0.74810 0.22655
 O1664 O 0.25678 0.72619 0.24322
 O1665 O 0.22972 0.73692 0.24887
 O1666 O 0.23582 0.75977 0.23171
 C1667 C 0.29684 0.75327 0.27081
 C1668 C 0.27087 0.79534 0.25565
 C1669 C 0.25867 0.73902 0.29678
 O1670 O 0.25913 0.70766 0.26981
 O1671 O 0.23426 0.70834 0.25572
 O1672 O 0.23115 0.71387 0.22996
 C1673 C 0.22957 0.70501 0.24196
 O1674 O 0.22128 0.77715 0.27112
 Zr1675 Zr 0.22541 0.76042 0.25345
 O1676 O 0.21736 0.73734 0.22105
 O1677 O 0.22597 0.72329 0.27865
 O1678 O 0.20833 0.75092 0.26852
 O1679 O 0.21494 0.78065 0.24362
 O1680 O 0.20652 0.75276 0.23974
 C1681 C 0.20572 0.74397 0.22772
 O1682 O 0.25009 0.72051 0.21084
 O1683 O 0.27779 0.77716 0.21994
 O1684 O 0.24147 0.74604 0.20480
 O1685 O 0.25337 0.76963 0.20815
 O1686 O 0.29592 0.74870 0.23020
 O1687 O 0.28246 0.72447 0.22411
 C1688 C 0.24706 0.75903 0.19972
 H1689 H 0.28299 0.76830 0.24786
 H1690 H 0.25901 0.71519 0.24052
 H1691 H 0.22881 0.76443 0.22379
 H1692 H 0.23561 0.75206 0.28058
 H1693 H 0.29800 0.71739 0.25055
 H1694 H 0.25297 0.70137 0.27727
 H1695 H 0.22777 0.71302 0.28370
 H1696 H 0.19832 0.75633 0.26630
 H1697 H 0.30560 0.74280 0.23265
 H1698 H 0.27582 0.78735 0.21479
 H1699 H 0.24933 0.79690 0.21822
 H1700 H 0.20362 0.78020 0.24594
 H1701 H 0.29328 0.72042 0.22486
 H1702 H 0.24137 0.71757 0.20385
 H1703 H 0.26147 0.78088 0.29377
 H1704 H 0.20994 0.77937 0.27179
 Zr1705 Zr 0.23768 0.76206 0.72897
 O1706 O 0.24673 0.77697 0.71156
 O1707 O 0.21405 0.76083 0.72275
 O1708 O 0.23631 0.75174 0.70679
 O1709 O 0.23385 0.79101 0.75669
 O1710 O 0.24734 0.72764 0.71024
 O1711 O 0.22935 0.78520 0.73124
 O1712 O 0.20387 0.74361 0.74029
 O1713 O 0.23248 0.73858 0.73336
 O1714 O 0.22688 0.76135 0.75068
 O1715 O 0.25921 0.75020 0.72813
 O1716 O 0.25369 0.77230 0.74453
 Zr1717 Zr 0.25939 0.73519 0.77108
 Zr1718 Zr 0.25403 0.72696 0.73371
 Zr1719 Zr 0.24305 0.77030 0.76635
 Zr1720 Zr 0.22250 0.73797 0.75538
 O1721 O 0.25724 0.78942 0.77271
 O1722 O 0.21347 0.71669 0.74673
 O1723 O 0.23778 0.74708 0.77214
 O1724 O 0.24339 0.72521 0.75549
 O1725 O 0.27036 0.73581 0.74942
 O1726 O 0.26446 0.75863 0.76656
 C1727 C 0.20284 0.75275 0.72847
 C1728 C 0.22907 0.79447 0.74296
 C1729 C 0.24073 0.73824 0.70190
 O1730 O 0.24068 0.70679 0.72900
 O1731 O 0.26572 0.70726 0.74276
 O1732 O 0.26924 0.71270 0.76844
 C1733 C 0.27062 0.70387 0.75647
 O1734 O 0.27843 0.77600 0.72682
 Zr1735 Zr 0.27456 0.75930 0.74467
 O1736 O 0.28310 0.73614 0.77710
 O1737 O 0.27370 0.72224 0.71966
 O1738 O 0.29145 0.74969 0.72947
 O1739 O 0.28508 0.77950 0.75419
 O1740 O 0.29363 0.75161 0.75822
 C1741 C 0.29462 0.74281 0.77029
 O1742 O 0.25058 0.71933 0.78779
 O1743 O 0.22263 0.77622 0.77883
 O1744 O 0.25916 0.74479 0.79362
 O1745 O 0.24719 0.76847 0.79033
 O1746 O 0.20445 0.74784 0.76905
 O1747 O 0.21798 0.72347 0.77491
 C1748 C 0.25360 0.75779 0.79872
 H1749 H 0.21707 0.76748 0.75106
 H1750 H 0.24121 0.71420 0.75827
 H1751 H 0.27155 0.76323 0.77437
 H1752 H 0.26398 0.75109 0.71772
 H1753 H 0.20207 0.71670 0.74867
 H1754 H 0.24673 0.70050 0.72148
 H1755 H 0.27184 0.71200 0.71469
 H1756 H 0.30149 0.75504 0.73152
 H1757 H 0.19474 0.74202 0.76678
 H1758 H 0.22466 0.78638 0.78390
 H1759 H 0.25109 0.79576 0.78011
 H1760 H 0.29637 0.77901 0.75173
 H1761 H 0.20717 0.71946 0.77430
 H1762 H 0.25941 0.71634 0.79467
 H1763 H 0.23788 0.78008 0.70477
 H1764 H 0.28976 0.77814 0.72597
 Zr1765 Zr 0.26557 0.23916 0.23075
 O1766 O 0.25680 0.22437 0.21317
 O1767 O 0.28924 0.24066 0.22480
 O1768 O 0.26697 0.24973 0.20860
 O1769 O 0.26931 0.20988 0.25841
 O1770 O 0.25577 0.27372 0.21202
 O1771 O 0.27400 0.21603 0.23303
 O1772 O 0.29914 0.25772 0.24255
 O1773 O 0.27058 0.26262 0.23529
 O1774 O 0.27617 0.23967 0.25259
 O1775 O 0.24397 0.25090 0.22971
 O1776 O 0.24948 0.22864 0.24607
 Zr1777 Zr 0.24332 0.26540 0.27271
 Zr1778 Zr 0.24896 0.27410 0.23543
 Zr1779 Zr 0.25991 0.23043 0.26803
 Zr1780 Zr 0.28036 0.26302 0.25745
 O1781 O 0.24579 0.21114 0.27413
 O1782 O 0.28933 0.28448 0.24903
 O1783 O 0.26499 0.25362 0.27398
 O1784 O 0.25939 0.27566 0.25735
 O1785 O 0.23255 0.26497 0.25091
 O1786 O 0.23843 0.24197 0.26803
 C1787 C 0.30035 0.24875 0.23069
 C1788 C 0.27421 0.20660 0.24471
 C1789 C 0.26246 0.26324 0.20371
 O1790 O 0.26224 0.29439 0.23095
 O1791 O 0.23705 0.29362 0.24441
 O1792 O 0.23336 0.28786 0.27003
 C1793 C 0.23200 0.29682 0.25807
 O1794 O 0.22492 0.22496 0.22809
 Zr1795 Zr 0.22853 0.24151 0.24602
 O1796 O 0.21956 0.26429 0.27839
 O1797 O 0.22936 0.27888 0.22118
 O1798 O 0.21172 0.25114 0.23060
 O1799 O 0.21803 0.22117 0.25539
 O1800 O 0.20927 0.24901 0.25930
 C1801 C 0.20813 0.25769 0.27138
 O1802 O 0.25191 0.28107 0.28959
 O1803 O 0.28026 0.22450 0.28074
 O1804 O 0.24336 0.25549 0.29520
 O1805 O 0.25551 0.23193 0.29196
 O1806 O 0.29836 0.25309 0.27127
 O1807 O 0.28460 0.27728 0.27711
 C1808 C 0.24893 0.24245 0.30031
 H1809 H 0.28602 0.23360 0.25306
 H1810 H 0.26148 0.28664 0.26019
 H1811 H 0.23128 0.23725 0.27572
 H1812 H 0.23928 0.25009 0.21925
 H1813 H 0.30071 0.28451 0.25112
 H1814 H 0.25621 0.30074 0.22339
 H1815 H 0.23120 0.28919 0.21627
 H1816 H 0.20170 0.24571 0.23251
 H1817 H 0.30805 0.25901 0.26915
 H1818 H 0.27825 0.21427 0.28574
 H1819 H 0.25191 0.20475 0.28159
 H1820 H 0.20676 0.22163 0.25281
 H1821 H 0.29540 0.28136 0.27666
 H1822 H 0.24301 0.28394 0.29637
 H1823 H 0.26574 0.22141 0.20648
 H1824 H 0.21362 0.22272 0.22713
 Zr1825 Zr 0.73416 0.73804 0.27090
 O1826 O 0.74223 0.72315 0.28889
 O1827 O 0.71033 0.73993 0.27610
 O1828 O 0.73221 0.74868 0.29288
 O1829 O 0.73100 0.70875 0.24344
 O1830 O 0.74378 0.77245 0.28957
 O1831 O 0.72562 0.71503 0.26860
 O1832 O 0.70113 0.75712 0.25791
 O1833 O 0.72953 0.76157 0.26599
 O1834 O 0.72422 0.73868 0.24875
 O1835 O 0.75585 0.74940 0.27246
 O1836 O 0.75058 0.72720 0.25616
 Zr1837 Zr 0.75793 0.76379 0.22937
 Zr1838 Zr 0.75128 0.77267 0.26637
 Zr1839 Zr 0.74083 0.72913 0.23388
 Zr1840 Zr 0.72042 0.76210 0.24355
 O1841 O 0.75493 0.70961 0.22833
 O1842 O 0.71143 0.78371 0.25153
 O1843 O 0.73618 0.75239 0.22757
 O1844 O 0.74152 0.77436 0.24414
 O1845 O 0.76805 0.76322 0.25147
 O1846 O 0.76243 0.74029 0.23440
 C1847 C 0.69948 0.74819 0.26980
 C1848 C 0.72568 0.70558 0.25702
 C1849 C 0.73673 0.76211 0.29778
 O1850 O 0.73807 0.79320 0.27028
 O1851 O 0.76362 0.79198 0.25754
 O1852 O 0.76804 0.78607 0.23212
 C1853 C 0.76910 0.79506 0.24401
 O1854 O 0.77455 0.72316 0.27492
 Zr1855 Zr 0.77166 0.73970 0.25670
 O1856 O 0.78184 0.76219 0.22438
 O1857 O 0.77050 0.77715 0.28112
 O1858 O 0.78812 0.74911 0.27248
 O1859 O 0.78218 0.71912 0.24789
 O1860 O 0.79138 0.74674 0.24388
 C1861 C 0.79298 0.75534 0.23175
 O1862 O 0.75006 0.77961 0.21209
 O1863 O 0.72078 0.72350 0.22068
 O1864 O 0.75839 0.75387 0.20697
 O1865 O 0.74588 0.73055 0.21007
 O1866 O 0.70277 0.75245 0.22926
 O1867 O 0.71692 0.77642 0.22366
 C1868 C 0.75279 0.74095 0.20181
 H1869 H 0.71433 0.73277 0.24804
 H1870 H 0.73963 0.78537 0.24113
 H1871 H 0.76973 0.73542 0.22696
 H1872 H 0.76022 0.74854 0.28306
 H1873 H 0.70012 0.78394 0.24909
 H1874 H 0.74395 0.79946 0.27795
 H1875 H 0.76863 0.78750 0.28588
 H1876 H 0.79812 0.74348 0.27093
 H1877 H 0.69307 0.75853 0.23104
 H1878 H 0.72284 0.71323 0.21583
 H1879 H 0.74895 0.70332 0.22076
 H1880 H 0.79337 0.71936 0.25081
 H1881 H 0.70615 0.78067 0.22374
 H1882 H 0.75919 0.78229 0.20555
 H1883 H 0.73306 0.72036 0.29533
 H1884 H 0.78579 0.72075 0.27626
 Zr1885 Zr 0.76283 0.26153 0.76991
 O1886 O 0.75371 0.27637 0.78729
 O1887 O 0.78643 0.26009 0.77622
 O1888 O 0.76411 0.25103 0.79210
 O1889 O 0.76671 0.29070 0.74221
 O1890 O 0.75315 0.22701 0.78861
 O1891 O 0.77115 0.28464 0.76767
 O1892 O 0.79669 0.24297 0.75869
 O1893 O 0.76808 0.23806 0.76553
 O1894 O 0.77368 0.26095 0.74823
 O1895 O 0.74131 0.24977 0.77067
 O1896 O 0.74683 0.27199 0.75432
 Zr1897 Zr 0.74129 0.23512 0.72772
 Zr1898 Zr 0.74656 0.22656 0.76511
 Zr1899 Zr 0.75754 0.27013 0.73252
 Zr1900 Zr 0.77812 0.23758 0.74352
 O1901 O 0.74332 0.28938 0.72617
 O1902 O 0.78716 0.21617 0.75216
 O1903 O 0.76288 0.24692 0.72673
 O1904 O 0.75726 0.22492 0.74336
 O1905 O 0.73027 0.23562 0.74935
 O1906 O 0.73615 0.25855 0.73224
 C1907 C 0.79767 0.25199 0.77053
 C1908 C 0.77146 0.29402 0.75596
 C1909 C 0.75969 0.23752 0.79697
 O1910 O 0.75994 0.20628 0.76984
 O1911 O 0.73490 0.20700 0.75602
 O1912 O 0.73147 0.21266 0.73033
 C1913 C 0.73004 0.20375 0.74230
 O1914 O 0.72205 0.27573 0.77189
 Zr1915 Zr 0.72599 0.25909 0.75409
 O1916 O 0.71759 0.23616 0.72168
 O1917 O 0.72685 0.22182 0.77910
 O1918 O 0.70909 0.24951 0.76932
 O1919 O 0.71540 0.27935 0.74447
 O1920 O 0.70695 0.25146 0.74058
 C1921 C 0.70602 0.24274 0.72852
 O1922 O 0.75020 0.21939 0.71102
 O1923 O 0.77797 0.27605 0.72008
 O1924 O 0.74153 0.24494 0.70519
 O1925 O 0.75344 0.26853 0.70853
 O1926 O 0.79620 0.24749 0.72994
 O1927 O 0.78271 0.22326 0.72398
 C1928 C 0.74706 0.25796 0.70012
 H1929 H 0.78349 0.26702 0.74788
 H1930 H 0.75946 0.21393 0.74058
 H1931 H 0.72905 0.26324 0.72441
 H1932 H 0.73650 0.25060 0.78107
 H1933 H 0.79857 0.21614 0.75024
 H1934 H 0.75387 0.19995 0.77734
 H1935 H 0.72872 0.21153 0.78408
 H1936 H 0.69906 0.25492 0.76724
 H1937 H 0.80591 0.24158 0.73222
 H1938 H 0.77593 0.28626 0.71501
 H1939 H 0.74947 0.29575 0.71878
 H1940 H 0.70411 0.27888 0.74691
 H1941 H 0.79352 0.21918 0.72461
 H1942 H 0.74140 0.21649 0.70412
 H1943 H 0.76254 0.27937 0.79411
 H1944 H 0.71073 0.27795 0.77268
 C1945 C 0.42031 1.00065 0.30657
 C1946 C 0.42845 1.00057 0.31801
 C1947 C 0.43798 1.00023 0.33180
 C1948 C 0.44628 0.98668 0.33579
 C1949 C 0.45499 0.98608 0.34952
 C1950 C 0.45552 0.99905 0.35947
 C1951 C 0.44731 1.01269 0.35524
 C1952 C 0.43860 1.01326 0.34151
 C1953 C 0.46407 0.99819 0.37449
 C1954 C 0.47246 1.01113 0.38002
 C1955 C 0.47951 1.01069 0.39467
 C1956 C 0.47831 0.99732 0.40397
 C1957 C 0.47035 0.98424 0.39840
 C1958 C 0.46330 0.98465 0.38376
 C1959 C 0.48396 0.99755 0.41972
 C1960 C 0.48783 0.99810 0.43316
 H1961 H 0.44589 0.97652 0.32836
 H1962 H 0.46131 0.97547 0.35235
 H1963 H 0.44727 1.02279 0.36275
 H1964 H 0.43217 1.02378 0.33859
 H1965 H 0.47344 1.02165 0.37310
 H1966 H 0.48556 1.02092 0.39889
 H1967 H 0.46919 0.97389 0.40556
 H1968 H 0.45676 0.97457 0.37994
 C1969 C -0.07943 0.50033 0.80737
 C1970 C -0.07143 0.50015 0.81891
 C1971 C -0.06212 0.49960 0.83284
 C1972 C -0.06575 0.48888 0.84456
 C1973 C -0.05696 0.48844 0.85823
 C1974 C -0.04437 0.49873 0.86040
 C1975 C -0.04072 0.50938 0.84848
 C1976 C -0.04953 0.50980 0.83480
 C1977 C -0.03552 0.49868 0.87526
 C1978 C -0.03109 0.51281 0.88224
 C1979 C -0.02386 0.51283 0.89679
 C1980 C -0.02087 0.49875 0.90455
 C1981 C -0.02482 0.48460 0.89752
 C1982 C -0.03206 0.48455 0.88296
 C1983 C -0.01511 0.49895 0.92026
 C1984 C -0.01117 0.49945 0.93369
 H1985 H -0.07548 0.48096 0.84320
 H1986 H -0.06026 0.48027 0.86725
 H1987 H -0.03101 0.51734 0.84972
 H1988 H -0.04657 0.51812 0.82578
 H1989 H -0.03376 0.52389 0.87674
 H1990 H -0.02102 0.52387 0.90219
 H1991 H -0.02264 0.47363 0.90344
 H1992 H -0.03511 0.47347 0.87781
 C1993 C 0.07687 -0.00124 0.80874
 C1994 C 0.06889 -0.00027 0.82021
 C1995 C 0.05957 0.00109 0.83403
 C1996 C 0.05680 -0.01205 0.84329
 C1997 C 0.04832 -0.01063 0.85706
 C1998 C 0.04250 0.00400 0.86177
 C1999 C 0.04516 0.01710 0.85225
 C2000 C 0.05364 0.01564 0.83848
 C2001 C 0.03428 0.00563 0.87685
 C2002 C 0.03739 0.01841 0.88657
 C2003 C 0.03064 0.01931 0.90130
 C2004 C 0.02064 0.00751 0.90648
 C2005 C 0.01711 -0.00501 0.89672
 C2006 C 0.02385 -0.00594 0.88200
 C2007 C 0.01528 0.00746 0.92230
 C2008 C 0.01160 0.00689 0.93578
 H2009 H 0.06139 -0.02336 0.84000
 H2010 H 0.04669 -0.02089 0.86423
 H2011 H 0.04070 0.02848 0.85546
 H2012 H 0.05570 0.02589 0.83139
 H2013 H 0.04552 0.02740 0.88305
 H2014 H 0.03361 0.02896 0.90882
 H2015 H 0.00946 -0.01426 0.90065
 H2016 H 0.02106 -0.01581 0.87471
 C2017 C 0.57728 0.49841 0.30825
 C2018 C 0.56930 0.49929 0.31973
 C2019 C 0.55998 0.50052 0.33356
 C2020 C 0.55368 0.51495 0.33790
 C2021 C 0.54521 0.51632 0.35169
 C2022 C 0.54294 0.50323 0.36134
 C2023 C 0.54913 0.48873 0.35674
 C2024 C 0.55760 0.48740 0.34296
 C2025 C 0.53473 0.50479 0.37643
 C2026 C 0.52463 0.49299 0.38173
 C2027 C 0.51791 0.49389 0.39646
 C2028 C 0.52113 0.50660 0.40609
 C2029 C 0.53080 0.51861 0.40076
 C2030 C 0.53753 0.51774 0.38603
 C2031 C 0.51578 0.50657 0.42191
 C2032 C 0.51211 0.50606 0.43540
 H2033 H 0.55544 0.52519 0.33071
 H2034 H 0.54046 0.52760 0.35481
 H2035 H 0.54780 0.47849 0.36402
 H2036 H 0.56248 0.47618 0.33976
 H2037 H 0.52209 0.48298 0.37454
 H2038 H 0.51052 0.48448 0.40050
 H2039 H 0.53352 0.52841 0.40818
 H2040 H 0.54540 0.52691 0.38239
 C2041 C 0.57974 0.50103 0.19216
 C2042 C 0.57174 0.50070 0.18063
 C2043 C 0.56244 0.49991 0.16672
 C2044 C 0.54983 0.51011 0.16447
 C2045 C 0.54101 0.50942 0.15081
 C2046 C 0.54469 0.49847 0.13923
 C2047 C 0.55731 0.48818 0.14170
 C2048 C 0.56610 0.48891 0.15534
 C2049 C 0.53584 0.49813 0.12438
 C2050 C 0.53242 0.48385 0.11711
 C2051 C 0.52525 0.48360 0.10253
 C2052 C 0.52134 0.49760 0.09504
 C2053 C 0.52428 0.51185 0.10237
 C2054 C 0.53145 0.51212 0.11694
 C2055 C 0.51573 0.49748 0.07929
 C2056 C 0.51191 0.49774 0.06582
 H2057 H 0.54685 0.51864 0.17323
 H2058 H 0.53128 0.51739 0.14934
 H2059 H 0.56062 0.47980 0.13292
 H2060 H 0.57585 0.48097 0.15694
 H2061 H 0.53546 0.47287 0.12263
 H2062 H 0.52311 0.47251 0.09694
 H2063 H 0.52147 0.52277 0.09661
 H2064 H 0.53410 0.52330 0.12211
 C2065 C 0.07912 0.99940 0.69264
 C2066 C 0.07112 0.99873 0.68114
 C2067 C 0.06183 0.99752 0.66726
 C2068 C 0.04796 1.00609 0.66566
 C2069 C 0.03909 1.00496 0.65206
 C2070 C 0.04399 0.99521 0.63988
 C2071 C 0.05789 0.98657 0.64167
 C2072 C 0.06672 0.98772 0.65526
 C2073 C 0.03502 0.99446 0.62512
 C2074 C 0.03339 0.98024 0.61715
 C2075 C 0.02613 0.97980 0.60262
 C2076 C 0.02033 0.99354 0.59588
 C2077 C 0.02145 1.00765 0.60393
 C2078 C 0.02871 1.00812 0.61845
 C2079 C 0.01469 0.99349 0.58014
 C2080 C 0.01088 0.99390 0.56667
 H2081 H 0.04402 1.01366 0.67491
 H2082 H 0.02838 1.01164 0.65110
 H2083 H 0.06213 0.97917 0.63243
 H2084 H 0.07744 0.98106 0.65635
 H2085 H 0.03793 0.96949 0.62206
 H2086 H 0.02542 0.96882 0.59647
 H2087 H 0.01717 1.01839 0.59875
 H2088 H 0.02994 1.01928 0.62417
 C2089 C -0.07845 0.49860 0.69135
 C2090 C -0.07081 0.49956 0.67964
 C2091 C -0.06194 0.50091 0.66552
 C2092 C -0.06781 0.50980 0.65316
 C2093 C -0.05943 0.51096 0.63932
 C2094 C -0.04501 0.50322 0.63761
 C2095 C -0.03913 0.49441 0.65015
 C2096 C -0.04754 0.49328 0.66401
 C2097 C -0.03648 0.50393 0.62261
 C2098 C -0.02933 0.49047 0.61652
 C2099 C -0.02235 0.49082 0.60187
 C2100 C -0.02235 0.50462 0.59312
 C2101 C -0.02904 0.51819 0.59926
 C2102 C -0.03603 0.51786 0.61391
 C2103 C -0.01681 0.50446 0.57736
 C2104 C -0.01297 0.50388 0.56392
 H2105 H -0.07896 0.51573 0.65417
 H2106 H -0.06441 0.51762 0.62982
 H2107 H -0.02800 0.48845 0.64927
 H2108 H -0.04285 0.48640 0.67352
 H2109 H -0.02964 0.47952 0.62281
 H2110 H -0.01737 0.48021 0.59718
 H2111 H -0.02920 0.52892 0.59257
 H2112 H -0.04124 0.52847 0.61835
 C2113 C 0.42012 -0.00175 0.19003
 C2114 C 0.42775 -0.00080 0.17832
 C2115 C 0.43663 0.00053 0.16419
 C2116 C 0.43040 0.00872 0.15153
 C2117 C 0.43883 0.00989 0.13772
 C2118 C 0.45365 0.00288 0.13634
 C2119 C 0.45987 -0.00524 0.14918
 C2120 C 0.45141 -0.00639 0.16301
 C2121 C 0.46228 0.00362 0.12140
 C2122 C 0.47019 -0.00961 0.11575
 C2123 C 0.47729 -0.00929 0.10116
 C2124 C 0.47666 0.00425 0.09204
 C2125 C 0.46920 0.01761 0.09774
 C2126 C 0.46209 0.01731 0.11233
 C2127 C 0.48237 0.00395 0.07634
 C2128 C 0.48635 0.00324 0.06294
 H2129 H 0.41896 0.01409 0.15230
 H2130 H 0.43359 0.01600 0.12799
 H2131 H 0.47131 -0.01063 0.14855
 H2132 H 0.45638 -0.01271 0.17275
 H2133 H 0.47039 -0.02039 0.12234
 H2134 H 0.48288 -0.01976 0.09680
 H2135 H 0.46856 0.02813 0.09075
 H2136 H 0.45629 0.02775 0.11643
 C2137 C 0.31135 0.40640 0.00367
 C2138 C 0.32365 0.41313 0.00494
 C2139 C 0.33847 0.42094 0.00651
 C2140 C 0.35033 0.41427 0.01559
 C2141 C 0.36482 0.42167 0.01692
 C2142 C 0.36766 0.43588 0.00918
 C2143 C 0.35561 0.44253 0.00015
 C2144 C 0.34114 0.43510 -0.00117
 C2145 C 0.38318 0.44359 0.01028
 C2146 C 0.38431 0.45994 0.01137
 C2147 C 0.39891 0.46720 0.01182
 C2148 C 0.41261 0.45826 0.01122
 C2149 C 0.41162 0.44198 0.01035
 C2150 C 0.39703 0.43468 0.00991
 C2151 C 0.42762 0.46583 0.01065
 C2152 C 0.44011 0.47225 0.00960
 H2153 H 0.34840 0.40333 0.02162
 H2154 H 0.37375 0.41634 0.02410
 H2155 H 0.35748 0.45332 -0.00613
 H2156 H 0.33208 0.44035 -0.00827
 H2157 H 0.37389 0.46712 0.01188
 H2158 H 0.39951 0.47982 0.01245
 H2159 H 0.42213 0.43493 0.00975
 H2160 H 0.39659 0.42210 0.00886
 C2161 C -0.19019 0.90523 0.50360
 C2162 C -0.17790 0.91199 0.50488
 C2163 C -0.16311 0.91983 0.50646
 C2164 C -0.15154 0.91362 0.51620
 C2165 C -0.13707 0.92102 0.51755
 C2166 C -0.13394 0.93479 0.50917
 C2167 C -0.14569 0.94100 0.49948
 C2168 C -0.16015 0.93356 0.49814
 C2169 C -0.11843 0.94250 0.51030
 C2170 C -0.11726 0.95889 0.51060
 C2171 C -0.10264 0.96612 0.51111
 C2172 C -0.08897 0.95711 0.51136
 C2173 C -0.09001 0.94080 0.51128
 C2174 C -0.10461 0.93354 0.51078
 C2175 C -0.07392 0.96460 0.51089
 C2176 C -0.06138 0.97093 0.50996
 H2177 H -0.15369 0.90301 0.52273
 H2178 H -0.12836 0.91604 0.52525
 H2179 H -0.14360 0.95144 0.49269
 H2180 H -0.16898 0.93846 0.49052
 H2181 H -0.12766 0.96612 0.51045
 H2182 H -0.10200 0.97875 0.51113
 H2183 H -0.07951 0.93370 0.51135
 H2184 H -0.10508 0.92092 0.51036
 C2185 C -0.19108 0.09313 0.99741
 C2186 C -0.17850 0.08680 0.99638
 C2187 C -0.16333 0.07950 0.99522
 C2188 C -0.15089 0.08498 1.00420
 C2189 C -0.13613 0.07802 1.00308
 C2190 C -0.13358 0.06543 0.99293
 C2191 C -0.14617 0.06001 0.98394
 C2192 C -0.16092 0.06701 0.98507
 C2193 C -0.11791 0.05790 0.99192
 C2194 C -0.11650 0.04157 0.99077
 C2195 C -0.10176 0.03445 0.99040
 C2196 C -0.08822 0.04353 0.99112
 C2197 C -0.08949 0.05980 0.99205
 C2198 C -0.10421 0.06694 0.99243
 C2199 C -0.07308 0.03610 0.99167
 C2200 C -0.06050 0.02975 0.99263
 H2201 H -0.15260 0.09462 1.01212
 H2202 H -0.12678 0.08233 1.01034
 H2203 H -0.14456 0.05047 0.97589
 H2204 H -0.17044 0.06269 0.97801
 H2205 H -0.12678 0.03425 0.99056
 H2206 H -0.10094 0.02184 0.98980
 H2207 H -0.07911 0.06696 0.99264
 H2208 H -0.10488 0.07954 0.99310
 C2209 C 0.30979 0.59351 0.49683
 C2210 C 0.32235 0.58714 0.49579
 C2211 C 0.33748 0.57977 0.49462
 C2212 C 0.33983 0.56727 0.48446
 C2213 C 0.35455 0.56021 0.48332
 C2214 C 0.36717 0.56557 0.49231
 C2215 C 0.36468 0.57817 0.50246
 C2216 C 0.34996 0.58520 0.50360
 C2217 C 0.38280 0.55796 0.49130
 C2218 C 0.39654 0.56694 0.49181
 C2219 C 0.41123 0.55973 0.49143
 C2220 C 0.41242 0.54345 0.49051
 C2221 C 0.39884 0.53444 0.48979
 C2222 C 0.38414 0.54162 0.49015
 C2223 C 0.42753 0.53595 0.49109
 C2224 C 0.44009 0.52955 0.49207
 H2225 H 0.33029 0.56301 0.47740
 H2226 H 0.35611 0.55067 0.47527
 H2227 H 0.37406 0.58243 0.50972
 H2228 H 0.34829 0.59484 0.51152
 H2229 H 0.39594 0.57954 0.49248
 H2230 H 0.42165 0.56684 0.49202
 H2231 H 0.39960 0.52183 0.48919
 H2232 H 0.37382 0.53436 0.48994
 C2233 C 0.18798 0.59398 0.50232
 C2234 C 0.17562 0.58731 0.50332
 C2235 C 0.16069 0.57963 0.50452
 C2236 C 0.14759 0.58603 0.49709
 C2237 C 0.13305 0.57872 0.49831
 C2238 C 0.13138 0.56488 0.50700
 C2239 C 0.14463 0.55855 0.51443
 C2240 C 0.15916 0.56588 0.51321
 C2241 C 0.11593 0.55701 0.50809
 C2242 C 0.11486 0.54063 0.50735
 C2243 C 0.10030 0.53327 0.50780
 C2244 C 0.08660 0.54214 0.50903
 C2245 C 0.08754 0.55841 0.51000
 C2246 C 0.10209 0.56580 0.50955
 C2247 C 0.07158 0.53456 0.50851
 C2248 C 0.05911 0.52808 0.50754
 H2249 H 0.14861 0.59665 0.49032
 H2250 H 0.12316 0.58379 0.49225
 H2251 H 0.14371 0.54802 0.52135
 H2252 H 0.16919 0.56085 0.51907
 H2253 H 0.12525 0.53353 0.50602
 H2254 H 0.09973 0.52067 0.50692
 H2255 H 0.07702 0.56541 0.51093
 H2256 H 0.10251 0.57841 0.51036
 C2257 C 0.68779 0.09305 0.00239
 C2258 C 0.67542 0.08637 0.00332
 C2259 C 0.66049 0.07869 0.00442
 C2260 C 0.64756 0.08474 -0.00358
 C2261 C 0.63302 0.07745 -0.00244
 C2262 C 0.63115 0.06396 0.00675
 C2263 C 0.64422 0.05797 0.01476
 C2264 C 0.65876 0.06530 0.01361
 C2265 C 0.61569 0.05610 0.00778
 C2266 C 0.61467 0.03970 0.00769
 C2267 C 0.60012 0.03232 0.00808
 C2268 C 0.58637 0.04119 0.00862
 C2269 C 0.58726 0.05750 0.00894
 C2270 C 0.60180 0.06491 0.00854
 C2271 C 0.57138 0.03356 0.00805
 C2272 C 0.55895 0.02702 0.00704
 H2273 H 0.64874 0.09509 -0.01075
 H2274 H 0.62328 0.08223 -0.00895
 H2275 H 0.64315 0.04773 0.02208
 H2276 H 0.66865 0.06055 0.01993
 H2277 H 0.62510 0.03257 0.00691
 H2278 H 0.59959 0.01970 0.00771
 H2279 H 0.57671 0.06451 0.00932
 H2280 H 0.60217 0.07754 0.00884
 C2281 C 0.68882 0.90712 0.49665
 C2282 C 0.67650 0.91391 0.49537
 C2283 C 0.66167 0.92181 0.49383
 C2284 C 0.66050 0.93575 0.48537
 C2285 C 0.64608 0.94336 0.48387
 C2286 C 0.63259 0.93711 0.49081
 C2287 C 0.63390 0.92307 0.49926
 C2288 C 0.64832 0.91549 0.50075
 C2289 C 0.61727 0.94528 0.48945
 C2290 C 0.60338 0.93676 0.48741
 C2291 C 0.58892 0.94440 0.48677
 C2292 C 0.58811 0.96067 0.48814
 C2293 C 0.60187 0.96926 0.48993
 C2294 C 0.61634 0.96165 0.49056
 C2295 C 0.57315 0.96844 0.48856
 C2296 C 0.56065 0.97494 0.48948
 H2297 H 0.67073 0.94072 0.47991
 H2298 H 0.64544 0.95404 0.47715
 H2299 H 0.62381 0.91806 0.50494
 H2300 H 0.64908 0.90473 0.50735
 H2301 H 0.60370 0.92418 0.48630
 H2302 H 0.57837 0.93761 0.48542
 H2303 H 0.60139 0.98184 0.49113
 H2304 H 0.62676 0.96853 0.49234
 C2305 C 0.19039 0.40886 0.99624
 C2306 C 0.17812 0.41573 0.99487
 C2307 C 0.16336 0.42375 0.99323
 C2308 C 0.15199 0.41803 0.98306
 C2309 C 0.13755 0.42562 0.98166
 C2310 C 0.13427 0.43907 0.99042
 C2311 C 0.14583 0.44478 1.00053
 C2312 C 0.16025 0.43717 1.00192
 C2313 C 0.11878 0.44695 0.98924
 C2314 C 0.11762 0.46334 0.98947
 C2315 C 0.10302 0.47071 0.98896
 C2316 C 0.08935 0.46183 0.98819
 C2317 C 0.09037 0.44553 0.98773
 C2318 C 0.10497 0.43813 0.98822
 C2319 C 0.07429 0.46941 0.98872
 C2320 C 0.06173 0.47578 0.98973
 H2321 H 0.15426 0.40768 0.97625
 H2322 H 0.12900 0.42102 0.97364
 H2323 H 0.14361 0.45496 1.00759
 H2324 H 0.16893 0.44168 1.00986
 H2325 H 0.12802 0.47048 0.99004
 H2326 H 0.10239 0.48334 0.98937
 H2327 H 0.07988 0.43851 0.98726
 H2328 H 0.10542 0.42550 0.98823
 C2329 C -0.00246 0.30688 0.40763
 C2330 C -0.00286 0.31895 0.41467
 C2331 C -0.00303 0.33349 0.42283
 C2332 C -0.01702 0.34177 0.42459
 C2333 C -0.01703 0.35625 0.43197
 C2334 C -0.00302 0.36260 0.43762
 C2335 C 0.01094 0.35409 0.43595
 C2336 C 0.01092 0.33962 0.42858
 C2337 C -0.00289 0.37818 0.44495
 C2338 C 0.00907 0.38885 0.44152
 C2339 C 0.00919 0.40357 0.44837
 C2340 C -0.00262 0.40780 0.45872
 C2341 C -0.01458 0.39729 0.46222
 C2342 C -0.01474 0.38255 0.45536
 C2343 C -0.00237 0.42290 0.46579
 C2344 C -0.00203 0.43558 0.47170
 H2345 H -0.02787 0.33712 0.42009
 H2346 H -0.02792 0.36263 0.43295
 H2347 H 0.02186 0.35861 0.44038
 H2348 H 0.02180 0.33327 0.42727
 H2349 H 0.01821 0.38588 0.43337
 H2350 H 0.01848 0.41167 0.44558
 H2351 H -0.02375 0.40047 0.47026
 H2352 H -0.02400 0.37450 0.45833
 C2353 C 0.49770 -0.19415 -0.09362
 C2354 C 0.49712 -0.18247 -0.08596
 C2355 C 0.49668 -0.16832 -0.07715
 C2356 C 0.48416 -0.15794 -0.07893
 C2357 C 0.48418 -0.14372 -0.07108
 C2358 C 0.49677 -0.13974 -0.06139
 C2359 C 0.50916 -0.15039 -0.05947
 C2360 C 0.50911 -0.16460 -0.06733
 C2361 C 0.49720 -0.12432 -0.05374
 C2362 C 0.51116 -0.11572 -0.05333
 C2363 C 0.51150 -0.10097 -0.04654
 C2364 C 0.49793 -0.09466 -0.04008
 C2365 C 0.48401 -0.10315 -0.04032
 C2366 C 0.48363 -0.11791 -0.04712
 C2367 C 0.49828 -0.07939 -0.03335
 C2368 C 0.49865 -0.06658 -0.02775
 H2369 H 0.47453 -0.16071 -0.08660
 H2370 H 0.47458 -0.13567 -0.07292
 H2371 H 0.51890 -0.14770 -0.05193
 H2372 H 0.51885 -0.17259 -0.06590
 H2373 H 0.52173 -0.12027 -0.05853
 H2374 H 0.52232 -0.09444 -0.04643
 H2375 H 0.47345 -0.09835 -0.03531
 H2376 H 0.47277 -0.12435 -0.04714
 C2377 C 0.00365 -0.19104 1.09268
 C2378 C 0.00447 -0.17931 1.08503
 C2379 C 0.00523 -0.16509 1.07626
 C2380 C -0.00748 -0.16045 1.06713
 C2381 C -0.00717 -0.14613 1.05937
 C2382 C 0.00586 -0.13628 1.06071
 C2383 C 0.01870 -0.14119 1.06970
 C2384 C 0.01837 -0.15552 1.07744
 C2385 C 0.00580 -0.12071 1.05323
 C2386 C 0.01139 -0.10762 1.06129
 C2387 C 0.01077 -0.09282 1.05450
 C2388 C 0.00458 -0.09095 1.03959
 C2389 C -0.00086 -0.10390 1.03141
 C2390 C -0.00026 -0.11872 1.03819
 C2391 C 0.00359 -0.07568 1.03281
 C2392 C 0.00271 -0.06286 1.02716
 H2393 H -0.01774 -0.16776 1.06624
 H2394 H -0.01730 -0.14256 1.05269
 H2395 H 0.02896 -0.13391 1.07078
 H2396 H 0.02826 -0.15903 1.08451
 H2397 H 0.01591 -0.10878 1.07297
 H2398 H 0.01496 -0.08283 1.06092
 H2399 H -0.00564 -0.10254 1.01984
 H2400 H -0.00449 -0.12863 1.03166
 C2401 C 0.50520 0.30910 0.59345
 C2402 C 0.50591 0.32099 0.58604
 C2403 C 0.50649 0.33534 0.57747
 C2404 C 0.51905 0.34553 0.57950
 C2405 C 0.51920 0.35988 0.57179
 C2406 C 0.50677 0.36419 0.56197
 C2407 C 0.49432 0.35374 0.55982
 C2408 C 0.49419 0.33940 0.56755
 C2409 C 0.50653 0.37970 0.55437
 C2410 C 0.50144 0.38133 0.53894
 C2411 C 0.50073 0.39606 0.53198
 C2412 C 0.50509 0.40928 0.54037
 C2413 C 0.51029 0.40778 0.55568
 C2414 C 0.51102 0.39307 0.56266
 C2415 C 0.50405 0.42444 0.53335
 C2416 C 0.50315 0.43718 0.52751
 H2417 H 0.52862 0.34245 0.58718
 H2418 H 0.52902 0.36762 0.57350
 H2419 H 0.48450 0.35684 0.55249
 H2420 H 0.48439 0.33160 0.56599
 H2421 H 0.49808 0.37121 0.53224
 H2422 H 0.49673 0.39713 0.52010
 H2423 H 0.51364 0.41798 0.56226
 H2424 H 0.51477 0.39218 0.57462
 C2425 C 0.49226 1.19187 0.59395
 C2426 C 0.49157 1.18000 0.58660
 C2427 C 0.49110 1.16573 0.57799
 C2428 C 0.47859 1.15544 0.57984
 C2429 C 0.47853 1.14123 0.57197
 C2430 C 0.49101 1.13717 0.56218
 C2431 C 0.50342 1.14770 0.56025
 C2432 C 0.50346 1.16189 0.56813
 C2433 C 0.49132 1.12185 0.55433
 C2434 C 0.49649 1.12062 0.53892
 C2435 C 0.49734 1.10607 0.53174
 C2436 C 0.49304 1.09261 0.53988
 C2437 C 0.48772 1.09371 0.55515
 C2438 C 0.48685 1.10825 0.56235
 C2439 C 0.49433 1.07763 0.53264
 C2440 C 0.49550 1.06507 0.52658
 H2441 H 0.46898 1.15834 0.58746
 H2442 H 0.46874 1.13342 0.57353
 H2443 H 0.51328 1.14479 0.55295
 H2444 H 0.51323 1.16977 0.56671
 H2445 H 0.49983 1.13092 0.53241
 H2446 H 0.50143 1.10530 0.51988
 H2447 H 0.48441 1.08333 0.56154
 H2448 H 0.48303 1.10883 0.57430
 C2449 C -0.00804 0.69122 1.09736
 C2450 C -0.00829 0.67899 1.09059
 C2451 C -0.00809 0.66434 1.08262
 C2452 C 0.00391 0.65364 1.08563
 C2453 C 0.00441 0.63949 1.07770
 C2454 C -0.00710 0.63589 1.06665
 C2455 C -0.01920 0.64667 1.06378
 C2456 C -0.01967 0.66085 1.07172
 C2457 C -0.00639 0.62096 1.05811
 C2458 C -0.02001 0.61223 1.05551
 C2459 C -0.01923 0.59800 1.04769
 C2460 C -0.00485 0.59239 1.04238
 C2461 C 0.00874 0.60105 1.04480
 C2462 C 0.00799 0.61526 1.05262
 C2463 C -0.00395 0.57766 1.03462
 C2464 C -0.00305 0.56527 1.02818
 H2465 H 0.01290 0.65625 1.09408
 H2466 H 0.01373 0.63130 1.08031
 H2467 H -0.02812 0.64426 1.05521
 H2468 H -0.02897 0.66911 1.06930
 H2469 H -0.03121 0.61626 1.05976
 H2470 H -0.02980 0.59132 1.04590
 H2471 H 0.01991 0.59681 1.04069
 H2472 H 0.01862 0.62185 1.05427
 C2473 C 0.51084 0.68847 -0.09963
 C2474 C 0.51104 0.67622 -0.09280
 C2475 C 0.51078 0.66154 -0.08478
 C2476 C 0.51716 0.66023 -0.06989
 C2477 C 0.51629 0.64606 -0.06188
 C2478 C 0.50899 0.63309 -0.06868
 C2479 C 0.50277 0.63451 -0.08372
 C2480 C 0.50366 0.64867 -0.09171
 C2481 C 0.50766 0.61819 -0.06007
 C2482 C 0.49369 0.60962 -0.06055
 C2483 C 0.49244 0.59550 -0.05253
 C2484 C 0.50512 0.58982 -0.04394
 C2485 C 0.51904 0.59828 -0.04334
 C2486 C 0.52032 0.61242 -0.05135
 C2487 C 0.50390 0.57518 -0.03596
 C2488 C 0.50294 0.56282 -0.02939
 H2489 H 0.52262 0.67018 -0.06442
 H2490 H 0.52103 0.64533 -0.05025
 H2491 H 0.49728 0.62465 -0.08932
 H2492 H 0.49870 0.64960 -0.10324
 H2493 H 0.48369 0.61391 -0.06700
 H2494 H 0.48161 0.58902 -0.05303
 H2495 H 0.52894 0.59391 -0.03676
 H2496 H 0.53126 0.61870 -0.05092
 C2497 C 0.00864 1.18977 0.40788
 C2498 C 0.00884 1.17785 0.41527
 C2499 C 0.00864 1.16347 0.42381
 C2500 C -0.00478 1.15921 0.43198
 C2501 C -0.00539 1.14482 0.43959
 C2502 C 0.00742 1.13453 0.43908
 C2503 C 0.02097 1.13904 0.43105
 C2504 C 0.02155 1.15344 0.42343
 C2505 C 0.00649 1.11900 0.44655
 C2506 C 0.01927 1.11291 0.45489
 C2507 C 0.01836 1.09817 0.46179
 C2508 C 0.00470 1.08938 0.46040
 C2509 C -0.00806 1.09532 0.45212
 C2510 C -0.00719 1.11005 0.44523
 C2511 C 0.00372 1.07426 0.46749
 C2512 C 0.00278 1.06160 0.47346
 H2513 H -0.01483 1.16692 0.43232
 H2514 H -0.01589 1.14173 0.44587
 H2515 H 0.03094 1.13127 0.43033
 H2516 H 0.03195 1.15664 0.41705
 H2517 H 0.02988 1.11962 0.45621
 H2518 H 0.02828 1.09365 0.46823
 H2519 H -0.01866 1.08856 0.45096
 H2520 H -0.01712 1.11435 0.43868
 C2521 C 0.75134 0.67237 0.94316
 C2522 C 0.75117 0.68060 0.93177
 C2523 C 0.75068 0.69024 0.91805
 C2524 C 0.76373 0.69123 0.90837
 C2525 C 0.76301 0.70000 0.89467
 C2526 C 0.74919 0.70790 0.89044
 C2527 C 0.73620 0.70701 0.90038
 C2528 C 0.73695 0.69824 0.91408
 C2529 C 0.74817 0.71643 0.87543
 C2530 C 0.73469 0.71530 0.86613
 C2531 C 0.73418 0.72228 0.85145
 C2532 C 0.74709 0.73055 0.84588
 C2533 C 0.76037 0.73213 0.85521
 C2534 C 0.76091 0.72515 0.86989
 C2535 C 0.74730 0.73604 0.83007
 C2536 C 0.74789 0.73975 0.81657
 H2537 H 0.77440 0.68503 0.91129
 H2538 H 0.77314 0.70024 0.88718
 H2539 H 0.72545 0.71308 0.89754
 H2540 H 0.72677 0.69757 0.92149
 H2541 H 0.72476 0.70851 0.86995
 H2542 H 0.72391 0.72082 0.84426
 H2543 H 0.77047 0.73841 0.85098
 H2544 H 0.77137 0.72641 0.87684
 C2545 C 0.24921 0.17059 0.44282
 C2546 C 0.24889 0.17861 0.43129
 C2547 C 0.24820 0.18795 0.41737
 C2548 C 0.25778 0.20105 0.41565
 C2549 C 0.25720 0.20991 0.40198
 C2550 C 0.24702 0.20577 0.38985
 C2551 C 0.23734 0.19266 0.39178
 C2552 C 0.23794 0.18383 0.40544
 C2553 C 0.24684 0.21469 0.37502
 C2554 C 0.23273 0.21746 0.36705
 C2555 C 0.23273 0.22472 0.35249
 C2556 C 0.24681 0.22938 0.34572
 C2557 C 0.26086 0.22709 0.35375
 C2558 C 0.26089 0.21983 0.36831
 C2559 C 0.24707 0.23510 0.32999
 C2560 C 0.24767 0.23902 0.31656
 H2561 H 0.26573 0.20438 0.42483
 H2562 H 0.26468 0.22002 0.40092
 H2563 H 0.22956 0.18900 0.38259
 H2564 H 0.23050 0.17369 0.40662
 H2565 H 0.22170 0.21383 0.37199
 H2566 H 0.22179 0.22635 0.34635
 H2567 H 0.27185 0.23048 0.34856
 H2568 H 0.27196 0.21770 0.37402
 C2569 C 0.74803 0.32723 0.44217
 C2570 C 0.74882 0.31928 0.43068
 C2571 C 0.74996 0.30998 0.41684
 C2572 C 0.73687 0.30792 0.40735
 C2573 C 0.73812 0.29944 0.39358
 C2574 C 0.75252 0.29291 0.38909
 C2575 C 0.76557 0.29487 0.39882
 C2576 C 0.76429 0.30334 0.41260
 C2577 C 0.75401 0.28465 0.37402
 C2578 C 0.76714 0.28709 0.36453
 C2579 C 0.76800 0.28029 0.34984
 C2580 C 0.75582 0.27090 0.34445
 C2581 C 0.74292 0.26804 0.35398
 C2582 C 0.74202 0.27484 0.36867
 C2583 C 0.75587 0.26544 0.32868
 C2584 C 0.75548 0.26168 0.31522
 H2585 H 0.72574 0.31306 0.41047
 H2586 H 0.72791 0.29836 0.38624
 H2587 H 0.77677 0.28985 0.39579
 H2588 H 0.77450 0.30484 0.41986
 H2589 H 0.77647 0.29474 0.36820
 H2590 H 0.77796 0.28273 0.34250
 H2591 H 0.73337 0.26087 0.34991
 H2592 H 0.73186 0.27257 0.37578
 C2593 C 0.24688 0.82683 0.94167
 C2594 C 0.24763 0.81876 0.93026
 C2595 C 0.24873 0.80934 0.91650
 C2596 C 0.23580 0.80776 0.90670
 C2597 C 0.23705 0.79918 0.89299
 C2598 C 0.25130 0.79207 0.88887
 C2599 C 0.26417 0.79355 0.89892
 C2600 C 0.26288 0.80213 0.91263
 C2601 C 0.25283 0.78373 0.87386
 C2602 C 0.26626 0.78566 0.86467
 C2603 C 0.26720 0.77884 0.84999
 C2604 C 0.25477 0.76995 0.84432
 C2605 C 0.24156 0.76758 0.85355
 C2606 C 0.24059 0.77439 0.86823
 C2607 C 0.25492 0.76458 0.82851
 C2608 C 0.25460 0.76094 0.81502
 H2609 H 0.22481 0.81335 0.90953
 H2610 H 0.22699 0.79848 0.88541
 H2611 H 0.27524 0.78808 0.89617
 H2612 H 0.27297 0.80326 0.92013
 H2613 H 0.27580 0.79294 0.86857
 H2614 H 0.27740 0.78091 0.84288
 H2615 H 0.23183 0.76080 0.84924
 H2616 H 0.23019 0.77252 0.87510
 C2617 C 0.25075 0.82962 0.05680
 C2618 C 0.25062 0.82142 0.06821
 C2619 C 0.25013 0.81181 0.08195
 C2620 C 0.26289 0.81136 0.09210
 C2621 C 0.26212 0.80263 0.10581
 C2622 C 0.24853 0.79422 0.10958
 C2623 C 0.23585 0.79456 0.09918
 C2624 C 0.23666 0.80330 0.08547
 C2625 C 0.24740 0.78570 0.12460
 C2626 C 0.23358 0.78634 0.13339
 C2627 C 0.23289 0.77935 0.14806
 C2628 C 0.24596 0.77158 0.15412
 C2629 C 0.25962 0.77051 0.14529
 C2630 C 0.26034 0.77749 0.13062
 C2631 C 0.24587 0.76607 0.16992
 C2632 C 0.24616 0.76231 0.18341
 H2633 H 0.27335 0.81796 0.08954
 H2634 H 0.27199 0.80281 0.11366
 H2635 H 0.22530 0.78809 0.10166
 H2636 H 0.22671 0.80355 0.07770
 H2637 H 0.22349 0.79274 0.12919
 H2638 H 0.22232 0.78043 0.15486
 H2639 H 0.26984 0.76461 0.14989
 H2640 H 0.27107 0.77662 0.12406
 C2641 C 0.75092 0.32912 0.55748
 C2642 C 0.75072 0.32087 0.56885
 C2643 C 0.75014 0.31121 0.58256
 C2644 C 0.73650 0.30301 0.58618
 C2645 C 0.73562 0.29422 0.59985
 C2646 C 0.74840 0.29352 0.61012
 C2647 C 0.76214 0.30161 0.60625
 C2648 C 0.76299 0.31040 0.59257
 C2649 C 0.74722 0.28495 0.62510
 C2650 C 0.76001 0.27640 0.63095
 C2651 C 0.75928 0.26935 0.64559
 C2652 C 0.74574 0.27070 0.65457
 C2653 C 0.73280 0.27881 0.64868
 C2654 C 0.73351 0.28585 0.63404
 C2655 C 0.74569 0.26512 0.67035
 C2656 C 0.74605 0.26130 0.68383
 H2657 H 0.72647 0.30354 0.57851
 H2658 H 0.72494 0.28800 0.60241
 H2659 H 0.77210 0.30151 0.61400
 H2660 H 0.77358 0.31676 0.58994
 H2661 H 0.77066 0.27531 0.62428
 H2662 H 0.76941 0.26319 0.65007
 H2663 H 0.72233 0.28010 0.65559
 H2664 H 0.72353 0.29252 0.62998
 C2665 C 0.24793 0.17124 0.55936
 C2666 C 0.24898 0.17893 0.57100
 C2667 C 0.25045 0.18786 0.58505
 C2668 C 0.24329 0.20252 0.58632
 C2669 C 0.24454 0.21101 0.60010
 C2670 C 0.25300 0.20494 0.61279
 C2671 C 0.26027 0.19026 0.61131
 C2672 C 0.25899 0.18180 0.59755
 C2673 C 0.25381 0.21356 0.62770
 C2674 C 0.26766 0.21362 0.63654
 C2675 C 0.26802 0.22066 0.65114
 C2676 C 0.25460 0.22779 0.65709
 C2677 C 0.24091 0.22820 0.64821
 C2678 C 0.24051 0.22117 0.63360
 C2679 C 0.25440 0.23335 0.67284
 C2680 C 0.25377 0.23718 0.68626
 H2681 H 0.23669 0.20735 0.57670
 H2682 H 0.23895 0.22234 0.60081
 H2683 H 0.26664 0.18513 0.62093
 H2684 H 0.26455 0.17045 0.59671
 H2685 H 0.27815 0.20805 0.63224
 H2686 H 0.27866 0.22019 0.65795
 H2687 H 0.23039 0.23353 0.65276
 H2688 H 0.22963 0.22117 0.62720
 C2689 C 0.74908 0.67168 0.05867
 C2690 C 0.75009 0.67935 0.07033
 C2691 C 0.75151 0.68826 0.08439
 C2692 C 0.75969 0.68202 0.09705
 C2693 C 0.76094 0.69048 0.11082
 C2694 C 0.75400 0.70533 0.11215
 C2695 C 0.74589 0.71156 0.09931
 C2696 C 0.74467 0.70308 0.08553
 C2697 C 0.75477 0.71396 0.12705
 C2698 C 0.74155 0.72188 0.13273
 C2699 C 0.74188 0.72892 0.14733
 C2700 C 0.75541 0.72820 0.15644
 C2701 C 0.76877 0.72076 0.15070
 C2702 C 0.76847 0.71371 0.13610
 C2703 C 0.75508 0.73375 0.17218
 C2704 C 0.75433 0.73756 0.18561
 H2705 H 0.76500 0.67055 0.09632
 H2706 H 0.76703 0.68523 0.12054
 H2707 H 0.74055 0.72302 0.09991
 H2708 H 0.73835 0.70805 0.07579
 H2709 H 0.73077 0.72212 0.12616
 H2710 H 0.73141 0.73449 0.15172
 H2711 H 0.77928 0.72005 0.15767
 H2712 H 0.77890 0.70790 0.13197
 C2713 C 0.15571 0.56157 0.24564
 C2714 C 0.16242 0.57391 0.24456
 C2715 C 0.17017 0.58878 0.24326
 C2716 C 0.18471 0.58991 0.23594
 C2717 C 0.19216 0.60438 0.23466
 C2718 C 0.18516 0.61796 0.24067
 C2719 C 0.17053 0.61670 0.24797
 C2720 C 0.16311 0.60222 0.24925
 C2721 C 0.19315 0.63335 0.23954
 C2722 C 0.18458 0.64707 0.23644
 C2723 C 0.19201 0.66160 0.23597
 C2724 C 0.20812 0.66263 0.23855
 C2725 C 0.21678 0.64903 0.24144
 C2726 C 0.20937 0.63449 0.24190
 C2727 C 0.21564 0.67767 0.23905
 C2728 C 0.22197 0.69020 0.24002
 H2729 H 0.19027 0.57960 0.23120
 H2730 H 0.20332 0.60496 0.22881
 H2731 H 0.16492 0.62686 0.25293
 H2732 H 0.15187 0.60151 0.25496
 H2733 H 0.17212 0.64659 0.23435
 H2734 H 0.18517 0.67203 0.23376
 H2735 H 0.22923 0.64968 0.24358
 H2736 H 0.21629 0.62421 0.24452
 C2737 C 0.65609 0.06035 0.74609
 C2738 C 0.66280 0.07269 0.74504
 C2739 C 0.67056 0.08757 0.74377
 C2740 C 0.68477 0.08882 0.73587
 C2741 C 0.69221 0.10329 0.73457
 C2742 C 0.68552 0.11676 0.74116
 C2743 C 0.67121 0.11537 0.74906
 C2744 C 0.66381 0.10089 0.75034
 C2745 C 0.69349 0.13215 0.74000
 C2746 C 0.68483 0.14594 0.73753
 C2747 C 0.69227 0.16046 0.73703
 C2748 C 0.70848 0.16142 0.73895
 C2749 C 0.71722 0.14775 0.74119
 C2750 C 0.70980 0.13322 0.74169
 C2751 C 0.71604 0.17644 0.73943
 C2752 C 0.72241 0.18896 0.74038
 H2753 H 0.69008 0.07861 0.73067
 H2754 H 0.70311 0.10398 0.72827
 H2755 H 0.66586 0.12543 0.75446
 H2756 H 0.65282 0.10008 0.75650
 H2757 H 0.67229 0.14552 0.73598
 H2758 H 0.68536 0.17095 0.73532
 H2759 H 0.72975 0.14834 0.74281
 H2760 H 0.71680 0.12287 0.74380
 C2761 C 0.84393 0.05938 0.25355
 C2762 C 0.83751 0.07189 0.25484
 C2763 C 0.83006 0.08693 0.25639
 C2764 C 0.81514 0.08950 0.25022
 C2765 C 0.80803 0.10418 0.25151
 C2766 C 0.81576 0.11653 0.25900
 C2767 C 0.83073 0.11379 0.26525
 C2768 C 0.83781 0.09910 0.26395
 C2769 C 0.80835 0.13224 0.26005
 C2770 C 0.81726 0.14585 0.25785
 C2771 C 0.81018 0.16059 0.25824
 C2772 C 0.79411 0.16197 0.26088
 C2773 C 0.78519 0.14853 0.26331
 C2774 C 0.79224 0.13377 0.26292
 C2775 C 0.78664 0.17709 0.26026
 C2776 C 0.78025 0.18963 0.25919
 H2777 H 0.80904 0.08020 0.24430
 H2778 H 0.79661 0.10594 0.24639
 H2779 H 0.83691 0.12297 0.27124
 H2780 H 0.84934 0.09726 0.26881
 H2781 H 0.82964 0.14509 0.25541
 H2782 H 0.81720 0.17090 0.25621
 H2783 H 0.77273 0.14943 0.26533
 H2784 H 0.78508 0.12356 0.26486
 C2785 C 0.34249 0.55898 0.75294
 C2786 C 0.33604 0.57149 0.75404
 C2787 C 0.32859 0.58656 0.75531
 C2788 C 0.31554 0.58854 0.76486
 C2789 C 0.30839 0.60320 0.76611
 C2790 C 0.31423 0.61613 0.75784
 C2791 C 0.32737 0.61400 0.74829
 C2792 C 0.33448 0.59933 0.74704
 C2793 C 0.30655 0.63170 0.75897
 C2794 C 0.31553 0.64544 0.75941
 C2795 C 0.30829 0.66010 0.75987
 C2796 C 0.29198 0.66127 0.75992
 C2797 C 0.28294 0.64768 0.75971
 C2798 C 0.29016 0.63301 0.75927
 C2799 C 0.28451 0.67639 0.75938
 C2800 C 0.27821 0.68899 0.75840
 H2801 H 0.31090 0.57876 0.77136
 H2802 H 0.29841 0.60448 0.77369
 H2803 H 0.33202 0.62363 0.74158
 H2804 H 0.34456 0.59795 0.73959
 H2805 H 0.32816 0.64484 0.75941
 H2806 H 0.31541 0.67053 0.76000
 H2807 H 0.27031 0.64843 0.75963
 H2808 H 0.28290 0.62270 0.75874
 C2809 C 0.34362 0.43788 0.74762
 C2810 C 0.33695 0.42552 0.74662
 C2811 C 0.32926 0.41062 0.74543
 C2812 C 0.31555 0.40913 0.73671
 C2813 C 0.30817 0.39462 0.73550
 C2814 C 0.31443 0.38137 0.74299
 C2815 C 0.32825 0.38299 0.75171
 C2816 C 0.33559 0.39750 0.75290
 C2817 C 0.30651 0.36596 0.74193
 C2818 C 0.31526 0.35209 0.74051
 C2819 C 0.30782 0.33758 0.74009
 C2820 C 0.29153 0.33669 0.74105
 C2821 C 0.28271 0.35043 0.74225
 C2822 C 0.29012 0.36495 0.74267
 C2823 C 0.28389 0.32172 0.74160
 C2824 C 0.27739 0.30927 0.74258
 H2825 H 0.31057 0.41917 0.73081
 H2826 H 0.29767 0.39374 0.72856
 H2827 H 0.33325 0.37310 0.75781
 H2828 H 0.34619 0.39850 0.75970
 H2829 H 0.32787 0.35246 0.73971
 H2830 H 0.31478 0.32703 0.73919
 H2831 H 0.27010 0.34990 0.74313
 H2832 H 0.28305 0.37536 0.74397
 C2833 C 0.84413 0.93789 0.24737
 C2834 C 0.83734 0.92559 0.24639
 C2835 C 0.82952 0.91076 0.24521
 C2836 C 0.83582 0.89756 0.25256
 C2837 C 0.82836 0.88311 0.25136
 C2838 C 0.81444 0.88163 0.24279
 C2839 C 0.80819 0.89497 0.23544
 C2840 C 0.81569 0.90942 0.23664
 C2841 C 0.80641 0.86628 0.24171
 C2842 C 0.79003 0.86536 0.24260
 C2843 C 0.78252 0.85089 0.24216
 C2844 C 0.79124 0.83711 0.24078
 C2845 C 0.80753 0.83790 0.23967
 C2846 C 0.81506 0.85237 0.24011
 C2847 C 0.78353 0.82217 0.24127
 C2848 C 0.77700 0.80973 0.24219
 H2849 H 0.84650 0.89844 0.25924
 H2850 H 0.83336 0.87315 0.25736
 H2851 H 0.79761 0.89420 0.22860
 H2852 H 0.81073 0.91953 0.23084
 H2853 H 0.78303 0.87581 0.24404
 H2854 H 0.76992 0.85043 0.24315
 H2855 H 0.81442 0.82733 0.23862
 H2856 H 0.82766 0.85267 0.23918
 C2857 C 0.65865 0.94061 0.75222
 C2858 C 0.66553 0.92834 0.75357
 C2859 C 0.67358 0.91360 0.75518
 C2860 C 0.68688 0.91045 0.74630
 C2861 C 0.69452 0.89603 0.74766
 C2862 C 0.68894 0.88451 0.75792
 C2863 C 0.67560 0.88783 0.76686
 C2864 C 0.66800 0.90226 0.76549
 C2865 C 0.69686 0.86904 0.75910
 C2866 C 0.68807 0.85523 0.76038
 C2867 C 0.69549 0.84065 0.76093
 C2868 C 0.71180 0.83964 0.76026
 C2869 C 0.72065 0.85331 0.75920
 C2870 C 0.71325 0.86790 0.75863
 C2871 C 0.71940 0.82459 0.75990
 C2872 C 0.72579 0.81202 0.75910
 H2873 H 0.69129 0.91910 0.73824
 H2874 H 0.70461 0.89379 0.74045
 H2875 H 0.67112 0.87931 0.77500
 H2876 H 0.65773 0.90456 0.77245
 H2877 H 0.67543 0.85566 0.76056
 H2878 H 0.68850 0.83016 0.76163
 H2879 H 0.73328 0.85270 0.75864
 H2880 H 0.72037 0.87830 0.75786
 C2881 C 0.15762 0.44043 0.25296
 C2882 C 0.16440 0.42811 0.25434
 C2883 C 0.17231 0.41330 0.25601
 C2884 C 0.18632 0.41049 0.24815
 C2885 C 0.19385 0.39602 0.24957
 C2886 C 0.18746 0.38411 0.25887
 C2887 C 0.17340 0.38708 0.26679
 C2888 C 0.16590 0.40156 0.26536
 C2889 C 0.19528 0.36859 0.26008
 C2890 C 0.18645 0.35476 0.26007
 C2891 C 0.19383 0.34016 0.26063
 C2892 C 0.21014 0.33916 0.26126
 C2893 C 0.21902 0.35285 0.26150
 C2894 C 0.21167 0.36745 0.26092
 C2895 C 0.21779 0.32412 0.26083
 C2896 C 0.22424 0.31160 0.25993
 H2897 H 0.19138 0.41944 0.24083
 H2898 H 0.20452 0.39406 0.24314
 H2899 H 0.16827 0.37825 0.27419
 H2900 H 0.15508 0.40360 0.27153
 H2901 H 0.17384 0.35520 0.25923
 H2902 H 0.18683 0.32966 0.26032
 H2903 H 0.23166 0.35223 0.26194
 H2904 H 0.21880 0.37786 0.26116
 C2905 C 0.05681 0.24652 0.84357
 C2906 C 0.06862 0.24583 0.83609
 C2907 C 0.08287 0.24531 0.82742
 C2908 C 0.09175 0.23158 0.82704
 C2909 C 0.10603 0.23134 0.81926
 C2910 C 0.11158 0.24485 0.81180
 C2911 C 0.10245 0.25852 0.81207
 C2912 C 0.08818 0.25874 0.81985
 C2913 C 0.12704 0.24486 0.80418
 C2914 C 0.12918 0.25258 0.78992
 C2915 C 0.14392 0.25307 0.78305
 C2916 C 0.15665 0.24587 0.79035
 C2917 C 0.15462 0.23803 0.80445
 C2918 C 0.13989 0.23751 0.81134
 C2919 C 0.17186 0.24670 0.78349
 C2920 C 0.18462 0.24744 0.77778
 H2921 H 0.08771 0.22113 0.83288
 H2922 H 0.11274 0.22060 0.81908
 H2923 H 0.10652 0.26915 0.80661
 H2924 H 0.08141 0.26944 0.82018
 H2925 H 0.11945 0.25818 0.78408
 H2926 H 0.14540 0.25913 0.77211
 H2927 H 0.16444 0.23246 0.81019
 H2928 H 0.13863 0.23167 0.82242
 C2929 C 0.55618 0.74639 0.34161
 C2930 C 0.56793 0.74568 0.33404
 C2931 C 0.58216 0.74506 0.32534
 C2932 C 0.59114 0.73140 0.32526
 C2933 C 0.60545 0.73111 0.31753
 C2934 C 0.61091 0.74450 0.30981
 C2935 C 0.60166 0.75810 0.30974
 C2936 C 0.58736 0.75837 0.31748
 C2937 C 0.62644 0.74450 0.30231
 C2938 C 0.62863 0.75193 0.28792
 C2939 C 0.64343 0.75244 0.28118
 C2940 C 0.65617 0.74553 0.28875
 C2941 C 0.65408 0.73797 0.30298
 C2942 C 0.63930 0.73744 0.30974
 C2943 C 0.67144 0.74642 0.28203
 C2944 C 0.68426 0.74722 0.27644
 H2945 H 0.58718 0.72105 0.33133
 H2946 H 0.61226 0.72043 0.31761
 H2947 H 0.60567 0.76864 0.30407
 H2948 H 0.58051 0.76902 0.31757
 H2949 H 0.61890 0.75731 0.28187
 H2950 H 0.64495 0.75829 0.27013
 H2951 H 0.66391 0.73263 0.30893
 H2952 H 0.63799 0.73183 0.32093
 C2953 C 0.56089 0.25189 0.15444
 C2954 C 0.57303 0.25252 0.16143
 C2955 C 0.58765 0.25316 0.16950
 C2956 C 0.58885 0.24749 0.18468
 C2957 C 0.60323 0.24769 0.19232
 C2958 C 0.61657 0.25356 0.18482
 C2959 C 0.61519 0.25937 0.16961
 C2960 C 0.60080 0.25916 0.16200
 C2961 C 0.63191 0.25336 0.19272
 C2962 C 0.64544 0.24896 0.18459
 C2963 C 0.65990 0.24861 0.19206
 C2964 C 0.66101 0.25266 0.20770
 C2965 C 0.64764 0.25709 0.21590
 C2966 C 0.63315 0.25743 0.20846
 C2967 C 0.67588 0.25216 0.21534
 C2968 C 0.68839 0.25165 0.22165
 H2969 H 0.57872 0.24276 0.19053
 H2970 H 0.60400 0.24297 0.20397
 H2971 H 0.62522 0.26414 0.16364
 H2972 H 0.59996 0.26360 0.15025
 H2973 H 0.64479 0.24555 0.17253
 H2974 H 0.67020 0.24511 0.18565
 H2975 H 0.64842 0.26027 0.22802
 H2976 H 0.62295 0.26103 0.21494
 C2977 C 0.05987 0.75705 0.65551
 C2978 C 0.07192 0.75812 0.66258
 C2979 C 0.08644 0.75904 0.67080
 C2980 C 0.08855 0.75054 0.68452
 C2981 C 0.10297 0.75071 0.69207
 C2982 C 0.11546 0.75937 0.68593
 C2983 C 0.11314 0.76808 0.67227
 C2984 C 0.09870 0.76790 0.66474
 C2985 C 0.13097 0.75888 0.69349
 C2986 C 0.14459 0.75748 0.68450
 C2987 C 0.15920 0.75646 0.69163
 C2988 C 0.16036 0.75684 0.70780
 C2989 C 0.14691 0.75838 0.71684
 C2990 C 0.13227 0.75939 0.70974
 C2991 C 0.17534 0.75544 0.71510
 C2992 C 0.18791 0.75420 0.72120
 H2993 H 0.07913 0.74358 0.68923
 H2994 H 0.10449 0.74373 0.70247
 H2995 H 0.12250 0.77500 0.66739
 H2996 H 0.09715 0.77451 0.65411
 H2997 H 0.14391 0.75684 0.67199
 H2998 H 0.16957 0.75523 0.68455
 H2999 H 0.14772 0.75872 0.72937
 H3000 H 0.12199 0.76063 0.71692
 C3001 C 0.94355 0.73964 0.65804
 C3002 C 0.93174 0.73877 0.66552
 C3003 C 0.91750 0.73824 0.67420
 C3004 C 0.91590 0.74733 0.68753
 C3005 C 0.90166 0.74777 0.69536
 C3006 C 0.88886 0.73913 0.68990
 C3007 C 0.89070 0.72975 0.67669
 C3008 C 0.90495 0.72934 0.66886
 C3009 C 0.87348 0.74039 0.69759
 C3010 C 0.86414 0.72710 0.69978
 C3011 C 0.84943 0.72844 0.70664
 C3012 C 0.84393 0.74307 0.71134
 C3013 C 0.85317 0.75633 0.70929
 C3014 C 0.86787 0.75502 0.70246
 C3015 C 0.82877 0.74453 0.71819
 C3016 C 0.81607 0.74586 0.72396
 H3017 H 0.92557 0.75428 0.69172
 H3018 H 0.90062 0.75494 0.70563
 H3019 H 0.88099 0.72312 0.67212
 H3020 H 0.90609 0.72234 0.65848
 H3021 H 0.86824 0.71567 0.69628
 H3022 H 0.84235 0.71811 0.70823
 H3023 H 0.84897 0.76771 0.71287
 H3024 H 0.87471 0.76548 0.70070
 C3025 C 0.44267 0.24378 0.15674
 C3026 C 0.43078 0.24357 0.16412
 C3027 C 0.41646 0.24362 0.17269
 C3028 C 0.41017 0.25776 0.17783
 C3029 C 0.39595 0.25796 0.18568
 C3030 C 0.38783 0.24398 0.18846
 C3031 C 0.39432 0.22980 0.18337
 C3032 C 0.40857 0.22963 0.17552
 C3033 C 0.37250 0.24429 0.19633
 C3034 C 0.36013 0.23503 0.19089
 C3035 C 0.34551 0.23572 0.19798
 C3036 C 0.34311 0.24565 0.21059
 C3037 C 0.35537 0.25479 0.21619
 C3038 C 0.36999 0.25412 0.20911
 C3039 C 0.32801 0.24664 0.21766
 C3040 C 0.31535 0.24758 0.22359
 H3041 H 0.41618 0.26865 0.17560
 H3042 H 0.39112 0.26907 0.18927
 H3043 H 0.38840 0.21885 0.18551
 H3044 H 0.41337 0.21862 0.17158
 H3045 H 0.36168 0.22750 0.18094
 H3046 H 0.33606 0.22864 0.19356
 H3047 H 0.35360 0.26248 0.22598
 H3048 H 0.37936 0.26124 0.21366
 C3049 C 0.43861 0.75868 0.34642
 C3050 C 0.42639 0.75880 0.33955
 C3051 C 0.41172 0.75852 0.33154
 C3052 C 0.40300 0.74476 0.33130
 C3053 C 0.38863 0.74440 0.32368
 C3054 C 0.38282 0.75784 0.31621
 C3055 C 0.39170 0.77161 0.31645
 C3056 C 0.40609 0.77195 0.32410
 C3057 C 0.36753 0.75743 0.30823
 C3058 C 0.36555 0.76467 0.29370
 C3059 C 0.35117 0.76400 0.28607
 C3060 C 0.33865 0.75613 0.29291
 C3061 C 0.34047 0.74900 0.30741
 C3062 C 0.35483 0.74964 0.31504
 C3063 C 0.32395 0.75524 0.28501
 C3064 C 0.31158 0.75437 0.27848
 H3065 H 0.40732 0.73430 0.33700
 H3066 H 0.38214 0.73358 0.32349
 H3067 H 0.38741 0.78217 0.31093
 H3068 H 0.41276 0.78267 0.32428
 H3069 H 0.37518 0.77059 0.28812
 H3070 H 0.34985 0.76953 0.27482
 H3071 H 0.33080 0.74293 0.31279
 H3072 H 0.35597 0.74415 0.32632
 C3073 C 0.93941 0.25863 0.84591
 C3074 C 0.92740 0.25871 0.83868
 C3075 C 0.91301 0.25839 0.83020
 C3076 C 0.90548 0.27233 0.82611
 C3077 C 0.89127 0.27192 0.81816
 C3078 C 0.88447 0.25754 0.81422
 C3079 C 0.89220 0.24361 0.81831
 C3080 C 0.90638 0.24405 0.82626
 C3081 C 0.86926 0.25701 0.80609
 C3082 C 0.86673 0.24620 0.79413
 C3083 C 0.85222 0.24538 0.78679
 C3084 C 0.84011 0.25534 0.79133
 C3085 C 0.84254 0.26623 0.80311
 C3086 C 0.85705 0.26709 0.81046
 C3087 C 0.82513 0.25423 0.78400
 C3088 C 0.81257 0.25322 0.77786
 H3089 H 0.91055 0.28348 0.82911
 H3090 H 0.88565 0.28282 0.81499
 H3091 H 0.88713 0.23237 0.81562
 H3092 H 0.91212 0.23320 0.82946
 H3093 H 0.87599 0.23844 0.79041
 H3094 H 0.85043 0.23694 0.77764
 H3095 H 0.83319 0.27396 0.80670
 H3096 H 0.85862 0.27539 0.81976
 C3097 C 0.58079 1.00602 0.68984
 C3098 C 0.57334 1.00782 0.67807
 C3099 C 0.56469 1.00999 0.66387
 C3100 C 0.54892 1.00582 0.66302
 C3101 C 0.54069 1.00760 0.64908
 C3102 C 0.54813 1.01358 0.63579
 C3103 C 0.56394 1.01789 0.63684
 C3104 C 0.57215 1.01610 0.65077
 C3105 C 0.53968 1.01479 0.62074
 C3106 C 0.54220 1.02754 0.61071
 C3107 C 0.53520 1.02803 0.59605
 C3108 C 0.52552 1.01583 0.59122
 C3109 C 0.52258 1.00333 0.60128
 C3110 C 0.52957 1.00281 0.61595
 C3111 C 0.51983 1.01538 0.57549
 C3112 C 0.51579 1.01435 0.56213
 H3113 H 0.54301 1.00112 0.67309
 H3114 H 0.52849 1.00432 0.64871
 H3115 H 0.57010 1.02229 0.62679
 H3116 H 0.58436 1.01932 0.65127
 H3117 H 0.54974 1.03704 0.61413
 H3118 H 0.53764 1.03773 0.58834
 H3119 H 0.51526 0.99373 0.59761
 H3120 H 0.52754 0.99274 0.62328
 C3121 C 0.08050 0.50542 1.19121
 C3122 C 0.07295 0.50692 1.17946
 C3123 C 0.06411 0.50872 1.16532
 C3124 C 0.06116 0.52362 1.15924
 C3125 C 0.05307 0.52534 1.14522
 C3126 C 0.04780 0.51215 1.13708
 C3127 C 0.05065 0.49723 1.14341
 C3128 C 0.05875 0.49555 1.15742
 C3129 C 0.03988 0.51386 1.12179
 C3130 C 0.02734 0.50410 1.11774
 C3131 C 0.02068 0.50495 1.10293
 C3132 C 0.02641 0.51558 1.09199
 C3133 C 0.03860 0.52561 1.09604
 C3134 C 0.04528 0.52480 1.11084
 C3135 C 0.02080 0.51519 1.07623
 C3136 C 0.01679 0.51426 1.06284
 H3137 H 0.06523 0.53391 1.16527
 H3138 H 0.05092 0.53698 1.14076
 H3139 H 0.04697 0.48683 1.13734
 H3140 H 0.06101 0.48395 1.16197
 H3141 H 0.02278 0.49570 1.12597
 H3142 H 0.01131 0.49705 1.09991
 H3143 H 0.04326 0.53377 1.08761
 H3144 H 0.05504 0.53233 1.11350
 C3145 C -0.07954 -0.00664 1.19244
 C3146 C -0.07195 -0.00811 1.18075
 C3147 C -0.06309 -0.00981 1.16667
 C3148 C -0.05671 0.00333 1.15941
 C3149 C -0.04863 0.00180 1.14542
 C3150 C -0.04684 -0.01293 1.13846
 C3151 C -0.05311 -0.02611 1.14595
 C3152 C -0.06118 -0.02455 1.15996
 C3153 C -0.03901 -0.01439 1.12315
 C3154 C -0.04518 -0.02426 1.11168
 C3155 C -0.03858 -0.02471 1.09686
 C3156 C -0.02569 -0.01536 1.09331
 C3157 C -0.01918 -0.00584 1.10477
 C3158 C -0.02577 -0.00537 1.11959
 C3159 C -0.02012 -0.01443 1.07759
 C3160 C -0.01613 -0.01298 1.06425
 H3161 H -0.05817 0.01481 1.16446
 H3162 H -0.04417 0.01221 1.13985
 H3163 H -0.05179 -0.03763 1.14098
 H3164 H -0.06606 -0.03481 1.16548
 H3165 H -0.05548 -0.03119 1.11396
 H3166 H -0.04383 -0.03199 1.08805
 H3167 H -0.00926 0.00152 1.10213
 H3168 H -0.02062 0.00219 1.12822
 C3169 C 0.41933 0.49237 0.69148
 C3170 C 0.42679 0.49075 0.67973
 C3171 C 0.43546 0.48883 0.66556
 C3172 C 0.45129 0.49278 0.66491
 C3173 C 0.45954 0.49133 0.65100
 C3174 C 0.45205 0.48589 0.63753
 C3175 C 0.43617 0.48177 0.63837
 C3176 C 0.42796 0.48324 0.65228
 C3177 C 0.46051 0.48509 0.62251
 C3178 C 0.45785 0.47271 0.61215
 C3179 C 0.46485 0.47265 0.59750
 C3180 C 0.47463 0.48491 0.59303
 C3181 C 0.47771 0.49704 0.60341
 C3182 C 0.47074 0.49712 0.61806
 C3183 C 0.48031 0.48585 0.57734
 C3184 C 0.48435 0.48728 0.56402
 H3185 H 0.45724 0.49709 0.67513
 H3186 H 0.47178 0.49445 0.65077
 H3187 H 0.42999 0.47779 0.62818
 H3188 H 0.41569 0.48019 0.65263
 H3189 H 0.45021 0.46317 0.61530
 H3190 H 0.46230 0.46325 0.58953
 H3191 H 0.48513 0.50668 0.60001
 H3192 H 0.47287 0.50692 0.62566
 C3193 C 0.41961 0.50479 -0.19138
 C3194 C 0.42706 0.50645 -0.17962
 C3195 C 0.43575 0.50841 -0.16544
 C3196 C 0.45124 0.50323 -0.16437
 C3197 C 0.45948 0.50475 -0.15043
 C3198 C 0.45233 0.51148 -0.13737
 C3199 C 0.43681 0.51682 -0.13864
 C3200 C 0.42860 0.51529 -0.15258
 C3201 C 0.46074 0.51239 -0.12230
 C3202 C 0.45896 0.52548 -0.11263
 C3203 C 0.46591 0.52577 -0.09794
 C3204 C 0.47478 0.51303 -0.09273
 C3205 C 0.47697 0.50015 -0.10243
 C3206 C 0.47004 0.49983 -0.11711
 C3207 C 0.48042 0.51252 -0.07699
 C3208 C 0.48444 0.51151 -0.06361
 H3209 H 0.45690 0.49793 -0.17426
 H3210 H 0.47145 0.50067 -0.14988
 H3211 H 0.43088 0.52182 -0.12876
 H3212 H 0.41660 0.51929 -0.15325
 H3213 H 0.45204 0.53542 -0.11636
 H3214 H 0.46405 0.53578 -0.09051
 H3215 H 0.48367 0.49015 -0.09846
 H3216 H 0.47148 0.48950 -0.12416
 C3217 C -0.07975 1.00494 0.30908
 C3218 C -0.07248 1.00661 0.32095
 C3219 C -0.06402 1.00860 0.33526
 C3220 C -0.04829 1.00422 0.33633
 C3221 C -0.04025 1.00576 0.35038
 C3222 C -0.04786 1.01172 0.36357
 C3223 C -0.06363 1.01626 0.36230
 C3224 C -0.07163 1.01470 0.34825
 C3225 C -0.03963 1.01264 0.37874
 C3226 C -0.04220 1.02532 0.38876
 C3227 C -0.03541 1.02555 0.40352
 C3228 C -0.02592 1.01315 0.40845
 C3229 C -0.02294 1.00070 0.39841
 C3230 C -0.02971 1.00044 0.38365
 C3231 C -0.02042 1.01245 0.42424
 C3232 C -0.01649 1.01124 0.43763
 H3233 H -0.04227 0.99952 0.32634
 H3234 H -0.02809 1.00232 0.35093
 H3235 H -0.06990 1.02064 0.37227
 H3236 H -0.08382 1.01809 0.34758
 H3237 H -0.04960 1.03498 0.38525
 H3238 H -0.03786 1.03521 0.41122
 H3239 H -0.01576 0.99095 0.40216
 H3240 H -0.02766 0.99042 0.37632
 C3241 C 0.07946 0.49422 0.30729
 C3242 C 0.07194 0.49266 0.31902
 C3243 C 0.06314 0.49083 0.33313
 C3244 C 0.05695 0.50395 0.34058
 C3245 C 0.04887 0.50228 0.35456
 C3246 C 0.04688 0.48744 0.36133
 C3247 C 0.05298 0.47430 0.35366
 C3248 C 0.06105 0.47600 0.33966
 C3249 C 0.03899 0.48581 0.37661
 C3250 C 0.04497 0.47553 0.38795
 C3251 C 0.03828 0.47486 0.40272
 C3252 C 0.02549 0.48437 0.40636
 C3253 C 0.01919 0.49431 0.39504
 C3254 C 0.02586 0.49501 0.38025
 C3255 C 0.01982 0.48501 0.42207
 C3256 C 0.01573 0.48619 0.43540
 H3257 H 0.05854 0.51550 0.33567
 H3258 H 0.04454 0.51266 0.36027
 H3259 H 0.05150 0.46271 0.35847
 H3260 H 0.06577 0.46575 0.33399
 H3261 H 0.05518 0.46845 0.38560
 H3262 H 0.04338 0.46725 0.41144
 H3263 H 0.00935 0.50180 0.39774
 H3264 H 0.02085 0.50288 0.37173
 C3265 C 0.58061 -0.00739 -0.19288
 C3266 C 0.57313 -0.00915 -0.18116
 C3267 C 0.56435 -0.01118 -0.16705
 C3268 C 0.55729 0.00170 -0.15997
 C3269 C 0.54923 -0.00014 -0.14600
 C3270 C 0.54814 -0.01491 -0.13887
 C3271 C 0.55512 -0.02783 -0.14618
 C3272 C 0.56317 -0.02596 -0.16017
 C3273 C 0.54026 -0.01666 -0.12360
 C3274 C 0.54680 -0.02626 -0.11198
 C3275 C 0.54008 -0.02698 -0.09722
 C3276 C 0.52670 -0.01821 -0.09388
 C3277 C 0.51985 -0.00897 -0.10548
 C3278 C 0.52656 -0.00822 -0.12024
 C3279 C 0.52090 -0.01753 -0.07821
 C3280 C 0.51670 -0.01626 -0.06493
 H3281 H 0.55818 0.01320 -0.16515
 H3282 H 0.54421 0.01008 -0.14057
 H3283 H 0.55435 -0.03937 -0.14109
 H3284 H 0.56857 -0.03602 -0.16556
 H3285 H 0.55746 -0.03274 -0.11410
 H3286 H 0.54559 -0.03403 -0.08829
 H3287 H 0.50954 -0.00205 -0.10301
 H3288 H 0.52112 -0.00089 -0.12899
 C3289 C 0.68906 0.59370 -0.00156
 C3290 C 0.67678 0.58694 -0.00286
 C3291 C 0.66191 0.57923 -0.00447
 C3292 C 0.64811 0.58735 -0.00116
 C3293 C 0.63364 0.58002 -0.00277
 C3294 C 0.63273 0.56441 -0.00773
 C3295 C 0.64668 0.55634 -0.01105
 C3296 C 0.66116 0.56371 -0.00944
 C3297 C 0.61730 0.55656 -0.00915
 C3298 C 0.61541 0.54097 -0.00428
 C3299 C 0.60074 0.53385 -0.00491
 C3300 C 0.58776 0.54215 -0.01047
 C3301 C 0.58957 0.55755 -0.01562
 C3302 C 0.60423 0.56470 -0.01499
 C3303 C 0.57245 0.53518 -0.00997
 C3304 C 0.55963 0.52945 -0.00888
 H3305 H 0.64854 0.59936 0.00272
 H3306 H 0.62317 0.58649 0.00012
 H3307 H 0.64638 0.54438 -0.01505
 H3308 H 0.67175 0.55732 -0.01210
 H3309 H 0.62517 0.53443 0.00045
 H3310 H 0.59947 0.52197 -0.00077
 H3311 H 0.57962 0.56412 -0.01990
 H3312 H 0.60533 0.57663 -0.01903
 C3313 C 0.18799 1.09197 0.49929
 C3314 C 0.17576 1.08508 0.49811
 C3315 C 0.16096 1.07722 0.49664
 C3316 C 0.16036 1.06140 0.49268
 C3317 C 0.14594 1.05388 0.49121
 C3318 C 0.13190 1.06210 0.49365
 C3319 C 0.13265 1.07801 0.49760
 C3320 C 0.14706 1.08550 0.49908
 C3321 C 0.11653 1.05412 0.49235
 C3322 C 0.10360 1.06182 0.48567
 C3323 C 0.08898 1.05458 0.48511
 C3324 C 0.08706 1.03954 0.49118
 C3325 C 0.09991 1.03167 0.49761
 C3326 C 0.11454 1.03888 0.49817
 C3327 C 0.07177 1.03254 0.49167
 C3328 C 0.05894 1.02683 0.49270
 H3329 H 0.17103 1.05488 0.49071
 H3330 H 0.14578 1.04168 0.48799
 H3331 H 0.12209 1.08463 0.49980
 H3332 H 0.14736 1.09774 0.50217
 H3333 H 0.10478 1.07346 0.48089
 H3334 H 0.07913 1.06082 0.48014
 H3335 H 0.09855 1.02007 0.50247
 H3336 H 0.12418 1.03270 0.50356
 C3337 C 0.18928 -0.09246 1.00137
 C3338 C 0.17711 -0.08545 1.00281
 C3339 C 0.16238 -0.07742 1.00465
 C3340 C 0.15770 -0.06602 0.99393
 C3341 C 0.14320 -0.05859 0.99548
 C3342 C 0.13314 -0.06249 1.00780
 C3343 C 0.13802 -0.07388 1.01859
 C3344 C 0.15253 -0.08127 1.01702
 C3345 C 0.11750 -0.05496 1.00917
 C3346 C 0.10434 -0.06378 1.01349
 C3347 C 0.08954 -0.05684 1.01416
 C3348 C 0.08764 -0.04099 1.01058
 C3349 C 0.10068 -0.03207 1.00650
 C3350 C 0.11550 -0.03898 1.00581
 C3351 C 0.07224 -0.03410 1.01020
 C3352 C 0.05936 -0.02838 1.00925
 H3353 H 0.16518 -0.06298 0.98427
 H3354 H 0.13972 -0.05005 0.98685
 H3355 H 0.13067 -0.07701 1.02830
 H3356 H 0.15603 -0.09006 1.02541
 H3357 H 0.10542 -0.07614 1.01594
 H3358 H 0.07952 -0.06391 1.01719
 H3359 H 0.09937 -0.01980 1.00366
 H3360 H 0.12540 -0.03181 1.00265
 C3361 C 0.68978 0.40725 0.50197
 C3362 C 0.67759 0.41424 0.50334
 C3363 C 0.66284 0.42224 0.50510
 C3364 C 0.65834 0.43385 0.49452
 C3365 C 0.64383 0.44127 0.49600
 C3366 C 0.63358 0.43716 0.50809
 C3367 C 0.63828 0.42556 0.51874
 C3368 C 0.65280 0.41817 0.51724
 C3369 C 0.61794 0.44470 0.50937
 C3370 C 0.60470 0.43583 0.51334
 C3371 C 0.58990 0.44279 0.51393
 C3372 C 0.58809 0.45870 0.51063
 C3373 C 0.60121 0.46768 0.50691
 C3374 C 0.61602 0.46075 0.50629
 C3375 C 0.57271 0.46563 0.51017
 C3376 C 0.55985 0.47137 0.50917
 H3377 H 0.66597 0.43706 0.48503
 H3378 H 0.64049 0.44998 0.48748
 H3379 H 0.63078 0.42226 0.52828
 H3380 H 0.65616 0.40922 0.52552
 H3381 H 0.60572 0.42342 0.51557
 H3382 H 0.57983 0.43568 0.51669
 H3383 H 0.59996 0.48000 0.50428
 H3384 H 0.62597 0.46795 0.50341
 C3385 C -0.18987 0.40593 0.49657
 C3386 C -0.17746 0.41255 0.49581
 C3387 C -0.16248 0.42013 0.49468
 C3388 C -0.14921 0.41305 0.50113
 C3389 C -0.13458 0.42014 0.49971
 C3390 C -0.13299 0.43445 0.49179
 C3391 C -0.14642 0.44151 0.48539
 C3392 C -0.16104 0.43439 0.48682
 C3393 C -0.11741 0.44198 0.49033
 C3394 C -0.11582 0.45825 0.49197
 C3395 C -0.10108 0.46524 0.49120
 C3396 C -0.08773 0.45611 0.48873
 C3397 C -0.08922 0.43996 0.48684
 C3398 C -0.10393 0.43294 0.48761
 C3399 C -0.07246 0.46317 0.48910
 C3400 C -0.05968 0.46902 0.49006
 H3401 H -0.15016 0.40202 0.50724
 H3402 H -0.12454 0.41450 0.50497
 H3403 H -0.14558 0.45243 0.47908
 H3404 H -0.17121 0.43994 0.48169
 H3405 H -0.12591 0.46552 0.49426
 H3406 H -0.10008 0.47773 0.49283
 H3407 H -0.07897 0.43275 0.48497
 H3408 H -0.10476 0.42043 0.48608
 C3409 C 0.30970 -0.09437 -0.00521
 C3410 C 0.32215 -0.08784 -0.00617
 C3411 C 0.33716 -0.08036 -0.00759
 C3412 C 0.34755 -0.08505 -0.01920
 C3413 C 0.36222 -0.07802 -0.02050
 C3414 C 0.36672 -0.06616 -0.01019
 C3415 C 0.35615 -0.06146 0.00140
 C3416 C 0.34149 -0.06852 0.00268
 C3417 C 0.38246 -0.05888 -0.01135
 C3418 C 0.38439 -0.04276 -0.00894
 C3419 C 0.39925 -0.03603 -0.00952
 C3420 C 0.41240 -0.04529 -0.01253
 C3421 C 0.41058 -0.06130 -0.01515
 C3422 C 0.39573 -0.06805 -0.01460
 C3423 C 0.42780 -0.03851 -0.01203
 C3424 C 0.44063 -0.03280 -0.01096
 H3425 H 0.34432 -0.09418 -0.02724
 H3426 H 0.36998 -0.08178 -0.02966
 H3427 H 0.35933 -0.05252 0.00965
 H3428 H 0.33358 -0.06482 0.01175
 H3429 H 0.37441 -0.03534 -0.00663
 H3430 H 0.40050 -0.02364 -0.00742
 H3431 H 0.42067 -0.06862 -0.01735
 H3432 H 0.39469 -0.08052 -0.01630
 C3433 C 0.30903 1.09301 0.50310
 C3434 C 0.32147 1.08633 0.50362
 C3435 C 0.33650 1.07871 0.50447
 C3436 C 0.34997 1.08679 0.50006
 C3437 C 0.36462 1.07961 0.50123
 C3438 C 0.36605 1.06422 0.50684
 C3439 C 0.35242 1.05616 0.51119
 C3440 C 0.33776 1.06338 0.51003
 C3441 C 0.38166 1.05660 0.50801
 C3442 C 0.38368 1.04085 0.50386
 C3443 C 0.39849 1.03389 0.50437
 C3444 C 0.41149 1.04254 0.50910
 C3445 C 0.40957 1.05814 0.51350
 C3446 C 0.39478 1.06512 0.51298
 C3447 C 0.42689 1.03569 0.50854
 C3448 C 0.43981 1.03011 0.50746
 H3449 H 0.34915 1.09866 0.49574
 H3450 H 0.37483 1.08606 0.49755
 H3451 H 0.35312 1.04437 0.51571
 H3452 H 0.32744 1.05703 0.51357
 H3453 H 0.37388 1.03402 0.49980
 H3454 H 0.39984 1.02185 0.50081
 H3455 H 0.41954 1.06497 0.51713
 H3456 H 0.39360 1.07719 0.51647
 C3457 C -0.18978 0.59386 1.00336
 C3458 C -0.17736 0.58715 1.00395
 C3459 C -0.16235 0.57950 1.00491
 C3460 C -0.14883 0.58759 1.00068
 C3461 C -0.13419 0.58039 1.00193
 C3462 C -0.13284 0.56496 1.00747
 C3463 C -0.14651 0.55690 1.01165
 C3464 C -0.16115 0.56414 1.01039
 C3465 C -0.11724 0.55732 1.00873
 C3466 C -0.11521 0.54159 1.00449
 C3467 C -0.10041 0.53462 1.00506
 C3468 C -0.08743 0.54322 1.00992
 C3469 C -0.08937 0.55879 1.01442
 C3470 C -0.10416 0.56579 1.01385
 C3471 C -0.07203 0.53638 1.00939
 C3472 C -0.05911 0.53079 1.00829
 H3473 H -0.14959 0.59948 0.99642
 H3474 H -0.12395 0.58685 0.99839
 H3475 H -0.14587 0.54508 1.01611
 H3476 H -0.17152 0.55778 1.01379
 H3477 H -0.12498 0.53480 1.00032
 H3478 H -0.09905 0.52260 1.00141
 H3479 H -0.07942 0.56559 1.01816
 H3480 H -0.10535 0.57784 1.01741
 C3481 C 0.01279 0.69086 0.57931
 C3482 C 0.01424 0.67880 0.57238
 C3483 C 0.01541 0.66407 0.56466
 C3484 C 0.02300 0.65157 0.57199
 C3485 C 0.02273 0.63676 0.56531
 C3486 C 0.01481 0.63429 0.55125
 C3487 C 0.00762 0.64703 0.54373
 C3488 C 0.00790 0.66184 0.55043
 C3489 C 0.01333 0.61834 0.54491
 C3490 C -0.00107 0.61323 0.53896
 C3491 C -0.00275 0.59797 0.53364
 C3492 C 0.00992 0.58766 0.53420
 C3493 C 0.02434 0.59264 0.53996
 C3494 C 0.02604 0.60791 0.54530
 C3495 C 0.00808 0.57196 0.52883
 C3496 C 0.00641 0.55886 0.52417
 H3497 H 0.02872 0.65318 0.58308
 H3498 H 0.02820 0.62713 0.57145
 H3499 H 0.00161 0.64550 0.53279
 H3500 H 0.00195 0.67145 0.54471
 H3501 H -0.01113 0.62093 0.53875
 H3502 H -0.01395 0.59419 0.52920
 H3503 H 0.03423 0.58473 0.54035
 H3504 H 0.03730 0.61159 0.54970
 C3505 C 0.50942 0.19002 0.07775
 C3506 C 0.51057 0.17799 0.07071
 C3507 C 0.51155 0.16329 0.06288
 C3508 C 0.50199 0.16036 0.05007
 C3509 C 0.50187 0.14555 0.04338
 C3510 C 0.51128 0.13351 0.04948
 C3511 C 0.52116 0.13671 0.06210
 C3512 C 0.52127 0.15152 0.06877
 C3513 C 0.51023 0.11749 0.04324
 C3514 C 0.52373 0.10829 0.04139
 C3515 C 0.52257 0.09295 0.03609
 C3516 C 0.50793 0.08667 0.03261
 C3517 C 0.49446 0.09575 0.03430
 C3518 C 0.49558 0.11108 0.03958
 C3519 C 0.50667 0.07089 0.02728
 C3520 C 0.50543 0.05773 0.02269
 H3521 H 0.49440 0.16941 0.04547
 H3522 H 0.49429 0.14345 0.03354
 H3523 H 0.52839 0.12762 0.06716
 H3524 H 0.52861 0.15368 0.07878
 H3525 H 0.53516 0.11298 0.04399
 H3526 H 0.53307 0.08599 0.03474
 H3527 H 0.48308 0.09096 0.03164
 H3528 H 0.48497 0.11780 0.04112
 C3529 C -0.01214 0.19428 0.92160
 C3530 C -0.01366 0.18209 0.92837
 C3531 C -0.01499 0.16722 0.93591
 C3532 C -0.02275 0.15502 0.92845
 C3533 C -0.02277 0.14010 0.93501
 C3534 C -0.01496 0.13723 0.94909
 C3535 C -0.00757 0.14967 0.95672
 C3536 C -0.00756 0.16458 0.95014
 C3537 C -0.01382 0.12115 0.95534
 C3538 C 0.00044 0.11559 0.96133
 C3539 C 0.00179 0.10023 0.96661
 C3540 C -0.01107 0.09026 0.96595
 C3541 C -0.02536 0.09569 0.96014
 C3542 C -0.02674 0.11107 0.95484
 C3543 C -0.00952 0.07446 0.97127
 C3544 C -0.00798 0.06129 0.97590
 H3545 H -0.02842 0.15695 0.91736
 H3546 H -0.02839 0.13071 0.92879
 H3547 H -0.00163 0.14782 0.96767
 H3548 H -0.00149 0.17396 0.95596
 H3549 H 0.01065 0.12301 0.96162
 H3550 H 0.01290 0.09610 0.97108
 H3551 H -0.03540 0.08804 0.95966
 H3552 H -0.03789 0.11509 0.95041
 C3553 C 0.48846 0.69370 0.42031
 C3554 C 0.48700 0.68147 0.42702
 C3555 C 0.48571 0.66656 0.43450
 C3556 C 0.47827 0.65428 0.42685
 C3557 C 0.47825 0.63936 0.43341
 C3558 C 0.48573 0.63657 0.44768
 C3559 C 0.49280 0.64909 0.45548
 C3560 C 0.49281 0.66401 0.44890
 C3561 C 0.48685 0.62052 0.45398
 C3562 C 0.50099 0.61509 0.46036
 C3563 C 0.50232 0.59976 0.46573
 C3564 C 0.48955 0.58968 0.46478
 C3565 C 0.47538 0.59498 0.45858
 C3566 C 0.47403 0.61033 0.45318
 C3567 C 0.49108 0.57392 0.47022
 C3568 C 0.49260 0.56080 0.47498
 H3569 H 0.47285 0.65615 0.41563
 H3570 H 0.47289 0.62991 0.42705
 H3571 H 0.49848 0.64730 0.46658
 H3572 H 0.49862 0.67345 0.45487
 H3573 H 0.51113 0.62259 0.46089
 H3574 H 0.51333 0.59573 0.47051
 H3575 H 0.46542 0.58726 0.45787
 H3576 H 0.46296 0.61425 0.44845
 C3577 C 0.51434 0.81052 0.42014
 C3578 C 0.51704 0.82260 0.42664
 C3579 C 0.51945 0.83743 0.43387
 C3580 C 0.52794 0.84900 0.42615
 C3581 C 0.52856 0.86409 0.43216
 C3582 C 0.52063 0.86777 0.44594
 C3583 C 0.51261 0.85590 0.45391
 C3584 C 0.51200 0.84083 0.44788
 C3585 C 0.51976 0.88409 0.45142
 C3586 C 0.52071 0.88750 0.46732
 C3587 C 0.51866 0.90278 0.47252
 C3588 C 0.51564 0.91479 0.46188
 C3589 C 0.51500 0.91159 0.44602
 C3590 C 0.51706 0.89632 0.44080
 C3591 C 0.51273 0.93032 0.46732
 C3592 C 0.51017 0.94324 0.47208
 H3593 H 0.53368 0.84648 0.41525
 H3594 H 0.53497 0.87297 0.42589
 H3595 H 0.50623 0.85844 0.46444
 H3596 H 0.50526 0.83197 0.45384
 H3597 H 0.52293 0.87833 0.47573
 H3598 H 0.51922 0.90519 0.48483
 H3599 H 0.51262 0.92082 0.43772
 H3600 H 0.51603 0.89401 0.42851
 C3601 C 0.01387 0.31122 0.92055
 C3602 C 0.01663 0.32338 0.92686
 C3603 C 0.01918 0.33829 0.93388
 C3604 C 0.01222 0.34177 0.94811
 C3605 C 0.01303 0.35688 0.95402
 C3606 C 0.02075 0.36870 0.94570
 C3607 C 0.02818 0.36496 0.93167
 C3608 C 0.02737 0.34983 0.92579
 C3609 C 0.02010 0.38505 0.95113
 C3610 C 0.01701 0.39723 0.94056
 C3611 C 0.01514 0.41252 0.94579
 C3612 C 0.01638 0.41580 0.96161
 C3613 C 0.01980 0.40383 0.97217
 C3614 C 0.02166 0.38852 0.96697
 C3615 C 0.01359 0.43132 0.96710
 C3616 C 0.01110 0.44422 0.97195
 H3617 H 0.00572 0.33293 0.95437
 H3618 H 0.00702 0.35948 0.96475
 H3619 H 0.03436 0.37380 0.92513
 H3620 H 0.03273 0.34724 0.91472
 H3621 H 0.01551 0.39486 0.92833
 H3622 H 0.01244 0.42172 0.93755
 H3623 H 0.02080 0.40629 0.98445
 H3624 H 0.02418 0.37939 0.97533
 C3625 C 0.48958 0.30789 0.08079
 C3626 C 0.48772 0.32023 0.07436
 C3627 C 0.48628 0.33525 0.06711
 C3628 C 0.47672 0.34671 0.07370
 C3629 C 0.47669 0.36186 0.06766
 C3630 C 0.48630 0.36570 0.05501
 C3631 C 0.49548 0.35396 0.04817
 C3632 C 0.49548 0.33883 0.05421
 C3633 C 0.48737 0.38201 0.04947
 C3634 C 0.50201 0.38845 0.04587
 C3635 C 0.50316 0.40388 0.04080
 C3636 C 0.48972 0.41306 0.03929
 C3637 C 0.47509 0.40681 0.04288
 C3638 C 0.47391 0.39136 0.04799
 C3639 C 0.49103 0.42875 0.03361
 C3640 C 0.49247 0.44173 0.02849
 H3641 H 0.46967 0.34405 0.08378
 H3642 H 0.46962 0.37070 0.07324
 H3643 H 0.50282 0.35655 0.03829
 H3644 H 0.50296 0.33004 0.04908
 H3645 H 0.51259 0.38161 0.04716
 H3646 H 0.51453 0.40864 0.03803
 H3647 H 0.46461 0.41384 0.04165
 H3648 H 0.46248 0.38665 0.05058
 C3649 C -0.01640 0.80684 0.58162
 C3650 C -0.01915 0.81896 0.57508
 C3651 C -0.02147 0.83382 0.56772
 C3652 C -0.01795 0.83572 0.55201
 C3653 C -0.01807 0.85062 0.54537
 C3654 C -0.02164 0.86377 0.55444
 C3655 C -0.02578 0.86165 0.57007
 C3656 C -0.02566 0.84675 0.57667
 C3657 C -0.01990 0.87970 0.54798
 C3658 C -0.03064 0.89156 0.55170
 C3659 C -0.02834 0.90680 0.54637
 C3660 C -0.01528 0.91032 0.53731
 C3661 C -0.00465 0.89857 0.53338
 C3662 C -0.00693 0.88335 0.53868
 C3663 C -0.01267 0.92598 0.53204
 C3664 C -0.01034 0.93901 0.52739
 H3665 H -0.01461 0.82578 0.54502
 H3666 H -0.01502 0.85190 0.53326
 H3667 H -0.02839 0.87157 0.57737
 H3668 H -0.02825 0.84539 0.58889
 H3669 H -0.04079 0.88904 0.55874
 H3670 H -0.03667 0.91583 0.54939
 H3671 H 0.00550 0.90121 0.52637
 H3672 H 0.00168 0.87453 0.53586
 C3673 C 0.25550 0.33059 0.05920
 C3674 C 0.25711 0.32306 0.07095
 C3675 C 0.25903 0.31423 0.08509
 C3676 C 0.27395 0.31182 0.09134
 C3677 C 0.27577 0.30374 0.10536
 C3678 C 0.26267 0.29794 0.11333
 C3679 C 0.24774 0.30025 0.10683
 C3680 C 0.24595 0.30834 0.09282
 C3681 C 0.26445 0.29005 0.12863
 C3682 C 0.25511 0.27714 0.13256
 C3683 C 0.25596 0.27050 0.14738
 C3684 C 0.26617 0.27663 0.15848
 C3685 C 0.27581 0.28919 0.15455
 C3686 C 0.27499 0.29585 0.13973
 C3687 C 0.26568 0.27104 0.17425
 C3688 C 0.26462 0.26704 0.18763
 H3689 H 0.28416 0.31630 0.08545
 H3690 H 0.28742 0.30201 0.10997
 H3691 H 0.23740 0.29616 0.11277
 H3692 H 0.23434 0.31019 0.08813
 H3693 H 0.24703 0.27228 0.12422
 H3694 H 0.24837 0.26084 0.15031
 H3695 H 0.28362 0.29416 0.16309
 H3696 H 0.28218 0.30590 0.13717
 C3697 C 0.75493 0.82892 0.55892
 C3698 C 0.75675 0.82136 0.57062
 C3699 C 0.75893 0.81252 0.58471
 C3700 C 0.74602 0.80637 0.59252
 C3701 C 0.74805 0.79831 0.60651
 C3702 C 0.76306 0.79629 0.61292
 C3703 C 0.77599 0.80233 0.60487
 C3704 C 0.77393 0.81039 0.59087
 C3705 C 0.76508 0.78849 0.62824
 C3706 C 0.77555 0.79453 0.63927
 C3707 C 0.77654 0.78799 0.65412
 C3708 C 0.76713 0.77528 0.65815
 C3709 C 0.75701 0.76889 0.64713
 C3710 C 0.75600 0.77542 0.63227
 C3711 C 0.76672 0.76985 0.67398
 C3712 C 0.76567 0.76602 0.68741
 H3713 H 0.73435 0.80801 0.58791
 H3714 H 0.73783 0.79403 0.61253
 H3715 H 0.78770 0.80083 0.60941
 H3716 H 0.78402 0.81507 0.58492
 H3717 H 0.78254 0.80470 0.63662
 H3718 H 0.78427 0.79316 0.66261
 H3719 H 0.74960 0.75912 0.65014
 H3720 H 0.74798 0.77036 0.62399
 C3721 C 0.24337 0.67029 0.55808
 C3722 C 0.24184 0.67775 0.56982
 C3723 C 0.24004 0.68640 0.58400
 C3724 C 0.24501 0.70192 0.58491
 C3725 C 0.24368 0.71012 0.59885
 C3726 C 0.23733 0.70289 0.61209
 C3727 C 0.23219 0.68734 0.61099
 C3728 C 0.23355 0.67918 0.59705
 C3729 C 0.23662 0.71125 0.62716
 C3730 C 0.22377 0.70933 0.63714
 C3731 C 0.22370 0.71620 0.65183
 C3732 C 0.23643 0.72513 0.65673
 C3733 C 0.24906 0.72748 0.64672
 C3734 C 0.24915 0.72062 0.63203
 C3735 C 0.23723 0.73066 0.67247
 C3736 C 0.23847 0.73457 0.68583
 H3737 H 0.25003 0.70765 0.57487
 H3738 H 0.24759 0.72212 0.59927
 H3739 H 0.22749 0.68135 0.62101
 H3740 H 0.22971 0.66715 0.59651
 H3741 H 0.21385 0.70236 0.63366
 H3742 H 0.21390 0.71423 0.65951
 H3743 H 0.25906 0.73422 0.65045
 H3744 H 0.25931 0.72217 0.62473
 C3745 C 0.74321 0.16917 0.05863
 C3746 C 0.74175 0.17659 0.07041
 C3747 C 0.74004 0.18520 0.08463
 C3748 C 0.74495 0.20075 0.08552
 C3749 C 0.74371 0.20891 0.09949
 C3750 C 0.73753 0.20161 0.11278
 C3751 C 0.73246 0.18604 0.11169
 C3752 C 0.73372 0.17791 0.09772
 C3753 C 0.73692 0.20995 0.12787
 C3754 C 0.72417 0.20795 0.13796
 C3755 C 0.72418 0.21485 0.15264
 C3756 C 0.73689 0.22387 0.15742
 C3757 C 0.74943 0.22627 0.14730
 C3758 C 0.74944 0.21939 0.13262
 C3759 C 0.73775 0.22951 0.17311
 C3760 C 0.73904 0.23355 0.18643
 H3761 H 0.74983 0.20652 0.07544
 H3762 H 0.74756 0.22092 0.09990
 H3763 H 0.72788 0.18000 0.12174
 H3764 H 0.72993 0.16587 0.09719
 H3765 H 0.71426 0.20092 0.13457
 H3766 H 0.71445 0.21284 0.16039
 H3767 H 0.75941 0.23309 0.15093
 H3768 H 0.75952 0.22100 0.12524
 C3769 C 0.75539 0.16930 0.94124
 C3770 C 0.75706 0.17670 0.92942
 C3771 C 0.75903 0.18531 0.91517
 C3772 C 0.75423 0.20092 0.91412
 C3773 C 0.75574 0.20910 0.90012
 C3774 C 0.76208 0.20176 0.88697
 C3775 C 0.76704 0.18611 0.88822
 C3776 C 0.76551 0.17797 0.90222
 C3777 C 0.76299 0.21012 0.87185
 C3778 C 0.77588 0.20797 0.86196
 C3779 C 0.77613 0.21489 0.84724
 C3780 C 0.76356 0.22410 0.84221
 C3781 C 0.75089 0.22666 0.85213
 C3782 C 0.75061 0.21976 0.86685
 C3783 C 0.76295 0.22972 0.82645
 C3784 C 0.76183 0.23372 0.81307
 H3785 H 0.74923 0.20674 0.92408
 H3786 H 0.75197 0.22117 0.89959
 H3787 H 0.77173 0.18004 0.87828
 H3788 H 0.76922 0.16588 0.90287
 H3789 H 0.78568 0.20079 0.86554
 H3790 H 0.78596 0.21274 0.83964
 H3791 H 0.74101 0.23362 0.84831
 H3792 H 0.74043 0.22149 0.87407
 C3793 C 0.25517 0.67033 0.44084
 C3794 C 0.25674 0.67780 0.42905
 C3795 C 0.25857 0.68651 0.41484
 C3796 C 0.25325 0.70195 0.41378
 C3797 C 0.25463 0.71021 0.39982
 C3798 C 0.26136 0.70313 0.38672
 C3799 C 0.26684 0.68766 0.38798
 C3800 C 0.26545 0.67943 0.40194
 C3801 C 0.26213 0.71155 0.37162
 C3802 C 0.27518 0.70988 0.36186
 C3803 C 0.27534 0.71684 0.34715
 C3804 C 0.26250 0.72561 0.34202
 C3805 C 0.24965 0.72770 0.35182
 C3806 C 0.24946 0.72076 0.36652
 C3807 C 0.26186 0.73126 0.32627
 C3808 C 0.26075 0.73526 0.31289
 H3809 H 0.24795 0.70757 0.42370
 H3810 H 0.25045 0.72215 0.39927
 H3811 H 0.27184 0.68178 0.37807
 H3812 H 0.26956 0.66747 0.40261
 H3813 H 0.28519 0.70304 0.36552
 H3814 H 0.28532 0.71507 0.33965
 H3815 H 0.23957 0.73432 0.34791
 H3816 H 0.23916 0.72211 0.37364
 C3817 C 0.74216 0.82909 0.44186
 C3818 C 0.74049 0.82160 0.43015
 C3819 C 0.73854 0.81283 0.41606
 C3820 C 0.72376 0.81147 0.40925
 C3821 C 0.72197 0.80345 0.39526
 C3822 C 0.73497 0.79668 0.38788
 C3823 C 0.74974 0.79794 0.39494
 C3824 C 0.75150 0.80596 0.40892
 C3825 C 0.73330 0.78890 0.37258
 C3826 C 0.74191 0.77533 0.36914
 C3827 C 0.74127 0.76875 0.35433
 C3828 C 0.73197 0.77559 0.34278
 C3829 C 0.72301 0.78882 0.34622
 C3830 C 0.72363 0.79542 0.36102
 C3831 C 0.73278 0.76999 0.32708
 C3832 C 0.73416 0.76597 0.31376
 H3833 H 0.71364 0.81671 0.41469
 H3834 H 0.71043 0.80255 0.39021
 H3835 H 0.76002 0.79309 0.38946
 H3836 H 0.76301 0.80700 0.41405
 H3837 H 0.74930 0.76991 0.37784
 H3838 H 0.74833 0.75856 0.35178
 H3839 H 0.71591 0.79433 0.33733
 H3840 H 0.71701 0.80597 0.36322
 C3841 C 0.24359 0.33015 0.94211
 C3842 C 0.24193 0.32256 0.93047
 C3843 C 0.23998 0.31367 0.91645
 C3844 C 0.22512 0.31185 0.90992
 C3845 C 0.22331 0.30369 0.89601
 C3846 C 0.23635 0.29724 0.88843
 C3847 C 0.25121 0.29897 0.89522
 C3848 C 0.25300 0.30713 0.90911
 C3849 C 0.23462 0.28928 0.87323
 C3850 C 0.24355 0.27593 0.86973
 C3851 C 0.24281 0.26920 0.85499
 C3852 C 0.23309 0.27567 0.84357
 C3853 C 0.22382 0.28867 0.84707
 C3854 C 0.22454 0.29541 0.86180
 C3855 C 0.23376 0.26995 0.82789
 C3856 C 0.23501 0.26585 0.81459
 H3857 H 0.21496 0.31684 0.91550
 H3858 H 0.21170 0.30243 0.89118
 H3859 H 0.26152 0.29436 0.88957
 H3860 H 0.26456 0.30852 0.91402
 H3861 H 0.25126 0.27080 0.87832
 H3862 H 0.25011 0.25920 0.85239
 H3863 H 0.21640 0.29390 0.83828
 H3864 H 0.21767 0.30579 0.86404
 C3865 C 0.84266 0.43866 0.75186
 C3866 C 0.83582 0.42640 0.75301
 C3867 C 0.82803 0.41155 0.75444
 C3868 C 0.81218 0.41086 0.75836
 C3869 C 0.80472 0.39640 0.75979
 C3870 C 0.81302 0.38240 0.75734
 C3871 C 0.82895 0.38325 0.75344
 C3872 C 0.83637 0.39770 0.75201
 C3873 C 0.80509 0.36699 0.75859
 C3874 C 0.81283 0.35406 0.76525
 C3875 C 0.80565 0.33942 0.76577
 C3876 C 0.79062 0.33746 0.75968
 C3877 C 0.78272 0.35030 0.75327
 C3878 C 0.78987 0.36496 0.75275
 C3879 C 0.78367 0.32214 0.75916
 C3880 C 0.77800 0.30930 0.75811
 H3881 H 0.80560 0.42149 0.76034
 H3882 H 0.79250 0.39617 0.76297
 H3883 H 0.83563 0.37273 0.75124
 H3884 H 0.84863 0.39807 0.74895
 H3885 H 0.82445 0.35527 0.77004
 H3886 H 0.81191 0.32958 0.77072
 H3887 H 0.77114 0.34892 0.74841
 H3888 H 0.78367 0.37460 0.74738
 C3889 C 0.34222 0.93988 0.25105
 C3890 C 0.33532 0.92765 0.25228
 C3891 C 0.32749 0.91283 0.25379
 C3892 C 0.31151 0.91221 0.25713
 C3893 C 0.30400 0.89778 0.25862
 C3894 C 0.31240 0.88374 0.25682
 C3895 C 0.32847 0.88451 0.25350
 C3896 C 0.33593 0.89893 0.25200
 C3897 C 0.30443 0.86835 0.25811
 C3898 C 0.31192 0.85558 0.26533
 C3899 C 0.30473 0.84093 0.26589
 C3900 C 0.28994 0.83883 0.25928
 C3901 C 0.28229 0.85152 0.25231
 C3902 C 0.28945 0.86617 0.25174
 C3903 C 0.28303 0.82349 0.25881
 C3904 C 0.27738 0.81063 0.25779
 H3905 H 0.30485 0.92288 0.25861
 H3906 H 0.29167 0.89761 0.26135
 H3907 H 0.33523 0.87395 0.25179
 H3908 H 0.34830 0.89924 0.24939
 H3909 H 0.32335 0.85690 0.27053
 H3910 H 0.31080 0.83121 0.27128
 H3911 H 0.27090 0.85001 0.24704
 H3912 H 0.28345 0.87568 0.24593
 C3913 C 0.15771 0.93922 0.74948
 C3914 C 0.16462 0.92698 0.74813
 C3915 C 0.17245 0.91215 0.74643
 C3916 C 0.18808 0.91148 0.74172
 C3917 C 0.19555 0.89703 0.73995
 C3918 C 0.18747 0.88303 0.74285
 C3919 C 0.17176 0.88386 0.74757
 C3920 C 0.16433 0.89830 0.74934
 C3921 C 0.19540 0.86763 0.74121
 C3922 C 0.18740 0.85477 0.73495
 C3923 C 0.19459 0.84010 0.73415
 C3924 C 0.20989 0.83806 0.73954
 C3925 C 0.21805 0.85084 0.74551
 C3926 C 0.21089 0.86552 0.74632
 C3927 C 0.21685 0.82270 0.73989
 C3928 C 0.22252 0.80981 0.74085
 H3929 H 0.19447 0.92212 0.73937
 H3930 H 0.20759 0.89680 0.73615
 H3931 H 0.16527 0.87333 0.75013
 H3932 H 0.15224 0.89866 0.75300
 H3933 H 0.17555 0.85604 0.73072
 H3934 H 0.18813 0.83030 0.72954
 H3935 H 0.22985 0.84938 0.74985
 H3936 H 0.21731 0.87511 0.75138
 C3937 C 0.65743 0.43874 0.24870
 C3938 C 0.66421 0.42643 0.24740
 C3939 C 0.67190 0.41152 0.24579
 C3940 C 0.68697 0.41057 0.23956
 C3941 C 0.69429 0.39603 0.23787
 C3942 C 0.68663 0.38222 0.24236
 C3943 C 0.67148 0.38332 0.24860
 C3944 C 0.66420 0.39785 0.25029
 C3945 C 0.69442 0.36674 0.24080
 C3946 C 0.68589 0.35355 0.23612
 C3947 C 0.69304 0.33885 0.23538
 C3948 C 0.70883 0.33712 0.23926
 C3949 C 0.71750 0.35022 0.24365
 C3950 C 0.71037 0.36492 0.24439
 C3951 C 0.71588 0.32181 0.23972
 C3952 C 0.72170 0.30898 0.24078
 H3953 H 0.69303 0.42105 0.23596
 H3954 H 0.70587 0.39558 0.23288
 H3955 H 0.66535 0.37297 0.25240
 H3956 H 0.65255 0.39843 0.25514
 H3957 H 0.67366 0.35457 0.23306
 H3958 H 0.68619 0.32881 0.23201
 H3959 H 0.72969 0.34901 0.24682
 H3960 H 0.71723 0.37478 0.24821
 C3961 C 0.65668 0.55985 0.25402
 C3962 C 0.66340 0.57219 0.25487
 C3963 C 0.67109 0.58709 0.25617
 C3964 C 0.68193 0.59183 0.24500
 C3965 C 0.68914 0.60643 0.24617
 C3966 C 0.68558 0.61651 0.25854
 C3967 C 0.67473 0.61157 0.26976
 C3968 C 0.66756 0.59698 0.26857
 C3969 C 0.69296 0.63218 0.25959
 C3970 C 0.68416 0.64529 0.26417
 C3971 C 0.69096 0.66011 0.26465
 C3972 C 0.70666 0.66207 0.26063
 C3973 C 0.71557 0.64908 0.25627
 C3974 C 0.70879 0.63425 0.25576
 C3975 C 0.71341 0.67747 0.26014
 C3976 C 0.71903 0.69034 0.25913
 H3977 H 0.68472 0.58431 0.23531
 H3978 H 0.69727 0.60995 0.23722
 H3979 H 0.67188 0.61895 0.27952
 H3980 H 0.65921 0.59343 0.27731
 H3981 H 0.67190 0.64415 0.26699
 H3982 H 0.68390 0.67009 0.26792
 H3983 H 0.72773 0.65044 0.25308
 H3984 H 0.71595 0.62439 0.25239
 C3985 C 0.15562 0.06021 0.75372
 C3986 C 0.16225 0.07261 0.75441
 C3987 C 0.16985 0.08757 0.75550
 C3988 C 0.18427 0.08893 0.76304
 C3989 C 0.19140 0.10354 0.76445
 C3990 C 0.18417 0.11703 0.75837
 C3991 C 0.16969 0.11552 0.75077
 C3992 C 0.16260 0.10091 0.74936
 C3993 C 0.19171 0.13260 0.75982
 C3994 C 0.18270 0.14601 0.76293
 C3995 C 0.18970 0.16072 0.76371
 C3996 C 0.20579 0.16227 0.76142
 C3997 C 0.21490 0.14898 0.75856
 C3998 C 0.20792 0.13425 0.75780
 C3999 C 0.21281 0.17755 0.76105
 C4000 C 0.21862 0.19034 0.76007
 H4001 H 0.18996 0.07872 0.76792
 H4002 H 0.20245 0.10432 0.77051
 H4003 H 0.16393 0.12561 0.74575
 H4004 H 0.15143 0.10002 0.74351
 H4005 H 0.17023 0.14512 0.76477
 H4006 H 0.18251 0.17091 0.76588
 H4007 H 0.22735 0.15004 0.75663
 H4008 H 0.21517 0.12422 0.75520
 C4009 C 0.34254 0.05992 0.24670
 C4010 C 0.33600 0.07243 0.24624
 C4011 C 0.32853 0.08754 0.24545
 C4012 C 0.31367 0.08918 0.23882
 C4013 C 0.30664 0.10393 0.23772
 C4014 C 0.31441 0.11728 0.24321
 C4015 C 0.32932 0.11549 0.24990
 C4016 C 0.33631 0.10074 0.25100
 C4017 C 0.30699 0.13300 0.24208
 C4018 C 0.31595 0.14623 0.23829
 C4019 C 0.30909 0.16108 0.23778
 C4020 C 0.29318 0.16295 0.24100
 C4021 C 0.28412 0.14984 0.24456
 C4022 C 0.29095 0.13498 0.24506
 C4023 C 0.28637 0.17837 0.24153
 C4024 C 0.28076 0.19128 0.24258
 H4025 H 0.30757 0.07907 0.23440
 H4026 H 0.29524 0.10491 0.23235
 H4027 H 0.33552 0.12547 0.25445
 H4028 H 0.34781 0.09964 0.25615
 H4029 H 0.32827 0.14510 0.23571
 H4030 H 0.31625 0.17112 0.23506
 H4031 H 0.27182 0.15115 0.24720
 H4032 H 0.28376 0.12509 0.24819
 C4033 C 0.84345 0.55984 0.74791
 C4034 C 0.83678 0.57229 0.74742
 C4035 C 0.82917 0.58733 0.74659
 C4036 C 0.81379 0.58862 0.74118
 C4037 C 0.80658 0.60328 0.74005
 C4038 C 0.81469 0.61690 0.74428
 C4039 C 0.83013 0.61546 0.74974
 C4040 C 0.83730 0.60079 0.75088
 C4041 C 0.80709 0.63253 0.74311
 C4042 C 0.81560 0.64562 0.73801
 C4043 C 0.80862 0.66041 0.73745
 C4044 C 0.79303 0.66236 0.74193
 C4045 C 0.78440 0.64939 0.74680
 C4046 C 0.79135 0.63458 0.74736
 C4047 C 0.78617 0.67777 0.74234
 C4048 C 0.78058 0.69069 0.74326
 H4049 H 0.80739 0.57830 0.73774
 H4050 H 0.79476 0.60399 0.73564
 H4051 H 0.83662 0.62565 0.75332
 H4052 H 0.84920 0.59996 0.75508
 H4053 H 0.82765 0.64442 0.73444
 H4054 H 0.81544 0.67035 0.73369
 H4055 H 0.77237 0.65076 0.75042
 H4056 H 0.78453 0.62481 0.75151
 C4057 C 0.94060 0.76340 0.17099
 C4058 C 0.92854 0.76496 0.17794
 C4059 C 0.91382 0.76625 0.18571
 C4060 C 0.90134 0.77381 0.17836
 C4061 C 0.88653 0.77366 0.18509
 C4062 C 0.88407 0.76587 0.19925
 C4063 C 0.89681 0.75871 0.20679
 C4064 C 0.91160 0.75888 0.20003
 C4065 C 0.86811 0.76444 0.20563
 C4066 C 0.86299 0.75008 0.21170
 C4067 C 0.84771 0.74843 0.21700
 C4068 C 0.83737 0.76107 0.21630
 C4069 C 0.84238 0.77546 0.21045
 C4070 C 0.85768 0.77714 0.20513
 C4071 C 0.82162 0.75920 0.22155
 C4072 C 0.80848 0.75747 0.22608
 H4073 H 0.90294 0.77943 0.16719
 H4074 H 0.87691 0.77910 0.17893
 H4075 H 0.89527 0.75280 0.21780
 H4076 H 0.92121 0.75296 0.20578
 H4077 H 0.87069 0.74003 0.21200
 H4078 H 0.84391 0.73724 0.22151
 H4079 H 0.83445 0.78533 0.20994
 H4080 H 0.86136 0.78836 0.20064
 C4081 C 0.44069 0.26194 0.67099
 C4082 C 0.42859 0.26334 0.67789
 C4083 C 0.41382 0.26449 0.68560
 C4084 C 0.40152 0.27263 0.67855
 C4085 C 0.38668 0.27246 0.68522
 C4086 C 0.38400 0.26408 0.69900
 C4087 C 0.39656 0.25630 0.70624
 C4088 C 0.41139 0.25649 0.69955
 C4089 C 0.36801 0.26277 0.70533
 C4090 C 0.36254 0.24830 0.71080
 C4091 C 0.34725 0.24683 0.71615
 C4092 C 0.33727 0.25977 0.71609
 C4093 C 0.34262 0.27425 0.71081
 C4094 C 0.35792 0.27575 0.70543
 C4095 C 0.32154 0.25812 0.72148
 C4096 C 0.30842 0.25657 0.72615
 H4097 H 0.40329 0.27874 0.66767
 H4098 H 0.37720 0.27838 0.67929
 H4099 H 0.39486 0.24993 0.71697
 H4100 H 0.42085 0.25012 0.70506
 H4101 H 0.36997 0.23805 0.71062
 H4102 H 0.34318 0.23557 0.72021
 H4103 H 0.33496 0.28435 0.71080
 H4104 H 0.36188 0.28705 0.70142
 C4105 C 0.44337 0.73764 0.82915
 C4106 C 0.43098 0.73582 0.82285
 C4107 C 0.41590 0.73405 0.81586
 C4108 C 0.40450 0.72512 0.82332
 C4109 C 0.38938 0.72451 0.81730
 C4110 C 0.38551 0.73287 0.80377
 C4111 C 0.39716 0.74149 0.79613
 C4112 C 0.41228 0.74209 0.80218
 C4113 C 0.36921 0.73327 0.79805
 C4114 C 0.36602 0.73258 0.78207
 C4115 C 0.35070 0.73392 0.77667
 C4116 C 0.33843 0.73597 0.78716
 C4117 C 0.34145 0.73640 0.80309
 C4118 C 0.35676 0.73504 0.80852
 C4119 C 0.32283 0.73818 0.78152
 C4120 C 0.30986 0.74024 0.77656
 H4121 H 0.40722 0.71889 0.83395
 H4122 H 0.38067 0.71764 0.82331
 H4123 H 0.39446 0.74821 0.78581
 H4124 H 0.42102 0.74914 0.79641
 H4125 H 0.37537 0.73106 0.77377
 H4126 H 0.34843 0.73356 0.76431
 H4127 H 0.33202 0.73805 0.81128
 H4128 H 0.35891 0.73584 0.82086
 C4129 C 0.94316 0.23670 0.33272
 C4130 C 0.93088 0.23531 0.32610
 C4131 C 0.91597 0.23418 0.31862
 C4132 C 0.90334 0.22773 0.32663
 C4133 C 0.88848 0.22788 0.31996
 C4134 C 0.88610 0.23455 0.30522
 C4135 C 0.89896 0.24063 0.29709
 C4136 C 0.91381 0.24046 0.30379
 C4137 C 0.87016 0.23584 0.29869
 C4138 C 0.86531 0.24972 0.29135
 C4139 C 0.85010 0.25123 0.28571
 C4140 C 0.83957 0.23891 0.28735
 C4141 C 0.84429 0.22500 0.29452
 C4142 C 0.85951 0.22346 0.30019
 C4143 C 0.82393 0.24061 0.28162
 C4144 C 0.81091 0.24221 0.27664
 H4145 H 0.90490 0.22294 0.33818
 H4146 H 0.87877 0.22329 0.32655
 H4147 H 0.89749 0.24566 0.28564
 H4148 H 0.92354 0.24551 0.29753
 H4149 H 0.87318 0.25953 0.29026
 H4150 H 0.84652 0.26205 0.28018
 H4151 H 0.83621 0.21537 0.29577
 H4152 H 0.86298 0.21259 0.30566
 C4153 C 0.06023 0.26127 0.33074
 C4154 C 0.07226 0.26383 0.32405
 C4155 C 0.08700 0.26626 0.31661
 C4156 C 0.09067 0.25801 0.30314
 C4157 C 0.10567 0.25893 0.29689
 C4158 C 0.11717 0.26807 0.30412
 C4159 C 0.11321 0.27672 0.31737
 C4160 C 0.09820 0.27580 0.32359
 C4161 C 0.13345 0.26774 0.29842
 C4162 C 0.14594 0.26646 0.30897
 C4163 C 0.16124 0.26497 0.30362
 C4164 C 0.16422 0.26477 0.28769
 C4165 C 0.15192 0.26636 0.27711
 C4166 C 0.13660 0.26784 0.28243
 C4167 C 0.17982 0.26241 0.28218
 C4168 C 0.19282 0.26026 0.27739
 H4169 H 0.08211 0.25048 0.29776
 H4170 H 0.10844 0.25197 0.28680
 H4171 H 0.12179 0.28399 0.32305
 H4172 H 0.09546 0.28217 0.33407
 H4173 H 0.14384 0.26610 0.32134
 H4174 H 0.17070 0.26368 0.31189
 H4175 H 0.15414 0.26625 0.26474
 H4176 H 0.12722 0.26896 0.27406
 C4177 C 0.55996 0.76592 0.82591
 C4178 C 0.57195 0.76893 0.81935
 C4179 C 0.58677 0.77167 0.81215
 C4180 C 0.59797 0.78071 0.81974
 C4181 C 0.61317 0.78149 0.81397
 C4182 C 0.61731 0.77317 0.80056
 C4183 C 0.60578 0.76465 0.79265
 C4184 C 0.59060 0.76388 0.79846
 C4185 C 0.63379 0.77233 0.79550
 C4186 C 0.63760 0.77269 0.77966
 C4187 C 0.65303 0.77052 0.77491
 C4188 C 0.66478 0.76796 0.78593
 C4189 C 0.66117 0.76794 0.80172
 C4190 C 0.64576 0.77012 0.80650
 C4191 C 0.68044 0.76482 0.78097
 C4192 C 0.69346 0.76205 0.77655
 H4193 H 0.59511 0.78670 0.83041
 H4194 H 0.62178 0.78828 0.82017
 H4195 H 0.60868 0.75796 0.78242
 H4196 H 0.58203 0.75671 0.79261
 H4197 H 0.62864 0.77451 0.77097
 H4198 H 0.65575 0.77059 0.76265
 H4199 H 0.67020 0.76592 0.81032
 H4200 H 0.64313 0.76954 0.81876
 C4201 C 0.55775 0.23679 0.66972
 C4202 C 0.56996 0.23430 0.67617
 C4203 C 0.58490 0.23204 0.68337
 C4204 C 0.58829 0.23950 0.69736
 C4205 C 0.60339 0.23886 0.70345
 C4206 C 0.61528 0.23080 0.69555
 C4207 C 0.61162 0.22290 0.68176
 C4208 C 0.59650 0.22355 0.67570
 C4209 C 0.63159 0.23149 0.70117
 C4210 C 0.64387 0.23407 0.69066
 C4211 C 0.65914 0.23587 0.69601
 C4212 C 0.66231 0.23509 0.71190
 C4213 C 0.65023 0.23221 0.72243
 C4214 C 0.63494 0.23042 0.71710
 C4215 C 0.67785 0.23770 0.71747
 C4216 C 0.69079 0.24002 0.72236
 H4217 H 0.57940 0.24623 0.70329
 H4218 H 0.60592 0.24522 0.71398
 H4219 H 0.62050 0.21645 0.67554
 H4220 H 0.59398 0.21779 0.66482
 H4221 H 0.64159 0.23519 0.67835
 H4222 H 0.66843 0.23814 0.68780
 H4223 H 0.65261 0.23155 0.73476
 H4224 H 0.62574 0.22829 0.72542
 C4225 C 0.05690 0.73891 0.17008
 C4226 C 0.06926 0.73644 0.17625
 C4227 C 0.08437 0.73412 0.18307
 C4228 C 0.08784 0.74076 0.19744
 C4229 C 0.10303 0.74000 0.20328
 C4230 C 0.11493 0.73264 0.19475
 C4231 C 0.11121 0.72558 0.18054
 C4232 C 0.09600 0.72633 0.17473
 C4233 C 0.13130 0.73320 0.20023
 C4234 C 0.14342 0.73662 0.18978
 C4235 C 0.15873 0.73826 0.19508
 C4236 C 0.16209 0.73647 0.21085
 C4237 C 0.15018 0.73275 0.22130
 C4238 C 0.13485 0.73111 0.21602
 C4239 C 0.17764 0.73899 0.21645
 C4240 C 0.19055 0.74127 0.22141
 H4241 H 0.07892 0.74693 0.20390
 H4242 H 0.10560 0.74572 0.21416
 H4243 H 0.12011 0.71968 0.17383
 H4244 H 0.09342 0.72121 0.16355
 H4245 H 0.14098 0.73852 0.17759
 H4246 H 0.16788 0.74121 0.18693
 H4247 H 0.15270 0.73132 0.23353
 H4248 H 0.12577 0.72832 0.22429
   
