data_POSCAR
  _audit_creation_date              2014-09-24
  _audit_creation_method            'ToBaCCo'
  _symmetry_space_group_name_H-M    'P1'
  _symmetry_Int_Tables_number       1
  _symmetry_cell_setting            triclinic
  loop_
  _symmetry_equiv_pos_as_xyz
 x,y,z
_cell_length_a 43.2037
_cell_length_b 44.4915
_cell_length_c 44.2990
_cell_angle_alpha 91.333700
_cell_angle_beta 93.059400
_cell_angle_gamma 93.521100
loop_
  _atom_site_label
  _atom_site_type_symbol
  _atom_site_fract_x
  _atom_site_fract_y
  _atom_site_fract_z
N1 N 0.15779 0.23826 0.23349
 N2 N 0.16625 0.21567 0.24991
 C3 C 0.14890 0.21401 0.27421
 C4 C 0.12828 0.23665 0.27288
 C5 C 0.13421 0.25117 0.24628
 H6 H 0.15065 0.19721 0.29136
 H7 H 0.12173 0.26915 0.23638
 Cu8 Cu 0.19734 0.18924 0.23680
 Cu9 Cu 0.17858 0.25000 0.19745
 Cu10 Cu 0.23599 0.20497 0.17452
 N11 N 0.23018 0.16480 0.22390
 N12 N 0.24577 0.17161 0.20007
 C13 C 0.26841 0.15245 0.19743
 C14 C 0.26707 0.13257 0.22093
 C15 C 0.24200 0.14064 0.23687
 H16 H 0.28493 0.15310 0.17993
 H17 H 0.23303 0.12969 0.25640
 N18 N 0.22286 0.23988 0.15193
 N19 N 0.20236 0.25808 0.16164
 C20 C 0.20087 0.28153 0.14308
 C21 C 0.22143 0.27793 0.12057
 C22 C 0.23428 0.25079 0.12646
 H23 H 0.18612 0.30006 0.14580
 H24 H 0.25072 0.23975 0.11315
 H25 H 0.19023 0.20718 0.18545
 H26 H 0.21996 0.23095 0.20905
 N27 N 0.67683 0.74032 0.74037
 N28 N 0.68071 0.71390 0.75217
 C29 C 0.65871 0.70797 0.77184
 C30 C 0.63972 0.73180 0.77213
 C31 C 0.65217 0.75228 0.75234
 H32 H 0.65639 0.68763 0.78467
 H33 H 0.64340 0.77375 0.74640
 Cu34 Cu 0.71355 0.68916 0.74056
 Cu35 Cu 0.70356 0.75571 0.70936
 Cu36 Cu 0.73556 0.69786 0.66982
 N37 N 0.73976 0.66127 0.72205
 N38 N 0.74876 0.66465 0.69440
 C39 C 0.76762 0.64265 0.68783
 C40 C 0.77023 0.62446 0.71271
 C41 C 0.75238 0.63713 0.73400
 H42 H 0.77952 0.64081 0.66705
 H43 H 0.74947 0.62971 0.75681
 N44 N 0.73072 0.73829 0.65352
 N45 N 0.72018 0.76070 0.66923
 C46 C 0.72101 0.78556 0.65252
 C47 C 0.73291 0.77857 0.62502
 C48 C 0.73830 0.74826 0.62628
 H49 H 0.71298 0.80704 0.65961
 H50 H 0.74674 0.73437 0.60852
 H51 H 0.69863 0.71282 0.69340
 H52 H 0.73900 0.72509 0.70747
 N53 N 0.31819 0.74470 0.76313
 N54 N 0.32195 0.77369 0.76972
 C55 C 0.34800 0.77900 0.78763
 C56 C 0.36133 0.75180 0.79251
 C57 C 0.34089 0.73044 0.77761
 H58 H 0.35714 0.80109 0.79567
 H59 H 0.34289 0.70635 0.77623
 Cu60 Cu 0.29204 0.80137 0.75438
 Cu61 Cu 0.28777 0.72832 0.73200
 Cu62 Cu 0.24755 0.78066 0.69239
 N63 N 0.25466 0.82191 0.74327
 N64 N 0.23683 0.81306 0.71937
 C65 C 0.21225 0.83010 0.71720
 C66 C 0.21435 0.85067 0.74137
 C67 C 0.24214 0.84522 0.75702
 H68 H 0.19482 0.82831 0.69868
 H69 H 0.25200 0.85664 0.77746
 N70 N 0.25243 0.74008 0.67614
 N71 N 0.26718 0.71967 0.69141
 C72 C 0.27090 0.69599 0.67266
 C73 C 0.25773 0.70192 0.64445
 C74 C 0.24619 0.73001 0.64751
 H75 H 0.28503 0.67743 0.67818
 H76 H 0.23680 0.74332 0.62948
 H77 H 0.29137 0.76812 0.71009
 H78 H 0.25595 0.76141 0.73218
 N79 N 0.81265 0.24111 0.26516
 N80 N 0.80782 0.26689 0.27859
 C81 C 0.82935 0.27242 0.30146
 C82 C 0.84858 0.24846 0.30293
 C83 C 0.83720 0.22918 0.27917
 H84 H 0.83085 0.29246 0.31588
 H85 H 0.84738 0.20917 0.27095
 Cu86 Cu 0.77415 0.29085 0.26429
 Cu87 Cu 0.78819 0.22626 0.22895
 Cu88 Cu 0.75455 0.28383 0.19025
 N89 N 0.74393 0.31592 0.24519
 N90 N 0.73610 0.31295 0.21613
 C91 C 0.71558 0.33343 0.20854
 C92 C 0.70999 0.34979 0.23437
 C93 C 0.72864 0.33838 0.25713
 H94 H 0.70594 0.33656 0.18587
 H95 H 0.73107 0.34611 0.28051
 N96 N 0.76346 0.24533 0.17084
 N97 N 0.77436 0.22268 0.18593
 C98 C 0.77688 0.19927 0.16660
 C99 C 0.76787 0.20795 0.13778
 C100 C 0.75902 0.23709 0.14146
 H101 H 0.78522 0.17776 0.17298
 H102 H 0.75026 0.25133 0.12392
 H103 H 0.79175 0.26984 0.21736
 H104 H 0.75153 0.25538 0.22496
 N105 N 0.82035 0.74168 0.26330
 N106 N 0.82118 0.71242 0.25883
 C107 C 0.84629 0.70681 0.24334
 C108 C 0.86221 0.73397 0.23792
 C109 C 0.84462 0.75565 0.25042
 H110 H 0.85235 0.68465 0.23608
 H111 H 0.84879 0.77983 0.24973
 Cu112 Cu 0.78824 0.68456 0.27171
 Cu113 Cu 0.78774 0.75950 0.28529
 Cu114 Cu 0.73895 0.70889 0.32113
 N115 N 0.75100 0.66027 0.28099
 N116 N 0.73125 0.67052 0.29966
 C117 C 0.70803 0.64950 0.30274
 C118 C 0.71386 0.62425 0.28567
 C119 C 0.74107 0.63209 0.27172
 H120 H 0.68851 0.65236 0.31662
 H121 H 0.75300 0.61809 0.25642
 N122 N 0.74250 0.75197 0.33130
 N123 N 0.76069 0.77158 0.31760
 C124 C 0.75955 0.79880 0.33146
 C125 C 0.73923 0.79610 0.35461
 C126 C 0.72918 0.76601 0.35390
 H127 H 0.77364 0.81872 0.32615
 H128 H 0.71470 0.75480 0.36993
 H129 H 0.78495 0.72283 0.31154
 H130 H 0.75323 0.72436 0.28131
 N131 N 0.31991 0.23408 -0.24445
 N132 N 0.31855 0.20494 -0.25039
 C133 C 0.34231 0.19839 -0.26732
 C134 C 0.35969 0.22489 -0.27236
 C135 C 0.34414 0.24720 -0.25812
 H136 H 0.34588 0.17617 -0.27642
 H137 H 0.35067 0.27108 -0.25674
 Cu138 Cu 0.28469 0.17873 -0.23703
 Cu139 Cu 0.29058 0.25231 -0.21846
 Cu140 Cu 0.24963 0.20047 -0.17565
 N141 N 0.25016 0.15457 -0.22194
 N142 N 0.23691 0.16274 -0.19726
 C143 C 0.21415 0.14193 -0.19145
 C144 C 0.21294 0.11992 -0.21404
 C145 C 0.23601 0.12856 -0.23301
 H146 H 0.19901 0.14328 -0.17286
 H147 H 0.24169 0.11696 -0.25353
 N148 N 0.25426 0.24381 -0.16553
 N149 N 0.26913 0.26380 -0.18198
 C150 C 0.26778 0.29138 -0.16894
 C151 C 0.25059 0.28852 -0.14354
 C152 C 0.24277 0.25805 -0.14193
 H153 H 0.27869 0.31193 -0.17710
 H154 H 0.22993 0.24703 -0.12457
 H155 H 0.29179 0.21452 -0.19430
 H156 H 0.25461 0.21854 -0.21682
 N157 N 0.67316 0.27267 -0.25121
 N158 N 0.68656 0.28626 -0.27353
 C159 C 0.66489 0.29064 -0.29579
 C160 C 0.63610 0.27947 -0.28678
 C161 C 0.64267 0.26785 -0.25847
 H162 H 0.67016 0.29989 -0.31742
 H163 H 0.62633 0.25701 -0.24391
 Cu164 Cu 0.73090 0.29765 -0.27095
 Cu165 Cu 0.69599 0.26036 -0.21496
 Cu166 Cu 0.77422 0.28107 -0.20912
 N167 N 0.77025 0.32005 -0.25952
 N168 N 0.78570 0.31478 -0.23409
 C169 C 0.80884 0.33614 -0.22898
 C170 C 0.80886 0.35566 -0.25301
 C171 C 0.78368 0.34460 -0.27191
 H172 H 0.82304 0.33825 -0.20813
 H173 H 0.77458 0.35459 -0.29227
 N174 N 0.75386 0.25603 -0.17934
 N175 N 0.72362 0.24962 -0.18047
 C176 C 0.71652 0.23339 -0.15620
 C177 C 0.74360 0.22957 -0.13888
 C178 C 0.76688 0.24376 -0.15468
 H179 H 0.69344 0.22445 -0.15167
 H180 H 0.79158 0.24465 -0.14901
 H181 H 0.73003 0.29462 -0.21633
 H182 H 0.73731 0.25751 -0.23433
 N183 N 0.17979 0.76158 0.24924
 N184 N 0.19417 0.77613 0.22804
 C185 C 0.17400 0.77931 0.20424
 C186 C 0.14524 0.76669 0.21129
 C187 C 0.14997 0.75519 0.23978
 H188 H 0.17953 0.79101 0.18389
 H189 H 0.13262 0.74413 0.25313
 Cu190 Cu 0.23643 0.79345 0.23523
 Cu191 Cu 0.20010 0.75394 0.28833
 Cu192 Cu 0.27589 0.78237 0.30100
 N193 N 0.27149 0.82040 0.24997
 N194 N 0.28595 0.81696 0.27634
 C195 C 0.30688 0.84033 0.28211
 C196 C 0.30603 0.85955 0.25770
 C197 C 0.28293 0.84588 0.23787
 H198 H 0.31978 0.84397 0.30360
 H199 H 0.27443 0.85397 0.21635
 N200 N 0.25602 0.75330 0.32780
 N201 N 0.22703 0.74236 0.32292
 C202 C 0.22058 0.72192 0.34400
 C203 C 0.24682 0.71989 0.36289
 C204 C 0.26872 0.74036 0.35226
 H205 H 0.19865 0.70903 0.34524
 H206 H 0.29238 0.74486 0.36122
 H207 H 0.23162 0.79130 0.28947
 H208 H 0.24406 0.75513 0.27288
 N209 N 0.47486 0.40745 0.48910
 N210 N 0.46720 0.42316 0.51271
 C211 C 0.47073 0.40664 0.53755
 C212 C 0.48073 0.37864 0.52917
 C213 C 0.48218 0.37991 0.49791
 H214 H 0.46547 0.41422 0.55995
 H215 H 0.48706 0.36199 0.48232
 Cu216 Cu 0.44916 0.46191 0.50796
 Cu217 Cu 0.47553 0.42461 0.44898
 Cu218 Cu 0.46529 0.50118 0.44676
 N219 N 0.42574 0.49641 0.49674
 N220 N 0.43274 0.51212 0.47299
 C221 C 0.41424 0.53525 0.47073
 C222 C 0.39455 0.53401 0.49434
 C223 C 0.40218 0.50885 0.51026
 H224 H 0.41483 0.55159 0.45304
 H225 H 0.39166 0.50048 0.53029
 N226 N 0.48628 0.47971 0.41541
 N227 N 0.48942 0.45037 0.41576
 C228 C 0.50718 0.44279 0.39303
 C229 C 0.51555 0.46861 0.37783
 C230 C 0.50167 0.49154 0.39241
 H231 H 0.51535 0.42059 0.38920
 H232 H 0.50430 0.51531 0.38786
 H233 H 0.48689 0.46575 0.46911
 H234 H 0.44623 0.45972 0.45262
 N235 N -0.02380 -0.09055 0.99412
 N236 N -0.04823 -0.08275 1.00824
 C237 C -0.05125 -0.09973 1.03280
 C238 C -0.02727 -0.11897 1.03433
 C239 C -0.01055 -0.11285 1.00918
 H240 H -0.06937 -0.09806 1.04858
 H241 H 0.01013 -0.12336 1.00278
 Cu242 Cu -0.07352 -0.05068 0.99394
 Cu243 Cu -0.01026 -0.07020 0.95813
 Cu244 Cu -0.04761 -0.00625 0.93906
 N245 N -0.09121 -0.01229 0.98563
 N246 N -0.08053 0.00506 0.96443
 C247 C -0.09649 0.03003 0.96326
 C248 C -0.11811 0.02854 0.98514
 C249 C -0.11449 0.00113 0.99867
 H250 H -0.09302 0.04783 0.94735
 H251 H -0.12768 -0.00821 1.01670
 N252 N -0.01398 -0.02132 0.91589
 N253 N -0.00012 -0.04610 0.92268
 C254 C 0.02066 -0.05121 0.90181
 C255 C 0.01947 -0.02879 0.88073
 C256 C -0.00233 -0.00995 0.89067
 H257 H 0.03524 -0.07011 0.90156
 H258 H -0.00936 0.01035 0.88004
 H259 H -0.02611 -0.03007 0.97314
 H260 H -0.05164 -0.05256 0.94428
 N261 N 1.03685 0.61362 0.98985
 N262 N 1.05408 0.60238 1.01169
 C263 C 1.05151 0.61879 1.03735
 C264 C 1.03137 0.64129 1.03115
 C265 C 1.02333 0.63778 1.00059
 H266 H 1.06232 0.61395 1.05914
 H267 H 1.00751 0.65089 0.98742
 Cu268 Cu 1.07606 0.56590 1.00432
 Cu269 Cu 1.02910 0.59351 0.95036
 Cu270 Cu 1.04050 0.51760 0.95285
 N271 N 1.09596 0.52978 0.99102
 N272 N 1.08060 0.51024 0.97217
 C273 C 1.09826 0.48723 0.96655
 C274 C 1.12684 0.49290 0.98169
 C275 C 1.12440 0.51985 0.99771
 H276 H 1.09102 0.46807 0.95180
 H277 H 1.14207 0.53147 1.01265
 N278 N 1.01269 0.53471 0.92242
 N279 N 1.01003 0.56395 0.92010
 C280 C 0.99203 0.56888 0.89520
 C281 C 0.98351 0.54134 0.88098
 C282 C 0.99656 0.52016 0.89912
 H283 H 0.98549 0.59080 0.88806
 H284 H 0.99546 0.49605 0.89500
 H285 H 1.02653 0.55635 0.97521
 H286 H 1.06035 0.55963 0.95075
 N287 N 0.52649 0.10527 0.48235
 N288 N 0.54515 0.09310 0.50235
 C289 C 0.54736 0.11029 0.52791
 C290 C 0.52954 0.13485 0.52353
 C291 C 0.51629 0.13063 0.49447
 H292 H 0.56054 0.10504 0.54836
 H293 H 0.50024 0.14491 0.48311
 Cu294 Cu 0.56519 0.05605 0.49348
 Cu295 Cu 0.51587 0.08666 0.44259
 Cu296 Cu 0.56105 0.02953 0.42138
 N297 N 0.59411 0.02774 0.47901
 N298 N 0.59364 0.01923 0.45039
 C299 C 0.61602 0.00008 0.44648
 C300 C 0.63143 -0.00394 0.47415
 C301 C 0.61652 0.01372 0.49441
 H302 H 0.62001 -0.01114 0.42525
 H303 H 0.62075 0.01531 0.51869
 N304 N 0.52666 0.04279 0.39533
 N305 N 0.50919 0.06458 0.40343
 C306 C 0.48631 0.06695 0.38193
 C307 C 0.48971 0.04577 0.35915
 C308 C 0.51529 0.03062 0.36861
 H309 H 0.46787 0.08223 0.38314
 H310 H 0.52397 0.01118 0.35753
 H311 H 0.52841 0.04339 0.45099
 H312 H 0.56011 0.07208 0.44176
 N313 N -0.02235 0.10180 0.52435
 N314 N -0.04824 0.09457 0.50813
 C315 C -0.05081 0.11343 0.48501
 C316 C -0.02519 0.13357 0.48681
 C317 C -0.00759 0.12578 0.51212
 H318 H -0.06893 0.11147 0.46713
 H319 H 0.01506 0.13556 0.51990
 Cu320 Cu -0.07454 0.05911 0.51587
 Cu321 Cu -0.00906 0.07761 0.55838
 Cu322 Cu -0.04295 0.00478 0.55587
 N323 N -0.09240 0.01817 0.51340
 N324 N -0.07952 -0.00317 0.52868
 C325 C -0.09675 -0.02915 0.52365
 C326 C -0.12149 -0.02396 0.50370
 C327 C -0.11820 0.00649 0.49797
 H328 H -0.09250 -0.04998 0.53481
 H329 H -0.13375 0.01929 0.48413
 N330 N -0.00609 0.01740 0.58218
 N331 N 0.00645 0.04525 0.58385
 C332 C 0.02985 0.04696 0.60534
 C333 C 0.03221 0.01872 0.61753
 C334 C 0.00891 0.00072 0.60247
 H335 H 0.04350 0.06738 0.61230
 H336 H 0.00288 -0.02269 0.60671
 H337 H -0.02474 0.04101 0.53233
 H338 H -0.04842 0.04955 0.56507
 N339 N 0.47809 0.60337 0.02592
 N340 N 0.45643 0.59231 0.00610
 C341 C 0.45871 0.60704 -0.01991
 C342 C 0.48308 0.62875 -0.01632
 C343 C 0.49435 0.62622 0.01344
 H344 H 0.44362 0.60237 -0.03996
 H345 H 0.51278 0.64005 0.02531
 Cu346 Cu 0.42621 0.56087 0.01648
 Cu347 Cu 0.48405 0.58594 0.06576
 Cu348 Cu 0.44727 0.51460 0.07134
 N349 N 0.40436 0.52216 0.02066
 N350 N 0.41337 0.50364 0.04159
 C351 C 0.39512 0.47803 0.03892
 C352 C 0.37376 0.48065 0.01489
 C353 C 0.37997 0.50911 0.00404
 H354 H 0.39682 0.45909 0.05366
 H355 H 0.36787 0.51936 -0.01468
 N356 N 0.48177 0.53029 0.09936
 N357 N 0.49538 0.55757 0.09767
 C358 C 0.51880 0.56097 0.11909
 C359 C 0.51998 0.53449 0.13479
 C360 C 0.49598 0.51575 0.12196
 H361 H 0.53449 0.58082 0.12236
 H362 H 0.49014 0.49279 0.12806
 H363 H 0.47152 0.54522 0.04517
 H364 H 0.44274 0.56000 0.07061
 N365 N 0.50809 -0.08373 0.00049
 N366 N 0.53319 -0.07575 -0.01364
 C367 C 0.53674 -0.09614 -0.03594
 C368 C 0.51280 -0.11813 -0.03545
 C369 C 0.49481 -0.10940 -0.01234
 H370 H 0.55632 -0.09622 -0.05016
 H371 H 0.47482 -0.12193 -0.00420
 Cu372 Cu 0.56050 -0.04154 0.00094
 Cu373 Cu 0.49721 -0.06315 0.03732
 Cu374 Cu 0.54720 -0.00341 0.06477
 N375 N 0.58780 -0.00734 0.01553
 N376 N 0.58274 0.00723 0.04078
 C377 C 0.60436 0.03024 0.04531
 C378 C 0.62366 0.03035 0.02134
 C379 C 0.61275 0.00596 0.00311
 H380 H 0.60559 0.04613 0.06426
 H381 H 0.62188 -0.00094 -0.01805
 N382 N 0.50979 -0.01767 0.08542
 N383 N 0.49036 -0.03975 0.07435
 C384 C 0.46680 -0.04364 0.09282
 C385 C 0.47185 -0.02349 0.11704
 C386 C 0.49907 -0.00704 0.11137
 H387 H 0.44710 -0.05968 0.08882
 H388 H 0.51006 0.01142 0.12513
 H389 H 0.51905 -0.02155 0.02913
 H390 H 0.54206 -0.04825 0.05152
 N391 N 1.01825 0.41067 0.51439
 N392 N 1.04098 0.42020 0.49773
 C393 C 1.04154 0.40159 0.47337
 C394 C 1.01793 0.37937 0.47501
 C395 C 1.00382 0.38557 0.50143
 H396 H 1.05808 0.40364 0.45594
 H397 H 0.98439 0.37286 0.51038
 Cu398 Cu 1.06827 0.45541 0.50991
 Cu399 Cu 1.00850 0.43179 0.55115
 Cu400 Cu 1.05781 0.49297 0.57507
 N401 N 1.09639 0.48925 0.52443
 N402 N 1.09245 0.50343 0.55018
 C403 C 1.11430 0.52624 0.55442
 C404 C 1.13263 0.52675 0.52976
 C405 C 1.12094 0.50268 0.51139
 H406 H 1.11629 0.54182 0.57363
 H407 H 1.12919 0.49612 0.48973
 N408 N 1.02143 0.47905 0.59710
 N409 N 1.00236 0.45600 0.58773
 C410 C 0.97925 0.45280 0.60688
 C411 C 0.98433 0.47457 0.62957
 C412 C 1.01102 0.49103 0.62254
 H413 H 0.96010 0.43594 0.60460
 H414 H 1.02166 0.51059 0.63486
 H415 H 1.02804 0.47377 0.54088
 H416 H 1.05376 0.44802 0.56174
 C417 C 0.34990 0.03374 0.23447
 C418 C 0.33547 0.00405 0.24563
 C419 C 0.35553 -0.01815 0.24931
 C420 C 0.38901 -0.00843 0.24167
 C421 C 0.37768 0.04238 0.25656
 C422 C 0.39760 0.02033 0.26103
 C423 C 0.36564 0.02474 0.20535
 C424 C 0.38593 0.00264 0.20903
 H425 H 0.31074 0.00035 0.24819
 H426 H 0.40591 -0.02605 0.24478
 H427 H 0.38097 0.06404 0.26836
 H428 H 0.36401 0.03674 0.18447
 C429 C 0.13971 -0.04630 0.75250
 C430 C 0.15787 -0.01566 0.75945
 C431 C 0.13981 0.00848 0.76091
 C432 C 0.10492 -0.00024 0.75493
 C433 C 0.11573 -0.04820 0.77665
 C434 C 0.09754 -0.02445 0.77826
 C435 C 0.12159 -0.04071 0.72274
 C436 C 0.10318 -0.01717 0.72383
 H437 H 0.18286 -0.01233 0.76114
 H438 H 0.09004 0.01910 0.75653
 H439 H 0.11446 -0.06645 0.79241
 H440 H 0.12444 -0.05339 0.70199
 C441 C 0.63967 0.45716 0.24967
 C442 C 0.65961 0.48635 0.25898
 C443 C 0.64289 0.51037 0.26546
 C444 C 0.60765 0.50369 0.26165
 C445 C 0.61751 0.45252 0.27516
 C446 C 0.60127 0.47667 0.28198
 C447 C 0.61947 0.46718 0.22267
 C448 C 0.60263 0.49129 0.22883
 H449 H 0.68437 0.48956 0.25692
 H450 H 0.59410 0.52347 0.26668
 H451 H 0.61562 0.43182 0.28755
 H452 H 0.61947 0.45687 0.20028
 C453 C 0.85834 0.53259 0.74108
 C454 C 0.84300 0.50122 0.74582
 C455 C 0.86294 0.47912 0.75133
 C456 C 0.89730 0.49122 0.75320
 C457 C 0.87901 0.53914 0.77008
 C458 C 0.89912 0.51774 0.77656
 C459 C 0.88206 0.52821 0.71688
 C460 C 0.90220 0.50642 0.72288
 H461 H 0.81801 0.49694 0.74394
 H462 H 0.91411 0.47386 0.75755
 H463 H 0.88122 0.56025 0.78273
 H464 H 0.88265 0.54125 0.69655
 C465 C 0.23501 0.35750 0.01783
 C466 C 0.23474 0.34124 -0.01291
 C467 C 0.23837 0.35967 -0.03659
 C468 C 0.24208 0.39333 -0.02767
 C469 C 0.26504 0.37793 0.02024
 C470 C 0.26910 0.39586 -0.00377
 C471 C 0.20972 0.38039 0.01398
 C472 C 0.21331 0.39914 -0.00974
 H473 H 0.23172 0.31695 -0.01571
 H474 H 0.24570 0.40850 -0.04689
 H475 H 0.28127 0.37892 0.03980
 H476 H 0.19233 0.38390 0.03013
 C477 C 0.75436 0.15019 -0.03503
 C478 C 0.75741 0.16645 -0.00385
 C479 C 0.76098 0.14798 0.02002
 C480 C 0.75947 0.11436 0.01083
 C481 C 0.78192 0.13024 -0.03582
 C482 C 0.78483 0.11174 -0.01202
 C483 C 0.72598 0.12789 -0.03194
 C484 C 0.72851 0.10954 -0.00787
 H485 H 0.75568 0.19051 -0.00085
 H486 H 0.76159 0.09915 0.03027
 H487 H 0.79798 0.13087 -0.05379
 H488 H 0.70400 0.12904 -0.04458
 C489 C 0.26037 0.64715 0.47093
 C490 C 0.26447 0.66519 0.50132
 C491 C 0.26850 0.64790 0.52610
 C492 C 0.26702 0.61393 0.51859
 C493 C 0.28835 0.62766 0.47093
 C494 C 0.29207 0.61056 0.49567
 C495 C 0.23228 0.62544 0.47596
 C496 C 0.23573 0.60800 0.50057
 H497 H 0.26032 0.68875 0.50410
 H498 H 0.26984 0.59968 0.53870
 H499 H 0.30462 0.62822 0.45312
 H500 H 0.21069 0.62531 0.46232
 C501 C 0.73692 0.85868 0.52166
 C502 C 0.73119 0.84264 0.49065
 C503 C 0.73342 0.86112 0.46678
 C504 C 0.74071 0.89433 0.47562
 C505 C 0.76832 0.87673 0.52027
 C506 C 0.77047 0.89470 0.49598
 C507 C 0.71349 0.88364 0.52121
 C508 C 0.71556 0.90195 0.49715
 H509 H 0.72695 0.81845 0.48784
 H510 H 0.74235 0.90941 0.45605
 H511 H 0.78684 0.87625 0.53770
 H512 H 0.69782 0.88818 0.53869
 C513 C 0.02654 0.24657 0.35423
 C514 C -0.00612 0.24606 0.33867
 C515 C -0.02938 0.24725 0.35800
 C516 C -0.01833 0.24869 0.39144
 C517 C 0.02919 0.27434 0.37555
 C518 C 0.00545 0.27596 0.39428
 C519 C 0.02513 0.22065 0.37670
 C520 C 0.00105 0.22090 0.39528
 H521 H -0.01042 0.24446 0.31435
 H522 H -0.03757 0.24987 0.40700
 H523 H 0.04842 0.29119 0.37621
 H524 H 0.04302 0.20484 0.37973
 C525 C -0.03418 0.75166 0.15777
 C526 C -0.00137 0.75471 0.17314
 C527 C 0.02165 0.76109 0.15407
 C528 C 0.01017 0.76264 0.12075
 C529 C -0.03751 0.78014 0.13936
 C530 C -0.01442 0.78613 0.12035
 C531 C -0.03113 0.72644 0.13373
 C532 C -0.00830 0.73236 0.11415
 H533 H 0.00334 0.75099 0.19699
 H534 H 0.02906 0.76744 0.10516
 H535 H -0.05724 0.79393 0.14063
 H536 H -0.04272 0.70424 0.13413
 C537 C 0.46166 0.24441 0.64849
 C538 C 0.49125 0.25561 0.66687
 C539 C 0.51634 0.26159 0.65045
 C540 C 0.50979 0.25614 0.61632
 C541 C 0.45691 0.26860 0.62457
 C542 C 0.48203 0.27520 0.60790
 C543 C 0.47065 0.21753 0.62912
 C544 C 0.49620 0.22323 0.61285
 H545 H 0.49250 0.25734 0.69136
 H546 H 0.53070 0.26106 0.60339
 H547 H 0.43498 0.27823 0.61929
 H548 H 0.45701 0.19624 0.62738
 C549 C 0.53768 0.74281 0.85298
 C550 C 0.50556 0.74135 0.83651
 C551 C 0.48129 0.74155 0.85483
 C552 C 0.49130 0.74483 0.88863
 C553 C 0.53801 0.77191 0.87281
 C554 C 0.51391 0.77291 0.89132
 C555 C 0.53618 0.71764 0.87608
 C556 C 0.51216 0.71854 0.89468
 H557 H 0.50239 0.74071 0.81207
 H558 H 0.47161 0.74583 0.90368
 H559 H 0.55558 0.79021 0.87343
 H560 H 0.55267 0.70027 0.87719
 C561 C 0.06374 0.21750 0.32415
 C562 C 0.08850 0.21548 0.30566
 C563 C 0.10277 0.24117 0.29343
 C564 C 0.09074 0.26959 0.29933
 C565 C 0.06359 0.27121 0.31592
 C566 C 0.05179 0.24537 0.33115
 C567 C 0.04912 0.29872 0.31623
 N568 N 0.06322 0.32361 0.30468
 N569 N 0.09062 0.32279 0.29245
 C570 C 0.10497 0.29672 0.28959
 H571 H 0.05360 0.19666 0.33239
 H572 H 0.09626 0.19332 0.30061
 H573 H 0.02658 0.30067 0.32508
 H574 H 0.12753 0.29769 0.28022
 C575 C 0.58658 0.76288 0.82766
 C576 C 0.61027 0.76037 0.80788
 C577 C 0.61209 0.73442 0.79002
 C578 C 0.58863 0.71091 0.79095
 C579 C 0.56478 0.71286 0.81171
 C580 C 0.56364 0.73931 0.83073
 C581 C 0.54279 0.68809 0.81235
 N582 N 0.54395 0.66418 0.79303
 N583 N 0.56558 0.66308 0.77288
 C584 C 0.58783 0.68563 0.77108
 H585 H 0.58708 0.78371 0.84047
 H586 H 0.62790 0.77871 0.80710
 H587 H 0.52461 0.68711 0.82787
 H588 H 0.60425 0.68374 0.75371
 C589 C 0.42934 0.76267 0.85016
 C590 C 0.40102 0.76576 0.83411
 C591 C 0.39173 0.74712 0.80874
 C592 C 0.41146 0.72432 0.80004
 C593 C 0.43839 0.71927 0.81842
 C594 C 0.44866 0.74002 0.84214
 C595 C 0.45465 0.69367 0.81212
 N596 N 0.44696 0.67663 0.78678
 N597 N 0.42402 0.68355 0.76745
 C598 C 0.40629 0.70697 0.77299
 H599 H 0.43669 0.77875 0.86827
 H600 H 0.38655 0.78334 0.84125
 H601 H 0.47310 0.68698 0.82737
 H602 H 0.38918 0.71221 0.75565
 C603 C -0.07722 0.27289 0.34486
 C604 C -0.10740 0.27315 0.33212
 C605 C -0.12384 0.24635 0.32132
 C606 C -0.11046 0.21845 0.32744
 C607 C -0.07932 0.21843 0.33940
 C608 C -0.06244 0.24595 0.34735
 C609 C -0.06618 0.19065 0.34366
 N610 N -0.08365 0.16457 0.33819
 N611 N -0.11347 0.16449 0.32895
 C612 C -0.12754 0.19044 0.32376
 H613 H -0.06485 0.29406 0.35166
 H614 H -0.11682 0.29489 0.32883
 H615 H -0.04239 0.18952 0.35178
 H616 H -0.15218 0.18884 0.31800
 C617 C -0.08452 0.72518 0.17408
 C618 C -0.10863 0.72082 0.19343
 C619 C -0.11002 0.73866 0.21967
 C620 C -0.08605 0.76137 0.22663
 C621 C -0.06224 0.76704 0.20605
 C622 C -0.06042 0.74769 0.17996
 C623 C -0.04120 0.79220 0.21247
 N624 N -0.04223 0.80843 0.23862
 N625 N -0.06295 0.80149 0.25887
 C626 C -0.08472 0.77847 0.25388
 H627 H -0.08591 0.71119 0.15380
 H628 H -0.12694 0.70370 0.18729
 H629 H -0.02399 0.79950 0.19712
 H630 H -0.10037 0.77353 0.27155
 C631 C 0.41276 0.25897 0.67337
 C632 C 0.38906 0.25474 0.69311
 C633 C 0.38607 0.22880 0.71027
 C634 C 0.40995 0.20808 0.70962
 C635 C 0.43484 0.21282 0.68992
 C636 C 0.43522 0.23769 0.66992
 C637 C 0.45940 0.19329 0.69227
 N638 N 0.45873 0.17058 0.71206
 N639 N 0.43566 0.16631 0.73045
 C640 C 0.41163 0.18444 0.73025
 H641 H 0.41348 0.27983 0.66147
 H642 H 0.37206 0.27164 0.69387
 H643 H 0.47988 0.19618 0.67961
 H644 H 0.39510 0.18090 0.74737
 C645 C 0.55746 0.24833 0.68743
 C646 C 0.58612 0.25292 0.70296
 C647 C 0.60676 0.27754 0.69710
 C648 C 0.59681 0.29881 0.67544
 C649 C 0.56745 0.29365 0.65918
 C650 C 0.54775 0.26813 0.66533
 C651 C 0.55801 0.31520 0.63846
 N652 N 0.57626 0.34053 0.63471
 N653 N 0.60301 0.34607 0.65073
 C654 C 0.61362 0.32643 0.67120
 H655 H 0.54279 0.22862 0.69244
 H656 H 0.59250 0.23601 0.71893
 H657 H 0.53600 0.31264 0.62576
 H658 H 0.63427 0.33354 0.68480
 C659 C 0.06705 0.73786 0.17753
 C660 C 0.09671 0.73939 0.19156
 C661 C 0.11504 0.76654 0.19367
 C662 C 0.10313 0.79275 0.18079
 C663 C 0.07311 0.79092 0.16579
 C664 C 0.05476 0.76337 0.16485
 C665 C 0.06190 0.81718 0.15336
 N666 N 0.07925 0.84361 0.15631
 N667 N 0.10694 0.84559 0.17113
 C668 C 0.11933 0.82122 0.18366
 H669 H 0.05324 0.71666 0.17709
 H670 H 0.10525 0.71920 0.20140
 H671 H 0.03953 0.81705 0.14147
 H672 H 0.14136 0.82472 0.19620
 C673 C 0.31454 0.06689 0.20387
 C674 C 0.29558 0.09087 0.20097
 C675 C 0.28735 0.10728 0.22629
 C676 C 0.29784 0.09853 0.25550
 C677 C 0.31545 0.07268 0.25862
 C678 C 0.32617 0.05809 0.23236
 C679 C 0.32185 0.06259 0.28814
 N680 N 0.31412 0.07894 0.31248
 N681 N 0.30024 0.10464 0.30945
 C682 C 0.29209 0.11511 0.28188
 H683 H 0.31938 0.05508 0.18329
 H684 H 0.28711 0.09654 0.17849
 H685 H 0.33282 0.04186 0.29237
 H686 H 0.28180 0.13655 0.28105
 C687 C 0.82894 0.57907 0.75302
 C688 C 0.80845 0.60087 0.74583
 C689 C 0.79144 0.60001 0.71814
 C690 C 0.79437 0.57568 0.69751
 C691 C 0.81561 0.55324 0.70464
 C692 C 0.83422 0.55550 0.73250
 C693 C 0.81674 0.52889 0.68379
 N694 N 0.79834 0.52743 0.65798
 N695 N 0.77853 0.54839 0.65153
 C696 C 0.77578 0.57230 0.67044
 H697 H 0.83998 0.58114 0.77536
 H698 H 0.80600 0.61884 0.76230
 H699 H 0.83150 0.51057 0.68768
 H700 H 0.75858 0.58800 0.66433
 C701 C 0.82661 0.43745 0.72993
 C702 C 0.81392 0.40795 0.72820
 C703 C 0.82696 0.38535 0.74532
 C704 C 0.85495 0.39292 0.76294
 C705 C 0.86570 0.42368 0.76759
 C706 C 0.85174 0.44640 0.75036
 C707 C 0.88960 0.43030 0.78992
 N708 N 0.90470 0.40780 0.80313
 N709 N 0.89717 0.37901 0.79580
 C710 C 0.87297 0.37083 0.77599
 H711 H 0.81601 0.45354 0.71531
 H712 H 0.79316 0.40322 0.71374
 H713 H 0.89616 0.45296 0.79739
 H714 H 0.86858 0.34722 0.77011
 C715 C 0.31860 -0.06121 0.23474
 C716 C 0.30736 -0.09101 0.23575
 C717 C 0.32145 -0.11152 0.25504
 C718 C 0.34931 -0.10121 0.27208
 C719 C 0.35949 -0.07009 0.27247
 C720 C 0.34418 -0.05003 0.25325
 C721 C 0.38483 -0.06015 0.29215
 N722 N 0.40109 -0.08038 0.30772
 N723 N 0.39368 -0.10982 0.30488
 C724 C 0.36869 -0.12092 0.28736
 H725 H 0.30701 -0.04669 0.21906
 H726 H 0.28654 -0.09733 0.22189
 H727 H 0.39188 -0.03654 0.29533
 H728 H 0.36518 -0.14504 0.28460
 C729 C 0.18921 -0.07402 0.76218
 C730 C 0.20680 -0.09905 0.76019
 C731 C 0.19409 -0.12641 0.74728
 C732 C 0.16152 -0.12940 0.73998
 C733 C 0.14340 -0.10376 0.74193
 C734 C 0.15787 -0.07503 0.75150
 C735 C 0.11106 -0.10818 0.73518
 N736 N 0.09802 -0.13598 0.72771
 N737 N 0.11481 -0.15999 0.72700
 C738 C 0.14587 -0.15774 0.73327
 H739 H 0.20090 -0.05392 0.77234
 H740 H 0.23121 -0.09620 0.76732
 H741 H 0.09552 -0.09025 0.73649
 H742 H 0.15759 -0.17843 0.73429
 C743 C 0.68866 0.42801 0.25344
 C744 C 0.70510 0.40248 0.24983
 C745 C 0.69083 0.37601 0.23686
 C746 C 0.65877 0.37488 0.22814
 C747 C 0.64156 0.40086 0.23224
 C748 C 0.65699 0.42846 0.24401
 C749 C 0.60921 0.39772 0.22534
 N750 N 0.59566 0.37115 0.21432
 N751 N 0.61197 0.34716 0.21006
 C752 C 0.64295 0.34805 0.21676
 H753 H 0.70131 0.44696 0.26483
 H754 H 0.72943 0.40343 0.25742
 H755 H 0.59414 0.41565 0.22912
 H756 H 0.65470 0.32757 0.21363
 C757 C 0.67288 0.55508 0.24803
 C758 C 0.69062 0.58206 0.25314
 C759 C 0.69483 0.59533 0.28219
 C760 C 0.68075 0.58072 0.30669
 C761 C 0.66150 0.55390 0.30110
 C762 C 0.65813 0.54075 0.27163
 C763 C 0.64711 0.54048 0.32553
 N764 N 0.65265 0.55235 0.35388
 N765 N 0.67184 0.57662 0.35942
 C766 C 0.68626 0.59103 0.33693
 H767 H 0.67099 0.54511 0.22546
 H768 H 0.70124 0.59263 0.23413
 H769 H 0.63156 0.52070 0.32233
 H770 H 0.70247 0.60980 0.34321
 C771 C 0.17597 0.04219 0.79322
 C772 C 0.19387 0.06892 0.79948
 C773 C 0.19036 0.09383 0.78134
 C774 C 0.16695 0.09260 0.75774
 C775 C 0.14833 0.06547 0.75143
 C776 C 0.15383 0.03946 0.76870
 C777 C 0.12561 0.06554 0.72752
 N778 N 0.12181 0.09069 0.71137
 N779 N 0.13923 0.11602 0.71743
 C780 C 0.16166 0.11784 0.74005
 H781 H 0.18021 0.02302 0.80717
 H782 H 0.21155 0.06973 0.81782
 H783 H 0.11064 0.04618 0.72137
 H784 H 0.17496 0.13908 0.74413
 C785 C 0.20388 0.33040 0.05739
 C786 C 0.20116 0.31214 0.08225
 C787 C 0.22673 0.29808 0.09484
 C788 C 0.25573 0.30221 0.08141
 C789 C 0.25777 0.31850 0.05431
 C790 C 0.23229 0.33513 0.04360
 C791 C 0.28547 0.31746 0.03896
 N792 N 0.31039 0.30468 0.05189
 N793 N 0.30948 0.29255 0.07900
 C794 C 0.28313 0.29112 0.09430
 H795 H 0.18302 0.34006 0.04867
 H796 H 0.17854 0.30872 0.09149
 H797 H 0.28762 0.32635 0.01673
 H798 H 0.28422 0.28189 0.11660
 C799 C 0.71176 0.83555 0.56734
 C800 C 0.71154 0.81715 0.59225
 C801 C 0.73577 0.79854 0.59883
 C802 C 0.76086 0.79838 0.57949
 C803 C 0.76034 0.81590 0.55301
 C804 C 0.73635 0.83631 0.54769
 C805 C 0.78409 0.81225 0.53282
 N806 N 0.80782 0.79473 0.54002
 N807 N 0.80948 0.78034 0.56597
 C808 C 0.78696 0.78170 0.58599
 H809 H 0.69177 0.84855 0.56354
 H810 H 0.69176 0.81711 0.60630
 H811 H 0.78413 0.82279 0.51122
 H812 H 0.79008 0.77011 0.60695
 C813 C 0.75916 0.85086 0.41960
 C814 C 0.76057 0.83527 0.39209
 C815 C 0.73459 0.81803 0.37945
 C816 C 0.70585 0.81908 0.39346
 C817 C 0.70466 0.83436 0.42177
 C818 C 0.73189 0.84933 0.43533
 C819 C 0.67610 0.83424 0.43557
 N820 N 0.65034 0.82025 0.42149
 N821 N 0.65126 0.80645 0.39458
 C822 C 0.67805 0.80548 0.38005
 H823 H 0.78007 0.86261 0.42959
 H824 H 0.78269 0.83508 0.38170
 H825 H 0.67391 0.84551 0.45719
 H826 H 0.67719 0.79463 0.35791
 C827 C 0.26628 0.34847 -0.08243
 C828 C 0.26930 0.33095 -0.10857
 C829 C 0.24439 0.31190 -0.12065
 C830 C 0.21501 0.31298 -0.10797
 C831 C 0.21209 0.33041 -0.08124
 C832 C 0.23834 0.34723 -0.06778
 C833 C 0.18285 0.33029 -0.06866
 N834 N 0.15817 0.31420 -0.08244
 N835 N 0.16077 0.29826 -0.10789
 C836 C 0.18827 0.29715 -0.12115
 H837 H 0.28649 0.36136 -0.07240
 H838 H 0.29185 0.33066 -0.11812
 H839 H 0.17926 0.34321 -0.04830
 H840 H 0.18880 0.28436 -0.14214
 C841 C 0.73163 0.16490 -0.08654
 C842 C 0.72862 0.18424 -0.11058
 C843 C 0.74702 0.21114 -0.11143
 C844 C 0.76932 0.21848 -0.08729
 C845 C 0.77393 0.19773 -0.06370
 C846 C 0.75328 0.17147 -0.06201
 C847 C 0.79933 0.20417 -0.04274
 N848 N 0.81640 0.23070 -0.04341
 N849 N 0.81007 0.25127 -0.06375
 C850 C 0.78702 0.24617 -0.08553
 H851 H 0.71723 0.14418 -0.08809
 H852 H 0.71203 0.17765 -0.12910
 H853 H 0.80614 0.18845 -0.02593
 H854 H 0.78253 0.26409 -0.10085
 C855 C 0.26406 0.69646 0.44255
 C856 C 0.26075 0.71353 0.41683
 C857 C 0.25080 0.70009 0.38897
 C858 C 0.24579 0.66836 0.38654
 C859 C 0.24953 0.65064 0.41270
 C860 C 0.25733 0.66501 0.44164
 C861 C 0.24606 0.61901 0.40861
 N862 N 0.23871 0.60644 0.38080
 N863 N 0.23493 0.62313 0.35653
 C864 C 0.23839 0.65357 0.35840
 H865 H 0.27259 0.70852 0.46297
 H866 H 0.26572 0.73769 0.41881
 H867 H 0.24966 0.60384 0.42687
 H868 H 0.23593 0.66577 0.33771
 C869 C 0.24826 0.64808 0.57743
 C870 C 0.24549 0.66112 0.60603
 C871 C 0.26379 0.68697 0.61549
 C872 C 0.28644 0.69912 0.59643
 C873 C 0.28924 0.68596 0.56731
 C874 C 0.26928 0.66067 0.55743
 C875 C 0.31236 0.69843 0.54927
 N876 N 0.33097 0.72251 0.55965
 N877 N 0.32819 0.73493 0.58691
 C878 C 0.30664 0.72407 0.60566
 H879 H 0.23294 0.62870 0.57044
 H880 H 0.22822 0.65153 0.62050
 H881 H 0.31611 0.68922 0.52716
 H882 H 0.30581 0.73482 0.62771
 C883 C 0.73918 0.17743 0.06084
 C884 C 0.74107 0.19212 0.08897
 C885 C 0.76716 0.19036 0.10887
 C886 C 0.79188 0.17301 0.10009
 C887 C 0.78933 0.15701 0.07179
 C888 C 0.76301 0.15989 0.05171
 C889 C 0.81399 0.13972 0.06404
 N890 N 0.83979 0.13925 0.08274
 N891 N 0.84274 0.15517 0.10864
 C892 C 0.81986 0.17219 0.11782
 H893 H 0.71902 0.18022 0.04583
 H894 H 0.72201 0.20535 0.09509
 H895 H 0.81313 0.12664 0.04337
 H896 H 0.82432 0.18539 0.13846
 C897 C 0.46786 0.32647 0.59403
 C898 C 0.46795 0.35131 0.57562
 C899 C 0.48433 0.35216 0.54911
 C900 C 0.50163 0.32698 0.54181
 C901 C 0.49853 0.30024 0.55879
 C902 C 0.48252 0.30037 0.58600
 C903 C 0.51119 0.27422 0.54737
 N904 N 0.52946 0.27595 0.52346
 N905 N 0.53559 0.30191 0.51000
 C906 C 0.52253 0.32749 0.51851
 H907 H 0.45594 0.32782 0.61486
 H908 H 0.45466 0.36991 0.58236
 H909 H 0.50636 0.25246 0.55678
 H910 H 0.52943 0.34804 0.50758
 C911 C -0.01336 0.80596 0.06864
 C912 C -0.01659 0.82882 0.04789
 C913 C -0.02113 0.85837 0.05758
 C914 C -0.02036 0.86535 0.08905
 C915 C -0.01714 0.84206 0.11017
 C916 C -0.01456 0.81194 0.09972
 C917 C -0.01569 0.84994 0.14120
 N918 N -0.01752 0.87903 0.15029
 N919 N -0.02040 0.90087 0.13051
 C920 C -0.02170 0.89508 0.10027
 H921 H -0.01109 0.78316 0.06028
 H922 H -0.01665 0.82316 0.02397
 H923 H -0.01233 0.83344 0.15833
 H924 H -0.02301 0.91393 0.08545
 C925 C 0.03169 0.70223 0.09193
 C926 C 0.04103 0.67960 0.07271
 C927 C 0.01957 0.66349 0.05264
 C928 C -0.01225 0.67007 0.05253
 C929 C -0.02148 0.69400 0.07114
 C930 C 0.00060 0.70966 0.09158
 C931 C -0.05263 0.70163 0.06839
 N932 N -0.07349 0.68491 0.05006
 N933 N -0.06530 0.66117 0.03423
 C934 C -0.03554 0.65308 0.03497
 H935 H 0.04888 0.71378 0.10750
 H936 H 0.06535 0.67487 0.07328
 H937 H -0.06063 0.72083 0.08041
 H938 H -0.03066 0.63310 0.02225
 C939 C 0.48425 0.18717 0.56972
 C940 C 0.49233 0.16645 0.54793
 C941 C 0.52314 0.15874 0.54598
 C942 C 0.54645 0.17315 0.56610
 C943 C 0.53802 0.19353 0.58904
 C944 C 0.50661 0.20085 0.59062
 C945 C 0.56141 0.20543 0.60999
 N946 N 0.59138 0.19909 0.60690
 N947 N 0.59953 0.18149 0.58434
 C948 C 0.57817 0.16841 0.56381
 H949 H 0.46019 0.19266 0.57019
 H950 H 0.47413 0.15593 0.53274
 H951 H 0.55619 0.21937 0.62896
 H952 H 0.58635 0.15491 0.54569
 C953 C -0.01163 0.20643 0.44708
 C954 C -0.01695 0.18561 0.46952
 C955 C -0.01618 0.15477 0.46328
 C956 C -0.00936 0.14459 0.43400
 C957 C -0.00419 0.16569 0.41094
 C958 C -0.00501 0.19715 0.41776
 C959 C 0.00071 0.15419 0.38173
 N960 N 0.00168 0.12412 0.37661
 N961 N -0.00208 0.10455 0.39856
 C962 C -0.00753 0.11373 0.42703
 H963 H -0.01268 0.23006 0.45282
 H964 H -0.02242 0.19360 0.49179
 H965 H 0.00343 0.16843 0.36263
 H966 H -0.01022 0.09677 0.44394
 C967 C 0.47620 0.68370 0.92047
 C968 C 0.46934 0.66196 0.94158
 C969 C 0.49268 0.65113 0.96096
 C970 C 0.52385 0.66265 0.95857
 C971 C 0.53045 0.68645 0.93857
 C972 C 0.50652 0.69611 0.91844
 C973 C 0.56080 0.70011 0.93994
 N974 N 0.58352 0.68851 0.95753
 N975 N 0.57793 0.66434 0.97399
 C976 C 0.54899 0.65091 0.97495
 H977 H 0.45756 0.69079 0.90546
 H978 H 0.44535 0.65369 0.94284
 H979 H 0.56671 0.72010 0.92760
 H980 H 0.54625 0.63084 0.98797
 C981 C 0.50831 0.82744 0.89819
 C982 C 0.50840 0.85379 0.91577
 C983 C 0.51047 0.85292 0.94735
 C984 C 0.51243 0.82480 0.96159
 C985 C 0.51234 0.79791 0.94363
 C986 C 0.51046 0.79937 0.91160
 C987 C 0.51566 0.77065 0.95850
 N988 N 0.51858 0.77029 0.98909
 N989 N 0.51881 0.79547 1.00591
 C990 C 0.51608 0.82268 0.99326
 H991 H 0.50719 0.82902 0.87378
 H992 H 0.50724 0.87514 0.90461
 H993 H 0.51639 0.74971 0.94626
 H994 H 0.51735 0.84226 1.00818
 C995 C 0.00893 0.29923 0.44567
 C996 C 0.01226 0.32442 0.46514
 C997 C 0.01059 0.35349 0.45390
 C998 C 0.00328 0.35716 0.42273
 C999 C -0.00058 0.33151 0.40302
 C1000 C 0.00325 0.30244 0.41457
 C1001 C -0.00824 0.33583 0.37224
 N1002 N -0.01162 0.36400 0.36204
 N1003 N -0.00798 0.38810 0.38056
 C1004 C -0.00074 0.38567 0.41053
 H1005 H 0.01248 0.27730 0.45477
 H1006 H 0.01772 0.32130 0.48898
 H1007 H -0.01205 0.31706 0.35630
 H1008 H 0.00137 0.40598 0.42454
 C1009 C 0.31452 0.56112 0.50294
 C1010 C 0.33940 0.54252 0.50266
 C1011 C 0.36981 0.55471 0.49999
 C1012 C 0.37553 0.58642 0.50023
 C1013 C 0.35027 0.60529 0.50030
 C1014 C 0.31941 0.59235 0.50047
 C1015 C 0.35683 0.63667 0.50051
 N1016 N 0.38663 0.64818 0.50079
 N1017 N 0.41036 0.63046 0.50103
 C1018 C 0.40586 0.60003 0.50086
 H1019 H 0.29115 0.55093 0.50344
 H1020 H 0.33468 0.51833 0.50288
 H1021 H 0.33865 0.65218 0.50081
 H1022 H 0.42608 0.58687 0.50185
 C1023 C 0.80379 0.06047 -0.00774
 C1024 C 0.82728 0.04031 -0.00817
 C1025 C 0.85847 0.05072 -0.00933
 C1026 C 0.86628 0.08218 -0.00759
 C1027 C 0.84238 0.10265 -0.00750
 C1028 C 0.81080 0.09156 -0.00860
 C1029 C 0.85099 0.13370 -0.00553
 N1030 N 0.88140 0.14340 -0.00372
 N1031 N 0.90382 0.12418 -0.00351
 C1032 C 0.89734 0.09397 -0.00520
 H1033 H 0.77987 0.05165 -0.00819
 H1034 H 0.82090 0.01636 -0.00913
 H1035 H 0.83392 0.15032 -0.00451
 H1036 H 0.91656 0.07956 -0.00391
 C1037 C 0.70372 0.05944 0.00208
 C1038 C 0.67824 0.04042 0.00858
 C1039 C 0.64996 0.05203 0.01556
 C1040 C 0.64741 0.08370 0.01603
 C1041 C 0.67354 0.10308 0.00984
 C1042 C 0.70167 0.09068 0.00209
 C1043 C 0.67055 0.13439 0.01154
 N1044 N 0.64296 0.14538 0.01774
 N1045 N 0.61812 0.12721 0.02231
 C1046 C 0.61932 0.09683 0.02148
 H1047 H 0.72496 0.04963 -0.00382
 H1048 H 0.68059 0.01630 0.00803
 H1049 H 0.68980 0.15029 0.00801
 H1050 H 0.59815 0.08344 0.02469
 C1051 C 0.21192 0.55722 0.50926
 C1052 C 0.18668 0.53769 0.51546
 C1053 C 0.15853 0.54880 0.52363
 C1054 C 0.15584 0.58045 0.52556
 C1055 C 0.18176 0.60027 0.51981
 C1056 C 0.20971 0.58842 0.51091
 C1057 C 0.17876 0.63150 0.52300
 N1058 N 0.15124 0.64205 0.53014
 N1059 N 0.12653 0.62353 0.53422
 C1060 C 0.12780 0.59320 0.53200
 H1061 H 0.23307 0.54788 0.50232
 H1062 H 0.18913 0.51363 0.51379
 H1063 H 0.19801 0.64764 0.52003
 H1064 H 0.10671 0.57954 0.53483
 C1065 C 0.18851 0.44344 0.01107
 C1066 C 0.16830 0.46664 0.00908
 C1067 C 0.15309 0.47287 -0.01851
 C1068 C 0.16047 0.45689 -0.04506
 C1069 C 0.17980 0.43224 -0.04283
 C1070 C 0.19375 0.42525 -0.01431
 C1071 C 0.18362 0.41499 -0.06924
 N1072 N 0.17110 0.42337 -0.09623
 N1073 N 0.15478 0.44769 -0.09860
 C1074 C 0.14914 0.46476 -0.07401
 H1075 H 0.19948 0.43907 0.03296
 H1076 H 0.16339 0.47882 0.02956
 H1077 H 0.19617 0.39488 -0.06887
 H1078 H 0.13625 0.48458 -0.07743
 C1079 C 0.67216 0.92374 0.46921
 C1080 C 0.65199 0.94640 0.46374
 C1081 C 0.65494 0.97365 0.48064
 C1082 C 0.67959 0.97814 0.50319
 C1083 C 0.69926 0.95437 0.50965
 C1084 C 0.69542 0.92714 0.49232
 C1085 C 0.72272 0.95897 0.53282
 N1086 N 0.72699 0.98603 0.54763
 N1087 N 0.70949 1.00876 0.54072
 C1088 C 0.68616 1.00584 0.51892
 H1089 H 0.66916 0.90307 0.45566
 H1090 H 0.63353 0.94223 0.44637
 H1091 H 0.73801 0.94150 0.53900
 H1092 H 0.67369 1.02549 0.51366
 C1093 C 0.79541 0.94586 0.49393
 C1094 C 0.82171 0.96564 0.49594
 C1095 C 0.85150 0.95485 0.49527
 C1096 C 0.85452 0.92370 0.48936
 C1097 C 0.82774 0.90355 0.48795
 C1098 C 0.79822 0.91477 0.49170
 C1099 C 0.83136 0.87278 0.48231
 N1100 N 0.85996 0.86300 0.47809
 N1101 N 0.88508 0.88196 0.47894
 C1102 C 0.88334 0.91194 0.48425
 H1103 H 0.77286 0.95481 0.49590
 H1104 H 0.81874 0.98939 0.49987
 H1105 H 0.81166 0.85656 0.48049
 H1106 H 0.90438 0.92629 0.48365
 C1107 C 0.29234 0.44792 -0.00220
 C1108 C 0.31788 0.46848 0.00261
 C1109 C 0.34811 0.45863 0.00490
 C1110 C 0.35284 0.42776 -0.00046
 C1111 C 0.32687 0.40693 -0.00551
 C1112 C 0.29649 0.41708 -0.00500
 C1113 C 0.33216 0.37649 -0.01116
 N1114 N 0.36161 0.36765 -0.01154
 N1115 N 0.38606 0.38722 -0.00684
 C1116 C 0.38272 0.41695 -0.00144
 H1117 H 0.26916 0.45593 -0.00202
 H1118 H 0.31391 0.49206 0.00629
 H1119 H 0.31318 0.35981 -0.01594
 H1120 H 0.40343 0.43185 0.00142
 C1121 C 0.55048 0.48492 0.30340
 C1122 C 0.52966 0.48253 0.32637
 C1123 C 0.53894 0.47204 0.35479
 C1124 C 0.57036 0.46562 0.36083
 C1125 C 0.59165 0.46830 0.33757
 C1126 C 0.58119 0.47700 0.30820
 C1127 C 0.62299 0.46308 0.34489
 N1128 N 0.63199 0.45516 0.37323
 N1129 N 0.61193 0.45236 0.39490
 C1130 C 0.58153 0.45745 0.38975
 H1131 H 0.54221 0.49211 0.28143
 H1132 H 0.50586 0.48815 0.32169
 H1133 H 0.64070 0.46601 0.32874
 H1134 H 0.56662 0.45560 0.40851
 C1135 C 0.08893 -0.02634 0.83299
 C1136 C 0.07009 -0.02843 0.85745
 C1137 C 0.03807 -0.02559 0.85368
 C1138 C 0.02484 -0.02008 0.82444
 C1139 C 0.04426 -0.01720 0.79956
 C1140 C 0.07653 -0.02135 0.80371
 C1141 C 0.03034 -0.01133 0.77116
 N1142 N -0.00081 -0.00940 0.76759
 N1143 N -0.01912 -0.01319 0.79059
 C1144 C -0.00743 -0.01867 0.81878
 H1145 H 0.11352 -0.02928 0.83690
 H1146 H 0.08066 -0.03252 0.87959
 H1147 H 0.04384 -0.00803 0.75185
 H1148 H -0.02366 -0.02242 0.83617
 C1149 C 0.05484 -0.01594 0.69149
 C1150 C 0.03788 -0.00711 0.66602
 C1151 C 0.05208 0.00998 0.64379
 C1152 C 0.08458 0.01708 0.64682
 C1153 C 0.10183 0.00820 0.67299
 C1154 C 0.08642 -0.00731 0.69609
 C1155 C 0.13415 0.01491 0.67499
 N1156 N 0.14809 0.02949 0.65234
 N1157 N 0.13198 0.03752 0.62769
 C1158 C 0.10081 0.03171 0.62408
 H1159 H 0.04323 -0.03026 0.70731
 H1160 H 0.01328 -0.01368 0.66372
 H1161 H 0.14845 0.00889 0.69441
 H1162 H 0.08926 0.03806 0.60320
 C1163 C 0.55127 0.50556 0.20876
 C1164 C 0.53136 0.51569 0.18593
 C1165 C 0.54281 0.52640 0.15893
 C1166 C 0.57522 0.52710 0.15499
 C1167 C 0.59551 0.51679 0.17831
 C1168 C 0.58321 0.50540 0.20517
 C1169 C 0.62756 0.51812 0.17382
 N1170 N 0.63833 0.52829 0.14751
 N1171 N 0.61925 0.53714 0.12533
 C1172 C 0.58813 0.53674 0.12808
 H1173 H 0.54145 0.49669 0.22892
 H1174 H 0.50664 0.51476 0.18920
 H1175 H 0.64419 0.51116 0.19088
 H1176 H 0.57394 0.54372 0.10904
 C1177 C 0.42350 0.01746 0.17083
 C1178 C 0.44492 0.01123 0.14953
 C1179 C 0.45087 -0.01850 0.14188
 C1180 C 0.43533 -0.04246 0.15682
 C1181 C 0.41254 -0.03612 0.17765
 C1182 C 0.40698 -0.00580 0.18512
 C1183 C 0.39570 -0.06052 0.18988
 N1184 N 0.40284 -0.08914 0.18355
 N1185 N 0.42561 -0.09502 0.16563
 C1186 C 0.44215 -0.07271 0.15216
 H1187 H 0.42011 0.04081 0.17649
 H1188 H 0.45659 0.02989 0.13855
 H1189 H 0.37667 -0.05720 0.20401
 H1190 H 0.46075 -0.07891 0.13841
 C1191 C 0.91329 0.49172 0.67054
 C1192 C 0.93274 0.48356 0.64809
 C1193 C 0.96434 0.48042 0.65483
 C1194 C 0.97633 0.48420 0.68514
 C1195 C 0.95664 0.49288 0.70808
 C1196 C 0.92469 0.49695 0.70060
 C1197 C 0.97005 0.49768 0.73753
 N1198 N 1.00038 0.49293 0.74376
 N1199 N 1.01845 0.48371 0.72246
 C1200 C 1.00747 0.47910 0.69342
 H1201 H 0.88899 0.49409 0.66428
 H1202 H 0.92315 0.48046 0.62504
 H1203 H 0.95698 0.50513 0.75572
 H1204 H 1.02313 0.47110 0.67726
 C1205 C 0.91914 0.50733 0.82827
 C1206 C 0.93947 0.51319 0.85341
 C1207 C 0.96395 0.53530 0.85287
 C1208 C 0.96859 0.55124 0.82596
 C1209 C 0.94761 0.54552 0.80046
 C1210 C 0.92303 0.52292 0.80158
 C1211 C 0.95218 0.56248 0.77442
 N1212 N 0.97673 0.58288 0.77378
 N1213 N 0.99701 0.58751 0.79735
 C1214 C 0.99391 0.57232 0.82330
 H1215 H 0.89941 0.49149 0.83026
 H1216 H 0.93541 0.50103 0.87389
 H1217 H 0.93689 0.55929 0.75435
 H1218 H 1.01158 0.57659 0.84129
 C1219 C 0.41389 0.02899 0.31469
 C1220 C 0.43597 0.03599 0.33814
 C1221 C 0.46771 0.03795 0.33294
 C1222 C 0.47730 0.03245 0.30322
 C1223 C 0.45465 0.02493 0.27932
 C1224 C 0.42270 0.02364 0.28517
 C1225 C 0.46481 0.02016 0.25011
 N1226 N 0.49552 0.02290 0.24513
 N1227 N 0.51672 0.03043 0.26735
 C1228 C 0.50869 0.03550 0.29612
 H1229 H 0.38953 0.02820 0.31953
 H1230 H 0.42813 0.03993 0.36063
 H1231 H 0.44870 0.01448 0.23119
 H1232 H 0.52693 0.04244 0.31287
   
