data_POSCAR
  _audit_creation_date              2014-09-24
  _audit_creation_method            'ToBaCCo'
  _symmetry_space_group_name_H-M    'P1'
  _symmetry_Int_Tables_number       1
  _symmetry_cell_setting            triclinic
  loop_
  _symmetry_equiv_pos_as_xyz
 x,y,z
_cell_length_a 60.0864
_cell_length_b 59.9971
_cell_length_c 59.9457
_cell_angle_alpha 89.888300
_cell_angle_beta 89.944500
_cell_angle_gamma 89.985400
loop_
  _atom_site_label
  _atom_site_type_symbol
  _atom_site_fract_x
  _atom_site_fract_y
  _atom_site_fract_z
C1 C 0.26327 0.99908 -0.01653
 C2 C 0.26542 0.99912 0.00598
 C3 C 0.26712 0.97836 0.01927
 C4 C 0.26464 1.02013 0.01900
 C5 C 0.26065 1.02009 -0.02916
 C6 C 0.26331 0.97832 -0.02974
 C7 C 0.24955 0.96296 0.01980
 C8 C 0.24922 0.94602 0.03589
 C9 C 0.26640 0.94435 0.05174
 C10 C 0.28453 0.95907 0.05032
 C11 C 0.28482 0.97596 0.03431
 C12 C 0.24849 1.02260 0.03558
 C13 C 0.24791 1.04165 0.04881
 C14 C 0.26366 1.05906 0.04604
 C15 C 0.27963 1.05643 0.02875
 C16 C 0.28022 1.03716 0.01567
 C17 C 0.27811 1.02770 -0.04269
 C18 C 0.27626 1.04799 -0.05394
 C19 C 0.25673 1.06073 -0.05220
 C20 C 0.23906 1.05285 -0.03900
 C21 C 0.24107 1.03271 -0.02741
 C22 C 0.28276 0.96562 -0.03213
 C23 C 0.28310 0.94731 -0.04657
 C24 C 0.26388 0.94131 -0.05852
 C25 C 0.24430 0.95374 -0.05556
 C26 C 0.24409 0.97222 -0.04146
 H27 H 0.23548 0.96486 0.00868
 H28 H 0.23494 0.93505 0.03670
 H29 H 0.29819 0.95794 0.06203
 H30 H 0.29844 0.98779 0.03423
 H31 H 0.23611 1.00973 0.03820
 H32 H 0.23426 1.04277 0.06048
 H33 H 0.29320 1.03531 0.00327
 H34 H 0.29329 1.01808 -0.04418
 H35 H 0.28997 1.05363 -0.06425
 H36 H 0.22386 1.06243 -0.03745
 H37 H 0.22745 1.02697 -0.01705
 H38 H 0.29779 0.97029 -0.02335
 H39 H 0.29837 0.93793 -0.04856
 H40 H 0.22936 0.94961 -0.06475
 H41 H 0.22900 0.98198 -0.03990
 H42 H 0.29279 1.06838 0.02598
 C43 C 0.75945 0.49288 0.48485
 C44 C 0.76085 0.49291 0.50746
 C45 C 0.76095 0.47223 0.52103
 C46 C 0.76124 0.51403 0.52031
 C47 C 0.75837 0.51411 0.47227
 C48 C 0.75858 0.47208 0.47151
 C49 C 0.74302 0.45723 0.52047
 C50 C 0.74173 0.43985 0.53604
 C51 C 0.75823 0.43740 0.55251
 C52 C 0.77658 0.45189 0.55234
 C53 C 0.77788 0.46915 0.53682
 C54 C 0.74456 0.51801 0.53616
 C55 C 0.74524 0.53705 0.54941
 C56 C 0.76269 0.55248 0.54714
 C57 C 0.77919 0.54872 0.53093
 C58 C 0.77855 0.52954 0.51770
 C59 C 0.77640 0.52061 0.45893
 C60 C 0.77589 0.54094 0.44756
 C61 C 0.75714 0.55484 0.44902
 C62 C 0.73892 0.54811 0.46210
 C63 C 0.73959 0.52793 0.47377
 C64 C 0.77489 0.45542 0.47364
 C65 C 0.77425 0.43649 0.46002
 C66 C 0.75745 0.43406 0.44388
 C67 C 0.74109 0.45068 0.44197
 C68 C 0.74169 0.46948 0.45559
 H69 H 0.72957 0.45960 0.50868
 H70 H 0.72732 0.42902 0.53590
 H71 H 0.78972 0.45016 0.56458
 H72 H 0.79179 0.48061 0.53755
 H73 H 0.73108 0.50623 0.53838
 H74 H 0.73214 0.53968 0.56155
 H75 H 0.79179 0.52655 0.50581
 H76 H 0.79097 0.51006 0.45760
 H77 H 0.79001 0.54567 0.43735
 H78 H 0.72430 0.55858 0.46347
 H79 H 0.72551 0.52305 0.48397
 H80 H 0.78834 0.45728 0.48550
 H81 H 0.78721 0.42406 0.46168
 H82 H 0.72775 0.44912 0.42994
 H83 H 0.72892 0.48208 0.45368
 H84 H 0.79295 0.56023 0.52901
 C85 C 0.76251 0.98065 0.99764
 C86 C 0.76087 1.00320 0.99768
 C87 C 0.75944 1.01655 1.01844
 C88 C 0.76007 1.01617 0.97667
 C89 C 0.76327 0.96809 0.97640
 C90 C 0.76282 0.96731 1.01855
 C91 C 0.74206 1.01348 1.03384
 C92 C 0.73969 1.02800 1.05196
 C93 C 0.75448 1.04595 1.05472
 C94 C 0.77221 1.04849 1.03965
 C95 C 0.77462 1.03398 1.02170
 C96 C 0.74047 1.02748 0.97100
 C97 C 0.74020 1.04227 0.95301
 C98 C 0.75966 1.04628 0.94064
 C99 C 0.77916 1.03446 0.94599
 C100 C 0.77932 1.01939 0.96384
 C101 C 0.78299 0.95743 0.96990
 C102 C 0.78361 0.94470 0.95041
 C103 C 0.76438 0.94206 0.93736
 C104 C 0.74466 0.95287 0.94387
 C105 C 0.74415 0.96592 0.96317
 C106 C 0.77836 0.97138 1.03548
 C107 C 0.77817 0.95867 1.05510
 C108 C 0.76260 0.94123 1.05818
 C109 C 0.74715 0.93733 1.04083
 C110 C 0.74734 0.95011 1.02137
 H111 H 0.72994 1.00035 1.03140
 H112 H 0.72579 1.02578 1.06326
 H113 H 0.78404 1.06196 1.04158
 H114 H 0.78815 1.03662 1.01003
 H115 H 0.72555 1.02532 0.98093
 H116 H 0.72503 1.05133 0.94938
 H117 H 0.79465 1.01095 0.96822
 H118 H 0.79784 0.95889 0.98002
 H119 H 0.79894 0.93635 0.94586
 H120 H 0.72965 0.95114 0.93404
 H121 H 0.72877 0.97397 0.96807
 H122 H 0.79081 0.98427 1.03343
 H123 H 0.79096 0.96207 1.06730
 H124 H 0.73411 0.92502 1.04238
 H125 H 0.73503 0.94681 1.00861
 H126 H 0.79433 1.03720 0.93662
 C127 C 0.25724 0.50884 0.49576
 C128 C 0.25706 0.48623 0.49695
 C129 C 0.25568 0.47427 0.51864
 C130 C 0.25811 0.47206 0.47666
 C131 C 0.25820 0.52090 0.47425
 C132 C 0.25647 0.52327 0.51583
 C133 C 0.27178 0.47725 0.53535
 C134 C 0.27057 0.46501 0.55524
 C135 C 0.25337 0.44946 0.55864
 C136 C 0.23719 0.44676 0.54193
 C137 C 0.23841 0.45895 0.52213
 C138 C 0.27466 0.45565 0.47507
 C139 C 0.27491 0.44079 0.45719
 C140 C 0.25850 0.44191 0.44053
 C141 C 0.24216 0.45865 0.44187
 C142 C 0.24188 0.47351 0.45986
 C143 C 0.23970 0.53343 0.46749
 C144 C 0.24131 0.54804 0.44944
 C145 C 0.26161 0.55072 0.43813
 C146 C 0.27998 0.53764 0.44448
 C147 C 0.27823 0.52268 0.46235
 C148 C 0.23847 0.52254 0.53078
 C149 C 0.23702 0.53800 0.54820
 C150 C 0.25337 0.55457 0.55069
 C151 C 0.27160 0.55485 0.53603
 C152 C 0.27311 0.53938 0.51879
 H153 H 0.28546 0.48872 0.53281
 H154 H 0.28343 0.46726 0.56767
 H155 H 0.22354 0.43519 0.54417
 H156 H 0.22582 0.45643 0.50945
 H157 H 0.28728 0.45419 0.48789
 H158 H 0.28789 0.42829 0.45647
 H159 H 0.22862 0.48567 0.46104
 H160 H 0.22423 0.53245 0.47674
 H161 H 0.22700 0.55810 0.44506
 H162 H 0.29578 0.53939 0.43594
 H163 H 0.29274 0.51335 0.46762
 H164 H 0.22525 0.51049 0.52854
 H165 H 0.22271 0.53754 0.55919
 H166 H 0.28462 0.56721 0.53777
 H167 H 0.28714 0.54022 0.50746
 H168 H 0.22913 0.45974 0.42945
 C169 C 0.98532 0.24692 0.01527
 C170 C 0.98547 0.24860 -0.00733
 C171 C 0.96474 0.24675 -0.02071
 C172 C 1.00612 0.25196 -0.02052
 C173 C 1.00594 0.24703 0.02899
 C174 C 0.96415 0.24470 0.02774
 C175 C 0.96334 0.23020 -0.03706
 C176 C 0.94544 0.22962 -0.05182
 C177 C 0.92831 0.24574 -0.05081
 C178 C 0.92947 0.26185 -0.03362
 C179 C 0.94757 0.26245 -0.01893
 C180 C 1.02345 0.23632 -0.02039
 C181 C 1.04118 0.23831 -0.03548
 C182 C 1.04175 0.25579 -0.05139
 C183 C 1.02461 0.27189 -0.05052
 C184 C 1.00711 0.26993 -0.03540
 C185 C 1.02151 0.26441 0.02780
 C186 C 1.03998 0.26470 0.04209
 C187 C 1.04305 0.24785 0.05837
 C188 C 1.02739 0.23029 0.05900
 C189 C 1.00921 0.22994 0.04459
 C190 C 0.95617 0.26289 0.04001
 C191 C 0.93691 0.26083 0.05289
 C192 C 0.92563 0.24037 0.05412
 C193 C 0.93362 0.22214 0.04178
 C194 C 0.95266 0.22436 0.02848
 H195 H 0.97640 0.21783 -0.03861
 H196 H 0.94505 0.21613 -0.06375
 H197 H 0.91727 0.27502 -0.03223
 H198 H 0.94862 0.27573 -0.00677
 H199 H 1.02276 0.22207 -0.00930
 H200 H 1.05350 0.22517 -0.03551
 H201 H 0.99396 0.28228 -0.03562
 H202 H 1.01908 0.27809 0.01624
 H203 H 1.05100 0.27891 0.04109
 H204 H 1.02931 0.21627 0.07019
 H205 H 0.99758 0.21619 0.04567
 H206 H 0.96498 0.27864 0.03969
 H207 H 0.93118 0.27503 0.06243
 H208 H 0.92514 0.20623 0.04251
 H209 H 0.95875 0.21014 0.01920
 H210 H 1.02465 0.28637 -0.06130
 C211 C 0.49559 0.75622 0.49603
 C212 C 0.49533 0.75465 0.51862
 C213 C 0.51589 0.75412 0.53235
 C214 C 0.47406 0.75324 0.53102
 C215 C 0.47478 0.75554 0.48274
 C216 C 0.51641 0.75802 0.48284
 C217 C 0.51856 0.73700 0.54811
 C218 C 0.53664 0.73701 0.56265
 C219 C 0.55250 0.75417 0.56182
 C220 C 0.55022 0.77104 0.54565
 C221 C 0.53195 0.77111 0.53113
 C222 C 0.46156 0.73349 0.53120
 C223 C 0.44222 0.73200 0.54415
 C224 C 0.43498 0.75037 0.55673
 C225 C 0.44731 0.77024 0.55610
 C226 C 0.46685 0.77156 0.54355
 C227 C 0.45864 0.77237 0.48448
 C228 C 0.44036 0.77263 0.47002
 C229 C 0.43814 0.75621 0.45345
 C230 C 0.45404 0.73908 0.45222
 C231 C 0.47218 0.73879 0.46668
 C232 C 0.51858 0.77565 0.46760
 C233 C 0.53606 0.77600 0.45231
 C234 C 0.55172 0.75863 0.45184
 C235 C 0.55016 0.74145 0.46778
 C236 C 0.53253 0.74107 0.48311
 H237 H 0.50644 0.72370 0.54934
 H238 H 0.53815 0.72362 0.57470
 H239 H 0.56212 0.78457 0.54480
 H240 H 0.53002 0.78472 0.51941
 H241 H 0.46704 0.71917 0.52169
 H242 H 0.43294 0.71653 0.54441
 H243 H 0.47642 0.78686 0.54364
 H244 H 0.46061 0.78570 0.49647
 H245 H 0.42846 0.78614 0.47118
 H246 H 0.45258 0.72605 0.43984
 H247 H 0.48450 0.72570 0.46507
 H248 H 0.50627 0.78884 0.46709
 H249 H 0.53707 0.78964 0.44050
 H250 H 0.56193 0.72778 0.46769
 H251 H 0.53091 0.72710 0.49446
 H252 H 0.44215 0.78452 0.56585
 C253 C -0.01556 0.75593 0.00679
 C254 C 0.00695 0.75448 0.00595
 C255 C 0.01937 0.75236 -0.01534
 C256 C 0.02070 0.75497 0.02645
 C257 C -0.02754 0.75714 0.02828
 C258 C -0.02974 0.75621 -0.01342
 C259 C 0.03423 0.73460 -0.01792
 C260 C 0.04764 0.73309 -0.03681
 C261 C 0.04677 0.74947 -0.05376
 C262 C 0.03112 0.76694 -0.05132
 C263 C 0.01776 0.76846 -0.03223
 C264 C 0.01930 0.73794 0.04248
 C265 C 0.03402 0.73755 0.06054
 C266 C 0.05052 0.75402 0.06266
 C267 C 0.05152 0.77128 0.04681
 C268 C 0.03679 0.77170 0.02885
 C269 C -0.02932 0.77728 0.03986
 C270 C -0.04320 0.77887 0.05853
 C271 C -0.05530 0.76016 0.06627
 C272 C -0.05243 0.73973 0.05493
 C273 C -0.03901 0.73839 0.03600
 C274 C -0.04511 0.77351 -0.01623
 C275 C -0.06002 0.77334 -0.03398
 C276 C -0.06010 0.75573 -0.04959
 C277 C -0.04404 0.73866 -0.04698
 C278 C -0.02924 0.73880 -0.02897
 H279 H 0.03554 0.72188 -0.00514
 H280 H 0.05831 0.71864 -0.03814
 H281 H 0.02999 0.78033 -0.06336
 H282 H 0.00667 0.78256 -0.03033
 H283 H 0.00734 0.72458 0.04059
 H284 H 0.03306 0.72390 0.07235
 H285 H 0.03817 0.78489 0.01657
 H286 H -0.02051 0.79192 0.03400
 H287 H -0.04408 0.79474 0.06701
 H288 H -0.06171 0.72498 0.05956
 H289 H -0.03796 0.72278 0.02699
 H290 H -0.04562 0.78726 -0.00455
 H291 H -0.07106 0.78748 -0.03562
 H292 H -0.04360 0.72441 -0.05798
 H293 H -0.01781 0.72500 -0.02683
 H294 H 0.06386 0.78435 0.04818
 C295 C 0.49675 0.25736 0.50304
 C296 C 0.47426 0.25942 0.50315
 C297 C 0.46081 0.26032 0.48242
 C298 C 0.46158 0.26098 0.52426
 C299 C 0.50993 0.25714 0.52397
 C300 C 0.50980 0.25528 0.48211
 C301 C 0.44605 0.27817 0.47927
 C302 C 0.43181 0.27861 0.46094
 C303 C 0.43195 0.26117 0.44536
 C304 C 0.44711 0.24352 0.44818
 C305 C 0.46133 0.24301 0.46668
 C306 C 0.46188 0.28054 0.53703
 C307 C 0.44788 0.28260 0.55559
 C308 C 0.43372 0.26498 0.56176
 C309 C 0.43400 0.24520 0.54928
 C310 C 0.44765 0.24332 0.53054
 C311 C 0.50717 0.24026 0.54000
 C312 C 0.52157 0.23892 0.55830
 C313 C 0.53909 0.25429 0.56069
 C314 C 0.54134 0.27150 0.54492
 C315 C 0.52696 0.27286 0.52674
 C316 C 0.52432 0.23714 0.47968
 C317 C 0.53851 0.23581 0.46133
 C318 C 0.53858 0.25267 0.44504
 C319 C 0.52359 0.27056 0.44713
 C320 C 0.50938 0.27193 0.46562
 H321 H 0.44539 0.29170 0.49118
 H322 H 0.42054 0.29257 0.45901
 H323 H 0.44740 0.22976 0.43652
 H324 H 0.47230 0.22888 0.46901
 H325 H 0.47241 0.29438 0.53221
 H326 H 0.44794 0.29798 0.56501
 H327 H 0.44713 0.22821 0.52069
 H328 H 0.49444 0.22768 0.53790
 H329 H 0.51959 0.22535 0.57006
 H330 H 0.55446 0.28377 0.54651
 H331 H 0.52938 0.28595 0.51450
 H332 H 0.52490 0.22415 0.49224
 H333 H 0.54962 0.22166 0.45998
 H334 H 0.52345 0.28388 0.43492
 H335 H 0.49858 0.28627 0.46740
 H336 H 0.42306 0.23150 0.55358
 C337 C 1.00629 0.01507 0.24515
 C338 C 1.00628 -0.00757 0.24544
 C339 C 1.02714 -0.02080 0.24395
 C340 C 0.98540 -0.02067 0.24754
 C341 C 0.98551 0.02840 0.24631
 C342 C 1.02711 0.02812 0.24332
 C343 C 1.02881 -0.03755 0.22782
 C344 C 1.04693 -0.05209 0.22764
 C345 C 1.06401 -0.05041 0.24374
 C346 C 1.06253 -0.03287 0.25945
 C347 C 1.04423 -0.01844 0.25966
 C348 C 0.96810 -0.01864 0.23199
 C349 C 0.94922 -0.03221 0.23360
 C350 C 0.94735 -0.04851 0.25061
 C351 C 0.96481 -0.04999 0.26633
 C352 C 0.98351 -0.03635 0.26473
 C353 C 0.97074 0.02656 0.26441
 C354 C 0.95207 0.04049 0.26576
 C355 C 0.94814 0.05667 0.24922
 C356 C 0.96278 0.05817 0.23100
 C357 C 0.98126 0.04421 0.22959
 C358 C 1.03353 0.04173 0.26117
 C359 C 1.05143 0.05636 0.25889
 C360 C 1.06293 0.05797 0.23855
 C361 C 1.05676 0.04400 0.22079
 C362 C 1.03904 0.02904 0.22322
 H363 H 1.01583 -0.03959 0.21546
 H364 H 1.04753 -0.06435 0.21446
 H365 H 1.07466 -0.03100 0.27263
 H366 H 1.04298 -0.00601 0.27267
 H367 H 0.96947 -0.00694 0.21828
 H368 H 0.93681 -0.03062 0.22065
 H369 H 0.99663 -0.03804 0.27701
 H370 H 0.97394 0.01473 0.27769
 H371 H 0.94115 0.03914 0.28007
 H372 H 0.95997 0.07026 0.21787
 H373 H 0.99241 0.04589 0.21548
 H374 H 1.02429 0.04137 0.27669
 H375 H 1.05568 0.06712 0.27274
 H376 H 1.06543 0.04493 0.20497
 H377 H 1.03406 0.01883 0.20920
 H378 H 0.96401 -0.06125 0.28041
 C379 C 0.50340 0.51280 0.74651
 C380 C 0.50483 0.49025 0.74815
 C381 C 0.48475 0.47590 0.74965
 C382 C 0.52641 0.47820 0.74830
 C383 C 0.52336 0.52731 0.74489
 C384 C 0.48166 0.52458 0.74686
 C385 C 0.46936 0.47811 0.76716
 C386 C 0.45157 0.46316 0.76913
 C387 C 0.44917 0.44559 0.75383
 C388 C 0.46441 0.44368 0.73617
 C389 C 0.48202 0.45866 0.73412
 C390 C 0.53086 0.46336 0.76583
 C391 C 0.54906 0.44900 0.76479
 C392 C 0.56317 0.44906 0.74610
 C393 C 0.55938 0.46470 0.72900
 C394 C 0.54104 0.47911 0.73004
 C395 C 0.52463 0.54297 0.72753
 C396 C 0.54162 0.55879 0.72709
 C397 C 0.55769 0.55937 0.74409
 C398 C 0.55685 0.54321 0.76112
 C399 C 0.53973 0.52738 0.76159
 C400 C 0.46529 0.52062 0.73063
 C401 C 0.44556 0.53307 0.73056
 C402 C 0.44207 0.54983 0.74657
 C403 C 0.45834 0.55339 0.76300
 C404 C 0.47793 0.54096 0.76308
 H405 H 0.47143 0.49103 0.77957
 H406 H 0.44016 0.46485 0.78301
 H407 H 0.46278 0.43049 0.72398
 H408 H 0.49374 0.45665 0.72053
 H409 H 0.51975 0.46238 0.78005
 H410 H 0.55180 0.43741 0.77839
 H411 H 0.53768 0.49019 0.71616
 H412 H 0.51211 0.54324 0.71454
 H413 H 0.54204 0.57078 0.71357
 H414 H 0.56888 0.54340 0.77455
 H415 H 0.53878 0.51575 0.77540
 H416 H 0.46801 0.50827 0.71775
 H417 H 0.43339 0.53012 0.71759
 H418 H 0.45596 0.56594 0.77574
 H419 H 0.49034 0.54424 0.77576
 H420 H 0.56993 0.46501 0.71434
 C421 C 1.01659 1.00301 0.74348
 C422 C 0.99408 1.00201 0.74418
 C423 C 0.98187 0.98078 0.74198
 C424 C 0.98009 1.02229 0.74555
 C425 C 1.02848 1.02445 0.74576
 C426 C 1.03059 0.98276 0.74174
 C427 C 0.97415 0.97410 0.72099
 C428 C 0.95948 0.95613 0.71912
 C429 C 0.95233 0.94457 0.73826
 C430 C 0.96077 0.95084 0.75919
 C431 C 0.97527 0.96894 0.76105
 C432 C 0.97871 1.03696 0.72742
 C433 C 0.96361 1.05467 0.72767
 C434 C 0.94897 1.05782 0.74589
 C435 C 0.95087 1.04307 0.76422
 C436 C 0.96622 1.02560 0.76401
 C437 C 1.03514 1.03175 0.76691
 C438 C 1.04761 1.05129 0.76912
 C439 C 1.05347 1.06387 0.75019
 C440 C 1.04643 1.05665 0.72905
 C441 C 1.03420 1.03697 0.72685
 C442 C 1.03137 0.96725 0.75920
 C443 C 1.04596 0.94911 0.75829
 C444 C 1.06062 0.94626 0.74003
 C445 C 1.05943 0.96196 0.72245
 C446 C 1.04465 0.97992 0.72334
 H447 H 0.97887 0.98332 0.70617
 H448 H 0.95335 0.95154 0.70279
 H449 H 0.95530 0.94244 0.77423
 H450 H 0.98068 0.97422 0.77743
 H451 H 0.98867 1.03416 0.71264
 H452 H 0.96253 1.06483 0.71279
 H453 H 0.96706 1.01443 0.77820
 H454 H 1.03095 1.02214 0.78163
 H455 H 1.05273 1.05656 0.78560
 H456 H 1.05099 1.06587 0.71418
 H457 H 1.02944 1.03136 0.71037
 H458 H 1.02125 0.96960 0.77395
 H459 H 1.04653 0.93824 0.77268
 H460 H 1.06946 0.96028 0.70756
 H461 H 1.04427 0.99169 0.70964
 H462 H 0.94085 1.04513 0.77907
 C463 C 0.51882 0.50347 0.24667
 C464 C 0.49632 0.50242 0.24507
 C465 C 0.48405 0.48099 0.24448
 C466 C 0.48213 0.52260 0.24402
 C467 C 0.53080 0.52500 0.24861
 C468 C 0.53293 0.48317 0.24665
 C469 C 0.48652 0.46595 0.22674
 C470 C 0.47233 0.44751 0.22499
 C471 C 0.45538 0.44406 0.24084
 C472 C 0.45366 0.45867 0.25903
 C473 C 0.46779 0.47696 0.26078
 C474 C 0.46750 0.52509 0.22598
 C475 C 0.45161 0.54199 0.22597
 C476 C 0.44997 0.55672 0.24406
 C477 C 0.46524 0.55484 0.26174
 C478 C 0.48115 0.53778 0.26179
 C479 C 0.54479 0.52845 0.26698
 C480 C 0.55764 0.54772 0.26850
 C481 C 0.55695 0.56392 0.25155
 C482 C 0.54251 0.56073 0.23336
 C483 C 0.52961 0.54135 0.23185
 C484 C 0.53045 0.46643 0.26287
 C485 C 0.54492 0.44814 0.26320
 C486 C 0.56227 0.44650 0.24751
 C487 C 0.56451 0.46319 0.23120
 C488 C 0.55003 0.48135 0.23083
 H489 H 0.49877 0.46900 0.21382
 H490 H 0.47392 0.43656 0.21074
 H491 H 0.44103 0.45618 0.27170
 H492 H 0.46565 0.48841 0.27458
 H493 H 0.46798 0.51348 0.21216
 H494 H 0.44028 0.54328 0.21198
 H495 H 0.49204 0.53586 0.27604
 H496 H 0.54591 0.51603 0.28008
 H497 H 0.56830 0.54986 0.28289
 H498 H 0.54181 0.57281 0.21995
 H499 H 0.51917 0.53882 0.21736
 H500 H 0.51765 0.46776 0.27552
 H501 H 0.54298 0.43564 0.27611
 H502 H 0.57751 0.46222 0.21872
 H503 H 0.55224 0.49412 0.21822
 H504 H 0.46420 0.56590 0.27595
 O505 O 0.25496 0.19854 0.20674
 O506 O 0.28018 0.19391 0.23754
 O507 O 0.19665 0.22438 0.23699
 O508 O 0.18966 0.25588 0.26095
 O509 O 0.22220 0.25531 0.17796
 O510 O 0.25272 0.27984 0.17056
 O511 O 0.25392 0.28978 0.29208
 O512 O 0.22973 0.25823 0.30067
 O513 O 0.31117 0.25994 0.26592
 O514 O 0.31807 0.23376 0.23449
 O515 O 0.28288 0.31533 0.23440
 O516 O 0.25054 0.32037 0.20860
 O517 O 0.25286 0.31570 0.26448
 O518 O 0.22754 0.32110 0.23281
 O519 O 0.31021 0.28919 0.23490
 O520 O 0.31797 0.25730 0.21079
 O521 O 0.28455 0.26047 0.29281
 O522 O 0.25295 0.23427 0.30049
 O523 O 0.25450 0.22429 0.17885
 O524 O 0.27782 0.25576 0.17117
 O525 O 0.19565 0.25510 0.20501
 O526 O 0.18866 0.27997 0.23540
 O527 O 0.22444 0.19869 0.23903
 O528 O 0.25595 0.19368 0.26238
 Zr529 Zr 0.25388 0.21730 0.23625
 O530 O 0.27423 0.23750 0.25631
 Zr531 Zr 0.21363 0.25514 0.23512
 O532 O 0.23222 0.27722 0.25508
 Zr533 Zr 0.25249 0.25506 0.19566
 O534 O 0.27288 0.27699 0.21392
 Zr535 Zr 0.25427 0.25905 0.27531
 O536 O 0.23373 0.23680 0.25729
 Zr537 Zr 0.29316 0.25869 0.23586
 O538 O 0.27470 0.23658 0.21560
 Zr539 Zr 0.25307 0.29686 0.23487
 O540 O 0.23238 0.27668 0.21462
 O541 O 0.23253 0.23436 0.21498
 O542 O 0.27456 0.27983 0.25622
 C543 C 0.25534 0.20408 0.18602
 C544 C 0.20379 0.20423 0.23889
 C545 C 0.20178 0.25546 0.18445
 C546 C 0.25340 0.31005 0.28517
 C547 C 0.30496 0.26052 0.28642
 C548 C 0.30347 0.30949 0.23447
 H549 H 0.28368 0.22788 0.26578
 H550 H 0.28176 0.28610 0.20344
 H551 H 0.22319 0.22431 0.20584
 H552 H 0.22195 0.28646 0.26403
 H553 H 0.21783 0.26880 0.29644
 H554 H 0.19530 0.24598 0.27291
 H555 H 0.31401 0.26825 0.19909
 H556 H 0.28997 0.24611 0.17676
 H557 H 0.26588 0.22427 0.29843
 H558 H 0.24618 0.19917 0.27448
 H559 H 0.26309 0.31781 0.19823
 H560 H 0.24250 0.29174 0.17564
 H561 H 0.29146 0.19892 0.22658
 H562 H 0.31561 0.22343 0.24714
 H563 H 0.19367 0.29178 0.22499
 H564 H 0.21642 0.31767 0.24449
 O565 O 0.75407 0.81411 0.23073
 O566 O 0.72933 0.82116 0.26170
 O567 O 0.81137 0.78689 0.26317
 O568 O 0.81699 0.75621 0.28864
 O569 O 0.78475 0.75554 0.20558
 O570 O 0.75357 0.73052 0.19979
 O571 O 0.75212 0.72684 0.32131
 O572 O 0.77847 0.75905 0.32694
 O573 O 0.69590 0.75698 0.29417
 O574 O 0.68957 0.78265 0.26188
 O575 O 0.72175 0.69991 0.26428
 O576 O 0.75377 0.69218 0.23954
 O577 O 0.75000 0.69996 0.29474
 O578 O 0.77681 0.69199 0.26388
 O579 O 0.69527 0.72690 0.26393
 O580 O 0.68887 0.75866 0.23865
 O581 O 0.72276 0.75705 0.32078
 O582 O 0.75399 0.78191 0.32770
 O583 O 0.75316 0.78650 0.20483
 O584 O 0.72939 0.75563 0.19850
 O585 O 0.81112 0.75406 0.23279
 O586 O 0.81736 0.73141 0.26445
 O587 O 0.78512 0.81420 0.26217
 O588 O 0.75424 0.82154 0.28645
 Zr589 Zr 0.75471 0.79675 0.26144
 O590 O 0.73366 0.77831 0.28278
 Zr591 Zr 0.79317 0.75693 0.26271
 O592 O 0.77378 0.73660 0.28373
 Zr593 Zr 0.75440 0.75679 0.22325
 O594 O 0.73301 0.73679 0.24258
 Zr595 Zr 0.75275 0.75685 0.30292
 O596 O 0.77396 0.77745 0.28364
 Zr597 Zr 0.71359 0.75688 0.26373
 O598 O 0.73296 0.77715 0.24215
 Zr599 Zr 0.75210 0.71717 0.26437
 O600 O 0.77365 0.73533 0.24321
 O601 O 0.77527 0.77752 0.24135
 O602 O 0.73153 0.73607 0.28496
 C603 C 0.75315 0.80714 0.21044
 C604 C 0.80544 0.80750 0.26298
 C605 C 0.80504 0.75403 0.21225
 C606 C 0.75036 0.70642 0.31513
 C607 C 0.70231 0.75688 0.31465
 C608 C 0.70138 0.70637 0.26416
 H609 H 0.72463 0.78866 0.29184
 H610 H 0.72374 0.72764 0.23253
 H611 H 0.78495 0.78670 0.23162
 H612 H 0.78362 0.72733 0.29313
 H613 H 0.78833 0.74598 0.32503
 H614 H 0.81212 0.76729 0.29985
 H615 H 0.69204 0.74682 0.22763
 H616 H 0.71723 0.76545 0.20373
 H617 H 0.74318 0.79363 0.32354
 H618 H 0.76417 0.81620 0.29850
 H619 H 0.74213 0.69543 0.22834
 H620 H 0.76440 0.71921 0.20498
 H621 H 0.71760 0.81580 0.25145
 H622 H 0.69251 0.79324 0.27416
 H623 H 0.81134 0.71871 0.25584
 H624 H 0.78675 0.69434 0.27680
 O625 O 0.74150 0.18323 0.77716
 O626 O 0.71800 0.17624 0.74632
 O627 O 0.80054 0.20856 0.74479
 O628 O 0.80753 0.23898 0.72024
 O629 O 0.77460 0.24181 0.80282
 O630 O 0.74390 0.26600 0.80917
 O631 O 0.74246 0.26954 0.68682
 O632 O 0.76698 0.23762 0.68022
 O633 O 0.68561 0.24180 0.71501
 O634 O 0.67849 0.21716 0.74734
 O635 O 0.71385 0.29850 0.74297
 O636 O 0.74537 0.30568 0.76774
 O637 O 0.74355 0.29704 0.71276
 O638 O 0.76959 0.30381 0.74474
 O639 O 0.68659 0.27233 0.74443
 O640 O 0.67944 0.24102 0.77064
 O641 O 0.71209 0.24059 0.68801
 O642 O 0.74355 0.21380 0.68183
 O643 O 0.74356 0.21024 0.80369
 O644 O 0.71873 0.24166 0.80930
 O645 O 0.80122 0.24028 0.77588
 O646 O 0.80762 0.26431 0.74415
 O647 O 0.77348 0.18210 0.74628
 O648 O 0.74233 0.17606 0.72136
 Zr649 Zr 0.74355 0.20045 0.74673
 O650 O 0.72271 0.21942 0.72581
 Zr651 Zr 0.78322 0.23898 0.74575
 O652 O 0.76440 0.25953 0.72440
 Zr653 Zr 0.74440 0.24023 0.78519
 O654 O 0.72397 0.26121 0.76578
 Zr655 Zr 0.74244 0.23995 0.70547
 O656 O 0.76343 0.21913 0.72468
 Zr657 Zr 0.70371 0.24169 0.74502
 O658 O 0.72243 0.22057 0.76625
 Zr659 Zr 0.74357 0.28005 0.74359
 O660 O 0.76425 0.26119 0.76513
 O661 O 0.76463 0.21891 0.76698
 O662 O 0.72215 0.26171 0.72339
 C663 C 0.74198 0.18974 0.79755
 C664 C 0.79400 0.18817 0.74521
 C665 C 0.79502 0.24161 0.79640
 C666 C 0.74293 0.29015 0.69246
 C667 C 0.69172 0.24143 0.69448
 C668 C 0.69329 0.29266 0.74347
 H669 H 0.71323 0.20931 0.71696
 H670 H 0.71508 0.27083 0.77575
 H671 H 0.77407 0.20945 0.77667
 H672 H 0.77458 0.26829 0.71486
 H673 H 0.77847 0.24900 0.68331
 H674 H 0.80182 0.22913 0.70832
 H675 H 0.68291 0.25316 0.78123
 H676 H 0.70722 0.23088 0.80454
 H677 H 0.73077 0.20381 0.68471
 H678 H 0.75317 0.18070 0.70980
 H679 H 0.73397 0.30260 0.77925
 H680 H 0.75356 0.27801 0.80327
 H681 H 0.70575 0.18226 0.75557
 H682 H 0.68116 0.20603 0.73548
 H683 H 0.80279 0.27615 0.75457
 H684 H 0.77977 0.30081 0.73212
 O685 O 0.24400 0.79846 0.78465
 O686 O 0.26738 0.80506 0.75283
 O687 O 0.18520 0.77113 0.75356
 O688 O 0.17916 0.73977 0.72927
 O689 O 0.21261 0.73976 0.81165
 O690 O 0.24411 0.71596 0.81796
 O691 O 0.24390 0.70947 0.69647
 O692 O 0.21770 0.74131 0.68989
 O693 O 0.30027 0.73954 0.72244
 O694 O 0.30692 0.76633 0.75375
 O695 O 0.27481 0.68350 0.75249
 O696 O 0.24322 0.67679 0.77928
 O697 O 0.24394 0.68292 0.72351
 O698 O 0.21982 0.67561 0.75535
 O699 O 0.30092 0.71082 0.75289
 O700 O 0.30775 0.74279 0.77758
 O701 O 0.27341 0.74016 0.69579
 O702 O 0.24157 0.76458 0.68874
 O703 O 0.24330 0.77158 0.81149
 O704 O 0.26823 0.74116 0.81782
 O705 O 0.18561 0.74029 0.78511
 O706 O 0.17928 0.71542 0.75456
 O707 O 0.21170 0.79820 0.75316
 O708 O 0.24233 0.80507 0.72890
 Zr709 Zr 0.24204 0.78066 0.75437
 O710 O 0.26277 0.76172 0.73331
 Zr711 Zr 0.20334 0.74113 0.75483
 O712 O 0.22246 0.72029 0.73406
 Zr713 Zr 0.24263 0.74149 0.79366
 O714 O 0.26367 0.72093 0.77458
 Zr715 Zr 0.24343 0.73990 0.71396
 O716 O 0.22243 0.76094 0.73300
 Zr717 Zr 0.28277 0.74064 0.75280
 O718 O 0.26384 0.76144 0.77401
 Zr719 Zr 0.24430 0.70092 0.75347
 O720 O 0.22305 0.71970 0.77448
 O721 O 0.22168 0.76208 0.77532
 O722 O 0.26469 0.71937 0.73221
 C723 C 0.24426 0.79203 0.80515
 C724 C 0.19131 0.79166 0.75277
 C725 C 0.19211 0.73956 0.80553
 C726 C 0.24394 0.68904 0.70298
 C727 C 0.29386 0.73956 0.70200
 C728 C 0.29513 0.69024 0.75243
 H729 H 0.27178 0.77184 0.72392
 H730 H 0.27309 0.71193 0.78466
 H731 H 0.21218 0.77159 0.78487
 H732 H 0.21236 0.71094 0.72505
 H733 H 0.20754 0.72863 0.69264
 H734 H 0.18413 0.75022 0.71749
 H735 H 0.30465 0.73121 0.78893
 H736 H 0.27989 0.75149 0.81238
 H737 H 0.25273 0.77618 0.69221
 H738 H 0.23253 0.79943 0.71690
 H739 H 0.25619 0.67925 0.78912
 H740 H 0.23409 0.70395 0.81277
 H741 H 0.27952 0.79976 0.76265
 H742 H 0.30436 0.77627 0.74082
 H743 H 0.18470 0.70377 0.76493
 H744 H 0.20799 0.67934 0.74451
 O745 O 0.24327 0.31952 0.72981
 O746 O 0.21777 0.32543 0.76047
 O747 O 0.30103 0.29420 0.76233
 O748 O 0.30767 0.26361 0.78762
 O749 O 0.27583 0.26200 0.70443
 O750 O 0.24548 0.23619 0.69833
 O751 O 0.24385 0.23177 0.81990
 O752 O 0.26861 0.26470 0.82606
 O753 O 0.18652 0.26013 0.79255
 O754 O 0.17954 0.28563 0.76025
 O755 O 0.21457 0.20400 0.76298
 O756 O 0.24678 0.19756 0.73794
 O757 O 0.24292 0.20494 0.79322
 O758 O 0.26992 0.19812 0.76224
 O759 O 0.18718 0.23009 0.76237
 O760 O 0.17974 0.26156 0.73706
 O761 O 0.21324 0.26044 0.81933
 O762 O 0.24367 0.28707 0.82629
 O763 O 0.24343 0.29208 0.70372
 O764 O 0.22048 0.26052 0.69717
 O765 O 0.30213 0.26163 0.73172
 O766 O 0.30898 0.23891 0.76328
 O767 O 0.27375 0.32048 0.76211
 O768 O 0.24221 0.32667 0.78548
 Zr769 Zr 0.24404 0.30199 0.76043
 O770 O 0.22355 0.28269 0.78156
 Zr771 Zr 0.28394 0.26360 0.76160
 O772 O 0.26519 0.24248 0.78243
 Zr773 Zr 0.24539 0.26229 0.72198
 O774 O 0.22464 0.24140 0.74110
 Zr775 Zr 0.24333 0.26183 0.80165
 O776 O 0.26389 0.28324 0.78257
 Zr777 Zr 0.20440 0.26069 0.76224
 O778 O 0.22313 0.28176 0.74088
 Zr779 Zr 0.24430 0.22236 0.76290
 O780 O 0.26528 0.24140 0.74192
 O781 O 0.26541 0.28367 0.74031
 O782 O 0.22297 0.24042 0.78345
 C783 C 0.24281 0.31269 0.70947
 C784 C 0.29432 0.31456 0.76276
 C785 C 0.29616 0.26130 0.71115
 C786 C 0.24297 0.21132 0.81364
 C787 C 0.19283 0.25979 0.81305
 C788 C 0.19399 0.20978 0.76283
 H789 H 0.21410 0.29265 0.79062
 H790 H 0.21573 0.23195 0.73100
 H791 H 0.27487 0.29325 0.73075
 H792 H 0.27533 0.23353 0.79183
 H793 H 0.27932 0.25241 0.82371
 H794 H 0.30229 0.27436 0.79891
 H795 H 0.18346 0.24994 0.72598
 H796 H 0.20804 0.27000 0.70239
 H797 H 0.23149 0.29764 0.82290
 H798 H 0.25172 0.32141 0.79790
 H799 H 0.23488 0.20032 0.72689
 H800 H 0.25644 0.22506 0.70364
 H801 H 0.20644 0.31978 0.74992
 H802 H 0.18204 0.29629 0.77255
 H803 H 0.30353 0.22614 0.75440
 H804 H 0.27983 0.20083 0.77511
 O805 O 0.76041 0.68902 0.71231
 O806 O 0.78447 0.68239 0.74357
 O807 O 0.70245 0.71641 0.74280
 O808 O 0.69622 0.74784 0.76694
 O809 O 0.73026 0.74773 0.68460
 O810 O 0.76176 0.77123 0.67837
 O811 O 0.76014 0.77773 0.80019
 O812 O 0.73550 0.74630 0.80727
 O813 O 0.81767 0.74616 0.77405
 O814 O 0.82413 0.72082 0.74202
 O815 O 0.79242 0.80376 0.74327
 O816 O 0.76067 0.81098 0.71770
 O817 O 0.76217 0.80450 0.77341
 O818 O 0.73725 0.81177 0.74146
 O819 O 0.81850 0.77639 0.74456
 O820 O 0.82528 0.74505 0.71899
 O821 O 0.79070 0.74792 0.80055
 O822 O 0.75851 0.72229 0.80720
 O823 O 0.76125 0.71549 0.68514
 O824 O 0.78600 0.74620 0.67883
 O825 O 0.70327 0.74810 0.71119
 O826 O 0.69669 0.77228 0.74205
 O827 O 0.72905 0.68948 0.74372
 O828 O 0.75965 0.68265 0.76789
 Zr829 Zr 0.75926 0.70696 0.74232
 O830 O 0.78006 0.72571 0.76328
 Zr831 Zr 0.72067 0.74650 0.74159
 O832 O 0.73981 0.76720 0.76246
 Zr833 Zr 0.76018 0.74583 0.70281
 O834 O 0.78112 0.76641 0.72200
 Zr835 Zr 0.76066 0.74753 0.78255
 O836 O 0.73956 0.72669 0.76356
 Zr837 Zr 0.80018 0.74666 0.74375
 O838 O 0.78122 0.72589 0.72258
 Zr839 Zr 0.76184 0.78654 0.74320
 O840 O 0.74069 0.76778 0.72205
 O841 O 0.73901 0.72547 0.72118
 O842 O 0.78214 0.76800 0.76443
 C843 C 0.76135 0.69507 0.69176
 C844 C 0.70865 0.69589 0.74390
 C845 C 0.70977 0.74870 0.69075
 C846 C 0.76100 0.79818 0.79389
 C847 C 0.81119 0.74703 0.79444
 C848 C 0.81270 0.79697 0.74411
 H849 H 0.78897 0.71548 0.77263
 H850 H 0.79057 0.77542 0.71194
 H851 H 0.72943 0.71606 0.71162
 H852 H 0.72969 0.77656 0.77148
 H853 H 0.72406 0.75745 0.80326
 H854 H 0.70098 0.73726 0.77869
 H855 H 0.82234 0.75695 0.70794
 H856 H 0.79770 0.73602 0.68445
 H857 H 0.77106 0.71186 0.80493
 H858 H 0.74997 0.68838 0.77996
 H859 H 0.77286 0.80782 0.70706
 H860 H 0.75189 0.78337 0.68360
 H861 H 0.79625 0.68722 0.73307
 H862 H 0.82099 0.71016 0.75423
 H863 H 0.70254 0.78429 0.73233
 H864 H 0.72607 0.80870 0.75319
 O865 O 0.25503 0.69300 0.27844
 O866 O 0.23308 0.68513 0.24703
 O867 O 0.31324 0.72294 0.24849
 O868 O 0.31862 0.75390 0.22421
 O869 O 0.28429 0.75253 0.30627
 O870 O 0.25227 0.77484 0.31273
 O871 O 0.25223 0.78114 0.19029
 O872 O 0.27863 0.75129 0.18321
 O873 O 0.19689 0.74939 0.21698
 O874 O 0.19073 0.72382 0.24870
 O875 O 0.22116 0.80718 0.24701
 O876 O 0.25149 0.81612 0.27157
 O877 O 0.25131 0.80821 0.21670
 O878 O 0.27676 0.81549 0.24965
 O879 O 0.19553 0.77939 0.24662
 O880 O 0.18999 0.74723 0.27252
 O881 O 0.22376 0.75044 0.19036
 O882 O 0.25710 0.72564 0.18432
 O883 O 0.25473 0.71930 0.30575
 O884 O 0.22832 0.74940 0.31163
 O885 O 0.31125 0.75397 0.27969
 O886 O 0.31663 0.77895 0.24844
 O887 O 0.28794 0.69476 0.24811
 O888 O 0.25748 0.68737 0.22251
 Zr889 Zr 0.25681 0.71108 0.24856
 O890 O 0.23507 0.72918 0.22783
 Zr891 Zr 0.29391 0.75205 0.24927
 O892 O 0.27423 0.77181 0.22799
 Zr893 Zr 0.25450 0.74983 0.28804
 O894 O 0.23321 0.77006 0.26874
 Zr895 Zr 0.25382 0.75131 0.20830
 O896 O 0.27585 0.73148 0.22736
 Zr897 Zr 0.21449 0.74984 0.24723
 O898 O 0.23415 0.72935 0.26819
 Zr899 Zr 0.25192 0.79059 0.24727
 O900 O 0.27329 0.77254 0.26884
 O901 O 0.27630 0.73028 0.26969
 O902 O 0.23199 0.77141 0.22633
 C903 C 0.25435 0.69894 0.29898
 C904 C 0.30805 0.70217 0.24803
 C905 C 0.30474 0.75407 0.30013
 C906 C 0.25136 0.80162 0.19627
 C907 C 0.20329 0.74986 0.19654
 C908 C 0.20101 0.80010 0.24662
 H909 H 0.22636 0.71870 0.21862
 H910 H 0.22360 0.77890 0.27877
 H911 H 0.28606 0.72115 0.27938
 H912 H 0.28399 0.78138 0.21880
 H913 H 0.28975 0.76278 0.18714
 H914 H 0.31378 0.74382 0.21209
 H915 H 0.19221 0.75970 0.28305
 H916 H 0.21747 0.73816 0.30639
 H917 H 0.24464 0.71507 0.18646
 H918 H 0.26843 0.69280 0.21141
 H919 H 0.24138 0.81132 0.28368
 H920 H 0.26142 0.78749 0.30736
 H921 H 0.22006 0.69023 0.25577
 H922 H 0.19424 0.71311 0.23667
 H923 H 0.31107 0.79015 0.25919
 H924 H 0.28673 0.81400 0.23660
 O925 O 0.74028 0.29326 0.28206
 O926 O 0.76345 0.29751 0.24988
 O927 O 0.68060 0.26565 0.25396
 O928 O 0.67330 0.23329 0.23157
 O929 O 0.70828 0.23760 0.31321
 O930 O 0.73896 0.21292 0.32040
 O931 O 0.73719 0.19970 0.19934
 O932 O 0.71156 0.23130 0.19117
 O933 O 0.79441 0.22968 0.22265
 O934 O 0.80245 0.25747 0.25242
 O935 O 0.76779 0.17580 0.25701
 O936 O 0.73651 0.17107 0.28345
 O937 O 0.73724 0.17449 0.22763
 O938 O 0.71235 0.17005 0.26036
 O939 O 0.79471 0.20223 0.25458
 O940 O 0.80278 0.23541 0.27759
 O941 O 0.76709 0.22976 0.19649
 O942 O 0.73540 0.25447 0.18886
 O943 O 0.74066 0.26821 0.31055
 O944 O 0.76406 0.23695 0.31840
 O945 O 0.68091 0.23651 0.28708
 O946 O 0.67353 0.21013 0.25796
 O947 O 0.70777 0.29194 0.25180
 O948 O 0.73806 0.29644 0.22608
 Zr949 Zr 0.73769 0.27373 0.25308
 O950 O 0.75768 0.25317 0.23293
 Zr951 Zr 0.69807 0.23533 0.25651
 O952 O 0.71628 0.21296 0.23653
 Zr953 Zr 0.73807 0.23702 0.29465
 O954 O 0.75811 0.21476 0.27638
 Zr955 Zr 0.73743 0.23093 0.21514
 O956 O 0.71718 0.25342 0.23324
 Zr957 Zr 0.77745 0.23261 0.25323
 O958 O 0.75941 0.25516 0.27344
 Zr959 Zr 0.73788 0.19411 0.25669
 O960 O 0.71763 0.21464 0.27705
 O961 O 0.71730 0.25694 0.27546
 O962 O 0.75843 0.21079 0.23413
 C963 C 0.74148 0.28824 0.30289
 C964 C 0.68721 0.28597 0.25224
 C965 C 0.68767 0.23724 0.30740
 C966 C 0.73720 0.17962 0.20681
 C967 C 0.78764 0.22906 0.20234
 C968 C 0.78828 0.18187 0.25596
 H969 H 0.76677 0.26257 0.22289
 H970 H 0.76743 0.20607 0.28683
 H971 H 0.70828 0.26724 0.28465
 H972 H 0.70586 0.20338 0.22816
 H973 H 0.70095 0.21928 0.19501
 H974 H 0.67848 0.24268 0.21899
 H975 H 0.79985 0.22415 0.28930
 H976 H 0.77609 0.24633 0.31212
 H977 H 0.74706 0.26582 0.19135
 H978 H 0.72730 0.29073 0.21497
 H979 H 0.74866 0.17476 0.29393
 H980 H 0.72834 0.20107 0.31612
 H981 H 0.77569 0.29241 0.25968
 H982 H 0.79957 0.26720 0.23939
 H983 H 0.67892 0.19890 0.26881
 H984 H 0.70131 0.17258 0.24838
 C985 C 0.27389 0.09774 0.05345
 C986 C 0.27377 0.11623 0.06767
 C987 C 0.26374 0.11496 0.08863
 C988 C 0.25351 0.09504 0.09519
 C989 C 0.25334 0.07664 0.08106
 C990 C 0.26358 0.07737 0.05973
 N991 N 0.26420 0.13392 0.10312
 N992 N 0.25757 0.13236 0.12323
 C993 C 0.25740 0.15069 0.13841
 C994 C 0.25203 0.14650 0.16070
 C995 C 0.25152 0.16383 0.17614
 C996 C 0.25618 0.18583 0.16948
 C997 C 0.26146 0.19006 0.14698
 C998 C 0.26217 0.17258 0.13155
 H999 H 0.28122 0.10016 0.03716
 H1000 H 0.28156 0.13161 0.06230
 H1001 H 0.24575 0.09354 0.11144
 H1002 H 0.24618 0.06157 0.08784
 H1003 H 0.24825 0.12969 0.16611
 H1004 H 0.24724 0.15998 0.19328
 H1005 H 0.26516 0.20681 0.14135
 H1006 H 0.26629 0.17618 0.11433
 C1007 C 0.76947 0.59319 0.55444
 C1008 C 0.77022 0.61134 0.56909
 C1009 C 0.76575 0.60834 0.59183
 C1010 C 0.76062 0.58691 0.59982
 C1011 C 0.75977 0.56887 0.58526
 C1012 C 0.76405 0.57181 0.56241
 N1013 N 0.76628 0.62714 0.60654
 N1014 N 0.76309 0.62466 0.62739
 C1015 C 0.76308 0.64271 0.64291
 C1016 C 0.76031 0.63777 0.66551
 C1017 C 0.75986 0.65476 0.68131
 C1018 C 0.76210 0.67719 0.67476
 C1019 C 0.76489 0.68215 0.65196
 C1020 C 0.76542 0.66502 0.63612
 H1021 H 0.77273 0.59592 0.53688
 H1022 H 0.77418 0.62777 0.56271
 H1023 H 0.75717 0.58408 0.61733
 H1024 H 0.75592 0.55252 0.59192
 H1025 H 0.75844 0.62063 0.67088
 H1026 H 0.75761 0.65028 0.69868
 H1027 H 0.76668 0.69922 0.64635
 H1028 H 0.76753 0.66919 0.61867
 C1029 C 0.77091 0.93599 0.09839
 C1030 C 0.77034 0.92283 0.11773
 C1031 C 0.76152 0.90129 0.11716
 C1032 C 0.75328 0.89298 0.09693
 C1033 C 0.75372 0.90603 0.07766
 C1034 C 0.76245 0.92792 0.07790
 N1035 N 0.76122 0.88800 0.13710
 N1036 N 0.75384 0.86812 0.13676
 C1037 C 0.75320 0.85378 0.15586
 C1038 C 0.74621 0.83181 0.15279
 C1039 C 0.74593 0.81687 0.17061
 C1040 C 0.75251 0.82367 0.19205
 C1041 C 0.75911 0.84595 0.19528
 C1042 C 0.75955 0.86092 0.17725
 H1043 H 0.77720 0.95279 0.09997
 H1044 H 0.77669 0.92951 0.13324
 H1045 H 0.74660 0.87626 0.09590
 H1046 H 0.74796 0.89833 0.06244
 H1047 H 0.74121 0.82617 0.13639
 H1048 H 0.74061 0.79991 0.16752
 H1049 H 0.76435 0.85166 0.21157
 H1050 H 0.76497 0.87790 0.17999
 C1051 C 0.25745 0.44442 0.60023
 C1052 C 0.25637 0.43102 0.61938
 C1053 C 0.25051 0.40849 0.61775
 C1054 C 0.24581 0.39946 0.59665
 C1055 C 0.24686 0.41279 0.57758
 C1056 C 0.25259 0.43545 0.57911
 N1057 N 0.24955 0.39497 0.63752
 N1058 N 0.24420 0.37448 0.63641
 C1059 C 0.24316 0.35990 0.65532
 C1060 C 0.23802 0.33753 0.65161
 C1061 C 0.23756 0.32239 0.66926
 C1062 C 0.24217 0.32936 0.69117
 C1063 C 0.24690 0.35203 0.69500
 C1064 C 0.24747 0.36721 0.67717
 H1065 H 0.26175 0.46186 0.60196
 H1066 H 0.26006 0.43821 0.63551
 H1067 H 0.24138 0.38208 0.59483
 H1068 H 0.24344 0.40525 0.56155
 H1069 H 0.23462 0.33174 0.63485
 H1070 H 0.23373 0.30513 0.66566
 H1071 H 0.25059 0.35791 0.71165
 H1072 H 0.25146 0.38450 0.68040
 C1073 C 0.77669 0.08000 0.92285
 C1074 C 0.77586 0.09764 0.90759
 C1075 C 0.75838 0.09921 0.89227
 C1076 C 0.74171 0.08276 0.89224
 C1077 C 0.74237 0.06528 0.90767
 C1078 C 0.75981 0.06380 0.92320
 N1079 N 0.75772 0.11774 0.87718
 N1080 N 0.74387 0.11862 0.86116
 C1081 C 0.74286 0.13710 0.84607
 C1082 C 0.73113 0.13462 0.82610
 C1083 C 0.73057 0.15190 0.81050
 C1084 C 0.74134 0.17222 0.81486
 C1085 C 0.75248 0.17502 0.83526
 C1086 C 0.75343 0.15749 0.85070
 H1087 H 0.79015 0.07940 0.93484
 H1088 H 0.78879 0.11021 0.90780
 H1089 H 0.72801 0.08360 0.88055
 H1090 H 0.72920 0.05295 0.90756
 H1091 H 0.72284 0.11903 0.82241
 H1092 H 0.72177 0.14935 0.79495
 H1093 H 0.76103 0.19047 0.83896
 H1094 H 0.76245 0.15982 0.86614
 C1095 C 0.28144 0.58372 0.42194
 C1096 C 0.28222 0.60181 0.40720
 C1097 C 0.26563 0.60466 0.39108
 C1098 C 0.24831 0.58896 0.38964
 C1099 C 0.24736 0.57104 0.40453
 C1100 C 0.26381 0.56836 0.42095
 N1101 N 0.26640 0.62375 0.37669
 N1102 N 0.25331 0.62565 0.36012
 C1103 C 0.25337 0.64461 0.34561
 C1104 C 0.24236 0.64298 0.32517
 C1105 C 0.24253 0.66079 0.31019
 C1106 C 0.25333 0.68082 0.31564
 C1107 C 0.26381 0.68278 0.33649
 C1108 C 0.26404 0.66468 0.35133
 H1109 H 0.29416 0.58218 0.43464
 H1110 H 0.29564 0.61378 0.40849
 H1111 H 0.23527 0.59077 0.37732
 H1112 H 0.23364 0.55940 0.40341
 H1113 H 0.23397 0.62766 0.32066
 H1114 H 0.23419 0.65889 0.29429
 H1115 H 0.27233 0.69802 0.34102
 H1116 H 0.27250 0.66634 0.36717
 C1117 C 0.28120 0.92181 0.90891
 C1118 C 0.28060 0.90545 0.89232
 C1119 C 0.26344 0.88969 0.89192
 C1120 C 0.24685 0.89035 0.90848
 C1121 C 0.24724 0.90690 0.92485
 C1122 C 0.26435 0.92285 0.92515
 N1123 N 0.26283 0.87362 0.87428
 N1124 N 0.24975 0.85695 0.87484
 C1125 C 0.24852 0.84111 0.85705
 C1126 C 0.23789 0.82074 0.86093
 C1127 C 0.23654 0.80479 0.84405
 C1128 C 0.24540 0.80919 0.82277
 C1129 C 0.25565 0.82986 0.81874
 C1130 C 0.25740 0.84565 0.83581
 H1131 H 0.29442 0.93407 0.90865
 H1132 H 0.29345 0.90515 0.87964
 H1133 H 0.23337 0.87839 0.90849
 H1134 H 0.23411 0.90733 0.93723
 H1135 H 0.23087 0.81712 0.87718
 H1136 H 0.22839 0.78907 0.84759
 H1137 H 0.26267 0.83364 0.80252
 H1138 H 0.26552 0.86139 0.83240
 C1139 C 0.76132 0.39295 0.43654
 C1140 C 0.76027 0.37468 0.42206
 C1141 C 0.75520 0.37778 0.39947
 C1142 C 0.75136 0.39947 0.39143
 C1143 C 0.75232 0.41767 0.40585
 C1144 C 0.75715 0.41462 0.42860
 N1145 N 0.75376 0.35879 0.38506
 N1146 N 0.74962 0.36095 0.36434
 C1147 C 0.74778 0.34241 0.34946
 C1148 C 0.74413 0.34663 0.32682
 C1149 C 0.74210 0.32906 0.31172
 C1150 C 0.74361 0.30681 0.31904
 C1151 C 0.74721 0.30261 0.34188
 C1152 C 0.74932 0.32026 0.35697
 H1153 H 0.76492 0.39009 0.45401
 H1154 H 0.76325 0.35807 0.42848
 H1155 H 0.74750 0.40236 0.37403
 H1156 H 0.74939 0.43419 0.39917
 H1157 H 0.74285 0.36363 0.32086
 H1158 H 0.73928 0.33296 0.29430
 H1159 H 0.74848 0.28570 0.34809
 H1160 H 0.75209 0.31661 0.37444
 C1161 C 0.05898 0.23831 0.09509
 C1162 C 0.07641 0.23888 0.11043
 C1163 C 0.09641 0.24943 0.10517
 C1164 C 0.09876 0.25985 0.08431
 C1165 C 0.08119 0.25959 0.06893
 C1166 C 0.06095 0.24858 0.07391
 N1167 N 0.11382 0.24939 0.12148
 N1168 N 0.13343 0.25638 0.11751
 C1169 C 0.15031 0.25614 0.13443
 C1170 C 0.17229 0.26137 0.12868
 C1171 C 0.18910 0.26103 0.14484
 C1172 C 0.18412 0.25568 0.16717
 C1173 C 0.16198 0.25057 0.17289
 C1174 C 0.14528 0.25070 0.15669
 H1175 H 0.04365 0.23052 0.10046
 H1176 H 0.07430 0.23104 0.12659
 H1177 H 0.11415 0.26815 0.07989
 H1178 H 0.08401 0.26729 0.05285
 H1179 H 0.17641 0.26560 0.11160
 H1180 H 0.20594 0.26513 0.13989
 H1181 H 0.15756 0.24628 0.18989
 H1182 H 0.12842 0.24663 0.16162
 C1183 C 0.56613 0.75027 0.60102
 C1184 C 0.58320 0.75000 0.61678
 C1185 C 0.60520 0.75404 0.61036
 C1186 C 0.60998 0.75880 0.58788
 C1187 C 0.59282 0.75925 0.57205
 C1188 C 0.57076 0.75472 0.57846
 N1189 N 0.62220 0.75291 0.62705
 N1190 N 0.64284 0.75484 0.62265
 C1191 C 0.65935 0.75343 0.63987
 C1192 C 0.68190 0.75452 0.63412
 C1193 C 0.69834 0.75293 0.65058
 C1194 C 0.69245 0.75030 0.67318
 C1195 C 0.66974 0.74928 0.67886
 C1196 C 0.65337 0.75079 0.66240
 H1197 H 0.54925 0.74706 0.60650
 H1198 H 0.57931 0.74643 0.63406
 H1199 H 0.62689 0.76204 0.58255
 H1200 H 0.59684 0.76264 0.55476
 H1201 H 0.68674 0.75654 0.61683
 H1202 H 0.71564 0.75383 0.64559
 H1203 H 0.66456 0.74723 0.69605
 H1204 H 0.63606 0.74989 0.66732
 C1205 C 0.05630 0.75862 0.90706
 C1206 C 0.07124 0.75788 0.88913
 C1207 C 0.09191 0.74745 0.89145
 C1208 C 0.09744 0.73749 0.91187
 C1209 C 0.08255 0.73800 0.92971
 C1210 C 0.06162 0.74863 0.92777
 N1211 N 0.10716 0.74737 0.87306
 N1212 N 0.12690 0.73999 0.87526
 C1213 C 0.14267 0.73961 0.85737
 C1214 C 0.16463 0.73352 0.86207
 C1215 C 0.18067 0.73337 0.84522
 C1216 C 0.17491 0.73910 0.82321
 C1217 C 0.15272 0.74491 0.81845
 C1218 C 0.13672 0.74527 0.83543
 H1219 H 0.04031 0.76640 0.90422
 H1220 H 0.06671 0.76551 0.87340
 H1221 H 0.11340 0.72943 0.91417
 H1222 H 0.08817 0.73088 0.94530
 H1223 H 0.16936 0.72908 0.87894
 H1224 H 0.19757 0.72874 0.84944
 H1225 H 0.14778 0.74952 0.80170
 H1226 H 0.11980 0.74998 0.83141
 C1227 C 0.54880 0.25712 0.40456
 C1228 C 0.56441 0.25588 0.38725
 C1229 C 0.58643 0.24962 0.39167
 C1230 C 0.59273 0.24467 0.41369
 C1231 C 0.57716 0.24579 0.43094
 C1232 C 0.55500 0.25191 0.42657
 N1233 N 0.60205 0.24823 0.37364
 N1234 N 0.62242 0.24346 0.37699
 C1235 C 0.63832 0.24177 0.35927
 C1236 C 0.66065 0.23792 0.36461
 C1237 C 0.67669 0.23633 0.34780
 C1238 C 0.67061 0.23841 0.32524
 C1239 C 0.64808 0.24209 0.31992
 C1240 C 0.63208 0.24382 0.33678
 H1241 H 0.53181 0.26176 0.40071
 H1242 H 0.55934 0.25973 0.37035
 H1243 H 0.60965 0.23986 0.41759
 H1244 H 0.58252 0.24204 0.44778
 H1245 H 0.66564 0.23627 0.38189
 H1246 H 0.69386 0.23345 0.35250
 H1247 H 0.64281 0.24387 0.30274
 H1248 H 0.61489 0.24675 0.33225
 C1249 C 0.91783 0.78207 0.08830
 C1250 C 0.90123 0.78318 0.10462
 C1251 C 0.89614 0.76453 0.11763
 C1252 C 0.90801 0.74468 0.11435
 C1253 C 0.92427 0.74334 0.09776
 C1254 C 0.92934 0.76194 0.08417
 N1255 N 0.87844 0.76588 0.13356
 N1256 N 0.87589 0.75119 0.14868
 C1257 C 0.85778 0.75192 0.16416
 C1258 C 0.85948 0.73994 0.18410
 C1259 C 0.84226 0.74058 0.19974
 C1260 C 0.82277 0.75274 0.19532
 C1261 C 0.82080 0.76429 0.17501
 C1262 C 0.83831 0.76409 0.15961
 H1263 H 0.92051 0.79672 0.07810
 H1264 H 0.89211 0.79857 0.10696
 H1265 H 0.90445 0.73005 0.12433
 H1266 H 0.93315 0.72775 0.09604
 H1267 H 0.87435 0.73039 0.18769
 H1268 H 0.84411 0.73147 0.21525
 H1269 H 0.80598 0.77388 0.17131
 H1270 H 0.83659 0.77329 0.14415
 C1271 C 0.40349 0.28599 0.58126
 C1272 C 0.38703 0.28735 0.59771
 C1273 C 0.38486 0.27049 0.61373
 C1274 C 0.39952 0.25223 0.61326
 C1275 C 0.41573 0.25066 0.59661
 C1276 C 0.41777 0.26746 0.58039
 N1277 N 0.36726 0.27188 0.62980
 N1278 N 0.36661 0.25924 0.64685
 C1279 C 0.34870 0.25996 0.66259
 C1280 C 0.35162 0.25003 0.68350
 C1281 C 0.33453 0.25052 0.69930
 C1282 C 0.31399 0.26050 0.69420
 C1283 C 0.31090 0.27009 0.67302
 C1284 C 0.32821 0.27002 0.65738
 H1285 H 0.40460 0.29901 0.56878
 H1286 H 0.37580 0.30147 0.59786
 H1287 H 0.39811 0.23894 0.62542
 H1288 H 0.42658 0.23625 0.59626
 H1289 H 0.36729 0.24212 0.68764
 H1290 H 0.33732 0.24290 0.71546
 H1291 H 0.29527 0.27798 0.66871
 H1292 H 0.32553 0.27763 0.64122
 C1293 C 0.88992 0.25551 0.93768
 C1294 C 0.87313 0.25596 0.92151
 C1295 C 0.87694 0.24735 0.90019
 C1296 C 0.89774 0.23800 0.89525
 C1297 C 0.91446 0.23729 0.91138
 C1298 C 0.91099 0.24608 0.93300
 N1299 N 0.85952 0.24819 0.88388
 N1300 N 0.86286 0.24255 0.86369
 C1301 C 0.84567 0.24291 0.84715
 C1302 C 0.85123 0.23819 0.82499
 C1303 C 0.83487 0.23803 0.80844
 C1304 C 0.81251 0.24242 0.81383
 C1305 C 0.80698 0.24720 0.83615
 C1306 C 0.82341 0.24752 0.85265
 H1307 H 0.88590 0.26188 0.95406
 H1308 H 0.85707 0.26306 0.92560
 H1309 H 0.90117 0.23131 0.87884
 H1310 H 0.93042 0.23070 0.90629
 H1311 H 0.86833 0.23456 0.82056
 H1312 H 0.83972 0.23418 0.79147
 H1313 H 0.78994 0.25070 0.84089
 H1314 H 0.81869 0.25117 0.86969
 C1315 C 0.39807 0.76245 0.44298
 C1316 C 0.38114 0.76318 0.42695
 C1317 C 0.38595 0.75915 0.40445
 C1318 C 0.40796 0.75442 0.39810
 C1319 C 0.42481 0.75355 0.41406
 C1320 C 0.42005 0.75744 0.43668
 N1321 N 0.36831 0.75962 0.38838
 N1322 N 0.37217 0.75709 0.36765
 C1323 C 0.35496 0.75699 0.35116
 C1324 C 0.36098 0.75506 0.32872
 C1325 C 0.34471 0.75436 0.31212
 C1326 C 0.32199 0.75546 0.31774
 C1327 C 0.31600 0.75751 0.34036
 C1328 C 0.33234 0.75831 0.35694
 H1329 H 0.39394 0.76541 0.46031
 H1330 H 0.36424 0.76682 0.43207
 H1331 H 0.41216 0.75127 0.38083
 H1332 H 0.44165 0.75002 0.40868
 H1333 H 0.37837 0.75398 0.32409
 H1334 H 0.34995 0.75270 0.29492
 H1335 H 0.29867 0.75843 0.34528
 H1336 H 0.32730 0.75976 0.37422
 C1337 C 0.07977 0.08972 0.21726
 C1338 C 0.09492 0.10735 0.21562
 C1339 C 0.11107 0.11052 0.23212
 C1340 C 0.11208 0.09566 0.25026
 C1341 C 0.09674 0.07824 0.25207
 C1342 C 0.08035 0.07520 0.23567
 N1343 N 0.12587 0.12919 0.23043
 N1344 N 0.14268 0.13117 0.24317
 C1345 C 0.15739 0.14991 0.24212
 C1346 C 0.17804 0.14842 0.25272
 C1347 C 0.19303 0.16616 0.25175
 C1348 C 0.18738 0.18597 0.24056
 C1349 C 0.16638 0.18771 0.23038
 C1350 C 0.15154 0.16971 0.23097
 H1351 H 0.06711 0.08788 0.20454
 H1352 H 0.09396 0.11869 0.20158
 H1353 H 0.12439 0.09777 0.26326
 H1354 H 0.09755 0.06722 0.26639
 H1355 H 0.18266 0.13330 0.26147
 H1356 H 0.20905 0.16441 0.25984
 H1357 H 0.16168 0.20275 0.22155
 H1358 H 0.13555 0.17128 0.22282
 C1359 C 0.56845 0.59945 0.73937
 C1360 C 0.58426 0.61650 0.73945
 C1361 C 0.60650 0.61188 0.74449
 C1362 C 0.61278 0.58989 0.74971
 C1363 C 0.59692 0.57280 0.74975
 C1364 C 0.57461 0.57739 0.74442
 N1365 N 0.62232 0.62975 0.74399
 N1366 N 0.64297 0.62655 0.74738
 C1367 C 0.65889 0.64430 0.74675
 C1368 C 0.68139 0.63916 0.74954
 C1369 C 0.69749 0.65592 0.74867
 C1370 C 0.69134 0.67829 0.74507
 C1371 C 0.66865 0.68346 0.74245
 C1372 C 0.65255 0.66660 0.74323
 H1373 H 0.55132 0.60357 0.73556
 H1374 H 0.57920 0.63338 0.73549
 H1375 H 0.62989 0.58590 0.75368
 H1376 H 0.60216 0.55595 0.75357
 H1377 H 0.68648 0.62206 0.75227
 H1378 H 0.71477 0.65128 0.75084
 H1379 H 0.66334 0.70048 0.73962
 H1380 H 0.63521 0.67099 0.74104
 C1381 C 0.93524 0.09435 0.73266
 C1382 C 0.91853 0.11054 0.73165
 C1383 C 0.89844 0.10747 0.74296
 C1384 C 0.89536 0.08819 0.75585
 C1385 C 0.91213 0.07211 0.75720
 C1386 C 0.93237 0.07470 0.74540
 N1387 N 0.88149 0.12416 0.74114
 N1388 N 0.86178 0.12099 0.74828
 C1389 C 0.84496 0.13784 0.74678
 C1390 C 0.82305 0.13250 0.75262
 C1391 C 0.80632 0.14870 0.75171
 C1392 C 0.81137 0.17065 0.74515
 C1393 C 0.83341 0.17592 0.73920
 C1394 C 0.85003 0.15966 0.73991
 H1395 H 0.95064 0.09777 0.72395
 H1396 H 0.92121 0.12550 0.72187
 H1397 H 0.87993 0.08546 0.76478
 H1398 H 0.90853 0.05717 0.76665
 H1399 H 0.81894 0.11575 0.75798
 H1400 H 0.78956 0.14414 0.75653
 H1401 H 0.83785 0.19264 0.73402
 H1402 H 0.86687 0.16421 0.73534
 C1403 C 0.40987 0.56652 0.23903
 C1404 C 0.39239 0.58182 0.23946
 C1405 C 0.39623 0.60394 0.24559
 C1406 C 0.41783 0.61062 0.25165
 C1407 C 0.43535 0.59525 0.25139
 C1408 C 0.43155 0.57310 0.24487
 N1409 N 0.37794 0.61920 0.24534
 N1410 N 0.38039 0.63989 0.24917
 C1411 C 0.36201 0.65506 0.24881
 C1412 C 0.36611 0.67777 0.25185
 C1413 C 0.34860 0.69307 0.25145
 C1414 C 0.32656 0.68586 0.24808
 C1415 C 0.32248 0.66298 0.24510
 C1416 C 0.34006 0.64770 0.24540
 H1417 H 0.40640 0.54946 0.23430
 H1418 H 0.37581 0.57647 0.23487
 H1419 H 0.42117 0.62766 0.25651
 H1420 H 0.45192 0.60074 0.25589
 H1421 H 0.38294 0.68362 0.25451
 H1422 H 0.35237 0.71054 0.25393
 H1423 H 0.30573 0.65687 0.24248
 H1424 H 0.33647 0.63019 0.24302
 C1425 C 0.09670 0.93074 0.72777
 C1426 C 0.11265 0.91379 0.72813
 C1427 C 0.10885 0.89415 0.74005
 C1428 C 0.08876 0.89154 0.75169
 C1429 C 0.07283 0.90856 0.75161
 C1430 C 0.07647 0.92861 0.73969
 N1431 N 0.12586 0.87741 0.74040
 N1432 N 0.12285 0.85825 0.74906
 C1433 C 0.14018 0.84184 0.74972
 C1434 C 0.13505 0.82015 0.75663
 C1435 C 0.15159 0.80377 0.75749
 C1436 C 0.17371 0.80893 0.75171
 C1437 C 0.17884 0.83080 0.74495
 C1438 C 0.16222 0.84708 0.74385
 H1439 H 0.10098 0.94590 0.71899
 H1440 H 0.12818 0.91607 0.71923
 H1441 H 0.08539 0.87640 0.76096
 H1442 H 0.05740 0.90549 0.76039
 H1443 H 0.11814 0.81592 0.76128
 H1444 H 0.14711 0.78713 0.76290
 H1445 H 0.19568 0.83531 0.74033
 H1446 H 0.16663 0.86376 0.73856
 C1447 C 0.60129 0.43206 0.24532
 C1448 C 0.61664 0.41462 0.24569
 C1449 C 0.60956 0.39269 0.24909
 C1450 C 0.58680 0.38833 0.25240
 C1451 C 0.57138 0.40583 0.25213
 C1452 C 0.57847 0.42786 0.24841
 N1453 N 0.62587 0.37530 0.24902
 N1454 N 0.62088 0.35480 0.25119
 C1455 C 0.63764 0.33779 0.25106
 C1456 C 0.63128 0.31548 0.25333
 C1457 C 0.64731 0.29857 0.25348
 C1458 C 0.67007 0.30375 0.25138
 C1459 C 0.67635 0.32621 0.24896
 C1460 C 0.66032 0.34306 0.24879
 H1461 H 0.60729 0.44889 0.24279
 H1462 H 0.63414 0.41817 0.24325
 H1463 H 0.58095 0.37147 0.25509
 H1464 H 0.55389 0.40210 0.25441
 H1465 H 0.61386 0.31120 0.25509
 H1466 H 0.64186 0.28147 0.25544
 H1467 H 0.69370 0.33084 0.24731
 H1468 H 0.66569 0.36019 0.24699
 C1469 C 0.90790 0.94254 0.24261
 C1470 C 0.88989 0.92776 0.24366
 C1471 C 0.89232 0.90677 0.25349
 C1472 C 0.91298 0.90072 0.26251
 C1473 C 0.93092 0.91543 0.26168
 C1474 C 0.92885 0.93671 0.25168
 N1475 N 0.87376 0.89175 0.25398
 N1476 N 0.87583 0.87190 0.26120
 C1477 C 0.85777 0.85637 0.26193
 C1478 C 0.86223 0.83435 0.26813
 C1479 C 0.84522 0.81852 0.26861
 C1480 C 0.82328 0.82452 0.26308
 C1481 C 0.81876 0.84678 0.25716
 C1482 C 0.83588 0.86258 0.25649
 H1483 H 0.90495 0.95879 0.23538
 H1484 H 0.87398 0.93269 0.23676
 H1485 H 0.91537 0.88449 0.27007
 H1486 H 0.94665 0.90944 0.26806
 H1487 H 0.87904 0.82940 0.27240
 H1488 H 0.84928 0.80156 0.27334
 H1489 H 0.80206 0.85192 0.25271
 H1490 H 0.83205 0.87955 0.25169
 C1491 C 0.43637 0.40597 0.75397
 C1492 C 0.41967 0.38993 0.75581
 C1493 C 0.39771 0.39626 0.76015
 C1494 C 0.39260 0.41894 0.76308
 C1495 C 0.40938 0.43505 0.76140
 C1496 C 0.43139 0.42871 0.75657
 N1497 N 0.38102 0.37928 0.76104
 N1498 N 0.36041 0.38353 0.76346
 C1499 C 0.34414 0.36608 0.76390
 C1500 C 0.32156 0.37162 0.76523
 C1501 C 0.30531 0.35492 0.76500
 C1502 C 0.31145 0.33232 0.76352
 C1503 C 0.33419 0.32685 0.76246
 C1504 C 0.35036 0.34354 0.76261
 H1505 H 0.45324 0.40059 0.75058
 H1506 H 0.42380 0.37250 0.75361
 H1507 H 0.37570 0.42419 0.76649
 H1508 H 0.40510 0.45247 0.76338
 H1509 H 0.31655 0.38893 0.76622
 H1510 H 0.28797 0.35975 0.76588
 H1511 H 0.33954 0.30965 0.76130
 H1512 H 0.36772 0.33880 0.76160
 C1513 C 0.05412 0.26734 0.91106
 C1514 C 0.07025 0.26817 0.89432
 C1515 C 0.09121 0.25881 0.89769
 C1516 C 0.09592 0.24832 0.91810
 C1517 C 0.07972 0.24722 0.93488
 C1518 C 0.05845 0.25686 0.93178
 N1519 N 0.10729 0.26018 0.88007
 N1520 N 0.12737 0.25395 0.88255
 C1521 C 0.14331 0.25536 0.86480
 C1522 C 0.16563 0.25075 0.86942
 C1523 C 0.18169 0.25230 0.85263
 C1524 C 0.17565 0.25830 0.83074
 C1525 C 0.15313 0.26266 0.82606
 C1526 C 0.13710 0.26132 0.84297
 H1527 H 0.03793 0.27414 0.90710
 H1528 H 0.06634 0.27609 0.87855
 H1529 H 0.11211 0.24099 0.92111
 H1530 H 0.08435 0.23950 0.95052
 H1531 H 0.17061 0.24608 0.88615
 H1532 H 0.19884 0.24862 0.85680
 H1533 H 0.14794 0.26730 0.80939
 H1534 H 0.11990 0.26489 0.83896
 C1535 C 0.56270 0.76304 0.41180
 C1536 C 0.57855 0.76273 0.39477
 C1537 C 0.60072 0.75746 0.39944
 C1538 C 0.60688 0.75217 0.42147
 C1539 C 0.59096 0.75233 0.43855
 C1540 C 0.56874 0.75797 0.43390
 N1541 N 0.61655 0.75781 0.38157
 N1542 N 0.63722 0.75452 0.38473
 C1543 C 0.65304 0.75503 0.36684
 C1544 C 0.67560 0.75253 0.37183
 C1545 C 0.69156 0.75321 0.35490
 C1546 C 0.68520 0.75633 0.33249
 C1547 C 0.66245 0.75869 0.32749
 C1548 C 0.64649 0.75811 0.34452
 H1549 H 0.54563 0.76706 0.40764
 H1550 H 0.57358 0.76673 0.37787
 H1551 H 0.62394 0.74799 0.42548
 H1552 H 0.59608 0.74844 0.45543
 H1553 H 0.68085 0.75012 0.38895
 H1554 H 0.70889 0.75119 0.35940
 H1555 H 0.65697 0.76108 0.31044
 H1556 H 0.62910 0.76005 0.34024
 C1557 C 0.90288 0.76546 0.93567
 C1558 C 0.88703 0.76486 0.91871
 C1559 C 0.89163 0.75420 0.89860
 C1560 C 0.91232 0.74376 0.89560
 C1561 C 0.92819 0.74406 0.91266
 C1562 C 0.92387 0.75511 0.93303
 N1563 N 0.87493 0.75417 0.88163
 N1564 N 0.87852 0.74689 0.86205
 C1565 C 0.86144 0.74693 0.84542
 C1566 C 0.86691 0.74126 0.82349
 C1567 C 0.85063 0.74138 0.80686
 C1568 C 0.82847 0.74697 0.81201
 C1569 C 0.82300 0.75253 0.83412
 C1570 C 0.83934 0.75259 0.85066
 H1571 H 0.89807 0.77331 0.95117
 H1572 H 0.87101 0.77274 0.92128
 H1573 H 0.91624 0.73541 0.88010
 H1574 H 0.94413 0.73637 0.90933
 H1575 H 0.88388 0.73685 0.81925
 H1576 H 0.85539 0.73695 0.79001
 H1577 H 0.80612 0.75699 0.83863
 H1578 H 0.83468 0.75700 0.86754
 C1579 C 0.39332 0.26687 0.43099
 C1580 C 0.37782 0.26724 0.41368
 C1581 C 0.38427 0.26202 0.39191
 C1582 C 0.40650 0.25609 0.38759
 C1583 C 0.42205 0.25555 0.40498
 C1584 C 0.41562 0.26112 0.42683
 N1585 N 0.36782 0.26283 0.37468
 N1586 N 0.37235 0.25971 0.35418
 C1587 C 0.35538 0.26048 0.33741
 C1588 C 0.36129 0.25772 0.31501
 C1589 C 0.34500 0.25803 0.29835
 C1590 C 0.32241 0.26100 0.30389
 C1591 C 0.31659 0.26397 0.32643
 C1592 C 0.33289 0.26374 0.34301
 H1593 H 0.38781 0.27089 0.44772
 H1594 H 0.36071 0.27170 0.41722
 H1595 H 0.41183 0.25192 0.37086
 H1596 H 0.43915 0.25116 0.40132
 H1597 H 0.37856 0.25521 0.31046
 H1598 H 0.35007 0.25567 0.28118
 H1599 H 0.29940 0.26639 0.33131
 H1600 H 0.32787 0.26595 0.36021
 C1601 C 0.06123 0.74712 0.10260
 C1602 C 0.07732 0.74596 0.11943
 C1603 C 0.09972 0.75019 0.11458
 C1604 C 0.10592 0.75566 0.09264
 C1605 C 0.08988 0.75693 0.07587
 C1606 C 0.06737 0.75272 0.08066
 N1607 N 0.11585 0.74897 0.13212
 N1608 N 0.13651 0.75182 0.12837
 C1609 C 0.15287 0.75092 0.14568
 C1610 C 0.17530 0.75346 0.13999
 C1611 C 0.19173 0.75294 0.15645
 C1612 C 0.18593 0.74993 0.17900
 C1613 C 0.16333 0.74735 0.18465
 C1614 C 0.14694 0.74780 0.16813
 H1615 H 0.04399 0.74394 0.10679
 H1616 H 0.07234 0.74176 0.13629
 H1617 H 0.12313 0.75897 0.08843
 H1618 H 0.09515 0.76093 0.05904
 H1619 H 0.18004 0.75592 0.12272
 H1620 H 0.20893 0.75509 0.15151
 H1621 H 0.15827 0.74501 0.20184
 H1622 H 0.12967 0.74583 0.17293
 C1623 C 0.54917 0.24651 0.60070
 C1624 C 0.56509 0.24434 0.61762
 C1625 C 0.58774 0.24722 0.61289
 C1626 C 0.59434 0.25232 0.59098
 C1627 C 0.57849 0.25460 0.57414
 C1628 C 0.55573 0.25180 0.57880
 N1629 N 0.60372 0.24507 0.63051
 N1630 N 0.62453 0.24661 0.62677
 C1631 C 0.64091 0.24484 0.64401
 C1632 C 0.66341 0.24593 0.63813
 C1633 C 0.67992 0.24462 0.65447
 C1634 C 0.67417 0.24228 0.67711
 C1635 C 0.65149 0.24114 0.68297
 C1636 C 0.63499 0.24237 0.66655
 H1637 H 0.53174 0.24439 0.60479
 H1638 H 0.55978 0.24044 0.63444
 H1639 H 0.61174 0.25459 0.58685
 H1640 H 0.58408 0.25831 0.55735
 H1641 H 0.66815 0.24789 0.62081
 H1642 H 0.69717 0.24567 0.64934
 H1643 H 0.64646 0.23934 0.70023
 H1644 H 0.61768 0.24153 0.67150
 C1645 C 0.88862 0.25346 0.06810
 C1646 C 0.87101 0.25220 0.08331
 C1647 C 0.87089 0.23585 0.10000
 C1648 C 0.88821 0.22010 0.10077
 C1649 C 0.90561 0.22107 0.08527
 C1650 C 0.90615 0.23801 0.06906
 N1651 N 0.85342 0.23604 0.11629
 N1652 N 0.85485 0.22523 0.13453
 C1653 C 0.83753 0.22565 0.15097
 C1654 C 0.84206 0.21767 0.17244
 C1655 C 0.82587 0.21878 0.18917
 C1656 C 0.80465 0.22753 0.18454
 C1657 C 0.79995 0.23502 0.16280
 C1658 C 0.81631 0.23427 0.14620
 H1659 H 0.88867 0.26661 0.05569
 H1660 H 0.85773 0.26439 0.08251
 H1661 H 0.88840 0.20723 0.11344
 H1662 H 0.91904 0.20908 0.08639
 H1663 H 0.85834 0.21094 0.17632
 H1664 H 0.82991 0.21269 0.20570
 H1665 H 0.78377 0.24187 0.15875
 H1666 H 0.81238 0.24044 0.12968
 C1667 C 0.39845 0.76502 0.57043
 C1668 C 0.38048 0.76421 0.58526
 C1669 C 0.37923 0.74742 0.60145
 C1670 C 0.39575 0.73083 0.60210
 C1671 C 0.41348 0.73136 0.58699
 C1672 C 0.41517 0.74868 0.57129
 N1673 N 0.36146 0.74795 0.61739
 N1674 N 0.36222 0.73667 0.63538
 C1675 C 0.34467 0.73720 0.65156
 C1676 C 0.34867 0.72852 0.67285
 C1677 C 0.33220 0.72943 0.68930
 C1678 C 0.31123 0.73867 0.68454
 C1679 C 0.30707 0.74697 0.66299
 C1680 C 0.32373 0.74643 0.64667
 H1681 H 0.39939 0.77847 0.55839
 H1682 H 0.36783 0.77705 0.58455
 H1683 H 0.39504 0.71760 0.61439
 H1684 H 0.42627 0.71868 0.58803
 H1685 H 0.36472 0.72132 0.67679
 H1686 H 0.33581 0.72269 0.70568
 H1687 H 0.29107 0.75419 0.65887
 H1688 H 0.32023 0.75314 0.63026
 C1689 C 0.27169 0.09797 0.93646
 C1690 C 0.27040 0.11740 0.92362
 C1691 C 0.25242 0.12082 0.90920
 C1692 C 0.23516 0.10501 0.90846
 C1693 C 0.23623 0.08579 0.92160
 C1694 C 0.25471 0.08192 0.93537
 N1695 N 0.25257 0.13980 0.89470
 N1696 N 0.23979 0.14086 0.87783
 C1697 C 0.23998 0.15927 0.86265
 C1698 C 0.22964 0.15671 0.84195
 C1699 C 0.23062 0.17369 0.82608
 C1700 C 0.24160 0.19380 0.83086
 C1701 C 0.25135 0.19670 0.85195
 C1702 C 0.25077 0.17944 0.86770
 H1703 H 0.28600 0.09537 0.94712
 H1704 H 0.28378 0.12947 0.92435
 H1705 H 0.22103 0.10736 0.89752
 H1706 H 0.22301 0.07358 0.92044
 H1707 H 0.22123 0.14127 0.83793
 H1708 H 0.22274 0.17113 0.81006
 H1709 H 0.25988 0.21207 0.85603
 H1710 H 0.25877 0.18179 0.88369
 C1711 C 0.77438 0.59099 0.43726
 C1712 C 0.77417 0.61045 0.42439
 C1713 C 0.75627 0.61498 0.41017
 C1714 C 0.73809 0.60024 0.40960
 C1715 C 0.73811 0.58100 0.42275
 C1716 C 0.75643 0.57602 0.43640
 N1717 N 0.75735 0.63401 0.39574
 N1718 N 0.74431 0.63598 0.37915
 C1719 C 0.74529 0.65444 0.36405
 C1720 C 0.73435 0.65262 0.34358
 C1721 C 0.73599 0.66961 0.32776
 C1722 C 0.74826 0.68899 0.33238
 C1723 C 0.75861 0.69121 0.35326
 C1724 C 0.75736 0.67391 0.36894
 H1725 H 0.78860 0.58755 0.44782
 H1726 H 0.78826 0.62168 0.42499
 H1727 H 0.72401 0.60345 0.39881
 H1728 H 0.72414 0.56964 0.42175
 H1729 H 0.72496 0.63773 0.33968
 H1730 H 0.72762 0.66760 0.31190
 H1731 H 0.76813 0.70601 0.35720
 H1732 H 0.76584 0.67568 0.38477
 C1733 C 0.75282 0.08558 0.06722
 C1734 C 0.75006 0.10168 0.08372
 C1735 C 0.74546 0.09543 0.10570
 C1736 C 0.74322 0.07270 0.11103
 C1737 C 0.74583 0.05649 0.09443
 C1738 C 0.75092 0.06280 0.07241
 N1739 N 0.74349 0.11259 0.12212
 N1740 N 0.74067 0.10868 0.14280
 C1741 C 0.73914 0.12654 0.15859
 C1742 C 0.73744 0.12163 0.18136
 C1743 C 0.73663 0.13882 0.19711
 C1744 C 0.73743 0.16127 0.19026
 C1745 C 0.73886 0.16609 0.16733
 C1746 C 0.73974 0.14893 0.15167
 H1747 H 0.75635 0.09094 0.05032
 H1748 H 0.75171 0.11915 0.07941
 H1749 H 0.73962 0.06750 0.12796
 H1750 H 0.74434 0.03904 0.09886
 H1751 H 0.73698 0.10445 0.18691
 H1752 H 0.73552 0.13449 0.21462
 H1753 H 0.73954 0.18314 0.16142
 H1754 H 0.74102 0.15322 0.13417
 C1755 C 0.25553 0.59452 0.56230
 C1756 C 0.25411 0.61118 0.57845
 C1757 C 0.24847 0.60585 0.60044
 C1758 C 0.24382 0.58356 0.60611
 C1759 C 0.24508 0.56685 0.58989
 C1760 C 0.25119 0.57216 0.56788
 N1761 N 0.24789 0.62335 0.61663
 N1762 N 0.24448 0.61967 0.63726
 C1763 C 0.24415 0.63732 0.65331
 C1764 C 0.24163 0.63200 0.67588
 C1765 C 0.24158 0.64878 0.69201
 C1766 C 0.24395 0.67130 0.68579
 C1767 C 0.24636 0.67660 0.66305
 C1768 C 0.24650 0.65977 0.64695
 H1769 H 0.25993 0.59913 0.54539
 H1770 H 0.25762 0.62829 0.57388
 H1771 H 0.23937 0.57906 0.62303
 H1772 H 0.24174 0.54975 0.59463
 H1773 H 0.23982 0.61477 0.68098
 H1774 H 0.23964 0.64406 0.70934
 H1775 H 0.24826 0.69374 0.65768
 H1776 H 0.24848 0.66431 0.62957
 C1777 C 0.78177 0.92889 0.90165
 C1778 C 0.78247 0.91423 0.88352
 C1779 C 0.76643 0.89746 0.88130
 C1780 C 0.74920 0.89593 0.89712
 C1781 C 0.74826 0.91081 0.91501
 C1782 C 0.76469 0.92726 0.91760
 N1783 N 0.76817 0.88192 0.86322
 N1784 N 0.75726 0.86374 0.86326
 C1785 C 0.75851 0.84782 0.84552
 C1786 C 0.74967 0.82656 0.84906
 C1787 C 0.75070 0.81043 0.83235
 C1788 C 0.76025 0.81543 0.81151
 C1789 C 0.76889 0.83692 0.80782
 C1790 C 0.76821 0.85297 0.82478
 H1791 H 0.79455 0.94151 0.90323
 H1792 H 0.79580 0.91564 0.87143
 H1793 H 0.73653 0.88319 0.89572
 H1794 H 0.73502 0.90912 0.92717
 H1795 H 0.74210 0.82243 0.86495
 H1796 H 0.74374 0.79410 0.83566
 H1797 H 0.77639 0.84122 0.79195
 H1798 H 0.77506 0.86936 0.82164
 C1799 C 0.26206 0.40245 0.42734
 C1800 C 0.26164 0.38642 0.41050
 C1801 C 0.25721 0.39253 0.38843
 C1802 C 0.25304 0.41503 0.38333
 C1803 C 0.25335 0.43114 0.40023
 C1804 C 0.25799 0.42502 0.42242
 N1805 N 0.25703 0.37548 0.37172
 N1806 N 0.25399 0.37950 0.35108
 C1807 C 0.25386 0.36196 0.33483
 C1808 C 0.25136 0.36731 0.31223
 C1809 C 0.25122 0.35052 0.29603
 C1810 C 0.25350 0.32798 0.30222
 C1811 C 0.25599 0.32270 0.32497
 C1812 C 0.25620 0.33949 0.34109
 H1813 H 0.26530 0.39714 0.44430
 H1814 H 0.26477 0.36913 0.41465
 H1815 H 0.24955 0.42014 0.36636
 H1816 H 0.25029 0.44840 0.39592
 H1817 H 0.24955 0.38455 0.30716
 H1818 H 0.24928 0.35521 0.27869
 H1819 H 0.25787 0.30557 0.33037
 H1820 H 0.25816 0.33487 0.35844
 C1821 C 0.27060 0.93527 0.09233
 C1822 C 0.26863 0.92063 0.11036
 C1823 C 0.26077 0.89896 0.10715
 C1824 C 0.25483 0.89201 0.08556
 C1825 C 0.25675 0.90667 0.06748
 C1826 C 0.26472 0.92845 0.07068
 N1827 N 0.25920 0.88434 0.12601
 N1828 N 0.25257 0.86431 0.12413
 C1829 C 0.25130 0.84940 0.14276
 C1830 C 0.24549 0.82722 0.13886
 C1831 C 0.24515 0.81186 0.15634
 C1832 C 0.25053 0.81846 0.17820
 C1833 C 0.25576 0.84093 0.18224
 C1834 C 0.25625 0.85630 0.16462
 H1835 H 0.27638 0.95208 0.09541
 H1836 H 0.27319 0.92620 0.12691
 H1837 H 0.24875 0.87529 0.08265
 H1838 H 0.25222 0.90092 0.05099
 H1839 H 0.24156 0.82175 0.12211
 H1840 H 0.24082 0.79473 0.15266
 H1841 H 0.25998 0.84651 0.19888
 H1842 H 0.26072 0.87343 0.16804
 C1843 C 0.76060 0.42682 0.59281
 C1844 C 0.75846 0.41135 0.61009
 C1845 C 0.75153 0.38958 0.60564
 C1846 C 0.74649 0.38342 0.58358
 C1847 C 0.74852 0.39896 0.56624
 C1848 C 0.75578 0.42077 0.57068
 N1849 N 0.75006 0.37411 0.62378
 N1850 N 0.74486 0.35376 0.62098
 C1851 C 0.74376 0.33836 0.63923
 C1852 C 0.73939 0.31593 0.63478
 C1853 C 0.73896 0.30032 0.65208
 C1854 C 0.74282 0.30692 0.67428
 C1855 C 0.74682 0.32956 0.67875
 C1856 C 0.74736 0.34515 0.66138
 H1857 H 0.76583 0.44361 0.59681
 H1858 H 0.76230 0.41630 0.62701
 H1859 H 0.74108 0.36666 0.57975
 H1860 H 0.74478 0.39384 0.54934
 H1861 H 0.73654 0.31051 0.61780
 H1862 H 0.73566 0.28305 0.64802
 H1863 H 0.74983 0.33521 0.69563
 H1864 H 0.75072 0.36244 0.66525
 C1865 C 0.06277 0.10354 0.74057
 C1866 C 0.07688 0.12204 0.74192
 C1867 C 0.09631 0.12109 0.75474
 C1868 C 0.10120 0.10155 0.76676
 C1869 C 0.08698 0.08317 0.76565
 C1870 C 0.06776 0.08389 0.75234
 N1871 N 0.11109 0.13984 0.75487
 N1872 N 0.13048 0.13851 0.76330
 C1873 C 0.14575 0.15682 0.76348
 C1874 C 0.16775 0.15282 0.76989
 C1875 C 0.18338 0.17002 0.76963
 C1876 C 0.17718 0.19173 0.76327
 C1877 C 0.15492 0.19583 0.75723
 C1878 C 0.13934 0.17847 0.75718
 H1879 H 0.04796 0.10457 0.73033
 H1880 H 0.07289 0.13701 0.73261
 H1881 H 0.11608 0.10040 0.77686
 H1882 H 0.09132 0.06816 0.77472
 H1883 H 0.17286 0.13621 0.77481
 H1884 H 0.20033 0.16629 0.77448
 H1885 H 0.14964 0.21235 0.75223
 H1886 H 0.12237 0.18195 0.75224
 C1887 C 0.56476 0.60491 0.24654
 C1888 C 0.57929 0.62314 0.24772
 C1889 C 0.60134 0.62019 0.25473
 C1890 C 0.60872 0.59871 0.26053
 C1891 C 0.59427 0.58058 0.25941
 C1892 C 0.57210 0.58344 0.25249
 N1893 N 0.61603 0.63900 0.25571
 N1894 N 0.63627 0.63664 0.26149
 C1895 C 0.65183 0.65465 0.26263
 C1896 C 0.67394 0.64971 0.26785
 C1897 C 0.68991 0.66654 0.26854
 C1898 C 0.68403 0.68881 0.26414
 C1899 C 0.66166 0.69385 0.25929
 C1900 C 0.64566 0.67687 0.25845
 H1901 H 0.54774 0.60763 0.24127
 H1902 H 0.57338 0.63958 0.24319
 H1903 H 0.62569 0.59589 0.26589
 H1904 H 0.60055 0.56420 0.26371
 H1905 H 0.67885 0.63265 0.27117
 H1906 H 0.70692 0.66204 0.27248
 H1907 H 0.65659 0.71082 0.25580
 H1908 H 0.62860 0.68106 0.25444
 C1909 C 0.10257 0.93906 0.25385
 C1910 C 0.11964 0.92322 0.25482
 C1911 C 0.11628 0.90164 0.24679
 C1912 C 0.09565 0.89606 0.23745
 C1913 C 0.07863 0.91186 0.23623
 C1914 C 0.08163 0.93374 0.24449
 N1915 N 0.13400 0.88570 0.24829
 N1916 N 0.13123 0.86531 0.24315
 C1917 C 0.14888 0.84929 0.24435
 C1918 C 0.14411 0.82684 0.24022
 C1919 C 0.16096 0.81078 0.24114
 C1920 C 0.18299 0.81698 0.24604
 C1921 C 0.18772 0.83959 0.25014
 C1922 C 0.17082 0.85558 0.24938
 H1923 H 0.10626 0.95566 0.25977
 H1924 H 0.13557 0.92779 0.26189
 H1925 H 0.09259 0.87943 0.23121
 H1926 H 0.06280 0.90633 0.22970
 H1927 H 0.12727 0.82179 0.23628
 H1928 H 0.15676 0.79356 0.23778
 H1929 H 0.20448 0.84495 0.25400
 H1930 H 0.17493 0.87285 0.25258
 C1931 C 0.60222 0.43720 0.73637
 C1932 C 0.61866 0.42069 0.73484
 C1933 C 0.61383 0.39857 0.74064
 C1934 C 0.59229 0.39311 0.74795
 C1935 C 0.57596 0.40956 0.74963
 C1936 C 0.58075 0.43180 0.74399
 N1937 N 0.63101 0.38201 0.73934
 N1938 N 0.62701 0.36154 0.74332
 C1939 C 0.64385 0.34465 0.74268
 C1940 C 0.63763 0.32245 0.74617
 C1941 C 0.65361 0.30552 0.74624
 C1942 C 0.67625 0.31056 0.74295
 C1943 C 0.68242 0.33292 0.73931
 C1944 C 0.66637 0.34982 0.73913
 H1945 H 0.60638 0.45422 0.73198
 H1946 H 0.63520 0.42514 0.72920
 H1947 H 0.58808 0.37616 0.75250
 H1948 H 0.55946 0.40482 0.75517
 H1949 H 0.62031 0.31827 0.74895
 H1950 H 0.64824 0.28852 0.74910
 H1951 H 0.69968 0.33741 0.73662
 H1952 H 0.67158 0.36688 0.73643
 C1953 C 0.93303 0.09536 0.24671
 C1954 C 0.91549 0.11053 0.24780
 C1955 C 0.89405 0.10335 0.25327
 C1956 C 0.89031 0.08072 0.25809
 C1957 C 0.90796 0.06547 0.25716
 C1958 C 0.92944 0.07265 0.25119
 N1959 N 0.87653 0.11950 0.25352
 N1960 N 0.85622 0.11460 0.25702
 C1961 C 0.83936 0.13153 0.25689
 C1962 C 0.81705 0.12554 0.25993
 C1963 C 0.80033 0.14181 0.25961
 C1964 C 0.80575 0.16441 0.25632
 C1965 C 0.82821 0.17030 0.25330
 C1966 C 0.84481 0.15407 0.25356
 H1967 H 0.94947 0.10141 0.24243
 H1968 H 0.91856 0.12795 0.24418
 H1969 H 0.87383 0.07483 0.26242
 H1970 H 0.90475 0.04804 0.26061
 H1971 H 0.81261 0.10823 0.26247
 H1972 H 0.78321 0.13669 0.26199
 H1973 H 0.83303 0.18749 0.25064
 H1974 H 0.86192 0.15918 0.25114
 C1975 C 0.40077 0.55549 0.74179
 C1976 C 0.38204 0.56943 0.74175
 C1977 C 0.38434 0.59236 0.74547
 C1978 C 0.40568 0.60124 0.74906
 C1979 C 0.42431 0.58739 0.74919
 C1980 C 0.42208 0.56434 0.74574
 N1981 N 0.36498 0.60637 0.74580
 N1982 N 0.36684 0.62728 0.74882
 C1983 C 0.34839 0.64233 0.74960
 C1984 C 0.35286 0.66499 0.75224
 C1985 C 0.33557 0.68043 0.75322
 C1986 C 0.31326 0.67346 0.75165
 C1987 C 0.30874 0.65058 0.74905
 C1988 C 0.32620 0.63509 0.74799
 H1989 H 0.39857 0.53777 0.73919
 H1990 H 0.36571 0.56234 0.73895
 H1991 H 0.40802 0.61890 0.75187
 H1992 H 0.44054 0.59476 0.75186
 H1993 H 0.36990 0.67073 0.75352
 H1994 H 0.33976 0.69786 0.75523
 H1995 H 0.29177 0.64466 0.74771
 H1996 H 0.32239 0.61758 0.74597
 C1997 C 0.91591 0.93068 0.72355
 C1998 C 0.89882 0.91490 0.72310
 C1999 C 0.90055 0.89522 0.73552
 C2000 C 0.91975 0.89136 0.74835
 C2001 C 0.93678 0.90723 0.74898
 C2002 C 0.93498 0.92709 0.73664
 N2003 N 0.88245 0.87969 0.73515
 N2004 N 0.88371 0.86069 0.74455
 C2005 C 0.86556 0.84523 0.74452
 C2006 C 0.86928 0.82353 0.75215
 C2007 C 0.85208 0.80788 0.75205
 C2008 C 0.83069 0.81380 0.74456
 C2009 C 0.82687 0.83576 0.73729
 C2010 C 0.84421 0.85133 0.73712
 H2011 H 0.91394 0.94598 0.71414
 H2012 H 0.88409 0.91808 0.71320
 H2013 H 0.92147 0.87626 0.75811
 H2014 H 0.95134 0.90401 0.75911
 H2015 H 0.88563 0.81867 0.75800
 H2016 H 0.85553 0.79115 0.75795
 H2017 H 0.81059 0.84080 0.73140
 H2018 H 0.84091 0.86809 0.73127
 C2019 C 0.44496 0.40449 0.23174
 C2020 C 0.42893 0.38766 0.22976
 C2021 C 0.40642 0.39229 0.23376
 C2022 C 0.40005 0.41403 0.23957
 C2023 C 0.41600 0.43077 0.24166
 C2024 C 0.43864 0.42616 0.23796
 N2025 N 0.39041 0.37466 0.23230
 N2026 N 0.36971 0.37824 0.23514
 C2027 C 0.35345 0.36084 0.23433
 C2028 C 0.33095 0.36637 0.23673
 C2029 C 0.31464 0.34976 0.23658
 C2030 C 0.32063 0.32723 0.23414
 C2031 C 0.34329 0.32177 0.23163
 C2032 C 0.35955 0.33841 0.23169
 H2033 H 0.46230 0.40048 0.22887
 H2034 H 0.43406 0.37096 0.22528
 H2035 H 0.38276 0.41808 0.24269
 H2036 H 0.41060 0.44741 0.24609
 H2037 H 0.32607 0.38361 0.23884
 H2038 H 0.29739 0.35457 0.23862
 H2039 H 0.34851 0.30460 0.22967
 H2040 H 0.37685 0.33373 0.22986
   
