data_POSCAR
  _audit_creation_date              2014-09-24
  _audit_creation_method            'ToBaCCo'
  _symmetry_space_group_name_H-M    'P1'
  _symmetry_Int_Tables_number       1
  _symmetry_cell_setting            triclinic
  loop_
  _symmetry_equiv_pos_as_xyz
 x,y,z
_cell_length_a 47.0133
_cell_length_b 47.0224
_cell_length_c 47.0120
_cell_angle_alpha 90.017400
_cell_angle_beta 90.041000
_cell_angle_gamma 89.993100
loop_
  _atom_site_label
  _atom_site_type_symbol
  _atom_site_fract_x
  _atom_site_fract_y
  _atom_site_fract_z
O1 O 0.27536 1.02635 0.02701
 O2 O 0.27477 0.97069 -0.02808
 O3 O 0.27476 1.02651 -0.02813
 O4 O 0.27470 0.97064 0.02680
 O5 O 0.22769 0.97124 0.02717
 O6 O 0.22775 1.02651 -0.02816
 O7 O 0.22780 0.97157 -0.02854
 O8 O 0.22836 1.02620 0.02768
 Cu9 Cu 0.27963 0.99857 -0.00064
 Cu10 Cu 0.22317 0.99894 -0.00045
 C11 C 0.25198 1.03555 0.03687
 C12 C 0.25120 0.96166 -0.03775
 C13 C 0.25123 1.03589 -0.03755
 C14 C 0.25115 0.96149 0.03631
 O15 O 0.77401 0.52903 0.52731
 O16 O 0.77451 0.47305 0.47252
 O17 O 0.77384 0.52892 0.47231
 O18 O 0.77422 0.47328 0.52758
 O19 O 0.72722 0.47333 0.52785
 O20 O 0.72684 0.52814 0.47189
 O21 O 0.72750 0.47307 0.47205
 O22 O 0.72700 0.52830 0.52763
 Cu23 Cu 0.77887 0.50109 0.49991
 Cu24 Cu 0.72242 0.50066 0.49982
 C25 C 0.75043 0.53810 0.53683
 C26 C 0.75110 0.46360 0.46294
 C27 C 0.75025 0.53797 0.46272
 C28 C 0.75077 0.46397 0.53719
 O29 O 0.72571 0.97328 1.02869
 O30 O 0.72561 1.02843 0.97314
 O31 O 0.72589 0.97345 0.97295
 O32 O 0.72631 1.02833 1.02899
 O33 O 0.77328 1.02858 1.02832
 O34 O 0.77290 0.97301 0.97319
 O35 O 0.77262 1.02870 0.97330
 O36 O 0.77268 0.97261 1.02809
 Cu37 Cu 0.72117 1.00091 1.00099
 Cu38 Cu 0.77758 1.00074 1.00076
 C39 C 0.74917 0.96334 1.03769
 C40 C 0.74908 1.03795 0.96380
 C41 C 0.74936 0.96386 0.96364
 C42 C 0.74990 1.03793 1.03810
 O43 O 0.22668 0.47214 0.52832
 O44 O 0.22598 0.52612 0.47172
 O45 O 0.22696 0.47117 0.47246
 O46 O 0.22635 0.52714 0.52738
 O47 O 0.27335 0.52800 0.52700
 O48 O 0.27396 0.47136 0.47286
 O49 O 0.27299 0.52708 0.47209
 O50 O 0.27369 0.47226 0.52793
 Cu51 Cu 0.22176 0.49904 0.49998
 Cu52 Cu 0.27823 0.49969 0.49997
 C53 C 0.25029 0.46301 0.53770
 C54 C 0.24936 0.53588 0.46242
 C55 C 0.25058 0.46177 0.46334
 C56 C 0.24976 0.53717 0.53639
 O57 O 1.02998 0.22738 0.02683
 O58 O 0.97178 0.22677 -0.02581
 O59 O 1.02774 0.22630 -0.02786
 O60 O 0.97486 0.22683 0.02973
 O61 O 0.97223 0.27367 0.02692
 O62 O 1.02843 0.27330 -0.02768
 O63 O 0.97369 0.27363 -0.02837
 O64 O 1.02781 0.27431 0.02812
 Cu65 Cu 1.00097 0.22207 0.00068
 Cu66 Cu 1.00057 0.27847 -0.00019
 C67 C 1.03849 0.25103 0.03668
 C68 C 0.96319 0.25012 -0.03646
 C69 C 1.03741 0.24968 -0.03723
 C70 C 0.96431 0.25029 0.03789
 O71 O 0.52657 0.72918 0.52804
 O72 O 0.47227 0.72704 0.47153
 O73 O 0.52786 0.72749 0.47278
 O74 O 0.47181 0.72779 0.52742
 O75 O 0.47161 0.77479 0.52702
 O76 O 0.52486 0.77426 0.46938
 O77 O 0.46967 0.77396 0.47225
 O78 O 0.52752 0.77607 0.52500
 Cu79 Cu 0.49965 0.72314 0.49994
 Cu80 Cu 0.49847 0.77951 0.49838
 C81 C 0.53649 0.75303 0.53588
 C82 C 0.46141 0.75015 0.46265
 C83 C 0.53563 0.75076 0.46152
 C84 C 0.46242 0.75132 0.53676
 O85 O 0.02849 0.72574 -0.02786
 O86 O -0.02998 0.72534 0.02424
 O87 O -0.02691 0.72614 -0.03130
 O88 O 0.02531 0.72589 0.02731
 O89 O 0.02854 0.77266 0.02407
 O90 O -0.03054 0.77278 -0.02735
 O91 O -0.02669 0.77206 0.02795
 O92 O 0.02483 0.77243 -0.03124
 Cu93 Cu -0.00083 0.72102 -0.00196
 Cu94 Cu -0.00099 0.77723 -0.00165
 C95 C 0.03614 0.74913 -0.03901
 C96 C -0.03762 0.74859 0.03566
 C97 C -0.03823 0.74953 -0.03876
 C98 C 0.03640 0.74928 0.03505
 O99 O 0.52917 0.22564 0.47333
 O100 O 0.47551 0.22550 0.53018
 O101 O 0.47328 0.22465 0.47465
 O102 O 0.53068 0.22744 0.52809
 O103 O 0.52742 0.27432 0.52873
 O104 O 0.47381 0.27156 0.47175
 O105 O 0.47188 0.27224 0.52689
 O106 O 0.52855 0.27264 0.47284
 Cu107 Cu 0.50220 0.22105 0.50161
 Cu108 Cu 0.50037 0.27744 0.50007
 C109 C 0.53823 0.24915 0.46367
 C110 C 0.46430 0.24879 0.53793
 C111 C 0.46414 0.24766 0.46380
 C112 C 0.53851 0.25140 0.53775
 O113 O 1.02865 0.02465 0.27461
 O114 O 0.97212 -0.02952 0.27444
 O115 O 1.02684 -0.03062 0.27289
 O116 O 0.97300 0.02631 0.27523
 O117 O 0.97039 0.02573 0.22829
 O118 O 1.02750 -0.02765 0.22599
 O119 O 0.97157 -0.02888 0.22747
 O120 O 1.02558 0.02799 0.22783
 Cu121 Cu 1.00022 -0.00229 0.27904
 Cu122 Cu 0.99883 -0.00067 0.22265
 C123 C 1.03649 0.03578 0.25130
 C124 C 0.96236 -0.03863 0.25094
 C125 C 1.03649 -0.03860 0.24899
 C126 C 0.96217 0.03528 0.25214
 O127 O 0.52826 0.52773 0.77627
 O128 O 0.47105 0.47439 0.77634
 O129 O 0.52638 0.47239 0.77610
 O130 O 0.47281 0.52975 0.77554
 O131 O 0.46988 0.52615 0.72877
 O132 O 0.52962 0.47546 0.72931
 O133 O 0.47443 0.47092 0.72959
 O134 O 0.52518 0.53067 0.72946
 Cu135 Cu 0.49960 0.50112 0.78082
 Cu136 Cu 0.49979 0.50079 0.72452
 C137 C 0.53595 0.53878 0.75288
 C138 C 0.46358 0.46301 0.75303
 C139 C 0.53762 0.46471 0.75276
 C140 C 0.46169 0.53713 0.75203
 O141 O 0.96952 1.02744 0.72598
 O142 O 1.02840 0.97575 0.72542
 O143 O 0.97309 0.97216 0.72624
 O144 O 1.02486 1.03105 0.72591
 O145 O 1.02859 1.02755 0.77263
 O146 O 0.97013 0.97557 0.77302
 O147 O 1.02547 0.97231 0.77220
 O148 O 0.97339 1.03093 0.77266
 Cu149 Cu 0.99892 1.00161 0.72112
 Cu150 Cu 0.99941 1.00157 0.77739
 C151 C 0.96200 1.03866 0.74938
 C152 C 1.03639 0.96466 0.74870
 C153 C 0.96224 0.96442 0.74973
 C154 C 1.03610 1.03874 0.74925
 O155 O 0.47067 0.52572 0.22596
 O156 O 0.52858 0.47316 0.22403
 O157 O 0.47269 0.47099 0.22551
 O158 O 0.52587 0.52868 0.22535
 O159 O 0.52910 0.52566 0.27215
 O160 O 0.47308 0.47097 0.27252
 O161 O 0.52782 0.47050 0.27096
 O162 O 0.47350 0.52686 0.27288
 Cu163 Cu 0.49947 0.49964 0.22046
 Cu164 Cu 0.50090 0.49854 0.27688
 C165 C 0.46251 0.53549 0.24974
 C166 C 0.53768 0.46253 0.24714
 C167 C 0.46361 0.46143 0.24909
 C168 C 0.53679 0.53669 0.24874
 O169 O 0.24951 0.17367 0.21246
 O170 O 0.28104 0.16568 0.25164
 O171 O 0.17628 0.20981 0.24937
 O172 O 0.16602 0.24599 0.27840
 O173 O 0.21295 0.24648 0.17599
 O174 O 0.25199 0.27832 0.16827
 O175 O 0.25326 0.28793 0.32406
 O176 O 0.21810 0.25271 0.33205
 O177 O 0.32374 0.24936 0.29111
 O178 O 0.33367 0.21719 0.25187
 O179 O 0.29023 0.32153 0.25025
 O180 O 0.25079 0.33096 0.21959
 O181 O 0.25110 0.32179 0.28956
 O182 O 0.21897 0.32953 0.24755
 O183 O 0.32423 0.28728 0.25341
 O184 O 0.33258 0.24581 0.21989
 O185 O 0.28928 0.24771 0.32499
 O186 O 0.24852 0.21702 0.33303
 O187 O 0.25410 0.20737 0.17799
 O188 O 0.28412 0.24775 0.16965
 O189 O 0.17828 0.25040 0.20955
 O190 O 0.17108 0.28252 0.24983
 O191 O 0.21004 0.17529 0.25314
 O192 O 0.25028 0.16684 0.28366
 Zr193 Zr 0.24904 0.19725 0.25056
 O194 O 0.27582 0.22161 0.27693
 Zr195 Zr 0.19983 0.24784 0.24878
 O196 O 0.22406 0.27406 0.27597
 Zr197 Zr 0.25085 0.24633 0.19984
 O198 O 0.27691 0.27330 0.22433
 Zr199 Zr 0.25107 0.24933 0.30164
 O200 O 0.22383 0.22279 0.27737
 Zr201 Zr 0.30149 0.24868 0.25234
 O202 O 0.27752 0.22133 0.22566
 Zr203 Zr 0.25172 0.29882 0.25106
 O204 O 0.22547 0.27453 0.22365
 O205 O 0.22351 0.22071 0.22320
 O206 O 0.27802 0.27576 0.27838
 C207 C 0.25250 0.18142 0.18641
 C208 C 0.18407 0.18373 0.25185
 C209 C 0.18686 0.24916 0.18363
 C210 C 0.25233 0.31390 0.31569
 C211 C 0.31541 0.24841 0.31708
 C212 C 0.31622 0.31334 0.25183
 H213 H 0.28737 0.20863 0.28875
 H214 H 0.28885 0.28484 0.21146
 H215 H 0.21143 0.20849 0.21102
 H216 H 0.21128 0.28587 0.28777
 H217 H 0.20294 0.23937 0.32605
 H218 H 0.17182 0.25718 0.29524
 H219 H 0.33074 0.26278 0.20760
 H220 H 0.29931 0.23508 0.17687
 H221 H 0.26321 0.20256 0.32884
 H222 H 0.23663 0.17332 0.29831
 H223 H 0.26311 0.32462 0.20377
 H224 H 0.23827 0.29314 0.17423
 H225 H 0.29639 0.17229 0.23884
 H226 H 0.32784 0.20194 0.26511
 H227 H 0.17698 0.29593 0.23471
 H228 H 0.20599 0.32707 0.26392
 O229 O 0.74670 0.82285 0.20767
 O230 O 0.71739 0.83223 0.24860
 O231 O 0.82218 0.79032 0.25374
 O232 O 0.83326 0.75204 0.27939
 O233 O 0.79024 0.74651 0.17627
 O234 O 0.74973 0.71728 0.16751
 O235 O 0.74977 0.71239 0.32322
 O236 O 0.78039 0.75324 0.33013
 O237 O 0.67498 0.75080 0.28679
 O238 O 0.66791 0.78264 0.24461
 O239 O 0.70973 0.67722 0.25134
 O240 O 0.75106 0.66797 0.21886
 O241 O 0.74683 0.67777 0.28956
 O242 O 0.78036 0.66806 0.25030
 O243 O 0.67558 0.71132 0.24785
 O244 O 0.66677 0.75067 0.21660
 O245 O 0.70848 0.74762 0.32157
 O246 O 0.74133 0.78148 0.33166
 O247 O 0.75203 0.78833 0.17413
 O248 O 0.71921 0.74958 0.16635
 O249 O 0.82370 0.75138 0.21095
 O250 O 0.82937 0.71756 0.25111
 O251 O 0.78855 0.82424 0.24593
 O252 O 0.74940 0.83375 0.27805
 Zr253 Zr 0.75004 0.80134 0.24682
 O254 O 0.72319 0.77741 0.27354
 Zr255 Zr 0.80005 0.75167 0.24907
 O256 O 0.77530 0.72539 0.27564
 Zr257 Zr 0.75126 0.75038 0.19792
 O258 O 0.72414 0.72437 0.22226
 Zr259 Zr 0.74732 0.75039 0.29970
 O260 O 0.77453 0.77724 0.27573
 Zr261 Zr 0.69844 0.74977 0.24860
 O262 O 0.72309 0.77601 0.22155
 Zr263 Zr 0.74841 0.69978 0.25065
 O264 O 0.77588 0.72351 0.22389
 O265 O 0.77713 0.77739 0.22144
 O266 O 0.72112 0.72344 0.27624
 C267 C 0.74883 0.81437 0.18178
 C268 C 0.81430 0.81627 0.25041
 C269 C 0.81613 0.74820 0.18485
 C270 C 0.74827 0.68624 0.31549
 C271 C 0.68260 0.74905 0.31298
 C272 C 0.68369 0.68531 0.24961
 H273 H 0.71139 0.79041 0.28511
 H274 H 0.71267 0.71240 0.20932
 H275 H 0.78950 0.78932 0.20929
 H276 H 0.78808 0.71411 0.28796
 H277 H 0.79202 0.77007 0.32511
 H278 H 0.82482 0.74608 0.29769
 H279 H 0.67314 0.73802 0.20105
 H280 H 0.70481 0.76386 0.17203
 H281 H 0.74570 0.79998 0.32279
 H282 H 0.76529 0.82988 0.29134
 H283 H 0.73483 0.67055 0.20572
 H284 H 0.76160 0.70166 0.17514
 H285 H 0.70225 0.82573 0.23549
 H286 H 0.67040 0.79579 0.26086
 H287 H 0.82413 0.70408 0.23579
 H288 H 0.79436 0.67290 0.26525
 O289 O 0.74917 0.17791 0.79030
 O290 O 0.71955 0.16975 0.75032
 O291 O 0.82486 0.21241 0.75246
 O292 O 0.83516 0.24837 0.72260
 O293 O 0.78966 0.25075 0.82574
 O294 O 0.75078 0.28304 0.83334
 O295 O 0.75185 0.29089 0.67751
 O296 O 0.78383 0.25339 0.67003
 O297 O 0.67804 0.25534 0.71138
 O298 O 0.66872 0.22085 0.75102
 O299 O 0.71202 0.32551 0.74967
 O300 O 0.75208 0.33447 0.78215
 O301 O 0.74944 0.32506 0.71170
 O302 O 0.78311 0.33350 0.75247
 O303 O 0.67771 0.29153 0.75204
 O304 O 0.66851 0.25007 0.78191
 O305 O 0.71238 0.25273 0.67740
 O306 O 0.75155 0.22012 0.66909
 O307 O 0.75049 0.21191 0.82480
 O308 O 0.71831 0.25152 0.83251
 O309 O 0.82412 0.25324 0.79185
 O310 O 0.83144 0.28497 0.75183
 O311 O 0.79051 0.17831 0.74981
 O312 O 0.75047 0.17034 0.71903
 Zr313 Zr 0.75186 0.20096 0.75194
 O314 O 0.72546 0.22553 0.72545
 Zr315 Zr 0.80201 0.25088 0.75292
 O316 O 0.77795 0.27731 0.72580
 Zr317 Zr 0.75156 0.25055 0.80227
 O318 O 0.72543 0.27751 0.77778
 Zr319 Zr 0.75071 0.25258 0.70046
 O320 O 0.77745 0.22582 0.72486
 Zr321 Zr 0.70031 0.25296 0.75020
 O322 O 0.72415 0.22570 0.77702
 Zr323 Zr 0.75045 0.30255 0.75044
 O324 O 0.77686 0.27825 0.77784
 O325 O 0.77811 0.22426 0.77880
 O326 O 0.72392 0.27939 0.72356
 C327 C 0.74918 0.18592 0.81645
 C328 C 0.81662 0.18641 0.75054
 C329 C 0.81574 0.25242 0.81784
 C330 C 0.75064 0.31693 0.68563
 C331 C 0.68631 0.25429 0.68537
 C332 C 0.68594 0.31753 0.75096
 H333 H 0.71360 0.21277 0.71371
 H334 H 0.71375 0.28924 0.79074
 H335 H 0.79010 0.21193 0.79094
 H336 H 0.79086 0.28888 0.71393
 H337 H 0.79844 0.23967 0.67653
 H338 H 0.82956 0.26019 0.70613
 H339 H 0.67331 0.26393 0.79699
 H340 H 0.70413 0.23721 0.82636
 H341 H 0.73651 0.20612 0.67356
 H342 H 0.76390 0.17685 0.70419
 H343 H 0.73765 0.32976 0.79670
 H344 H 0.76400 0.29800 0.82667
 H345 H 0.70342 0.17737 0.76150
 H346 H 0.67164 0.20833 0.73437
 H347 H 0.82492 0.29917 0.76594
 H348 H 0.79583 0.33060 0.73597
 O349 O 0.24795 0.82387 0.78945
 O350 O 0.28085 0.83210 0.75128
 O351 O 0.17517 0.79037 0.74920
 O352 O 0.16489 0.75445 0.71960
 O353 O 0.20926 0.74851 0.82304
 O354 O 0.24853 0.71829 0.83128
 O355 O 0.25177 0.71220 0.67521
 O356 O 0.21761 0.74853 0.66738
 O357 O 0.32249 0.74752 0.71058
 O358 O 0.33324 0.77868 0.74861
 O359 O 0.28706 0.67643 0.74597
 O360 O 0.24698 0.66747 0.77911
 O361 O 0.24723 0.67770 0.70881
 O362 O 0.21605 0.66892 0.74998
 O363 O 0.32153 0.71003 0.75051
 O364 O 0.32905 0.75300 0.78269
 O365 O 0.28874 0.75170 0.67614
 O366 O 0.24876 0.78336 0.66778
 O367 O 0.25033 0.78928 0.82329
 O368 O 0.28046 0.74845 0.83115
 O369 O 0.17507 0.75146 0.78884
 O370 O 0.16840 0.71773 0.74926
 O371 O 0.20967 0.82430 0.74786
 O372 O 0.25074 0.83253 0.71852
 Zr373 Zr 0.24807 0.80133 0.75078
 O374 O 0.27484 0.77701 0.72442
 Zr375 Zr 0.19779 0.75187 0.75024
 O376 O 0.22202 0.72566 0.72304
 Zr377 Zr 0.24780 0.75083 0.80029
 O378 O 0.27392 0.72399 0.77571
 Zr379 Zr 0.25003 0.75036 0.69852
 O380 O 0.22290 0.77700 0.72279
 Zr381 Zr 0.29948 0.74894 0.74896
 O382 O 0.27548 0.77608 0.77575
 Zr383 Zr 0.24881 0.69971 0.74773
 O384 O 0.22238 0.72388 0.77510
 O385 O 0.22155 0.77772 0.77701
 O386 O 0.27611 0.72294 0.72168
 C387 C 0.24971 0.81545 0.81539
 C388 C 0.18352 0.81634 0.74793
 C389 C 0.18319 0.74944 0.81487
 C390 C 0.24952 0.68610 0.68293
 C391 C 0.31467 0.74966 0.68448
 C392 C 0.31316 0.68415 0.74829
 H393 H 0.28692 0.78994 0.71311
 H394 H 0.28538 0.71197 0.78860
 H395 H 0.20943 0.78988 0.78918
 H396 H 0.20919 0.71440 0.71075
 H397 H 0.20240 0.76164 0.67373
 H398 H 0.17041 0.74237 0.70329
 H399 H 0.32680 0.73625 0.79522
 H400 H 0.29518 0.76238 0.82550
 H401 H 0.26359 0.79745 0.67266
 H402 H 0.23733 0.82668 0.70336
 H403 H 0.26272 0.67073 0.79270
 H404 H 0.23708 0.70243 0.82346
 H405 H 0.29536 0.82521 0.76493
 H406 H 0.32627 0.79596 0.73887
 H407 H 0.17360 0.70465 0.76492
 H408 H 0.20181 0.67363 0.73522
 O409 O 0.25110 0.32403 0.71214
 O410 O 0.22117 0.33258 0.75211
 O411 O 0.32546 0.28757 0.75063
 O412 O 0.33471 0.25098 0.78004
 O413 O 0.28995 0.25016 0.67650
 O414 O 0.25019 0.21933 0.66821
 O415 O 0.25133 0.20995 0.82382
 O416 O 0.28238 0.24739 0.83244
 O417 O 0.17726 0.25080 0.78953
 O418 O 0.16921 0.28296 0.74894
 O419 O 0.21000 0.17731 0.75146
 O420 O 0.25007 0.16779 0.71857
 O421 O 0.24753 0.17625 0.78931
 O422 O 0.28059 0.16718 0.74871
 O423 O 0.17644 0.21212 0.74988
 O424 O 0.16858 0.25333 0.71890
 O425 O 0.21124 0.24613 0.82371
 O426 O 0.25039 0.28095 0.83266
 O427 O 0.25180 0.29029 0.67737
 O428 O 0.21872 0.25165 0.66899
 O429 O 0.32414 0.24712 0.71066
 O430 O 0.33045 0.21490 0.75053
 O431 O 0.29182 0.32237 0.75315
 O432 O 0.25200 0.33107 0.78345
 Zr433 Zr 0.25279 0.30065 0.75035
 O434 O 0.22561 0.27654 0.77639
 Zr435 Zr 0.30177 0.24962 0.74938
 O436 O 0.27689 0.22349 0.77595
 Zr437 Zr 0.25172 0.25150 0.69958
 O438 O 0.22471 0.22506 0.72357
 Zr439 Zr 0.24990 0.24846 0.80130
 O440 O 0.27749 0.27486 0.77745
 Zr441 Zr 0.20000 0.25015 0.75102
 O442 O 0.22475 0.27693 0.72469
 Zr443 Zr 0.24897 0.19918 0.75084
 O444 O 0.27621 0.22305 0.72399
 O445 O 0.27872 0.27699 0.72351
 O446 O 0.22266 0.22271 0.77757
 C447 C 0.25104 0.31622 0.68593
 C448 C 0.31775 0.31373 0.75266
 C449 C 0.31594 0.24797 0.68460
 C450 C 0.24940 0.18405 0.81543
 C451 C 0.18526 0.24835 0.81553
 C452 C 0.18411 0.18592 0.75063
 H453 H 0.21400 0.28951 0.78813
 H454 H 0.21281 0.21369 0.71050
 H455 H 0.29113 0.28909 0.71158
 H456 H 0.28953 0.21151 0.78774
 H457 H 0.29736 0.26078 0.82610
 H458 H 0.32835 0.23971 0.79661
 H459 H 0.17293 0.23891 0.70421
 H460 H 0.20466 0.26597 0.67537
 H461 H 0.23334 0.29301 0.83020
 H462 H 0.26383 0.32324 0.79902
 H463 H 0.23501 0.17236 0.70461
 H464 H 0.26269 0.20380 0.67500
 H465 H 0.20565 0.32634 0.73931
 H466 H 0.17353 0.29683 0.76416
 H467 H 0.32377 0.20097 0.73622
 H468 H 0.29381 0.17006 0.76483
 O469 O 0.74711 0.67787 0.71031
 O470 O 0.77972 0.66940 0.74890
 O471 O 0.67490 0.71323 0.74996
 O472 O 0.66524 0.74969 0.77910
 O473 O 0.71000 0.75369 0.67576
 O474 O 0.74994 0.78299 0.66742
 O475 O 0.75168 0.79079 0.82337
 O476 O 0.71793 0.75435 0.83146
 O477 O 0.82307 0.75040 0.78849
 O478 O 0.83253 0.72078 0.74895
 O479 O 0.78906 0.82467 0.75271
 O480 O 0.74938 0.83406 0.71869
 O481 O 0.74896 0.82501 0.78929
 O482 O 0.71844 0.83402 0.74788
 O483 O 0.82298 0.79030 0.74972
 O484 O 0.82995 0.74824 0.71670
 O485 O 0.78919 0.75372 0.82285
 O486 O 0.74964 0.71968 0.83148
 O487 O 0.75010 0.71207 0.67612
 O488 O 0.78116 0.75205 0.66798
 O489 O 0.67570 0.75211 0.70989
 O490 O 0.66947 0.78593 0.74939
 O491 O 0.70877 0.67870 0.75213
 O492 O 0.74939 0.66987 0.78132
 Zr493 Zr 0.74754 0.70082 0.74877
 O494 O 0.77470 0.72483 0.77504
 Zr495 Zr 0.69827 0.75129 0.74859
 O496 O 0.72293 0.77734 0.77555
 Zr497 Zr 0.74836 0.75076 0.69871
 O498 O 0.77503 0.77721 0.72313
 Zr499 Zr 0.75045 0.75245 0.80045
 O500 O 0.72288 0.72604 0.77639
 Zr501 Zr 0.80002 0.75187 0.75014
 O502 O 0.77545 0.72513 0.72353
 Zr503 Zr 0.75034 0.80237 0.75068
 O504 O 0.72344 0.77849 0.72351
 O505 O 0.72152 0.72465 0.72218
 O506 O 0.77717 0.77883 0.77698
 C507 C 0.74908 0.68599 0.68428
 C508 C 0.68278 0.68714 0.75179
 C509 C 0.68390 0.75364 0.68387
 C510 C 0.75036 0.81684 0.81531
 C511 C 0.81514 0.75201 0.81457
 C512 C 0.81504 0.81638 0.75135
 H513 H 0.78647 0.71175 0.78653
 H514 H 0.78682 0.78890 0.71027
 H515 H 0.70915 0.71262 0.71010
 H516 H 0.71024 0.78899 0.78760
 H517 H 0.70294 0.74088 0.82533
 H518 H 0.67139 0.76112 0.79566
 H519 H 0.82779 0.76504 0.70423
 H520 H 0.79577 0.73819 0.67414
 H521 H 0.76614 0.70703 0.82830
 H522 H 0.73753 0.67714 0.79711
 H523 H 0.76561 0.83074 0.70574
 H524 H 0.73886 0.79918 0.67505
 H525 H 0.79412 0.67547 0.73478
 H526 H 0.82579 0.70426 0.76006
 H527 H 0.67497 0.79890 0.73375
 H528 H 0.70387 0.82966 0.76241
 O529 O 0.24722 0.67493 0.28883
 O530 O 0.21704 0.66634 0.24840
 O531 O 0.32273 0.70867 0.24913
 O532 O 0.33237 0.74479 0.21898
 O533 O 0.28810 0.75076 0.32249
 O534 O 0.24757 0.78025 0.33044
 O535 O 0.25091 0.78700 0.17491
 O536 O 0.28199 0.74709 0.16814
 O537 O 0.17567 0.74784 0.20907
 O538 O 0.16725 0.71598 0.25019
 O539 O 0.20932 0.82123 0.24604
 O540 O 0.24978 0.83015 0.27987
 O541 O 0.24725 0.82121 0.20892
 O542 O 0.27982 0.83059 0.24915
 O543 O 0.17524 0.78697 0.24816
 O544 O 0.16618 0.74677 0.27935
 O545 O 0.20989 0.75161 0.17509
 O546 O 0.24306 0.71778 0.16570
 O547 O 0.24971 0.70932 0.32289
 O548 O 0.21677 0.74799 0.33028
 O549 O 0.32242 0.74778 0.28849
 O550 O 0.32934 0.78089 0.24878
 O551 O 0.28848 0.67444 0.24894
 O552 O 0.24778 0.66496 0.21850
 Zr553 Zr 0.24981 0.69710 0.24997
 O554 O 0.22358 0.72138 0.22303
 Zr555 Zr 0.29975 0.74698 0.24987
 O556 O 0.27556 0.77354 0.22302
 Zr557 Zr 0.24969 0.74754 0.29966
 O558 O 0.22310 0.77381 0.27503
 Zr559 Zr 0.24827 0.74877 0.19789
 O560 O 0.27502 0.72163 0.22214
 Zr561 Zr 0.19819 0.74860 0.24776
 O562 O 0.22228 0.72206 0.27497
 Zr563 Zr 0.24801 0.79877 0.24759
 O564 O 0.27489 0.77478 0.27472
 O565 O 0.27608 0.72086 0.27639
 O566 O 0.22143 0.77533 0.22105
 C567 C 0.24790 0.68326 0.31487
 C568 C 0.31456 0.68261 0.24866
 C569 C 0.31420 0.74985 0.31446
 C570 C 0.24919 0.81304 0.18294
 C571 C 0.18384 0.74990 0.18310
 C572 C 0.18329 0.81302 0.24690
 H573 H 0.21214 0.70851 0.21094
 H574 H 0.21129 0.78559 0.28780
 H575 H 0.28821 0.70882 0.28868
 H576 H 0.28853 0.78509 0.21119
 H577 H 0.29401 0.73059 0.17336
 H578 H 0.32560 0.75520 0.20201
 H579 H 0.17135 0.76046 0.29446
 H580 H 0.20249 0.73386 0.32397
 H581 H 0.25178 0.70015 0.17301
 H582 H 0.26375 0.66817 0.20517
 H583 H 0.23319 0.82741 0.29249
 H584 H 0.25969 0.79591 0.32333
 H585 H 0.20207 0.67281 0.26171
 H586 H 0.17111 0.70226 0.23471
 H587 H 0.32321 0.79480 0.26335
 H588 H 0.29403 0.82618 0.23429
 O589 O 0.75008 0.32354 0.28969
 O590 O 0.78298 0.33144 0.25152
 O591 O 0.67738 0.28960 0.24942
 O592 O 0.66692 0.25342 0.22051
 O593 O 0.71134 0.24845 0.32389
 O594 O 0.75053 0.21848 0.33259
 O595 O 0.75426 0.21085 0.17651
 O596 O 0.71999 0.24702 0.16821
 O597 O 0.82468 0.24638 0.21177
 O598 O 0.83552 0.27766 0.24931
 O599 O 0.78897 0.17568 0.24757
 O600 O 0.74907 0.16680 0.28054
 O601 O 0.74906 0.17665 0.21032
 O602 O 0.71786 0.16842 0.25184
 O603 O 0.82353 0.20920 0.25214
 O604 O 0.83096 0.25260 0.28390
 O605 O 0.79101 0.25037 0.17723
 O606 O 0.75103 0.28195 0.16849
 O607 O 0.75209 0.28928 0.32388
 O608 O 0.78257 0.24857 0.33202
 O609 O 0.67719 0.25096 0.28962
 O610 O 0.67057 0.21699 0.25018
 O611 O 0.71185 0.32355 0.24784
 O612 O 0.75311 0.33151 0.21868
 Zr613 Zr 0.75024 0.30063 0.25123
 O614 O 0.77705 0.27603 0.22520
 Zr615 Zr 0.69994 0.25114 0.25105
 O616 O 0.72415 0.22472 0.22408
 Zr617 Zr 0.74984 0.25062 0.30120
 O618 O 0.77589 0.22346 0.27693
 Zr619 Zr 0.75228 0.24919 0.19948
 O620 O 0.72511 0.27604 0.22343
 Zr621 Zr 0.80158 0.24813 0.25005
 O622 O 0.77760 0.27562 0.27650
 Zr623 Zr 0.75080 0.19898 0.24909
 O624 O 0.72444 0.22342 0.27625
 O625 O 0.72363 0.27728 0.27761
 O626 O 0.77823 0.22193 0.22294
 C627 C 0.75161 0.31538 0.31573
 C628 C 0.68572 0.31554 0.24782
 C629 C 0.68529 0.24917 0.31567
 C630 C 0.75168 0.18484 0.18441
 C631 C 0.81691 0.24839 0.18565
 C632 C 0.81507 0.18334 0.25005
 H633 H 0.78920 0.28885 0.21383
 H634 H 0.78729 0.21154 0.28997
 H635 H 0.71145 0.28956 0.28961
 H636 H 0.71131 0.21339 0.21186
 H637 H 0.70473 0.26015 0.17438
 H638 H 0.67261 0.24156 0.20411
 H639 H 0.82871 0.23594 0.29655
 H640 H 0.79708 0.26276 0.32645
 H641 H 0.76594 0.29602 0.17320
 H642 H 0.73972 0.32557 0.20353
 H643 H 0.76448 0.17042 0.29439
 H644 H 0.73930 0.20244 0.32485
 H645 H 0.79744 0.32473 0.26530
 H646 H 0.82839 0.29512 0.24004
 H647 H 0.67560 0.20411 0.26607
 H648 H 0.70384 0.17275 0.23674
 C649 C 0.25309 0.09702 0.10103
 N650 N 0.23098 0.07860 0.09874
 N651 N 0.23049 0.05918 0.07810
 C652 C 0.25230 0.05722 0.05929
 N653 N 0.27452 0.07549 0.06173
 N654 N 0.27479 0.09521 0.08209
 C655 C 0.25340 0.11871 0.12346
 N656 N 0.26751 0.14359 0.11959
 N657 N 0.26726 0.16357 0.13969
 C658 C 0.25333 0.15916 0.16459
 N659 N 0.23948 0.13416 0.16859
 N660 N 0.23933 0.11436 0.14829
 C661 C 0.75000 0.60107 0.59948
 N662 N 0.72833 0.58209 0.59761
 N663 N 0.72834 0.56215 0.57746
 C664 C 0.75026 0.56021 0.55879
 N665 N 0.77205 0.57905 0.56080
 N666 N 0.77180 0.59928 0.58065
 C667 C 0.74987 0.62312 0.62152
 N668 N 0.76335 0.64828 0.61722
 N669 N 0.76296 0.66842 0.63716
 C670 C 0.74950 0.66391 0.66229
 N671 N 0.73622 0.63865 0.66668
 N672 N 0.73621 0.61870 0.64656
 C673 C 0.74860 0.89996 0.09774
 N674 N 0.77312 0.90718 0.08434
 N675 N 0.77339 0.92798 0.06509
 C676 C 0.74905 0.94197 0.05818
 N677 N 0.72450 0.93453 0.07146
 N678 N 0.72434 0.91410 0.09109
 C679 C 0.74836 0.87745 0.11929
 N680 N 0.73100 0.87943 0.14226
 N681 N 0.73115 0.85928 0.16218
 C682 C 0.74822 0.83615 0.15952
 N683 N 0.76535 0.83400 0.13639
 N684 N 0.76559 0.85442 0.11673
 C685 C 0.25085 0.40128 0.60145
 N686 N 0.27245 0.40285 0.58238
 N687 N 0.27242 0.42275 0.56222
 C688 C 0.25052 0.44143 0.56013
 N689 N 0.22881 0.43974 0.57906
 N690 N 0.22908 0.42014 0.59953
 C691 C 0.25089 0.37930 0.62350
 N692 N 0.23780 0.38382 0.64884
 N693 N 0.23802 0.36381 0.66891
 C694 C 0.25089 0.33842 0.66410
 N695 N 0.26378 0.33384 0.63869
 N696 N 0.26398 0.35402 0.61882
 C697 C 0.74870 0.10071 0.90095
 N698 N 0.72709 0.08165 0.90274
 N699 N 0.72710 0.06176 0.92293
 C700 C 0.74897 0.05994 0.94172
 N701 N 0.77070 0.07883 0.93977
 N702 N 0.77045 0.09901 0.91989
 C703 C 0.74854 0.12286 0.87902
 N704 N 0.76169 0.14812 0.88373
 N705 N 0.76153 0.16833 0.86388
 C706 C 0.74861 0.16384 0.83844
 N707 N 0.73564 0.13849 0.83363
 N708 N 0.73539 0.11845 0.85367
 C709 C 0.24823 0.59852 0.39962
 N710 N 0.22677 0.57931 0.40148
 N711 N 0.22705 0.55940 0.42163
 C712 C 0.24904 0.55772 0.44028
 N713 N 0.27061 0.57678 0.43826
 N714 N 0.27010 0.59697 0.41840
 C715 C 0.24781 0.62062 0.37770
 N716 N 0.26108 0.64585 0.38218
 N717 N 0.26073 0.66598 0.36226
 C718 C 0.24747 0.66141 0.33702
 N719 N 0.23436 0.63610 0.33246
 N720 N 0.23431 0.61614 0.35257
 C721 C 0.25071 0.89976 0.90068
 N722 N 0.27516 0.90655 0.91444
 N723 N 0.27537 0.92683 0.93424
 C724 C 0.25103 0.94068 0.94137
 N725 N 0.22652 0.93364 0.92776
 N726 N 0.22643 0.91374 0.90758
 C727 C 0.25054 0.87782 0.87856
 N728 N 0.23381 0.88076 0.85522
 N729 N 0.23382 0.86097 0.83493
 C730 C 0.25015 0.83731 0.83754
 N731 N 0.26668 0.83423 0.86102
 N732 N 0.26709 0.85429 0.88106
 C733 C 0.75168 0.40042 0.40047
 N734 N 0.72986 0.41926 0.40208
 N735 N 0.72955 0.43925 0.42216
 C736 C 0.75131 0.44142 0.44103
 N737 N 0.77325 0.42273 0.43929
 N738 N 0.77332 0.40243 0.41950
 C739 C 0.75188 0.37834 0.37844
 N740 N 0.76525 0.35315 0.38297
 N741 N 0.76507 0.33297 0.36305
 C742 C 0.75195 0.33750 0.33771
 N743 N 0.73880 0.36278 0.33311
 N744 N 0.73857 0.38276 0.35321
 C745 C 0.10246 0.25157 0.09832
 N746 N 0.10067 0.23002 0.07920
 N747 N 0.08017 0.22981 0.05963
 C748 C 0.06101 0.25136 0.05822
 N749 N 0.06295 0.27305 0.07717
 N750 N 0.08319 0.27304 0.09703
 C751 C 0.12462 0.25141 0.12026
 N752 N 0.12033 0.26472 0.14552
 N753 N 0.14017 0.26396 0.16574
 C754 C 0.16519 0.25025 0.16125
 N755 N 0.16959 0.23718 0.13588
 N756 N 0.14956 0.23756 0.11583
 C757 C 0.59910 0.75474 0.59891
 N758 N 0.59776 0.77570 0.57909
 N759 N 0.57763 0.77536 0.55910
 C760 C 0.55846 0.75380 0.55798
 N761 N 0.55996 0.73275 0.57766
 N762 N 0.57977 0.73333 0.59790
 C763 C 0.62103 0.75504 0.62108
 N764 N 0.61620 0.74222 0.64648
 N765 N 0.63614 0.74215 0.66661
 C766 C 0.66181 0.75449 0.66189
 N767 N 0.66673 0.76716 0.63641
 N768 N 0.64660 0.76763 0.61643
 C769 C 0.09817 0.74913 0.89953
 N770 N 0.08290 0.77303 0.90494
 N771 N 0.06294 0.77312 0.92506
 C772 C 0.05715 0.74916 0.94013
 N773 N 0.07229 0.72520 0.93448
 N774 N 0.09261 0.72525 0.91474
 C775 C 0.12026 0.74909 0.87753
 N776 N 0.14414 0.73316 0.88069
 N777 N 0.16433 0.73338 0.86081
 C778 C 0.16107 0.74909 0.83680
 N779 N 0.13706 0.76481 0.83353
 N780 N 0.11713 0.76501 0.85366
 C781 C 0.60071 0.24889 0.40065
 N782 N 0.59901 0.22727 0.41969
 N783 N 0.57894 0.22727 0.43967
 C784 C 0.56018 0.24913 0.44161
 N785 N 0.56204 0.27088 0.42274
 N786 N 0.58182 0.27065 0.40246
 C787 C 0.62261 0.24876 0.37851
 N788 N 0.61807 0.26218 0.35336
 N789 N 0.63794 0.26197 0.33318
 C790 C 0.66321 0.24873 0.33762
 N791 N 0.66784 0.23550 0.36285
 N792 N 0.64779 0.23530 0.38286
 C793 C 0.90091 0.74743 0.09982
 N794 N 0.90181 0.72649 0.07997
 N795 N 0.92153 0.72677 0.05962
 C796 C 0.94073 0.74827 0.05810
 N797 N 0.93970 0.76934 0.07783
 N798 N 0.92026 0.76882 0.09845
 C799 C 0.87915 0.74713 0.12220
 N800 N 0.88367 0.76066 0.14732
 N801 N 0.86379 0.76055 0.16752
 C802 C 0.83853 0.74726 0.16315
 N803 N 0.83396 0.73385 0.13798
 N804 N 0.85401 0.73359 0.11796
 C805 C 0.40113 0.24785 0.60024
 N806 N 0.42113 0.22706 0.59934
 N807 N 0.44120 0.22728 0.57936
 C808 C 0.44224 0.24856 0.55987
 N809 N 0.42238 0.26948 0.56092
 N810 N 0.40205 0.26901 0.58063
 C811 C 0.37889 0.24750 0.62204
 N812 N 0.35349 0.26034 0.61721
 N813 N 0.33327 0.26008 0.63703
 C814 C 0.33788 0.24733 0.66252
 N815 N 0.36335 0.23463 0.66742
 N816 N 0.38342 0.23450 0.64742
 C817 C 0.90086 0.25077 0.90236
 N818 N 0.90692 0.22648 0.91676
 N819 N 0.92736 0.22611 0.93644
 C820 C 0.94208 0.25016 0.94279
 N821 N 0.93577 0.27447 0.92851
 N822 N 0.91574 0.27471 0.90848
 C823 C 0.87869 0.25123 0.88048
 N824 N 0.88168 0.26777 0.85701
 N825 N 0.86162 0.26812 0.83697
 C826 C 0.83760 0.25243 0.84003
 N827 N 0.83448 0.23610 0.86364
 N828 N 0.85478 0.23533 0.88341
 C829 C 0.39830 0.74944 0.40012
 N830 N 0.39960 0.77081 0.41947
 N831 N 0.41976 0.77099 0.43938
 C832 C 0.43904 0.74955 0.44096
 N833 N 0.43757 0.72800 0.42180
 N834 N 0.41767 0.72806 0.40159
 C835 C 0.37647 0.74963 0.37785
 N836 N 0.38121 0.73656 0.35256
 N837 N 0.36149 0.73702 0.33220
 C838 C 0.33619 0.75024 0.33656
 N839 N 0.33136 0.76313 0.36194
 N840 N 0.35126 0.76306 0.38213
 C841 C 0.09892 0.09903 0.25216
 N842 N 0.07941 0.09794 0.23087
 N843 N 0.05965 0.07762 0.23046
 C844 C 0.05843 0.05794 0.25154
 N845 N 0.07780 0.05917 0.27294
 N846 N 0.09783 0.07921 0.27312
 C847 C 0.12090 0.12118 0.25242
 N848 N 0.14617 0.11664 0.26566
 N849 N 0.16633 0.13657 0.26548
 C850 C 0.16174 0.16194 0.25247
 N851 N 0.13637 0.16657 0.23946
 N852 N 0.11639 0.14648 0.23926
 C853 C 0.59787 0.60242 0.75325
 N854 N 0.57819 0.60124 0.73214
 N855 N 0.55854 0.58081 0.73188
 C856 C 0.55763 0.56114 0.75298
 N857 N 0.57716 0.56247 0.77422
 N858 N 0.59709 0.58261 0.77422
 C859 C 0.61977 0.62459 0.75328
 N860 N 0.64529 0.61999 0.76598
 N861 N 0.66541 0.63993 0.76553
 C862 C 0.66052 0.66537 0.75278
 N863 N 0.63490 0.67007 0.74032
 N864 N 0.61494 0.64996 0.74037
 C865 C 0.90072 0.10087 0.74960
 N866 N 0.90593 0.08553 0.72571
 N867 N 0.92597 0.06549 0.72558
 C868 C 0.94115 0.05968 0.74949
 N869 N 0.93569 0.07486 0.77347
 N870 N 0.91602 0.09527 0.77344
 C871 C 0.87895 0.12316 0.74965
 N872 N 0.88247 0.14700 0.76555
 N873 N 0.86275 0.16735 0.76551
 C874 C 0.83859 0.16434 0.74996
 N875 N 0.83495 0.14038 0.73426
 N876 N 0.85492 0.12027 0.73389
 C877 C 0.39905 0.59754 0.25018
 N878 N 0.40014 0.57778 0.22918
 N879 N 0.42043 0.55803 0.22908
 C880 C 0.44005 0.55703 0.25025
 N881 N 0.43880 0.57660 0.27144
 N882 N 0.41877 0.59666 0.27128
 C883 C 0.37708 0.61961 0.24986
 N884 N 0.38199 0.64535 0.26196
 N885 N 0.36215 0.66557 0.26123
 C886 C 0.33659 0.66061 0.24873
 N887 N 0.33160 0.63479 0.23684
 N888 N 0.35161 0.61473 0.23715
 C889 C 0.09916 0.90177 0.74786
 N890 N 0.09822 0.92182 0.72712
 N891 N 0.07809 0.94178 0.72728
 C892 C 0.05848 0.94266 0.74845
 N893 N 0.05957 0.92276 0.76933
 N894 N 0.07942 0.90253 0.76891
 C895 C 0.12104 0.87954 0.74754
 N896 N 0.11604 0.85397 0.75994
 N897 N 0.13585 0.83372 0.75968
 C898 C 0.16154 0.83846 0.74739
 N899 N 0.16663 0.86411 0.73516
 N900 N 0.14664 0.88422 0.73501
 C901 C 0.60077 0.40013 0.24594
 N902 N 0.59929 0.41976 0.22481
 N903 N 0.57897 0.43954 0.22497
 C904 C 0.55977 0.44062 0.24650
 N905 N 0.56143 0.42114 0.26771
 N906 N 0.58142 0.40110 0.26731
 C907 C 0.62280 0.37812 0.24583
 N908 N 0.61800 0.35279 0.25876
 N909 N 0.63799 0.33275 0.25902
 C910 C 0.66368 0.33750 0.24678
 N911 N 0.66860 0.36292 0.23399
 N912 N 0.64840 0.38281 0.23332
 C913 C 0.90000 0.90024 0.25107
 N914 N 0.90714 0.91381 0.22663
 N915 N 0.92760 0.93342 0.22651
 C916 C 0.94131 0.94055 0.25094
 N917 N 0.93396 0.92709 0.27544
 N918 N 0.91387 0.90711 0.27545
 C919 C 0.87763 0.87854 0.25114
 N920 N 0.87936 0.85572 0.26875
 N921 N 0.85921 0.83578 0.26848
 C922 C 0.83634 0.83828 0.25101
 N923 N 0.83448 0.86124 0.23362
 N924 N 0.85488 0.88090 0.23350
 C925 C 0.40242 0.39867 0.75386
 N926 N 0.42202 0.39993 0.73271
 N927 N 0.44142 0.42059 0.73230
 C928 C 0.44213 0.44045 0.75325
 N929 N 0.42268 0.43903 0.77452
 N930 N 0.40301 0.41864 0.77469
 C931 C 0.38069 0.37634 0.75402
 N932 N 0.35525 0.38084 0.76688
 N933 N 0.33520 0.36083 0.76650
 C934 C 0.34008 0.33543 0.75368
 N935 N 0.36564 0.33081 0.74107
 N936 N 0.38553 0.35099 0.74106
 C937 C 0.10015 0.24879 0.90000
 N938 N 0.09770 0.22684 0.91857
 N939 N 0.07750 0.22702 0.93843
 C940 C 0.05936 0.24937 0.94070
 N941 N 0.06196 0.27143 0.92228
 N942 N 0.08186 0.27103 0.90212
 C943 C 0.12222 0.24851 0.87802
 N944 N 0.11828 0.26266 0.85318
 N945 N 0.13829 0.26234 0.83313
 C946 C 0.16312 0.24823 0.83742
 N947 N 0.16715 0.23424 0.86235
 N948 N 0.14694 0.23418 0.88221
 C949 C 0.59747 0.74949 0.39769
 N950 N 0.59648 0.72863 0.41762
 N951 N 0.57663 0.72894 0.43783
 C952 C 0.55735 0.75040 0.43913
 N953 N 0.55846 0.77138 0.41933
 N954 N 0.57804 0.77083 0.39885
 C955 C 0.61939 0.74910 0.37548
 N956 N 0.61489 0.76211 0.35009
 N957 N 0.63487 0.76175 0.32998
 C958 C 0.66022 0.74874 0.33472
 N959 N 0.66477 0.73588 0.36017
 N960 N 0.64463 0.73585 0.38010
 C961 C 0.90005 0.75047 0.89941
 N962 N 0.90559 0.77413 0.91499
 N963 N 0.92578 0.77386 0.93489
 C964 C 0.94079 0.74977 0.94033
 N965 N 0.93501 0.72602 0.92490
 N966 N 0.91518 0.72645 0.90463
 C967 C 0.87803 0.75090 0.87733
 N968 N 0.88102 0.73517 0.85330
 N969 N 0.86111 0.73579 0.83312
 C970 C 0.83729 0.75176 0.83650
 N971 N 0.83419 0.76729 0.86064
 N972 N 0.85435 0.76708 0.88058
 C973 C 0.40089 0.24679 0.40138
 N974 N 0.40237 0.22558 0.42094
 N975 N 0.42280 0.22554 0.44064
 C976 C 0.44216 0.24695 0.44171
 N977 N 0.44053 0.26821 0.42227
 N978 N 0.42043 0.26801 0.40231
 C979 C 0.37863 0.24696 0.37953
 N980 N 0.38319 0.26010 0.35425
 N981 N 0.36305 0.26041 0.33432
 C982 C 0.33743 0.24805 0.33916
 N983 N 0.33274 0.23510 0.36454
 N984 N 0.35307 0.23439 0.38432
 C985 C 0.09924 0.74970 0.09788
 N986 N 0.09812 0.77071 0.07812
 N987 N 0.07797 0.77065 0.05817
 C988 C 0.05852 0.74934 0.05701
 N989 N 0.05979 0.72820 0.07662
 N990 N 0.07967 0.72850 0.09684
 C991 C 0.12119 0.74992 0.12004
 N992 N 0.11658 0.73680 0.14533
 N993 N 0.13645 0.73709 0.16554
 C994 C 0.16181 0.75012 0.16102
 N995 N 0.16650 0.76308 0.13565
 N996 N 0.14645 0.76318 0.11560
 C997 C 0.60174 0.25403 0.60014
 N998 N 0.60075 0.23237 0.58108
 N999 N 0.58048 0.23149 0.56130
 C1000 C 0.56075 0.25249 0.55957
 N1001 N 0.56187 0.27431 0.57846
 N1002 N 0.58189 0.27495 0.59855
 C1003 C 0.62384 0.25463 0.62215
 N1004 N 0.61912 0.26773 0.64745
 N1005 N 0.63900 0.26757 0.66768
 C1006 C 0.66445 0.25470 0.66313
 N1007 N 0.66926 0.24186 0.63773
 N1008 N 0.64922 0.24162 0.61768
 C1009 C 0.90223 0.24993 0.10135
 N1010 N 0.92181 0.22877 0.09986
 N1011 N 0.94154 0.22885 0.07954
 C1012 C 0.94265 0.25031 0.06027
 N1013 N 0.92324 0.27161 0.06191
 N1014 N 0.90324 0.27130 0.08197
 C1015 C 0.88015 0.24956 0.12334
 N1016 N 0.85486 0.26271 0.11885
 N1017 N 0.83462 0.26210 0.13865
 C1018 C 0.83913 0.24870 0.16382
 N1019 N 0.86452 0.23573 0.16842
 N1020 N 0.88460 0.23595 0.14842
 C1021 C 0.40007 0.75100 0.60007
 N1022 N 0.41889 0.72922 0.59788
 N1023 N 0.43868 0.72927 0.57760
 C1024 C 0.44065 0.75133 0.55909
 N1025 N 0.42200 0.77325 0.56144
 N1026 N 0.40192 0.77297 0.58143
 C1027 C 0.37794 0.75069 0.62207
 N1028 N 0.35291 0.76445 0.61785
 N1029 N 0.33267 0.76390 0.63767
 C1030 C 0.33690 0.74996 0.66260
 N1031 N 0.36203 0.73639 0.66692
 N1032 N 0.38210 0.73655 0.64691
 C1033 C 0.25068 0.09859 0.89959
 N1034 N 0.22886 0.07983 0.90176
 N1035 N 0.22897 0.05995 0.92195
 C1036 C 0.25112 0.05784 0.94035
 N1037 N 0.27308 0.07643 0.93802
 N1038 N 0.27274 0.09661 0.91813
 C1039 C 0.25035 0.12074 0.87767
 N1040 N 0.26411 0.14574 0.88198
 N1041 N 0.26357 0.16602 0.86221
 C1042 C 0.24965 0.16183 0.83725
 N1043 N 0.23607 0.13673 0.83284
 N1044 N 0.23622 0.11663 0.85282
 C1045 C 0.74924 0.60138 0.40046
 N1046 N 0.72770 0.58224 0.40226
 N1047 N 0.72795 0.56214 0.42223
 C1048 C 0.74999 0.56014 0.44079
 N1049 N 0.77165 0.57914 0.43885
 N1050 N 0.77117 0.59954 0.41917
 C1051 C 0.74887 0.62356 0.37851
 N1052 N 0.76232 0.64875 0.38281
 N1053 N 0.76186 0.66890 0.36286
 C1054 C 0.74833 0.66437 0.33774
 N1055 N 0.73505 0.63911 0.33339
 N1056 N 0.73511 0.61915 0.35350
 C1057 C 0.75066 0.10003 0.09952
 N1058 N 0.72612 0.08642 0.09273
 N1059 N 0.72581 0.06644 0.07262
 C1060 C 0.75014 0.05895 0.05895
 N1061 N 0.77473 0.07243 0.06598
 N1062 N 0.77494 0.09278 0.08571
 C1063 C 0.75094 0.12211 0.12152
 N1064 N 0.76830 0.14506 0.11911
 N1065 N 0.76836 0.16524 0.13903
 C1066 C 0.75146 0.16288 0.16231
 N1067 N 0.73431 0.13980 0.16484
 N1068 N 0.73386 0.11990 0.14467
 C1069 C 0.24929 0.60119 0.59803
 N1070 N 0.22749 0.58233 0.59626
 N1071 N 0.22751 0.56209 0.57643
 C1072 C 0.24956 0.55968 0.55797
 N1073 N 0.27146 0.57841 0.55985
 N1074 N 0.27122 0.59894 0.57940
 C1075 C 0.24926 0.62340 0.61994
 N1076 N 0.26333 0.64826 0.61577
 N1077 N 0.26319 0.66842 0.63571
 C1078 C 0.24936 0.66422 0.66070
 N1079 N 0.23548 0.63926 0.66494
 N1080 N 0.23524 0.61931 0.64482
 C1081 C 0.74963 0.90129 0.90059
 N1082 N 0.72778 0.92007 0.90247
 N1083 N 0.72753 0.93987 0.92276
 C1084 C 0.74936 0.94186 0.94157
 N1085 N 0.77131 0.92321 0.93955
 N1086 N 0.77133 0.90312 0.91956
 C1087 C 0.74983 0.87936 0.87842
 N1088 N 0.76353 0.85431 0.88272
 N1089 N 0.76353 0.83429 0.86266
 C1090 C 0.75026 0.83881 0.83741
 N1091 N 0.73678 0.86397 0.83301
 N1092 N 0.73637 0.88380 0.85325
 C1093 C 0.25169 0.39895 0.40047
 N1094 N 0.27326 0.40099 0.41958
 N1095 N 0.27299 0.42113 0.43953
 C1096 C 0.25089 0.43961 0.44139
 N1097 N 0.22919 0.43742 0.42245
 N1098 N 0.22970 0.41758 0.40220
 C1099 C 0.25210 0.37695 0.37835
 N1100 N 0.23877 0.38129 0.35309
 N1101 N 0.23917 0.36133 0.33297
 C1102 C 0.25251 0.33614 0.33757
 N1103 N 0.26568 0.33173 0.36290
 N1104 N 0.26568 0.35188 0.38284
 C1105 C 0.25044 0.89819 0.09853
 N1106 N 0.27240 0.90014 0.07989
 N1107 N 0.27277 0.92050 0.06020
 C1108 C 0.25098 0.93933 0.05818
 N1109 N 0.22892 0.93724 0.07666
 N1110 N 0.22877 0.91717 0.09665
 C1111 C 0.25014 0.87603 0.12040
 N1112 N 0.23617 0.88028 0.14529
 N1113 N 0.23605 0.86024 0.16531
 C1114 C 0.24950 0.83508 0.16095
 N1115 N 0.26327 0.83072 0.13595
 N1116 N 0.26378 0.85095 0.11611
 C1117 C 0.75086 0.40160 0.60050
 N1118 N 0.77264 0.40337 0.58163
 N1119 N 0.77275 0.42342 0.56160
 C1120 C 0.75084 0.44210 0.55943
 N1121 N 0.72895 0.44019 0.57815
 N1122 N 0.72908 0.42044 0.59847
 C1123 C 0.75083 0.37963 0.62265
 N1124 N 0.73728 0.38411 0.64775
 N1125 N 0.73743 0.36422 0.66794
 C1126 C 0.75071 0.33896 0.66355
 N1127 N 0.76405 0.33439 0.63836
 N1128 N 0.76431 0.35447 0.61836
 C1129 C 0.09870 0.10170 0.74977
 N1130 N 0.07884 0.10097 0.72880
 N1131 N 0.05901 0.08073 0.72845
 C1132 C 0.05809 0.06079 0.74931
 N1133 N 0.07781 0.06166 0.77039
 N1134 N 0.09790 0.08163 0.77049
 C1135 C 0.12078 0.12368 0.75002
 N1136 N 0.14622 0.11866 0.76273
 N1137 N 0.16644 0.13848 0.76278
 C1138 C 0.16178 0.16420 0.75054
 N1139 N 0.13625 0.16933 0.73805
 N1140 N 0.11617 0.14933 0.73760
 C1141 C 0.59911 0.60005 0.24907
 N1142 N 0.57953 0.59885 0.22786
 N1143 N 0.55978 0.57851 0.22761
 C1144 C 0.55865 0.55893 0.24879
 N1145 N 0.57810 0.56027 0.27011
 N1146 N 0.59811 0.58033 0.27013
 C1147 C 0.62105 0.62224 0.24923
 N1148 N 0.64632 0.61778 0.26251
 N1149 N 0.66635 0.63782 0.26247
 C1150 C 0.66166 0.66321 0.24956
 N1151 N 0.63630 0.66777 0.23649
 N1152 N 0.61643 0.64755 0.23614
 C1153 C 0.09854 0.89793 0.24685
 N1154 N 0.09712 0.91768 0.22584
 N1155 N 0.07714 0.93780 0.22632
 C1156 C 0.05823 0.93912 0.24808
 N1157 N 0.05980 0.91949 0.26918
 N1158 N 0.07946 0.89912 0.26846
 C1159 C 0.12043 0.87575 0.24642
 N1160 N 0.11579 0.85041 0.25944
 N1161 N 0.13573 0.83029 0.25929
 C1162 C 0.16119 0.83497 0.24654
 N1163 N 0.16590 0.86038 0.23366
 N1164 N 0.14578 0.88034 0.23341
 C1165 C 0.60119 0.40260 0.75251
 N1166 N 0.59999 0.42246 0.73160
 N1167 N 0.57964 0.44219 0.73163
 C1168 C 0.56006 0.44305 0.75282
 N1169 N 0.56142 0.42336 0.77388
 N1170 N 0.58150 0.40335 0.77361
 C1171 C 0.62328 0.38056 0.75220
 N1172 N 0.61867 0.35502 0.76482
 N1173 N 0.63857 0.33485 0.76423
 C1174 C 0.66397 0.33967 0.75138
 N1175 N 0.66868 0.36530 0.73895
 N1176 N 0.64859 0.38531 0.73915
 C1177 C 0.89877 0.09744 0.25277
 N1178 N 0.90033 0.07823 0.23130
 N1179 N 0.92060 0.05845 0.23117
 C1180 C 0.93975 0.05688 0.25273
 N1181 N 0.93803 0.07591 0.27438
 N1182 N 0.91801 0.09599 0.27428
 C1183 C 0.87688 0.11962 0.25240
 N1184 N 0.88135 0.14486 0.26566
 N1185 N 0.86171 0.16526 0.26470
 C1186 C 0.83675 0.16098 0.25079
 N1187 N 0.83218 0.13564 0.23775
 N1188 N 0.85201 0.11541 0.23833
 C1189 C 0.39780 0.59893 0.75075
 N1190 N 0.39945 0.57911 0.72981
 N1191 N 0.41989 0.55948 0.73016
 C1192 C 0.43914 0.55869 0.75170
 N1193 N 0.43733 0.57834 0.77277
 N1194 N 0.41716 0.59824 0.77219
 C1195 C 0.37570 0.62097 0.75008
 N1196 N 0.38001 0.64633 0.76318
 N1197 N 0.36014 0.66651 0.76237
 C1198 C 0.33505 0.66191 0.74881
 N1199 N 0.33062 0.63646 0.73590
 N1200 N 0.35069 0.61642 0.73632
 C1201 C 0.89986 0.90123 0.75077
 N1202 N 0.91935 0.90221 0.72950
 N1203 N 0.93910 0.92252 0.72901
 C1204 C 0.94031 0.94230 0.75001
 N1205 N 0.92095 0.94120 0.77139
 N1206 N 0.90093 0.92115 0.77164
 C1207 C 0.87793 0.87909 0.75114
 N1208 N 0.85265 0.88373 0.76428
 N1209 N 0.83255 0.86376 0.76427
 C1210 C 0.83721 0.83827 0.75154
 N1211 N 0.86259 0.83353 0.73862
 N1212 N 0.88252 0.85367 0.73824
 C1213 C 0.40131 0.39807 0.25009
 N1214 N 0.40295 0.41666 0.22806
 N1215 N 0.42302 0.43666 0.22757
 C1216 C 0.44186 0.43909 0.24933
 N1217 N 0.44009 0.42063 0.27146
 N1218 N 0.42031 0.40033 0.27172
 C1219 C 0.37923 0.37602 0.25059
 N1220 N 0.38362 0.35113 0.26455
 N1221 N 0.36362 0.33104 0.26480
 C1222 C 0.33832 0.33535 0.25153
 N1223 N 0.33385 0.36035 0.23779
 N1224 N 0.35402 0.38023 0.23714
   
