data_POSCAR
  _audit_creation_date              2014-09-24
  _audit_creation_method            'ToBaCCo'
  _symmetry_space_group_name_H-M    'P1'
  _symmetry_Int_Tables_number       1
  _symmetry_cell_setting            triclinic
  loop_
  _symmetry_equiv_pos_as_xyz
 x,y,z
_cell_length_a 49.4424
_cell_length_b 49.1290
_cell_length_c 49.1576
_cell_angle_alpha 90.470400
_cell_angle_beta 88.365900
_cell_angle_gamma 89.485700
loop_
  _atom_site_label
  _atom_site_type_symbol
  _atom_site_fract_x
  _atom_site_fract_y
  _atom_site_fract_z
C1 C 0.73131 0.66123 0.96122
 H2 H 0.75212 0.66235 0.95391
 C3 C 0.71116 0.67592 0.94826
 H4 H 0.71659 0.68853 0.93101
 C5 C 0.69875 0.64240 0.99177
 H6 H 0.69381 0.62864 1.00815
 C7 C 0.67799 0.65668 0.97942
 H8 H 0.65741 0.65342 0.98658
 N9 N 0.72479 0.64486 0.98253
 C10 C 0.79953 0.63040 1.02548
 H11 H 0.79982 0.60838 1.02527
 C12 C 0.81981 0.64463 1.03852
 H13 H 0.83560 0.63333 1.04833
 C14 C 0.77778 0.67169 1.01379
 H15 H 0.76112 0.68212 1.00450
 C16 C 0.79749 0.68675 1.02694
 H17 H 0.79609 0.70876 1.02743
 Zn18 Zn 0.75211 0.62268 0.99709
 N19 N 0.77930 0.64402 1.01308
 C20 C 0.79355 0.60216 0.96130
 N21 N 0.76676 0.60100 0.96809
 C22 C 0.74956 0.58605 0.95304
 C23 C 0.75924 0.57117 0.93037
 C24 C 0.80415 0.58749 0.93897
 C25 C 0.72918 0.61498 1.04808
 C26 C 0.71687 0.60153 1.06989
 C27 C 0.72067 0.55952 1.04407
 C28 C 0.73313 0.57386 1.02275
 N29 N 0.73682 0.60116 1.02507
 H30 H 0.80676 0.61499 0.97279
 H31 H 0.72819 0.58602 0.95843
 H32 H 0.74509 0.55951 0.91864
 H33 H 0.82542 0.58976 0.93409
 H34 H 0.73226 0.63673 1.04926
 H35 H 0.71037 0.61372 1.08727
 H36 H 0.71763 0.53782 1.04173
 H37 H 0.73955 0.56322 1.00433
 C38 C 0.81895 0.67321 1.03921
 C39 C 0.68410 0.67369 0.95729
 C40 C 0.71240 0.57326 1.06818
 C41 C 0.78694 0.57151 0.92305
 C42 C 0.71214 0.33071 0.52532
 H43 H 0.73033 0.32790 0.53674
 C44 C 0.68847 0.31703 0.53306
 H45 H 0.68895 0.30321 0.55005
 C46 C 0.68955 0.35236 0.48944
 H47 H 0.68976 0.36644 0.47271
 C48 C 0.66561 0.33891 0.49628
 H49 H 0.64772 0.34276 0.48464
 N50 N 0.71212 0.34846 0.50420
 C51 C 0.79390 0.36203 0.47106
 H52 H 0.79349 0.38398 0.46983
 C53 C 0.81558 0.34755 0.45904
 H54 H 0.83168 0.35874 0.44898
 C55 C 0.77195 0.32104 0.48311
 H56 H 0.75466 0.31077 0.49198
 C57 C 0.79320 0.30571 0.47113
 H58 H 0.79219 0.28370 0.47114
 Zn59 Zn 0.74297 0.37034 0.49642
 N60 N 0.77273 0.34873 0.48302
 C61 C 0.77654 0.40244 0.52986
 N62 N 0.75222 0.38989 0.52850
 C63 C 0.73428 0.39077 0.55000
 C64 C 0.74097 0.40361 0.57433
 C65 C 0.78412 0.41549 0.55381
 C66 C 0.73534 0.38535 0.44277
 C67 C 0.72535 0.40082 0.42160
 C68 C 0.71266 0.43599 0.45431
 C69 C 0.72304 0.41979 0.47489
 N70 N 0.73379 0.39486 0.46878
 H71 H 0.79040 0.40206 0.51254
 H72 H 0.71468 0.38147 0.54840
 H73 H 0.72639 0.40360 0.59122
 H74 H 0.80388 0.42462 0.55381
 H75 H 0.74338 0.36515 0.43859
 H76 H 0.72623 0.39176 0.40153
 H77 H 0.70357 0.45552 0.45971
 H78 H 0.72162 0.42665 0.49584
 C79 C 0.81547 0.31897 0.45909
 C80 C 0.66462 0.32161 0.51877
 C81 C 0.71329 0.42649 0.42720
 C82 C 0.76634 0.41591 0.57682
 C83 C 0.22747 -0.15240 0.03326
 H84 H 0.24798 -0.15175 0.04032
 C85 C 0.20810 -0.16778 0.04723
 H86 H 0.21389 -0.17913 0.06498
 C87 C 0.19484 -0.13742 0.00219
 H88 H 0.18963 -0.12490 -0.01489
 C89 C 0.17478 -0.15259 0.01556
 H90 H 0.15432 -0.15128 0.00848
 N91 N 0.22057 -0.13759 0.01125
 C92 C 0.29710 -0.12151 -0.03134
 H93 H 0.29603 -0.09952 -0.03195
 C94 C 0.31916 -0.13525 -0.04349
 H95 H 0.33475 -0.12354 -0.05374
 C96 C 0.27707 -0.16325 -0.01833
 H97 H 0.26040 -0.17407 -0.00889
 C98 C 0.29873 -0.17784 -0.03037
 H99 H 0.29869 -0.19988 -0.02989
 Zn100 Zn 0.24751 -0.11481 -0.00389
 N101 N 0.27680 -0.13557 -0.01881
 C102 C 0.28524 -0.09472 0.03301
 N103 N 0.25934 -0.09247 0.02476
 C104 C 0.24106 -0.07604 0.03820
 C105 C 0.24865 -0.06097 0.06092
 C106 C 0.29363 -0.08031 0.05574
 C107 C 0.22744 -0.10770 -0.05539
 C108 C 0.21958 -0.09383 -0.07854
 C109 C 0.22467 -0.05142 -0.05407
 C110 C 0.23274 -0.06617 -0.03146
 N111 N 0.23396 -0.09381 -0.03255
 H112 H 0.29936 -0.10821 0.02240
 H113 H 0.22043 -0.07501 0.03150
 H114 H 0.23368 -0.04819 0.07145
 H115 H 0.31454 -0.08246 0.06115
 H116 H 0.22876 -0.12970 -0.05569
 H117 H 0.21428 -0.10596 -0.09595
 H118 H 0.22399 -0.02939 -0.05276
 H119 H 0.23853 -0.05543 -0.01332
 C120 C 0.32025 -0.16383 -0.04289
 C121 C 0.18134 -0.16798 0.03852
 C122 C 0.21843 -0.06510 -0.07831
 C123 C 0.27506 -0.06348 0.07050
 C124 C 0.23349 0.16480 0.46235
 H125 H 0.25442 0.16483 0.45531
 C126 C 0.21403 0.17920 0.44796
 H127 H 0.22029 0.19071 0.43021
 C128 C 0.19964 0.14819 0.49273
 H129 H 0.19378 0.13516 0.50941
 C130 C 0.17957 0.16211 0.47891
 H131 H 0.15878 0.15930 0.48556
 N132 N 0.22602 0.14957 0.48425
 C133 C 0.29591 0.12806 0.53248
 H134 H 0.28945 0.10760 0.53713
 C135 C 0.31978 0.13780 0.54314
 H136 H 0.33137 0.12476 0.55623
 C137 C 0.28901 0.16934 0.50901
 H138 H 0.27703 0.18145 0.49553
 C139 C 0.31302 0.17989 0.51912
 H140 H 0.31886 0.20024 0.51342
 Zn141 Zn 0.25163 0.12553 0.49979
 N142 N 0.28124 0.14363 0.51544
 C143 C 0.29234 0.10135 0.46639
 N144 N 0.26518 0.10275 0.47128
 C145 C 0.24765 0.09083 0.45412
 C146 C 0.25726 0.07779 0.43028
 C147 C 0.30282 0.08839 0.44307
 C148 C 0.22616 0.12008 0.55014
 C149 C 0.21380 0.10738 0.57240
 C150 C 0.22021 0.06414 0.54922
 C151 C 0.23224 0.07782 0.52718
 N152 N 0.23467 0.10535 0.52798
 H153 H 0.30602 0.11114 0.48001
 H154 H 0.22610 0.09243 0.45841
 H155 H 0.24264 0.06897 0.41697
 H156 H 0.32454 0.08819 0.43943
 H157 H 0.22906 0.14188 0.55047
 H158 H 0.20791 0.12002 0.58966
 H159 H 0.21833 0.04219 0.54817
 H160 H 0.23973 0.06646 0.50956
 C161 C 0.32901 0.16375 0.53608
 C162 C 0.18659 0.17777 0.45598
 C163 C 0.21030 0.07892 0.57211
 C164 C 0.28531 0.07709 0.42411
 C165 C 0.16855 0.46252 0.23153
 H166 H 0.16908 0.45583 0.25242
 C167 C 0.18298 0.44809 0.21115
 H168 H 0.19473 0.43031 0.21652
 C169 C 0.15195 0.49336 0.19904
 H170 H 0.13961 0.51083 0.19430
 C171 C 0.16615 0.47964 0.17809
 H172 H 0.16501 0.48747 0.15767
 N173 N 0.15330 0.48461 0.22515
 C174 C 0.14048 0.53532 0.29753
 H175 H 0.11871 0.53748 0.29698
 C176 C 0.15462 0.54800 0.31812
 H177 H 0.14355 0.56034 0.33308
 C178 C 0.18121 0.51704 0.27807
 H179 H 0.19143 0.50496 0.26238
 C180 C 0.19622 0.52959 0.29827
 H181 H 0.21801 0.52703 0.29807
 Zn182 Zn 0.13193 0.50186 0.25295
 N183 N 0.15378 0.51964 0.27846
 C184 C 0.11455 0.47101 0.29804
 N185 N 0.11131 0.47457 0.27095
 C186 C 0.09552 0.45806 0.25598
 C187 C 0.08153 0.43646 0.26783
 C188 C 0.10162 0.45024 0.31215
 C189 C 0.12252 0.55190 0.22940
 C190 C 0.10817 0.57318 0.21777
 C191 C 0.06738 0.54679 0.22299
 C192 C 0.08255 0.52611 0.23489
 N193 N 0.10967 0.52893 0.23759
 H194 H 0.12791 0.48408 0.30901
 H195 H 0.09417 0.46145 0.23434
 H196 H 0.06932 0.42363 0.25517
 H197 H 0.10500 0.44807 0.33370
 H198 H 0.14414 0.55355 0.23172
 H199 H 0.11952 0.59062 0.21091
 H200 H 0.04583 0.54402 0.22079
 H201 H 0.07263 0.50781 0.24175
 C202 C 0.18282 0.54469 0.31899
 C203 C 0.18152 0.45629 0.18395
 C204 C 0.08005 0.57091 0.21442
 C205 C 0.08373 0.43029 0.29817
 C206 C -0.16358 0.03449 0.23244
 H207 H -0.16698 0.04022 0.25357
 C208 C -0.17703 0.04851 0.21202
 H209 H -0.19097 0.06481 0.21791
 C210 C -0.14055 0.00706 0.19937
 H211 H -0.12556 -0.00836 0.19422
 C212 C -0.15345 0.02036 0.17840
 H213 H -0.14760 0.01422 0.15795
 N214 N -0.14595 0.01395 0.22581
 C215 C -0.13309 -0.03752 0.29609
 H216 H -0.11161 -0.04015 0.29200
 C217 C -0.14480 -0.04974 0.31878
 H218 H -0.13221 -0.06181 0.33182
 C219 C -0.17474 -0.01733 0.28336
 H220 H -0.18557 -0.00461 0.26945
 C221 C -0.18864 -0.02884 0.30553
 H222 H -0.21007 -0.02478 0.30855
 Zn223 Zn -0.12574 -0.00424 0.25269
 N224 N -0.14765 -0.02125 0.27969
 C225 C -0.10743 0.02566 0.29740
 N226 N -0.10354 0.02169 0.27015
 C227 C -0.08594 0.03735 0.25555
 C228 C -0.07167 0.05818 0.26836
 C229 C -0.09344 0.04582 0.31102
 C230 C -0.12169 -0.05284 0.22550
 C231 C -0.11029 -0.07495 0.21142
 C232 C -0.06595 -0.05651 0.21907
 C233 C -0.07838 -0.03440 0.23287
 N234 N -0.10581 -0.03291 0.23548
 H235 H -0.12202 0.01378 0.30874
 H236 H -0.08342 0.03407 0.23383
 H237 H -0.05792 0.07021 0.25606
 H238 H -0.09730 0.04857 0.33269
 H239 H -0.14345 -0.05119 0.22809
 H240 H -0.12359 -0.09027 0.20335
 H241 H -0.04416 -0.05681 0.21685
 H242 H -0.06617 -0.01837 0.24120
 C243 C -0.17382 -0.04590 0.32607
 C244 C -0.17229 0.04149 0.18438
 C245 C -0.08210 -0.07714 0.20788
 C246 C -0.07564 0.06289 0.29659
 C247 C 0.34802 0.53786 0.73361
 H248 H 0.34516 0.54453 0.75453
 C249 C 0.33355 0.55038 0.71311
 H250 H 0.31941 0.56667 0.71842
 C251 C 0.37069 0.50917 0.70120
 H252 H 0.38575 0.49365 0.69653
 C253 C 0.35674 0.52120 0.68006
 H254 H 0.36157 0.51463 0.65945
 N255 N 0.36606 0.51757 0.72737
 C256 C 0.37704 0.47490 0.80369
 H257 H 0.39886 0.47574 0.80451
 C258 C 0.36226 0.46148 0.82401
 H259 H 0.37300 0.45178 0.84023
 C260 C 0.33693 0.48531 0.78048
 H261 H 0.32722 0.49413 0.76318
 C262 C 0.32135 0.47183 0.80028
 H263 H 0.29963 0.47063 0.79825
 Zn264 Zn 0.38673 0.50302 0.75565
 N265 N 0.36425 0.48677 0.78267
 C266 C 0.40049 0.54001 0.79695
 N267 N 0.40629 0.53211 0.77087
 C268 C 0.42391 0.54634 0.75487
 C269 C 0.43675 0.56934 0.76515
 C270 C 0.41278 0.56280 0.80805
 C271 C 0.39602 0.45262 0.73323
 C272 C 0.40997 0.43007 0.72257
 C273 C 0.45193 0.45359 0.72965
 C274 C 0.43701 0.47577 0.74038
 N275 N 0.40953 0.47493 0.74161
 H276 H 0.38558 0.52920 0.80903
 H277 H 0.42760 0.54009 0.73392
 H278 H 0.45061 0.58042 0.75194
 H279 H 0.40671 0.56847 0.82858
 H280 H 0.37415 0.45242 0.73483
 H281 H 0.39789 0.41305 0.71652
 H282 H 0.47381 0.45474 0.72861
 H283 H 0.44739 0.49355 0.74765
 C284 C 0.33399 0.45999 0.82252
 C285 C 0.33779 0.54210 0.68592
 C286 C 0.43851 0.43026 0.72029
 C287 C 0.43136 0.57799 0.79214
 C288 C 0.66450 0.96584 0.73133
 H289 H 0.66414 0.95856 0.75205
 C290 C 0.67956 0.95180 0.71118
 H291 H 0.69091 0.93376 0.71656
 C292 C 0.64930 0.99763 0.69904
 H293 H 0.63702 1.01514 0.69425
 C294 C 0.66405 0.98417 0.67823
 H295 H 0.66349 0.99228 0.65788
 N296 N 0.64968 0.98823 0.72497
 C297 C 0.63336 1.02591 0.80437
 H298 H 0.61149 1.02657 0.80399
 C299 C 0.64661 1.03621 0.82686
 H300 H 0.63413 1.04488 0.84314
 C301 C 0.67514 1.01490 0.78210
 H302 H 0.68614 1.00700 0.76439
 C303 C 0.68932 1.02525 0.80406
 H304 H 0.71125 1.02481 0.80293
 Zn305 Zn 0.62715 1.00367 0.75293
 N306 N 0.64764 1.01533 0.78272
 C307 C 0.60688 0.96324 0.78794
 N308 N 0.60299 0.97593 0.76390
 C309 C 0.58417 0.96699 0.74636
 C310 C 0.56827 0.94441 0.75280
 C311 C 0.59192 0.94028 0.79492
 C312 C 0.62449 1.05563 0.73163
 C313 C 0.61291 1.07998 0.72317
 C314 C 0.56872 1.06179 0.73413
 C315 C 0.58125 1.03770 0.74241
 N316 N 0.60864 1.03494 0.74060
 H317 H 0.62231 0.97029 0.80136
 H318 H 0.58192 0.97705 0.72705
 H319 H 0.55360 0.93747 0.73839
 H320 H 0.59554 0.93104 0.81437
 H321 H 0.64626 1.05316 0.73109
 H322 H 0.62608 1.09604 0.71591
 H323 H 0.54697 1.06334 0.73637
 H324 H 0.56908 1.02148 0.75079
 C325 C 0.67519 1.03603 0.82709
 C326 C 0.67902 0.96055 0.68412
 C327 C 0.58464 1.08337 0.72400
 C328 C 0.57265 0.93008 0.77693
 C329 C 0.04025 0.22944 -0.15295
 H330 H 0.04827 0.24984 -0.15204
 C331 C 0.05511 0.20875 -0.16629
 H332 H 0.07446 0.21345 -0.17593
 C333 C 0.00586 0.19833 -0.14046
 H334 H -0.01288 0.19406 -0.12961
 C335 C 0.02010 0.17702 -0.15338
 H336 H 0.01181 0.15680 -0.15203
 N337 N 0.01595 0.22399 -0.14063
 C338 C -0.02825 0.30107 -0.13187
 H339 H -0.03485 0.29934 -0.11078
 C340 C -0.03621 0.32354 -0.14698
 H341 H -0.04864 0.33919 -0.13716
 C342 C -0.00336 0.28293 -0.16984
 H343 H 0.00919 0.26696 -0.17879
 C344 C -0.01059 0.30526 -0.18562
 H345 H -0.00337 0.30637 -0.20659
 Zn346 Zn -0.00222 0.25210 -0.12059
 N347 N -0.01194 0.28144 -0.14334
 C348 C 0.02979 0.29067 -0.09348
 N349 N 0.02206 0.26421 -0.09400
 C350 C 0.03396 0.24539 -0.07801
 C351 C 0.05516 0.25278 -0.06130
 C352 C 0.05075 0.29900 -0.07699
 C353 C -0.05372 0.23059 -0.12242
 C354 C -0.07765 0.21873 -0.11295
 C355 C -0.06245 0.22419 -0.06694
 C356 C -0.03860 0.23576 -0.07742
 N357 N -0.03456 0.23830 -0.10474
 H358 H 0.02046 0.30526 -0.10666
 H359 H 0.02772 0.22437 -0.07910
 H360 H 0.06483 0.23720 -0.04937
 H361 H 0.05631 0.32014 -0.07795
 H362 H -0.05004 0.23307 -0.14406
 H363 H -0.09229 0.21221 -0.12759
 H364 H -0.06455 0.22182 -0.04517
 H365 H -0.02315 0.24228 -0.06373
 C366 C -0.02734 0.32581 -0.17427
 C367 C 0.04506 0.18213 -0.16673
 C368 C -0.08235 0.21514 -0.08489
 C369 C 0.06443 0.27978 -0.06103
 C370 C 0.46214 0.22391 0.16297
 H371 H 0.45045 0.24259 0.16220
 C372 C 0.45271 0.20217 0.17869
 H373 H 0.43382 0.20434 0.19021
 C374 C 0.50106 0.19838 0.14895
 H375 H 0.51971 0.19672 0.13710
 C376 C 0.49269 0.17643 0.16482
 H377 H 0.50503 0.15811 0.16509
 N378 N 0.48588 0.22160 0.14841
 C379 C 0.52449 0.29970 0.13547
 H380 H 0.52447 0.30019 0.11347
 C381 C 0.53719 0.32027 0.14985
 H382 H 0.54717 0.33633 0.13860
 C383 C 0.51262 0.27709 0.17646
 H384 H 0.50328 0.25999 0.18663
 C385 C 0.52534 0.29721 0.19169
 H386 H 0.52558 0.29561 0.21365
 Zn387 Zn 0.49750 0.25129 0.12677
 N388 N 0.51235 0.27880 0.14886
 C389 C 0.46006 0.29203 0.11347
 N390 N 0.46735 0.26573 0.10820
 C391 C 0.45264 0.24992 0.09134
 C392 C 0.42988 0.26067 0.07865
 C393 C 0.43774 0.30359 0.10122
 C394 C 0.55017 0.23606 0.11454
 C395 C 0.57296 0.22782 0.09925
 C396 C 0.54578 0.22749 0.05920
 C397 C 0.52345 0.23603 0.07538
 N398 N 0.52601 0.23981 0.10261
 H399 H 0.47129 0.30417 0.12752
 H400 H 0.45847 0.22887 0.08787
 H401 H 0.41887 0.24758 0.06520
 H402 H 0.43260 0.32466 0.10582
 H403 H 0.55167 0.23926 0.13625
 H404 H 0.59128 0.22443 0.11016
 H405 H 0.54325 0.22433 0.03758
 H406 H 0.50415 0.23947 0.06618
 C407 C 0.53758 0.31927 0.17838
 C408 C 0.46811 0.17804 0.17962
 C409 C 0.57113 0.22336 0.07098
 C410 C 0.42214 0.28803 0.08356
 C411 C 0.96064 0.72791 0.66256
 H412 H 0.95417 0.74887 0.66530
 C413 C 0.94820 0.70744 0.67783
 H414 H 0.93216 0.71283 0.69241
 C415 C 0.98882 0.69538 0.63957
 H416 H 1.00419 0.69070 0.62415
 C417 C 0.97685 0.67426 0.65431
 H418 H 0.98329 0.65363 0.64969
 N419 N 0.98066 0.72159 0.64401
 C420 C 1.02393 0.79714 0.63095
 H421 H 1.02342 0.79750 0.60896
 C422 C 1.03649 0.81803 0.64492
 H423 H 1.04596 0.83427 0.63347
 C424 C 1.01290 0.77479 0.67232
 H425 H 1.00394 0.75771 0.68281
 C426 C 1.02566 0.79517 0.68715
 H427 H 1.02630 0.79382 0.70911
 Zn428 Zn 0.99552 0.74996 0.62278
 N429 N 1.01197 0.77641 0.64474
 C430 C 0.96006 0.79265 0.60997
 N431 N 0.96710 0.76650 0.60364
 C432 C 0.95294 0.75182 0.58540
 C433 C 0.93091 0.76356 0.57242
 C434 C 0.93837 0.80517 0.59752
 C435 C 1.04561 0.72743 0.61245
 C436 C 1.06861 0.71870 0.59785
 C437 C 1.04559 0.72798 0.55615
 C438 C 1.02296 0.73682 0.57170
 N439 N 1.02344 0.73631 0.59935
 H440 H 0.97078 0.80378 0.62522
 H441 H 0.95862 0.73087 0.58113
 H442 H 0.92032 0.75124 0.55797
 H443 H 0.93320 0.82600 0.60315
 H444 H 1.04547 0.72751 0.63448
 H445 H 1.08572 0.71181 0.60914
 H446 H 1.04503 0.72860 0.53414
 H447 H 1.00529 0.74445 0.56171
 C448 C 1.03713 0.81735 0.67341
 C449 C 0.95628 0.68021 0.67386
 C450 C 1.06892 0.71911 0.56921
 C451 C 0.92319 0.79069 0.57863
 C452 C 0.53805 0.73615 0.33640
 H453 H 0.54421 0.75721 0.33721
 C454 C 0.55424 0.71691 0.32228
 H455 H 0.57268 0.72334 0.31189
 C456 C 0.50742 0.70180 0.35022
 H457 H 0.48984 0.69563 0.36201
 C458 C 0.52290 0.68201 0.33639
 H459 H 0.51676 0.66099 0.33795
 N460 N 0.51501 0.72834 0.34985
 C461 C 0.46032 0.79686 0.36463
 H462 H 0.45401 0.79099 0.38498
 C463 C 0.44822 0.81920 0.35264
 H464 H 0.43242 0.83013 0.36407
 C465 C 0.48874 0.78949 0.32563
 H466 H 0.50446 0.77769 0.31521
 C467 C 0.47739 0.81212 0.31285
 H468 H 0.48461 0.81693 0.29252
 Zn469 Zn 0.49486 0.75379 0.37161
 N470 N 0.48024 0.78258 0.35120
 C471 C 0.52091 0.79587 0.39948
 N472 N 0.51821 0.76844 0.39757
 C473 C 0.53334 0.75133 0.41266
 C474 C 0.55261 0.76171 0.43017
 C475 C 0.53966 0.80712 0.41681
 C476 C 0.44596 0.72667 0.37198
 C477 C 0.42327 0.71351 0.38266
 C478 C 0.43993 0.72106 0.42784
 C479 C 0.46255 0.73384 0.41617
 N480 N 0.46520 0.73617 0.38870
 H481 H 0.50897 0.80918 0.38713
 H482 H 0.53085 0.72956 0.41061
 H483 H 0.56433 0.74739 0.44161
 H484 H 0.54166 0.82906 0.41757
 H485 H 0.44846 0.72914 0.35021
 H486 H 0.40841 0.70581 0.36881
 H487 H 0.43883 0.71911 0.44971
 H488 H 0.47798 0.74188 0.42907
 C489 C 0.45678 0.82751 0.32651
 C490 C 0.54660 0.68948 0.32203
 C491 C 0.41982 0.71057 0.41094
 C492 C 0.55633 0.79010 0.43206
 C493 C 0.37179 0.00113 0.24574
 C494 C 0.12287 0.99727 0.74802
 C495 C 0.62543 0.50070 0.24986
 C496 C 0.87287 0.49483 0.74192
 C497 C 0.24740 0.36615 -0.00404
 C498 C 0.74826 0.12258 1.00609
 C499 C 0.25274 0.61988 0.50653
 C500 C 0.73929 0.85816 0.50104
 C501 C 0.00109 0.24557 0.37333
 C502 C 1.00252 0.74734 0.12420
 C503 C 0.49377 0.24396 0.62663
 C504 C 0.50544 0.75700 0.87688
 C505 C 0.44450 -0.15052 0.31586
 C506 C 0.45122 -0.13800 0.29109
 C507 C 0.43464 -0.11493 0.28161
 C508 C 0.44690 -0.09225 0.26941
 C509 C 0.43129 -0.06939 0.26269
 C510 C 0.40311 -0.06920 0.26779
 C511 C 0.39092 -0.09248 0.27879
 C512 C 0.40642 -0.11508 0.28553
 C513 C 0.38534 -0.04544 0.26291
 C514 C 0.39287 -0.02105 0.25031
 H515 H 0.46945 -0.14337 0.27955
 H516 H 0.46863 -0.09185 0.26599
 H517 H 0.44147 -0.05193 0.25415
 H518 H 0.36923 -0.09309 0.28258
 H519 H 0.39628 -0.13262 0.29409
 H520 H 0.36441 -0.04727 0.26977
 H521 H 0.42806 -0.14112 0.32779
 H522 H 0.41338 -0.01836 0.24261
 C523 C 0.96547 0.34967 0.80912
 C524 C 0.94125 0.36412 0.81330
 C525 C 0.93393 0.38870 0.79781
 C526 C 0.90649 0.39563 0.79578
 C527 C 0.89871 0.41945 0.78271
 C528 C 0.91829 0.43706 0.77161
 C529 C 0.94577 0.43030 0.77380
 C530 C 0.95358 0.40622 0.78658
 C531 C 0.91044 0.46352 0.75991
 C532 C 0.88615 0.46718 0.74643
 H533 H 0.92632 0.35642 0.82776
 H534 H 0.89101 0.38270 0.80465
 H535 H 0.87738 0.42453 0.78225
 H536 H 0.96121 0.44382 0.76582
 H537 H 0.97494 0.40188 0.78843
 H538 H 0.92360 0.48065 0.76315
 H539 H 0.97896 0.35504 0.79231
 H540 H 0.87430 0.44922 0.74251
 C541 C 0.06170 1.16026 0.81999
 C542 C 0.05178 1.13446 0.81366
 C543 C 0.06861 1.11203 0.80171
 C544 C 0.05556 1.08961 0.79024
 C545 C 0.07048 1.06780 0.77901
 C546 C 0.09891 1.06784 0.77928
 C547 C 0.11200 1.09020 0.79074
 C548 C 0.09707 1.11198 0.80207
 C549 C 0.11549 1.04563 0.76677
 C550 C 0.10580 1.01939 0.76208
 H551 H 0.03042 1.13055 0.81656
 H552 H 0.03367 1.08907 0.78973
 H553 H 0.05964 1.05132 0.76967
 H554 H 0.13389 1.09071 0.79113
 H555 H 0.10801 1.12841 0.81133
 H556 H 0.13627 1.05015 0.76103
 H557 H 0.08237 1.16516 0.81435
 H558 H 0.08610 1.01393 0.77041
 C559 C 0.56440 0.66883 0.30835
 C560 C 0.55472 0.64370 0.29954
 C561 C 0.57211 0.62088 0.28944
 C562 C 0.55993 0.59924 0.27577
 C563 C 0.57504 0.57635 0.26747
 C564 C 0.60274 0.57446 0.27301
 C565 C 0.61511 0.59634 0.28614
 C566 C 0.59996 0.61928 0.29447
 C567 C 0.61932 0.55038 0.26477
 C568 C 0.60829 0.52476 0.25979
 H569 H 0.53308 0.64047 0.29988
 H570 H 0.53854 0.59998 0.27155
 H571 H 0.56494 0.56040 0.25652
 H572 H 0.63647 0.59546 0.29043
 H573 H 0.61005 0.63524 0.30541
 H574 H 0.64106 0.55271 0.26285
 H575 H 0.58547 0.67384 0.30487
 H576 H 0.58707 0.52151 0.26461
 C577 C 0.55156 0.34030 0.19436
 C578 C 0.55425 0.36704 0.18528
 C579 C 0.56971 0.38822 0.19952
 C580 C 0.56392 0.41564 0.19425
 C581 C 0.57893 0.43633 0.20607
 C582 C 0.60025 0.42998 0.22331
 C583 C 0.60631 0.40255 0.22833
 C584 C 0.59109 0.38181 0.21670
 C585 C 0.61726 0.45147 0.23504
 C586 C 0.60728 0.47753 0.24137
 H587 H 0.54373 0.37314 0.16726
 H588 H 0.54786 0.42109 0.18072
 H589 H 0.57429 0.45721 0.20097
 H590 H 0.62291 0.39718 0.24122
 H591 H 0.59666 0.36088 0.22056
 H592 H 0.63812 0.44655 0.23925
 H593 H 0.55888 0.33481 0.21414
 H594 H 0.58613 0.48197 0.23808
 C595 C 0.05052 0.83907 0.68879
 C596 C 0.05055 0.86598 0.67994
 C597 C 0.06634 0.88761 0.69287
 C598 C 0.05783 0.91478 0.69056
 C599 C 0.07315 0.93585 0.70129
 C600 C 0.09750 0.93003 0.71419
 C601 C 0.10621 0.90290 0.71615
 C602 C 0.09071 0.88181 0.70576
 C603 C 0.11473 0.95172 0.72491
 C604 C 0.10440 0.97614 0.73587
 H605 H 0.03806 0.87160 0.66309
 H606 H 0.03933 0.91971 0.68028
 H607 H 0.06629 0.95664 0.69879
 H608 H 0.12508 0.89801 0.72575
 H609 H 0.09826 0.86114 0.70711
 H610 H 0.13623 0.94758 0.72611
 H611 H 0.05970 0.83392 0.70784
 H612 H 0.08281 0.98007 0.73566
 C613 C 0.94170 0.65875 0.68927
 C614 C 0.95034 0.63161 0.69052
 C615 C 0.93394 0.60987 0.70343
 C616 C 0.94667 0.58544 0.71076
 C617 C 0.93161 0.56401 0.72184
 C618 C 0.90340 0.56657 0.72552
 C619 C 0.89074 0.59108 0.71848
 C620 C 0.90573 0.61242 0.70736
 C621 C 0.88628 0.54439 0.73636
 C622 C 0.89374 0.51682 0.73599
 H623 H 0.97010 0.62589 0.68226
 H624 H 0.96836 0.58292 0.70789
 H625 H 0.94219 0.54567 0.72759
 H626 H 0.86901 0.59354 0.72102
 H627 H 0.89492 0.63048 0.70125
 H628 H 0.86576 0.54969 0.74284
 H629 H 0.92345 0.66491 0.70042
 H630 H 0.91302 0.51076 0.72679
 C631 C 0.45919 0.15436 0.19576
 C632 C 0.43209 0.14688 0.19809
 C633 C 0.42346 0.12131 0.21124
 C634 C 0.40130 0.10734 0.20099
 C635 C 0.39284 0.08291 0.21266
 C636 C 0.40613 0.07224 0.23518
 C637 C 0.42778 0.08661 0.24599
 C638 C 0.43661 0.11082 0.23395
 C639 C 0.39668 0.04696 0.24833
 C640 C 0.38583 0.02568 0.23324
 H641 H 0.41711 0.15854 0.18739
 H642 H 0.39068 0.11521 0.18371
 H643 H 0.37556 0.07269 0.20438
 H644 H 0.43801 0.07896 0.26360
 H645 H 0.45337 0.12151 0.24269
 H646 H 0.39811 0.04519 0.27019
 H647 H 0.47457 0.14077 0.20333
 H648 H 0.38886 0.02609 0.21133
 C649 C 0.31760 0.44508 -0.15695
 C650 C 0.32551 0.44219 -0.13007
 C651 C 0.31056 0.42551 -0.10988
 C652 C 0.31269 0.43168 -0.08211
 C653 C 0.29962 0.41573 -0.06242
 C654 C 0.28439 0.39308 -0.07021
 C655 C 0.28274 0.38657 -0.09793
 C656 C 0.29553 0.40271 -0.11764
 C657 C 0.27092 0.37535 -0.04993
 C658 C 0.26083 0.38492 -0.02475
 H659 H 0.34283 0.45339 -0.12318
 H660 H 0.32457 0.44885 -0.07563
 H661 H 0.30205 0.42080 -0.04117
 H662 H 0.27146 0.36895 -0.10436
 H663 H 0.29421 0.39685 -0.13883
 H664 H 0.26759 0.35427 -0.05547
 H665 H 0.29831 0.43707 -0.16296
 H666 H 0.26298 0.40628 -0.01965
 C667 C 0.81469 0.94069 0.35526
 C668 C 0.78794 0.93887 0.36424
 C669 C 0.78132 0.92722 0.39126
 C670 C 0.75502 0.91815 0.39729
 C671 C 0.74869 0.90652 0.42257
 C672 C 0.76859 0.90408 0.44235
 C673 C 0.79461 0.91390 0.43660
 C674 C 0.80102 0.92514 0.41128
 C675 C 0.76283 0.89202 0.46931
 C676 C 0.74377 0.87159 0.47359
 H677 H 0.77181 0.94537 0.35121
 H678 H 0.73943 0.91981 0.38233
 H679 H 0.72819 0.89986 0.42671
 H680 H 0.81016 0.91252 0.45163
 H681 H 0.82140 0.93235 0.40750
 H682 H 0.77510 0.89836 0.48607
 H683 H 0.81744 0.94834 0.33988
 H684 H 0.73323 0.86367 0.45623
 C685 C 0.81473 0.05555 1.16491
 C686 C 0.81647 0.04953 1.13687
 C687 C 0.80411 0.06632 1.11548
 C688 C 0.80135 0.05477 1.08949
 C689 C 0.79101 0.07002 1.06823
 C690 C 0.78312 0.09731 1.07252
 C691 C 0.78618 0.10901 1.09840
 C692 C 0.79654 0.09374 1.11970
 C693 C 0.77236 0.11437 1.05051
 C694 C 0.76083 0.10396 1.02693
 H695 H 0.82642 0.03112 1.12964
 H696 H 0.80746 0.03385 1.08551
 H697 H 0.78985 0.06044 1.04843
 H698 H 0.78059 0.13011 1.10215
 H699 H 0.79911 0.10373 1.13911
 H700 H 0.77211 0.13625 1.05358
 H701 H 0.80169 0.07234 1.17141
 H702 H 0.75954 0.08216 1.02404
 C703 C 0.32341 0.55682 0.66437
 C704 C 0.32201 0.54756 0.63746
 C705 C 0.30995 0.56376 0.61551
 C706 C 0.30237 0.55051 0.59153
 C707 C 0.29162 0.56522 0.57005
 C708 C 0.28830 0.59365 0.57217
 C709 C 0.29624 0.60689 0.59602
 C710 C 0.30701 0.59222 0.61741
 C711 C 0.27725 0.61052 0.55019
 C712 C 0.26490 0.60048 0.52691
 H713 H 0.32932 0.52734 0.63218
 H714 H 0.30484 0.52865 0.58938
 H715 H 0.28637 0.55419 0.55190
 H716 H 0.29423 0.62880 0.59808
 H717 H 0.31351 0.60342 0.63503
 H718 H 0.27805 0.63243 0.55279
 H719 H 0.31315 0.57558 0.67025
 H720 H 0.26272 0.57880 0.52393
 C721 C 0.19847 0.55697 0.34107
 C722 C 0.18741 0.56073 0.36732
 C723 C 0.20201 0.57350 0.38988
 C724 C 0.19327 0.56833 0.41674
 C725 C 0.20576 0.58086 0.43863
 C726 C 0.22720 0.59899 0.43402
 C727 C 0.23572 0.60443 0.40716
 C728 C 0.22336 0.59176 0.38526
 C729 C 0.24005 0.61369 0.45652
 C730 C 0.24117 0.60372 0.48308
 H731 H 0.16744 0.55284 0.37199
 H732 H 0.17657 0.55470 0.42080
 H733 H 0.19800 0.57689 0.45899
 H734 H 0.25193 0.61866 0.40311
 H735 H 0.23008 0.59691 0.36483
 H736 H 0.24946 0.63294 0.45171
 H737 H 0.21960 0.56139 0.33698
 H738 H 0.23200 0.58431 0.48772
 C739 C 0.68947 0.04631 0.84790
 C740 C 0.67822 0.05562 0.87287
 C741 C 0.69423 0.06909 0.89407
 C742 C 0.68474 0.06839 0.92124
 C743 C 0.69848 0.08200 0.94167
 C744 C 0.72198 0.09682 0.93528
 C745 C 0.73128 0.09786 0.90807
 C746 C 0.71765 0.08405 0.88764
 C747 C 0.73623 0.11261 0.95618
 C748 C 0.73627 0.10529 0.98365
 H749 H 0.65725 0.05187 0.87819
 H750 H 0.66647 0.05743 0.92665
 H751 H 0.69013 0.08155 0.96224
 H752 H 0.74908 0.10952 0.90258
 H753 H 0.72505 0.08583 0.86681
 H754 H 0.74722 0.13041 0.94949
 H755 H 0.71131 0.04697 0.84543
 H756 H 0.72565 0.08709 0.98987
 C757 C 0.69374 0.94425 0.66280
 C758 C 0.68717 0.94477 0.63532
 C759 C 0.69958 0.92666 0.61405
 C760 C 0.69616 0.93338 0.58667
 C761 C 0.70592 0.91621 0.56578
 C762 C 0.71945 0.89178 0.57183
 C763 C 0.72288 0.88499 0.59920
 C764 C 0.71312 0.90221 0.62014
 C765 C 0.72871 0.87227 0.55032
 C766 C 0.73306 0.87941 0.52308
 H767 H 0.67164 0.95871 0.62881
 H768 H 0.68550 0.95188 0.58139
 H769 H 0.70199 0.92184 0.54505
 H770 H 0.73287 0.86609 0.60441
 H771 H 0.71556 0.89577 0.64089
 H772 H 0.73230 0.85132 0.55605
 H773 H 0.70925 0.93036 0.66942
 H774 H 0.73087 0.90043 0.51711
 C775 C 0.19611 0.44012 0.16243
 C776 C 0.18918 0.44074 0.13503
 C777 C 0.20248 0.42413 0.11300
 C778 C 0.19074 0.42391 0.08732
 C779 C 0.20227 0.40869 0.06579
 C780 C 0.22602 0.39339 0.06942
 C781 C 0.23773 0.39337 0.09507
 C782 C 0.22628 0.40875 0.11662
 C783 C 0.23846 0.37667 0.04716
 C784 C 0.23645 0.38349 0.01969
 H785 H 0.17211 0.45313 0.12931
 H786 H 0.17237 0.43542 0.08391
 H787 H 0.19218 0.40851 0.04655
 H788 H 0.25600 0.38165 0.09835
 H789 H 0.23637 0.40854 0.13581
 H790 H 0.24999 0.35888 0.05282
 H791 H 0.21153 0.42609 0.16894
 H792 H 0.22549 0.40184 0.01456
 C793 C -0.16256 0.30273 0.44544
 C794 C -0.13620 0.31245 0.44205
 C795 C -0.11425 0.29759 0.42690
 C796 C -0.08732 0.30372 0.43254
 C797 C -0.06596 0.29119 0.41786
 C798 C -0.07109 0.27236 0.39698
 C799 C -0.09803 0.26653 0.39099
 C800 C -0.11945 0.27886 0.40591
 C801 C -0.04876 0.25978 0.38038
 C802 C -0.02335 0.25429 0.39096
 H803 H -0.13098 0.33143 0.45185
 H804 H -0.08278 0.31843 0.44826
 H805 H -0.04549 0.29694 0.42241
 H806 H -0.10249 0.25243 0.37470
 H807 H -0.13997 0.27427 0.40044
 H808 H -0.05247 0.25437 0.35941
 H809 H -0.16709 0.28224 0.43884
 H810 H -0.02040 0.25872 0.41228
 C811 C 0.34282 0.82052 0.94392
 C812 C 0.36860 0.83132 0.93949
 C813 C 0.39094 0.81630 0.92523
 C814 C 0.41772 0.82385 0.92994
 C815 C 0.43935 0.81056 0.91638
 C816 C 0.43453 0.78949 0.89764
 C817 C 0.40775 0.78235 0.89248
 C818 C 0.38613 0.79552 0.90617
 C819 C 0.45674 0.77514 0.88253
 C820 C 0.48282 0.77205 0.89249
 H821 H 0.37312 0.85114 0.94790
 H822 H 0.42192 0.84013 0.94416
 H823 H 0.45967 0.81727 0.92022
 H824 H 0.40353 0.76646 0.87783
 H825 H 0.36576 0.78975 0.90129
 H826 H 0.45192 0.76537 0.86347
 H827 H 0.33924 0.79943 0.93871
 H828 H 0.48761 0.78166 0.91163
 C829 C 1.16085 0.81708 0.05497
 C830 C 1.13549 0.80970 0.04558
 C831 C 1.11422 0.79684 0.06294
 C832 C 1.08737 0.79772 0.05441
 C833 C 1.06647 0.78672 0.07048
 C834 C 1.07208 0.77430 0.09540
 C835 C 1.09891 0.77313 0.10381
 C836 C 1.11982 0.78401 0.08770
 C837 C 1.05044 0.76360 0.11364
 C838 C 1.02534 0.75508 0.10455
 H839 H 1.13038 0.81440 0.02489
 H840 H 1.08244 0.80750 0.03548
 H841 H 1.04597 0.78874 0.06363
 H842 H 1.10372 0.76365 0.12292
 H843 H 1.14021 0.78205 0.09479
 H844 H 1.05447 0.76207 0.13513
 H845 H 1.16615 0.81221 0.07554
 H846 H 1.02149 0.75550 0.08299
 C847 C 0.63835 0.30937 0.52686
 C848 C 0.63157 0.30232 0.55366
 C849 C 0.60429 0.29315 0.56279
 C850 C 0.60163 0.27966 0.58774
 C851 C 0.57627 0.27152 0.59775
 C852 C 0.55284 0.27674 0.58296
 C853 C 0.55539 0.29069 0.55825
 C854 C 0.58081 0.29878 0.54818
 C855 C 0.52550 0.26931 0.59348
 C856 C 0.52114 0.24890 0.61273
 H857 H 0.64675 0.30394 0.56900
 H858 H 0.61927 0.27557 0.59968
 H859 H 0.57516 0.26186 0.61743
 H860 H 0.53761 0.29549 0.54677
 H861 H 0.58174 0.31004 0.52939
 H862 H 0.50820 0.28042 0.58611
 H863 H 0.62332 0.30773 0.51139
 H864 H 0.53819 0.23671 0.61893
 C865 C 0.35547 0.17243 0.54652
 C866 C 0.36984 0.19529 0.53783
 C867 C 0.39697 0.20154 0.54817
 C868 C 0.40483 0.22876 0.55092
 C869 C 0.42958 0.23518 0.56239
 C870 C 0.44707 0.21439 0.57096
 C871 C 0.44002 0.18719 0.56651
 C872 C 0.41516 0.18078 0.55535
 C873 C 0.47180 0.22042 0.58604
 C874 C 0.47193 0.24111 0.60566
 H875 H 0.36085 0.20965 0.52415
 H876 H 0.39144 0.24510 0.54496
 H877 H 0.43487 0.25638 0.56483
 H878 H 0.45332 0.17085 0.57265
 H879 H 0.41021 0.15955 0.55249
 H880 H 0.48849 0.20596 0.58493
 H881 H 0.36452 0.15948 0.56157
 H882 H 0.45425 0.25430 0.60756
 C883 C 0.83973 0.68934 0.05283
 C884 C 0.86795 0.67717 0.06015
 C885 C 0.89066 0.69270 0.07617
 C886 C 0.91706 0.68205 0.07641
 C887 C 0.93726 0.69570 0.09019
 C888 C 0.93134 0.72020 0.10418
 C889 C 0.90479 0.73053 0.10450
 C890 C 0.88465 0.71706 0.09029
 C891 C 0.95255 0.73477 0.11891
 C892 C 0.97900 0.73639 0.10831
 H893 H 0.87745 0.65449 0.05476
 H894 H 0.92212 0.66322 0.06577
 H895 H 0.95740 0.68686 0.09023
 H896 H 0.89977 0.74926 0.11536
 H897 H 0.86435 0.72550 0.09048
 H898 H 0.94706 0.74504 0.13787
 H899 H 0.85492 0.68230 0.05657
 H900 H 0.98356 0.72676 0.08877
 C901 C 0.66275 0.68761 0.94197
 C902 C 0.63641 0.69194 0.95225
 C903 C 0.61432 0.70255 0.93554
 C904 C 0.59163 0.71478 0.94851
 C905 C 0.57008 0.72441 0.93336
 C906 C 0.57074 0.72168 0.90482
 C907 C 0.59332 0.70910 0.89195
 C908 C 0.61484 0.69956 0.90707
 C909 C 0.54887 0.73179 0.88746
 C910 C 0.52537 0.74539 0.89685
 H911 H 0.63177 0.68811 0.97350
 H912 H 0.59063 0.71702 0.97046
 H913 H 0.55320 0.73389 0.94427
 H914 H 0.59433 0.70655 0.87003
 H915 H 0.63151 0.68938 0.89637
 H916 H 0.55173 0.72920 0.86564
 H917 H 0.66819 0.69489 0.92184
 H918 H 0.52127 0.74803 0.91841
 C919 C 0.16588 0.19081 0.43882
 C920 C 0.13887 0.19491 0.44742
 C921 C 0.11662 0.20413 0.42981
 C922 C 0.09015 0.20452 0.44098
 C923 C 0.06821 0.21223 0.42539
 C924 C 0.07219 0.22010 0.39813
 C925 C 0.09860 0.21958 0.38683
 C926 C 0.12062 0.21177 0.40243
 C927 C 0.04936 0.22823 0.38083
 C928 C 0.02417 0.23713 0.39136
 H929 H 0.13324 0.19063 0.46834
 H930 H 0.08632 0.19844 0.46186
 H931 H 0.04820 0.21137 0.43476
 H932 H 0.10224 0.22535 0.36582
 H933 H 0.14050 0.21180 0.39278
 H934 H 0.05268 0.22810 0.35895
 H935 H 0.17235 0.19672 0.41856
 H936 H 0.02127 0.23909 0.41317
 C937 C 0.57380 0.10822 0.71500
 C938 C 0.54624 0.11392 0.71186
 C939 C 0.53660 0.14047 0.70153
 C940 C 0.51256 0.14162 0.68706
 C941 C 0.50373 0.16615 0.67586
 C942 C 0.51884 0.19007 0.67902
 C943 C 0.54206 0.18915 0.69473
 C944 C 0.55089 0.16467 0.70587
 C945 C 0.51158 0.21612 0.66594
 C946 C 0.49548 0.21795 0.64307
 H947 H 0.53138 0.09812 0.71460
 H948 H 0.50088 0.12337 0.68391
 H949 H 0.48513 0.16616 0.66482
 H950 H 0.55378 0.20737 0.69795
 H951 H 0.56887 0.16485 0.71791
 H952 H 0.52156 0.23439 0.67278
 H953 H 0.58806 0.12379 0.70893
 H954 H 0.48685 0.19961 0.63484
 C955 C 1.06444 0.59138 0.20227
 C956 C 1.07373 0.61768 0.19671
 C957 C 1.05797 0.63812 0.18173
 C958 C 1.06322 0.66582 0.18601
 C959 C 1.05002 0.68573 0.17106
 C960 C 1.03142 0.67827 0.15129
 C961 C 1.02633 0.65057 0.14680
 C962 C 1.03934 0.63063 0.16198
 C963 C 1.01840 0.69881 0.13404
 C964 C 1.01251 0.72532 0.14308
 H965 H 1.09268 0.62444 0.20471
 H966 H 1.07782 0.67207 0.20080
 H967 H 1.05513 0.70684 0.17442
 H968 H 1.01238 0.64435 0.13138
 H969 H 1.03541 0.60944 0.15758
 H970 H 1.01293 0.69276 0.11370
 H971 H 1.04366 0.58678 0.19767
 H972 H 1.01714 0.73084 0.16379
 C973 C 0.92834 0.90046 0.19287
 C974 C 0.95569 0.89340 0.18951
 C975 C 0.96405 0.86924 0.17309
 C976 C 0.98509 0.85243 0.18185
 C977 C 0.99210 0.82861 0.16743
 C978 C 0.97841 0.82146 0.14372
 C979 C 0.95831 0.83900 0.13426
 C980 C 0.95103 0.86258 0.14889
 C981 C 0.98510 0.79631 0.12817
 C982 C 0.99418 0.77258 0.14056
 H983 H 0.97098 0.90383 0.20080
 H984 H 0.99567 0.85742 0.20020
 H985 H 1.00837 0.81598 0.17471
 H986 H 0.94788 0.83418 0.11577
 H987 H 0.93527 0.87562 0.14121
 H988 H 0.98180 0.79600 0.10647
 H989 H 0.91388 0.88694 0.18370
 H990 H 0.99540 0.77229 0.16252
 C991 C 0.45395 0.40831 0.70913
 C992 C 0.44274 0.38468 0.69808
 C993 C 0.45832 0.36158 0.68568
 C994 C 0.44401 0.34256 0.67041
 C995 C 0.45702 0.31983 0.65891
 C996 C 0.48475 0.31529 0.66263
 C997 C 0.49938 0.33455 0.67733
 C998 C 0.48627 0.35744 0.68900
 C999 C 0.49863 0.29124 0.65022
 C1000 C 0.48472 0.26701 0.64572
 H1001 H 0.42110 0.38276 0.69724
 H1002 H 0.42257 0.34532 0.66722
 H1003 H 0.44530 0.30607 0.64673
 H1004 H 0.52086 0.33164 0.68013
 H1005 H 0.49804 0.37140 0.70084
 H1006 H 0.51975 0.29297 0.64416
 H1007 H 0.47573 0.41028 0.70850
 H1008 H 0.46486 0.26481 0.65534
 C1009 C 0.44394 0.60174 0.80178
 C1010 C 0.44169 0.61127 0.82872
 C1011 C 0.45313 0.63719 0.83868
 C1012 C 0.45456 0.64105 0.86689
 C1013 C 0.46379 0.66547 0.87764
 C1014 C 0.47188 0.68676 0.86051
 C1015 C 0.47055 0.68307 0.83216
 C1016 C 0.46119 0.65850 0.82132
 C1017 C 0.48078 0.71234 0.87343
 C1018 C 0.49473 0.73336 0.86027
 H1019 H 0.43183 0.59895 0.84405
 H1020 H 0.44831 0.62514 0.88078
 H1021 H 0.46452 0.66776 0.89955
 H1022 H 0.47605 0.69920 0.81829
 H1023 H 0.45969 0.65669 0.79949
 H1024 H 0.47732 0.71435 0.89524
 H1025 H 0.45647 0.61300 0.78750
 H1026 H 0.49987 0.73191 0.83876
 C1027 C -0.06338 0.08408 0.31110
 C1028 C -0.04825 0.10525 0.29960
 C1029 C -0.03877 0.12839 0.31628
 C1030 C -0.03682 0.15424 0.30454
 C1031 C -0.02941 0.17680 0.32011
 C1032 C -0.02328 0.17384 0.34775
 C1033 C -0.02475 0.14787 0.35933
 C1034 C -0.03221 0.12534 0.34377
 C1035 C -0.01608 0.19728 0.36526
 C1036 C -0.00617 0.22180 0.35501
 H1037 H -0.04572 0.10679 0.27777
 H1038 H -0.04181 0.15714 0.28344
 H1039 H -0.02926 0.19650 0.31049
 H1040 H -0.02005 0.14499 0.38051
 H1041 H -0.03267 0.10559 0.35333
 H1042 H -0.01788 0.19499 0.38714
 H1043 H -0.06751 0.08505 0.33285
 H1044 H -0.00238 0.22352 0.33332
 C1045 C 0.07023 0.40613 0.31488
 C1046 C 0.05398 0.38622 0.30385
 C1047 C 0.04355 0.36342 0.32049
 C1048 C 0.02831 0.34307 0.30812
 C1049 C 0.01897 0.32081 0.32310
 C1050 C 0.02481 0.31842 0.35085
 C1051 C 0.03946 0.33911 0.36339
 C1052 C 0.04886 0.36133 0.34839
 C1053 C 0.01557 0.29501 0.36734
 C1054 C 0.00999 0.26954 0.35606
 H1055 H 0.04946 0.38682 0.28240
 H1056 H 0.02370 0.34434 0.28675
 H1057 H 0.00692 0.30578 0.31293
 H1058 H 0.04399 0.33788 0.38478
 H1059 H 0.06041 0.37672 0.35867
 H1060 H 0.01415 0.29747 0.38927
 H1061 H 0.07619 0.41777 0.30460
 H1062 H 0.01397 0.26633 0.33450
 C1063 C 0.55811 0.90606 0.78209
 C1064 C 0.56609 0.88659 0.80094
 C1065 C 0.55111 0.86131 0.80660
 C1066 C 0.56570 0.83850 0.81512
 C1067 C 0.55230 0.81512 0.82368
 C1068 C 0.52386 0.81433 0.82469
 C1069 C 0.50922 0.83659 0.81477
 C1070 C 0.52273 0.85999 0.80581
 C1071 C 0.50933 0.79135 0.83764
 C1072 C 0.52048 0.77747 0.85940
 H1073 H 0.58539 0.88850 0.81054
 H1074 H 0.58759 0.83894 0.81561
 H1075 H 0.56432 0.79792 0.83005
 H1076 H 0.48731 0.83637 0.81517
 H1077 H 0.51094 0.87740 0.79957
 H1078 H 0.48872 0.78720 0.83210
 H1079 H 0.54115 0.90133 0.76943
 H1080 H 0.53986 0.78426 0.86651
 C1081 C 0.69947 0.55854 0.08923
 C1082 C 0.69365 0.56911 0.11530
 C1083 C 0.67841 0.55412 0.13659
 C1084 C 0.68270 0.56069 0.16393
 C1085 C 0.66793 0.54794 0.18470
 C1086 C 0.64837 0.52843 0.17851
 C1087 C 0.64361 0.52223 0.15117
 C1088 C 0.65863 0.53481 0.13032
 C1089 C 0.63207 0.51532 0.20026
 C1090 C 0.64275 0.50953 0.22559
 H1091 H 0.70180 0.58847 0.12138
 H1092 H 0.69746 0.57587 0.16924
 H1093 H 0.67138 0.55394 0.20554
 H1094 H 0.62828 0.50761 0.14598
 H1095 H 0.65422 0.52993 0.10942
 H1096 H 0.61140 0.50982 0.19620
 H1097 H 0.69442 0.53749 0.08525
 H1098 H 0.66380 0.51426 0.22878
 C1099 C 0.19763 1.06490 0.59383
 C1100 C 0.18280 1.07772 0.61507
 C1101 C 0.16925 1.06276 0.63746
 C1102 C 0.14511 1.07349 0.64890
 C1103 C 0.13193 1.06043 0.67050
 C1104 C 0.14299 1.03679 0.68164
 C1105 C 0.16732 1.02603 0.67041
 C1106 C 0.18032 1.03888 0.64836
 C1107 C 0.12799 1.02365 0.70424
 C1108 C 0.14011 1.00879 0.72482
 H1109 H 0.17847 1.09929 0.61428
 H1110 H 0.13627 1.09193 0.64091
 H1111 H 0.11314 1.06901 0.67876
 H1112 H 0.17608 1.00755 0.67832
 H1113 H 0.19918 1.03041 0.64021
 H1114 H 0.10637 1.02745 0.70595
 H1115 H 0.19812 1.04284 0.59335
 H1116 H 0.16181 1.00554 0.72434
 C1117 C 0.21115 0.95038 0.89896
 C1118 C 0.20790 0.93959 0.87277
 C1119 C 0.19770 0.95514 0.84938
 C1120 C 0.18960 0.94033 0.82653
 C1121 C 0.17839 0.95350 0.80446
 C1122 C 0.17497 0.98191 0.80472
 C1123 C 0.18430 0.99699 0.82684
 C1124 C 0.19550 0.98377 0.84908
 C1125 C 0.16112 0.99588 0.78246
 C1126 C 0.13975 0.98351 0.76928
 H1127 H 0.21222 0.91833 0.86884
 H1128 H 0.19147 0.91834 0.82592
 H1129 H 0.17230 0.94136 0.78725
 H1130 H 0.18223 1.01896 0.82725
 H1131 H 0.20224 0.99615 0.86578
 H1132 H 0.16643 1.01666 0.77774
 H1133 H 0.20813 0.97201 0.90212
 H1134 H 0.13291 0.96399 0.77682
 C1135 C 0.70063 0.44216 0.40721
 C1136 C 0.70076 0.43544 0.37945
 C1137 C 0.68397 0.44941 0.35926
 C1138 C 0.66030 0.46419 0.36663
 C1139 C 0.64414 0.47543 0.34658
 C1140 C 0.65136 0.47228 0.31892
 C1141 C 0.67484 0.45726 0.31161
 C1142 C 0.69091 0.44601 0.33157
 C1143 C 0.63365 0.48381 0.29807
 C1144 C 0.64360 0.49141 0.27241
 H1145 H 0.71401 0.41953 0.37150
 H1146 H 0.65374 0.46649 0.38770
 H1147 H 0.62591 0.48654 0.35267
 H1148 H 0.68052 0.45344 0.29051
 H1149 H 0.70869 0.43426 0.32531
 H1150 H 0.61237 0.48695 0.30315
 H1151 H 0.68995 0.46049 0.41383
 H1152 H 0.66513 0.48965 0.26806
 C1153 C 0.77290 0.42743 0.60219
 C1154 C 0.79745 0.44013 0.60772
 C1155 C 0.80517 0.44997 0.63507
 C1156 C 0.82777 0.46688 0.63668
 C1157 C 0.83734 0.47519 0.66181
 C1158 C 0.82436 0.46697 0.68622
 C1159 C 0.80156 0.45025 0.68469
 C1160 C 0.79202 0.44178 0.65943
 C1161 C 0.83554 0.47338 0.71328
 C1162 C 0.85534 0.49312 0.71702
 H1163 H 0.81214 0.44343 0.59147
 H1164 H 0.83854 0.47324 0.61834
 H1165 H 0.85554 0.48718 0.66173
 H1166 H 0.79142 0.44323 0.70312
 H1167 H 0.77500 0.42816 0.65930
 H1168 H 0.82932 0.46099 0.73044
 H1169 H 0.75785 0.42618 0.61852
 H1170 H 0.85926 0.50739 0.70076
 C1171 C 0.28181 -0.04947 0.09442
 C1172 C 0.30525 -0.05475 0.10884
 C1173 C 0.31215 -0.04021 0.13407
 C1174 C 0.32894 -0.05344 0.15236
 C1175 C 0.33756 -0.04002 0.17557
 C1176 C 0.32960 -0.01291 0.18101
 C1177 C 0.31275 0.00039 0.16275
 C1178 C 0.30394 -0.01317 0.13950
 C1179 C 0.34094 0.00246 0.20395
 C1180 C 0.35104 -0.01069 0.22668
 H1181 H 0.31831 -0.07167 0.10298
 H1182 H 0.33580 -0.07415 0.14844
 H1183 H 0.35138 -0.05066 0.18855
 H1184 H 0.30681 0.02143 0.16623
 H1185 H 0.29160 -0.00215 0.12540
 H1186 H 0.34287 0.02430 0.20200
 H1187 H 0.26724 -0.03502 0.10310
 H1188 H 0.34462 -0.03140 0.23020
 C1189 C 0.29678 0.06647 0.39970
 C1190 C 0.28242 0.05719 0.37732
 C1191 C 0.29632 0.04842 0.35153
 C1192 C 0.28272 0.05065 0.32695
 C1193 C 0.29575 0.04353 0.30221
 C1194 C 0.32251 0.03371 0.30159
 C1195 C 0.33604 0.03132 0.32626
 C1196 C 0.32299 0.03820 0.35092
 C1197 C 0.33579 0.02643 0.27506
 C1198 C 0.35788 0.00854 0.27275
 H1199 H 0.26059 0.05840 0.37747
 H1200 H 0.26212 0.05833 0.32684
 H1201 H 0.28487 0.04561 0.28351
 H1202 H 0.35688 0.02459 0.32682
 H1203 H 0.33395 0.03529 0.36940
 H1204 H 0.32737 0.03451 0.25666
 H1205 H 0.31861 0.06714 0.39752
 H1206 H 0.36571 -0.00043 0.29096
 C1207 C 0.79612 0.55672 0.89980
 C1208 C 0.82344 0.55284 0.89230
 C1209 C 0.83304 0.53933 0.86671
 C1210 C 0.85970 0.52938 0.86519
 C1211 C 0.87053 0.51849 0.84094
 C1212 C 0.85506 0.51733 0.81748
 C1213 C 0.82813 0.52689 0.81895
 C1214 C 0.81722 0.53782 0.84337
 C1215 C 0.86867 0.50775 0.79189
 C1216 C 0.85604 0.50225 0.76734
 H1217 H 0.83896 0.55884 0.90610
 H1218 H 0.87239 0.53042 0.88277
 H1219 H 0.89136 0.51139 0.84039
 H1220 H 0.81569 0.52689 0.80123
 H1221 H 0.79682 0.54596 0.84353
 H1222 H 0.89048 0.50565 0.79216
 H1223 H 0.78111 0.54716 0.88737
 H1224 H 0.83424 0.50328 0.76622
 C1225 C 0.09169 0.71117 0.55333
 C1226 C 0.11932 0.70288 0.56596
 C1227 C 0.14539 0.69160 0.54991
 C1228 C 0.16859 0.68484 0.56425
 C1229 C 0.19124 0.67362 0.55069
 C1230 C 0.19109 0.66878 0.52248
 C1231 C 0.16828 0.67656 0.50794
 C1232 C 0.14547 0.68774 0.52160
 C1233 C 0.21428 0.65530 0.50814
 C1234 C 0.22971 0.63535 0.52077
 H1235 H 0.12564 0.70345 0.58992
 H1236 H 0.16916 0.68796 0.58604
 H1237 H 0.20886 0.66878 0.56236
 H1238 H 0.16785 0.67327 0.48614
 H1239 H 0.12782 0.69301 0.51015
 H1240 H 0.21818 0.65972 0.48684
 H1241 H 0.10657 0.70675 0.56051
 H1242 H 0.22381 0.62942 0.54128
 C1243 C 0.59327 0.21428 1.05440
 C1244 C 0.61994 0.21209 1.06327
 C1245 C 0.64273 0.19909 1.04758
 C1246 C 0.66598 0.19199 1.06176
 C1247 C 0.68777 0.17880 1.04855
 C1248 C 0.68687 0.17237 1.02070
 C1249 C 0.66418 0.18041 1.00615
 C1250 C 0.64218 0.19353 1.01945
 C1251 C 0.70942 0.15751 1.00659
 C1252 C 0.72525 0.13842 1.02001
 H1253 H 0.62479 0.21934 1.08330
 H1254 H 0.66721 0.19638 1.08332
 H1255 H 0.70538 0.17385 1.06019
 H1256 H 0.66326 0.17608 0.98455
 H1257 H 0.62507 0.19932 1.00752
 H1258 H 0.71279 0.16053 0.98496
 H1259 H 0.58916 0.20843 1.03368
 H1260 H 0.71996 0.13372 1.04098
 C1261 C 0.89382 0.20185 0.92371
 C1262 C 0.88507 0.19849 0.95079
 C1263 C 0.86108 0.18198 0.95809
 C1264 C 0.84507 0.18909 0.98112
 C1265 C 0.82264 0.17343 0.98874
 C1266 C 0.81607 0.15010 0.97360
 C1267 C 0.83242 0.14269 0.95092
 C1268 C 0.85460 0.15854 0.94309
 C1269 C 0.79331 0.13234 0.98177
 C1270 C 0.77000 0.14188 0.99565
 H1271 H 0.89488 0.20907 0.96709
 H1272 H 0.84992 0.20683 0.99321
 H1273 H 0.81097 0.17923 1.00685
 H1274 H 0.82802 0.12456 0.93922
 H1275 H 0.86703 0.15203 0.92571
 H1276 H 0.79451 0.11101 0.97603
 H1277 H 0.88100 0.19379 0.90809
 H1278 H 0.76793 0.16340 1.00029
 C1279 C 0.39684 0.69678 0.42087
 C1280 C 0.38891 0.69466 0.44830
 C1281 C 0.36541 0.67815 0.45697
 C1282 C 0.34958 0.68623 0.47981
 C1283 C 0.32727 0.67083 0.48831
 C1284 C 0.32072 0.64683 0.47426
 C1285 C 0.33699 0.63841 0.45188
 C1286 C 0.35904 0.65394 0.44321
 C1287 C 0.29800 0.62941 0.48307
 C1288 C 0.27482 0.63919 0.49694
 H1289 H 0.39874 0.70648 0.46374
 H1290 H 0.35440 0.70458 0.49097
 H1291 H 0.31564 0.67742 0.50618
 H1292 H 0.33258 0.61975 0.44104
 H1293 H 0.37139 0.64667 0.42607
 H1294 H 0.29899 0.60801 0.47752
 H1295 H 0.38384 0.68757 0.40604
 H1296 H 0.27273 0.66072 0.50149
 C1297 C 0.57643 0.80235 0.44757
 C1298 C 0.59683 0.78849 0.46116
 C1299 C 0.61990 0.80319 0.47267
 C1300 C 0.64561 0.79090 0.47158
 C1301 C 0.66835 0.80542 0.47935
 C1302 C 0.66565 0.83247 0.48879
 C1303 C 0.63975 0.84426 0.49108
 C1304 C 0.61705 0.82975 0.48331
 C1305 C 0.68928 0.84965 0.49438
 C1306 C 0.71515 0.83943 0.49920
 H1307 H 0.59823 0.76655 0.46038
 H1308 H 0.64828 0.77043 0.46351
 H1309 H 0.68797 0.79573 0.47674
 H1310 H 0.63711 0.86499 0.49847
 H1311 H 0.59738 0.83952 0.48532
 H1312 H 0.68637 0.87154 0.49419
 H1313 H 0.57734 0.82437 0.44730
 H1314 H 0.71821 0.81769 0.50103
 C1315 C 0.08763 0.28599 -0.04610
 C1316 C 0.09965 0.31173 -0.04501
 C1317 C 0.12647 0.31723 -0.03337
 C1318 C 0.13955 0.34134 -0.04098
 C1319 C 0.16499 0.34757 -0.03126
 C1320 C 0.17814 0.32976 -0.01360
 C1321 C 0.16484 0.30600 -0.00526
 C1322 C 0.13928 0.29965 -0.01512
 C1323 C 0.20494 0.33650 -0.00269
 C1324 C 0.22335 0.35282 -0.01704
 H1325 H 0.09021 0.32882 -0.05470
 H1326 H 0.13007 0.35547 -0.05467
 H1327 H 0.17400 0.36668 -0.03722
 H1328 H 0.17432 0.29225 0.00880
 H1329 H 0.12966 0.28126 -0.00806
 H1330 H 0.20992 0.32936 0.01736
 H1331 H 0.09752 0.26931 -0.03600
 H1332 H 0.21895 0.35798 -0.03784
 C1333 C 0.39987 0.30084 0.07167
 C1334 C 0.38106 0.28846 0.05485
 C1335 C 0.35883 0.30453 0.04293
 C1336 C 0.33365 0.29245 0.03861
 C1337 C 0.31201 0.30791 0.02890
 C1338 C 0.31541 0.33570 0.02306
 C1339 C 0.34088 0.34738 0.02648
 C1340 C 0.36238 0.33200 0.03606
 C1341 C 0.29315 0.35372 0.01442
 C1342 C 0.26827 0.34519 0.00461
 H1343 H 0.38123 0.26667 0.05169
 H1344 H 0.33050 0.27124 0.04351
 H1345 H 0.29266 0.29819 0.02675
 H1346 H 0.34417 0.36864 0.02183
 H1347 H 0.38177 0.34176 0.03805
 H1348 H 0.29671 0.37546 0.01530
 H1349 H 0.39662 0.32221 0.07650
 H1350 H 0.26384 0.32374 0.00276
 C1351 C 0.90090 0.80403 0.56736
 C1352 C 0.88238 0.79226 0.54984
 C1353 C 0.85845 0.80758 0.54057
 C1354 C 0.83463 0.79347 0.53517
 C1355 C 0.81121 0.80758 0.52804
 C1356 C 0.81134 0.83612 0.52585
 C1357 C 0.83536 0.85012 0.53056
 C1358 C 0.85876 0.83603 0.53757
 C1359 C 0.78672 0.85211 0.52001
 C1360 C 0.76431 0.84133 0.50716
 H1361 H 0.88372 0.77089 0.54460
 H1362 H 0.83391 0.77156 0.53728
 H1363 H 0.79294 0.79610 0.52515
 H1364 H 0.83602 0.87208 0.52886
 H1365 H 0.87700 0.84754 0.54057
 H1366 H 0.78650 0.87346 0.52567
 H1367 H 0.89712 0.82489 0.57379
 H1368 H 0.76572 0.82087 0.49886
   
