data_POSCAR
  _audit_creation_date              2014-09-24
  _audit_creation_method            'ToBaCCo'
  _symmetry_space_group_name_H-M    'P1'
  _symmetry_Int_Tables_number       1
  _symmetry_cell_setting            triclinic
  loop_
  _symmetry_equiv_pos_as_xyz
 x,y,z
_cell_length_a 52.1585
_cell_length_b 52.2232
_cell_length_c 52.1532
_cell_angle_alpha 90.215000
_cell_angle_beta 90.151200
_cell_angle_gamma 89.830900
loop_
  _atom_site_label
  _atom_site_type_symbol
  _atom_site_fract_x
  _atom_site_fract_y
  _atom_site_fract_z
C1 C 0.09068 0.02084 0.21677
 H2 H 0.08967 0.03583 0.23110
 C3 C 0.07829 0.02395 0.19316
 H4 H 0.06740 0.04123 0.18952
 C5 C 0.10706 -0.01950 0.20360
 H6 H 0.11905 -0.03597 0.20720
 C7 C 0.09465 -0.01735 0.18000
 H8 H 0.09668 -0.03249 0.16589
 N9 N 0.10492 -0.00053 0.22144
 C10 C 0.11887 -0.00274 0.30387
 H11 H 0.13957 -0.00167 0.30311
 C12 C 0.10661 -0.00486 0.32742
 H13 H 0.11787 -0.00511 0.34490
 C14 C 0.07902 -0.00396 0.28188
 H15 H 0.06851 -0.00391 0.26398
 C16 C 0.06593 -0.00645 0.30517
 H17 H 0.04524 -0.00792 0.30515
 Zn18 Zn 0.12505 -0.00142 0.25170
 N19 N 0.10504 -0.00215 0.28175
 C20 C 0.13997 0.04764 0.26831
 N21 N 0.14549 0.02845 0.25147
 C22 C 0.16327 0.03158 0.23271
 C23 C 0.17662 0.05467 0.23061
 C24 C 0.15259 0.07106 0.26668
 C25 C 0.13087 -0.05370 0.25368
 C26 C 0.14307 -0.07738 0.25508
 C27 C 0.18389 -0.05558 0.25584
 C28 C 0.17082 -0.03221 0.25404
 N29 N 0.14478 -0.03177 0.25273
 H30 H 0.12509 0.04521 0.28243
 H31 H 0.16668 0.01633 0.21903
 H32 H 0.19052 0.05701 0.21544
 H33 H 0.14767 0.08636 0.27987
 H34 H 0.11016 -0.05273 0.25312
 H35 H 0.13160 -0.09463 0.25524
 H36 H 0.20461 -0.05551 0.25654
 H37 H 0.18148 -0.01450 0.25394
 C38 C 0.07990 -0.00697 0.32821
 C39 C 0.08053 0.00477 0.17442
 C40 C 0.16992 -0.07859 0.25639
 C41 C 0.17109 0.07473 0.24766
 C42 C 0.40671 0.02444 0.78420
 H43 H 0.40505 0.04075 0.77157
 C44 C 0.41943 0.02692 0.80776
 H45 H 0.42786 0.04509 0.81305
 C46 C 0.39667 -0.01881 0.79333
 H47 H 0.38724 -0.03644 0.78811
 C48 C 0.40943 -0.01726 0.81678
 H49 H 0.41000 -0.03380 0.82924
 N50 N 0.39534 0.00191 0.77764
 C51 C 0.37931 -0.00859 0.69644
 H52 H 0.35917 -0.01310 0.69828
 C53 C 0.39104 -0.01031 0.67257
 H54 H 0.37971 -0.01603 0.65615
 C55 C 0.41821 0.00486 0.71581
 H56 H 0.42861 0.01076 0.73279
 C57 C 0.43070 0.00363 0.69209
 H58 H 0.45077 0.00872 0.69077
 Zn59 Zn 0.37394 0.00034 0.74825
 N60 N 0.39287 -0.00100 0.71742
 C61 C 0.35196 0.04456 0.72657
 N62 N 0.35276 0.02991 0.74806
 C63 C 0.34071 0.03746 0.76995
 C64 C 0.32764 0.06090 0.77087
 C65 C 0.33892 0.06788 0.72658
 C66 C 0.36735 -0.05184 0.74286
 C67 C 0.35483 -0.07532 0.74259
 C68 C 0.31589 -0.05376 0.75564
 C69 C 0.32915 -0.03050 0.75541
 N70 N 0.35449 -0.03007 0.74930
 H71 H 0.36203 0.03862 0.70950
 H72 H 0.34202 0.02569 0.78694
 H73 H 0.31870 0.06712 0.78855
 H74 H 0.33912 0.07940 0.70941
 H75 H 0.38746 -0.05089 0.73794
 H76 H 0.36531 -0.09252 0.73744
 H77 H 0.29579 -0.05397 0.76066
 H78 H 0.31928 -0.01291 0.76021
 C79 C 0.41700 -0.00407 0.67019
 C80 C 0.42049 0.00592 0.82442
 C81 C 0.32890 -0.07644 0.74919
 C82 C 0.32686 0.07643 0.74901
 C83 C 0.90690 0.52390 0.28559
 H84 H 0.90552 0.54027 0.27300
 C85 C 0.91922 0.52624 0.30936
 H86 H 0.92766 0.54442 0.31455
 C87 C 0.89651 0.48068 0.29433
 H88 H 0.88707 0.46313 0.28884
 C89 C 0.90886 0.48206 0.31801
 H90 H 0.90912 0.46536 0.33027
 N91 N 0.89551 0.50148 0.27874
 C92 C 0.87963 0.49390 0.19714
 H93 H 0.85938 0.48982 0.19878
 C94 C 0.89146 0.49244 0.17330
 H95 H 0.88005 0.48747 0.15669
 C96 C 0.91883 0.50555 0.21709
 H97 H 0.92933 0.51049 0.23430
 C98 C 0.93144 0.50454 0.19341
 H99 H 0.95169 0.50889 0.19236
 Zn100 Zn 0.87430 0.50043 0.24919
 N101 N 0.89331 0.50042 0.21839
 C102 C 0.85130 0.54522 0.22926
 N103 N 0.85261 0.52964 0.25009
 C104 C 0.84083 0.53610 0.27247
 C105 C 0.82767 0.55940 0.27469
 C106 C 0.83808 0.56842 0.23055
 C107 C 0.86891 0.44828 0.24216
 C108 C 0.85686 0.42457 0.24079
 C109 C 0.81726 0.44491 0.25378
 C110 C 0.83005 0.46843 0.25462
 N111 N 0.85548 0.46958 0.24905
 H112 H 0.86110 0.54011 0.21178
 H113 H 0.84248 0.52358 0.28887
 H114 H 0.81894 0.56458 0.29277
 H115 H 0.83754 0.58081 0.21395
 H116 H 0.88908 0.44980 0.23766
 H117 H 0.86778 0.40776 0.23527
 H118 H 0.79707 0.44417 0.25838
 H119 H 0.81973 0.48567 0.25977
 C120 C 0.91765 0.49778 0.17126
 C121 C 0.91986 0.50522 0.32614
 C122 C 0.83083 0.42270 0.24682
 C123 C 0.82658 0.57595 0.25360
 C124 C 0.58597 0.51858 0.72032
 H125 H 0.58106 0.53119 0.73608
 C126 C 0.57261 0.52028 0.69710
 H127 H 0.55722 0.53407 0.69512
 C128 C 0.61283 0.48604 0.70327
 H129 H 0.62904 0.47330 0.70544
 C130 C 0.60023 0.48733 0.67973
 H131 H 0.60649 0.47522 0.66403
 N132 N 0.60546 0.50142 0.72305
 C133 C 0.61885 0.50100 0.80554
 H134 H 0.63937 0.50383 0.80486
 C135 C 0.60660 0.49874 0.82907
 H136 H 0.61768 0.50012 0.84662
 C137 C 0.57946 0.49545 0.78339
 H138 H 0.56913 0.49370 0.76549
 C139 C 0.56643 0.49274 0.80667
 H140 H 0.54597 0.48940 0.80658
 Zn141 Zn 0.62531 0.50127 0.75339
 N142 N 0.60520 0.49965 0.78334
 C143 C 0.63802 0.55117 0.76938
 N144 N 0.64480 0.53169 0.75337
 C145 C 0.66353 0.53469 0.73553
 C146 C 0.67665 0.55791 0.73366
 C147 C 0.65041 0.57473 0.76795
 C148 C 0.63236 0.44935 0.75265
 C149 C 0.64492 0.42586 0.75362
 C150 C 0.68510 0.44825 0.75888
 C151 C 0.67173 0.47150 0.75747
 N152 N 0.64584 0.47154 0.75419
 H153 H 0.62241 0.54877 0.78272
 H154 H 0.66797 0.51915 0.72248
 H155 H 0.69138 0.56008 0.71928
 H156 H 0.64459 0.59023 0.78053
 H157 H 0.61173 0.45001 0.75049
 H158 H 0.63397 0.40833 0.75199
 H159 H 0.70570 0.44833 0.76140
 H160 H 0.68196 0.48938 0.75932
 C161 C 0.58017 0.49440 0.82977
 C162 C 0.57990 0.50456 0.67651
 C163 C 0.67153 0.42517 0.75687
 C164 C 0.66994 0.57823 0.74995
 C165 C 0.28283 0.08853 0.97735
 H166 H 0.26740 0.08441 0.96409
 C167 C 0.30629 0.07567 0.97503
 H168 H 0.30872 0.06134 0.96020
 C169 C 0.29897 0.11312 1.01209
 H170 H 0.29641 0.12828 1.02598
 C171 C 0.32273 0.10105 1.01019
 H172 H 0.33813 0.10662 1.02300
 N173 N 0.27949 0.10657 0.99597
 C174 C 0.19713 0.11958 1.00261
 H175 H 0.19815 0.14023 1.00388
 C176 C 0.17355 0.10740 1.00480
 H177 H 0.15635 0.11870 1.00768
 C178 C 0.21845 0.07970 0.99767
 H179 H 0.23606 0.06900 0.99541
 C180 C 0.19507 0.06670 0.99939
 H181 H 0.19482 0.04602 0.99815
 Zn182 Zn 0.24882 0.12596 0.99744
 N183 N 0.21893 0.10572 0.99896
 C184 C 0.23036 0.14092 0.94912
 N185 N 0.24787 0.14635 0.96771
 C186 C 0.26649 0.16414 0.96404
 C187 C 0.26790 0.17742 0.94087
 C188 C 0.23130 0.15348 0.92561
 C189 C 0.24962 0.13175 1.04972
 C190 C 0.24854 0.14385 1.07349
 C191 C 0.24409 0.18448 1.05182
 C192 C 0.24560 0.17154 1.02832
 N193 N 0.24844 0.14565 1.02779
 H194 H 0.21623 0.12615 0.95210
 H195 H 0.28059 0.16755 0.97890
 H196 H 0.28302 0.19126 0.93804
 H197 H 0.21764 0.14858 0.91072
 H198 H 0.25150 0.11114 1.04865
 H199 H 0.24989 0.13242 1.09074
 H200 H 0.24198 0.20508 1.05182
 H201 H 0.24415 0.18211 1.01060
 C202 C 0.17234 0.08072 1.00291
 C203 C 0.32651 0.08203 0.99161
 C204 C 0.24548 0.17052 1.07481
 C205 C 0.25027 0.17186 0.92132
 C206 C 0.71848 0.40992 0.98237
 H207 H 0.73310 0.41371 0.96823
 C208 C 0.69487 0.42262 0.98101
 H209 H 0.69150 0.43643 0.96596
 C210 C 0.70451 0.38632 1.01845
 H211 H 0.70794 0.37160 1.03253
 C212 C 0.68061 0.39825 1.01754
 H213 H 0.66598 0.39297 1.03123
 N214 N 0.72298 0.39244 1.00116
 C215 C 0.80570 0.38122 1.00524
 H216 H 0.80523 0.36061 1.00714
 C217 C 0.82906 0.39400 1.00606
 H218 H 0.84664 0.38321 1.00863
 C219 C 0.78326 0.42041 0.99985
 H220 H 0.76534 0.43062 0.99788
 C221 C 0.80637 0.43397 1.00017
 H222 H 0.80609 0.45459 0.99825
 Zn223 Zn 0.75399 0.37355 1.00153
 N224 N 0.78345 0.39445 1.00198
 C225 C 0.77134 0.35868 0.95280
 N226 N 0.75428 0.35304 0.97163
 C227 C 0.73577 0.33506 0.96805
 C228 C 0.73399 0.32185 0.94473
 C229 C 0.77003 0.34619 0.92918
 C230 C 0.75571 0.36820 1.05384
 C231 C 0.75719 0.35625 1.07759
 C232 C 0.76000 0.31538 1.05582
 C233 C 0.75814 0.32818 1.03236
 N234 N 0.75583 0.35411 1.03188
 H235 H 0.78539 0.37357 0.95568
 H236 H 0.72202 0.33144 0.98310
 H237 H 0.71896 0.30787 0.94197
 H238 H 0.78334 0.35128 0.91414
 H239 H 0.75416 0.38883 1.05280
 H240 H 0.75648 0.36782 1.09486
 H241 H 0.76145 0.29472 1.05578
 H242 H 0.75866 0.31743 1.01462
 C243 C 0.82955 0.42060 1.00318
 C244 C 0.67568 0.41668 0.99877
 C245 C 0.75953 0.32952 1.07886
 C246 C 0.75114 0.32767 0.92496
 C247 C 0.21579 0.90560 0.47954
 H248 H 0.22778 0.90431 0.46268
 C249 C 0.19183 0.91763 0.47808
 H250 H 0.18547 0.92590 0.46014
 C251 C 0.20863 0.89506 0.52310
 H252 H 0.21480 0.88562 0.54042
 C253 C 0.18476 0.90708 0.52254
 H254 H 0.17305 0.90684 0.53961
 N255 N 0.22353 0.89432 0.50175
 C256 C 0.30564 0.88097 0.50723
 H257 H 0.30508 0.86086 0.51212
 C258 C 0.32889 0.89399 0.50758
 H259 H 0.34631 0.88389 0.51276
 C260 C 0.28353 0.91870 0.49478
 H261 H 0.26571 0.92820 0.49001
 C262 C 0.30652 0.93243 0.49460
 H263 H 0.30629 0.95252 0.48965
 Zn264 Zn 0.25337 0.87362 0.50183
 N265 N 0.28359 0.89338 0.50085
 C266 C 0.27239 0.85063 0.45660
 N267 N 0.25184 0.85222 0.47254
 C268 C 0.22910 0.84103 0.46635
 C269 C 0.22618 0.82828 0.44291
 C270 C 0.27040 0.83779 0.43321
 C271 C 0.26197 0.86732 0.55390
 C272 C 0.26291 0.85495 0.57749
 C273 C 0.24843 0.81617 0.55666
 C274 C 0.24800 0.82925 0.53330
 N275 N 0.25444 0.85445 0.53246
 H276 H 0.29018 0.85993 0.46161
 H277 H 0.21296 0.84290 0.47920
 H278 H 0.20782 0.82004 0.43795
 H279 H 0.28677 0.83702 0.42048
 H280 H 0.26703 0.88735 0.55264
 H281 H 0.26876 0.86546 0.59446
 H282 H 0.24298 0.79621 0.55717
 H283 H 0.24223 0.81940 0.51597
 C284 C 0.32949 0.91993 0.50105
 C285 C 0.17596 0.91816 0.49972
 C286 C 0.25582 0.82920 0.57905
 C287 C 0.24694 0.82698 0.42594
 C288 C 0.78149 0.58643 0.48058
 H289 H 0.76558 0.58160 0.46813
 C290 C 0.80476 0.57324 0.47832
 H291 H 0.80659 0.55801 0.46432
 C292 C 0.79887 0.61294 0.51324
 H293 H 0.79679 0.62895 0.52625
 C294 C 0.82247 0.60052 0.51138
 H295 H 0.83830 0.60669 0.52336
 N296 N 0.77890 0.60564 0.49809
 C297 C 0.69642 0.61912 0.49952
 H298 H 0.69722 0.63969 0.49733
 C299 C 0.67281 0.60697 0.50132
 H300 H 0.65534 0.61818 0.50027
 C301 C 0.71833 0.57949 0.50376
 H302 H 0.73617 0.56900 0.50511
 C303 C 0.69497 0.56653 0.50599
 H304 H 0.69493 0.54599 0.50861
 Zn305 Zn 0.74850 0.62538 0.49893
 N306 N 0.71854 0.60532 0.50041
 C307 C 0.73209 0.63849 0.44936
 N308 N 0.74815 0.64528 0.46881
 C309 C 0.76570 0.66427 0.46587
 C310 C 0.76717 0.67767 0.44277
 C311 C 0.73312 0.65116 0.42593
 C312 C 0.74977 0.63190 0.55110
 C313 C 0.74858 0.64425 0.57474
 C314 C 0.74244 0.68443 0.55267
 C315 C 0.74406 0.67129 0.52928
 N316 N 0.74785 0.64550 0.52901
 H317 H 0.71902 0.62267 0.45168
 H318 H 0.77882 0.66870 0.48136
 H319 H 0.78130 0.69262 0.44062
 H320 H 0.72051 0.64533 0.41046
 H321 H 0.75229 0.61134 0.55025
 H322 H 0.75044 0.63322 0.59220
 H323 H 0.73947 0.70495 0.55276
 H324 H 0.74188 0.68161 0.51148
 C325 C 0.67195 0.58044 0.50473
 C326 C 0.82553 0.58042 0.49383
 C327 C 0.74475 0.67075 0.57566
 C328 C 0.75079 0.67096 0.42251
 C329 C 0.02167 0.21790 0.08883
 H330 H 0.03696 0.23180 0.08772
 C331 C 0.02432 0.19408 0.07673
 H332 H 0.04153 0.18987 0.06595
 C333 C -0.01891 0.20598 0.10521
 H334 H -0.03530 0.21013 0.11711
 C335 C -0.01723 0.18220 0.09310
 H336 H -0.03263 0.16851 0.09527
 N337 N 0.00040 0.22328 0.10295
 C338 C -0.00028 0.30568 0.11663
 H339 H 0.00047 0.30489 0.13734
 C340 C -0.00131 0.32925 0.10435
 H341 H -0.00108 0.34662 0.11577
 C342 C -0.00134 0.28374 0.07676
 H343 H -0.00149 0.26586 0.06624
 C344 C -0.00277 0.30706 0.06360
 H345 H -0.00362 0.30680 0.04289
 Zn346 Zn 0.00014 0.25365 0.12291
 N347 N -0.00009 0.28358 0.10281
 C348 C 0.04961 0.26931 0.13722
 N349 N 0.03027 0.25298 0.14321
 C350 C 0.03348 0.23450 0.16129
 C351 C 0.05677 0.23227 0.17448
 C352 C 0.07320 0.26753 0.14966
 C353 C -0.05217 0.25698 0.12882
 C354 C -0.07580 0.25848 0.14109
 C355 C -0.05370 0.25828 0.18187
 C356 C -0.03037 0.25645 0.16877
 N357 N -0.03011 0.25545 0.14269
 H358 H 0.04715 0.28316 0.12209
 H359 H 0.01812 0.22117 0.16506
 H360 H 0.05917 0.21737 0.18865
 H361 H 0.08858 0.28035 0.14437
 H362 H -0.05134 0.25669 0.10809
 H363 H -0.09324 0.25908 0.12979
 H364 H -0.05375 0.25872 0.20261
 H365 H -0.01258 0.25595 0.17942
 C366 C -0.00287 0.33023 0.07751
 C367 C 0.00479 0.17588 0.07914
 C368 C -0.07669 0.25913 0.16788
 C369 C 0.07694 0.24886 0.16848
 C370 C 0.01806 0.77936 0.41233
 H371 H 0.03226 0.76443 0.41485
 C372 C 0.02048 0.80254 0.42566
 H373 H 0.03642 0.80527 0.43869
 C374 C -0.01929 0.79455 0.39123
 H375 H -0.03435 0.79171 0.37727
 C376 C -0.01738 0.81803 0.40384
 H377 H -0.03122 0.83300 0.39978
 N378 N -0.00164 0.77581 0.39553
 C379 C -0.00551 0.69375 0.37942
 H380 H -0.00575 0.69480 0.35871
 C381 C -0.00713 0.67006 0.39145
 H382 H -0.00830 0.65278 0.37998
 C383 C -0.00381 0.71509 0.41961
 H384 H -0.00281 0.73274 0.43044
 C385 C -0.00576 0.69170 0.43247
 H386 H -0.00582 0.69146 0.45321
 Zn387 Zn -0.00233 0.74628 0.37443
 N388 N -0.00345 0.71561 0.39353
 C389 C 0.04466 0.72742 0.35457
 N390 N 0.02763 0.74720 0.35401
 C391 C 0.03286 0.76910 0.34099
 C392 C 0.05621 0.77188 0.32819
 C393 C 0.06798 0.72924 0.34172
 C394 C -0.05439 0.74207 0.36791
 C395 C -0.07800 0.74135 0.35546
 C396 C -0.05640 0.75011 0.31549
 C397 C -0.03303 0.75032 0.32875
 N398 N -0.03256 0.74659 0.35454
 H399 H 0.04064 0.71047 0.36557
 H400 H 0.01920 0.78473 0.34124
 H401 H 0.06031 0.78957 0.31831
 H402 H 0.08149 0.71347 0.34253
 H403 H -0.05337 0.73895 0.38838
 H404 H -0.09515 0.73761 0.36649
 H405 H -0.05633 0.75314 0.29500
 H406 H -0.01536 0.75350 0.31848
 C407 C -0.00736 0.66891 0.41824
 C408 C 0.00272 0.82222 0.42117
 C409 C -0.07933 0.74572 0.32896
 C410 C 0.07412 0.75183 0.32877
 C411 C 0.52339 0.28222 0.90830
 H412 H 0.53978 0.26965 0.90621
 C413 C 0.52575 0.30516 0.92205
 H414 H 0.54393 0.31000 0.93080
 C415 C 0.48008 0.29189 0.89827
 H416 H 0.46251 0.28712 0.88841
 C417 C 0.48151 0.31473 0.91210
 H418 H 0.46492 0.32723 0.91303
 N419 N 0.50092 0.27626 0.89641
 C420 C 0.49351 0.19559 0.87710
 H421 H 0.49007 0.19770 0.85675
 C422 C 0.49142 0.17158 0.88840
 H423 H 0.48669 0.15524 0.87652
 C424 C 0.50393 0.21459 0.91715
 H425 H 0.50855 0.23150 0.92822
 C426 C 0.50230 0.19076 0.92923
 H427 H 0.50593 0.18928 0.94962
 Zn428 Zn 0.50004 0.24789 0.87372
 N429 N 0.49967 0.21646 0.89148
 C430 C 0.54553 0.22900 0.85102
 N431 N 0.52959 0.24961 0.85270
 C432 C 0.53586 0.27240 0.84183
 C433 C 0.55930 0.27525 0.82919
 C434 C 0.56892 0.23095 0.83830
 C435 C 0.44787 0.24188 0.86709
 C436 C 0.42430 0.24118 0.85453
 C437 C 0.44532 0.25498 0.81574
 C438 C 0.46868 0.25519 0.82904
 N439 N 0.46942 0.24888 0.85432
 H440 H 0.54052 0.21119 0.86013
 H441 H 0.52304 0.28861 0.84380
 H442 H 0.56429 0.29363 0.82114
 H443 H 0.58160 0.21450 0.83742
 H444 H 0.44907 0.23675 0.88714
 H445 H 0.40729 0.23554 0.86493
 H446 H 0.44490 0.26013 0.79568
 H447 H 0.48612 0.26038 0.81922
 C448 C 0.49577 0.16902 0.91476
 C449 C 0.50469 0.32182 0.92362
 C450 C 0.42286 0.24791 0.82864
 C451 C 0.57622 0.25439 0.82769
 C452 C 0.52037 0.71666 0.59322
 H453 H 0.53744 0.72834 0.59420
 C454 C 0.52113 0.69284 0.58084
 H455 H 0.53876 0.68628 0.57206
 C456 C 0.47697 0.71012 0.60476
 H457 H 0.45996 0.71647 0.61469
 C458 C 0.47682 0.68642 0.59240
 H459 H 0.45958 0.67499 0.59291
 N460 N 0.49857 0.72464 0.60514
 C461 C 0.49353 0.80663 0.61887
 H462 H 0.48929 0.80600 0.63915
 C463 C 0.49268 0.82988 0.60594
 H464 H 0.48778 0.84723 0.61628
 C465 C 0.50487 0.78468 0.58063
 H466 H 0.50942 0.76693 0.57090
 C467 C 0.50455 0.80770 0.56696
 H468 H 0.50892 0.80756 0.54670
 Zn469 Zn 0.49933 0.75445 0.62595
 N470 N 0.49960 0.78465 0.60616
 C471 C 0.54525 0.77363 0.64732
 N472 N 0.52934 0.75304 0.64642
 C473 C 0.53582 0.73056 0.65789
 C474 C 0.55944 0.72801 0.67041
 C475 C 0.56882 0.77199 0.65989
 C476 C 0.44761 0.76338 0.63398
 C477 C 0.42437 0.76433 0.64703
 C478 C 0.44613 0.74933 0.68511
 C479 C 0.46913 0.74890 0.67136
 N480 N 0.46934 0.75558 0.64617
 H481 H 0.54002 0.79121 0.63781
 H482 H 0.52299 0.71437 0.65657
 H483 H 0.56456 0.70988 0.67901
 H484 H 0.58145 0.78842 0.66021
 H485 H 0.44834 0.76860 0.61394
 H486 H 0.40717 0.77036 0.63703
 H487 H 0.44609 0.74364 0.70503
 H488 H 0.48668 0.74291 0.68067
 C489 C 0.49842 0.83058 0.57977
 C490 C 0.49920 0.67739 0.58060
 C491 C 0.42345 0.75697 0.67276
 C492 C 0.57630 0.74886 0.67116
 C493 C 0.91370 0.98008 0.71584
 H494 H 0.91561 0.96464 0.72948
 C495 C 0.92701 0.97941 0.69385
 H496 H 0.93973 0.96346 0.69002
 C497 C 0.89311 1.01932 0.70453
 H498 H 0.87945 1.03444 0.70808
 C499 C 0.90707 1.01924 0.68008
 H500 H 0.90348 1.03448 0.66648
 N501 N 0.89639 1.00097 0.72111
 C502 C 0.88035 1.01132 0.80388
 H503 H 0.86073 1.01772 0.80162
 C504 C 0.89103 1.01093 0.82715
 H505 H 0.87983 1.01720 0.84342
 C506 C 0.91815 0.99496 0.78385
 H507 H 0.92840 0.98832 0.76714
 C508 C 0.93076 0.99413 0.80928
 H509 H 0.95027 0.98708 0.81075
 Zn510 Zn 0.87531 1.00124 0.75090
 N511 N 0.89447 1.00268 0.78182
 C512 C 0.85371 0.95737 0.77345
 N513 N 0.85533 0.97096 0.75128
 C514 C 0.84475 0.96202 0.72914
 C515 C 0.83249 0.93821 0.72864
 C516 C 0.84140 0.93373 0.77386
 C517 C 0.86716 1.05322 0.75545
 C518 C 0.85453 1.07665 0.75361
 C519 C 0.81620 1.05427 0.74035
 C520 C 0.82957 1.03107 0.74263
 N521 N 0.85467 1.03107 0.74985
 H522 H 0.86241 0.96453 0.79083
 H523 H 0.84652 0.97303 0.71171
 H524 H 0.82461 0.93112 0.71078
 H525 H 0.84056 0.92299 0.79157
 H526 H 0.88717 1.05265 0.76093
 H527 H 0.86477 1.09415 0.75799
 H528 H 0.79632 1.05418 0.73436
 H529 H 0.82013 1.01320 0.73814
 C530 C 0.91769 1.00154 0.83026
 C531 C 0.92348 1.00015 0.67474
 C532 C 0.82889 1.07734 0.74573
 C533 C 0.83107 0.92371 0.75120
 C534 C 0.41203 0.48223 0.21736
 H535 H 0.41432 0.46633 0.23039
 C536 C 0.42605 0.48272 0.19449
 H537 H 0.43936 0.46735 0.19029
 C538 C 0.39057 0.52056 0.20587
 H539 H 0.37628 0.53501 0.20981
 C540 C 0.40391 0.52161 0.18279
 H541 H 0.39991 0.53692 0.16939
 N542 N 0.39466 0.50103 0.22265
 C543 C 0.37758 0.50616 0.30443
 H544 H 0.35794 0.51246 0.30217
 C545 C 0.38850 0.50563 0.32882
 H546 H 0.37704 0.51147 0.34507
 C547 C 0.41618 0.49108 0.28583
 H548 H 0.42696 0.48549 0.26908
 C549 C 0.42786 0.49012 0.31003
 H550 H 0.44758 0.48380 0.31177
 Zn551 Zn 0.37288 0.49927 0.25198
 N552 N 0.39132 0.49877 0.28352
 C553 C 0.34010 0.46098 0.27145
 N554 N 0.35263 0.46909 0.25011
 C555 C 0.35294 0.45463 0.22835
 C556 C 0.34126 0.43059 0.22785
 C557 C 0.32840 0.43696 0.27184
 C558 C 0.36477 0.55104 0.25893
 C559 C 0.35234 0.57459 0.25734
 C560 C 0.31440 0.55286 0.24201
 C561 C 0.32756 0.52952 0.24405
 N562 N 0.35238 0.52916 0.25215
 H563 H 0.33992 0.47270 0.28853
 H564 H 0.36279 0.46142 0.21151
 H565 H 0.34232 0.41913 0.21057
 H566 H 0.31921 0.43037 0.28920
 H567 H 0.38460 0.55018 0.26498
 H568 H 0.36253 0.59190 0.26254
 H569 H 0.29479 0.55306 0.23520
 H570 H 0.31827 0.51185 0.23850
 C571 C 0.41388 0.49740 0.33182
 C572 C 0.42180 0.50254 0.17688
 C573 C 0.32703 0.57569 0.24849
 C574 C 0.32927 0.42135 0.24998
 C575 C 0.58876 0.98567 0.28746
 H576 H 0.58450 0.96991 0.27463
 C577 C 0.57729 0.98715 0.31043
 H578 H 0.56363 0.97263 0.31599
 C579 C 0.61271 1.02378 0.29520
 H580 H 0.62692 1.03768 0.28982
 C581 C 0.60070 1.02610 0.32060
 H582 H 0.60604 1.04210 0.33270
 N583 N 0.60696 1.00485 0.27987
 C584 C 0.61546 1.00613 0.19665
 H585 H 0.63589 1.00963 0.19660
 C586 C 0.60217 1.00456 0.17354
 H587 H 0.61236 1.00717 0.15567
 C588 C 0.57743 0.99796 0.22003
 H589 H 0.56796 0.99527 0.23820
 C590 C 0.56337 0.99597 0.19716
 H591 H 0.54306 0.99190 0.19786
 Zn592 Zn 0.62507 1.00234 0.24827
 N593 N 0.60311 1.00253 0.21927
 C594 C 0.63831 0.95368 0.22911
 N595 N 0.64414 0.97120 0.24763
 C596 C 0.66222 0.96606 0.26578
 C597 C 0.67577 0.94287 0.26520
 C598 C 0.65112 0.93025 0.22804
 C599 C 0.63351 1.05381 0.24059
 C600 C 0.64633 1.07715 0.24107
 C601 C 0.68563 1.05455 0.25085
 C602 C 0.67204 1.03148 0.24992
 N603 N 0.64631 1.03163 0.24546
 H604 H 0.62339 0.95756 0.21529
 H605 H 0.66600 0.97989 0.28081
 H606 H 0.69005 0.93901 0.27978
 H607 H 0.64607 0.91645 0.21333
 H608 H 0.61305 1.05338 0.23717
 H609 H 0.63568 1.09466 0.23767
 H610 H 0.70595 1.05416 0.25504
 H611 H 0.68193 1.01367 0.25351
 C612 C 0.57595 0.99902 0.17363
 C613 C 0.58383 1.00839 0.32828
 C614 C 0.67256 1.07776 0.24687
 C615 C 0.67020 0.92474 0.24607
 C616 C 0.08906 0.48536 0.78632
 H617 H 0.08514 0.46952 0.77350
 C618 C 0.07725 0.48650 0.81040
 H619 H 0.06396 0.47165 0.81597
 C620 C 0.11178 0.52359 0.79534
 H621 H 0.12560 0.53785 0.78986
 C622 C 0.10064 0.52531 0.81951
 H623 H 0.10573 0.54112 0.83195
 N624 N 0.10591 0.50387 0.77922
 C625 C 0.11452 0.50659 0.69608
 H626 H 0.13482 0.51076 0.69617
 C627 C 0.10142 0.50473 0.67288
 H628 H 0.11160 0.50783 0.65509
 C629 C 0.07671 0.49675 0.71916
 H630 H 0.06726 0.49344 0.73724
 C631 C 0.06285 0.49446 0.69621
 H632 H 0.04272 0.48957 0.69677
 Zn633 Zn 0.12401 0.50188 0.74768
 N634 N 0.10220 0.50227 0.71859
 C635 C 0.13803 0.45377 0.72779
 N636 N 0.14318 0.47093 0.74684
 C637 C 0.16065 0.46552 0.76550
 C638 C 0.17429 0.44241 0.76493
 C639 C 0.15094 0.43042 0.72671
 C640 C 0.13252 0.55342 0.74070
 C641 C 0.14523 0.57677 0.74233
 C642 C 0.18417 0.55404 0.75321
 C643 C 0.17072 0.53097 0.75113
 N644 N 0.14520 0.53117 0.74558
 H645 H 0.12357 0.45788 0.71355
 H646 H 0.16381 0.47905 0.78093
 H647 H 0.18806 0.43830 0.77992
 H648 H 0.14643 0.41687 0.71159
 H649 H 0.11220 0.55304 0.73652
 H650 H 0.13477 0.59439 0.73898
 H651 H 0.20429 0.55375 0.75828
 H652 H 0.18051 0.51312 0.75480
 C653 C 0.07545 0.49815 0.67279
 C654 C 0.08336 0.50652 0.82735
 C655 C 0.17116 0.57722 0.74926
 C656 C 0.16942 0.42465 0.74527
 C657 C 0.79052 0.90182 0.02424
 H658 H 0.78316 0.89310 0.04146
 C659 C 0.81369 0.91514 0.02517
 H660 H 0.82401 0.91641 0.04314
 C661 C 0.78642 0.91022 -0.02019
 H662 H 0.77601 0.90799 -0.03794
 C663 C 0.80957 0.92356 -0.02014
 H664 H 0.81680 0.93151 -0.03785
 N665 N 0.77776 0.89896 0.00162
 C666 C 0.69773 0.88049 -0.01156
 H667 H 0.70027 0.86103 -0.01827
 C668 C 0.67330 0.89130 -0.01104
 H669 H 0.65721 0.88009 -0.01773
 C670 C 0.71575 0.91823 0.00630
 H671 H 0.73237 0.92833 0.01350
 C672 C 0.69153 0.92977 0.00726
 H673 H 0.68950 0.94896 0.01494
 Zn674 Zn 0.74964 0.87599 -0.00076
 N675 N 0.71827 0.89391 -0.00278
 C676 C 0.72658 0.85444 0.04293
 N677 N 0.74855 0.85484 0.02888
 C678 C 0.76989 0.84205 0.03686
 C679 C 0.76992 0.82911 0.06030
 C680 C 0.72568 0.84144 0.06619
 C681 C 0.74577 0.86836 -0.05325
 C682 C 0.74830 0.85610 -0.07684
 C683 C 0.76612 0.81935 -0.05509
 C684 C 0.76322 0.83237 -0.03174
 N685 N 0.75332 0.85653 -0.03130
 H686 H 0.70982 0.86479 0.03659
 H687 H 0.78722 0.84282 0.02555
 H688 H 0.78725 0.81966 0.06672
 H689 H 0.70821 0.84173 0.07738
 H690 H 0.73770 0.88744 -0.05243
 H691 H 0.74216 0.86578 -0.09415
 H692 H 0.77400 0.80017 -0.05526
 H693 H 0.76899 0.82323 -0.01409
 C694 C 0.67000 0.91609 -0.00123
 C695 C 0.82373 0.92557 0.00260
 C696 C 0.75863 0.83139 -0.07792
 C697 C 0.74767 0.82914 0.07537
 C698 C 0.28365 0.41188 0.51632
 H699 H 0.26996 0.41396 0.53173
 C700 C 0.30656 0.42583 0.51691
 H701 H 0.31023 0.43886 0.53266
 C702 C 0.29644 0.39127 0.47785
 H703 H 0.29297 0.37737 0.46292
 C704 C 0.31956 0.40451 0.47790
 H705 H 0.33344 0.40085 0.46290
 N706 N 0.27892 0.39512 0.49682
 C707 C 0.19745 0.37947 0.48641
 H708 H 0.19985 0.35987 0.48009
 C709 C 0.17303 0.39031 0.48687
 H710 H 0.15690 0.37897 0.48054
 C711 C 0.21563 0.41752 0.50332
 H712 H 0.23222 0.42794 0.50997
 C713 C 0.19141 0.42909 0.50422
 H714 H 0.18945 0.44846 0.51147
 Zn715 Zn 0.24918 0.37404 0.49657
 N716 N 0.21811 0.39295 0.49486
 C717 C 0.22638 0.35241 0.54031
 N718 N 0.24867 0.35421 0.52693
 C719 C 0.27082 0.34382 0.53607
 C720 C 0.27117 0.33160 0.55991
 C721 C 0.22583 0.34012 0.56397
 C722 C 0.24554 0.36576 0.44457
 C723 C 0.24760 0.35301 0.42121
 C724 C 0.25988 0.31463 0.44399
 C725 C 0.25742 0.32815 0.46711
 N726 N 0.25058 0.35332 0.46687
 H727 H 0.20900 0.36094 0.53301
 H728 H 0.28834 0.34571 0.52520
 H729 H 0.28901 0.32389 0.56718
 H730 H 0.20802 0.33914 0.57456
 H731 H 0.24033 0.38582 0.44498
 H732 H 0.24366 0.36321 0.40357
 H733 H 0.26554 0.29469 0.44426
 H734 H 0.26143 0.31874 0.48512
 C735 C 0.16979 0.41527 0.49621
 C736 C 0.32479 0.42202 0.49752
 C737 C 0.25508 0.32728 0.42077
 C738 C 0.24847 0.33000 0.57420
 C739 C 0.20917 0.59949 0.02509
 H740 H 0.21658 0.60801 0.04249
 C741 C 0.18533 0.58736 0.02545
 H742 H 0.17482 0.58696 0.04326
 C743 C 0.21384 0.59031 -0.01914
 H744 H 0.22480 0.59178 -0.03658
 C745 C 0.19005 0.57814 -0.01970
 H746 H 0.18299 0.57031 -0.03764
 N747 N 0.22258 0.60137 0.00286
 C748 C 0.30351 0.61514 -0.00976
 H749 H 0.30189 0.63443 -0.01706
 C750 C 0.32744 0.60329 -0.00867
 H751 H 0.34398 0.61352 -0.01562
 C752 C 0.28385 0.57907 0.00935
 H753 H 0.26681 0.57009 0.01690
 C754 C 0.30755 0.56651 0.01091
 H755 H 0.30873 0.54763 0.01935
 Zn756 Zn 0.25198 0.62271 0.00118
 N757 N 0.28237 0.60303 -0.00069
 C758 C 0.27619 0.64263 0.04526
 N759 N 0.25419 0.64361 0.03116
 C760 C 0.23372 0.65771 0.03922
 C761 C 0.23473 0.67088 0.06262
 C762 C 0.27811 0.65575 0.06850
 C763 C 0.25650 0.63079 -0.05126
 C764 C 0.25435 0.64339 -0.07465
 C765 C 0.23781 0.68047 -0.05228
 C766 C 0.24036 0.66713 -0.02915
 N767 N 0.24942 0.64265 -0.02910
 H768 H 0.29221 0.63117 0.03891
 H769 H 0.21627 0.65793 0.02796
 H770 H 0.21808 0.68140 0.06926
 H771 H 0.29557 0.65417 0.07962
 H772 H 0.26380 0.61140 -0.05078
 H773 H 0.26006 0.63368 -0.09212
 H774 H 0.23053 0.69989 -0.05212
 H775 H 0.23490 0.67627 -0.01138
 C776 C 0.32968 0.57884 0.00209
 C777 C 0.17516 0.57702 0.00265
 C778 C 0.24479 0.66843 -0.07531
 C779 C 0.25712 0.66982 0.07752
 C780 C 0.71517 0.09009 0.51642
 H781 H 0.72808 0.08638 0.53225
 C782 C 0.69120 0.07810 0.51546
 H783 H 0.68577 0.06490 0.53045
 C784 C 0.70591 0.11235 0.47797
 H785 H 0.71127 0.12606 0.46356
 C786 C 0.68183 0.10102 0.47642
 H787 H 0.66934 0.10585 0.46057
 N788 N 0.72211 0.10678 0.49771
 C789 C 0.80514 0.11551 0.49562
 H790 H 0.80503 0.13586 0.49182
 C791 C 0.82831 0.10237 0.49708
 H792 H 0.84610 0.11258 0.49412
 C793 C 0.78202 0.07752 0.50446
 H794 H 0.76391 0.06799 0.50737
 C795 C 0.80496 0.06361 0.50638
 H796 H 0.80439 0.04336 0.51065
 Zn797 Zn 0.75360 0.12489 0.49931
 N798 N 0.78262 0.10310 0.49958
 C799 C 0.77261 0.13922 0.54761
 N800 N 0.75433 0.14488 0.52980
 C801 C 0.73619 0.16309 0.53447
 C802 C 0.73644 0.17682 0.55758
 C803 C 0.77334 0.15221 0.57096
 C804 C 0.76096 0.13083 0.44767
 C805 C 0.76045 0.14230 0.42365
 C806 C 0.75050 0.18268 0.44414
 C807 C 0.75144 0.17042 0.46796
 N808 N 0.75612 0.14480 0.46917
 H809 H 0.78639 0.12418 0.54410
 H810 H 0.72133 0.16669 0.52043
 H811 H 0.72181 0.19112 0.56115
 H812 H 0.78778 0.14722 0.58506
 H813 H 0.76436 0.11044 0.44918
 H814 H 0.76370 0.13058 0.40684
 H815 H 0.74609 0.20293 0.44317
 H816 H 0.74769 0.18122 0.48525
 C817 C 0.82838 0.07626 0.50290
 C818 C 0.67418 0.08385 0.49540
 C819 C 0.75479 0.16844 0.42169
 C820 C 0.75522 0.17130 0.57608
 C821 C 0.97668 0.70731 0.90112
 H822 H 0.95896 0.71434 0.89293
 C823 C 0.97712 0.68460 0.91293
 H824 H 0.95969 0.67351 0.91390
 C825 C 1.02087 0.71494 0.91020
 H826 H 1.03798 0.72635 0.90852
 C827 C 1.02229 0.69000 0.92333
 H828 H 1.04048 0.68368 0.93121
 N829 N 0.99965 0.72233 0.89920
 C830 C 1.00919 0.80506 0.88555
 H831 H 1.01584 0.80430 0.86593
 C832 C 1.00788 0.82747 0.89787
 H833 H 1.01366 0.84484 0.88820
 C834 C 0.99325 0.78207 0.92167
 H835 H 0.98691 0.76448 0.93046
 C836 C 0.99152 0.80646 0.93608
 H837 H 0.98439 0.80622 0.95554
 Zn838 Zn 1.00045 0.75175 0.87794
 N839 N 1.00128 0.78191 0.89805
 C840 C 0.95613 0.77460 0.85664
 N841 N 0.97071 0.75292 0.85671
 C842 C 0.96354 0.73189 0.84298
 C843 C 0.94052 0.73191 0.82917
 C844 C 0.93322 0.77555 0.84280
 C845 C 1.05267 0.75853 0.86965
 C846 C 1.07615 0.75655 0.85714
 C847 C 1.05443 0.73772 0.82075
 C848 C 1.03123 0.74008 0.83399
 N849 N 1.03082 0.75018 0.85810
 H850 H 0.96189 0.79111 0.86770
 H851 H 0.97525 0.71478 0.84349
 H852 H 0.93483 0.71483 0.81888
 H853 H 0.92162 0.79278 0.84327
 H854 H 1.05191 0.76648 0.88881
 H855 H 1.09342 0.76313 0.86664
 H856 H 1.05455 0.72952 0.80167
 H857 H 1.01371 0.73355 0.82510
 C858 C 0.99822 0.82842 0.92453
 C859 C 1.00147 0.67497 0.92418
 C860 C 1.07718 0.74589 0.83252
 C861 C 0.92497 0.75387 0.82933
 C862 C 0.48371 0.21755 0.41196
 H863 H 0.46840 0.23113 0.41545
 C864 C 0.48418 0.19421 0.42511
 H865 H 0.46930 0.19003 0.43887
 C866 C 0.52106 0.20578 0.38894
 H867 H 0.53514 0.20989 0.37443
 C868 C 0.52205 0.18223 0.40135
 H869 H 0.53700 0.16863 0.39648
 N870 N 0.50220 0.22302 0.39447
 C871 C 0.50645 0.30551 0.38225
 H872 H 0.51051 0.30428 0.36195
 C873 C 0.50496 0.32936 0.39411
 H874 H 0.50814 0.34632 0.38276
 C875 C 0.49642 0.28461 0.42122
 H876 H 0.49292 0.26714 0.43162
 C877 C 0.49452 0.30826 0.43386
 H878 H 0.48967 0.30891 0.45403
 Zn879 Zn 0.50135 0.25379 0.37511
 N880 N 0.50188 0.28376 0.39571
 C881 C 0.45364 0.27364 0.36030
 N882 N 0.47075 0.25454 0.35527
 C883 C 0.46522 0.23577 0.33795
 C884 C 0.44172 0.23594 0.32486
 C885 C 0.43002 0.27442 0.34786
 C886 C 0.55311 0.25904 0.36878
 C887 C 0.57702 0.25817 0.35708
 C888 C 0.55607 0.24881 0.31676
 C889 C 0.53235 0.25008 0.32926
 N890 N 0.53142 0.25475 0.35494
 H891 H 0.45788 0.28809 0.37450
 H892 H 0.47883 0.22045 0.33464
 H893 H 0.43735 0.22084 0.31127
 H894 H 0.41678 0.28975 0.35236
 H895 H 0.55179 0.26249 0.38920
 H896 H 0.59396 0.26111 0.36869
 H897 H 0.55681 0.24456 0.29644
 H898 H 0.51489 0.24675 0.31860
 C899 C 0.49865 0.33094 0.42015
 C900 C 0.50358 0.17630 0.41972
 C901 C 0.57871 0.25275 0.33083
 C902 C 0.42373 0.25528 0.33013
 C903 C 0.97480 0.28967 0.59894
 H904 H 0.95777 0.28201 0.60777
 C905 C 0.97344 0.31305 0.58601
 H906 H 0.95526 0.32299 0.58536
 C907 C 1.01909 0.28610 0.58976
 H908 H 1.03694 0.27576 0.59151
 C909 C 1.01864 0.30945 0.57680
 H910 H 1.03625 0.31681 0.56871
 N911 N 0.99753 0.27701 0.60114
 C912 C 1.01159 0.19631 0.61618
 H913 H 1.01831 0.19798 0.63575
 C914 C 1.01109 0.17240 0.60424
 H915 H 1.01778 0.15567 0.61453
 C916 C 0.99364 0.21591 0.57928
 H917 H 0.98638 0.23292 0.56994
 C918 C 0.99271 0.19224 0.56663
 H919 H 0.98499 0.19119 0.54739
 Zn920 Zn 1.00034 0.24804 0.62304
 N921 N 1.00271 0.21740 0.60372
 C922 C 0.95670 0.22363 0.64332
 N923 N 0.97059 0.24567 0.64423
 C924 C 0.96231 0.26617 0.65817
 C925 C 0.93889 0.26517 0.67120
 C926 C 0.93345 0.22172 0.65631
 C927 C 1.05300 0.24429 0.63042
 C928 C 1.07666 0.24679 0.64258
 C929 C 1.05497 0.26372 0.67985
 C930 C 1.03155 0.26083 0.66691
 N931 N 1.03103 0.25138 0.64255
 H932 H 0.96315 0.20760 0.63193
 H933 H 0.97336 0.28367 0.65830
 H934 H 0.93208 0.28185 0.68156
 H935 H 0.92250 0.20422 0.65476
 H936 H 1.05215 0.23669 0.61112
 H937 H 1.09392 0.24101 0.63255
 H938 H 1.05503 0.27128 0.69919
 H939 H 1.01391 0.26629 0.67628
 C940 C 1.00121 0.17015 0.57937
 C941 C 0.99573 0.32354 0.57520
 C942 C 1.07789 0.25671 0.66755
 C943 C 0.92417 0.24275 0.67017
 C944 C 0.47325 0.79156 0.10299
 H945 H 0.45659 0.78499 0.11330
 C946 C 0.47235 0.81509 0.09033
 H947 H 0.45498 0.82643 0.09113
 C948 C 0.51627 0.78518 0.08994
 H949 H 0.53347 0.77366 0.09005
 C950 C 0.51627 0.80869 0.07727
 H951 H 0.53348 0.81512 0.06769
 N952 N 0.49519 0.77738 0.10307
 C953 C 0.50645 0.69613 0.11779
 H954 H 0.51229 0.69762 0.13766
 C955 C 0.50568 0.67225 0.10586
 H956 H 0.51127 0.65532 0.11646
 C957 C 0.49132 0.71635 0.07999
 H958 H 0.48535 0.73363 0.07025
 C959 C 0.49011 0.69268 0.06731
 H960 H 0.48350 0.69187 0.04765
 Zn961 Zn 0.49785 0.74804 0.12444
 N962 N 0.49914 0.71752 0.10487
 C963 C 0.45244 0.72576 0.14277
 N964 N 0.46846 0.74607 0.14612
 C965 C 0.46242 0.76533 0.16275
 C966 C 0.43956 0.76452 0.17674
 C967 C 0.42939 0.72435 0.15613
 C968 C 0.55044 0.74302 0.12980
 C969 C 0.57472 0.74490 0.14081
 C970 C 0.55519 0.76154 0.17934
 C971 C 0.53111 0.75925 0.16758
 N972 N 0.52921 0.75032 0.14308
 H973 H 0.45696 0.71094 0.12905
 H974 H 0.47483 0.78180 0.16443
 H975 H 0.43470 0.78025 0.18941
 H976 H 0.41658 0.70842 0.15268
 H977 H 0.54853 0.73576 0.11045
 H978 H 0.59120 0.73906 0.12970
 H979 H 0.55658 0.76879 0.19878
 H980 H 0.51413 0.76478 0.17799
 C981 C 0.49712 0.67033 0.08048
 C982 C 0.49426 0.82408 0.07776
 C983 C 0.57730 0.75437 0.16583
 C984 C 0.42275 0.74386 0.17331
 O985 O -0.01515 0.98564 0.92934
 O986 O 0.02916 0.99629 0.92882
 O987 O -0.01584 0.92867 0.99028
 O988 O -0.00711 0.92725 1.03164
 O989 O -0.07418 0.98930 0.98783
 O990 O -0.07348 1.03348 0.99864
 O991 O 0.04897 0.99839 1.05798
 O992 O 0.05201 0.95694 1.03924
 O993 O 0.05624 1.04951 0.99620
 O994 O 0.03330 1.05483 0.95478
 O995 O -0.00286 1.05897 1.05017
 O996 O -0.04513 1.03826 1.05646
 O997 O 0.01348 1.01841 1.07361
 O998 O -0.03186 1.00743 1.07459
 O999 O 0.01601 1.07366 1.01384
 O1000 O 0.00358 1.07379 0.96908
 O1001 O 0.07139 1.01476 1.01769
 O1002 O 0.07238 0.97058 1.00519
 O1003 O -0.05049 1.00600 0.94500
 O1004 O -0.05534 1.04654 0.96573
 O1005 O -0.05856 0.95360 1.00737
 O1006 O -0.03674 0.95070 1.04877
 O1007 O 0.00257 0.94359 0.95376
 O1008 O 0.04279 0.96399 0.94758
 Zr1009 Zr 0.00940 0.98251 0.96129
 O1010 O 0.03438 1.00575 0.98283
 Zr1011 Zr -0.01949 0.96139 1.01368
 O1012 O 0.00440 0.98365 1.03757
 Zr1013 Zr -0.04183 1.01291 0.98379
 O1014 O -0.01906 1.03746 1.00635
 Zr1015 Zr 0.03971 0.99016 1.01958
 O1016 O 0.01706 0.96514 0.99693
 Zr1017 Zr 0.01725 1.04154 0.98951
 O1018 O -0.00662 1.01934 0.96529
 Zr1019 Zr -0.01158 1.02043 1.04205
 O1020 O -0.03701 0.99713 1.02054
 O1021 O -0.02646 0.97662 0.97754
 O1022 O 0.02444 1.02661 1.02594
 C1023 C -0.03741 0.99587 0.92676
 C1024 C -0.00661 0.92561 0.96767
 C1025 C -0.07685 0.96708 0.99789
 C1026 C 0.03606 1.00897 1.07609
 C1027 C 0.07416 1.03677 1.00729
 C1028 C 0.00728 1.07670 1.03660
 H1029 H 0.05069 1.00743 0.97342
 H1030 H -0.02796 1.05409 1.00819
 H1031 H -0.03760 0.96557 0.96682
 H1032 H 0.00675 0.97480 1.05413
 H1033 H 0.04547 0.94204 1.02944
 H1034 H 0.00649 0.93193 1.04403
 H1035 H -0.01325 1.07863 0.97635
 H1036 H -0.04175 1.05198 0.95372
 H1037 H 0.07621 0.97729 0.98793
 H1038 H 0.04887 0.95268 0.96154
 H1039 H -0.04958 1.05263 1.04496
 H1040 H -0.07569 1.02772 1.01656
 H1041 H 0.02287 1.01393 0.92582
 H1042 H 0.04765 1.04329 0.95016
 H1043 H -0.04991 0.96380 1.05276
 H1044 H -0.02447 0.99071 1.07961
 O1045 O 0.55525 0.55064 0.49895
 O1046 O 0.53381 0.55622 0.45877
 O1047 O 0.49315 0.55964 0.55238
 O1048 O 0.45617 0.54066 0.56091
 O1049 O 0.54738 0.49668 0.56029
 O1050 O 0.55248 0.45682 0.53871
 O1051 O 0.42514 0.49010 0.48870
 O1052 O 0.42514 0.53301 0.50216
 O1053 O 0.48338 0.48642 0.43155
 O1054 O 0.52826 0.49757 0.43023
 O1055 O 0.48155 0.43020 0.49023
 O1056 O 0.49332 0.42999 0.53556
 O1057 O 0.44083 0.45385 0.50712
 O1058 O 0.46243 0.44805 0.54889
 O1059 O 0.50066 0.44580 0.45441
 O1060 O 0.54269 0.46752 0.44865
 O1061 O 0.44778 0.50590 0.44761
 O1062 O 0.44311 0.54753 0.46757
 O1063 O 0.57088 0.51458 0.51789
 O1064 O 0.57030 0.47044 0.50599
 O1065 O 0.51263 0.51793 0.57603
 O1066 O 0.46804 0.50367 0.57588
 O1067 O 0.51339 0.57483 0.51695
 O1068 O 0.50137 0.57494 0.47296
 Zr1069 Zr 0.51620 0.54278 0.49260
 O1070 O 0.49266 0.52087 0.46822
 Zr1071 Zr 0.48742 0.52054 0.54458
 O1072 O 0.46237 0.49787 0.52237
 Zr1073 Zr 0.53869 0.49071 0.52134
 O1074 O 0.51595 0.46654 0.49838
 Zr1075 Zr 0.45722 0.51414 0.48598
 O1076 O 0.47972 0.53865 0.50930
 Zr1077 Zr 0.50859 0.48428 0.46302
 O1078 O 0.53388 0.50729 0.48491
 Zr1079 Zr 0.47956 0.46210 0.51499
 O1080 O 0.50352 0.48383 0.53968
 O1081 O 0.52321 0.52679 0.52839
 O1082 O 0.47247 0.47776 0.47889
 C1083 C 0.57351 0.53705 0.50839
 C1084 C 0.50326 0.57768 0.53917
 C1085 C 0.53470 0.50731 0.57853
 C1086 C 0.42261 0.46736 0.49754
 C1087 C 0.46066 0.49562 0.42932
 C1088 C 0.49078 0.42767 0.46758
 H1089 H 0.49069 0.52991 0.45173
 H1090 H 0.52498 0.45000 0.49632
 H1091 H 0.53432 0.53773 0.53926
 H1092 H 0.44585 0.49622 0.53145
 H1093 H 0.43185 0.54745 0.51254
 H1094 H 0.44037 0.53432 0.55255
 H1095 H 0.54708 0.45273 0.45965
 H1096 H 0.57302 0.47713 0.48847
 H1097 H 0.45535 0.55249 0.45404
 H1098 H 0.48372 0.57760 0.47939
 H1099 H 0.50997 0.42493 0.52801
 H1100 H 0.53889 0.45096 0.55052
 H1101 H 0.54546 0.54242 0.45283
 H1102 H 0.52160 0.51484 0.42618
 H1103 H 0.47664 0.48713 0.57942
 H1104 H 0.44851 0.45998 0.55381
 O1105 O 0.44454 -0.04565 0.49211
 O1106 O 0.46709 -0.05150 0.45276
 O1107 O 0.50725 -0.05433 0.54667
 O1108 O 0.54334 -0.03447 0.55643
 O1109 O 0.45154 0.00788 0.55496
 O1110 O 0.44586 0.04779 0.53337
 O1111 O 0.57387 0.01675 0.48469
 O1112 O 0.57435 -0.02648 0.49837
 O1113 O 0.51620 0.01882 0.42689
 O1114 O 0.47054 0.00686 0.42577
 O1115 O 0.51634 0.07540 0.48629
 O1116 O 0.50434 0.07530 0.53151
 O1117 O 0.55738 0.05258 0.50342
 O1118 O 0.53554 0.05796 0.54489
 O1119 O 0.49819 0.05972 0.44980
 O1120 O 0.45724 0.03826 0.44272
 O1121 O 0.55199 -0.00001 0.44334
 O1122 O 0.55755 -0.04077 0.46273
 O1123 O 0.42863 -0.01067 0.51291
 O1124 O 0.42819 0.03329 0.50043
 O1125 O 0.48644 -0.01302 0.57086
 O1126 O 0.53083 0.00215 0.57128
 O1127 O 0.48595 -0.06940 0.51157
 O1128 O 0.49938 -0.06967 0.46782
 Zr1129 Zr 0.48371 -0.03757 0.48708
 O1130 O 0.50715 -0.01529 0.46324
 Zr1131 Zr 0.51190 -0.01502 0.53964
 O1132 O 0.53669 0.00813 0.51799
 Zr1133 Zr 0.46025 0.01399 0.51613
 O1134 O 0.48270 0.03852 0.49357
 Zr1135 Zr 0.54235 -0.00802 0.48154
 O1136 O 0.52004 -0.03295 0.50427
 Zr1137 Zr 0.49069 0.02107 0.45809
 O1138 O 0.46556 -0.00233 0.47954
 Zr1139 Zr 0.51883 0.04354 0.51073
 O1140 O 0.49515 0.02140 0.53498
 O1141 O 0.47631 -0.02181 0.52298
 O1142 O 0.52655 0.02812 0.47455
 C1143 C 0.42623 -0.03280 0.50242
 C1144 C 0.49659 -0.07228 0.53360
 C1145 C 0.46418 -0.00275 0.57321
 C1146 C 0.57588 0.03952 0.49377
 C1147 C 0.53906 0.00987 0.42490
 C1148 C 0.50751 0.07794 0.46346
 H1149 H 0.50938 -0.02434 0.44673
 H1150 H 0.47342 0.05492 0.49156
 H1151 H 0.46530 -0.03293 0.53361
 H1152 H 0.55312 0.01007 0.52727
 H1153 H 0.56771 -0.04138 0.50796
 H1154 H 0.55907 -0.02817 0.54803
 H1155 H 0.45136 0.05152 0.45498
 H1156 H 0.42583 0.02645 0.48286
 H1157 H 0.54452 -0.04723 0.45056
 H1158 H 0.51669 -0.07247 0.47516
 H1159 H 0.48773 0.08020 0.52372
 H1160 H 0.45911 0.05368 0.54566
 H1161 H 0.45544 -0.03788 0.44647
 H1162 H 0.47878 -0.00939 0.42044
 H1163 H 0.52181 0.01845 0.57499
 H1164 H 0.54951 0.04617 0.54999
 O1165 O 0.00560 0.44479 1.04843
 O1166 O 0.04593 0.46587 1.05492
 O1167 O -0.04701 0.50849 1.05625
 O1168 O -0.05520 0.54506 1.03659
 O1169 O -0.05505 0.45365 0.99336
 O1170 O -0.03288 0.44808 0.95370
 O1171 O 0.01806 0.57433 0.98724
 O1172 O 0.00361 0.57450 1.03043
 O1173 O 0.07481 0.51504 0.98600
 O1174 O 0.07500 0.47003 0.99693
 O1175 O 0.01690 0.51776 0.92800
 O1176 O -0.02847 0.50638 0.92671
 O1177 O -0.00064 0.55870 0.95098
 O1178 O -0.04194 0.53743 0.94419
 O1179 O 0.05245 0.49842 0.94435
 O1180 O 0.05738 0.45643 0.96599
 O1181 O 0.05889 0.55100 1.00496
 O1182 O 0.03886 0.55719 1.04479
 O1183 O -0.01314 0.42939 1.01205
 O1184 O -0.00079 0.42945 0.96827
 O1185 O -0.07043 0.48867 1.01450
 O1186 O -0.06963 0.53309 0.99952
 O1187 O -0.01270 0.48660 1.07212
 O1188 O 0.03142 0.49835 1.07342
 Zr1189 Zr 0.01238 0.48373 1.04068
 O1190 O 0.03730 0.50675 1.01914
 Zr1191 Zr -0.03878 0.51338 1.01719
 O1192 O -0.01604 0.53780 0.99475
 Zr1193 Zr -0.01588 0.46152 0.98803
 O1194 O 0.00780 0.48362 0.96424
 Zr1195 Zr 0.02016 0.54246 1.01174
 O1196 O -0.00368 0.52051 1.03603
 Zr1197 Zr 0.04297 0.49057 0.98268
 O1198 O 0.02038 0.46579 1.00535
 Zr1199 Zr -0.00839 0.52015 0.95926
 O1200 O -0.03370 0.49691 0.98064
 O1201 O -0.02321 0.47734 1.02393
 O1202 O 0.02761 0.52687 0.97556
 C1203 C -0.00394 0.42667 1.03471
 C1204 C -0.03462 0.49757 1.07450
 C1205 C -0.07314 0.46661 1.00394
 C1206 C 0.00897 0.57689 0.96449
 C1207 C 0.07724 0.53761 0.99549
 C1208 C 0.03959 0.50848 0.92594
 H1209 H 0.05362 0.50848 1.02863
 H1210 H 0.01005 0.47451 0.94776
 H1211 H -0.03433 0.46647 1.03472
 H1212 H -0.02497 0.55440 0.99281
 H1213 H -0.00630 0.56786 1.04515
 H1214 H -0.04628 0.56060 1.03059
 H1215 H 0.04639 0.45206 0.95113
 H1216 H 0.01681 0.42680 0.97492
 H1217 H 0.04956 0.54339 1.05214
 H1218 H 0.02453 0.51580 1.07636
 H1219 H -0.02084 0.48972 0.92179
 H1220 H -0.04464 0.46174 0.94774
 H1221 H 0.05180 0.45383 1.04143
 H1222 H 0.07903 0.47685 1.01419
 H1223 H -0.07336 0.52412 0.98317
 H1224 H -0.04732 0.55112 0.95619
 O1225 O 0.01008 0.42326 0.51152
 O1226 O -0.00093 0.42368 0.46730
 O1227 O 0.06929 0.48212 0.51345
 O1228 O 0.07238 0.52330 0.50630
 O1229 O 0.00833 0.48111 0.57175
 O1230 O -0.03559 0.49307 0.57086
 O1231 O 0.00179 0.55282 0.44975
 O1232 O 0.04298 0.53299 0.44695
 O1233 O -0.05163 0.49456 0.44114
 O1234 O -0.05850 0.45258 0.46248
 O1235 O -0.05877 0.54662 0.50240
 O1236 O -0.03726 0.55201 0.54395
 O1237 O -0.01774 0.56868 0.48542
 O1238 O -0.00561 0.56869 0.53101
 O1239 O -0.07466 0.51197 0.48120
 O1240 O -0.07667 0.46675 0.49311
 O1241 O -0.01530 0.51340 0.42638
 O1242 O 0.02836 0.49962 0.42574
 O1243 O -0.00973 0.43907 0.54708
 O1244 O -0.04966 0.46102 0.55179
 O1245 O 0.04492 0.49915 0.55658
 O1246 O 0.04926 0.54085 0.53568
 O1247 O 0.05308 0.44648 0.49414
 O1248 O 0.03200 0.44132 0.45387
 Zr1249 Zr 0.01427 0.45535 0.48754
 O1250 O -0.00812 0.47816 0.46287
 Zr1251 Zr 0.03740 0.50642 0.51767
 O1252 O 0.01621 0.53147 0.49414
 Zr1253 Zr -0.01530 0.47814 0.53907
 O1254 O -0.03890 0.50207 0.51667
 Zr1255 Zr 0.00904 0.51422 0.45845
 O1256 O 0.03309 0.49034 0.48077
 Zr1257 Zr -0.04370 0.48615 0.47988
 O1258 O -0.02248 0.46064 0.50334
 Zr1259 Zr -0.02035 0.53711 0.51016
 O1260 O 0.00196 0.51427 0.53524
 O1261 O 0.02079 0.47080 0.52379
 O1262 O -0.02714 0.52190 0.47372
 C1263 C -0.00014 0.42071 0.53374
 C1264 C 0.07158 0.45969 0.50357
 C1265 C 0.03099 0.49022 0.57469
 C1266 C -0.00849 0.57101 0.46280
 C1267 C -0.03811 0.50482 0.42339
 C1268 C -0.07691 0.53432 0.49122
 H1269 H -0.01019 0.46913 0.44632
 H1270 H -0.05544 0.50444 0.52557
 H1271 H 0.03150 0.45955 0.53473
 H1272 H 0.02568 0.54770 0.49210
 H1273 H 0.05754 0.52257 0.45335
 H1274 H 0.06833 0.53582 0.49269
 H1275 H -0.08162 0.47445 0.50974
 H1276 H -0.05557 0.44967 0.53774
 H1277 H 0.02108 0.48265 0.42154
 H1278 H 0.04406 0.45474 0.44818
 H1279 H -0.05151 0.54056 0.54878
 H1280 H -0.02901 0.51060 0.57380
 H1281 H -0.01885 0.42170 0.47314
 H1282 H -0.04712 0.44788 0.44805
 H1283 H 0.03639 0.54500 0.54899
 H1284 H 0.01082 0.57369 0.52306
 O1285 O 0.50999 0.92517 0.01320
 O1286 O 0.49974 0.92497 -0.03113
 O1287 O 0.56983 0.98355 0.01497
 O1288 O 0.57336 1.02468 0.00747
 O1289 O 0.50819 0.98382 0.07257
 O1290 O 0.46441 0.99639 0.07094
 O1291 O 0.50486 1.05384 -0.05039
 O1292 O 0.54525 1.03299 -0.05268
 O1293 O 0.45007 0.99606 -0.05899
 O1294 O 0.44275 0.95415 -0.03704
 O1295 O 0.44238 1.04880 0.00143
 O1296 O 0.46356 1.05509 0.04282
 O1297 O 0.48349 1.07021 -0.01602
 O1298 O 0.49563 1.07113 0.02991
 O1299 O 0.42662 1.01402 -0.01964
 O1300 O 0.42394 0.96925 -0.00718
 O1301 O 0.48668 1.01453 -0.07352
 O1302 O 0.53021 0.99976 -0.07349
 O1303 O 0.49004 0.94172 0.04836
 O1304 O 0.45017 0.96417 0.05212
 O1305 O 0.54512 1.00128 0.05759
 O1306 O 0.54996 1.04276 0.03621
 O1307 O 0.55352 0.94772 -0.00392
 O1308 O 0.53296 0.94211 -0.04435
 Zr1309 Zr 0.51490 0.95683 -0.01116
 O1310 O 0.49311 0.97942 -0.03652
 Zr1311 Zr 0.53810 1.00816 0.01852
 O1312 O 0.51750 1.03300 -0.00574
 Zr1313 Zr 0.48489 0.98072 0.03964
 O1314 O 0.46184 1.00449 0.01650
 Zr1315 Zr 0.51076 1.01519 -0.04123
 O1316 O 0.53420 0.99149 -0.01816
 Zr1317 Zr 0.45741 0.98801 -0.02008
 O1318 O 0.47802 0.96271 0.00410
 Zr1319 Zr 0.48074 1.03927 0.00959
 O1320 O 0.50248 1.01665 0.03542
 O1321 O 0.52110 0.97279 0.02493
 O1322 O 0.47442 1.02348 -0.02666
 C1323 C 0.49956 0.92306 0.03536
 C1324 C 0.57203 0.96095 0.00547
 C1325 C 0.53095 0.99262 0.07565
 C1326 C 0.49392 1.07221 -0.03818
 C1327 C 0.46382 1.00611 -0.07666
 C1328 C 0.42433 1.03646 -0.00987
 H1329 H 0.49115 0.97017 -0.05295
 H1330 H 0.44520 1.00713 0.02514
 H1331 H 0.53156 0.96159 0.03615
 H1332 H 0.52718 1.04909 -0.00788
 H1333 H 0.55951 1.02250 -0.04575
 H1334 H 0.56964 1.03685 -0.00654
 H1335 H 0.41909 0.97693 0.00948
 H1336 H 0.44444 0.95251 0.03824
 H1337 H 0.52245 0.98304 -0.07780
 H1338 H 0.54508 0.95541 -0.05020
 H1339 H 0.44951 1.04356 0.04803
 H1340 H 0.47124 1.01384 0.07376
 H1341 H 0.48167 0.92332 -0.02563
 H1342 H 0.45388 0.94952 -0.05167
 H1343 H 0.53685 1.04725 0.04919
 H1344 H 0.51197 1.07608 0.02174
 O1345 O 0.55893 0.44722 0.00890
 O1346 O 0.53767 0.44195 0.04897
 O1347 O 0.49651 0.43771 -0.04460
 O1348 O 0.45861 0.45601 -0.05187
 O1349 O 0.54992 0.49970 -0.05388
 O1350 O 0.55550 0.54002 -0.03300
 O1351 O 0.42911 0.50922 0.01957
 O1352 O 0.42859 0.46596 0.00649
 O1353 O 0.48868 0.51246 0.07566
 O1354 O 0.53381 0.50153 0.07607
 O1355 O 0.48521 0.56795 0.01581
 O1356 O 0.49676 0.56745 -0.02955
 O1357 O 0.44465 0.54445 -0.00062
 O1358 O 0.46579 0.54937 -0.04249
 O1359 O 0.50501 0.55314 0.05174
 O1360 O 0.54718 0.53163 0.05734
 O1361 O 0.45253 0.49334 0.06049
 O1362 O 0.44705 0.45188 0.04135
 O1363 O 0.57394 0.48204 -0.01242
 O1364 O 0.57413 0.52624 -0.00015
 O1365 O 0.51427 0.47964 -0.06907
 O1366 O 0.46966 0.49285 -0.06814
 O1367 O 0.51686 0.42289 -0.00889
 O1368 O 0.50511 0.42352 0.03526
 Zr1369 Zr 0.51984 0.45525 0.01507
 O1370 O 0.49688 0.47789 0.03933
 Zr1371 Zr 0.49011 0.47676 -0.03693
 O1372 O 0.46560 0.50010 -0.01480
 Zr1373 Zr 0.54199 0.50648 -0.01498
 O1374 O 0.51982 0.53135 0.00784
 Zr1375 Zr 0.46107 0.48466 0.02203
 O1376 O 0.48303 0.45943 -0.00117
 Zr1377 Zr 0.51304 0.51443 0.04365
 O1378 O 0.53781 0.49069 0.02185
 Zr1379 Zr 0.48318 0.53575 -0.00841
 O1380 O 0.50652 0.51335 -0.03300
 O1381 O 0.52618 0.47049 -0.02112
 O1382 O 0.47665 0.52098 0.02814
 C1383 C 0.57686 0.46008 -0.00186
 C1384 C 0.50683 0.41983 -0.03119
 C1385 C 0.53653 0.48960 -0.07192
 C1386 C 0.42655 0.53160 0.00978
 C1387 C 0.46602 0.50343 0.07847
 C1388 C 0.49461 0.57096 0.03836
 H1389 H 0.49527 0.46912 0.05600
 H1390 H 0.52886 0.54787 0.00947
 H1391 H 0.53707 0.45937 -0.03202
 H1392 H 0.44891 0.50176 -0.02369
 H1393 H 0.43499 0.45101 -0.00335
 H1394 H 0.44293 0.46294 -0.04375
 H1395 H 0.55163 0.54576 0.04561
 H1396 H 0.57712 0.51955 0.01734
 H1397 H 0.46006 0.44640 0.05402
 H1398 H 0.48750 0.42069 0.02871
 H1399 H 0.51339 0.57267 -0.02206
 H1400 H 0.54173 0.54576 -0.04477
 H1401 H 0.54940 0.45569 0.05475
 H1402 H 0.52701 0.48454 0.08082
 H1403 H 0.47776 0.50951 -0.07201
 H1404 H 0.45151 0.53772 -0.04691
 O1405 O -0.07114 0.00841 0.51759
 O1406 O -0.07125 -0.03565 0.50665
 O1407 O -0.00976 0.00890 0.57506
 O1408 O 0.03170 0.00155 0.57652
 O1409 O -0.01330 0.06807 0.51514
 O1410 O -0.00271 0.06797 0.47108
 O1411 O 0.05813 -0.05401 0.50476
 O1412 O 0.03925 -0.05799 0.54579
 O1413 O -0.00361 -0.06135 0.45269
 O1414 O -0.04481 -0.03935 0.44712
 O1415 O 0.04969 -0.00155 0.44468
 O1416 O 0.05585 0.04016 0.46620
 O1417 O 0.07334 -0.01846 0.48493
 O1418 O 0.07389 0.02680 0.49711
 O1419 O 0.01356 -0.02053 0.42931
 O1420 O -0.03185 -0.00831 0.42981
 O1421 O 0.01799 -0.07673 0.48734
 O1422 O 0.00550 -0.07836 0.53147
 O1423 O -0.05578 0.04420 0.49822
 O1424 O -0.03532 0.04938 0.45749
 O1425 O 0.00652 0.05246 0.55075
 O1426 O 0.04837 0.03079 0.55335
 O1427 O -0.04652 -0.00897 0.55972
 O1428 O -0.05188 -0.04944 0.53871
 Zr1429 Zr -0.03888 -0.01570 0.52068
 O1430 O -0.01721 -0.04013 0.49694
 Zr1431 Zr 0.01330 0.01351 0.54239
 O1432 O 0.03729 -0.01000 0.51987
 Zr1433 Zr -0.01701 0.03592 0.49108
 O1434 O 0.00582 0.01375 0.46624
 Zr1435 Zr 0.01959 -0.04535 0.51262
 O1436 O -0.00310 -0.02314 0.53802
 Zr1437 Zr -0.01069 -0.02259 0.46140
 O1438 O -0.03515 0.00064 0.48403
 Zr1439 Zr 0.04160 0.00641 0.48337
 O1440 O 0.01985 0.03142 0.50694
 O1441 O -0.02296 0.02023 0.52717
 O1442 O 0.02582 -0.02965 0.47641
 C1443 C -0.07390 0.03083 0.50794
 C1444 C -0.03244 -0.00014 0.57792
 C1445 C -0.00324 0.07072 0.53746
 C1446 C 0.07608 -0.04095 0.49433
 C1447 C 0.00753 -0.07935 0.46521
 C1448 C 0.03623 -0.01152 0.42661
 H1449 H -0.02647 -0.05648 0.49489
 H1450 H 0.00755 0.02289 0.44979
 H1451 H -0.03375 0.03114 0.53839
 H1452 H 0.05386 -0.01231 0.52881
 H1453 H 0.02946 -0.05159 0.56076
 H1454 H 0.04342 -0.01264 0.57188
 H1455 H -0.02410 0.00814 0.42466
 H1456 H -0.04748 0.03588 0.45206
 H1457 H -0.01180 -0.08213 0.52470
 H1458 H -0.03793 -0.05511 0.55031
 H1459 H 0.04404 0.04498 0.45214
 H1460 H 0.01524 0.07029 0.47683
 H1461 H -0.07412 -0.02962 0.48890
 H1462 H -0.04987 -0.05313 0.45902
 H1463 H 0.05201 0.04436 0.54067
 H1464 H 0.07924 0.01896 0.51352
 O1465 O 0.67840 0.23533 0.26204
 O1466 O 0.67853 0.24636 0.21801
 O1467 O 0.73888 0.17685 0.26245
 O1468 O 0.78024 0.17478 0.25479
 O1469 O 0.73664 0.23665 0.32213
 O1470 O 0.74761 0.28070 0.32234
 O1471 O 0.80761 0.24698 0.20000
 O1472 O 0.78888 0.20531 0.19647
 O1473 O 0.74803 0.29913 0.19316
 O1474 O 0.70578 0.30466 0.21465
 O1475 O 0.79998 0.30645 0.25424
 O1476 O 0.80603 0.28388 0.29540
 O1477 O 0.82316 0.26627 0.23600
 O1478 O 0.82412 0.25350 0.28096
 O1479 O 0.76466 0.32180 0.23367
 O1480 O 0.71938 0.32246 0.24575
 O1481 O 0.76738 0.26337 0.17726
 O1482 O 0.75516 0.21975 0.17556
 O1483 O 0.69412 0.25444 0.29809
 O1484 O 0.71514 0.29451 0.30391
 O1485 O 0.75572 0.20080 0.30607
 O1486 O 0.79731 0.19751 0.28483
 O1487 O 0.70245 0.19283 0.24437
 O1488 O 0.69705 0.21393 0.20414
 Zr1489 Zr 0.71062 0.23169 0.23804
 O1490 O 0.73271 0.25493 0.21380
 Zr1491 Zr 0.76250 0.20909 0.26728
 O1492 O 0.78690 0.23127 0.24418
 Zr1493 Zr 0.73302 0.26079 0.29011
 O1494 O 0.75613 0.28529 0.26817
 Zr1495 Zr 0.76925 0.23864 0.20878
 O1496 O 0.74608 0.21371 0.23060
 Zr1497 Zr 0.73981 0.29030 0.23163
 O1498 O 0.71502 0.26819 0.25472
 Zr1499 Zr 0.79166 0.26764 0.26101
 O1500 O 0.76958 0.24434 0.28562
 O1501 O 0.72647 0.22488 0.27404
 O1502 O 0.77602 0.27468 0.22484
 C1503 C 0.67581 0.24512 0.28451
 C1504 C 0.71620 0.17440 0.25314
 C1505 C 0.74645 0.21422 0.32451
 C1506 C 0.82560 0.25747 0.21314
 C1507 C 0.75840 0.28610 0.17500
 C1508 C 0.78701 0.32444 0.24358
 H1509 H 0.72354 0.25708 0.19735
 H1510 H 0.75806 0.30169 0.27747
 H1511 H 0.71551 0.21387 0.28484
 H1512 H 0.80341 0.22221 0.24181
 H1513 H 0.77874 0.19046 0.20241
 H1514 H 0.79276 0.17939 0.24138
 H1515 H 0.72706 0.32737 0.26241
 H1516 H 0.70350 0.30049 0.29013
 H1517 H 0.73757 0.22601 0.17221
 H1518 H 0.71064 0.20192 0.19847
 H1519 H 0.79452 0.29815 0.30035
 H1520 H 0.76532 0.27436 0.32506
 H1521 H 0.67621 0.26423 0.22395
 H1522 H 0.70151 0.29363 0.19979
 H1523 H 0.80140 0.21040 0.29819
 H1524 H 0.82909 0.23701 0.27300
 O1525 O 0.75367 0.70167 0.69204
 O1526 O 0.79408 0.69524 0.71244
 O1527 O 0.70211 0.69444 0.75662
 O1528 O 0.69425 0.71446 0.79305
 O1529 O 0.69314 0.75599 0.70111
 O1530 O 0.71457 0.79615 0.69594
 O1531 O 0.76950 0.76371 0.82120
 O1532 O 0.75429 0.72124 0.82219
 O1533 O 0.82376 0.76586 0.76188
 O1534 O 0.82358 0.75317 0.71658
 O1535 O 0.76635 0.82249 0.76513
 O1536 O 0.72126 0.82426 0.75465
 O1537 O 0.75003 0.79968 0.80609
 O1538 O 0.70750 0.80602 0.78516
 O1539 O 0.80085 0.80648 0.74379
 O1540 O 0.80566 0.78369 0.70261
 O1541 O 0.80886 0.74548 0.79729
 O1542 O 0.78809 0.70526 0.80322
 O1543 O 0.73465 0.73784 0.67676
 O1544 O 0.74663 0.78180 0.67669
 O1545 O 0.67815 0.73655 0.73705
 O1546 O 0.68017 0.75152 0.78167
 O1547 O 0.73596 0.67851 0.73408
 O1548 O 0.78041 0.67733 0.74546
 Zr1549 Zr 0.76103 0.70980 0.73087
 O1550 O 0.78650 0.73148 0.75343
 Zr1551 Zr 0.71037 0.73355 0.76125
 O1552 O 0.73374 0.75600 0.78541
 Zr1553 Zr 0.73227 0.76209 0.70893
 O1554 O 0.75637 0.78605 0.73074
 Zr1555 Zr 0.76999 0.73894 0.78939
 O1556 O 0.74557 0.71470 0.76786
 Zr1557 Zr 0.79176 0.76780 0.73715
 O1558 O 0.76866 0.74491 0.71273
 Zr1559 Zr 0.74105 0.79130 0.76763
 O1560 O 0.71522 0.76988 0.74463
 O1561 O 0.72526 0.72642 0.72497
 O1562 O 0.77713 0.77500 0.77371
 C1563 C 0.74386 0.71520 0.67398
 C1564 C 0.71437 0.67614 0.74555
 C1565 C 0.67515 0.74623 0.71466
 C1566 C 0.76060 0.78647 0.82395
 C1567 C 0.82672 0.75596 0.78420
 C1568 C 0.78843 0.82477 0.75461
 H1569 H 0.80289 0.72208 0.75493
 H1570 H 0.75835 0.80243 0.72154
 H1571 H 0.71396 0.71552 0.71428
 H1572 H 0.72528 0.75807 0.80223
 H1573 H 0.74366 0.70678 0.81600
 H1574 H 0.70363 0.72025 0.80850
 H1575 H 0.79414 0.79797 0.69777
 H1576 H 0.76399 0.77486 0.67341
 H1577 H 0.80014 0.69902 0.78999
 H1578 H 0.77367 0.67446 0.76295
 H1579 H 0.72753 0.82815 0.73722
 H1580 H 0.70293 0.80191 0.70979
 H1581 H 0.80035 0.70901 0.70108
 H1582 H 0.82844 0.73656 0.72426
 H1583 H 0.67622 0.76776 0.77275
 H1584 H 0.70330 0.79491 0.79988
 O1585 O 0.29738 0.19345 0.74320
 O1586 O 0.30343 0.21471 0.70319
 O1587 O 0.30693 0.25670 0.79637
 O1588 O 0.28753 0.29302 0.80585
 O1589 O 0.24300 0.20268 0.80471
 O1590 O 0.20338 0.19762 0.78263
 O1591 O 0.23753 0.32403 0.73269
 O1592 O 0.28071 0.32353 0.74704
 O1593 O 0.23418 0.26584 0.67582
 O1594 O 0.24506 0.22042 0.67481
 O1595 O 0.17761 0.26901 0.73422
 O1596 O 0.17686 0.25699 0.77937
 O1597 O 0.20136 0.30895 0.75160
 O1598 O 0.19535 0.28739 0.79326
 O1599 O 0.19298 0.24927 0.69847
 O1600 O 0.21407 0.20726 0.69243
 O1601 O 0.25487 0.30079 0.69169
 O1602 O 0.29498 0.30592 0.71191
 O1603 O 0.26150 0.17847 0.76279
 O1604 O 0.21750 0.17933 0.75004
 O1605 O 0.26504 0.23697 0.82028
 O1606 O 0.25058 0.28174 0.82006
 O1607 O 0.32178 0.23465 0.76170
 O1608 O 0.32241 0.24678 0.71766
 Zr1609 Zr 0.28990 0.23254 0.73704
 O1610 O 0.26825 0.25620 0.71265
 Zr1611 Zr 0.26766 0.26200 0.78889
 O1612 O 0.24519 0.28713 0.76665
 Zr1613 Zr 0.23758 0.21090 0.76563
 O1614 O 0.21361 0.23378 0.74256
 Zr1615 Zr 0.26170 0.29183 0.73034
 O1616 O 0.28602 0.26917 0.75367
 Zr1617 Zr 0.23147 0.24080 0.70723
 O1618 O 0.25427 0.21532 0.72921
 Zr1619 Zr 0.20935 0.27025 0.75918
 O1620 O 0.23085 0.24624 0.78393
 O1621 O 0.27376 0.22602 0.77281
 O1622 O 0.22519 0.27705 0.72311
 C1623 C 0.28387 0.17547 0.75301
 C1624 C 0.32480 0.24562 0.78354
 C1625 C 0.25390 0.21526 0.82288
 C1626 C 0.21488 0.32689 0.74182
 C1627 C 0.24442 0.28802 0.67342
 C1628 C 0.17497 0.25979 0.71154
 H1629 H 0.27748 0.25791 0.69624
 H1630 H 0.19697 0.22502 0.74041
 H1631 H 0.28461 0.21491 0.78373
 H1632 H 0.24360 0.30370 0.77573
 H1633 H 0.29536 0.31663 0.75701
 H1634 H 0.28190 0.30878 0.79699
 H1635 H 0.19984 0.20258 0.70398
 H1636 H 0.22436 0.17655 0.73257
 H1637 H 0.30156 0.29238 0.70037
 H1638 H 0.32578 0.26404 0.72481
 H1639 H 0.17156 0.24055 0.77156
 H1640 H 0.19735 0.21142 0.79422
 H1641 H 0.28954 0.20332 0.69710
 H1642 H 0.26206 0.22740 0.67031
 H1643 H 0.23422 0.27299 0.82387
 H1644 H 0.20722 0.30132 0.79816
 O1645 O 0.19049 0.74561 0.29887
 O1646 O 0.21071 0.70483 0.30395
 O1647 O 0.25316 0.79752 0.30912
 O1648 O 0.29088 0.80500 0.29119
 O1649 O 0.19993 0.80709 0.24643
 O1650 O 0.19553 0.78688 0.20558
 O1651 O 0.32103 0.73289 0.23953
 O1652 O 0.32088 0.74564 0.28262
 O1653 O 0.26130 0.67734 0.23440
 O1654 O 0.21656 0.67686 0.24440
 O1655 O 0.26644 0.73656 0.17928
 O1656 O 0.25498 0.78174 0.17883
 O1657 O 0.30642 0.75283 0.20361
 O1658 O 0.28516 0.79512 0.19825
 O1659 O 0.24527 0.70137 0.19348
 O1660 O 0.20263 0.69655 0.21485
 O1661 O 0.29702 0.69223 0.25459
 O1662 O 0.30166 0.71153 0.29656
 O1663 O 0.17562 0.76498 0.26270
 O1664 O 0.17663 0.75414 0.21812
 O1665 O 0.23549 0.82203 0.26692
 O1666 O 0.28038 0.82075 0.25407
 O1667 O 0.23256 0.76205 0.32366
 O1668 O 0.24338 0.71769 0.32313
 Zr1669 Zr 0.22940 0.73830 0.29117
 O1670 O 0.25257 0.71375 0.26909
 Zr1671 Zr 0.25968 0.78987 0.27007
 O1672 O 0.28456 0.76743 0.24744
 Zr1673 Zr 0.20822 0.76831 0.23927
 O1674 O 0.23081 0.74529 0.21493
 Zr1675 Zr 0.28855 0.73069 0.26316
 O1676 O 0.26631 0.75419 0.28777
 Zr1677 Zr 0.23703 0.70951 0.23213
 O1678 O 0.21198 0.73156 0.25532
 Zr1679 Zr 0.26766 0.76106 0.21133
 O1680 O 0.24390 0.78592 0.23309
 O1681 O 0.22346 0.77443 0.27565
 O1682 O 0.27365 0.72458 0.22644
 C1683 C 0.17256 0.75543 0.28512
 C1684 C 0.24278 0.78415 0.32689
 C1685 C 0.21320 0.82498 0.25688
 C1686 C 0.32417 0.74238 0.21710
 C1687 C 0.28377 0.67440 0.24402
 C1688 C 0.25658 0.71432 0.17601
 H1689 H 0.25397 0.69710 0.27792
 H1690 H 0.22205 0.74368 0.19818
 H1691 H 0.21246 0.78537 0.28664
 H1692 H 0.30130 0.77613 0.24617
 H1693 H 0.31430 0.75601 0.29714
 H1694 H 0.30660 0.79635 0.28502
 H1695 H 0.19901 0.70756 0.19987
 H1696 H 0.17330 0.73664 0.22450
 H1697 H 0.28905 0.69822 0.30111
 H1698 H 0.26107 0.72379 0.32627
 H1699 H 0.23802 0.77492 0.17380
 H1700 H 0.20957 0.79839 0.20024
 H1701 H 0.19897 0.69949 0.28998
 H1702 H 0.22216 0.67295 0.26209
 H1703 H 0.27222 0.82485 0.23742
 H1704 H 0.29955 0.79916 0.20996
 O1705 O 0.24512 0.79797 0.69500
 O1706 O 0.20485 0.80364 0.71612
 O1707 O 0.29719 0.80802 0.75967
 O1708 O 0.30554 0.78865 0.79648
 O1709 O 0.30826 0.74520 0.70509
 O1710 O 0.28722 0.70499 0.69907
 O1711 O 0.23309 0.73680 0.82463
 O1712 O 0.24690 0.78016 0.82527
 O1713 O 0.17798 0.73335 0.76505
 O1714 O 0.17838 0.74559 0.71919
 O1715 O 0.23746 0.67773 0.76781
 O1716 O 0.28341 0.67832 0.75722
 O1717 O 0.25300 0.70114 0.80920
 O1718 O 0.29504 0.69559 0.78921
 O1719 O 0.20175 0.69310 0.74797
 O1720 O 0.19593 0.71406 0.70673
 O1721 O 0.19284 0.75319 0.80101
 O1722 O 0.21169 0.79407 0.80709
 O1723 O 0.26685 0.76302 0.68031
 O1724 O 0.25501 0.71899 0.67985
 O1725 O 0.32249 0.76685 0.74029
 O1726 O 0.32154 0.75211 0.78466
 O1727 O 0.26278 0.82244 0.73690
 O1728 O 0.21868 0.82255 0.74852
 Zr1729 Zr 0.23873 0.79035 0.73409
 O1730 O 0.21422 0.76816 0.75691
 Zr1731 Zr 0.29035 0.76868 0.76453
 O1732 O 0.26802 0.74547 0.78867
 Zr1733 Zr 0.26915 0.73882 0.71232
 O1734 O 0.24587 0.71435 0.73408
 Zr1735 Zr 0.23128 0.76136 0.79282
 O1736 O 0.25454 0.78632 0.77110
 Zr1737 Zr 0.21001 0.73165 0.74056
 O1738 O 0.23225 0.75487 0.71601
 Zr1739 Zr 0.26167 0.70981 0.77088
 O1740 O 0.28666 0.73201 0.74802
 O1741 O 0.27502 0.77488 0.72824
 O1742 O 0.22516 0.72505 0.77706
 C1743 C 0.25616 0.78495 0.67723
 C1744 C 0.28435 0.82568 0.74831
 C1745 C 0.32584 0.75629 0.71830
 C1746 C 0.24238 0.71418 0.82719
 C1747 C 0.17506 0.74268 0.78765
 C1748 C 0.21502 0.67505 0.75806
 H1749 H 0.19756 0.77707 0.75847
 H1750 H 0.24430 0.69786 0.72487
 H1751 H 0.28594 0.78599 0.71750
 H1752 H 0.27666 0.74374 0.80547
 H1753 H 0.25650 0.79517 0.81887
 H1754 H 0.29696 0.78202 0.81197
 H1755 H 0.20854 0.70094 0.70133
 H1756 H 0.23743 0.72550 0.67677
 H1757 H 0.20011 0.80044 0.79349
 H1758 H 0.22517 0.82553 0.76614
 H1759 H 0.27585 0.67279 0.74069
 H1760 H 0.29907 0.69942 0.71283
 H1761 H 0.19916 0.78984 0.70437
 H1762 H 0.17222 0.76148 0.72755
 H1763 H 0.32554 0.73563 0.77609
 H1764 H 0.29994 0.70793 0.80279
 O1765 O 0.25455 0.19931 0.18965
 O1766 O 0.29489 0.19289 0.21048
 O1767 O 0.20252 0.19102 0.25364
 O1768 O 0.19364 0.21087 0.28988
 O1769 O 0.19376 0.25434 0.19903
 O1770 O 0.21588 0.29381 0.19372
 O1771 O 0.26773 0.25971 0.31994
 O1772 O 0.25347 0.21705 0.31992
 O1773 O 0.32375 0.26220 0.26093
 O1774 O 0.32404 0.25094 0.21564
 O1775 O 0.26570 0.31944 0.26392
 O1776 O 0.22029 0.32056 0.25289
 O1777 O 0.24919 0.29610 0.30467
 O1778 O 0.20718 0.30274 0.28377
 O1779 O 0.30114 0.30345 0.24415
 O1780 O 0.30612 0.28168 0.20207
 O1781 O 0.30794 0.24315 0.29669
 O1782 O 0.28773 0.20184 0.30128
 O1783 O 0.23548 0.23557 0.17462
 O1784 O 0.24793 0.27936 0.17509
 O1785 O 0.17852 0.23296 0.23372
 O1786 O 0.17965 0.24785 0.27850
 O1787 O 0.23666 0.17550 0.23128
 O1788 O 0.28087 0.17448 0.24310
 Zr1789 Zr 0.26151 0.20702 0.22866
 O1790 O 0.28655 0.22851 0.25192
 Zr1791 Zr 0.21031 0.23019 0.25851
 O1792 O 0.23318 0.25247 0.28328
 Zr1793 Zr 0.23296 0.25954 0.20697
 O1794 O 0.25663 0.28330 0.22942
 Zr1795 Zr 0.26945 0.23555 0.28770
 O1796 O 0.24549 0.21145 0.26547
 Zr1797 Zr 0.29194 0.26502 0.23614
 O1798 O 0.26931 0.24237 0.21109
 Zr1799 Zr 0.24064 0.28803 0.26607
 O1800 O 0.21528 0.26676 0.24247
 O1801 O 0.22577 0.22360 0.22239
 O1802 O 0.27668 0.27179 0.27253
 C1803 C 0.24480 0.21300 0.17168
 C1804 C 0.21501 0.17287 0.24258
 C1805 C 0.17568 0.24383 0.21187
 C1806 C 0.25905 0.28256 0.32267
 C1807 C 0.32613 0.25315 0.28365
 C1808 C 0.28823 0.32173 0.25441
 H1809 H 0.30297 0.21917 0.25357
 H1810 H 0.25871 0.29981 0.22046
 H1811 H 0.21461 0.21281 0.21144
 H1812 H 0.22441 0.25429 0.29997
 H1813 H 0.24298 0.20268 0.31330
 H1814 H 0.20298 0.21631 0.30549
 H1815 H 0.29492 0.29636 0.19770
 H1816 H 0.26541 0.27252 0.17221
 H1817 H 0.30085 0.19654 0.28867
 H1818 H 0.27442 0.17182 0.26073
 H1819 H 0.22761 0.32549 0.23615
 H1820 H 0.20429 0.29984 0.20750
 H1821 H 0.30092 0.20661 0.19895
 H1822 H 0.32834 0.23383 0.22253
 H1823 H 0.17582 0.26417 0.26965
 H1824 H 0.20231 0.29090 0.29768
 O1825 O 0.74257 0.70281 0.30647
 O1826 O 0.70266 0.69792 0.28456
 O1827 O 0.79648 0.69230 0.24470
 O1828 O 0.80429 0.71063 0.20694
 O1829 O 0.80647 0.75525 0.29812
 O1830 O 0.78528 0.79523 0.30423
 O1831 O 0.73368 0.76463 0.17695
 O1832 O 0.74687 0.72129 0.17624
 O1833 O 0.67732 0.76859 0.23521
 O1834 O 0.67673 0.75692 0.28085
 O1835 O 0.73758 0.82333 0.23344
 O1836 O 0.78335 0.82202 0.24579
 O1837 O 0.75486 0.79940 0.19256
 O1838 O 0.79566 0.80472 0.21428
 O1839 O 0.70131 0.80876 0.25253
 O1840 O 0.69476 0.78782 0.29392
 O1841 O 0.69275 0.74874 0.19952
 O1842 O 0.71163 0.70738 0.19396
 O1843 O 0.76443 0.73728 0.32192
 O1844 O 0.75253 0.78149 0.32225
 O1845 O 0.82122 0.73333 0.26333
 O1846 O 0.82131 0.74723 0.21903
 O1847 O 0.76055 0.67806 0.26476
 O1848 O 0.71659 0.67907 0.25227
 Zr1849 Zr 0.73695 0.71070 0.26734
 O1850 O 0.71317 0.73346 0.24403
 Zr1851 Zr 0.78946 0.73148 0.23849
 O1852 O 0.76792 0.75511 0.21379
 Zr1853 Zr 0.76742 0.76171 0.29011
 O1854 O 0.74497 0.78667 0.26772
 Zr1855 Zr 0.73102 0.73999 0.20859
 O1856 O 0.75360 0.71452 0.23080
 Zr1857 Zr 0.70904 0.77006 0.26028
 O1858 O 0.73044 0.74629 0.28532
 Zr1859 Zr 0.76165 0.79091 0.23137
 O1860 O 0.78580 0.76823 0.25490
 O1861 O 0.77325 0.72557 0.27431
 O1862 O 0.72504 0.77642 0.22418
 C1863 C 0.75343 0.71551 0.32459
 C1864 C 0.78283 0.67465 0.25493
 C1865 C 0.82427 0.74411 0.28526
 C1866 C 0.74413 0.78669 0.17440
 C1867 C 0.67473 0.75927 0.21255
 C1868 C 0.71498 0.82651 0.24262
 H1869 H 0.69646 0.72483 0.24206
 H1870 H 0.74341 0.80321 0.27685
 H1871 H 0.78391 0.71438 0.28534
 H1872 H 0.77699 0.75666 0.19726
 H1873 H 0.75649 0.70624 0.18269
 H1874 H 0.79694 0.71815 0.19116
 H1875 H 0.70723 0.80101 0.29935
 H1876 H 0.73491 0.77503 0.32487
 H1877 H 0.69904 0.70174 0.20687
 H1878 H 0.72335 0.67602 0.23480
 H1879 H 0.77509 0.82805 0.26177
 H1880 H 0.79705 0.80113 0.29062
 H1881 H 0.69691 0.71179 0.29620
 H1882 H 0.67103 0.74069 0.27287
 H1883 H 0.82527 0.76378 0.22744
 H1884 H 0.80114 0.79208 0.20121
 O1885 O 0.69292 0.24753 0.79788
 O1886 O 0.71324 0.20680 0.80295
 O1887 O 0.75762 0.29842 0.80786
 O1888 O 0.79410 0.30693 0.78867
 O1889 O 0.70259 0.30938 0.74581
 O1890 O 0.69743 0.28933 0.70485
 O1891 O 0.82250 0.23323 0.73656
 O1892 O 0.82329 0.24692 0.77985
 O1893 O 0.76241 0.17896 0.73273
 O1894 O 0.71745 0.17928 0.74336
 O1895 O 0.76673 0.23868 0.67729
 O1896 O 0.75668 0.28356 0.67709
 O1897 O 0.80794 0.25442 0.70135
 O1898 O 0.78666 0.29696 0.69656
 O1899 O 0.74661 0.20311 0.69210
 O1900 O 0.70402 0.19872 0.71338
 O1901 O 0.79849 0.19346 0.75254
 O1902 O 0.80419 0.21259 0.79405
 O1903 O 0.67798 0.26757 0.76213
 O1904 O 0.67831 0.25678 0.71762
 O1905 O 0.73842 0.32380 0.76618
 O1906 O 0.78326 0.32205 0.75200
 O1907 O 0.73494 0.26419 0.82225
 O1908 O 0.74622 0.21981 0.82180
 Zr1909 Zr 0.73183 0.24022 0.78990
 O1910 O 0.75450 0.21546 0.76748
 Zr1911 Zr 0.76249 0.29145 0.76846
 O1912 O 0.78681 0.26881 0.74543
 Zr1913 Zr 0.71034 0.27056 0.73836
 O1914 O 0.73235 0.24735 0.71371
 Zr1915 Zr 0.79058 0.23201 0.76102
 O1916 O 0.76891 0.25566 0.78599
 Zr1917 Zr 0.73849 0.21144 0.73072
 O1918 O 0.71392 0.23372 0.75424
 Zr1919 Zr 0.76929 0.26280 0.70957
 O1920 O 0.74610 0.28783 0.73171
 O1921 O 0.72614 0.27645 0.77454
 O1922 O 0.77513 0.22619 0.72449
 C1923 C 0.67497 0.25774 0.78443
 C1924 C 0.74645 0.28564 0.82558
 C1925 C 0.71608 0.32706 0.75634
 C1926 C 0.82559 0.24311 0.71429
 C1927 C 0.78497 0.17578 0.74207
 C1928 C 0.75706 0.21631 0.67428
 H1929 H 0.75585 0.19879 0.77628
 H1930 H 0.72334 0.24589 0.69708
 H1931 H 0.71540 0.28743 0.78574
 H1932 H 0.80366 0.27729 0.74396
 H1933 H 0.81702 0.25697 0.79472
 H1934 H 0.80954 0.29745 0.78305
 H1935 H 0.70033 0.20994 0.69857
 H1936 H 0.67513 0.23917 0.72376
 H1937 H 0.79098 0.20022 0.79947
 H1938 H 0.76383 0.22617 0.82491
 H1939 H 0.73908 0.27783 0.67301
 H1940 H 0.71131 0.30110 0.69964
 H1941 H 0.70138 0.20143 0.78910
 H1942 H 0.72379 0.17477 0.76066
 H1943 H 0.77439 0.32673 0.73587
 H1944 H 0.80141 0.30070 0.70792
 C1945 C 0.03335 1.01522 1.12724
 C1946 C 0.04563 0.99118 1.13954
 C1947 C 0.06845 1.00756 1.14840
 C1948 C 0.05634 1.03165 1.13638
 C1949 C 0.08284 1.00169 1.12329
 C1950 C 0.05989 0.98528 1.11425
 C1951 C 0.04778 1.00928 1.10221
 C1952 C 0.07059 1.02572 1.11095
 H1953 H 0.01285 1.02081 1.12866
 H1954 H 0.03542 0.97696 1.15151
 H1955 H 0.05485 1.05087 1.14542
 H1956 H 0.10334 0.99611 1.12183
 H1957 H 0.06129 0.96619 1.10490
 H1958 H 0.08073 1.03990 1.09888
 C1959 C 0.53266 0.49770 0.62873
 C1960 C 0.55707 0.48259 0.63626
 C1961 C 0.56692 0.50627 0.65087
 C1962 C 0.54260 0.52142 0.64363
 C1963 C 0.58067 0.51584 0.62667
 C1964 C 0.57074 0.49215 0.61185
 C1965 C 0.54647 0.50726 0.60460
 C1966 C 0.55622 0.53099 0.61910
 H1967 H 0.51277 0.49021 0.62926
 H1968 H 0.55744 0.46264 0.64355
 H1969 H 0.53083 0.53347 0.65666
 H1970 H 0.60055 0.52334 0.62607
 H1971 H 0.58229 0.48010 0.59860
 H1972 H 0.55578 0.55088 0.61169
 C1973 C 0.44407 -0.02806 0.61298
 C1974 C 0.45566 -0.01712 0.63813
 C1975 C 0.42967 -0.00453 0.64434
 C1976 C 0.41793 -0.01551 0.61947
 C1977 C 0.43762 0.02001 0.63025
 C1978 C 0.46373 0.00746 0.62372
 C1979 C 0.45191 -0.00349 0.59898
 C1980 C 0.42596 0.00907 0.60520
 H1981 H 0.44687 -0.04783 0.60559
 H1982 H 0.46776 -0.02793 0.65190
 H1983 H 0.39918 -0.02524 0.61715
 H1984 H 0.43487 0.03981 0.63757
 H1985 H 0.48272 0.01692 0.62517
 H1986 H 0.41377 0.01990 0.59152
 C1987 C -0.05564 0.47308 1.11425
 C1988 C -0.04384 0.48360 1.13947
 C1989 C -0.06944 0.49706 1.14552
 C1990 C -0.08136 0.48649 1.12056
 C1991 C -0.06055 0.52132 1.13152
 C1992 C -0.03483 0.50790 1.12512
 C1993 C -0.04687 0.49736 1.10030
 C1994 C -0.07242 0.51079 1.10638
 H1995 H -0.05346 0.45323 1.10686
 H1996 H -0.03220 0.47238 1.15331
 H1997 H -0.10041 0.47739 1.11808
 H1998 H -0.06269 0.54120 1.13883
 H1999 H -0.01554 0.51670 1.12669
 H2000 H -0.08416 0.52203 1.09264
 C2001 C -0.06020 0.48259 0.38289
 C2002 C -0.08345 0.49874 0.37414
 C2003 C -0.06904 0.50676 0.35128
 C2004 C -0.04648 0.49129 0.35823
 C2005 C -0.05902 0.52987 0.36411
 C2006 C -0.07303 0.52214 0.38906
 C2007 C -0.04946 0.50619 0.39715
 C2008 C -0.03509 0.51453 0.37270
 H2009 H -0.06105 0.46264 0.39011
 H2010 H -0.10374 0.49236 0.37367
 H2011 H -0.03607 0.47873 0.34450
 H2012 H -0.05876 0.54947 0.35600
 H2013 H -0.08456 0.53513 0.40141
 H2014 H -0.01495 0.52120 0.37135
 C2015 C 0.42913 1.02344 -0.11083
 C2016 C 0.44331 1.03155 -0.13562
 C2017 C 0.43249 1.00779 -0.14943
 C2018 C 0.41817 0.99975 -0.12496
 C2019 C 0.45600 0.99184 -0.14144
 C2020 C 0.46699 1.01556 -0.12733
 C2021 C 0.45261 1.00744 -0.10296
 C2022 C 0.44180 0.98378 -0.11679
 H2023 H 0.41819 1.03639 -0.09793
 H2024 H 0.44399 1.05133 -0.14329
 H2025 H 0.39794 0.99324 -0.12416
 H2026 H 0.46701 0.97886 -0.15425
 H2027 H 0.48721 1.02206 -0.12809
 H2028 H 0.44124 0.96411 -0.10880
 C2029 C 0.54924 0.46700 -0.11684
 C2030 C 0.53939 0.48448 -0.13878
 C2031 C 0.56726 0.49207 -0.14469
 C2032 C 0.57721 0.47457 -0.12311
 C2033 C 0.56554 0.51482 -0.12595
 C2034 C 0.53758 0.50725 -0.11974
 C2035 C 0.54761 0.48983 -0.09823
 C2036 C 0.57542 0.49737 -0.10418
 H2037 H 0.54246 0.44731 -0.11273
 H2038 H 0.52447 0.47912 -0.15300
 H2039 H 0.59362 0.46108 -0.12473
 H2040 H 0.57229 0.53454 -0.12993
 H2041 H 0.52116 0.52071 -0.11803
 H2042 H 0.59024 0.50263 -0.08979
 C2043 C 0.04714 -0.03376 0.38090
 C2044 C 0.03864 -0.01481 0.35965
 C2045 C 0.06699 -0.00923 0.35380
 C2046 C 0.07562 -0.02820 0.37469
 C2047 C 0.06717 0.01290 0.37334
 C2048 C 0.03872 0.00735 0.37947
 C2049 C 0.04741 -0.01155 0.40032
 C2050 C 0.07571 -0.00601 0.39444
 H2051 H 0.03885 -0.05299 0.38436
 H2052 H 0.02327 -0.01846 0.34535
 H2053 H 0.09090 -0.04288 0.37250
 H2054 H 0.07543 0.03217 0.37002
 H2055 H 0.02343 0.02200 0.38175
 H2056 H 0.09095 -0.00247 0.40891
 C2057 C 0.10667 1.07619 1.01277
 C2058 C 0.13010 1.06744 1.02882
 C2059 C 0.14669 1.06789 1.00447
 C2060 C 0.12351 1.07676 0.98840
 C2061 C 0.14034 1.03966 0.99883
 C2062 C 0.12344 1.03904 1.02321
 C2063 C 0.10037 1.04801 1.00713
 C2064 C 0.11692 1.04846 0.98280
 H2065 H 0.09256 1.09108 1.01853
 H2066 H 0.13581 1.07532 1.04778
 H2067 H 0.12373 1.09232 0.97396
 H2068 H 0.15407 1.02446 0.99299
 H2069 H 0.12311 1.02346 1.03763
 H2070 H 0.11117 1.04057 0.96385
 C2071 C 0.60584 0.57612 0.50146
 C2072 C 0.62476 0.57716 0.52434
 C2073 C 0.64632 0.56763 0.50654
 C2074 C 0.62761 0.56668 0.48371
 C2075 C 0.64029 0.53962 0.51328
 C2076 C 0.61838 0.54904 0.53106
 C2077 C 0.59978 0.54815 0.50817
 C2078 C 0.62128 0.53856 0.49044
 H2079 H 0.59150 0.59111 0.49665
 H2080 H 0.62642 0.59312 0.53835
 H2081 H 0.63165 0.57398 0.46418
 H2082 H 0.65443 0.52449 0.51821
 H2083 H 0.61423 0.54171 0.55057
 H2084 H 0.61951 0.52257 0.47646
 C2085 C 0.61653 0.43782 -0.02608
 C2086 C 0.64126 0.45233 -0.01834
 C2087 C 0.64970 0.42905 -0.00234
 C2088 C 0.62530 0.41441 -0.01009
 C2089 C 0.63615 0.44001 0.02150
 C2090 C 0.62741 0.46336 0.00554
 C2091 C 0.60308 0.44868 -0.00221
 C2092 C 0.61152 0.42544 0.01376
 H2093 H 0.60810 0.43701 -0.04564
 H2094 H 0.65345 0.46357 -0.03155
 H2095 H 0.62469 0.39415 -0.01657
 H2096 H 0.64445 0.44090 0.04111
 H2097 H 0.62797 0.48363 0.01201
 H2098 H 0.59910 0.41444 0.02698
 C2099 C 0.12056 -0.05586 0.47167
 C2100 C 0.14266 -0.04398 0.48767
 C2101 C 0.14939 -0.07072 0.49806
 C2102 C 0.12767 -0.08275 0.48203
 C2103 C 0.13106 -0.06686 0.52089
 C2104 C 0.12412 -0.04005 0.51049
 C2105 C 0.10242 -0.05211 0.49457
 C2106 C 0.10915 -0.07882 0.50489
 H2107 H 0.11590 -0.05125 0.45142
 H2108 H 0.15668 -0.02968 0.48069
 H2109 H 0.12937 -0.10048 0.47034
 H2110 H 0.13480 -0.07097 0.54141
 H2111 H 0.12239 -0.02232 0.52218
 H2112 H 0.09519 -0.09319 0.51189
 C2113 C 0.39468 -0.07190 0.51164
 C2114 C 0.37059 -0.06172 0.52565
 C2115 C 0.35470 -0.06631 0.50116
 C2116 C 0.37856 -0.07662 0.48714
 C2117 C 0.36032 -0.03897 0.49182
 C2118 C 0.37650 -0.03423 0.51633
 C2119 C 0.40027 -0.04463 0.50230
 C2120 C 0.38446 -0.04918 0.47782
 H2121 H 0.40908 -0.08531 0.51979
 H2122 H 0.36462 -0.06696 0.54535
 H2123 H 0.37919 -0.09415 0.47505
 H2124 H 0.34630 -0.02526 0.48356
 H2125 H 0.37591 -0.01670 0.52842
 H2126 H 0.39049 -0.04393 0.45814
 C2127 C -0.10473 0.42709 1.01118
 C2128 C -0.12792 0.43617 1.02729
 C2129 C -0.14509 0.43406 1.00335
 C2130 C -0.12213 0.42485 0.98721
 C2131 C -0.13954 0.46209 0.99629
 C2132 C -0.12207 0.46436 1.02026
 C2133 C -0.09920 0.45506 1.00412
 C2134 C -0.11630 0.45297 0.98018
 H2135 H -0.09016 0.41281 1.01730
 H2136 H -0.13298 0.42918 1.04670
 H2137 H -0.12236 0.40852 0.97352
 H2138 H -0.15378 0.47663 0.99007
 H2139 H -0.12176 0.48070 1.03394
 H2140 H -0.11118 0.45997 0.96079
 C2141 C -0.10986 0.57076 0.50600
 C2142 C -0.12454 0.58090 0.48230
 C2143 C -0.14888 0.56736 0.49181
 C2144 C -0.13441 0.55729 0.51548
 C2145 C -0.14183 0.54306 0.47652
 C2146 C -0.11713 0.55645 0.46703
 C2147 C -0.10279 0.54649 0.49076
 C2148 C -0.12708 0.53292 0.50025
 H2149 H -0.09655 0.58213 0.51813
 H2150 H -0.12374 0.60078 0.47489
 H2151 H -0.14172 0.55765 0.53545
 H2152 H -0.15495 0.53148 0.46440
 H2153 H -0.10967 0.55600 0.44711
 H2154 H -0.12784 0.51303 0.50766
 C2155 C 0.39081 1.07226 0.00520
 C2156 C 0.37676 1.08322 -0.01852
 C2157 C 0.35223 1.06922 -0.01024
 C2158 C 0.36607 1.05834 0.01345
 C2159 C 0.35984 1.04553 -0.02619
 C2160 C 0.38474 1.05936 -0.03446
 C2161 C 0.39845 1.04861 -0.01070
 C2162 C 0.37396 1.03459 -0.00245
 H2163 H 0.40371 1.08324 0.01812
 H2164 H 0.37766 1.10336 -0.02516
 H2165 H 0.35820 1.05791 0.03320
 H2166 H 0.34712 1.03436 -0.03911
 H2167 H 0.39278 1.05970 -0.05415
 H2168 H 0.37309 1.01444 0.00421
 C2169 C -0.01568 1.11572 1.05989
 C2170 C 0.00123 1.12496 1.08247
 C2171 C 0.00712 1.14962 1.06751
 C2172 C -0.00976 1.14056 1.04505
 C2173 C 0.03091 1.13694 1.05538
 C2174 C 0.02494 1.11196 1.07021
 C2175 C 0.00802 1.10303 1.04777
 C2176 C 0.01398 1.12761 1.03276
 H2177 H -0.03486 1.10674 1.06169
 H2178 H -0.00403 1.12403 1.10306
 H2179 H -0.02404 1.15254 1.03475
 H2180 H 0.05021 1.14559 1.05348
 H2181 H 0.03919 1.09988 1.08044
 H2182 H 0.01924 1.12849 1.01217
 C2183 C 0.49239 0.61085 0.57699
 C2184 C 0.51560 0.62882 0.58120
 C2185 C 0.50016 0.65092 0.56918
 C2186 C 0.47696 0.63315 0.56505
 C2187 C 0.51059 0.64411 0.54242
 C2188 C 0.52602 0.62166 0.55431
 C2189 C 0.50278 0.60405 0.55027
 C2190 C 0.48741 0.62610 0.53820
 H2191 H 0.48496 0.59699 0.59123
 H2192 H 0.52720 0.63017 0.59902
 H2193 H 0.45652 0.63742 0.56909
 H2194 H 0.51801 0.65803 0.52824
 H2195 H 0.54620 0.61661 0.54981
 H2196 H 0.47583 0.62470 0.52037
 C2197 C 0.00957 0.61837 0.45903
 C2198 C 0.01410 0.62434 0.43035
 C2199 C -0.00854 0.64326 0.43105
 C2200 C -0.01310 0.63757 0.45962
 C2201 C -0.02724 0.62183 0.42318
 C2202 C -0.00454 0.60267 0.42258
 C2203 C -0.00906 0.59699 0.45111
 C2204 C -0.03177 0.61580 0.45187
 H2205 H 0.02475 0.61663 0.47388
 H2206 H 0.03302 0.62809 0.42145
 H2207 H -0.01670 0.65185 0.47501
 H2208 H -0.04246 0.62348 0.40835
 H2209 H -0.00108 0.58812 0.40740
 H2210 H -0.05066 0.61194 0.46079
 C2211 C 0.50748 1.10381 -0.07590
 C2212 C 0.48344 1.11860 -0.08505
 C2213 C 0.49435 1.14318 -0.07277
 C2214 C 0.51834 1.12858 -0.06371
 C2215 C 0.48058 1.13726 -0.04740
 C2216 C 0.46972 1.11239 -0.05952
 C2217 C 0.49376 1.09789 -0.05056
 C2218 C 0.50462 1.12236 -0.03822
 H2219 H 0.51859 1.08990 -0.08761
 H2220 H 0.47447 1.11661 -0.10427
 H2221 H 0.53837 1.13544 -0.06554
 H2222 H 0.46950 1.15126 -0.03578
 H2223 H 0.44972 1.10544 -0.05765
 H2224 H 0.51331 1.12361 -0.01881
 C2225 C 0.51546 0.36886 -0.02881
 C2226 C 0.49133 0.35534 -0.03970
 C2227 C 0.50671 0.34759 -0.06364
 C2228 C 0.53086 0.36081 -0.05293
 C2229 C 0.49856 0.37243 -0.07730
 C2230 C 0.48317 0.38037 -0.05324
 C2231 C 0.50724 0.39358 -0.04255
 C2232 C 0.52264 0.38592 -0.06646
 H2233 H 0.52240 0.36762 -0.00871
 H2234 H 0.47846 0.34252 -0.02875
 H2235 H 0.55062 0.35289 -0.05273
 H2236 H 0.49162 0.37374 -0.09740
 H2237 H 0.46355 0.38868 -0.05330
 H2238 H 0.53548 0.39881 -0.07737
 C2239 C -0.01027 -0.11345 0.43133
 C2240 C 0.01252 -0.12770 0.41878
 C2241 C 0.00529 -0.15198 0.43372
 C2242 C -0.01749 -0.13793 0.44620
 C2243 C 0.02299 -0.14407 0.45605
 C2244 C 0.03023 -0.11944 0.44125
 C2245 C 0.00739 -0.10551 0.45361
 C2246 C 0.00016 -0.12974 0.46861
 H2247 H -0.02397 -0.10070 0.42116
 H2248 H 0.01761 -0.12710 0.39814
 H2249 H -0.03715 -0.14573 0.44826
 H2250 H 0.03667 -0.15667 0.46640
 H2251 H 0.04984 -0.11150 0.43929
 H2252 H -0.00493 -0.13029 0.48925
 C2253 C 0.52110 -0.11441 0.54876
 C2254 C 0.51243 -0.12052 0.57639
 C2255 C 0.49800 -0.14415 0.56617
 C2256 C 0.50670 -0.13831 0.53862
 C2257 C 0.47352 -0.12807 0.56238
 C2258 C 0.48793 -0.10421 0.57248
 C2259 C 0.49663 -0.09839 0.54500
 C2260 C 0.48220 -0.12192 0.53468
 H2261 H 0.54069 -0.10847 0.54306
 H2262 H 0.52495 -0.12014 0.59363
 H2263 H 0.51453 -0.15223 0.52454
 H2264 H 0.45391 -0.13396 0.56807
 H2265 H 0.48019 -0.08993 0.58628
 H2266 H 0.46968 -0.12223 0.51744
 C2267 C 0.01378 0.37858 1.03740
 C2268 C 0.01850 0.37183 1.06586
 C2269 C -0.00384 0.35470 1.06524
 C2270 C -0.00902 0.35972 1.03793
 C2271 C -0.02151 0.37503 1.07384
 C2272 C 0.00100 0.39419 1.07431
 C2273 C -0.00428 0.40046 1.04590
 C2274 C -0.02725 0.38190 1.04561
 H2275 H 0.02874 0.37944 1.02232
 H2276 H 0.03724 0.36655 1.07455
 H2277 H -0.01332 0.34503 1.02312
 H2278 H -0.03607 0.37248 1.08913
 H2279 H 0.00518 0.40797 1.09003
 H2280 H -0.04658 0.38554 1.03741
 C2281 C 0.78325 0.29878 0.13158
 C2282 C 0.76640 0.29039 0.10858
 C2283 C 0.76016 0.31742 0.10343
 C2284 C 0.77651 0.32674 0.12455
 C2285 C 0.73710 0.31693 0.11957
 C2286 C 0.74284 0.28872 0.12640
 C2287 C 0.75950 0.29790 0.14911
 C2288 C 0.75317 0.32604 0.14276
 H2289 H 0.80276 0.29147 0.13606
 H2290 H 0.77209 0.27589 0.09406
 H2291 H 0.79043 0.34267 0.12268
 H2292 H 0.71822 0.32475 0.11350
 H2293 H 0.72858 0.27298 0.12655
 H2294 H 0.74766 0.34142 0.15644
 C2295 C 0.27073 0.78496 0.62770
 C2296 C 0.24639 0.78922 0.61116
 C2297 C 0.25589 0.81633 0.60473
 C2298 C 0.28022 0.81220 0.62099
 C2299 C 0.24170 0.82746 0.62812
 C2300 C 0.23221 0.80027 0.63482
 C2301 C 0.25652 0.79617 0.65101
 C2302 C 0.26602 0.82321 0.64463
 H2303 H 0.28276 0.76739 0.62778
 H2304 H 0.23821 0.77503 0.59756
 H2305 H 0.29999 0.81718 0.61503
 H2306 H 0.22967 0.84504 0.62808
 H2307 H 0.21245 0.79528 0.64083
 H2308 H 0.27409 0.83706 0.65867
 C2309 C 0.76021 0.71323 0.62566
 C2310 C 0.76704 0.68507 0.61923
 C2311 C 0.74362 0.68380 0.60129
 C2312 C 0.73676 0.71186 0.60742
 C2313 C 0.72666 0.67445 0.62347
 C2314 C 0.75013 0.67580 0.64162
 C2315 C 0.74331 0.70380 0.64777
 C2316 C 0.71983 0.70261 0.62995
 H2317 H 0.77405 0.72930 0.62689
 H2318 H 0.78650 0.67781 0.61457
 H2319 H 0.73120 0.72681 0.59339
 H2320 H 0.71279 0.65840 0.62234
 H2321 H 0.75559 0.66099 0.65586
 H2322 H 0.70039 0.70991 0.63473
 C2323 C 0.25079 0.17377 0.13876
 C2324 C 0.22780 0.17319 0.12002
 C2325 C 0.24453 0.18265 0.09942
 C2326 C 0.26729 0.18308 0.11612
 C2327 C 0.23817 0.20965 0.10481
 C2328 C 0.22089 0.20108 0.12728
 C2329 C 0.24431 0.20187 0.14539
 C2330 C 0.26139 0.21124 0.12324
 H2331 H 0.25607 0.15828 0.15232
 H2332 H 0.21395 0.15724 0.11758
 H2333 H 0.28629 0.17531 0.11039
 H2334 H 0.23278 0.22426 0.09036
 H2335 H 0.20130 0.20834 0.13138
 H2336 H 0.27562 0.22699 0.12397
 C2337 C 0.27689 0.19290 0.86326
 C2338 C 0.26847 0.20747 0.88779
 C2339 C 0.25205 0.18430 0.89551
 C2340 C 0.26047 0.16960 0.87131
 C2341 C 0.22872 0.19537 0.88119
 C2342 C 0.24511 0.21863 0.87316
 C2343 C 0.25352 0.20388 0.84903
 C2344 C 0.23713 0.18076 0.85675
 H2345 H 0.29668 0.19197 0.85554
 H2346 H 0.28136 0.21866 0.90052
 H2347 H 0.26681 0.14930 0.87080
 H2348 H 0.20888 0.19639 0.88878
 H2349 H 0.23877 0.23894 0.87361
 H2350 H 0.22424 0.16981 0.84380
 C2351 C 0.74423 0.71818 0.37495
 C2352 C 0.72872 0.69420 0.38261
 C2353 C 0.75239 0.68384 0.39692
 C2354 C 0.76794 0.70773 0.38957
 C2355 C 0.76148 0.66978 0.37260
 C2356 C 0.73780 0.68020 0.35806
 C2357 C 0.75331 0.70405 0.35070
 C2358 C 0.77702 0.69379 0.36492
 H2359 H 0.73712 0.73822 0.37559
 H2360 H 0.70883 0.69434 0.39012
 H2361 H 0.78034 0.71924 0.40250
 H2362 H 0.76860 0.64974 0.37187
 H2363 H 0.72539 0.66892 0.34493
 H2364 H 0.79687 0.69372 0.35729
 C2365 C 0.26724 0.80493 0.36657
 C2366 C 0.25240 0.82913 0.37521
 C2367 C 0.24436 0.81509 0.39982
 C2368 C 0.25918 0.79101 0.39138
 C2369 C 0.21983 0.80528 0.38655
 C2370 C 0.22794 0.81919 0.36165
 C2371 C 0.24280 0.79513 0.35331
 C2372 C 0.23468 0.78104 0.37782
 H2373 H 0.28674 0.80472 0.35808
 H2374 H 0.25970 0.84905 0.37432
 H2375 H 0.27203 0.77949 0.40385
 H2376 H 0.20018 0.80536 0.39463
 H2377 H 0.21513 0.83066 0.34910
 H2378 H 0.22739 0.76111 0.37866
 C2379 C 0.75538 0.28129 0.87590
 C2380 C 0.77209 0.30424 0.88442
 C2381 C 0.74896 0.31542 0.89897
 C2382 C 0.73222 0.29256 0.89076
 C2383 C 0.74062 0.33052 0.87506
 C2384 C 0.76375 0.31928 0.86030
 C2385 C 0.74705 0.29645 0.85207
 C2386 C 0.72388 0.30754 0.86652
 H2387 H 0.76147 0.26090 0.87594
 H2388 H 0.79195 0.30288 0.89201
 H2389 H 0.71925 0.28139 0.90327
 H2390 H 0.73452 0.35091 0.87495
 H2391 H 0.77672 0.33025 0.84760
 H2392 H 0.70406 0.30882 0.85881
 C2393 C 0.80182 0.36625 0.26843
 C2394 C 0.82919 0.37333 0.25972
 C2395 C 0.81818 0.39693 0.24586
 C2396 C 0.79089 0.39010 0.25460
 C2397 C 0.81471 0.38122 0.22106
 C2398 C 0.82558 0.35735 0.23492
 C2399 C 0.79835 0.35059 0.24367
 C2400 C 0.78726 0.37411 0.22980
 H2401 H 0.79644 0.35976 0.28794
 H2402 H 0.84651 0.37323 0.27214
 H2403 H 0.77643 0.40339 0.26282
 H2404 H 0.82007 0.38768 0.20155
 H2405 H 0.83971 0.34363 0.22681
 H2406 H 0.76995 0.37417 0.21738
 C2407 C 0.28467 0.87511 0.73369
 C2408 C 0.28836 0.89181 0.75803
 C2409 C 0.31577 0.89806 0.74921
 C2410 C 0.31222 0.88166 0.72489
 C2411 C 0.32644 0.87478 0.76385
 C2412 C 0.29894 0.86824 0.77265
 C2413 C 0.29543 0.85192 0.74833
 C2414 C 0.32278 0.85815 0.73951
 H2415 H 0.26741 0.87499 0.72120
 H2416 H 0.27404 0.90556 0.76575
 H2417 H 0.31776 0.88745 0.70521
 H2418 H 0.34371 0.87487 0.77633
 H2419 H 0.29339 0.86239 0.79230
 H2420 H 0.33680 0.84403 0.73189
 C2421 C 0.17349 0.85746 0.25179
 C2422 C 0.17347 0.87646 0.27458
 C2423 C 0.18222 0.89690 0.25731
 C2424 C 0.18206 0.87994 0.23474
 C2425 C 0.20948 0.89185 0.26285
 C2426 C 0.20166 0.86955 0.28066
 C2427 C 0.20187 0.85117 0.25742
 C2428 C 0.21049 0.87317 0.23979
 H2429 H 0.15794 0.84370 0.24717
 H2430 H 0.15795 0.87890 0.28893
 H2431 H 0.17362 0.88535 0.21594
 H2432 H 0.22411 0.90650 0.26763
 H2433 H 0.20959 0.86577 0.30006
 H2434 H 0.22581 0.87241 0.22507
 C2435 C 0.71408 0.37554 0.74041
 C2436 C 0.68578 0.38195 0.73402
 C2437 C 0.68478 0.39967 0.75762
 C2438 C 0.71297 0.39358 0.76404
 C2439 C 0.67568 0.37737 0.77450
 C2440 C 0.67675 0.35945 0.75085
 C2441 C 0.70488 0.35331 0.75724
 C2442 C 0.70397 0.37091 0.78090
 H2443 H 0.72998 0.37446 0.72635
 H2444 H 0.67825 0.38674 0.71469
 H2445 H 0.72796 0.40761 0.76954
 H2446 H 0.65979 0.37834 0.78860
 H2447 H 0.66187 0.34525 0.74545
 H2448 H 0.71153 0.36601 0.80019
 C2449 C 0.67909 0.64290 0.76214
 C2450 C 0.66834 0.62804 0.73879
 C2451 C 0.68261 0.60390 0.74794
 C2452 C 0.69328 0.61853 0.77129
 C2453 C 0.70628 0.61113 0.73195
 C2454 C 0.69214 0.63559 0.72280
 C2455 C 0.70272 0.65013 0.74618
 C2456 C 0.71704 0.62606 0.75533
 H2457 H 0.66795 0.65615 0.77455
 H2458 H 0.64817 0.62862 0.73195
 H2459 H 0.69374 0.61129 0.79127
 H2460 H 0.71768 0.59813 0.71952
 H2461 H 0.69175 0.64295 0.70286
 H2462 H 0.73721 0.62555 0.76216
 C2463 C 0.19224 0.13233 0.22009
 C2464 C 0.20678 0.10783 0.22853
 C2465 C 0.18374 0.10040 0.24532
 C2466 C 0.16907 0.12457 0.23688
 C2467 C 0.19522 0.11489 0.26837
 C2468 C 0.21834 0.12262 0.25162
 C2469 C 0.20362 0.14672 0.24319
 C2470 C 0.18062 0.13927 0.25994
 H2471 H 0.19109 0.13984 0.20023
 H2472 H 0.21772 0.09492 0.21560
 H2473 H 0.14866 0.12513 0.23080
 H2474 H 0.19644 0.10750 0.28827
 H2475 H 0.23875 0.12212 0.25770
 H2476 H 0.16987 0.15236 0.27287
 C2477 C 0.28330 0.12683 0.73736
 C2478 C 0.31026 0.12025 0.72690
 C2479 C 0.31474 0.10258 0.75010
 C2480 C 0.28787 0.10891 0.76055
 C2481 C 0.32636 0.12492 0.76552
 C2482 C 0.32183 0.14276 0.74230
 C2483 C 0.29499 0.14911 0.75270
 C2484 C 0.29937 0.13161 0.77596
 H2485 H 0.26543 0.12788 0.72580
 H2486 H 0.31432 0.11609 0.70643
 H2487 H 0.27396 0.09473 0.76800
 H2488 H 0.34422 0.12393 0.77710
 H2489 H 0.33585 0.15682 0.73484
 H2490 H 0.29479 0.13661 0.79615
 C2491 C 0.80451 0.63464 0.23161
 C2492 C 0.82835 0.62652 0.24730
 C2493 C 0.81428 0.60195 0.25539
 C2494 C 0.79054 0.60988 0.23972
 C2495 C 0.80362 0.61558 0.27937
 C2496 C 0.81757 0.64042 0.27121
 C2497 C 0.79387 0.64826 0.25551
 C2498 C 0.77972 0.62380 0.26367
 H2499 H 0.80480 0.64273 0.21196
 H2500 H 0.84850 0.62747 0.24058
 H2501 H 0.77949 0.59709 0.22677
 H2502 H 0.80318 0.60787 0.29916
 H2503 H 0.82859 0.65328 0.28413
 H2504 H 0.75957 0.62291 0.27039
 C2505 C 0.87361 0.24090 0.20896
 C2506 C 0.87956 0.23654 0.18022
 C2507 C 0.89771 0.25970 0.18092
 C2508 C 0.89202 0.26409 0.20956
 C2509 C 0.87556 0.27772 0.17330
 C2510 C 0.85719 0.25450 0.17270
 C2511 C 0.85151 0.25885 0.20129
 C2512 C 0.86953 0.28208 0.20206
 H2513 H 0.87249 0.22569 0.22373
 H2514 H 0.88394 0.21775 0.17118
 H2515 H 0.90628 0.26812 0.22486
 H2516 H 0.87659 0.29295 0.15855
 H2517 H 0.84266 0.25060 0.15760
 H2518 H 0.86505 0.30083 0.21112
 C2519 C 0.35803 0.76671 0.67999
 C2520 C 0.38169 0.78098 0.69080
 C2521 C 0.39806 0.75683 0.68623
 C2522 C 0.37463 0.74257 0.67530
 C2523 C 0.39207 0.74709 0.71338
 C2524 C 0.37539 0.77124 0.71810
 C2525 C 0.35206 0.75697 0.70707
 C2526 C 0.36838 0.73284 0.70253
 H2527 H 0.34376 0.77478 0.66638
 H2528 H 0.38744 0.80081 0.68590
 H2529 H 0.37453 0.73070 0.65760
 H2530 H 0.40596 0.73892 0.72730
 H2531 H 0.37543 0.78311 0.73581
 H2532 H 0.36258 0.71302 0.70744
 C2533 C 0.35757 0.23684 0.82214
 C2534 C 0.38151 0.22282 0.81154
 C2535 C 0.39727 0.24742 0.81543
 C2536 C 0.37357 0.26143 0.82614
 C2537 C 0.39074 0.25635 0.78808
 C2538 C 0.37468 0.23174 0.78404
 C2539 C 0.35107 0.24576 0.79485
 C2540 C 0.36676 0.27034 0.79870
 H2541 H 0.34367 0.22879 0.83601
 H2542 H 0.38786 0.20325 0.81690
 H2543 H 0.37333 0.27374 0.84354
 H2544 H 0.40425 0.26448 0.77389
 H2545 H 0.37488 0.21943 0.76665
 H2546 H 0.36037 0.28990 0.79334
 C2547 C 0.86710 0.76825 0.29913
 C2548 C 0.87436 0.76027 0.32667
 C2549 C 0.89616 0.74540 0.31653
 C2550 C 0.89073 0.75288 0.28985
 C2551 C 0.88100 0.72176 0.31445
 C2552 C 0.85713 0.73634 0.32435
 C2553 C 0.85052 0.74396 0.29657
 C2554 C 0.87388 0.72877 0.28651
 H2555 H 0.86186 0.78792 0.29301
 H2556 H 0.87563 0.77333 0.34349
 H2557 H 0.90492 0.75994 0.27576
 H2558 H 0.88788 0.70278 0.32117
 H2559 H 0.84366 0.72937 0.33920
 H2560 H 0.87436 0.71540 0.26992
 C2561 C 0.13772 0.77181 0.31925
 C2562 C 0.11242 0.77837 0.30500
 C2563 C 0.10002 0.75429 0.31654
 C2564 C 0.12503 0.74780 0.33091
 C2565 C 0.10860 0.73811 0.29338
 C2566 C 0.12130 0.76216 0.28169
 C2567 C 0.14621 0.75560 0.29613
 C2568 C 0.13380 0.73161 0.30764
 H2569 H 0.15001 0.78565 0.32977
 H2570 H 0.10373 0.79775 0.30388
 H2571 H 0.12640 0.74189 0.35129
 H2572 H 0.09638 0.72424 0.28282
 H2573 H 0.12001 0.76807 0.26130
 H2574 H 0.14285 0.71237 0.30865
 C2575 C 0.64053 0.27295 0.81963
 C2576 C 0.61549 0.28117 0.80578
 C2577 C 0.60229 0.25681 0.81572
 C2578 C 0.62703 0.24865 0.82970
 C2579 C 0.61048 0.24187 0.79161
 C2580 C 0.62398 0.26621 0.78151
 C2581 C 0.64863 0.25799 0.79555
 C2582 C 0.63543 0.23370 0.80548
 H2583 H 0.65319 0.28572 0.83106
 H2584 H 0.60743 0.30086 0.80583
 H2585 H 0.62812 0.24141 0.84967
 H2586 H 0.59791 0.22908 0.78014
 H2587 H 0.62294 0.27344 0.76154
 H2588 H 0.64387 0.21416 0.80529
 C2589 C 0.63549 0.77008 0.69293
 C2590 C 0.62708 0.75458 0.66903
 C2591 C 0.60243 0.74676 0.68316
 C2592 C 0.61062 0.76225 0.70693
 C2593 C 0.61578 0.72263 0.69369
 C2594 C 0.64072 0.73050 0.67970
 C2595 C 0.64881 0.74601 0.70345
 C2596 C 0.62425 0.73814 0.71762
 H2597 H 0.64386 0.78959 0.69270
 H2598 H 0.62807 0.76133 0.64891
 H2599 H 0.59800 0.77531 0.71807
 H2600 H 0.60783 0.70295 0.69407
 H2601 H 0.65342 0.71747 0.66860
 H2602 H 0.62329 0.73138 0.73775
 C2603 C 0.13486 0.22122 0.18970
 C2604 C 0.11049 0.23005 0.20426
 C2605 C 0.10277 0.24647 0.18101
 C2606 C 0.12679 0.23764 0.16631
 C2607 C 0.11740 0.26959 0.19202
 C2608 C 0.12543 0.25321 0.21536
 C2609 C 0.14939 0.24439 0.20061
 C2610 C 0.14164 0.26077 0.17740
 H2611 H 0.14238 0.20133 0.18881
 H2612 H 0.09769 0.21741 0.21548
 H2613 H 0.12712 0.23121 0.14600
 H2614 H 0.11001 0.28953 0.19298
 H2615 H 0.12517 0.25963 0.23567
 H2616 H 0.15462 0.27342 0.16637
 C2617 C -0.05727 1.02172 0.88791
 C2618 C -0.04520 1.01247 0.86241
 C2619 C -0.07089 0.99996 0.85509
 C2620 C -0.08309 1.00926 0.88039
 C2621 C -0.06259 0.97468 0.86780
 C2622 C -0.03675 0.98718 0.87546
 C2623 C -0.04902 0.99650 0.90062
 C2624 C -0.07465 0.98399 0.89335
 H2625 H -0.05494 1.04109 0.89644
 H2626 H -0.03318 1.02428 0.84954
 H2627 H -0.10201 1.01857 0.88329
 H2628 H -0.06491 0.95529 0.85931
 H2629 H -0.01759 0.97805 0.87369
 H2630 H -0.08660 0.97221 0.90633
 C2631 C 0.42340 0.48132 0.39668
 C2632 C 0.41373 0.50588 0.38320
 C2633 C 0.42608 0.49655 0.35799
 C2634 C 0.43562 0.47197 0.37121
 C2635 C 0.45124 0.51033 0.36481
 C2636 C 0.43901 0.51965 0.39019
 C2637 C 0.44849 0.49513 0.40341
 C2638 C 0.46093 0.48577 0.37834
 H2639 H 0.41210 0.46933 0.41005
 H2640 H 0.39438 0.51434 0.38586
 H2641 H 0.43410 0.45232 0.36317
 H2642 H 0.46260 0.52234 0.35153
 H2643 H 0.44053 0.53930 0.39825
 H2644 H 0.48046 0.47746 0.37656
 C2645 C 0.57935 0.00286 0.39385
 C2646 C 0.57049 -0.01388 0.37096
 C2647 C 0.57270 0.00951 0.35325
 C2648 C 0.58173 0.02630 0.37595
 C2649 C 0.54459 0.01684 0.35845
 C2650 C 0.54224 -0.00654 0.37646
 C2651 C 0.55127 0.01021 0.39904
 C2652 C 0.55346 0.03361 0.38144
 H2653 H 0.59363 -0.00287 0.40859
 H2654 H 0.57757 -0.03348 0.36658
 H2655 H 0.59806 0.03987 0.37641
 H2656 H 0.53035 0.02258 0.34368
 H2657 H 0.52586 -0.02005 0.37697
 H2658 H 0.54634 0.05315 0.38602
 C2659 C 0.04181 0.49193 0.87764
 C2660 C 0.04412 0.51526 0.85959
 C2661 C 0.07199 0.50752 0.85380
 C2662 C 0.06982 0.48418 0.87158
 C2663 C 0.08172 0.52417 0.87629
 C2664 C 0.05369 0.53191 0.88234
 C2665 C 0.05155 0.50856 0.90001
 C2666 C 0.07939 0.50079 0.89427
 H2667 H 0.02524 0.47866 0.87851
 H2668 H 0.02969 0.52118 0.84509
 H2669 H 0.07652 0.46450 0.86700
 H2670 H 0.09826 0.53748 0.87621
 H2671 H 0.04696 0.55155 0.88706
 H2672 H 0.09387 0.49488 0.90874
 C2673 C 0.03149 0.50859 0.62252
 C2674 C 0.03437 0.48628 0.64184
 C2675 C 0.06199 0.49504 0.64749
 C2676 C 0.05920 0.51733 0.62849
 C2677 C 0.07234 0.47749 0.62607
 C2678 C 0.04461 0.46874 0.62003
 C2679 C 0.04194 0.49111 0.60114
 C2680 C 0.06951 0.49983 0.60690
 H2681 H 0.01455 0.52138 0.62075
 H2682 H 0.01981 0.48070 0.65624
 H2683 H 0.06523 0.53738 0.63217
 H2684 H 0.08927 0.46468 0.62774
 H2685 H 0.03854 0.44872 0.61622
 H2686 H 0.08402 0.50536 0.59242
 C2687 C 0.53208 1.01101 0.12359
 C2688 C 0.53430 0.98858 0.14286
 C2689 C 0.56222 0.99641 0.14842
 C2690 C 0.56009 1.01882 0.12948
 C2691 C 0.57190 0.97858 0.12691
 C2692 C 0.54388 0.97076 0.12097
 C2693 C 0.54186 0.99325 0.10214
 C2694 C 0.56973 1.00104 0.10781
 H2695 H 0.51556 1.02436 0.12191
 H2696 H 0.51964 0.98344 0.15732
 H2697 H 0.56680 1.03865 0.13317
 H2698 H 0.58840 0.96521 0.12847
 H2699 H 0.53713 0.95097 0.11714
 H2700 H 0.58438 1.00612 0.09329
 C2701 C 0.44355 0.47983 0.11749
 C2702 C 0.45791 0.48665 0.14259
 C2703 C 0.43467 0.50275 0.15113
 C2704 C 0.42021 0.49594 0.12627
 C2705 C 0.44598 0.52677 0.13840
 C2706 C 0.46934 0.51066 0.12957
 C2707 C 0.45481 0.50382 0.10478
 C2708 C 0.43162 0.51991 0.11325
 H2709 H 0.44260 0.46051 0.10858
 H2710 H 0.46892 0.47297 0.15458
 H2711 H 0.39988 0.48979 0.12513
 H2712 H 0.44698 0.54610 0.14725
 H2713 H 0.48967 0.51680 0.13071
 H2714 H 0.42093 0.53358 0.10094
 C2715 C -0.05668 -0.02350 0.61642
 C2716 C -0.04208 -0.01831 0.64182
 C2717 C -0.06407 -0.00055 0.65044
 C2718 C -0.07879 -0.00577 0.62535
 C2719 C -0.05071 0.02271 0.63829
 C2720 C -0.02863 0.00497 0.62933
 C2721 C -0.04344 -0.00024 0.60431
 C2722 C -0.06536 0.01746 0.61295
 H2723 H -0.05906 -0.04250 0.60711
 H2724 H -0.03224 -0.03306 0.65355
 H2725 H -0.09954 -0.01024 0.62388
 H2726 H -0.04824 0.04176 0.64747
 H2727 H -0.00788 0.00943 0.63072
 H2728 H -0.07482 0.03217 0.60082
 C2729 C -0.10968 0.92959 1.00966
 C2730 C -0.13199 0.94161 1.02509
 C2731 C -0.14995 0.93718 1.00202
 C2732 C -0.12785 0.92507 0.98660
 C2733 C -0.14350 0.96379 0.99125
 C2734 C -0.12525 0.96834 1.01430
 C2735 C -0.10324 0.95617 0.99891
 C2736 C -0.12109 0.95180 0.97583
 H2737 H -0.09559 0.91549 1.01715
 H2738 H -0.13613 0.93767 1.04555
 H2739 H -0.12913 0.90712 0.97521
 H2740 H -0.15766 0.97781 0.98376
 H2741 H -0.12389 0.98630 1.02566
 H2742 H -0.11630 0.95605 0.95556
 C2743 C 0.37137 0.47045 0.49141
 C2744 C 0.36268 0.44775 0.47434
 C2745 C 0.35035 0.43521 0.49797
 C2746 C 0.35875 0.45779 0.51505
 C2747 C 0.37546 0.42080 0.50386
 C2748 C 0.38805 0.43344 0.48026
 C2749 C 0.39641 0.45596 0.49731
 C2750 C 0.38412 0.44350 0.52094
 H2751 H 0.36990 0.49100 0.48621
 H2752 H 0.35361 0.44950 0.45514
 H2753 H 0.34675 0.46798 0.52939
 H2754 H 0.37692 0.40026 0.50906
 H2755 H 0.40034 0.42355 0.46595
 H2756 H 0.39326 0.44180 0.54011
 C2757 C 0.39383 0.56965 0.02079
 C2758 C 0.38108 0.57735 -0.00486
 C2759 C 0.35549 0.56617 0.00463
 C2760 C 0.36801 0.55857 0.03030
 C2761 C 0.36223 0.53986 -0.00694
 C2762 C 0.38797 0.55096 -0.01642
 C2763 C 0.40052 0.54342 0.00918
 C2764 C 0.37510 0.53209 0.01871
 H2765 H 0.40705 0.58174 0.03230
 H2766 H 0.38432 0.59583 -0.01473
 H2767 H 0.35954 0.56186 0.04954
 H2768 H 0.34906 0.52773 -0.01846
 H2769 H 0.39642 0.54767 -0.03568
 H2770 H 0.37292 0.51339 0.02849
 C2771 C -0.10585 0.06983 0.49932
 C2772 C -0.12801 0.05989 0.48232
 C2773 C -0.14637 0.06265 0.50519
 C2774 C -0.12439 0.07264 0.52224
 C2775 C -0.14075 0.03494 0.51354
 C2776 C -0.12207 0.03208 0.49064
 C2777 C -0.10016 0.04217 0.50762
 C2778 C -0.11839 0.04482 0.53057
 H2779 H -0.09136 0.08420 0.49352
 H2780 H -0.13219 0.06613 0.46241
 H2781 H -0.12556 0.08945 0.53529
 H2782 H -0.15512 0.02049 0.51942
 H2783 H -0.12080 0.01526 0.47762
 H2784 H -0.11409 0.03855 0.55044
 C2785 C 0.60733 0.07940 0.50122
 C2786 C 0.63007 0.07019 0.51795
 C2787 C 0.64785 0.07224 0.49455
 C2788 C 0.62530 0.08160 0.47779
 C2789 C 0.64228 0.04427 0.48710
 C2790 C 0.62423 0.04208 0.51049
 C2791 C 0.60181 0.05146 0.49374
 C2792 C 0.61948 0.05348 0.47033
 H2793 H 0.59275 0.09382 0.50701
 H2794 H 0.63458 0.07715 0.53758
 H2795 H 0.62524 0.09796 0.46428
 H2796 H 0.65691 0.02991 0.48130
 H2797 H 0.62348 0.02568 0.52395
 H2798 H 0.61483 0.04650 0.45074
 C2799 C 0.11029 0.57522 1.00776
 C2800 C 0.13240 0.56314 1.02336
 C2801 C 0.14974 0.56668 1.00140
 C2802 C 0.12968 0.57896 0.98573
 C2803 C 0.14426 0.54109 0.99084
 C2804 C 0.12521 0.53637 1.01296
 C2805 C 0.10359 0.54857 0.99679
 C2806 C 0.12236 0.55255 0.97436
 H2807 H 0.09671 0.59003 1.01487
 H2808 H 0.13666 0.56733 1.04379
 H2809 H 0.13264 0.59689 0.97475
 H2810 H 0.15929 0.52753 0.98418
 H2811 H 0.12401 0.51859 1.02450
 H2812 H 0.11881 0.54842 0.95376
 C2813 C 0.11014 0.44001 0.47697
 C2814 C 0.13561 0.45241 0.48579
 C2815 C 0.14348 0.42690 0.49824
 C2816 C 0.11820 0.41438 0.48941
 C2817 C 0.13105 0.43513 0.52373
 C2818 C 0.12288 0.46079 0.51128
 C2819 C 0.09773 0.44818 0.50242
 C2820 C 0.10553 0.42274 0.51490
 H2821 H 0.10127 0.44215 0.45772
 H2822 H 0.14818 0.46451 0.47373
 H2823 H 0.11563 0.39536 0.48024
 H2824 H 0.13991 0.43300 0.54299
 H2825 H 0.12456 0.47997 0.52035
 H2826 H 0.09290 0.41068 0.52695
 C2827 C 0.60567 0.92381 0.01718
 C2828 C 0.61844 0.91535 -0.00823
 C2829 C 0.64372 0.92776 0.00072
 C2830 C 0.63121 0.93609 0.02614
 C2831 C 0.63607 0.95328 -0.01181
 C2832 C 0.61059 0.94100 -0.02075
 C2833 C 0.59809 0.94927 0.00462
 C2834 C 0.62325 0.96176 0.01360
 H2835 H 0.59289 0.91185 0.02918
 H2836 H 0.61583 0.89631 -0.01737
 H2837 H 0.63996 0.93393 0.04544
 H2838 H 0.64877 0.96529 -0.02382
 H2839 H 0.60184 0.94316 -0.04005
 H2840 H 0.62498 0.98096 0.02265
 C2841 C 0.00930 0.87691 0.96824
 C2842 C -0.01400 0.85899 0.96404
 C2843 C -0.00389 0.85265 0.93699
 C2844 C 0.01938 0.87022 0.94112
 C2845 C -0.01941 0.87498 0.92552
 C2846 C -0.02949 0.88170 0.95266
 C2847 C -0.00617 0.89918 0.95671
 C2848 C 0.00389 0.89276 0.92973
 H2849 H 0.02112 0.87801 0.98594
 H2850 H -0.02142 0.84530 0.97842
 H2851 H 0.03954 0.86532 0.93636
 H2852 H -0.03127 0.87401 0.90784
 H2853 H -0.04960 0.88676 0.95748
 H2854 H 0.01122 0.90679 0.91560
 C2855 C 0.47831 0.39430 0.43046
 C2856 C 0.50381 0.38240 0.42110
 C2857 C 0.49602 0.35662 0.43306
 C2858 C 0.47051 0.36828 0.44234
 C2859 C 0.50910 0.36398 0.45851
 C2860 C 0.51687 0.38990 0.44663
 C2861 C 0.49141 0.40162 0.45583
 C2862 C 0.48359 0.37600 0.46795
 H2863 H 0.46556 0.40700 0.41909
 H2864 H 0.51241 0.38579 0.40198
 H2865 H 0.45142 0.35912 0.44043
 H2866 H 0.52188 0.35135 0.46992
 H2867 H 0.53598 0.39902 0.44853
 H2868 H 0.47520 0.37365 0.48733
 C2869 C -0.01217 0.38799 0.57152
 C2870 C -0.02667 0.36505 0.55967
 C2871 C -0.00405 0.34865 0.56409
 C2872 C 0.01059 0.36955 0.57616
 C2873 C 0.00660 0.35386 0.53853
 C2874 C -0.01623 0.37197 0.53287
 C2875 C -0.00114 0.39442 0.54487
 C2876 C 0.02199 0.37659 0.54978
 H2877 H -0.02006 0.40162 0.58586
 H2878 H -0.04694 0.36008 0.56360
 H2879 H 0.02145 0.36747 0.59439
 H2880 H 0.01410 0.33877 0.52546
 H2881 H -0.02756 0.37229 0.51482
 H2882 H 0.04248 0.38077 0.54594
 C2883 C 0.52108 0.87859 0.05027
 C2884 C 0.51131 0.87221 0.07751
 C2885 C 0.49494 0.85041 0.06618
 C2886 C 0.50471 0.85649 0.03905
 C2887 C 0.47209 0.86883 0.06262
 C2888 C 0.48846 0.89087 0.07385
 C2889 C 0.49823 0.89690 0.04675
 C2890 C 0.48190 0.87517 0.03537
 H2891 H 0.54125 0.88288 0.04512
 H2892 H 0.52340 0.87079 0.09499
 H2893 H 0.51132 0.84213 0.02477
 H2894 H 0.45174 0.86510 0.06745
 H2895 H 0.48186 0.90520 0.08817
 H2896 H 0.46982 0.87665 0.01788
 C2897 C 0.50418 0.60444 0.07631
 C2898 C 0.51915 0.62704 0.06459
 C2899 C 0.49549 0.64432 0.06819
 C2900 C 0.48047 0.62194 0.08000
 C2901 C 0.48559 0.63724 0.04125
 C2902 C 0.50928 0.61968 0.03755
 C2903 C 0.49431 0.59735 0.04941
 C2904 C 0.47059 0.61451 0.05294
 H2905 H 0.51178 0.59078 0.09073
 H2906 H 0.53918 0.63241 0.06938
 H2907 H 0.46857 0.62310 0.09759
 H2908 H 0.47791 0.65065 0.02665
 H2909 H 0.52117 0.61844 0.01996
 H2910 H 0.45061 0.60903 0.04810
 C2911 C 0.00829 0.10415 0.57507
 C2912 C 0.02286 0.12673 0.56275
 C2913 C -0.00062 0.14407 0.56725
 C2914 C -0.01520 0.12173 0.57967
 C2915 C -0.01158 0.13698 0.54072
 C2916 C 0.01192 0.11936 0.53612
 C2917 C -0.00263 0.09708 0.54858
 C2918 C -0.02614 0.11432 0.55302
 H2919 H 0.01642 0.09048 0.58918
 H2920 H 0.04306 0.13207 0.56676
 H2921 H -0.02641 0.12294 0.59770
 H2922 H -0.01979 0.15034 0.52637
 H2923 H 0.02311 0.11808 0.51808
 H2924 H -0.04632 0.10889 0.54898
 C2925 C 0.48261 0.11625 0.44091
 C2926 C 0.48853 0.14145 0.45543
 C2927 C 0.50438 0.15050 0.43235
 C2928 C 0.49847 0.12554 0.41772
 C2929 C 0.52883 0.13843 0.44380
 C2930 C 0.51298 0.12910 0.46700
 C2931 C 0.50703 0.10421 0.45231
 C2932 C 0.52288 0.11318 0.42928
 H2933 H 0.46359 0.10681 0.43977
 H2934 H 0.47436 0.15297 0.46639
 H2935 H 0.49239 0.12430 0.39734
 H2936 H 0.54787 0.14781 0.44498
 H2937 H 0.51905 0.13034 0.48738
 H2938 H 0.53702 0.10131 0.41865
 C2939 C 0.03030 0.62203 0.95020
 C2940 C 0.02015 0.62860 0.92303
 C2941 C 0.00322 0.64985 0.93471
 C2942 C 0.01339 0.64365 0.96174
 C2943 C -0.01907 0.63090 0.93804
 C2944 C -0.00216 0.60942 0.92647
 C2945 C 0.00797 0.60320 0.95347
 C2946 C -0.00889 0.62443 0.96514
 H2947 H 0.05061 0.61808 0.95527
 H2948 H 0.03207 0.63050 0.90554
 H2949 H 0.01966 0.65794 0.97624
 H2950 H -0.03963 0.63389 0.93339
 H2951 H -0.00844 0.59517 0.91193
 H2952 H -0.02079 0.62245 0.98264
 C2953 C 0.25636 0.71359 0.87635
 C2954 C 0.23258 0.70884 0.89341
 C2955 C 0.24282 0.68180 0.89932
 C2956 C 0.26655 0.68646 0.88254
 C2957 C 0.22815 0.67073 0.87615
 C2958 C 0.21794 0.69790 0.86987
 C2959 C 0.24175 0.70246 0.85323
 C2960 C 0.25194 0.67546 0.85919
 H2961 H 0.26800 0.73135 0.87614
 H2962 H 0.22458 0.72271 0.90746
 H2963 H 0.28661 0.68172 0.88795
 H2964 H 0.21651 0.65297 0.87630
 H2965 H 0.19793 0.70270 0.86432
 H2966 H 0.25988 0.66171 0.84498
 C2967 C 0.74007 0.21543 0.37616
 C2968 C 0.72694 0.19012 0.38420
 C2969 C 0.75247 0.18083 0.39583
 C2970 C 0.76561 0.20598 0.38814
 C2971 C 0.76009 0.16834 0.37011
 C2972 C 0.73456 0.17772 0.35824
 C2973 C 0.74771 0.20280 0.35060
 C2974 C 0.77321 0.19360 0.36224
 H2975 H 0.73176 0.23490 0.37838
 H2976 H 0.70789 0.18855 0.39349
 H2977 H 0.77849 0.21748 0.40061
 H2978 H 0.76859 0.14909 0.36696
 H2979 H 0.72171 0.16626 0.34571
 H2980 H 0.79226 0.19517 0.35294
 C2981 C 0.28262 0.29679 0.36682
 C2982 C 0.27377 0.32444 0.37319
 C2983 C 0.25742 0.31399 0.39534
 C2984 C 0.26629 0.28647 0.38936
 C2985 C 0.23423 0.31098 0.37731
 C2986 C 0.25053 0.32137 0.35498
 C2987 C 0.25935 0.29390 0.34893
 C2988 C 0.24307 0.28338 0.37103
 H2989 H 0.30253 0.29087 0.36214
 H2990 H 0.28643 0.34145 0.37433
 H2991 H 0.27279 0.27200 0.40351
 H2992 H 0.21427 0.31685 0.38184
 H2993 H 0.24409 0.33575 0.34070
 H2994 H 0.23042 0.26636 0.36982
 C2995 C 0.74725 0.78658 0.87309
 C2996 C 0.77114 0.79141 0.89013
 C2997 C 0.76067 0.81829 0.89651
 C2998 C 0.73683 0.81352 0.87976
 C2999 C 0.77500 0.82973 0.87348
 C3000 C 0.78544 0.80272 0.86671
 C3001 C 0.76151 0.79807 0.85010
 C3002 C 0.75110 0.82490 0.85654
 H3003 H 0.73579 0.76870 0.87263
 H3004 H 0.77941 0.77751 0.90392
 H3005 H 0.71677 0.81799 0.88533
 H3006 H 0.78645 0.84761 0.87389
 H3007 H 0.80543 0.79819 0.86099
 H3008 H 0.74288 0.83869 0.84259
 C3009 C 0.75454 0.78342 0.12442
 C3010 C 0.73134 0.79376 0.10894
 C3011 C 0.74728 0.81736 0.10161
 C3012 C 0.77046 0.80716 0.11682
 C3013 C 0.73751 0.83189 0.12545
 C3014 C 0.72158 0.80813 0.13307
 C3015 C 0.74476 0.79797 0.14817
 C3016 C 0.76067 0.82157 0.14087
 H3017 H 0.76149 0.76330 0.12428
 H3018 H 0.71935 0.78235 0.09553
 H3019 H 0.79073 0.80664 0.11043
 H3020 H 0.73056 0.85200 0.12571
 H3021 H 0.70149 0.80845 0.14005
 H3022 H 0.77270 0.83304 0.15421
 C3023 C 0.25638 0.28516 0.62386
 C3024 C 0.23314 0.29420 0.60766
 C3025 C 0.24805 0.31854 0.60058
 C3026 C 0.27128 0.30963 0.61652
 C3027 C 0.23688 0.33271 0.62402
 C3028 C 0.22198 0.30821 0.63138
 C3029 C 0.24520 0.29934 0.64721
 C3030 C 0.26010 0.32368 0.64018
 H3031 H 0.26433 0.26542 0.62408
 H3032 H 0.22213 0.28210 0.59401
 H3033 H 0.29172 0.31008 0.61070
 H3034 H 0.22892 0.35244 0.62390
 H3035 H 0.20171 0.30756 0.63778
 H3036 H 0.27113 0.33584 0.65376
 C3037 C 0.76455 0.21903 0.62320
 C3038 C 0.77992 0.19508 0.61466
 C3039 C 0.75556 0.18442 0.60175
 C3040 C 0.74019 0.20825 0.60999
 C3041 C 0.74818 0.17050 0.62660
 C3042 C 0.77250 0.18125 0.63979
 C3043 C 0.75714 0.20503 0.64798
 C3044 C 0.73280 0.19444 0.63510
 H3045 H 0.77138 0.23911 0.62205
 H3046 H 0.79934 0.19532 0.60599
 H3047 H 0.72688 0.21955 0.59782
 H3048 H 0.74135 0.15043 0.62778
 H3049 H 0.78579 0.17029 0.65230
 H3050 H 0.71341 0.19423 0.64382
 C3051 C 0.26771 0.67590 0.14362
 C3052 C 0.24368 0.67117 0.12677
 C3053 C 0.25797 0.68223 0.10355
 C3054 C 0.28204 0.68686 0.12014
 C3055 C 0.24792 0.70927 0.10979
 C3056 C 0.23362 0.69830 0.13328
 C3057 C 0.25765 0.70288 0.14980
 C3058 C 0.27194 0.71403 0.12666
 H3059 H 0.27585 0.66229 0.15779
 H3060 H 0.23202 0.65342 0.12660
 H3061 H 0.30218 0.68240 0.11493
 H3062 H 0.23978 0.72294 0.09568
 H3063 H 0.21369 0.70311 0.13898
 H3064 H 0.28362 0.73177 0.12685
 C3065 C 0.20086 0.62999 0.77942
 C3066 C 0.17334 0.62399 0.76992
 C3067 C 0.18417 0.60259 0.75263
 C3068 C 0.21156 0.60821 0.76214
 C3069 C 0.18731 0.62153 0.73038
 C3070 C 0.17655 0.64313 0.74762
 C3071 C 0.20391 0.64882 0.75708
 C3072 C 0.21480 0.62746 0.73987
 H3073 H 0.20649 0.63382 0.79961
 H3074 H 0.15615 0.62233 0.78230
 H3075 H 0.22611 0.59386 0.76813
 H3076 H 0.18171 0.61784 0.71016
 H3077 H 0.16212 0.65763 0.74173
 H3078 H 0.23200 0.62921 0.72751
 C3079 C 0.70279 0.12959 0.27478
 C3080 C 0.67494 0.12353 0.26644
 C3081 C 0.68508 0.10189 0.24902
 C3082 C 0.71284 0.10759 0.25741
 C3083 C 0.68739 0.12054 0.22640
 C3084 C 0.67733 0.14240 0.24378
 C3085 C 0.70502 0.14816 0.25212
 C3086 C 0.71525 0.12658 0.23477
 H3087 H 0.70918 0.13365 0.29470
 H3088 H 0.65825 0.12212 0.27952
 H3089 H 0.72772 0.09346 0.26309
 H3090 H 0.68104 0.11663 0.20644
 H3091 H 0.66271 0.15687 0.23823
 H3092 H 0.73196 0.12815 0.22175
 C3093 C 0.79934 0.13178 0.71829
 C3094 C 0.82676 0.12512 0.72769
 C3095 C 0.81577 0.10287 0.74350
 C3096 C 0.78846 0.10914 0.73406
 C3097 C 0.81233 0.12062 0.76684
 C3098 C 0.82327 0.14305 0.75110
 C3099 C 0.79602 0.14940 0.74172
 C3100 C 0.78495 0.12719 0.75745
 H3101 H 0.79393 0.13672 0.69831
 H3102 H 0.84408 0.12405 0.71541
 H3103 H 0.77404 0.09518 0.72703
 H3104 H 0.81770 0.11582 0.78687
 H3105 H 0.83763 0.15712 0.75806
 H3106 H 0.76762 0.12836 0.76972
 C3107 C 0.29884 0.63052 0.22056
 C3108 C 0.32591 0.62363 0.23079
 C3109 C 0.31425 0.60137 0.24612
 C3110 C 0.28731 0.60789 0.23586
 C3111 C 0.31022 0.61904 0.26944
 C3112 C 0.32181 0.64148 0.25416
 C3113 C 0.29491 0.64806 0.24396
 C3114 C 0.28320 0.62585 0.25922
 H3115 H 0.29410 0.63559 0.20044
 H3116 H 0.34360 0.62249 0.21906
 H3117 H 0.27299 0.59410 0.22832
 H3118 H 0.31492 0.61410 0.28960
 H3119 H 0.33602 0.65544 0.26165
 H3120 H 0.26549 0.62707 0.27094
 C3121 C 0.30243 0.36636 0.27685
 C3122 C 0.32975 0.37318 0.26753
 C3123 C 0.31836 0.39472 0.25088
 C3124 C 0.29118 0.38822 0.26022
 C3125 C 0.31549 0.37615 0.22804
 C3126 C 0.32678 0.35437 0.24466
 C3127 C 0.29963 0.34792 0.25399
 C3128 C 0.28821 0.36943 0.23740
 H3129 H 0.29701 0.36203 0.29694
 H3130 H 0.34700 0.37495 0.27991
 H3131 H 0.27654 0.40237 0.26652
 H3132 H 0.32056 0.37979 0.20774
 H3133 H 0.34144 0.34024 0.23838
 H3134 H 0.27095 0.36763 0.22503
 C3135 C 0.78585 0.87438 0.74316
 C3136 C 0.79521 0.89028 0.76649
 C3137 C 0.81950 0.89737 0.75143
 C3138 C 0.81027 0.88174 0.72811
 C3139 C 0.83364 0.87378 0.76221
 C3140 C 0.80919 0.86640 0.77726
 C3141 C 0.80000 0.85087 0.75394
 C3142 C 0.82429 0.85791 0.73890
 H3143 H 0.76602 0.87436 0.73537
 H3144 H 0.78327 0.90385 0.77776
 H3145 H 0.81058 0.88774 0.70773
 H3146 H 0.85346 0.87372 0.77001
 H3147 H 0.80868 0.85982 0.79746
 H3148 H 0.83627 0.84439 0.72761
 C3149 C 0.68024 0.86144 0.22744
 C3150 C 0.66931 0.87413 0.25194
 C3151 C 0.68334 0.89909 0.24520
 C3152 C 0.69418 0.88668 0.22065
 C3153 C 0.70709 0.89052 0.26055
 C3154 C 0.69315 0.86532 0.26730
 C3155 C 0.70393 0.85291 0.24278
 C3156 C 0.71805 0.87779 0.23600
 H3157 H 0.66934 0.84924 0.21379
 H3158 H 0.64917 0.87282 0.25861
 H3159 H 0.69457 0.89572 0.20142
 H3160 H 0.71832 0.90237 0.27422
 H3161 H 0.69279 0.85625 0.28651
 H3162 H 0.73820 0.87906 0.22934
 C3163 C 0.21761 0.37812 0.73552
 C3164 C 0.19386 0.38689 0.71993
 C3165 C 0.18266 0.39911 0.74441
 C3166 C 0.20628 0.39065 0.76000
 C3167 C 0.16872 0.37404 0.75089
 C3168 C 0.18001 0.36154 0.72645
 C3169 C 0.20357 0.35313 0.74203
 C3170 C 0.19244 0.36534 0.76648
 H3171 H 0.23782 0.37955 0.72909
 H3172 H 0.19440 0.39603 0.70075
 H3173 H 0.21728 0.40254 0.77383
 H3174 H 0.14850 0.37259 0.75732
 H3175 H 0.16936 0.34930 0.71264
 H3176 H 0.19193 0.35616 0.78564
 C3177 C 0.14263 0.75314 0.82573
 C3178 C 0.11934 0.76734 0.81413
 C3179 C 0.10263 0.74372 0.81934
 C3180 C 0.12574 0.72947 0.83100
 C3181 C 0.10880 0.73274 0.79259
 C3182 C 0.12582 0.75641 0.78731
 C3183 C 0.14887 0.74222 0.79903
 C3184 C 0.13229 0.71852 0.80413
 H3185 H 0.15668 0.76151 0.83940
 H3186 H 0.11381 0.78748 0.81829
 H3187 H 0.12548 0.71836 0.84910
 H3188 H 0.09492 0.72432 0.77882
 H3189 H 0.12615 0.76751 0.76920
 H3190 H 0.13796 0.69844 0.79992
 C3191 C 0.64219 0.23296 0.32098
 C3192 C 0.63018 0.25835 0.33050
 C3193 C 0.60447 0.25056 0.31812
 C3194 C 0.61626 0.22517 0.30868
 C3195 C 0.61195 0.26380 0.29293
 C3196 C 0.63784 0.27156 0.30521
 C3197 C 0.64965 0.24621 0.29587
 C3198 C 0.62410 0.23840 0.28333
 H3199 H 0.65487 0.22020 0.33237
 H3200 H 0.63339 0.26684 0.34977
 H3201 H 0.60713 0.20607 0.31025
 H3202 H 0.59933 0.27659 0.28151
 H3203 H 0.64697 0.29066 0.30364
 H3204 H 0.62188 0.23012 0.26382
 C3205 C 0.63595 0.73440 0.19184
 C3206 C 0.61038 0.74353 0.20376
 C3207 C 0.60335 0.75641 0.17819
 C3208 C 0.62878 0.74727 0.16618
 C3209 C 0.61604 0.78154 0.18706
 C3210 C 0.62340 0.76863 0.21280
 C3211 C 0.64868 0.75946 0.20066
 C3212 C 0.64173 0.77237 0.17516
 H3213 H 0.64436 0.71496 0.19394
 H3214 H 0.59733 0.73157 0.21543
 H3215 H 0.63176 0.73830 0.14710
 H3216 H 0.60760 0.80096 0.18496
 H3217 H 0.62144 0.77748 0.23208
 H3218 H 0.65486 0.78432 0.16355
 C3219 C 0.13179 0.28394 0.69535
 C3220 C 0.12505 0.27342 0.66831
 C3221 C 0.10225 0.25881 0.67988
 C3222 C 0.10860 0.26937 0.70678
 C3223 C 0.11934 0.23520 0.68456
 C3224 C 0.14234 0.24977 0.67308
 C3225 C 0.14876 0.26027 0.69992
 C3226 C 0.12599 0.24573 0.71152
 H3227 H 0.13725 0.30399 0.69985
 H3228 H 0.12449 0.28487 0.65042
 H3229 H 0.09493 0.27750 0.72092
 H3230 H 0.11407 0.21508 0.68014
 H3231 H 0.15635 0.24173 0.65920
 H3232 H 0.12666 0.23430 0.72942
 C3233 C 0.87506 0.22781 0.71408
 C3234 C 0.88162 0.21783 0.68686
 C3235 C 0.89808 0.24189 0.68242
 C3236 C 0.89178 0.25182 0.70951
 C3237 C 0.87475 0.25619 0.67128
 C3238 C 0.85804 0.23217 0.67583
 C3239 C 0.85181 0.24212 0.70286
 C3240 C 0.86820 0.26614 0.69846
 H3241 H 0.87498 0.21608 0.73178
 H3242 H 0.88693 0.19772 0.68235
 H3243 H 0.90585 0.25992 0.72332
 H3244 H 0.87483 0.26791 0.65357
 H3245 H 0.84391 0.22408 0.66207
 H3246 H 0.86239 0.28603 0.70333
 C3247 C 0.35887 0.72680 0.18233
 C3248 C 0.37224 0.75101 0.17188
 C3249 C 0.39697 0.74331 0.18610
 C3250 C 0.38388 0.71905 0.19645
 C3251 C 0.38862 0.75862 0.20994
 C3252 C 0.36364 0.76633 0.19583
 C3253 C 0.35057 0.74210 0.20612
 C3254 C 0.37523 0.73437 0.22042
 H3255 H 0.34639 0.71371 0.17109
 H3256 H 0.37123 0.75794 0.15181
 H3257 H 0.39243 0.69956 0.19673
 H3258 H 0.40085 0.77170 0.22145
 H3259 H 0.35502 0.78579 0.19563
 H3260 H 0.37623 0.72744 0.24049
 C3261 C 0.35740 0.24671 0.32383
 C3262 C 0.38095 0.23097 0.31497
 C3263 C 0.39770 0.25506 0.31766
 C3264 C 0.37431 0.27082 0.32665
 C3265 C 0.39231 0.26232 0.28959
 C3266 C 0.37527 0.23823 0.28675
 C3267 C 0.35203 0.25400 0.29580
 C3268 C 0.36867 0.27809 0.29845
 H3269 H 0.34286 0.24030 0.33791
 H3270 H 0.38615 0.21155 0.32187
 H3271 H 0.37332 0.28426 0.34314
 H3272 H 0.40692 0.26875 0.27560
 H3273 H 0.37535 0.22481 0.27019
 H3274 H 0.36333 0.29746 0.29152
 C3275 C 0.86021 0.73973 0.81922
 C3276 C 0.88485 0.73083 0.80534
 C3277 C 0.89910 0.75412 0.81653
 C3278 C 0.87463 0.76300 0.83050
 C3279 C 0.89189 0.77033 0.79298
 C3280 C 0.87734 0.74700 0.78165
 C3281 C 0.85297 0.75589 0.79567
 C3282 C 0.86711 0.77919 0.80680
 H3283 H 0.84702 0.72714 0.83006
 H3284 H 0.89179 0.71073 0.80461
 H3285 H 0.87365 0.76953 0.85076
 H3286 H 0.90520 0.78286 0.78225
 H3287 H 0.87818 0.74048 0.76139
 H3288 H 0.85953 0.79907 0.80731
   
