data_POSCAR
  _audit_creation_date              2014-09-24
  _audit_creation_method            'ToBaCCo'
  _symmetry_space_group_name_H-M    'P1'
  _symmetry_Int_Tables_number       1
  _symmetry_cell_setting            triclinic
  loop_
  _symmetry_equiv_pos_as_xyz
 x,y,z
_cell_length_a 51.4103
_cell_length_b 51.4111
_cell_length_c 51.4113
_cell_angle_alpha 88.918200
_cell_angle_beta 88.916200
_cell_angle_gamma 88.915600
loop_
  _atom_site_label
  _atom_site_type_symbol
  _atom_site_fract_x
  _atom_site_fract_y
  _atom_site_fract_z
Si1 Si 0.75540 0.61823 0.99900
 Si2 Si 0.74943 0.37860 0.50289
 Si3 Si 0.24947 -0.12142 0.00298
 Si4 Si 0.25535 0.11825 0.49910
 Si5 Si 0.11827 0.49903 0.25537
 Si6 Si -0.12137 0.00292 0.24943
 Si7 Si 0.37862 0.50297 0.74943
 Si8 Si 0.61826 0.99908 0.75536
 Si9 Si 0.00296 0.24940 -0.12140
 Si10 Si 0.49905 0.25537 0.11825
 Si11 Si 0.99907 0.75534 0.61826
 Si12 Si 0.50297 0.74946 0.37859
 C13 C 0.41836 -0.02481 0.27654
 H14 H 0.41938 -0.00603 0.28557
 C15 C 0.43221 -0.04615 0.28689
 H16 H 0.44407 -0.04380 0.30385
 C17 C 0.40052 -0.05132 0.24435
 H18 H 0.38754 -0.05353 0.22832
 C19 C 0.41404 -0.07309 0.25405
 H20 H 0.41161 -0.09185 0.24526
 N21 N 0.40279 -0.02777 0.25572
 C22 C 0.38687 0.04887 0.22112
 H23 H 0.36593 0.04751 0.22017
 C24 C 0.39918 0.07103 0.21145
 H25 H 0.38772 0.08681 0.20295
 C26 C 0.42736 0.02991 0.23337
 H27 H 0.43821 0.01375 0.24182
 C28 C 0.44051 0.05184 0.22387
 H29 H 0.46149 0.05260 0.22506
 Zn30 Zn 0.38132 0.00061 0.24485
 N31 N 0.40096 0.02902 0.23210
 C32 C 0.36317 0.03580 0.28287
 N33 N 0.36105 0.01113 0.27411
 C34 C 0.34615 -0.00666 0.28711
 C35 C 0.33249 0.00023 0.30984
 C36 C 0.34986 0.04346 0.30540
 C37 C 0.37289 -0.01487 0.19445
 C38 C 0.35917 -0.02295 0.17302
 C39 C 0.31934 -0.01948 0.19858
 C40 C 0.33386 -0.01139 0.21962
 N41 N 0.36020 -0.00965 0.21727
 H42 H 0.37564 0.04948 0.27281
 H43 H 0.34523 -0.02631 0.28005
 H44 H 0.32086 -0.01406 0.32026
 H45 H 0.35190 0.06308 0.31234
 H46 H 0.39380 -0.01303 0.19307
 H47 H 0.36952 -0.02747 0.15506
 H48 H 0.29844 -0.02124 0.20063
 H49 H 0.32410 -0.00671 0.23777
 C50 C 0.42620 0.07262 0.21294
 C51 C 0.42979 -0.07056 0.27567
 C52 C 0.33219 -0.02545 0.17514
 C53 C 0.33449 0.02553 0.31908
 C54 C 0.08578 1.02312 0.78169
 H55 H 0.08408 1.00429 0.79126
 C56 C 0.07236 1.04473 0.79175
 H57 H 0.06016 1.04254 0.80903
 C58 C 0.10486 1.04942 0.74835
 H59 H 0.11814 1.05142 0.73195
 C60 C 0.09180 1.07145 0.75774
 H61 H 0.09487 1.09022 0.74834
 N62 N 0.10174 1.02585 0.76042
 C63 C 0.11560 0.94887 0.72811
 H64 H 0.13663 0.94923 0.72716
 C65 C 0.10257 0.92761 0.71865
 H66 H 0.11358 0.91150 0.71037
 C67 C 0.07556 0.96968 0.73969
 H68 H 0.06518 0.98629 0.74762
 C69 C 0.06170 0.94871 0.73037
 H70 H 0.04063 0.94912 0.73122
 Zn71 Zn 0.12247 0.99696 0.74979
 N72 N 0.10205 0.96925 0.73855
 C73 C 0.13986 0.96130 0.78852
 N74 N 0.14247 0.98589 0.77866
 C75 C 0.15788 1.00335 0.79026
 C76 C 0.17162 0.99620 0.81259
 C77 C 0.15324 0.95337 0.81072
 C78 C 0.13135 1.01254 0.69864
 C79 C 0.14529 1.02034 0.67643
 C80 C 0.18506 1.01539 0.70054
 C81 C 0.17032 1.00762 0.72240
 N82 N 0.14392 1.00676 0.72113
 H83 H 0.12700 0.94790 0.77956
 H84 H 0.15918 1.02294 0.78234
 H85 H 0.18370 1.01023 0.82185
 H86 H 0.15086 0.93382 0.81854
 H87 H 0.11038 1.01138 0.69814
 H88 H 0.13505 1.02533 0.65874
 H89 H 0.20603 1.01648 0.70171
 H90 H 0.17996 1.00247 0.74031
 C91 C 0.07540 0.92750 0.71978
 C92 C 0.07562 1.06915 0.77977
 C93 C 0.17235 1.02196 0.67743
 C94 C 0.16918 0.97097 0.82292
 C95 C 0.58577 0.52320 0.28162
 H96 H 0.58407 0.50436 0.29118
 C97 C 0.57236 0.54481 0.29169
 H98 H 0.56015 0.54261 0.30897
 C99 C 0.60485 0.54950 0.24829
 H100 H 0.61813 0.55150 0.23189
 C101 C 0.59179 0.57153 0.25768
 H102 H 0.59487 0.59030 0.24829
 N103 N 0.60173 0.52593 0.26036
 C104 C 0.61558 0.44896 0.22803
 H105 H 0.63661 0.44931 0.22706
 C106 C 0.60254 0.42770 0.21856
 H107 H 0.61355 0.41158 0.21027
 C108 C 0.57554 0.46977 0.23962
 H109 H 0.56516 0.48637 0.24756
 C110 C 0.56168 0.44879 0.23030
 H111 H 0.54061 0.44920 0.23116
 Zn112 Zn 0.62246 0.49704 0.24972
 N113 N 0.60203 0.46933 0.23847
 C114 C 0.63985 0.46136 0.28843
 N115 N 0.64245 0.48596 0.27858
 C116 C 0.65787 0.50342 0.29018
 C117 C 0.67162 0.49625 0.31250
 C118 C 0.65324 0.45343 0.31063
 C119 C 0.63133 0.51262 0.19857
 C120 C 0.64527 0.52042 0.17635
 C121 C 0.68504 0.51547 0.20046
 C122 C 0.67030 0.50770 0.22231
 N123 N 0.64390 0.50684 0.22105
 H124 H 0.62698 0.44797 0.27947
 H125 H 0.65917 0.52301 0.28227
 H126 H 0.68370 0.51028 0.32176
 H127 H 0.65086 0.43388 0.31844
 H128 H 0.61035 0.51147 0.19807
 H129 H 0.63503 0.52541 0.15866
 H130 H 0.70601 0.51655 0.20163
 H131 H 0.67994 0.50254 0.24022
 C132 C 0.57538 0.42758 0.21970
 C133 C 0.57562 0.56923 0.27972
 C134 C 0.67233 0.52203 0.17734
 C135 C 0.66918 0.47103 0.32282
 C136 C 0.91838 0.47510 0.77647
 H137 H 0.91941 0.49389 0.78549
 C138 C 0.93223 0.45376 0.78682
 H139 H 0.94408 0.45612 0.80378
 C140 C 0.90054 0.44860 0.74428
 H141 H 0.88757 0.44639 0.72824
 C142 C 0.91405 0.42683 0.75398
 H143 H 0.91162 0.40806 0.74519
 N144 N 0.90282 0.47214 0.75564
 C145 C 0.88691 0.54879 0.72104
 H146 H 0.86597 0.54743 0.72008
 C147 C 0.89922 0.57095 0.71137
 H148 H 0.88777 0.58673 0.70287
 C149 C 0.92740 0.52982 0.73330
 H150 H 0.93825 0.51367 0.74174
 C151 C 0.94055 0.55175 0.72380
 H152 H 0.96153 0.55251 0.72500
 Zn153 Zn 0.88135 0.50053 0.74477
 N154 N 0.90100 0.52894 0.73202
 C155 C 0.86321 0.53573 0.78279
 N156 N 0.86108 0.51106 0.77402
 C157 C 0.84617 0.49327 0.78703
 C158 C 0.83251 0.50017 0.80976
 C159 C 0.84990 0.54340 0.80532
 C160 C 0.87292 0.48505 0.69437
 C161 C 0.85920 0.47697 0.67294
 C162 C 0.81937 0.48048 0.69849
 C163 C 0.83389 0.48855 0.71953
 N164 N 0.86023 0.49027 0.71719
 H165 H 0.87569 0.54940 0.77273
 H166 H 0.84525 0.47363 0.77996
 H167 H 0.82088 0.48588 0.82017
 H168 H 0.85195 0.56301 0.81226
 H169 H 0.89384 0.48688 0.69300
 H170 H 0.86955 0.47245 0.65498
 H171 H 0.79846 0.47873 0.70053
 H172 H 0.82413 0.49324 0.73769
 C173 C 0.92624 0.57253 0.71287
 C174 C 0.92981 0.42936 0.77560
 C175 C 0.83222 0.47450 0.67506
 C176 C 0.83452 0.52546 0.81899
 C177 C 0.27652 0.41837 -0.02486
 H178 H 0.28555 0.41939 -0.00607
 C179 C 0.28688 0.43222 -0.04620
 H180 H 0.30384 0.44408 -0.04384
 C181 C 0.24434 0.40053 -0.05137
 H182 H 0.22830 0.38756 -0.05358
 C183 C 0.25404 0.41405 -0.07314
 H184 H 0.24525 0.41162 -0.09190
 N185 N 0.25570 0.40280 -0.02782
 C186 C 0.22109 0.38688 0.04882
 H187 H 0.22013 0.36595 0.04746
 C188 C 0.21142 0.39919 0.07098
 H189 H 0.20292 0.38773 0.08676
 C190 C 0.23334 0.42738 0.02986
 H191 H 0.24179 0.43823 0.01371
 C192 C 0.22384 0.44052 0.05179
 H193 H 0.22504 0.46150 0.05256
 Zn194 Zn 0.24482 0.38134 0.00056
 N195 N 0.23207 0.40098 0.02897
 C196 C 0.28284 0.36319 0.03576
 N197 N 0.27408 0.36107 0.01108
 C198 C 0.28708 0.34615 -0.00670
 C199 C 0.30981 0.33250 0.00019
 C200 C 0.30537 0.34988 0.04342
 C201 C 0.19442 0.37291 -0.01492
 C202 C 0.17299 0.35919 -0.02301
 C203 C 0.19855 0.31936 -0.01952
 C204 C 0.21959 0.33387 -0.01144
 N205 N 0.21724 0.36021 -0.00970
 H206 H 0.27278 0.37566 0.04943
 H207 H 0.28002 0.34524 -0.02635
 H208 H 0.32023 0.32087 -0.01410
 H209 H 0.31231 0.35192 0.06304
 H210 H 0.19305 0.39382 -0.01309
 H211 H 0.15503 0.36954 -0.02752
 H212 H 0.20059 0.29845 -0.02127
 H213 H 0.23774 0.32412 -0.00675
 C214 C 0.21292 0.42621 0.07257
 C215 C 0.27566 0.42980 -0.07060
 C216 C 0.17511 0.33221 -0.02550
 C217 C 0.31904 0.33450 0.02549
 C218 C 0.78167 0.08573 1.02318
 H219 H 0.79123 0.08403 1.00435
 C220 C 0.79173 0.07231 1.04478
 H221 H 0.80900 0.06010 1.04259
 C222 C 0.74833 0.10481 1.04948
 H223 H 0.73194 0.11809 1.05149
 C224 C 0.75772 0.09174 1.07152
 H225 H 0.74833 0.09482 1.09028
 N226 N 0.76040 0.10170 1.02591
 C227 C 0.72808 0.11557 0.94895
 H228 H 0.72712 0.13660 0.94931
 C229 C 0.71860 0.10254 0.92768
 H230 H 0.71032 0.11355 0.91158
 C231 C 0.73966 0.07553 0.96974
 H232 H 0.74760 0.06514 0.98634
 C233 C 0.73033 0.06167 0.94877
 H234 H 0.73119 0.04060 0.94917
 Zn235 Zn 0.74977 0.12243 0.99703
 N236 N 0.73852 0.10202 0.96932
 C237 C 0.78849 0.13982 0.96136
 N238 N 0.77864 0.14242 0.98595
 C239 C 0.79024 0.15783 1.00342
 C240 C 0.81257 0.17158 0.99626
 C241 C 0.81070 0.15320 0.95343
 C242 C 0.69862 0.13131 1.01262
 C243 C 0.67641 0.14526 1.02043
 C244 C 0.70052 0.18502 1.01548
 C245 C 0.72238 0.17028 1.00770
 N246 N 0.72111 0.14388 1.00684
 H247 H 0.77953 0.12696 0.94797
 H248 H 0.78233 0.15914 1.02301
 H249 H 0.82183 0.18365 1.01029
 H250 H 0.81851 0.15082 0.93388
 H251 H 0.69812 0.11034 1.01146
 H252 H 0.65872 0.13501 1.02541
 H253 H 0.70169 0.20599 1.01656
 H254 H 0.74029 0.17992 1.00255
 C255 C 0.71973 0.07538 0.92756
 C256 C 0.77975 0.07557 1.06921
 C257 C 0.67741 0.17231 1.02205
 C258 C 0.82289 0.16914 0.97103
 C259 C 0.28170 0.58576 0.52316
 H260 H 0.29126 0.58406 0.50433
 C261 C 0.29176 0.57234 0.54477
 H262 H 0.30904 0.56014 0.54257
 C263 C 0.24835 0.60483 0.54946
 H264 H 0.23195 0.61811 0.55146
 C265 C 0.25774 0.59177 0.57149
 H266 H 0.24835 0.59484 0.59026
 N267 N 0.26043 0.60172 0.52589
 C268 C 0.22810 0.61556 0.44892
 H269 H 0.22713 0.63660 0.44928
 C270 C 0.21863 0.60253 0.42766
 H271 H 0.21034 0.61353 0.41155
 C272 C 0.23970 0.57553 0.46972
 H273 H 0.24764 0.56515 0.48632
 C274 C 0.23038 0.56167 0.44875
 H275 H 0.23125 0.54060 0.44915
 Zn276 Zn 0.24979 0.62245 0.49700
 N277 N 0.23855 0.60202 0.46929
 C278 C 0.28851 0.63983 0.46133
 N279 N 0.27866 0.64244 0.48592
 C280 C 0.29026 0.65785 0.50338
 C281 C 0.31258 0.67160 0.49622
 C282 C 0.31071 0.65322 0.45340
 C283 C 0.19864 0.63131 0.51259
 C284 C 0.17642 0.64525 0.52039
 C285 C 0.20053 0.68502 0.51544
 C286 C 0.22238 0.67029 0.50766
 N287 N 0.22112 0.64389 0.50680
 H288 H 0.27954 0.62697 0.44794
 H289 H 0.28234 0.65916 0.52297
 H290 H 0.32184 0.68368 0.51025
 H291 H 0.31852 0.65083 0.43385
 H292 H 0.19814 0.61034 0.51143
 H293 H 0.15874 0.63501 0.52538
 H294 H 0.20169 0.70599 0.51652
 H295 H 0.24029 0.67993 0.50251
 C296 C 0.21978 0.57536 0.42754
 C297 C 0.27978 0.57560 0.56919
 C298 C 0.17741 0.67231 0.52201
 C299 C 0.32290 0.66916 0.47100
 C300 C 0.77653 0.91837 0.47517
 H301 H 0.78556 0.91940 0.49395
 C302 C 0.78689 0.93222 0.45383
 H303 H 0.80385 0.94408 0.45619
 C304 C 0.74436 0.90052 0.44866
 H305 H 0.72833 0.88754 0.44644
 C306 C 0.75407 0.91403 0.42688
 H307 H 0.74528 0.91159 0.40812
 N308 N 0.75571 0.90280 0.47220
 C309 C 0.72109 0.88690 0.54884
 H310 H 0.72013 0.86596 0.54748
 C311 C 0.71141 0.89921 0.57100
 H312 H 0.70291 0.88776 0.58677
 C313 C 0.73335 0.92739 0.52987
 H314 H 0.74180 0.93824 0.51372
 C315 C 0.72384 0.94054 0.55180
 H316 H 0.72504 0.96152 0.55256
 Zn317 Zn 0.74483 0.88134 0.50059
 N318 N 0.73207 0.90099 0.52899
 C319 C 0.78285 0.86321 0.53580
 N320 N 0.77409 0.86107 0.51112
 C321 C 0.78710 0.84616 0.49334
 C322 C 0.80983 0.83250 0.50025
 C323 C 0.80537 0.84990 0.54347
 C324 C 0.69444 0.87291 0.48509
 C325 C 0.67301 0.85919 0.47701
 C326 C 0.69856 0.81936 0.48051
 C327 C 0.71960 0.83387 0.48859
 N328 N 0.71725 0.86021 0.49032
 H329 H 0.77278 0.87568 0.54947
 H330 H 0.78004 0.84523 0.47370
 H331 H 0.82025 0.82087 0.48597
 H332 H 0.81230 0.85195 0.56309
 H333 H 0.69306 0.89382 0.48693
 H334 H 0.65506 0.86954 0.47248
 H335 H 0.70061 0.79845 0.47876
 H336 H 0.73775 0.82412 0.49329
 C337 C 0.71291 0.92623 0.57258
 C338 C 0.77568 0.92979 0.42942
 C339 C 0.67513 0.83221 0.47452
 C340 C 0.81905 0.83452 0.52555
 C341 C -0.02484 0.27649 0.41834
 H342 H -0.00606 0.28552 0.41937
 C343 C -0.04618 0.28685 0.43219
 H344 H -0.04383 0.30380 0.44405
 C345 C -0.05134 0.24431 0.40049
 H346 H -0.05355 0.22827 0.38751
 C347 C -0.07312 0.25401 0.41400
 H348 H -0.09188 0.24522 0.41157
 N349 N -0.02780 0.25567 0.40277
 C350 C 0.04885 0.22107 0.38687
 H351 H 0.04749 0.22012 0.36593
 C352 C 0.07101 0.21139 0.39918
 H353 H 0.08679 0.20290 0.38773
 C354 C 0.02987 0.23332 0.42736
 H355 H 0.01372 0.24176 0.43820
 C356 C 0.05180 0.22382 0.44051
 H357 H 0.05256 0.22502 0.46149
 Zn358 Zn 0.00059 0.24479 0.38131
 N359 N 0.02900 0.23204 0.40096
 C360 C 0.03579 0.28282 0.36317
 N361 N 0.01111 0.27405 0.36104
 C362 C -0.00667 0.28705 0.34612
 C363 C 0.00023 0.30978 0.33246
 C364 C 0.04345 0.30535 0.34986
 C365 C -0.01489 0.19440 0.37288
 C366 C -0.02297 0.17296 0.35915
 C367 C -0.01946 0.19852 0.31932
 C368 C -0.01139 0.21956 0.33384
 N369 N -0.00967 0.21721 0.36018
 H370 H 0.04946 0.27276 0.37566
 H371 H -0.02631 0.27998 0.34520
 H372 H -0.01406 0.32019 0.32083
 H373 H 0.06307 0.31229 0.35192
 H374 H -0.01306 0.19303 0.39379
 H375 H -0.02749 0.15501 0.36951
 H376 H -0.02121 0.20056 0.29842
 H377 H -0.00669 0.23771 0.32409
 C378 C 0.07259 0.21289 0.42620
 C379 C -0.07059 0.27563 0.42976
 C380 C -0.02545 0.17508 0.33218
 C381 C 0.02552 0.31902 0.33448
 C382 C 1.02320 0.78163 0.08573
 H383 H 1.00436 0.79119 0.08403
 C384 C 1.04480 0.79169 0.07232
 H385 H 1.04261 0.80897 0.06011
 C386 C 1.04949 0.74829 0.10481
 H387 H 1.05150 0.73189 0.11809
 C388 C 1.07153 0.75768 0.09175
 H389 H 1.09030 0.74829 0.09483
 N390 N 1.02592 0.76036 0.10169
 C391 C 0.94895 0.72804 0.11554
 H392 H 0.94930 0.72708 0.13657
 C393 C 0.92769 0.71856 0.10251
 H394 H 0.91158 0.71028 0.11351
 C395 C 0.96976 0.73962 0.07550
 H396 H 0.98637 0.74756 0.06512
 C397 C 0.94880 0.73029 0.06164
 H398 H 0.94920 0.73115 0.04057
 Zn399 Zn 0.99703 0.74973 0.12242
 N400 N 0.96933 0.73848 0.10199
 C401 C 0.96136 0.78845 0.13980
 N402 N 0.98595 0.77859 0.14241
 C403 C 1.00341 0.79019 0.15782
 C404 C 0.99625 0.81252 0.17157
 C405 C 0.95343 0.81065 0.15318
 C406 C 1.01262 0.69858 0.13129
 C407 C 1.02043 0.67636 0.14523
 C408 C 1.01547 0.70047 0.18500
 C409 C 1.00770 0.72233 0.17026
 N410 N 1.00683 0.72106 0.14386
 H411 H 0.94797 0.77948 0.12693
 H412 H 1.02300 0.78228 0.15913
 H413 H 1.01028 0.82178 0.18365
 H414 H 0.93387 0.81846 0.15080
 H415 H 1.01146 0.69807 0.11032
 H416 H 1.02541 0.65867 0.13499
 H417 H 1.01655 0.70164 0.20596
 H418 H 1.00255 0.74023 0.17990
 C419 C 0.92758 0.71969 0.07534
 C420 C 1.06923 0.77972 0.07558
 C421 C 1.02204 0.67736 0.17229
 C422 C 0.97102 0.82284 0.16913
 C423 C 0.52318 0.28167 0.58573
 H424 H 0.50434 0.29124 0.58403
 C425 C 0.54478 0.29173 0.57231
 H426 H 0.54259 0.30901 0.56011
 C427 C 0.54947 0.24833 0.60481
 H428 H 0.55147 0.23193 0.61808
 C429 C 0.57151 0.25771 0.59174
 H430 H 0.59027 0.24832 0.59482
 N431 N 0.52590 0.26041 0.60169
 C432 C 0.44893 0.22809 0.61555
 H433 H 0.44929 0.22713 0.63658
 C434 C 0.42767 0.21863 0.60252
 H435 H 0.41156 0.21034 0.61352
 C436 C 0.46974 0.23968 0.57551
 H437 H 0.48634 0.24762 0.56513
 C438 C 0.44876 0.23036 0.56165
 H439 H 0.44916 0.23123 0.54058
 Zn440 Zn 0.49701 0.24977 0.62242
 N441 N 0.46930 0.23853 0.60200
 C442 C 0.46135 0.28850 0.63981
 N443 N 0.48594 0.27864 0.64242
 C444 C 0.50340 0.29024 0.65783
 C445 C 0.49625 0.31257 0.67157
 C446 C 0.45342 0.31070 0.65320
 C447 C 0.51260 0.19862 0.63130
 C448 C 0.52040 0.17641 0.64524
 C449 C 0.51545 0.20052 0.68500
 C450 C 0.50768 0.22237 0.67027
 N451 N 0.50681 0.22111 0.64387
 H452 H 0.44795 0.27953 0.62695
 H453 H 0.52299 0.28233 0.65913
 H454 H 0.51028 0.32183 0.68365
 H455 H 0.43387 0.31851 0.65082
 H456 H 0.51144 0.19812 0.61032
 H457 H 0.52539 0.15872 0.63499
 H458 H 0.51653 0.20169 0.70597
 H459 H 0.50253 0.24028 0.67991
 C460 C 0.42755 0.21977 0.57535
 C461 C 0.56920 0.27975 0.57557
 C462 C 0.52202 0.17740 0.67229
 C463 C 0.47102 0.32289 0.66914
 C464 C 0.47519 0.77652 0.91836
 H465 H 0.49398 0.78554 0.91938
 C466 C 0.45385 0.78687 0.93221
 H467 H 0.45621 0.80382 0.94408
 C468 C 0.44869 0.74434 0.90051
 H469 H 0.44647 0.72830 0.88753
 C470 C 0.42692 0.75403 0.91403
 H471 H 0.40815 0.74524 0.91160
 N472 N 0.47223 0.75570 0.90279
 C473 C 0.54887 0.72110 0.88686
 H474 H 0.54751 0.72015 0.86592
 C475 C 0.57103 0.71142 0.89917
 H476 H 0.58681 0.70293 0.88771
 C477 C 0.52991 0.73334 0.92736
 H478 H 0.51375 0.74179 0.93821
 C479 C 0.55184 0.72384 0.94050
 H480 H 0.55260 0.72503 0.96148
 Zn481 Zn 0.50061 0.74483 0.88131
 N482 N 0.52902 0.73207 0.90096
 C483 C 0.53580 0.78285 0.86317
 N484 N 0.51113 0.77409 0.86105
 C485 C 0.49334 0.78710 0.84614
 C486 C 0.50023 0.80983 0.83249
 C487 C 0.54347 0.80538 0.84987
 C488 C 0.48513 0.69443 0.87288
 C489 C 0.47705 0.67300 0.85916
 C490 C 0.48054 0.69856 0.81933
 C491 C 0.48862 0.71960 0.83385
 N492 N 0.49035 0.71725 0.86019
 H493 H 0.54948 0.77279 0.87564
 H494 H 0.47370 0.78003 0.84523
 H495 H 0.48594 0.82025 0.82087
 H496 H 0.56308 0.81232 0.85191
 H497 H 0.48697 0.69306 0.89379
 H498 H 0.47253 0.65505 0.86951
 H499 H 0.47878 0.70061 0.79843
 H500 H 0.49330 0.73776 0.82410
 C501 C 0.57262 0.71292 0.92619
 C502 C 0.42945 0.77565 0.92980
 C503 C 0.47456 0.67512 0.83218
 C504 C 0.52553 0.81906 0.83450
 C505 C 0.46216 -0.14092 0.33931
 C506 C 0.45001 -0.16800 0.33645
 C507 C 0.47743 -0.17992 0.33278
 C508 C 0.48973 -0.15316 0.33584
 C509 C 0.46087 -0.13678 0.30969
 C510 C 0.48831 -0.14866 0.30599
 C511 C 0.44858 -0.16355 0.30664
 C512 C 0.47616 -0.17583 0.30316
 C513 C 0.48620 -0.20370 0.34641
 C514 C 0.49306 -0.22283 0.35852
 C515 C 0.45089 -0.11282 0.29724
 C516 C 0.44180 -0.09335 0.28731
 H517 H 0.45632 -0.12632 0.35405
 H518 H 0.43434 -0.17622 0.34908
 H519 H 0.50677 -0.14917 0.34800
 H520 H 0.50396 -0.14041 0.29334
 H521 H 0.43154 -0.16756 0.29450
 H522 H 0.48200 -0.19046 0.28845
 C523 C 0.96149 0.35876 0.83927
 C524 C 0.94978 0.33155 0.83587
 C525 C 0.97742 0.32000 0.83276
 C526 C 0.98928 0.34689 0.83635
 C527 C 0.96086 0.36314 0.80964
 C528 C 0.98852 0.35163 0.80650
 C529 C 0.94901 0.33624 0.80606
 C530 C 0.97681 0.32433 0.80313
 C531 C 0.98618 0.29623 0.84640
 C532 C 0.99305 0.27710 0.85851
 C533 C 0.95089 0.38709 0.79719
 C534 C 0.94180 0.40656 0.78725
 H535 H 0.95512 0.37316 0.85401
 H536 H 0.93393 0.32303 0.84806
 H537 H 1.00595 0.35099 0.84896
 H538 H 1.00434 0.36018 0.79430
 H539 H 0.93233 0.33213 0.79347
 H540 H 0.98319 0.30990 0.78843
 C541 C 0.05589 1.14608 0.83795
 C542 C 0.05725 1.17360 0.82533
 C543 C 0.02909 1.17898 0.83451
 C544 C 0.02761 1.15178 0.84731
 C545 C 0.04538 1.13575 0.81241
 C546 C 0.01721 1.14110 0.82159
 C547 C 0.04688 1.16295 0.79959
 C548 C 0.01854 1.16870 0.80898
 C549 C 0.02035 1.20276 0.84758
 C550 C 0.01335 1.22185 0.85922
 C551 C 0.05514 1.11171 0.80051
 C552 C 0.06398 1.09213 0.79098
 H553 H 0.07132 1.13651 0.84976
 H554 H 0.07361 1.18722 0.82698
 H555 H 0.01959 1.14745 0.86709
 H556 H 0.00087 1.12747 0.81995
 H557 H 0.05490 1.16726 0.77981
 H558 H 0.00310 1.17831 0.79720
 C559 C 0.54537 0.64043 0.34181
 C560 C 0.55684 0.66767 0.33647
 C561 C 0.52909 0.67905 0.33448
 C562 C 0.51747 0.65213 0.34000
 C563 C 0.54538 0.63582 0.31237
 C564 C 0.51761 0.64716 0.31035
 C565 C 0.55700 0.66274 0.30685
 C566 C 0.52908 0.67449 0.30504
 C567 C 0.52036 0.70283 0.34755
 C568 C 0.51336 0.72191 0.35920
 C569 C 0.55513 0.61178 0.30046
 C570 C 0.56397 0.59220 0.29092
 H571 H 0.55214 0.62618 0.35681
 H572 H 0.57289 0.67637 0.34732
 H573 H 0.50111 0.64805 0.35378
 H574 H 0.50159 0.63844 0.29950
 H575 H 0.57337 0.66684 0.29308
 H576 H 0.52231 0.68878 0.29007
 C577 C 0.51261 0.35656 0.18770
 C578 C 0.51530 0.35132 0.15816
 C579 C 0.52396 0.32318 0.16452
 C580 C 0.52111 0.32800 0.19385
 C581 C 0.54130 0.36440 0.18776
 C582 C 0.54996 0.33626 0.19412
 C583 C 0.54411 0.35951 0.15844
 C584 C 0.55262 0.33108 0.16462
 C585 C 0.51505 0.30043 0.15072
 C586 C 0.50831 0.28208 0.13845
 C587 C 0.55200 0.38728 0.19997
 C588 C 0.56199 0.40587 0.20932
 H589 H 0.49628 0.36731 0.19733
 H590 H 0.50095 0.35725 0.14321
 H591 H 0.51156 0.31476 0.20825
 H592 H 0.56432 0.33031 0.20906
 H593 H 0.55366 0.37270 0.14399
 H594 H 0.56899 0.32037 0.15501
 C595 C 0.05369 0.83694 0.69001
 C596 C 0.02621 0.82552 0.69418
 C597 C 0.02398 0.82311 0.66457
 C598 C 0.05130 0.83419 0.66024
 C599 C 0.04132 0.86433 0.68782
 C600 C 0.03908 0.86186 0.65821
 C601 C 0.01399 0.85331 0.69221
 C602 C 0.01160 0.85049 0.66236
 C603 C 0.01507 0.80037 0.65076
 C604 C 0.00833 0.78203 0.63848
 C605 C 0.05203 0.88720 0.70004
 C606 C 0.06202 0.90578 0.70939
 H607 H 0.07112 0.83162 0.70151
 H608 H 0.02083 0.81030 0.70880
 H609 H 0.06656 0.82609 0.64697
 H610 H 0.04445 0.87704 0.64354
 H611 H -0.00124 0.86145 0.70549
 H612 H -0.00582 0.85579 0.65083
 C613 C 0.95587 0.64693 0.65413
 C614 C 0.94601 0.67441 0.66175
 C615 C 0.97429 0.68350 0.66184
 C616 C 0.98429 0.65633 0.65405
 C617 C 0.95813 0.63963 0.68313
 C618 C 0.98644 0.64867 0.68325
 C619 C 0.94813 0.66680 0.69092
 C620 C 0.97659 0.67627 0.69084
 C621 C 0.98277 0.70769 0.64908
 C622 C 0.98940 0.72715 0.63757
 C623 C 0.94817 0.61529 0.69435
 C624 C 0.93884 0.59555 0.70303
 H625 H 0.94728 0.63460 0.63914
 H626 H 0.92947 0.68524 0.65280
 H627 H 0.99927 0.65231 0.63873
 H628 H 1.00295 0.63779 0.69220
 H629 H 0.93314 0.67083 0.70622
 H630 H 0.98518 0.68864 0.70579
 C631 C 0.46104 0.14480 0.15374
 C632 C 0.44758 0.17172 0.15715
 C633 C 0.47425 0.18357 0.16187
 C634 C 0.48786 0.15697 0.15828
 C635 C 0.45808 0.13970 0.18317
 C636 C 0.48477 0.15150 0.18794
 C637 C 0.44449 0.16631 0.18675
 C638 C 0.47131 0.17854 0.19132
 C639 C 0.48273 0.20775 0.14910
 C640 C 0.48937 0.22720 0.13758
 C641 C 0.44812 0.11537 0.19440
 C642 C 0.43880 0.09563 0.20310
 H643 H 0.45674 0.13068 0.13840
 H644 H 0.43236 0.18029 0.14439
 H645 H 0.50580 0.15341 0.14643
 H646 H 0.49996 0.14288 0.20071
 H647 H 0.42653 0.16989 0.19859
 H648 H 0.47561 0.19270 0.20662
 C649 C 0.33929 0.46297 -0.14065
 C650 C 0.33711 0.45030 -0.16757
 C651 C 0.33280 0.47744 -0.17996
 C652 C 0.33517 0.49026 -0.15336
 C653 C 0.30969 0.46088 -0.13681
 C654 C 0.30534 0.48803 -0.14915
 C655 C 0.30733 0.44807 -0.16342
 C656 C 0.30320 0.47536 -0.17616
 C657 C 0.34643 0.48620 -0.20373
 C658 C 0.35855 0.49306 -0.22286
 C659 C 0.29725 0.45090 -0.11286
 C660 C 0.28730 0.44180 -0.09340
 H661 H 0.35401 0.45780 -0.12581
 H662 H 0.35029 0.43487 -0.17541
 H663 H 0.34677 0.50772 -0.14950
 H664 H 0.29216 0.50344 -0.14129
 H665 H 0.29575 0.43060 -0.16730
 H666 H 0.28852 0.48054 -0.19104
 C667 C 0.83926 0.96384 0.35967
 C668 C 0.83785 0.95062 0.33295
 C669 C 0.83282 0.97739 0.32005
 C670 C 0.83443 0.99077 0.34644
 C671 C 0.80972 0.96085 0.36320
 C672 C 0.80466 0.98764 0.35034
 C673 C 0.80813 0.94748 0.33680
 C674 C 0.80328 0.97441 0.32353
 C675 C 0.84645 0.98615 0.29627
 C676 C 0.85856 0.99301 0.27714
 C677 C 0.79727 0.95087 0.38716
 C678 C 0.78733 0.94179 0.40662
 H679 H 0.85392 0.95942 0.37477
 H680 H 0.85161 0.93547 0.32555
 H681 H 0.84539 1.00869 0.35013
 H682 H 0.79089 1.00276 0.35778
 H683 H 0.79718 0.92956 0.33309
 H684 H 0.78865 0.97884 0.30840
 C685 C 0.80961 0.05906 1.16203
 C686 C 0.80501 0.03234 1.17566
 C687 C 0.83452 0.02904 1.17903
 C688 C 0.83929 0.05560 1.16577
 C689 C 0.81240 0.04533 1.13580
 C690 C 0.84191 0.04201 1.13922
 C691 C 0.80759 0.01875 1.14902
 C692 C 0.83732 0.01530 1.15280
 C693 C 0.84759 0.02030 1.20280
 C694 C 0.85924 0.01331 1.22188
 C695 C 0.80049 0.05508 1.11176
 C696 C 0.79096 0.06392 1.09218
 H697 H 0.79809 0.07717 1.16556
 H698 H 0.78999 0.02829 1.19091
 H699 H 0.85244 0.07067 1.17292
 H700 H 0.85696 0.04606 1.12399
 H701 H 0.79445 0.00370 1.14183
 H702 H 0.84886 -0.00280 1.14928
 C703 C 0.30888 0.55857 0.66223
 C704 C 0.30499 0.53150 0.67535
 C705 C 0.33453 0.52908 0.67902
 C706 C 0.33859 0.55600 0.66626
 C707 C 0.31242 0.54537 0.63579
 C708 C 0.34195 0.54294 0.63951
 C709 C 0.30833 0.51843 0.64850
 C710 C 0.33808 0.51587 0.65258
 C711 C 0.34759 0.52035 0.70280
 C712 C 0.35924 0.51336 0.72188
 C713 C 0.30051 0.55512 0.61175
 C714 C 0.29098 0.56395 0.59216
 H715 H 0.29673 0.57625 0.66592
 H716 H 0.28995 0.52671 0.69036
 H717 H 0.35114 0.57137 0.67383
 H718 H 0.35703 0.54772 0.62452
 H719 H 0.29578 0.50309 0.64091
 H720 H 0.35024 0.49820 0.64890
 C721 C 0.20110 0.53783 0.33759
 C722 C 0.18844 0.51078 0.33570
 C723 C 0.16458 0.52395 0.32316
 C724 C 0.17702 0.55079 0.32468
 C725 C 0.18783 0.54127 0.36437
 C726 C 0.16397 0.55437 0.35177
 C727 C 0.17540 0.51442 0.36289
 C728 C 0.15135 0.52741 0.34995
 C729 C 0.15076 0.51503 0.30042
 C730 C 0.13848 0.50829 0.28208
 C731 C 0.20005 0.55198 0.38725
 C732 C 0.20940 0.56197 0.40583
 H733 H 0.22172 0.54221 0.33278
 H734 H 0.19835 0.49275 0.32879
 H735 H 0.17754 0.56565 0.30874
 H736 H 0.15400 0.57240 0.35861
 H737 H 0.17487 0.49959 0.37885
 H738 H 0.13073 0.52305 0.35479
 C739 C 0.69179 0.01380 0.85366
 C740 C 0.66192 0.01190 0.85063
 C741 C 0.66455 0.02398 0.82316
 C742 C 0.69418 0.02572 0.82577
 C743 C 0.68778 0.04131 0.86439
 C744 C 0.69039 0.05337 0.83690
 C745 C 0.65816 0.03954 0.86171
 C746 C 0.66059 0.05146 0.83394
 C747 C 0.65074 0.01506 0.80041
 C748 C 0.63847 0.00834 0.78207
 C749 C 0.69999 0.05201 0.88727
 C750 C 0.70935 0.06200 0.90585
 H751 H 0.70475 -0.00156 0.86205
 H752 H 0.65006 -0.00527 0.85601
 H753 H 0.70882 0.01995 0.81072
 H754 H 0.70223 0.07055 0.83150
 H755 H 0.64346 0.04531 0.87672
 H756 H 0.64765 0.06687 0.82560
 C757 C 0.68767 0.98493 0.65130
 C758 C 0.65800 0.98771 0.65689
 C759 C 0.66185 0.97428 0.68354
 C760 C 0.69130 0.97165 0.67839
 C761 C 0.68314 0.95812 0.63967
 C762 C 0.68698 0.94470 0.66633
 C763 C 0.65370 0.96077 0.64488
 C764 C 0.65737 0.94750 0.67185
 C765 C 0.64909 0.98276 0.70772
 C766 C 0.63757 0.98940 0.72718
 C767 C 0.69437 0.94816 0.61533
 C768 C 0.70307 0.93883 0.59560
 H769 H 0.70023 1.00022 0.64256
 H770 H 0.64594 1.00551 0.65330
 H771 H 0.70661 0.97620 0.69246
 H772 H 0.69903 0.92690 0.66994
 H773 H 0.63835 0.95623 0.63085
 H774 H 0.64482 0.93218 0.68055
 C775 C 0.18825 0.44560 0.16654
 C776 C 0.19130 0.47311 0.17781
 C777 C 0.16187 0.47425 0.18355
 C778 C 0.15866 0.44690 0.17265
 C779 C 0.18316 0.45809 0.13967
 C780 C 0.15374 0.45924 0.14547
 C781 C 0.18641 0.48545 0.15051
 C782 C 0.15678 0.48674 0.15668
 C783 C 0.14911 0.48272 0.20773
 C784 C 0.13759 0.48936 0.22719
 C785 C 0.19439 0.44813 0.11533
 C786 C 0.20308 0.43881 0.09559
 H787 H 0.20132 0.42858 0.17033
 H788 H 0.20659 0.47889 0.19141
 H789 H 0.14715 0.43113 0.18201
 H790 H 0.13841 0.45347 0.13192
 H791 H 0.19793 0.50120 0.14111
 H792 H 0.14369 0.50376 0.15291
 C793 C -0.16395 0.30482 0.45005
 C794 C -0.17500 0.30321 0.47829
 C795 C -0.17996 0.33277 0.47737
 C796 C -0.16928 0.33456 0.44929
 C797 C -0.13681 0.30966 0.46082
 C798 C -0.14182 0.33921 0.45992
 C799 C -0.14745 0.30784 0.48891
 C800 C -0.15282 0.33761 0.48814
 C801 C -0.20373 0.34640 0.48613
 C802 C -0.22286 0.35852 0.49299
 C803 C -0.11285 0.29721 0.45085
 C804 C -0.09338 0.28727 0.44176
 H805 H -0.16826 0.29119 0.43427
 H806 H -0.18892 0.28856 0.48593
 H807 H -0.17851 0.34567 0.43308
 H808 H -0.12793 0.35390 0.45229
 H809 H -0.13819 0.29673 0.50510
 H810 H -0.14852 0.35125 0.50391
 C811 C 0.35195 0.80685 0.98866
 C812 C 0.34705 0.83669 0.98904
 C813 C 0.32009 0.83277 0.97745
 C814 C 0.32458 0.80315 0.97722
 C815 C 0.36323 0.80967 0.96088
 C816 C 0.33627 0.80576 0.94930
 C817 C 0.35869 0.83928 0.96113
 C818 C 0.33142 0.83556 0.94969
 C819 C 0.29631 0.84640 0.98621
 C820 C 0.27719 0.85851 0.99308
 C821 C 0.38719 0.79723 0.95090
 C822 C 0.40665 0.78729 0.94180
 H823 H 0.36069 0.79492 1.00458
 H824 H 0.35120 0.84956 1.00549
 H825 H 0.31028 0.78845 0.98391
 H826 H 0.33210 0.79291 0.93284
 H827 H 0.37297 0.85402 0.95444
 H828 H 0.32271 0.84749 0.93374
 C829 C 1.16289 0.80614 0.05634
 C830 C 1.17414 0.80513 0.02818
 C831 C 1.17906 0.83448 0.02909
 C832 C 1.16818 0.83566 0.05709
 C833 C 1.13583 0.81237 0.04537
 C834 C 1.14080 0.84171 0.04625
 C835 C 1.14667 0.81116 0.01735
 C836 C 1.15200 0.84071 0.01811
 C837 C 1.20284 0.84754 0.02036
 C838 C 1.22192 0.85919 0.01337
 C839 C 1.11179 0.80046 0.05511
 C840 C 1.09220 0.79092 0.06394
 H841 H 1.16710 0.79178 0.07218
 H842 H 1.18813 0.79024 0.02067
 H843 H 1.17729 0.84584 0.07334
 H844 H 1.12685 0.85663 0.05375
 H845 H 1.13754 0.80097 0.00112
 H846 H 1.14780 0.85507 0.00228
 C847 C 0.63703 0.33487 0.52526
 C848 C 0.65633 0.34882 0.54281
 C849 C 0.67903 0.33450 0.52903
 C850 C 0.66010 0.32073 0.51132
 C851 C 0.63580 0.31239 0.54533
 C852 C 0.65848 0.29802 0.53156
 C853 C 0.65476 0.32618 0.56300
 C854 C 0.67780 0.31203 0.54910
 C855 C 0.70280 0.34757 0.52029
 C856 C 0.72188 0.35922 0.51329
 C857 C 0.61176 0.30048 0.55508
 C858 C 0.59218 0.29095 0.56392
 H859 H 0.62002 0.34414 0.51556
 H860 H 0.65570 0.36985 0.54737
 H861 H 0.66259 0.31861 0.48996
 H862 H 0.65907 0.27700 0.52701
 H863 H 0.65230 0.32832 0.58436
 H864 H 0.69482 0.30278 0.55880
 C865 C 0.34909 0.16693 0.55654
 C866 C 0.32338 0.18084 0.54872
 C867 C 0.32314 0.16456 0.52398
 C868 C 0.34856 0.15048 0.53169
 C869 C 0.36437 0.18782 0.54128
 C870 C 0.36416 0.17153 0.51655
 C871 C 0.33897 0.20194 0.53360
 C872 C 0.33836 0.18543 0.50866
 C873 C 0.30040 0.15074 0.51508
 C874 C 0.28206 0.13846 0.50836
 C875 C 0.38725 0.20003 0.55198
 C876 C 0.40583 0.20938 0.56197
 H877 H 0.35374 0.15942 0.57633
 H878 H 0.30637 0.18451 0.56185
 H879 H 0.35226 0.12917 0.53083
 H880 H 0.38118 0.16785 0.50343
 H881 H 0.33531 0.22326 0.53448
 H882 H 0.33366 0.19289 0.48887
 C883 C 0.86153 0.65811 0.03997
 C884 C 0.83366 0.66096 0.05156
 C885 C 0.82319 0.66451 0.02391
 C886 C 0.85077 0.66147 0.01216
 C887 C 0.86441 0.68774 0.04125
 C888 C 0.85401 0.69135 0.01357
 C889 C 0.83683 0.69076 0.05299
 C890 C 0.82601 0.69415 0.02516
 C891 C 0.80045 0.65070 0.01499
 C892 C 0.78210 0.63843 0.00825
 C893 C 0.88729 0.69996 0.05196
 C894 C 0.90587 0.70931 0.06195
 H895 H 0.87637 0.64341 0.04614
 H896 H 0.82506 0.64834 0.06710
 H897 H 0.85623 0.64927 -0.00474
 H898 H 0.86265 0.70397 -0.00193
 H899 H 0.83134 0.70295 0.06990
 H900 H 0.81113 0.70881 0.01898
 C901 C 0.64316 0.65439 0.96616
 C902 C 0.66893 0.65324 0.95016
 C903 C 0.68358 0.66184 0.97422
 C904 C 0.65813 0.66282 0.99037
 C905 C 0.63971 0.68314 0.95806
 C906 C 0.65430 0.69180 0.98213
 C907 C 0.66517 0.68214 0.94193
 C908 C 0.68018 0.69060 0.96613
 C909 C 0.70776 0.64907 0.98269
 C910 C 0.72722 0.63755 0.98932
 C911 C 0.61537 0.69437 0.94811
 C912 C 0.59564 0.70307 0.93879
 H913 H 0.62769 0.63962 0.96610
 H914 H 0.67521 0.63728 0.93708
 H915 H 0.65553 0.65473 1.01041
 H916 H 0.64798 0.70777 0.99518
 H917 H 0.66780 0.69021 0.92189
 H918 H 0.69569 0.70533 0.96619
 C919 C 0.16614 0.18600 0.44404
 C920 C 0.17880 0.19125 0.47051
 C921 C 0.18354 0.16184 0.47429
 C922 C 0.17124 0.15644 0.44798
 C923 C 0.13967 0.18314 0.45811
 C924 C 0.14447 0.15374 0.46191
 C925 C 0.15191 0.18859 0.48444
 C926 C 0.15708 0.15897 0.48837
 C927 C 0.20772 0.14908 0.48278
 C928 C 0.22717 0.13757 0.48942
 C929 C 0.11534 0.19436 0.44814
 C930 C 0.09560 0.20305 0.43881
 H931 H 0.16959 0.19724 0.42569
 H932 H 0.19321 0.20652 0.47413
 H933 H 0.17945 0.14312 0.43306
 H934 H 0.13010 0.13843 0.45830
 H935 H 0.14365 0.20192 0.49933
 H936 H 0.15364 0.14771 0.50672
 C937 C 0.58036 0.10518 0.70672
 C938 C 0.58037 0.09725 0.73591
 C939 C 0.57316 0.06950 0.72857
 C940 C 0.57333 0.07714 0.69954
 C941 C 0.55122 0.11206 0.70922
 C942 C 0.54402 0.08430 0.70188
 C943 C 0.55101 0.10449 0.73827
 C944 C 0.54401 0.07630 0.73111
 C945 C 0.58639 0.04598 0.73845
 C946 C 0.59833 0.02693 0.74575
 C947 C 0.53987 0.13567 0.69739
 C948 C 0.53133 0.15488 0.68655
 H949 H 0.59520 0.11730 0.69659
 H950 H 0.59547 0.10230 0.75002
 H951 H 0.58263 0.06565 0.68371
 H952 H 0.52893 0.07925 0.68775
 H953 H 0.54170 0.11603 0.75405
 H954 H 0.52923 0.06412 0.74126
 C955 C 1.04799 0.58466 0.19831
 C956 C 1.07766 0.57982 0.20066
 C957 C 1.07318 0.56945 0.22857
 C958 C 1.04367 0.57393 0.22641
 C959 C 1.05124 0.61201 0.20921
 C960 C 1.04671 0.60171 0.23715
 C961 C 1.08074 0.60746 0.21141
 C962 C 1.07644 0.59679 0.23949
 C963 C 1.08640 0.54593 0.23845
 C964 C 1.09835 0.52688 0.24576
 C965 C 1.03989 0.63562 0.19739
 C966 C 1.03135 0.65483 0.18654
 H967 H 1.03617 0.57994 0.18124
 H968 H 1.09050 0.57058 0.18575
 H969 H 1.02858 0.55985 0.23269
 H970 H 1.03385 0.61101 0.25201
 H971 H 1.09588 0.62149 0.20513
 H972 H 1.08829 0.60149 0.25655
 C973 C 0.95263 0.90245 0.22898
 C974 C 0.95249 0.92951 0.21504
 C975 C 0.92349 0.93284 0.22222
 C976 C 0.92342 0.90623 0.23633
 C977 C 0.94474 0.89005 0.20341
 C978 C 0.91576 0.89347 0.21061
 C979 C 0.94481 0.91667 0.18931
 C980 C 0.91567 0.92038 0.19667
 C981 C 0.91049 0.95637 0.23201
 C982 C 0.89861 0.97532 0.23942
 C983 C 0.95545 0.86608 0.19216
 C984 C 0.96313 0.84633 0.18209
 H985 H 0.96796 0.89478 0.24213
 H986 H 0.96744 0.94461 0.21699
 H987 H 0.91448 0.90221 0.25578
 H988 H 0.90075 0.87841 0.20868
 H989 H 0.95373 0.92071 0.16985
 H990 H 0.90035 0.92799 0.18347
 C991 C 0.44874 0.41749 0.69172
 C992 C 0.41914 0.42296 0.69469
 C993 C 0.42348 0.43289 0.72223
 C994 C 0.45294 0.42779 0.71946
 C995 C 0.44474 0.39010 0.70342
 C996 C 0.44914 0.39996 0.73099
 C997 C 0.41530 0.39528 0.70623
 C998 C 0.41948 0.40550 0.73393
 C999 C 0.41048 0.45642 0.73202
 C1000 C 0.39860 0.47537 0.73942
 C1001 C 0.45545 0.36614 0.69217
 C1002 C 0.46313 0.34639 0.68210
 H1003 H 0.46090 0.42215 0.67424
 H1004 H 0.40668 0.43266 0.67985
 H1005 H 0.46826 0.44146 0.72502
 H1006 H 0.46160 0.39022 0.74578
 H1007 H 0.39992 0.38168 0.70069
 H1008 H 0.40731 0.40084 0.75140
 C1009 C 0.44762 0.58439 0.80722
 C1010 C 0.41800 0.58104 0.80415
 C1011 C 0.42311 0.57102 0.77652
 C1012 C 0.45258 0.57402 0.77942
 C1013 C 0.44497 0.61212 0.79577
 C1014 C 0.45013 0.60216 0.76813
 C1015 C 0.41551 0.60904 0.79285
 C1016 C 0.42044 0.59873 0.76505
 C1017 C 0.41000 0.54829 0.76664
 C1018 C 0.39821 0.52989 0.75926
 C1019 C 0.45636 0.63491 0.80748
 C1020 C 0.46501 0.65343 0.81816
 H1021 H 0.45891 0.57874 0.82470
 H1022 H 0.40466 0.57211 0.81887
 H1023 H 0.46766 0.55935 0.77378
 H1024 H 0.46348 0.61114 0.75345
 H1025 H 0.40038 0.62368 0.79848
 H1026 H 0.40912 0.60436 0.74759
 C1027 C -0.08451 0.10782 0.29526
 C1028 C -0.08164 0.09904 0.26670
 C1029 C -0.07688 0.07097 0.27652
 C1030 C -0.07992 0.07947 0.30492
 C1031 C -0.05502 0.11207 0.29576
 C1032 C -0.05027 0.08399 0.30558
 C1033 C -0.05193 0.10363 0.26735
 C1034 C -0.04739 0.07514 0.27699
 C1035 C -0.08999 0.04824 0.26663
 C1036 C -0.10178 0.02984 0.25926
 C1037 C -0.04363 0.13486 0.30747
 C1038 C -0.03499 0.15338 0.31816
 H1039 H -0.09966 0.12150 0.30288
 H1040 H -0.09469 0.10496 0.25059
 H1041 H -0.09155 0.06929 0.32027
 H1042 H -0.03724 0.07806 0.32170
 H1043 H -0.04030 0.11385 0.25204
 H1044 H -0.03229 0.06142 0.26936
 C1045 C 0.03803 0.41372 0.29988
 C1046 C 0.06271 0.42607 0.31088
 C1047 C 0.07345 0.42970 0.28300
 C1048 C 0.04899 0.41776 0.27177
 C1049 C 0.05177 0.38693 0.30111
 C1050 C 0.06252 0.39055 0.27322
 C1051 C 0.07623 0.39895 0.31226
 C1052 C 0.08713 0.40288 0.28426
 C1053 C 0.08664 0.45309 0.27343
 C1054 C 0.09854 0.47184 0.26599
 C1055 C 0.04090 0.36286 0.31197
 C1056 C 0.03321 0.34289 0.32175
 H1057 H 0.01770 0.41788 0.30641
 H1058 H 0.06293 0.44092 0.32627
 H1059 H 0.03795 0.42580 0.25501
 H1060 H 0.06231 0.37568 0.25784
 H1061 H 0.08734 0.39097 0.32901
 H1062 H 0.10747 0.39867 0.27775
 C1063 C 0.55000 0.89687 0.77283
 C1064 C 0.54409 0.92471 0.78285
 C1065 C 0.57345 0.92974 0.78300
 C1066 C 0.57954 0.90235 0.77282
 C1067 C 0.55177 0.88699 0.80114
 C1068 C 0.58112 0.89212 0.80124
 C1069 C 0.54567 0.91437 0.81134
 C1070 C 0.57519 0.91980 0.81129
 C1071 C 0.58663 0.95313 0.77343
 C1072 C 0.59853 0.97189 0.76598
 C1073 C 0.54090 0.86291 0.81200
 C1074 C 0.53321 0.84294 0.82178
 H1075 H 0.53950 0.88717 0.75715
 H1076 H 0.52903 0.93841 0.77518
 H1077 H 0.59363 0.89766 0.75688
 H1078 H 0.59625 0.87847 0.80890
 H1079 H 0.53160 0.91905 0.82730
 H1080 H 0.58569 0.92946 0.82701
 C1081 C 0.71214 0.58069 0.10774
 C1082 C 0.73998 0.57581 0.09666
 C1083 C 0.72861 0.57315 0.06943
 C1084 C 0.70094 0.57821 0.08022
 C1085 C 0.70926 0.55123 0.11199
 C1086 C 0.69790 0.54858 0.08476
 C1087 C 0.73694 0.54611 0.10128
 C1088 C 0.72575 0.54367 0.07362
 C1089 C 0.73848 0.58637 0.04590
 C1090 C 0.74578 0.59831 0.02685
 C1091 C 0.69743 0.53988 0.13561
 C1092 C 0.68659 0.53134 0.15482
 H1093 H 0.70644 0.59580 0.12201
 H1094 H 0.75741 0.58715 0.10126
 H1095 H 0.68623 0.59153 0.07130
 H1096 H 0.68046 0.53726 0.08013
 H1097 H 0.75161 0.53278 0.11025
 H1098 H 0.73146 0.52862 0.05930
 C1099 C 0.19286 1.06317 0.59008
 C1100 C 0.21071 1.08704 0.58934
 C1101 C 0.22858 1.07313 0.56952
 C1102 C 0.21086 1.04940 0.56994
 C1103 C 0.20927 1.05118 0.61208
 C1104 C 0.22713 1.03719 0.59231
 C1105 C 0.22698 1.07491 0.61165
 C1106 C 0.24505 1.06117 0.59148
 C1107 C 0.23844 1.08637 0.54600
 C1108 C 0.24574 1.09832 0.52695
 C1109 C 0.19745 1.03982 0.63570
 C1110 C 0.18661 1.03127 0.65491
 H1111 H 0.17127 1.06389 0.58975
 H1112 H 0.20405 1.10767 0.58786
 H1113 H 0.20435 1.03907 0.55252
 H1114 H 0.23375 1.01655 0.59385
 H1115 H 0.23349 1.08527 0.62905
 H1116 H 0.26664 1.06049 0.59175
 C1117 C 0.19234 0.94947 0.91761
 C1118 C 0.19441 0.91987 0.92348
 C1119 C 0.22228 0.92344 0.93291
 C1120 C 0.22040 0.95289 0.92741
 C1121 C 0.20346 0.94470 0.89012
 C1122 C 0.23135 0.94832 0.89948
 C1123 C 0.20539 0.91527 0.89571
 C1124 C 0.23339 0.91868 0.90542
 C1125 C 0.23206 0.91044 0.95644
 C1126 C 0.23946 0.89856 0.97539
 C1127 C 0.19221 0.95540 0.86616
 C1128 C 0.18215 0.96308 0.84641
 H1129 H 0.17533 0.96226 0.92235
 H1130 H 0.17932 0.90804 0.93360
 H1131 H 0.22669 0.96820 0.94074
 H1132 H 0.24640 0.96015 0.88932
 H1133 H 0.19911 0.89990 0.88244
 H1134 H 0.25039 0.90588 0.90068
 C1135 C 0.69225 0.44940 0.41749
 C1136 C 0.69443 0.41980 0.42331
 C1137 C 0.72226 0.42347 0.43281
 C1138 C 0.72026 0.45292 0.42737
 C1139 C 0.70346 0.44474 0.39002
 C1140 C 0.73130 0.44846 0.39946
 C1141 C 0.70549 0.41530 0.39555
 C1142 C 0.73346 0.41881 0.40534
 C1143 C 0.73203 0.41046 0.45634
 C1144 C 0.73943 0.39858 0.47530
 C1145 C 0.69221 0.45545 0.36606
 C1146 C 0.68215 0.46313 0.34631
 H1147 H 0.67518 0.46211 0.42222
 H1148 H 0.67937 0.40789 0.43336
 H1149 H 0.72646 0.46823 0.44075
 H1150 H 0.74632 0.46037 0.38936
 H1151 H 0.69931 0.39993 0.38223
 H1152 H 0.75052 0.40609 0.40061
 C1153 C 0.76781 0.44927 0.60272
 C1154 C 0.77845 0.45259 0.57441
 C1155 C 0.77655 0.42308 0.57094
 C1156 C 0.76573 0.41954 0.59882
 C1157 C 0.79580 0.44493 0.61204
 C1158 C 0.79388 0.41543 0.60849
 C1159 C 0.80661 0.44846 0.58414
 C1160 C 0.80452 0.41880 0.58032
 C1161 C 0.76665 0.40997 0.54821
 C1162 C 0.75927 0.39819 0.52981
 C1163 C 0.80751 0.45632 0.63483
 C1164 C 0.81820 0.46496 0.65335
 H1165 H 0.75285 0.46193 0.61221
 H1166 H 0.77199 0.46771 0.56012
 H1167 H 0.74880 0.40750 0.60458
 H1168 H 0.80033 0.40026 0.62274
 H1169 H 0.82355 0.46048 0.57836
 H1170 H 0.81952 0.40615 0.57087
 C1171 C 0.26835 -0.04946 0.10184
 C1172 C 0.27997 -0.04749 0.07380
 C1173 C 0.27655 -0.07692 0.07104
 C1174 C 0.26475 -0.07912 0.09866
 C1175 C 0.29579 -0.05506 0.11213
 C1176 C 0.29235 -0.08448 0.10930
 C1177 C 0.30758 -0.05288 0.08450
 C1178 C 0.30398 -0.08246 0.08139
 C1179 C 0.26667 -0.09004 0.04831
 C1180 C 0.25930 -0.10182 0.02991
 C1181 C 0.30749 -0.04366 0.13493
 C1182 C 0.31818 -0.03500 0.15345
 H1183 H 0.25383 -0.03577 0.11054
 H1184 H 0.27477 -0.03245 0.05893
 H1185 H 0.24701 -0.09005 0.10420
 H1186 H 0.29755 -0.09957 0.12413
 H1187 H 0.32532 -0.04196 0.07893
 H1188 H 0.31854 -0.09615 0.07274
 C1189 C 0.27324 0.04866 0.39774
 C1190 C 0.28430 0.04397 0.42536
 C1191 C 0.28298 0.07344 0.42976
 C1192 C 0.27176 0.07833 0.40258
 C1193 C 0.30112 0.05177 0.38700
 C1194 C 0.29976 0.08123 0.39149
 C1195 C 0.31236 0.04687 0.41418
 C1196 C 0.31084 0.07650 0.41896
 C1197 C 0.27341 0.08662 0.45315
 C1198 C 0.26597 0.09852 0.47191
 C1199 C 0.31198 0.04090 0.36292
 C1200 C 0.32177 0.03321 0.34295
 H1201 H 0.25791 0.03708 0.38874
 H1202 H 0.27784 0.02881 0.43959
 H1203 H 0.25496 0.09143 0.39807
 H1204 H 0.30621 0.09645 0.37732
 H1205 H 0.32917 0.03379 0.41868
 H1206 H 0.32621 0.08808 0.42792
 C1207 C 0.80781 0.57920 0.89559
 C1208 C 0.77870 0.58438 0.90205
 C1209 C 0.78302 0.57340 0.92966
 C1210 C 0.81201 0.56839 0.92350
 C1211 C 0.80114 0.55171 0.88691
 C1212 C 0.80550 0.54070 0.91451
 C1213 C 0.77214 0.55672 0.89303
 C1214 C 0.77629 0.54591 0.92107
 C1215 C 0.77345 0.58659 0.95306
 C1216 C 0.76601 0.59849 0.97181
 C1217 C 0.81201 0.54084 0.86283
 C1218 C 0.82180 0.53315 0.84286
 H1219 H 0.82088 0.59280 0.88487
 H1220 H 0.76759 0.60249 0.89717
 H1221 H 0.82831 0.57332 0.93627
 H1222 H 0.81662 0.52259 0.91935
 H1223 H 0.75587 0.55179 0.88023
 H1224 H 0.76321 0.53238 0.93185
 C1225 C 0.10789 0.71229 0.58067
 C1226 C 0.09669 0.74006 0.57564
 C1227 C 0.06950 0.72856 0.57315
 C1228 C 0.08040 0.70097 0.57836
 C1229 C 0.11206 0.70922 0.55122
 C1230 C 0.08486 0.69774 0.54875
 C1231 C 0.10123 0.73683 0.54595
 C1232 C 0.07359 0.72552 0.54369
 C1233 C 0.04597 0.73843 0.58638
 C1234 C 0.02692 0.74573 0.59833
 C1235 C 0.13567 0.69740 0.53986
 C1236 C 0.15489 0.68656 0.53132
 H1237 H 0.12223 0.70675 0.59576
 H1238 H 0.10126 0.75759 0.58685
 H1239 H 0.07158 0.68631 0.59181
 H1240 H 0.08025 0.68020 0.53756
 H1241 H 0.11009 0.75144 0.53249
 H1242 H 0.05920 0.73107 0.52864
 C1243 C 0.58651 0.19444 1.05494
 C1244 C 0.58434 0.20428 1.08314
 C1245 C 0.56948 0.22857 1.07317
 C1246 C 0.57130 0.21889 1.04510
 C1247 C 0.61205 0.20923 1.05125
 C1248 C 0.59725 0.23353 1.04119
 C1249 C 0.61017 0.21892 1.07931
 C1250 C 0.59500 0.24340 1.06951
 C1251 C 0.54595 0.23844 1.08639
 C1252 C 0.52690 0.24575 1.09833
 C1253 C 0.63567 0.19741 1.03989
 C1254 C 0.65488 0.18657 1.03136
 H1255 H 0.58328 0.17418 1.04883
 H1256 H 0.57878 0.19234 1.10052
 H1257 H 0.55504 0.21899 1.03120
 H1258 H 0.60287 0.24542 1.02381
 H1259 H 0.62640 0.21883 1.09326
 H1260 H 0.59819 0.26366 1.07564
 C1261 C 0.89863 0.23175 0.94702
 C1262 C 0.92668 0.22184 0.95283
 C1263 C 0.93288 0.22222 0.92348
 C1264 C 0.90528 0.23230 0.91748
 C1265 C 0.89010 0.20342 0.94475
 C1266 C 0.89640 0.20385 0.91541
 C1267 C 0.91770 0.19332 0.95075
 C1268 C 0.92429 0.19391 0.92125
 C1269 C 0.95641 0.23201 0.91046
 C1270 C 0.97536 0.23940 0.89858
 C1271 C 0.86613 0.19217 0.95546
 C1272 C 0.84638 0.18211 0.96314
 H1273 H 0.88779 0.24718 0.95775
 H1274 H 0.93942 0.22936 0.96806
 H1275 H 0.90043 0.24844 0.90365
 H1276 H 0.88371 0.19634 0.90012
 H1277 H 0.92254 0.17717 0.96457
 H1278 H 0.93508 0.17845 0.91052
 C1279 C 0.41771 0.69334 0.45071
 C1280 C 0.42430 0.69394 0.42120
 C1281 C 0.43289 0.72225 0.42345
 C1282 C 0.42669 0.72185 0.45280
 C1283 C 0.39011 0.70344 0.44471
 C1284 C 0.39864 0.73177 0.44700
 C1285 C 0.39640 0.70388 0.41537
 C1286 C 0.40529 0.73234 0.41746
 C1287 C 0.45642 0.73204 0.41044
 C1288 C 0.47537 0.73945 0.39856
 C1289 C 0.36614 0.69219 0.45542
 C1290 C 0.34640 0.68212 0.46310
 H1291 H 0.42255 0.67718 0.46451
 H1292 H 0.43509 0.67848 0.41046
 H1293 H 0.43944 0.72936 0.46803
 H1294 H 0.38780 0.74719 0.45774
 H1295 H 0.38371 0.69639 0.40008
 H1296 H 0.40044 0.74849 0.40364
 C1297 C 0.58429 0.80687 0.44810
 C1298 C 0.58067 0.80438 0.41845
 C1299 C 0.57102 0.77655 0.42307
 C1300 C 0.57430 0.77885 0.45257
 C1301 C 0.61212 0.79580 0.44493
 C1302 C 0.60254 0.76794 0.44961
 C1303 C 0.60877 0.79347 0.41544
 C1304 C 0.59884 0.76546 0.41989
 C1305 C 0.54829 0.76666 0.40996
 C1306 C 0.52989 0.75929 0.39818
 C1307 C 0.63491 0.80750 0.45633
 C1308 C 0.65343 0.81819 0.46498
 H1309 H 0.57856 0.82403 0.45983
 H1310 H 0.57143 0.81928 0.40552
 H1311 H 0.55985 0.77273 0.46768
 H1312 H 0.61182 0.75309 0.46255
 H1313 H 0.62318 0.79958 0.40029
 H1314 H 0.60455 0.74831 0.40814
 C1315 C 0.10150 0.26854 -0.04907
 C1316 C 0.07356 0.28046 -0.04755
 C1317 C 0.07101 0.27652 -0.07693
 C1318 C 0.09853 0.26442 -0.07867
 C1319 C 0.11210 0.29579 -0.05508
 C1320 C 0.10949 0.29182 -0.08445
 C1321 C 0.08457 0.30787 -0.05336
 C1322 C 0.08167 0.30375 -0.08288
 C1323 C 0.04828 0.26663 -0.09004
 C1324 C 0.02988 0.25925 -0.10182
 C1325 C 0.13489 0.30750 -0.04369
 C1326 C 0.15341 0.31819 -0.03504
 H1327 H 0.10994 0.25420 -0.03503
 H1328 H 0.05851 0.27568 -0.03254
 H1329 H 0.10400 0.24643 -0.08923
 H1330 H 0.12450 0.29660 -0.09950
 H1331 H 0.07908 0.32586 -0.04282
 H1332 H 0.07328 0.31813 -0.09691
 C1333 C 0.41463 0.30683 0.04163
 C1334 C 0.42281 0.31204 0.06988
 C1335 C 0.42972 0.28301 0.07343
 C1336 C 0.42193 0.27758 0.04537
 C1337 C 0.38696 0.30113 0.05174
 C1338 C 0.39383 0.27208 0.05527
 C1339 C 0.39483 0.30649 0.07979
 C1340 C 0.40203 0.27734 0.08351
 C1341 C 0.45311 0.27344 0.08661
 C1342 C 0.47186 0.26599 0.09852
 C1343 C 0.36289 0.31199 0.04087
 C1344 C 0.34292 0.32178 0.03317
 H1345 H 0.41953 0.31906 0.02427
 H1346 H 0.43496 0.32836 0.07603
 H1347 H 0.43338 0.26558 0.03137
 H1348 H 0.38164 0.25578 0.04913
 H1349 H 0.38345 0.31848 0.09386
 H1350 H 0.39711 0.26512 0.10088
 C1351 C 0.88769 0.78527 0.57742
 C1352 C 0.90738 0.76600 0.56464
 C1353 C 0.92973 0.78299 0.57347
 C1354 C 0.91035 0.80208 0.58640
 C1355 C 0.88696 0.80114 0.55181
 C1356 C 0.90933 0.81809 0.56066
 C1357 C 0.90629 0.78205 0.53880
 C1358 C 0.92907 0.79886 0.54786
 C1359 C 0.95312 0.77341 0.58664
 C1360 C 0.97187 0.76596 0.59854
 C1361 C 0.86289 0.81201 0.54094
 C1362 C 0.84292 0.82179 0.53324
 H1363 H 0.87042 0.77978 0.58945
 H1364 H 0.90686 0.74447 0.56643
 H1365 H 0.91225 0.81023 0.60610
 H1366 H 0.90989 0.83963 0.55891
 H1367 H 0.90432 0.77394 0.51909
 H1368 H 0.94636 0.80434 0.53587
   
