data_POSCAR
  _audit_creation_date              2014-09-24
  _audit_creation_method            'ToBaCCo'
  _symmetry_space_group_name_H-M    'P1'
  _symmetry_Int_Tables_number       1
  _symmetry_cell_setting            triclinic
  loop_
  _symmetry_equiv_pos_as_xyz
 x,y,z
_cell_length_a 33.4098
_cell_length_b 33.3572
_cell_length_c 34.2246
_cell_angle_alpha 89.946300
_cell_angle_beta 90.173000
_cell_angle_gamma 92.023900
loop_
  _atom_site_label
  _atom_site_type_symbol
  _atom_site_fract_x
  _atom_site_fract_y
  _atom_site_fract_z
C1 C 0.41761 0.01575 0.28688
 C2 C 0.38691 0.04887 0.28607
 C3 C 0.36092 0.04721 0.25548
 C4 C 0.36768 0.01125 0.22818
 C5 C 0.39214 -0.02315 0.28577
 C6 C 0.36586 -0.02612 0.25534
 C7 C 0.43828 0.01834 0.24704
 C8 C 0.41230 0.01601 0.21608
 H9 H 0.38553 0.07173 0.30847
 H10 H 0.34636 0.00922 0.20324
 H11 H 0.39656 -0.04700 0.30652
 H12 H 0.47051 0.02017 0.24405
 C13 C 0.08963 -0.01112 0.78175
 C14 C 0.12286 -0.04171 0.78067
 C15 C 0.14837 -0.03736 0.75016
 C16 C 0.13870 -0.00201 0.72323
 C17 C 0.11256 0.02965 0.78142
 C18 C 0.13866 0.03458 0.75100
 C19 C 0.06991 -0.01461 0.74382
 C20 C 0.09690 -0.00949 0.71136
 H21 H 0.12638 -0.06475 0.80267
 H22 H 0.16015 0.00177 0.69861
 H23 H 0.10781 0.05253 0.80315
 H24 H 0.03786 -0.01936 0.74067
 C25 C 0.59154 0.48157 0.29201
 C26 C 0.62350 0.44973 0.29198
 C27 C 0.64865 0.45155 0.26104
 C28 C 0.63991 0.48570 0.23253
 C29 C 0.61558 0.52146 0.28913
 C30 C 0.64132 0.52383 0.25823
 C31 C 0.57002 0.47659 0.25274
 C32 C 0.59528 0.47862 0.22149
 H33 H 0.62632 0.42756 0.31493
 H34 H 0.66063 0.48738 0.20719
 H35 H 0.61157 0.54580 0.30946
 H36 H 0.53779 0.47326 0.25022
 C37 C 0.91962 0.51719 0.79068
 C38 C 0.89128 0.55209 0.78743
 C39 C 0.86501 0.54955 0.75716
 C40 C 0.86950 0.51129 0.73234
 C41 C 0.89180 0.47995 0.79231
 C42 C 0.86562 0.47615 0.76191
 C43 C 0.94028 0.51525 0.75097
 C44 C 0.91419 0.51203 0.72014
 H45 H 0.89072 0.57611 0.80873
 H46 H 0.84805 0.50873 0.70753
 H47 H 0.89497 0.45750 0.81474
 H48 H 0.97248 0.51467 0.74824
 C49 C 0.28096 0.38982 1.00060
 C50 C 0.27603 0.35482 1.02960
 C51 C 0.24023 0.33402 1.02663
 C52 C 0.21239 0.34968 0.99449
 C53 C 0.27330 0.37065 0.96061
 C54 C 0.23804 0.34943 0.95740
 C55 C 0.24393 0.41516 1.00768
 C56 C 0.20797 0.39454 1.00407
 H57 H 0.29610 0.34999 1.05383
 H58 H 0.18352 0.33233 0.99186
 H59 H 0.29374 0.37462 0.93625
 H60 H 0.24614 0.44674 1.01504
 C61 C 0.79197 0.11095 1.00161
 C62 C 0.79101 0.14523 0.97218
 C63 C 0.75614 0.16538 0.97232
 C64 C 0.72563 0.14955 1.00394
 C65 C 0.78393 0.13086 1.04112
 C66 C 0.74960 0.15141 1.04257
 C67 C 0.75654 0.08600 0.99334
 C68 C 0.71987 0.10651 0.99594
 H69 H 0.81369 0.14953 0.94987
 H70 H 0.69736 0.16610 1.00473
 H71 H 0.80245 0.12665 1.06677
 H72 H 0.75753 0.05395 0.98838
 C73 C 0.29022 0.61067 0.50091
 C74 C 0.29034 0.63889 0.46550
 C75 C 0.25774 0.66210 0.46302
 C76 C 0.22769 0.65534 0.49708
 C77 C 0.28559 0.63855 0.53596
 C78 C 0.25298 0.66178 0.53448
 C79 C 0.25004 0.58669 0.49896
 C80 C 0.21727 0.60990 0.49735
 H81 H 0.31305 0.63901 0.44303
 H82 H 0.20111 0.67437 0.49544
 H83 H 0.30353 0.63609 0.56226
 H84 H 0.24784 0.55422 0.49849
 C85 C 0.78571 0.88407 0.49659
 C86 C 0.77925 0.85145 0.52774
 C87 C 0.74294 0.83152 0.52541
 C88 C 0.71608 0.84567 0.49175
 C89 C 0.77815 0.86232 0.45781
 C90 C 0.74230 0.84201 0.45530
 C91 C 0.74937 0.91098 0.50118
 C92 C 0.71287 0.89124 0.49816
 H93 H 0.79897 0.84761 0.55244
 H94 H 0.68674 0.82905 0.48973
 H95 H 0.79895 0.86421 0.43357
 H96 H 0.75242 0.94289 0.50682
 C97 C -0.00670 0.27757 0.40133
 C98 C 0.01951 0.28847 0.36609
 C99 C 0.02306 0.25787 0.34022
 C100 C -0.00109 0.22001 0.35092
 C101 C -0.04494 0.26377 0.38543
 C102 C -0.04146 0.23282 0.35685
 C103 C 0.01161 0.24000 0.41838
 C104 C 0.01375 0.20941 0.39198
 H105 H 0.03731 0.31622 0.36435
 H106 H 0.00139 0.19519 0.32945
 H107 H -0.07278 0.27826 0.39152
 H108 H 0.01821 0.23652 0.44919
 C109 C 0.00289 0.78221 0.09715
 C110 C -0.01808 0.79185 0.13542
 C111 C -0.02032 0.76070 0.16110
 C112 C 0.00168 0.72399 0.14745
 C113 C 0.04443 0.76954 0.10909
 C114 C 0.04360 0.73952 0.13569
 C115 C -0.01818 0.74378 0.08204
 C116 C -0.01834 0.71319 0.10852
 H117 H -0.03610 0.81807 0.13851
 H118 H 0.00166 0.69907 0.16905
 H119 H 0.07189 0.78491 0.09975
 H120 H -0.02643 0.73929 0.05167
 C121 C 0.51172 0.28594 0.59952
 C122 C 0.47551 0.29134 0.62561
 C123 C 0.46783 0.26015 0.65037
 C124 C 0.49750 0.22661 0.64737
 C125 C 0.54616 0.27848 0.62744
 C126 C 0.53832 0.24772 0.65257
 C127 C 0.50369 0.24579 0.57896
 C128 C 0.49653 0.21475 0.60435
 H129 H 0.45831 0.31821 0.62463
 H130 H 0.49175 0.20124 0.66792
 H131 H 0.57440 0.29551 0.62705
 H132 H 0.50491 0.24211 0.54755
 C133 C 0.49945 0.77903 0.91345
 C134 C 0.52897 0.78492 0.87969
 C135 C 0.53124 0.75242 0.85575
 C136 C 0.50229 0.71775 0.86690
 C137 C 0.45938 0.76815 0.89394
 C138 C 0.46102 0.73639 0.86937
 C139 C 0.51103 0.74267 0.93290
 C140 C 0.51226 0.70872 0.90719
 H141 H 0.54756 0.81197 0.87652
 H142 H 0.50306 0.69171 0.84665
 H143 H 0.43255 0.78506 0.89780
 H144 H 0.51865 0.74172 0.96364
 C145 C -0.23430 0.67408 0.95527
 C146 C -0.20320 0.64185 0.96082
 C147 C -0.21245 0.61435 0.98888
 C148 C -0.25327 0.62108 1.00865
 C149 C -0.27356 0.65072 0.94707
 C150 C -0.28437 0.62319 0.97447
 C151 C -0.23926 0.69235 0.99586
 C152 C -0.24859 0.66468 1.02429
 H153 H -0.17566 0.64114 0.94420
 H154 H -0.26084 0.59865 1.03163
 H155 H -0.29212 0.65656 0.92179
 H156 H -0.23464 0.72411 1.00122
 C157 C -0.26621 0.33568 0.47016
 C158 C -0.29668 0.36908 0.46994
 C159 C -0.29190 0.39632 0.49907
 C160 C -0.25634 0.38795 0.52618
 C161 C -0.22546 0.35861 0.46905
 C162 C -0.22019 0.38630 0.49820
 C163 C -0.26922 0.31805 0.50906
 C164 C -0.26360 0.34682 0.54015
 H165 H -0.31992 0.37150 0.44796
 H166 H -0.25221 0.41070 0.54971
 H167 H -0.20279 0.35266 0.44750
 H168 H -0.27353 0.28611 0.51379
 C169 C 0.24068 -0.15982 -0.03894
 C170 C 0.20745 -0.12924 -0.03854
 C171 C 0.20896 -0.10347 -0.00786
 C172 C 0.24459 -0.11029 0.01985
 C173 C 0.27936 -0.13380 -0.03760
 C174 C 0.28169 -0.10749 -0.00718
 C175 C 0.23801 -0.17980 -0.00112
 C176 C 0.24040 -0.15258 0.03154
 H177 H 0.18488 -0.12754 -0.06126
 H178 H 0.24627 -0.08869 0.04457
 H179 H 0.30325 -0.13718 -0.05846
 H180 H 0.23632 -0.21211 0.00187
 C181 C 0.26333 1.17118 0.45776
 C182 C 0.29775 1.14232 0.46219
 C183 C 0.29483 1.11748 0.49338
 C184 C 0.25664 1.12328 0.51768
 C185 C 0.22542 1.14387 0.45696
 C186 C 0.22136 1.11865 0.48825
 C187 C 0.26187 1.19344 0.49686
 C188 C 0.25835 1.16842 0.52846
 H189 H 0.32214 1.14078 0.44147
 H190 H 0.25396 1.10276 0.54319
 H191 H 0.20301 1.14646 0.43435
 H192 H 0.26248 1.22581 0.49883
 C193 C 0.13471 0.53871 0.25008
 C194 C 0.09965 0.53666 0.22126
 C195 C 0.07813 0.50120 0.22190
 C196 C 0.09323 0.47084 0.25227
 C197 C 0.11548 0.52920 0.28972
 C198 C 0.09352 0.49417 0.29091
 C199 C 0.15926 0.50184 0.24086
 C200 C 0.13800 0.46627 0.24265
 H201 H 0.09438 0.55957 0.19968
 H202 H 0.07561 0.44199 0.25317
 H203 H 0.12011 0.54801 0.31527
 H204 H 0.19097 0.50375 0.23430
 C205 C -0.13931 1.03477 0.25015
 C206 C -0.10650 1.03235 0.28093
 C207 C -0.08585 0.99777 0.27964
 C208 C -0.09982 0.96884 0.24582
 C209 C -0.11737 1.02917 0.21116
 C210 C -0.09626 0.99510 0.20874
 C211 C -0.16410 0.99862 0.25523
 C212 C -0.14311 0.96227 0.25147
 H213 H -0.10307 1.05403 0.30435
 H214 H -0.08298 0.94076 0.24428
 H215 H -0.12065 1.04910 0.18641
 H216 H -0.19624 0.99902 0.25940
 C217 C 0.37071 0.54604 -0.25067
 C218 C 0.39885 0.54451 -0.21526
 C219 C 0.41811 0.50946 -0.21149
 C220 C 0.40782 0.47879 -0.24457
 C221 C 0.39750 0.53701 -0.28549
 C222 C 0.41675 0.50191 -0.28269
 C223 C 0.34256 0.50869 -0.24714
 C224 C 0.36179 0.47342 -0.24473
 H225 H 0.40173 0.56815 -0.19373
 H226 H 0.42366 0.45017 -0.24202
 H227 H 0.39713 0.55427 -0.31235
 H228 H 0.31022 0.51010 -0.24714
 C229 C 0.63722 0.04083 -0.24819
 C230 C 0.60448 0.03742 -0.27944
 C231 C 0.58416 0.00138 -0.28019
 C232 C 0.59835 -0.02854 -0.24903
 C233 C 0.61599 0.03012 -0.20993
 C234 C 0.59556 -0.00578 -0.21023
 C235 C 0.66383 0.00508 -0.25624
 C236 C 0.64376 -0.03125 -0.25611
 H237 H 0.60165 0.05854 -0.30310
 H238 H 0.58176 -0.05800 -0.24937
 H239 H 0.61910 0.04834 -0.18379
 H240 H 0.69581 0.00827 -0.26105
 C241 C 0.03189 0.24837 0.84528
 C242 C 0.04027 0.28341 0.87301
 C243 C 0.01129 0.28822 0.89996
 C244 C -0.02366 0.25705 0.89704
 C245 C 0.02525 0.21176 0.87163
 C246 C -0.00342 0.21660 0.89906
 C247 C -0.00675 0.25541 0.82831
 C248 C -0.03772 0.25969 0.85684
 H249 H 0.06578 0.30417 0.86985
 H250 H -0.04757 0.25952 0.91922
 H251 H 0.04151 0.18438 0.86870
 H252 H -0.01108 0.25872 0.79713
 C253 C 0.53084 0.25112 0.16013
 C254 C 0.53220 0.21782 0.12982
 C255 C 0.49930 0.21532 0.10625
 C256 C 0.46769 0.24556 0.11598
 C257 C 0.52316 0.28930 0.13711
 C258 C 0.49017 0.28591 0.11405
 C259 C 0.49241 0.24238 0.18283
 C260 C 0.45932 0.23963 0.15976
 H261 H 0.55615 0.19683 0.12918
 H262 H 0.44131 0.24384 0.09626
 H263 H 0.54181 0.31648 0.13902
 H264 H 0.49105 0.24191 0.21447
 C265 C 0.03730 0.75404 0.65914
 C266 C 0.03852 0.71802 0.63207
 C267 C 0.00551 0.71271 0.60898
 C268 C -0.02562 0.74484 0.61477
 C269 C 0.03040 0.78966 0.63237
 C270 C -0.00219 0.78456 0.60895
 C271 C -0.00157 0.74839 0.68201
 C272 C -0.03465 0.74395 0.65886
 H273 H 0.06456 0.69974 0.63072
 H274 H -0.05191 0.74140 0.59507
 H275 H 0.04904 0.81693 0.63257
 H276 H -0.00311 0.75104 0.71352
 C277 C 0.53816 0.74707 0.34515
 C278 C 0.54695 0.78098 0.37400
 C279 C 0.51702 0.78675 0.39976
 C280 C 0.48093 0.75728 0.39500
 C281 C 0.52827 0.71014 0.37017
 C282 C 0.49890 0.71585 0.39666
 C283 C 0.49869 0.75735 0.32605
 C284 C 0.46835 0.76198 0.35214
 H285 H 0.57321 0.80093 0.37191
 H286 H 0.45609 0.76042 0.41601
 H287 H 0.54407 0.68240 0.36813
 H288 H 0.49519 0.76004 0.29470
 Zr289 Zr 0.03437 -0.02113 1.05245
 O290 O 0.07155 0.00813 1.09453
 O291 O 0.03298 -0.08024 1.07208
 O292 O 0.00598 -0.02214 1.10837
 O293 O 0.10972 -0.03173 0.98444
 O294 O -0.05740 -0.00299 1.09479
 O295 O 0.09401 -0.04120 1.04871
 O296 O -0.00787 -0.11304 1.02801
 O297 O -0.02496 -0.04021 1.04089
 O298 O 0.03439 -0.05262 0.99949
 O299 O 0.00173 0.03156 1.04998
 O300 O 0.05992 0.01907 1.01088
 Zr301 Zr -0.03444 0.02098 0.94087
 Zr302 Zr -0.05672 0.01229 1.03548
 Zr303 Zr 0.05686 -0.01254 0.95786
 Zr304 Zr -0.02464 -0.06953 0.98711
 O305 O 0.10494 0.02657 0.94090
 O306 O -0.07831 -0.09529 1.01055
 O307 O -0.00164 -0.03190 0.94270
 O308 O -0.05954 -0.01888 0.98246
 O309 O -0.03495 0.05291 0.99352
 O310 O 0.02488 0.03961 0.95276
 C311 C 0.01468 -0.11168 1.05858
 C312 C 0.11813 -0.04331 1.01935
 C313 C -0.03035 -0.01476 1.11853
 O314 O -0.10870 -0.02399 1.04663
 O315 O -0.10600 0.03968 1.01061
 O316 O -0.09232 0.04497 0.94554
 C317 C -0.11453 0.05078 0.97570
 O318 O 0.06549 0.08711 1.05066
 Zr319 Zr 0.02422 0.06966 1.00592
 O320 O -0.03306 0.07972 0.92048
 O321 O -0.07090 0.06295 1.06931
 O322 O -0.00355 0.11337 1.04056
 O323 O 0.07515 0.09941 0.98095
 O324 O 0.00248 0.11388 0.96771
 C325 C -0.01812 0.11192 0.93578
 O326 O -0.07377 -0.00817 0.90057
 O327 O 0.07524 -0.06541 0.92989
 O328 O -0.00796 0.01905 0.88450
 O329 O 0.05304 -0.00710 0.89685
 O330 O 0.00273 -0.11603 0.95580
 O331 O -0.06086 -0.08797 0.93877
 C332 C 0.02621 0.00611 0.87350
 H333 H 0.05080 -0.07672 1.00008
 H334 H -0.08748 -0.02678 0.97540
 H335 H 0.03668 0.05714 0.93213
 H336 H 0.00273 0.04571 1.07540
 H337 H -0.07682 -0.12481 1.00818
 H338 H -0.12584 -0.00849 1.06424
 H339 H -0.09750 0.05713 1.08118
 H340 H 0.00865 0.13989 1.03347
 H341 H -0.01108 -0.14168 0.96324
 H342 H 0.10124 -0.05882 0.91710
 H343 H 0.12215 0.01101 0.92343
 H344 H 0.07199 0.12861 0.98452
 H345 H -0.07047 -0.11612 0.94263
 H346 H -0.08200 0.01249 0.88160
 H347 H 0.07947 -0.01263 1.11353
 H348 H 0.06925 0.11670 1.05073
 Zr349 Zr 0.53906 0.48490 0.55907
 O350 O 0.57720 0.51620 0.59903
 O351 O 0.53830 0.42617 0.58060
 O352 O 0.51340 0.48627 0.61536
 O353 O 0.61357 0.47342 0.49098
 O354 O 0.44879 0.50283 0.60323
 O355 O 0.59846 0.46470 0.55539
 O356 O 0.49880 0.39146 0.53676
 O357 O 0.47968 0.46459 0.54923
 O358 O 0.53865 0.45194 0.50718
 O359 O 0.50521 0.53691 0.55580
 O360 O 0.56323 0.52472 0.51660
 Zr361 Zr 0.46764 0.52246 0.44785
 Zr362 Zr 0.44665 0.51634 0.54312
 Zr363 Zr 0.56004 0.49141 0.46478
 Zr364 Zr 0.47963 0.43386 0.49616
 O365 O 0.60718 0.53108 0.44657
 O366 O 0.42727 0.40775 0.52191
 O367 O 0.50166 0.47052 0.45075
 O368 O 0.44372 0.48361 0.49090
 O369 O 0.46701 0.55608 0.49953
 O370 O 0.52680 0.54258 0.45840
 C371 C 0.52137 0.39387 0.56722
 C372 C 0.62221 0.46209 0.52591
 C373 C 0.47744 0.49313 0.62631
 O374 O 0.39581 0.47930 0.55652
 O375 O 0.39576 0.54172 0.51804
 O376 O 0.40927 0.54494 0.45273
 C377 C 0.38674 0.55098 0.48261
 O378 O 0.56679 0.59468 0.55472
 Zr379 Zr 0.52613 0.57431 0.51053
 O380 O 0.46813 0.58020 0.42498
 O381 O 0.43184 0.56764 0.57568
 O382 O 0.49701 0.61840 0.54354
 O383 O 0.57670 0.60400 0.48483
 O384 O 0.50409 0.61662 0.47032
 C385 C 0.48337 0.61308 0.43853
 O386 O 0.42807 0.49160 0.40893
 O387 O 0.57925 0.43844 0.43756
 O388 O 0.49316 0.51807 0.39120
 O389 O 0.55535 0.49510 0.40419
 O390 O 0.50644 0.38696 0.46494
 O391 O 0.44263 0.41403 0.44887
 C392 C 0.52769 0.50570 0.38059
 H393 H 0.55546 0.42812 0.50791
 H394 H 0.41582 0.47495 0.48448
 H395 H 0.53810 0.55952 0.43709
 H396 H 0.50648 0.55195 0.58072
 H397 H 0.42916 0.37824 0.51993
 H398 H 0.37911 0.49478 0.57455
 H399 H 0.40578 0.56133 0.58843
 H400 H 0.50823 0.64497 0.53530
 H401 H 0.49271 0.36140 0.47281
 H402 H 0.60502 0.44523 0.42442
 H403 H 0.62450 0.51550 0.42921
 H404 H 0.57304 0.63325 0.48731
 H405 H 0.43232 0.38635 0.45408
 H406 H 0.41930 0.51152 0.38944
 H407 H 0.58622 0.49637 0.61850
 H408 H 0.56956 0.62432 0.55380
 Zr409 Zr 0.47066 1.03258 0.55538
 O410 O 0.42935 1.01929 0.60080
 O411 O 0.48652 1.09287 0.56739
 O412 O 0.49808 1.03200 0.61125
 O413 O 0.39743 1.04918 0.48569
 O414 O 0.54957 0.98927 0.60460
 O415 O 0.41592 1.06270 0.54866
 O416 O 0.53446 1.10924 0.52217
 O417 O 0.53241 1.03495 0.54418
 O418 O 0.47766 1.05774 0.49980
 O419 O 0.48899 0.97289 0.55889
 O420 O 0.43610 0.99518 0.51753
 Zr421 Zr 0.52630 0.96259 0.45119
 Zr422 Zr 0.55016 0.97521 0.54491
 Zr423 Zr 0.44637 1.01945 0.46183
 Zr424 Zr 0.53872 1.05801 0.48764
 O425 O 0.39224 0.99003 0.44386
 O426 O 0.59680 1.07285 0.50957
 O427 O 0.50739 1.02215 0.44694
 O428 O 0.55988 0.99996 0.48932
 O429 O 0.51906 0.93653 0.50651
 O430 O 0.46464 0.96030 0.46251
 C431 C 0.51197 1.11746 0.55106
 C432 C 0.39128 1.06465 0.51955
 C433 C 0.52755 1.01221 0.62488
 O434 O 0.60592 1.00322 0.55981
 O435 O 0.59717 0.94109 0.52289
 O436 O 0.57941 0.92970 0.45931
 C437 C 0.60329 0.92599 0.48888
 O438 O 0.41437 0.93561 0.56398
 Zr439 Zr 0.45764 0.93684 0.51854
 O440 O 0.51086 0.90259 0.43988
 O441 O 0.55312 0.92173 0.57792
 O442 O 0.47285 0.89072 0.55805
 O443 O 0.40080 0.91981 0.49489
 O444 O 0.46489 0.88418 0.48634
 C445 C 0.48741 0.87688 0.45717
 O446 O 0.56974 0.97441 0.40734
 O447 O 0.43965 1.07383 0.43087
 O448 O 0.50168 0.96700 0.39390
 O449 O 0.45101 1.01043 0.40164
 O450 O 0.52323 1.10607 0.45055
 O451 O 0.57725 1.06098 0.43832
 C452 C 0.47350 0.98882 0.38046
 H453 H 0.46698 1.08496 0.49776
 H454 H 0.58861 1.00120 0.48229
 H455 H 0.44936 0.94401 0.44300
 H456 H 0.48400 0.96151 0.58522
 H457 H 0.60308 1.10128 0.50284
 H458 H 0.61909 0.98525 0.57860
 H459 H 0.57924 0.92281 0.59176
 H460 H 0.45350 0.86787 0.55406
 H461 H 0.54331 1.12826 0.45468
 H462 H 0.41317 1.07200 0.41773
 H463 H 0.37934 1.00808 0.42498
 H464 H 0.39513 0.89137 0.50201
 H465 H 0.59359 1.08631 0.43913
 H466 H 0.57167 0.94961 0.39153
 H467 H 0.42692 1.04408 0.61651
 H468 H 0.40218 0.90823 0.56629
 Zr469 Zr -0.03897 0.53074 1.05947
 O470 O -0.08129 0.51595 1.10353
 O471 O -0.02527 0.59109 1.07249
 O472 O -0.01243 0.53099 1.11597
 O473 O -0.11017 0.54646 0.98695
 O474 O 0.03998 0.48918 1.11018
 O475 O -0.09411 0.56007 1.05054
 O476 O 0.02452 0.60850 1.02951
 O477 O 0.02316 0.53412 1.05014
 O478 O -0.03043 0.55650 1.00431
 O479 O -0.01948 0.47144 1.06319
 O480 O -0.07157 0.49321 1.02022
 Zr481 Zr 0.02138 0.46262 0.95671
 Zr482 Zr 0.04211 0.47476 1.05083
 Zr483 Zr -0.05966 0.51806 0.96500
 Zr484 Zr 0.03102 0.55799 0.99421
 O485 O -0.11245 0.48788 0.94456
 O486 O 0.08810 0.57345 1.01819
 O487 O 0.00179 0.52192 0.95227
 O488 O 0.05316 0.50028 0.99590
 O489 O 0.01275 0.43586 1.01149
 O490 O -0.04061 0.45928 0.96601
 C491 C 0.00056 0.61611 1.05748
 C492 C -0.11770 0.56187 1.02049
 C493 C 0.01745 0.51198 1.13000
 O494 O 0.09726 0.50310 1.06732
 O495 O 0.09040 0.44148 1.02986
 O496 O 0.07433 0.43015 0.96592
 C497 C 0.09755 0.42666 0.99592
 O498 O -0.09343 0.43301 1.06616
 Zr499 Zr -0.04908 0.43531 1.02171
 O500 O 0.00660 0.40265 0.94429
 O501 O 0.04461 0.42131 1.08392
 O502 O -0.03424 0.38893 1.06109
 O503 O -0.10514 0.41793 0.99654
 O504 O -0.04065 0.38321 0.98914
 C505 C -0.01736 0.37656 0.96041
 O506 O 0.06638 0.47549 0.91458
 O507 O -0.06643 0.57268 0.93444
 O508 O -0.00058 0.46722 0.89872
 O509 O -0.05187 0.51011 0.90496
 O510 O 0.01594 0.60624 0.95718
 O511 O 0.07123 0.56259 0.94626
 C512 C -0.02812 0.48916 0.88448
 H513 H -0.04151 0.58354 1.00209
 H514 H 0.08209 0.50199 0.98971
 H515 H -0.05500 0.44304 0.94586
 H516 H -0.02493 0.45988 1.08936
 H517 H 0.09398 0.60214 1.01227
 H518 H 0.11007 0.48517 1.08641
 H519 H 0.07039 0.42259 1.09835
 H520 H -0.05321 0.36590 1.05642
 H521 H 0.03519 0.62886 0.96256
 H522 H -0.09210 0.57028 0.91989
 H523 H -0.12460 0.50568 0.92497
 H524 H -0.11079 0.38942 1.00340
 H525 H 0.08701 0.58821 0.94798
 H526 H 0.06934 0.45098 0.89855
 H527 H -0.08488 0.54062 1.11913
 H528 H -0.10534 0.40547 1.06790
 Zr529 Zr -0.03629 0.47308 0.44600
 O530 O -0.07413 0.49973 0.40445
 O531 O -0.03546 0.41406 0.42628
 O532 O -0.00929 0.47313 0.38969
 O533 O -0.11002 0.45459 0.51612
 O534 O 0.05409 0.49755 0.40193
 O535 O -0.09574 0.44912 0.45116
 O536 O 0.00630 0.38409 0.46952
 O537 O 0.02341 0.45878 0.45630
 O538 O -0.03517 0.44156 0.49891
 O539 O -0.00391 0.52831 0.44738
 O540 O -0.06134 0.51135 0.48780
 Zr541 Zr 0.03478 0.52070 0.55531
 Zr542 Zr 0.05507 0.51384 0.46079
 Zr543 Zr -0.05707 0.48003 0.54088
 Zr544 Zr 0.02418 0.42918 0.50991
 O545 O -0.10640 0.51464 0.55655
 O546 O 0.07723 0.40739 0.48505
 O547 O 0.00205 0.46533 0.55471
 O548 O 0.05900 0.48252 0.51357
 O549 O 0.03397 0.55308 0.50295
 O550 O -0.02500 0.53453 0.54457
 C551 C -0.01697 0.38381 0.43938
 C552 C -0.11908 0.44388 0.48093
 C553 C 0.02683 0.48293 0.37900
 O554 O 0.10708 0.48166 0.44860
 O555 O 0.10566 0.54486 0.48358
 O556 O 0.09393 0.54665 0.54914
 C557 C 0.11592 0.55429 0.51868
 O558 O -0.06659 0.57935 0.44638
 Zr559 Zr -0.02590 0.56479 0.49165
 O560 O 0.03365 0.57959 0.57470
 O561 O 0.06769 0.56540 0.42621
 O562 O 0.00257 0.61102 0.45818
 O563 O -0.07808 0.58950 0.51554
 O564 O -0.00740 0.61045 0.53141
 C565 C 0.01539 0.61006 0.56186
 O566 O 0.07428 0.49540 0.59619
 O567 O -0.07193 0.42632 0.57134
 O568 O 0.00887 0.51758 0.61185
 O569 O -0.05387 0.49004 0.60148
 O570 O -0.00175 0.38048 0.54199
 O571 O 0.06153 0.41390 0.55765
 C572 C -0.02619 0.50533 0.62372
 H573 H -0.05134 0.41614 0.49874
 H574 H 0.08707 0.47659 0.52007
 H575 H -0.03679 0.55138 0.56502
 H576 H -0.00553 0.54221 0.42188
 H577 H 0.07595 0.37779 0.48768
 H578 H 0.12324 0.49797 0.42978
 H579 H 0.09374 0.56139 0.41326
 H580 H -0.00980 0.63653 0.46540
 H581 H 0.01231 0.35602 0.53436
 H582 H -0.09810 0.43021 0.58412
 H583 H -0.12307 0.49801 0.57467
 H584 H -0.07599 0.61893 0.51156
 H585 H 0.07195 0.38683 0.55337
 H586 H 0.08270 0.51715 0.61450
 H587 H -0.08276 0.47830 0.38587
 H588 H -0.06958 0.60877 0.44564
 Zr589 Zr 0.46613 -0.02323 -0.05633
 O590 O 0.42906 -0.00168 -0.10143
 O591 O 0.46923 -0.08358 -0.07117
 O592 O 0.49382 -0.02646 -0.11192
 O593 O 0.38972 -0.03491 0.01261
 O594 O 0.55702 -0.00123 -0.10010
 O595 O 0.40646 -0.04611 -0.05100
 O596 O 0.51018 -0.10909 -0.02446
 O597 O 0.52559 -0.03619 -0.04297
 O598 O 0.46572 -0.04999 -0.00101
 O599 O 0.49815 0.03205 -0.05875
 O600 O 0.43918 0.01815 -0.01898
 Zr601 Zr 0.53294 0.03520 0.05038
 Zr602 Zr 0.55684 0.01915 -0.04228
 Zr603 Zr 0.44218 -0.00804 0.03675
 Zr604 Zr 0.52491 -0.06054 0.01314
 O605 O 0.39296 0.02803 0.04911
 O606 O 0.57959 -0.08366 -0.00657
 O607 O 0.50102 -0.02051 0.05356
 O608 O 0.55915 -0.00662 0.01337
 O609 O 0.53342 0.06176 -0.00491
 O610 O 0.47338 0.04725 0.03691
 C611 C 0.48833 -0.11213 -0.05549
 C612 C 0.38189 -0.04827 -0.02194
 C613 C 0.52994 -0.01702 -0.12261
 O614 O 0.60849 -0.01471 -0.05085
 O615 O 0.60750 0.05041 -0.01958
 O616 O 0.58961 0.06566 0.04274
 C617 C 0.61411 0.06778 0.01349
 O618 O 0.43314 0.08024 -0.06577
 Zr619 Zr 0.47389 0.07196 -0.01889
 O620 O 0.53157 0.09589 0.06344
 O621 O 0.57133 0.06832 -0.07938
 O622 O 0.50086 0.11509 -0.05703
 O623 O 0.42178 0.09884 0.00267
 O624 O 0.49302 0.12183 0.01494
 C625 C 0.51539 0.12488 0.04549
 O626 O 0.57318 0.01500 0.09336
 O627 O 0.42579 -0.05958 0.06998
 O628 O 0.50593 0.03515 0.10668
 O629 O 0.44440 0.00483 0.09668
 O630 O 0.49758 -0.10659 0.04771
 O631 O 0.55988 -0.07097 0.06387
 C632 C 0.47134 0.02155 0.11875
 H633 H 0.44968 -0.07548 0.00010
 H634 H 0.58706 -0.01140 0.02149
 H635 H 0.46130 0.06578 0.05575
 H636 H 0.49722 0.04374 -0.08533
 H637 H 0.57851 -0.11291 -0.00136
 H638 H 0.62539 0.00000 -0.07025
 H639 H 0.59753 0.06293 -0.09143
 H640 H 0.48719 0.14066 -0.05306
 H641 H 0.51210 -0.13148 0.04278
 H642 H 0.39946 -0.05458 0.08197
 H643 H 0.37583 0.01282 0.06797
 H644 H 0.42368 0.12767 -0.00439
 H645 H 0.57017 -0.09843 0.06287
 H646 H 0.58048 0.03854 0.10992
 H647 H 0.42097 -0.02500 -0.11799
 H648 H 0.42811 0.10916 -0.06869
 Zr649 Zr 0.53778 0.53078 -0.04495
 O650 O 0.57589 0.51983 -0.09273
 O651 O 0.52910 0.59249 -0.05238
 O652 O 0.50806 0.53596 -0.10027
 O653 O 0.61524 0.53238 0.02438
 O654 O 0.44918 0.49964 -0.09330
 O655 O 0.59780 0.55537 -0.03597
 O656 O 0.49170 0.60988 0.00023
 O657 O 0.47750 0.53807 -0.03005
 O658 O 0.53742 0.55039 0.01306
 O659 O 0.50888 0.47389 -0.05221
 O660 O 0.56640 0.48615 -0.01219
 Zr661 Zr 0.47439 0.45700 0.05619
 Zr662 Zr 0.44929 0.48094 -0.03486
 Zr663 Zr 0.56274 0.50534 0.04597
 Zr664 Zr 0.47771 0.55582 0.02860
 O665 O 0.61265 0.46942 0.05669
 O666 O 0.42285 0.57951 0.00966
 O667 O 0.50381 0.51323 0.06462
 O668 O 0.44623 0.50094 0.02302
 O669 O 0.47453 0.43579 -0.00143
 O670 O 0.53432 0.44919 0.04122
 C671 C 0.51087 0.61808 -0.03127
 C672 C 0.62307 0.55155 -0.00720
 C673 C 0.47442 0.52071 -0.11362
 O674 O 0.39845 0.51591 -0.04375
 O675 O 0.39837 0.44860 -0.01347
 O676 O 0.41652 0.42985 0.04802
 C677 C 0.39140 0.43060 0.01928
 O678 O 0.57456 0.42807 -0.06494
 Zr679 Zr 0.53465 0.43082 -0.01681
 O680 O 0.48029 0.39546 0.06308
 O681 O 0.43543 0.43207 -0.07253
 O682 O 0.50833 0.39061 -0.05828
 O683 O 0.58941 0.40630 0.00133
 O684 O 0.52020 0.37695 0.01266
 C685 C 0.49922 0.36948 0.04333
 O686 O 0.43462 0.46937 0.10237
 O687 O 0.57863 0.55482 0.08229
 O688 O 0.50163 0.45401 0.11247
 O689 O 0.56115 0.48848 0.10452
 O690 O 0.50255 0.59685 0.07014
 O691 O 0.44088 0.55797 0.07906
 C692 C 0.53538 0.46894 0.12544
 H693 H 0.55279 0.57598 0.01707
 H694 H 0.41822 0.50426 0.03144
 H695 H 0.54770 0.42982 0.05839
 H696 H 0.51071 0.46446 -0.07952
 H697 H 0.42217 0.60757 0.01905
 H698 H 0.38099 0.50114 -0.06272
 H699 H 0.40871 0.43668 -0.08405
 H700 H 0.52278 0.36521 -0.05675
 H701 H 0.48665 0.62137 0.06933
 H702 H 0.60501 0.54938 0.09411
 H703 H 0.62914 0.48310 0.07715
 H704 H 0.58928 0.37802 -0.00755
 H705 H 0.42887 0.58462 0.08075
 H706 H 0.42932 0.44386 0.11670
 H707 H 0.58132 0.54607 -0.10572
 H708 H 0.58057 0.39974 -0.07025
 Zr709 Zr 0.03620 1.02710 0.44202
 O710 O 0.07456 1.01392 0.39497
 O711 O 0.02511 1.08770 0.43080
 O712 O 0.00605 1.02767 0.38706
 O713 O 0.11312 1.04473 0.51030
 O714 O -0.04875 0.98568 0.39536
 O715 O 0.09350 1.05630 0.44741
 O716 O -0.01858 1.10406 0.47891
 O717 O -0.02456 1.03062 0.45611
 O718 O 0.03425 1.05116 0.49840
 O719 O 0.01251 0.96790 0.43846
 O720 O 0.06910 0.98843 0.47796
 Zr721 Zr -0.02086 0.95642 0.54781
 Zr722 Zr -0.04760 0.97132 0.45513
 Zr723 Zr 0.06398 1.01173 0.53463
 Zr724 Zr -0.02593 1.05257 0.51332
 O725 O 0.11763 0.98190 0.54609
 O726 O -0.08365 1.06914 0.49466
 O727 O 0.00393 1.01538 0.55227
 O728 O -0.05249 0.99516 0.51153
 O729 O -0.01859 0.93124 0.49181
 O730 O 0.03997 0.95310 0.53364
 C731 C 0.00266 1.11232 0.44868
 C732 C 0.11886 1.05975 0.47595
 C733 C -0.02578 1.00859 0.37433
 O734 O -0.10112 1.00110 0.44300
 O735 O -0.09651 0.93808 0.47868
 O736 O -0.07769 0.92575 0.54157
 C737 C -0.10293 0.92306 0.51282
 O738 O 0.08301 0.92884 0.42969
 Zr739 Zr 0.04212 0.93055 0.47709
 O740 O -0.01074 0.89580 0.55829
 O741 O -0.05715 0.91840 0.42183
 O742 O 0.02026 0.88535 0.43819
 O743 O 0.09852 0.91162 0.49725
 O744 O 0.03188 0.87796 0.50979
 C745 C 0.01057 0.87041 0.54019
 O746 O -0.06123 0.96819 0.59365
 O747 O 0.07440 1.06406 0.56864
 O748 O 0.00639 0.96029 0.60415
 O749 O 0.06430 0.99727 0.59445
 O750 O -0.00461 1.10007 0.54984
 O751 O -0.06143 1.05523 0.56464
 C752 C 0.03931 0.97768 0.61652
 H753 H 0.04711 1.07827 0.50038
 H754 H -0.08072 0.99707 0.51979
 H755 H 0.05474 0.93604 0.55202
 H756 H 0.01528 0.95689 0.41181
 H757 H -0.08677 1.09760 0.50195
 H758 H -0.11703 0.98370 0.42485
 H759 H -0.08383 0.92014 0.40933
 H760 H 0.03728 0.86182 0.44137
 H761 H -0.02312 1.12247 0.54690
 H762 H 0.10151 1.06219 0.58021
 H763 H 0.13310 0.99867 0.56512
 H764 H 0.10096 0.88318 0.48954
 H765 H -0.07573 1.08073 0.56495
 H766 H -0.06457 0.94320 0.60928
 H767 H 0.07833 1.03890 0.37944
 H768 H 0.09149 0.90098 0.42581
 Zr769 Zr 0.72938 0.27684 0.20132
 O770 O 0.76095 0.31446 0.16126
 O771 O 0.67127 0.27556 0.17878
 O772 O 0.73045 0.24978 0.14509
 O773 O 0.71753 0.35185 0.26914
 O774 O 0.74748 0.18558 0.15829
 O775 O 0.70965 0.33655 0.20459
 O776 O 0.63688 0.23503 0.22186
 O777 O 0.70917 0.21754 0.21156
 O778 O 0.69588 0.27673 0.25295
 O779 O 0.78149 0.24346 0.20533
 O780 O 0.76834 0.30140 0.24455
 Zr781 Zr 0.76608 0.20645 0.31383
 Zr782 Zr 0.76087 0.18505 0.21832
 Zr783 Zr 0.73454 0.29848 0.29612
 Zr784 Zr 0.67809 0.21761 0.26432
 O785 O 0.77338 0.34623 0.31477
 O786 O 0.65250 0.16424 0.23980
 O787 O 0.71391 0.24004 0.31034
 O788 O 0.72793 0.18199 0.27034
 O789 O 0.79989 0.20578 0.26235
 O790 O 0.78582 0.26573 0.30292
 C791 C 0.63934 0.25753 0.19135
 C792 C 0.70719 0.36060 0.23396
 C793 C 0.73738 0.21349 0.13460
 O794 O 0.72445 0.13352 0.20549
 O795 O 0.78713 0.13528 0.24329
 O796 O 0.79197 0.14901 0.30848
 C797 C 0.79828 0.12683 0.27818
 O798 O 0.83799 0.30740 0.20875
 Zr799 Zr 0.81808 0.26471 0.25121
 O800 O 0.82228 0.21044 0.33921
 O801 O 0.81233 0.17060 0.18597
 O802 O 0.86237 0.23745 0.21699
 O803 O 0.84875 0.31372 0.27888
 O804 O 0.85961 0.23921 0.29029
 C805 C 0.85551 0.22235 0.32413
 O806 O 0.73562 0.16579 0.35181
 O807 O 0.68088 0.31714 0.32214
 O808 O 0.76144 0.23276 0.37042
 O809 O 0.73819 0.29488 0.35714
 O810 O 0.63052 0.24522 0.29369
 O811 O 0.65769 0.18140 0.31189
 C812 C 0.74963 0.26768 0.38097
 H813 H 0.67203 0.29344 0.25154
 H814 H 0.71959 0.15400 0.27682
 H815 H 0.80248 0.27758 0.32421
 H816 H 0.79660 0.24463 0.18049
 H817 H 0.62300 0.16615 0.24113
 H818 H 0.74017 0.11654 0.18790
 H819 H 0.80639 0.14439 0.17321
 H820 H 0.88879 0.24838 0.22597
 H821 H 0.60520 0.23142 0.28524
 H822 H 0.68710 0.34321 0.33508
 H823 H 0.75734 0.36370 0.33158
 H824 H 0.87781 0.30915 0.27665
 H825 H 0.62969 0.17196 0.30700
 H826 H 0.75552 0.15763 0.37156
 H827 H 0.74130 0.32297 0.14139
 H828 H 0.86758 0.31038 0.20970
 Zr829 Zr 0.76545 0.71438 0.68795
 O830 O 0.73781 0.67125 0.65043
 O831 O 0.82332 0.72028 0.66463
 O832 O 0.76191 0.73827 0.63076
 O833 O 0.78998 0.64795 0.76118
 O834 O 0.72789 0.79596 0.63843
 O835 O 0.79243 0.65784 0.69529
 O836 O 0.85254 0.76952 0.70251
 O837 O 0.77631 0.77654 0.69266
 O838 O 0.80032 0.72376 0.73814
 O839 O 0.70864 0.73985 0.69128
 O840 O 0.73168 0.68826 0.73413
 Zr841 Zr 0.72198 0.78786 0.79518
 Zr842 Zr 0.71999 0.80159 0.69891
 Zr843 Zr 0.76643 0.70067 0.78408
 Zr844 Zr 0.80949 0.78542 0.74371
 O845 O 0.73533 0.65042 0.80869
 O846 O 0.82617 0.83846 0.71274
 O847 O 0.77868 0.76226 0.79250
 O848 O 0.75485 0.81354 0.74878
 O849 O 0.68587 0.77912 0.74559
 O850 O 0.71072 0.72593 0.79021
 C851 C 0.85314 0.74319 0.67508
 C852 C 0.79939 0.63705 0.72638
 C853 C 0.74603 0.77029 0.61752
 O854 O 0.74901 0.85462 0.67764
 O855 O 0.69166 0.85216 0.72155
 O856 O 0.69116 0.84181 0.78750
 C857 C 0.68269 0.86227 0.75670
 O858 O 0.66175 0.67026 0.69988
 Zr859 Zr 0.67685 0.71726 0.73974
 O860 O 0.66528 0.78137 0.81932
 O861 O 0.66387 0.80611 0.67074
 O862 O 0.62705 0.73539 0.70639
 O863 O 0.65688 0.66539 0.77095
 O864 O 0.63271 0.73581 0.77965
 C865 C 0.63426 0.76057 0.80861
 O866 O 0.74841 0.83396 0.83017
 O867 O 0.82342 0.69186 0.80934
 O868 O 0.73132 0.76778 0.85322
 O869 O 0.76545 0.71044 0.84440
 O870 O 0.86147 0.76874 0.77459
 O871 O 0.82568 0.82888 0.78686
 C872 C 0.74984 0.73713 0.86612
 H873 H 0.82625 0.71034 0.73751
 H874 H 0.75970 0.84272 0.75269
 H875 H 0.69646 0.71423 0.81308
 H876 H 0.69299 0.73429 0.66716
 H877 H 0.85580 0.84123 0.71346
 H878 H 0.72978 0.86765 0.66001
 H879 H 0.66509 0.83139 0.65549
 H880 H 0.60298 0.72072 0.71662
 H881 H 0.88434 0.78536 0.76448
 H882 H 0.82124 0.66680 0.82490
 H883 H 0.75434 0.63744 0.82657
 H884 H 0.62723 0.66401 0.76948
 H885 H 0.85141 0.84250 0.77960
 H886 H 0.72810 0.84134 0.84973
 H887 H 0.75830 0.66386 0.63108
 H888 H 0.63304 0.66240 0.70269
 Zr889 Zr 0.22552 0.21892 0.80213
 O890 O 0.25178 0.18132 0.84414
 O891 O 0.16678 0.21990 0.82108
 O892 O 0.22402 0.24591 0.85837
 O893 O 0.20817 0.14471 0.73189
 O894 O 0.24761 0.30973 0.84661
 O895 O 0.20191 0.15931 0.79671
 O896 O 0.13726 0.26167 0.77748
 O897 O 0.21097 0.27857 0.79149
 O898 O 0.19469 0.21988 0.74879
 O899 O 0.28030 0.25171 0.80201
 O900 O 0.26422 0.19367 0.76110
 Zr901 Zr 0.27442 0.29010 0.69374
 Zr902 Zr 0.26565 0.31062 0.78822
 Zr903 Zr 0.23372 0.19791 0.70756
 Zr904 Zr 0.18237 0.27928 0.73737
 O905 O 0.26907 0.14904 0.69203
 O906 O 0.15998 0.33259 0.76133
 O907 O 0.21926 0.25709 0.69338
 O908 O 0.23552 0.31443 0.73471
 O909 O 0.30549 0.28933 0.74687
 O910 O 0.28814 0.23023 0.70474
 C911 C 0.13696 0.23865 0.80775
 C912 C 0.19711 0.13577 0.76697
 C913 C 0.23277 0.28228 0.86917
 O914 O 0.23312 0.36269 0.79950
 O915 O 0.29700 0.36125 0.76625
 O916 O 0.30219 0.34856 0.70104
 C917 C 0.30873 0.37082 0.73168
 O918 O 0.33050 0.18797 0.80333
 Zr919 Zr 0.31725 0.22953 0.75840
 O920 O 0.33330 0.28893 0.67508
 O921 O 0.31633 0.32350 0.82395
 O922 O 0.36264 0.25718 0.79362
 O923 O 0.34346 0.17827 0.73403
 O924 O 0.36333 0.24984 0.72065
 C925 C 0.36360 0.27198 0.68981
 O926 O 0.24995 0.33040 0.65314
 O927 O 0.18047 0.18225 0.67665
 O928 O 0.27129 0.26421 0.63689
 O929 O 0.24346 0.20154 0.64713
 O930 O 0.13417 0.25284 0.70489
 O931 O 0.16768 0.31611 0.68907
 C932 C 0.25851 0.22924 0.62488
 H933 H 0.16936 0.20359 0.74866
 H934 H 0.22976 0.34254 0.72802
 H935 H 0.30530 0.21861 0.68447
 H936 H 0.29370 0.25016 0.82778
 H937 H 0.13046 0.33108 0.75827
 H938 H 0.24886 0.37892 0.81875
 H939 H 0.31175 0.34940 0.83711
 H940 H 0.38823 0.24474 0.78691
 H941 H 0.10961 0.26682 0.71226
 H942 H 0.18480 0.15617 0.66373
 H943 H 0.25274 0.13214 0.67379
 H944 H 0.37270 0.18075 0.73896
 H945 H 0.14049 0.32637 0.69274
 H946 H 0.27197 0.33875 0.63521
 H947 H 0.23016 0.17251 0.86236
 H948 H 0.35980 0.18462 0.80463
 Zr949 Zr 0.28614 0.78404 0.29991
 O950 O 0.27215 0.82098 0.34788
 O951 O 0.34716 0.77492 0.31086
 O952 O 0.28893 0.75299 0.35447
 O953 O 0.29814 0.86287 0.23245
 O954 O 0.25042 0.69591 0.34505
 O955 O 0.31165 0.84303 0.29490
 O956 O 0.36465 0.73236 0.26210
 O957 O 0.29245 0.72387 0.28455
 O958 O 0.30956 0.78423 0.24321
 O959 O 0.22817 0.75763 0.30368
 O960 O 0.24539 0.81541 0.26475
 Zr961 Zr 0.21746 0.72552 0.19360
 Zr962 Zr 0.23442 0.69819 0.28583
 Zr963 Zr 0.26811 0.81245 0.20768
 Zr964 Zr 0.31374 0.72444 0.22712
 O965 O 0.23542 0.86467 0.19746
 O966 O 0.33314 0.66687 0.24335
 O967 O 0.27494 0.75313 0.18884
 O968 O 0.25772 0.69502 0.22913
 O969 O 0.19293 0.72570 0.24989
 O970 O 0.21073 0.78569 0.20888
 C971 C 0.37221 0.75300 0.29294
 C972 C 0.31297 0.86896 0.26675
 C973 C 0.27205 0.71967 0.36652
 O974 O 0.26597 0.64513 0.29516
 O975 O 0.20053 0.65003 0.26222
 O976 O 0.18832 0.66813 0.19914
 C977 C 0.18525 0.64350 0.22823
 O978 O 0.18649 0.82750 0.31252
 Zr979 Zr 0.18888 0.78578 0.26575
 O980 O 0.15656 0.73232 0.18374
 O981 O 0.18332 0.68623 0.32097
 O982 O 0.14621 0.76266 0.30646
 O983 O 0.16516 0.84001 0.24503
 O984 O 0.13597 0.76962 0.23530
 C985 C 0.12957 0.74919 0.20398
 O986 O 0.23154 0.68617 0.14751
 O987 O 0.31959 0.82605 0.17360
 O988 O 0.21872 0.75372 0.13771
 O989 O 0.25258 0.81337 0.14800
 O990 O 0.36033 0.74913 0.19159
 O991 O 0.31736 0.69052 0.17478
 C992 C 0.23392 0.78778 0.12572
 H993 H 0.33604 0.79837 0.24146
 H994 H 0.26042 0.66695 0.22045
 H995 H 0.19249 0.79958 0.19094
 H996 H 0.21755 0.75941 0.33056
 H997 H 0.36159 0.66528 0.23557
 H998 H 0.24946 0.62809 0.31307
 H999 H 0.18607 0.65912 0.33237
 H1000 H 0.12181 0.77851 0.30380
 H1001 H 0.38350 0.73153 0.19399
 H1002 H 0.31612 0.85308 0.16231
 H1003 H 0.25105 0.88128 0.17849
 H1004 H 0.13666 0.84008 0.25297
 H1005 H 0.34394 0.67843 0.17319
 H1006 H 0.20684 0.68167 0.13169
 H1007 H 0.29726 0.82565 0.36303
 H1008 H 0.15846 0.83526 0.31649
 Zr1009 Zr 0.23615 0.79181 0.68912
 O1010 O 0.26052 0.83086 0.64586
 O1011 O 0.17670 0.78488 0.67128
 O1012 O 0.23545 0.76396 0.63329
 O1013 O 0.22421 0.86722 0.75689
 O1014 O 0.26028 0.70236 0.64577
 O1015 O 0.21215 0.84972 0.69336
 O1016 O 0.14866 0.74332 0.71753
 O1017 O 0.22244 0.73125 0.70146
 O1018 O 0.20698 0.79005 0.74321
 O1019 O 0.29126 0.76334 0.68930
 O1020 O 0.27567 0.82111 0.72894
 Zr1021 Zr 0.28904 0.72800 0.79862
 Zr1022 Zr 0.27758 0.70361 0.70479
 Zr1023 Zr 0.24701 0.81580 0.78334
 Zr1024 Zr 0.19542 0.73002 0.75629
 O1025 O 0.28343 0.86582 0.80079
 O1026 O 0.17270 0.67451 0.73384
 O1027 O 0.23339 0.75605 0.79889
 O1028 O 0.24900 0.69953 0.75904
 O1029 O 0.31838 0.72939 0.74466
 O1030 O 0.30209 0.78846 0.78617
 C1031 C 0.14716 0.76499 0.68646
 C1032 C 0.21049 0.87429 0.72241
 C1033 C 0.24537 0.72851 0.62274
 O1034 O 0.24437 0.64955 0.69388
 O1035 O 0.30737 0.65502 0.72949
 O1036 O 0.31363 0.67073 0.79413
 C1037 C 0.31849 0.64736 0.76471
 O1038 O 0.33942 0.83202 0.68551
 Zr1039 Zr 0.32911 0.78990 0.73134
 O1040 O 0.34995 0.73313 0.81365
 O1041 O 0.32863 0.69280 0.67044
 O1042 O 0.37369 0.76659 0.69459
 O1043 O 0.35508 0.84352 0.75505
 O1044 O 0.37749 0.77355 0.76628
 C1045 C 0.37976 0.75156 0.79689
 O1046 O 0.26641 0.68775 0.84179
 O1047 O 0.19365 0.83165 0.81186
 O1048 O 0.28661 0.75411 0.85507
 O1049 O 0.25212 0.81097 0.84444
 O1050 O 0.14887 0.75413 0.79002
 O1051 O 0.18198 0.69264 0.80519
 C1052 C 0.26883 0.78553 0.86704
 H1053 H 0.18171 0.80465 0.74338
 H1054 H 0.24320 0.67126 0.76658
 H1055 H 0.31955 0.80143 0.80626
 H1056 H 0.30423 0.76524 0.66336
 H1057 H 0.14326 0.67378 0.73746
 H1058 H 0.26030 0.63371 0.67546
 H1059 H 0.32406 0.66606 0.65829
 H1060 H 0.39897 0.78224 0.69952
 H1061 H 0.12380 0.73872 0.78362
 H1062 H 0.19909 0.85793 0.82469
 H1063 H 0.26699 0.88184 0.81857
 H1064 H 0.38411 0.84383 0.74913
 H1065 H 0.15434 0.68121 0.80261
 H1066 H 0.28893 0.68167 0.85958
 H1067 H 0.23835 0.83729 0.62780
 H1068 H 0.36834 0.83944 0.68420
 Zr1069 Zr 0.26048 0.21212 0.18675
 O1070 O 0.23240 0.17013 0.14834
 O1071 O 0.31822 0.21715 0.16403
 O1072 O 0.25864 0.23738 0.12987
 O1073 O 0.28303 0.14392 0.25942
 O1074 O 0.22655 0.29612 0.13832
 O1075 O 0.28689 0.15507 0.19376
 O1076 O 0.34787 0.26489 0.20342
 O1077 O 0.27290 0.27395 0.19300
 O1078 O 0.29445 0.21966 0.23781
 O1079 O 0.20454 0.23926 0.18926
 O1080 O 0.22528 0.18574 0.23169
 Zr1081 Zr 0.21709 0.28456 0.29469
 Zr1082 Zr 0.21734 0.30054 0.19862
 Zr1083 Zr 0.25911 0.19630 0.28262
 Zr1084 Zr 0.30516 0.28092 0.24481
 O1085 O 0.22612 0.14587 0.30449
 O1086 O 0.32380 0.33445 0.21565
 O1087 O 0.27297 0.25738 0.29263
 O1088 O 0.25136 0.31055 0.24942
 O1089 O 0.18205 0.27777 0.24410
 O1090 O 0.20407 0.22305 0.28800
 C1091 C 0.34814 0.23925 0.17536
 C1092 C 0.29333 0.13372 0.22468
 C1093 C 0.24406 0.27028 0.11710
 O1094 O 0.24806 0.35349 0.17943
 O1095 O 0.18874 0.35078 0.22167
 O1096 O 0.18776 0.33963 0.28749
 C1097 C 0.17952 0.36055 0.25686
 O1098 O 0.15684 0.16936 0.19651
 Zr1099 Zr 0.17142 0.21636 0.23654
 O1100 O 0.15989 0.27977 0.31720
 O1101 O 0.16211 0.30697 0.16924
 O1102 O 0.12312 0.23491 0.20131
 O1103 O 0.14789 0.16583 0.26763
 O1104 O 0.12704 0.23803 0.27398
 C1105 C 0.12847 0.26180 0.30366
 O1106 O 0.24437 0.32888 0.33118
 O1107 O 0.31502 0.18612 0.30953
 O1108 O 0.22387 0.26247 0.35259
 O1109 O 0.25574 0.20389 0.34313
 O1110 O 0.35655 0.26228 0.27546
 O1111 O 0.32175 0.32251 0.28953
 C1112 C 0.24067 0.23060 0.36519
 H1113 H 0.32015 0.20582 0.23740
 H1114 H 0.25682 0.33953 0.25405
 H1115 H 0.18870 0.21136 0.31019
 H1116 H 0.18930 0.23459 0.16472
 H1117 H 0.35345 0.33624 0.21672
 H1118 H 0.22954 0.36746 0.16178
 H1119 H 0.16432 0.33247 0.15439
 H1120 H 0.09849 0.22075 0.21090
 H1121 H 0.37979 0.27874 0.26589
 H1122 H 0.31195 0.16075 0.32452
 H1123 H 0.24421 0.13180 0.32247
 H1124 H 0.11833 0.16597 0.26514
 H1125 H 0.34772 0.33600 0.28287
 H1126 H 0.22387 0.33659 0.35041
 H1127 H 0.25301 0.16261 0.12916
 H1128 H 0.12802 0.16172 0.19867
 Zr1129 Zr 0.73067 0.70815 0.30305
 O1130 O 0.75558 0.67079 0.34611
 O1131 O 0.67179 0.71111 0.32156
 O1132 O 0.72925 0.73605 0.35885
 O1133 O 0.71297 0.63255 0.23419
 O1134 O 0.75453 0.79913 0.34644
 O1135 O 0.70629 0.64893 0.29859
 O1136 O 0.64406 0.75334 0.27725
 O1137 O 0.71746 0.76789 0.29122
 O1138 O 0.70042 0.70867 0.24937
 O1139 O 0.78612 0.73973 0.30297
 O1140 O 0.76915 0.68118 0.26283
 Zr1141 Zr 0.78263 0.77602 0.19441
 Zr1142 Zr 0.77270 0.79875 0.28810
 Zr1143 Zr 0.73934 0.68501 0.20880
 Zr1144 Zr 0.68965 0.76820 0.23673
 O1145 O 0.77414 0.63570 0.19346
 O1146 O 0.66822 0.82291 0.25846
 O1147 O 0.72668 0.74443 0.19378
 O1148 O 0.74358 0.80212 0.23410
 O1149 O 0.81272 0.77561 0.24793
 O1150 O 0.79468 0.71594 0.20607
 C1151 C 0.64279 0.73100 0.30800
 C1152 C 0.70157 0.62466 0.26944
 C1153 C 0.73873 0.77239 0.36919
 O1154 O 0.74042 0.85106 0.29903
 O1155 O 0.80279 0.84951 0.26490
 O1156 O 0.81498 0.83216 0.20180
 C1157 C 0.81860 0.85646 0.23130
 O1158 O 0.83374 0.67353 0.30536
 Zr1159 Zr 0.82308 0.71568 0.26024
 O1160 O 0.84112 0.77140 0.17555
 O1161 O 0.82387 0.81178 0.32305
 O1162 O 0.86844 0.74116 0.29696
 O1163 O 0.84896 0.66437 0.23563
 O1164 O 0.87081 0.73644 0.22445
 C1165 C 0.87153 0.75675 0.19244
 O1166 O 0.76101 0.81806 0.15388
 O1167 O 0.68575 0.66914 0.17852
 O1168 O 0.77725 0.75045 0.13779
 O1169 O 0.74768 0.68847 0.14787
 O1170 O 0.64110 0.74174 0.20476
 O1171 O 0.67641 0.80377 0.18711
 C1172 C 0.76260 0.71628 0.12558
 H1173 H 0.67475 0.69295 0.24951
 H1174 H 0.73861 0.83023 0.22672
 H1175 H 0.81160 0.70379 0.18589
 H1176 H 0.79916 0.73839 0.32894
 H1177 H 0.63874 0.82198 0.25504
 H1178 H 0.75629 0.86753 0.31802
 H1179 H 0.81957 0.83792 0.33584
 H1180 H 0.89363 0.72762 0.29097
 H1181 H 0.61683 0.75645 0.21160
 H1182 H 0.68983 0.64286 0.16590
 H1183 H 0.75749 0.61885 0.17545
 H1184 H 0.87809 0.66636 0.24118
 H1185 H 0.64926 0.81440 0.18987
 H1186 H 0.78356 0.82507 0.13609
 H1187 H 0.73360 0.66277 0.36423
 H1188 H 0.86266 0.66807 0.30644
 Zr1189 Zr 0.78357 0.28847 0.80995
 O1190 O 0.77392 0.32634 0.85838
 O1191 O 0.84418 0.27576 0.81912
 O1192 O 0.78569 0.25791 0.86477
 O1193 O 0.79562 0.36696 0.74212
 O1194 O 0.74422 0.20265 0.85678
 O1195 O 0.81102 0.34648 0.80396
 O1196 O 0.85897 0.23518 0.76794
 O1197 O 0.78663 0.22797 0.79449
 O1198 O 0.80488 0.28770 0.75244
 O1199 O 0.72473 0.26481 0.81570
 O1200 O 0.74340 0.32180 0.77600
 Zr1201 Zr 0.70842 0.23326 0.70644
 Zr1202 Zr 0.72754 0.20494 0.79773
 Zr1203 Zr 0.76360 0.31758 0.71806
 Zr1204 Zr 0.80580 0.22770 0.73630
 O1205 O 0.73290 0.37099 0.70758
 O1206 O 0.82370 0.16984 0.75330
 O1207 O 0.76686 0.25789 0.69939
 O1208 O 0.74868 0.20094 0.74029
 O1209 O 0.68604 0.23465 0.76348
 O1210 O 0.70523 0.29381 0.72155
 C1211 C 0.86821 0.25436 0.79926
 C1212 C 0.81182 0.37248 0.77588
 C1213 C 0.76730 0.22569 0.87759
 O1214 O 0.75781 0.15115 0.80741
 O1215 O 0.69284 0.15690 0.77448
 O1216 O 0.67736 0.17734 0.71280
 C1217 C 0.67591 0.15172 0.74101
 O1218 O 0.68750 0.33618 0.82682
 Zr1219 Zr 0.68580 0.29515 0.77930
 O1220 O 0.64748 0.24312 0.69956
 O1221 O 0.67635 0.19463 0.83311
 O1222 O 0.64293 0.27359 0.82057
 O1223 O 0.66543 0.35145 0.76026
 O1224 O 0.63140 0.28415 0.75008
 C1225 C 0.62266 0.26306 0.71980
 O1226 O 0.71807 0.19306 0.65976
 O1227 O 0.81482 0.32921 0.68303
 O1228 O 0.70909 0.26048 0.65033
 O1229 O 0.74715 0.31796 0.65847
 O1230 O 0.85097 0.25000 0.69778
 O1231 O 0.80599 0.19249 0.68456
 C1232 C 0.72640 0.29300 0.63718
 H1233 H 0.83178 0.30082 0.74976
 H1234 H 0.75008 0.17279 0.73142
 H1235 H 0.68722 0.30859 0.70408
 H1236 H 0.71494 0.26723 0.84283
 H1237 H 0.85173 0.16702 0.74464
 H1238 H 0.74105 0.13470 0.82562
 H1239 H 0.67854 0.16758 0.84478
 H1240 H 0.61967 0.29117 0.81918
 H1241 H 0.87358 0.23158 0.69913
 H1242 H 0.81203 0.35628 0.67159
 H1243 H 0.74879 0.38663 0.68806
 H1244 H 0.63756 0.35375 0.76962
 H1245 H 0.83167 0.17871 0.68264
 H1246 H 0.69253 0.18975 0.64501
 H1247 H 0.79984 0.32966 0.87246
 H1248 H 0.66011 0.34510 0.83219
 C1249 C 0.44449 1.01926 0.32249
 C1250 C 0.46422 0.98856 0.33816
 H1251 H 0.44295 1.04674 0.33925
 H1252 H 0.46833 0.96135 0.32164
 C1253 C -0.05347 0.52105 0.82601
 C1254 C -0.03487 0.48988 0.84193
 H1255 H -0.05539 0.54834 0.84302
 H1256 H -0.03088 0.46268 0.82533
 C1257 C 0.06380 -0.01794 0.81769
 C1258 C 0.03722 0.00777 0.83153
 H1259 H 0.07124 -0.04300 0.83626
 H1260 H 0.02754 0.03247 0.81370
 C1261 C 0.56575 0.47775 0.32788
 C1262 C 0.53835 0.50401 0.33880
 H1263 H 0.57374 0.45474 0.34864
 H1264 H 0.52817 0.52670 0.31881
 C1265 C 0.58243 0.47687 0.18023
 C1266 C 0.54584 0.46462 0.16726
 H1267 H 0.60500 0.48695 0.15943
 H1268 H 0.52332 0.45274 0.18720
 C1269 C 0.08592 0.98915 0.67158
 C1270 C 0.04849 0.97550 0.65666
 H1271 H 0.10900 0.99812 0.65084
 H1272 H 0.02635 0.96207 0.67615
 C1273 C -0.07376 0.50679 0.67880
 C1274 C -0.03584 0.51037 0.66557
 H1275 H -0.09779 0.50006 0.65827
 H1276 H -0.01150 0.51876 0.68513
 C1277 C 0.42447 0.01538 0.17440
 C1278 C 0.46145 0.02519 0.16085
 H1279 H 0.40115 0.00629 0.15387
 H1280 H 0.48480 0.03590 0.18057
 C1281 C 0.32056 0.41429 0.00053
 C1282 C 0.35216 0.40874 0.02436
 H1283 H 0.32358 0.43685 -0.02218
 H1284 H 0.35002 0.38755 0.04816
 C1285 C -0.17405 0.90730 0.49579
 C1286 C -0.14216 0.90153 0.51933
 H1287 H -0.17088 0.92931 0.47258
 H1288 H -0.14422 0.88095 0.54364
 C1289 C -0.16984 0.08817 1.00247
 C1290 C -0.15190 0.07284 0.97093
 H1291 H -0.15710 0.08302 1.03112
 H1292 H -0.16382 0.07779 0.94194
 C1293 C 0.32643 0.58477 0.50552
 C1294 C 0.34858 0.57133 0.47579
 H1295 H 0.33497 0.57738 0.53517
 H1296 H 0.34002 0.57733 0.44590
 C1297 C 0.17579 0.59275 0.49402
 C1298 C 0.15608 0.57458 0.52395
 H1299 H 0.16127 0.59524 0.46583
 H1300 H 0.16990 0.57421 0.55262
 C1301 C 0.68303 0.08498 -0.00689
 C1302 C 0.64992 0.09104 0.01743
 H1303 H 0.68265 0.05758 -0.02395
 H1304 H 0.65315 0.11178 0.04169
 C1305 C 0.67453 0.91225 0.50342
 C1306 C 0.64058 0.90327 0.48330
 H1307 H 0.67504 0.93765 0.52316
 H1308 H 0.64077 0.88041 0.46086
 C1309 C 0.16906 0.41416 1.01057
 C1310 C 0.13523 0.40462 0.99059
 H1311 H 0.16907 0.43923 1.03069
 H1312 H 0.13595 0.38219 0.96775
 C1313 C -0.00849 0.31188 0.42934
 C1314 C -0.02279 0.34667 0.41736
 H1315 H 0.00649 0.30978 0.45737
 H1316 H -0.03724 0.34845 0.38901
 C1317 C 0.49861 -0.18453 -0.06099
 C1318 C 0.48498 -0.15052 -0.07568
 H1319 H 0.51254 -0.18491 -0.03235
 H1320 H 0.47184 -0.15051 -0.10471
 C1321 C 0.00284 -0.18336 1.06951
 C1322 C 0.02000 -0.14845 1.08037
 H1323 H -0.01457 -0.18590 1.04279
 H1324 H 0.03668 -0.14640 1.10759
 C1325 C 0.51826 0.32115 0.57330
 C1326 C 0.52762 0.35707 0.58877
 H1327 H 0.50851 0.31853 0.54315
 H1328 H 0.53682 0.35964 0.61910
 C1329 C 0.49215 1.17284 0.59257
 C1330 C 0.51520 1.15878 0.56454
 H1331 H 0.47192 1.15304 0.60886
 H1332 H 0.53697 1.17862 0.55016
 C1333 C -0.02355 0.67152 1.09666
 C1334 C 0.00263 0.65716 1.07157
 H1335 H -0.04640 0.65250 1.11035
 H1336 H 0.02608 0.67699 1.05973
 C1337 C 0.51894 0.66975 -0.08073
 C1338 C 0.51104 0.65776 -0.04261
 H1339 H 0.52436 0.64721 -0.10273
 H1340 H 0.49915 0.67891 -0.02204
 C1341 C 0.01969 1.16783 0.40363
 C1342 C 0.00102 1.15363 0.43532
 H1343 H 0.03566 1.14823 0.38440
 H1344 H -0.01735 1.17325 0.45238
 C1345 C 0.77659 0.70267 0.92259
 C1346 C 0.75094 0.72928 0.90853
 H1347 H 0.80166 0.69466 0.90446
 H1348 H 0.72587 0.73830 0.92608
 C1349 C 0.26851 0.19647 0.42138
 C1350 C 0.24135 0.22171 0.40758
 H1351 H 0.29294 0.18883 0.40227
 H1352 H 0.21692 0.23098 0.42582
 C1353 C 0.72633 0.30796 0.43541
 C1354 C 0.75088 0.27955 0.42289
 H1355 H 0.70202 0.31573 0.41605
 H1356 H 0.77492 0.26952 0.44136
 C1357 C 0.23754 0.81402 0.92479
 C1358 C 0.26829 0.79447 0.90940
 H1359 H 0.21073 0.81645 0.90709
 H1360 H 0.29496 0.78959 0.92657
 C1361 C 0.24042 0.83607 0.07127
 C1362 C 0.23017 0.79751 0.08581
 H1363 H 0.24773 0.85955 0.09224
 H1364 H 0.21795 0.77477 0.06615
 C1365 C 0.73627 0.33786 0.58043
 C1366 C 0.72277 0.30123 0.59700
 H1367 H 0.74610 0.36174 0.60006
 H1368 H 0.70834 0.27861 0.57858
 C1369 C 0.25503 0.18165 0.56967
 C1370 C 0.26204 0.21941 0.58275
 H1371 H 0.24709 0.15821 0.59044
 H1372 H 0.27156 0.24308 0.56288
 C1373 C 0.74913 0.67405 0.06674
 C1374 C 0.76345 0.70855 0.08292
 H1375 H 0.73672 0.65060 0.08548
 H1376 H 0.77710 0.73177 0.06480
 C1377 C 0.15964 0.57751 0.25142
 C1378 C 0.16254 0.60502 0.22258
 H1379 H 0.17620 0.58288 0.27830
 H1380 H 0.14811 0.59974 0.19467
 C1381 C 0.66048 0.08051 0.75520
 C1382 C 0.65348 0.11366 0.73417
 H1383 H 0.68373 0.08191 0.77737
 H1384 H 0.63145 0.11365 0.71112
 C1385 C 0.83732 0.07279 0.25051
 C1386 C 0.82123 0.08973 0.28240
 H1387 H 0.83212 0.08612 0.22214
 H1388 H 0.82612 0.07725 0.31117
 C1389 C 0.34880 0.58459 0.74332
 C1390 C 0.33831 0.60919 0.77229
 H1391 H 0.34075 0.59198 0.71353
 H1392 H 0.34475 0.60172 0.80236
 C1393 C 0.33993 0.43403 0.75842
 C1394 C 0.33161 0.40992 0.72746
 H1395 H 0.32936 0.42553 0.78724
 H1396 H 0.34189 0.41902 0.69869
 C1397 C 0.83572 0.92509 0.25277
 C1398 C 0.84164 0.89254 0.22742
 H1399 H 0.80836 0.92410 0.26980
 H1400 H 0.86179 0.89644 0.20286
 C1401 C 0.66441 0.93079 0.73745
 C1402 C 0.66075 0.89971 0.76226
 H1403 H 0.68543 0.92963 0.71346
 H1404 H 0.64265 0.90251 0.78828
 C1405 C 0.15725 0.42753 0.23573
 C1406 C 0.15763 0.39818 0.26269
 H1407 H 0.17478 0.42480 0.20935
 H1408 H 0.14285 0.40258 0.29042
 C1409 C 0.06512 0.24468 0.81677
 C1410 C 0.10055 0.23378 0.83011
 H1411 H 0.06205 0.25652 0.78743
 H1412 H 0.10354 0.22298 0.85984
 C1413 C 0.57180 0.74224 0.31734
 C1414 C 0.60621 0.72853 0.33057
 H1415 H 0.56970 0.75474 0.28818
 H1416 H 0.60826 0.71703 0.36013
 C1417 C 0.56730 0.25329 0.18488
 C1418 C 0.60284 0.26282 0.16922
 H1419 H 0.56502 0.24289 0.21485
 H1420 H 0.60509 0.27324 0.13926
 C1421 C 0.07432 0.75805 0.68342
 C1422 C 0.10918 0.76718 0.66613
 H1423 H 0.07325 0.74913 0.71388
 H1424 H 0.10994 0.77576 0.63556
 C1425 C 0.92533 0.74559 0.67577
 C1426 C 0.89151 0.73787 0.65583
 H1427 H 0.92373 0.75425 0.70626
 H1428 H 0.89175 0.72598 0.62646
 C1429 C 0.41967 0.23934 0.17702
 C1430 C 0.38619 0.23376 0.15629
 H1431 H 0.41799 0.24555 0.20808
 H1432 H 0.38638 0.22395 0.12620
 C1433 C 0.42661 0.76726 0.34028
 C1434 C 0.41312 0.75074 0.30714
 H1435 H 0.40659 0.78230 0.35981
 H1436 H 0.43283 0.73311 0.28949
 C1437 C 0.92205 0.26376 0.84735
 C1438 C 0.90749 0.25139 0.81107
 H1439 H 0.90136 0.27283 0.86975
 H1440 H 0.92688 0.23572 0.79139
 C1441 C 0.55918 0.99001 0.68572
 C1442 C 0.53822 1.01738 0.66626
 H1443 H 0.56243 0.96029 0.67367
 H1444 H 0.53263 1.04609 0.67960
 C1445 C 0.04984 0.49033 1.19022
 C1446 C 0.02873 0.51790 1.17119
 H1447 H 0.05118 0.46016 1.17868
 H1448 H 0.02492 0.54728 1.18385
 C1449 C -0.08138 -0.01777 1.17027
 C1450 C -0.04236 -0.01791 1.16039
 H1451 H -0.10380 -0.01919 1.14731
 H1452 H -0.01947 -0.01578 1.18285
 C1453 C 0.43174 0.48377 0.68141
 C1454 C 0.46872 0.49250 0.66850
 H1455 H 0.40929 0.47182 0.66122
 H1456 H 0.49136 0.50455 0.68843
 C1457 C 0.44109 0.50008 -0.17549
 C1458 C 0.46270 0.52792 -0.15484
 H1459 H 0.43741 0.46989 -0.16405
 H1460 H 0.46926 0.55728 -0.16727
 C1461 C -0.06008 0.98678 0.31313
 C1462 C -0.03823 1.01467 0.33329
 H1463 H -0.06319 0.95639 0.32417
 H1464 H -0.03282 1.04423 0.32084
 C1465 C 0.07770 0.47916 0.32831
 C1466 C 0.03861 0.47912 0.33750
 H1467 H 0.09973 0.47718 0.35149
 H1468 H 0.01614 0.48172 0.31485
 C1469 C 0.58023 -0.02272 -0.17346
 C1470 C 0.54139 -0.02202 -0.16395
 H1471 H 0.60234 -0.02552 -0.15045
 H1472 H 0.51887 -0.01856 -0.18644
 C1473 C 0.67579 0.60150 -0.02950
 C1474 C 0.66428 0.57011 -0.00768
 H1475 H 0.65482 0.61250 -0.05088
 H1476 H 0.68505 0.55917 0.01384
 C1477 C 0.18527 1.09165 0.49534
 C1478 C 0.15648 1.08371 0.46829
 H1479 H 0.18221 1.07846 0.52414
 H1480 H 0.15976 1.09574 0.43911
 C1481 C 0.18019 -0.07086 0.99393
 C1482 C 0.15670 -0.06380 1.02483
 H1483 H 0.17278 -0.05782 0.96592
 H1484 H 0.16254 -0.07828 1.05251
 C1485 C 0.68223 0.43123 0.50019
 C1486 C 0.66016 0.44074 0.53133
 H1487 H 0.67477 0.44356 0.47189
 H1488 H 0.66593 0.42682 0.55931
 C1489 C -0.18341 0.41216 0.50349
 C1490 C -0.15784 0.42182 0.47432
 H1491 H -0.17752 0.42367 0.53260
 H1492 H -0.16448 0.41176 0.44487
 C1493 C 0.31707 -0.08007 -0.00025
 C1494 C 0.34299 -0.06952 -0.02890
 H1495 H 0.32233 -0.06945 0.02927
 H1496 H 0.33688 -0.07878 -0.05867
 C1497 C 0.32422 1.08560 0.49823
 C1498 C 0.35424 1.08781 0.52453
 H1499 H 0.32605 1.06464 0.47419
 H1500 H 0.35327 1.10951 0.54801
 C1501 C -0.18471 0.58155 0.99698
 C1502 C -0.15491 0.58518 1.02359
 H1503 H -0.18320 0.55861 0.97471
 H1504 H -0.15584 0.60860 1.04544
 C1505 C -0.00015 0.67898 0.58150
 C1506 C 0.02113 0.64606 0.58541
 H1507 H -0.02338 0.68037 0.55945
 H1508 H 0.04228 0.64346 0.60914
 C1509 C 0.49257 0.18418 0.07665
 C1510 C 0.52282 0.16393 0.06249
 H1511 H 0.46195 0.17544 0.06910
 H1512 H 0.55354 0.17197 0.06994
 C1513 C -0.01370 0.18473 0.92681
 C1514 C -0.02253 0.14827 0.91288
 H1515 H -0.00881 0.18998 0.95771
 H1516 H -0.02892 0.14455 0.88194
 C1517 C 0.48817 0.68524 0.42562
 C1518 C 0.47955 0.64808 0.41350
 H1519 H 0.49217 0.69214 0.45634
 H1520 H 0.47385 0.64263 0.38268
 C1521 C 0.51811 0.82275 0.42385
 C1522 C 0.48612 0.83623 0.44199
 H1523 H 0.54561 0.84110 0.42345
 H1524 H 0.45849 0.81864 0.44452
 C1525 C 0.01275 0.32378 0.92456
 C1526 C -0.01868 0.33635 0.94417
 H1527 H 0.04000 0.34248 0.92354
 H1528 H -0.04604 0.31836 0.94702
 C1529 C 0.47768 0.31856 0.08969
 C1530 C 0.49974 0.32894 0.05882
 H1531 H 0.45450 0.33740 0.10070
 H1532 H 0.52252 0.30922 0.04835
 C1533 C -0.01373 0.81575 0.58189
 C1534 C 0.01347 0.83061 0.55700
 H1535 H -0.04231 0.82956 0.58582
 H1536 H 0.04097 0.81497 0.55220
 C1537 C 0.22604 0.30697 0.05809
 C1538 C 0.25035 0.28146 0.07592
 H1539 H 0.19691 0.31255 0.07038
 H1540 H 0.27847 0.27403 0.06250
 C1541 C 0.72807 0.80620 0.55786
 C1542 C 0.75183 0.78050 0.57608
 H1543 H 0.69936 0.81321 0.57028
 H1544 H 0.77944 0.77185 0.56240
 C1545 C 0.23798 0.67793 0.57147
 C1546 C 0.24158 0.71684 0.58108
 H1547 H 0.23283 0.65600 0.59449
 H1548 H 0.24705 0.73935 0.55873
 C1549 C 0.73464 0.16454 0.08084
 C1550 C 0.73577 0.20306 0.09237
 H1551 H 0.73116 0.14114 0.10269
 H1552 H 0.74006 0.22677 0.07098
 C1553 C 0.74586 0.19130 0.93865
 C1554 C 0.77386 0.21298 0.91851
 H1555 H 0.71550 0.18858 0.92753
 H1556 H 0.80348 0.21822 0.93086
 C1557 C 0.24954 0.68611 0.42747
 C1558 C 0.27844 0.70650 0.40739
 H1559 H 0.21927 0.68441 0.41600
 H1560 H 0.30802 0.71099 0.42001
 C1561 C 0.72929 0.82426 0.41801
 C1562 C 0.73272 0.78513 0.41005
 H1563 H 0.72619 0.84532 0.39414
 H1564 H 0.73633 0.76364 0.43345
 C1565 C 0.22526 0.33322 0.91939
 C1566 C 0.22711 0.29416 0.91038
 H1567 H 0.22346 0.35515 0.89611
 H1568 H 0.22956 0.27186 0.93322
 C1569 C 0.83930 0.43975 0.75575
 C1570 C 0.83368 0.41095 0.78316
 H1571 H 0.82546 0.43604 0.72727
 H1572 H 0.84607 0.41472 0.81214
 C1573 C 0.34040 0.93702 0.24768
 C1574 C 0.33398 0.90792 0.27472
 H1575 H 0.32758 0.93345 0.21875
 H1576 H 0.34520 0.91193 0.30415
 C1577 C 0.18285 0.93648 0.74728
 C1578 C 0.18826 0.91171 0.71704
 H1579 H 0.19843 0.93121 0.77453
 H1580 H 0.17124 0.91551 0.69037
 C1581 C 0.68170 0.42359 0.25884
 C1582 C 0.68762 0.39948 0.22817
 H1583 H 0.69566 0.41683 0.28659
 H1584 H 0.67242 0.40489 0.20075
 C1585 C 0.66783 0.55964 0.24973
 C1586 C 0.67953 0.58619 0.27750
 H1587 H 0.67767 0.56413 0.21988
 H1588 H 0.67101 0.58070 0.30757
 C1589 C 0.16455 0.07128 0.74476
 C1590 C 0.17527 0.09688 0.77372
 H1591 H 0.17501 0.07714 0.71532
 H1592 H 0.16618 0.09024 0.80342
 C1593 C 0.32856 0.07670 0.25340
 C1594 C 0.31678 0.09639 0.22110
 H1595 H 0.31826 0.08690 0.28156
 H1596 H 0.32826 0.08807 0.19279
 C1597 C 0.83267 0.57890 0.75490
 C1598 C 0.82223 0.59943 0.72274
 H1599 H 0.82164 0.58857 0.78298
 H1600 H 0.83434 0.59145 0.69460
 C1601 C 0.94488 0.75553 0.18675
 C1602 C 0.90903 0.76385 0.17222
 H1603 H 0.94791 0.74078 0.21475
 H1604 H 0.90654 0.77617 0.14299
 C1605 C 0.43308 0.25729 0.67612
 C1606 C 0.40057 0.27787 0.66838
 H1607 H 0.43308 0.23551 0.69963
 H1608 H 0.39939 0.29758 0.64332
 C1609 C 0.42706 0.72556 0.84446
 C1610 C 0.41934 0.74973 0.81467
 H1611 H 0.40514 0.70332 0.85473
 H1612 H 0.44194 0.77195 0.80550
 C1613 C 0.92706 0.22049 0.33304
 C1614 C 0.88861 0.21893 0.34759
 H1615 H 0.93274 0.21063 0.30345
 H1616 H 0.88417 0.21574 0.37888
 C1617 C 0.05631 0.25583 0.31310
 C1618 C 0.09225 0.26922 0.32483
 H1619 H 0.05265 0.23798 0.28682
 H1620 H 0.09595 0.28484 0.35245
 C1621 C 0.56346 0.74761 0.82705
 C1622 C 0.59903 0.76615 0.83269
 H1623 H 0.55918 0.72603 0.80366
 H1624 H 0.60378 0.78562 0.85769
 C1625 C 0.56754 0.23622 0.68129
 C1626 C 0.58187 0.26417 0.70566
 H1627 H 0.58234 0.20815 0.67719
 H1628 H 0.56579 0.29147 0.71028
 C1629 C 0.07984 0.72880 0.15558
 C1630 C 0.08855 0.74642 0.18955
 H1631 H 0.10247 0.71415 0.13868
 H1632 H 0.06598 0.76301 0.20474
   
