data_POSCAR
  _audit_creation_date              2014-09-24
  _audit_creation_method            'ToBaCCo'
  _symmetry_space_group_name_H-M    'P1'
  _symmetry_Int_Tables_number       1
  _symmetry_cell_setting            triclinic
  loop_
  _symmetry_equiv_pos_as_xyz
 x,y,z
_cell_length_a 69.1401
_cell_length_b 75.6924
_cell_length_c 68.8227
_cell_angle_alpha 90.077600
_cell_angle_beta 89.755400
_cell_angle_gamma 90.060800
loop_
  _atom_site_label
  _atom_site_type_symbol
  _atom_site_fract_x
  _atom_site_fract_y
  _atom_site_fract_z
C1 C 0.34824 0.35033 0.31794
 C2 C 0.36324 0.33939 0.31116
 C3 C 0.37247 0.32753 0.32378
 C4 C 0.36726 0.32755 0.34357
 C5 C 0.35202 0.33807 0.35037
 C6 C 0.34223 0.34935 0.33750
 C7 C 0.33873 0.36175 0.30525
 C8 C 0.32279 0.37186 0.31150
 C9 C 0.31660 0.37059 0.33101
 C10 C 0.32621 0.35935 0.34409
 C11 C 0.31988 0.35757 0.36350
 C12 C 0.32980 0.34635 0.37635
 C13 C 0.34596 0.33689 0.36972
 H14 H 0.36703 0.33953 0.29587
 H15 H 0.37468 0.31892 0.35364
 H16 H 0.34386 0.36278 0.29039
 H17 H 0.30415 0.37808 0.33591
 H18 H 0.30735 0.36482 0.36862
 H19 H 0.35335 0.32796 0.37951
 C20 C 0.36224 0.85994 -0.18168
 C21 C 0.37886 0.85153 -0.18850
 C22 C 0.38691 0.83692 -0.17874
 C23 C 0.37685 0.83011 -0.16240
 C24 C 0.35989 0.83843 -0.15544
 C25 C 0.35268 0.85347 -0.16516
 C26 C 0.35544 0.87506 -0.19107
 C27 C 0.33941 0.88461 -0.18388
 C28 C 0.32942 0.87759 -0.16766
 C29 C 0.33603 0.86222 -0.15829
 C30 C 0.32666 0.85591 -0.14165
 C31 C 0.33398 0.84136 -0.13128
 C32 C 0.35044 0.83246 -0.13848
 H33 H 0.38531 0.85640 -0.20183
 H34 H 0.38264 0.81900 -0.15443
 H35 H 0.36272 0.87916 -0.20427
 H36 H 0.31722 0.88454 -0.16141
 H37 H 0.31373 0.86259 -0.13656
 H38 H 0.35627 0.82134 -0.13055
 C39 C 0.87967 0.37639 -0.17192
 C40 C 0.89557 0.37060 -0.18288
 C41 C 0.90430 0.35403 -0.17939
 C42 C 0.89682 0.34368 -0.16398
 C43 C 0.88087 0.34940 -0.15291
 C44 C 0.87194 0.36562 -0.15721
 C45 C 0.87135 0.39284 -0.17564
 C46 C 0.85462 0.39844 -0.16565
 C47 C 0.84632 0.38719 -0.15159
 C48 C 0.85538 0.37114 -0.14672
 C49 C 0.84859 0.36076 -0.13119
 C50 C 0.85819 0.34505 -0.12603
 C51 C 0.87395 0.33925 -0.13737
 H52 H 0.90026 0.37882 -0.19485
 H53 H 0.90367 0.33137 -0.15998
 H54 H 0.87751 0.40105 -0.18700
 H55 H 0.83357 0.39142 -0.14362
 H56 H 0.83639 0.36531 -0.12261
 H57 H 0.88097 0.32685 -0.13395
 C58 C 0.84456 0.85280 0.31389
 C59 C 0.85794 0.83974 0.30830
 C60 C 0.86089 0.82474 0.31994
 C61 C 0.85072 0.82325 0.33760
 C62 C 0.83709 0.83600 0.34315
 C63 C 0.83384 0.85077 0.33119
 C64 C 0.84148 0.86764 0.30218
 C65 C 0.82779 0.88075 0.30735
 C66 C 0.81677 0.87819 0.32450
 C67 C 0.81974 0.86338 0.33642
 C68 C 0.80873 0.86091 0.35346
 C69 C 0.81180 0.84609 0.36543
 C70 C 0.82636 0.83395 0.36029
 H71 H 0.86563 0.84101 0.29462
 H72 H 0.85318 0.81196 0.34694
 H73 H 0.84937 0.86844 0.28860
 H74 H 0.80642 0.88802 0.32923
 H75 H 0.79749 0.87031 0.35713
 H76 H 0.82932 0.82273 0.36957
 C77 C 0.64065 0.65169 0.33473
 C78 C 0.62532 0.65548 0.32195
 C79 C 0.61206 0.66909 0.32630
 C80 C 0.61368 0.67807 0.34412
 C81 C 0.62940 0.67516 0.35634
 C82 C 0.64299 0.66201 0.35167
 C83 C 0.65411 0.63829 0.33054
 C84 C 0.66980 0.63500 0.34311
 C85 C 0.67215 0.64583 0.35962
 C86 C 0.65915 0.65952 0.36371
 C87 C 0.66250 0.67121 0.37923
 C88 C 0.64943 0.68503 0.38337
 C89 C 0.63226 0.68603 0.37254
 H90 H 0.62419 0.64832 0.30836
 H91 H 0.60316 0.68805 0.34811
 H92 H 0.65247 0.63060 0.31737
 H93 H 0.68401 0.64354 0.36953
 H94 H 0.67581 0.66997 0.38732
 H95 H 0.62145 0.69588 0.37603
 C96 C 0.66636 0.14985 -0.17830
 C97 C 0.64859 0.15747 -0.18296
 C98 C 0.64240 0.17314 -0.17396
 C99 C 0.65495 0.18188 -0.16106
 C100 C 0.67307 0.17449 -0.15649
 C101 C 0.67858 0.15820 -0.16487
 C102 C 0.67188 0.13388 -0.18686
 C103 C 0.68930 0.12533 -0.18176
 C104 C 0.70144 0.13388 -0.16812
 C105 C 0.69625 0.15024 -0.15984
 C106 C 0.70841 0.15868 -0.14645
 C107 C 0.70350 0.17525 -0.13843
 C108 C 0.68569 0.18301 -0.14358
 H109 H 0.63935 0.15099 -0.19349
 H110 H 0.65042 0.19408 -0.15418
 H111 H 0.66260 0.12856 -0.19804
 H112 H 0.71468 0.12772 -0.16330
 H113 H 0.72169 0.15220 -0.14221
 H114 H 0.68167 0.19580 -0.13777
 C115 C 0.16855 0.65111 -0.16528
 C116 C 0.15731 0.65960 -0.17951
 C117 C 0.15035 0.67678 -0.17627
 C118 C 0.15386 0.68513 -0.15845
 C119 C 0.16469 0.67676 -0.14411
 C120 C 0.17236 0.65981 -0.14758
 C121 C 0.17618 0.63419 -0.16857
 C122 C 0.18820 0.62581 -0.15470
 C123 C 0.19195 0.63501 -0.13713
 C124 C 0.18397 0.65168 -0.13341
 C125 C 0.18763 0.66050 -0.11579
 C126 C 0.17953 0.67721 -0.11214
 C127 C 0.16818 0.68526 -0.12644
 H128 H 0.15447 0.65313 -0.19327
 H129 H 0.14814 0.69826 -0.15579
 H130 H 0.17213 0.62758 -0.18187
 H131 H 0.20174 0.62974 -0.12641
 H132 H 0.19652 0.65431 -0.10480
 H133 H 0.16236 0.69838 -0.12394
 C134 C 0.13559 0.14563 0.34540
 C135 C 0.11778 0.15095 0.33761
 C136 C 0.11032 0.16820 0.34076
 C137 C 0.12162 0.17998 0.35208
 C138 C 0.13972 0.17503 0.35940
 C139 C 0.14661 0.15774 0.35621
 C140 C 0.14264 0.12840 0.34227
 C141 C 0.16047 0.12289 0.35026
 C142 C 0.17137 0.13538 0.36083
 C143 C 0.16472 0.15266 0.36360
 C144 C 0.17623 0.16506 0.37325
 C145 C 0.16976 0.18243 0.37595
 C146 C 0.15127 0.18727 0.36953
 H147 H 0.11035 0.14160 0.32840
 H148 H 0.11643 0.19302 0.35574
 H149 H 0.13373 0.11912 0.33432
 H150 H 0.18562 0.13206 0.36617
 H151 H 0.19043 0.16132 0.37846
 H152 H 0.14630 0.20071 0.37168
 C153 C 0.66090 0.35603 0.67566
 C154 C 0.64890 0.34775 0.68956
 C155 C 0.63629 0.33415 0.68387
 C156 C 0.63501 0.32938 0.66427
 C157 C 0.64689 0.33735 0.65037
 C158 C 0.66004 0.35060 0.65600
 C159 C 0.67441 0.36895 0.68118
 C160 C 0.68722 0.37633 0.66741
 C161 C 0.68617 0.37079 0.64789
 C162 C 0.67283 0.35788 0.64211
 C163 C 0.67258 0.35158 0.62285
 C164 C 0.65960 0.33816 0.61735
 C165 C 0.64659 0.33140 0.63115
 H166 H 0.65001 0.35124 0.70479
 H167 H 0.62534 0.31877 0.66002
 H168 H 0.67541 0.37283 0.69631
 H169 H 0.69586 0.37647 0.63716
 H170 H 0.68273 0.35680 0.61227
 H171 H 0.63691 0.32071 0.62719
 C172 C 0.64721 0.86168 1.15928
 C173 C 0.63313 0.85664 1.17295
 C174 C 0.62181 0.84117 1.17039
 C175 C 0.62523 0.83099 1.15340
 C176 C 0.63968 0.83560 1.13996
 C177 C 0.65070 0.85100 1.14291
 C178 C 0.65796 0.87726 1.16186
 C179 C 0.67242 0.88215 1.14842
 C180 C 0.67611 0.87108 1.13241
 C181 C 0.66527 0.85569 1.12948
 C182 C 0.66884 0.84490 1.11332
 C183 C 0.65799 0.82945 1.11029
 C184 C 0.64331 0.82496 1.12361
 H185 H 0.63183 0.86463 1.18588
 H186 H 0.61644 0.81961 1.14998
 H187 H 0.65479 0.88572 1.17418
 H188 H 0.68759 0.87430 1.12225
 H189 H 0.67995 0.84865 1.10295
 H190 H 0.63504 0.81294 1.12152
 C191 C 0.14492 0.34985 1.17938
 C192 C 0.13176 0.34421 1.19360
 C193 C 0.12165 0.32800 1.19185
 C194 C 0.12652 0.31706 1.17581
 C195 C 0.14039 0.32227 1.16198
 C196 C 0.14943 0.33884 1.16357
 C197 C 0.15318 0.36667 1.18054
 C198 C 0.16570 0.37280 1.16597
 C199 C 0.17092 0.36155 1.15055
 C200 C 0.16276 0.34453 1.14921
 C201 C 0.16716 0.33329 1.13352
 C202 C 0.15822 0.31663 1.13192
 C203 C 0.14492 0.31126 1.14626
 H204 H 0.12981 0.35270 1.20605
 H205 H 0.11910 0.30475 1.17320
 H206 H 0.14942 0.37532 1.19256
 H207 H 0.18069 0.36628 1.13935
 H208 H 0.17718 0.33766 1.12235
 H209 H 0.13816 0.29837 1.14526
 C210 C 0.15226 0.84819 0.66778
 C211 C 0.13452 0.83939 0.67058
 C212 C 0.13014 0.82365 0.66034
 C213 C 0.14413 0.81707 0.64718
 C214 C 0.16186 0.82566 0.64439
 C215 C 0.16599 0.84128 0.65465
 C216 C 0.15661 0.86366 0.67817
 C217 C 0.17473 0.87207 0.67610
 C218 C 0.18824 0.86508 0.66278
 C219 C 0.18398 0.84980 0.65200
 C220 C 0.19759 0.84267 0.63892
 C221 C 0.19362 0.82692 0.62873
 C222 C 0.17572 0.81850 0.63176
 H223 H 0.12401 0.84514 0.68042
 H224 H 0.14186 0.80463 0.63975
 H225 H 0.14586 0.86907 0.68801
 H226 H 0.20235 0.87116 0.66121
 H227 H 0.21122 0.84945 0.63667
 H228 H 0.17262 0.80607 0.62459
 C229 C 0.35585 0.62929 0.68616
 C230 C 0.36913 0.63925 0.69678
 C231 C 0.37504 0.65604 0.69039
 C232 C 0.36812 0.66246 0.67252
 C233 C 0.35480 0.65250 0.66157
 C234 C 0.34842 0.63597 0.66862
 C235 C 0.34977 0.61278 0.69297
 C236 C 0.33604 0.60286 0.68270
 C237 C 0.32829 0.60967 0.66543
 C238 C 0.33458 0.62609 0.65821
 C239 C 0.32733 0.63274 0.64073
 C240 C 0.33401 0.64894 0.63312
 C241 C 0.34768 0.65880 0.64377
 H242 H 0.37486 0.63393 0.71019
 H243 H 0.37268 0.67536 0.66742
 H244 H 0.35549 0.60774 0.70652
 H245 H 0.31770 0.60201 0.65744
 H246 H 0.31638 0.62526 0.63308
 H247 H 0.35302 0.67123 0.63811
 C248 C 0.33503 0.12907 1.18913
 C249 C 0.35001 0.13889 1.19725
 C250 C 0.35631 0.15495 1.18899
 C251 C 0.34801 0.16019 1.17111
 C252 C 0.33286 0.15027 1.16266
 C253 C 0.32613 0.13484 1.17202
 C254 C 0.32875 0.11361 1.19824
 C255 C 0.31318 0.10365 1.19087
 C256 C 0.30389 0.10984 1.17395
 C257 C 0.31049 0.12516 1.16437
 C258 C 0.30174 0.13087 1.14719
 C259 C 0.30862 0.14588 1.13721
 C260 C 0.32414 0.15559 1.14518
 H261 H 0.35708 0.13354 1.20996
 H262 H 0.35248 0.17238 1.16420
 H263 H 0.33548 0.10998 1.21184
 H264 H 0.29210 0.10239 1.16762
 H265 H 0.28943 0.12360 1.14165
 H266 H 0.32962 0.16715 1.13769
 C267 C 0.84498 0.64419 1.17360
 C268 C 0.86226 0.65335 1.17682
 C269 C 0.86664 0.66887 1.16648
 C270 C 0.85376 0.67462 1.15198
 C271 C 0.83651 0.66532 1.14834
 C272 C 0.83193 0.65027 1.15953
 C273 C 0.84058 0.62908 1.18444
 C274 C 0.82310 0.61975 1.18167
 C275 C 0.80991 0.62629 1.16782
 C276 C 0.81433 0.64128 1.15664
 C277 C 0.80153 0.64720 1.14235
 C278 C 0.80627 0.66167 1.13040
 C279 C 0.82378 0.67078 1.13369
 H280 H 0.87234 0.64831 1.18746
 H281 H 0.85688 0.68654 1.14385
 H282 H 0.85061 0.62515 1.19567
 H283 H 0.79659 0.61927 1.16485
 H284 H 0.78786 0.64042 1.14053
 H285 H 0.82782 0.68184 1.12457
 C286 C 0.85137 0.15821 0.66808
 C287 C 0.86685 0.16993 0.67097
 C288 C 0.86748 0.18632 0.66129
 C289 C 0.85236 0.19081 0.64857
 C290 C 0.83694 0.17918 0.64532
 C291 C 0.83627 0.16297 0.65534
 C292 C 0.85106 0.14153 0.67709
 C293 C 0.83584 0.12973 0.67343
 C294 C 0.82054 0.13481 0.66139
 C295 C 0.82072 0.15129 0.65221
 C296 C 0.80602 0.15585 0.63924
 C297 C 0.80711 0.17149 0.62820
 C298 C 0.82256 0.18324 0.63167
 H299 H 0.87864 0.16607 0.68037
 H300 H 0.85254 0.20344 0.64116
 H301 H 0.86291 0.13747 0.68632
 H302 H 0.80891 0.12555 0.65855
 H303 H 0.79393 0.14690 0.63752
 H304 H 0.82394 0.19525 0.62326
 C305 C 0.34076 0.34820 0.69378
 C306 C 0.32845 0.36214 0.69903
 C307 C 0.31178 0.36595 0.68810
 C308 C 0.30776 0.35557 0.67159
 C309 C 0.31970 0.34131 0.66646
 C310 C 0.33627 0.33761 0.67759
 C311 C 0.35729 0.34452 0.70477
 C312 C 0.36910 0.32984 0.70045
 C313 C 0.36438 0.31928 0.68423
 C314 C 0.34822 0.32319 0.67268
 C315 C 0.34361 0.31270 0.65651
 C316 C 0.32690 0.31607 0.64542
 C317 C 0.31507 0.33049 0.65058
 H318 H 0.33162 0.36963 0.71204
 H319 H 0.29533 0.35852 0.66265
 H320 H 0.36088 0.35323 0.71670
 H321 H 0.37291 0.30770 0.68079
 H322 H 0.35315 0.30193 0.65257
 H323 H 0.30191 0.33308 0.64260
 C324 C 0.34765 0.87893 0.18009
 C325 C 0.33430 0.89156 0.18682
 C326 C 0.31850 0.89670 0.17522
 C327 C 0.31625 0.88892 0.15677
 C328 C 0.32963 0.87661 0.14972
 C329 C 0.34541 0.87163 0.16135
 C330 C 0.36296 0.87315 0.19191
 C331 C 0.37616 0.86035 0.18508
 C332 C 0.37418 0.85387 0.16603
 C333 C 0.35874 0.85908 0.15436
 C334 C 0.35607 0.85137 0.13605
 C335 C 0.34013 0.85596 0.12454
 C336 C 0.32715 0.86887 0.13137
 H337 H 0.33635 0.89745 0.20102
 H338 H 0.30383 0.89214 0.14793
 H339 H 0.36418 0.87822 0.20657
 H340 H 0.38457 0.84451 0.16024
 H341 H 0.36596 0.84116 0.13120
 H342 H 0.31497 0.87278 0.12250
 C343 C 0.84425 0.36788 0.18321
 C344 C 0.83611 0.38380 0.18986
 C345 C 0.81914 0.39047 0.18143
 C346 C 0.81030 0.38090 0.16638
 C347 C 0.81830 0.36505 0.15962
 C348 C 0.83535 0.35845 0.16800
 C349 C 0.86116 0.36130 0.19156
 C350 C 0.86973 0.34559 0.18473
 C351 C 0.86066 0.33617 0.16956
 C352 C 0.84343 0.34244 0.16120
 C353 C 0.83403 0.33298 0.14629
 C354 C 0.81672 0.33942 0.13814
 C355 C 0.80931 0.35567 0.14469
 H356 H 0.84316 0.39113 0.20137
 H357 H 0.79693 0.38563 0.16009
 H358 H 0.86753 0.36840 0.20363
 H359 H 0.86709 0.32409 0.16409
 H360 H 0.83993 0.32050 0.14135
 H361 H 0.79643 0.36114 0.13810
 C362 C 0.85591 0.83836 0.68463
 C363 C 0.85251 0.85467 0.69361
 C364 C 0.84209 0.86802 0.68404
 C365 C 0.83441 0.86459 0.66547
 C366 C 0.83751 0.84822 0.65633
 C367 C 0.84848 0.83514 0.66591
 C368 C 0.86698 0.82534 0.69393
 C369 C 0.87090 0.80918 0.68463
 C370 C 0.86341 0.80609 0.66601
 C371 C 0.85228 0.81890 0.65665
 C372 C 0.84526 0.81581 0.63797
 C373 C 0.83435 0.82866 0.62832
 C374 C 0.83027 0.84480 0.63760
 H375 H 0.85808 0.85698 0.70809
 H376 H 0.82649 0.87481 0.65790
 H377 H 0.87267 0.82783 0.70833
 H378 H 0.86673 0.79386 0.65848
 H379 H 0.84826 0.80331 0.63084
 H380 H 0.82191 0.85475 0.63006
 C381 C 0.66218 0.64009 0.66723
 C382 C 0.67428 0.62590 0.67234
 C383 C 0.68865 0.61976 0.65939
 C384 C 0.69065 0.62816 0.64124
 C385 C 0.67933 0.64278 0.63639
 C386 C 0.66488 0.64870 0.64927
 C387 C 0.64746 0.64583 0.67981
 C388 C 0.63492 0.65968 0.67448
 C389 C 0.63809 0.66841 0.65664
 C390 C 0.65317 0.66323 0.64417
 C391 C 0.65670 0.67225 0.62661
 C392 C 0.67148 0.66659 0.61397
 C393 C 0.68249 0.65168 0.61888
 H394 H 0.67257 0.61981 0.68647
 H395 H 0.70105 0.62335 0.63069
 H396 H 0.64580 0.63940 0.69377
 H397 H 0.62860 0.67899 0.65213
 H398 H 0.64796 0.68358 0.62274
 H399 H 0.69403 0.64733 0.60930
 C400 C 0.65027 0.14660 0.15161
 C401 C 0.66000 0.13092 0.15653
 C402 C 0.67683 0.12581 0.14641
 C403 C 0.68423 0.13690 0.13175
 C404 C 0.67467 0.15249 0.12661
 C405 C 0.65759 0.15735 0.13651
 C406 C 0.63305 0.15147 0.16112
 C407 C 0.62291 0.16681 0.15558
 C408 C 0.63044 0.17741 0.14058
 C409 C 0.64765 0.17280 0.13106
 C410 C 0.65477 0.18321 0.11579
 C411 C 0.67163 0.17831 0.10563
 C412 C 0.68162 0.16300 0.11131
 H413 H 0.65411 0.12240 0.16774
 H414 H 0.69739 0.13328 0.12412
 H415 H 0.62752 0.14329 0.17279
 H416 H 0.62259 0.18901 0.13586
 H417 H 0.64713 0.19515 0.11178
 H418 H 0.69445 0.15894 0.10340
 C419 C 0.15684 0.64990 0.17235
 C420 C 0.16213 0.63210 0.17313
 C421 C 0.17817 0.62581 0.16265
 C422 C 0.18890 0.63760 0.15104
 C423 C 0.18356 0.65552 0.14987
 C424 C 0.16751 0.66171 0.16070
 C425 C 0.14134 0.65610 0.18353
 C426 C 0.13645 0.67412 0.18373
 C427 C 0.14676 0.68585 0.17166
 C428 C 0.16231 0.67973 0.16018
 C429 C 0.17308 0.69141 0.14862
 C430 C 0.18910 0.68542 0.13773
 C431 C 0.19418 0.66742 0.13837
 H432 H 0.15406 0.62318 0.18245
 H433 H 0.20131 0.63280 0.14293
 H434 H 0.13319 0.64687 0.19241
 H435 H 0.14315 0.69978 0.17174
 H436 H 0.16898 0.70522 0.14808
 H437 H 0.20666 0.66278 0.13027
 C438 C 0.14055 0.13813 0.65054
 C439 C 0.14669 0.12313 0.66056
 C440 C 0.16337 0.11390 0.65476
 C441 C 0.17443 0.12050 0.63910
 C442 C 0.16863 0.13586 0.62916
 C443 C 0.15147 0.14459 0.63478
 C444 C 0.12349 0.14667 0.65607
 C445 C 0.11687 0.16154 0.64593
 C446 C 0.12792 0.16819 0.63036
 C447 C 0.14522 0.15978 0.62471
 C448 C 0.15631 0.16623 0.60914
 C449 C 0.17366 0.15783 0.60355
 C450 C 0.17964 0.14260 0.61368
 H451 H 0.13839 0.11868 0.67302
 H452 H 0.18732 0.11355 0.63442
 H453 H 0.11532 0.14173 0.66841
 H454 H 0.12293 0.17972 0.62252
 H455 H 0.15130 0.17771 0.60124
 H456 H 0.19307 0.13614 0.60975
 C457 C 0.34993 0.64108 0.31150
 C458 C 0.34552 0.62481 0.30297
 C459 C 0.33288 0.61289 0.31216
 C460 C 0.32416 0.61772 0.32991
 C461 C 0.32857 0.63404 0.33872
 C462 C 0.34172 0.64566 0.32957
 C463 C 0.36228 0.65294 0.30203
 C464 C 0.36664 0.66941 0.31034
 C465 C 0.35914 0.67366 0.32877
 C466 C 0.34655 0.66191 0.33838
 C467 C 0.33846 0.66630 0.35646
 C468 C 0.32492 0.65507 0.36561
 C469 C 0.32003 0.63896 0.35645
 H470 H 0.35180 0.62148 0.28898
 H471 H 0.31429 0.60865 0.33704
 H472 H 0.36842 0.64942 0.28803
 H473 H 0.36251 0.68635 0.33525
 H474 H 0.34286 0.67851 0.36336
 H475 H 0.30934 0.63028 0.36289
 C476 C 0.35817 0.14661 0.82819
 C477 C 0.35230 0.13196 0.81723
 C478 C 0.33450 0.12338 0.82097
 C479 C 0.32215 0.13040 0.83549
 C480 C 0.32746 0.14553 0.84611
 C481 C 0.34573 0.15338 0.84267
 C482 C 0.37627 0.15469 0.82485
 C483 C 0.38214 0.16922 0.83615
 C484 C 0.36956 0.17591 0.85036
 C485 C 0.35146 0.16823 0.85353
 C486 C 0.33883 0.17561 0.86709
 C487 C 0.32026 0.16865 0.86989
 C488 C 0.31476 0.15323 0.85986
 H489 H 0.36168 0.12739 0.80565
 H490 H 0.30848 0.12407 0.83875
 H491 H 0.38591 0.14953 0.81375
 H492 H 0.37371 0.18747 0.85870
 H493 H 0.34325 0.18725 0.87517
 H494 H 0.30045 0.14773 0.86216
 C495 C 0.86697 0.64141 0.83190
 C496 C 0.85661 0.62991 0.81961
 C497 C 0.83809 0.62387 0.82503
 C498 C 0.83046 0.62868 0.84320
 C499 C 0.84058 0.64002 0.85554
 C500 C 0.85876 0.64665 0.84983
 C501 C 0.88516 0.64806 0.82642
 C502 C 0.89505 0.66023 0.83837
 C503 C 0.88648 0.66552 0.85606
 C504 C 0.86855 0.65872 0.86196
 C505 C 0.86012 0.66396 0.87970
 C506 C 0.84217 0.65702 0.88554
 C507 C 0.83251 0.64509 0.87334
 H508 H 0.86259 0.62617 0.80562
 H509 H 0.81641 0.62371 0.84766
 H510 H 0.89159 0.64374 0.81285
 H511 H 0.89355 0.67525 0.86515
 H512 H 0.86758 0.67325 0.88906
 H513 H 0.81840 0.64006 0.87754
 C514 C 0.83590 0.14511 0.32456
 C515 C 0.83374 0.12866 0.31567
 C516 C 0.82153 0.11580 0.32372
 C517 C 0.81104 0.11969 0.34075
 C518 C 0.81329 0.13617 0.35001
 C519 C 0.82595 0.14888 0.34195
 C520 C 0.84767 0.15794 0.31604
 C521 C 0.84981 0.17459 0.32465
 C522 C 0.84063 0.17818 0.34247
 C523 C 0.82849 0.16542 0.35109
 C524 C 0.81855 0.16904 0.36843
 C525 C 0.80549 0.15667 0.37645
 C526 C 0.80298 0.14025 0.36702
 H527 H 0.84137 0.12594 0.30219
 H528 H 0.80141 0.10984 0.34688
 H529 H 0.85511 0.15504 0.30249
 H530 H 0.84238 0.19105 0.34917
 H531 H 0.82102 0.18157 0.37563
 H532 H 0.79273 0.13071 0.37265
 C533 C 0.64119 0.35363 0.31637
 C534 C 0.65249 0.36903 0.31447
 C535 C 0.66749 0.37269 0.32775
 C536 C 0.67054 0.36093 0.34331
 C537 C 0.66007 0.34521 0.34487
 C538 C 0.64524 0.34160 0.33150
 C539 C 0.62632 0.34973 0.30309
 C540 C 0.61563 0.33390 0.30472
 C541 C 0.62015 0.32201 0.31970
 C542 C 0.63472 0.32575 0.33305
 C543 C 0.63928 0.31353 0.34758
 C544 C 0.65473 0.31657 0.36037
 C545 C 0.66478 0.33271 0.35917
 H546 H 0.64997 0.37780 0.30233
 H547 H 0.68138 0.36378 0.35418
 H548 H 0.62307 0.35898 0.29157
 H549 H 0.61272 0.30942 0.32068
 H550 H 0.63087 0.30149 0.34871
 H551 H 0.67686 0.33527 0.36875
 C552 C 0.66381 0.85530 0.81396
 C553 C 0.67024 0.87209 0.80829
 C554 C 0.68620 0.88005 0.81739
 C555 C 0.69617 0.87069 0.83185
 C556 C 0.69005 0.85373 0.83745
 C557 C 0.67365 0.84609 0.82865
 C558 C 0.64749 0.84774 0.80530
 C559 C 0.64012 0.83139 0.81172
 C560 C 0.65021 0.82216 0.82629
 C561 C 0.66706 0.82929 0.83457
 C562 C 0.67735 0.81996 0.84878
 C563 C 0.69399 0.82729 0.85736
 C564 C 0.69998 0.84436 0.85181
 H565 H 0.66270 0.87902 0.79682
 H566 H 0.70848 0.87672 0.83897
 H567 H 0.64049 0.85478 0.79359
 H568 H 0.64478 0.80962 0.83156
 H569 H 0.67259 0.80682 0.85284
 H570 H 0.71236 0.85043 0.85875
 C571 C 0.14336 0.34951 0.83582
 C572 C 0.14626 0.36763 0.83266
 C573 C 0.15747 0.37770 0.84559
 C574 C 0.16500 0.36955 0.86227
 C575 C 0.16218 0.35144 0.86558
 C576 C 0.15146 0.34130 0.85227
 C577 C 0.13331 0.33931 0.82225
 C578 C 0.13132 0.32101 0.82477
 C579 C 0.13912 0.31284 0.84129
 C580 C 0.14946 0.32286 0.85500
 C581 C 0.15877 0.31469 0.87076
 C582 C 0.17001 0.32474 0.88377
 C583 C 0.17095 0.34318 0.88142
 H584 H 0.14022 0.37380 0.81985
 H585 H 0.17404 0.37704 0.87213
 H586 H 0.12736 0.34552 0.80940
 H587 H 0.13781 0.29865 0.84300
 H588 H 0.15804 0.30046 0.87232
 H589 H 0.17912 0.35113 0.89161
 C590 C 0.12722 0.83972 0.35356
 C591 C 0.12982 0.85597 0.34415
 C592 C 0.14562 0.86692 0.34867
 C593 C 0.15895 0.86123 0.36276
 C594 C 0.15664 0.84488 0.37212
 C595 C 0.14063 0.83414 0.36762
 C596 C 0.11152 0.82886 0.34885
 C597 C 0.10912 0.81227 0.35772
 C598 C 0.12239 0.80691 0.37202
 C599 C 0.13812 0.81776 0.37705
 C600 C 0.15150 0.81238 0.39115
 C601 C 0.16779 0.82287 0.39559
 C602 C 0.17021 0.83908 0.38577
 H603 H 0.11971 0.85988 0.33297
 H604 H 0.17106 0.86959 0.36666
 H605 H 0.10114 0.83339 0.33821
 H606 H 0.12084 0.79410 0.37884
 H607 H 0.14905 0.80005 0.39873
 H608 H 0.18286 0.84716 0.38840
 O609 O 0.22101 1.00494 0.30052
 O610 O 0.24009 0.97248 0.26542
 O611 O 0.24724 1.00483 0.27332
 O612 O 0.21402 0.97157 0.29264
 O613 O 0.19161 0.98002 0.27190
 O614 O 0.22539 1.01348 0.25208
 O615 O 0.21811 0.98104 0.24425
 O616 O 0.19914 1.01347 0.27929
 Cu617 Cu 0.23262 0.98762 0.28528
 Cu618 Cu 0.20613 0.99774 0.25989
 C619 C 0.20711 1.01502 0.29578
 C620 C 0.23275 0.97171 0.24855
 C621 C 0.24233 1.01449 0.25912
 C622 C 0.19724 0.96993 0.28551
 O623 O 0.26257 0.47009 0.76368
 O624 O 0.25128 0.50881 0.79397
 O625 O 0.24007 0.47647 0.79346
 O626 O 0.27407 0.50261 0.76430
 O627 O 0.25062 0.51005 0.74425
 O628 O 0.21639 0.48323 0.77329
 O629 O 0.22783 0.51614 0.77385
 O630 O 0.23879 0.47709 0.74379
 Cu631 Cu 0.25941 0.48880 0.78080
 Cu632 Cu 0.23107 0.49740 0.75674
 C633 C 0.25253 0.46692 0.74866
 C634 C 0.23747 0.51895 0.78922
 C635 C 0.22248 0.47543 0.78841
 C636 C 0.26827 0.51077 0.74932
 O637 O 0.76130 -0.01283 0.19143
 O638 O 0.78641 0.01974 0.22190
 O639 O 0.78724 -0.01404 0.21850
 O640 O 0.76115 0.02106 0.19349
 O641 O 0.73743 0.01970 0.21503
 O642 O 0.76427 -0.01576 0.24077
 O643 O 0.76268 0.01861 0.24344
 O644 O 0.73823 -0.01491 0.21361
 Cu645 Cu 0.77635 0.00377 0.20416
 Cu646 Cu 0.74826 0.00183 0.23041
 C647 C 0.74552 -0.01951 0.19742
 C648 C 0.77902 0.02449 0.23801
 C649 C 0.78045 -0.02088 0.23390
 C650 C 0.74471 0.02610 0.19955
 O651 O 0.77527 0.48029 0.71838
 O652 O 0.79063 0.52127 0.74310
 O653 O 0.79519 0.48843 0.74977
 O654 O 0.77136 0.51441 0.71241
 O655 O 0.74416 0.51443 0.72927
 O656 O 0.76827 0.48730 0.76710
 O657 O 0.76340 0.52086 0.76006
 O658 O 0.74810 0.48018 0.73525
 Cu659 Cu 0.78572 0.50076 0.72902
 Cu660 Cu 0.75320 0.50034 0.74960
 C661 C 0.75901 0.47332 0.72242
 C662 C 0.77937 0.52818 0.75561
 C663 C 0.78621 0.48404 0.76511
 C664 C 0.75412 0.51973 0.71481
 O665 O 0.28030 0.50980 0.22684
 O666 O 0.24721 0.48023 0.20040
 O667 O 0.25123 0.51432 0.20260
 O668 O 0.27514 0.47548 0.22388
 O669 O 0.25594 0.47697 0.24956
 O670 O 0.23027 0.51420 0.22694
 O671 O 0.22727 0.48073 0.22562
 O672 O 0.25945 0.51170 0.25112
 Cu673 Cu 0.26572 0.49511 0.21106
 Cu674 Cu 0.24140 0.49611 0.24100
 C675 C 0.27549 0.51592 0.24337
 C676 C 0.23163 0.47539 0.20865
 C677 C 0.23604 0.52025 0.21073
 C678 C 0.26930 0.46933 0.24003
 O679 O 0.78048 1.01536 0.72231
 O680 O 0.74832 0.98510 0.74854
 O681 O 0.74918 1.01846 0.74375
 O682 O 0.77937 0.98124 0.72778
 O683 O 0.79832 0.98524 0.75313
 O684 O 0.76668 1.02120 0.77037
 O685 O 0.76700 0.98696 0.77447
 O686 O 0.79759 1.01974 0.74893
 Cu687 Cu 0.76269 0.99980 0.73283
 Cu688 Cu 0.78432 1.00355 0.76433
 C689 C 0.79423 1.02297 0.73117
 C690 C 0.75212 0.98090 0.76594
 C691 C 0.75238 1.02579 0.76003
 C692 C 0.79401 0.97686 0.73773
 O693 O 0.74995 0.52558 0.25608
 O694 O 0.72417 0.48966 0.28275
 O695 O 0.72523 0.52498 0.28554
 O696 O 0.74480 0.49239 0.25141
 O697 O 0.77000 0.48770 0.27036
 O698 O 0.75164 0.52275 0.30313
 O699 O 0.75002 0.48675 0.30112
 O700 O 0.77596 0.51974 0.27345
 Cu701 Cu 0.73322 0.50868 0.26744
 Cu702 Cu 0.76378 0.50436 0.28961
 C703 C 0.76786 0.52795 0.25969
 C704 C 0.73339 0.48154 0.29603
 C705 C 0.73554 0.53017 0.29960
 C706 C 0.76073 0.48470 0.25474
 O707 O 0.25939 -0.01204 0.76833
 O708 O 0.22470 0.01826 0.74499
 O709 O 0.22710 -0.01566 0.75010
 O710 O 0.25670 0.02235 0.76511
 O711 O 0.27404 0.01983 0.73823
 O712 O 0.24286 -0.01718 0.72222
 O713 O 0.24206 0.01748 0.71799
 O714 O 0.27545 -0.01384 0.74056
 Cu715 Cu 0.24029 0.00354 0.75985
 Cu716 Cu 0.26008 0.00150 0.72688
 C717 C 0.27335 -0.01812 0.75826
 C718 C 0.22756 0.02304 0.72752
 C719 C 0.22996 -0.02307 0.73378
 C720 C 0.27085 0.02717 0.75456
 O721 O 0.24100 0.25627 0.99551
 O722 O 0.25838 0.22259 1.02927
 O723 O 0.26342 0.23011 0.99185
 O724 O 0.23353 0.24879 1.03119
 O725 O 0.20965 0.23120 1.02243
 O726 O 0.23978 0.21188 0.98376
 O727 O 0.23461 0.20481 1.02062
 O728 O 0.21710 0.23886 0.98624
 Cu729 Cu 0.25161 0.24093 1.01311
 Cu730 Cu 0.22286 0.21982 1.00266
 C731 C 0.22647 0.25330 0.98477
 C732 C 0.24955 0.20797 1.03078
 C733 C 0.25634 0.21848 0.98057
 C734 C 0.21616 0.24356 1.03307
 O735 O 0.26840 0.75933 0.48652
 O736 O 0.29042 0.72694 0.51981
 O737 O 0.28563 0.72853 0.48206
 O738 O 0.27428 0.75756 0.52359
 O739 O 0.24544 0.74517 0.52594
 O740 O 0.25799 0.71438 0.48636
 O741 O 0.26192 0.71405 0.52336
 O742 O 0.24059 0.74503 0.48835
 Cu743 Cu 0.28254 0.74439 0.50251
 Cu744 Cu 0.24859 0.72842 0.50633
 C745 C 0.25071 0.75773 0.48185
 C746 C 0.27981 0.71501 0.52726
 C747 C 0.27404 0.71616 0.47757
 C748 C 0.25780 0.75647 0.53169
 O749 O 0.27938 0.76999 -0.01835
 O750 O 0.26255 0.74550 0.02548
 O751 O 0.25511 0.74366 -0.01200
 O752 O 0.28838 0.76983 0.01805
 O753 O 0.26550 0.78967 0.02331
 O754 O 0.23226 0.76334 -0.00656
 O755 O 0.24135 0.76675 0.03121
 O756 O 0.25750 0.79042 -0.01188
 Cu757 Cu 0.27348 0.75508 0.00266
 Cu758 Cu 0.24628 0.77894 0.00879
 C759 C 0.27171 0.78493 -0.02191
 C760 C 0.24952 0.75248 0.03615
 C761 C 0.23791 0.74900 -0.01431
 C762 C 0.28268 0.78418 0.02576
 O763 O 0.28584 0.26622 0.48217
 O764 O 0.26078 0.22873 0.50532
 O765 O 0.26250 0.24156 0.47033
 O766 O 0.28476 0.25264 0.51692
 O767 O 0.26139 0.27176 0.52296
 O768 O 0.23647 0.25689 0.47821
 O769 O 0.23713 0.24656 0.51431
 O770 O 0.25996 0.28287 0.48667
 Cu771 Cu 0.27596 0.24561 0.49294
 Cu772 Cu 0.24628 0.26635 0.50124
 C773 C 0.27695 0.28076 0.48000
 C774 C 0.24489 0.23134 0.51422
 C775 C 0.24556 0.24688 0.46647
 C776 C 0.27702 0.26414 0.52787
 O777 O 0.75051 0.76036 0.97697
 O778 O 0.75656 0.73293 1.02035
 O779 O 0.76980 0.73194 0.98510
 O780 O 0.73611 0.76071 1.01241
 O781 O 0.71164 0.74407 1.00304
 O782 O 0.74502 0.71526 0.97643
 O783 O 0.73205 0.71616 1.01128
 O784 O 0.72571 0.74401 0.96778
 Cu785 Cu 0.75563 0.74829 0.99959
 Cu786 Cu 0.72605 0.72833 0.98863
 C787 C 0.73725 0.75683 0.96489
 C788 C 0.74566 0.71965 1.02305
 C789 C 0.76304 0.71840 0.97654
 C790 C 0.71812 0.75713 1.01257
 O791 O 0.71499 0.20974 0.48385
 O792 O 0.68904 0.24295 0.51330
 O793 O 0.69232 0.23418 0.47554
 O794 O 0.71166 0.21420 0.51945
 O795 O 0.73670 0.23234 0.51870
 O796 O 0.71546 0.25435 0.47574
 O797 O 0.71477 0.26017 0.51327
 O798 O 0.73940 0.22848 0.48111
 Cu799 Cu 0.69905 0.22417 0.49881
 Cu800 Cu 0.72905 0.24575 0.49720
 C801 C 0.73161 0.21370 0.47718
 C802 C 0.69746 0.25714 0.51839
 C803 C 0.70064 0.24740 0.46790
 C804 C 0.72792 0.21911 0.52598
 O805 O 0.76127 0.24049 0.01139
 O806 O 0.79737 0.26599 -0.01662
 O807 O 0.78462 0.26653 0.01909
 O808 O 0.77534 0.23889 -0.02400
 O809 O 0.75199 0.25693 -0.03313
 O810 O 0.76122 0.28450 0.00998
 O811 O 0.77437 0.28413 -0.02623
 O812 O 0.73845 0.25873 0.00152
 Cu813 Cu 0.78198 0.25116 -0.00164
 Cu814 Cu 0.75439 0.27309 -0.01297
 C815 C 0.74364 0.24530 0.01117
 C816 C 0.79196 0.27933 -0.02637
 C817 C 0.77413 0.28000 0.02212
 C818 C 0.76200 0.24306 -0.03576
 O819 O 0.70927 0.77184 0.48671
 O820 O 0.74450 0.78816 0.52270
 O821 O 0.73537 0.79671 0.48705
 O822 O 0.71797 0.76287 0.52198
 O823 O 0.74012 0.74448 0.51072
 O824 O 0.75583 0.77719 0.47492
 O825 O 0.76631 0.77002 0.51040
 O826 O 0.73066 0.75224 0.47636
 Cu827 Cu 0.72470 0.78185 0.50592
 Cu828 Cu 0.75065 0.75921 0.49222
 C829 C 0.71388 0.75898 0.47573
 C830 C 0.76165 0.78219 0.52224
 C831 C 0.74829 0.79247 0.47468
 C832 C 0.72565 0.74762 0.52157
 O833 O 0.97346 0.26578 0.24085
 O834 O 1.00200 0.23097 0.26447
 O835 O 0.96520 0.23737 0.25896
 O836 O 1.01016 0.26109 0.24723
 O837 O 1.00762 0.27597 0.27474
 O838 O 0.96399 0.25072 0.28750
 O839 O 1.00157 0.24595 0.29204
 O840 O 0.97134 0.28003 0.26886
 Cu841 Cu 0.98807 0.24721 0.25016
 Cu842 Cu 0.98592 0.26443 0.28372
 C843 C 0.96741 0.27875 0.25088
 C844 C 1.00690 0.23263 0.28212
 C845 C 0.95672 0.24030 0.27503
 C846 C 1.01617 0.27304 0.25872
 O847 O 0.53035 0.28056 0.76829
 O848 O 0.49396 0.25567 0.79655
 O849 O 0.53048 0.25326 0.79060
 O850 O 0.49249 0.28386 0.77454
 O851 O 0.48788 0.26788 0.74815
 O852 O 0.52246 0.23506 0.76678
 O853 O 0.48634 0.24008 0.77055
 O854 O 0.52589 0.26181 0.74409
 Cu855 Cu 0.51222 0.27037 0.78486
 Cu856 Cu 0.50496 0.24986 0.75450
 C857 C 0.53528 0.27437 0.75185
 C858 C 0.48418 0.24347 0.78849
 C859 C 0.53241 0.23861 0.78179
 C860 C 0.48350 0.28101 0.75880
 O861 O -0.01856 0.24514 0.72428
 O862 O 0.02640 0.25873 0.74903
 O863 O -0.00946 0.26971 0.74917
 O864 O 0.01675 0.23426 0.72378
 O865 O 0.02389 0.25248 0.69972
 O866 O -0.00228 0.28801 0.72526
 O867 O 0.03322 0.27643 0.72446
 O868 O -0.01162 0.26326 0.70016
 Cu869 Cu 0.00314 0.25019 0.73907
 Cu870 Cu 0.01136 0.27199 0.71004
 C871 C -0.02255 0.25166 0.70777
 C872 C 0.03759 0.26976 0.74076
 C873 C -0.01030 0.28496 0.74156
 C874 C 0.02462 0.23726 0.70739
 O875 O 0.47146 0.26329 0.23858
 O876 O 0.50620 0.23734 0.20838
 O877 O 0.46920 0.23550 0.21657
 O878 O 0.50743 0.26831 0.22609
 O879 O 0.51577 0.25352 0.25232
 O880 O 0.47757 0.22088 0.24298
 O881 O 0.51316 0.22153 0.23441
 O882 O 0.47981 0.24705 0.26386
 Cu883 Cu 0.48796 0.25273 0.21980
 Cu884 Cu 0.49832 0.23478 0.25084
 C885 C 0.46923 0.25882 0.25634
 C886 C 0.51507 0.22456 0.21644
 C887 C 0.46641 0.22296 0.22851
 C888 C 0.51789 0.26668 0.24104
 O889 O 1.00156 0.73641 0.77354
 O890 O 1.02609 0.76290 0.73598
 O891 O 0.99005 0.75660 0.74506
 O892 O 1.03743 0.74244 0.76323
 O893 O 1.03634 0.71880 0.74438
 O894 O 0.98953 0.73364 0.72522
 O895 O 1.02576 0.73985 0.71630
 O896 O 0.99991 0.71372 0.75337
 Cu897 Cu 1.01375 0.75186 0.75650
 Cu898 Cu 1.01290 0.72420 0.73279
 C899 C 0.99621 0.72073 0.76974
 C900 C 1.03052 0.75577 0.71987
 C901 C 0.98164 0.74744 0.73212
 C902 C 1.04503 0.72835 0.75676
 O903 O 0.47467 0.75348 0.27243
 O904 O 0.51632 0.78194 0.25951
 O905 O 0.47942 0.78579 0.26026
 O906 O 0.51257 0.74970 0.27262
 O907 O 0.51045 0.73889 0.24289
 O908 O 0.47861 0.77613 0.22997
 O909 O 0.51590 0.77096 0.22977
 O910 O 0.47332 0.74440 0.24198
 Cu911 Cu 0.49594 0.76855 0.26933
 Cu912 Cu 0.49457 0.75657 0.23314
 C913 C 0.46654 0.74451 0.25912
 C914 C 0.52306 0.78136 0.24231
 C915 C 0.47346 0.78719 0.24292
 C916 C 0.51713 0.73814 0.26003
 O917 O -0.02554 0.75867 0.25975
 O918 O 0.01820 0.73634 0.23987
 O919 O -0.01839 0.73821 0.22988
 O920 O 0.01114 0.75714 0.26917
 O921 O 0.00426 0.73432 0.28790
 O922 O -0.02447 0.71498 0.24829
 O923 O 0.01200 0.71362 0.25898
 O924 O -0.03168 0.73505 0.27750
 Cu925 Cu -0.00304 0.74991 0.24778
 Cu926 Cu -0.01052 0.72211 0.26989
 C927 C -0.03619 0.75043 0.27187
 C928 C 0.02277 0.72128 0.24661
 C929 C -0.02677 0.72347 0.23255
 C930 C 0.01279 0.74899 0.28520
 O931 O 0.48805 0.72087 0.76301
 O932 O 0.52928 0.74980 0.77486
 O933 O 0.49204 0.75146 0.77909
 O934 O 0.52580 0.71806 0.75966
 O935 O 0.52516 0.73103 0.73096
 O936 O 0.49006 0.76326 0.74979
 O937 O 0.52649 0.76252 0.74610
 O938 O 0.48697 0.73214 0.73349
 Cu939 Cu 0.50909 0.73363 0.77198
 Cu940 Cu 0.50695 0.74819 0.73700
 C941 C 0.48026 0.72178 0.74636
 C942 C 0.53426 0.76164 0.76274
 C943 C 0.48555 0.76321 0.76772
 C944 C 0.53152 0.71906 0.74214
 C945 C 0.41142 0.30449 0.29386
 C946 C 0.41100 0.28807 0.30231
 C947 C 0.39864 0.28369 0.31748
 C948 C 0.38610 0.29680 0.32432
 C949 C 0.38630 0.31408 0.31622
 C950 C 0.39920 0.31790 0.30064
 O951 O 0.42425 0.30566 0.27942
 C952 C 0.43207 0.28961 0.27886
 C953 C 0.42443 0.27845 0.29268
 C954 C 0.43056 0.26118 0.29514
 C955 C 0.44531 0.25510 0.28295
 C956 C 0.45354 0.26619 0.26846
 C957 C 0.44667 0.28370 0.26622
 H958 H 0.39848 0.27056 0.32370
 H959 H 0.37599 0.29330 0.33573
 H960 H 0.39983 0.33088 0.29410
 H961 H 0.42430 0.25272 0.30617
 H962 H 0.45025 0.24162 0.28472
 H963 H 0.45274 0.29245 0.25536
 C964 C 0.42599 0.80492 0.80749
 C965 C 0.43794 0.81602 0.79719
 C966 C 0.43477 0.83400 0.79566
 C967 C 0.41823 0.84085 0.80458
 C968 C 0.40471 0.82973 0.81453
 C969 C 0.40927 0.81146 0.81659
 O970 O 0.43153 0.78810 0.80646
 C971 C 0.44720 0.78872 0.79516
 C972 C 0.45158 0.80555 0.78905
 C973 C 0.46649 0.80929 0.77610
 C974 C 0.47742 0.79508 0.76911
 C975 C 0.47349 0.77761 0.77538
 C976 C 0.45827 0.77436 0.78876
 H977 H 0.44461 0.84247 0.78770
 H978 H 0.41623 0.85500 0.80379
 H979 H 0.39953 0.80232 0.82372
 H980 H 0.46938 0.82264 0.77128
 H981 H 0.48908 0.79767 0.75893
 H982 H 0.45485 0.76108 0.79350
 C983 C -0.06217 0.32394 0.79346
 C984 C -0.05152 0.33600 0.78305
 C985 C -0.05402 0.35407 0.78502
 C986 C -0.06831 0.36000 0.79800
 C987 C -0.08021 0.34789 0.80865
 C988 C -0.07655 0.32947 0.80635
 O989 O -0.05770 0.30732 0.78927
 C990 C -0.04394 0.30894 0.77588
 C991 C -0.03967 0.32622 0.77147
 C992 C -0.02619 0.33091 0.75732
 C993 C -0.01667 0.31721 0.74738
 C994 C -0.02063 0.29926 0.75187
 C995 C -0.03447 0.29514 0.76639
 H996 H -0.04525 0.36334 0.77686
 H997 H -0.06957 0.37412 0.79991
 H998 H -0.08527 0.31947 0.81338
 H999 H -0.02320 0.34461 0.75397
 H1000 H -0.00610 0.32058 0.73633
 H1001 H -0.03798 0.28159 0.77002
 C1002 C -0.09685 0.79937 0.29809
 C1003 C -0.10275 0.78233 0.30167
 C1004 C -0.12015 0.77827 0.31077
 C1005 C -0.13199 0.79235 0.31653
 C1006 C -0.12626 0.81015 0.31333
 C1007 C -0.10840 0.81365 0.30380
 O1008 O -0.07965 0.80022 0.28938
 C1009 C -0.07463 0.78334 0.28748
 C1010 C -0.08830 0.77193 0.29485
 C1011 C -0.08596 0.75373 0.29493
 C1012 C -0.06875 0.74695 0.28719
 C1013 C -0.05430 0.75832 0.27943
 C1014 C -0.05739 0.77684 0.27943
 H1015 H -0.12448 0.76472 0.31332
 H1016 H -0.14575 0.78933 0.32334
 H1017 H -0.10350 0.82703 0.30123
 H1018 H -0.09692 0.74506 0.30091
 H1019 H -0.06672 0.73276 0.28723
 H1020 H -0.04660 0.78586 0.27378
 C1021 C 0.57811 0.69890 0.29883
 C1022 C 0.56861 0.68713 0.28702
 C1023 C 0.57297 0.66914 0.28688
 C1024 C 0.58748 0.66313 0.29962
 C1025 C 0.59734 0.67514 0.31202
 C1026 C 0.59274 0.69335 0.31109
 O1027 O 0.57145 0.71525 0.29768
 C1028 C 0.55737 0.71389 0.28483
 C1029 C 0.55506 0.69704 0.27762
 C1030 C 0.54092 0.69289 0.26397
 C1031 C 0.52868 0.70663 0.25772
 C1032 C 0.53055 0.72391 0.26552
 C1033 C 0.54520 0.72753 0.27917
 H1034 H 0.56519 0.66001 0.27764
 H1035 H 0.59063 0.64914 0.30014
 H1036 H 0.60018 0.70309 0.31984
 H1037 H 0.53929 0.67959 0.25843
 H1038 H 0.51745 0.70372 0.24726
 H1039 H 0.54705 0.74061 0.28529
 C1040 C 0.60052 0.20322 0.81322
 C1041 C 0.58618 0.19085 0.81052
 C1042 C 0.58884 0.17297 0.81392
 C1043 C 0.60719 0.16749 0.81992
 C1044 C 0.62261 0.17980 0.82200
 C1045 C 0.61903 0.19803 0.81902
 O1046 O 0.59495 0.21951 0.80878
 C1047 C 0.57678 0.21731 0.80302
 C1048 C 0.57081 0.19998 0.80365
 C1049 C 0.55277 0.19446 0.79716
 C1050 C 0.54031 0.20737 0.78973
 C1051 C 0.54594 0.22537 0.78930
 C1052 C 0.56440 0.23044 0.79616
 H1053 H 0.57727 0.16353 0.81180
 H1054 H 0.60945 0.15356 0.82265
 H1055 H 0.63046 0.20774 0.82029
 H1056 H 0.54855 0.18069 0.79752
 H1057 H 0.52619 0.20341 0.78453
 H1058 H 0.56910 0.24409 0.79569
 C1059 C 1.11065 0.69061 0.78971
 C1060 C 1.11617 0.70779 0.78615
 C1061 C 1.13342 0.71492 0.79284
 C1062 C 1.14523 0.70407 0.80419
 C1063 C 1.13955 0.68653 0.80873
 C1064 C 1.12229 0.67952 0.80090
 O1065 O 1.09299 0.68695 0.78332
 C1066 C 1.08721 0.70218 0.77575
 C1067 C 1.10085 0.71536 0.77722
 C1068 C 1.09721 0.73278 0.77207
 C1069 C 1.07871 0.73683 0.76519
 C1070 C 1.06445 0.72347 0.76335
 C1071 C 1.06883 0.70583 0.76842
 H1072 H 1.13729 0.72855 0.79007
 H1073 H 1.15841 0.70954 0.81016
 H1074 H 1.11739 0.66635 0.80462
 H1075 H 1.10804 0.74299 0.77384
 H1076 H 1.07541 0.75037 0.76134
 H1077 H 1.05800 0.69552 0.76759
 C1078 C 1.07027 0.19666 0.32146
 C1079 C 1.05771 0.18405 0.31474
 C1080 C 1.06121 0.16611 0.31673
 C1081 C 1.07842 0.16093 0.32586
 C1082 C 1.09231 0.17362 0.33247
 C1083 C 1.08767 0.19189 0.33016
 O1084 O 1.06433 0.21305 0.31808
 C1085 C 1.04765 0.21070 0.30895
 C1086 C 1.04301 0.19317 0.30636
 C1087 C 1.02672 0.18773 0.29614
 C1088 C 1.01481 0.20089 0.28822
 C1089 C 1.01913 0.21902 0.29106
 C1090 C 1.03570 0.22398 0.30171
 H1091 H 1.05094 0.15638 0.31159
 H1092 H 1.08032 0.14693 0.32806
 H1093 H 1.09748 0.20241 0.33399
 H1094 H 1.02352 0.17386 0.29400
 H1095 H 1.00221 0.19701 0.27995
 H1096 H 1.03952 0.23775 0.30369
 C1097 C 0.59787 0.31642 0.71759
 C1098 C 0.60318 0.29890 0.71775
 C1099 C 0.62002 0.29268 0.70909
 C1100 C 0.63162 0.30493 0.69927
 C1101 C 0.62615 0.32294 0.69812
 C1102 C 0.60928 0.32891 0.70781
 O1103 O 0.58071 0.31924 0.72584
 C1104 C 0.57504 0.30314 0.73111
 C1105 C 0.58825 0.29026 0.72627
 C1106 C 0.58474 0.27234 0.72884
 C1107 C 0.56693 0.26745 0.73691
 C1108 C 0.55322 0.28042 0.74251
 C1109 C 0.55735 0.29856 0.73974
 H1110 H 0.62372 0.27880 0.70925
 H1111 H 0.64437 0.30027 0.69163
 H1112 H 0.60453 0.34249 0.70660
 H1113 H 0.59522 0.26247 0.72451
 H1114 H 0.56390 0.25355 0.73913
 H1115 H 0.54697 0.30866 0.74371
 C1116 C 0.58617 0.81382 0.19861
 C1117 C 0.57972 0.82589 0.21201
 C1118 C 0.58629 0.84319 0.21240
 C1119 C 0.60009 0.84826 0.19844
 C1120 C 0.60757 0.83599 0.18444
 C1121 C 0.60023 0.81836 0.18496
 O1122 O 0.57738 0.79828 0.19996
 C1123 C 0.56509 0.80061 0.21458
 C1124 C 0.56607 0.81721 0.22264
 C1125 C 0.55426 0.82248 0.23802
 C1126 C 0.54067 0.81022 0.24511
 C1127 C 0.53893 0.79326 0.23648
 C1128 C 0.55151 0.78836 0.22114
 H1129 H 0.58061 0.85263 0.22278
 H1130 H 0.60409 0.86204 0.19840
 H1131 H 0.60539 0.80798 0.17551
 H1132 H 0.55526 0.83563 0.24414
 H1133 H 0.53101 0.81418 0.25675
 H1134 H 0.55048 0.77553 0.21424
 C1135 C 1.08406 0.30181 0.21900
 C1136 C 1.07663 0.31459 0.23101
 C1137 C 1.08329 0.33182 0.23100
 C1138 C 1.09819 0.33617 0.21799
 C1139 C 1.10675 0.32322 0.20539
 C1140 C 1.09933 0.30561 0.20639
 O1141 O 1.07476 0.28650 0.22035
 C1142 C 1.06115 0.28975 0.23353
 C1143 C 1.06183 0.30672 0.24067
 C1144 C 1.04874 0.31311 0.25433
 C1145 C 1.03417 0.30159 0.26073
 C1146 C 1.03275 0.28419 0.25313
 C1147 C 1.04657 0.27816 0.23944
 H1148 H 1.07676 0.34180 0.24020
 H1149 H 1.10203 0.34996 0.21746
 H1150 H 1.10507 0.29481 0.19794
 H1151 H 1.04955 0.32655 0.25966
 H1152 H 1.02360 0.30644 0.27110
 H1153 H 1.04579 0.26499 0.23333
 C1154 C 1.08718 0.80372 0.68523
 C1155 C 1.08049 0.79272 0.67085
 C1156 C 1.08873 0.79213 0.65246
 C1157 C 1.10478 0.80300 0.64884
 C1158 C 1.11262 0.81419 0.66359
 C1159 C 1.10305 0.81478 0.68195
 O1160 O 1.07807 0.80146 0.70207
 C1161 C 1.06542 0.78873 0.69821
 C1162 C 1.06631 0.78290 0.67931
 C1163 C 1.05533 0.76876 0.67254
 C1164 C 1.04311 0.76016 0.68588
 C1165 C 1.04201 0.76586 0.70551
 C1166 C 1.05316 0.78056 0.71162
 H1167 H 1.08320 0.78338 0.64134
 H1168 H 1.11083 0.80272 0.63433
 H1169 H 1.10855 0.82246 0.69398
 H1170 H 1.05654 0.76421 0.65768
 H1171 H 1.03476 0.74890 0.68100
 H1172 H 1.05304 0.78497 0.72659
 C1173 C 0.41671 0.68461 0.70764
 C1174 C 0.41388 0.68370 0.72741
 C1175 C 0.39828 0.67501 0.73582
 C1176 C 0.38523 0.66656 0.72337
 C1177 C 0.38809 0.66669 0.70290
 C1178 C 0.40392 0.67618 0.69493
 O1179 O 0.43260 0.69349 0.70276
 C1180 C 0.43995 0.69817 0.71984
 C1181 C 0.42907 0.69239 0.73535
 C1182 C 0.43436 0.69526 0.75455
 C1183 C 0.45150 0.70464 0.75795
 C1184 C 0.46286 0.71110 0.74225
 C1185 C 0.45694 0.70778 0.72288
 H1186 H 0.39630 0.67461 0.75142
 H1187 H 0.37298 0.65974 0.72973
 H1188 H 0.40661 0.67644 0.67942
 H1189 H 0.42562 0.69042 0.76649
 H1190 H 0.45574 0.70714 0.77283
 H1191 H 0.46534 0.71245 0.71060
 C1192 C 0.39847 0.18478 0.19933
 C1193 C 0.40010 0.18212 0.21899
 C1194 C 0.38722 0.17200 0.22959
 C1195 C 0.37227 0.16373 0.21949
 C1196 C 0.37052 0.16517 0.19885
 C1197 C 0.38364 0.17654 0.18880
 O1198 O 0.41247 0.19504 0.19223
 C1199 C 0.42310 0.19877 0.20780
 C1200 C 0.41613 0.19103 0.22446
 C1201 C 0.42516 0.19257 0.24236
 C1202 C 0.44205 0.20271 0.24324
 C1203 C 0.44945 0.21126 0.22644
 C1204 C 0.43981 0.20924 0.20840
 H1205 H 0.38859 0.17052 0.24517
 H1206 H 0.36187 0.15645 0.22812
 H1207 H 0.38321 0.17815 0.17320
 H1208 H 0.41940 0.18618 0.25521
 H1209 H 0.44910 0.20425 0.25717
 H1210 H 0.44513 0.21557 0.19534
 C1211 C -0.09212 0.68870 0.19518
 C1212 C -0.08196 0.69743 0.18091
 C1213 C -0.08788 0.69755 0.16159
 C1214 C -0.10482 0.68817 0.15683
 C1215 C -0.11559 0.67909 0.17139
 C1216 C -0.10907 0.67966 0.19088
 O1217 O -0.08418 0.69003 0.21260
 C1218 C -0.06864 0.69985 0.20935
 C1219 C -0.06660 0.70487 0.19024
 C1220 C -0.05155 0.71570 0.18391
 C1221 C -0.03823 0.72166 0.19788
 C1222 C -0.04002 0.71647 0.21763
 C1223 C -0.05540 0.70528 0.22331
 H1224 H -0.07964 0.70444 0.15054
 H1225 H -0.10931 0.68777 0.14180
 H1226 H -0.11702 0.67335 0.20254
 H1227 H -0.05028 0.71964 0.16885
 H1228 H -0.02658 0.73032 0.19336
 H1229 H -0.05740 0.70136 0.23832
 C1230 C -0.09123 0.21189 0.68417
 C1231 C -0.08497 0.22170 0.66856
 C1232 C -0.09332 0.22047 0.65030
 C1233 C -0.10884 0.20870 0.64803
 C1234 C -0.11588 0.19858 0.66397
 C1235 C -0.10680 0.20028 0.68232
 O1236 O -0.08084 0.21459 0.70009
 C1237 C -0.06776 0.22637 0.69439
 C1238 C -0.06973 0.23123 0.67526
 C1239 C -0.05741 0.24321 0.66621
 C1240 C -0.04227 0.25032 0.67727
 C1241 C -0.03962 0.24524 0.69695
 C1242 C -0.05275 0.23320 0.70564
 H1243 H -0.08793 0.22812 0.63815
 H1244 H -0.11514 0.20732 0.63374
 H1245 H -0.11175 0.19290 0.69485
 H1246 H -0.05924 0.24680 0.65111
 H1247 H -0.03235 0.25943 0.67032
 H1248 H -0.05111 0.22896 0.72056
 C1249 C 0.29849 0.41155 0.28833
 C1250 C 0.29777 0.40598 0.26932
 C1251 C 0.30359 0.38927 0.26345
 C1252 C 0.31090 0.37790 0.27766
 C1253 C 0.31275 0.38349 0.29731
 C1254 C 0.30601 0.40051 0.30274
 O1255 O 0.29224 0.42803 0.29069
 C1256 C 0.28764 0.43296 0.27275
 C1257 C 0.29098 0.41996 0.25916
 C1258 C 0.28814 0.42246 0.23938
 C1259 C 0.28145 0.43901 0.23333
 C1260 C 0.27740 0.45253 0.24704
 C1261 C 0.28046 0.44944 0.26708
 H1262 H 0.30266 0.38514 0.24842
 H1263 H 0.31536 0.36479 0.27325
 H1264 H 0.30730 0.40530 0.31751
 H1265 H 0.29112 0.41207 0.22896
 H1266 H 0.27901 0.44119 0.21798
 H1267 H 0.27760 0.45959 0.27781
 C1268 C 0.31012 -0.07672 0.79916
 C1269 C 0.32401 -0.06758 0.78902
 C1270 C 0.34306 -0.07306 0.78776
 C1271 C 0.34806 -0.08876 0.79716
 C1272 C 0.33401 -0.09907 0.80744
 C1273 C 0.31470 -0.09251 0.80862
 O1274 O 0.29270 -0.06938 0.79798
 C1275 C 0.29576 -0.05534 0.78679
 C1276 C 0.31470 -0.05372 0.78090
 C1277 C 0.32104 -0.04065 0.76823
 C1278 C 0.30722 -0.02882 0.76114
 C1279 C 0.28758 -0.03012 0.76699
 C1280 C 0.28179 -0.04342 0.78024
 H1281 H 0.35377 -0.06548 0.77982
 H1282 H 0.36317 -0.09241 0.79675
 H1283 H 0.30321 -0.09978 0.81570
 H1284 H 0.33600 -0.03983 0.76362
 H1285 H 0.31177 -0.01868 0.75100
 H1286 H 0.26681 -0.04489 0.78460
 C1287 C 0.82011 0.43317 0.81867
 C1288 C 0.83281 0.44692 0.81582
 C1289 C 0.85236 0.44582 0.82007
 C1290 C 0.85931 0.42971 0.82701
 C1291 C 0.84669 0.41510 0.83004
 C1292 C 0.82657 0.41718 0.82658
 O1293 O 0.80282 0.43616 0.81087
 C1294 C 0.80475 0.45210 0.80293
 C1295 C 0.82283 0.45924 0.80579
 C1296 C 0.82896 0.47481 0.79709
 C1297 C 0.81612 0.48322 0.78453
 C1298 C 0.79758 0.47600 0.78081
 C1299 C 0.79152 0.46046 0.79055
 H1300 H 0.86214 0.45668 0.81715
 H1301 H 0.87466 0.42856 0.82983
 H1302 H 0.81666 0.40615 0.82793
 H1303 H 0.84343 0.47989 0.79923
 H1304 H 0.82088 0.49508 0.77711
 H1305 H 0.77768 0.45441 0.78745
 C1306 C 0.80556 -0.08011 0.28269
 C1307 C 0.82081 -0.07474 0.27133
 C1308 C 0.83864 -0.08308 0.27145
 C1309 C 0.84087 -0.09770 0.28366
 C1310 C 0.82532 -0.10400 0.29553
 C1311 C 0.80740 -0.09466 0.29503
 O1312 O 0.78971 -0.07047 0.28002
 C1313 C 0.79517 -0.05877 0.26668
 C1314 C 0.81409 -0.06088 0.26091
 C1315 C 0.82278 -0.05046 0.24678
 C1316 C 0.81150 -0.03731 0.23815
 C1317 C 0.79188 -0.03474 0.24373
 C1318 C 0.78365 -0.04562 0.25836
 H1319 H 0.85049 -0.07845 0.26247
 H1320 H 0.85508 -0.10363 0.28418
 H1321 H 0.79484 -0.09895 0.30316
 H1322 H 0.83768 -0.05247 0.24244
 H1323 H 0.81812 -0.02912 0.22707
 H1324 H 0.76872 -0.04410 0.26286
 C1325 C 0.30512 0.56556 0.70201
 C1326 C 0.31924 0.55432 0.70867
 C1327 C 0.33887 0.55766 0.70631
 C1328 C 0.34421 0.57339 0.69699
 C1329 C 0.32997 0.58543 0.69033
 C1330 C 0.31011 0.58125 0.69254
 O1331 O 0.28736 0.56040 0.70683
 C1332 C 0.29036 0.54565 0.71681
 C1333 C 0.30963 0.54139 0.71836
 C1334 C 0.31619 0.52719 0.72926
 C1335 C 0.30234 0.51702 0.73911
 C1336 C 0.28235 0.52112 0.73785
 C1337 C 0.27628 0.53553 0.72627
 H1338 H 0.34970 0.54871 0.71188
 H1339 H 0.35944 0.57641 0.69531
 H1340 H 0.29896 0.59036 0.68799
 H1341 H 0.33146 0.52428 0.73048
 H1342 H 0.30722 0.50603 0.74787
 H1343 H 0.26118 0.53918 0.72532
 C1344 C 0.28184 1.06836 0.21231
 C1345 C 0.29528 1.05959 0.22331
 C1346 C 0.31474 1.06387 0.22325
 C1347 C 0.32063 1.07812 0.21177
 C1348 C 0.30708 1.08812 0.20068
 C1349 C 0.28737 1.08260 0.20060
 O1350 O 0.26395 1.06235 0.21499
 C1351 C 0.26624 1.04957 0.22802
 C1352 C 0.28516 1.04744 0.23357
 C1353 C 0.29090 1.03532 0.24750
 C1354 C 0.27655 1.02479 0.25600
 C1355 C 0.25687 1.02647 0.25044
 C1356 C 0.25167 1.03910 0.23620
 H1357 H 0.32505 1.05657 0.23188
 H1358 H 0.33594 1.08108 0.21141
 H1359 H 0.27634 1.08980 0.19284
 H1360 H 0.30590 1.03405 0.25172
 H1361 H 0.28087 1.01517 0.26678
 H1362 H 0.23680 1.04077 0.23169
 C1363 C 0.79664 0.58403 0.20837
 C1364 C 0.81200 0.57443 0.21516
 C1365 C 0.83108 0.57866 0.21105
 C1366 C 0.83458 0.59359 0.19962
 C1367 C 0.81909 0.60422 0.19253
 C1368 C 0.79973 0.59896 0.19686
 O1369 O 0.77964 0.57792 0.21455
 C1370 C 0.78449 0.56416 0.22548
 C1371 C 0.80415 0.56155 0.22627
 C1372 C 0.81264 0.54840 0.23731
 C1373 C 0.80038 0.53747 0.24810
 C1374 C 0.77998 0.53977 0.24768
 C1375 C 0.77189 0.55325 0.23601
 H1376 H 0.84290 0.57074 0.21650
 H1377 H 0.84949 0.59639 0.19593
 H1378 H 0.78736 0.60668 0.19245
 H1379 H 0.82818 0.54673 0.23775
 H1380 H 0.80686 0.52715 0.25680
 H1381 H 0.75642 0.55541 0.23550
 C1382 C 0.82755 1.08907 0.70372
 C1383 C 0.83134 1.07620 0.69007
 C1384 C 0.83815 1.08001 0.67150
 C1385 C 0.84076 1.09784 0.66666
 C1386 C 0.83650 1.11134 0.68028
 C1387 C 0.83015 1.10692 0.69921
 O1388 O 0.81957 1.08271 0.71986
 C1389 C 0.81816 1.06551 0.71625
 C1390 C 0.82509 1.06087 0.69817
 C1391 C 0.82310 1.04395 0.69052
 C1392 C 0.81337 1.03135 0.70186
 C1393 C 0.80618 1.03579 0.72054
 C1394 C 0.80892 1.05302 0.72800
 H1395 H 0.84062 1.06969 0.66089
 H1396 H 0.84527 1.10122 0.65203
 H1397 H 0.82616 1.11707 0.70957
 H1398 H 0.82817 1.04075 0.67604
 H1399 H 0.81109 1.01823 0.69599
 H1400 H 0.80291 1.05685 0.74194
 C1401 C 0.69127 0.59109 0.32696
 C1402 C 0.71004 0.59299 0.33312
 C1403 C 0.71677 0.60831 0.34192
 C1404 C 0.70357 0.62216 0.34471
 C1405 C 0.68385 0.62043 0.33909
 C1406 C 0.67777 0.60455 0.32996
 O1407 O 0.68808 0.57584 0.31797
 C1408 C 0.70521 0.56793 0.31853
 C1409 C 0.71909 0.57778 0.32783
 C1410 C 0.73812 0.57211 0.32980
 C1411 C 0.74314 0.55580 0.32143
 C1412 C 0.72927 0.54570 0.31106
 C1413 C 0.70993 0.55179 0.30993
 H1414 H 0.73174 0.60967 0.34623
 H1415 H 0.70890 0.63430 0.35107
 H1416 H 0.66294 0.60256 0.32550
 H1417 H 0.74881 0.58012 0.33715
 H1418 H 0.75803 0.55146 0.32228
 H1419 H 0.69903 0.54449 0.30199
 C1420 C 0.71805 1.08713 0.79878
 C1421 C 0.70356 1.07735 0.79046
 C1422 C 0.68425 1.08202 0.79168
 C1423 C 0.67963 1.09763 0.80156
 C1424 C 0.69428 1.10877 0.80966
 C1425 C 0.71387 1.10294 0.80844
 O1426 O 0.73550 1.08018 0.79601
 C1427 C 0.73185 1.06575 0.78563
 C1428 C 0.71251 1.06353 0.78171
 C1429 C 0.70545 1.04971 0.77048
 C1430 C 0.71887 1.03758 0.76304
 C1431 C 0.73885 1.03930 0.76724
 C1432 C 0.74543 1.05358 0.77876
 H1433 H 0.67306 1.07382 0.78539
 H1434 H 0.66442 1.10054 0.80318
 H1435 H 0.72582 1.11071 0.81383
 H1436 H 0.69016 1.04837 0.76746
 H1437 H 0.71368 1.02663 0.75436
 H1438 H 0.76063 1.05525 0.78204
 C1439 C 0.20669 0.58552 0.81941
 C1440 C 0.21354 0.57587 0.83475
 C1441 C 0.21206 0.58160 0.85383
 C1442 C 0.20330 0.59802 0.85726
 C1443 C 0.19645 0.60881 0.84166
 C1444 C 0.19830 0.60205 0.82237
 O1445 O 0.20908 0.57751 0.80239
 C1446 C 0.21767 0.56247 0.80715
 C1447 C 0.22089 0.56088 0.82677
 C1448 C 0.22999 0.54629 0.83489
 C1449 C 0.23585 0.53272 0.82227
 C1450 C 0.23225 0.53385 0.80202
 C1451 C 0.22304 0.54899 0.79438
 H1452 H 0.21719 0.57356 0.86574
 H1453 H 0.20140 0.60175 0.87230
 H1454 H 0.19414 0.60946 0.80967
 H1455 H 0.23244 0.54538 0.85038
 H1456 H 0.24278 0.52115 0.82833
 H1457 H 0.22018 0.55024 0.77899
 C1458 C 0.17178 1.07906 0.32778
 C1459 C 0.18393 1.07215 0.34155
 C1460 C 0.18828 1.08091 0.35868
 C1461 C 0.18004 1.09762 0.36165
 C1462 C 0.16759 1.10544 0.34755
 C1463 C 0.16315 1.09557 0.33051
 O1464 O 0.17047 1.06904 0.31198
 C1465 C 0.18205 1.05552 0.31591
 C1466 C 0.19059 1.05676 0.33386
 C1467 C 0.20396 1.04450 0.34053
 C1468 C 0.20891 1.03047 0.32810
 C1469 C 0.20053 1.02900 0.30936
 C1470 C 0.18669 1.04166 0.30335
 H1471 H 0.19791 1.07520 0.36931
 H1472 H 0.18318 1.10420 0.37524
 H1473 H 0.15437 1.10095 0.31898
 H1474 H 0.21066 1.04588 0.35463
 H1475 H 0.21956 1.02099 0.33295
 H1476 H 0.18021 1.04111 0.28906
 C1477 C 0.71228 0.41483 0.69217
 C1478 C 0.73048 0.41362 0.68412
 C1479 C 0.73551 0.40058 0.67079
 C1480 C 0.72120 0.38833 0.66550
 C1481 C 0.70222 0.38933 0.67345
 C1482 C 0.69781 0.40280 0.68709
 O1483 O 0.71045 0.42829 0.70443
 C1484 C 0.72786 0.43574 0.70409
 C1485 C 0.74064 0.42728 0.69188
 C1486 C 0.75956 0.43306 0.68911
 C1487 C 0.76553 0.44819 0.69930
 C1488 C 0.75263 0.45718 0.71203
 C1489 C 0.73351 0.45073 0.71445
 H1490 H 0.74994 0.39985 0.66470
 H1491 H 0.72500 0.37795 0.65534
 H1492 H 0.68347 0.40408 0.69331
 H1493 H 0.76934 0.42622 0.67936
 H1494 H 0.78019 0.45289 0.69724
 H1495 H 0.72323 0.45730 0.72391
 C1496 C 0.69949 -0.07978 0.17167
 C1497 C 0.70587 -0.07087 0.15547
 C1498 C 0.70144 -0.07623 0.13670
 C1499 C 0.69010 -0.09148 0.13455
 C1500 C 0.68373 -0.10127 0.15103
 C1501 C 0.68851 -0.09514 0.16988
 O1502 O 0.70512 -0.07238 0.18820
 C1503 C 0.71534 -0.05854 0.18228
 C1504 C 0.71640 -0.05710 0.16238
 C1505 C 0.72692 -0.04390 0.15308
 C1506 C 0.73671 -0.03164 0.16480
 C1507 C 0.73549 -0.03266 0.18535
 C1508 C 0.72459 -0.04629 0.19418
 H1509 H 0.70644 -0.06888 0.12417
 H1510 H 0.68620 -0.09554 0.12000
 H1511 H 0.68422 -0.10227 0.18282
 H1512 H 0.72768 -0.04313 0.13739
 H1513 H 0.74500 -0.02122 0.15790
 H1514 H 0.72361 -0.04748 0.20984
 C1515 C 0.19689 0.41314 0.17310
 C1516 C 0.18275 0.42578 0.17540
 C1517 C 0.16320 0.42222 0.17301
 C1518 C 0.15793 0.40481 0.16859
 C1519 C 0.17213 0.39138 0.16680
 C1520 C 0.19196 0.39570 0.16855
 O1521 O 0.21442 0.41900 0.17766
 C1522 C 0.21122 0.43560 0.18310
 C1523 C 0.19205 0.44035 0.18206
 C1524 C 0.18510 0.45643 0.18897
 C1525 C 0.19844 0.46805 0.19742
 C1526 C 0.21827 0.46353 0.19850
 C1527 C 0.22483 0.44720 0.19097
 H1528 H 0.15233 0.43231 0.17522
 H1529 H 0.14272 0.40157 0.16739
 H1530 H 0.20299 0.38557 0.16782
 H1531 H 0.16986 0.45964 0.18847
 H1532 H 0.19335 0.48049 0.20332
 H1533 H 0.23984 0.44328 0.19223
 C1534 C 0.19693 -0.08479 0.69392
 C1535 C 0.18978 -0.08424 0.71256
 C1536 C 0.17776 -0.09726 0.72013
 C1537 C 0.17288 -0.11147 0.70800
 C1538 C 0.17982 -0.11241 0.68853
 C1539 C 0.19204 -0.09871 0.68146
 O1540 O 0.20866 -0.07134 0.68984
 C1541 C 0.20889 -0.06212 0.70630
 C1542 C 0.19748 -0.06944 0.72060
 C1543 C 0.19569 -0.06213 0.73903
 C1544 C 0.20618 -0.04669 0.74299
 C1545 C 0.21834 -0.03889 0.72866
 C1546 C 0.21960 -0.04676 0.70996
 H1547 H 0.17257 -0.09665 0.73497
 H1548 H 0.16405 -0.12194 0.71403
 H1549 H 0.19758 -0.09881 0.66674
 H1550 H 0.18665 -0.06818 0.75005
 H1551 H 0.20503 -0.04100 0.75739
 H1552 H 0.22876 -0.04123 0.69871
 C1553 C 0.30055 0.32899 0.41843
 C1554 C 0.31418 0.32979 0.43294
 C1555 C 0.33215 0.33773 0.43037
 C1556 C 0.33653 0.34457 0.41195
 C1557 C 0.32306 0.34329 0.39651
 C1558 C 0.30456 0.33590 0.40000
 O1559 O 0.28519 0.31936 0.42326
 C1560 C 0.28928 0.31385 0.44110
 C1561 C 0.30690 0.31980 0.44765
 C1562 C 0.31510 0.31396 0.46493
 C1563 C 0.30479 0.30138 0.47582
 C1564 C 0.28656 0.29518 0.46944
 C1565 C 0.27853 0.30170 0.45200
 H1566 H 0.34279 0.33787 0.44187
 H1567 H 0.35082 0.34999 0.40935
 H1568 H 0.29433 0.33414 0.38829
 H1569 H 0.32926 0.31839 0.46948
 H1570 H 0.31111 0.29621 0.48901
 H1571 H 0.26496 0.29662 0.44651
 C1572 C 0.31245 0.81471 -0.08955
 C1573 C 0.30532 0.82822 -0.07825
 C1574 C 0.30782 0.84591 -0.08281
 C1575 C 0.31782 0.84994 -0.09995
 C1576 C 0.32478 0.83637 -0.11245
 C1577 C 0.32231 0.81843 -0.10692
 O1578 O 0.30845 0.79880 -0.08232
 C1579 C 0.29850 0.80244 -0.06619
 C1580 C 0.29611 0.82027 -0.06323
 C1581 C 0.28572 0.82720 -0.04771
 C1582 C 0.27748 0.81527 -0.03456
 C1583 C 0.27993 0.79676 -0.03691
 C1584 C 0.29069 0.79023 -0.05298
 H1585 H 0.30226 0.85628 -0.07350
 H1586 H 0.32006 0.86373 -0.10348
 H1587 H 0.32738 0.80774 -0.11607
 H1588 H 0.28396 0.84131 -0.04583
 H1589 H 0.26948 0.82052 -0.02229
 H1590 H 0.29275 0.77620 -0.05519
 C1591 C 0.82819 0.32246 -0.08700
 C1592 C 0.84259 0.31527 -0.07578
 C1593 C 0.86211 0.31756 -0.07989
 C1594 C 0.86701 0.32758 -0.09631
 C1595 C 0.85248 0.33496 -0.10839
 C1596 C 0.83274 0.33245 -0.10347
 O1597 O 0.81055 0.31838 -0.08073
 C1598 C 0.81392 0.30838 -0.06526
 C1599 C 0.83329 0.30604 -0.06164
 C1600 C 0.84007 0.29552 -0.04660
 C1601 C 0.82632 0.28694 -0.03488
 C1602 C 0.80623 0.28912 -0.03827
 C1603 C 0.79999 0.30017 -0.05363
 H1604 H 0.87318 0.31180 -0.07082
 H1605 H 0.88218 0.32965 -0.09955
 H1606 H 0.82128 0.33771 -0.11242
 H1607 H 0.85540 0.29376 -0.04415
 H1608 H 0.83134 0.27853 -0.02322
 H1609 H 0.78479 0.30192 -0.05679
 C1610 C 0.78443 0.82247 0.40543
 C1611 C 0.77833 0.83637 0.41677
 C1612 C 0.78234 0.85387 0.41197
 C1613 C 0.79317 0.85708 0.39495
 C1614 C 0.79966 0.84287 0.38305
 C1615 C 0.79483 0.82534 0.38840
 O1616 O 0.77993 0.80681 0.41275
 C1617 C 0.77079 0.81086 0.42910
 C1618 C 0.76924 0.82875 0.43228
 C1619 C 0.76031 0.83569 0.44880
 C1620 C 0.75288 0.82370 0.46260
 C1621 C 0.75482 0.80520 0.45976
 C1622 C 0.76378 0.79880 0.44264
 H1623 H 0.77763 0.86465 0.42119
 H1624 H 0.79688 0.87059 0.39136
 H1625 H 0.79913 0.81412 0.37964
 H1626 H 0.75925 0.84981 0.45107
 H1627 H 0.74610 0.82879 0.47565
 H1628 H 0.76544 0.78478 0.43997
 C1629 C 0.67902 0.31271 0.57447
 C1630 C 0.66203 0.30740 0.56589
 C1631 C 0.64401 0.31329 0.57212
 C1632 C 0.64343 0.32462 0.58827
 C1633 C 0.66069 0.32964 0.59796
 C1634 C 0.67878 0.32400 0.59051
 O1635 O 0.69450 0.30474 0.56712
 C1636 C 0.68712 0.29408 0.55374
 C1637 C 0.66731 0.29510 0.55247
 C1638 C 0.65652 0.28403 0.54053
 C1639 C 0.66658 0.27146 0.52938
 C1640 C 0.68704 0.27033 0.53024
 C1641 C 0.69742 0.28193 0.54252
 H1642 H 0.63082 0.30882 0.56525
 H1643 H 0.62949 0.32887 0.59376
 H1644 H 0.69215 0.32716 0.59788
 H1645 H 0.64090 0.28483 0.54007
 H1646 H 0.65846 0.26268 0.52002
 H1647 H 0.71301 0.28115 0.54377
 C1648 C 0.68521 0.80376 1.07182
 C1649 C 0.67017 0.79625 1.06173
 C1650 C 0.65089 0.79903 1.06668
 C1651 C 0.64695 0.81003 1.08266
 C1652 C 0.66224 0.81793 1.09334
 C1653 C 0.68165 0.81468 1.08774
 O1654 O 0.70249 0.79917 1.06506
 C1655 C 0.69829 0.78850 1.05036
 C1656 C 0.67872 0.78626 1.04772
 C1657 C 0.67115 0.77520 1.03351
 C1658 C 0.68429 0.76594 1.02170
 C1659 C 0.70457 0.76792 1.02423
 C1660 C 0.71160 0.77956 1.03868
 H1661 H 0.63929 0.79293 1.05855
 H1662 H 0.63202 0.81253 1.08659
 H1663 H 0.69366 0.82021 1.09574
 H1664 H 0.65570 0.77356 1.03177
 H1665 H 0.67863 0.75708 1.01074
 H1666 H 0.72695 0.78121 1.04118
 C1667 C 0.18493 0.29011 1.09358
 C1668 C 0.16989 0.28059 1.08576
 C1669 C 0.15082 0.28272 1.09171
 C1670 C 0.14711 0.29497 1.10656
 C1671 C 0.16240 0.30472 1.11525
 C1672 C 0.18158 0.30236 1.10842
 O1673 O 0.20197 0.28607 1.08578
 C1674 C 0.19756 0.27372 1.07280
 C1675 C 0.17814 0.26985 1.07228
 C1676 C 0.17036 0.25720 1.05990
 C1677 C 0.18310 0.24831 1.04735
 C1678 C 0.20320 0.25224 1.04733
 C1679 C 0.21049 0.26509 1.06038
 H1680 H 0.13922 0.27517 1.08522
 H1681 H 0.13231 0.29683 1.11131
 H1682 H 0.19359 0.30944 1.11481
 H1683 H 0.15502 0.25436 1.05982
 H1684 H 0.17722 0.23859 1.03745
 H1685 H 0.22572 0.26843 1.06076
 C1686 C 0.21569 0.80046 0.58745
 C1687 C 0.23505 0.80171 0.59168
 C1688 C 0.24194 0.81141 0.60739
 C1689 C 0.22829 0.81995 0.61935
 C1690 C 0.20816 0.81885 0.61531
 C1691 C 0.20197 0.80915 0.59881
 O1692 O 0.21200 0.79008 0.57237
 C1693 C 0.22942 0.78463 0.56692
 C1694 C 0.24406 0.79146 0.57814
 C1695 C 0.26344 0.78745 0.57487
 C1696 C 0.26786 0.77599 0.55940
 C1697 C 0.25295 0.76856 0.54783
 C1698 C 0.23345 0.77298 0.55173
 H1699 H 0.25723 0.81204 0.61060
 H1700 H 0.23344 0.82694 0.63204
 H1701 H 0.18686 0.80817 0.59493
 H1702 H 0.27474 0.79298 0.58387
 H1703 H 0.28286 0.77271 0.55660
 H1704 H 0.22176 0.76764 0.54308
 C1705 C 0.31604 0.67881 0.59264
 C1706 C 0.31123 0.66645 0.57883
 C1707 C 0.31413 0.64847 0.58145
 C1708 C 0.32213 0.64294 0.59911
 C1709 C 0.32669 0.65531 0.61400
 C1710 C 0.32374 0.67359 0.61049
 O1711 O 0.31198 0.69525 0.58725
 C1712 C 0.30435 0.69317 0.56971
 C1713 C 0.30342 0.67577 0.56397
 C1714 C 0.29505 0.67046 0.54657
 C1715 C 0.28727 0.68363 0.53460
 C1716 C 0.28836 0.70165 0.54003
 C1717 C 0.29715 0.70655 0.55775
 H1718 H 0.31037 0.63900 0.57027
 H1719 H 0.32476 0.62898 0.60111
 H1720 H 0.32677 0.68345 0.62147
 H1721 H 0.29425 0.65666 0.54250
 H1722 H 0.28048 0.67985 0.52105
 H1723 H 0.29784 0.72024 0.56229
 C1724 C 0.28764 0.17366 1.09645
 C1725 C 0.28027 0.16069 1.08458
 C1726 C 0.28234 0.14281 1.08857
 C1727 C 0.29216 0.13812 1.10560
 C1728 C 0.29940 0.15123 1.11854
 C1729 C 0.29720 0.16931 1.11363
 O1730 O 0.28427 0.18986 1.08991
 C1731 C 0.27451 0.18703 1.07362
 C1732 C 0.27152 0.16941 1.06977
 C1733 C 0.26111 0.16353 1.05373
 C1734 C 0.25359 0.17635 1.04108
 C1735 C 0.25686 0.19459 1.04451
 C1736 C 0.26749 0.19995 1.06106
 H1737 H 0.27664 0.13282 1.07889
 H1738 H 0.29413 0.12421 1.10863
 H1739 H 0.30230 0.17973 1.12311
 H1740 H 0.25880 0.14959 1.05109
 H1741 H 0.24551 0.17207 1.02847
 H1742 H 0.27006 0.21378 1.06417
 C1743 C 0.78010 0.68877 1.09232
 C1744 C 0.76955 0.67585 1.08312
 C1745 C 0.77026 0.65821 1.08857
 C1746 C 0.78234 0.65370 1.10412
 C1747 C 0.79321 0.66682 1.11417
 C1748 C 0.79184 0.68467 1.10810
 O1749 O 0.77843 0.70451 1.08404
 C1750 C 0.76658 0.70144 1.06931
 C1751 C 0.76056 0.68415 1.06820
 C1752 C 0.74859 0.67796 1.05348
 C1753 C 0.74289 0.69002 1.03912
 C1754 C 0.74949 0.70779 1.03958
 C1755 C 0.76125 0.71359 1.05512
 H1756 H 0.76222 0.64819 1.08079
 H1757 H 0.78354 0.63989 1.10792
 H1758 H 0.79975 0.69513 1.11529
 H1759 H 0.74414 0.66426 1.05284
 H1760 H 0.73404 0.68534 1.02723
 H1761 H 0.76665 0.72701 1.05582
 C1762 C 0.77545 0.19465 0.59087
 C1763 C 0.76674 0.18034 0.58229
 C1764 C 0.77055 0.16306 0.58771
 C1765 C 0.78390 0.16037 0.60265
 C1766 C 0.79280 0.17487 0.61238
 C1767 C 0.78833 0.19233 0.60625
 O1768 O 0.77056 0.20992 0.58270
 C1769 C 0.75844 0.20506 0.56873
 C1770 C 0.75548 0.18710 0.56808
 C1771 C 0.74333 0.17904 0.55472
 C1772 C 0.73390 0.18993 0.54135
 C1773 C 0.73708 0.20846 0.54128
 C1774 C 0.74955 0.21616 0.55520
 H1775 H 0.76387 0.15200 0.58034
 H1776 H 0.78755 0.14687 0.60617
 H1777 H 0.79459 0.20382 0.61314
 H1778 H 0.74124 0.16487 0.55454
 H1779 H 0.72455 0.18386 0.53065
 H1780 H 0.75224 0.23025 0.55544
 C1781 C 0.67287 0.71027 0.42486
 C1782 C 0.66551 0.72691 0.42190
 C1783 C 0.65261 0.73068 0.40711
 C1784 C 0.64723 0.71680 0.39476
 C1785 C 0.65433 0.69930 0.39760
 C1786 C 0.66720 0.69612 0.41321
 O1787 O 0.68614 0.70977 0.43871
 C1788 C 0.68715 0.72644 0.44458
 C1789 C 0.67466 0.73746 0.43494
 C1790 C 0.67367 0.75554 0.43858
 C1791 C 0.68623 0.76256 0.45262
 C1792 C 0.69969 0.75150 0.46219
 C1793 C 0.69999 0.73317 0.45823
 H1794 H 0.64745 0.74399 0.40468
 H1795 H 0.63810 0.72003 0.38256
 H1796 H 0.67304 0.68314 0.41610
 H1797 H 0.66375 0.76396 0.43076
 H1798 H 0.68595 0.77661 0.45556
 H1799 H 0.71010 0.72444 0.46540
 C1800 C 0.72283 0.20352 -0.09712
 C1801 C 0.74239 0.20074 -0.09907
 C1802 C 0.75021 0.19021 -0.11366
 C1803 C 0.73736 0.18216 -0.12671
 C1804 C 0.71698 0.18437 -0.12476
 C1805 C 0.70976 0.19533 -0.10963
 O1806 O 0.71837 0.21425 -0.08251
 C1807 C 0.73549 0.21827 -0.07502
 C1808 C 0.75066 0.21021 -0.08450
 C1809 C 0.76978 0.21218 -0.07864
 C1810 C 0.77340 0.22290 -0.06236
 C1811 C 0.75801 0.23166 -0.05265
 C1812 C 0.73880 0.22933 -0.05914
 H1813 H 0.76568 0.18841 -0.11508
 H1814 H 0.74341 0.17436 -0.13843
 H1815 H 0.69442 0.19725 -0.10735
 H1816 H 0.78148 0.20558 -0.08621
 H1817 H 0.78816 0.22460 -0.05749
 H1818 H 0.72677 0.23568 -0.05183
 C1819 C 0.20559 0.69971 -0.07095
 C1820 C 0.19048 0.70857 -0.06223
 C1821 C 0.17143 0.70677 -0.06826
 C1822 C 0.16786 0.69570 -0.08420
 C1823 C 0.18325 0.68679 -0.09379
 C1824 C 0.20234 0.68855 -0.08674
 O1825 O 0.22270 0.70399 -0.06367
 C1826 C 0.21831 0.71586 -0.05015
 C1827 C 0.19880 0.71917 -0.04872
 C1828 C 0.19115 0.73191 -0.03632
 C1829 C 0.20416 0.74166 -0.02493
 C1830 C 0.22436 0.73845 -0.02610
 C1831 C 0.23146 0.72524 -0.03883
 H1832 H 0.15981 0.71399 -0.06129
 H1833 H 0.15316 0.69438 -0.08940
 H1834 H 0.21442 0.68225 -0.09403
 H1835 H 0.17576 0.73446 -0.03566
 H1836 H 0.19849 0.75171 -0.01526
 H1837 H 0.24680 0.72265 -0.04029
 C1838 C 0.19281 0.21471 0.41074
 C1839 C 0.21057 0.21683 0.40192
 C1840 C 0.21536 0.20895 0.38430
 C1841 C 0.20139 0.19820 0.37553
 C1842 C 0.18308 0.19556 0.38442
 C1843 C 0.17856 0.20422 0.40210
 O1844 O 0.19189 0.22208 0.42826
 C1845 C 0.20946 0.22891 0.43056
 C1846 C 0.22140 0.22604 0.41483
 C1847 C 0.24088 0.23058 0.41473
 C1848 C 0.24848 0.23810 0.43168
 C1849 C 0.23657 0.24104 0.44820
 C1850 C 0.21665 0.23673 0.44748
 H1851 H 0.22956 0.21054 0.37786
 H1852 H 0.20496 0.19152 0.36206
 H1853 H 0.16487 0.20200 0.40939
 H1854 H 0.25006 0.22783 0.40232
 H1855 H 0.26375 0.24127 0.43211
 H1856 H 0.20740 0.23835 0.46008
 C1857 C 0.29236 0.40812 0.71085
 C1858 C 0.27294 0.40648 0.70710
 C1859 C 0.26526 0.39215 0.69711
 C1860 C 0.27810 0.37894 0.69084
 C1861 C 0.29835 0.38037 0.69428
 C1862 C 0.30544 0.39542 0.70430
 O1863 O 0.29666 0.42229 0.72134
 C1864 C 0.27956 0.42980 0.72426
 C1865 C 0.26457 0.42076 0.71568
 C1866 C 0.24545 0.42638 0.71691
 C1867 C 0.24164 0.44190 0.72747
 C1868 C 0.25682 0.45116 0.73684
 C1869 C 0.27606 0.44500 0.73516
 H1870 H 0.24986 0.39097 0.69464
 H1871 H 0.27210 0.36741 0.68377
 H1872 H 0.32070 0.39729 0.70707
 H1873 H 0.23388 0.41906 0.71004
 H1874 H 0.22685 0.44647 0.72875
 H1875 H 0.28793 0.45186 0.74209
 C1876 C 0.28485 0.92322 0.20788
 C1877 C 0.27572 0.93357 0.19434
 C1878 C 0.28039 0.93316 0.17472
 C1879 C 0.29486 0.92138 0.16872
 C1880 C 0.30409 0.90995 0.18222
 C1881 C 0.29901 0.91110 0.20219
 O1882 O 0.27881 0.92626 0.22593
 C1883 C 0.26554 0.93876 0.22368
 C1884 C 0.26296 0.94354 0.20460
 C1885 C 0.24983 0.95640 0.19891
 C1886 C 0.23918 0.96496 0.21353
 C1887 C 0.24206 0.96076 0.23341
 C1888 C 0.25531 0.94728 0.23849
 H1889 H 0.27330 0.94175 0.16441
 H1890 H 0.29889 0.92130 0.15352
 H1891 H 0.30555 0.90264 0.21298
 H1892 H 0.24805 0.95991 0.18378
 H1893 H 0.22927 0.97535 0.20938
 H1894 H 0.25792 0.94384 0.25352
 C1895 C 0.80048 0.42713 0.21407
 C1896 C 0.79177 0.43781 0.20056
 C1897 C 0.79220 0.43429 0.18076
 C1898 C 0.80179 0.41897 0.17460
 C1899 C 0.81044 0.40734 0.18823
 C1900 C 0.80996 0.41170 0.20829
 O1901 O 0.79809 0.43281 0.23220
 C1902 C 0.78756 0.44735 0.23005
 C1903 C 0.78322 0.45088 0.21096
 C1904 C 0.77166 0.46495 0.20535
 C1905 C 0.76425 0.47587 0.22003
 C1906 C 0.76868 0.47271 0.23984
 C1907 C 0.78064 0.45828 0.24492
 H1908 H 0.78531 0.44299 0.17041
 H1909 H 0.80236 0.41614 0.15919
 H1910 H 0.81617 0.40306 0.21912
 H1911 H 0.76830 0.46733 0.19023
 H1912 H 0.75521 0.48692 0.21593
 H1913 H 0.78408 0.45546 0.25993
 C1914 C 0.82021 0.91115 0.70147
 C1915 C 0.83520 0.91780 0.71235
 C1916 C 0.85282 0.90919 0.71415
 C1917 C 0.85505 0.89299 0.70447
 C1918 C 0.83967 0.88559 0.69345
 C1919 C 0.82204 0.89499 0.69185
 O1920 O 0.80461 0.92135 0.70178
 C1921 C 0.80986 0.93469 0.71314
 C1922 C 0.82840 0.93313 0.72006
 C1923 C 0.83657 0.94536 0.73271
 C1924 C 0.82514 0.95979 0.73848
 C1925 C 0.80601 0.96178 0.73139
 C1926 C 0.79836 0.94903 0.71845
 H1927 H 0.86445 0.91473 0.72270
 H1928 H 0.86881 0.88626 0.70554
 H1929 H 0.80993 0.88971 0.68379
 H1930 H 0.85115 0.94377 0.73810
 H1931 H 0.83120 0.96941 0.74839
 H1932 H 0.78374 0.95004 0.71298
 C1933 C 0.70878 0.57735 0.68125
 C1934 C 0.72673 0.57702 0.67265
 C1935 C 0.73341 0.59029 0.66049
 C1936 C 0.72097 0.60443 0.65675
 C1937 C 0.70188 0.60490 0.66462
 C1938 C 0.69585 0.59108 0.67725
 O1939 O 0.70593 0.56398 0.69347
 C1940 C 0.72245 0.55502 0.69243
 C1941 C 0.73550 0.56239 0.67967
 C1942 C 0.75383 0.55553 0.67648
 C1943 C 0.75922 0.54072 0.68729
 C1944 C 0.74647 0.53322 0.70130
 C1945 C 0.72761 0.54032 0.70359
 H1946 H 0.74788 0.58998 0.65444
 H1947 H 0.72647 0.61511 0.64788
 H1948 H 0.68155 0.59084 0.68367
 H1949 H 0.76381 0.56162 0.66634
 H1950 H 0.77372 0.53561 0.68529
 H1951 H 0.71761 0.53509 0.71429
 C1952 C 0.69893 0.08629 0.17210
 C1953 C 0.70588 0.07705 0.15635
 C1954 C 0.70330 0.08256 0.13731
 C1955 C 0.69330 0.09838 0.13431
 C1956 C 0.68632 0.10854 0.15023
 C1957 C 0.68895 0.10220 0.16945
 O1958 O 0.70348 0.07884 0.18898
 C1959 C 0.71359 0.06465 0.18371
 C1960 C 0.71550 0.06308 0.16387
 C1961 C 0.72629 0.04984 0.15504
 C1962 C 0.73565 0.03774 0.16712
 C1963 C 0.73393 0.03891 0.18764
 C1964 C 0.72251 0.05245 0.19609
 H1965 H 0.70891 0.07500 0.12518
 H1966 H 0.69107 0.10275 0.11952
 H1967 H 0.68398 0.10968 0.18192
 H1968 H 0.72773 0.04904 0.13939
 H1969 H 0.74428 0.02741 0.16049
 H1970 H 0.72119 0.05378 0.21170
 C1971 C 0.20694 0.58481 0.17456
 C1972 C 0.19230 0.57250 0.17510
 C1973 C 0.17336 0.57637 0.16998
 C1974 C 0.16918 0.59380 0.16463
 C1975 C 0.18378 0.60701 0.16475
 C1976 C 0.20308 0.60229 0.16926
 O1977 O 0.22367 0.57856 0.18106
 C1978 C 0.21943 0.56201 0.18595
 C1979 C 0.20036 0.55773 0.18269
 C1980 C 0.19229 0.54168 0.18825
 C1981 C 0.20436 0.52951 0.19754
 C1982 C 0.22412 0.53345 0.20079
 C1983 C 0.23187 0.54985 0.19473
 H1984 H 0.16209 0.56646 0.17065
 H1985 H 0.15439 0.59717 0.16108
 H1986 H 0.21442 0.61215 0.16991
 H1987 H 0.17714 0.53880 0.18592
 H1988 H 0.19837 0.51697 0.20219
 H1989 H 0.24684 0.55324 0.19743
 C1990 C 0.19282 0.07848 0.68010
 C1991 C 0.17822 0.06838 0.68797
 C1992 C 0.15881 0.07167 0.68455
 C1993 C 0.15419 0.08619 0.67287
 C1994 C 0.16889 0.09746 0.66528
 C1995 C 0.18856 0.09324 0.66872
 O1996 O 0.21034 0.07294 0.68508
 C1997 C 0.20666 0.05915 0.69644
 C1998 C 0.18721 0.05594 0.69886
 C1999 C 0.18008 0.04266 0.71088
 C2000 C 0.19358 0.03214 0.72071
 C2001 C 0.21369 0.03485 0.71799
 C2002 C 0.22032 0.04854 0.70566
 H2003 H 0.14759 0.06336 0.69068
 H2004 H 0.13908 0.08870 0.66991
 H2005 H 0.20018 0.10151 0.66334
 H2006 H 0.16470 0.04055 0.71272
 H2007 H 0.18841 0.02165 0.73007
 H2008 H 0.23562 0.05096 0.70352
 C2009 C 0.30680 0.57330 0.29094
 C2010 C 0.32197 0.56483 0.28190
 C2011 C 0.34095 0.57071 0.28316
 C2012 C 0.34442 0.58614 0.29387
 C2013 C 0.32898 0.59552 0.30287
 C2014 C 0.30992 0.58874 0.30166
 O2015 O 0.28979 0.56583 0.28729
 C2016 C 0.29434 0.55245 0.27562
 C2017 C 0.31384 0.55132 0.27181
 C2018 C 0.32168 0.53897 0.25905
 C2019 C 0.30889 0.52731 0.24979
 C2020 C 0.28872 0.52806 0.25360
 C2021 C 0.28139 0.54075 0.26686
 H2022 H 0.35264 0.56382 0.27589
 H2023 H 0.35913 0.59096 0.29489
 H2024 H 0.29779 0.59569 0.30808
 H2025 H 0.33706 0.53853 0.25606
 H2026 H 0.31469 0.51768 0.23969
 H2027 H 0.26604 0.54184 0.26979
 C2028 C 0.30515 0.08758 0.79527
 C2029 C 0.31976 0.07748 0.78751
 C2030 C 0.33917 0.08111 0.79064
 C2031 C 0.34376 0.09587 0.80206
 C2032 C 0.32906 0.10715 0.80967
 C2033 C 0.30938 0.10269 0.80620
 O2034 O 0.28763 0.08133 0.79122
 C2035 C 0.29132 0.06705 0.78057
 C2036 C 0.31077 0.06426 0.77767
 C2037 C 0.31793 0.05029 0.76665
 C2038 C 0.30449 0.03856 0.75846
 C2039 C 0.28438 0.04074 0.76179
 C2040 C 0.27770 0.05524 0.77298
 H2041 H 0.35042 0.07269 0.78477
 H2042 H 0.35888 0.09828 0.80506
 H2043 H 0.29762 0.11080 0.81151
 H2044 H 0.33331 0.04844 0.76449
 H2045 H 0.30978 0.02744 0.75007
 H2046 H 0.26242 0.05721 0.77574
 C2047 C 0.82068 0.58683 0.79243
 C2048 C 0.80137 0.59109 0.79125
 C2049 C 0.79361 0.60628 0.79943
 C2050 C 0.80615 0.61739 0.80968
 C2051 C 0.82603 0.61307 0.81179
 C2052 C 0.83349 0.59775 0.80260
 O2053 O 0.82482 0.57135 0.78427
 C2054 C 0.80773 0.56571 0.77796
 C2055 C 0.79293 0.57730 0.78200
 C2056 C 0.77368 0.57361 0.77793
 C2057 C 0.76946 0.55730 0.76930
 C2058 C 0.78443 0.54518 0.76471
 C2059 C 0.80389 0.54952 0.76895
 H2060 H 0.77835 0.60929 0.79834
 H2061 H 0.80029 0.62917 0.81642
 H2062 H 0.84850 0.59399 0.80422
 H2063 H 0.76228 0.58285 0.78156
 H2064 H 0.75453 0.55414 0.76605
 H2065 H 0.81554 0.54037 0.76587
 C2066 C 0.80036 0.07734 0.29616
 C2067 C 0.81702 0.06989 0.28883
 C2068 C 0.83538 0.07569 0.29388
 C2069 C 0.83665 0.09015 0.30652
 C2070 C 0.81971 0.09862 0.31362
 C2071 C 0.80129 0.09177 0.30880
 O2072 O 0.78439 0.07031 0.28876
 C2073 C 0.79115 0.05830 0.27640
 C2074 C 0.81102 0.05762 0.27582
 C2075 C 0.82119 0.04688 0.26296
 C2076 C 0.81043 0.03626 0.25028
 C2077 C 0.78992 0.03642 0.25085
 C2078 C 0.78015 0.04757 0.26418
 H2079 H 0.84825 0.06964 0.28785
 H2080 H 0.85083 0.09520 0.31021
 H2081 H 0.78814 0.09819 0.31366
 H2082 H 0.83684 0.04683 0.26256
 H2083 H 0.81806 0.02771 0.24023
 H2084 H 0.76451 0.04812 0.26475
 C2085 C 0.68781 0.41815 0.31479
 C2086 C 0.70617 0.41645 0.32205
 C2087 C 0.71301 0.40102 0.33032
 C2088 C 0.70031 0.38671 0.33151
 C2089 C 0.68079 0.38811 0.32514
 C2090 C 0.67459 0.40416 0.31638
 O2091 O 0.68483 0.43377 0.30642
 C2092 C 0.70170 0.44204 0.30860
 C2093 C 0.71506 0.43198 0.31833
 C2094 C 0.73365 0.43772 0.32232
 C2095 C 0.73895 0.45446 0.31569
 C2096 C 0.72586 0.46506 0.30489
 C2097 C 0.70680 0.45879 0.30148
 H2098 H 0.72778 0.39990 0.33532
 H2099 H 0.70594 0.37446 0.33722
 H2100 H 0.65997 0.40583 0.31116
 H2101 H 0.74383 0.42949 0.33005
 H2102 H 0.75361 0.45883 0.31842
 H2103 H 0.69653 0.46646 0.29319
 C2104 C 0.71671 0.91966 0.80321
 C2105 C 0.70245 0.93175 0.79919
 C2106 C 0.68289 0.92808 0.80150
 C2107 C 0.67776 0.91118 0.80802
 C2108 C 0.69212 0.89824 0.81185
 C2109 C 0.71193 0.90271 0.80966
 O2110 O 0.73437 0.92559 0.79917
 C2111 C 0.73115 0.94174 0.79236
 C2112 C 0.71183 0.94609 0.79202
 C2113 C 0.70500 0.96176 0.78412
 C2114 C 0.71862 0.97334 0.77599
 C2115 C 0.73860 0.96920 0.77621
 C2116 C 0.74503 0.95331 0.78478
 H2117 H 0.67194 0.93781 0.79815
 H2118 H 0.66257 0.90813 0.80995
 H2119 H 0.72323 0.89309 0.81214
 H2120 H 0.68970 0.96472 0.78369
 H2121 H 0.71364 0.98544 0.76928
 H2122 H 0.76018 0.94969 0.78460
 C2123 C 0.17555 0.41750 0.81780
 C2124 C 0.17796 0.42946 0.83265
 C2125 C 0.17268 0.42581 0.85175
 C2126 C 0.16495 0.40903 0.85577
 C2127 C 0.16293 0.39621 0.84081
 C2128 C 0.16799 0.40076 0.82147
 O2129 O 0.18263 0.42307 0.80093
 C2130 C 0.18980 0.43886 0.80523
 C2131 C 0.18741 0.44337 0.82448
 C2132 C 0.19549 0.45855 0.83252
 C2133 C 0.20664 0.46937 0.82026
 C2134 C 0.20916 0.46499 0.80039
 C2135 C 0.20039 0.44969 0.79268
 H2136 H 0.17487 0.43538 0.86324
 H2137 H 0.16099 0.40590 0.87061
 H2138 H 0.16724 0.39120 0.80979
 H2139 H 0.19385 0.46161 0.84780
 H2140 H 0.21359 0.48099 0.82625
 H2141 H 0.20271 0.44581 0.77770
 C2142 C 0.16929 0.90620 0.32413
 C2143 C 0.15337 0.91572 0.31843
 C2144 C 0.13457 0.91027 0.32245
 C2145 C 0.13213 0.89435 0.33266
 C2146 C 0.14836 0.88407 0.33840
 C2147 C 0.16721 0.89025 0.33398
 O2148 O 0.18591 0.91376 0.31927
 C2149 C 0.18039 0.92836 0.31026
 C2150 C 0.16064 0.93019 0.30919
 C2151 C 0.15187 0.94450 0.30006
 C2152 C 0.16400 0.95748 0.29187
 C2153 C 0.18440 0.95601 0.29325
 C2154 C 0.19262 0.94117 0.30253
 H2155 H 0.12224 0.91806 0.31804
 H2156 H 0.11757 0.89017 0.33623
 H2157 H 0.17998 0.88277 0.33777
 H2158 H 0.13629 0.94564 0.29929
 H2159 H 0.15752 0.96879 0.28482
 H2160 H 0.20814 0.93957 0.30368
 C2161 C 0.41742 0.31204 0.71836
 C2162 C 0.41681 0.31725 0.73747
 C2163 C 0.40119 0.32619 0.74549
 C2164 C 0.38557 0.33004 0.73329
 C2165 C 0.38592 0.32539 0.71321
 C2166 C 0.40230 0.31622 0.70577
 O2167 O 0.43304 0.30258 0.71401
 C2168 C 0.44250 0.30187 0.73076
 C2169 C 0.43327 0.31084 0.74550
 C2170 C 0.44042 0.31162 0.76432
 C2171 C 0.45760 0.30248 0.76823
 C2172 C 0.46705 0.29250 0.75351
 C2173 C 0.45946 0.29241 0.73440
 H2174 H 0.40080 0.32968 0.76074
 H2175 H 0.37307 0.33632 0.73977
 H2176 H 0.40339 0.31239 0.69066
 H2177 H 0.43287 0.31876 0.77568
 H2178 H 0.46307 0.30259 0.78295
 H2179 H 0.46622 0.28483 0.72288
 C2180 C 0.41248 0.82884 0.20687
 C2181 C 0.42143 0.83945 0.22033
 C2182 C 0.41611 0.85699 0.22331
 C2183 C 0.40112 0.86387 0.21178
 C2184 C 0.39164 0.85311 0.19779
 C2185 C 0.39736 0.83522 0.19569
 O2186 O 0.41990 0.81274 0.20577
 C2187 C 0.43387 0.81311 0.21886
 C2188 C 0.43535 0.82907 0.22835
 C2189 C 0.44891 0.83213 0.24286
 C2190 C 0.46137 0.81816 0.24774
 C2191 C 0.46029 0.80173 0.23783
 C2192 C 0.44634 0.79924 0.22316
 H2193 H 0.42346 0.86518 0.23387
 H2194 H 0.39724 0.87762 0.21352
 H2195 H 0.39028 0.82636 0.18561
 H2196 H 0.44980 0.84475 0.25022
 H2197 H 0.47202 0.82020 0.25902
 H2198 H 0.44503 0.78679 0.21551
 C2199 C 0.90787 0.31562 0.20669
 C2200 C 0.92057 0.32797 0.21390
 C2201 C 0.91819 0.34599 0.21106
 C2202 C 0.90188 0.35155 0.20070
 C2203 C 0.88798 0.33917 0.19381
 C2204 C 0.89133 0.32086 0.19662
 O2205 O 0.91279 0.29915 0.21110
 C2206 C 0.92884 0.30119 0.22141
 C2207 C 0.93410 0.31860 0.22372
 C2208 C 0.94983 0.32381 0.23492
 C2209 C 0.96061 0.31052 0.24407
 C2210 C 0.95575 0.29249 0.24149
 C2211 C 0.93970 0.28775 0.22992
 H2212 H 0.92850 0.35546 0.21669
 H2213 H 0.90005 0.36556 0.19823
 H2214 H 0.88105 0.31100 0.19183
 H2215 H 0.95351 0.33761 0.23676
 H2216 H 0.97288 0.31420 0.25294
 H2217 H 0.93556 0.27405 0.22802
 C2218 C 0.91381 0.78820 0.70921
 C2219 C 0.90984 0.77059 0.70623
 C2220 C 0.89288 0.76472 0.69761
 C2221 C 0.87965 0.77753 0.69140
 C2222 C 0.88370 0.79583 0.69366
 C2223 C 0.90091 0.80116 0.70309
 O2224 O 0.93107 0.79101 0.71699
 C2225 C 0.93820 0.77483 0.71885
 C2226 C 0.92583 0.76188 0.71236
 C2227 C 0.93085 0.74410 0.71183
 C2228 C 0.94939 0.73950 0.71828
 C2229 C 0.96232 0.75260 0.72527
 C2230 C 0.95655 0.77051 0.72568
 H2231 H 0.89009 0.75079 0.69539
 H2232 H 0.86644 0.77320 0.68447
 H2233 H 0.90466 0.81497 0.70469
 H2234 H 0.92097 0.73418 0.70640
 H2235 H 0.95362 0.72573 0.71798
 H2236 H 0.96622 0.78081 0.73067
 C2237 C 0.57181 0.31172 0.28316
 C2238 C 0.57440 0.31506 0.26369
 C2239 C 0.58938 0.32568 0.25675
 C2240 C 0.60248 0.33265 0.27040
 C2241 C 0.60028 0.32903 0.29055
 C2242 C 0.58419 0.31893 0.29689
 O2243 O 0.55779 0.30026 0.28683
 C2244 C 0.55133 0.29618 0.26931
 C2245 C 0.56081 0.30497 0.25459
 C2246 C 0.55656 0.30215 0.23506
 C2247 C 0.54203 0.28975 0.23062
 C2248 C 0.53251 0.28022 0.24563
 C2249 C 0.53721 0.28362 0.26523
 H2250 H 0.59141 0.32789 0.24134
 H2251 H 0.61480 0.34010 0.26514
 H2252 H 0.58179 0.31600 0.31210
 H2253 H 0.56425 0.30910 0.22367
 H2254 H 0.53855 0.28724 0.21554
 H2255 H 0.53017 0.27659 0.27699
 C2256 C 0.60080 0.80011 0.79388
 C2257 C 0.58753 0.81205 0.78703
 C2258 C 0.59012 0.83018 0.78835
 C2259 C 0.60720 0.83632 0.79690
 C2260 C 0.62168 0.82437 0.80345
 C2261 C 0.61820 0.80591 0.80197
 O2262 O 0.59516 0.78342 0.79171
 C2263 C 0.57801 0.78493 0.78320
 C2264 C 0.57284 0.80220 0.77983
 C2265 C 0.55581 0.80692 0.77056
 C2266 C 0.54351 0.79326 0.76457
 C2267 C 0.54820 0.77536 0.76835
 C2268 C 0.56568 0.77110 0.77787
 H2269 H 0.57925 0.83931 0.78321
 H2270 H 0.60893 0.85044 0.79855
 H2271 H 0.62876 0.79629 0.80662
 H2272 H 0.55216 0.82061 0.76794
 H2273 H 0.53009 0.79660 0.75740
 H2274 H 0.56958 0.75752 0.78081
 C2275 C 0.09544 0.29353 0.79672
 C2276 C 0.10312 0.29502 0.77831
 C2277 C 0.12038 0.30378 0.77443
 C2278 C 0.12996 0.31162 0.79012
 C2279 C 0.12222 0.31056 0.80919
 C2280 C 0.10491 0.30107 0.81262
 O2281 O 0.07813 0.28586 0.79695
 C2282 C 0.07481 0.28255 0.77828
 C2283 C 0.08968 0.28792 0.76632
 C2284 C 0.08869 0.28708 0.74619
 C2285 C 0.07156 0.28063 0.73799
 C2286 C 0.05592 0.27509 0.74994
 C2287 C 0.05772 0.27577 0.77042
 H2288 H 0.12593 0.30504 0.75977
 H2289 H 0.14315 0.31897 0.78740
 H2290 H 0.09848 0.30050 0.82699
 H2291 H 0.10045 0.29170 0.73709
 H2292 H 0.07038 0.28018 0.72231
 H2293 H 0.04585 0.27203 0.77987
 C2294 C 0.07207 0.78919 0.32633
 C2295 C 0.06278 0.77873 0.33975
 C2296 C 0.06791 0.77851 0.35929
 C2297 C 0.08316 0.78959 0.36518
 C2298 C 0.09303 0.80047 0.35153
 C2299 C 0.08734 0.80006 0.33178
 O2300 O 0.06504 0.78759 0.30852
 C2301 C 0.05099 0.77584 0.31070
 C2302 C 0.04901 0.76990 0.32949
 C2303 C 0.03537 0.75725 0.33481
 C2304 C 0.02337 0.75043 0.32014
 C2305 C 0.02508 0.75649 0.30068
 C2306 C 0.03908 0.76945 0.29601
 H2307 H 0.06035 0.77023 0.36964
 H2308 H 0.08705 0.78985 0.38039
 H2309 H 0.09470 0.80784 0.32082
 H2310 H 0.03412 0.75268 0.34965
 H2311 H 0.01274 0.74049 0.32395
 H2312 H 0.04094 0.77422 0.28129
 C2313 C 0.59555 0.68639 0.69964
 C2314 C 0.58711 0.67366 0.71111
 C2315 C 0.59340 0.65624 0.71127
 C2316 C 0.60900 0.65176 0.69911
 C2317 C 0.61834 0.66472 0.68735
 C2318 C 0.61137 0.68235 0.68781
 O2319 O 0.58706 0.70205 0.70121
 C2320 C 0.57299 0.69915 0.71400
 C2321 C 0.57250 0.68203 0.72067
 C2322 C 0.55918 0.67625 0.73449
 C2323 C 0.54582 0.68863 0.74170
 C2324 C 0.54578 0.70625 0.73470
 C2325 C 0.55957 0.71154 0.72061
 H2326 H 0.58634 0.64637 0.72020
 H2327 H 0.61348 0.63808 0.69867
 H2328 H 0.61808 0.69275 0.67938
 H2329 H 0.55914 0.66274 0.73961
 H2330 H 0.53532 0.68446 0.75248
 H2331 H 0.56001 0.72496 0.71519
 C2332 C 0.58109 0.19341 0.17617
 C2333 C 0.56839 0.18012 0.18095
 C2334 C 0.57263 0.16234 0.17815
 C2335 C 0.59064 0.15807 0.16991
 C2336 C 0.60411 0.17152 0.16485
 C2337 C 0.59915 0.18947 0.16816
 O2338 O 0.57443 0.20942 0.18042
 C2339 C 0.55714 0.20617 0.18810
 C2340 C 0.55279 0.18842 0.18879
 C2341 C 0.53591 0.18194 0.19718
 C2342 C 0.52317 0.19421 0.20555
 C2343 C 0.52735 0.21254 0.20509
 C2344 C 0.54443 0.21867 0.19597
 H2345 H 0.56239 0.15211 0.18207
 H2346 H 0.59392 0.14431 0.16720
 H2347 H 0.60912 0.20008 0.16481
 H2348 H 0.53293 0.16791 0.19780
 H2349 H 0.51024 0.18946 0.21280
 H2350 H 0.54817 0.23256 0.19598
 C2351 C 0.09247 0.69742 0.20503
 C2352 C 0.09194 0.68975 0.22312
 C2353 C 0.10572 0.67779 0.22945
 C2354 C 0.12056 0.67325 0.21650
 C2355 C 0.12128 0.68046 0.19745
 C2356 C 0.10715 0.69301 0.19177
 O2357 O 0.07767 0.70829 0.20196
 C2358 C 0.06760 0.70735 0.21847
 C2359 C 0.07575 0.69609 0.23178
 C2360 C 0.06739 0.69246 0.24970
 C2361 C 0.04987 0.70078 0.25418
 C2362 C 0.04113 0.71267 0.24091
 C2363 C 0.05023 0.71610 0.22279
 H2364 H 0.10500 0.67204 0.24383
 H2365 H 0.13145 0.66399 0.22131
 H2366 H 0.10720 0.69867 0.17733
 H2367 H 0.07404 0.68340 0.25983
 H2368 H 0.04321 0.69810 0.26814
 H2369 H 0.04383 0.72498 0.21231
 C2370 C 0.08055 0.19543 0.66323
 C2371 C 0.06567 0.18450 0.66895
 C2372 C 0.06597 0.16635 0.66606
 C2373 C 0.08251 0.15907 0.65740
 C2374 C 0.09847 0.16992 0.65210
 C2375 C 0.09722 0.18846 0.65461
 O2376 O 0.07770 0.21220 0.66817
 C2377 C 0.06075 0.21178 0.67732
 C2378 C 0.05286 0.19511 0.67830
 C2379 C 0.03595 0.19139 0.68852
 C2380 C 0.02678 0.20543 0.69813
 C2381 C 0.03445 0.22278 0.69708
 C2382 C 0.05159 0.22603 0.68637
 H2383 H 0.05410 0.15802 0.67074
 H2384 H 0.08314 0.14490 0.65532
 H2385 H 0.10926 0.19703 0.65107
 H2386 H 0.03025 0.17809 0.68938
 H2387 H 0.01366 0.20285 0.70630
 H2388 H 0.05793 0.23911 0.68569
 C2389 C 0.40546 0.70227 0.29592
 C2390 C 0.40131 0.70417 0.27651
 C2391 C 0.38581 0.69582 0.26761
 C2392 C 0.37422 0.68481 0.27911
 C2393 C 0.37834 0.68226 0.29911
 C2394 C 0.39403 0.69139 0.30771
 O2395 O 0.42134 0.71093 0.30122
 C2396 C 0.42733 0.71836 0.28476
 C2397 C 0.41554 0.71455 0.26925
 C2398 C 0.41946 0.72017 0.25046
 C2399 C 0.43629 0.73010 0.24745
 C2400 C 0.44876 0.73431 0.26314
 C2401 C 0.44408 0.72848 0.28214
 H2402 H 0.38291 0.69750 0.25228
 H2403 H 0.36211 0.67811 0.27239
 H2404 H 0.39765 0.68953 0.32286
 H2405 H 0.41004 0.71682 0.23848
 H2406 H 0.43958 0.73452 0.23284
 H2407 H 0.45343 0.73131 0.29434
 C2408 C 0.42336 0.19418 0.81266
 C2409 C 0.43337 0.19946 0.82891
 C2410 C 0.42841 0.19404 0.84755
 C2411 C 0.41212 0.18316 0.84959
 C2412 C 0.40105 0.17806 0.83316
 C2413 C 0.40710 0.18330 0.81435
 O2414 O 0.43014 0.20133 0.79638
 C2415 C 0.44463 0.21140 0.80254
 C2416 C 0.44713 0.21079 0.82233
 C2417 C 0.46086 0.22094 0.83197
 C2418 C 0.47269 0.23203 0.82071
 C2419 C 0.47069 0.23266 0.80020
 C2420 C 0.45639 0.22217 0.79103
 H2421 H 0.43650 0.19839 0.86011
 H2422 H 0.40775 0.17914 0.86406
 H2423 H 0.39876 0.17990 0.80160
 H2424 H 0.46237 0.22039 0.84760
 H2425 H 0.48362 0.23987 0.82794
 H2426 H 0.45441 0.22244 0.77544
 C2427 C 0.93514 0.67988 0.80733
 C2428 C 0.94820 0.68473 0.82137
 C2429 C 0.94530 0.68119 0.84097
 C2430 C 0.92813 0.67251 0.84634
 C2431 C 0.91399 0.66792 0.83222
 C2432 C 0.91783 0.67153 0.81236
 O2433 O 0.94044 0.68475 0.78957
 C2434 C 0.95715 0.69295 0.79249
 C2435 C 0.96249 0.69346 0.81171
 C2436 C 0.97883 0.70249 0.81812
 C2437 C 0.99004 0.71141 0.80414
 C2438 C 0.98497 0.71076 0.78422
 C2439 C 0.96839 0.70125 0.77832
 H2440 H 0.95583 0.68504 0.85177
 H2441 H 0.92587 0.66951 0.86154
 H2442 H 0.90737 0.66860 0.80115
 H2443 H 0.98255 0.70301 0.83337
 H2444 H 1.00263 0.71879 0.80877
 H2445 H 0.96395 0.70096 0.76325
 C2446 C 0.88997 0.20611 0.31150
 C2447 C 0.88624 0.20831 0.29202
 C2448 C 0.87004 0.20130 0.28297
 C2449 C 0.85744 0.19114 0.29433
 C2450 C 0.86130 0.18805 0.31427
 C2451 C 0.87751 0.19608 0.32314
 O2452 O 0.90681 0.21300 0.31686
 C2453 C 0.91388 0.21952 0.30038
 C2454 C 0.90186 0.21687 0.28476
 C2455 C 0.90698 0.22132 0.26585
 C2456 C 0.92523 0.22889 0.26288
 C2457 C 0.93782 0.23202 0.27874
 C2458 C 0.93198 0.22741 0.29781
 H2459 H 0.86756 0.20308 0.26758
 H2460 H 0.84505 0.18503 0.28744
 H2461 H 0.88100 0.19356 0.33820
 H2462 H 0.89740 0.21876 0.25377
 H2463 H 0.92952 0.23246 0.24825
 H2464 H 0.94146 0.22942 0.31011
 C2465 C 0.30608 0.29947 0.59769
 C2466 C 0.31101 0.28191 0.59857
 C2467 C 0.32097 0.27467 0.61411
 C2468 C 0.32605 0.28596 0.62945
 C2469 C 0.32150 0.30429 0.62887
 C2470 C 0.31138 0.31104 0.61256
 O2471 O 0.29616 0.30358 0.58183
 C2472 C 0.29487 0.28827 0.57246
 C2473 C 0.30388 0.27464 0.58204
 C2474 C 0.30470 0.25756 0.57469
 C2475 C 0.29589 0.25438 0.55671
 C2476 C 0.28619 0.26811 0.54667
 C2477 C 0.28560 0.28531 0.55473
 H2478 H 0.32444 0.26073 0.61458
 H2479 H 0.33319 0.28026 0.64190
 H2480 H 0.30780 0.32490 0.61130
 H2481 H 0.31197 0.24708 0.58245
 H2482 H 0.29639 0.24115 0.55072
 H2483 H 0.27845 0.29606 0.54729
 C2484 C 0.31392 0.83119 0.08495
 C2485 C 0.32918 0.82519 0.07390
 C2486 C 0.34828 0.82960 0.07791
 C2487 C 0.35177 0.84038 0.09415
 C2488 C 0.33627 0.84627 0.10617
 C2489 C 0.31705 0.84171 0.10121
 O2490 O 0.29691 0.82526 0.07899
 C2491 C 0.30151 0.81521 0.06389
 C2492 C 0.32108 0.81459 0.06020
 C2493 C 0.32904 0.80410 0.04561
 C2494 C 0.31629 0.79392 0.03434
 C2495 C 0.29604 0.79464 0.03773
 C2496 C 0.28861 0.80550 0.05269
 H2497 H 0.36007 0.82478 0.06898
 H2498 H 0.36656 0.84394 0.09747
 H2499 H 0.30487 0.84553 0.11019
 H2500 H 0.34450 0.80363 0.04312
 H2501 H 0.32213 0.78564 0.02290
 H2502 H 0.27326 0.80609 0.05580
 C2503 C 0.80470 0.31299 0.09272
 C2504 C 0.78488 0.31451 0.09279
 C2505 C 0.77469 0.32264 0.10770
 C2506 C 0.78535 0.32994 0.12298
 C2507 C 0.80593 0.32947 0.12293
 C2508 C 0.81570 0.32045 0.10769
 O2509 O 0.81144 0.30461 0.07710
 C2510 C 0.79551 0.30093 0.06709
 C2511 C 0.77892 0.30690 0.07600
 C2512 C 0.76070 0.30520 0.06775
 C2513 C 0.75946 0.29681 0.04963
 C2514 C 0.77623 0.29001 0.04037
 C2515 C 0.79455 0.29210 0.04925
 H2516 H 0.75906 0.32343 0.10754
 H2517 H 0.77750 0.33621 0.13475
 H2518 H 0.83133 0.31987 0.10707
 H2519 H 0.74789 0.31022 0.07498
 H2520 H 0.74537 0.29517 0.04304
 H2521 H 0.80759 0.28712 0.04242
 C2522 C 0.80194 0.81740 0.58623
 C2523 C 0.81550 0.81139 0.57310
 C2524 C 0.83527 0.81222 0.57647
 C2525 C 0.84134 0.81905 0.59436
 C2526 C 0.82767 0.82481 0.60843
 C2527 C 0.80769 0.82441 0.60410
 O2528 O 0.78387 0.81436 0.58062
 C2529 C 0.78611 0.80617 0.56366
 C2530 C 0.80520 0.80399 0.55848
 C2531 C 0.81094 0.79475 0.54199
 C2532 C 0.79642 0.78753 0.53026
 C2533 C 0.77658 0.78972 0.53511
 C2534 C 0.77139 0.79929 0.55204
 H2535 H 0.84563 0.80721 0.56599
 H2536 H 0.85665 0.81922 0.59762
 H2537 H 0.79698 0.82828 0.61481
 H2538 H 0.82607 0.79296 0.53841
 H2539 H 0.80065 0.78032 0.51733
 H2540 H 0.75640 0.80098 0.55627
 C2541 C 0.30495 0.68258 0.40745
 C2542 C 0.29867 0.66955 0.41985
 C2543 C 0.30077 0.65169 0.41571
 C2544 C 0.30966 0.64704 0.39804
 C2545 C 0.31584 0.66020 0.38459
 C2546 C 0.31328 0.67828 0.38957
 O2547 O 0.30226 0.69876 0.41443
 C2548 C 0.29400 0.69589 0.43158
 C2549 C 0.29125 0.67824 0.43549
 C2550 C 0.28245 0.67226 0.45246
 C2551 C 0.27634 0.68500 0.46600
 C2552 C 0.27955 0.70324 0.46255
 C2553 C 0.28854 0.70876 0.44509
 H2554 H 0.29603 0.64166 0.42587
 H2555 H 0.31193 0.63316 0.39511
 H2556 H 0.31739 0.68884 0.37982
 H2557 H 0.28033 0.65831 0.45517
 H2558 H 0.26956 0.68067 0.47939
 H2559 H 0.29105 0.72262 0.44210
 C2560 C 0.28937 0.18260 0.91266
 C2561 C 0.28905 0.20053 0.90942
 C2562 C 0.29631 0.20829 0.89267
 C2563 C 0.30505 0.19721 0.87898
 C2564 C 0.30678 0.17878 0.88238
 C2565 C 0.29823 0.17124 0.89919
 O2566 O 0.28205 0.17817 0.92990
 C2567 C 0.27728 0.19368 0.93771
 C2568 C 0.28155 0.20774 0.92580
 C2569 C 0.27919 0.22523 0.93144
 C2570 C 0.27172 0.22842 0.95005
 C2571 C 0.26645 0.21422 0.96237
 C2572 C 0.26920 0.19655 0.95614
 H2573 H 0.29581 0.22244 0.89050
 H2574 H 0.31146 0.20309 0.86613
 H2575 H 0.29965 0.15728 0.90229
 H2576 H 0.28304 0.23604 0.92190
 H2577 H 0.26941 0.24195 0.95465
 H2578 H 0.26530 0.18552 0.96537
 C2579 C 0.81922 0.68499 0.92478
 C2580 C 0.81034 0.67206 0.93568
 C2581 C 0.81261 0.65414 0.93193
 C2582 C 0.82411 0.64933 0.91598
 C2583 C 0.83289 0.66238 0.90405
 C2584 C 0.83081 0.68047 0.90885
 O2585 O 0.81402 0.70122 0.92998
 C2586 C 0.80149 0.69845 0.94436
 C2587 C 0.79869 0.68081 0.94831
 C2588 C 0.78490 0.67478 0.96147
 C2589 C 0.77342 0.68744 0.97087
 C2590 C 0.77611 0.70569 0.96717
 C2591 C 0.79054 0.71133 0.95396
 H2592 H 0.80529 0.64424 0.94059
 H2593 H 0.82567 0.63544 0.91251
 H2594 H 0.83692 0.69071 0.89973
 H2595 H 0.78266 0.66081 0.96398
 H2596 H 0.76232 0.68306 0.98093
 H2597 H 0.79247 0.72519 0.95056
 C2598 C 0.77771 0.18237 0.41485
 C2599 C 0.77211 0.16902 0.42716
 C2600 C 0.77726 0.15149 0.42410
 C2601 C 0.78857 0.14757 0.40764
 C2602 C 0.79415 0.16105 0.39434
 C2603 C 0.78852 0.17874 0.39819
 O2604 O 0.77159 0.19819 0.42047
 C2605 C 0.76182 0.19474 0.43665
 C2606 C 0.76150 0.17707 0.44131
 C2607 C 0.75146 0.17053 0.45734
 C2608 C 0.74139 0.18271 0.46901
 C2609 C 0.74194 0.20102 0.46471
 C2610 C 0.75236 0.20710 0.44833
 H2611 H 0.77288 0.14121 0.43412
 H2612 H 0.79305 0.13402 0.40544
 H2613 H 0.79205 0.18943 0.38838
 H2614 H 0.75124 0.15655 0.46063
 H2615 H 0.73342 0.17797 0.48155
 H2616 H 0.75278 0.22099 0.44459
 C2617 C 0.67459 0.29307 0.40476
 C2618 C 0.67216 0.27576 0.39925
 C2619 C 0.66451 0.27088 0.38142
 C2620 C 0.65907 0.28441 0.36873
 C2621 C 0.66088 0.30250 0.37414
 C2622 C 0.66887 0.30678 0.39252
 O2623 O 0.68242 0.29477 0.42227
 C2624 C 0.68488 0.27815 0.42791
 C2625 C 0.67867 0.26604 0.41438
 C2626 C 0.67923 0.24792 0.41746
 C2627 C 0.68646 0.24201 0.43529
 C2628 C 0.69326 0.25419 0.44937
 C2629 C 0.69260 0.27254 0.44558
 H2630 H 0.66301 0.25714 0.37733
 H2631 H 0.65369 0.28069 0.35456
 H2632 H 0.67040 0.32033 0.39732
 H2633 H 0.67409 0.23867 0.40664
 H2634 H 0.68695 0.22793 0.43807
 H2635 H 0.69750 0.28208 0.45622
 C2636 C 0.70695 0.79703 0.89922
 C2637 C 0.72670 0.79912 0.89962
 C2638 C 0.73663 0.80978 0.88654
 C2639 C 0.72576 0.81874 0.87252
 C2640 C 0.70527 0.81718 0.87198
 C2641 C 0.69581 0.80601 0.88557
 O2642 O 0.70036 0.78632 0.91302
 C2643 C 0.71630 0.78162 0.92237
 C2644 C 0.73278 0.78918 0.91480
 C2645 C 0.75099 0.78663 0.92279
 C2646 C 0.75225 0.77590 0.93933
 C2647 C 0.73550 0.76778 0.94730
 C2648 C 0.71727 0.77058 0.93857
 H2649 H 0.75221 0.81111 0.88707
 H2650 H 0.73339 0.82681 0.86201
 H2651 H 0.68024 0.80463 0.88585
 H2652 H 0.76372 0.79287 0.91668
 H2653 H 0.76628 0.77383 0.94587
 H2654 H 0.70422 0.76474 0.94451
 C2655 C 0.18766 0.29396 0.92361
 C2656 C 0.20552 0.30125 0.92712
 C2657 C 0.21272 0.31562 0.91692
 C2658 C 0.20096 0.32297 0.90258
 C2659 C 0.18216 0.31613 0.89884
 C2660 C 0.17553 0.30121 0.90946
 O2661 O 0.18389 0.28007 0.93486
 C2662 C 0.19972 0.27867 0.94568
 C2663 C 0.21329 0.29141 0.94151
 C2664 C 0.23087 0.29267 0.95105
 C2665 C 0.23475 0.28020 0.96549
 C2666 C 0.22120 0.26667 0.97005
 C2667 C 0.20337 0.26593 0.95995
 H2668 H 0.22697 0.32092 0.91980
 H2669 H 0.20665 0.33393 0.89424
 H2670 H 0.16134 0.29561 0.90701
 H2671 H 0.24127 0.30287 0.94747
 H2672 H 0.24852 0.28095 0.97289
 H2673 H 0.19275 0.25579 0.96305
 C2674 C 0.19967 0.79374 0.42717
 C2675 C 0.21035 0.80629 0.43680
 C2676 C 0.20751 0.82429 0.43422
 C2677 C 0.19321 0.82958 0.42104
 C2678 C 0.18236 0.81694 0.41025
 C2679 C 0.18578 0.79868 0.41356
 O2680 O 0.20405 0.77733 0.43235
 C2681 C 0.21787 0.77959 0.44547
 C2682 C 0.22244 0.79706 0.44853
 C2683 C 0.23674 0.80240 0.46145
 C2684 C 0.24654 0.78921 0.47180
 C2685 C 0.24158 0.77115 0.46942
 C2686 C 0.22708 0.76629 0.45598
 H2687 H 0.21579 0.83393 0.44230
 H2688 H 0.19054 0.84358 0.41953
 H2689 H 0.17814 0.78851 0.40565
 H2690 H 0.24015 0.81623 0.46354
 H2691 H 0.25752 0.79307 0.48215
 H2692 H 0.22305 0.75259 0.45387
 C2693 C 0.68658 0.70282 0.57924
 C2694 C 0.69105 0.69283 0.56314
 C2695 C 0.68781 0.67475 0.56213
 C2696 C 0.68016 0.66645 0.57862
 C2697 C 0.67616 0.67622 0.59580
 C2698 C 0.67893 0.69479 0.59591
 O2699 O 0.69158 0.71972 0.57733
 C2700 C 0.69951 0.72033 0.55969
 C2701 C 0.69964 0.70415 0.55054
 C2702 C 0.70831 0.70134 0.53259
 C2703 C 0.71713 0.71582 0.52356
 C2704 C 0.71694 0.73278 0.53239
 C2705 C 0.70785 0.73511 0.55070
 H2706 H 0.69151 0.66722 0.54926
 H2707 H 0.67794 0.65229 0.57826
 H2708 H 0.67636 0.70253 0.60890
 H2709 H 0.70847 0.68841 0.52586
 H2710 H 0.72384 0.71387 0.50947
 H2711 H 0.70765 0.74787 0.55783
 C2712 C 0.70393 0.20198 0.06942
 C2713 C 0.69030 0.20893 0.05712
 C2714 C 0.67057 0.20627 0.05967
 C2715 C 0.66462 0.19605 0.07559
 C2716 C 0.67834 0.18886 0.08870
 C2717 C 0.69833 0.19186 0.08542
 O2718 O 0.72193 0.20631 0.06451
 C2719 C 0.71957 0.21623 0.04879
 C2720 C 0.70048 0.21826 0.04372
 C2721 C 0.69464 0.22857 0.02813
 C2722 C 0.70905 0.23725 0.01739
 C2723 C 0.72888 0.23539 0.02227
 C2724 C 0.73420 0.22456 0.03814
 H2725 H 0.66013 0.21185 0.04974
 H2726 H 0.64930 0.19363 0.07757
 H2727 H 0.70919 0.18676 0.09521
 H2728 H 0.67950 0.23005 0.02452
 H2729 H 0.70473 0.24546 0.00529
 H2730 H 0.74917 0.22306 0.04238
 C2731 C 0.21739 0.70659 0.09649
 C2732 C 0.22112 0.72291 0.10443
 C2733 C 0.21532 0.72762 0.12309
 C2734 C 0.20513 0.71504 0.13401
 C2735 C 0.20077 0.69815 0.12615
 C2736 C 0.20725 0.69384 0.10713
 O2737 O 0.22342 0.70515 0.07817
 C2738 C 0.23106 0.72093 0.07448
 C2739 C 0.22995 0.73226 0.09012
 C2740 C 0.23582 0.74979 0.08920
 C2741 C 0.24284 0.75602 0.07136
 C2742 C 0.24409 0.74470 0.05498
 C2743 C 0.23844 0.72678 0.05662
 H2744 H 0.21834 0.74061 0.12895
 H2745 H 0.20058 0.71849 0.14860
 H2746 H 0.20391 0.68119 0.10059
 H2747 H 0.23450 0.75851 0.10162
 H2748 H 0.24703 0.76978 0.07017
 H2749 H 0.23879 0.71803 0.04417
 C2750 C 0.19881 0.18976 0.56924
 C2751 C 0.20859 0.17821 0.55732
 C2752 C 0.20736 0.15998 0.55943
 C2753 C 0.19563 0.15339 0.57449
 C2754 C 0.18558 0.16500 0.58726
 C2755 C 0.18724 0.18351 0.58442
 O2756 O 0.20198 0.20660 0.56486
 C2757 C 0.21408 0.20566 0.54986
 C2758 C 0.21866 0.18860 0.54472
 C2759 C 0.23156 0.18463 0.52977
 C2760 C 0.24010 0.19882 0.51976
 C2761 C 0.23548 0.21656 0.52467
 C2762 C 0.22216 0.21996 0.53991
 H2763 H 0.21511 0.15114 0.54979
 H2764 H 0.19431 0.13921 0.57606
 H2765 H 0.18010 0.19283 0.59398
 H2766 H 0.23506 0.17110 0.52607
 H2767 H 0.25026 0.19599 0.50815
 H2768 H 0.21852 0.23332 0.54418
   
