data_POSCAR
  _audit_creation_date              2014-09-24
  _audit_creation_method            'ToBaCCo'
  _symmetry_space_group_name_H-M    'P1'
  _symmetry_Int_Tables_number       1
  _symmetry_cell_setting            triclinic
  loop_
  _symmetry_equiv_pos_as_xyz
 x,y,z
_cell_length_a 46.9550
_cell_length_b 54.4289
_cell_length_c 51.7843
_cell_angle_alpha 90.033000
_cell_angle_beta 89.755000
_cell_angle_gamma 89.642700
loop_
  _atom_site_label
  _atom_site_type_symbol
  _atom_site_fract_x
  _atom_site_fract_y
  _atom_site_fract_z
C1 C 0.27632 0.35538 -0.02290
 C2 C 0.27038 0.36566 0.00144
 C3 C 0.27928 0.35430 0.02436
 C4 C 0.29418 0.33156 0.02316
 C5 C 0.29926 0.32037 -0.00112
 C6 C 0.28888 0.33157 -0.02393
 C7 C 0.29002 0.31802 -0.04704
 C8 C 0.30564 0.29635 -0.04863
 C9 C 0.32092 0.28748 -0.02723
 C10 C 0.31524 0.29810 -0.00275
 C11 C 0.30404 0.31960 0.04550
 C12 C 0.32028 0.29816 0.04387
 C13 C 0.32603 0.28691 0.01991
 C14 C 0.34262 0.26509 0.01785
 C15 C 0.34984 0.25603 -0.00673
 C16 C 0.34061 0.26764 -0.02955
 H17 H 0.27902 0.32423 -0.06419
 H18 H 0.30598 0.28672 -0.06693
 H19 H 0.29957 0.32674 0.06457
 H20 H 0.32855 0.29083 0.06171
 H21 H 0.26116 0.38394 0.00273
 H22 H 0.36441 0.24057 -0.00780
 C23 C 0.73027 0.64278 -0.00214
 C24 C 0.73486 0.63447 -0.02732
 C25 C 0.71953 0.64378 -0.04851
 C26 C 0.70001 0.66353 -0.04404
 C27 C 0.69420 0.67139 -0.01830
 C28 C 0.70917 0.66078 0.00272
 C29 C 0.70348 0.66919 0.02788
 C30 C 0.68275 0.68704 0.03252
 C31 C 0.66723 0.69757 0.01213
 C32 C 0.67402 0.69050 -0.01361
 C33 C 0.68784 0.67693 -0.06454
 C34 C 0.66898 0.69631 -0.05995
 C35 C 0.66140 0.70307 -0.03468
 C36 C 0.64227 0.72267 -0.02983
 C37 C 0.63412 0.72812 -0.00449
 C38 C 0.64589 0.71569 0.01665
 H39 H 0.71508 0.66209 0.04430
 H40 H 0.67970 0.69304 0.05225
 H41 H 0.69355 0.67318 -0.08441
 H42 H 0.66033 0.70596 -0.07646
 H43 H 0.74981 0.61941 -0.02997
 H44 H 0.61839 0.74248 -0.00127
 C45 C 0.64426 0.28348 1.02800
 C46 C 0.63129 0.27470 1.00535
 C47 C 0.63754 0.28437 0.98102
 C48 C 0.65850 0.30276 0.97868
 C49 C 0.67183 0.31209 1.00111
 C50 C 0.66541 0.30204 1.02577
 C51 C 0.68156 0.30988 1.04711
 C52 C 0.70107 0.32894 1.04486
 C53 C 0.70582 0.34045 1.02102
 C54 C 0.69164 0.33160 0.99883
 C55 C 0.66695 0.31169 0.95437
 C56 C 0.68572 0.33119 0.95224
 C57 C 0.69724 0.34223 0.97432
 C58 C 0.71487 0.36316 0.97253
 C59 C 0.72845 0.37177 0.99471
 C60 C 0.72470 0.36040 1.01861
 H61 H 0.67961 0.30116 1.06578
 H62 H 0.71237 0.33462 1.06202
 H63 H 0.65915 0.30368 0.93666
 H64 H 0.69139 0.33730 0.93303
 H65 H 0.61410 0.26155 1.00675
 H66 H 0.74210 0.38774 0.99345
 C67 C 0.29844 0.62685 1.03422
 C68 C 0.28863 0.61994 1.00967
 C69 C 0.29448 0.63384 0.98754
 C70 C 0.30829 0.65678 0.99014
 C71 C 0.31840 0.66436 1.01466
 C72 C 0.31382 0.64930 1.03671
 C73 C 0.32363 0.65780 1.06074
 C74 C 0.33959 0.67908 1.06280
 C75 C 0.34363 0.69480 1.04159
 C76 C 0.33306 0.68716 1.01711
 C77 C 0.31172 0.67255 0.96886
 C78 C 0.32614 0.69467 0.97118
 C79 C 0.33744 0.70208 0.99495
 C80 C 0.35261 0.72427 0.99724
 C81 C 0.36328 0.73127 1.02120
 C82 C 0.35907 0.71727 1.04367
 H83 H 0.31923 0.64825 1.07853
 H84 H 0.34875 0.68271 1.08145
 H85 H 0.30295 0.66809 0.95016
 H86 H 0.32827 0.70597 0.95410
 H87 H 0.27827 0.60231 1.00736
 H88 H 0.37428 0.74871 1.02240
 C89 C 0.00494 0.29440 0.36748
 C90 C -0.02121 0.28583 0.37667
 C91 C -0.04721 0.29756 0.37078
 C92 C -0.04680 0.31750 0.35278
 C93 C -0.02034 0.32619 0.34300
 C94 C 0.00554 0.31551 0.35161
 C95 C 0.03139 0.32657 0.34462
 C96 C 0.03210 0.34576 0.32704
 C97 C 0.00704 0.35450 0.31547
 C98 C -0.01961 0.34547 0.32434
 C99 C -0.07195 0.32833 0.34332
 C100 C -0.07119 0.34770 0.32581
 C101 C -0.04541 0.35576 0.31479
 C102 C -0.04438 0.37457 0.29556
 C103 C -0.01754 0.38242 0.28665
 C104 C 0.00798 0.37254 0.29585
 H105 H 0.05143 0.32066 0.35282
 H106 H 0.05262 0.35369 0.32267
 H107 H -0.09273 0.32178 0.34892
 H108 H -0.09133 0.35626 0.32124
 H109 H -0.02091 0.27033 0.38978
 H110 H -0.01635 0.39544 0.27084
 C111 C 0.03283 0.63455 0.71149
 C112 C 0.00771 0.62311 0.71956
 C113 C -0.01929 0.63188 0.71229
 C114 C -0.02105 0.65422 0.69816
 C115 C 0.00416 0.66567 0.68915
 C116 C 0.03119 0.65594 0.69597
 C117 C 0.05579 0.66808 0.68738
 C118 C 0.05396 0.68849 0.67134
 C119 C 0.02741 0.69844 0.66426
 C120 C 0.00226 0.68693 0.67324
 C121 C -0.04722 0.66638 0.69427
 C122 C -0.04908 0.68695 0.67852
 C123 C -0.02485 0.69636 0.66606
 C124 C -0.02689 0.71591 0.64792
 C125 C -0.00165 0.72776 0.64050
 C126 C 0.02524 0.71936 0.64818
 H127 H 0.07685 0.66198 0.69290
 H128 H 0.07373 0.69623 0.66452
 H129 H -0.06656 0.66020 0.70356
 H130 H -0.06975 0.69560 0.67637
 H131 H 0.00951 0.60586 0.72992
 H132 H -0.00244 0.74279 0.62681
 C133 C 1.02639 0.70944 0.36382
 C134 C 1.00027 0.71809 0.37345
 C135 C 0.97424 0.70905 0.36448
 C136 C 0.97435 0.68986 0.34596
 C137 C 1.00054 0.68176 0.33502
 C138 C 1.02656 0.69201 0.34353
 C139 C 1.05194 0.68514 0.33097
 C140 C 1.05208 0.66711 0.31195
 C141 C 1.02696 0.65476 0.30508
 C142 C 1.00073 0.66328 0.31558
 C143 C 0.94912 0.67807 0.33858
 C144 C 0.94926 0.66030 0.31929
 C145 C 0.97469 0.65338 0.30676
 C146 C 0.97487 0.63637 0.28609
 C147 C 1.00099 0.62744 0.27666
 C148 C 1.02720 0.63509 0.28690
 H149 H 1.07193 0.69392 0.33543
 H150 H 1.07212 0.66321 0.30238
 H151 H 0.92898 0.68223 0.34783
 H152 H 0.92919 0.65177 0.31464
 H153 H 1.00022 0.73212 0.38832
 H154 H 1.00055 0.61320 0.26207
 C155 C 1.03917 0.29940 0.62834
 C156 C 1.01333 0.28830 0.62160
 C157 C 0.98764 0.29445 0.63392
 C158 C 0.98812 0.31082 0.65524
 C159 C 1.01374 0.32307 0.66164
 C160 C 1.03900 0.31814 0.64741
 C161 C 1.06300 0.33278 0.65193
 C162 C 1.06306 0.35026 0.67158
 C163 C 1.03953 0.35324 0.68830
 C164 C 1.01403 0.34050 0.68218
 C165 C 0.96373 0.31508 0.67049
 C166 C 0.96389 0.33223 0.69037
 C167 C 0.98867 0.34537 0.69625
 C168 C 0.98875 0.36309 0.71605
 C169 C 1.01407 0.37475 0.72266
 C170 C 1.03997 0.36984 0.70975
 H171 H 1.08178 0.33132 0.63984
 H172 H 1.08166 0.36174 0.67310
 H173 H 0.94426 0.30501 0.66737
 H174 H 0.94437 0.33501 0.70122
 H175 H 1.01311 0.27477 0.60626
 H176 H 1.01350 0.38691 0.73924
 C177 C 0.27397 -0.02332 0.35495
 C178 C 0.26240 -0.00017 0.36102
 C179 C 0.27118 0.02119 0.34843
 C180 C 0.29261 0.01985 0.32927
 C181 C 0.30605 -0.00305 0.32394
 C182 C 0.29715 -0.02456 0.33713
 C183 C 0.31241 -0.04651 0.33282
 C184 C 0.33382 -0.04798 0.31433
 C185 C 0.34278 -0.02711 0.30061
 C186 C 0.32819 -0.00448 0.30512
 C187 C 0.30059 0.04066 0.31502
 C188 C 0.32114 0.03898 0.29561
 C189 C 0.33513 0.01660 0.29037
 C190 C 0.35537 0.01454 0.27029
 C191 C 0.36961 -0.00769 0.26607
 C192 C 0.36470 -0.02847 0.28146
 H193 H 0.30815 -0.06298 0.34378
 H194 H 0.34265 -0.06600 0.31061
 H195 H 0.29059 0.05835 0.31842
 H196 H 0.32599 0.05542 0.28475
 H197 H 0.24473 0.00127 0.37451
 H198 H 0.38607 -0.00818 0.25130
 C199 C 0.71700 -0.02883 0.64303
 C200 C 0.73132 -0.00709 0.63636
 C201 C 0.72428 0.01561 0.64744
 C202 C 0.70234 0.01697 0.66615
 C203 C 0.68653 -0.00440 0.67231
 C204 C 0.69318 -0.02712 0.66014
 C205 C 0.67494 -0.04716 0.66453
 C206 C 0.65333 -0.04602 0.68287
 C207 C 0.64744 -0.02420 0.69637
 C208 C 0.66407 -0.00308 0.69083
 C209 C 0.69618 0.03901 0.67923
 C210 C 0.67499 0.04005 0.69809
 C211 C 0.65873 0.01922 0.70417
 C212 C 0.63756 0.01999 0.72357
 C213 C 0.62135 -0.00087 0.72889
 C214 C 0.62565 -0.02292 0.71546
 H215 H 0.67694 -0.06405 0.65370
 H216 H 0.64153 -0.06266 0.68635
 H217 H 0.70805 0.05559 0.67533
 H218 H 0.67142 0.05739 0.70785
 H219 H 0.74948 -0.00781 0.62338
 H220 H 0.60506 0.00013 0.74377
 C221 C 0.26139 0.98855 0.63994
 C222 C 0.25652 1.01139 0.62846
 C223 C 0.27185 1.03240 0.63562
 C224 C 0.29106 1.03049 0.65677
 C225 C 0.29672 1.00717 0.66812
 C226 C 0.28211 0.98607 0.65940
 C227 C 0.28831 0.96315 0.67057
 C228 C 0.30856 0.96094 0.69000
 C229 C 0.32279 0.98168 0.69956
 C230 C 0.31689 1.00499 0.68842
 C231 C 0.30326 1.05140 0.66813
 C232 C 0.32315 1.04926 0.68778
 C233 C 0.33129 1.02613 0.69735
 C234 C 0.35298 1.02369 0.71608
 C235 C 0.35812 1.00074 0.72726
 C236 C 0.34318 0.97978 0.71960
 H237 H 0.27767 0.94663 0.66426
 H238 H 0.31301 0.94271 0.69730
 H239 H 0.29719 1.06976 0.66225
 H240 H 0.33181 1.06602 0.69568
 H241 H 0.24173 1.01217 0.61245
 H242 H 0.37449 0.99906 0.74189
 C243 C 0.65546 1.02338 0.27653
 C244 C 0.64904 1.00023 0.26603
 C245 C 0.65863 0.97833 0.27708
 C246 C 0.67464 0.97910 0.30012
 C247 C 0.68119 1.00209 0.31160
 C248 C 0.67181 1.02432 0.29980
 C249 C 0.67756 1.04656 0.31263
 C250 C 0.69366 1.04720 0.33509
 C251 C 0.70219 1.02551 0.34771
 C252 C 0.69623 1.00272 0.33554
 C253 C 0.68352 0.95738 0.31242
 C254 C 0.69884 0.95807 0.33519
 C255 C 0.70483 0.98044 0.34745
 C256 C 0.71911 0.98093 0.37143
 C257 C 0.72632 1.00346 0.38244
 C258 C 0.71735 1.02590 0.37162
 H259 H 0.66940 1.06397 0.30595
 H260 H 0.69911 1.06513 0.34241
 H261 H 0.67849 0.93944 0.30483
 H262 H 0.70585 0.94069 0.34316
 H263 H 0.63724 0.99909 0.24810
 H264 H 0.73661 1.00332 0.40116
 O265 O 0.85006 0.81310 0.47740
 O266 O 0.81669 0.84930 0.52907
 O267 O 0.85080 0.81150 0.52760
 O268 O 0.81462 0.85071 0.47947
 O269 O 0.77728 0.82639 0.48162
 O270 O 0.81538 0.78511 0.52566
 O271 O 0.78152 0.82255 0.53136
 O272 O 0.81224 0.78919 0.47563
 Cu273 Cu 0.83684 0.83361 0.50323
 Cu274 Cu 0.79293 0.80323 0.50346
 C275 C 0.83682 0.79516 0.46760
 C276 C 0.79363 0.84198 0.53919
 C277 C 0.83936 0.79145 0.53460
 C278 C 0.78918 0.84568 0.47316
 O279 O 0.18026 0.14938 0.51281
 O280 O 0.13892 0.18642 0.46681
 O281 O 0.16923 0.14686 0.46307
 O282 O 0.14922 0.18952 0.51497
 O283 O 0.18728 0.21191 0.50659
 O284 O 0.20868 0.16764 0.45566
 O285 O 0.17765 0.20740 0.45697
 O286 O 0.21828 0.17180 0.50495
 Cu287 Cu 0.15576 0.16560 0.49041
 Cu288 Cu 0.20186 0.19192 0.48029
 C289 C 0.20627 0.15432 0.51692
 C290 C 0.15131 0.20310 0.45398
 C291 C 0.19210 0.15001 0.45036
 C292 C 0.16439 0.20827 0.51917
 O293 O 0.16229 0.86242 0.47256
 O294 O 0.13189 0.82316 0.52329
 O295 O 0.15594 0.86553 0.52259
 O296 O 0.13578 0.82085 0.47356
 O297 O 0.17567 0.80014 0.48006
 O298 O 0.19867 0.84865 0.52562
 O299 O 0.17433 0.80655 0.53003
 O300 O 0.20283 0.84172 0.47539
 Cu301 Cu 0.14238 0.84497 0.49746
 Cu302 Cu 0.19220 0.82244 0.50305
 C303 C 0.18755 0.85817 0.46491
 C304 C 0.14816 0.80872 0.53575
 C305 C 0.18047 0.86475 0.53268
 C306 C 0.15174 0.80251 0.46884
 O307 O 0.85689 0.18483 0.53310
 O308 O 0.81642 0.14567 0.48772
 O309 O 0.84656 0.18590 0.48404
 O310 O 0.82876 0.14383 0.53702
 O311 O 0.78878 0.16421 0.54450
 O312 O 0.80844 0.20831 0.49289
 O313 O 0.77804 0.16812 0.49528
 O314 O 0.81742 0.20555 0.54169
 Cu315 Cu 0.84093 0.16277 0.50964
 Cu316 Cu 0.79418 0.18854 0.51942
 C317 C 0.84398 0.20226 0.54472
 C318 C 0.79023 0.15040 0.48366
 C319 C 0.83120 0.20477 0.47994
 C320 C 0.80578 0.14662 0.54969
 O321 O 0.51414 0.83964 0.86700
 O322 O 0.45465 0.86852 0.83254
 O323 O 0.45833 0.84065 0.87311
 O324 O 0.50894 0.86822 0.82739
 O325 O 0.50412 0.83616 0.80164
 O326 O 0.45590 0.80710 0.84925
 O327 O 0.44966 0.83509 0.80870
 O328 O 0.51105 0.80685 0.84206
 Cu329 Cu 0.48436 0.85735 0.85278
 Cu330 Cu 0.48002 0.81788 0.82303
 C331 C 0.52303 0.81852 0.86022
 C332 C 0.44230 0.85687 0.81460
 C333 C 0.44835 0.81937 0.86903
 C334 C 0.51431 0.85734 0.80624
 O335 O 0.53179 0.17241 0.13636
 O336 O 0.47679 0.13010 0.15899
 O337 O 0.47757 0.16842 0.12980
 O338 O 0.53191 0.13314 0.16533
 O339 O 0.52709 0.15831 0.19859
 O340 O 0.46785 0.18966 0.16519
 O341 O 0.47195 0.15161 0.19493
 O342 O 0.52264 0.19709 0.16921
 Cu343 Cu 0.50542 0.14857 0.14428
 Cu344 Cu 0.49678 0.17651 0.18552
 C345 C 0.53604 0.19237 0.14840
 C346 C 0.46492 0.13361 0.18076
 C347 C 0.46290 0.18453 0.14169
 C348 C 0.53922 0.14011 0.18772
 O349 O 0.52995 0.14171 0.83145
 O350 O 0.46590 0.17391 0.85392
 O351 O 0.47578 0.13847 0.82079
 O352 O 0.51996 0.17883 0.86187
 O353 O 0.52392 0.20467 0.82919
 O354 O 0.47994 0.16518 0.78897
 O355 O 0.47009 0.20063 0.82213
 O356 O 0.53369 0.16715 0.79838
 Cu357 Cu 0.49746 0.15551 0.84517
 Cu358 Cu 0.50231 0.18699 0.80641
 C359 C 0.54250 0.14859 0.81101
 C360 C 0.45755 0.19323 0.84249
 C361 C 0.47072 0.14496 0.79763
 C362 C 0.52889 0.19897 0.85248
 O363 O 0.48686 0.81571 0.15453
 O364 O 0.54514 0.85143 0.18201
 O365 O 0.54162 0.81428 0.14989
 O366 O 0.49052 0.85161 0.18809
 O367 O 0.49585 0.82609 0.22083
 O368 O 0.54259 0.78690 0.18129
 O369 O 0.55033 0.82393 0.21307
 O370 O 0.48780 0.79045 0.18791
 Cu371 Cu 0.51573 0.83591 0.16541
 Cu372 Cu 0.51955 0.80416 0.20398
 C373 C 0.47732 0.79710 0.16640
 C374 C 0.55757 0.84389 0.20220
 C375 C 0.55000 0.79371 0.15883
 C376 C 0.48516 0.84554 0.21133
 O377 O 0.85209 0.51642 0.80589
 O378 O 0.80889 0.47562 0.84669
 O379 O 0.85106 0.46939 0.81551
 O380 O 0.81122 0.52276 0.83924
 O381 O 0.77949 0.51847 0.80829
 O382 O 0.82122 0.46548 0.78290
 O383 O 0.77818 0.47129 0.81484
 O384 O 0.82066 0.51276 0.77460
 Cu385 Cu 0.83395 0.49654 0.82995
 Cu386 Cu 0.79684 0.49158 0.79190
 C387 C 0.84361 0.52169 0.78326
 C388 C 0.78615 0.46650 0.83768
 C389 C 0.84306 0.45828 0.79532
 C390 C 0.78840 0.52960 0.82828
 O391 O 0.18664 0.46838 0.15185
 O392 O 0.15186 0.51825 0.18909
 O393 O 0.19052 0.51585 0.15247
 O394 O 0.14651 0.47071 0.18723
 O395 O 0.18032 0.46622 0.21645
 O396 O 0.22342 0.51281 0.18260
 O397 O 0.18452 0.51407 0.21926
 O398 O 0.22016 0.46586 0.18151
 Cu399 Cu 0.16548 0.49365 0.16724
 Cu400 Cu 0.20526 0.48953 0.20311
 C401 C 0.20985 0.45912 0.16007
 C402 C 0.16213 0.52441 0.21080
 C403 C 0.21476 0.52167 0.16128
 C404 C 0.15603 0.46065 0.20756
 O405 O 0.85877 0.48482 0.17722
 O406 O 0.84035 0.52972 0.12717
 O407 O 0.86158 0.53123 0.17359
 O408 O 0.83824 0.48140 0.13155
 O409 O 0.79432 0.48497 0.14657
 O410 O 0.81799 0.53514 0.18943
 O411 O 0.79668 0.53290 0.14276
 O412 O 0.81489 0.48705 0.19279
 Cu413 Cu 0.85399 0.50664 0.15040
 Cu414 Cu 0.80152 0.51048 0.16943
 C415 C 0.84000 0.47821 0.19343
 C416 C 0.81558 0.53923 0.12650
 C417 C 0.84406 0.54129 0.18903
 C418 C 0.81263 0.47415 0.13236
 O419 O 0.19786 0.52902 0.85479
 O420 O 0.16097 0.48186 0.81632
 O421 O 0.19614 0.48118 0.85535
 O422 O 0.16285 0.52949 0.81542
 O423 O 0.19853 0.52665 0.78770
 O424 O 0.23296 0.48037 0.82875
 O425 O 0.19834 0.47891 0.79040
 O426 O 0.23370 0.52792 0.82715
 Cu427 Cu 0.17581 0.50565 0.83819
 Cu428 Cu 0.21953 0.50352 0.80577
 C429 C 0.22229 0.53636 0.84764
 C430 C 0.17355 0.47213 0.79705
 C431 C 0.22037 0.47258 0.84886
 C432 C 0.17465 0.53579 0.79434
 C433 C 0.24497 0.39133 0.07799
 C434 C 0.26830 0.39638 0.09300
 C435 C 0.29565 0.38840 0.08674
 C436 C 0.29907 0.37450 0.06411
 C437 C 0.27520 0.36822 0.04878
 C438 C 0.24779 0.37702 0.05575
 O439 O 0.22120 0.40197 0.08652
 C440 C 0.22971 0.41392 0.10744
 C441 C 0.25829 0.41090 0.11235
 C442 C 0.27182 0.42204 0.13303
 C443 C 0.25530 0.43718 0.14916
 C444 C 0.22590 0.44120 0.14417
 C445 C 0.21291 0.42918 0.12305
 H446 H 0.31379 0.39319 0.09850
 H447 H 0.32030 0.36876 0.05838
 H448 H 0.22936 0.37315 0.04396
 H449 H 0.29436 0.41943 0.13643
 H450 H 0.26567 0.44635 0.16509
 H451 H 0.19060 0.43195 0.11864
 C452 C 0.75669 0.60431 0.05375
 C453 C 0.78550 0.60850 0.05183
 C454 C 0.79721 0.62452 0.03385
 C455 C 0.77850 0.63648 0.01691
 C456 C 0.74877 0.63226 0.01822
 C457 C 0.73767 0.61603 0.03703
 O458 O 0.75015 0.58773 0.07161
 C459 C 0.77538 0.58127 0.08107
 C460 C 0.79767 0.59337 0.06952
 C461 C 0.82599 0.58863 0.07557
 C462 C 0.83159 0.57068 0.09433
 C463 C 0.80901 0.55803 0.10677
 C464 C 0.78045 0.56356 0.10007
 H465 H 0.81997 0.62732 0.03256
 H466 H 0.78714 0.64860 0.00230
 H467 H 0.71512 0.61206 0.03795
 H468 H 0.84317 0.59821 0.06599
 H469 H 0.85354 0.56675 0.09926
 H470 H 0.76277 0.55404 0.10897
 C471 C 0.74877 0.39944 0.91862
 C472 C 0.72510 0.40689 0.90507
 C473 C 0.69758 0.40046 0.91227
 C474 C 0.69437 0.38582 0.93439
 C475 C 0.71854 0.37740 0.94831
 C476 C 0.74611 0.38440 0.94020
 O477 O 0.77285 0.40869 0.90951
 C478 C 0.76423 0.42223 0.88972
 C479 C 0.73525 0.42159 0.88600
 C480 C 0.72174 0.43464 0.86643
 C481 C 0.73883 0.44900 0.85012
 C482 C 0.76868 0.45038 0.85403
 C483 C 0.78150 0.43670 0.87408
 H484 H 0.67923 0.40699 0.90166
 H485 H 0.67310 0.38131 0.94092
 H486 H 0.76491 0.37869 0.95072
 H487 H 0.69890 0.43388 0.86389
 H488 H 0.72877 0.45949 0.83488
 H489 H 0.80423 0.43735 0.87746
 C490 C 0.25820 0.59985 0.93289
 C491 C 0.28021 0.59823 0.91534
 C492 C 0.30696 0.60807 0.91995
 C493 C 0.31121 0.62005 0.94361
 C494 C 0.28873 0.62246 0.96190
 C495 C 0.26183 0.61205 0.95640
 O496 O 0.23499 0.58804 0.92532
 C497 C 0.24254 0.57880 0.90252
 C498 C 0.26995 0.58461 0.89549
 C499 C 0.28250 0.57620 0.87275
 C500 C 0.26627 0.56096 0.85673
 C501 C 0.23807 0.55424 0.86370
 C502 C 0.22601 0.56361 0.88689
 H503 H 0.32414 0.60608 0.90610
 H504 H 0.33217 0.62713 0.94791
 H505 H 0.24449 0.61304 0.97022
 H506 H 0.30419 0.58090 0.86772
 H507 H 0.27597 0.55396 0.83918
 H508 H 0.20470 0.55871 0.89297
 C509 C 0.06077 0.26065 0.40643
 C510 C 0.08005 0.25437 0.38743
 C511 C 0.07576 0.25996 0.36153
 C512 C 0.05073 0.27275 0.35506
 C513 C 0.03116 0.28045 0.37450
 C514 C 0.03624 0.27399 0.40054
 O515 O 0.06810 0.25259 0.42965
 C516 C 0.09264 0.24112 0.42525
 C517 C 0.10114 0.24192 0.39980
 C518 C 0.12652 0.23135 0.39111
 C519 C 0.14363 0.21926 0.40939
 C520 C 0.13467 0.21753 0.43548
 C521 C 0.10890 0.22866 0.44352
 H522 H 0.09089 0.25435 0.34682
 H523 H 0.04662 0.27684 0.33495
 H524 H 0.02153 0.27923 0.41577
 H525 H 0.13286 0.23233 0.37102
 H526 H 0.16334 0.21063 0.40317
 H527 H 0.10174 0.22758 0.46340
 C528 C 0.07407 0.74876 0.59962
 C529 C 0.09479 0.75833 0.61533
 C530 C 0.09428 0.75562 0.64207
 C531 C 0.07142 0.74259 0.65296
 C532 C 0.05033 0.73197 0.63696
 C533 C 0.05189 0.73510 0.60990
 O534 O 0.07710 0.75483 0.57501
 C535 C 0.10035 0.76846 0.57506
 C536 C 0.11229 0.77093 0.59917
 C537 C 0.13674 0.78464 0.60348
 C538 C 0.14917 0.79638 0.58210
 C539 C 0.13651 0.79469 0.55738
 C540 C 0.11187 0.78048 0.55379
 H541 H 0.11039 0.76384 0.65414
 H542 H 0.06991 0.74097 0.67376
 H543 H 0.03578 0.72765 0.59726
 H544 H 0.14578 0.78637 0.62259
 H545 H 0.16802 0.80743 0.58489
 H546 H 0.10188 0.77901 0.53504
 C547 C 0.92007 0.73743 0.40996
 C548 C 0.89950 0.74514 0.39290
 C549 C 0.90191 0.74155 0.36638
 C550 C 0.92650 0.72954 0.35716
 C551 C 0.94759 0.72068 0.37449
 C552 C 0.94417 0.72480 0.40131
 O553 O 0.91481 0.74413 0.43414
 C554 C 0.89033 0.75625 0.43237
 C555 C 0.87980 0.75719 0.40761
 C556 C 0.85446 0.76928 0.40150
 C557 C 0.83960 0.78106 0.42170
 C558 C 0.85070 0.78092 0.44708
 C559 C 0.87628 0.76826 0.45251
 H560 H 0.88585 0.74836 0.35322
 H561 H 0.92933 0.72738 0.33651
 H562 H 0.96010 0.71876 0.41500
 H563 H 0.84659 0.76983 0.38190
 H564 H 0.82006 0.79092 0.41751
 H565 H 0.88514 0.76808 0.47179
 C566 C 0.93314 0.25208 0.60355
 C567 C 0.91116 0.26837 0.59937
 C568 C 0.91271 0.29310 0.60585
 C569 C 0.93794 0.30139 0.61721
 C570 C 0.96063 0.28485 0.62276
 C571 C 0.95814 0.25979 0.61559
 O572 O 0.92799 0.22974 0.59435
 C573 C 0.90212 0.23199 0.58425
 C574 C 0.89082 0.25522 0.58710
 C575 C 0.86416 0.26182 0.57779
 C576 C 0.84856 0.24382 0.56475
 C577 C 0.85997 0.21987 0.56081
 C578 C 0.88715 0.21386 0.57088
 H579 H 0.89541 0.30570 0.60167
 H580 H 0.93994 0.32078 0.62147
 H581 H 0.97528 0.24680 0.61895
 H582 H 0.85578 0.28024 0.58024
 H583 H 0.82796 0.24884 0.55699
 H584 H 0.89650 0.19582 0.56808
 C585 C 0.39204 0.06969 0.24244
 C586 C 0.38411 0.06761 0.21697
 C587 C 0.36498 0.05005 0.20834
 C588 C 0.35409 0.03357 0.22661
 C589 C 0.36251 0.03498 0.25280
 C590 C 0.38135 0.05353 0.26095
 O591 O 0.41205 0.08642 0.24622
 C592 C 0.41702 0.09493 0.22262
 C593 C 0.40055 0.08393 0.20404
 C594 C 0.40395 0.08847 0.17781
 C595 C 0.42522 0.10502 0.17041
 C596 C 0.44234 0.11676 0.18920
 C597 C 0.43792 0.11185 0.21572
 H598 H 0.35949 0.04850 0.18813
 H599 H 0.34011 0.01903 0.22027
 H600 H 0.38878 0.05432 0.28069
 H601 H 0.39114 0.07919 0.16352
 H602 H 0.42839 0.10869 0.15005
 H603 H 0.45108 0.12017 0.23041
 C604 C 0.60718 0.07946 0.74887
 C605 C 0.61912 0.07995 0.77311
 C606 C 0.63819 0.06210 0.78168
 C607 C 0.64502 0.04286 0.76468
 C608 C 0.63264 0.04185 0.73983
 C609 C 0.61376 0.06052 0.73165
 O610 O 0.58762 0.09683 0.74538
 C611 C 0.58702 0.10842 0.76793
 C612 C 0.60588 0.09878 0.78558
 C613 C 0.60652 0.10626 0.81126
 C614 C 0.58644 0.12392 0.81921
 C615 C 0.56661 0.13387 0.80143
 C616 C 0.56742 0.12651 0.77528
 H617 H 0.64679 0.06254 0.80104
 H618 H 0.65921 0.02833 0.77104
 H619 H 0.60352 0.05964 0.71297
 H620 H 0.62099 0.09792 0.82495
 H621 H 0.58560 0.12921 0.83937
 H622 H 0.55169 0.13307 0.76164
 C623 C 0.38576 0.92796 0.74872
 C624 C 0.36489 0.91515 0.76159
 C625 C 0.33629 0.92202 0.76080
 C626 C 0.32904 0.94301 0.74635
 C627 C 0.35026 0.95631 0.73276
 C628 C 0.37897 0.94847 0.73391
 O629 O 0.41183 0.91970 0.75338
 C630 C 0.40743 0.90124 0.76954
 C631 C 0.37909 0.89750 0.77513
 C632 C 0.37000 0.87969 0.79261
 C633 C 0.39101 0.86542 0.80496
 C634 C 0.42022 0.86950 0.79977
 C635 C 0.42851 0.88747 0.78170
 H636 H 0.32028 0.91206 0.77156
 H637 H 0.30711 0.94927 0.74619
 H638 H 0.39569 0.95861 0.72424
 H639 H 0.34764 0.87722 0.79697
 H640 H 0.38469 0.85183 0.81910
 H641 H 0.45079 0.89110 0.77784
 C642 C 0.61431 0.92721 0.24923
 C643 C 0.63509 0.91074 0.24164
 C644 C 0.66402 0.91561 0.24421
 C645 C 0.67173 0.93817 0.25536
 C646 C 0.65058 0.95493 0.26429
 C647 C 0.62148 0.94946 0.26073
 O648 O 0.58813 0.91954 0.24445
 C649 C 0.59239 0.89768 0.23375
 C650 C 0.62071 0.89124 0.23176
 C651 C 0.62972 0.86887 0.22131
 C652 C 0.60867 0.85270 0.21231
 C653 C 0.57952 0.85941 0.21365
 C654 C 0.57130 0.88212 0.22459
 H655 H 0.68005 0.90260 0.23775
 H656 H 0.69408 0.94249 0.25745
 H657 H 0.60493 0.96208 0.26701
 H658 H 0.65209 0.86412 0.21999
 H659 H 0.61499 0.83534 0.20373
 H660 H 0.54910 0.88759 0.22567
 C661 C 0.37679 0.23142 0.91821
 C662 C 0.38235 0.24972 0.90068
 C663 C 0.37473 0.27403 0.90492
 C664 C 0.36068 0.27971 0.92810
 C665 C 0.35358 0.26111 0.94646
 C666 C 0.36220 0.23651 0.94115
 O667 O 0.38828 0.20996 0.91163
 C668 C 0.40141 0.21490 0.88950
 C669 C 0.39823 0.23892 0.88181
 C670 C 0.41167 0.24840 0.86003
 C671 C 0.42978 0.23265 0.84601
 C672 C 0.43438 0.20805 0.85417
 C673 C 0.41931 0.19896 0.87589
 H674 H 0.38044 0.28831 0.89135
 H675 H 0.35664 0.29893 0.93216
 H676 H 0.35772 0.22161 0.95435
 H677 H 0.40911 0.26748 0.85456
 H678 H 0.44133 0.24002 0.82964
 H679 H 0.42266 0.18044 0.88293
 C680 C 0.59700 0.75241 0.91875
 C681 C 0.60983 0.77505 0.91734
 C682 C 0.63414 0.78091 0.93122
 C683 C 0.64543 0.76284 0.94758
 C684 C 0.63228 0.73959 0.94980
 C685 C 0.60791 0.73414 0.93497
 O686 O 0.57312 0.75120 0.90512
 C687 C 0.57077 0.77358 0.89506
 C688 C 0.59263 0.78889 0.90209
 C689 C 0.59325 0.81366 0.89559
 C690 C 0.57029 0.82311 0.88140
 C691 C 0.54760 0.80771 0.87373
 C692 C 0.54805 0.78248 0.88035
 H693 H 0.64359 0.79896 0.93007
 H694 H 0.66383 0.76716 0.95924
 H695 H 0.59712 0.71671 0.93696
 H696 H 0.61039 0.82544 0.90183
 H697 H 0.57005 0.84246 0.87652
 H698 H 0.53061 0.77051 0.87529
 C699 C 0.40947 0.74685 0.08916
 C700 C 0.39417 0.74647 0.11183
 C701 C 0.36675 0.73699 0.11327
 C702 C 0.35486 0.72737 0.09049
 C703 C 0.37080 0.72647 0.06700
 C704 C 0.39848 0.73684 0.06666
 O705 O 0.43451 0.75770 0.09128
 C706 C 0.43520 0.76428 0.11587
 C707 C 0.41123 0.75766 0.12952
 C708 C 0.40802 0.76266 0.15580
 C709 C 0.43031 0.77511 0.16831
 C710 C 0.45464 0.78274 0.15421
 C711 C 0.45707 0.77712 0.12769
 H712 H 0.35464 0.73758 0.13109
 H713 H 0.33292 0.72137 0.09105
 H714 H 0.41149 0.73685 0.04933
 H715 H 0.38910 0.75720 0.16627
 H716 H 0.42834 0.77939 0.18867
 H717 H 0.47556 0.78259 0.11656
 C718 C 0.61241 0.24207 0.07701
 C719 C 0.60562 0.25851 0.09627
 C720 C 0.61240 0.28329 0.09471
 C721 C 0.62638 0.29146 0.07227
 C722 C 0.63361 0.27483 0.05195
 C723 C 0.62653 0.24967 0.05481
 O724 O 0.60221 0.21978 0.08110
 C725 C 0.58851 0.22217 0.10337
 C726 C 0.58995 0.24545 0.11359
 C727 C 0.57544 0.25221 0.13602
 C728 C 0.55847 0.23434 0.14811
 C729 C 0.55618 0.21037 0.13747
 C730 C 0.57193 0.20422 0.11501
 H731 H 0.60609 0.29608 0.10972
 H732 H 0.62993 0.31099 0.07014
 H733 H 0.63132 0.23633 0.03985
 H734 H 0.57652 0.27073 0.14356
 H735 H 0.54645 0.23941 0.16521
 H736 H 0.57047 0.18625 0.10615
 C737 C 0.23991 0.08057 0.59331
 C738 C 0.26374 0.09363 0.58659
 C739 C 0.29068 0.08784 0.59586
 C740 C 0.29316 0.06769 0.61264
 C741 C 0.26882 0.05388 0.62027
 C742 C 0.24179 0.06067 0.61014
 O743 O 0.21646 0.08843 0.58165
 C744 C 0.22571 0.10686 0.56718
 C745 C 0.25447 0.11086 0.56952
 C746 C 0.26864 0.12893 0.55562
 C747 C 0.25252 0.14339 0.53856
 C748 C 0.22281 0.13948 0.53560
 C749 C 0.20929 0.12095 0.55031
 H750 H 0.30926 0.09805 0.58983
 H751 H 0.31432 0.06222 0.61869
 H752 H 0.22259 0.05089 0.61530
 H753 H 0.29133 0.13166 0.55768
 H754 H 0.26328 0.15743 0.52746
 H755 H 0.18673 0.11737 0.54851
 C756 C 0.75214 0.07256 0.41356
 C757 C 0.72995 0.08874 0.41732
 C758 C 0.70319 0.08528 0.40661
 C759 C 0.69917 0.06437 0.39120
 C760 C 0.72191 0.04754 0.38628
 C761 C 0.74866 0.05167 0.39828
 O762 O 0.77568 0.07897 0.42596
 C763 C 0.76814 0.09967 0.43784
 C764 C 0.74037 0.10642 0.43316
 C765 C 0.72788 0.12726 0.44392
 C766 C 0.74466 0.14170 0.46027
 C767 C 0.77341 0.13516 0.46560
 C768 C 0.78529 0.11381 0.45402
 H769 H 0.68585 0.09800 0.41034
 H770 H 0.67803 0.06091 0.38380
 H771 H 0.76646 0.03919 0.39542
 H772 H 0.70595 0.13216 0.44000
 H773 H 0.73510 0.15792 0.46888
 H774 H 0.80704 0.10818 0.45774
 C775 C 0.74845 0.92416 0.59875
 C776 C 0.74811 0.90375 0.61435
 C777 C 0.73907 0.90460 0.63989
 C778 C 0.72947 0.92729 0.64955
 C779 C 0.72777 0.94848 0.63339
 C780 C 0.73834 0.94672 0.60770
 O781 O 0.75865 0.91968 0.57530
 C782 C 0.76471 0.89588 0.57607
 C783 C 0.75837 0.88514 0.59942
 C784 C 0.76219 0.86012 0.60401
 C785 C 0.77320 0.84568 0.58373
 C786 C 0.78067 0.85665 0.55987
 C787 C 0.77636 0.88205 0.55600
 H788 H 0.73980 0.88846 0.65208
 H789 H 0.72369 0.92835 0.66978
 H790 H 0.73772 0.96219 0.59457
 H791 H 0.75677 0.85201 0.62245
 H792 H 0.77652 0.82618 0.58672
 H793 H 0.78170 0.89072 0.53779
 C794 C 0.23860 0.93469 0.40172
 C795 C 0.23418 0.91450 0.38634
 C796 C 0.24177 0.91386 0.36041
 C797 C 0.25476 0.93478 0.34998
 C798 C 0.26081 0.95563 0.36566
 C799 C 0.25178 0.95555 0.39188
 O800 O 0.22968 0.93162 0.42584
 C801 C 0.21949 0.90895 0.42570
 C802 C 0.22187 0.89761 0.40201
 C803 C 0.21337 0.87351 0.39775
 C804 C 0.20202 0.86058 0.41881
 C805 C 0.19912 0.87207 0.44322
 C806 C 0.20781 0.89659 0.44675
 H807 H 0.23756 0.89792 0.34854
 H808 H 0.25962 0.93485 0.32952
 H809 H 0.25577 0.97093 0.40460
 H810 H 0.21569 0.86490 0.37900
 H811 H 0.19540 0.84172 0.41619
 H812 H 0.20601 0.90553 0.46538
 C813 C 0.08869 0.41424 0.74208
 C814 C 0.11368 0.40102 0.74233
 C815 C 0.11585 0.37747 0.73209
 C816 C 0.09129 0.36715 0.72120
 C817 C 0.06523 0.38070 0.71971
 C818 C 0.06435 0.40473 0.73062
 O819 O 0.09058 0.43581 0.75392
 C820 C 0.11743 0.43626 0.76177
 C821 C 0.13262 0.41554 0.75492
 C822 C 0.16131 0.41246 0.76085
 C823 C 0.17479 0.43148 0.77440
 C824 C 0.15930 0.45267 0.78226
 C825 C 0.13018 0.45504 0.77587
 H826 H 0.13553 0.36706 0.73321
 H827 H 0.09244 0.34819 0.71495
 H828 H 0.04533 0.41605 0.73001
 H829 H 0.17291 0.39607 0.75516
 H830 H 0.19712 0.42955 0.77923
 H831 H 0.11797 0.47115 0.78144
 C832 C 0.07986 0.59657 0.25036
 C833 C 0.09933 0.59175 0.26943
 C834 C 0.09656 0.60095 0.29431
 C835 C 0.07270 0.61569 0.29982
 C836 C 0.05227 0.62157 0.28041
 C837 C 0.05622 0.61154 0.25524
 O838 O 0.08561 0.58490 0.22840
 C839 C 0.10922 0.57241 0.23379
 C840 C 0.11857 0.57608 0.25861
 C841 C 0.14240 0.56425 0.26859
 C842 C 0.15707 0.54777 0.25240
 C843 C 0.14759 0.54325 0.22681
 C844 C 0.12340 0.55602 0.21737
 H845 H 0.11175 0.59629 0.30922
 H846 H 0.06957 0.62153 0.31962
 H847 H 0.04150 0.61534 0.23969
 H848 H 0.14924 0.56733 0.28826
 H849 H 0.17543 0.53815 0.26005
 H850 H 0.11545 0.55291 0.19805
 C851 C 0.90838 0.42082 0.26438
 C852 C 0.88581 0.40652 0.25703
 C853 C 0.88481 0.38144 0.26204
 C854 C 0.90797 0.37075 0.27515
 C855 C 0.93120 0.38530 0.28385
 C856 C 0.93102 0.41082 0.27809
 O857 O 0.90688 0.44365 0.25562
 C858 C 0.88277 0.44386 0.24244
 C859 C 0.86876 0.42172 0.24292
 C860 C 0.84360 0.41780 0.22937
 C861 C 0.83292 0.43730 0.21435
 C862 C 0.84789 0.45977 0.21277
 C863 C 0.87288 0.46319 0.22731
 H864 H 0.86746 0.37027 0.25508
 H865 H 0.90835 0.35097 0.27732
 H866 H 0.94828 0.42271 0.28387
 H867 H 0.83304 0.40019 0.22979
 H868 H 0.81399 0.43449 0.20287
 H869 H 0.88491 0.48007 0.22600
 C870 C 0.93067 0.58900 0.74495
 C871 C 0.91079 0.58591 0.72585
 C872 C 0.91267 0.59746 0.70203
 C873 C 0.93597 0.61294 0.69774
 C874 C 0.95673 0.61693 0.71729
 C875 C 0.95400 0.60428 0.74115
 O876 O 0.92497 0.57625 0.76616
 C877 C 0.90097 0.56484 0.76027
 C878 C 0.89142 0.57011 0.73582
 C879 C 0.86669 0.56015 0.72569
 C880 C 0.85111 0.54412 0.74147
 C881 C 0.86046 0.53840 0.76684
 C882 C 0.88585 0.54897 0.77628
 H883 H 0.89697 0.59444 0.68714
 H884 H 0.93825 0.62118 0.67882
 H885 H 0.96918 0.60670 0.75661
 H886 H 0.85961 0.56458 0.70638
 H887 H 0.83174 0.53625 0.73389
 H888 H 0.89360 0.54505 0.79551
 C889 C 0.75342 0.60812 0.89819
 C890 C 0.73011 0.60226 0.88352
 C891 C 0.70291 0.61098 0.88935
 C892 C 0.69960 0.62587 0.91142
 C893 C 0.72337 0.63200 0.92718
 C894 C 0.75074 0.62315 0.91978
 O895 O 0.77698 0.59646 0.89095
 C896 C 0.76842 0.58279 0.87134
 C897 C 0.73998 0.58566 0.86579
 C898 C 0.72645 0.57178 0.84689
 C899 C 0.74281 0.55401 0.83358
 C900 C 0.77199 0.55028 0.83965
 C901 C 0.78494 0.56531 0.85849
 H902 H 0.68467 0.60559 0.87802
 H903 H 0.67821 0.63117 0.91709
 H904 H 0.76959 0.62729 0.93091
 H905 H 0.70395 0.57406 0.84302
 H906 H 0.73250 0.54256 0.81935
 H907 H 0.80704 0.56283 0.86384
 C908 C 0.24806 0.40158 0.93021
 C909 C 0.26919 0.40078 0.91180
 C910 C 0.29288 0.38558 0.91372
 C911 C 0.29487 0.37042 0.93547
 C912 C 0.27311 0.37027 0.95478
 C913 C 0.24955 0.38662 0.95209
 O914 O 0.22751 0.41761 0.92469
 C915 C 0.23598 0.42712 0.90233
 C916 C 0.26138 0.41743 0.89368
 C917 C 0.27436 0.42479 0.87085
 C918 C 0.26058 0.44295 0.85626
 C919 C 0.23429 0.45336 0.86465
 C920 C 0.22183 0.44521 0.88809
 H921 H 0.30950 0.38565 0.89917
 H922 H 0.31399 0.35941 0.93761
 H923 H 0.23251 0.38729 0.96623
 H924 H 0.29439 0.41687 0.86450
 H925 H 0.27048 0.44887 0.83841
 H926 H 0.20187 0.45277 0.89511
 C927 C 0.26072 0.58572 0.08042
 C928 C 0.28245 0.57992 0.09707
 C929 C 0.31020 0.58797 0.09333
 C930 C 0.31560 0.60313 0.07194
 C931 C 0.29325 0.61061 0.05513
 C932 C 0.26558 0.60082 0.05908
 O933 O 0.23594 0.57598 0.08726
 C934 C 0.24216 0.56383 0.10877
 C935 C 0.27031 0.56572 0.11567
 C936 C 0.28131 0.55460 0.13768
 C937 C 0.26263 0.54073 0.15303
 C938 C 0.23355 0.53807 0.14609
 C939 C 0.22325 0.55002 0.12364
 H940 H 0.32713 0.58269 0.10636
 H941 H 0.33729 0.60896 0.06842
 H942 H 0.24802 0.60567 0.04655
 H943 H 0.30353 0.55641 0.14278
 H944 H 0.27100 0.53164 0.17000
 H945 H 0.20125 0.54839 0.11773
 C946 C 0.74993 0.40296 0.07053
 C947 C 0.77713 0.39404 0.07411
 C948 C 0.78733 0.37293 0.06195
 C949 C 0.76896 0.36087 0.04488
 C950 C 0.74122 0.37018 0.04036
 C951 C 0.73137 0.39125 0.05365
 O952 O 0.74501 0.42402 0.08273
 C953 C 0.76968 0.42861 0.09410
 C954 C 0.79009 0.41091 0.08928
 C955 C 0.81804 0.41295 0.09766
 C956 C 0.82524 0.43405 0.11168
 C957 C 0.80449 0.45241 0.11722
 C958 C 0.77624 0.44952 0.10845
 H959 H 0.80894 0.36648 0.06479
 H960 H 0.77669 0.34501 0.03426
 H961 H 0.71054 0.39903 0.04978
 H962 H 0.83385 0.39900 0.09322
 H963 H 0.84693 0.43600 0.11839
 H964 H 0.76010 0.46342 0.11206
 C965 C 0.91913 0.75149 0.61041
 C966 C 0.90115 0.73298 0.60309
 C967 C 0.90491 0.70879 0.61088
 C968 C 0.92843 0.70337 0.62655
 C969 C 0.94751 0.72213 0.63474
 C970 C 0.94218 0.74668 0.62652
 O971 O 0.91301 0.77292 0.59949
 C972 C 0.89069 0.76780 0.58487
 C973 C 0.88246 0.74364 0.58650
 C974 C 0.86009 0.73415 0.57219
 C975 C 0.84568 0.75020 0.55547
 C976 C 0.85409 0.77513 0.55308
 C977 C 0.87689 0.78401 0.56816
 H978 H 0.89095 0.69439 0.60422
 H979 H 0.93261 0.68423 0.63087
 H980 H 0.95573 0.76175 0.63218
 H981 H 0.85413 0.71502 0.57365
 H982 H 0.82837 0.74305 0.54400
 H983 H 0.88388 0.80289 0.56676
 C984 C 0.90145 0.25627 0.40438
 C985 C 0.88266 0.27307 0.41471
 C986 C 0.88526 0.29820 0.41051
 C987 C 0.90823 0.30630 0.39523
 C988 C 0.92788 0.28931 0.38390
 C989 C 0.92393 0.26381 0.38871
 O990 O 0.89687 0.23346 0.41232
 C991 C 0.87470 0.23585 0.42810
 C992 C 0.86496 0.25967 0.43013
 C993 C 0.84274 0.26633 0.44666
 C994 C 0.83052 0.24780 0.46202
 C995 C 0.84095 0.22326 0.46091
 C996 C 0.86304 0.21726 0.44326
 H997 H 0.87084 0.31121 0.41957
 H998 H 0.91153 0.32590 0.39352
 H999 H 0.93821 0.25004 0.38073
 H1000 H 0.83556 0.28521 0.44818
 H1001 H 0.81385 0.25282 0.47558
 H1002 H 0.87178 0.19883 0.44211
 C1003 C 0.09008 0.27271 0.57865
 C1004 C 0.11323 0.26708 0.59378
 C1005 C 0.11398 0.27232 0.62007
 C1006 C 0.08982 0.28355 0.63118
 C1007 C 0.06584 0.28998 0.61587
 C1008 C 0.06634 0.28464 0.58909
 O1009 O 0.09225 0.26401 0.55480
 C1010 C 0.11733 0.25267 0.55479
 C1011 C 0.13128 0.25422 0.57806
 C1012 C 0.15735 0.24260 0.58250
 C1013 C 0.16921 0.22853 0.56229
 C1014 C 0.15457 0.22603 0.53860
 C1015 C 0.12848 0.23848 0.53472
 H1016 H 0.13200 0.26700 0.63182
 H1017 H 0.08944 0.28654 0.65185
 H1018 H 0.04826 0.28876 0.57689
 H1019 H 0.16781 0.24383 0.60104
 H1020 H 0.18901 0.21868 0.56545
 H1021 H 0.11671 0.23640 0.51691
 C1022 C 0.07984 0.75108 0.39559
 C1023 C 0.09894 0.73420 0.40530
 C1024 C 0.09620 0.70906 0.40119
 C1025 C 0.07272 0.70107 0.38676
 C1026 C 0.05284 0.71820 0.37646
 C1027 C 0.05676 0.74359 0.38080
 O1028 O 0.08465 0.77382 0.40348
 C1029 C 0.10722 0.77131 0.41854
 C1030 C 0.11703 0.74751 0.42023
 C1031 C 0.13956 0.74077 0.43623
 C1032 C 0.15207 0.75925 0.45138
 C1033 C 0.14155 0.78374 0.45052
 C1034 C 0.11918 0.78980 0.43342
 H1035 H 0.11100 0.69603 0.40958
 H1036 H 0.06948 0.68153 0.38426
 H1037 H 0.04161 0.75706 0.37375
 H1038 H 0.14673 0.72188 0.43752
 H1039 H 0.16903 0.75429 0.46453
 H1040 H 0.11047 0.80825 0.43244
 C1041 C 0.58793 0.92867 0.75512
 C1042 C 0.57282 0.91656 0.73635
 C1043 C 0.57349 0.92359 0.71051
 C1044 C 0.59066 0.94370 0.70375
 C1045 C 0.60743 0.95578 0.72260
 C1046 C 0.60565 0.94824 0.74872
 O1047 O 0.58306 0.92016 0.77873
 C1048 C 0.56459 0.90218 0.77481
 C1049 C 0.55785 0.89900 0.74920
 C1050 C 0.53868 0.88127 0.74092
 C1051 C 0.52557 0.86657 0.75983
 C1052 C 0.53137 0.87020 0.78643
 C1053 C 0.55146 0.88811 0.79391
 H1054 H 0.56086 0.91424 0.69615
 H1055 H 0.59100 0.94986 0.68387
 H1056 H 0.61762 0.95748 0.76364
 H1057 H 0.53364 0.87909 0.72068
 H1058 H 0.50998 0.85316 0.75385
 H1059 H 0.55619 0.89141 0.81406
 C1060 C 0.40844 0.92310 0.24883
 C1061 C 0.41890 0.91063 0.26983
 C1062 C 0.41259 0.91742 0.29509
 C1063 C 0.39455 0.93779 0.29887
 C1064 C 0.38242 0.95060 0.27754
 C1065 C 0.39015 0.94314 0.25211
 O1066 O 0.41776 0.91419 0.22644
 C1067 C 0.43446 0.89563 0.23346
 C1068 C 0.43576 0.89258 0.25980
 C1069 C 0.45199 0.87424 0.27136
 C1070 C 0.46766 0.85850 0.25512
 C1071 C 0.46712 0.86150 0.22786
 C1072 C 0.45014 0.88036 0.21694
 H1073 H 0.42170 0.90770 0.31133
 H1074 H 0.39069 0.94396 0.31846
 H1075 H 0.38169 0.95229 0.23521
 H1076 H 0.45267 0.87219 0.29213
 H1077 H 0.48066 0.84429 0.26386
 H1078 H 0.44925 0.88318 0.19626
 C1079 C 0.60632 0.06526 0.24092
 C1080 C 0.62322 0.08554 0.23767
 C1081 C 0.65136 0.08618 0.24592
 C1082 C 0.66231 0.06524 0.25841
 C1083 C 0.64484 0.04445 0.26341
 C1084 C 0.61654 0.04452 0.25370
 O1085 O 0.58039 0.06804 0.23121
 C1086 C 0.58083 0.09065 0.22171
 C1087 C 0.60645 0.10230 0.22534
 C1088 C 0.61114 0.12643 0.21755
 C1089 C 0.58854 0.13896 0.20550
 C1090 C 0.56226 0.12706 0.20109
 C1091 C 0.55836 0.10257 0.20924
 H1092 H 0.66456 0.10210 0.24253
 H1093 H 0.68458 0.06511 0.26377
 H1094 H 0.60238 0.02915 0.25677
 H1095 H 0.63136 0.13533 0.22080
 H1096 H 0.59156 0.15776 0.19925
 H1097 H 0.53836 0.09322 0.20620
 C1098 C 0.39652 0.06953 0.75392
 C1099 C 0.40987 0.08168 0.73404
 C1100 C 0.40585 0.07576 0.70822
 C1101 C 0.38714 0.05657 0.70261
 C1102 C 0.37239 0.04416 0.72267
 C1103 C 0.37745 0.05058 0.74875
 O1104 O 0.40386 0.07779 0.77710
 C1105 C 0.42215 0.09560 0.77168
 C1106 C 0.42638 0.09875 0.74559
 C1107 C 0.44429 0.11652 0.73545
 C1108 C 0.45848 0.13174 0.75292
 C1109 C 0.45483 0.12879 0.78000
 C1110 C 0.43643 0.11034 0.78950
 H1111 H 0.41694 0.08541 0.69296
 H1112 H 0.38408 0.05130 0.68264
 H1113 H 0.36683 0.04115 0.76443
 H1114 H 0.44719 0.11864 0.71483
 H1115 H 0.47263 0.14562 0.74530
 H1116 H 0.43315 0.10771 0.81002
 C1117 C 0.61666 0.75161 0.07370
 C1118 C 0.60854 0.73282 0.08980
 C1119 C 0.61252 0.70818 0.08352
 C1120 C 0.62526 0.70270 0.05960
 C1121 C 0.63453 0.72174 0.04285
 C1122 C 0.63017 0.74658 0.05022
 O1123 O 0.60890 0.77366 0.08230
 C1124 C 0.59565 0.76870 0.10437
 C1125 C 0.59512 0.74400 0.10998
 C1126 C 0.58167 0.73465 0.13178
 C1127 C 0.56792 0.75140 0.14833
 C1128 C 0.56735 0.77693 0.14259
 C1129 C 0.58173 0.78566 0.12036
 H1130 H 0.60520 0.69370 0.09617
 H1131 H 0.62736 0.68364 0.05385
 H1132 H 0.63636 0.76156 0.03769
 H1133 H 0.58139 0.71513 0.13571
 H1134 H 0.55684 0.74434 0.16511
 H1135 H 0.58152 0.80497 0.11532
 C1136 C 0.39465 0.23479 0.06368
 C1137 C 0.37684 0.22825 0.08365
 C1138 C 0.34758 0.23241 0.08300
 C1139 C 0.33632 0.24403 0.06103
 C1140 C 0.35447 0.25207 0.04076
 C1141 C 0.38404 0.24700 0.04207
 O1142 O 0.42160 0.22833 0.06755
 C1143 C 0.42087 0.21766 0.09056
 C1144 C 0.39407 0.21741 0.10144
 C1145 C 0.38871 0.20765 0.12581
 C1146 C 0.41186 0.19757 0.13938
 C1147 C 0.43943 0.19691 0.12813
 C1148 C 0.44398 0.20711 0.10339
 H1149 H 0.33387 0.22665 0.09870
 H1150 H 0.31354 0.24706 0.05987
 H1151 H 0.39840 0.25255 0.02676
 H1152 H 0.36750 0.20780 0.13408
 H1153 H 0.40824 0.18965 0.15829
 H1154 H 0.46489 0.20687 0.09447
 C1155 C 0.59765 0.24547 0.93267
 C1156 C 0.58474 0.26352 0.91821
 C1157 C 0.58761 0.28841 0.92348
 C1158 C 0.60476 0.29500 0.94441
 C1159 C 0.61938 0.27683 0.95899
 C1160 C 0.61535 0.25165 0.95324
 O1161 O 0.59131 0.22291 0.92483
 C1162 C 0.57418 0.22686 0.90489
 C1163 C 0.56974 0.25142 0.89995
 C1164 C 0.55304 0.25984 0.87971
 C1165 C 0.54025 0.24222 0.86391
 C1166 C 0.54392 0.21675 0.86886
 C1167 C 0.56110 0.20895 0.88973
 H1168 H 0.57676 0.30223 0.91210
 H1169 H 0.60682 0.31427 0.94923
 H1170 H 0.62575 0.23740 0.96440
 H1171 H 0.55000 0.27928 0.87618
 H1172 H 0.52696 0.24843 0.84814
 H1173 H 0.56433 0.18964 0.89387
 C1174 C 0.38597 0.75407 0.93876
 C1175 C 0.37431 0.77727 0.94067
 C1176 C 0.35377 0.78349 0.95900
 C1177 C 0.34539 0.76522 0.97649
 C1178 C 0.35762 0.74137 0.97543
 C1179 C 0.37788 0.73558 0.95600
 O1180 O 0.40638 0.75246 0.92095
 C1181 C 0.40775 0.77516 0.91157
 C1182 C 0.38869 0.79105 0.92313
 C1183 C 0.38800 0.81609 0.91781
 C1184 C 0.40777 0.82514 0.89985
 C1185 C 0.42744 0.80913 0.88739
 C1186 C 0.42720 0.78370 0.89316
 H1187 H 0.34523 0.80196 0.96035
 H1188 H 0.33027 0.76987 0.99161
 H1189 H 0.38817 0.71773 0.95536
 H1190 H 0.37318 0.82831 0.92754
 H1191 H 0.40776 0.84462 0.89560
 H1192 H 0.44238 0.77118 0.88434
 C1193 C 0.75349 0.92959 0.40987
 C1194 C 0.72992 0.91567 0.41556
 C1195 C 0.70254 0.92233 0.40818
 C1196 C 0.69933 0.94408 0.39402
 C1197 C 0.72336 0.95836 0.38706
 C1198 C 0.75082 0.95122 0.39551
 O1199 O 0.77745 0.92018 0.41936
 C1200 C 0.76876 0.89988 0.43119
 C1201 C 0.73990 0.89625 0.42926
 C1202 C 0.72620 0.87621 0.44014
 C1203 C 0.74287 0.85929 0.45388
 C1204 C 0.77266 0.86277 0.45671
 C1205 C 0.78578 0.88335 0.44497
 H1206 H 0.68429 0.91124 0.41324
 H1207 H 0.67816 0.94976 0.38818
 H1208 H 0.76941 0.96203 0.39081
 H1209 H 0.70344 0.87378 0.43829
 H1210 H 0.73237 0.84378 0.46279
 H1211 H 0.80840 0.88661 0.44681
 C1212 C 0.23788 0.93353 0.60169
 C1213 C 0.20929 0.93352 0.60764
 C1214 C 0.19698 0.94982 0.62518
 C1215 C 0.21481 0.96717 0.63674
 C1216 C 0.24420 0.96780 0.63059
 C1217 C 0.25602 0.95059 0.61307
 O1218 O 0.24488 0.91742 0.58340
 C1219 C 0.22013 0.90714 0.57761
 C1220 C 0.19773 0.91644 0.59186
 C1221 C 0.16968 0.90958 0.58785
 C1222 C 0.16443 0.89244 0.56831
 C1223 C 0.18711 0.88242 0.55334
 C1224 C 0.21545 0.88969 0.55829
 H1225 H 0.17435 0.94967 0.62922
 H1226 H 0.20567 0.98063 0.64982
 H1227 H 0.27829 0.95128 0.60760
 H1228 H 0.15239 0.91746 0.59907
 H1229 H 0.14265 0.88695 0.56484
 H1230 H 0.23310 0.88263 0.54692
 C1231 C 0.24989 0.07968 0.38241
 C1232 C 0.22184 0.08143 0.37496
 C1233 C 0.20969 0.06556 0.35712
 C1234 C 0.22695 0.04671 0.34704
 C1235 C 0.25564 0.04408 0.35497
 C1236 C 0.26747 0.06107 0.37252
 O1237 O 0.25658 0.09542 0.40102
 C1238 C 0.23220 0.10723 0.40553
 C1239 C 0.21027 0.09923 0.39018
 C1240 C 0.18233 0.10738 0.39327
 C1241 C 0.17674 0.12437 0.41305
 C1242 C 0.19898 0.13306 0.42900
 C1243 C 0.22721 0.12463 0.42493
 H1244 H 0.18744 0.06703 0.35193
 H1245 H 0.21768 0.03341 0.33402
 H1246 H 0.28904 0.05885 0.37950
 H1247 H 0.16532 0.10039 0.38134
 H1248 H 0.15505 0.13069 0.41606
 H1249 H 0.24443 0.13052 0.43729
 C1250 C 0.74807 0.07403 0.61447
 C1251 C 0.77665 0.07357 0.62024
 C1252 C 0.78892 0.05566 0.63588
 C1253 C 0.77109 0.03726 0.64568
 C1254 C 0.74166 0.03708 0.63973
 C1255 C 0.72990 0.05591 0.62414
 O1256 O 0.74113 0.09173 0.59791
 C1257 C 0.76588 0.10258 0.59304
 C1258 C 0.78826 0.09208 0.60620
 C1259 C 0.81636 0.09922 0.60250
 C1260 C 0.82169 0.11772 0.58430
 C1261 C 0.79907 0.12887 0.57040
 C1262 C 0.77066 0.12144 0.57518
 H1263 H 0.81155 0.05546 0.63979
 H1264 H 0.78026 0.02271 0.65730
 H1265 H 0.70764 0.05575 0.61878
 H1266 H 0.83366 0.09036 0.61272
 H1267 H 0.84351 0.12313 0.58075
 H1268 H 0.75307 0.12916 0.56437
 C1269 C 0.92083 0.59394 0.25624
 C1270 C 0.90053 0.61044 0.24791
 C1271 C 0.90306 0.63565 0.25167
 C1272 C 0.92747 0.64409 0.26447
 C1273 C 0.94831 0.62730 0.27382
 C1274 C 0.94470 0.60184 0.26965
 O1275 O 0.91594 0.57109 0.24877
 C1276 C 0.89200 0.57312 0.23548
 C1277 C 0.88138 0.59673 0.23458
 C1278 C 0.85695 0.60292 0.22074
 C1279 C 0.84336 0.58409 0.20690
 C1280 C 0.85485 0.55997 0.20677
 C1281 C 0.87920 0.55438 0.22157
 H1282 H 0.88731 0.64840 0.24427
 H1283 H 0.93041 0.66368 0.26678
 H1284 H 0.96045 0.58858 0.27604
 H1285 H 0.84908 0.62164 0.22011
 H1286 H 0.82490 0.58849 0.19527
 H1287 H 0.88853 0.53612 0.22142
 C1288 C 0.92192 0.39581 0.73784
 C1289 C 0.91886 0.38621 0.76227
 C1290 C 0.93688 0.36808 0.77205
 C1291 C 0.95918 0.35975 0.75612
 C1292 C 0.96297 0.36963 0.73107
 C1293 C 0.94388 0.38766 0.72164
 O1294 O 0.90411 0.41431 0.73311
 C1295 C 0.88959 0.41655 0.75507
 C1296 C 0.89786 0.39979 0.77353
 C1297 C 0.88757 0.40035 0.79873
 C1298 C 0.86841 0.41921 0.80532
 C1299 C 0.85970 0.43680 0.78672
 C1300 C 0.86994 0.43514 0.76106
 H1301 H 0.93442 0.36120 0.79153
 H1302 H 0.97407 0.34621 0.76349
 H1303 H 0.94699 0.39592 0.70283
 H1304 H 0.89493 0.38736 0.81308
 H1305 H 0.86091 0.42057 0.82509
 H1306 H 0.86439 0.44889 0.74681
 C1307 C 0.09022 0.60252 0.74988
 C1308 C 0.10878 0.59557 0.73054
 C1309 C 0.10408 0.60113 0.70468
 C1310 C 0.07924 0.61435 0.69854
 C1311 C 0.06015 0.62227 0.71824
 C1312 C 0.06582 0.61616 0.74428
 O1313 O 0.09738 0.59379 0.77289
 C1314 C 0.12100 0.58109 0.76801
 C1315 C 0.12904 0.58175 0.74244
 C1316 C 0.15262 0.56899 0.73299
 C1317 C 0.16830 0.55470 0.75053
 C1318 C 0.15992 0.55312 0.77687
 C1319 C 0.13609 0.56683 0.78571
 H1320 H 0.11855 0.59487 0.68971
 H1321 H 0.07455 0.61806 0.67846
 H1322 H 0.05116 0.62126 0.75960
 H1323 H 0.15842 0.56964 0.71275
 H1324 H 0.18633 0.54419 0.74337
 H1325 H 0.12898 0.56589 0.80560
 C1326 C 0.06517 0.41198 0.26502
 C1327 C 0.08386 0.39425 0.25628
 C1328 C 0.07913 0.36927 0.25977
 C1329 C 0.05416 0.36230 0.27282
 C1330 C 0.03497 0.38024 0.28287
 C1331 C 0.04062 0.40548 0.27865
 O1332 O 0.07286 0.43461 0.25859
 C1333 C 0.09702 0.43111 0.24562
 C1334 C 0.10486 0.40675 0.24386
 C1335 C 0.12954 0.39900 0.23117
 C1336 C 0.14674 0.41708 0.21976
 C1337 C 0.13868 0.44217 0.22084
 C1338 C 0.11350 0.44931 0.23395
 H1339 H 0.09380 0.35561 0.25221
 H1340 H 0.04962 0.34292 0.27495
 H1341 H 0.02612 0.41961 0.28552
 H1342 H 0.13531 0.37975 0.23006
 H1343 H 0.16598 0.41158 0.20963
 H1344 H 0.10698 0.46841 0.23496
   
