data_POSCAR
  _audit_creation_date              2014-09-24
  _audit_creation_method            'ToBaCCo'
  _symmetry_space_group_name_H-M    'P1'
  _symmetry_Int_Tables_number       1
  _symmetry_cell_setting            triclinic
  loop_
  _symmetry_equiv_pos_as_xyz
 x,y,z
_cell_length_a 84.1816
_cell_length_b 84.1931
_cell_length_c 84.1731
_cell_angle_alpha 90.000800
_cell_angle_beta 89.998200
_cell_angle_gamma 89.970000
loop_
  _atom_site_label
  _atom_site_type_symbol
  _atom_site_fract_x
  _atom_site_fract_y
  _atom_site_fract_z
C1 C 0.20601 0.19834 0.22146
 C2 C 0.19313 0.20099 0.23170
 C3 C 0.18288 0.21385 0.22912
 C4 C 0.18542 0.22415 0.21631
 C5 C 0.19824 0.22168 0.20595
 C6 C 0.20860 0.20872 0.20852
 C7 C 0.21636 0.18550 0.22392
 C8 C 0.22918 0.18297 0.21362
 C9 C 0.23177 0.19323 0.20079
 C10 C 0.22155 0.20613 0.19815
 C11 C 0.22403 0.21649 0.18533
 C12 C 0.21374 0.22933 0.18281
 C13 C 0.20090 0.23192 0.19308
 H14 H 0.19106 0.19308 0.24166
 H15 H 0.17741 0.23407 0.21442
 H16 H 0.21445 0.17748 0.23383
 H17 H 0.24174 0.19116 0.19288
 H18 H 0.23393 0.21459 0.17731
 H19 H 0.19300 0.24189 0.19102
 C20 C 0.70616 0.69829 0.72154
 C21 C 0.69327 0.70091 0.73177
 C22 C 0.68299 0.71374 0.72920
 C23 C 0.68550 0.72405 0.71638
 C24 C 0.69833 0.72160 0.70603
 C25 C 0.70873 0.70867 0.70860
 C26 C 0.71653 0.68547 0.72400
 C27 C 0.72936 0.68296 0.71369
 C28 C 0.73193 0.69324 0.70086
 C29 C 0.72168 0.70611 0.69822
 C30 C 0.72413 0.71647 0.68540
 C31 C 0.71381 0.72928 0.68288
 C32 C 0.70096 0.73185 0.69315
 H33 H 0.69122 0.69300 0.74173
 H34 H 0.67747 0.73395 0.71449
 H35 H 0.71465 0.67744 0.73390
 H36 H 0.74190 0.69119 0.69295
 H37 H 0.73404 0.71459 0.67738
 H38 H 0.69304 0.74180 0.69109
 C39 C 0.29353 0.80200 0.72171
 C40 C 0.30641 0.79934 0.73195
 C41 C 0.31666 0.78648 0.72937
 C42 C 0.31413 0.77618 0.71655
 C43 C 0.30130 0.77866 0.70620
 C44 C 0.29094 0.79163 0.70877
 C45 C 0.28319 0.81484 0.72418
 C46 C 0.27036 0.81739 0.71387
 C47 C 0.26777 0.80711 0.70103
 C48 C 0.27800 0.79422 0.69839
 C49 C 0.27553 0.78386 0.68557
 C50 C 0.28582 0.77102 0.68305
 C51 C 0.29865 0.76843 0.69332
 H52 H 0.30848 0.80724 0.74191
 H53 H 0.32213 0.76626 0.71466
 H54 H 0.28513 0.82284 0.73410
 H55 H 0.25782 0.80915 0.69309
 H56 H 0.26562 0.78576 0.67755
 H57 H 0.30655 0.75845 0.69126
 C58 C 0.79423 0.30166 0.22174
 C59 C 0.80710 0.29903 0.23200
 C60 C 0.81739 0.28619 0.22945
 C61 C 0.81488 0.27587 0.21662
 C62 C 0.80207 0.27833 0.20624
 C63 C 0.79168 0.29128 0.20880
 C64 C 0.78386 0.31448 0.22418
 C65 C 0.77105 0.31700 0.21385
 C66 C 0.76850 0.30672 0.20102
 C67 C 0.77874 0.29384 0.19840
 C68 C 0.77630 0.28348 0.18558
 C69 C 0.78662 0.27066 0.18308
 C70 C 0.79945 0.26809 0.19336
 H71 H 0.80910 0.30698 0.24196
 H72 H 0.82289 0.26595 0.21470
 H73 H 0.78573 0.32251 0.23408
 H74 H 0.75854 0.30877 0.19309
 H75 H 0.76641 0.28536 0.17755
 H76 H 0.80736 0.25812 0.19132
 C77 C 0.79431 0.69855 0.27790
 C78 C 0.80721 0.70115 0.26768
 C79 C 0.81751 0.71398 0.27026
 C80 C 0.81497 0.72430 0.28308
 C81 C 0.80213 0.72186 0.29342
 C82 C 0.79174 0.70894 0.29084
 C83 C 0.78394 0.68575 0.27543
 C84 C 0.77110 0.68325 0.28572
 C85 C 0.76852 0.69353 0.29855
 C86 C 0.77877 0.70639 0.30120
 C87 C 0.77631 0.71676 0.31402
 C88 C 0.78663 0.72956 0.31655
 C89 C 0.79948 0.73211 0.30630
 H90 H 0.80924 0.69321 0.25772
 H91 H 0.82299 0.73420 0.28502
 H92 H 0.78583 0.67771 0.26554
 H93 H 0.75855 0.69150 0.30645
 H94 H 0.76639 0.71489 0.32202
 H95 H 0.80740 0.74206 0.30836
 C96 C 0.29432 0.19855 -0.22180
 C97 C 0.30722 0.20116 -0.23202
 C98 C 0.31748 0.21402 -0.22947
 C99 C 0.31490 0.22437 -0.21667
 C100 C 0.30205 0.22193 -0.20634
 C101 C 0.29170 0.20897 -0.20890
 C102 C 0.28398 0.18571 -0.22425
 C103 C 0.27114 0.18322 -0.21397
 C104 C 0.26851 0.19352 -0.20117
 C105 C 0.27873 0.20642 -0.19855
 C106 C 0.27622 0.21682 -0.18577
 C107 C 0.28650 0.22965 -0.18326
 C108 C 0.29936 0.23221 -0.19350
 H109 H 0.30928 0.19319 -0.24195
 H110 H 0.32288 0.23430 -0.21476
 H111 H 0.28591 0.17766 -0.23412
 H112 H 0.25853 0.19149 -0.19328
 H113 H 0.26629 0.21494 -0.17776
 H114 H 0.30725 0.24218 -0.19145
 C115 C 0.70590 0.30135 -0.22188
 C116 C 0.69301 0.29873 -0.23211
 C117 C 0.68274 0.28588 -0.22954
 C118 C 0.68529 0.27557 -0.21671
 C119 C 0.69812 0.27802 -0.20637
 C120 C 0.70849 0.29097 -0.20894
 C121 C 0.71625 0.31417 -0.22434
 C122 C 0.72908 0.31669 -0.21404
 C123 C 0.73167 0.30641 -0.20121
 C124 C 0.72144 0.29353 -0.19858
 C125 C 0.72392 0.28317 -0.18576
 C126 C 0.71362 0.27035 -0.18323
 C127 C 0.70077 0.26778 -0.19349
 H128 H 0.69098 0.30667 -0.24206
 H129 H 0.67729 0.26565 -0.21478
 H130 H 0.71435 0.32220 -0.23424
 H131 H 0.74164 0.30846 -0.19331
 H132 H 0.73383 0.28505 -0.17775
 H133 H 0.69287 0.25782 -0.19143
 C134 C 0.20625 0.80192 0.27812
 C135 C 0.19338 0.79927 0.26786
 C136 C 0.18313 0.78643 0.27042
 C137 C 0.18564 0.77612 0.28325
 C138 C 0.19845 0.77859 0.29362
 C139 C 0.20881 0.79155 0.29107
 C140 C 0.21659 0.81475 0.27567
 C141 C 0.22940 0.81729 0.28600
 C142 C 0.23197 0.80701 0.29885
 C143 C 0.22173 0.79412 0.30147
 C144 C 0.22419 0.78377 0.31430
 C145 C 0.21389 0.77094 0.31680
 C146 C 0.20107 0.76836 0.30651
 H147 H 0.19133 0.80718 0.25790
 H148 H 0.17763 0.76621 0.28512
 H149 H 0.21467 0.82275 0.26574
 H150 H 0.24191 0.80904 0.30681
 H151 H 0.23407 0.78566 0.32234
 H152 H 0.19317 0.75839 0.30855
 C153 C 0.44855 0.45609 0.47182
 C154 C 0.45118 0.44319 0.48204
 C155 C 0.46402 0.43292 0.47946
 C156 C 0.47434 0.43545 0.46665
 C157 C 0.47189 0.44829 0.45631
 C158 C 0.45894 0.45867 0.45889
 C159 C 0.43573 0.46645 0.47429
 C160 C 0.43322 0.47928 0.46400
 C161 C 0.44350 0.48187 0.45117
 C162 C 0.45638 0.47163 0.44853
 C163 C 0.46675 0.47411 0.43572
 C164 C 0.47958 0.46380 0.43320
 C165 C 0.48214 0.45094 0.44345
 H166 H 0.44326 0.44112 0.49200
 H167 H 0.48424 0.42742 0.46476
 H168 H 0.42769 0.46454 0.48418
 H169 H 0.44145 0.49185 0.44328
 H170 H 0.46487 0.48403 0.42771
 H171 H 0.49210 0.44303 0.44138
 C172 C -0.05184 -0.04375 0.97167
 C173 C -0.04925 -0.05668 0.98187
 C174 C -0.03642 -0.06696 0.97930
 C175 C -0.02607 -0.06441 0.96652
 C176 C -0.02847 -0.05155 0.95620
 C177 C -0.04141 -0.04115 0.95877
 C178 C -0.06465 -0.03338 0.97413
 C179 C -0.06713 -0.02051 0.96386
 C180 C -0.05679 -0.01791 0.95106
 C181 C -0.04392 -0.02817 0.94843
 C182 C -0.03352 -0.02568 0.93565
 C183 C -0.02070 -0.03601 0.93313
 C184 C -0.01818 -0.04889 0.94336
 H185 H -0.05720 -0.05876 0.99180
 H186 H -0.01617 -0.07245 0.96463
 H187 H -0.07269 -0.03533 0.98402
 H188 H -0.05877 -0.00792 0.94315
 H189 H -0.03536 -0.01575 0.92766
 H190 H -0.00823 -0.05681 0.94131
 C191 C 1.05166 0.54394 0.97205
 C192 C 1.04902 0.55683 0.98227
 C193 C 1.03616 0.56711 0.97969
 C194 C 1.02585 0.56455 0.96686
 C195 C 1.02833 0.55171 0.95653
 C196 C 1.04128 0.54134 0.95911
 C197 C 1.06450 0.53359 0.97452
 C198 C 1.06703 0.52074 0.96424
 C199 C 1.05674 0.51815 0.95140
 C200 C 1.04386 0.52838 0.94876
 C201 C 1.03350 0.52590 0.93594
 C202 C 1.02067 0.53619 0.93341
 C203 C 1.01809 0.54905 0.94365
 H204 H 1.05696 0.55888 0.99222
 H205 H 1.01592 0.57255 0.96492
 H206 H 1.07250 0.53554 0.98444
 H207 H 1.05877 0.50818 0.94348
 H208 H 1.03539 0.51598 0.92793
 H209 H 1.00812 0.55695 0.94158
 C210 C 0.55195 0.04361 0.47178
 C211 C 0.54932 0.05649 0.48203
 C212 C 0.53646 0.06674 0.47950
 C213 C 0.52612 0.06421 0.46671
 C214 C 0.52856 0.05139 0.45635
 C215 C 0.54153 0.04103 0.45888
 C216 C 0.56479 0.03327 0.47421
 C217 C 0.56731 0.02043 0.46389
 C218 C 0.55698 0.01785 0.45108
 C219 C 0.54408 0.02809 0.44849
 C220 C 0.53368 0.02562 0.43570
 C221 C 0.52084 0.03591 0.43323
 C222 C 0.51828 0.04875 0.44350
 H223 H 0.55726 0.05855 0.49197
 H224 H 0.51619 0.07222 0.46486
 H225 H 0.57283 0.03520 0.48410
 H226 H 0.55899 0.00790 0.44314
 H227 H 0.53555 0.01571 0.42767
 H228 H 0.50830 0.05665 0.44148
 C229 C -0.05175 0.04418 0.52853
 C230 C -0.04912 0.05708 0.51830
 C231 C -0.03628 0.06734 0.52090
 C232 C -0.02598 0.06480 0.53372
 C233 C -0.02844 0.05197 0.54406
 C234 C -0.04138 0.04160 0.54147
 C235 C -0.06457 0.03383 0.52605
 C236 C -0.06709 0.02100 0.53634
 C237 C -0.05682 0.01841 0.54918
 C238 C -0.04394 0.02864 0.55183
 C239 C -0.03359 0.02616 0.56465
 C240 C -0.02077 0.03646 0.56719
 C241 C -0.01820 0.04931 0.55694
 H242 H -0.05702 0.05915 0.50834
 H243 H -0.01608 0.07282 0.53562
 H244 H -0.07259 0.03574 0.51614
 H245 H -0.05887 0.00843 0.55707
 H246 H -0.03547 0.01624 0.57266
 H247 H -0.00824 0.05722 0.55901
 C248 C 0.44820 0.54425 0.02817
 C249 C 0.45084 0.55712 0.01791
 C250 C 0.46372 0.56736 0.02046
 C251 C 0.47403 0.56481 0.03329
 C252 C 0.47155 0.55200 0.04365
 C253 C 0.45858 0.54166 0.04110
 C254 C 0.43535 0.53392 0.02573
 C255 C 0.43282 0.52112 0.03604
 C256 C 0.44309 0.51852 0.04887
 C257 C 0.45599 0.52873 0.05149
 C258 C 0.46636 0.52625 0.06431
 C259 C 0.47920 0.53652 0.06681
 C260 C 0.48180 0.54935 0.05653
 H261 H 0.44290 0.55915 0.00796
 H262 H 0.48398 0.57279 0.03520
 H263 H 0.42732 0.53583 0.01583
 H264 H 0.44102 0.50857 0.05679
 H265 H 0.46445 0.51636 0.07234
 H266 H 0.49178 0.55723 0.05857
 C267 C 0.55179 -0.04402 0.02853
 C268 C 0.54914 -0.05689 0.01828
 C269 C 0.53630 -0.06715 0.02085
 C270 C 0.52600 -0.06463 0.03368
 C271 C 0.52847 -0.05182 0.04405
 C272 C 0.54142 -0.04145 0.04148
 C273 C 0.56461 -0.03368 0.02607
 C274 C 0.56714 -0.02087 0.03639
 C275 C 0.55688 -0.01830 0.04924
 C276 C 0.54400 -0.02852 0.05187
 C277 C 0.53365 -0.02607 0.06470
 C278 C 0.52083 -0.03636 0.06722
 C279 C 0.51824 -0.04919 0.05694
 H280 H 0.55704 -0.05895 0.00831
 H281 H 0.51609 -0.07264 0.03557
 H282 H 0.57263 -0.03556 0.01616
 H283 H 0.55895 -0.00835 0.05716
 H284 H 0.53555 -0.01617 0.07274
 H285 H 0.50828 -0.05709 0.05900
 C286 C 1.05154 0.45587 0.52797
 C287 C 1.04888 0.44303 0.51769
 C288 C 1.03604 0.43275 0.52026
 C289 C 1.02576 0.43525 0.53313
 C290 C 1.02825 0.44804 0.54351
 C291 C 1.04120 0.45841 0.54094
 C292 C 1.06436 0.46623 0.52551
 C293 C 1.06692 0.47901 0.53585
 C294 C 1.05668 0.48155 0.54873
 C295 C 1.04380 0.47132 0.55136
 C296 C 1.03347 0.47375 0.56422
 C297 C 1.02065 0.46345 0.56673
 C298 C 1.01805 0.45065 0.55643
 H299 H 1.05680 0.44103 0.50771
 H300 H 1.01584 0.42725 0.53505
 H301 H 1.07236 0.46436 0.51558
 H302 H 1.05876 0.49148 0.55666
 H303 H 1.03539 0.48362 0.57227
 H304 H 1.00809 0.44274 0.55849
 C305 C 0.39909 0.00709 0.22891
 H306 H 0.39971 0.01786 0.23589
 C307 C 0.40948 0.00485 0.21617
 H308 H 0.41810 0.01394 0.21325
 C309 C 0.38727 -0.01806 0.22429
 H310 H 0.37878 -0.02707 0.22763
 C311 C 0.39744 -0.02077 0.21145
 H312 H 0.39664 -0.03179 0.20486
 N313 N 0.38815 -0.00422 0.23260
 C314 C 0.35049 0.02110 0.25769
 H315 H 0.34984 0.01414 0.26847
 C316 C 0.34015 0.03387 0.25543
 H317 H 0.33152 0.03682 0.26451
 C318 C 0.36237 0.02565 0.23254
 H319 H 0.37086 0.02227 0.22354
 C320 C 0.35224 0.03851 0.22980
 H321 H 0.35307 0.04509 0.21877
 Zn322 Zn 0.37476 -0.00036 0.25027
 N323 N 0.36144 0.01736 0.24639
 C324 C 0.38720 0.01733 0.27629
 N325 N 0.38808 0.00347 0.26800
 C326 C 0.39899 -0.00786 0.27174
 C327 C 0.40934 -0.00564 0.28451
 C328 C 0.39733 0.02003 0.28915
 C329 C 0.35049 -0.02174 0.24274
 C330 C 0.34011 -0.03449 0.24494
 C331 C 0.35208 -0.03918 0.27061
 C332 C 0.36224 -0.02634 0.26793
 N333 N 0.36139 -0.01803 0.25408
 H334 H 0.37874 0.02636 0.27290
 H335 H 0.39961 -0.01865 0.26478
 H336 H 0.41794 -0.01475 0.28746
 H337 H 0.39654 0.03107 0.29572
 H338 H 0.34990 -0.01476 0.23196
 H339 H 0.33153 -0.03741 0.23581
 H340 H 0.35285 -0.04577 0.28164
 H341 H 0.37069 -0.02299 0.27698
 C342 C 0.34107 0.04268 0.24137
 C343 C 0.40860 -0.00919 0.20734
 C344 C 0.34096 -0.04330 0.25899
 C345 C 0.40847 0.00842 0.29331
 C346 C 0.10103 -0.00739 0.72874
 H347 H 0.10041 -0.01816 0.73572
 C348 C 0.09064 -0.00515 0.71600
 H349 H 0.08202 -0.01424 0.71308
 C350 C 0.11286 0.01776 0.72412
 H351 H 0.12134 0.02677 0.72746
 C352 C 0.10269 0.02047 0.71128
 H353 H 0.10349 0.03149 0.70469
 N354 N 0.11197 0.00392 0.73243
 C355 C 0.14962 -0.02137 0.75757
 H356 H 0.15026 -0.01439 0.76834
 C357 C 0.15997 -0.03414 0.75533
 H358 H 0.16859 -0.03708 0.76442
 C359 C 0.13776 -0.02595 0.73242
 H360 H 0.12927 -0.02259 0.72341
 C361 C 0.14789 -0.03882 0.72971
 H362 H 0.14707 -0.04541 0.71868
 Zn363 Zn 0.12534 0.00007 0.75012
 N364 N 0.13867 -0.01764 0.74627
 C365 C 0.11291 -0.01758 0.77616
 N366 N 0.11201 -0.00374 0.76783
 C367 C 0.10108 0.00758 0.77154
 C368 C 0.09072 0.00537 0.78431
 C369 C 0.10277 -0.02026 0.78903
 C370 C 0.14963 0.02145 0.74260
 C371 C 0.15999 0.03420 0.74481
 C372 C 0.14797 0.03893 0.77045
 C373 C 0.13782 0.02608 0.76777
 N374 N 0.13870 0.01775 0.75393
 H375 H 0.12139 -0.02660 0.77281
 H376 H 0.10044 0.01834 0.76455
 H377 H 0.08210 0.01447 0.78723
 H378 H 0.10359 -0.03128 0.79563
 H379 H 0.15024 0.01446 0.73183
 H380 H 0.16860 0.03712 0.73570
 H381 H 0.14717 0.04553 0.78147
 H382 H 0.12935 0.02274 0.77680
 C383 C 0.15906 -0.04296 0.74129
 C384 C 0.09152 0.00889 0.70717
 C385 C 0.15912 0.04304 0.75885
 C386 C 0.09161 -0.00866 0.79315
 C387 C 0.60085 0.49272 0.22851
 H388 H 0.60023 0.48195 0.23549
 C389 C 0.59047 0.49494 0.21575
 H390 H 0.58185 0.48584 0.21284
 C391 C 0.61266 0.51787 0.22387
 H392 H 0.62114 0.52689 0.22721
 C393 C 0.60250 0.52057 0.21103
 H394 H 0.60329 0.53158 0.20443
 N395 N 0.61179 0.50403 0.23220
 C396 C 0.64949 0.47882 0.25731
 H397 H 0.65014 0.48581 0.26808
 C398 C 0.65985 0.46606 0.25508
 H399 H 0.66849 0.46315 0.26416
 C400 C 0.63760 0.47418 0.23219
 H401 H 0.62910 0.47752 0.22318
 C402 C 0.64775 0.46133 0.22948
 H403 H 0.64692 0.45471 0.21847
 Zn404 Zn 0.62517 0.50021 0.24987
 N405 N 0.63852 0.48251 0.24602
 C406 C 0.61280 0.48254 0.27593
 N407 N 0.61186 0.49637 0.26760
 C408 C 0.60092 0.50768 0.27133
 C409 C 0.59059 0.50545 0.28412
 C410 C 0.60268 0.47983 0.28881
 C411 C 0.64943 0.52160 0.24234
 C412 C 0.65978 0.53437 0.24453
 C413 C 0.64777 0.53910 0.27018
 C414 C 0.63763 0.52624 0.26751
 N415 N 0.63851 0.51791 0.25367
 H416 H 0.62128 0.47353 0.27256
 H417 H 0.60025 0.51844 0.26435
 H418 H 0.58196 0.51454 0.28706
 H419 H 0.60353 0.46882 0.29541
 H420 H 0.65004 0.51461 0.23157
 H421 H 0.66838 0.53728 0.23541
 H422 H 0.64697 0.54571 0.28119
 H423 H 0.62916 0.52290 0.27654
 C424 C 0.65894 0.45721 0.24105
 C425 C 0.59134 0.50897 0.20692
 C426 C 0.65891 0.54321 0.25856
 C427 C 0.59152 0.49141 0.29296
 C428 C 0.89940 0.50711 0.72874
 H429 H 0.90002 0.51789 0.73570
 C430 C 0.90977 0.50486 0.71598
 H431 H 0.91839 0.51395 0.71305
 C432 C 0.88756 0.48196 0.72416
 H433 H 0.87908 0.47295 0.72752
 C434 C 0.89772 0.47923 0.71132
 H435 H 0.89691 0.46820 0.70473
 N436 N 0.88845 0.49581 0.73245
 C437 C 0.85079 0.52115 0.75751
 H438 H 0.85013 0.51418 0.76829
 C439 C 0.84045 0.53393 0.75525
 H440 H 0.83182 0.53688 0.76433
 C441 C 0.86269 0.52571 0.73237
 H442 H 0.87118 0.52233 0.72338
 C443 C 0.85256 0.53857 0.72964
 H444 H 0.85341 0.54516 0.71861
 Zn445 Zn 0.87507 0.49970 0.75012
 N446 N 0.86175 0.51741 0.74623
 C447 C 0.88748 0.51741 0.77612
 N448 N 0.88837 0.50354 0.76785
 C449 C 0.89928 0.49221 0.77162
 C450 C 0.90961 0.49445 0.78440
 C451 C 0.89760 0.52012 0.78899
 C452 C 0.85079 0.47832 0.74260
 C453 C 0.84041 0.46557 0.74480
 C454 C 0.85237 0.46089 0.77048
 C455 C 0.86254 0.47372 0.76780
 N456 N 0.86169 0.48203 0.75394
 H457 H 0.87903 0.52644 0.77272
 H458 H 0.89991 0.48142 0.76467
 H459 H 0.91821 0.48534 0.78738
 H460 H 0.89680 0.53116 0.79556
 H461 H 0.85020 0.48529 0.73181
 H462 H 0.83182 0.46265 0.73567
 H463 H 0.85314 0.45430 0.78151
 H464 H 0.87099 0.47707 0.77684
 C465 C 0.84138 0.54274 0.74120
 C466 C 0.90888 0.49081 0.70718
 C467 C 0.84125 0.45676 0.75885
 C468 C 0.90873 0.50852 0.79318
 C469 C 0.22819 0.39969 0.00736
 H470 H 0.23517 0.40030 0.01813
 C471 C 0.21541 0.41005 0.00516
 H472 H 0.21248 0.41864 0.01428
 C473 C 0.22358 0.38791 -0.01782
 H474 H 0.22695 0.37945 -0.02686
 C475 C 0.21072 0.39805 -0.02050
 H476 H 0.20412 0.39726 -0.03152
 N477 N 0.23191 0.38878 -0.00398
 C478 C 0.25713 0.35112 0.02118
 H479 H 0.26790 0.35050 0.01419
 C480 C 0.25493 0.34074 0.03393
 H481 H 0.26404 0.33212 0.03683
 C482 C 0.23197 0.36293 0.02583
 H483 H 0.22294 0.37142 0.02250
 C484 C 0.22929 0.35277 0.03867
 H485 H 0.21828 0.35356 0.04529
 Zn486 Zn 0.24962 0.37544 -0.00017
 N487 N 0.24581 0.36206 0.01750
 C488 C 0.27563 0.38787 0.01754
 N489 N 0.26730 0.38879 0.00370
 C490 C 0.27100 0.39976 -0.00759
 C491 C 0.28376 0.41011 -0.00535
 C492 C 0.28847 0.39801 0.02026
 C493 C 0.24219 0.35121 -0.02165
 C494 C 0.24445 0.34088 -0.03444
 C495 C 0.27007 0.35295 -0.03907
 C496 C 0.26734 0.36306 -0.02620
 N497 N 0.25349 0.36214 -0.01790
 H498 H 0.27228 0.37937 0.02654
 H499 H 0.26402 0.40041 -0.01837
 H500 H 0.28667 0.41875 -0.01443
 H501 H 0.29507 0.39717 0.03127
 H502 H 0.23141 0.35056 -0.01469
 H503 H 0.23536 0.33226 -0.03740
 H504 H 0.28111 0.35378 -0.04565
 H505 H 0.27635 0.37154 -0.02281
 C506 C 0.24090 0.34161 0.04277
 C507 C 0.20658 0.40918 -0.00888
 C508 C 0.25850 0.34179 -0.04324
 C509 C 0.29259 0.40919 0.00869
 C510 C 0.72894 0.10047 -0.00741
 H511 H 0.73589 0.09983 -0.01820
 C512 C 0.71617 0.09012 -0.00516
 H513 H 0.71322 0.08151 -0.01426
 C514 C 0.72438 0.11230 0.01776
 H515 H 0.72776 0.12078 0.02677
 C516 C 0.71153 0.10217 0.02048
 H517 H 0.70496 0.10299 0.03152
 N518 N 0.73267 0.11140 0.00390
 C519 C 0.75778 0.14900 -0.02144
 H520 H 0.76857 0.14963 -0.01449
 C521 C 0.75552 0.15934 -0.03421
 H522 H 0.76462 0.16795 -0.03717
 C523 C 0.73261 0.13718 -0.02597
 H524 H 0.72360 0.12871 -0.02258
 C525 C 0.72987 0.14731 -0.03882
 H526 H 0.71883 0.14650 -0.04539
 Zn527 Zn 0.75036 0.12474 0.00001
 N528 N 0.74647 0.13807 -0.01769
 C529 C 0.77634 0.11228 -0.01772
 N530 N 0.76805 0.11139 -0.00386
 C531 C 0.77180 0.10047 0.00746
 C532 C 0.78457 0.09012 0.00522
 C533 C 0.78919 0.10213 -0.02044
 C534 C 0.74291 0.14903 0.02142
 C535 C 0.74516 0.15940 0.03418
 C536 C 0.77081 0.14736 0.03882
 C537 C 0.76809 0.13721 0.02598
 N538 N 0.75423 0.13810 0.01769
 H539 H 0.77295 0.12074 -0.02674
 H540 H 0.76485 0.09985 0.01826
 H541 H 0.78753 0.08152 0.01432
 H542 H 0.79576 0.10293 -0.03148
 H543 H 0.73212 0.14965 0.01447
 H544 H 0.73605 0.16801 0.03712
 H545 H 0.78185 0.14656 0.04539
 H546 H 0.77711 0.12874 0.02261
 C547 C 0.74146 0.15845 -0.04300
 C548 C 0.70737 0.09102 0.00890
 C549 C 0.75922 0.15852 0.04297
 C550 C 0.79336 0.09099 -0.00885
 C551 C 0.22851 0.60077 0.49243
 H552 H 0.23550 0.60016 0.48166
 C553 C 0.21576 0.59039 0.49463
 H554 H 0.21285 0.58179 0.48551
 C555 C 0.22387 0.61255 0.51761
 H556 H 0.22721 0.62102 0.52664
 C557 C 0.21103 0.60240 0.52028
 H558 H 0.20443 0.60318 0.53130
 N559 N 0.23220 0.61169 0.50377
 C560 C 0.25738 0.64933 0.47858
 H561 H 0.26815 0.64995 0.48557
 C562 C 0.25517 0.65970 0.46581
 H563 H 0.26427 0.66831 0.46290
 C564 C 0.23223 0.63751 0.47394
 H565 H 0.22321 0.62904 0.47728
 C566 C 0.22954 0.64767 0.46109
 H567 H 0.21852 0.64687 0.45448
 Zn568 Zn 0.24989 0.62504 0.49996
 N569 N 0.24606 0.63840 0.48227
 C570 C 0.27594 0.61262 0.48231
 N571 N 0.26761 0.61171 0.49615
 C572 C 0.27131 0.60078 0.50746
 C573 C 0.28409 0.59042 0.50525
 C574 C 0.28881 0.60248 0.47963
 C575 C 0.24235 0.64930 0.52138
 C576 C 0.24454 0.65966 0.53415
 C577 C 0.27019 0.64765 0.53886
 C578 C 0.26752 0.63750 0.52601
 N579 N 0.25368 0.63838 0.51768
 H580 H 0.27259 0.62109 0.47329
 H581 H 0.26432 0.60014 0.51823
 H582 H 0.28701 0.58181 0.51435
 H583 H 0.29542 0.60330 0.46861
 H584 H 0.23158 0.64992 0.51439
 H585 H 0.23543 0.66827 0.53707
 H586 H 0.28121 0.64685 0.54547
 H587 H 0.27656 0.62904 0.52266
 C588 C 0.24113 0.65882 0.45698
 C589 C 0.20692 0.59125 0.50867
 C590 C 0.25858 0.65879 0.54299
 C591 C 0.29294 0.59132 0.49122
 C592 C 0.72844 0.89946 0.50724
 H593 H 0.73540 0.90008 0.51803
 C594 C 0.71567 0.90981 0.50501
 H595 H 0.71272 0.91842 0.51412
 C596 C 0.72388 0.88765 0.48207
 H597 H 0.72726 0.87918 0.47304
 C598 C 0.71102 0.89779 0.47936
 H599 H 0.70444 0.89699 0.46832
 N600 N 0.73218 0.88854 0.49592
 C601 C 0.75736 0.85091 0.52117
 H602 H 0.76815 0.85030 0.51422
 C603 C 0.75513 0.84053 0.53393
 H604 H 0.76423 0.83193 0.53687
 C605 C 0.73217 0.86271 0.52574
 H606 H 0.72315 0.87118 0.52238
 C607 C 0.72946 0.85255 0.53858
 H608 H 0.71843 0.85334 0.54516
 Zn609 Zn 0.74989 0.87520 0.49978
 N610 N 0.74603 0.86183 0.51745
 C611 C 0.77586 0.88765 0.51752
 N612 N 0.76756 0.88856 0.50367
 C613 C 0.77127 0.89951 0.49237
 C614 C 0.78402 0.90988 0.49463
 C615 C 0.78869 0.89780 0.52026
 C616 C 0.74249 0.85094 0.47832
 C617 C 0.74477 0.84060 0.46554
 C618 C 0.77039 0.85268 0.46092
 C619 C 0.76764 0.86281 0.47378
 N620 N 0.75378 0.86189 0.48207
 H621 H 0.77250 0.87916 0.52653
 H622 H 0.76431 0.90015 0.48159
 H623 H 0.78695 0.91851 0.48555
 H624 H 0.79527 0.89698 0.53129
 H625 H 0.73171 0.85029 0.48527
 H626 H 0.73569 0.83198 0.46258
 H627 H 0.78142 0.85351 0.45435
 H628 H 0.77664 0.87129 0.47717
 C629 C 0.74106 0.84140 0.54273
 C630 C 0.70686 0.90893 0.49095
 C631 C 0.75883 0.84152 0.45675
 C632 C 0.79283 0.90897 0.50869
 C633 C 0.00723 0.22904 0.39926
 H634 H 0.01800 0.23601 0.39988
 C635 C 0.00501 0.21629 0.40964
 H636 H 0.01411 0.21337 0.41826
 C637 C -0.01793 0.22442 0.38744
 H638 H -0.02696 0.22777 0.37896
 C639 C -0.02063 0.21159 0.39760
 H640 H -0.03165 0.20499 0.39681
 N641 N -0.00409 0.23273 0.38832
 C642 C 0.02116 0.25783 0.35065
 H643 H 0.01419 0.26861 0.35001
 C644 C 0.03392 0.25558 0.34029
 H645 H 0.03685 0.26466 0.33166
 C646 C 0.02575 0.23268 0.36251
 H647 H 0.02239 0.22368 0.37100
 C648 C 0.03860 0.22995 0.35237
 H649 H 0.04518 0.21892 0.35318
 Zn650 Zn -0.00026 0.25040 0.37494
 N651 N 0.01744 0.24653 0.36160
 C652 C 0.01743 0.27642 0.38736
 N653 N 0.00358 0.26812 0.38826
 C654 C -0.00774 0.27186 0.39919
 C655 C -0.00551 0.28464 0.40953
 C656 C 0.02014 0.28928 0.39749
 C657 C -0.02166 0.24289 0.35067
 C658 C -0.03442 0.24509 0.34031
 C659 C -0.03913 0.27075 0.35230
 C660 C -0.02628 0.26807 0.36246
 N661 N -0.01795 0.25422 0.36159
 H662 H 0.02645 0.27304 0.37889
 H663 H -0.01852 0.26490 0.39982
 H664 H -0.01461 0.28759 0.41814
 H665 H 0.03116 0.29586 0.39668
 H666 H -0.01467 0.23211 0.35007
 H667 H -0.03734 0.23597 0.33171
 H668 H -0.04573 0.28177 0.35309
 H669 H -0.02293 0.27710 0.37092
 C670 C 0.04273 0.24152 0.34119
 C671 C -0.00904 0.20747 0.40877
 C672 C -0.04325 0.25913 0.34117
 C673 C 0.00854 0.29344 0.40864
 C674 C -0.00757 0.72819 0.10059
 H675 H -0.01837 0.73514 0.09998
 C676 C -0.00533 0.71542 0.09024
 H677 H -0.01445 0.71246 0.08165
 C678 C 0.01764 0.72367 0.11235
 H679 H 0.02667 0.72707 0.12080
 C680 C 0.02035 0.71082 0.10221
 H681 H 0.03140 0.70425 0.10300
 N682 N 0.00376 0.73195 0.11149
 C683 C -0.02146 0.75714 0.14913
 H684 H -0.01450 0.76792 0.14973
 C685 C -0.03420 0.75493 0.15952
 H686 H -0.03713 0.76404 0.16812
 C687 C -0.02605 0.73196 0.13736
 H688 H -0.02269 0.72293 0.12889
 C689 C -0.03888 0.72927 0.14753
 H690 H -0.04546 0.71824 0.14675
 Zn691 Zn -0.00009 0.74966 0.12482
 N692 N -0.01775 0.74581 0.13821
 C693 C -0.01786 0.77562 0.11237
 N694 N -0.00400 0.76733 0.11145
 C695 C 0.00729 0.77105 0.10050
 C696 C 0.00502 0.78381 0.09014
 C697 C -0.02061 0.78846 0.10222
 C698 C 0.02141 0.74226 0.14905
 C699 C 0.03419 0.74453 0.15938
 C700 C 0.03876 0.77017 0.14731
 C701 C 0.02589 0.76742 0.13720
 N702 N 0.01763 0.75355 0.13812
 H703 H -0.02686 0.77225 0.12086
 H704 H 0.01808 0.76410 0.09986
 H705 H 0.01411 0.78675 0.08151
 H706 H -0.03164 0.79504 0.10305
 H707 H 0.01447 0.73146 0.14971
 H708 H 0.03718 0.73545 0.16800
 H709 H 0.04531 0.78121 0.14648
 H710 H 0.02248 0.77643 0.12873
 C711 C -0.04301 0.74088 0.15867
 C712 C 0.00874 0.70664 0.09109
 C713 C 0.04296 0.75860 0.15846
 C714 C -0.00904 0.79261 0.09105
 C715 C 0.49267 0.22837 0.60116
 H716 H 0.48187 0.23533 0.60053
 C717 C 0.49491 0.21560 0.59081
 H718 H 0.48581 0.21265 0.58220
 C719 C 0.51784 0.22383 0.61297
 H720 H 0.52686 0.22721 0.62144
 C721 C 0.52057 0.21097 0.60284
 H722 H 0.53161 0.20440 0.60364
 N723 N 0.50398 0.23211 0.61208
 C724 C 0.47866 0.25731 0.64966
 H725 H 0.48562 0.26810 0.65028
 C726 C 0.46589 0.25509 0.66001
 H727 H 0.46293 0.26420 0.66861
 C728 C 0.47412 0.23212 0.63788
 H729 H 0.47751 0.22309 0.62943
 C730 C 0.46126 0.22943 0.64802
 H731 H 0.45469 0.21839 0.64722
 Zn732 Zn 0.50011 0.24982 0.62541
 N733 N 0.48241 0.24598 0.63875
 C734 C 0.48239 0.27579 0.61291
 N735 N 0.49625 0.26750 0.61204
 C736 C 0.50758 0.27121 0.60112
 C737 C 0.50534 0.28396 0.59074
 C738 C 0.47968 0.28863 0.60274
 C739 C 0.52153 0.24238 0.64970
 C740 C 0.53430 0.24461 0.66005
 C741 C 0.53894 0.27025 0.64800
 C742 C 0.52609 0.26754 0.63786
 N743 N 0.51780 0.25369 0.63876
 H744 H 0.47337 0.27243 0.62137
 H745 H 0.51837 0.26425 0.60051
 H746 H 0.51445 0.28689 0.58213
 H747 H 0.46864 0.29520 0.60352
 H748 H 0.51458 0.23159 0.65033
 H749 H 0.53725 0.23551 0.66866
 H750 H 0.54552 0.28128 0.64719
 H751 H 0.52271 0.27655 0.62939
 C752 C 0.45709 0.24103 0.65914
 C753 C 0.50898 0.20681 0.59169
 C754 C 0.54311 0.25866 0.65915
 C755 C 0.49128 0.29276 0.59159
 C756 C 0.50730 0.72828 0.89937
 H757 H 0.51808 0.73524 0.89998
 C758 C 0.50507 0.71552 0.90972
 H759 H 0.51418 0.71257 0.91833
 C760 C 0.48212 0.72372 0.88757
 H761 H 0.47309 0.72710 0.87910
 C762 C 0.47942 0.71087 0.89771
 H763 H 0.46839 0.70429 0.89691
 N764 N 0.49597 0.73202 0.88845
 C765 C 0.52120 0.75717 0.85080
 H766 H 0.51423 0.76796 0.85019
 C767 C 0.53395 0.75494 0.84042
 H768 H 0.53688 0.76405 0.83182
 C769 C 0.52579 0.73200 0.86260
 H770 H 0.52243 0.72298 0.87107
 C771 C 0.53863 0.72929 0.85244
 H772 H 0.54522 0.71826 0.85323
 Zn773 Zn 0.49982 0.74971 0.87511
 N774 N 0.51749 0.74585 0.86173
 C775 C 0.51756 0.77568 0.88755
 N776 N 0.50370 0.76739 0.88846
 C777 C 0.49240 0.77113 0.89941
 C778 C 0.49466 0.78389 0.90976
 C779 C 0.52029 0.78852 0.89770
 C780 C 0.47835 0.74230 0.85085
 C781 C 0.46558 0.74457 0.84050
 C782 C 0.46096 0.77021 0.85256
 C783 C 0.47382 0.76746 0.86270
 N784 N 0.48210 0.75360 0.86179
 H785 H 0.52656 0.77230 0.87907
 H786 H 0.48161 0.76418 0.90004
 H787 H 0.48557 0.78684 0.91839
 H788 H 0.53132 0.79509 0.89688
 H789 H 0.48531 0.73151 0.85021
 H790 H 0.46263 0.73548 0.83189
 H791 H 0.45440 0.78125 0.85338
 H792 H 0.47721 0.77647 0.87117
 C793 C 0.54276 0.74089 0.84129
 C794 C 0.49102 0.70672 0.90885
 C795 C 0.45679 0.75863 0.84141
 C796 C 0.50871 0.79268 0.90886
 C797 C 0.16969 0.21647 0.23968
 C798 C 0.15864 0.21867 0.24852
 C799 C 0.14544 0.22129 0.25907
 C800 C 0.14304 0.21121 0.27206
 C801 C 0.13021 0.21373 0.28232
 C802 C 0.11962 0.22640 0.27970
 C803 C 0.12215 0.23647 0.26660
 C804 C 0.13497 0.23392 0.25636
 C805 C 0.10599 0.22908 0.29058
 C806 C 0.10168 0.24458 0.29515
 C807 C 0.08885 0.24709 0.30541
 C808 C 0.08016 0.23417 0.31122
 C809 C 0.08434 0.21872 0.30674
 C810 C 0.09717 0.21618 0.29650
 C811 C 0.06697 0.23677 0.32178
 C812 C 0.05592 0.23894 0.33063
 H813 H 0.15110 0.20142 0.27430
 H814 H 0.12871 0.20590 0.29241
 H815 H 0.11409 0.24619 0.26415
 H816 H 0.13670 0.24177 0.24631
 H817 H 0.10836 0.25474 0.29097
 H818 H 0.08575 0.25910 0.30884
 H819 H 0.07766 0.20864 0.31113
 H820 H 0.10005 0.20413 0.29303
 C821 C 0.66979 0.71633 0.73975
 C822 C 0.65873 0.71849 0.74859
 C823 C 0.64553 0.72105 0.75914
 C824 C 0.64452 0.71261 0.77343
 C825 C 0.63169 0.71508 0.78368
 C826 C 0.61969 0.72604 0.77978
 C827 C 0.62082 0.73448 0.76539
 C828 C 0.63365 0.73198 0.75514
 C829 C 0.60605 0.72867 0.79067
 C830 C 0.60011 0.74408 0.79330
 C831 C 0.58728 0.74654 0.80355
 C832 C 0.58021 0.73365 0.81131
 C833 C 0.58601 0.71828 0.80877
 C834 C 0.59885 0.71580 0.79853
 C835 C 0.56701 0.73620 0.82187
 C836 C 0.55595 0.73833 0.83072
 H837 H 0.65367 0.70415 0.77666
 H838 H 0.63127 0.70856 0.79476
 H839 H 0.61167 0.74284 0.76195
 H840 H 0.63430 0.73855 0.74409
 H841 H 0.60552 0.75425 0.78759
 H842 H 0.58291 0.75849 0.80547
 H843 H 0.58059 0.70822 0.81468
 H844 H 0.60301 0.70378 0.79659
 C845 C 0.32985 0.78384 0.73993
 C846 C 0.34090 0.78164 0.74877
 C847 C 0.35409 0.77901 0.75932
 C848 C 0.36923 0.77601 0.75314
 C849 C 0.38207 0.77346 0.76337
 C850 C 0.37991 0.77386 0.77994
 C851 C 0.36464 0.77688 0.78604
 C852 C 0.35182 0.77944 0.77578
 C853 C 0.39353 0.77115 0.79083
 C854 C 0.39166 0.76197 0.80467
 C855 C 0.40449 0.75943 0.81491
 C856 C 0.41935 0.76602 0.81146
 C857 C 0.42134 0.77518 0.79773
 C858 C 0.40853 0.77773 0.78747
 C859 C 0.43255 0.76341 0.82201
 C860 C 0.44360 0.76123 0.83085
 H861 H 0.37111 0.77561 0.74041
 H862 H 0.39363 0.77097 0.75831
 H863 H 0.36263 0.77747 0.79873
 H864 H 0.34016 0.78179 0.78069
 H865 H 0.38033 0.75658 0.80748
 H866 H 0.40283 0.75228 0.82548
 H867 H 0.43279 0.78038 0.79497
 H868 H 0.41030 0.78502 0.77702
 C869 C -0.17013 0.28373 0.23946
 C870 C -0.15909 0.28156 0.24832
 C871 C -0.14590 0.27898 0.25889
 C872 C -0.14818 0.27953 0.27535
 C873 C -0.13538 0.27703 0.28563
 C874 C -0.12010 0.27395 0.27957
 C875 C -0.11794 0.27343 0.26299
 C876 C -0.13077 0.27592 0.25274
 C877 C -0.10649 0.27132 0.29048
 C878 C -0.09149 0.27786 0.28708
 C879 C -0.07868 0.27538 0.29736
 C880 C -0.08068 0.26633 0.31116
 C881 C -0.09555 0.25977 0.31465
 C882 C -0.10837 0.26224 0.30439
 C883 C -0.06749 0.26378 0.32173
 C884 C -0.05644 0.26166 0.33059
 H885 H -0.15985 0.28193 0.28023
 H886 H -0.13739 0.27772 0.29832
 H887 H -0.10638 0.27088 0.25797
 H888 H -0.12888 0.27542 0.24001
 H889 H -0.08971 0.28507 0.27657
 H890 H -0.06723 0.28055 0.29457
 H891 H -0.09722 0.25270 0.32528
 H892 H -0.11971 0.25688 0.30723
 C893 C -0.16999 0.71642 0.26027
 C894 C -0.15893 0.71857 0.25143
 C895 C -0.14573 0.72113 0.24088
 C896 C -0.14674 0.71642 0.22497
 C897 C -0.13392 0.71890 0.21470
 C898 C -0.11990 0.72612 0.22023
 C899 C -0.11901 0.73082 0.23625
 C900 C -0.13184 0.72834 0.24650
 C901 C -0.10627 0.72875 0.20933
 C902 C -0.09060 0.72615 0.21454
 C903 C -0.07778 0.72860 0.20427
 C904 C -0.08045 0.73371 0.18867
 C905 C -0.09598 0.73634 0.18338
 C906 C -0.10882 0.73388 0.19362
 C907 C -0.06725 0.73623 0.17811
 C908 C -0.05620 0.73835 0.16925
 H909 H -0.15741 0.71079 0.22051
 H910 H -0.13490 0.71496 0.20249
 H911 H -0.10846 0.73660 0.24081
 H912 H -0.13095 0.73207 0.25878
 H913 H -0.08826 0.72200 0.22650
 H914 H -0.06580 0.72649 0.20848
 H915 H -0.09817 0.74034 0.17134
 H916 H -0.12072 0.73619 0.18932
 C917 C 0.32999 0.21646 0.76056
 C918 C 0.34105 0.21863 0.75173
 C919 C 0.35426 0.22121 0.74118
 C920 C 0.35308 0.21697 0.72515
 C921 C 0.36590 0.21945 0.71490
 C922 C 0.38010 0.22621 0.72056
 C923 C 0.38116 0.23043 0.73670
 C924 C 0.36832 0.22794 0.74694
 C925 C 0.39375 0.22884 0.70968
 C926 C 0.40287 0.24281 0.71072
 C927 C 0.41570 0.24527 0.70047
 C928 C 0.41960 0.23382 0.68907
 C929 C 0.41062 0.21989 0.68794
 C930 C 0.39777 0.21740 0.69817
 C931 C 0.43282 0.23636 0.67853
 C932 C 0.44389 0.23849 0.66970
 H933 H 0.34222 0.21179 0.72057
 H934 H 0.36464 0.21626 0.70250
 H935 H 0.39200 0.23547 0.74147
 H936 H 0.36938 0.23122 0.75934
 H937 H 0.39994 0.25192 0.71931
 H938 H 0.42255 0.25612 0.70141
 H939 H 0.41356 0.21092 0.67918
 H940 H 0.39111 0.20644 0.69721
 C941 C 0.67024 0.28342 0.76048
 C942 C 0.65917 0.28125 0.75165
 C943 C 0.64596 0.27867 0.74111
 C944 C 0.64003 0.26332 0.73879
 C945 C 0.62720 0.26080 0.72856
 C946 C 0.62010 0.27363 0.72052
 C947 C 0.62616 0.28902 0.72294
 C948 C 0.63900 0.29151 0.73317
 C949 C 0.60646 0.27097 0.70966
 C950 C 0.59357 0.28162 0.70943
 C951 C 0.58073 0.27911 0.69920
 C952 C 0.58059 0.26593 0.68906
 C953 C 0.59335 0.25527 0.68919
 C954 C 0.60619 0.25775 0.69942
 C955 C 0.56738 0.26337 0.67853
 C956 C 0.55631 0.26122 0.66970
 H957 H 0.64531 0.25331 0.74492
 H958 H 0.62268 0.24885 0.72711
 H959 H 0.62109 0.29910 0.71676
 H960 H 0.64353 0.30344 0.73484
 H961 H 0.59332 0.29179 0.71731
 H962 H 0.57089 0.28741 0.69923
 H963 H 0.59338 0.24505 0.68136
 H964 H 0.61602 0.24945 0.69917
 C965 C 0.16995 0.78381 0.25985
 C966 C 0.15891 0.78161 0.25099
 C967 C 0.14573 0.77899 0.24044
 C968 C 0.13991 0.76361 0.23805
 C969 C 0.12709 0.76104 0.22781
 C970 C 0.11991 0.77385 0.21981
 C971 C 0.12586 0.78927 0.22230
 C972 C 0.13869 0.79181 0.23254
 C973 C 0.10628 0.77115 0.20894
 C974 C 0.09332 0.78171 0.20876
 C975 C 0.08049 0.77915 0.19854
 C976 C 0.08044 0.76601 0.18835
 C977 C 0.09327 0.75544 0.18843
 C978 C 0.10611 0.75797 0.19866
 C979 C 0.06723 0.76339 0.17782
 C980 C 0.05617 0.76120 0.16900
 H981 H 0.14525 0.75360 0.24414
 H982 H 0.12266 0.74906 0.22630
 H983 H 0.12073 0.79935 0.21617
 H984 H 0.14313 0.80376 0.23427
 H985 H 0.09301 0.79184 0.21668
 H986 H 0.07060 0.78739 0.19860
 H987 H 0.09337 0.74525 0.18056
 H988 H 0.11599 0.74974 0.19836
 C989 C 0.23973 0.16976 0.21624
 C990 C 0.24855 0.15870 0.21844
 C991 C 0.25908 0.14549 0.22106
 C992 C 0.27529 0.14693 0.21765
 C993 C 0.28553 0.13411 0.22020
 C994 C 0.27968 0.11964 0.22620
 C995 C 0.26336 0.11832 0.22959
 C996 C 0.25315 0.13116 0.22704
 C997 C 0.29055 0.10600 0.22890
 C998 C 0.28579 0.09045 0.22504
 C999 C 0.29604 0.07763 0.22758
 C1000 C 0.31115 0.08015 0.23401
 C1001 C 0.31600 0.09557 0.23790
 C1002 C 0.30578 0.10842 0.23537
 C1003 C 0.32169 0.06694 0.23661
 C1004 C 0.33052 0.05588 0.23879
 H1005 H 0.28000 0.15796 0.21298
 H1006 H 0.29799 0.13544 0.21729
 H1007 H 0.25854 0.10742 0.23441
 H1008 H 0.24063 0.12993 0.22976
 H1009 H 0.27423 0.08823 0.21986
 H1010 H 0.29218 0.06574 0.22448
 H1011 H 0.32766 0.09765 0.24293
 H1012 H 0.30971 0.12021 0.23865
 C1013 C 0.73993 0.66977 0.71630
 C1014 C 0.74877 0.65872 0.71848
 C1015 C 0.75932 0.64552 0.72109
 C1016 C 0.75343 0.62998 0.72087
 C1017 C 0.76367 0.61715 0.72339
 C1018 C 0.77996 0.61969 0.72617
 C1019 C 0.78575 0.63537 0.72636
 C1020 C 0.77549 0.64819 0.72384
 C1021 C 0.79084 0.60606 0.72884
 C1022 C 0.80613 0.60593 0.72206
 C1023 C 0.81636 0.59309 0.72457
 C1024 C 0.81147 0.58022 0.73388
 C1025 C 0.79631 0.58024 0.74069
 C1026 C 0.78605 0.59306 0.73819
 C1027 C 0.82201 0.56701 0.73645
 C1028 C 0.83084 0.55594 0.73861
 H1029 H 0.74094 0.62778 0.71870
 H1030 H 0.75888 0.60522 0.72296
 H1031 H 0.79818 0.63773 0.72867
 H1032 H 0.78017 0.66017 0.72409
 H1033 H 0.81009 0.61566 0.71464
 H1034 H 0.82806 0.59318 0.71921
 H1035 H 0.79242 0.57036 0.74796
 H1036 H 0.77445 0.59290 0.74374
 C1037 C 0.73963 0.32988 0.78336
 C1038 C 0.74847 0.34093 0.78120
 C1039 C 0.75902 0.35413 0.77864
 C1040 C 0.76414 0.36331 0.79151
 C1041 C 0.77439 0.37614 0.78904
 C1042 C 0.77968 0.37993 0.77364
 C1043 C 0.77447 0.37061 0.76078
 C1044 C 0.76420 0.35780 0.76327
 C1045 C 0.79057 0.39355 0.77101
 C1046 C 0.80321 0.39234 0.76013
 C1047 C 0.81347 0.40516 0.75767
 C1048 C 0.81124 0.41935 0.76603
 C1049 C 0.79871 0.42068 0.77687
 C1050 C 0.78844 0.40788 0.77936
 C1051 C 0.82181 0.43254 0.76349
 C1052 C 0.83067 0.44358 0.76138
 H1053 H 0.76023 0.36054 0.80346
 H1054 H 0.77835 0.38295 0.79920
 H1055 H 0.77816 0.37335 0.74877
 H1056 H 0.76028 0.35079 0.75322
 H1057 H 0.80529 0.38141 0.75368
 H1058 H 0.82317 0.40398 0.74929
 H1059 H 0.79685 0.43163 0.78337
 H1060 H 0.77871 0.40925 0.78765
 C1061 C 0.23939 -0.17022 0.28355
 C1062 C 0.24823 -0.15916 0.28139
 C1063 C 0.25877 -0.14597 0.27882
 C1064 C 0.26787 -0.14001 0.29139
 C1065 C 0.27812 -0.12719 0.28892
 C1066 C 0.27941 -0.12015 0.27381
 C1067 C 0.27021 -0.12623 0.26125
 C1068 C 0.25996 -0.13905 0.26375
 C1069 C 0.29029 -0.10652 0.27117
 C1070 C 0.29943 -0.10553 0.25720
 C1071 C 0.30969 -0.09270 0.25474
 C1072 C 0.31095 -0.08071 0.26617
 C1073 C 0.30191 -0.08158 0.28010
 C1074 C 0.29165 -0.09439 0.28259
 C1075 C 0.32152 -0.06753 0.26363
 C1076 C 0.33038 -0.05648 0.26151
 H1077 H 0.26708 -0.14531 0.30310
 H1078 H 0.28519 -0.12291 0.29877
 H1079 H 0.27078 -0.12094 0.24953
 H1080 H 0.25293 -0.14354 0.25395
 H1081 H 0.29881 -0.11477 0.24828
 H1082 H 0.31667 -0.09217 0.24393
 H1083 H 0.30276 -0.07233 0.28901
 H1084 H 0.28462 -0.09471 0.29336
 C1085 C 0.26038 -0.17011 0.71634
 C1086 C 0.25156 -0.15904 0.71853
 C1087 C 0.24103 -0.14582 0.72115
 C1088 C 0.22458 -0.14819 0.72149
 C1089 C 0.21435 -0.13536 0.72403
 C1090 C 0.22044 -0.11996 0.72626
 C1091 C 0.23700 -0.11770 0.72589
 C1092 C 0.24722 -0.13055 0.72337
 C1093 C 0.20958 -0.10631 0.72894
 C1094 C 0.21255 -0.09154 0.72170
 C1095 C 0.20231 -0.07870 0.72422
 C1096 C 0.18898 -0.08045 0.73400
 C1097 C 0.18592 -0.09508 0.74126
 C1098 C 0.19614 -0.10794 0.73875
 C1099 C 0.17844 -0.06723 0.73657
 C1100 C 0.16961 -0.05617 0.73872
 H1101 H 0.21967 -0.15996 0.71974
 H1102 H 0.20166 -0.13745 0.72404
 H1103 H 0.24207 -0.10603 0.72778
 H1104 H 0.25994 -0.12859 0.72317
 H1105 H 0.22268 -0.08996 0.71393
 H1106 H 0.20476 -0.06744 0.71851
 H1107 H 0.17566 -0.09655 0.74888
 H1108 H 0.19364 -0.11909 0.74465
 C1109 C 0.76048 0.33019 0.21644
 C1110 C 0.75163 0.34124 0.21860
 C1111 C 0.74108 0.35444 0.22118
 C1112 C 0.72470 0.35257 0.21906
 C1113 C 0.71444 0.36539 0.22156
 C1114 C 0.72044 0.38028 0.22620
 C1115 C 0.73693 0.38204 0.22830
 C1116 C 0.74717 0.36920 0.22581
 C1117 C 0.70955 0.39391 0.22884
 C1118 C 0.71374 0.40925 0.22368
 C1119 C 0.70347 0.42207 0.22615
 C1120 C 0.68891 0.41975 0.23382
 C1121 C 0.68463 0.40455 0.23900
 C1122 C 0.69487 0.39171 0.23653
 C1123 C 0.67835 0.43296 0.23636
 C1124 C 0.66950 0.44402 0.23849
 H1125 H 0.71987 0.34121 0.21544
 H1126 H 0.70183 0.36371 0.21964
 H1127 H 0.74190 0.39329 0.23207
 H1128 H 0.75983 0.37077 0.22753
 H1129 H 0.72485 0.41130 0.21754
 H1130 H 0.70688 0.43379 0.22205
 H1131 H 0.67340 0.40263 0.24499
 H1132 H 0.69140 0.38009 0.24082
 C1133 C 0.76053 0.67008 0.28311
 C1134 C 0.75168 0.65905 0.28093
 C1135 C 0.74111 0.64587 0.27835
 C1136 C 0.72519 0.64692 0.28301
 C1137 C 0.71491 0.63412 0.28052
 C1138 C 0.72044 0.62007 0.27332
 C1139 C 0.73648 0.61914 0.26868
 C1140 C 0.74673 0.63197 0.27117
 C1141 C 0.70954 0.60646 0.27069
 C1142 C 0.71474 0.59079 0.27334
 C1143 C 0.70446 0.57798 0.27087
 C1144 C 0.68888 0.58065 0.26572
 C1145 C 0.68360 0.59619 0.26305
 C1146 C 0.69385 0.60901 0.26552
 C1147 C 0.67832 0.56746 0.26319
 C1148 C 0.66947 0.55641 0.26107
 H1149 H 0.72073 0.65761 0.28862
 H1150 H 0.70270 0.63513 0.28441
 H1151 H 0.74104 0.60858 0.26293
 H1152 H 0.75902 0.63105 0.26747
 H1153 H 0.72667 0.58845 0.27752
 H1154 H 0.70865 0.56600 0.27302
 H1155 H 0.67158 0.59838 0.25901
 H1156 H 0.68957 0.62091 0.26317
 C1157 C 0.26060 0.17001 0.78344
 C1158 C 0.25177 0.15895 0.78128
 C1159 C 0.24123 0.14575 0.77870
 C1160 C 0.24685 0.13188 0.77147
 C1161 C 0.23662 0.11904 0.76898
 C1162 C 0.22060 0.11993 0.77368
 C1163 C 0.21506 0.13394 0.78093
 C1164 C 0.22532 0.14676 0.78342
 C1165 C 0.20972 0.10630 0.77103
 C1166 C 0.19401 0.10885 0.76591
 C1167 C 0.18377 0.09601 0.76343
 C1168 C 0.18908 0.08048 0.76604
 C1169 C 0.20468 0.07782 0.77114
 C1170 C 0.21494 0.09063 0.77361
 C1171 C 0.17853 0.06728 0.76350
 C1172 C 0.16968 0.05623 0.76138
 H1173 H 0.25914 0.13100 0.76773
 H1174 H 0.24119 0.10851 0.76318
 H1175 H 0.20286 0.13491 0.78487
 H1176 H 0.22085 0.15743 0.78907
 H1177 H 0.18970 0.12075 0.76362
 H1178 H 0.17173 0.09820 0.75944
 H1179 H 0.20890 0.06584 0.77324
 H1180 H 0.22689 0.08830 0.77776
 C1181 C 0.21636 0.23989 0.16963
 C1182 C 0.21855 0.24874 0.15859
 C1183 C 0.22114 0.25931 0.14541
 C1184 C 0.22168 0.27574 0.14789
 C1185 C 0.22417 0.28603 0.13509
 C1186 C 0.22616 0.28000 0.11962
 C1187 C 0.22561 0.26346 0.11726
 C1188 C 0.22311 0.25320 0.13008
 C1189 C 0.22879 0.29092 0.10601
 C1190 C 0.23983 0.28709 0.09405
 C1191 C 0.24228 0.29737 0.08124
 C1192 C 0.23374 0.31160 0.08020
 C1193 C 0.22273 0.31552 0.09203
 C1194 C 0.22026 0.30526 0.10485
 C1195 C 0.23626 0.32217 0.06700
 C1196 C 0.23837 0.33103 0.05595
 H1197 H 0.22022 0.28059 0.15972
 H1198 H 0.22474 0.29868 0.13733
 H1199 H 0.22689 0.25847 0.10547
 H1200 H 0.22267 0.24050 0.12802
 H1201 H 0.24672 0.27625 0.09470
 H1202 H 0.25086 0.29425 0.07217
 H1203 H 0.21602 0.32648 0.09131
 H1204 H 0.21154 0.30844 0.11375
 C1205 C 0.71640 0.73984 0.66969
 C1206 C 0.71857 0.74868 0.65864
 C1207 C 0.72116 0.75923 0.64543
 C1208 C 0.72384 0.77541 0.64810
 C1209 C 0.72635 0.78567 0.63529
 C1210 C 0.72619 0.77987 0.61961
 C1211 C 0.72347 0.76357 0.61706
 C1212 C 0.72098 0.75333 0.62989
 C1213 C 0.72883 0.79076 0.60598
 C1214 C 0.71980 0.78922 0.59199
 C1215 C 0.72229 0.79949 0.57918
 C1216 C 0.73382 0.81141 0.58016
 C1217 C 0.74287 0.81304 0.59401
 C1218 C 0.74039 0.80279 0.60684
 C1219 C 0.73637 0.82197 0.56696
 C1220 C 0.73851 0.83083 0.55591
 H1221 H 0.72395 0.78011 0.66009
 H1222 H 0.72820 0.79818 0.63763
 H1223 H 0.72348 0.75871 0.60515
 H1224 H 0.71896 0.74082 0.62770
 H1225 H 0.71067 0.78022 0.59104
 H1226 H 0.71519 0.79816 0.56852
 H1227 H 0.75186 0.82220 0.59488
 H1228 H 0.74767 0.80415 0.61736
 C1229 C 0.78401 0.74012 0.32974
 C1230 C 0.78181 0.74896 0.34079
 C1231 C 0.77919 0.75950 0.35399
 C1232 C 0.78386 0.77542 0.35299
 C1233 C 0.78131 0.78567 0.36581
 C1234 C 0.77405 0.78012 0.37981
 C1235 C 0.76941 0.76409 0.38069
 C1236 C 0.77196 0.75386 0.36785
 C1237 C 0.77135 0.79100 0.39344
 C1238 C 0.77392 0.78578 0.40912
 C1239 C 0.77138 0.79603 0.42194
 C1240 C 0.76622 0.81161 0.41928
 C1241 C 0.76362 0.81691 0.40374
 C1242 C 0.76617 0.80669 0.39090
 C1243 C 0.76361 0.82215 0.43248
 C1244 C 0.76142 0.83098 0.44355
 H1245 H 0.78950 0.77990 0.34233
 H1246 H 0.78520 0.79789 0.36485
 H1247 H 0.76361 0.75951 0.39122
 H1248 H 0.76826 0.74157 0.36873
 H1249 H 0.77810 0.77384 0.41146
 H1250 H 0.77347 0.79182 0.43392
 H1251 H 0.75959 0.82894 0.40155
 H1252 H 0.76389 0.81099 0.37899
 C1253 C 0.28383 0.24025 -0.17011
 C1254 C 0.28160 0.24912 -0.15908
 C1255 C 0.27894 0.25969 -0.14592
 C1256 C 0.26872 0.25524 -0.13359
 C1257 C 0.26613 0.26550 -0.12078
 C1258 C 0.27376 0.28036 -0.12014
 C1259 C 0.28401 0.28472 -0.13261
 C1260 C 0.28657 0.27444 -0.14541
 C1261 C 0.27104 0.29126 -0.10653
 C1262 C 0.28371 0.29992 -0.09993
 C1263 C 0.28115 0.31016 -0.08710
 C1264 C 0.26590 0.31188 -0.08071
 C1265 C 0.25321 0.30333 -0.08719
 C1266 C 0.25575 0.29308 -0.10001
 C1267 C 0.26328 0.32242 -0.06751
 C1268 C 0.26109 0.33125 -0.05645
 H1269 H 0.26279 0.24383 -0.13384
 H1270 H 0.25834 0.26172 -0.11127
 H1271 H 0.28988 0.29615 -0.13257
 H1272 H 0.29447 0.27802 -0.15492
 H1273 H 0.29565 0.29862 -0.10454
 H1274 H 0.29106 0.31669 -0.08215
 H1275 H 0.24135 0.30461 -0.08236
 H1276 H 0.24572 0.28673 -0.10496
 C1277 C 0.71625 0.25979 -0.17005
 C1278 C 0.71845 0.25096 -0.15899
 C1279 C 0.72108 0.24042 -0.14579
 C1280 C 0.73559 0.23245 -0.14425
 C1281 C 0.73816 0.22221 -0.13142
 C1282 C 0.72624 0.21983 -0.11995
 C1283 C 0.71169 0.22791 -0.12161
 C1284 C 0.70914 0.23813 -0.13445
 C1285 C 0.72896 0.20897 -0.10631
 C1286 C 0.72360 0.21304 -0.09100
 C1287 C 0.72616 0.20280 -0.07818
 C1288 C 0.73409 0.18837 -0.08047
 C1289 C 0.73947 0.18421 -0.09564
 C1290 C 0.73693 0.19443 -0.10848
 C1291 C 0.73670 0.17783 -0.06726
 C1292 C 0.73887 0.16900 -0.05620
 H1293 H 0.74493 0.23417 -0.15294
 H1294 H 0.74955 0.21633 -0.13037
 H1295 H 0.70221 0.22617 -0.11309
 H1296 H 0.69785 0.24421 -0.13556
 H1297 H 0.71761 0.22423 -0.08891
 H1298 H 0.72198 0.20616 -0.06647
 H1299 H 0.74559 0.17305 -0.09755
 H1300 H 0.74102 0.19087 -0.12015
 C1301 C 0.21649 0.76038 0.32999
 C1302 C 0.21865 0.75154 0.34105
 C1303 C 0.22123 0.74098 0.35425
 C1304 C 0.20941 0.73019 0.35870
 C1305 C 0.21189 0.71993 0.37153
 C1306 C 0.22625 0.72034 0.38007
 C1307 C 0.23807 0.73124 0.37549
 C1308 C 0.23555 0.74149 0.36266
 C1309 C 0.22890 0.70946 0.39371
 C1310 C 0.24376 0.70213 0.39598
 C1311 C 0.24623 0.69188 0.40881
 C1312 C 0.23391 0.68881 0.41954
 C1313 C 0.21909 0.69604 0.41739
 C1314 C 0.21658 0.70629 0.40456
 C1315 C 0.23646 0.67825 0.43273
 C1316 C 0.23859 0.66940 0.44379
 H1317 H 0.19829 0.72967 0.35224
 H1318 H 0.20265 0.71154 0.37463
 H1319 H 0.24916 0.73199 0.38195
 H1320 H 0.24477 0.74984 0.35934
 H1321 H 0.25341 0.70417 0.38772
 H1322 H 0.25773 0.68631 0.41034
 H1323 H 0.20948 0.69378 0.42565
 H1324 H 0.20508 0.71190 0.40326
 C1325 C 0.28320 0.76046 0.66986
 C1326 C 0.28102 0.75161 0.65882
 C1327 C 0.27843 0.74104 0.64564
 C1328 C 0.28684 0.72673 0.64467
 C1329 C 0.28436 0.71646 0.63186
 C1330 C 0.27341 0.72036 0.61984
 C1331 C 0.26501 0.73478 0.62094
 C1332 C 0.26751 0.74504 0.63376
 C1333 C 0.27077 0.70946 0.60622
 C1334 C 0.25537 0.70686 0.60028
 C1335 C 0.25290 0.69658 0.58747
 C1336 C 0.26578 0.68879 0.58041
 C1337 C 0.28115 0.69130 0.58622
 C1338 C 0.28365 0.70156 0.59904
 C1339 C 0.26323 0.67822 0.56722
 C1340 C 0.26111 0.66936 0.55617
 H1341 H 0.29529 0.72350 0.65382
 H1342 H 0.29086 0.70536 0.63146
 H1343 H 0.25665 0.73822 0.61179
 H1344 H 0.26097 0.75611 0.63438
 H1345 H 0.24520 0.71260 0.60568
 H1346 H 0.24095 0.69469 0.58309
 H1347 H 0.29121 0.68536 0.58082
 H1348 H 0.29566 0.70347 0.60320
 C1349 C 0.78402 0.26009 0.16989
 C1350 C 0.78186 0.25124 0.15884
 C1351 C 0.77928 0.24069 0.14565
 C1352 C 0.78541 0.22524 0.14601
 C1353 C 0.78292 0.21498 0.13319
 C1354 C 0.77424 0.22004 0.11983
 C1355 C 0.76812 0.23560 0.11959
 C1356 C 0.77063 0.24585 0.13242
 C1357 C 0.77157 0.20915 0.10621
 C1358 C 0.75677 0.20870 0.09845
 C1359 C 0.75428 0.19844 0.08564
 C1360 C 0.76653 0.18850 0.08040
 C1361 C 0.78129 0.18885 0.08802
 C1362 C 0.78381 0.19909 0.10084
 C1363 C 0.76395 0.17794 0.06720
 C1364 C 0.76179 0.16909 0.05616
 H1365 H 0.79209 0.22112 0.15622
 H1366 H 0.78760 0.20302 0.13383
 H1367 H 0.76157 0.23992 0.10940
 H1368 H 0.76587 0.25780 0.13200
 H1369 H 0.74705 0.21614 0.10243
 H1370 H 0.74278 0.19823 0.07985
 H1371 H 0.79087 0.18123 0.08403
 H1372 H 0.79540 0.19931 0.10643
 C1373 C 0.46661 0.41971 0.49001
 C1374 C 0.46878 0.40865 0.49884
 C1375 C 0.47135 0.39545 0.50939
 C1376 C 0.46266 0.39426 0.52352
 C1377 C 0.46514 0.38144 0.53377
 C1378 C 0.47636 0.36962 0.53003
 C1379 C 0.48504 0.37093 0.51580
 C1380 C 0.48254 0.38376 0.50556
 C1381 C 0.47901 0.35599 0.54092
 C1382 C 0.49446 0.35029 0.54382
 C1383 C 0.49693 0.33747 0.55408
 C1384 C 0.48402 0.33017 0.56158
 C1385 C 0.46861 0.33574 0.55878
 C1386 C 0.46610 0.34857 0.54853
 C1387 C 0.48658 0.31698 0.57215
 C1388 C 0.48872 0.30594 0.58101
 H1389 H 0.45400 0.40327 0.52662
 H1390 H 0.45843 0.38087 0.54473
 H1391 H 0.49361 0.36193 0.51249
 H1392 H 0.48929 0.38455 0.49463
 H1393 H 0.50465 0.35587 0.53831
 H1394 H 0.50892 0.33327 0.55620
 H1395 H 0.45852 0.33015 0.56449
 H1396 H 0.45406 0.35254 0.54638
 C1397 C -0.03386 0.91981 -0.01018
 C1398 C -0.03171 0.90873 -0.00137
 C1399 C -0.02913 0.89550 0.00915
 C1400 C -0.03911 0.88223 0.00844
 C1401 C -0.03662 0.86937 0.01865
 C1402 C -0.02408 0.86961 0.02971
 C1403 C -0.01411 0.88301 0.03031
 C1404 C -0.01664 0.89586 0.02010
 C1405 C -0.02142 0.85596 0.04056
 C1406 C -0.00592 0.85064 0.04389
 C1407 C -0.00343 0.83779 0.05411
 C1408 C -0.01637 0.83009 0.06114
 C1409 C -0.03183 0.83528 0.05791
 C1410 C -0.03435 0.84812 0.04768
 C1411 C -0.01379 0.81687 0.07167
 C1412 C -0.01162 0.80581 0.08050
 H1413 H -0.04880 0.88181 -0.00003
 H1414 H -0.04437 0.85915 0.01775
 H1415 H -0.00449 0.88365 0.03883
 H1416 H -0.00886 0.90610 0.02077
 H1417 H 0.00426 0.85629 0.03843
 H1418 H 0.00859 0.83383 0.05650
 H1419 H -0.04193 0.82943 0.06332
 H1420 H -0.04641 0.85206 0.04552
 C1421 C 0.03368 0.57960 -0.01033
 C1422 C 0.03149 0.59067 -0.00150
 C1423 C 0.02889 0.60388 0.00903
 C1424 C 0.02627 0.61908 0.00285
 C1425 C 0.02375 0.63193 0.01307
 C1426 C 0.02380 0.62972 0.02965
 C1427 C 0.02643 0.61437 0.03574
 C1428 C 0.02897 0.60155 0.02549
 C1429 C 0.02112 0.64335 0.04052
 C1430 C 0.01164 0.64159 0.05418
 C1431 C 0.00912 0.65443 0.06441
 C1432 C 0.01604 0.66918 0.06114
 C1433 C 0.02549 0.67106 0.04759
 C1434 C 0.02801 0.65824 0.03734
 C1435 C 0.01346 0.68239 0.07169
 C1436 C 0.01131 0.69344 0.08054
 H1437 H 0.02614 0.62100 -0.00988
 H1438 H 0.02155 0.64354 0.00801
 H1439 H 0.02675 0.61233 0.04844
 H1440 H 0.03103 0.58984 0.03041
 H1441 H 0.00600 0.63035 0.05685
 H1442 H 0.00175 0.65287 0.07485
 H1443 H 0.03094 0.68242 0.04498
 H1444 H 0.03553 0.65991 0.02704
 C1445 C 0.53386 0.07992 0.49008
 C1446 C 0.53169 0.09097 0.49893
 C1447 C 0.52910 0.10415 0.50949
 C1448 C 0.54093 0.10862 0.52029
 C1449 C 0.53843 0.12143 0.53056
 C1450 C 0.52405 0.12995 0.53016
 C1451 C 0.51223 0.12536 0.51926
 C1452 C 0.51476 0.11255 0.50900
 C1453 C 0.52137 0.14356 0.54107
 C1454 C 0.50651 0.14580 0.54840
 C1455 C 0.50401 0.15862 0.55866
 C1456 C 0.51631 0.16937 0.56173
 C1457 C 0.53113 0.16725 0.55451
 C1458 C 0.53366 0.15444 0.54425
 C1459 C 0.51372 0.18256 0.57229
 C1460 C 0.51155 0.19361 0.58113
 H1461 H 0.55206 0.10217 0.52080
 H1462 H 0.54767 0.12455 0.53895
 H1463 H 0.50112 0.13180 0.51853
 H1464 H 0.50555 0.10921 0.50065
 H1465 H 0.49689 0.13753 0.54636
 H1466 H 0.49250 0.16012 0.56423
 H1467 H 0.54072 0.17553 0.55677
 H1468 H 0.54517 0.15316 0.53863
 C1469 C -0.03368 0.08054 0.51035
 C1470 C -0.03150 0.09159 0.50151
 C1471 C -0.02892 0.10478 0.49096
 C1472 C -0.03378 0.10384 0.47509
 C1473 C -0.03129 0.11665 0.46482
 C1474 C -0.02389 0.13060 0.47031
 C1475 C -0.01904 0.13142 0.48629
 C1476 C -0.02154 0.11859 0.49653
 C1477 C -0.02124 0.14422 0.45941
 C1478 C -0.02367 0.15990 0.46468
 C1479 C -0.02119 0.17272 0.45441
 C1480 C -0.01625 0.17004 0.43876
 C1481 C -0.01379 0.15449 0.43341
 C1482 C -0.01627 0.14166 0.44366
 C1483 C -0.01370 0.18323 0.42820
 C1484 C -0.01158 0.19428 0.41934
 H1485 H -0.03955 0.09322 0.47066
 H1486 H -0.03533 0.11573 0.45265
 H1487 H -0.01314 0.14191 0.49082
 H1488 H -0.01769 0.11943 0.50879
 H1489 H -0.02769 0.16225 0.47667
 H1490 H -0.02317 0.18470 0.45866
 H1491 H -0.00992 0.15229 0.42133
 H1492 H -0.01410 0.12975 0.43931
 C1493 C 0.46620 0.57983 1.01045
 C1494 C 0.46839 0.59087 1.00160
 C1495 C 0.47100 0.60405 0.99102
 C1496 C 0.45935 0.60827 0.97994
 C1497 C 0.46186 0.62108 0.96967
 C1498 C 0.47608 0.62984 0.97036
 C1499 C 0.48771 0.62549 0.98155
 C1500 C 0.48518 0.61267 0.99180
 C1501 C 0.47875 0.64345 0.95946
 C1502 C 0.48600 0.65746 0.96499
 C1503 C 0.48849 0.67028 0.95472
 C1504 C 0.48378 0.66927 0.93881
 C1505 C 0.47657 0.65539 0.93319
 C1506 C 0.47406 0.64256 0.94343
 C1507 C 0.48633 0.68247 0.92826
 C1508 C 0.48847 0.69353 0.91941
 H1509 H 0.44831 0.60170 0.97927
 H1510 H 0.45259 0.62425 0.96133
 H1511 H 0.49886 0.63186 0.98223
 H1512 H 0.49429 0.60947 1.00031
 H1513 H 0.48956 0.65859 0.97730
 H1514 H 0.49404 0.68098 0.95921
 H1515 H 0.47292 0.65447 0.92088
 H1516 H 0.46864 0.63188 0.93877
 C1517 C 0.53368 0.91967 1.01029
 C1518 C 0.53150 0.90862 1.00145
 C1519 C 0.52889 0.89543 0.99090
 C1520 C 0.54147 0.88934 0.98189
 C1521 C 0.53896 0.87651 0.97166
 C1522 C 0.52380 0.86960 0.97028
 C1523 C 0.51123 0.87582 0.97938
 C1524 C 0.51377 0.88864 0.98962
 C1525 C 0.52112 0.85597 0.95941
 C1526 C 0.50721 0.85507 0.95018
 C1527 C 0.50470 0.84223 0.93994
 C1528 C 0.51605 0.83013 0.93880
 C1529 C 0.52992 0.83090 0.94793
 C1530 C 0.53245 0.84373 0.95816
 C1531 C 0.51346 0.81693 0.92825
 C1532 C 0.51129 0.80587 0.91942
 H1533 H 0.55321 0.89453 0.98276
 H1534 H 0.54883 0.87213 0.96466
 H1535 H 0.49948 0.87063 0.97874
 H1536 H 0.50396 0.89324 0.99657
 H1537 H 0.49837 0.86439 0.95072
 H1538 H 0.49395 0.84177 0.93290
 H1539 H 0.53875 0.82157 0.94716
 H1540 H 0.54318 0.84397 0.96526
 C1541 C 0.03355 0.42029 0.51024
 C1542 C 0.03136 0.40925 0.50138
 C1543 C 0.02874 0.39607 0.49082
 C1544 C 0.01564 0.39606 0.48060
 C1545 C 0.01308 0.38325 0.47033
 C1546 C 0.02364 0.37028 0.47015
 C1547 C 0.03678 0.37042 0.48048
 C1548 C 0.03930 0.38323 0.49074
 C1549 C 0.02095 0.35668 0.45925
 C1550 C 0.03378 0.34950 0.45129
 C1551 C 0.03124 0.33669 0.44103
 C1552 C 0.01586 0.33088 0.43859
 C1553 C 0.00302 0.33793 0.44645
 C1554 C 0.00553 0.35074 0.45671
 C1555 C 0.01327 0.31768 0.42804
 C1556 C 0.01111 0.30663 0.41920
 H1557 H 0.00741 0.40596 0.48053
 H1558 H 0.00298 0.38359 0.46238
 H1559 H 0.04500 0.36053 0.48078
 H1560 H 0.04946 0.38310 0.49864
 H1561 H 0.04576 0.35392 0.45283
 H1562 H 0.04126 0.33134 0.43497
 H1563 H -0.00893 0.33349 0.44468
 H1564 H -0.00456 0.35588 0.46282
 C1565 C 0.42002 0.48984 0.46661
 C1566 C 0.40897 0.49868 0.46879
 C1567 C 0.39577 0.50924 0.47138
 C1568 C 0.39589 0.52451 0.46482
 C1569 C 0.38307 0.53477 0.46732
 C1570 C 0.36993 0.52987 0.47641
 C1571 C 0.36992 0.51448 0.48296
 C1572 C 0.38276 0.50425 0.48045
 C1573 C 0.35628 0.54075 0.47906
 C1574 C 0.34060 0.53499 0.47854
 C1575 C 0.32777 0.54525 0.48101
 C1576 C 0.33043 0.56137 0.48403
 C1577 C 0.34598 0.56722 0.48458
 C1578 C 0.35883 0.55698 0.48211
 C1579 C 0.31721 0.57192 0.48656
 C1580 C 0.30614 0.58076 0.48868
 H1581 H 0.40588 0.52847 0.45774
 H1582 H 0.38334 0.54645 0.46196
 H1583 H 0.36008 0.51044 0.49018
 H1584 H 0.38257 0.49246 0.48562
 H1585 H 0.33824 0.52261 0.47601
 H1586 H 0.31577 0.54061 0.48051
 H1587 H 0.34817 0.57967 0.48696
 H1588 H 0.37076 0.56173 0.48279
 C1589 C 0.92039 -0.01050 -0.03368
 C1590 C 0.90934 -0.00165 -0.03150
 C1591 C 0.89614 0.00891 -0.02890
 C1592 C 0.89613 0.02407 -0.03570
 C1593 C 0.88331 0.03433 -0.03320
 C1594 C 0.87031 0.02954 -0.02384
 C1595 C 0.87045 0.01427 -0.01705
 C1596 C 0.88328 0.00403 -0.01957
 C1597 C 0.85668 0.04043 -0.02118
 C1598 C 0.84943 0.04146 -0.00615
 C1599 C 0.83660 0.05171 -0.00366
 C1600 C 0.83083 0.06105 -0.01614
 C1601 C 0.83795 0.06011 -0.03114
 C1602 C 0.85079 0.04988 -0.03365
 C1603 C 0.81762 0.07160 -0.01357
 C1604 C 0.80656 0.08044 -0.01142
 H1605 H 0.90606 0.02798 -0.04291
 H1606 H 0.88366 0.04608 -0.03842
 H1607 H 0.86053 0.01016 -0.00996
 H1608 H 0.88315 -0.00771 -0.01429
 H1609 H 0.85382 0.03450 0.00374
 H1610 H 0.83121 0.05238 0.00801
 H1611 H 0.83355 0.06726 -0.04090
 H1612 H 0.85597 0.04920 -0.04541
 C1613 C 0.58034 -0.01033 0.03378
 C1614 C 0.59140 -0.00150 0.03160
 C1615 C 0.60460 0.00904 0.02901
 C1616 C 0.60563 0.01780 0.01493
 C1617 C 0.61846 0.02804 0.01240
 C1618 C 0.63044 0.02964 0.02395
 C1619 C 0.62929 0.02077 0.03807
 C1620 C 0.61645 0.01054 0.04057
 C1621 C 0.64407 0.04051 0.02128
 C1622 C 0.64997 0.04996 0.03374
 C1623 C 0.66280 0.06019 0.03122
 C1624 C 0.66991 0.06111 0.01622
 C1625 C 0.66414 0.05177 0.00374
 C1626 C 0.65131 0.04154 0.00624
 C1627 C 0.68312 0.07165 0.01363
 C1628 C 0.69418 0.08047 0.01147
 H1629 H 0.59650 0.01676 0.00592
 H1630 H 0.61890 0.03485 0.00150
 H1631 H 0.63842 0.02159 0.04710
 H1632 H 0.61580 0.00377 0.05150
 H1633 H 0.64453 0.04960 0.04539
 H1634 H 0.66714 0.06741 0.04094
 H1635 H 0.66959 0.05236 -0.00791
 H1636 H 0.64718 0.03427 -0.00354
 C1637 C 0.08011 0.48956 0.53325
 C1638 C 0.09116 0.49840 0.53109
 C1639 C 0.10435 0.50896 0.52851
 C1640 C 0.10422 0.51947 0.51563
 C1641 C 0.11703 0.52973 0.51313
 C1642 C 0.13014 0.52963 0.52350
 C1643 C 0.13015 0.51901 0.53641
 C1644 C 0.11733 0.50875 0.53889
 C1645 C 0.14375 0.54054 0.52086
 C1646 C 0.15112 0.54819 0.53377
 C1647 C 0.16392 0.55847 0.53127
 C1648 C 0.16953 0.56123 0.51587
 C1649 C 0.16229 0.55368 0.50296
 C1650 C 0.14948 0.54341 0.50542
 C1651 C 0.18271 0.57181 0.51332
 C1652 C 0.19375 0.58067 0.51120
 H1653 H 0.09421 0.51976 0.50755
 H1654 H 0.11658 0.53790 0.50320
 H1655 H 0.14015 0.51850 0.54448
 H1656 H 0.11757 0.50063 0.54887
 H1657 H 0.14686 0.54639 0.54577
 H1658 H 0.16942 0.56428 0.54135
 H1659 H 0.16656 0.55571 0.49098
 H1660 H 0.14419 0.53755 0.49526
 C1661 C 0.07953 0.51076 -0.03329
 C1662 C 0.09059 0.50191 -0.03111
 C1663 C 0.10379 0.49136 -0.02853
 C1664 C 0.10188 0.47498 -0.03058
 C1665 C 0.11470 0.46471 -0.02810
 C1666 C 0.12963 0.47071 -0.02354
 C1667 C 0.13141 0.48721 -0.02151
 C1668 C 0.11857 0.49745 -0.02399
 C1669 C 0.14326 0.45982 -0.02093
 C1670 C 0.15858 0.46397 -0.02618
 C1671 C 0.17141 0.45370 -0.02374
 C1672 C 0.16911 0.43916 -0.01601
 C1673 C 0.15393 0.43492 -0.01074
 C1674 C 0.14108 0.44517 -0.01318
 C1675 C 0.18232 0.42860 -0.01351
 C1676 C 0.19338 0.41975 -0.01140
 H1677 H 0.09050 0.47014 -0.03414
 H1678 H 0.11300 0.45210 -0.02996
 H1679 H 0.14268 0.49217 -0.01781
 H1680 H 0.12016 0.51011 -0.02233
 H1681 H 0.16061 0.47506 -0.03237
 H1682 H 0.18310 0.45708 -0.02791
 H1683 H 0.15202 0.42372 -0.00471
 H1684 H 0.12948 0.44173 -0.00882
 C1685 C 0.57981 1.01045 0.46632
 C1686 C 0.59088 1.00161 0.46847
 C1687 C 0.60408 0.99106 0.47105
 C1688 C 0.61653 0.99557 0.48109
 C1689 C 0.62937 0.98534 0.48359
 C1690 C 0.62991 0.97041 0.47608
 C1691 C 0.61733 0.96598 0.46601
 C1692 C 0.60450 0.97625 0.46352
 C1693 C 0.64355 0.95953 0.47872
 C1694 C 0.64107 0.94310 0.48058
 C1695 C 0.65392 0.93286 0.48306
 C1696 C 0.66939 0.93889 0.48371
 C1697 C 0.67198 0.95520 0.48188
 C1698 C 0.65916 0.96546 0.47941
 C1699 C 0.68260 0.92833 0.48626
 C1700 C 0.69366 0.91949 0.48839
 H1701 H 0.61629 1.00700 0.48702
 H1702 H 0.63876 0.98900 0.49157
 H1703 H 0.61750 0.95467 0.45989
 H1704 H 0.59495 0.97265 0.45568
 H1705 H 0.62919 0.93819 0.48032
 H1706 H 0.65177 0.92026 0.48451
 H1707 H 0.68392 0.95998 0.48232
 H1708 H 0.66147 0.97801 0.47781
 C1709 C 0.91973 1.01044 0.53371
 C1710 C 0.90868 1.00161 0.53151
 C1711 C 0.89549 0.99106 0.52890
 C1712 C 0.88159 0.99672 0.52175
 C1713 C 0.86876 0.98649 0.51921
 C1714 C 0.86968 0.97044 0.52379
 C1715 C 0.88372 0.96487 0.53097
 C1716 C 0.89653 0.97513 0.53350
 C1717 C 0.85606 0.95955 0.52111
 C1718 C 0.85862 0.94389 0.51586
 C1719 C 0.84579 0.93366 0.51333
 C1720 C 0.83025 0.93893 0.51603
 C1721 C 0.82758 0.95448 0.52125
 C1722 C 0.84039 0.96474 0.52377
 C1723 C 0.81706 0.92838 0.51344
 C1724 C 0.80601 0.91953 0.51127
 H1725 H 0.88068 1.00903 0.51810
 H1726 H 0.85820 0.99108 0.51348
 H1727 H 0.88472 0.95264 0.53481
 H1728 H 0.90723 0.97064 0.53909
 H1729 H 0.87052 0.93961 0.51351
 H1730 H 0.84798 0.92165 0.50925
 H1731 H 0.81560 0.95867 0.52341
 H1732 H 0.83805 0.97665 0.52801
 C1733 C 0.41961 0.51058 0.03344
 C1734 C 0.40855 0.50176 0.03128
 C1735 C 0.39534 0.49122 0.02870
 C1736 C 0.38113 0.49707 0.02236
 C1737 C 0.36829 0.48684 0.01986
 C1738 C 0.36951 0.47061 0.02366
 C1739 C 0.38386 0.46485 0.03002
 C1740 C 0.39668 0.47510 0.03253
 C1741 C 0.35588 0.45974 0.02100
 C1742 C 0.35834 0.44435 0.01495
 C1743 C 0.34550 0.43412 0.01245
 C1744 C 0.33004 0.43912 0.01597
 C1745 C 0.32746 0.45439 0.02200
 C1746 C 0.34028 0.46464 0.02450
 C1747 C 0.31684 0.42858 0.01340
 C1748 C 0.30578 0.41975 0.01125
 H1749 H 0.37998 0.50952 0.01932
 H1750 H 0.35748 0.49160 0.01475
 H1751 H 0.38510 0.45247 0.03326
 H1752 H 0.40762 0.47046 0.03748
 H1753 H 0.37018 0.44030 0.01194
 H1754 H 0.34763 0.42234 0.00773
 H1755 H 0.31554 0.45837 0.02481
 H1756 H 0.33801 0.47633 0.02937
 C1757 C 0.49014 0.46642 0.42002
 C1758 C 0.49899 0.46862 0.40897
 C1759 C 0.50954 0.47124 0.39578
 C1760 C 0.50852 0.48529 0.38696
 C1761 C 0.51875 0.48785 0.37413
 C1762 C 0.53017 0.47636 0.36995
 C1763 C 0.53110 0.46227 0.37891
 C1764 C 0.52085 0.45974 0.39173
 C1765 C 0.54104 0.47905 0.35632
 C1766 C 0.55714 0.47466 0.35729
 C1767 C 0.56736 0.47719 0.34445
 C1768 C 0.56164 0.48413 0.33047
 C1769 C 0.54564 0.48853 0.32937
 C1770 C 0.53540 0.48602 0.34221
 C1771 C 0.57216 0.48670 0.31725
 C1772 C 0.58098 0.48886 0.30617
 H1773 H 0.49984 0.49429 0.39002
 H1774 H 0.51788 0.49889 0.36760
 H1775 H 0.53961 0.45311 0.37587
 H1776 H 0.52171 0.44880 0.39845
 H1777 H 0.56189 0.46946 0.36806
 H1778 H 0.57973 0.47378 0.34544
 H1779 H 0.54108 0.49387 0.31858
 H1780 H 0.52303 0.48934 0.34101
 C1781 C -0.01010 -0.03338 0.91998
 C1782 C -0.00122 -0.03119 0.90896
 C1783 C 0.00937 -0.02859 0.89580
 C1784 C 0.02042 -0.04027 0.89156
 C1785 C 0.03071 -0.03777 0.87876
 C1786 C 0.03007 -0.02353 0.87003
 C1787 C 0.01892 -0.01186 0.87440
 C1788 C 0.00865 -0.01438 0.88721
 C1789 C 0.04098 -0.02086 0.85642
 C1790 C 0.03548 -0.01356 0.84242
 C1791 C 0.04575 -0.01108 0.82961
 C1792 C 0.06164 -0.01586 0.83061
 C1793 C 0.06724 -0.02312 0.84447
 C1794 C 0.05699 -0.02562 0.85730
 C1795 C 0.07220 -0.01332 0.81740
 C1796 C 0.08105 -0.01120 0.80634
 H1797 H 0.02104 -0.05133 0.89811
 H1798 H 0.03901 -0.04706 0.87557
 H1799 H 0.01828 -0.00069 0.86805
 H1800 H 0.00017 -0.00525 0.89042
 H1801 H 0.02318 -0.00995 0.84130
 H1802 H 0.04129 -0.00549 0.81891
 H1803 H 0.07953 -0.02683 0.84539
 H1804 H 0.06163 -0.03108 0.86798
 C1805 C -0.01021 0.03383 0.58038
 C1806 C -0.00136 0.03163 0.59142
 C1807 C 0.00920 0.02902 0.60461
 C1808 C 0.00465 0.03355 0.61995
 C1809 C 0.01491 0.03103 0.63277
 C1810 C 0.02986 0.02393 0.63041
 C1811 C 0.03431 0.01941 0.61493
 C1812 C 0.02404 0.02195 0.60213
 C1813 C 0.04077 0.02125 0.64402
 C1814 C 0.04962 0.00710 0.64517
 C1815 C 0.05988 0.00460 0.65798
 C1816 C 0.06147 0.01619 0.66980
 C1817 C 0.05273 0.03029 0.66876
 C1818 C 0.04244 0.03282 0.65597
 C1819 C 0.07205 0.01361 0.68297
 C1820 C 0.08093 0.01145 0.69400
 H1821 H -0.00683 0.03899 0.62201
 H1822 H 0.01106 0.03444 0.64456
 H1823 H 0.04582 0.01411 0.61270
 H1824 H 0.02769 0.01844 0.59030
 H1825 H 0.04844 -0.00211 0.63628
 H1826 H 0.06656 -0.00638 0.65869
 H1827 H 0.05390 0.03936 0.67782
 H1828 H 0.03596 0.04391 0.65531
 C1829 C 0.48977 0.53389 0.07999
 C1830 C 0.49861 0.53169 0.09104
 C1831 C 0.50917 0.52907 0.10423
 C1832 C 0.50345 0.52221 0.11825
 C1833 C 0.51369 0.51967 0.13108
 C1834 C 0.52981 0.52397 0.13005
 C1835 C 0.53544 0.53086 0.11589
 C1836 C 0.52517 0.53339 0.10308
 C1837 C 0.54070 0.52128 0.14367
 C1838 C 0.55627 0.51575 0.14114
 C1839 C 0.56651 0.51323 0.15397
 C1840 C 0.56134 0.51622 0.16949
 C1841 C 0.54588 0.52173 0.17214
 C1842 C 0.53561 0.52424 0.15932
 C1843 C 0.57191 0.51366 0.18269
 C1844 C 0.58076 0.51152 0.19374
 H1845 H 0.49108 0.51878 0.11924
 H1846 H 0.50904 0.51415 0.14173
 H1847 H 0.54773 0.53448 0.11480
 H1848 H 0.52971 0.53876 0.09230
 H1849 H 0.56047 0.51316 0.12926
 H1850 H 0.57845 0.50893 0.15180
 H1851 H 0.54177 0.52413 0.18410
 H1852 H 0.52377 0.52870 0.16164
 C1853 C 0.51028 -0.03377 0.08043
 C1854 C 0.50144 -0.03160 0.09149
 C1855 C 0.49089 -0.02904 0.10469
 C1856 C 0.48963 -0.04047 0.11669
 C1857 C 0.47937 -0.03801 0.12952
 C1858 C 0.47023 -0.02404 0.13051
 C1859 C 0.47159 -0.01261 0.11838
 C1860 C 0.48185 -0.01511 0.10556
 C1861 C 0.45932 -0.02141 0.14413
 C1862 C 0.45800 -0.00631 0.15118
 C1863 C 0.44773 -0.00385 0.16400
 C1864 C 0.43863 -0.01643 0.16993
 C1865 C 0.43984 -0.03149 0.16301
 C1866 C 0.45012 -0.03398 0.15019
 C1867 C 0.42806 -0.01388 0.18312
 C1868 C 0.41919 -0.01175 0.19417
 H1869 H 0.49661 -0.05128 0.11615
 H1870 H 0.47874 -0.04693 0.13876
 H1871 H 0.46456 -0.00184 0.11870
 H1872 H 0.48271 -0.00620 0.09631
 H1873 H 0.46507 0.00355 0.14692
 H1874 H 0.44691 0.00784 0.16930
 H1875 H 0.43282 -0.04130 0.16748
 H1876 H 0.45071 -0.04568 0.14489
 C1877 C 1.01013 0.46602 0.57996
 C1878 C 1.00132 0.46818 0.59105
 C1879 C 0.99081 0.47076 0.60428
 C1880 C 0.99345 0.48346 0.61467
 C1881 C 0.98324 0.48599 0.62753
 C1882 C 0.97025 0.47581 0.63017
 C1883 C 0.96770 0.46307 0.61965
 C1884 C 0.97792 0.46058 0.60679
 C1885 C 0.95940 0.47847 0.64383
 C1886 C 0.95364 0.46556 0.65274
 C1887 C 0.94342 0.46808 0.66560
 C1888 C 0.93881 0.48351 0.66970
 C1889 C 0.94447 0.49643 0.66092
 C1890 C 0.95470 0.49395 0.64807
 C1891 C 0.92828 0.48609 0.68292
 C1892 C 0.91944 0.48824 0.69398
 H1893 H 1.00342 0.49139 0.61286
 H1894 H 0.98564 0.49577 0.63553
 H1895 H 0.95769 0.45516 0.62124
 H1896 H 0.97575 0.45074 0.59879
 H1897 H 0.95720 0.45353 0.64991
 H1898 H 0.93914 0.45799 0.67235
 H1899 H 0.94094 0.50843 0.66397
 H1900 H 0.95876 0.50411 0.64132
 C1901 C 1.01011 0.53356 0.92022
 C1902 C 1.00127 0.53136 0.90917
 C1903 C 0.99072 0.52873 0.89598
 C1904 C 0.97645 0.53720 0.89490
 C1905 C 0.96621 0.53467 0.88208
 C1906 C 0.97010 0.52362 0.87015
 C1907 C 0.98448 0.51516 0.87135
 C1908 C 0.99471 0.51772 0.88418
 C1909 C 0.95923 0.52093 0.85652
 C1910 C 0.95659 0.50550 0.85067
 C1911 C 0.94635 0.50298 0.83784
 C1912 C 0.93863 0.51585 0.83067
 C1913 C 0.94118 0.53124 0.83638
 C1914 C 0.95140 0.53378 0.84922
 C1915 C 0.92810 0.51325 0.81746
 C1916 C 0.91927 0.51109 0.80639
 H1917 H 0.97323 0.54572 0.90399
 H1918 H 0.95514 0.54121 0.88160
 H1919 H 0.98791 0.50673 0.86227
 H1920 H 1.00575 0.51113 0.88488
 H1921 H 0.96227 0.49534 0.85616
 H1922 H 0.94442 0.49101 0.83354
 H1923 H 0.93530 0.54129 0.83089
 H1924 H 0.95335 0.54582 0.85331
 C1925 C 0.51024 0.03329 0.42007
 C1926 C 0.50136 0.03111 0.40905
 C1927 C 0.49077 0.02851 0.39588
 C1928 C 0.47930 0.03991 0.39204
 C1929 C 0.46902 0.03741 0.37924
 C1930 C 0.47007 0.02344 0.37011
 C1931 C 0.48164 0.01204 0.37409
 C1932 C 0.49192 0.01457 0.38689
 C1933 C 0.45915 0.02077 0.35651
 C1934 C 0.45260 0.00565 0.35371
 C1935 C 0.44233 0.00315 0.34091
 C1936 C 0.43847 0.01572 0.33072
 C1937 C 0.44492 0.03079 0.33339
 C1938 C 0.45519 0.03332 0.34620
 C1939 C 0.42790 0.01314 0.31754
 C1940 C 0.41904 0.01098 0.30650
 H1941 H 0.47828 0.05072 0.39895
 H1942 H 0.46010 0.04630 0.37661
 H1943 H 0.48289 0.00127 0.36718
 H1944 H 0.50079 0.00569 0.38974
 H1945 H 0.45525 -0.00420 0.36155
 H1946 H 0.43736 -0.00856 0.33897
 H1947 H 0.44205 0.04059 0.32555
 H1948 H 0.46020 0.04504 0.34791
   
