data_POSCAR
  _audit_creation_date              2014-09-24
  _audit_creation_method            'ToBaCCo'
  _symmetry_space_group_name_H-M    'P1'
  _symmetry_Int_Tables_number       1
  _symmetry_cell_setting            triclinic
  loop_
  _symmetry_equiv_pos_as_xyz
 x,y,z
_cell_length_a 44.4557
_cell_length_b 44.4900
_cell_length_c 44.8660
_cell_angle_alpha 89.936000
_cell_angle_beta 89.925000
_cell_angle_gamma 89.930100
loop_
  _atom_site_label
  _atom_site_type_symbol
  _atom_site_fract_x
  _atom_site_fract_y
  _atom_site_fract_z
N1 N 0.38396 0.30079 0.32247
 N2 N 0.38336 0.32158 0.30163
 C3 C 0.40382 0.31469 0.28054
 C4 C 0.41820 0.28850 0.28887
 C5 C 0.40490 0.28009 0.31539
 H6 H 0.40650 0.32644 0.25960
 H7 H 0.40851 0.25925 0.32729
 Cu8 Cu 0.35316 0.35324 0.30164
 Cu9 Cu 0.35413 0.29917 0.35420
 Cu10 Cu 0.29893 0.35421 0.35407
 N11 N 0.32153 0.38348 0.30160
 N12 N 0.30062 0.38402 0.32235
 C13 C 0.27994 0.40495 0.31523
 C14 C 0.28847 0.41831 0.28878
 C15 C 0.31474 0.40398 0.28053
 H16 H 0.25903 0.40854 0.32705
 H17 H 0.32659 0.40670 0.25965
 N18 N 0.30094 0.32216 0.38435
 N19 N 0.32202 0.30122 0.38443
 C20 C 0.31515 0.28051 0.40527
 C21 C 0.28872 0.28896 0.41905
 C22 C 0.28015 0.31525 0.40513
 H23 H 0.32701 0.25953 0.40854
 H24 H 0.25908 0.32699 0.40827
 H25 H 0.32019 0.32028 0.33038
 H26 H 0.34424 0.34445 0.35459
 N27 N 0.38427 0.80077 -0.17877
 N28 N 0.38262 0.82067 -0.20039
 C29 C 0.40311 0.81378 -0.22141
 C30 C 0.41926 0.78899 -0.21197
 C31 C 0.40617 0.78085 -0.18518
 H32 H 0.40506 0.82479 -0.24283
 H33 H 0.41063 0.76056 -0.17262
 Cu34 Cu 0.35212 0.85196 -0.20033
 Cu35 Cu 0.35456 0.79915 -0.14682
 Cu36 Cu 0.29916 0.85422 -0.14694
 N37 N 0.32090 0.88256 -0.20028
 N38 N 0.30080 0.88398 -0.17882
 C39 C 0.28083 0.90582 -0.18525
 C40 C 0.28919 0.91917 -0.21184
 C41 C 0.31416 0.90321 -0.22118
 H42 H 0.26041 0.91012 -0.17282
 H43 H 0.32536 0.90534 -0.24250
 N44 N 0.30131 0.82215 -0.11661
 N45 N 0.32244 0.80125 -0.11651
 C46 C 0.31567 0.78060 -0.09557
 C47 C 0.28927 0.78906 -0.08171
 C48 C 0.28060 0.81527 -0.09574
 H49 H 0.32755 0.75964 -0.09228
 H50 H 0.25950 0.82696 -0.09259
 H51 H 0.31991 0.81962 -0.17021
 H52 H 0.34442 0.84434 -0.14706
 N53 N 0.88365 0.30133 -0.17803
 N54 N 0.88262 0.32175 -0.19924
 C55 C 0.90310 0.31483 -0.22029
 C56 C 0.91798 0.28905 -0.21157
 C57 C 0.90493 0.28090 -0.18483
 H58 H 0.90550 0.32622 -0.24145
 H59 H 0.90890 0.26029 -0.17263
 Cu60 Cu 0.85168 0.35265 -0.19948
 Cu61 Cu 0.85384 0.29968 -0.14621
 Cu62 Cu 0.79849 0.35484 -0.14632
 N63 N 0.82063 0.38341 -0.19941
 N64 N 0.80032 0.38468 -0.17812
 C65 C 0.78024 0.40636 -0.18473
 C66 C 0.78870 0.41974 -0.21127
 C67 C 0.81385 0.40396 -0.22041
 H68 H 0.75966 0.41050 -0.17249
 H69 H 0.82513 0.40611 -0.24167
 N70 N 0.80054 0.32265 -0.11608
 N71 N 0.82169 0.30177 -0.11597
 C72 C 0.81487 0.28104 -0.09512
 C73 C 0.78841 0.28941 -0.08137
 C74 C 0.77976 0.31567 -0.09531
 H75 H 0.82677 0.26009 -0.09185
 H76 H 0.75864 0.32734 -0.09219
 H77 H 0.81922 0.32029 -0.16950
 H78 H 0.84367 0.34487 -0.14623
 N79 N 0.88356 0.80106 0.32224
 N80 N 0.88271 0.82162 0.30119
 C81 C 0.90326 0.81477 0.28018
 C82 C 0.91797 0.78885 0.28878
 C83 C 0.90476 0.78056 0.31539
 H84 H 0.90582 0.82636 0.25914
 H85 H 0.90856 0.75984 0.32745
 Cu86 Cu 0.85232 0.85307 0.30110
 Cu87 Cu 0.85377 0.79950 0.35405
 Cu88 Cu 0.79849 0.85453 0.35388
 N89 N 0.82075 0.88332 0.30103
 N90 N 0.80022 0.88432 0.32211
 C91 C 0.78004 0.90589 0.31543
 C92 C 0.78871 0.91953 0.28909
 C93 C 0.81409 0.90401 0.28012
 H94 H 0.75931 0.90979 0.32748
 H95 H 0.82561 0.90639 0.25901
 N96 N 0.80054 0.82247 0.38418
 N97 N 0.82169 0.80160 0.38432
 C98 C 0.81492 0.78094 0.40524
 C99 C 0.78849 0.78936 0.41904
 C100 C 0.77980 0.81557 0.40501
 H101 H 0.82684 0.76000 0.40855
 H102 H 0.75870 0.82726 0.40812
 H103 H 0.81959 0.82040 0.33038
 H104 H 0.84379 0.84480 0.35419
 N105 N 0.61586 0.69899 0.32273
 N106 N 0.61657 0.67826 0.30189
 C107 C 0.59606 0.68508 0.28084
 C108 C 0.58158 0.71121 0.28921
 C109 C 0.59483 0.71960 0.31571
 H110 H 0.59344 0.67344 0.25987
 H111 H 0.59122 0.74045 0.32756
 Cu112 Cu 0.64755 0.64738 0.30186
 Cu113 Cu 0.64571 0.70080 0.35446
 Cu114 Cu 0.70117 0.64578 0.35430
 N115 N 0.67852 0.61651 0.30183
 N116 N 0.69939 0.61594 0.32256
 C117 C 0.72001 0.59493 0.31552
 C118 C 0.71147 0.58151 0.28915
 C119 C 0.68525 0.59590 0.28086
 H120 H 0.74092 0.59137 0.32728
 H121 H 0.67345 0.59313 0.25998
 N122 N 0.69905 0.67790 0.38451
 N123 N 0.67790 0.69878 0.38462
 C124 C 0.68467 0.71948 0.40544
 C125 C 0.71110 0.71108 0.41921
 C126 C 0.71978 0.68485 0.40526
 H127 H 0.67276 0.74042 0.40870
 H128 H 0.74090 0.67319 0.40837
 H129 H 0.68014 0.68009 0.33108
 H130 H 0.65591 0.65562 0.35483
 N131 N 0.61639 0.19891 -0.17789
 N132 N 0.61724 0.17835 -0.19889
 C133 C 0.59678 0.18527 -0.21994
 C134 C 0.58215 0.21125 -0.21140
 C135 C 0.59530 0.21950 -0.18480
 H136 H 0.59424 0.17369 -0.24096
 H137 H 0.59147 0.24018 -0.17273
 Cu138 Cu 0.64764 0.14687 -0.19894
 Cu139 Cu 0.64612 0.20050 -0.14614
 Cu140 Cu 0.70159 0.14570 -0.14641
 N141 N 0.67926 0.11663 -0.19900
 N142 N 0.69997 0.11590 -0.17813
 C143 C 0.72028 0.09449 -0.18487
 C144 C 0.71149 0.08059 -0.21099
 C145 C 0.68590 0.09584 -0.21980
 H146 H 0.74107 0.09073 -0.17292
 H147 H 0.67422 0.09324 -0.24078
 N148 N 0.69944 0.17773 -0.11612
 N149 N 0.67818 0.19848 -0.11592
 C150 C 0.68483 0.21912 -0.09499
 C151 C 0.71130 0.21082 -0.08125
 C152 C 0.72014 0.18469 -0.09533
 H153 H 0.67280 0.23998 -0.09165
 H154 H 0.74131 0.17312 -0.09226
 H155 H 0.68033 0.17973 -0.16995
 H156 H 0.65629 0.15525 -0.14593
 N157 N 0.11594 0.69920 -0.17773
 N158 N 0.11668 0.67846 -0.19859
 C159 C 0.09625 0.68531 -0.21969
 C160 C 0.08173 0.71143 -0.21133
 C161 C 0.09492 0.71980 -0.18478
 H162 H 0.09369 0.67363 -0.24066
 H163 H 0.09123 0.74061 -0.17287
 Cu164 Cu 0.14730 0.64725 -0.19793
 Cu165 Cu 0.14581 0.70102 -0.14591
 Cu166 Cu 0.20111 0.64571 -0.14592
 N167 N 0.17857 0.61672 -0.19866
 N168 N 0.19931 0.61593 -0.17778
 C169 C 0.21993 0.59493 -0.18485
 C170 C 0.21156 0.58181 -0.21144
 C171 C 0.18544 0.59634 -0.21980
 H172 H 0.24073 0.59119 -0.17293
 H173 H 0.17375 0.59381 -0.24077
 N174 N 0.19905 0.67788 -0.11573
 N175 N 0.17804 0.69893 -0.11574
 C176 C 0.18501 0.71971 -0.09505
 C177 C 0.21139 0.71119 -0.08128
 C178 C 0.21985 0.68479 -0.09503
 H179 H 0.17325 0.74076 -0.09188
 H180 H 0.24088 0.67300 -0.09186
 H181 H 0.18009 0.68000 -0.16914
 H182 H 0.15592 0.65588 -0.14504
 N183 N 0.11609 0.19926 0.32244
 N184 N 0.11672 0.17848 0.30163
 C185 C 0.09627 0.18538 0.28057
 C186 C 0.08188 0.21157 0.28887
 C187 C 0.09515 0.21995 0.31537
 H188 H 0.09360 0.17362 0.25967
 H189 H 0.09151 0.24078 0.32724
 Cu190 Cu 0.14690 0.14679 0.30169
 Cu191 Cu 0.14583 0.20083 0.35418
 Cu192 Cu 0.20099 0.14576 0.35416
 N193 N 0.17858 0.11659 0.30168
 N194 N 0.19941 0.11600 0.32245
 C195 C 0.22010 0.09505 0.31538
 C196 C 0.21164 0.08173 0.28893
 C197 C 0.18542 0.09610 0.28065
 H198 H 0.24097 0.09144 0.32721
 H199 H 0.17362 0.09339 0.25977
 N200 N 0.19889 0.17777 0.38442
 N201 N 0.17784 0.19873 0.38445
 C202 C 0.18466 0.21943 0.40526
 C203 C 0.21102 0.21093 0.41909
 C204 C 0.21961 0.18463 0.40521
 H205 H 0.17282 0.24042 0.40847
 H206 H 0.24066 0.17287 0.40838
 H207 H 0.17981 0.17971 0.33041
 H208 H 0.15566 0.15554 0.35464
 N209 N 0.61616 0.30126 0.67773
 N210 N 0.61654 0.32217 0.69841
 C211 C 0.59602 0.31532 0.71946
 C212 C 0.58185 0.28900 0.71126
 C213 C 0.59534 0.28051 0.68487
 H214 H 0.59318 0.32718 0.74030
 H215 H 0.59194 0.25959 0.67311
 Cu216 Cu 0.64655 0.35401 0.69842
 Cu217 Cu 0.64596 0.29964 0.64604
 Cu218 Cu 0.70147 0.35406 0.64647
 N219 N 0.67882 0.38354 0.69874
 N220 N 0.70003 0.38365 0.67829
 C221 C 0.72095 0.40421 0.68559
 C222 C 0.71225 0.41782 0.71184
 C223 C 0.68563 0.40401 0.71978
 H224 H 0.74201 0.40748 0.67395
 H225 H 0.67342 0.40712 0.74042
 N226 N 0.69926 0.32231 0.61602
 N227 N 0.67803 0.30160 0.61581
 C228 C 0.68475 0.28097 0.59486
 C229 C 0.71125 0.28927 0.58113
 C230 C 0.72001 0.31536 0.59522
 H231 H 0.67277 0.26011 0.59151
 H232 H 0.74119 0.32689 0.59219
 H233 H 0.67956 0.32062 0.67026
 H234 H 0.65596 0.34493 0.64557
 N235 N 0.61614 0.80108 1.17804
 N236 N 0.61689 0.82171 1.19899
 C237 C 0.59645 0.81481 1.22009
 C238 C 0.58191 0.78879 1.21165
 C239 C 0.59511 0.78049 1.18505
 H240 H 0.59385 0.82645 1.24108
 H241 H 0.59137 0.75976 1.17305
 Cu242 Cu 0.64719 0.85321 1.19907
 Cu243 Cu 0.64586 0.79950 1.14622
 Cu244 Cu 0.70135 0.85408 1.14648
 N245 N 0.67915 0.88302 1.19924
 N246 N 0.69999 0.88356 1.17842
 C247 C 0.72079 0.90430 1.18555
 C248 C 0.71240 0.91752 1.21210
 C249 C 0.68609 0.90333 1.22036
 H250 H 0.74163 0.90790 1.17363
 H251 H 0.67423 0.90610 1.24124
 N252 N 0.69903 0.82234 1.11599
 N253 N 0.67788 0.80154 1.11588
 C254 C 0.68466 0.78086 1.09500
 C255 C 0.71112 0.78922 1.08121
 C256 C 0.71978 0.81540 1.09519
 H257 H 0.67277 0.75994 1.09175
 H258 H 0.74093 0.82698 1.09212
 H259 H 0.67990 0.82025 1.17006
 H260 H 0.65591 0.84478 1.14602
 N261 N 0.11582 0.30126 1.17751
 N262 N 0.11670 0.32180 1.19856
 C263 C 0.09626 0.31493 1.21965
 C264 C 0.08165 0.28899 1.21115
 C265 C 0.09474 0.28072 1.18448
 H266 H 0.09382 0.32642 1.24073
 H267 H 0.09097 0.26001 1.17248
 Cu268 Cu 0.14753 0.35271 1.19839
 Cu269 Cu 0.14570 0.29944 1.14571
 Cu270 Cu 0.20098 0.35451 1.14570
 N271 N 0.17850 0.38349 1.19850
 N272 N 0.19912 0.38434 1.17747
 C273 C 0.21965 0.40542 1.18439
 C274 C 0.21128 0.41855 1.21099
 C275 C 0.18529 0.40395 1.21952
 H276 H 0.24042 0.40917 1.17239
 H277 H 0.17373 0.40640 1.24059
 N278 N 0.19897 0.32236 1.11552
 N279 N 0.17791 0.30143 1.11550
 C280 C 0.18484 0.28067 1.09476
 C281 C 0.21127 0.28907 1.08097
 C282 C 0.21979 0.31538 1.09480
 H283 H 0.17302 0.25970 1.09156
 H284 H 0.24085 0.32709 1.09161
 H285 H 0.18016 0.32007 1.16901
 H286 H 0.15578 0.34456 1.14546
 N287 N 0.11594 0.80129 0.67768
 N288 N 0.11676 0.82188 0.69867
 C289 C 0.09618 0.81509 0.71968
 C290 C 0.08157 0.78913 0.71119
 C291 C 0.09478 0.78082 0.68460
 H292 H 0.09359 0.82666 0.74072
 H293 H 0.09101 0.76010 0.67259
 Cu294 Cu 0.14790 0.85254 0.69893
 Cu295 Cu 0.14579 0.79943 0.64592
 Cu296 Cu 0.20140 0.85411 0.64613
 N297 N 0.17913 0.88310 0.69896
 N298 N 0.19989 0.88370 0.67807
 C299 C 0.22066 0.90449 0.68512
 C300 C 0.21234 0.91770 0.71168
 C301 C 0.18607 0.90348 0.72004
 H302 H 0.24147 0.90809 0.67314
 H303 H 0.17431 0.90625 0.74096
 N304 N 0.19912 0.82219 0.61578
 N305 N 0.17798 0.80135 0.61572
 C306 C 0.18471 0.78072 0.59478
 C307 C 0.21109 0.78914 0.58090
 C308 C 0.21979 0.81530 0.59489
 H309 H 0.17280 0.75981 0.59151
 H310 H 0.24090 0.82694 0.59172
 H311 H 0.18034 0.81978 0.66935
 H312 H 0.15609 0.84452 0.64589
 N313 N 0.38377 0.69986 0.67802
 N314 N 0.38333 0.67896 0.69878
 C315 C 0.40378 0.68586 0.71982
 C316 C 0.41791 0.71219 0.71156
 C317 C 0.40453 0.72064 0.68512
 H318 H 0.40660 0.67406 0.74072
 H319 H 0.40797 0.74155 0.67329
 Cu320 Cu 0.35277 0.64770 0.69884
 Cu321 Cu 0.35406 0.70143 0.64619
 Cu322 Cu 0.29947 0.64585 0.64586
 N323 N 0.32203 0.61662 0.69846
 N324 N 0.30136 0.61591 0.67753
 C325 C 0.28084 0.59480 0.68445
 C326 C 0.28920 0.58148 0.71097
 C327 C 0.31522 0.59604 0.71945
 H328 H 0.26003 0.59117 0.67254
 H329 H 0.32676 0.59348 0.74051
 N330 N 0.30133 0.67806 0.61571
 N331 N 0.32213 0.69922 0.61584
 C332 C 0.31519 0.71994 0.59502
 C333 C 0.28903 0.71123 0.58100
 C334 C 0.28066 0.68481 0.59480
 H335 H 0.32679 0.74106 0.59192
 H336 H 0.25976 0.67287 0.59150
 H337 H 0.31990 0.68015 0.66957
 H338 H 0.34467 0.65605 0.64586
 N339 N 0.38410 0.19913 1.17753
 N340 N 0.38358 0.17823 1.19826
 C341 C 0.40400 0.18504 1.21935
 C342 C 0.41825 0.21131 1.21113
 C343 C 0.40494 0.21983 1.18467
 H344 H 0.40674 0.17317 1.24021
 H345 H 0.40850 0.24072 1.17284
 Cu346 Cu 0.35357 0.14648 1.19818
 Cu347 Cu 0.35438 0.20078 1.14580
 Cu348 Cu 0.29945 0.14564 1.14571
 N349 N 0.32191 0.11637 1.19819
 N350 N 0.30109 0.11583 1.17742
 C351 C 0.28042 0.09492 1.18452
 C352 C 0.28888 0.08158 1.21099
 C353 C 0.31507 0.09590 1.21926
 H354 H 0.25956 0.09134 1.17267
 H355 H 0.32685 0.09318 1.24017
 N356 N 0.30147 0.17772 1.11548
 N357 N 0.32240 0.19875 1.11552
 C358 C 0.31547 0.21954 1.09478
 C359 C 0.28916 0.21103 1.08090
 C360 C 0.28072 0.18463 1.09470
 H361 H 0.32718 0.24059 1.09165
 H362 H 0.25972 0.17284 1.09150
 H363 H 0.32055 0.17944 1.16955
 H364 H 0.34480 0.15542 1.14524
 N365 N 0.88407 0.69924 1.17771
 N366 N 0.88312 0.67873 1.19880
 C367 C 0.90355 0.68558 1.21985
 C368 C 0.91829 0.71144 1.21124
 C369 C 0.90522 0.71972 1.18458
 H370 H 0.90604 0.67402 1.24092
 H371 H 0.90904 0.74042 1.17251
 Cu372 Cu 0.85270 0.64741 1.19884
 Cu373 Cu 0.85436 0.70087 1.14590
 Cu374 Cu 0.79929 0.64560 1.14592
 N375 N 0.82150 0.61686 1.19884
 N376 N 0.80102 0.61586 1.17776
 C377 C 0.78059 0.59464 1.18468
 C378 C 0.78887 0.58158 1.21136
 C379 C 0.81469 0.59640 1.21993
 H380 H 0.75992 0.59074 1.17263
 H381 H 0.82625 0.59391 1.24098
 N382 N 0.80132 0.67775 1.11568
 N383 N 0.82228 0.69876 1.11567
 C384 C 0.81531 0.71957 1.09495
 C385 C 0.78894 0.71110 1.08119
 C386 C 0.78051 0.68470 1.09498
 H387 H 0.82704 0.74060 1.09177
 H388 H 0.75949 0.67293 1.09182
 H389 H 0.81996 0.67997 1.16921
 H390 H 0.84447 0.65564 1.14566
 N391 N 0.88399 0.19914 0.67768
 N392 N 0.88325 0.17849 0.69868
 C393 C 0.90375 0.18535 0.71966
 C394 C 0.91828 0.21137 0.71113
 C395 C 0.90505 0.21970 0.68457
 H396 H 0.90629 0.17381 0.74073
 H397 H 0.90870 0.24048 0.67257
 Cu398 Cu 0.85226 0.14769 0.69909
 Cu399 Cu 0.85417 0.20085 0.64597
 Cu400 Cu 0.79883 0.14592 0.64627
 N401 N 0.82112 0.11703 0.69913
 N402 N 0.80041 0.11630 0.67823
 C403 C 0.77972 0.09543 0.68536
 C404 C 0.78802 0.08233 0.71200
 C405 C 0.81418 0.09671 0.72031
 H406 H 0.75892 0.09175 0.67343
 H407 H 0.82583 0.09412 0.74129
 N408 N 0.80105 0.17785 0.61584
 N409 N 0.82209 0.19879 0.61576
 C410 C 0.81524 0.21949 0.59490
 C411 C 0.78889 0.21103 0.58110
 C412 C 0.78033 0.18475 0.59503
 H413 H 0.82703 0.24048 0.59165
 H414 H 0.75926 0.17306 0.59191
 H415 H 0.81971 0.18023 0.66946
 H416 H 0.84411 0.15564 0.64597
 N417 N 0.30078 0.38383 0.67764
 N418 N 0.32148 0.38300 0.69855
 C419 C 0.31469 0.40347 0.71963
 C420 C 0.28865 0.41810 0.71120
 C421 C 0.28023 0.40491 0.68467
 H422 H 0.32646 0.40617 0.74053
 H423 H 0.25939 0.40859 0.67281
 Cu424 Cu 0.35276 0.35254 0.69769
 Cu425 Cu 0.29898 0.35409 0.64574
 Cu426 Cu 0.35427 0.29871 0.64585
 N427 N 0.38318 0.32122 0.69865
 N428 N 0.38400 0.30049 0.67778
 C429 C 0.40509 0.27997 0.68484
 C430 C 0.41829 0.28842 0.71136
 C431 C 0.40366 0.31446 0.71975
 H432 H 0.40878 0.25913 0.67301
 H433 H 0.40637 0.32627 0.74062
 N434 N 0.32213 0.30086 0.61560
 N435 N 0.30113 0.32191 0.61555
 C436 C 0.28036 0.31498 0.59484
 C437 C 0.28884 0.28858 0.58110
 C438 C 0.31520 0.28007 0.59492
 H439 H 0.25932 0.32677 0.59165
 H440 H 0.32694 0.25901 0.59182
 H441 H 0.32001 0.31987 0.66899
 H442 H 0.34423 0.34396 0.64484
 N443 N 0.30078 0.88393 0.17727
 N444 N 0.32166 0.88341 0.19799
 C445 C 0.31478 0.90385 0.21906
 C446 C 0.28849 0.91813 0.21084
 C447 C 0.28002 0.90478 0.18441
 H448 H 0.32662 0.90659 0.23992
 H449 H 0.25915 0.90838 0.17256
 Cu450 Cu 0.35349 0.85336 0.19793
 Cu451 Cu 0.29930 0.85428 0.14548
 Cu452 Cu 0.35443 0.79922 0.14548
 N453 N 0.38357 0.82157 0.19798
 N454 N 0.38409 0.80070 0.17726
 C455 C 0.40495 0.77996 0.18440
 C456 C 0.41830 0.78843 0.21083
 C457 C 0.40401 0.81470 0.21905
 H458 H 0.40855 0.75910 0.17255
 H459 H 0.40674 0.82651 0.23993
 N460 N 0.32250 0.80138 0.11514
 N461 N 0.30148 0.82237 0.11514
 C462 C 0.28077 0.81553 0.09434
 C463 C 0.28933 0.78922 0.08046
 C464 C 0.31567 0.78068 0.09432
 H465 H 0.25971 0.82728 0.09119
 H466 H 0.32744 0.75965 0.09116
 H467 H 0.32056 0.82045 0.16930
 H468 H 0.34470 0.84458 0.14497
 N469 N 0.80055 0.38383 0.17729
 N470 N 0.82140 0.38331 0.19804
 C471 C 0.81454 0.40383 0.21903
 C472 C 0.78830 0.41815 0.21074
 C473 C 0.77984 0.40476 0.18433
 H474 H 0.82635 0.40659 0.23990
 H475 H 0.75896 0.40831 0.17250
 Cu476 Cu 0.85317 0.35322 0.19806
 Cu477 Cu 0.79902 0.35408 0.14560
 Cu478 Cu 0.85410 0.29897 0.14573
 N479 N 0.88329 0.32147 0.19817
 N480 N 0.88382 0.30058 0.17747
 C481 C 0.90476 0.27990 0.18458
 C482 C 0.91815 0.28843 0.21097
 C483 C 0.90381 0.31468 0.21919
 H484 H 0.90834 0.25901 0.17279
 H485 H 0.90658 0.32655 0.24002
 N486 N 0.82212 0.30104 0.11544
 N487 N 0.80114 0.32206 0.11536
 C488 C 0.78045 0.31522 0.09453
 C489 C 0.78899 0.28887 0.08072
 C490 C 0.81528 0.28031 0.09466
 H491 H 0.75942 0.32700 0.09132
 H492 H 0.82704 0.25925 0.09155
 H493 H 0.82022 0.32026 0.16948
 H494 H 0.84440 0.34431 0.14514
 N495 N 0.80072 0.88467 0.67753
 N496 N 0.82151 0.88396 0.69836
 C497 C 0.81469 0.90441 0.71943
 C498 C 0.78858 0.91896 0.71107
 C499 C 0.78012 0.90570 0.68457
 H500 H 0.82636 0.90692 0.74040
 H501 H 0.75928 0.90940 0.67270
 Cu502 Cu 0.85267 0.85328 0.69780
 Cu503 Cu 0.79887 0.85481 0.64573
 Cu504 Cu 0.85416 0.79946 0.64577
 N505 N 0.88323 0.82202 0.69848
 N506 N 0.88396 0.80126 0.67763
 C507 C 0.90493 0.78062 0.68471
 C508 C 0.91810 0.78900 0.71126
 C509 C 0.90362 0.81514 0.71960
 H510 H 0.90868 0.75984 0.67277
 H511 H 0.90618 0.82685 0.74055
 N512 N 0.82196 0.80155 0.61558
 N513 N 0.80092 0.82256 0.61558
 C514 C 0.78012 0.81560 0.59490
 C515 C 0.78863 0.78923 0.58112
 C516 C 0.81502 0.78076 0.59490
 H517 H 0.75906 0.82736 0.59174
 H518 H 0.82681 0.75973 0.59175
 H519 H 0.81989 0.82053 0.66897
 H520 H 0.84407 0.84462 0.64487
 N521 N 0.69887 0.61569 0.67765
 N522 N 0.67793 0.61615 0.69837
 C523 C 0.68471 0.59558 0.71937
 C524 C 0.71099 0.58128 0.71112
 C525 C 0.71956 0.59476 0.68473
 H526 H 0.67286 0.59282 0.74026
 H527 H 0.74052 0.59127 0.67296
 Cu528 Cu 0.64627 0.64636 0.69844
 Cu529 Cu 0.70061 0.64562 0.64604
 Cu530 Cu 0.64556 0.70077 0.64618
 N531 N 0.61619 0.67815 0.69859
 N532 N 0.61572 0.69909 0.67789
 C533 C 0.59482 0.71980 0.68504
 C534 C 0.58139 0.71124 0.71145
 C535 C 0.59568 0.68496 0.71966
 H536 H 0.59131 0.74073 0.67326
 H537 H 0.59292 0.67309 0.74053
 N538 N 0.67766 0.69880 0.61593
 N539 N 0.69867 0.67779 0.61589
 C540 C 0.71946 0.68474 0.59513
 C541 C 0.71096 0.71113 0.58133
 C542 C 0.68458 0.71960 0.59519
 H543 H 0.74050 0.67296 0.59192
 H544 H 0.67280 0.74064 0.59204
 H545 H 0.67935 0.67936 0.66991
 H546 H 0.65526 0.65540 0.64552
 N547 N 0.69927 0.11535 0.17743
 N548 N 0.67841 0.11595 0.19822
 C549 C 0.68512 0.09534 0.21920
 C550 C 0.71129 0.08088 0.21087
 C551 C 0.71985 0.09429 0.18444
 H552 H 0.67341 0.09270 0.24017
 H553 H 0.74079 0.09076 0.17266
 Cu554 Cu 0.64748 0.14691 0.19844
 Cu555 Cu 0.70116 0.14530 0.14576
 Cu556 Cu 0.64596 0.20049 0.14574
 N557 N 0.61669 0.17800 0.19834
 N558 N 0.61606 0.19876 0.17746
 C559 C 0.59506 0.21940 0.18447
 C560 C 0.58174 0.21100 0.21099
 C561 C 0.59616 0.18485 0.21938
 H562 H 0.59146 0.24024 0.17256
 H563 H 0.59351 0.17319 0.24037
 N564 N 0.67814 0.19846 0.11553
 N565 N 0.69922 0.17751 0.11559
 C566 C 0.72000 0.18444 0.09480
 C567 C 0.71141 0.21073 0.08089
 C568 C 0.68501 0.21919 0.09471
 H569 H 0.74107 0.17270 0.09164
 H570 H 0.67318 0.24019 0.09147
 H571 H 0.68024 0.17954 0.16918
 H572 H 0.65591 0.15522 0.14544
 N573 N 0.19933 0.61631 0.17731
 N574 N 0.17873 0.61717 0.19837
 C575 C 0.18559 0.59667 0.21940
 C576 C 0.21155 0.58199 0.21084
 C577 C 0.21987 0.59517 0.18422
 H578 H 0.17394 0.59407 0.24041
 H579 H 0.24061 0.59136 0.17217
 Cu580 Cu 0.14711 0.64738 0.19838
 Cu581 Cu 0.20092 0.64604 0.14549
 Cu582 Cu 0.14594 0.70127 0.14561
 N583 N 0.11696 0.67908 0.19843
 N584 N 0.11619 0.69972 0.17744
 C585 C 0.09509 0.72030 0.18439
 C586 C 0.08184 0.71193 0.21097
 C587 C 0.09644 0.68592 0.21946
 H588 H 0.09134 0.74106 0.17239
 H589 H 0.09377 0.67422 0.24042
 N590 N 0.17797 0.69916 0.11527
 N591 N 0.19891 0.67809 0.11520
 C592 C 0.21973 0.68499 0.09445
 C593 C 0.21134 0.71144 0.08070
 C594 C 0.18497 0.71998 0.09456
 H595 H 0.24074 0.67316 0.09124
 H596 H 0.17328 0.74107 0.09146
 H597 H 0.17992 0.68007 0.16916
 H598 H 0.15554 0.65591 0.14528
 N599 N 0.19901 0.11521 0.67781
 N600 N 0.17836 0.11607 0.69882
 C601 C 0.18521 0.09564 0.71992
 C602 C 0.21122 0.08098 0.71142
 C603 C 0.21956 0.09411 0.68478
 H604 H 0.17360 0.09313 0.74097
 H605 H 0.24033 0.09034 0.67278
 Cu606 Cu 0.14731 0.14683 0.69839
 Cu607 Cu 0.20083 0.14503 0.64592
 Cu608 Cu 0.14558 0.20036 0.64596
 N609 N 0.11672 0.17804 0.69897
 N610 N 0.11585 0.19864 0.67793
 C611 C 0.09481 0.21924 0.68492
 C612 C 0.08175 0.21101 0.71161
 C613 C 0.09635 0.18500 0.72013
 H614 H 0.09102 0.23996 0.67286
 H615 H 0.09382 0.17341 0.74119
 N616 N 0.17773 0.19822 0.61568
 N617 N 0.19878 0.17722 0.61569
 C618 C 0.21960 0.18419 0.59496
 C619 C 0.21109 0.21057 0.58115
 C620 C 0.18467 0.21902 0.59494
 H621 H 0.24066 0.17244 0.59179
 H622 H 0.17289 0.24005 0.59178
 H623 H 0.17994 0.17945 0.66913
 H624 H 0.15562 0.15520 0.64540
 N625 N 0.30068 0.61592 0.32227
 N626 N 0.32172 0.61628 0.30166
 C627 C 0.31496 0.59582 0.28061
 C628 C 0.28856 0.58173 0.28872
 C629 C 0.27991 0.59518 0.31507
 H630 H 0.32696 0.59298 0.25982
 H631 H 0.25891 0.59175 0.32678
 Cu632 Cu 0.35357 0.64620 0.30172
 Cu633 Cu 0.29904 0.64564 0.35397
 Cu634 Cu 0.35417 0.70050 0.35404
 N635 N 0.38354 0.67802 0.30163
 N636 N 0.38396 0.69892 0.32231
 C637 C 0.40473 0.71969 0.31510
 C638 C 0.41812 0.71120 0.28866
 C639 C 0.40398 0.68488 0.28051
 H640 H 0.40821 0.74060 0.32688
 H641 H 0.40680 0.67300 0.25968
 N642 N 0.32213 0.69847 0.38432
 N643 N 0.30106 0.67758 0.38426
 C644 C 0.28027 0.68451 0.40502
 C645 C 0.28882 0.71077 0.41892
 C646 C 0.31524 0.71919 0.40512
 H647 H 0.25918 0.67283 0.40814
 H648 H 0.32706 0.74016 0.40833
 H649 H 0.32048 0.67928 0.33014
 H650 H 0.34444 0.65514 0.35462
 N651 N 0.30075 0.11587 0.82236
 N652 N 0.32158 0.11642 0.80154
 C653 C 0.31479 0.09589 0.78057
 C654 C 0.28860 0.08155 0.78896
 C655 C 0.28011 0.09493 0.81539
 H656 H 0.32665 0.09307 0.75970
 H657 H 0.25924 0.09137 0.82728
 Cu658 Cu 0.35337 0.14643 0.80160
 Cu659 Cu 0.29908 0.14559 0.85406
 Cu660 Cu 0.35424 0.20050 0.85409
 N661 N 0.38353 0.17807 0.80159
 N662 N 0.38410 0.19883 0.82241
 C663 C 0.40513 0.21942 0.81542
 C664 C 0.41855 0.21097 0.78897
 C665 C 0.40413 0.18486 0.78060
 H666 H 0.40866 0.24027 0.82726
 H667 H 0.40688 0.17311 0.75969
 N668 N 0.32211 0.19852 0.88430
 N669 N 0.30108 0.17758 0.88429
 C670 C 0.28026 0.18452 0.90503
 C671 C 0.28877 0.21082 0.91886
 C672 C 0.31517 0.21927 0.90505
 H673 H 0.25919 0.17281 0.90816
 H674 H 0.32694 0.24028 0.90822
 H675 H 0.32036 0.17938 0.83031
 H676 H 0.34446 0.15516 0.85456
 N677 N 0.80050 0.61622 0.82238
 N678 N 0.82130 0.61679 0.80152
 C679 C 0.81440 0.59639 0.78047
 C680 C 0.78818 0.58208 0.78884
 C681 C 0.77979 0.59536 0.81535
 H682 H 0.82620 0.59364 0.75955
 H683 H 0.75900 0.59168 0.82735
 Cu684 Cu 0.85312 0.64678 0.80156
 Cu685 Cu 0.79901 0.64585 0.85419
 Cu686 Cu 0.85418 0.70073 0.85417
 N687 N 0.88328 0.67843 0.80152
 N688 N 0.88389 0.69917 0.82236
 C689 C 0.90483 0.71982 0.81530
 C690 C 0.91813 0.71145 0.78878
 C691 C 0.90374 0.68532 0.78043
 H692 H 0.90848 0.74060 0.82724
 H693 H 0.90641 0.67362 0.75948
 N694 N 0.82220 0.69866 0.88452
 N695 N 0.80116 0.67774 0.88453
 C696 C 0.78040 0.68467 0.90533
 C697 C 0.78896 0.71096 0.91919
 C698 C 0.81534 0.71940 0.90532
 H699 H 0.75932 0.67300 0.90848
 H700 H 0.82712 0.74039 0.90846
 H701 H 0.82027 0.67971 0.83040
 H702 H 0.84441 0.65542 0.85456
 N703 N 0.80072 0.11591 0.32227
 N704 N 0.82130 0.11685 0.30119
 C705 C 0.81443 0.09651 0.28007
 C706 C 0.78849 0.08183 0.28864
 C707 C 0.78021 0.09483 0.31533
 H708 H 0.82606 0.09398 0.25903
 H709 H 0.75953 0.09093 0.32745
 Cu710 Cu 0.85248 0.14740 0.30171
 Cu711 Cu 0.79900 0.14555 0.35425
 Cu712 Cu 0.85434 0.20066 0.35428
 N713 N 0.88323 0.17837 0.30131
 N714 N 0.88414 0.19890 0.32237
 C715 C 0.90527 0.21939 0.31541
 C716 C 0.91835 0.21113 0.28873
 C717 C 0.90366 0.18524 0.28019
 H718 H 0.90908 0.24008 0.32745
 H719 H 0.90615 0.17372 0.25912
 N720 N 0.82215 0.19856 0.38454
 N721 N 0.80113 0.17759 0.38454
 C722 C 0.78032 0.18453 0.40529
 C723 C 0.78880 0.21086 0.41910
 C724 C 0.81520 0.21931 0.40529
 H725 H 0.75926 0.17282 0.40845
 H726 H 0.82698 0.24032 0.40847
 H727 H 0.81988 0.17996 0.33107
 H728 H 0.84421 0.15552 0.35472
 N729 N 0.69880 0.38408 0.32231
 N730 N 0.67811 0.38328 0.30139
 C731 C 0.68497 0.40363 0.28021
 C732 C 0.71102 0.41817 0.28859
 C733 C 0.71937 0.40508 0.31523
 H734 H 0.67334 0.40612 0.25920
 H735 H 0.74014 0.40884 0.32718
 Cu736 Cu 0.64699 0.35267 0.30206
 Cu737 Cu 0.70065 0.35430 0.35424
 Cu738 Cu 0.64553 0.29894 0.35420
 N739 N 0.61655 0.32138 0.30133
 N740 N 0.61580 0.30066 0.32226
 C741 C 0.59488 0.28003 0.31520
 C742 C 0.58177 0.28838 0.28858
 C743 C 0.59624 0.31449 0.28017
 H744 H 0.59116 0.25926 0.32719
 H745 H 0.59369 0.32616 0.25917
 N746 N 0.67762 0.30109 0.38449
 N747 N 0.69859 0.32212 0.38449
 C748 C 0.71933 0.31522 0.40528
 C749 C 0.71086 0.28886 0.41911
 C750 C 0.68454 0.28034 0.40528
 H751 H 0.74033 0.32701 0.40847
 H752 H 0.67282 0.25930 0.40848
 H753 H 0.67987 0.32003 0.33101
 H754 H 0.65555 0.34414 0.35498
 N755 N 0.69901 0.88409 0.82235
 N756 N 0.67831 0.88328 0.80144
 C757 C 0.68513 0.90367 0.78029
 C758 C 0.71115 0.91825 0.78870
 C759 C 0.71955 0.90513 0.81530
 H760 H 0.67344 0.90623 0.75931
 H761 H 0.74028 0.90897 0.82729
 Cu762 Cu 0.64714 0.85274 0.80223
 Cu763 Cu 0.70084 0.85441 0.85434
 Cu764 Cu 0.64563 0.79910 0.85444
 N765 N 0.61667 0.82149 0.80156
 N766 N 0.61592 0.80080 0.82251
 C767 C 0.59493 0.78021 0.81554
 C768 C 0.58176 0.78857 0.78896
 C769 C 0.59628 0.81463 0.78046
 H770 H 0.59117 0.75948 0.82757
 H771 H 0.59369 0.82631 0.75947
 N772 N 0.67775 0.80129 0.88469
 N773 N 0.69873 0.82230 0.88464
 C774 C 0.71954 0.81537 0.90535
 C775 C 0.71108 0.78901 0.91919
 C776 C 0.68472 0.78051 0.90543
 H777 H 0.74058 0.82710 0.90845
 H778 H 0.67303 0.75946 0.90861
 H779 H 0.67993 0.82015 0.83128
 H780 H 0.65567 0.84432 0.85522
 N781 N 0.19898 0.38402 0.82235
 N782 N 0.17816 0.38348 0.80157
 C783 C 0.18500 0.40400 0.78053
 C784 C 0.21118 0.41835 0.78884
 C785 C 0.21964 0.40496 0.81529
 H786 H 0.17325 0.40670 0.75961
 H787 H 0.24048 0.40855 0.82716
 Cu788 Cu 0.14650 0.35335 0.80162
 Cu789 Cu 0.20062 0.35421 0.85407
 Cu790 Cu 0.14559 0.29917 0.85410
 N791 N 0.11638 0.32166 0.80160
 N792 N 0.11584 0.30083 0.82240
 C793 C 0.09495 0.28015 0.81536
 C794 C 0.08160 0.28860 0.78890
 C795 C 0.09591 0.31482 0.78057
 H796 H 0.09136 0.25931 0.82727
 H797 H 0.09319 0.32660 0.75965
 N798 N 0.17761 0.30117 0.88433
 N799 N 0.19859 0.32214 0.88432
 C800 C 0.21935 0.31520 0.90508
 C801 C 0.21086 0.28884 0.91893
 C802 C 0.18452 0.28038 0.90509
 H803 H 0.24039 0.32693 0.90823
 H804 H 0.17277 0.25935 0.90825
 H805 H 0.17945 0.32038 0.83029
 H806 H 0.15525 0.34450 0.85456
 N807 N 0.19906 0.88404 0.32236
 N808 N 0.17821 0.88354 0.30161
 C809 C 0.18506 0.90402 0.28055
 C810 C 0.21129 0.91829 0.28880
 C811 C 0.21976 0.90492 0.31526
 H812 H 0.17325 0.90680 0.25967
 H813 H 0.24065 0.90843 0.32707
 Cu814 Cu 0.14646 0.85352 0.30168
 Cu815 Cu 0.20068 0.85422 0.35406
 Cu816 Cu 0.14560 0.79922 0.35405
 N817 N 0.11634 0.82187 0.30166
 N818 N 0.11581 0.80096 0.32239
 C819 C 0.09489 0.78033 0.31529
 C820 C 0.08153 0.78890 0.28887
 C821 C 0.09585 0.81513 0.28063
 H822 H 0.09136 0.75941 0.32708
 H823 H 0.09311 0.82700 0.25977
 N824 N 0.17765 0.80115 0.38425
 N825 N 0.19863 0.82213 0.38427
 C826 C 0.21939 0.81517 0.40503
 C827 C 0.21090 0.78880 0.41883
 C828 C 0.18456 0.78034 0.40499
 H829 H 0.24041 0.82693 0.40821
 H830 H 0.17281 0.75931 0.40813
 H831 H 0.17945 0.82046 0.33025
 H832 H 0.15530 0.84454 0.35460
 C833 C 0.23107 1.06358 0.26935
 C834 C 0.25031 1.07894 0.25001
 C835 C 0.26944 1.06351 0.23059
 C836 C 0.26954 1.03177 0.23033
 C837 C 0.25012 1.01588 0.24990
 C838 C 0.23078 1.03184 0.26951
 C839 C 0.21171 1.01566 0.28869
 C840 C 0.21163 0.98434 0.28866
 C841 C 0.23062 0.96810 0.26944
 C842 C 0.25004 0.98399 0.24986
 C843 C 0.28852 1.01553 0.21110
 C844 C 0.28844 0.98421 0.21105
 C845 C 0.26937 0.96803 0.23024
 C846 C 0.26908 0.93628 0.23042
 C847 C 0.24986 0.92093 0.24977
 C848 C 0.23073 0.93636 0.26919
 H849 H 0.19667 1.02711 0.30392
 H850 H 0.19652 0.97293 0.30384
 H851 H 0.30363 1.02695 0.19590
 H852 H 0.30349 0.97275 0.19583
 H853 H 0.25040 1.10333 0.25005
 H854 H 0.24981 0.89653 0.24974
 C855 C 0.26922 0.43628 0.73069
 C856 C 0.24988 0.42097 0.74997
 C857 C 0.23067 0.43642 0.76926
 C858 C 0.23057 0.46817 0.76945
 C859 C 0.25008 0.48401 0.74993
 C860 C 0.26951 0.46802 0.73046
 C861 C 0.28869 0.48414 0.71134
 C862 C 0.28882 0.51544 0.71131
 C863 C 0.26972 0.53174 0.73037
 C864 C 0.25018 0.51590 0.74988
 C865 C 0.21150 0.48446 0.78855
 C866 C 0.21158 0.51579 0.78848
 C867 C 0.23074 0.53191 0.76933
 C868 C 0.23101 0.56365 0.76906
 C869 C 0.25035 0.57895 0.74975
 C870 C 0.26962 0.56348 0.73052
 H871 H 0.30381 0.47264 0.69622
 H872 H 0.30404 0.52679 0.69619
 H873 H 0.19632 0.47311 0.80372
 H874 H 0.19646 0.52730 0.80358
 H875 H 0.24979 0.39657 0.74997
 H876 H 0.25041 0.60335 0.74969
 C877 C 0.76995 -0.06380 0.27042
 C878 C 0.75106 -0.07941 0.25093
 C879 C 0.73171 -0.06421 0.23156
 C880 C 0.73119 -0.03247 0.23125
 C881 C 0.75033 -0.01632 0.25077
 C882 C 0.76973 -0.03200 0.27053
 C883 C 0.78855 -0.01546 0.28964
 C884 C 0.78839 0.01584 0.28930
 C885 C 0.76937 0.03177 0.26991
 C886 C 0.75013 0.01558 0.25049
 C887 C 0.71209 -0.01650 0.21192
 C888 C 0.71186 0.01482 0.21168
 C889 C 0.73075 0.03126 0.23073
 C890 C 0.73081 0.06301 0.23059
 C891 C 0.74992 0.07864 0.24976
 C892 C 0.76911 0.06350 0.26930
 H893 H 0.80366 -0.02662 0.30500
 H894 H 0.80339 0.02746 0.30438
 H895 H 0.69718 -0.02811 0.19676
 H896 H 0.69676 0.02606 0.19637
 H897 H 0.75127 -0.10382 0.25089
 H898 H 0.74983 0.10304 0.24949
 C899 C 0.76986 0.43644 0.77016
 C900 C 0.75103 0.42087 0.75058
 C901 C 0.73149 0.43609 0.73141
 C902 C 0.73084 0.46783 0.73127
 C903 C 0.75001 0.48396 0.75081
 C904 C 0.76950 0.46825 0.77046
 C905 C 0.78834 0.48476 0.78959
 C906 C 0.78812 0.51606 0.78936
 C907 C 0.76907 0.53203 0.77001
 C908 C 0.74979 0.51587 0.75060
 C909 C 0.71166 0.48385 0.71206
 C910 C 0.71142 0.51517 0.71188
 C911 C 0.73037 0.53159 0.73091
 C912 C 0.73046 0.56334 0.73081
 C913 C 0.74962 0.57894 0.74996
 C914 C 0.76882 0.56377 0.76946
 H915 H 0.80354 0.47357 0.80483
 H916 H 0.80311 0.52767 0.80446
 H917 H 0.69669 0.47226 0.69692
 H918 H 0.69628 0.52645 0.69664
 H919 H 0.75140 0.39647 0.75037
 H920 H 0.74958 0.60334 0.74971
 C921 C 0.26909 0.43647 0.26919
 C922 C 0.24986 0.42113 0.24989
 C923 C 0.23075 0.43658 0.23050
 C924 C 0.23065 0.46832 0.23022
 C925 C 0.25003 0.48419 0.24975
 C926 C 0.26934 0.46821 0.26935
 C927 C 0.28836 0.48436 0.28853
 C928 C 0.28841 0.51568 0.28849
 C929 C 0.26944 0.53194 0.26928
 C930 C 0.25009 0.51607 0.24970
 C931 C 0.21167 0.48458 0.21101
 C932 C 0.21174 0.51590 0.21095
 C933 C 0.23077 0.53205 0.23011
 C934 C 0.23100 0.56379 0.23031
 C935 C 0.25011 0.57912 0.24971
 C936 C 0.26924 0.56368 0.26908
 H937 H 0.30337 0.47288 0.30375
 H938 H 0.30349 0.52708 0.30366
 H939 H 0.19657 0.47320 0.19586
 H940 H 0.19669 0.52737 0.19576
 H941 H 0.24979 0.39674 0.24997
 H942 H 0.25010 0.60352 0.24974
 C943 C 0.76862 1.06414 0.73153
 C944 C 0.74933 1.07941 0.75094
 C945 C 0.73020 1.06385 0.77033
 C946 C 0.73023 1.03204 0.77041
 C947 C 0.74966 1.01631 0.75070
 C948 C 0.76896 1.03240 0.73120
 C949 C 0.78807 1.01638 0.71190
 C950 C 0.78819 0.98506 0.71169
 C951 C 0.76918 0.96867 0.73075
 C952 C 0.74975 0.98440 0.75044
 C953 C 0.71126 1.01555 0.78951
 C954 C 0.71134 0.98425 0.78923
 C955 C 0.73037 0.96827 0.76985
 C956 C 0.73054 0.93654 0.76928
 C957 C 0.74978 0.92134 0.74983
 C958 C 0.76904 0.93692 0.73069
 H959 H 0.80311 1.02796 0.69677
 H960 H 0.80330 0.97377 0.69640
 H961 H 0.69611 1.02676 0.80482
 H962 H 0.69628 0.97264 0.80433
 H963 H 0.74927 1.10382 0.75095
 H964 H 0.74980 0.89694 0.74963
 C965 C 0.73048 0.43625 0.26904
 C966 C 0.74959 0.42086 0.24959
 C967 C 0.76886 0.43625 0.23030
 C968 C 0.76918 0.46800 0.23022
 C969 C 0.74986 0.48391 0.24987
 C970 C 0.73043 0.46798 0.26940
 C971 C 0.71146 0.48417 0.28868
 C972 C 0.71155 0.51548 0.28878
 C973 C 0.73062 0.53170 0.26963
 C974 C 0.74996 0.51579 0.25000
 C975 C 0.78827 0.48421 0.21108
 C976 C 0.78839 0.51553 0.21122
 C977 C 0.76942 0.53172 0.23049
 C978 C 0.76937 0.56346 0.23087
 C979 C 0.75024 0.57884 0.25031
 C980 C 0.73092 0.56344 0.26955
 H981 H 0.69635 0.47273 0.30385
 H982 H 0.69651 0.52691 0.30403
 H983 H 0.80328 0.47278 0.19582
 H984 H 0.80353 0.52697 0.19609
 H985 H 0.74950 0.39646 0.24949
 H986 H 0.75036 0.60323 0.25044
 C987 C 0.27030 -0.06402 0.76974
 C988 C 0.25137 -0.07949 0.75017
 C989 C 0.23180 -0.06417 0.73112
 C990 C 0.23124 -0.03244 0.73105
 C991 C 0.25045 -0.01641 0.75061
 C992 C 0.26995 -0.03221 0.77019
 C993 C 0.28880 -0.01577 0.78935
 C994 C 0.28860 0.01553 0.78923
 C995 C 0.26952 0.03157 0.76997
 C996 C 0.25023 0.01549 0.75052
 C997 C 0.21206 -0.01636 0.71189
 C998 C 0.21184 0.01494 0.71182
 C999 C 0.23077 0.03127 0.73091
 C1000 C 0.23078 0.06301 0.73098
 C1001 C 0.24993 0.07855 0.75018
 C1002 C 0.26922 0.06331 0.76955
 H1003 H 0.30400 -0.02703 0.80456
 H1004 H 0.30360 0.02709 0.80435
 H1005 H 0.19709 -0.02788 0.69671
 H1006 H 0.19671 0.02626 0.69660
 H1007 H 0.25166 -0.10389 0.74988
 H1008 H 0.24981 0.10295 0.75003
 C1009 C 0.26917 0.23043 0.93682
 C1010 C 0.24978 0.24980 0.92158
 C1011 C 0.23047 0.26921 0.93686
 C1012 C 0.23035 0.26944 0.96834
 C1013 C 0.24993 0.24987 0.98411
 C1014 C 0.26943 0.23026 0.96830
 C1015 C 0.28864 0.21105 0.98435
 C1016 C 0.28872 0.21109 1.01540
 C1017 C 0.26961 0.23036 1.03150
 C1018 C 0.25002 0.24993 1.01573
 C1019 C 0.21121 0.28868 0.98444
 C1020 C 0.21130 0.28874 1.01549
 C1021 C 0.23053 0.26955 1.03154
 C1022 C 0.23084 0.26944 1.06301
 C1023 C 0.25024 0.25008 1.07826
 C1024 C 0.26952 0.23063 1.06298
 H1025 H 0.30379 0.19580 0.97299
 H1026 H 0.30392 0.19587 1.02672
 H1027 H 0.19598 0.30388 0.97312
 H1028 H 0.19614 0.30398 1.02684
 H1029 H 0.24975 0.24977 0.89739
 H1030 H 0.25032 0.25014 1.10245
 C1031 C 0.26921 0.73042 0.43684
 C1032 C 0.24983 0.74976 0.42155
 C1033 C 0.23049 0.76919 0.43679
 C1034 C 0.23033 0.76946 0.46827
 C1035 C 0.24990 0.74991 0.48408
 C1036 C 0.26944 0.73030 0.46832
 C1037 C 0.28865 0.71113 0.48442
 C1038 C 0.28867 0.71120 0.51547
 C1039 C 0.26950 0.73044 0.53152
 C1040 C 0.24992 0.74998 0.51571
 C1041 C 0.21116 0.78871 0.48432
 C1042 C 0.21119 0.78879 0.51538
 C1043 C 0.23039 0.76960 0.53147
 C1044 C 0.23062 0.76948 0.56295
 C1045 C 0.25001 0.75015 0.57823
 C1046 C 0.26935 0.73073 0.56300
 H1047 H 0.30384 0.69589 0.47310
 H1048 H 0.30388 0.69602 0.52683
 H1049 H 0.19596 0.80390 0.47297
 H1050 H 0.19602 0.80404 0.52670
 H1051 H 0.24981 0.74971 0.39736
 H1052 H 0.25005 0.75022 0.60243
 C1053 C 0.23103 0.73076 -0.06344
 C1054 C 0.25037 0.75009 -0.07880
 C1055 C 0.26974 0.76945 -0.06363
 C1056 C 0.26997 0.76967 -0.03214
 C1057 C 0.25042 0.75016 -0.01627
 C1058 C 0.23086 0.73060 -0.03197
 C1059 C 0.21168 0.71145 -0.01583
 C1060 C 0.21166 0.71151 0.01522
 C1061 C 0.23084 0.73071 0.03122
 C1062 C 0.25041 0.75021 0.01536
 C1063 C 0.28916 0.78885 -0.01614
 C1064 C 0.28916 0.78889 0.01492
 C1065 C 0.26996 0.76976 0.03108
 C1066 C 0.26973 0.76963 0.06256
 C1067 C 0.25033 0.75035 0.07789
 C1068 C 0.23098 0.73098 0.06270
 H1069 H 0.19649 0.69624 -0.02711
 H1070 H 0.19645 0.69636 0.02661
 H1071 H 0.30436 0.80400 -0.02754
 H1072 H 0.30435 0.80409 0.02620
 H1073 H 0.25033 0.75006 -0.10299
 H1074 H 0.25029 0.75040 0.10208
 C1075 C 0.26915 0.26933 0.43701
 C1076 C 0.24986 0.24995 0.42176
 C1077 C 0.23056 0.23052 0.43704
 C1078 C 0.23037 0.23027 0.46852
 C1079 C 0.24988 0.24983 0.48429
 C1080 C 0.26936 0.26946 0.46849
 C1081 C 0.28848 0.28866 0.48455
 C1082 C 0.28851 0.28858 0.51561
 C1083 C 0.26941 0.26930 0.53169
 C1084 C 0.24990 0.24975 0.51592
 C1085 C 0.21125 0.21101 0.48460
 C1086 C 0.21128 0.21094 0.51566
 C1087 C 0.23043 0.23011 0.53172
 C1088 C 0.23067 0.23021 0.56320
 C1089 C 0.24998 0.24956 0.57845
 C1090 C 0.26926 0.26901 0.56317
 H1091 H 0.30361 0.30392 0.47320
 H1092 H 0.30365 0.30379 0.52693
 H1093 H 0.19609 0.19582 0.47328
 H1094 H 0.19613 0.19569 0.52701
 H1095 H 0.24986 0.24999 0.39757
 H1096 H 0.25000 0.24950 0.60264
 C1097 C 0.73067 0.76954 1.06326
 C1098 C 0.75001 0.75014 1.07853
 C1099 C 0.76933 0.73071 1.06327
 C1100 C 0.76952 0.73048 1.03180
 C1101 C 0.75000 0.75008 1.01600
 C1102 C 0.73048 0.76971 1.03178
 C1103 C 0.71135 0.78895 1.01570
 C1104 C 0.71135 0.78892 0.98465
 C1105 C 0.73050 0.76966 0.96859
 C1106 C 0.75002 0.75006 0.98438
 C1107 C 0.78868 0.71122 1.01574
 C1108 C 0.78869 0.71120 0.98469
 C1109 C 0.76955 0.73043 0.96860
 C1110 C 0.76937 0.73061 0.93712
 C1111 C 0.75003 0.75001 0.92186
 C1112 C 0.73070 0.76942 0.93712
 H1113 H 0.69619 0.80422 1.02702
 H1114 H 0.69620 0.80417 0.97330
 H1115 H 0.80384 0.69599 1.02708
 H1116 H 0.80386 0.69595 0.97336
 H1117 H 0.75003 0.75016 1.10272
 H1118 H 0.75003 0.75000 0.89766
 C1119 C 0.76918 0.23047 0.43703
 C1120 C 0.74981 0.24985 0.42177
 C1121 C 0.73049 0.26927 0.43704
 C1122 C 0.73034 0.26952 0.46851
 C1123 C 0.74987 0.24993 0.48429
 C1124 C 0.76938 0.23030 0.46850
 C1125 C 0.78853 0.21105 0.48457
 C1126 C 0.78854 0.21108 0.51562
 C1127 C 0.76944 0.23038 0.53169
 C1128 C 0.74992 0.24998 0.51591
 C1129 C 0.71122 0.28881 0.48458
 C1130 C 0.71128 0.28888 0.51563
 C1131 C 0.73045 0.26965 0.53170
 C1132 C 0.73073 0.26955 0.56317
 C1133 C 0.75007 0.25015 0.57843
 C1134 C 0.76931 0.23065 0.56316
 H1135 H 0.80367 0.19578 0.47324
 H1136 H 0.80370 0.19583 0.52696
 H1137 H 0.69604 0.30404 0.47324
 H1138 H 0.69615 0.30416 0.52697
 H1139 H 0.74979 0.24983 0.39758
 H1140 H 0.75014 0.25021 0.60262
 C1141 C 0.76895 0.26971 -0.06337
 C1142 C 0.74979 0.25018 -0.07859
 C1143 C 0.73069 0.23057 -0.06330
 C1144 C 0.73052 0.23035 -0.03181
 C1145 C 0.74991 0.25006 -0.01606
 C1146 C 0.76923 0.26982 -0.03189
 C1147 C 0.78829 0.28912 -0.01587
 C1148 C 0.78841 0.28900 0.01519
 C1149 C 0.76946 0.26961 0.03131
 C1150 C 0.75001 0.24997 0.01557
 C1151 C 0.71154 0.21099 -0.01569
 C1152 C 0.71159 0.21095 0.01537
 C1153 C 0.73066 0.23024 0.03140
 C1154 C 0.73094 0.23036 0.06288
 C1155 C 0.75024 0.24976 0.07810
 C1156 C 0.76941 0.26928 0.06279
 H1157 H 0.80330 0.30448 -0.02724
 H1158 H 0.80351 0.30428 0.02649
 H1159 H 0.69647 0.19570 -0.02699
 H1160 H 0.69655 0.19562 0.02675
 H1161 H 0.74976 0.25023 -0.10278
 H1162 H 0.75031 0.24968 0.10229
 C1163 C 0.76899 0.76970 0.43706
 C1164 C 0.74977 0.75024 0.42185
 C1165 C 0.73057 0.73074 0.43714
 C1166 C 0.73037 0.73053 0.46863
 C1167 C 0.74980 0.75019 0.48437
 C1168 C 0.76922 0.76986 0.46854
 C1169 C 0.78831 0.78912 0.48457
 C1170 C 0.78833 0.78909 0.51563
 C1171 C 0.76925 0.76982 0.53175
 C1172 C 0.74980 0.75018 0.51600
 C1173 C 0.71132 0.71123 0.48475
 C1174 C 0.71130 0.71124 0.51581
 C1175 C 0.73036 0.73053 0.53184
 C1176 C 0.73053 0.73074 0.56333
 C1177 C 0.74979 0.75019 0.57854
 C1178 C 0.76906 0.76962 0.56323
 H1179 H 0.80341 0.80439 0.47320
 H1180 H 0.80344 0.80435 0.52693
 H1181 H 0.69623 0.69595 0.47344
 H1182 H 0.69621 0.69596 0.52718
 H1183 H 0.74976 0.75026 0.39765
 H1184 H 0.74979 0.75020 0.60273
 C1185 C 1.06372 0.23102 0.26934
 C1186 C 1.07908 0.25030 0.25003
 C1187 C 1.06361 0.26946 0.23069
 C1188 C 1.03186 0.26955 0.23045
 C1189 C 1.01597 0.25012 0.24999
 C1190 C 1.03195 0.23076 0.26955
 C1191 C 1.01577 0.21169 0.28872
 C1192 C 0.98444 0.21161 0.28870
 C1193 C 0.96818 0.23060 0.26951
 C1194 C 0.98406 0.25003 0.24996
 C1195 C 1.01560 0.28855 0.21126
 C1196 C 0.98426 0.28845 0.21121
 C1197 C 0.96809 0.26936 0.23038
 C1198 C 0.93632 0.26906 0.23055
 C1199 C 0.92097 0.24978 0.24986
 C1200 C 0.93642 0.23066 0.26923
 H1201 H 1.02724 0.19665 0.30393
 H1202 H 0.97303 0.19649 0.30387
 H1203 H 1.02701 0.30368 0.19609
 H1204 H 0.97279 0.30348 0.19600
 H1205 H 1.10349 0.25038 0.25005
 H1206 H 0.89655 0.24968 0.24982
 C1207 C 0.56395 0.23078 0.76921
 C1208 C 0.57927 0.25016 0.74999
 C1209 C 0.56380 0.26949 0.73083
 C1210 C 0.53203 0.26959 0.73066
 C1211 C 0.51617 0.25001 0.75010
 C1212 C 0.53218 0.23053 0.76950
 C1213 C 0.51603 0.21134 0.78859
 C1214 C 0.48469 0.21126 0.78865
 C1215 C 0.46839 0.23037 0.76960
 C1216 C 0.48426 0.24991 0.75013
 C1217 C 0.51574 0.28869 0.71161
 C1218 C 0.48440 0.28855 0.71160
 C1219 C 0.46825 0.26934 0.73068
 C1220 C 0.43649 0.26903 0.73088
 C1221 C 0.42115 0.24968 0.75013
 C1222 C 0.43662 0.23047 0.76941
 H1223 H 0.52754 0.19620 0.80367
 H1224 H 0.47331 0.19606 0.80376
 H1225 H 0.52711 0.30392 0.69652
 H1226 H 0.47290 0.30365 0.69649
 H1227 H 0.60369 0.25019 0.74993
 H1228 H 0.39674 0.24960 0.75010
 C1229 C -0.06382 0.26948 0.76905
 C1230 C -0.07916 0.25024 0.74977
 C1231 C -0.06369 0.23090 0.73062
 C1232 C -0.03193 0.23061 0.73053
 C1233 C -0.01606 0.25006 0.75000
 C1234 C -0.03205 0.26959 0.76937
 C1235 C -0.01588 0.28870 0.78844
 C1236 C 0.01546 0.28861 0.78854
 C1237 C 0.03174 0.26943 0.76955
 C1238 C 0.01585 0.24998 0.75009
 C1239 C -0.01566 0.21142 0.71154
 C1240 C 0.01568 0.21135 0.71163
 C1241 C 0.03183 0.23045 0.73072
 C1242 C 0.06359 0.23054 0.73103
 C1243 C 0.07895 0.24979 0.75027
 C1244 C 0.06351 0.26915 0.76941
 H1245 H -0.02738 0.30391 0.80345
 H1246 H 0.02686 0.30375 0.80365
 H1247 H -0.02706 0.19628 0.69644
 H1248 H 0.02716 0.19615 0.69660
 H1249 H -0.10357 0.25030 0.74969
 H1250 H 0.10337 0.24973 0.75033
 C1251 C 0.56366 0.26894 0.26909
 C1252 C 0.57906 0.24970 0.24978
 C1253 C 0.56365 0.23048 0.23054
 C1254 C 0.53188 0.23031 0.23040
 C1255 C 0.51595 0.24973 0.24992
 C1256 C 0.53189 0.26914 0.26938
 C1257 C 0.51567 0.28823 0.28851
 C1258 C 0.48432 0.28825 0.28856
 C1259 C 0.46810 0.26920 0.26948
 C1260 C 0.48404 0.24977 0.24997
 C1261 C 0.51566 0.21125 0.21132
 C1262 C 0.48432 0.21130 0.21135
 C1263 C 0.46811 0.23039 0.23048
 C1264 C 0.43634 0.23066 0.23070
 C1265 C 0.42093 0.24986 0.25003
 C1266 C 0.43633 0.26904 0.26932
 H1267 H 0.52711 0.30335 0.30360
 H1268 H 0.47288 0.30337 0.30370
 H1269 H 0.52711 0.19612 0.19618
 H1270 H 0.47288 0.19620 0.19624
 H1271 H 0.60347 0.24968 0.24973
 H1272 H 0.39652 0.24989 0.25005
 C1273 C 0.93623 0.76953 0.73078
 C1274 C 0.92084 0.75024 0.75004
 C1275 C 0.93626 0.73093 0.76927
 C1276 C 0.96803 0.73075 0.76948
 C1277 C 0.98394 0.75023 0.75000
 C1278 C 0.96799 0.76970 0.73053
 C1279 C 0.98419 0.78882 0.71141
 C1280 C 1.01553 0.78883 0.71140
 C1281 C 1.03176 0.76973 0.73050
 C1282 C 1.01586 0.75024 0.74998
 C1283 C 0.98427 0.71164 0.78858
 C1284 C 1.01562 0.71163 0.78854
 C1285 C 1.03182 0.73075 0.76942
 C1286 C 1.06359 0.73092 0.76916
 C1287 C 1.07896 0.75025 0.74989
 C1288 C 1.06352 0.76957 0.73069
 H1289 H 0.97274 0.80395 0.69629
 H1290 H 1.02695 0.80398 0.69626
 H1291 H 0.97283 0.69649 0.80372
 H1292 H 1.02708 0.69646 0.80363
 H1293 H 0.89643 0.75023 0.75006
 H1294 H 1.10338 0.75026 0.74982
 C1295 C 0.56357 0.73073 0.26965
 C1296 C 0.57905 0.75007 0.25049
 C1297 C 0.56372 0.76931 0.23112
 C1298 C 0.53195 0.76942 0.23072
 C1299 C 0.51595 0.74993 0.25013
 C1300 C 0.53181 0.73051 0.26970
 C1301 C 0.51553 0.71141 0.28878
 C1302 C 0.48419 0.71137 0.28864
 C1303 C 0.46804 0.73042 0.26942
 C1304 C 0.48403 0.74987 0.24997
 C1305 C 0.51579 0.78848 0.21150
 C1306 C 0.48444 0.78840 0.21132
 C1307 C 0.46816 0.76927 0.23037
 C1308 C 0.43639 0.76899 0.23042
 C1309 C 0.42093 0.74974 0.24967
 C1310 C 0.43628 0.73057 0.26908
 H1311 H 0.52693 0.69634 0.30400
 H1312 H 0.47270 0.69622 0.30373
 H1313 H 0.52729 0.80365 0.19644
 H1314 H 0.47305 0.80350 0.19612
 H1315 H 0.60346 0.75012 0.25063
 H1316 H 0.39652 0.74971 0.24958
 C1317 C 0.06363 0.73134 0.23047
 C1318 C 0.07896 0.75046 0.24986
 C1319 C 0.06348 0.76955 0.26926
 C1320 C 0.03172 0.76972 0.26947
 C1321 C 0.01586 0.75035 0.24992
 C1322 C 0.03186 0.73106 0.23033
 C1323 C 0.01571 0.71199 0.21121
 C1324 C -0.01562 0.71188 0.21128
 C1325 C -0.03191 0.73086 0.23046
 C1326 C -0.01606 0.75027 0.24997
 C1327 C 0.01543 0.78872 0.28863
 C1328 C -0.01591 0.78867 0.28864
 C1329 C -0.03206 0.76961 0.26952
 C1330 C -0.06383 0.76935 0.26933
 C1331 C -0.07916 0.75010 0.25005
 C1332 C -0.06367 0.73095 0.23072
 H1333 H 0.02721 0.69696 0.19602
 H1334 H -0.02700 0.69677 0.19614
 H1335 H 0.02681 0.80382 0.30378
 H1336 H -0.02741 0.80374 0.30380
 H1337 H 0.10337 0.75046 0.24987
 H1338 H -0.10357 0.75002 0.25007
 C1339 C 0.56354 0.76914 0.76959
 C1340 C 0.57884 0.74992 0.75021
 C1341 C 0.56335 0.73066 0.73110
 C1342 C 0.53157 0.73048 0.73112
 C1343 C 0.51573 0.74993 0.75069
 C1344 C 0.53178 0.76930 0.77009
 C1345 C 0.51568 0.78835 0.78934
 C1346 C 0.48435 0.78851 0.78944
 C1347 C 0.46795 0.76963 0.77027
 C1348 C 0.48380 0.75011 0.75076
 C1349 C 0.51526 0.71144 0.71211
 C1350 C 0.48392 0.71164 0.71214
 C1351 C 0.46779 0.73090 0.73118
 C1352 C 0.43603 0.73159 0.73108
 C1353 C 0.42067 0.75123 0.75003
 C1354 C 0.43612 0.77006 0.76970
 H1355 H 0.52722 0.80340 0.80443
 H1356 H 0.47305 0.80374 0.80459
 H1357 H 0.52664 0.69628 0.69696
 H1358 H 0.47242 0.69662 0.69701
 H1359 H 0.60326 0.74994 0.75002
 H1360 H 0.39624 0.75161 0.74963
   
