data_POSCAR
  _audit_creation_date              2014-09-24
  _audit_creation_method            'ToBaCCo'
  _symmetry_space_group_name_H-M    'P1'
  _symmetry_Int_Tables_number       1
  _symmetry_cell_setting            triclinic
  loop_
  _symmetry_equiv_pos_as_xyz
 x,y,z
_cell_length_a 36.6466
_cell_length_b 34.6070
_cell_length_c 29.3768
_cell_angle_alpha 89.583200
_cell_angle_beta 90.001800
_cell_angle_gamma 89.988600
loop_
  _atom_site_label
  _atom_site_type_symbol
  _atom_site_fract_x
  _atom_site_fract_y
  _atom_site_fract_z
C1 C -0.00067 -0.00394 0.14903
 C2 C -0.00042 0.00276 -0.15040
 C3 C -0.08351 -0.06764 0.06692
 C4 C -0.08405 0.06339 0.06906
 C5 C -0.08580 -0.06319 -0.06871
 C6 C 0.08273 -0.06199 -0.07373
 C7 C 0.08463 0.06017 -0.07036
 C8 C 0.08315 -0.06281 0.06978
 C9 C -0.08545 0.06478 -0.06474
 C10 C 0.08460 0.05701 0.07124
 O11 O -0.05250 -0.07113 -0.08006
 O12 O -0.09535 -0.03687 -0.04024
 O13 O -0.05204 0.07364 -0.07528
 O14 O -0.09509 0.03668 -0.03849
 O15 O 0.05142 0.06567 0.08259
 O16 O 0.09364 0.03221 0.04088
 O17 O -0.00099 0.03509 -0.12889
 O18 O -0.00083 -0.03069 -0.13060
 O19 O -0.00063 0.02950 0.12936
 O20 O -0.00071 -0.03634 0.12772
 O21 O 0.04921 -0.06980 -0.08430
 O22 O 0.09237 -0.03681 -0.04392
 O23 O -0.05006 -0.07544 0.07673
 O24 O -0.09409 -0.03985 0.04036
 O25 O 0.04987 -0.07080 0.08059
 O26 O 0.09303 -0.03782 0.03967
 O27 O 0.05125 0.06982 -0.08052
 O28 O 0.09345 0.03340 -0.04197
 O29 O 0.00216 0.10583 0.07202
 O30 O 0.00079 0.10864 -0.06984
 O31 O -0.00116 -0.10741 -0.07425
 O32 O 0.00131 -0.11017 0.06736
 O33 O -0.03217 -0.05152 -0.00139
 O34 O -0.03167 0.04979 0.00087
 O35 O 0.02951 -0.05187 -0.00200
 O36 O -0.03393 -0.00188 0.06097
 O37 O -0.09419 0.03632 0.04172
 O38 O -0.05049 0.07126 0.07923
 O39 O 0.03309 -0.00228 0.06060
 O40 O 0.03243 0.00013 -0.06253
 O41 O 0.03026 0.04928 0.00031
 O42 O -0.03447 0.00063 -0.06104
 Zr43 Zr -0.00022 0.04587 0.05999
 Zr44 Zr -0.00143 -0.04754 -0.06126
 Zr45 Zr -0.06313 -0.00084 0.00045
 Zr46 Zr -0.00065 -0.04972 0.05776
 Zr47 Zr -0.00071 0.04835 -0.05895
 Zr48 Zr 0.06101 -0.00171 -0.00119
 H49 H 0.04393 -0.07604 -0.00228
 H50 H -0.05046 -0.00240 0.08762
 H51 H 0.04511 0.07314 0.00078
 H52 H -0.05106 0.00135 -0.08763
 H53 H 0.00041 0.11816 0.04160
 H54 H 0.00020 0.12010 -0.03909
 H55 H -0.00078 -0.12127 0.03652
 H56 H -0.00248 -0.12002 -0.04395
 C57 C 0.25531 0.24534 0.09959
 C58 C 0.24832 0.24379 0.39882
 C59 C 0.17069 0.31160 0.17825
 C60 C 0.16656 0.18404 0.17983
 C61 C 0.16835 0.31221 0.31322
 C62 C 0.33599 0.30319 0.32353
 C63 C 0.32955 0.17764 0.32542
 C64 C 0.33943 0.30326 0.18182
 C65 C 0.16171 0.18534 0.31254
 C66 C 0.33540 0.17892 0.18185
 O67 O 0.20166 0.31863 0.32565
 O68 O 0.15830 0.28617 0.28479
 O69 O 0.19435 0.17481 0.32441
 O70 O 0.15426 0.21327 0.28513
 O71 O 0.30196 0.17231 0.16977
 O72 O 0.34523 0.20418 0.21163
 O73 O 0.24632 0.21111 0.37823
 O74 O 0.25026 0.27684 0.37842
 O75 O 0.25345 0.21225 0.12006
 O76 O 0.25597 0.27799 0.12039
 O77 O 0.30260 0.31247 0.33265
 O78 O 0.34570 0.27651 0.29541
 O79 O 0.20460 0.31930 0.16908
 O80 O 0.15976 0.28472 0.20525
 O81 O 0.30656 0.31244 0.16985
 O82 O 0.34780 0.27680 0.21138
 O83 O 0.29543 0.17176 0.33385
 O84 O 0.34199 0.20290 0.29652
 O85 O 0.25060 0.13677 0.17805
 O86 O 0.24501 0.13630 0.31976
 O87 O 0.25477 0.35219 0.31980
 O88 O 0.25827 0.35270 0.17847
 O89 O 0.22216 0.29694 0.24805
 O90 O 0.21808 0.19520 0.24776
 O91 O 0.28394 0.29316 0.25054
 O92 O 0.21969 0.24611 0.18678
 O93 O 0.15727 0.21193 0.20609
 O94 O 0.19983 0.17419 0.17043
 O95 O 0.28671 0.24330 0.18954
 O96 O 0.28316 0.24257 0.31223
 O97 O 0.27989 0.19281 0.25079
 O98 O 0.21621 0.24600 0.30906
 Zr99 Zr 0.25128 0.19683 0.18979
 Zr100 Zr 0.25176 0.29211 0.30873
 Zr101 Zr 0.18952 0.24749 0.24670
 Zr102 Zr 0.25449 0.29259 0.18987
 Zr103 Zr 0.24715 0.19655 0.30862
 Zr104 Zr 0.31392 0.24148 0.25230
 H105 H 0.29916 0.31673 0.25106
 H106 H 0.20380 0.24682 0.15953
 H107 H 0.29323 0.16797 0.25149
 H108 H 0.19903 0.24670 0.33505
 H109 H 0.24842 0.12465 0.20854
 H110 H 0.24328 0.12482 0.28908
 H111 H 0.25590 0.36452 0.20889
 H112 H 0.25434 0.36415 0.28911
 C113 C 0.50015 -0.01123 0.14997
 C114 C 0.50471 -0.00536 -0.14774
 C115 C 0.58597 0.05476 0.07250
 C116 C 0.58562 -0.07458 0.07323
 C117 C 0.58828 0.05797 -0.06220
 C118 C 0.41877 0.05085 -0.07110
 C119 C 0.42439 -0.07362 -0.07592
 C120 C 0.41615 0.04890 0.07047
 C121 C 0.59194 -0.06857 -0.06572
 C122 C 0.42058 -0.07667 0.07057
 O123 O 0.55476 0.06543 -0.07384
 O124 O 0.59788 0.03080 -0.03426
 O125 O 0.55888 -0.07707 -0.07783
 O126 O 0.60030 -0.04292 -0.03595
 O127 O 0.45419 -0.08215 0.08140
 O128 O 0.40975 -0.05131 0.04057
 O129 O 0.50599 -0.03887 -0.12828
 O130 O 0.50463 0.02692 -0.12643
 O131 O 0.50080 -0.04381 0.12912
 O132 O 0.50045 0.02198 0.13013
 O133 O 0.45226 0.06065 -0.07999
 O134 O 0.40909 0.02359 -0.04337
 O135 O 0.55206 0.06310 0.08122
 O136 O 0.59666 0.02763 0.04598
 O137 O 0.44926 0.05791 0.08191
 O138 O 0.40748 0.02278 0.04100
 O139 O 0.45842 -0.07947 -0.08463
 O140 O 0.41218 -0.04937 -0.04598
 O141 O 0.50309 -0.11828 0.06873
 O142 O 0.50851 -0.11581 -0.07093
 O143 O 0.50126 0.10015 -0.06577
 O144 O 0.49856 0.09755 0.07326
 O145 O 0.53410 0.04188 0.00335
 O146 O 0.53636 -0.05959 0.00161
 O147 O 0.47131 0.03937 0.00118
 O148 O 0.53571 -0.00953 0.06343
 O149 O 0.59679 -0.04754 0.04563
 O150 O 0.55191 -0.08180 0.08157
 O151 O 0.46836 -0.01118 0.06135
 O152 O 0.47148 -0.00928 -0.06075
 O153 O 0.47424 -0.06087 -0.00102
 O154 O 0.53868 -0.00708 -0.05813
 Zr155 Zr 0.50317 -0.05775 0.05939
 Zr156 Zr 0.50372 0.03968 -0.05672
 Zr157 Zr 0.56637 -0.00841 0.00396
 Zr158 Zr 0.50138 0.03762 0.06113
 Zr159 Zr 0.50683 -0.05580 -0.05898
 Zr160 Zr 0.44058 -0.01218 -0.00077
 H161 H 0.45632 0.06313 0.00105
 H162 H 0.55152 -0.00975 0.09075
 H163 H 0.46076 -0.08563 -0.00178
 H164 H 0.55546 -0.00592 -0.08451
 H165 H 0.50604 -0.12927 0.03797
 H166 H 0.51236 -0.12793 -0.04071
 H167 H 0.49883 0.10992 0.04282
 H168 H 0.50566 0.11113 -0.03527
 C169 C 0.75238 0.25021 0.10525
 C170 C 0.74638 0.24697 0.40313
 C171 C 0.66481 0.31094 0.18418
 C172 C 0.66736 0.18309 0.18361
 C173 C 0.66065 0.30816 0.31952
 C174 C 0.82736 0.31363 0.33151
 C175 C 0.83391 0.18828 0.32846
 C176 C 0.83432 0.31178 0.18622
 C177 C 0.66672 0.17948 0.31882
 C178 C 0.83671 0.19049 0.18563
 O179 O 0.69352 0.31746 0.33127
 O180 O 0.65243 0.28108 0.29150
 O181 O 0.70013 0.17289 0.33035
 O182 O 0.65612 0.20637 0.29108
 O183 O 0.80373 0.18166 0.17367
 O184 O 0.84516 0.21597 0.21594
 O185 O 0.74800 0.21428 0.38267
 O186 O 0.74467 0.28004 0.38296
 O187 O 0.75253 0.21697 0.12532
 O188 O 0.75126 0.28284 0.12590
 O189 O 0.79342 0.31878 0.34067
 O190 O 0.83989 0.28959 0.30145
 O191 O 0.69826 0.32028 0.17475
 O192 O 0.65518 0.28329 0.21135
 O193 O 0.80094 0.31921 0.17412
 O194 O 0.84377 0.28722 0.21711
 O195 O 0.80043 0.17884 0.33722
 O196 O 0.84346 0.21548 0.30055
 O197 O 0.75510 0.14119 0.18340
 O198 O 0.75253 0.13967 0.32419
 O199 O 0.74437 0.35578 0.32377
 O200 O 0.74980 0.35733 0.18447
 O201 O 0.71605 0.29811 0.25324
 O202 O 0.71945 0.19653 0.25300
 O203 O 0.77828 0.29997 0.25604
 O204 O 0.71720 0.24811 0.19240
 O205 O 0.65660 0.20975 0.21070
 O206 O 0.70128 0.17534 0.17431
 O207 O 0.78422 0.25016 0.19492
 O208 O 0.78120 0.24913 0.31728
 O209 O 0.78160 0.19936 0.25511
 O210 O 0.71418 0.24626 0.31412
 Zr211 Zr 0.75166 0.20120 0.19474
 Zr212 Zr 0.74549 0.29548 0.31371
 Zr213 Zr 0.68678 0.24621 0.25227
 Zr214 Zr 0.74935 0.29701 0.19536
 Zr215 Zr 0.74965 0.19992 0.31324
 Zr216 Zr 0.81175 0.25085 0.25749
 H217 H 0.79193 0.32462 0.25670
 H218 H 0.70125 0.24795 0.16521
 H219 H 0.79677 0.17571 0.25546
 H220 H 0.69709 0.24524 0.34020
 H221 H 0.75176 0.12901 0.21368
 H222 H 0.75272 0.12814 0.29348
 H223 H 0.74774 0.36884 0.21507
 H224 H 0.73961 0.36722 0.29340
 C225 C 0.00049 0.49245 0.14320
 C226 C 0.00229 0.49968 -0.15634
 C227 C -0.08263 0.42793 0.05828
 C228 C -0.08639 0.55533 0.06019
 C229 C -0.07750 0.42800 -0.07890
 C230 C 0.08922 0.44090 -0.07622
 C231 C 0.08452 0.56062 -0.07426
 C232 C 0.08679 0.43758 0.06608
 C233 C -0.08454 0.55873 -0.07394
 C234 C 0.08219 0.55892 0.06872
 O235 O -0.04353 0.42244 -0.08794
 O236 O -0.08976 0.45390 -0.05108
 O237 O -0.05126 0.56891 -0.08290
 O238 O -0.09378 0.52977 -0.04860
 O239 O 0.04837 0.56595 0.07875
 O240 O 0.09284 0.53443 0.03878
 O241 O 0.00092 0.53202 -0.13485
 O242 O 0.00384 0.46634 -0.13636
 O243 O -0.00104 0.52583 0.12347
 O244 O 0.00092 0.45999 0.12205
 O245 O 0.05646 0.43201 -0.08864
 O246 O 0.09734 0.46561 -0.04538
 O247 O -0.04913 0.42064 0.07003
 O248 O -0.09257 0.45448 0.03000
 O249 O 0.05361 0.42701 0.07554
 O250 O 0.09559 0.46422 0.03745
 O251 O 0.05112 0.56812 -0.08581
 O252 O 0.09440 0.53552 -0.04435
 O253 O -0.00317 0.60240 0.06657
 O254 O 0.00005 0.60567 -0.07493
 O255 O 0.00922 0.39016 -0.07941
 O256 O 0.00465 0.38616 0.06140
 O257 O -0.02803 0.44388 -0.00851
 O258 O -0.03196 0.54505 -0.00607
 O259 O 0.03369 0.44682 -0.00642
 O260 O -0.03329 0.49318 0.05347
 O261 O -0.09493 0.52862 0.03156
 O262 O -0.05344 0.56416 0.07214
 O263 O 0.03348 0.49583 0.05621
 O264 O 0.03583 0.49910 -0.06687
 O265 O 0.02986 0.54789 -0.00439
 O266 O -0.03124 0.49602 -0.06841
 Zr267 Zr -0.00155 0.54246 0.05420
 Zr268 Zr 0.00434 0.44989 -0.06684
 Zr269 Zr -0.06129 0.49307 -0.00849
 Zr270 Zr 0.00171 0.44658 0.05218
 Zr271 Zr 0.00016 0.54527 -0.06476
 Zr272 Zr 0.06289 0.49863 -0.00437
 H273 H 0.04923 0.42345 -0.00663
 H274 H -0.05007 0.49209 0.07985
 H275 H 0.04359 0.57248 -0.00353
 H276 H -0.04747 0.49587 -0.09534
 H277 H -0.00509 0.61472 0.03616
 H278 H -0.00185 0.61686 -0.04412
 H279 H 0.00161 0.37518 0.03063
 H280 H 0.00841 0.37754 -0.04910
 C281 C 0.24096 0.75230 0.09897
 C282 C 0.25443 0.75119 0.39644
 C283 C 0.15779 0.81171 0.18693
 C284 C 0.16263 0.68389 0.18599
 C285 C 0.16379 0.81204 0.31990
 C286 C 0.33325 0.81545 0.31237
 C287 C 0.33696 0.69334 0.31198
 C288 C 0.32331 0.81910 0.16771
 C289 C 0.16904 0.68366 0.32010
 C290 C 0.33126 0.69415 0.17062
 O291 O 0.19726 0.82223 0.32789
 O292 O 0.15411 0.78398 0.29405
 O293 O 0.20314 0.67650 0.32824
 O294 O 0.15706 0.71074 0.29404
 O295 O 0.29780 0.68370 0.16304
 O296 O 0.34108 0.72126 0.19782
 O297 O 0.25478 0.71847 0.37589
 O298 O 0.25193 0.78426 0.37624
 O299 O 0.24360 0.71917 0.11893
 O300 O 0.23943 0.78489 0.11954
 O301 O 0.30009 0.82266 0.32529
 O302 O 0.34240 0.79077 0.28190
 O303 O 0.19030 0.82110 0.17419
 O304 O 0.14994 0.78408 0.21472
 O305 O 0.28908 0.82396 0.16010
 O306 O 0.33670 0.79452 0.19704
 O307 O 0.30437 0.68444 0.32519
 O308 O 0.34474 0.71944 0.28172
 O309 O 0.24960 0.64358 0.17672
 O310 O 0.25648 0.64379 0.31803
 O311 O 0.24832 0.85954 0.31862
 O312 O 0.24038 0.85956 0.17819
 O313 O 0.21415 0.80090 0.25000
 O314 O 0.21832 0.69926 0.24963
 O315 O 0.27616 0.80360 0.24512
 O316 O 0.21124 0.74988 0.18903
 O317 O 0.15330 0.71038 0.21431
 O318 O 0.19584 0.67696 0.17301
 O319 O 0.27803 0.75324 0.18341
 O320 O 0.28396 0.75313 0.30566
 O321 O 0.28026 0.70301 0.24504
 O322 O 0.21703 0.75011 0.31076
 Zr323 Zr 0.24671 0.70360 0.18813
 Zr324 Zr 0.24845 0.79949 0.30678
 Zr325 Zr 0.18548 0.74869 0.25192
 Zr326 Zr 0.24238 0.79922 0.18870
 Zr327 Zr 0.25203 0.70384 0.30648
 Zr328 Zr 0.30992 0.75491 0.24210
 H329 H 0.28950 0.82844 0.24383
 H330 H 0.19346 0.74927 0.16367
 H331 H 0.29558 0.67950 0.24415
 H332 H 0.20171 0.74924 0.33851
 H333 H 0.24981 0.63155 0.20738
 H334 H 0.25423 0.63188 0.28764
 H335 H 0.23824 0.87086 0.20892
 H336 H 0.24590 0.87172 0.28820
 C337 C 0.49890 0.49785 0.14796
 C338 C 0.49531 0.50339 -0.14989
 C339 C 0.58347 0.56296 0.06535
 C340 C 0.58360 0.43543 0.06479
 C341 C 0.58187 0.56526 -0.06898
 C342 C 0.41252 0.56288 -0.06884
 C343 C 0.41286 0.43981 -0.07071
 C344 C 0.41424 0.56039 0.07249
 C345 C 0.58103 0.43759 -0.07091
 C346 C 0.41561 0.43628 0.07140
 O347 O 0.54834 0.57410 -0.07894
 O348 O 0.59160 0.53769 -0.04197
 O349 O 0.54753 0.42951 -0.08087
 O350 O 0.59133 0.46415 -0.04335
 O351 O 0.44920 0.42826 0.08111
 O352 O 0.40523 0.46267 0.04288
 O353 O 0.49599 0.47005 -0.13010
 O354 O 0.49582 0.53592 -0.12899
 O355 O 0.49942 0.46525 0.12727
 O356 O 0.49894 0.53114 0.12814
 O357 O 0.44575 0.57170 -0.07999
 O358 O 0.40343 0.53635 -0.03994
 O359 O 0.55020 0.57164 0.07647
 O360 O 0.59269 0.53596 0.03783
 O361 O 0.44775 0.56931 0.08208
 O362 O 0.40445 0.53433 0.04393
 O363 O 0.44611 0.43201 -0.08229
 O364 O 0.40345 0.46502 -0.04089
 O365 O 0.49883 0.39083 0.06750
 O366 O 0.49595 0.39383 -0.07399
 O367 O 0.49608 0.60998 -0.06925
 O368 O 0.49801 0.60723 0.07240
 O369 O 0.52933 0.55125 -0.00067
 O370 O 0.52943 0.44938 -0.00237
 O371 O 0.46720 0.55069 0.00061
 O372 O 0.53222 0.49943 0.05951
 O373 O 0.59273 0.46263 0.03683
 O374 O 0.55037 0.42696 0.07609
 O375 O 0.46547 0.49912 0.06136
 O376 O 0.46362 0.50155 -0.06136
 O377 O 0.46755 0.44972 -0.00087
 O378 O 0.53051 0.50159 -0.06244
 Zr379 Zr 0.49925 0.45129 0.05778
 Zr380 Zr 0.49729 0.54956 -0.05937
 Zr381 Zr 0.56013 0.50025 -0.00204
 Zr382 Zr 0.49876 0.54741 0.05917
 Zr383 Zr 0.49721 0.45367 -0.06091
 Zr384 Zr 0.43587 0.49997 0.00072
 H385 H 0.45267 0.57476 0.00125
 H386 H 0.54907 0.49906 0.08584
 H387 H 0.45325 0.42548 -0.00100
 H388 H 0.54666 0.50203 -0.08945
 H389 H 0.50101 0.37980 0.03665
 H390 H 0.49732 0.38114 -0.04374
 H391 H 0.49822 0.61992 0.04211
 H392 H 0.49881 0.62109 -0.03849
 C393 C 0.76061 0.74895 0.09713
 C394 C 0.74526 0.74445 0.39432
 C395 C 0.68037 0.82072 0.17065
 C396 C 0.66713 0.69114 0.17095
 C397 C 0.66845 0.81514 0.30862
 C398 C 0.83626 0.80080 0.32645
 C399 C 0.82652 0.67573 0.32484
 C400 C 0.84486 0.80147 0.18314
 C401 C 0.66025 0.68858 0.30525
 C402 C 0.83600 0.67961 0.18048
 O403 O 0.70167 0.82028 0.32277
 O404 O 0.65872 0.79078 0.27804
 O405 O 0.69243 0.67801 0.31829
 O406 O 0.65361 0.71659 0.27695
 O407 O 0.80269 0.67445 0.16698
 O408 O 0.84605 0.70335 0.21181
 O409 O 0.74299 0.71202 0.37342
 O410 O 0.74851 0.77759 0.37468
 O411 O 0.75646 0.71571 0.11656
 O412 O 0.76276 0.78113 0.11857
 O413 O 0.80286 0.81136 0.33370
 O414 O 0.84616 0.77433 0.29809
 O415 O 0.71478 0.82472 0.16397
 O416 O 0.66567 0.79473 0.19703
 O417 O 0.81267 0.81108 0.16970
 O418 O 0.85184 0.77540 0.21375
 O419 O 0.79197 0.67093 0.33146
 O420 O 0.84053 0.70091 0.29702
 O421 O 0.74994 0.63977 0.17315
 O422 O 0.74106 0.63785 0.31293
 O423 O 0.75670 0.85363 0.31671
 O424 O 0.76744 0.85448 0.17942
 O425 O 0.72509 0.80006 0.24404
 O426 O 0.71738 0.69906 0.24203
 O427 O 0.78713 0.79380 0.25011
 O428 O 0.72280 0.75026 0.18223
 O429 O 0.65798 0.71960 0.19644
 O430 O 0.70033 0.67948 0.16391
 O431 O 0.78987 0.74408 0.18838
 O432 O 0.78229 0.74293 0.31029
 O433 O 0.77950 0.69372 0.24776
 O434 O 0.71558 0.74867 0.30336
 Zr435 Zr 0.75223 0.69963 0.18586
 Zr436 Zr 0.75229 0.79360 0.30595
 Zr437 Zr 0.69015 0.75241 0.24007
 Zr438 Zr 0.75998 0.79443 0.18830
 Zr439 Zr 0.74539 0.69820 0.30385
 Zr440 Zr 0.81515 0.74101 0.25226
 H441 H 0.80319 0.81672 0.25159
 H442 H 0.70796 0.75228 0.15416
 H443 H 0.79197 0.66837 0.24864
 H444 H 0.69779 0.74937 0.32869
 H445 H 0.74675 0.62738 0.20334
 H446 H 0.73863 0.62718 0.28193
 H447 H 0.76649 0.86556 0.21033
 H448 H 0.75142 0.86584 0.28688
 C449 C -0.00755 -0.00432 0.35319
 C450 C 0.00221 0.00387 0.65201
 C451 C -0.09185 0.06007 0.43917
 C452 C -0.08736 -0.07016 0.44238
 C453 C -0.08642 0.06292 0.57278
 C454 C 0.08260 0.06425 0.56605
 C455 C 0.08662 -0.05483 0.57069
 C456 C 0.07675 0.06029 0.42274
 C457 C -0.07951 -0.06824 0.57954
 C458 C 0.08080 -0.06019 0.42865
 O459 O -0.05287 0.07283 0.58031
 O460 O -0.09650 0.03414 0.54787
 O461 O -0.04535 -0.07313 0.58767
 O462 O -0.09279 -0.04284 0.55127
 O463 O 0.04739 -0.07037 0.42047
 O464 O 0.09038 -0.03342 0.45634
 O465 O 0.00303 -0.02950 0.63275
 O466 O 0.00035 0.03622 0.63007
 O467 O -0.00623 -0.03670 0.37502
 O468 O -0.00884 0.02909 0.37226
 O469 O 0.04952 0.07183 0.57897
 O470 O 0.09142 0.03930 0.53581
 O471 O -0.05906 0.06887 0.42627
 O472 O -0.09991 0.03246 0.46737
 O473 O 0.04281 0.06826 0.41424
 O474 O 0.08795 0.03599 0.45276
 O475 O 0.05412 -0.06350 0.58432
 O476 O 0.09427 -0.03053 0.53891
 O477 O -0.00084 -0.11042 0.43661
 O478 O 0.00676 -0.10578 0.57722
 O479 O -0.00190 0.10979 0.56720
 O480 O -0.00817 0.10552 0.42643
 O481 O -0.03586 0.04846 0.50241
 O482 O -0.03205 -0.05236 0.50683
 O483 O 0.02608 0.05136 0.49828
 O484 O -0.03883 -0.00344 0.44396
 O485 O -0.09726 -0.04288 0.46958
 O486 O -0.05403 -0.07714 0.43031
 O487 O 0.02802 -0.00093 0.43882
 O488 O 0.03332 0.00292 0.56164
 O489 O 0.02965 -0.04978 0.50254
 O490 O -0.03379 0.00005 0.56544
 Zr491 Zr -0.00363 -0.05002 0.44513
 Zr492 Zr -0.00216 0.04921 0.55977
 Zr493 Zr -0.06555 -0.00337 0.50685
 Zr494 Zr -0.00693 0.04577 0.44114
 Zr495 Zr 0.00168 -0.04605 0.56371
 Zr496 Zr 0.05883 0.00186 0.49828
 H497 H 0.03997 0.07583 0.49629
 H498 H -0.05632 -0.00457 0.41830
 H499 H 0.04510 -0.07323 0.50292
 H500 H -0.04925 -0.00005 0.59306
 H501 H -0.00116 -0.12143 0.46779
 H502 H 0.00426 -0.11851 0.54733
 H503 H -0.00712 0.11842 0.45634
 H504 H -0.00659 0.12033 0.53636
 C505 C 0.25276 0.24604 0.90257
 C506 C 0.25175 0.24487 0.60306
 C507 C 0.16647 0.18250 0.82011
 C508 C 0.16793 0.31063 0.81839
 C509 C 0.16716 0.18181 0.68679
 C510 C 0.33638 0.18571 0.68187
 C511 C 0.33544 0.30794 0.68106
 C512 C 0.33617 0.18379 0.82399
 C513 C 0.16634 0.30869 0.68527
 C514 C 0.33594 0.30769 0.82268
 O515 O 0.20045 0.17334 0.67557
 O516 O 0.15789 0.20871 0.71438
 O517 O 0.19961 0.31784 0.67445
 O518 O 0.15730 0.28131 0.71272
 O519 O 0.30259 0.31593 0.83327
 O520 O 0.34561 0.28169 0.79396
 O521 O 0.25132 0.27808 0.62283
 O522 O 0.25165 0.21215 0.62420
 O523 O 0.25225 0.27879 0.88140
 O524 O 0.25223 0.21293 0.88264
 O525 O 0.30305 0.17696 0.67127
 O526 O 0.34577 0.21101 0.71146
 O527 O 0.19981 0.17333 0.83092
 O528 O 0.15752 0.21017 0.79308
 O529 O 0.30280 0.17512 0.83471
 O530 O 0.34550 0.21013 0.79494
 O531 O 0.30203 0.31597 0.67015
 O532 O 0.34517 0.28207 0.71051
 O533 O 0.25302 0.35380 0.82306
 O534 O 0.25190 0.35374 0.67987
 O535 O 0.25325 0.13735 0.68382
 O536 O 0.25232 0.13759 0.82607
 O537 O 0.22056 0.19474 0.75355
 O538 O 0.22053 0.29670 0.75219
 O539 O 0.28228 0.19533 0.75344
 O540 O 0.21846 0.24579 0.81423
 O541 O 0.15815 0.28308 0.79194
 O542 O 0.20124 0.31883 0.82915
 O543 O 0.28527 0.24572 0.81440
 O544 O 0.28498 0.24576 0.69130
 O545 O 0.28203 0.29631 0.75194
 O546 O 0.21824 0.24551 0.69170
 Zr547 Zr 0.25178 0.29369 0.81166
 Zr548 Zr 0.25163 0.19761 0.69393
 Zr549 Zr 0.19003 0.24578 0.75302
 Zr550 Zr 0.25156 0.19762 0.81315
 Zr551 Zr 0.25118 0.29365 0.69239
 Zr552 Zr 0.31362 0.24598 0.75280
 H553 H 0.29690 0.17130 0.75333
 H554 H 0.20187 0.24602 0.84084
 H555 H 0.29641 0.32049 0.75174
 H556 H 0.20157 0.24536 0.66519
 H557 H 0.25222 0.36584 0.79241
 H558 H 0.25058 0.36577 0.71029
 H559 H 0.25154 0.12541 0.79572
 H560 H 0.25076 0.12577 0.71456
 C561 C 0.50727 -0.00847 0.35183
 C562 C 0.49408 -0.00081 0.64925
 C563 C 0.58468 -0.07508 0.44116
 C564 C 0.59266 0.05175 0.43752
 C565 C 0.57430 -0.07395 0.57913
 C566 C 0.40864 -0.05590 0.56556
 C567 C 0.41713 0.06450 0.56236
 C568 C 0.41640 -0.05925 0.42349
 C569 C 0.58638 0.05465 0.57205
 C570 C 0.42717 0.06411 0.41865
 O571 O 0.53986 -0.07857 0.58588
 O572 O 0.58854 -0.04890 0.55139
 O573 O 0.55315 0.06621 0.57900
 O574 O 0.59557 0.02566 0.54736
 O575 O 0.46152 0.06770 0.41051
 O576 O 0.41319 0.04074 0.44858
 O577 O 0.49729 0.03173 0.62800
 O578 O 0.49209 -0.03387 0.62961
 O579 O 0.50927 0.02490 0.37090
 O580 O 0.50483 -0.04079 0.37333
 O581 O 0.44073 -0.06539 0.57987
 O582 O 0.40204 -0.03087 0.53385
 O583 O 0.55141 -0.08092 0.42760
 O584 O 0.59451 -0.04940 0.47016
 O585 O 0.44955 -0.07112 0.41669
 O586 O 0.40716 -0.03174 0.45040
 O587 O 0.45041 0.07062 0.57563
 O588 O 0.40744 0.03984 0.53217
 O589 O 0.51236 0.10171 0.42690
 O590 O 0.50348 0.10569 0.56735
 O591 O 0.48652 -0.10927 0.57335
 O592 O 0.49592 -0.11387 0.43585
 O593 O 0.52847 -0.05731 0.50500
 O594 O 0.53592 0.04375 0.50144
 O595 O 0.46644 -0.05132 0.49903
 O596 O 0.53767 -0.00847 0.44276
 O597 O 0.59968 0.02503 0.46728
 O598 O 0.56045 0.06124 0.42381
 O599 O 0.47103 -0.00296 0.43600
 O600 O 0.46396 0.00071 0.55815
 O601 O 0.47420 0.04908 0.49582
 O602 O 0.53085 -0.00505 0.56387
 Zr603 Zr 0.50786 0.04183 0.43970
 Zr604 Zr 0.49387 -0.04969 0.56066
 Zr605 Zr 0.56329 -0.00933 0.50604
 Zr606 Zr 0.50088 -0.05348 0.44298
 Zr607 Zr 0.50133 0.04536 0.55794
 Zr608 Zr 0.43889 0.00166 0.49419
 H609 H 0.45020 -0.07415 0.49871
 H610 H 0.55534 -0.01017 0.41737
 H611 H 0.46174 0.07439 0.49370
 H612 H 0.54589 -0.00584 0.59184
 H613 H 0.51420 0.11379 0.45724
 H614 H 0.50729 0.11682 0.53660
 H615 H 0.50144 -0.12484 0.46626
 H616 H 0.48715 -0.12167 0.54313
 C617 C 0.74366 0.25083 0.90276
 C618 C 0.74989 0.24855 0.60495
 C619 C 0.66281 0.18218 0.82017
 C620 C 0.65740 0.30996 0.81681
 C621 C 0.66549 0.18243 0.68423
 C622 C 0.83407 0.19165 0.68630
 C623 C 0.82976 0.31448 0.68328
 C624 C 0.83177 0.19428 0.82889
 C625 C 0.66095 0.31038 0.68242
 C626 C 0.82402 0.31641 0.82911
 O627 O 0.69944 0.17506 0.67519
 O628 O 0.65425 0.20919 0.71087
 O629 O 0.69426 0.31992 0.67273
 O630 O 0.65159 0.28286 0.70988
 O631 O 0.79007 0.32158 0.83827
 O632 O 0.83654 0.29246 0.79908
 O633 O 0.74758 0.28172 0.62435
 O634 O 0.75071 0.21592 0.62608
 O635 O 0.74131 0.28344 0.88163
 O636 O 0.74553 0.21773 0.88313
 O637 O 0.80118 0.18195 0.67508
 O638 O 0.84227 0.21812 0.71547
 O639 O 0.69635 0.17557 0.83220
 O640 O 0.65285 0.20842 0.79130
 O641 O 0.79856 0.18385 0.83822
 O642 O 0.84088 0.22045 0.79971
 O643 O 0.79627 0.32121 0.67136
 O644 O 0.83962 0.29004 0.71423
 O645 O 0.74058 0.35820 0.82103
 O646 O 0.74483 0.35764 0.68066
 O647 O 0.75301 0.14147 0.68591
 O648 O 0.75040 0.14226 0.82626
 O649 O 0.71670 0.19755 0.75377
 O650 O 0.71255 0.29919 0.75138
 O651 O 0.77894 0.20134 0.75586
 O652 O 0.71108 0.24843 0.81353
 O653 O 0.64914 0.28235 0.78963
 O654 O 0.69018 0.31959 0.82830
 O655 O 0.77796 0.25192 0.81598
 O656 O 0.78097 0.25115 0.69370
 O657 O 0.77457 0.30208 0.75384
 O658 O 0.71410 0.24812 0.69170
 Zr659 Zr 0.74213 0.29781 0.81184
 Zr660 Zr 0.74914 0.20166 0.69562
 Zr661 Zr 0.68377 0.24701 0.75157
 Zr662 Zr 0.74668 0.20226 0.81401
 Zr663 Zr 0.74556 0.29757 0.69333
 Zr664 Zr 0.80841 0.25345 0.75594
 H665 H 0.79447 0.17797 0.75681
 H666 H 0.69404 0.24782 0.83968
 H667 H 0.78797 0.32690 0.75404
 H668 H 0.69820 0.24726 0.66449
 H669 H 0.73708 0.36933 0.79023
 H670 H 0.74270 0.36975 0.71094
 H671 H 0.74971 0.13022 0.79584
 H672 H 0.74984 0.12984 0.71651
 C673 C 0.00962 0.49279 0.34701
 C674 C -0.00331 0.49949 0.64573
 C675 C -0.07590 0.56161 0.41802
 C676 C -0.07668 0.42928 0.42211
 C677 C -0.08515 0.56210 0.55475
 C678 C 0.08372 0.55749 0.57194
 C679 C 0.08248 0.43658 0.57682
 C680 C 0.09155 0.55370 0.43006
 C681 C -0.08653 0.43450 0.55924
 C682 C 0.09016 0.43385 0.43383
 O683 O -0.05219 0.57010 0.56770
 O684 O -0.09382 0.53494 0.52676
 O685 O -0.05377 0.42651 0.57323
 O686 O -0.09458 0.46056 0.52914
 O687 O 0.05741 0.42596 0.42045
 O688 O 0.09833 0.45890 0.46432
 O689 O -0.00342 0.46607 0.62651
 O690 O -0.00327 0.53186 0.62375
 O691 O 0.00877 0.46039 0.36883
 O692 O 0.00910 0.52620 0.36614
 O693 O 0.04994 0.56698 0.57935
 O694 O 0.09426 0.53106 0.54443
 O695 O -0.04177 0.56778 0.41031
 O696 O -0.08865 0.53545 0.44572
 O697 O 0.05895 0.56185 0.41594
 O698 O 0.09922 0.52926 0.46177
 O699 O 0.04859 0.42781 0.58471
 O700 O 0.09347 0.46162 0.54746
 O701 O 0.00786 0.38667 0.43117
 O702 O -0.00204 0.38954 0.57099
 O703 O 0.00023 0.60574 0.56235
 O704 O 0.00969 0.60245 0.42241
 O705 O -0.02832 0.54684 0.49136
 O706 O -0.02927 0.44592 0.49531
 O707 O 0.03359 0.54635 0.49697
 O708 O -0.02758 0.49508 0.43240
 O709 O -0.08896 0.45704 0.44750
 O710 O -0.04265 0.42164 0.41597
 O711 O 0.03960 0.49448 0.43770
 O712 O 0.03236 0.49713 0.56036
 O713 O 0.03267 0.44521 0.50096
 O714 O -0.03445 0.49771 0.55360
 Zr715 Zr 0.00557 0.44719 0.43896
 Zr716 Zr -0.00048 0.54530 0.55362
 Zr717 Zr -0.06049 0.49665 0.49001
 Zr718 Zr 0.00640 0.54248 0.43515
 Zr719 Zr -0.00144 0.44947 0.55744
 Zr720 Zr 0.06421 0.49549 0.50155
 H721 H 0.04842 0.57023 0.49716
 H722 H -0.04265 0.49469 0.40444
 H723 H 0.04709 0.42108 0.50288
 H724 H -0.05205 0.49843 0.57915
 H725 H 0.00386 0.37577 0.46198
 H726 H -0.00298 0.37710 0.54080
 H727 H 0.00640 0.61482 0.45238
 H728 H -0.00081 0.61681 0.53124
 C729 C 0.24288 0.75407 0.89751
 C730 C 0.25184 0.75174 0.59981
 C731 C 0.16221 0.68764 0.81241
 C732 C 0.15862 0.81575 0.81119
 C733 C 0.16546 0.68721 0.67918
 C734 C 0.33470 0.69363 0.68265
 C735 C 0.33138 0.81712 0.68081
 C736 C 0.33097 0.69472 0.82475
 C737 C 0.16361 0.81500 0.67767
 C738 C 0.32532 0.81843 0.82580
 O739 O 0.19934 0.67891 0.67048
 O740 O 0.15476 0.71461 0.70523
 O741 O 0.19705 0.82402 0.66848
 O742 O 0.15342 0.78742 0.70421
 O743 O 0.29134 0.82425 0.83430
 O744 O 0.33780 0.79418 0.79600
 O745 O 0.25026 0.78490 0.61946
 O746 O 0.25159 0.71905 0.62093
 O747 O 0.24166 0.78685 0.87667
 O748 O 0.24433 0.72103 0.87780
 O749 O 0.30175 0.68447 0.67088
 O750 O 0.34305 0.71993 0.71197
 O751 O 0.19547 0.67996 0.82448
 O752 O 0.15256 0.71459 0.78468
 O753 O 0.29746 0.68511 0.83350
 O754 O 0.34082 0.72125 0.79629
 O755 O 0.29815 0.82389 0.66850
 O756 O 0.34126 0.79215 0.71116
 O757 O 0.24281 0.86192 0.81571
 O758 O 0.24779 0.86045 0.67492
 O759 O 0.25275 0.64460 0.68103
 O760 O 0.24869 0.64578 0.82213
 O761 O 0.21684 0.70161 0.74840
 O762 O 0.21426 0.80337 0.74628
 O763 O 0.27907 0.70413 0.75123
 O764 O 0.21151 0.75254 0.80831
 O765 O 0.15060 0.78827 0.78355
 O766 O 0.19145 0.82464 0.82353
 O767 O 0.27839 0.75481 0.81176
 O768 O 0.28241 0.75371 0.68951
 O769 O 0.27618 0.80474 0.74964
 O770 O 0.21539 0.75191 0.68635
 Zr771 Zr 0.24321 0.80144 0.80715
 Zr772 Zr 0.24966 0.70486 0.69060
 Zr773 Zr 0.18486 0.75178 0.74602
 Zr774 Zr 0.24645 0.70572 0.80885
 Zr775 Zr 0.24760 0.80054 0.68874
 Zr776 Zr 0.30944 0.75562 0.75224
 H777 H 0.29412 0.68041 0.75231
 H778 H 0.19411 0.75224 0.83409
 H779 H 0.28983 0.82939 0.75019
 H780 H 0.19967 0.75140 0.65895
 H781 H 0.23952 0.87288 0.78478
 H782 H 0.24641 0.87303 0.70502
 H783 H 0.24920 0.63345 0.79186
 H784 H 0.24957 0.63310 0.71171
 C785 C 0.49438 0.49842 0.34949
 C786 C 0.49732 0.50372 0.64714
 C787 C 0.58037 0.43563 0.43115
 C788 C 0.58018 0.56440 0.42619
 C789 C 0.58155 0.43751 0.56608
 C790 C 0.41285 0.44085 0.57188
 C791 C 0.41385 0.56488 0.56896
 C792 C 0.41203 0.43776 0.43029
 C793 C 0.58269 0.56488 0.56258
 C794 C 0.41276 0.56272 0.42590
 O795 O 0.54818 0.42966 0.57745
 O796 O 0.59120 0.46414 0.53761
 O797 O 0.54944 0.57375 0.57351
 O798 O 0.59190 0.53771 0.53526
 O799 O 0.44614 0.57016 0.41477
 O800 O 0.40280 0.53743 0.45600
 O801 O 0.49791 0.53627 0.62574
 O802 O 0.49733 0.47042 0.62784
 O803 O 0.49531 0.53172 0.36867
 O804 O 0.49473 0.46587 0.37081
 O805 O 0.44636 0.43265 0.58221
 O806 O 0.40290 0.46656 0.54236
 O807 O 0.54681 0.42718 0.42153
 O808 O 0.59051 0.46323 0.45744
 O809 O 0.44538 0.42940 0.41978
 O810 O 0.40242 0.46454 0.45835
 O811 O 0.44746 0.57303 0.57863
 O812 O 0.40362 0.53867 0.54055
 O813 O 0.49564 0.60807 0.42455
 O814 O 0.49750 0.61050 0.56501
 O815 O 0.49610 0.39434 0.57248
 O816 O 0.49511 0.39177 0.43144
 O817 O 0.52806 0.45022 0.49929
 O818 O 0.52858 0.55191 0.49599
 O819 O 0.46589 0.45102 0.50018
 O820 O 0.52973 0.49992 0.43654
 O821 O 0.59031 0.53789 0.45471
 O822 O 0.54668 0.57230 0.41599
 O823 O 0.46270 0.50026 0.43727
 O824 O 0.46387 0.50245 0.55979
 O825 O 0.46641 0.55173 0.49702
 O826 O 0.53091 0.50195 0.55835
 Zr827 Zr 0.49661 0.54802 0.43740
 Zr828 Zr 0.49724 0.45427 0.55889
 Zr829 Zr 0.55925 0.50090 0.49686
 Zr830 Zr 0.49624 0.45217 0.44050
 Zr831 Zr 0.49789 0.55009 0.55589
 Zr832 Zr 0.43436 0.50160 0.49887
 H833 H 0.45147 0.42688 0.50117
 H834 H 0.54592 0.49942 0.40957
 H835 H 0.45217 0.57601 0.49648
 H836 H 0.54761 0.50213 0.58484
 H837 H 0.49745 0.62032 0.45479
 H838 H 0.50042 0.62170 0.53415
 H839 H 0.49740 0.38055 0.46238
 H840 H 0.49693 0.38185 0.54230
 C841 C 0.75307 0.75265 0.89348
 C842 C 0.75110 0.74570 0.59563
 C843 C 0.66570 0.68921 0.81413
 C844 C 0.66743 0.81612 0.81055
 C845 C 0.66532 0.68647 0.67962
 C846 C 0.83451 0.68673 0.67338
 C847 C 0.83378 0.80985 0.66765
 C848 C 0.83536 0.68965 0.81680
 C849 C 0.66886 0.81359 0.67121
 C850 C 0.83627 0.81193 0.81290
 O851 O 0.69860 0.67701 0.66940
 O852 O 0.65611 0.71433 0.70601
 O853 O 0.70222 0.81934 0.65971
 O854 O 0.65793 0.78933 0.70212
 O855 O 0.80294 0.82065 0.82328
 O856 O 0.84580 0.78593 0.78400
 O857 O 0.75122 0.77914 0.61458
 O858 O 0.75049 0.71330 0.61722
 O859 O 0.75273 0.78525 0.87199
 O860 O 0.75194 0.71942 0.87412
 O861 O 0.80091 0.67805 0.66407
 O862 O 0.84458 0.71298 0.70179
 O863 O 0.69908 0.68025 0.82479
 O864 O 0.65640 0.71605 0.78585
 O865 O 0.80189 0.68166 0.82775
 O866 O 0.84517 0.71478 0.78656
 O867 O 0.80048 0.81561 0.65603
 O868 O 0.84456 0.78666 0.69986
 O869 O 0.75318 0.85958 0.81119
 O870 O 0.75344 0.85630 0.67245
 O871 O 0.75092 0.63984 0.67992
 O872 O 0.75098 0.64355 0.81912
 O873 O 0.71897 0.69993 0.74641
 O874 O 0.72026 0.80157 0.74240
 O875 O 0.78156 0.69949 0.74594
 O876 O 0.71786 0.75183 0.80520
 O877 O 0.65743 0.78941 0.78299
 O878 O 0.70099 0.82404 0.82100
 O879 O 0.78488 0.75104 0.80492
 O880 O 0.78440 0.74794 0.68269
 O881 O 0.78224 0.80021 0.74204
 O882 O 0.71741 0.74874 0.68358
 Zr883 Zr 0.75167 0.79922 0.80186
 Zr884 Zr 0.75025 0.70045 0.68710
 Zr885 Zr 0.68865 0.75143 0.74426
 Zr886 Zr 0.75071 0.70343 0.80521
 Zr887 Zr 0.75125 0.79598 0.68320
 Zr888 Zr 0.81364 0.74982 0.74335
 H889 H 0.79591 0.67528 0.74656
 H890 H 0.70161 0.75250 0.83210
 H891 H 0.79677 0.82428 0.74066
 H892 H 0.70092 0.74824 0.65691
 H893 H 0.75356 0.87088 0.78017
 H894 H 0.74586 0.86793 0.70162
 H895 H 0.75157 0.63095 0.78902
 H896 H 0.74509 0.62934 0.71046
 C897 C -0.00142 -0.00599 0.19939
 C898 C -0.00435 0.02555 0.22558
 C899 C -0.00555 0.02544 0.27620
 C900 C -0.00749 -0.00626 0.30283
 H901 H -0.00560 0.05372 0.20935
 H902 H -0.00490 0.05359 0.29205
 H903 H 0.00021 -0.03443 0.21466
 H904 H -0.00845 -0.03470 0.28798
 C905 C 0.25602 0.24674 1.05374
 C906 C 0.25480 0.21378 1.02600
 C907 C 0.25412 0.21407 0.97806
 C908 C 0.25365 0.24731 0.95027
 H909 H 0.25422 0.18553 1.04216
 H910 H 0.25357 0.18606 0.96184
 H911 H 0.25730 0.27508 1.03812
 H912 H 0.25386 0.27564 0.96543
 C913 C 0.11492 0.07723 0.09325
 C914 C 0.10996 0.10873 0.11824
 C915 C 0.14138 0.12972 0.13666
 C916 C 0.13636 0.16224 0.15975
 H917 H 0.08267 0.11974 0.12410
 H918 H 0.16868 0.11854 0.13130
 H919 H 0.14240 0.06703 0.08669
 H920 H 0.10886 0.17283 0.16528
 C921 C 0.36966 0.32558 0.16127
 C922 C 0.36357 0.35772 0.13665
 C923 C 0.39366 0.38101 0.11762
 C924 C 0.38670 0.41305 0.09324
 H925 H 0.33584 0.36745 0.13070
 H926 H 0.42154 0.37155 0.12303
 H927 H 0.39742 0.31633 0.16793
 H928 H 0.35863 0.42177 0.08752
 C929 C 0.36508 0.15579 0.16123
 C930 C 0.35945 0.12456 0.13535
 C931 C 0.39062 0.10212 0.11706
 C932 C 0.38559 0.07066 0.09131
 H933 H 0.33186 0.11527 0.12789
 H934 H 0.41809 0.11193 0.12428
 H935 H 0.39288 0.16424 0.16896
 H936 H 0.35802 0.06138 0.08371
 C937 C 0.14111 0.33394 0.15698
 C938 C 0.14595 0.36587 0.13227
 C939 C 0.11386 0.38604 0.11337
 C940 C 0.11771 0.41784 0.08815
 H941 H 0.17317 0.37703 0.12616
 H942 H 0.08685 0.37425 0.11939
 H943 H 0.11350 0.32376 0.16302
 H944 H 0.14488 0.42907 0.08176
 C945 C 0.35596 0.15264 0.34984
 C946 C 0.34468 0.12469 0.37885
 C947 C 0.36872 0.09738 0.40371
 C948 C 0.40322 0.08990 0.39194
 H949 H 0.31584 0.12168 0.38611
 H950 H 0.35685 0.08227 0.43253
 H951 H 0.38468 0.15721 0.34333
 H952 H 0.41526 0.10432 0.36281
 C953 C 0.13917 0.33575 0.33283
 C954 C 0.14554 0.36344 0.36311
 C955 C 0.11504 0.38539 0.38218
 C956 C 0.12057 0.41249 0.41346
 H957 H 0.17313 0.36966 0.37422
 H958 H 0.08759 0.37887 0.37078
 H959 H 0.11139 0.32985 0.32218
 H960 H 0.14807 0.41883 0.42482
 C961 C 0.13008 0.16471 0.33134
 C962 C 0.13338 0.13167 0.35427
 C963 C 0.10123 0.11198 0.37328
 C964 C 0.10600 0.08003 0.39789
 H965 H 0.16020 0.11916 0.35962
 H966 H 0.07424 0.12430 0.36890
 H967 H 0.10316 0.17677 0.32538
 H968 H 0.13344 0.06889 0.40263
 C969 C 0.36543 0.32559 0.34543
 C970 C 0.35897 0.35827 0.36841
 C971 C 0.38909 0.38164 0.38713
 C972 C 0.38257 0.41441 0.40988
 H973 H 0.33121 0.36845 0.37270
 H974 H 0.41689 0.37170 0.38248
 H975 H 0.39333 0.31604 0.34057
 H976 H 0.35463 0.42369 0.41514
 C977 C 0.49994 -0.01237 0.20003
 C978 C 0.50366 0.01980 0.22495
 C979 C 0.50454 0.02073 0.27522
 C980 C 0.50773 -0.01062 0.30191
 H981 H 0.50578 0.04757 0.20792
 H982 H 0.50280 0.04901 0.29064
 H983 H 0.49708 -0.04041 0.21599
 H984 H 0.51004 -0.03912 0.28742
 C985 C 0.75268 0.25179 1.05508
 C986 C 0.75001 0.22009 1.02926
 C987 C 0.74920 0.22039 0.97881
 C988 C 0.74398 0.25206 0.95293
 H989 H 0.74881 0.19195 1.04557
 H990 H 0.75238 0.19260 0.96255
 H991 H 0.75481 0.28011 1.03961
 H992 H 0.73984 0.27998 0.96831
 C993 C 0.61577 0.07695 0.09361
 C994 C 0.61084 0.10847 0.11862
 C995 C 0.64262 0.12948 0.13718
 C996 C 0.63763 0.16083 0.16246
 H997 H 0.58347 0.11897 0.12513
 H998 H 0.67001 0.11910 0.13051
 H999 H 0.64341 0.06719 0.08716
 H1000 H 0.60996 0.17040 0.16914
 C1001 C -0.13530 0.33262 0.16421
 C1002 C -0.13978 0.35850 0.13085
 C1003 C -0.10800 0.37870 0.11102
 C1004 C -0.11265 0.40527 0.07845
 H1005 H -0.16694 0.36511 0.11837
 H1006 H -0.08085 0.37228 0.12363
 H1007 H -0.10793 0.32633 0.17621
 H1008 H -0.14007 0.41153 0.06657
 C1009 C 0.88653 0.08664 0.08988
 C1010 C 0.89265 0.11711 0.11681
 C1011 C 0.86185 0.13921 0.13627
 C1012 C 0.86722 0.16927 0.16408
 H1013 H 0.92035 0.12580 0.12463
 H1014 H 0.83428 0.13020 0.12818
 H1015 H 0.85863 0.07852 0.08224
 H1016 H 0.89484 0.17782 0.17252
 C1017 C 0.63478 0.33294 0.16278
 C1018 C 0.64007 0.36248 0.13394
 C1019 C 0.60876 0.38367 0.11425
 C1020 C 0.61387 0.41308 0.08517
 H1021 H 0.66755 0.37124 0.12491
 H1022 H 0.58131 0.37515 0.12376
 H1023 H 0.60711 0.32455 0.17142
 H1024 H 0.64147 0.42122 0.07583
 C1025 C -0.13907 0.16808 0.34839
 C1026 C -0.14492 0.13607 0.37704
 C1027 C -0.11558 0.11432 0.39354
 C1028 C -0.12084 0.08204 0.42183
 H1029 H -0.17247 0.12738 0.38589
 H1030 H -0.08811 0.12282 0.38407
 H1031 H -0.11113 0.17610 0.34044
 H1032 H -0.14839 0.07420 0.43174
 C1033 C 0.62997 0.32978 0.33927
 C1034 C 0.63505 0.36018 0.36626
 C1035 C 0.60399 0.38199 0.38468
 C1036 C 0.60989 0.41262 0.41103
 H1037 H 0.66251 0.36942 0.37465
 H1038 H 0.57640 0.37297 0.37676
 H1039 H 0.60246 0.32091 0.33067
 H1040 H 0.63771 0.42108 0.41871
 C1041 C 0.63846 0.15466 0.33899
 C1042 C 0.64641 0.12565 0.36778
 C1043 C 0.61704 0.10212 0.38738
 C1044 C 0.62331 0.07349 0.41738
 H1045 H 0.67442 0.11944 0.37720
 H1046 H 0.58934 0.10903 0.37721
 H1047 H 0.61028 0.16045 0.32995
 H1048 H 0.65094 0.06661 0.42778
 C1049 C -0.14779 0.33847 0.35788
 C1050 C -0.11472 0.34911 0.34356
 C1051 C -0.09119 0.37672 0.36848
 C1052 C -0.10291 0.40385 0.39808
 H1053 H -0.10376 0.33655 0.31278
 H1054 H -0.06242 0.37497 0.36035
 H1055 H -0.15861 0.35060 0.38895
 H1056 H -0.13172 0.40765 0.40474
 C1057 C 0.00179 0.49061 0.19355
 C1058 C 0.00498 0.52228 0.21946
 C1059 C 0.00646 0.52238 0.27004
 C1060 C 0.01006 0.49086 0.29668
 H1061 H 0.00590 0.55040 0.20305
 H1062 H 0.00454 0.55048 0.28584
 H1063 H 0.00034 0.46225 0.20905
 H1064 H 0.01252 0.46251 0.28181
 C1065 C 0.23920 0.75381 1.04915
 C1066 C 0.24291 0.72232 1.02329
 C1067 C 0.24240 0.72281 0.97301
 C1068 C 0.24240 0.75505 0.94740
 H1069 H 0.24654 0.69434 1.03943
 H1070 H 0.24287 0.69486 0.95664
 H1071 H 0.23492 0.78200 1.03412
 H1072 H 0.24264 0.78334 0.96261
 C1073 C 0.11165 0.58041 0.09154
 C1074 C 0.10609 0.60955 0.12026
 C1075 C 0.13745 0.63108 0.13902
 C1076 C 0.13242 0.66068 0.16724
 H1077 H 0.07854 0.61811 0.12908
 H1078 H 0.16488 0.62289 0.12917
 H1079 H 0.13946 0.57258 0.08292
 H1080 H 0.10485 0.66843 0.17705
 C1081 C 0.39572 0.90055 0.09167
 C1082 C 0.40643 0.87176 0.12382
 C1083 C 0.38373 0.84564 0.14729
 C1084 C 0.34603 0.84357 0.14223
 H1085 H 0.43511 0.86878 0.13212
 H1086 H 0.39679 0.82610 0.17124
 H1087 H 0.36729 0.90446 0.08298
 H1088 H 0.33275 0.86283 0.11827
 C1089 C 0.36121 0.67317 0.14828
 C1090 C 0.35703 0.63806 0.13049
 C1091 C 0.38864 0.61667 0.11248
 C1092 C 0.38428 0.58178 0.09421
 H1093 H 0.33032 0.62457 0.13025
 H1094 H 0.41546 0.62989 0.11325
 H1095 H 0.38824 0.68587 0.14953
 H1096 H 0.35711 0.56948 0.09223
 C1097 C 0.11206 0.91579 0.09275
 C1098 C 0.10455 0.88703 0.12159
 C1099 C 0.13418 0.86491 0.14178
 C1100 C 0.12760 0.83423 0.16814
 H1101 H 0.07661 0.87909 0.12941
 H1102 H 0.16196 0.87365 0.13417
 H1103 H 0.14015 0.92305 0.08477
 H1104 H 0.09982 0.82568 0.17596
 C1105 C 0.36732 0.67102 0.33210
 C1106 C 0.36110 0.63973 0.35816
 C1107 C 0.39097 0.61645 0.37747
 C1108 C 0.38378 0.58554 0.40374
 H1109 H 0.33333 0.63074 0.36533
 H1110 H 0.41891 0.62508 0.37079
 H1111 H 0.39508 0.67961 0.32429
 H1112 H 0.35569 0.57765 0.41073
 C1113 C 0.13363 -0.16660 0.34122
 C1114 C 0.13819 -0.13362 0.36370
 C1115 C 0.10648 -0.11324 0.38297
 C1116 C 0.11098 -0.08060 0.40612
 H1117 H 0.16528 -0.12150 0.36769
 H1118 H 0.07942 -0.12545 0.37898
 H1119 H 0.10629 -0.17801 0.33696
 H1120 H 0.13829 -0.06916 0.41057
 C1121 C 0.14083 0.65974 0.34127
 C1122 C 0.14785 0.62778 0.36510
 C1123 C 0.11720 0.60529 0.38321
 C1124 C 0.12244 0.57441 0.40963
 H1125 H 0.17568 0.61831 0.37095
 H1126 H 0.08967 0.61488 0.37561
 H1127 H 0.11270 0.66838 0.33570
 H1128 H 0.14993 0.56534 0.41824
 C1129 C 0.36360 -0.16325 0.33303
 C1130 C 0.35886 -0.13157 0.35780
 C1131 C 0.39056 -0.11128 0.37688
 C1132 C 0.38612 -0.07886 0.40041
 H1133 H 0.33163 -0.12045 0.36382
 H1134 H 0.41759 -0.12347 0.37253
 H1135 H 0.39107 -0.17343 0.32631
 H1136 H 0.35889 -0.06722 0.40490
 C1137 C 0.49871 0.49641 0.19788
 C1138 C 0.49592 0.52835 0.22321
 C1139 C 0.49590 0.52856 0.27346
 C1140 C 0.49341 0.49679 0.29963
 H1141 H 0.49421 0.55635 0.20662
 H1142 H 0.49780 0.55666 0.28930
 H1143 H 0.50119 0.46816 0.21340
 H1144 H 0.49071 0.46846 0.28485
 C1145 C 0.76200 0.75129 1.04687
 C1146 C 0.75649 0.72055 1.02015
 C1147 C 0.75597 0.72161 0.96960
 C1148 C 0.75447 0.75387 0.94382
 H1149 H 0.75225 0.69248 1.03581
 H1150 H 0.75572 0.69373 0.95309
 H1151 H 0.76706 0.77945 1.03202
 H1152 H 0.75381 0.78204 0.95941
 C1153 C 0.61387 0.58474 0.08511
 C1154 C 0.60928 0.61722 0.10840
 C1155 C 0.64109 0.63784 0.12662
 C1156 C 0.63673 0.67071 0.14923
 H1157 H 0.58211 0.62871 0.11387
 H1158 H 0.66812 0.62564 0.12229
 H1159 H 0.64128 0.57407 0.07914
 H1160 H 0.60949 0.68234 0.15373
 C1161 C 0.88844 0.90758 0.08767
 C1162 C 0.89708 0.87720 0.11424
 C1163 C 0.86830 0.85309 0.13414
 C1164 C 0.87526 0.82326 0.16238
 H1165 H 0.92531 0.87013 0.12151
 H1166 H 0.84038 0.86070 0.12579
 H1167 H 0.86006 0.91421 0.08066
 H1168 H 0.90310 0.81585 0.17130
 C1169 C 0.88331 0.57732 0.08060
 C1170 C 0.88907 0.60620 0.10981
 C1171 C 0.85864 0.62848 0.12929
 C1172 C 0.86515 0.65659 0.15927
 H1173 H 0.91669 0.61376 0.11952
 H1174 H 0.83092 0.62172 0.11927
 H1175 H 0.85564 0.56990 0.07097
 H1176 H 0.89304 0.66265 0.16930
 C1177 C 0.61016 0.90310 0.09510
 C1178 C 0.59868 0.87353 0.12567
 C1179 C 0.62092 0.84766 0.14961
 C1180 C 0.65869 0.84691 0.14673
 H1181 H 0.56980 0.86945 0.13199
 H1182 H 0.60734 0.82687 0.17158
 H1183 H 0.63878 0.90826 0.08861
 H1184 H 0.67265 0.86752 0.12507
 C1185 C -0.14807 0.64989 0.35003
 C1186 C -0.15984 0.62100 0.37752
 C1187 C -0.13582 0.59336 0.40261
 C1188 C -0.10079 0.58717 0.39200
 H1189 H -0.18886 0.61749 0.38312
 H1190 H -0.14794 0.57713 0.43041
 H1191 H -0.11921 0.65492 0.34524
 H1192 H -0.08868 0.60273 0.36375
 C1193 C 0.63855 -0.16225 0.32871
 C1194 C 0.64234 -0.14090 0.36600
 C1195 C 0.61071 -0.12031 0.38523
 C1196 C 0.61452 -0.09838 0.42204
 H1197 H 0.66867 -0.13886 0.38264
 H1198 H 0.58437 -0.12247 0.36861
 H1199 H 0.61187 -0.16450 0.31296
 H1200 H 0.64122 -0.09582 0.43767
 C1201 C 0.62887 0.66710 0.32464
 C1202 C 0.63371 0.63759 0.35398
 C1203 C 0.60298 0.61593 0.37427
 C1204 C 0.60938 0.58697 0.40384
 H1205 H 0.66111 0.62907 0.36369
 H1206 H 0.57527 0.62384 0.36527
 H1207 H 0.60151 0.67565 0.31483
 H1208 H 0.63732 0.57964 0.41247
 C1209 C -0.13430 -0.17865 0.35087
 C1210 C -0.14059 -0.14799 0.37746
 C1211 C -0.11026 -0.12561 0.39750
 C1212 C -0.11673 -0.09457 0.42340
 H1213 H -0.16834 -0.13838 0.38331
 H1214 H -0.08243 -0.13419 0.39022
 H1215 H -0.10642 -0.18782 0.34493
 H1216 H -0.14470 -0.08655 0.43082
 C1217 C 0.00053 0.00477 0.80374
 C1218 C 0.00181 -0.02797 0.77565
 C1219 C 0.00286 -0.02752 0.72773
 C1220 C 0.00255 0.00564 0.69976
 H1221 H 0.00201 -0.05634 0.79153
 H1222 H 0.00362 -0.05556 0.71158
 H1223 H 0.00057 0.03327 0.78840
 H1224 H 0.00179 0.03403 0.71479
 C1225 C 0.24801 0.24254 0.44926
 C1226 C 0.25081 0.27437 0.47508
 C1227 C 0.25074 0.27477 0.52580
 C1228 C 0.25189 0.24321 0.55268
 H1229 H 0.25290 0.30231 0.45844
 H1230 H 0.25015 0.30300 0.54146
 H1231 H 0.24530 0.21435 0.46491
 H1232 H 0.25310 0.21474 0.53792
 C1233 C 0.11330 0.08524 0.58634
 C1234 C 0.10911 0.11220 0.61795
 C1235 C 0.14110 0.13227 0.63655
 C1236 C 0.13671 0.16004 0.66713
 H1237 H 0.08205 0.11968 0.62996
 H1238 H 0.16822 0.12454 0.62495
 H1239 H 0.14055 0.07817 0.57461
 H1240 H 0.10936 0.16753 0.67813
 C1241 C 0.36505 0.33050 0.65969
 C1242 C 0.35897 0.36317 0.63628
 C1243 C 0.38950 0.38599 0.61746
 C1244 C 0.38337 0.41860 0.59396
 H1245 H 0.33130 0.37353 0.63143
 H1246 H 0.41716 0.37556 0.62214
 H1247 H 0.39287 0.32088 0.66521
 H1248 H 0.35553 0.42827 0.58864
 C1249 C 0.36659 0.16519 0.65985
 C1250 C 0.36139 0.13647 0.63068
 C1251 C 0.39269 0.11559 0.61159
 C1252 C 0.38728 0.08696 0.58237
 H1253 H 0.33394 0.12785 0.62140
 H1254 H 0.42015 0.12350 0.62165
 H1255 H 0.39419 0.17339 0.66900
 H1256 H 0.35964 0.07967 0.57235
 C1257 C 0.13560 0.33015 0.66529
 C1258 C 0.13949 0.36358 0.64325
 C1259 C 0.10745 0.38374 0.62431
 C1260 C 0.11192 0.41671 0.60148
 H1261 H 0.16643 0.37608 0.63900
 H1262 H 0.08055 0.37093 0.62744
 H1263 H 0.10843 0.31838 0.67015
 H1264 H 0.13922 0.42848 0.59782
 C1265 C 0.38865 0.07269 0.90726
 C1266 C 0.39334 0.10644 0.88551
 C1267 C 0.36174 0.12829 0.86733
 C1268 C 0.36643 0.16181 0.84507
 H1269 H 0.42051 0.11844 0.88179
 H1270 H 0.33452 0.11653 0.87157
 H1271 H 0.36123 0.06147 0.91152
 H1272 H 0.39388 0.17273 0.84008
 C1273 C 0.11972 0.42043 0.90259
 C1274 C 0.11417 0.38922 0.87725
 C1275 C 0.14482 0.36665 0.85985
 C1276 C 0.13849 0.33421 0.83707
 H1277 H 0.08664 0.37928 0.87051
 H1278 H 0.17249 0.37645 0.86589
 H1279 H 0.14731 0.42972 0.91019
 H1280 H 0.11063 0.32504 0.83088
 C1281 C 0.11281 0.07905 0.91094
 C1282 C 0.10946 0.11056 0.88172
 C1283 C 0.14058 0.12978 0.86624
 C1284 C 0.13716 0.16178 0.83792
 H1285 H 0.08262 0.12074 0.87163
 H1286 H 0.16746 0.11979 0.87636
 H1287 H 0.14017 0.06990 0.92040
 H1288 H 0.10990 0.17101 0.82820
 C1289 C 0.38321 0.41763 0.90829
 C1290 C 0.38948 0.38545 0.88476
 C1291 C 0.35911 0.36257 0.86662
 C1292 C 0.36545 0.33017 0.84353
 H1293 H 0.41719 0.37543 0.87951
 H1294 H 0.33139 0.37265 0.87164
 H1295 H 0.35536 0.42692 0.91430
 H1296 H 0.39332 0.32078 0.83793
 C1297 C 0.50331 -0.00279 0.80209
 C1298 C 0.49802 -0.03363 0.77552
 C1299 C 0.49601 -0.03230 0.72505
 C1300 C 0.49399 0.00011 0.69955
 H1301 H 0.49556 -0.06194 0.79119
 H1302 H 0.49624 -0.06008 0.70830
 H1303 H 0.50619 0.02570 0.78728
 H1304 H 0.49326 0.02822 0.71526
 C1305 C 0.74610 0.24583 0.45313
 C1306 C 0.74711 0.27800 0.47833
 C1307 C 0.74691 0.27845 0.52865
 C1308 C 0.75112 0.24700 0.55504
 H1309 H 0.74752 0.30598 0.46154
 H1310 H 0.74339 0.30642 0.54436
 H1311 H 0.74494 0.21756 0.46884
 H1312 H 0.75542 0.21886 0.54034
 C1313 C 0.61667 0.07576 0.59331
 C1314 C 0.61154 0.10745 0.61794
 C1315 C 0.64262 0.12855 0.63746
 C1316 C 0.63650 0.15955 0.66291
 H1317 H 0.58412 0.11821 0.62357
 H1318 H 0.67025 0.11872 0.63121
 H1319 H 0.64419 0.06527 0.58773
 H1320 H 0.60858 0.16852 0.66915
 C1321 C -0.14029 0.33616 0.66106
 C1322 C -0.14522 0.36387 0.62963
 C1323 C -0.11347 0.38469 0.61020
 C1324 C -0.11760 0.41281 0.57906
 H1325 H -0.17253 0.37146 0.61856
 H1326 H -0.08633 0.37696 0.62179
 H1327 H -0.11271 0.32920 0.67173
 H1328 H -0.14484 0.42031 0.56761
 C1329 C 0.88412 0.08585 0.59393
 C1330 C 0.89017 0.11743 0.61908
 C1331 C 0.85938 0.13935 0.63872
 C1332 C 0.86467 0.17035 0.66512
 H1333 H 0.91783 0.12720 0.62521
 H1334 H 0.83185 0.12951 0.63185
 H1335 H 0.85626 0.07658 0.58806
 H1336 H 0.89226 0.17973 0.67245
 C1337 C 0.63091 0.33228 0.66106
 C1338 C 0.63651 0.36279 0.63379
 C1339 C 0.60558 0.38456 0.61434
 C1340 C 0.61135 0.41485 0.58680
 H1341 H 0.66409 0.37205 0.62601
 H1342 H 0.57797 0.37568 0.62254
 H1343 H 0.60319 0.32341 0.66877
 H1344 H 0.63913 0.42316 0.57856
 C1345 C 0.88443 0.08774 0.91633
 C1346 C 0.88933 0.12085 0.89381
 C1347 C 0.85767 0.14205 0.87575
 C1348 C 0.86220 0.17442 0.85165
 H1349 H 0.91660 0.13213 0.88838
 H1350 H 0.83053 0.13027 0.88079
 H1351 H 0.85691 0.07719 0.92200
 H1352 H 0.88953 0.18549 0.84600
 C1353 C 0.61002 0.41506 0.90781
 C1354 C 0.60302 0.38494 0.88124
 C1355 C 0.63318 0.36273 0.86216
 C1356 C 0.62710 0.33204 0.83612
 H1357 H 0.57517 0.37636 0.87401
 H1358 H 0.66087 0.37174 0.86967
 H1359 H 0.63805 0.42301 0.91505
 H1360 H 0.59939 0.32328 0.82838
 C1361 C 0.61551 0.07927 0.91988
 C1362 C 0.61035 0.10947 0.88858
 C1363 C 0.64003 0.13030 0.87105
 C1364 C 0.63467 0.16007 0.83935
 H1365 H 0.58299 0.11687 0.87743
 H1366 H 0.66746 0.12314 0.88211
 H1367 H 0.64326 0.07249 0.93017
 H1368 H 0.60696 0.16655 0.82869
 C1369 C 0.89612 0.40264 0.89765
 C1370 C 0.90734 0.37558 0.86779
 C1371 C 0.88319 0.34871 0.84284
 C1372 C 0.84902 0.34084 0.85550
 H1373 H 0.93606 0.37328 0.85960
 H1374 H 0.89446 0.33462 0.81318
 H1375 H 0.86747 0.40675 0.90490
 H1376 H 0.83772 0.35428 0.88549
 C1377 C 0.00127 0.50146 0.79772
 C1378 C 0.00104 0.46853 0.76978
 C1379 C -0.00097 0.46856 0.72185
 C1380 C -0.00292 0.50146 0.69354
 H1381 H 0.00234 0.44028 0.78588
 H1382 H -0.00066 0.44041 0.70595
 H1383 H -0.00005 0.52985 0.78219
 H1384 H -0.00321 0.52993 0.70840
 C1385 C 0.25618 0.74992 0.44666
 C1386 C 0.25376 0.78173 0.47247
 C1387 C 0.25372 0.78193 0.52306
 C1388 C 0.25332 0.75019 0.54962
 H1389 H 0.25134 0.80970 0.45595
 H1390 H 0.25314 0.81010 0.53887
 H1391 H 0.25900 0.72167 0.46211
 H1392 H 0.25347 0.72173 0.53482
 C1393 C 0.11347 0.57815 0.59502
 C1394 C 0.10885 0.61107 0.61744
 C1395 C 0.14059 0.63177 0.63632
 C1396 C 0.13576 0.66485 0.65834
 H1397 H 0.08176 0.62334 0.62083
 H1398 H 0.16779 0.61993 0.63234
 H1399 H 0.14086 0.56671 0.59118
 H1400 H 0.10823 0.67579 0.66262
 C1401 C 0.37758 0.92354 0.58606
 C1402 C 0.38320 0.89331 0.61380
 C1403 C 0.35314 0.87057 0.63276
 C1404 C 0.36032 0.84020 0.65966
 H1405 H 0.41078 0.88442 0.62228
 H1406 H 0.32527 0.87880 0.62498
 H1407 H 0.35007 0.93207 0.57687
 H1408 H 0.38836 0.83272 0.66759
 C1409 C 0.36523 0.67188 0.66200
 C1410 C 0.35987 0.64072 0.63594
 C1411 C 0.39065 0.61855 0.61666
 C1412 C 0.38450 0.58743 0.59084
 H1413 H 0.33231 0.63107 0.62889
 H1414 H 0.41834 0.62801 0.62319
 H1415 H 0.39284 0.68108 0.66950
 H1416 H 0.35659 0.57868 0.58423
 C1417 C 0.11716 0.92476 0.59172
 C1418 C 0.11129 0.89326 0.61680
 C1419 C 0.14151 0.87067 0.63486
 C1420 C 0.13461 0.83795 0.65719
 H1421 H 0.08370 0.88315 0.62305
 H1422 H 0.16925 0.88085 0.63010
 H1423 H 0.14476 0.93421 0.58432
 H1424 H 0.10667 0.82842 0.66210
 C1425 C 0.38220 0.58493 0.91060
 C1426 C 0.38710 0.61827 0.88820
 C1427 C 0.35574 0.64006 0.86971
 C1428 C 0.36081 0.67339 0.84733
 H1429 H 0.41439 0.62982 0.88376
 H1430 H 0.32849 0.62826 0.87344
 H1431 H 0.35472 0.57415 0.91579
 H1432 H 0.38831 0.68440 0.84303
 C1433 C 0.10986 0.91847 0.90621
 C1434 C 0.10444 0.88847 0.87531
 C1435 C 0.13419 0.86796 0.85828
 C1436 C 0.12945 0.83700 0.82865
 H1437 H 0.07704 0.88035 0.86520
 H1438 H 0.16150 0.87613 0.86869
 H1439 H 0.13770 0.92558 0.91570
 H1440 H 0.10201 0.82914 0.81841
 C1441 C 0.11410 0.58236 0.90435
 C1442 C 0.10794 0.61185 0.87625
 C1443 C 0.13860 0.63396 0.85792
 C1444 C 0.13251 0.66444 0.83131
 H1445 H 0.08028 0.62025 0.86756
 H1446 H 0.16626 0.62545 0.86655
 H1447 H 0.14192 0.57459 0.91319
 H1448 H 0.10474 0.67252 0.82270
 C1449 C 0.39784 0.90262 0.89844
 C1450 C 0.40892 0.87639 0.86741
 C1451 C 0.38471 0.85032 0.84115
 C1452 C 0.35034 0.84237 0.85302
 H1453 H 0.43769 0.87395 0.85956
 H1454 H 0.39617 0.83671 0.81129
 H1455 H 0.36918 0.90682 0.90556
 H1456 H 0.33884 0.85544 0.88311
 C1457 C 0.49447 0.50516 0.79998
 C1458 C 0.49562 0.47341 0.77404
 C1459 C 0.49553 0.47352 0.72357
 C1460 C 0.49709 0.50536 0.69726
 H1461 H 0.49663 0.44525 0.79032
 H1462 H 0.49458 0.44542 0.70761
 H1463 H 0.49305 0.53361 0.78478
 H1464 H 0.49844 0.53376 0.71212
 C1465 C 0.74394 0.74319 0.44422
 C1466 C 0.74869 0.77500 0.46936
 C1467 C 0.74860 0.77545 0.51953
 C1468 C 0.75120 0.74377 0.54579
 H1469 H 0.75245 0.80272 0.45266
 H1470 H 0.74720 0.80365 0.53522
 H1471 H 0.73908 0.71535 0.45995
 H1472 H 0.75364 0.71540 0.53100
 C1473 C 0.61305 0.58663 0.58251
 C1474 C 0.60819 0.61524 0.61194
 C1475 C 0.63980 0.63577 0.63078
 C1476 C 0.63494 0.66464 0.65986
 H1477 H 0.58089 0.62357 0.62220
 H1478 H 0.66710 0.62731 0.62069
 H1479 H 0.64054 0.57864 0.57260
 H1480 H 0.60745 0.67285 0.66950
 C1481 C 0.89558 0.90546 0.60437
 C1482 C 0.90812 0.88280 0.63862
 C1483 C 0.88610 0.85348 0.66280
 C1484 C 0.86012 0.83324 0.64210
 H1485 H 0.93573 0.88648 0.65103
 H1486 H 0.89187 0.84823 0.69849
 H1487 H 0.86725 0.90416 0.59402
 H1488 H 0.85434 0.83859 0.60643
 C1489 C 0.88441 0.58510 0.57359
 C1490 C 0.88953 0.61439 0.60249
 C1491 C 0.85844 0.63598 0.62192
 C1492 C 0.86416 0.66499 0.65101
 H1493 H 0.91699 0.62234 0.61248
 H1494 H 0.83086 0.62770 0.61294
 H1495 H 0.85687 0.57743 0.56366
 H1496 H 0.89196 0.67279 0.65964
 C1497 C 0.59906 0.90076 0.60511
 C1498 C 0.58656 0.87483 0.63587
 C1499 C 0.61034 0.84786 0.66139
 C1500 C 0.64259 0.83666 0.64525
 H1501 H 0.55775 0.87374 0.64395
 H1502 H 0.60077 0.83684 0.69387
 H1503 H 0.62799 0.90397 0.59886
 H1504 H 0.65176 0.84686 0.61227
 C1505 C 0.88530 0.58154 0.90637
 C1506 C 0.89062 0.61435 0.88305
 C1507 C 0.85954 0.63637 0.86433
 C1508 C 0.86514 0.66811 0.83914
 H1509 H 0.91808 0.62504 0.87750
 H1510 H 0.83203 0.62595 0.87018
 H1511 H 0.85768 0.57130 0.91200
 H1512 H 0.89286 0.67766 0.83270
 C1513 C 0.61985 0.91290 0.91471
 C1514 C 0.61509 0.88461 0.88170
 C1515 C 0.64488 0.86589 0.86245
 C1516 C 0.63931 0.83712 0.83036
 H1517 H 0.58780 0.87671 0.87085
 H1518 H 0.67232 0.87342 0.87297
 H1519 H 0.64744 0.92025 0.92503
 H1520 H 0.61153 0.82998 0.82069
 C1521 C 0.61214 0.58738 0.91053
 C1522 C 0.60756 0.61753 0.88258
 C1523 C 0.63953 0.63804 0.86362
 C1524 C 0.63514 0.66792 0.83521
 H1525 H 0.58029 0.62706 0.87359
 H1526 H 0.66677 0.62844 0.87267
 H1527 H 0.63966 0.57838 0.91918
 H1528 H 0.60770 0.67699 0.82630
 C1529 C 0.88448 0.91448 0.91040
 C1530 C 0.89058 0.88479 0.88257
 C1531 C 0.86000 0.86311 0.86272
 C1532 C 0.86605 0.83354 0.83470
 H1533 H 0.91828 0.87634 0.87433
 H1534 H 0.83230 0.87173 0.87076
 H1535 H 0.85664 0.92246 0.91865
 H1536 H 0.89388 0.82538 0.82665
   
