data_POSCAR
  _audit_creation_date              2014-09-24
  _audit_creation_method            'ToBaCCo'
  _symmetry_space_group_name_H-M    'P1'
  _symmetry_Int_Tables_number       1
  _symmetry_cell_setting            triclinic
  loop_
  _symmetry_equiv_pos_as_xyz
 x,y,z
_cell_length_a 86.9409
_cell_length_b 86.9772
_cell_length_c 87.6694
_cell_angle_alpha 89.952100
_cell_angle_beta 89.955600
_cell_angle_gamma 89.950700
loop_
  _atom_site_label
  _atom_site_type_symbol
  _atom_site_fract_x
  _atom_site_fract_y
  _atom_site_fract_z
N1 N 0.35764 0.31531 0.32889
 N2 N 0.35766 0.32603 0.31829
 C3 C 0.36971 0.32368 0.30889
 C4 C 0.37750 0.31082 0.31389
 C5 C 0.36959 0.30574 0.32655
 H6 H 0.37263 0.33077 0.29917
 H7 H 0.37232 0.29582 0.33350
 Cu8 Cu 0.34177 0.34184 0.31765
 Cu9 Cu 0.34212 0.31458 0.34489
 Cu10 Cu 0.31414 0.34294 0.34456
 N11 N 0.32618 0.35793 0.31788
 N12 N 0.31533 0.35820 0.32836
 C13 C 0.30598 0.37027 0.32580
 C14 C 0.31132 0.37795 0.31312
 C15 C 0.32411 0.36991 0.30833
 H16 H 0.29605 0.37324 0.33263
 H17 H 0.33136 0.37263 0.29867
 N18 N 0.31482 0.32649 0.35999
 N19 N 0.32548 0.31566 0.36013
 C20 C 0.32287 0.30619 0.37203
 C21 C 0.31003 0.31140 0.37966
 C22 C 0.30515 0.32421 0.37180
 H23 H 0.32980 0.29630 0.37500
 H24 H 0.29535 0.33134 0.37456
 H25 H 0.32456 0.32522 0.33249
 H26 H 0.33705 0.33768 0.34461
 N27 N 0.35784 0.81582 -0.17163
 N28 N 0.35785 0.82655 -0.18223
 C29 C 0.36986 0.82418 -0.19168
 C30 C 0.37764 0.81133 -0.18667
 C31 C 0.36980 0.80627 -0.17397
 H32 H 0.37275 0.83125 -0.20143
 H33 H 0.37261 0.79642 -0.16695
 Cu34 Cu 0.34220 0.84258 -0.18259
 Cu35 Cu 0.34237 0.81506 -0.15559
 Cu36 Cu 0.31434 0.84344 -0.15595
 N37 N 0.32637 0.85844 -0.18261
 N38 N 0.31550 0.85867 -0.17215
 C39 C 0.30614 0.87074 -0.17469
 C40 C 0.31146 0.87840 -0.18739
 C41 C 0.32428 0.87040 -0.19219
 H42 H 0.29626 0.87376 -0.16781
 H43 H 0.33152 0.87313 -0.20186
 N44 N 0.31508 0.82703 -0.14047
 N45 N 0.32576 0.81622 -0.14032
 C46 C 0.32317 0.80677 -0.12840
 C47 C 0.31030 0.81193 -0.12081
 C48 C 0.30541 0.82474 -0.12866
 H49 H 0.33011 0.79688 -0.12544
 H50 H 0.29558 0.83184 -0.12593
 H51 H 0.32518 0.82596 -0.16777
 H52 H 0.33754 0.83831 -0.15546
 N53 N 0.85706 0.31656 -0.17181
 N54 N 0.85746 0.32738 -0.18229
 C55 C 0.86950 0.32479 -0.19165
 C56 C 0.87691 0.31170 -0.18669
 C57 C 0.86882 0.30673 -0.17411
 H58 H 0.87266 0.33185 -0.20131
 H59 H 0.87130 0.29674 -0.16717
 Cu60 Cu 0.84224 0.34378 -0.18272
 Cu61 Cu 0.84138 0.31604 -0.15597
 Cu62 Cu 0.81359 0.34463 -0.15687
 N63 N 0.82634 0.35954 -0.18328
 N64 N 0.81515 0.35978 -0.17316
 C65 C 0.80580 0.37177 -0.17611
 C66 C 0.81148 0.37933 -0.18873
 C67 C 0.82449 0.37138 -0.19304
 H68 H 0.79568 0.37478 -0.16956
 H69 H 0.83201 0.37404 -0.20251
 N70 N 0.81398 0.32829 -0.14128
 N71 N 0.82460 0.31742 -0.14093
 C72 C 0.82187 0.30809 -0.12897
 C73 C 0.80896 0.31337 -0.12153
 C74 C 0.80420 0.32614 -0.12953
 H75 H 0.82875 0.29822 -0.12583
 H76 H 0.79438 0.33333 -0.12693
 H77 H 0.82462 0.32720 -0.16863
 H78 H 0.83669 0.33934 -0.15580
 N79 N 0.85733 0.81607 0.32848
 N80 N 0.85779 0.82689 0.31799
 C81 C 0.86989 0.82431 0.30873
 C82 C 0.87729 0.81123 0.31373
 C83 C 0.86910 0.80625 0.32625
 H84 H 0.87313 0.83139 0.29910
 H85 H 0.87155 0.79627 0.33321
 Cu86 Cu 0.84254 0.84327 0.31746
 Cu87 Cu 0.84160 0.81557 0.34426
 Cu88 Cu 0.81387 0.84423 0.34325
 N89 N 0.82665 0.85903 0.31681
 N90 N 0.81546 0.85933 0.32692
 C91 C 0.80612 0.87132 0.32392
 C92 C 0.81182 0.87883 0.31129
 C93 C 0.82482 0.87084 0.30701
 H94 H 0.79600 0.87436 0.33045
 H95 H 0.83234 0.87346 0.29752
 N96 N 0.81421 0.82794 0.35888
 N97 N 0.82477 0.81701 0.35924
 C98 C 0.82195 0.80768 0.37119
 C99 C 0.80906 0.81303 0.37861
 C100 C 0.80440 0.82584 0.37062
 H101 H 0.82876 0.79775 0.37432
 H102 H 0.79462 0.83309 0.37321
 H103 H 0.82492 0.82675 0.33159
 H104 H 0.83701 0.83890 0.34441
 N105 N 0.64220 0.68271 0.32651
 N106 N 0.64266 0.67233 0.31561
 C107 C 0.63090 0.67483 0.30591
 C108 C 0.62269 0.68730 0.31113
 C109 C 0.63010 0.69209 0.32418
 H110 H 0.62845 0.66812 0.29584
 H111 H 0.62689 0.70163 0.33144
 Cu112 Cu 0.65857 0.65661 0.31519
 Cu113 Cu 0.65748 0.68337 0.34275
 Cu114 Cu 0.68573 0.65516 0.34233
 N115 N 0.67436 0.64076 0.31511
 N116 N 0.68488 0.64015 0.32587
 C117 C 0.69424 0.62809 0.32324
 C118 C 0.68928 0.62088 0.31014
 C119 C 0.67672 0.62916 0.30521
 H120 H 0.70388 0.62477 0.33031
 H121 H 0.66987 0.62686 0.29520
 N122 N 0.68463 0.67131 0.35809
 N123 N 0.67388 0.68206 0.35823
 C124 C 0.67618 0.69132 0.37033
 C125 C 0.68896 0.68613 0.37804
 C126 C 0.69406 0.67346 0.37010
 H127 H 0.66912 0.70109 0.37335
 H128 H 0.70387 0.66636 0.37292
 H129 H 0.67476 0.67264 0.33106
 H130 H 0.66217 0.65987 0.34277
 N131 N 0.64269 0.18219 -0.17372
 N132 N 0.64286 0.17160 -0.18441
 C133 C 0.63096 0.17401 -0.19400
 C134 C 0.62303 0.18675 -0.18895
 C135 C 0.63068 0.19170 -0.17610
 H136 H 0.62823 0.16705 -0.20387
 H137 H 0.62775 0.20143 -0.16901
 Cu138 Cu 0.65861 0.15573 -0.18473
 Cu139 Cu 0.65801 0.18284 -0.15755
 Cu140 Cu 0.68619 0.15457 -0.15798
 N141 N 0.67445 0.13993 -0.18494
 N142 N 0.68521 0.13953 -0.17440
 C143 C 0.69462 0.12752 -0.17710
 C144 C 0.68942 0.12012 -0.19000
 C145 C 0.67664 0.12819 -0.19475
 H146 H 0.70444 0.12441 -0.17019
 H147 H 0.66950 0.12565 -0.20456
 N148 N 0.68523 0.17080 -0.14232
 N149 N 0.67451 0.18158 -0.14217
 C150 C 0.67692 0.19090 -0.13012
 C151 C 0.68970 0.18568 -0.12243
 C152 C 0.69473 0.17298 -0.13037
 H153 H 0.66990 0.20071 -0.12712
 H154 H 0.70455 0.16586 -0.12759
 H155 H 0.67537 0.17214 -0.16974
 H156 H 0.66293 0.15956 -0.15762
 N157 N 0.14220 0.68271 -0.17333
 N158 N 0.14288 0.67225 -0.18414
 C159 C 0.13104 0.67439 -0.19384
 C160 C 0.12263 0.68681 -0.18878
 C161 C 0.12994 0.69186 -0.17578
 H162 H 0.12867 0.66745 -0.20380
 H163 H 0.12656 0.70142 -0.16863
 Cu164 Cu 0.15903 0.65675 -0.18443
 Cu165 Cu 0.15723 0.68368 -0.15689
 Cu166 Cu 0.18566 0.65573 -0.15660
 N167 N 0.17484 0.64090 -0.18380
 N168 N 0.18518 0.64055 -0.17285
 C169 C 0.19459 0.62845 -0.17504
 C170 C 0.18987 0.62090 -0.18801
 C171 C 0.17734 0.62901 -0.19334
 H172 H 0.20412 0.62533 -0.16773
 H173 H 0.17058 0.62639 -0.20335
 N174 N 0.18427 0.67205 -0.14112
 N175 N 0.17346 0.68273 -0.14123
 C176 C 0.17566 0.69223 -0.12928
 C177 C 0.18841 0.68722 -0.12140
 C178 C 0.19362 0.67445 -0.12911
 H179 H 0.16856 0.70205 -0.12651
 H180 H 0.20349 0.66748 -0.12616
 H181 H 0.17503 0.67328 -0.16855
 H182 H 0.16228 0.66044 -0.15704
 N183 N 0.14171 0.18276 0.32732
 N184 N 0.14175 0.17187 0.31692
 C185 C 0.12991 0.17418 0.30727
 C186 C 0.12215 0.18717 0.31193
 C187 C 0.12985 0.19237 0.32465
 H188 H 0.12712 0.16701 0.29759
 H189 H 0.12703 0.20237 0.33144
 Cu190 Cu 0.15727 0.15575 0.31689
 Cu191 Cu 0.15703 0.18365 0.34349
 Cu192 Cu 0.18535 0.15558 0.34331
 N193 N 0.17349 0.14035 0.31674
 N194 N 0.18446 0.14036 0.32708
 C195 C 0.19409 0.12854 0.32437
 C196 C 0.18885 0.12081 0.31169
 C197 C 0.17580 0.12852 0.30709
 H198 H 0.20411 0.12573 0.33113
 H199 H 0.16856 0.12567 0.29747
 N200 N 0.18431 0.17194 0.35881
 N201 N 0.17351 0.18264 0.35890
 C202 C 0.17580 0.19198 0.37095
 C203 C 0.18859 0.18687 0.37870
 C204 C 0.19375 0.17421 0.37079
 H205 H 0.16866 0.20172 0.37394
 H206 H 0.20358 0.16714 0.37364
 H207 H 0.17426 0.17277 0.33121
 H208 H 0.16214 0.16047 0.34388
 N209 N 0.64187 0.31729 0.67359
 N210 N 0.64205 0.32833 0.68384
 C211 C 0.63031 0.32619 0.69366
 C212 C 0.62247 0.31318 0.68924
 C213 C 0.63002 0.30778 0.67651
 H214 H 0.62760 0.33353 0.70324
 H215 H 0.62707 0.29774 0.66986
 Cu216 Cu 0.65752 0.34444 0.68328
 Cu217 Cu 0.65693 0.31611 0.65721
 Cu218 Cu 0.68511 0.34426 0.65631
 N219 N 0.67362 0.35993 0.68282
 N220 N 0.68438 0.35981 0.67225
 C221 C 0.69404 0.37167 0.67463
 C222 C 0.68901 0.37952 0.68734
 C223 C 0.67609 0.37186 0.69230
 H224 H 0.70396 0.37436 0.66768
 H225 H 0.66908 0.37477 0.70207
 N226 N 0.68389 0.32756 0.64120
 N227 N 0.67313 0.31684 0.64154
 C228 C 0.67528 0.30719 0.62971
 C229 C 0.68795 0.31211 0.62166
 C230 C 0.69317 0.32499 0.62914
 H231 H 0.66815 0.29736 0.62708
 H232 H 0.70295 0.33198 0.62598
 H233 H 0.67431 0.32734 0.66886
 H234 H 0.66187 0.33938 0.65624
 N235 N 0.64153 0.81684 1.17341
 N236 N 0.64178 0.82775 1.18379
 C237 C 0.62999 0.82560 1.19355
 C238 C 0.62204 0.81272 1.18894
 C239 C 0.62958 0.80741 1.17617
 H240 H 0.62732 0.83285 1.20321
 H241 H 0.62655 0.79748 1.16938
 Cu242 Cu 0.65736 0.84377 1.18343
 Cu243 Cu 0.65662 0.81575 1.15705
 Cu244 Cu 0.68498 0.84374 1.15649
 N245 N 0.67351 0.85922 1.18314
 N246 N 0.68427 0.85917 1.17258
 C247 C 0.69390 0.87105 1.17499
 C248 C 0.68885 0.87885 1.18772
 C249 C 0.67594 0.87114 1.19265
 H250 H 0.70378 0.87382 1.16801
 H251 H 0.66888 0.87402 1.20240
 N252 N 0.68370 0.82717 1.14122
 N253 N 0.67286 0.81653 1.14142
 C254 C 0.67501 0.80694 1.12955
 C255 C 0.68778 0.81181 1.12161
 C256 C 0.69305 0.82461 1.12921
 H257 H 0.66785 0.79717 1.12683
 H258 H 0.70291 0.83153 1.12617
 H259 H 0.67408 0.82674 1.16885
 H260 H 0.66174 0.83901 1.15634
 N261 N 0.14196 0.31689 1.17358
 N262 N 0.14265 0.32734 1.18439
 C263 C 0.13085 0.32519 1.19415
 C264 C 0.12244 0.31277 1.18912
 C265 C 0.12973 0.30773 1.17608
 H266 H 0.12850 0.33212 1.20412
 H267 H 0.12635 0.29817 1.16895
 Cu268 Cu 0.15877 0.34284 1.18462
 Cu269 Cu 0.15696 0.31593 1.15709
 Cu270 Cu 0.18538 0.34385 1.15671
 N271 N 0.17456 0.35868 1.18394
 N272 N 0.18489 0.35902 1.17297
 C273 C 0.19432 0.37109 1.17515
 C274 C 0.18961 0.37863 1.18815
 C275 C 0.17708 0.37055 1.19349
 H276 H 0.20386 0.37418 1.16784
 H277 H 0.17033 0.37318 1.20353
 N278 N 0.18398 0.32752 1.14124
 N279 N 0.17316 0.31686 1.14137
 C280 C 0.17534 0.30738 1.12941
 C281 C 0.18808 0.31237 1.12149
 C282 C 0.19331 0.32511 1.12920
 H283 H 0.16823 0.29757 1.12665
 H284 H 0.20318 0.33206 1.12623
 H285 H 0.17482 0.32634 1.16869
 H286 H 0.16206 0.33919 1.15722
 N287 N 0.14175 0.81727 0.67372
 N288 N 0.14195 0.82824 0.68404
 C289 C 0.13014 0.82612 0.69379
 C290 C 0.12222 0.81318 0.68926
 C291 C 0.12982 0.80781 0.67653
 H292 H 0.12745 0.83341 0.70342
 H293 H 0.12686 0.79782 0.66981
 Cu294 Cu 0.15764 0.84419 0.68373
 Cu295 Cu 0.15692 0.81607 0.65738
 Cu296 Cu 0.18536 0.84396 0.65695
 N297 N 0.17392 0.85955 0.68351
 N298 N 0.18473 0.85936 0.67300
 C299 C 0.19448 0.87113 0.67541
 C300 C 0.18948 0.87902 0.68809
 C301 C 0.17645 0.87147 0.69300
 H302 H 0.20443 0.87377 0.66848
 H303 H 0.16939 0.87447 0.70271
 N304 N 0.18412 0.82746 0.64166
 N305 N 0.17329 0.81682 0.64179
 C306 C 0.17551 0.80729 0.62987
 C307 C 0.18829 0.81223 0.62198
 C308 C 0.19350 0.82499 0.62967
 H309 H 0.16835 0.79753 0.62706
 H310 H 0.20335 0.83197 0.62668
 H311 H 0.17425 0.82694 0.66926
 H312 H 0.16201 0.83923 0.65668
 N313 N 0.35796 0.68488 0.67216
 N314 N 0.35826 0.67390 0.68249
 C315 C 0.37017 0.67636 0.69201
 C316 C 0.37762 0.68952 0.68731
 C317 C 0.36966 0.69467 0.67473
 H318 H 0.37325 0.66915 0.70159
 H319 H 0.37222 0.70474 0.66794
 Cu320 Cu 0.34309 0.65743 0.68249
 Cu321 Cu 0.34252 0.68559 0.65612
 Cu322 Cu 0.31479 0.65701 0.65627
 N323 N 0.32713 0.64175 0.68264
 N324 N 0.31609 0.64168 0.67238
 C325 C 0.30666 0.62972 0.67507
 C326 C 0.31210 0.62196 0.68765
 C327 C 0.32507 0.62980 0.69223
 H328 H 0.29662 0.62685 0.66837
 H329 H 0.33241 0.62697 0.70178
 N330 N 0.31541 0.67350 0.64090
 N331 N 0.32599 0.68440 0.64081
 C332 C 0.32344 0.69380 0.62885
 C333 C 0.31069 0.68851 0.62117
 C334 C 0.30585 0.67568 0.62901
 H335 H 0.33036 0.70368 0.62586
 H336 H 0.29615 0.66845 0.62617
 H337 H 0.32560 0.67419 0.66844
 H338 H 0.33787 0.66224 0.65557
 N339 N 0.35837 0.18470 1.17169
 N340 N 0.35872 0.17386 1.18216
 C341 C 0.37070 0.17644 1.19157
 C342 C 0.37812 0.18954 1.18667
 C343 C 0.37008 0.19453 1.17407
 H344 H 0.37383 0.16934 1.20122
 H345 H 0.37259 0.20452 1.16715
 Cu346 Cu 0.34356 0.15740 1.18239
 Cu347 Cu 0.34285 0.18524 1.15571
 Cu348 Cu 0.31534 0.15641 1.15623
 N349 N 0.32786 0.14146 1.18269
 N350 N 0.31683 0.14117 1.17243
 C351 C 0.30755 0.12911 1.17520
 C352 C 0.31310 0.12151 1.18784
 C353 C 0.32597 0.12955 1.19236
 H354 H 0.29753 0.12609 1.16855
 H355 H 0.33334 0.12690 1.20193
 N356 N 0.31569 0.17283 1.14076
 N357 N 0.32620 0.18380 1.14054
 C358 C 0.32340 0.19320 1.12864
 C359 C 0.31057 0.18786 1.12114
 C360 C 0.30593 0.17498 1.12902
 H361 H 0.33017 0.20317 1.12560
 H362 H 0.29618 0.16775 1.12637
 H363 H 0.32609 0.17401 1.16814
 H364 H 0.33847 0.16201 1.15544
 N365 N 0.85865 0.68521 1.17219
 N366 N 0.85845 0.67467 1.18297
 C367 C 0.87034 0.67713 1.19252
 C368 C 0.87827 0.68984 1.18738
 C369 C 0.87063 0.69472 1.17451
 H370 H 0.87306 0.67022 1.20242
 H371 H 0.87358 0.70443 1.16738
 Cu372 Cu 0.84272 0.65879 1.18343
 Cu373 Cu 0.84341 0.68583 1.15599
 Cu374 Cu 0.81561 0.65727 1.15608
 N375 N 0.82725 0.64264 1.18312
 N376 N 0.81670 0.64208 1.17238
 C377 C 0.80762 0.62978 1.17476
 C378 C 0.81280 0.62231 1.18765
 C379 C 0.82523 0.63069 1.19271
 H380 H 0.79803 0.62646 1.16764
 H381 H 0.83226 0.62820 1.20258
 N382 N 0.81644 0.67367 1.14056
 N383 N 0.82704 0.68456 1.14056
 C384 C 0.82454 0.69404 1.12865
 C385 C 0.81182 0.68883 1.12089
 C386 C 0.80693 0.67595 1.12863
 H387 H 0.83142 0.70399 1.12581
 H388 H 0.79717 0.66881 1.12577
 H389 H 0.82598 0.67497 1.16789
 H390 H 0.83881 0.66247 1.15612
 N391 N 0.85824 0.18497 0.67197
 N392 N 0.85797 0.17456 0.68287
 C393 C 0.86986 0.17706 0.69240
 C394 C 0.87787 0.18966 0.68712
 C395 C 0.87028 0.19443 0.67418
 H396 H 0.87253 0.17025 0.70238
 H397 H 0.87330 0.20403 0.66693
 Cu398 Cu 0.84223 0.15867 0.68347
 Cu399 Cu 0.84297 0.18553 0.65579
 Cu400 Cu 0.81525 0.15693 0.65598
 N401 N 0.82687 0.14242 0.68309
 N402 N 0.81640 0.14174 0.67228
 C403 C 0.80737 0.12940 0.67467
 C404 C 0.81249 0.12204 0.68763
 C405 C 0.82485 0.13051 0.69273
 H406 H 0.79782 0.12601 0.66752
 H407 H 0.83182 0.12813 0.70267
 N408 N 0.81599 0.17332 0.64044
 N409 N 0.82658 0.18420 0.64039
 C410 C 0.82403 0.19369 0.62850
 C411 C 0.81127 0.18850 0.62081
 C412 C 0.80641 0.17561 0.62857
 H413 H 0.83089 0.20365 0.62564
 H414 H 0.79662 0.16849 0.62578
 H415 H 0.82558 0.17473 0.66771
 H416 H 0.83850 0.16216 0.65611
 N417 N 0.31682 0.35714 0.67269
 N418 N 0.32753 0.35672 0.68328
 C419 C 0.32549 0.36865 0.69287
 C420 C 0.31286 0.37686 0.68798
 C421 C 0.30760 0.36933 0.67518
 H422 H 0.33263 0.37123 0.70263
 H423 H 0.29783 0.37251 0.66822
 Cu424 Cu 0.34311 0.34065 0.68345
 Cu425 Cu 0.31568 0.34193 0.65644
 Cu426 Cu 0.34369 0.31354 0.65611
 N427 N 0.35892 0.32482 0.68293
 N428 N 0.35907 0.31425 0.67220
 C429 C 0.37114 0.30481 0.67444
 C430 C 0.37887 0.30976 0.68722
 C431 C 0.37091 0.32245 0.69238
 H432 H 0.37408 0.29509 0.66731
 H433 H 0.37370 0.32939 0.70222
 N434 N 0.32716 0.31474 0.64082
 N435 N 0.31646 0.32554 0.64094
 C436 C 0.30685 0.32324 0.62910
 C437 C 0.31181 0.31043 0.62127
 C438 C 0.32464 0.30529 0.62891
 H439 H 0.29701 0.33032 0.62634
 H440 H 0.33160 0.29541 0.62598
 H441 H 0.32633 0.32423 0.66824
 H442 H 0.33891 0.33678 0.65626
 N443 N 0.31671 0.85789 0.17178
 N444 N 0.32750 0.85771 0.18230
 C445 C 0.32534 0.86966 0.19183
 C446 C 0.31254 0.87764 0.18698
 C447 C 0.30733 0.86998 0.17425
 H448 H 0.33248 0.87237 0.20156
 H449 H 0.29744 0.87293 0.16734
 Cu450 Cu 0.34329 0.84184 0.18251
 Cu451 Cu 0.31566 0.84250 0.15569
 Cu452 Cu 0.34376 0.81417 0.15575
 N453 N 0.35894 0.82583 0.18243
 N454 N 0.35906 0.81508 0.17189
 C455 C 0.37102 0.80554 0.17440
 C456 C 0.37869 0.81065 0.18716
 C457 C 0.37081 0.82350 0.19203
 H458 H 0.37392 0.79567 0.16747
 H459 H 0.37356 0.83061 0.20178
 N460 N 0.32730 0.81517 0.14037
 N461 N 0.31655 0.82593 0.14037
 C462 C 0.30704 0.82352 0.12847
 C463 C 0.31212 0.81071 0.12073
 C464 C 0.32493 0.80567 0.12847
 H465 H 0.29720 0.83055 0.12559
 H466 H 0.33199 0.79585 0.12559
 H467 H 0.32648 0.82518 0.16764
 H468 H 0.33893 0.83749 0.15534
 N469 N 0.81639 0.35704 0.17078
 N470 N 0.82687 0.35677 0.18160
 C471 C 0.82454 0.36878 0.19104
 C472 C 0.81197 0.37686 0.18580
 C473 C 0.80704 0.36919 0.17297
 H474 H 0.83144 0.37147 0.20095
 H475 H 0.79740 0.37223 0.16578
 Cu476 Cu 0.84256 0.34080 0.18223
 Cu477 Cu 0.81561 0.34162 0.15473
 Cu478 Cu 0.84380 0.31342 0.15515
 N479 N 0.85853 0.32509 0.18210
 N480 N 0.85896 0.31445 0.17144
 C481 C 0.87111 0.30517 0.17390
 C482 C 0.87861 0.31030 0.18676
 C483 C 0.87042 0.32292 0.19172
 H484 H 0.87429 0.29547 0.16687
 H485 H 0.87299 0.32998 0.20155
 N486 N 0.82748 0.31432 0.13961
 N487 N 0.81672 0.32505 0.13946
 C488 C 0.80730 0.32256 0.12753
 C489 C 0.81242 0.30970 0.11991
 C490 C 0.82518 0.30472 0.12777
 H491 H 0.79745 0.32956 0.12456
 H492 H 0.83224 0.29485 0.12504
 H493 H 0.82624 0.32419 0.16681
 H494 H 0.83894 0.33670 0.15493
 N495 N 0.81671 0.85727 0.67094
 N496 N 0.82774 0.85756 0.68120
 C497 C 0.82537 0.86956 0.69065
 C498 C 0.81222 0.87705 0.68599
 C499 C 0.80698 0.86904 0.67349
 H500 H 0.83263 0.87264 0.70018
 H501 H 0.79687 0.87161 0.66676
 Cu502 Cu 0.84406 0.84224 0.68132
 Cu503 Cu 0.81583 0.84173 0.65501
 Cu504 Cu 0.84411 0.81368 0.65535
 N505 N 0.85949 0.82601 0.68163
 N506 N 0.85942 0.81487 0.67147
 C507 C 0.87121 0.80525 0.67429
 C508 C 0.87901 0.81067 0.68684
 C509 C 0.87136 0.82382 0.69127
 H510 H 0.87394 0.79510 0.66771
 H511 H 0.87426 0.83119 0.70077
 N512 N 0.82766 0.81440 0.63993
 N513 N 0.81686 0.82509 0.63982
 C514 C 0.80740 0.82257 0.62791
 C515 C 0.81254 0.80973 0.62026
 C516 C 0.82536 0.80479 0.62809
 H517 H 0.79756 0.82956 0.62495
 H518 H 0.83248 0.79498 0.62530
 H519 H 0.82704 0.82489 0.66749
 H520 H 0.83909 0.83688 0.65444
 N521 N 0.68315 0.64186 0.67234
 N522 N 0.67247 0.64164 0.68298
 C523 C 0.67508 0.62967 0.69241
 C524 C 0.68804 0.62210 0.68733
 C525 C 0.69291 0.63005 0.67462
 H526 H 0.66812 0.62665 0.70219
 H527 H 0.70278 0.62743 0.66757
 Cu528 Cu 0.65620 0.65703 0.68345
 Cu529 Cu 0.68358 0.65738 0.65632
 Cu530 Cu 0.65506 0.68526 0.65722
 N531 N 0.64044 0.67293 0.68398
 N532 N 0.64009 0.68395 0.67370
 C533 C 0.62814 0.69335 0.67665
 C534 C 0.62069 0.68788 0.68943
 C535 C 0.62871 0.67495 0.69384
 H536 H 0.62506 0.70337 0.67000
 H537 H 0.62613 0.66759 0.70346
 N538 N 0.67122 0.68465 0.64145
 N539 N 0.68208 0.67402 0.64112
 C540 C 0.69131 0.67664 0.62904
 C541 C 0.68596 0.68948 0.62152
 C542 C 0.67326 0.69432 0.62959
 H543 H 0.70115 0.66973 0.62588
 H544 H 0.66604 0.70410 0.62695
 H545 H 0.67268 0.67433 0.66886
 H546 H 0.66033 0.66211 0.65638
 N547 N 0.68428 0.14195 0.17230
 N548 N 0.67413 0.14213 0.18344
 C549 C 0.67688 0.13018 0.19285
 C550 C 0.68937 0.12222 0.18727
 C551 C 0.69383 0.12990 0.17425
 H552 H 0.67028 0.12742 0.20295
 H553 H 0.70324 0.12691 0.16674
 Cu554 Cu 0.65816 0.15778 0.18450
 Cu555 Cu 0.68428 0.15728 0.15612
 Cu556 Cu 0.65545 0.18479 0.15703
 N557 N 0.64177 0.17304 0.18451
 N558 N 0.64075 0.18351 0.17372
 C559 C 0.62839 0.19245 0.17638
 C560 C 0.62137 0.18727 0.18949
 C561 C 0.63005 0.17497 0.19442
 H562 H 0.62475 0.20197 0.16930
 H563 H 0.62795 0.16798 0.20441
 N564 N 0.67141 0.18419 0.14107
 N565 N 0.68241 0.17371 0.14074
 C566 C 0.69154 0.17638 0.12860
 C567 C 0.68598 0.18911 0.12104
 C568 C 0.67325 0.19381 0.12915
 H569 H 0.70150 0.16964 0.12547
 H570 H 0.66594 0.20354 0.12656
 H571 H 0.67355 0.17462 0.16830
 H572 H 0.66079 0.16162 0.15703
 N573 N 0.18358 0.64161 0.17351
 N574 N 0.17315 0.64196 0.18438
 C575 C 0.17557 0.63009 0.19398
 C576 C 0.18815 0.62200 0.18879
 C577 C 0.19300 0.62952 0.17582
 H578 H 0.16874 0.62749 0.20397
 H579 H 0.20263 0.62644 0.16862
 Cu580 Cu 0.15741 0.65785 0.18495
 Cu581 Cu 0.18420 0.65683 0.15721
 Cu582 Cu 0.15588 0.68492 0.15760
 N583 N 0.14141 0.67349 0.18480
 N584 N 0.14086 0.68404 0.17405
 C585 C 0.12872 0.69332 0.17659
 C586 C 0.12136 0.68826 0.18957
 C587 C 0.12962 0.67569 0.19454
 H588 H 0.12546 0.70298 0.16951
 H589 H 0.12717 0.66871 0.20446
 N590 N 0.17206 0.68394 0.14188
 N591 N 0.18286 0.67324 0.14174
 C592 C 0.19217 0.67567 0.12967
 C593 C 0.18693 0.68844 0.12197
 C594 C 0.17421 0.69343 0.12991
 H595 H 0.20202 0.66869 0.12668
 H596 H 0.16708 0.70324 0.12715
 H597 H 0.17371 0.67429 0.16920
 H598 H 0.16096 0.66160 0.15760
 N599 N 0.18329 0.14113 0.67389
 N600 N 0.17252 0.14112 0.68445
 C601 C 0.17501 0.12930 0.69408
 C602 C 0.18797 0.12160 0.68925
 C603 C 0.19298 0.12932 0.67644
 H604 H 0.16796 0.12648 0.70386
 H605 H 0.20291 0.12654 0.66952
 Cu606 Cu 0.15632 0.15653 0.68461
 Cu607 Cu 0.18391 0.15645 0.65768
 Cu608 Cu 0.15552 0.18449 0.65808
 N609 N 0.14066 0.17250 0.68484
 N610 N 0.14042 0.18343 0.67445
 C611 C 0.12849 0.19290 0.67723
 C612 C 0.12093 0.18758 0.69001
 C613 C 0.12886 0.17467 0.69460
 H614 H 0.12549 0.20286 0.67045
 H615 H 0.12620 0.16742 0.70427
 N616 N 0.17179 0.18362 0.64245
 N617 N 0.18259 0.17292 0.64227
 C618 C 0.19188 0.17537 0.63019
 C619 C 0.18662 0.18816 0.62253
 C620 C 0.17392 0.19314 0.63050
 H621 H 0.20171 0.16838 0.62714
 H622 H 0.16677 0.20294 0.62775
 H623 H 0.17297 0.17362 0.66995
 H624 H 0.16064 0.16133 0.65752
 N625 N 0.31653 0.64201 0.32766
 N626 N 0.32761 0.64212 0.31742
 C627 C 0.32553 0.63030 0.30771
 C628 C 0.31250 0.62248 0.31216
 C629 C 0.30704 0.63012 0.32481
 H630 H 0.33289 0.62756 0.29814
 H631 H 0.29694 0.62725 0.33143
 Cu632 Cu 0.34362 0.65773 0.31771
 Cu633 Cu 0.31523 0.65728 0.34385
 Cu634 Cu 0.34318 0.68565 0.34425
 N635 N 0.35895 0.67400 0.31789
 N636 N 0.35871 0.68487 0.32831
 C637 C 0.37052 0.69457 0.32590
 C638 C 0.37851 0.68946 0.31332
 C639 C 0.37096 0.67644 0.30845
 H640 H 0.37314 0.70454 0.33278
 H641 H 0.37402 0.66930 0.29882
 N642 N 0.32655 0.68453 0.35943
 N643 N 0.31586 0.67374 0.35929
 C644 C 0.30618 0.67610 0.37108
 C645 C 0.31109 0.68893 0.37889
 C646 C 0.32398 0.69402 0.37130
 H647 H 0.29633 0.66904 0.37383
 H648 H 0.33095 0.70386 0.37426
 H649 H 0.32629 0.67451 0.33188
 H650 H 0.33844 0.66236 0.34468
 N651 N 0.31689 0.14218 0.82756
 N652 N 0.32759 0.14266 0.81696
 C653 C 0.32554 0.13079 0.80728
 C654 C 0.31292 0.12256 0.81215
 C655 C 0.30767 0.13001 0.82501
 H656 H 0.33268 0.12828 0.79748
 H657 H 0.29792 0.12679 0.83198
 Cu658 Cu 0.34318 0.15869 0.81687
 Cu659 Cu 0.31570 0.15732 0.84389
 Cu660 Cu 0.34370 0.18569 0.84429
 N661 N 0.35900 0.17449 0.81747
 N662 N 0.35912 0.18501 0.82823
 C663 C 0.37115 0.19449 0.82601
 C664 C 0.37889 0.18960 0.81320
 C665 C 0.37099 0.17691 0.80802
 H666 H 0.37406 0.20419 0.83316
 H667 H 0.37378 0.17001 0.79813
 N668 N 0.32715 0.18449 0.85956
 N669 N 0.31648 0.17368 0.85944
 C670 C 0.30689 0.17595 0.87132
 C671 C 0.31182 0.18875 0.87915
 C672 C 0.32463 0.19392 0.87149
 H673 H 0.29708 0.16885 0.87411
 H674 H 0.33157 0.20379 0.87443
 H675 H 0.32633 0.17496 0.83220
 H676 H 0.33892 0.16234 0.84411
 N677 N 0.81667 0.64159 0.82760
 N678 N 0.82740 0.64212 0.81702
 C679 C 0.82537 0.63029 0.80730
 C680 C 0.81273 0.62205 0.81212
 C681 C 0.80745 0.62945 0.82498
 H682 H 0.83249 0.62785 0.79747
 H683 H 0.79764 0.62625 0.83187
 Cu684 Cu 0.84287 0.65829 0.81701
 Cu685 Cu 0.81533 0.65667 0.84391
 Cu686 Cu 0.84302 0.68532 0.84443
 N687 N 0.85856 0.67423 0.81766
 N688 N 0.85852 0.68479 0.82840
 C689 C 0.87047 0.69438 0.82619
 C690 C 0.87833 0.68952 0.81343
 C691 C 0.87057 0.67674 0.80825
 H692 H 0.87324 0.70413 0.83332
 H693 H 0.87349 0.66984 0.79841
 N694 N 0.82640 0.68390 0.85966
 N695 N 0.81587 0.67296 0.85947
 C696 C 0.80615 0.67510 0.87127
 C697 C 0.81084 0.68795 0.87913
 C698 C 0.82366 0.69329 0.87157
 H699 H 0.79639 0.66788 0.87395
 H700 H 0.83043 0.70327 0.87455
 H701 H 0.82585 0.67446 0.83225
 H702 H 0.83851 0.66200 0.84423
 N703 N 0.81630 0.14190 0.32752
 N704 N 0.82700 0.14238 0.31691
 C705 C 0.82492 0.13050 0.30725
 C706 C 0.81228 0.12230 0.31215
 C707 C 0.80706 0.12976 0.32499
 H708 H 0.83202 0.12798 0.29744
 H709 H 0.79729 0.12659 0.33196
 Cu710 Cu 0.84255 0.15848 0.31680
 Cu711 Cu 0.81510 0.15702 0.34382
 Cu712 Cu 0.84299 0.18546 0.34429
 N713 N 0.85836 0.17433 0.31743
 N714 N 0.85845 0.18485 0.32821
 C715 C 0.87050 0.19433 0.32601
 C716 C 0.87828 0.18945 0.31320
 C717 C 0.87037 0.17677 0.30800
 H718 H 0.87339 0.20402 0.33318
 H719 H 0.87318 0.16987 0.29813
 N720 N 0.82640 0.18415 0.35957
 N721 N 0.81577 0.17331 0.35938
 C722 C 0.80607 0.17551 0.37117
 C723 C 0.81087 0.18831 0.37906
 C724 C 0.82373 0.19354 0.37151
 H725 H 0.79624 0.16838 0.37384
 H726 H 0.83060 0.20345 0.37451
 H727 H 0.82569 0.17476 0.33214
 H728 H 0.83831 0.16218 0.34404
 N729 N 0.68443 0.35887 0.32671
 N730 N 0.67355 0.35903 0.31629
 C731 C 0.67609 0.37085 0.30665
 C732 C 0.68919 0.37837 0.31138
 C733 C 0.69423 0.37056 0.32409
 H734 H 0.66897 0.37381 0.29697
 H735 H 0.70423 0.37320 0.33093
 Cu736 Cu 0.65715 0.34380 0.31634
 Cu737 Cu 0.68510 0.34364 0.34294
 Cu738 Cu 0.65655 0.31587 0.34291
 N739 N 0.64144 0.32785 0.31628
 N740 N 0.64129 0.31694 0.32668
 C741 C 0.62937 0.30745 0.32399
 C742 C 0.62172 0.31274 0.31126
 C743 C 0.62960 0.32567 0.30661
 H744 H 0.62646 0.29746 0.33076
 H745 H 0.62687 0.33290 0.29695
 N746 N 0.67295 0.31665 0.35840
 N747 N 0.68380 0.32727 0.35840
 C748 C 0.69319 0.32488 0.37040
 C749 C 0.68796 0.31219 0.37821
 C750 C 0.67516 0.30720 0.37039
 H751 H 0.70304 0.33186 0.37331
 H752 H 0.66800 0.29746 0.37329
 H753 H 0.67399 0.32672 0.33077
 H754 H 0.66191 0.33913 0.34338
 N755 N 0.68429 0.85865 0.82685
 N756 N 0.67383 0.85839 0.81601
 C757 C 0.67639 0.87019 0.80636
 C758 C 0.68908 0.87813 0.81150
 C759 C 0.69384 0.87059 0.82449
 H760 H 0.66957 0.87284 0.79639
 H761 H 0.70350 0.87359 0.83166
 Cu762 Cu 0.65789 0.84270 0.81567
 Cu763 Cu 0.68479 0.84352 0.84318
 Cu764 Cu 0.65624 0.81572 0.84317
 N765 N 0.64171 0.82726 0.81600
 N766 N 0.64112 0.81675 0.82680
 C767 C 0.62888 0.80759 0.82437
 C768 C 0.62151 0.81266 0.81140
 C769 C 0.62985 0.82512 0.80633
 H770 H 0.62558 0.79798 0.83150
 H771 H 0.62744 0.83207 0.79638
 N772 N 0.67257 0.81663 0.85874
 N773 N 0.68342 0.82725 0.85875
 C774 C 0.69283 0.82484 0.87072
 C775 C 0.68761 0.81214 0.87853
 C776 C 0.67480 0.80717 0.87073
 H777 H 0.70274 0.83176 0.87358
 H778 H 0.66767 0.79740 0.87360
 H779 H 0.67398 0.82602 0.83136
 H780 H 0.66140 0.83889 0.84301
 N781 N 0.18395 0.35875 0.82721
 N782 N 0.17309 0.35887 0.81677
 C783 C 0.17558 0.37068 0.80712
 C784 C 0.18863 0.37825 0.81184
 C785 C 0.19370 0.37048 0.82458
 H786 H 0.16847 0.37359 0.79742
 H787 H 0.20370 0.37317 0.83142
 Cu788 Cu 0.15675 0.34363 0.81677
 Cu789 Cu 0.18464 0.34342 0.84339
 Cu790 Cu 0.15599 0.31571 0.84330
 N791 N 0.14098 0.32781 0.81668
 N792 N 0.14073 0.31692 0.82710
 C793 C 0.12869 0.30757 0.82445
 C794 C 0.12111 0.31292 0.81171
 C795 C 0.12912 0.32574 0.80702
 H796 H 0.12566 0.29765 0.83126
 H797 H 0.12648 0.33297 0.79733
 N798 N 0.17242 0.31639 0.85874
 N799 N 0.18334 0.32694 0.85878
 C800 C 0.19278 0.32436 0.87070
 C801 C 0.18749 0.31162 0.87842
 C802 C 0.17462 0.30681 0.87064
 H803 H 0.20272 0.33122 0.87360
 H804 H 0.16741 0.29710 0.87349
 H805 H 0.17345 0.32649 0.83125
 H806 H 0.16137 0.33892 0.84383
 N807 N 0.18424 0.85928 0.32769
 N808 N 0.17343 0.85951 0.31719
 C809 C 0.17597 0.87143 0.30769
 C810 C 0.18900 0.87896 0.31257
 C811 C 0.19400 0.87105 0.32525
 H812 H 0.16891 0.87444 0.29798
 H813 H 0.20394 0.87367 0.33217
 Cu814 Cu 0.15712 0.84424 0.31692
 Cu815 Cu 0.18482 0.84379 0.34370
 Cu816 Cu 0.15630 0.81597 0.34316
 N817 N 0.14145 0.82830 0.31655
 N818 N 0.14120 0.81728 0.32684
 C819 C 0.12923 0.80789 0.32402
 C820 C 0.12169 0.81335 0.31131
 C821 C 0.12965 0.82626 0.30680
 H822 H 0.12621 0.79789 0.33072
 H823 H 0.12700 0.83361 0.29719
 N824 N 0.17259 0.81659 0.35873
 N825 N 0.18347 0.82719 0.35894
 C826 C 0.19278 0.82458 0.37096
 C827 C 0.18745 0.81178 0.37855
 C828 C 0.17469 0.80697 0.37061
 H829 H 0.20265 0.83147 0.37402
 H830 H 0.16747 0.79723 0.37334
 H831 H 0.17368 0.82688 0.33130
 H832 H 0.16147 0.83912 0.34396
 C833 C 0.24554 0.99969 0.25427
 C834 C 0.25740 0.99962 0.24426
 C835 C 0.26381 1.01412 0.23826
 C836 C 0.26360 0.98511 0.23795
 C837 C 0.23926 0.98526 0.26062
 C838 C 0.23931 1.01424 0.26040
 C839 C 0.25650 1.02162 0.22613
 C840 C 0.26254 1.03529 0.22030
 C841 C 0.27602 1.04164 0.22652
 C842 C 0.28324 1.03409 0.23877
 C843 C 0.27715 1.02045 0.24463
 C844 C 0.25443 0.97584 0.22855
 C845 C 0.26033 0.96227 0.22237
 C846 C 0.27553 0.95769 0.22551
 C847 C 0.28469 0.96704 0.23492
 C848 C 0.27878 0.98065 0.24104
 C849 C 0.24789 0.97669 0.27111
 C850 C 0.24186 0.96323 0.27743
 C851 C 0.22708 0.95812 0.27333
 C852 C 0.21854 0.96672 0.26268
 C853 C 0.22457 0.98020 0.25642
 C854 C 0.24731 1.02211 0.27185
 C855 C 0.24133 1.03569 0.27795
 C856 C 0.22720 1.04159 0.27274
 C857 C 0.21931 1.03369 0.26114
 C858 C 0.22533 1.02013 0.25502
 H859 H 0.24616 1.01682 0.22114
 H860 H 0.25683 1.04075 0.21076
 H861 H 0.29350 1.03883 0.24393
 H862 H 0.28277 1.01489 0.25417
 H863 H 0.24272 0.97920 0.22594
 H864 H 0.25296 0.95525 0.21526
 H865 H 0.28605 0.98765 0.24826
 H866 H 0.25923 0.98053 0.27451
 H867 H 0.24864 0.95699 0.28575
 H868 H 0.20724 0.96295 0.25908
 H869 H 0.21783 0.98656 0.24817
 H870 H 0.25816 1.01770 0.27606
 H871 H 0.24781 1.04161 0.28670
 H872 H 0.20833 1.03783 0.25700
 H873 H 0.21906 1.01424 0.24610
 H874 H 0.29649 0.96392 0.23739
 C875 C 0.24615 0.49928 0.75496
 C876 C 0.25715 0.49930 0.74388
 C877 C 0.26314 0.51382 0.73722
 C878 C 0.26383 0.48481 0.73784
 C879 C 0.23957 0.48478 0.76106
 C880 C 0.24009 0.51377 0.76161
 C881 C 0.25324 0.52457 0.73038
 C882 C 0.25909 0.53824 0.72432
 C883 C 0.27495 0.54137 0.72491
 C884 C 0.28483 0.53044 0.73152
 C885 C 0.27898 0.51678 0.73755
 C886 C 0.26331 0.48188 0.72212
 C887 C 0.26944 0.46828 0.71622
 C888 C 0.27631 0.45739 0.72592
 C889 C 0.27706 0.46047 0.74165
 C890 C 0.27091 0.47409 0.74755
 C891 C 0.24009 0.48191 0.77680
 C892 C 0.23394 0.46837 0.78278
 C893 C 0.22703 0.45747 0.77315
 C894 C 0.22632 0.46047 0.75739
 C895 C 0.23250 0.47404 0.75141
 C896 C 0.24992 0.52446 0.76858
 C897 C 0.24397 0.53803 0.77480
 C898 C 0.22809 0.54108 0.77422
 C899 C 0.21829 0.53022 0.76744
 C900 C 0.22423 0.51667 0.76127
 H901 H 0.24099 0.52237 0.72978
 H902 H 0.25118 0.54646 0.71935
 H903 H 0.29713 0.53238 0.73188
 H904 H 0.28681 0.50855 0.74263
 H905 H 0.25802 0.49007 0.71443
 H906 H 0.26893 0.46637 0.70403
 H907 H 0.27163 0.47626 0.75969
 H908 H 0.24536 0.49014 0.78444
 H909 H 0.23442 0.46652 0.79499
 H910 H 0.22114 0.45226 0.74968
 H911 H 0.23177 0.47616 0.73926
 H912 H 0.26217 0.52230 0.76919
 H913 H 0.25181 0.54621 0.77990
 H914 H 0.20598 0.53211 0.76707
 H915 H 0.21645 0.50847 0.75609
 H916 H 0.28221 0.45227 0.74941
 C917 C 0.74590 0.00041 0.24384
 C918 C 0.75695 0.00042 0.25484
 C919 C 0.76359 -0.01409 0.26090
 C920 C 0.76297 0.01493 0.26147
 C921 C 0.73978 0.01488 0.23721
 C922 C 0.73929 -0.01410 0.23780
 C923 C 0.76301 -0.01704 0.27662
 C924 C 0.76901 -0.03069 0.28253
 C925 C 0.77585 -0.04162 0.27285
 C926 C 0.77667 -0.03852 0.25712
 C927 C 0.77062 -0.02485 0.25120
 C928 C 0.75312 0.02563 0.26843
 C929 C 0.75902 0.03921 0.27463
 C930 C 0.77490 0.04228 0.27405
 C931 C 0.78473 0.03142 0.26724
 C932 C 0.77882 0.01786 0.26108
 C933 C 0.74955 0.02561 0.23018
 C934 C 0.74355 0.03914 0.22395
 C935 C 0.72765 0.04214 0.22456
 C936 C 0.71791 0.03125 0.23142
 C937 C 0.72391 0.01774 0.23762
 C938 C 0.73985 -0.01703 0.22209
 C939 C 0.73371 -0.03059 0.21617
 C940 C 0.72676 -0.04145 0.22585
 C941 C 0.72598 -0.03837 0.24159
 C942 C 0.73216 -0.02479 0.24750
 H943 H 0.75776 -0.00882 0.28430
 H944 H 0.76845 -0.03263 0.29472
 H945 H 0.78180 -0.04674 0.24937
 H946 H 0.77139 -0.02266 0.23906
 H947 H 0.74087 0.02346 0.26906
 H948 H 0.75116 0.04738 0.27973
 H949 H 0.78662 0.00968 0.25588
 H950 H 0.76181 0.02348 0.22952
 H951 H 0.75135 0.04735 0.21881
 H952 H 0.70559 0.03310 0.23182
 H953 H 0.71618 0.00952 0.24285
 H954 H 0.74516 -0.00883 0.21441
 H955 H 0.73423 -0.03250 0.20398
 H956 H 0.72076 -0.04655 0.24933
 H957 H 0.73139 -0.02261 0.25964
 H958 H 0.79703 0.03333 0.26686
 C959 C 0.74592 0.50075 0.74348
 C960 C 0.75685 0.50080 0.75453
 C961 C 0.76301 0.48623 0.76070
 C962 C 0.76302 0.51521 0.76115
 C963 C 0.73958 0.51509 0.73683
 C964 C 0.73973 0.48613 0.73752
 C965 C 0.75813 0.48104 0.77505
 C966 C 0.76398 0.46738 0.78107
 C967 C 0.77501 0.45877 0.77291
 C968 C 0.77981 0.46405 0.75845
 C969 C 0.77381 0.47764 0.75238
 C970 C 0.75316 0.52623 0.76765
 C971 C 0.75914 0.53980 0.77376
 C972 C 0.77509 0.54255 0.77350
 C973 C 0.78494 0.53143 0.76710
 C974 C 0.77897 0.51784 0.76110
 C975 C 0.74925 0.52610 0.73009
 C976 C 0.74309 0.53965 0.72405
 C977 C 0.72715 0.54240 0.72460
 C978 C 0.71749 0.53125 0.73118
 C979 C 0.72364 0.51769 0.73715
 C980 C 0.74433 0.48088 0.72312
 C981 C 0.73835 0.46719 0.71730
 C982 C 0.72751 0.45870 0.72572
 C983 C 0.72290 0.46406 0.74016
 C984 C 0.72905 0.47764 0.74606
 H985 H 0.74968 0.48749 0.78157
 H986 H 0.75972 0.46355 0.79206
 H987 H 0.78844 0.45789 0.75191
 H988 H 0.77775 0.48155 0.74129
 H989 H 0.74084 0.52437 0.76800
 H990 H 0.75125 0.54818 0.77853
 H991 H 0.78682 0.50946 0.75625
 H992 H 0.76156 0.52421 0.72953
 H993 H 0.75082 0.54806 0.71912
 H994 H 0.70515 0.53292 0.73156
 H995 H 0.71596 0.50929 0.74219
 H996 H 0.75256 0.48736 0.71641
 H997 H 0.74200 0.46342 0.70608
 H998 H 0.71463 0.45770 0.74692
 H999 H 0.72536 0.48163 0.75719
 H1000 H 0.79730 0.53312 0.76693
 C1001 C 0.24542 0.50041 0.24508
 C1002 C 0.25643 0.50041 0.25613
 C1003 C 0.26242 0.48589 0.26282
 C1004 C 0.26307 0.51491 0.26214
 C1005 C 0.23879 0.51491 0.23899
 C1006 C 0.23939 0.48591 0.23844
 C1007 C 0.25252 0.47521 0.26973
 C1008 C 0.25835 0.46154 0.27583
 C1009 C 0.27420 0.45835 0.27522
 C1010 C 0.28410 0.46920 0.26851
 C1011 C 0.27826 0.48287 0.26245
 C1012 C 0.26249 0.51791 0.27784
 C1013 C 0.26859 0.53152 0.28371
 C1014 C 0.27554 0.54235 0.27398
 C1015 C 0.27634 0.53920 0.25827
 C1016 C 0.27018 0.52558 0.25240
 C1017 C 0.23934 0.51780 0.22326
 C1018 C 0.23318 0.53135 0.21729
 C1019 C 0.22620 0.54222 0.22692
 C1020 C 0.22545 0.53919 0.24267
 C1021 C 0.23166 0.52563 0.24865
 C1022 C 0.24925 0.47521 0.23150
 C1023 C 0.24335 0.46165 0.22527
 C1024 C 0.22747 0.45859 0.22580
 C1025 C 0.21763 0.46946 0.23257
 C1026 C 0.22353 0.48301 0.23877
 H1027 H 0.24028 0.47746 0.27037
 H1028 H 0.25043 0.45338 0.28086
 H1029 H 0.29638 0.46720 0.26809
 H1030 H 0.28610 0.49105 0.25731
 H1031 H 0.25715 0.50975 0.28554
 H1032 H 0.26804 0.53350 0.29589
 H1033 H 0.27094 0.52337 0.24027
 H1034 H 0.24466 0.50959 0.21561
 H1035 H 0.23370 0.53323 0.20509
 H1036 H 0.22021 0.54739 0.25039
 H1037 H 0.23090 0.52348 0.26080
 H1038 H 0.26150 0.47737 0.23091
 H1039 H 0.25123 0.45347 0.22019
 H1040 H 0.20532 0.46757 0.23292
 H1041 H 0.21572 0.49120 0.24394
 H1042 H 0.28153 0.54736 0.25049
 C1043 C 0.74581 0.99922 0.75383
 C1044 C 0.75684 0.99919 0.74279
 C1045 C 0.76355 1.01369 0.73679
 C1046 C 0.76281 0.98468 0.73611
 C1047 C 0.73971 0.98473 0.76046
 C1048 C 0.73920 1.01373 0.75989
 C1049 C 0.76301 1.01673 0.72109
 C1050 C 0.76912 1.03037 0.71526
 C1051 C 0.77603 1.04117 0.72501
 C1052 C 0.77680 1.03796 0.74072
 C1053 C 0.77065 1.02432 0.74656
 C1054 C 0.75289 0.97403 0.72922
 C1055 C 0.75871 0.96037 0.72310
 C1056 C 0.77457 0.95718 0.72368
 C1057 C 0.78447 0.96801 0.73038
 C1058 C 0.77864 0.98165 0.73648
 C1059 C 0.74952 0.97397 0.76741
 C1060 C 0.74353 0.96043 0.77365
 C1061 C 0.72764 0.95746 0.77312
 C1062 C 0.71787 0.96836 0.76630
 C1063 C 0.72385 0.98188 0.76009
 C1064 C 0.73967 1.01662 0.77561
 C1065 C 0.73354 1.03021 0.78153
 C1066 C 0.72668 1.04112 0.77184
 C1067 C 0.72602 1.03809 0.75609
 C1068 C 0.73219 1.02449 0.75017
 H1069 H 0.75771 1.00860 0.71337
 H1070 H 0.76858 1.03239 0.70308
 H1071 H 0.78197 1.04609 0.74852
 H1072 H 0.77140 1.02205 0.75868
 H1073 H 0.74065 0.97629 0.72860
 H1074 H 0.75079 0.95222 0.71808
 H1075 H 0.78648 0.98981 0.74163
 H1076 H 0.76178 0.97607 0.76800
 H1077 H 0.75135 0.95220 0.77875
 H1078 H 0.70556 0.96652 0.76593
 H1079 H 0.71610 0.99010 0.75488
 H1080 H 0.74491 1.00839 0.78329
 H1081 H 0.73400 1.03209 0.79373
 H1082 H 0.72088 1.04631 0.74834
 H1083 H 0.73150 1.02236 0.73803
 H1084 H 0.79676 0.96602 0.73076
 C1085 C 0.74599 0.49931 0.25343
 C1086 C 0.75708 0.49933 0.24244
 C1087 C 0.76383 0.51384 0.23653
 C1088 C 0.76305 0.48483 0.23573
 C1089 C 0.73992 0.48481 0.26005
 C1090 C 0.73938 0.51381 0.25950
 C1091 C 0.76334 0.51696 0.22085
 C1092 C 0.76944 0.53063 0.21509
 C1093 C 0.77630 0.54140 0.22490
 C1094 C 0.77705 0.53812 0.24060
 C1095 C 0.77090 0.52444 0.24636
 C1096 C 0.75314 0.47421 0.22878
 C1097 C 0.75896 0.46056 0.22263
 C1098 C 0.77481 0.45736 0.22323
 C1099 C 0.78471 0.46815 0.22999
 C1100 C 0.77889 0.48178 0.23612
 C1101 C 0.74975 0.47409 0.26702
 C1102 C 0.74381 0.46056 0.27331
 C1103 C 0.72792 0.45756 0.27282
 C1104 C 0.71812 0.46843 0.26600
 C1105 C 0.72406 0.48194 0.25974
 C1106 C 0.73988 0.51669 0.27523
 C1107 C 0.73383 0.53030 0.28116
 C1108 C 0.72699 0.54123 0.27149
 C1109 C 0.72633 0.53824 0.25574
 C1110 C 0.73243 0.52462 0.24980
 H1111 H 0.75807 0.50886 0.21307
 H1112 H 0.76893 0.53270 0.20292
 H1113 H 0.78220 0.54623 0.24845
 H1114 H 0.77161 0.52212 0.25848
 H1115 H 0.74090 0.47648 0.22815
 H1116 H 0.75104 0.45243 0.21758
 H1117 H 0.78672 0.48991 0.24132
 H1118 H 0.76201 0.47622 0.26760
 H1119 H 0.75166 0.45237 0.27842
 H1120 H 0.70581 0.46658 0.26569
 H1121 H 0.71628 0.49014 0.25453
 H1122 H 0.74507 0.50842 0.28290
 H1123 H 0.73433 0.53218 0.29336
 H1124 H 0.72125 0.54651 0.24799
 H1125 H 0.73173 0.52249 0.23765
 H1126 H 0.79699 0.46614 0.23038
 C1127 C 0.24596 0.00029 0.74531
 C1128 C 0.25703 0.00025 0.75630
 C1129 C 0.26302 -0.01428 0.76295
 C1130 C 0.26371 0.01473 0.76233
 C1131 C 0.23930 0.01482 0.73933
 C1132 C 0.23987 -0.01418 0.73869
 C1133 C 0.25312 -0.02492 0.76992
 C1134 C 0.25896 -0.03857 0.77607
 C1135 C 0.27481 -0.04177 0.77541
 C1136 C 0.28469 -0.03095 0.76862
 C1137 C 0.27885 -0.01731 0.76252
 C1138 C 0.26321 0.01767 0.77804
 C1139 C 0.26930 0.03127 0.78393
 C1140 C 0.27615 0.04217 0.77422
 C1141 C 0.27688 0.03908 0.75849
 C1142 C 0.27075 0.02546 0.75260
 C1143 C 0.23974 0.01778 0.72361
 C1144 C 0.23353 0.03136 0.71775
 C1145 C 0.22663 0.04219 0.72750
 C1146 C 0.22601 0.03909 0.74324
 C1147 C 0.23225 0.02549 0.74909
 C1148 C 0.24968 -0.02490 0.73170
 C1149 C 0.24372 -0.03845 0.72549
 C1150 C 0.22783 -0.04145 0.72608
 C1151 C 0.21805 -0.03059 0.73293
 C1152 C 0.22401 -0.01706 0.73910
 H1153 H 0.24089 -0.02266 0.77059
 H1154 H 0.25106 -0.04671 0.78117
 H1155 H 0.29698 -0.03296 0.76818
 H1156 H 0.28668 -0.00916 0.75733
 H1157 H 0.25795 0.00946 0.78574
 H1158 H 0.26879 0.03319 0.79613
 H1159 H 0.27146 0.02330 0.74045
 H1160 H 0.24499 0.00961 0.71588
 H1161 H 0.23394 0.03330 0.70556
 H1162 H 0.22084 0.04725 0.75103
 H1163 H 0.23158 0.02328 0.76124
 H1164 H 0.26193 -0.02277 0.73105
 H1165 H 0.25155 -0.04664 0.72037
 H1166 H 0.20574 -0.03246 0.73333
 H1167 H 0.21625 -0.00885 0.74431
 H1168 H 0.28202 0.04729 0.75071
 C1169 C 0.25433 0.24445 1.00007
 C1170 C 0.24331 0.25560 1.00002
 C1171 C 0.23728 0.26234 1.01438
 C1172 C 0.23669 0.26165 0.98560
 C1173 C 0.26105 0.23837 0.98572
 C1174 C 0.26031 0.23777 1.01449
 C1175 C 0.22144 0.26195 1.01734
 C1176 C 0.21556 0.26806 1.03086
 C1177 C 0.22542 0.27481 1.04165
 C1178 C 0.24128 0.27542 1.03854
 C1179 C 0.24716 0.26929 1.02500
 C1180 C 0.22975 0.25182 0.97494
 C1181 C 0.22371 0.25772 0.96136
 C1182 C 0.22441 0.27358 0.95826
 C1183 C 0.23114 0.28339 0.96909
 C1184 C 0.23716 0.27749 0.98264
 C1185 C 0.26813 0.24817 0.97511
 C1186 C 0.27437 0.24223 0.96164
 C1187 C 0.27371 0.22637 0.95860
 C1188 C 0.26678 0.21658 0.96937
 C1189 C 0.26057 0.22253 0.98281
 C1190 C 0.27616 0.23811 1.01743
 C1191 C 0.28201 0.23196 1.03095
 C1192 C 0.27213 0.22524 1.04176
 C1193 C 0.25626 0.22469 1.03868
 C1194 C 0.25041 0.23086 1.02514
 H1195 H 0.21363 0.25675 1.00922
 H1196 H 0.20327 0.26765 1.03280
 H1197 H 0.24917 0.28046 1.04667
 H1198 H 0.25940 0.26991 1.02281
 H1199 H 0.22906 0.23958 0.97712
 H1200 H 0.21867 0.24986 0.95321
 H1201 H 0.24235 0.28527 0.99079
 H1202 H 0.26881 0.26041 0.97726
 H1203 H 0.27954 0.25007 0.95352
 H1204 H 0.26632 0.20429 0.96747
 H1205 H 0.25526 0.21477 0.99093
 H1206 H 0.28399 0.24328 1.00930
 H1207 H 0.29430 0.23231 1.03287
 H1208 H 0.24835 0.21967 1.04682
 H1209 H 0.23816 0.23029 1.02297
 H1210 H 0.23161 0.29568 0.96715
 C1211 C 0.25432 0.74481 0.50006
 C1212 C 0.24323 0.75588 0.50014
 C1213 C 0.23723 0.76254 0.51456
 C1214 C 0.23645 0.76192 0.48580
 C1215 C 0.26086 0.73875 0.48561
 C1216 C 0.26047 0.73809 0.51438
 C1217 C 0.22140 0.76202 0.51757
 C1218 C 0.21551 0.76813 0.53109
 C1219 C 0.22534 0.77503 0.54181
 C1220 C 0.24119 0.77575 0.53866
 C1221 C 0.24708 0.76958 0.52514
 C1222 C 0.22943 0.75207 0.47521
 C1223 C 0.22329 0.75795 0.46167
 C1224 C 0.22398 0.77381 0.45855
 C1225 C 0.23076 0.78364 0.46934
 C1226 C 0.23688 0.77775 0.48284
 C1227 C 0.26785 0.74857 0.47495
 C1228 C 0.27389 0.74266 0.46138
 C1229 C 0.27314 0.72681 0.45829
 C1230 C 0.26630 0.71701 0.46910
 C1231 C 0.26028 0.72292 0.48265
 C1232 C 0.27637 0.73819 0.51703
 C1233 C 0.28239 0.73183 0.53038
 C1234 C 0.27261 0.72513 0.54129
 C1235 C 0.25668 0.72494 0.53856
 C1236 C 0.25067 0.73128 0.52517
 H1237 H 0.21361 0.75674 0.50949
 H1238 H 0.20323 0.76761 0.53309
 H1239 H 0.24905 0.78090 0.54675
 H1240 H 0.25932 0.77027 0.52291
 H1241 H 0.22875 0.73983 0.47742
 H1242 H 0.21821 0.75008 0.45356
 H1243 H 0.24212 0.78554 0.49095
 H1244 H 0.26860 0.76080 0.47713
 H1245 H 0.27899 0.75050 0.45323
 H1246 H 0.26577 0.70473 0.46716
 H1247 H 0.25504 0.71516 0.49080
 H1248 H 0.28412 0.74336 0.50882
 H1249 H 0.29468 0.73234 0.53226
 H1250 H 0.24889 0.71967 0.54666
 H1251 H 0.23838 0.73081 0.52319
 H1252 H 0.23121 0.79593 0.46739
 C1253 C 0.24328 0.74373 0.00021
 C1254 C 0.25434 0.75482 0.00018
 C1255 C 0.26036 0.76151 -0.01422
 C1256 C 0.26103 0.76087 0.01455
 C1257 C 0.23655 0.73775 0.01462
 C1258 C 0.23732 0.73700 -0.01417
 C1259 C 0.27620 0.76112 -0.01718
 C1260 C 0.28208 0.76732 -0.03067
 C1261 C 0.27222 0.77416 -0.04142
 C1262 C 0.25636 0.77477 -0.03832
 C1263 C 0.25048 0.76853 -0.02481
 C1264 C 0.26807 0.75102 0.02516
 C1265 C 0.27435 0.75694 0.03860
 C1266 C 0.27377 0.77281 0.04162
 C1267 C 0.26686 0.78263 0.03087
 C1268 C 0.26062 0.77671 0.01744
 C1269 C 0.22956 0.74764 0.02521
 C1270 C 0.22340 0.74180 0.03877
 C1271 C 0.22405 0.72596 0.04192
 C1272 C 0.23085 0.71608 0.03117
 C1273 C 0.23697 0.72192 0.01762
 C1274 C 0.22149 0.73747 -0.01721
 C1275 C 0.21569 0.73138 -0.03076
 C1276 C 0.22560 0.72459 -0.04150
 C1277 C 0.24144 0.72389 -0.03831
 C1278 C 0.24724 0.73001 -0.02474
 H1279 H 0.28402 0.75588 -0.00907
 H1280 H 0.29437 0.76691 -0.03261
 H1281 H 0.24847 0.77989 -0.04641
 H1282 H 0.23824 0.76917 -0.02261
 H1283 H 0.26868 0.73878 0.02302
 H1284 H 0.27950 0.74909 0.04671
 H1285 H 0.25534 0.78449 0.00933
 H1286 H 0.22892 0.75988 0.02298
 H1287 H 0.21832 0.74971 0.04687
 H1288 H 0.23130 0.70380 0.03316
 H1289 H 0.24220 0.71409 0.00953
 H1290 H 0.21365 0.74271 -0.00913
 H1291 H 0.20341 0.73185 -0.03278
 H1292 H 0.24937 0.71880 -0.04640
 H1293 H 0.25947 0.72934 -0.02249
 H1294 H 0.26646 0.79492 0.03276
 C1295 C 0.24287 0.24337 0.50072
 C1296 C 0.25386 0.25452 0.50073
 C1297 C 0.25993 0.26118 0.48634
 C1298 C 0.26054 0.26056 0.51511
 C1299 C 0.23611 0.23739 0.51511
 C1300 C 0.23696 0.23661 0.48632
 C1301 C 0.27579 0.26075 0.48345
 C1302 C 0.28175 0.26694 0.47000
 C1303 C 0.27197 0.27382 0.45920
 C1304 C 0.25608 0.27438 0.46218
 C1305 C 0.25012 0.26816 0.47566
 C1306 C 0.26760 0.25070 0.52570
 C1307 C 0.27386 0.25658 0.53918
 C1308 C 0.27324 0.27244 0.54226
 C1309 C 0.26636 0.28228 0.53151
 C1310 C 0.26014 0.27640 0.51805
 C1311 C 0.22902 0.24728 0.52563
 C1312 C 0.22281 0.24147 0.53917
 C1313 C 0.22349 0.22563 0.54238
 C1314 C 0.23037 0.21574 0.53168
 C1315 C 0.23655 0.22156 0.51815
 C1316 C 0.22113 0.23702 0.48326
 C1317 C 0.21536 0.23088 0.46972
 C1318 C 0.22528 0.22406 0.45902
 C1319 C 0.24113 0.22343 0.46222
 C1320 C 0.24691 0.22961 0.47578
 H1321 H 0.28354 0.25550 0.49160
 H1322 H 0.29406 0.26653 0.46815
 H1323 H 0.24824 0.27949 0.45402
 H1324 H 0.23786 0.26877 0.47777
 H1325 H 0.26827 0.23846 0.52351
 H1326 H 0.27903 0.24871 0.54726
 H1327 H 0.25491 0.28420 0.50994
 H1328 H 0.22835 0.25951 0.52337
 H1329 H 0.21766 0.24938 0.54723
 H1330 H 0.23082 0.20346 0.53370
 H1331 H 0.24185 0.21373 0.51011
 H1332 H 0.21327 0.24225 0.49132
 H1333 H 0.20308 0.23132 0.46770
 H1334 H 0.24907 0.21834 0.45415
 H1335 H 0.25913 0.22897 0.47805
 H1336 H 0.26595 0.29457 0.53343
 C1337 C 0.75446 0.74470 0.99999
 C1338 C 0.74340 0.75580 1.00001
 C1339 C 0.73675 0.76185 1.01441
 C1340 C 0.73731 0.76247 0.98563
 C1341 C 0.76047 0.73800 0.98560
 C1342 C 0.76117 0.73863 1.01436
 C1343 C 0.72983 0.75200 1.02509
 C1344 C 0.72375 0.75790 1.03865
 C1345 C 0.72441 0.77376 1.04171
 C1346 C 0.73112 0.78359 1.03085
 C1347 C 0.73717 0.77769 1.01731
 C1348 C 0.72145 0.76203 0.98275
 C1349 C 0.71551 0.76810 0.96924
 C1350 C 0.72530 0.77485 0.95837
 C1351 C 0.74118 0.77551 0.96139
 C1352 C 0.74712 0.76941 0.97492
 C1353 C 0.77631 0.73837 0.98266
 C1354 C 0.78219 0.73220 0.96917
 C1355 C 0.77234 0.72544 0.95839
 C1356 C 0.75647 0.72486 0.96148
 C1357 C 0.75059 0.73105 0.97499
 C1358 C 0.76826 0.74844 1.02493
 C1359 C 0.77450 0.74251 1.03840
 C1360 C 0.77382 0.72665 1.04149
 C1361 C 0.76690 0.71686 1.03076
 C1362 C 0.76070 0.72279 1.01730
 H1363 H 0.72917 0.73976 1.02294
 H1364 H 0.71874 0.75003 1.04683
 H1365 H 0.73154 0.79588 1.03276
 H1366 H 0.74234 0.78548 1.00914
 H1367 H 0.71369 0.75684 0.99094
 H1368 H 0.70321 0.76765 0.96736
 H1369 H 0.75938 0.77007 0.97704
 H1370 H 0.78412 0.74357 0.99077
 H1371 H 0.79449 0.73258 0.96724
 H1372 H 0.74859 0.71980 0.95335
 H1373 H 0.73834 0.73044 0.97717
 H1374 H 0.76895 0.76068 1.02274
 H1375 H 0.77969 0.75035 1.04649
 H1376 H 0.76643 0.70457 1.03270
 H1377 H 0.75539 0.71503 1.00921
 H1378 H 0.74902 0.78055 0.95320
 C1379 C 0.75412 0.24472 0.49998
 C1380 C 0.74305 0.25581 0.49995
 C1381 C 0.73640 0.26191 0.51433
 C1382 C 0.73704 0.26251 0.48556
 C1383 C 0.76022 0.23805 0.48561
 C1384 C 0.76077 0.23867 0.51438
 C1385 C 0.72947 0.25210 0.52505
 C1386 C 0.72346 0.25803 0.53862
 C1387 C 0.72418 0.27390 0.54166
 C1388 C 0.73089 0.28369 0.53076
 C1389 C 0.73688 0.27775 0.51722
 C1390 C 0.72120 0.26203 0.48258
 C1391 C 0.71533 0.26816 0.46906
 C1392 C 0.72518 0.27503 0.45831
 C1393 C 0.74103 0.27573 0.46144
 C1394 C 0.74690 0.26955 0.47497
 C1395 C 0.77608 0.23849 0.48273
 C1396 C 0.78204 0.23239 0.46924
 C1397 C 0.77226 0.22559 0.45842
 C1398 C 0.75638 0.22493 0.46144
 C1399 C 0.75042 0.23107 0.47494
 C1400 C 0.76784 0.24849 0.52496
 C1401 C 0.77396 0.24257 0.53850
 C1402 C 0.77319 0.22673 0.54163
 C1403 C 0.76628 0.21693 0.53089
 C1404 C 0.76019 0.22284 0.51737
 H1405 H 0.72878 0.23985 0.52292
 H1406 H 0.71845 0.25020 0.54683
 H1407 H 0.73137 0.29598 0.53265
 H1408 H 0.74206 0.28551 0.50902
 H1409 H 0.71340 0.25677 0.49068
 H1410 H 0.70305 0.26768 0.46709
 H1411 H 0.75914 0.27023 0.47718
 H1412 H 0.78383 0.24371 0.49089
 H1413 H 0.79434 0.23284 0.46736
 H1414 H 0.74856 0.21984 0.45328
 H1415 H 0.73816 0.23041 0.47707
 H1416 H 0.76859 0.26072 0.52274
 H1417 H 0.77913 0.25041 0.54659
 H1418 H 0.76574 0.20465 0.53287
 H1419 H 0.75489 0.21508 0.50928
 H1420 H 0.74891 0.28087 0.45334
 C1421 C 0.74297 0.24364 -0.00073
 C1422 C 0.75399 0.25476 -0.00076
 C1423 C 0.75986 0.26159 -0.01517
 C1424 C 0.76081 0.26067 0.01361
 C1425 C 0.73612 0.23781 0.01369
 C1426 C 0.73721 0.23669 -0.01510
 C1427 C 0.77569 0.26143 -0.01820
 C1428 C 0.78143 0.26781 -0.03166
 C1429 C 0.77144 0.27462 -0.04231
 C1430 C 0.75557 0.27495 -0.03916
 C1431 C 0.74984 0.26852 -0.02569
 C1432 C 0.76785 0.25069 0.02409
 C1433 C 0.77424 0.25644 0.03756
 C1434 C 0.77376 0.27228 0.04074
 C1435 C 0.76687 0.28224 0.03010
 C1436 C 0.76053 0.27650 0.01664
 C1437 C 0.72915 0.24786 0.02415
 C1438 C 0.72288 0.24221 0.03773
 C1439 C 0.72339 0.22640 0.04105
 C1440 C 0.73014 0.21635 0.03041
 C1441 C 0.73638 0.22201 0.01684
 C1442 C 0.72139 0.23676 -0.01821
 C1443 C 0.71579 0.23038 -0.03170
 C1444 C 0.72588 0.22366 -0.04232
 C1445 C 0.74172 0.22336 -0.03905
 C1446 C 0.74733 0.22978 -0.02554
 H1447 H 0.78361 0.25624 -0.01016
 H1448 H 0.79372 0.26759 -0.03365
 H1449 H 0.74759 0.28002 -0.04720
 H1450 H 0.73759 0.26896 -0.02345
 H1451 H 0.76840 0.23847 0.02183
 H1452 H 0.77939 0.24848 0.04557
 H1453 H 0.75528 0.28439 0.00862
 H1454 H 0.72860 0.26008 0.02180
 H1455 H 0.71781 0.25024 0.04572
 H1456 H 0.73046 0.20409 0.03252
 H1457 H 0.74157 0.21405 0.00884
 H1458 H 0.71340 0.24192 -0.01022
 H1459 H 0.70351 0.23056 -0.03377
 H1460 H 0.74979 0.21834 -0.04704
 H1461 H 0.75956 0.22938 -0.02322
 H1462 H 0.76656 0.29452 0.03211
 C1463 C 0.74284 0.74381 0.49958
 C1464 C 0.75390 0.75490 0.49951
 C1465 C 0.75979 0.76169 0.48510
 C1466 C 0.76073 0.76084 0.51387
 C1467 C 0.73608 0.73793 0.51401
 C1468 C 0.73696 0.73692 0.48522
 C1469 C 0.77563 0.76151 0.48209
 C1470 C 0.78140 0.76792 0.46865
 C1471 C 0.77143 0.77476 0.45799
 C1472 C 0.75557 0.77513 0.46114
 C1473 C 0.74980 0.76867 0.47459
 C1474 C 0.76782 0.75090 0.52436
 C1475 C 0.77427 0.75670 0.53778
 C1476 C 0.77379 0.77255 0.54092
 C1477 C 0.76684 0.78247 0.53029
 C1478 C 0.76045 0.77667 0.51686
 C1479 C 0.72912 0.74792 0.52453
 C1480 C 0.72286 0.74219 0.53809
 C1481 C 0.72337 0.72635 0.54131
 C1482 C 0.73019 0.71638 0.53064
 C1483 C 0.73641 0.72212 0.51710
 C1484 C 0.72113 0.73708 0.48219
 C1485 C 0.71542 0.73074 0.46870
 C1486 C 0.72544 0.72398 0.45804
 C1487 C 0.74128 0.72355 0.46125
 C1488 C 0.74699 0.72993 0.47474
 H1489 H 0.78353 0.75629 0.49012
 H1490 H 0.79369 0.76769 0.46667
 H1491 H 0.74761 0.78026 0.45312
 H1492 H 0.73756 0.76914 0.47682
 H1493 H 0.76838 0.73866 0.52212
 H1494 H 0.77947 0.74876 0.54578
 H1495 H 0.75517 0.78454 0.50884
 H1496 H 0.72855 0.76015 0.52225
 H1497 H 0.71779 0.75016 0.54613
 H1498 H 0.73056 0.70411 0.53270
 H1499 H 0.74162 0.71422 0.50906
 H1500 H 0.71320 0.74224 0.49023
 H1501 H 0.70314 0.73099 0.46669
 H1502 H 0.74928 0.71846 0.45325
 H1503 H 0.75922 0.72942 0.47702
 H1504 H 0.76652 0.79475 0.53226
 C1505 C 1.00052 0.25565 0.24493
 C1506 C 1.00050 0.24465 0.25601
 C1507 C 1.01500 0.23793 0.26200
 C1508 C 0.98597 0.23870 0.26271
 C1509 C 0.98602 0.26159 0.23819
 C1510 C 1.01503 0.26234 0.23893
 C1511 C 1.02570 0.23091 0.25222
 C1512 C 1.03931 0.22467 0.25806
 C1513 C 1.04240 0.22526 0.27380
 C1514 C 1.03154 0.23209 0.28356
 C1515 C 1.01795 0.23830 0.27771
 C1516 C 0.98301 0.22286 0.26250
 C1517 C 0.96941 0.21704 0.26871
 C1518 C 0.95854 0.22695 0.27537
 C1519 C 0.96163 0.24282 0.27578
 C1520 C 0.97525 0.24864 0.26954
 C1521 C 0.98299 0.27742 0.23846
 C1522 C 0.96943 0.28323 0.23217
 C1523 C 0.95868 0.27332 0.22536
 C1524 C 0.96183 0.25746 0.22492
 C1525 C 0.97541 0.25165 0.23124
 C1526 C 1.02570 0.26940 0.24869
 C1527 C 1.03928 0.27568 0.24282
 C1528 C 1.04238 0.27508 0.22708
 C1529 C 1.03157 0.26817 0.21735
 C1530 C 1.01801 0.26193 0.22321
 H1531 H 1.02352 0.23028 0.24007
 H1532 H 1.04749 0.21954 0.25025
 H1533 H 1.03346 0.23248 0.29575
 H1534 H 1.00975 0.24352 0.28545
 H1535 H 0.99120 0.21500 0.25739
 H1536 H 0.96749 0.20475 0.26846
 H1537 H 0.97744 0.26089 0.27003
 H1538 H 0.99110 0.28527 0.24366
 H1539 H 0.96745 0.29552 0.23247
 H1540 H 0.95372 0.24954 0.21984
 H1541 H 0.97766 0.23941 0.23071
 H1542 H 1.02350 0.27004 0.26083
 H1543 H 1.04742 0.28085 0.25061
 H1544 H 1.03351 0.26775 0.20515
 H1545 H 1.00985 0.25666 0.21549
 H1546 H 0.95344 0.25075 0.28075
 C1547 C 0.50101 0.25547 0.74504
 C1548 C 0.50108 0.24447 0.75611
 C1549 C 0.51561 0.23781 0.76205
 C1550 C 0.48660 0.23850 0.76286
 C1551 C 0.48647 0.26131 0.73830
 C1552 C 0.51547 0.26225 0.73906
 C1553 C 0.52626 0.23076 0.75223
 C1554 C 0.53986 0.22448 0.75803
 C1555 C 0.54302 0.22506 0.77375
 C1556 C 0.53223 0.23197 0.78355
 C1557 C 0.51864 0.23823 0.77775
 C1558 C 0.48364 0.22266 0.76262
 C1559 C 0.47005 0.21684 0.76883
 C1560 C 0.45921 0.22676 0.77554
 C1561 C 0.46233 0.24262 0.77600
 C1562 C 0.47593 0.24843 0.76975
 C1563 C 0.48334 0.27713 0.73855
 C1564 C 0.46972 0.28283 0.73229
 C1565 C 0.45902 0.27283 0.72552
 C1566 C 0.46230 0.25700 0.72507
 C1567 C 0.47593 0.25129 0.73137
 C1568 C 0.52610 0.26931 0.74885
 C1569 C 0.53967 0.27562 0.74303
 C1570 C 0.54280 0.27505 0.72730
 C1571 C 0.53203 0.26814 0.71752
 C1572 C 0.51847 0.26187 0.72335
 H1573 H 0.52402 0.23014 0.74010
 H1574 H 0.54799 0.21932 0.75019
 H1575 H 0.53422 0.23238 0.79573
 H1576 H 0.51051 0.24351 0.78551
 H1577 H 0.49182 0.21481 0.75749
 H1578 H 0.46809 0.20455 0.76854
 H1579 H 0.47813 0.26067 0.77026
 H1580 H 0.49141 0.28505 0.74371
 H1581 H 0.46764 0.29510 0.73259
 H1582 H 0.45425 0.24901 0.72000
 H1583 H 0.47827 0.23907 0.73085
 H1584 H 0.52388 0.26993 0.76099
 H1585 H 0.54781 0.28078 0.75084
 H1586 H 0.53400 0.26775 0.70533
 H1587 H 0.51034 0.25658 0.71560
 H1588 H 0.45416 0.25055 0.78101
 C1589 C -0.00090 0.24518 0.74538
 C1590 C -0.00097 0.25623 0.75639
 C1591 C -0.01552 0.26213 0.76307
 C1592 C 0.01350 0.26299 0.76232
 C1593 C 0.01364 0.23848 0.73947
 C1594 C -0.01536 0.23920 0.73863
 C1595 C -0.01860 0.27796 0.76272
 C1596 C -0.03225 0.28373 0.76887
 C1597 C -0.04303 0.27379 0.77563
 C1598 C -0.03979 0.25795 0.77620
 C1599 C -0.02613 0.25218 0.77001
 C1600 C 0.02415 0.27002 0.75249
 C1601 C 0.03777 0.27625 0.75827
 C1602 C 0.04093 0.27563 0.77399
 C1603 C 0.03012 0.26879 0.78380
 C1604 C 0.01652 0.26260 0.77803
 C1605 C 0.02426 0.23144 0.74932
 C1606 C 0.03787 0.22514 0.74355
 C1607 C 0.04106 0.22571 0.72782
 C1608 C 0.03029 0.23260 0.71800
 C1609 C 0.01669 0.23886 0.72377
 C1610 C -0.01831 0.22336 0.73893
 C1611 C -0.03180 0.21750 0.73258
 C1612 C -0.04255 0.22737 0.72566
 C1613 C -0.03946 0.24323 0.72517
 C1614 C -0.02596 0.24910 0.73158
 H1615 H -0.01047 0.28583 0.75755
 H1616 H -0.03429 0.29600 0.76849
 H1617 H -0.04790 0.25001 0.78128
 H1618 H -0.02384 0.23995 0.77061
 H1619 H 0.02191 0.27065 0.74036
 H1620 H 0.04592 0.28137 0.75042
 H1621 H 0.00837 0.25735 0.78580
 H1622 H 0.02199 0.23082 0.76145
 H1623 H 0.04599 0.21999 0.75140
 H1624 H 0.03230 0.23299 0.70582
 H1625 H 0.00856 0.24411 0.71599
 H1626 H -0.01019 0.21554 0.74420
 H1627 H -0.03373 0.20521 0.73290
 H1628 H -0.04757 0.25112 0.71999
 H1629 H -0.02376 0.26134 0.73101
 H1630 H 0.03212 0.26837 0.79599
 C1631 C 0.49949 0.24470 0.24517
 C1632 C 0.49955 0.25572 0.25620
 C1633 C 0.48506 0.26171 0.26296
 C1634 C 0.51409 0.26240 0.26211
 C1635 C 0.51397 0.23791 0.23918
 C1636 C 0.48495 0.23886 0.23844
 C1637 C 0.48209 0.27756 0.26278
 C1638 C 0.46849 0.28338 0.26900
 C1639 C 0.45763 0.27345 0.27566
 C1640 C 0.46076 0.25759 0.27607
 C1641 C 0.47437 0.25178 0.26982
 C1642 C 0.52473 0.26942 0.25226
 C1643 C 0.53834 0.27568 0.25803
 C1644 C 0.54152 0.27510 0.27375
 C1645 C 0.53072 0.26824 0.28358
 C1646 C 0.51712 0.26202 0.27781
 C1647 C 0.52464 0.23084 0.24895
 C1648 C 0.53820 0.22448 0.24309
 C1649 C 0.54127 0.22502 0.22734
 C1650 C 0.53046 0.23196 0.21759
 C1651 C 0.51692 0.23826 0.22346
 C1652 C 0.48187 0.22304 0.23862
 C1653 C 0.46832 0.21733 0.23227
 C1654 C 0.45759 0.22732 0.22549
 C1655 C 0.46079 0.24317 0.22514
 C1656 C 0.47436 0.24888 0.23153
 H1657 H 0.49028 0.28543 0.25767
 H1658 H 0.46653 0.29567 0.26874
 H1659 H 0.45258 0.24965 0.28104
 H1660 H 0.47657 0.23953 0.27032
 H1661 H 0.52248 0.27003 0.24013
 H1662 H 0.54647 0.28081 0.25017
 H1663 H 0.50898 0.25677 0.28558
 H1664 H 0.52246 0.23023 0.26110
 H1665 H 0.54635 0.21931 0.25088
 H1666 H 0.53238 0.23235 0.20540
 H1667 H 0.50876 0.24354 0.21572
 H1668 H 0.48995 0.21511 0.24380
 H1669 H 0.46630 0.20504 0.23249
 H1670 H 0.45271 0.25117 0.22008
 H1671 H 0.47663 0.26111 0.23107
 H1672 H 0.53271 0.26785 0.29576
 C1673 C 1.00058 0.75540 0.74510
 C1674 C 1.00057 0.74438 0.75615
 C1675 C 1.01506 0.73758 0.76208
 C1676 C 0.98604 0.73848 0.76289
 C1677 C 0.98607 0.76136 0.73838
 C1678 C 1.01510 0.76211 0.73912
 C1679 C 1.02569 0.73052 0.75226
 C1680 C 1.03925 0.72413 0.75805
 C1681 C 1.04237 0.72461 0.77379
 C1682 C 1.03157 0.73150 0.78360
 C1683 C 1.01803 0.73785 0.77780
 C1684 C 0.98300 0.72265 0.76266
 C1685 C 0.96937 0.71690 0.76885
 C1686 C 0.95856 0.72686 0.77554
 C1687 C 0.96175 0.74270 0.77599
 C1688 C 0.97540 0.74846 0.76976
 C1689 C 0.98308 0.77720 0.73859
 C1690 C 0.96950 0.78301 0.73234
 C1691 C 0.95869 0.77310 0.72563
 C1692 C 0.96183 0.75723 0.72521
 C1693 C 0.97542 0.75142 0.73149
 C1694 C 1.02579 0.76911 0.74890
 C1695 C 1.03935 0.77544 0.74305
 C1696 C 1.04242 0.77495 0.72730
 C1697 C 1.03159 0.76809 0.71754
 C1698 C 1.01805 0.76180 0.72340
 H1699 H 1.02348 0.72996 0.74012
 H1700 H 1.04738 0.71898 0.75021
 H1701 H 1.03352 0.73182 0.79579
 H1702 H 1.00989 0.74311 0.78558
 H1703 H 0.99114 0.71476 0.75754
 H1704 H 0.96737 0.70461 0.76857
 H1705 H 0.97766 0.76069 0.77029
 H1706 H 0.99122 0.78506 0.74373
 H1707 H 0.96754 0.79531 0.73260
 H1708 H 0.95369 0.74930 0.72019
 H1709 H 0.97764 0.73918 0.73100
 H1710 H 1.02361 0.76968 0.76105
 H1711 H 1.04751 0.78057 0.75086
 H1712 H 1.03351 0.76776 0.70534
 H1713 H 1.00987 0.75658 0.71566
 H1714 H 0.95361 0.75067 0.78099
 C1715 C 0.50045 0.75560 0.24507
 C1716 C 0.50050 0.74456 0.25609
 C1717 C 0.51503 0.73787 0.26203
 C1718 C 0.48602 0.73862 0.26284
 C1719 C 0.48592 0.76152 0.23836
 C1720 C 0.51493 0.76236 0.23910
 C1721 C 0.52570 0.73086 0.25221
 C1722 C 0.53935 0.72467 0.25800
 C1723 C 0.54251 0.72528 0.27372
 C1724 C 0.53171 0.73215 0.28352
 C1725 C 0.51807 0.73830 0.27773
 C1726 C 0.48301 0.72279 0.26258
 C1727 C 0.46941 0.71701 0.26879
 C1728 C 0.45861 0.72694 0.27553
 C1729 C 0.46177 0.74279 0.27601
 C1730 C 0.47538 0.74857 0.26976
 C1731 C 0.48285 0.77734 0.23866
 C1732 C 0.46923 0.78312 0.23247
 C1733 C 0.45847 0.77318 0.22571
 C1734 C 0.46168 0.75734 0.22521
 C1735 C 0.47532 0.75156 0.23144
 C1736 C 0.52558 0.76940 0.24889
 C1737 C 0.53920 0.77561 0.24306
 C1738 C 0.54235 0.77495 0.22733
 C1739 C 0.53153 0.76810 0.21757
 C1740 C 0.51793 0.76193 0.22340
 H1741 H 0.52345 0.73022 0.24008
 H1742 H 0.54751 0.71956 0.25015
 H1743 H 0.53371 0.73261 0.29570
 H1744 H 0.50991 0.74354 0.28550
 H1745 H 0.49115 0.71492 0.25741
 H1746 H 0.46742 0.70472 0.26849
 H1747 H 0.47763 0.76080 0.27030
 H1748 H 0.49097 0.78522 0.24381
 H1749 H 0.46720 0.79540 0.23280
 H1750 H 0.45358 0.74940 0.22014
 H1751 H 0.47760 0.73933 0.23086
 H1752 H 0.52335 0.77005 0.26103
 H1753 H 0.54735 0.78076 0.25087
 H1754 H 0.53351 0.76766 0.20538
 H1755 H 0.50978 0.75667 0.21566
 H1756 H 0.45363 0.75074 0.28105
 C1757 C -0.00044 0.74544 0.24538
 C1758 C -0.00047 0.75647 0.25640
 C1759 C -0.01500 0.76234 0.26316
 C1760 C 0.01402 0.76324 0.26229
 C1761 C 0.01409 0.73879 0.23939
 C1762 C -0.01491 0.73944 0.23869
 C1763 C -0.01810 0.77816 0.26289
 C1764 C -0.03172 0.78388 0.26913
 C1765 C -0.04245 0.77390 0.27592
 C1766 C -0.03919 0.75807 0.27640
 C1767 C -0.02556 0.75234 0.27011
 C1768 C 0.02461 0.77029 0.25242
 C1769 C 0.03825 0.77653 0.25815
 C1770 C 0.04148 0.77590 0.27385
 C1771 C 0.03072 0.76903 0.28371
 C1772 C 0.01710 0.76282 0.27798
 C1773 C 0.02476 0.73172 0.24916
 C1774 C 0.03835 0.72547 0.24330
 C1775 C 0.04146 0.72611 0.22756
 C1776 C 0.03065 0.73305 0.21782
 C1777 C 0.01707 0.73926 0.22368
 C1778 C -0.01781 0.72358 0.23893
 C1779 C -0.03133 0.71772 0.23265
 C1780 C -0.04216 0.72760 0.22586
 C1781 C -0.03911 0.74347 0.22542
 C1782 C -0.02558 0.74934 0.23174
 H1783 H -0.01002 0.78606 0.25769
 H1784 H -0.03378 0.79616 0.26881
 H1785 H -0.04727 0.75009 0.28148
 H1786 H -0.02325 0.74011 0.27065
 H1787 H 0.02233 0.77092 0.24030
 H1788 H 0.04636 0.78166 0.25027
 H1789 H 0.00901 0.75753 0.28578
 H1790 H 0.02255 0.73105 0.26130
 H1791 H 0.04651 0.72030 0.25109
 H1792 H 0.03260 0.73350 0.20563
 H1793 H 0.00891 0.74456 0.21596
 H1794 H -0.00963 0.71576 0.24409
 H1795 H -0.03323 0.70542 0.23292
 H1796 H -0.04727 0.75136 0.22033
 H1797 H -0.02341 0.76158 0.23121
 H1798 H 0.03277 0.76859 0.29588
 C1799 C 0.49896 0.74521 0.74543
 C1800 C 0.49898 0.75626 0.75643
 C1801 C 0.48448 0.76227 0.76314
 C1802 C 0.51351 0.76296 0.76236
 C1803 C 0.51346 0.73843 0.73947
 C1804 C 0.48444 0.73927 0.73874
 C1805 C 0.48149 0.77811 0.76279
 C1806 C 0.46789 0.78397 0.76897
 C1807 C 0.45707 0.77410 0.77575
 C1808 C 0.46021 0.75824 0.77632
 C1809 C 0.47382 0.75238 0.77010
 C1810 C 0.52420 0.76991 0.75253
 C1811 C 0.53784 0.77610 0.75831
 C1812 C 0.54098 0.77553 0.77404
 C1813 C 0.53012 0.76876 0.78386
 C1814 C 0.51650 0.76261 0.77807
 C1815 C 0.52411 0.73138 0.74927
 C1816 C 0.53770 0.72507 0.74345
 C1817 C 0.54082 0.72562 0.72771
 C1818 C 0.52999 0.73247 0.71793
 C1819 C 0.51642 0.73875 0.72375
 C1820 C 0.48149 0.72342 0.73894
 C1821 C 0.46795 0.71759 0.73267
 C1822 C 0.45711 0.72750 0.72595
 C1823 C 0.46019 0.74338 0.72555
 C1824 C 0.47376 0.74920 0.73186
 H1825 H 0.48966 0.78594 0.75761
 H1826 H 0.46593 0.79626 0.76860
 H1827 H 0.45205 0.75035 0.78140
 H1828 H 0.47604 0.74014 0.77071
 H1829 H 0.52198 0.77052 0.74039
 H1830 H 0.54602 0.78117 0.75046
 H1831 H 0.50831 0.75743 0.78585
 H1832 H 0.52190 0.73078 0.76142
 H1833 H 0.54584 0.71992 0.75127
 H1834 H 0.53194 0.73282 0.70573
 H1835 H 0.50826 0.74398 0.71599
 H1836 H 0.48967 0.71556 0.74407
 H1837 H 0.46604 0.70529 0.73290
 H1838 H 0.45203 0.75130 0.72053
 H1839 H 0.47594 0.76145 0.73136
 H1840 H 0.53208 0.76839 0.79605
 C1841 C 0.41598 0.29183 0.29492
 C1842 C 0.42154 0.29747 0.28102
 C1843 C 0.43503 0.29145 0.27471
 C1844 C 0.39098 0.30402 0.30719
 C1845 C 0.43735 0.27394 0.29611
 C1846 C 0.42387 0.28000 0.30241
 C1847 C 0.40234 0.29840 0.30159
 C1848 C 0.44314 0.27966 0.28223
 H1849 H 0.41548 0.30657 0.27508
 H1850 H 0.43908 0.29594 0.26391
 H1851 H 0.44343 0.26502 0.30226
 H1852 H 0.41967 0.27553 0.31317
 C1853 C 0.41559 0.79285 0.79499
 C1854 C 0.42107 0.79826 0.78097
 C1855 C 0.43449 0.79209 0.77466
 C1856 C 0.39050 0.80501 0.80710
 C1857 C 0.43696 0.77495 0.79634
 C1858 C 0.42354 0.78116 0.80264
 C1859 C 0.40192 0.79943 0.80158
 C1860 C 0.44262 0.78040 0.78230
 H1861 H 0.41498 0.80727 0.77493
 H1862 H 0.43843 0.79637 0.76374
 H1863 H 0.44306 0.76610 0.80257
 H1864 H 0.41943 0.77691 0.81353
 C1865 C -0.08462 0.29242 0.79470
 C1866 C -0.07914 0.29779 0.78066
 C1867 C -0.06570 0.29163 0.77440
 C1868 C -0.10960 0.30478 0.80679
 C1869 C -0.06322 0.27456 0.79613
 C1870 C -0.07667 0.28075 0.80239
 C1871 C -0.09825 0.29907 0.80129
 C1872 C -0.05754 0.28000 0.78210
 H1873 H -0.08523 0.30678 0.77459
 H1874 H -0.06173 0.29590 0.76347
 H1875 H -0.05711 0.26574 0.80241
 H1876 H -0.08080 0.27654 0.81328
 C1877 C -0.08406 0.79221 0.29523
 C1878 C -0.07864 0.79770 0.28122
 C1879 C -0.06517 0.79168 0.27490
 C1880 C -0.10917 0.80435 0.30731
 C1881 C -0.06254 0.77450 0.29653
 C1882 C -0.07602 0.78056 0.30285
 C1883 C -0.09775 0.79871 0.30185
 C1884 C -0.05693 0.78006 0.28251
 H1885 H -0.08481 0.80668 0.27521
 H1886 H -0.06126 0.79604 0.26399
 H1887 H -0.05635 0.76569 0.30274
 H1888 H -0.08009 0.77625 0.31373
 C1889 C 0.58394 0.70584 0.29233
 C1890 C 0.57847 0.71997 0.29767
 C1891 C 0.56507 0.72635 0.29154
 C1892 C 0.60909 0.69381 0.30442
 C1893 C 0.56254 0.70446 0.27464
 C1894 C 0.57595 0.69809 0.28081
 C1895 C 0.59765 0.69927 0.29883
 C1896 C 0.55694 0.71865 0.27998
 H1897 H 0.58457 0.72607 0.30658
 H1898 H 0.56117 0.73739 0.29574
 H1899 H 0.55643 0.69818 0.26588
 H1900 H 0.58003 0.68709 0.27664
 C1901 C 0.58449 0.20566 0.79224
 C1902 C 0.57907 0.21982 0.79755
 C1903 C 0.56564 0.22618 0.79147
 C1904 C 0.60951 0.19342 0.80435
 C1905 C 0.56308 0.20427 0.77459
 C1906 C 0.57651 0.19791 0.78070
 C1907 C 0.59813 0.19901 0.79879
 C1908 C 0.55746 0.21844 0.77996
 H1909 H 0.58520 0.22592 0.80644
 H1910 H 0.56172 0.23720 0.79568
 H1911 H 0.55692 0.19796 0.76588
 H1912 H 0.58060 0.18692 0.77653
 C1913 C 1.08380 0.70512 0.79234
 C1914 C 1.07832 0.71924 0.79772
 C1915 C 1.06491 0.72562 0.79162
 C1916 C 1.10898 0.69314 0.80443
 C1917 C 1.06244 0.70381 0.77460
 C1918 C 1.07586 0.69743 0.78074
 C1919 C 1.09751 0.69853 0.79884
 C1920 C 1.05678 0.71795 0.78002
 H1921 H 1.08439 0.72531 0.80667
 H1922 H 1.06096 0.73662 0.79588
 H1923 H 1.05634 0.69755 0.76582
 H1924 H 1.07998 0.68647 0.77652
 C1925 C 1.08384 0.20601 0.29258
 C1926 C 1.07829 0.22013 0.29788
 C1927 C 1.06490 0.22645 0.29168
 C1928 C 1.10872 0.19381 0.30502
 C1929 C 1.06261 0.20459 0.27470
 C1930 C 1.07601 0.19828 0.28094
 C1931 C 1.09741 0.19936 0.29928
 C1932 C 1.05685 0.21871 0.28008
 H1933 H 1.08429 0.22623 0.30685
 H1934 H 1.06088 0.23744 0.29590
 H1935 H 1.05657 0.19828 0.26591
 H1936 H 1.08018 0.18731 0.27678
 C1937 C 0.58412 0.29454 0.70861
 C1938 C 0.57874 0.28036 0.70333
 C1939 C 0.56538 0.27396 0.70949
 C1940 C 0.60903 0.30671 0.69625
 C1941 C 0.56277 0.29588 0.72637
 C1942 C 0.57615 0.30227 0.72017
 C1943 C 0.59770 0.30121 0.70198
 C1944 C 0.55720 0.28168 0.72104
 H1945 H 0.58485 0.27427 0.69441
 H1946 H 0.56149 0.26292 0.70531
 H1947 H 0.55663 0.30218 0.73512
 H1948 H 0.58019 0.31329 0.72430
 C1949 C 0.58361 0.79423 0.20832
 C1950 C 0.57818 0.78002 0.20317
 C1951 C 0.56486 0.77367 0.20948
 C1952 C 0.60854 0.80628 0.19587
 C1953 C 0.56241 0.79570 0.22625
 C1954 C 0.57574 0.80203 0.21990
 C1955 C 0.59719 0.80083 0.20161
 C1956 C 0.55678 0.78148 0.22103
 H1957 H 0.58421 0.77387 0.19423
 H1958 H 0.56093 0.76261 0.20539
 H1959 H 0.55634 0.80205 0.23500
 H1960 H 0.57983 0.81307 0.22393
 C1961 C 1.08376 0.29445 0.20827
 C1962 C 1.07829 0.28030 0.20300
 C1963 C 1.06491 0.27395 0.20920
 C1964 C 1.10885 0.30642 0.19599
 C1965 C 1.06243 0.29588 0.22608
 C1966 C 1.07582 0.30222 0.21984
 C1967 C 1.09742 0.30103 0.20166
 C1968 C 1.05679 0.28169 0.22077
 H1969 H 1.08436 0.27417 0.19408
 H1970 H 1.06098 0.26292 0.20503
 H1971 H 1.05633 0.30219 0.23484
 H1972 H 1.07992 0.31321 0.22398
 C1973 C 1.08377 0.79449 0.70855
 C1974 C 1.07830 0.78036 0.70319
 C1975 C 1.06493 0.77396 0.70936
 C1976 C 1.10874 0.80669 0.69623
 C1977 C 1.06247 0.79575 0.72641
 C1978 C 1.07585 0.80215 0.72020
 C1979 C 1.09738 0.80117 0.70193
 C1980 C 1.05682 0.78161 0.72100
 H1981 H 1.08436 0.77431 0.69421
 H1982 H 1.06099 0.76296 0.70511
 H1983 H 1.05637 0.80201 0.73522
 H1984 H 1.07995 0.81312 0.72441
 C1985 C 0.41586 0.70872 0.70640
 C1986 C 0.42371 0.72058 0.69892
 C1987 C 0.43705 0.72682 0.70533
 C1988 C 0.39103 0.69637 0.69404
 C1989 C 0.43466 0.70939 0.72679
 C1990 C 0.42133 0.70319 0.72038
 C1991 C 0.40232 0.70205 0.69967
 C1992 C 0.44272 0.72123 0.71931
 H1993 H 0.41959 0.72492 0.68808
 H1994 H 0.44309 0.73579 0.69921
 H1995 H 0.43861 0.70500 0.73767
 H1996 H 0.41531 0.69405 0.72629
 C1997 C 0.41638 0.20877 0.20564
 C1998 C 0.42436 0.22058 0.19820
 C1999 C 0.43768 0.22676 0.20471
 C2000 C 0.39155 0.19647 0.19327
 C2001 C 0.43501 0.20939 0.22618
 C2002 C 0.42170 0.20325 0.21967
 C2003 C 0.40285 0.20217 0.19886
 C2004 C 0.44320 0.22116 0.21875
 H2005 H 0.42035 0.22493 0.18731
 H2006 H 0.44383 0.23569 0.19863
 H2007 H 0.43885 0.20498 0.23709
 H2008 H 0.41559 0.19415 0.22555
 C2009 C -0.08337 0.70882 0.20631
 C2010 C -0.07797 0.70336 0.22033
 C2011 C -0.06463 0.70954 0.22675
 C2012 C -0.10826 0.69659 0.19404
 C2013 C -0.06210 0.72680 0.20516
 C2014 C -0.07544 0.72058 0.19875
 C2015 C -0.09693 0.70221 0.19962
 C2016 C -0.05651 0.72129 0.21920
 H2017 H -0.08405 0.69429 0.22629
 H2018 H -0.06074 0.70522 0.23767
 H2019 H -0.05599 0.73570 0.19900
 H2020 H -0.07950 0.72486 0.18787
 C2021 C -0.08365 0.20855 0.70594
 C2022 C -0.07836 0.20316 0.72003
 C2023 C -0.06506 0.20936 0.72650
 C2024 C -0.10861 0.19638 0.69370
 C2025 C -0.06233 0.22646 0.70481
 C2026 C -0.07564 0.22023 0.69836
 C2027 C -0.09724 0.20197 0.69926
 C2028 C -0.05686 0.22105 0.71893
 H2029 H -0.08450 0.19415 0.72601
 H2030 H -0.06125 0.20510 0.73747
 H2031 H -0.05616 0.23531 0.69864
 H2032 H -0.07962 0.22444 0.68741
 C2033 C 0.29272 0.41660 0.29412
 C2034 C 0.28100 0.42450 0.30178
 C2035 C 0.27488 0.43800 0.29558
 C2036 C 0.30479 0.39150 0.30630
 C2037 C 0.29212 0.43569 0.27396
 C2038 C 0.29820 0.42218 0.28017
 C2039 C 0.29927 0.40290 0.30069
 C2040 C 0.28044 0.44381 0.28164
 H2041 H 0.27666 0.42029 0.31259
 H2042 H 0.26605 0.44408 0.30185
 H2043 H 0.29648 0.43976 0.26311
 H2044 H 0.30722 0.41610 0.27410
 C2045 C 0.29345 -0.08343 0.79430
 C2046 C 0.28184 -0.07547 0.80206
 C2047 C 0.27568 -0.06198 0.79588
 C2048 C 0.30539 -0.10868 0.80628
 C2049 C 0.29270 -0.06441 0.77410
 C2050 C 0.29883 -0.07790 0.78029
 C2051 C 0.29995 -0.09719 0.80078
 C2052 C 0.28109 -0.05627 0.78185
 H2053 H 0.27762 -0.07963 0.81294
 H2054 H 0.26688 -0.05587 0.80220
 H2055 H 0.29695 -0.06041 0.76318
 H2056 H 0.30777 -0.08400 0.77417
 C2057 C 0.79405 0.41745 0.79232
 C2058 C 0.79079 0.43012 0.80167
 C2059 C 0.78464 0.44353 0.79536
 C2060 C 0.80559 0.39219 0.80465
 C2061 C 0.78496 0.43166 0.77026
 C2062 C 0.79115 0.41826 0.77661
 C2063 C 0.80035 0.40366 0.79892
 C2064 C 0.78161 0.44447 0.77958
 H2065 H 0.79299 0.42968 0.81385
 H2066 H 0.78246 0.45321 0.80287
 H2067 H 0.78262 0.43185 0.75810
 H2068 H 0.79362 0.40854 0.76923
 C2069 C 0.79434 -0.08327 0.29195
 C2070 C 0.78021 -0.07754 0.29707
 C2071 C 0.77413 -0.06409 0.29075
 C2072 C 0.80595 -0.10835 0.30458
 C2073 C 0.79626 -0.06208 0.27404
 C2074 C 0.80233 -0.07554 0.28039
 C2075 C 0.80069 -0.09694 0.29874
 C2076 C 0.78213 -0.05615 0.27922
 H2077 H 0.77391 -0.08345 0.30598
 H2078 H 0.76312 -0.05994 0.29482
 H2079 H 0.80276 -0.05614 0.26530
 H2080 H 0.81331 -0.07984 0.27638
 C2081 C 0.29363 0.58316 0.70637
 C2082 C 0.28191 0.57539 0.69864
 C2083 C 0.27573 0.56186 0.70471
 C2084 C 0.30565 0.60837 0.69441
 C2085 C 0.29295 0.56389 0.72634
 C2086 C 0.29910 0.57741 0.72026
 C2087 C 0.30018 0.59691 0.69994
 C2088 C 0.28123 0.55592 0.71860
 H2089 H 0.27762 0.57972 0.68786
 H2090 H 0.26685 0.55590 0.69839
 H2091 H 0.29728 0.55972 0.73717
 H2092 H 0.30814 0.58337 0.72636
 C2093 C 0.29510 1.08293 0.20737
 C2094 C 0.27920 1.08167 0.20959
 C2095 C 0.27299 1.06829 0.21592
 C2096 C 0.30679 1.10797 0.19481
 C2097 C 0.29859 1.05740 0.21793
 C2098 C 0.30478 1.07079 0.21159
 C2099 C 0.30146 1.09658 0.20058
 C2100 C 0.28262 1.05598 0.22010
 H2101 H 0.27161 1.09102 0.20638
 H2102 H 0.26068 1.06761 0.21766
 H2103 H 0.30626 1.04804 0.22086
 H2104 H 0.31709 1.07163 0.20988
 C2105 C 0.79508 0.58314 0.20632
 C2106 C 0.80303 0.57518 0.21776
 C2107 C 0.79687 0.56168 0.22393
 C2108 C 0.80664 0.60854 0.19431
 C2109 C 0.77476 0.56409 0.20727
 C2110 C 0.78093 0.57758 0.20113
 C2111 C 0.80142 0.59696 0.19984
 C2112 C 0.78270 0.55595 0.21869
 H2113 H 0.81402 0.57935 0.22183
 H2114 H 0.80332 0.55557 0.23259
 H2115 H 0.76373 0.56010 0.20316
 H2116 H 0.77466 0.58367 0.19231
 C2117 C 0.79474 1.08294 0.70645
 C2118 C 0.78058 1.07737 0.70126
 C2119 C 0.77446 1.06385 0.70736
 C2120 C 0.80631 1.10830 0.69437
 C2121 C 0.79660 1.06143 0.72398
 C2122 C 0.80272 1.07496 0.71785
 C2123 C 0.80108 1.09676 0.69995
 C2124 C 0.78243 1.05569 0.71876
 H2125 H 0.77429 1.08348 0.69247
 H2126 H 0.76343 1.05983 0.70326
 H2127 H 0.80308 1.05530 0.73261
 H2128 H 0.81371 1.07915 0.72192
 C2129 C 0.70764 0.58242 0.29065
 C2130 C 0.69986 0.57460 0.27903
 C2131 C 0.70622 0.56129 0.27267
 C2132 C 0.69572 0.60740 0.30314
 C2133 C 0.72816 0.56358 0.28955
 C2134 C 0.72180 0.57688 0.29587
 C2135 C 0.70111 0.59604 0.29735
 C2136 C 0.72042 0.55559 0.27791
 H2137 H 0.68885 0.57873 0.27494
 H2138 H 0.69991 0.55528 0.26386
 H2139 H 0.73920 0.55960 0.29370
 H2140 H 0.72791 0.58286 0.30485
 C2141 C 0.70756 1.08247 0.79084
 C2142 C 0.69973 1.07468 0.77924
 C2143 C 0.70600 1.06130 0.77293
 C2144 C 0.69555 1.10738 0.80340
 C2145 C 0.72799 1.06355 0.78977
 C2146 C 0.72172 1.07692 0.79603
 C2147 C 0.70101 1.09605 0.79762
 C2148 C 0.72017 1.05554 0.77819
 H2149 H 0.68873 1.07886 0.77515
 H2150 H 0.69963 1.05528 0.76418
 H2151 H 0.73901 1.05952 0.79391
 H2152 H 0.72788 1.08291 0.80497
 C2153 C 0.20893 0.58235 0.79340
 C2154 C 0.22067 0.57450 0.80108
 C2155 C 0.22703 0.56116 0.79479
 C2156 C 0.19659 0.60735 0.80543
 C2157 C 0.20996 0.56352 0.77306
 C2158 C 0.20364 0.57686 0.77936
 C2159 C 0.20224 0.59596 0.79995
 C2160 C 0.22168 0.55547 0.78074
 H2161 H 0.22483 0.57864 0.81198
 H2162 H 0.23592 0.55512 0.80105
 H2163 H 0.20576 0.55955 0.76213
 H2164 H 0.19459 0.58288 0.77330
 C2165 C 0.20779 1.08251 0.29246
 C2166 C 0.20678 1.08001 0.27673
 C2167 C 0.21316 1.06676 0.27027
 C2168 C 0.19551 1.10738 0.30483
 C2169 C 0.22163 1.05846 0.29532
 C2170 C 0.21525 1.07172 0.30173
 C2171 C 0.20111 1.09607 0.29914
 C2172 C 0.22063 1.05581 0.27951
 H2173 H 0.20106 1.08831 0.26944
 H2174 H 0.21238 1.06516 0.25805
 H2175 H 0.22711 1.05017 0.30277
 H2176 H 0.21607 1.07352 0.31394
 C2177 C 0.70804 0.41771 0.70655
 C2178 C 0.69854 0.42848 0.71379
 C2179 C 0.70489 0.44176 0.72017
 C2180 C 0.69582 0.39292 0.69407
 C2181 C 0.73030 0.43351 0.71211
 C2182 C 0.72394 0.42021 0.70579
 C2183 C 0.70144 0.40419 0.69977
 C2184 C 0.72083 0.44443 0.71933
 H2185 H 0.68622 0.42668 0.71441
 H2186 H 0.69731 0.45007 0.72550
 H2187 H 0.74263 0.43521 0.71147
 H2188 H 0.73141 0.41192 0.70027
 C2189 C 0.70767 -0.08274 0.20677
 C2190 C 0.69979 -0.07489 0.21831
 C2191 C 0.70605 -0.06154 0.22465
 C2192 C 0.69555 -0.10767 0.19442
 C2193 C 0.72816 -0.06391 0.20795
 C2194 C 0.72189 -0.07726 0.20164
 C2195 C 0.70110 -0.09633 0.20006
 C2196 C 0.72028 -0.05586 0.21947
 H2197 H 0.68875 -0.07903 0.22233
 H2198 H 0.69963 -0.05550 0.23337
 H2199 H 0.73923 -0.05994 0.20389
 H2200 H 0.72811 -0.08327 0.19274
 C2201 C 0.20859 0.41720 0.20670
 C2202 C 0.20316 0.42276 0.22067
 C2203 C 0.20938 0.43615 0.22693
 C2204 C 0.19634 0.39217 0.19470
 C2205 C 0.22661 0.43844 0.20530
 C2206 C 0.22035 0.42504 0.19904
 C2207 C 0.20196 0.40356 0.20017
 C2208 C 0.22113 0.44418 0.21929
 H2209 H 0.19409 0.41676 0.22672
 H2210 H 0.20507 0.44017 0.23782
 H2211 H 0.23551 0.44446 0.19906
 H2212 H 0.22462 0.42084 0.18820
 C2213 C 0.20878 -0.08266 0.70680
 C2214 C 0.20344 -0.07720 0.72085
 C2215 C 0.20971 -0.06387 0.72717
 C2216 C 0.19635 -0.10754 0.69469
 C2217 C 0.22681 -0.06144 0.70545
 C2218 C 0.22051 -0.07479 0.69913
 C2219 C 0.20208 -0.09623 0.70020
 C2220 C 0.22143 -0.05580 0.71951
 H2221 H 0.19439 -0.08324 0.72689
 H2222 H 0.20546 -0.05992 0.73811
 H2223 H 0.23567 -0.05538 0.69919
 H2224 H 0.22469 -0.07889 0.68823
 C2225 C 0.29122 0.29324 0.41834
 C2226 C 0.29657 0.27911 0.42384
 C2227 C 0.29021 0.27274 0.43704
 C2228 C 0.30335 0.30505 0.39326
 C2229 C 0.27309 0.29463 0.43934
 C2230 C 0.27949 0.30100 0.42612
 C2231 C 0.29779 0.29971 0.40470
 C2232 C 0.27843 0.28044 0.44497
 H2233 H 0.30565 0.27302 0.41791
 H2234 H 0.29442 0.26171 0.44097
 H2235 H 0.26417 0.30092 0.44530
 H2236 H 0.27534 0.31199 0.42201
 C2237 C 0.29111 0.79333 -0.08256
 C2238 C 0.29646 0.77919 -0.07708
 C2239 C 0.29022 0.77290 -0.06377
 C2240 C 0.30346 0.80539 -0.10740
 C2241 C 0.27314 0.79482 -0.06144
 C2242 C 0.27941 0.80111 -0.07476
 C2243 C 0.29777 0.79990 -0.09610
 C2244 C 0.27854 0.78068 -0.05576
 H2245 H 0.30548 0.77306 -0.08306
 H2246 H 0.29446 0.76189 -0.05980
 H2247 H 0.26429 0.80116 -0.05544
 H2248 H 0.27522 0.81208 -0.07889
 C2249 C 0.78992 0.29457 -0.08328
 C2250 C 0.79549 0.28045 -0.07797
 C2251 C 0.78939 0.27390 -0.06472
 C2252 C 0.80205 0.30691 -0.10809
 C2253 C 0.77202 0.29556 -0.06208
 C2254 C 0.77815 0.30210 -0.07533
 C2255 C 0.79642 0.30136 -0.09679
 C2256 C 0.77762 0.28141 -0.05659
 H2257 H 0.80458 0.27451 -0.08405
 H2258 H 0.79380 0.26291 -0.06090
 H2259 H 0.76310 0.30169 -0.05596
 H2260 H 0.77380 0.31306 -0.07932
 C2261 C 0.78986 0.79442 0.41686
 C2262 C 0.79541 0.78032 0.42224
 C2263 C 0.78934 0.77389 0.43556
 C2264 C 0.80208 0.80662 0.39202
 C2265 C 0.77203 0.79560 0.43811
 C2266 C 0.77813 0.80202 0.42478
 C2267 C 0.79640 0.80112 0.40332
 C2268 C 0.77763 0.78148 0.44368
 H2269 H 0.80445 0.77431 0.41617
 H2270 H 0.79374 0.76291 0.43944
 H2271 H 0.76314 0.80180 0.44421
 H2272 H 0.77379 0.81297 0.42072
 C2273 C 0.70582 0.29297 0.58305
 C2274 C 0.69789 0.28126 0.57547
 C2275 C 0.70391 0.27493 0.56207
 C2276 C 0.69425 0.30532 0.60811
 C2277 C 0.72588 0.29197 0.56388
 C2278 C 0.71984 0.29828 0.57726
 C2279 C 0.69952 0.29966 0.59670
 C2280 C 0.71794 0.28028 0.55609
 H2281 H 0.68700 0.27710 0.57984
 H2282 H 0.69746 0.26606 0.55624
 H2283 H 0.73682 0.29617 0.55968
 H2284 H 0.72610 0.30731 0.58307
 C2285 C 0.70593 0.79260 1.08317
 C2286 C 0.69805 0.78089 1.07552
 C2287 C 0.70410 0.77465 1.06210
 C2288 C 0.69419 0.80498 1.10813
 C2289 C 0.72601 0.79177 1.06400
 C2290 C 0.71995 0.79798 1.07741
 C2291 C 0.69955 0.79929 1.09678
 C2292 C 0.71812 0.78008 1.05615
 H2293 H 0.68717 0.77667 1.07987
 H2294 H 0.69767 0.76580 1.05622
 H2295 H 0.73693 0.79603 1.05982
 H2296 H 0.72616 0.80700 1.08327
 C2297 C 0.20666 0.29369 1.08297
 C2298 C 0.21838 0.30147 1.07520
 C2299 C 0.22458 0.29529 1.06182
 C2300 C 0.19460 0.30570 1.10797
 C2301 C 0.20740 0.27345 1.06400
 C2302 C 0.20123 0.27965 1.07738
 C2303 C 0.20011 0.30019 1.09660
 C2304 C 0.21911 0.28123 1.05603
 H2305 H 0.22264 0.31237 1.07942
 H2306 H 0.23344 0.30163 1.05585
 H2307 H 0.20311 0.26251 1.05995
 H2308 H 0.19220 0.27351 1.08333
 C2309 C 0.20666 0.79384 0.58320
 C2310 C 0.21807 0.80184 0.57520
 C2311 C 0.22423 0.79569 0.56177
 C2312 C 0.19475 0.80566 0.60838
 C2313 C 0.20757 0.77350 0.56433
 C2314 C 0.20145 0.77965 0.57776
 C2315 C 0.20020 0.80024 0.59693
 C2316 C 0.21901 0.78147 0.55618
 H2317 H 0.22214 0.81286 0.57928
 H2318 H 0.23286 0.80218 0.55562
 H2319 H 0.20346 0.76245 0.56040
 H2320 H 0.19265 0.77335 0.58388
 C2321 C 0.29179 0.70610 0.58232
 C2322 C 0.29906 0.70363 0.56829
 C2323 C 0.29275 0.70970 0.55493
 C2324 C 0.30402 0.69480 0.60755
 C2325 C 0.27177 0.72065 0.56958
 C2326 C 0.27810 0.71455 0.58294
 C2327 C 0.29842 0.69998 0.59608
 C2328 C 0.27908 0.71836 0.55544
 H2329 H 0.30962 0.69703 0.56768
 H2330 H 0.29849 0.70753 0.54418
 H2331 H 0.26132 0.72739 0.57035
 H2332 H 0.27238 0.71651 0.59375
 C2333 C 0.29105 0.20628 1.08297
 C2334 C 0.29643 0.22033 1.07735
 C2335 C 0.29017 0.22657 1.06404
 C2336 C 0.30357 0.19431 1.10775
 C2337 C 0.27297 0.20475 1.06198
 C2338 C 0.27926 0.19853 1.07530
 C2339 C 0.29778 0.19974 1.09649
 C2340 C 0.27843 0.21880 1.05614
 H2341 H 0.30552 0.22645 1.08323
 H2342 H 0.29445 0.23752 1.05996
 H2343 H 0.26405 0.19842 1.05608
 H2344 H 0.27503 0.18762 1.07955
 C2345 C 0.79294 0.70774 1.08264
 C2346 C 0.80076 0.71937 1.07478
 C2347 C 0.79451 0.72562 1.06146
 C2348 C 0.80510 0.69549 1.10747
 C2349 C 0.77252 0.70867 1.06387
 C2350 C 0.77879 0.70246 1.07719
 C2351 C 0.79953 0.70110 1.09617
 C2352 C 0.78034 0.72029 1.05581
 H2353 H 0.81175 0.72353 1.07889
 H2354 H 0.80089 0.73442 1.05542
 H2355 H 0.76149 0.70448 1.05993
 H2356 H 0.77261 0.69350 1.08322
 C2357 C 0.79225 0.20766 0.58274
 C2358 C 0.80011 0.21927 0.57490
 C2359 C 0.79386 0.22560 0.56161
 C2360 C 0.80446 0.19522 0.60745
 C2361 C 0.77177 0.20878 0.56403
 C2362 C 0.77804 0.20248 0.57732
 C2363 C 0.79885 0.20090 0.59621
 C2364 C 0.77965 0.22036 0.55598
 H2365 H 0.81114 0.22334 0.57898
 H2366 H 0.80028 0.23436 0.55556
 H2367 H 0.76071 0.20466 0.56009
 H2368 H 0.77183 0.19354 0.58333
 C2369 C 0.70745 0.70481 0.41654
 C2370 C 0.70180 0.71882 0.42203
 C2371 C 0.70769 0.72508 0.43549
 C2372 C 0.69559 0.69265 0.39156
 C2373 C 0.72502 0.70338 0.43795
 C2374 C 0.71911 0.69713 0.42449
 C2375 C 0.70107 0.69819 0.40292
 C2376 C 0.71934 0.71741 0.44363
 H2377 H 0.69280 0.72488 0.41594
 H2378 H 0.70320 0.73598 0.43947
 H2379 H 0.73382 0.69710 0.44407
 H2380 H 0.72353 0.68626 0.42035
 C2381 C 0.70795 0.20415 -0.08370
 C2382 C 0.70221 0.21814 -0.07824
 C2383 C 0.70812 0.22453 -0.06485
 C2384 C 0.69628 0.19209 -0.10883
 C2385 C 0.72563 0.20298 -0.06232
 C2386 C 0.71969 0.19660 -0.07573
 C2387 C 0.70168 0.19754 -0.09739
 C2388 C 0.71985 0.21699 -0.05670
 H2389 H 0.69315 0.22410 -0.08433
 H2390 H 0.70359 0.23544 -0.06093
 H2391 H 0.73453 0.19681 -0.05621
 H2392 H 0.72418 0.18573 -0.07982
 C2393 C 0.20702 0.70586 -0.08293
 C2394 C 0.20166 0.71996 -0.07738
 C2395 C 0.20779 0.72611 -0.06397
 C2396 C 0.19495 0.69388 -0.10790
 C2397 C 0.22478 0.70412 -0.06168
 C2398 C 0.21863 0.69798 -0.07509
 C2399 C 0.20046 0.69938 -0.09654
 C2400 C 0.21937 0.71822 -0.05593
 H2401 H 0.19271 0.72618 -0.08338
 H2402 H 0.20355 0.73710 -0.05995
 H2403 H 0.23356 0.69770 -0.05566
 H2404 H 0.22283 0.68704 -0.07928
 C2405 C 0.20677 0.20500 0.41767
 C2406 C 0.20133 0.21909 0.42317
 C2407 C 0.20743 0.22534 0.43655
 C2408 C 0.19504 0.19324 0.39240
 C2409 C 0.22449 0.20342 0.43898
 C2410 C 0.21837 0.19719 0.42559
 C2411 C 0.20041 0.19858 0.40391
 C2412 C 0.21905 0.21755 0.44463
 H2413 H 0.19238 0.22525 0.41712
 H2414 H 0.20314 0.23633 0.44051
 H2415 H 0.23329 0.19707 0.44504
 H2416 H 0.22261 0.18623 0.42148
 C2417 C 0.29489 0.41572 0.70702
 C2418 C 0.30284 0.42347 0.71857
 C2419 C 0.29676 0.43696 0.72483
 C2420 C 0.30655 0.39050 0.69475
 C2421 C 0.27470 0.43492 0.70805
 C2422 C 0.28080 0.42144 0.70182
 C2423 C 0.30125 0.40198 0.70039
 C2424 C 0.28265 0.44288 0.71958
 H2425 H 0.31378 0.41915 0.72265
 H2426 H 0.30322 0.44291 0.73357
 H2427 H 0.26371 0.43906 0.70393
 H2428 H 0.27453 0.41551 0.69292
 C2429 C 0.29420 0.91637 0.20595
 C2430 C 0.29733 0.92012 0.22116
 C2431 C 0.29124 0.93353 0.22754
 C2432 C 0.30606 0.89123 0.19371
 C2433 C 0.27875 0.93947 0.20354
 C2434 C 0.28487 0.92606 0.19717
 C2435 C 0.30064 0.90267 0.19931
 C2436 C 0.28189 0.94337 0.21880
 H2437 H 0.30452 0.91269 0.22808
 H2438 H 0.29371 0.93615 0.23937
 H2439 H 0.27178 0.94692 0.19645
 H2440 H 0.28243 0.92330 0.18537
 C2441 C 0.79334 0.41567 0.20433
 C2442 C 0.78170 0.42363 0.19662
 C2443 C 0.77557 0.43712 0.20281
 C2444 C 0.80536 0.39048 0.19236
 C2445 C 0.79268 0.43471 0.22450
 C2446 C 0.79878 0.42121 0.21830
 C2447 C 0.79986 0.40195 0.19783
 C2448 C 0.78105 0.44286 0.21679
 H2449 H 0.77742 0.41945 0.18579
 H2450 H 0.76676 0.44323 0.19653
 H2451 H 0.79698 0.43871 0.23539
 H2452 H 0.80775 0.41512 0.22439
 C2453 C 0.79323 0.91557 0.70475
 C2454 C 0.79869 0.92115 0.71869
 C2455 C 0.79254 0.93461 0.72491
 C2456 C 0.80547 0.89055 0.69265
 C2457 C 0.77531 0.93690 0.70331
 C2458 C 0.78149 0.92344 0.69710
 C2459 C 0.79984 0.90192 0.69819
 C2460 C 0.78082 0.94268 0.71725
 H2461 H 0.80774 0.91512 0.72473
 H2462 H 0.79687 0.93864 0.73578
 H2463 H 0.76643 0.94296 0.69705
 H2464 H 0.77720 0.91924 0.68628
 C2465 C 0.70753 0.58362 0.70575
 C2466 C 0.71926 0.57588 0.69794
 C2467 C 0.72576 0.56255 0.70413
 C2468 C 0.69495 0.60859 0.69384
 C2469 C 0.70880 0.56466 0.72601
 C2470 C 0.70236 0.57800 0.71982
 C2471 C 0.70071 0.59723 0.69928
 C2472 C 0.72055 0.55676 0.71820
 H2473 H 0.72333 0.58008 0.68701
 H2474 H 0.73466 0.55663 0.69777
 H2475 H 0.70469 0.56058 0.73696
 H2476 H 0.69331 0.58391 0.72600
 C2477 C 0.70850 0.08349 0.20550
 C2478 C 0.70316 0.07792 0.21952
 C2479 C 0.70946 0.06453 0.22576
 C2480 C 0.69620 0.10861 0.19363
 C2481 C 0.72655 0.06226 0.20401
 C2482 C 0.72022 0.07566 0.19778
 C2483 C 0.70185 0.09717 0.19902
 C2484 C 0.72119 0.05652 0.21805
 H2485 H 0.69412 0.08391 0.22561
 H2486 H 0.70525 0.06051 0.23669
 H2487 H 0.73543 0.05625 0.19772
 H2488 H 0.72440 0.07985 0.18690
 C2489 C 0.20691 0.58348 0.20781
 C2490 C 0.19906 0.57558 0.21935
 C2491 C 0.20538 0.56223 0.22568
 C2492 C 0.19478 0.60847 0.19551
 C2493 C 0.22747 0.56468 0.20896
 C2494 C 0.22114 0.57803 0.20267
 C2495 C 0.20031 0.59710 0.20115
 C2496 C 0.21963 0.55659 0.22050
 H2497 H 0.18801 0.57968 0.22339
 H2498 H 0.19899 0.55616 0.23441
 H2499 H 0.23855 0.56074 0.20488
 H2500 H 0.22733 0.58408 0.19377
 C2501 C 0.20709 0.08340 0.70853
 C2502 C 0.19939 0.07553 0.72019
 C2503 C 0.20581 0.06222 0.72650
 C2504 C 0.19473 0.10820 0.69609
 C2505 C 0.22772 0.06466 0.70955
 C2506 C 0.22129 0.07797 0.70328
 C2507 C 0.20037 0.09692 0.70181
 C2508 C 0.22001 0.05659 0.72118
 H2509 H 0.18837 0.07962 0.72432
 H2510 H 0.19952 0.05615 0.73531
 H2511 H 0.23876 0.06073 0.70537
 H2512 H 0.22736 0.08399 0.69428
 C2513 C 0.29428 0.58395 0.29277
 C2514 C 0.30225 0.57607 0.28131
 C2515 C 0.29612 0.56260 0.27508
 C2516 C 0.30608 0.60900 0.30519
 C2517 C 0.27396 0.56492 0.29173
 C2518 C 0.28011 0.57838 0.29792
 C2519 C 0.30071 0.59762 0.29944
 C2520 C 0.28193 0.55683 0.28028
 H2521 H 0.31326 0.58026 0.27728
 H2522 H 0.30261 0.55653 0.26642
 H2523 H 0.26292 0.56089 0.29583
 H2524 H 0.27382 0.58441 0.30676
 C2525 C 0.29489 0.08376 0.79306
 C2526 C 0.28077 0.07813 0.79828
 C2527 C 0.27462 0.06467 0.79208
 C2528 C 0.30662 0.10894 0.80532
 C2529 C 0.29667 0.06247 0.77528
 C2530 C 0.30281 0.07594 0.78152
 C2531 C 0.30130 0.09748 0.79967
 C2532 C 0.28254 0.05665 0.78055
 H2533 H 0.27452 0.08411 0.80718
 H2534 H 0.26362 0.06059 0.79622
 H2535 H 0.30312 0.05646 0.76656
 H2536 H 0.31378 0.08018 0.77742
 C2537 C 0.79415 0.58365 0.79284
 C2538 C 0.79929 0.57842 0.77861
 C2539 C 0.79303 0.56509 0.77226
 C2540 C 0.80628 0.60857 0.80519
 C2541 C 0.77629 0.56229 0.79430
 C2542 C 0.78262 0.57559 0.80065
 C2543 C 0.80077 0.59723 0.79951
 C2544 C 0.78150 0.55687 0.78006
 H2545 H 0.80817 0.58459 0.77241
 H2546 H 0.79712 0.56129 0.76119
 H2547 H 0.76754 0.55611 0.80066
 H2548 H 0.77857 0.57950 0.81171
 C2549 C 0.79379 0.08367 0.29319
 C2550 C 0.78205 0.07580 0.30084
 C2551 C 0.77580 0.06241 0.29458
 C2552 C 0.80584 0.10873 0.30535
 C2553 C 0.79301 0.06473 0.27293
 C2554 C 0.79923 0.07813 0.27921
 C2555 C 0.80036 0.09733 0.29976
 C2556 C 0.78126 0.05669 0.28058
 H2557 H 0.77779 0.07997 0.31170
 H2558 H 0.76691 0.05638 0.30082
 H2559 H 0.79731 0.06073 0.26204
 H2560 H 0.80828 0.08415 0.27317
 C2561 C 0.70870 0.41646 0.29229
 C2562 C 0.72052 0.42424 0.29987
 C2563 C 0.72692 0.43753 0.29348
 C2564 C 0.69610 0.39173 0.30461
 C2565 C 0.70973 0.43520 0.27185
 C2566 C 0.70337 0.42192 0.27825
 C2567 C 0.70189 0.40297 0.29899
 C2568 C 0.72152 0.44320 0.27943
 H2569 H 0.72471 0.42012 0.31077
 H2570 H 0.73586 0.44353 0.29967
 H2571 H 0.70549 0.43916 0.26092
 H2572 H 0.69425 0.41596 0.27226
 C2573 C 0.70839 0.91636 0.79255
 C2574 C 0.70304 0.92186 0.77852
 C2575 C 0.70939 0.93514 0.77214
 C2576 C 0.69590 0.89155 0.80479
 C2577 C 0.72659 0.93744 0.79377
 C2578 C 0.72020 0.92415 0.80014
 C2579 C 0.70163 0.90284 0.79921
 C2580 C 0.72119 0.94313 0.77972
 H2581 H 0.69392 0.91589 0.77253
 H2582 H 0.70514 0.93912 0.76122
 H2583 H 0.73553 0.94343 0.79996
 H2584 H 0.72440 0.92001 0.81103
 C2585 C 0.20774 0.41633 0.79240
 C2586 C 0.19996 0.42412 0.78076
 C2587 C 0.20629 0.43743 0.77437
 C2588 C 0.19544 0.39159 0.80497
 C2589 C 0.22828 0.43511 0.79121
 C2590 C 0.22193 0.42181 0.79757
 C2591 C 0.20107 0.40284 0.79920
 C2592 C 0.22048 0.44311 0.77959
 H2593 H 0.18894 0.41999 0.77671
 H2594 H 0.19993 0.44344 0.76557
 H2595 H 0.23932 0.43908 0.79532
 H2596 H 0.22807 0.41583 0.80655
 C2597 C 0.20792 0.91735 0.29354
 C2598 C 0.19864 0.93027 0.29108
 C2599 C 0.20488 0.94352 0.28452
 C2600 C 0.19582 0.89240 0.30589
 C2601 C 0.22973 0.93096 0.28282
 C2602 C 0.22347 0.91772 0.28941
 C2603 C 0.20142 0.90374 0.30027
 C2604 C 0.22049 0.94402 0.28029
 H2605 H 0.18660 0.93013 0.29426
 H2606 H 0.19752 0.95345 0.28294
 H2607 H 0.24173 0.93090 0.27951
 H2608 H 0.23074 0.90777 0.29125
 C2609 C 0.41753 0.29113 0.70602
 C2610 C 0.42561 0.27948 0.69845
 C2611 C 0.43904 0.27342 0.70485
 C2612 C 0.39245 0.30311 0.69380
 C2613 C 0.43628 0.29059 0.72644
 C2614 C 0.42285 0.29663 0.72004
 C2615 C 0.40386 0.29759 0.69934
 C2616 C 0.44457 0.27896 0.71888
 H2617 H 0.42160 0.27517 0.68757
 H2618 H 0.44527 0.26460 0.69868
 H2619 H 0.44012 0.29494 0.73737
 H2620 H 0.41665 0.30560 0.72601
 C2621 C 0.41713 0.79185 0.20620
 C2622 C 0.42513 0.78014 0.19863
 C2623 C 0.43849 0.77394 0.20504
 C2624 C 0.39217 0.80399 0.19389
 C2625 C 0.43584 0.79110 0.22666
 C2626 C 0.42248 0.79727 0.22024
 C2627 C 0.40353 0.79842 0.19951
 C2628 C 0.44404 0.77941 0.21909
 H2629 H 0.42111 0.77590 0.18772
 H2630 H 0.44466 0.76510 0.19886
 H2631 H 0.43972 0.79541 0.23758
 H2632 H 0.41637 0.80631 0.22621
 C2633 C 0.91734 0.29196 0.20577
 C2634 C 0.92536 0.28024 0.19823
 C2635 C 0.93874 0.27407 0.20464
 C2636 C 0.89222 0.30386 0.19349
 C2637 C 0.93609 0.29130 0.22621
 C2638 C 0.92271 0.29744 0.21978
 C2639 C 0.90366 0.29842 0.19910
 C2640 C 0.94429 0.27959 0.21868
 H2641 H 0.92132 0.27594 0.18735
 H2642 H 0.94489 0.26520 0.19850
 H2643 H 0.93996 0.29563 0.23713
 H2644 H 0.91657 0.30647 0.22574
 C2645 C 0.91734 0.79183 0.70616
 C2646 C 0.92522 0.78000 0.69866
 C2647 C 0.93859 0.77378 0.70504
 C2648 C 0.89245 0.80403 0.69374
 C2649 C 0.93618 0.79117 0.72651
 C2650 C 0.92281 0.79735 0.72012
 C2651 C 0.90376 0.79844 0.69944
 C2652 C 0.94427 0.77936 0.71901
 H2653 H 0.92110 0.77566 0.68783
 H2654 H 0.94466 0.76483 0.69891
 H2655 H 0.94013 0.79555 0.73738
 H2656 H 0.91677 0.80647 0.72604
 C2657 C 0.58312 0.29423 0.29221
 C2658 C 0.57520 0.30200 0.28064
 C2659 C 0.56173 0.29574 0.27452
 C2660 C 0.60820 0.30625 0.30440
 C2661 C 0.56411 0.27386 0.29150
 C2662 C 0.57757 0.28013 0.29758
 C2663 C 0.59680 0.30079 0.29876
 C2664 C 0.55600 0.28162 0.27994
 H2665 H 0.57937 0.31294 0.27643
 H2666 H 0.55563 0.30208 0.26577
 H2667 H 0.56011 0.26288 0.29578
 H2668 H 0.58362 0.27400 0.30651
 C2669 C 0.58265 0.79449 0.79255
 C2670 C 0.57479 0.80227 0.78094
 C2671 C 0.56130 0.79606 0.77481
 C2672 C 0.60787 0.80632 0.80464
 C2673 C 0.56354 0.77422 0.79186
 C2674 C 0.57702 0.78044 0.79795
 C2675 C 0.59639 0.80096 0.79906
 C2676 C 0.55549 0.78199 0.78026
 H2677 H 0.57902 0.81318 0.77670
 H2678 H 0.55526 0.80240 0.76603
 H2679 H 0.55948 0.76327 0.79614
 H2680 H 0.58303 0.77430 0.80691
 C2681 C 0.08250 0.29465 0.79256
 C2682 C 0.07459 0.30249 0.78102
 C2683 C 0.06114 0.29625 0.77486
 C2684 C 0.10757 0.30654 0.80483
 C2685 C 0.06354 0.27426 0.79170
 C2686 C 0.07698 0.28050 0.79783
 C2687 C 0.09616 0.30116 0.79915
 C2688 C 0.05542 0.28211 0.78020
 H2689 H 0.07875 0.31346 0.77688
 H2690 H 0.05504 0.30263 0.76613
 H2691 H 0.05955 0.26325 0.79588
 H2692 H 0.08305 0.27432 0.80672
 C2693 C 0.08310 0.79502 0.29218
 C2694 C 0.07512 0.80283 0.28068
 C2695 C 0.06164 0.79657 0.27461
 C2696 C 0.10817 0.80699 0.30437
 C2697 C 0.06416 0.77461 0.29148
 C2698 C 0.07763 0.78088 0.29752
 C2699 C 0.09678 0.80158 0.29871
 C2700 C 0.05597 0.78242 0.28000
 H2701 H 0.07924 0.81381 0.27650
 H2702 H 0.05549 0.80292 0.26590
 H2703 H 0.06021 0.76360 0.29570
 H2704 H 0.08375 0.77473 0.30639
 C2705 C 0.58226 0.70631 0.70896
 C2706 C 0.57439 0.69857 0.72060
 C2707 C 0.56099 0.70490 0.72683
 C2708 C 0.60722 0.69426 0.69651
 C2709 C 0.56335 0.72678 0.70984
 C2710 C 0.57674 0.72044 0.70365
 C2711 C 0.59587 0.69969 0.70229
 C2712 C 0.55527 0.71904 0.72145
 H2713 H 0.57854 0.68760 0.72477
 H2714 H 0.55493 0.69860 0.73563
 H2715 H 0.55936 0.73778 0.70561
 H2716 H 0.58276 0.72654 0.69467
 C2717 C 0.58257 0.20538 0.20861
 C2718 C 0.57714 0.21954 0.20326
 C2719 C 0.56378 0.22597 0.20941
 C2720 C 0.60773 0.19343 0.19645
 C2721 C 0.56123 0.20412 0.22640
 C2722 C 0.57460 0.19769 0.22021
 C2723 C 0.59627 0.19878 0.20210
 C2724 C 0.55564 0.21831 0.22103
 H2725 H 0.58324 0.22560 0.19430
 H2726 H 0.55988 0.23701 0.20518
 H2727 H 0.55511 0.19786 0.23519
 H2728 H 0.57867 0.18669 0.22439
 C2729 C 0.08278 0.70672 0.20873
 C2730 C 0.07485 0.69894 0.22029
 C2731 C 0.06147 0.70529 0.22654
 C2732 C 0.10781 0.69468 0.19644
 C2733 C 0.06398 0.72728 0.20970
 C2734 C 0.07735 0.72091 0.20349
 C2735 C 0.09642 0.70012 0.20211
 C2736 C 0.05586 0.71951 0.22125
 H2737 H 0.07894 0.68792 0.22440
 H2738 H 0.05536 0.69896 0.23528
 H2739 H 0.06006 0.73834 0.20555
 H2740 H 0.08343 0.72705 0.19458
 C2741 C 0.08248 0.20622 0.70927
 C2742 C 0.07709 0.22041 0.70397
 C2743 C 0.06369 0.22681 0.71009
 C2744 C 0.10745 0.19406 0.69696
 C2745 C 0.06108 0.20488 0.72698
 C2746 C 0.07449 0.19849 0.72082
 C2747 C 0.09609 0.19955 0.70267
 C2748 C 0.05550 0.21908 0.72162
 H2749 H 0.08321 0.22651 0.69506
 H2750 H 0.05980 0.23785 0.70588
 H2751 H 0.05492 0.19858 0.73571
 H2752 H 0.07854 0.18747 0.72498
 C2753 C 0.41713 0.70837 0.29477
 C2754 C 0.42504 0.72008 0.30239
 C2755 C 0.43847 0.72625 0.29608
 C2756 C 0.39205 0.69621 0.30679
 C2757 C 0.43604 0.70904 0.27447
 C2758 C 0.42262 0.70291 0.28079
 C2759 C 0.40346 0.70182 0.30134
 C2760 C 0.44416 0.72072 0.28208
 H2761 H 0.42091 0.72437 0.31324
 H2762 H 0.44456 0.73512 0.30227
 H2763 H 0.44000 0.70472 0.26357
 H2764 H 0.41655 0.69387 0.27479
 C2765 C 0.41758 0.20835 0.79463
 C2766 C 0.42313 0.20282 0.78069
 C2767 C 0.43662 0.20886 0.77445
 C2768 C 0.39246 0.19629 0.80667
 C2769 C 0.43900 0.22612 0.79602
 C2770 C 0.42550 0.22005 0.80225
 C2771 C 0.40387 0.20186 0.80118
 C2772 C 0.44474 0.22054 0.78206
 H2773 H 0.41704 0.19381 0.77469
 H2774 H 0.44064 0.20448 0.76360
 H2775 H 0.44510 0.23497 0.80223
 H2776 H 0.42131 0.22440 0.81307
 C2777 C 0.91695 0.70845 0.79477
 C2778 C 0.92249 0.70288 0.78084
 C2779 C 0.93596 0.70894 0.77453
 C2780 C 0.89188 0.69631 0.80690
 C2781 C 0.93833 0.72630 0.79602
 C2782 C 0.92486 0.72020 0.80232
 C2783 C 0.90328 0.70192 0.80139
 C2784 C 0.94407 0.72068 0.78209
 H2785 H 0.91643 0.69382 0.77488
 H2786 H 0.93996 0.70453 0.76368
 H2787 H 0.94441 0.73519 0.80219
 H2788 H 0.92068 0.72458 0.81313
 C2789 C 0.91701 0.20826 0.29457
 C2790 C 0.92482 0.22010 0.30211
 C2791 C 0.93825 0.22629 0.29582
 C2792 C 0.89188 0.19614 0.30666
 C2793 C 0.93607 0.20885 0.27438
 C2794 C 0.92264 0.20269 0.28068
 C2795 C 0.90331 0.20171 0.30116
 C2796 C 0.94407 0.22068 0.28191
 H2797 H 0.92058 0.22447 0.31289
 H2798 H 0.94425 0.23525 0.30198
 H2799 H 0.94014 0.20444 0.26356
 H2800 H 0.91667 0.19356 0.27472
 C2801 C 0.29271 0.29147 0.58316
 C2802 C 0.30043 0.27975 0.57534
 C2803 C 0.29403 0.27342 0.56213
 C2804 C 0.30503 0.30378 0.60788
 C2805 C 0.27210 0.29047 0.56459
 C2806 C 0.27851 0.29676 0.57780
 C2807 C 0.29941 0.29815 0.59662
 C2808 C 0.27984 0.27879 0.55655
 H2809 H 0.31145 0.27559 0.57938
 H2810 H 0.30033 0.26455 0.55611
 H2811 H 0.26104 0.29467 0.56072
 H2812 H 0.27241 0.30579 0.58381
 C2813 C 0.29324 0.79175 0.08254
 C2814 C 0.30096 0.78005 0.07470
 C2815 C 0.29458 0.77378 0.06145
 C2816 C 0.30547 0.80400 0.10731
 C2817 C 0.27267 0.79086 0.06391
 C2818 C 0.27906 0.79709 0.07716
 C2819 C 0.29990 0.79839 0.09603
 C2820 C 0.28040 0.77917 0.05587
 H2821 H 0.31195 0.77584 0.07876
 H2822 H 0.30087 0.76491 0.05542
 H2823 H 0.26163 0.79508 0.06003
 H2824 H 0.27295 0.80610 0.08319
 C2825 C 0.79349 0.29078 0.08173
 C2826 C 0.80114 0.27912 0.07376
 C2827 C 0.79467 0.27298 0.06049
 C2828 C 0.80582 0.30293 0.10650
 C2829 C 0.77283 0.29011 0.06321
 C2830 C 0.77931 0.29622 0.07646
 C2831 C 0.80023 0.29732 0.09523
 C2832 C 0.78047 0.27847 0.05503
 H2833 H 0.81215 0.27486 0.07772
 H2834 H 0.80091 0.26416 0.05435
 H2835 H 0.76179 0.29442 0.05940
 H2836 H 0.77327 0.30521 0.08258
 C2837 C 0.79369 0.79109 0.58187
 C2838 C 0.80131 0.77945 0.57384
 C2839 C 0.79480 0.77331 0.56059
 C2840 C 0.80599 0.80304 0.60677
 C2841 C 0.77299 0.79045 0.56336
 C2842 C 0.77950 0.79655 0.57661
 C2843 C 0.80042 0.79753 0.59543
 C2844 C 0.78059 0.77879 0.55517
 H2845 H 0.81233 0.77518 0.57777
 H2846 H 0.80102 0.76448 0.55443
 H2847 H 0.76194 0.79476 0.55959
 H2848 H 0.77348 0.80554 0.58275
 C2849 C 0.29217 0.70788 0.41711
 C2850 C 0.29997 0.71956 0.42488
 C2851 C 0.29373 0.72582 0.43821
 C2852 C 0.30432 0.69559 0.39229
 C2853 C 0.27179 0.70879 0.43597
 C2854 C 0.27805 0.70256 0.42264
 C2855 C 0.29874 0.70121 0.40357
 C2856 C 0.27960 0.72045 0.44394
 H2857 H 0.31093 0.72374 0.42071
 H2858 H 0.30010 0.73465 0.44419
 H2859 H 0.26079 0.70456 0.43998
 H2860 H 0.27189 0.69356 0.41668
 C2861 C 0.29298 0.20744 0.91753
 C2862 C 0.27884 0.20209 0.92302
 C2863 C 0.27252 0.20831 0.93631
 C2864 C 0.30511 0.19532 0.89263
 C2865 C 0.29444 0.22537 0.93865
 C2866 C 0.30074 0.21911 0.92535
 C2867 C 0.29956 0.20086 0.90396
 C2868 C 0.28028 0.21999 0.94431
 H2869 H 0.27272 0.19309 0.91702
 H2870 H 0.26151 0.20409 0.94026
 H2871 H 0.30076 0.23422 0.94464
 H2872 H 0.31171 0.22331 0.92121
 C2873 C 0.79132 0.70643 0.91725
 C2874 C 0.79666 0.72053 0.92279
 C2875 C 0.79038 0.72677 0.93609
 C2876 C 0.80385 0.69442 0.89250
 C2877 C 0.77325 0.70490 0.93828
 C2878 C 0.77956 0.69866 0.92497
 C2879 C 0.79807 0.69988 0.90375
 C2880 C 0.77867 0.71899 0.94403
 H2881 H 0.80572 0.72666 0.91687
 H2882 H 0.79462 0.73775 0.94012
 H2883 H 0.76437 0.69856 0.94423
 H2884 H 0.77537 0.68772 0.92078
 C2885 C 0.79139 0.20672 0.41726
 C2886 C 0.77969 0.19887 0.42499
 C2887 C 0.77335 0.20505 0.43831
 C2888 C 0.80392 0.19480 0.39245
 C2889 C 0.79037 0.22701 0.43616
 C2890 C 0.79668 0.22082 0.42285
 C2891 C 0.79815 0.20023 0.40373
 C2892 C 0.77868 0.21917 0.44408
 H2893 H 0.77555 0.18792 0.42079
 H2894 H 0.76451 0.19865 0.44427
 H2895 H 0.79458 0.23799 0.44021
 H2896 H 0.80571 0.22700 0.41693
 C2897 C 0.70644 0.29387 0.41695
 C2898 C 0.71800 0.30177 0.42480
 C2899 C 0.72420 0.29561 0.43820
 C2900 C 0.69444 0.30567 0.39182
 C2901 C 0.70732 0.27357 0.43588
 C2902 C 0.70115 0.27974 0.42249
 C2903 C 0.69993 0.30028 0.40326
 C2904 C 0.71887 0.28146 0.44392
 H2905 H 0.72216 0.31274 0.42062
 H2906 H 0.73296 0.30203 0.44422
 H2907 H 0.70314 0.26256 0.43989
 H2908 H 0.69224 0.27350 0.41648
 C2909 C 0.70636 0.79358 0.91704
 C2910 C 0.71806 0.80142 0.92475
 C2911 C 0.72432 0.79530 0.93813
 C2912 C 0.69419 0.80551 0.89204
 C2913 C 0.70721 0.77340 0.93610
 C2914 C 0.70099 0.77954 0.92272
 C2915 C 0.69975 0.80003 0.90341
 C2916 C 0.71892 0.78124 0.94399
 H2917 H 0.72228 0.81233 0.92047
 H2918 H 0.73317 0.80169 0.94405
 H2919 H 0.70296 0.76245 0.94022
 H2920 H 0.69196 0.77335 0.91683
 C2921 C 0.20579 0.29251 0.91687
 C2922 C 0.21983 0.29787 0.92256
 C2923 C 0.22594 0.29162 0.93594
 C2924 C 0.19397 0.30483 0.89191
 C2925 C 0.20403 0.27452 0.93796
 C2926 C 0.19794 0.28079 0.92456
 C2927 C 0.19937 0.29917 0.90326
 C2928 C 0.21808 0.27993 0.94384
 H2929 H 0.22603 0.30690 0.91667
 H2930 H 0.23688 0.29588 0.94007
 H2931 H 0.19762 0.26566 0.94387
 H2932 H 0.18704 0.27659 0.92028
 C2933 C 0.20541 0.79269 0.41715
 C2934 C 0.21944 0.79805 0.42284
 C2935 C 0.22554 0.79182 0.43623
 C2936 C 0.19376 0.80498 0.39210
 C2937 C 0.20361 0.77473 0.43825
 C2938 C 0.19753 0.78099 0.42484
 C2939 C 0.19906 0.79932 0.40350
 C2940 C 0.21765 0.78013 0.44413
 H2941 H 0.22565 0.80707 0.41695
 H2942 H 0.23647 0.79606 0.44036
 H2943 H 0.19719 0.76588 0.44417
 H2944 H 0.18663 0.77679 0.42055
 C2945 C 0.70416 0.70814 0.58277
 C2946 C 0.69642 0.71974 0.57479
 C2947 C 0.70270 0.72575 0.56135
 C2948 C 0.69226 0.69625 0.60793
 C2949 C 0.72451 0.70855 0.56385
 C2950 C 0.71822 0.70258 0.57728
 C2951 C 0.69763 0.70176 0.59648
 C2952 C 0.71680 0.72019 0.55571
 H2953 H 0.68549 0.72408 0.57890
 H2954 H 0.69639 0.73453 0.55522
 H2955 H 0.73546 0.70415 0.55989
 H2956 H 0.72432 0.69361 0.58337
 C2957 C 0.70424 0.20823 0.08255
 C2958 C 0.71833 0.20273 0.07708
 C2959 C 0.72461 0.20873 0.06366
 C2960 C 0.69226 0.19605 0.10753
 C2961 C 0.70279 0.22591 0.06118
 C2962 C 0.69651 0.21988 0.07461
 C2963 C 0.69765 0.20171 0.09616
 C2964 C 0.71687 0.22033 0.05551
 H2965 H 0.72444 0.19377 0.08317
 H2966 H 0.73558 0.20437 0.05971
 H2967 H 0.69648 0.23471 0.05508
 H2968 H 0.68558 0.22420 0.07873
 C2969 C 0.20521 0.70729 0.08335
 C2970 C 0.21929 0.70191 0.07776
 C2971 C 0.22547 0.70805 0.06436
 C2972 C 0.19336 0.69514 0.10841
 C2973 C 0.20352 0.72511 0.06211
 C2974 C 0.19736 0.71893 0.07553
 C2975 C 0.19875 0.70073 0.09701
 C2976 C 0.21763 0.71968 0.05634
 H2977 H 0.22549 0.69293 0.08375
 H2978 H 0.23645 0.70379 0.06032
 H2979 H 0.19713 0.73391 0.05610
 H2980 H 0.18642 0.72316 0.07973
 C2981 C 0.20472 0.20703 0.58385
 C2982 C 0.19682 0.21862 0.57600
 C2983 C 0.20296 0.22478 0.56256
 C2984 C 0.19298 0.19487 0.60894
 C2985 C 0.22499 0.20783 0.56487
 C2986 C 0.21884 0.20170 0.57829
 C2987 C 0.19831 0.20047 0.59752
 C2988 C 0.21708 0.21939 0.55681
 H2989 H 0.18587 0.22281 0.58019
 H2990 H 0.19653 0.23355 0.55653
 H2991 H 0.23599 0.20362 0.56086
 H2992 H 0.22508 0.19279 0.58431
   
