data_POSCAR
  _audit_creation_date              2014-09-24
  _audit_creation_method            'ToBaCCo'
  _symmetry_space_group_name_H-M    'P1'
  _symmetry_Int_Tables_number       1
  _symmetry_cell_setting            triclinic
  loop_
  _symmetry_equiv_pos_as_xyz
 x,y,z
_cell_length_a 36.9485
_cell_length_b 37.6499
_cell_length_c 34.1526
_cell_angle_alpha 89.830700
_cell_angle_beta 90.055300
_cell_angle_gamma 91.273400
loop_
  _atom_site_label
  _atom_site_type_symbol
  _atom_site_fract_x
  _atom_site_fract_y
  _atom_site_fract_z
C1 C 0.32156 -0.04935 0.22591
 C2 C 0.33352 -0.01428 0.21786
 C3 C 0.35342 -0.00730 0.18373
 C4 C 0.36433 -0.03506 0.15968
 C5 C 0.35326 -0.06998 0.16839
 C6 C 0.33153 -0.07762 0.20132
 C7 C 0.33452 0.01275 0.24932
 C8 C 0.35115 0.00341 0.28460
 C9 C 0.36334 0.02926 0.31119
 C10 C 0.35535 0.06505 0.30374
 C11 C 0.33650 0.07491 0.26968
 C12 C 0.32675 0.04863 0.24206
 H13 H 0.30721 -0.05442 0.25299
 H14 H 0.36370 0.01942 0.17801
 H15 H 0.35817 -0.02411 0.28935
 H16 H 0.31489 0.05605 0.21429
 H17 H 0.36181 -0.09127 0.14943
 H18 H 0.36346 0.08559 0.32421
 C19 C 0.16626 -0.04108 0.76401
 C20 C 0.15649 -0.00640 0.77447
 C21 C 0.14336 -0.00010 0.81222
 C22 C 0.13663 -0.02828 0.83817
 C23 C 0.14559 -0.06287 0.82726
 C24 C 0.16104 -0.06948 0.79043
 C25 C 0.15069 0.02095 0.74401
 C26 C 0.12763 0.01211 0.71289
 C27 C 0.11347 0.03822 0.68827
 C28 C 0.12512 0.07380 0.69352
 C29 C 0.14986 0.08315 0.72344
 C30 C 0.16189 0.05655 0.74925
 H31 H 0.17526 -0.04617 0.73443
 H32 H 0.13460 0.02628 0.81993
 H33 H 0.11825 -0.01528 0.70989
 H34 H 0.17877 0.06336 0.77414
 H35 H 0.14012 -0.08472 0.84727
 H36 H 0.11553 0.09445 0.67432
 C37 C 0.66291 0.43799 0.26774
 C38 C 0.65597 0.47346 0.27727
 C39 C 0.64106 0.48123 0.31375
 C40 C 0.62957 0.45400 0.33890
 C41 C 0.63547 0.41860 0.32895
 C42 C 0.65311 0.41042 0.29380
 C43 C 0.65438 0.50098 0.24655
 C44 C 0.63242 0.49371 0.21401
 C45 C 0.61985 0.52117 0.19055
 C46 C 0.63215 0.55603 0.19741
 C47 C 0.65500 0.56389 0.22919
 C48 C 0.66602 0.53618 0.25393
 H49 H 0.67351 0.43192 0.23904
 H50 H 0.63452 0.50843 0.32076
 H51 H 0.62166 0.46698 0.20953
 H52 H 0.68142 0.54190 0.28021
 H53 H 0.62650 0.39751 0.34858
 H54 H 0.62314 0.57735 0.17866
 C55 C 0.82000 0.44752 0.72844
 C56 C 0.83593 0.48172 0.72404
 C57 C 0.85660 0.48951 0.69069
 C58 C 0.86293 0.46355 0.66261
 C59 C 0.84634 0.42994 0.66633
 C60 C 0.82427 0.42176 0.69884
 C61 C 0.83651 0.50832 0.75588
 C62 C 0.85717 0.50105 0.78922
 C63 C 0.86973 0.52856 0.81380
 C64 C 0.85804 0.56333 0.80662
 C65 C 0.83544 0.57093 0.77464
 C66 C 0.82526 0.54331 0.74887
 H67 H 0.80391 0.44143 0.75418
 H68 H 0.86968 0.51547 0.68769
 H69 H 0.86682 0.47430 0.79346
 H70 H 0.81066 0.54917 0.72220
 H71 H 0.85019 0.41033 0.64361
 H72 H 0.86619 0.58485 0.82585
 C73 C 0.23475 0.37402 1.02971
 C74 C 0.25155 0.39907 1.00516
 C75 C 0.28114 0.41926 1.01852
 C76 C 0.29376 0.41533 1.05714
 C77 C 0.27570 0.39107 1.08224
 C78 C 0.24630 0.36977 1.06846
 C79 C 0.24006 0.40143 0.96421
 C80 C 0.20831 0.41883 0.95451
 C81 C 0.19489 0.41792 0.91600
 C82 C 0.21315 0.39793 0.88774
 C83 C 0.24502 0.37994 0.89752
 C84 C 0.25888 0.38292 0.93567
 H85 H 0.21275 0.35751 1.01827
 H86 H 0.29521 0.43646 0.99785
 H87 H 0.19343 0.43187 0.97750
 H88 H 0.28357 0.36990 0.94394
 H89 H 0.28657 0.38698 1.11132
 H90 H 0.20202 0.39564 0.85845
 C91 C 0.76346 0.13544 1.04010
 C92 C 0.74658 0.11271 1.01294
 C93 C 0.71599 0.09258 1.02389
 C94 C 0.70249 0.09410 1.06236
 C95 C 0.72041 0.11612 1.08984
 C96 C 0.75098 0.13726 1.07889
 C97 C 0.76151 0.10946 0.97314
 C98 C 0.79407 0.09183 0.96784
 C99 C 0.80952 0.08898 0.93045
 C100 C 0.79240 0.10529 0.89851
 C101 C 0.75969 0.12344 0.90335
 C102 C 0.74397 0.12460 0.94092
 H103 H 0.78676 0.15142 1.03097
 H104 H 0.70238 0.07649 1.00190
 H105 H 0.80764 0.08105 0.99322
 H106 H 0.71857 0.13766 0.94564
 H107 H 0.70902 0.11821 1.11892
 H108 H 0.80495 0.10431 0.86987
 C109 C 0.26076 0.63889 0.56129
 C110 C 0.24528 0.62093 0.52915
 C111 C 0.21211 0.60262 0.53343
 C112 C 0.19429 0.60175 0.56982
 C113 C 0.20951 0.62070 0.60139
 C114 C 0.24265 0.63961 0.59753
 C115 C 0.26406 0.62136 0.49102
 C116 C 0.29744 0.60469 0.48744
 C117 C 0.31742 0.60717 0.45242
 C118 C 0.30411 0.62812 0.42176
 C119 C 0.27054 0.64472 0.42482
 C120 C 0.25015 0.64059 0.45927
 H121 H 0.28667 0.65240 0.55754
 H122 H 0.20022 0.58944 0.50822
 H123 H 0.30803 0.59086 0.51264
 H124 H 0.22496 0.65448 0.46252
 H125 H 0.19526 0.62094 0.62913
 H126 H 0.32018 0.63196 0.39546
 C127 C 0.73543 0.86350 0.52893
 C128 C 0.74916 0.88872 0.50217
 C129 C 0.78165 0.90725 0.51044
 C130 C 0.80132 0.90032 0.54510
 C131 C 0.78774 0.87379 0.57067
 C132 C 0.75487 0.85567 0.56299
 C133 C 0.73128 0.89364 0.46386
 C134 C 0.69677 0.90845 0.46177
 C135 C 0.67965 0.91288 0.42532
 C136 C 0.69709 0.90180 0.39130
 C137 C 0.73142 0.88669 0.39285
 C138 C 0.74865 0.88295 0.42930
 H139 H 0.71096 0.84837 0.52200
 H140 H 0.79177 0.92572 0.48859
 H141 H 0.68323 0.91599 0.48852
 H142 H 0.77528 0.87159 0.43103
 H143 H 0.80305 0.86666 0.59654
 H144 H 0.68351 0.90456 0.36331
 C145 C -0.04648 0.23808 0.36045
 C146 C -0.01012 0.24138 0.37129
 C147 C 0.00633 0.21402 0.39195
 C148 C -0.01435 0.18527 0.40628
 C149 C -0.05168 0.18300 0.39703
 C150 C -0.06749 0.20832 0.37224
 C151 C 0.00957 0.27529 0.36581
 C152 C -0.00374 0.30602 0.38320
 C153 C 0.01702 0.33749 0.38290
 C154 C 0.05102 0.33843 0.36486
 C155 C 0.06455 0.30778 0.34760
 C156 C 0.04360 0.27625 0.34793
 H157 H -0.05853 0.25986 0.34472
 H158 H 0.03471 0.21674 0.39984
 H159 H -0.02965 0.30513 0.39809
 H160 H 0.05446 0.25194 0.33630
 H161 H -0.06792 0.16030 0.40663
 H162 H 0.06751 0.36262 0.36559
 C163 C -0.04282 0.77012 0.15617
 C164 C -0.00888 0.77074 0.13780
 C165 C 0.00443 0.80216 0.12055
 C166 C -0.01606 0.83284 0.12134
 C167 C -0.04987 0.83228 0.13984
 C168 C -0.06389 0.80095 0.15712
 C169 C 0.01043 0.73764 0.13093
 C170 C -0.00581 0.71149 0.10738
 C171 C 0.01480 0.68439 0.09133
 C172 C 0.05168 0.68205 0.10210
 C173 C 0.06709 0.70599 0.12934
 C174 C 0.04654 0.73447 0.14260
 H175 H -0.05317 0.74495 0.16724
 H176 H 0.03024 0.80242 0.10545
 H177 H -0.03385 0.71424 0.09859
 H178 H 0.05892 0.75493 0.16077
 H179 H -0.06567 0.85623 0.13980
 H180 H 0.06796 0.66067 0.09116
 C181 C 0.47120 0.24374 0.63091
 C182 C 0.50039 0.25608 0.60825
 C183 C 0.50262 0.29177 0.59662
 C184 C 0.47565 0.31536 0.60787
 C185 C 0.44734 0.30310 0.63212
 C186 C 0.44481 0.26720 0.64349
 C187 C 0.52813 0.23133 0.59580
 C188 C 0.52114 0.20841 0.56433
 C189 C 0.54797 0.18545 0.55133
 C190 C 0.58187 0.18608 0.56986
 C191 C 0.58858 0.20797 0.60229
 C192 C 0.56159 0.23082 0.61509
 H193 H 0.46919 0.21588 0.63893
 H194 H 0.52530 0.30091 0.57892
 H195 H 0.49514 0.20912 0.54972
 H196 H 0.56679 0.24878 0.63929
 H197 H 0.42632 0.32122 0.64045
 H198 H 0.60284 0.16861 0.55976
 C199 C 0.44327 0.73063 0.88279
 C200 C 0.47501 0.72950 0.90497
 C201 C 0.47702 0.70751 0.93795
 C202 C 0.44686 0.68646 0.94939
 C203 C 0.41490 0.68835 0.92714
 C204 C 0.41300 0.70980 0.89359
 C205 C 0.50535 0.75343 0.89524
 C206 C 0.50555 0.78819 0.90932
 C207 C 0.53424 0.81173 0.90023
 C208 C 0.56202 0.80037 0.87533
 C209 C 0.56196 0.76523 0.86127
 C210 C 0.53372 0.74176 0.87191
 H211 H 0.44216 0.74866 0.85811
 H212 H 0.50187 0.70805 0.95468
 H213 H 0.48299 0.79670 0.92691
 H214 H 0.53353 0.71452 0.86168
 H215 H 0.39129 0.67246 0.93556
 H216 H 0.58431 0.81843 0.86824
 C217 C -0.29456 0.57582 1.00894
 C218 C -0.25998 0.59032 1.01754
 C219 C -0.25244 0.60188 1.05565
 C220 C -0.27931 0.60095 1.08449
 C221 C -0.31348 0.58571 1.07603
 C222 C -0.32129 0.57207 1.03822
 C223 C -0.23328 0.59791 0.98593
 C224 C -0.24461 0.61657 0.95272
 C225 C -0.21969 0.62980 0.92500
 C226 C -0.18279 0.62217 0.92997
 C227 C -0.17087 0.60215 0.96223
 C228 C -0.19628 0.59054 0.99053
 H229 H -0.30036 0.56689 0.97938
 H230 H -0.22631 0.61416 1.06219
 H231 H -0.27302 0.62280 0.94984
 H232 H -0.18743 0.57666 1.01651
 H233 H -0.33384 0.58561 1.09878
 H234 H -0.16299 0.63107 0.90861
 C235 C -0.28158 0.42186 0.48967
 C236 C -0.25829 0.39445 0.47975
 C237 C -0.26613 0.37281 0.44750
 C238 C -0.29689 0.37849 0.42457
 C239 C -0.32092 0.40523 0.43534
 C240 C -0.31393 0.42666 0.46874
 C241 C -0.22838 0.38497 0.50589
 C242 C -0.23394 0.35671 0.53194
 C243 C -0.20587 0.34469 0.55571
 C244 C -0.17165 0.36148 0.55291
 C245 C -0.16541 0.38990 0.52657
 C246 C -0.19419 0.40174 0.50314
 H247 H -0.27566 0.43775 0.51543
 H248 H -0.24770 0.35193 0.43979
 H249 H -0.26042 0.34370 0.53328
 H250 H -0.19011 0.42283 0.48194
 H251 H -0.34432 0.40976 0.41706
 H252 H -0.14938 0.35191 0.57030
 C253 C 0.20344 -0.07833 -0.00363
 C254 C 0.23938 -0.08698 -0.01303
 C255 C 0.24680 -0.10074 -0.05020
 C256 C 0.21878 -0.11014 -0.07618
 C257 C 0.18302 -0.10216 -0.06605
 C258 C 0.17516 -0.08557 -0.03032
 C259 C 0.26747 -0.09063 0.01789
 C260 C 0.25832 -0.11015 0.05157
 C261 C 0.28498 -0.12475 0.07569
 C262 C 0.32164 -0.11682 0.06741
 C263 C 0.33153 -0.09509 0.03527
 C264 C 0.30422 -0.08245 0.01033
 H265 H 0.19732 -0.06833 0.02526
 H266 H 0.27424 -0.10829 -0.05703
 H267 H 0.23010 -0.11726 0.05670
 H268 H 0.31135 -0.06807 -0.01614
 H269 H 0.16101 -0.10840 -0.08600
 H270 H 0.34273 -0.12709 0.08600
 C271 C 0.19610 1.10091 0.49940
 C272 C 0.23309 1.11028 0.50237
 C273 C 0.24546 1.13036 0.53427
 C274 C 0.22130 1.14207 0.56284
 C275 C 0.18447 1.13238 0.55985
 C276 C 0.17161 1.11159 0.52853
 C277 C 0.25885 1.10089 0.47126
 C278 C 0.26012 1.12088 0.43654
 C279 C 0.28377 1.11179 0.40595
 C280 C 0.30564 1.08205 0.41066
 C281 C 0.30703 1.06396 0.44660
 C282 C 0.28331 1.07330 0.47685
 H283 H 0.18660 1.08591 0.47427
 H284 H 0.27396 1.13766 0.53624
 H285 H 0.24164 1.14262 0.43307
 H286 H 0.28352 1.05895 0.50439
 H287 H 0.16564 1.14013 0.58235
 H288 H 0.32377 1.07454 0.38727
 C289 C 0.11802 0.49008 0.20654
 C290 C 0.13974 0.50487 0.23622
 C291 C 0.15897 0.53677 0.22947
 C292 C 0.15739 0.55381 0.19275
 C293 C 0.13574 0.53850 0.16316
 C294 C 0.11578 0.50679 0.16997
 C295 C 0.14105 0.48785 0.27506
 C296 C 0.15602 0.45422 0.27925
 C297 C 0.15747 0.43768 0.31620
 C298 C 0.14201 0.45462 0.34848
 C299 C 0.12612 0.48807 0.34450
 C300 C 0.12672 0.50498 0.30774
 H301 H 0.10218 0.46605 0.21226
 H302 H 0.17410 0.54847 0.25347
 H303 H 0.16610 0.44102 0.25347
 H304 H 0.11555 0.53111 0.30404
 H305 H 0.13309 0.55220 0.13538
 H306 H 0.14183 0.44140 0.37673
 C307 C -0.13229 1.00129 0.19724
 C308 C -0.13844 0.99179 0.23640
 C309 C -0.15295 0.95835 0.24570
 C310 C -0.16305 0.93421 0.21642
 C311 C -0.15749 0.94405 0.17691
 C312 C -0.14061 0.97699 0.16694
 C313 C -0.12797 1.01567 0.26858
 C314 C -0.14716 1.04669 0.27553
 C315 C -0.13887 1.06820 0.30837
 C316 C -0.10967 1.05880 0.33243
 C317 C -0.09144 1.02708 0.32626
 C318 C -0.10077 1.00551 0.29450
 H319 H -0.12035 1.02718 0.19118
 H320 H -0.15667 0.95133 0.27631
 H321 H -0.16823 1.05348 0.25503
 H322 H -0.08668 0.98093 0.28973
 H323 H -0.16364 0.92517 0.15388
 H324 H -0.10232 1.07512 0.35747
 C325 C 0.40477 0.50559 -0.29235
 C326 C 0.38239 0.49165 -0.26260
 C327 C 0.36797 0.45709 -0.26587
 C328 C 0.37474 0.43667 -0.29935
 C329 C 0.39753 0.45071 -0.32863
 C330 C 0.41269 0.48529 -0.32571
 C331 C 0.37071 0.51481 -0.23041
 C332 C 0.35466 0.54702 -0.23979
 C333 C 0.34130 0.56925 -0.21062
 C334 C 0.34549 0.55918 -0.17111
 C335 C 0.36359 0.52785 -0.16101
 C336 C 0.37503 0.50508 -0.19102
 H337 H 0.41481 0.53262 -0.28939
 H338 H 0.35081 0.44667 -0.24266
 H339 H 0.35165 0.55428 -0.27038
 H340 H 0.38778 0.48023 -0.18417
 H341 H 0.40289 0.43469 -0.35425
 H342 H 0.33708 0.57673 -0.14795
 C343 C 0.61188 -0.01126 -0.29015
 C344 C 0.63736 0.00298 -0.26399
 C345 C 0.65781 0.03320 -0.27425
 C346 C 0.65411 0.04881 -0.31150
 C347 C 0.62937 0.03338 -0.33830
 C348 C 0.60763 0.00343 -0.32756
 C349 C 0.64192 -0.01362 -0.22541
 C350 C 0.65574 -0.04780 -0.22285
 C351 C 0.65869 -0.06495 -0.18643
 C352 C 0.64578 -0.04792 -0.15285
 C353 C 0.63094 -0.01384 -0.15527
 C354 C 0.63038 0.00368 -0.19165
 H355 H 0.59544 -0.03411 -0.28123
 H356 H 0.67566 0.04481 -0.25242
 H357 H 0.66329 -0.06111 -0.24959
 H358 H 0.61993 0.03020 -0.19433
 H359 H 0.62551 0.04627 -0.36633
 H360 H 0.64641 -0.06166 -0.12492
 C361 C 0.00431 0.20588 0.88899
 C362 C -0.00667 0.23639 0.86912
 C363 C -0.04175 0.23800 0.85403
 C364 C -0.06611 0.20929 0.85877
 C365 C -0.05555 0.17951 0.88047
 C366 C -0.02025 0.17767 0.89562
 C367 C 0.01765 0.26764 0.86646
 C368 C 0.05234 0.26487 0.85051
 C369 C 0.07602 0.29450 0.84998
 C370 C 0.06519 0.32649 0.86702
 C371 C 0.03018 0.32945 0.88243
 C372 C 0.00636 0.30018 0.88131
 H373 H 0.03155 0.20471 0.90069
 H374 H -0.05002 0.26196 0.83920
 H375 H 0.06092 0.23956 0.83921
 H376 H -0.02062 0.30234 0.89344
 H377 H -0.07444 0.15735 0.88437
 H378 H 0.08359 0.34932 0.86722
 C379 C 0.50195 0.20423 0.11404
 C380 C 0.51252 0.23554 0.13328
 C381 C 0.54619 0.23803 0.15192
 C382 C 0.56958 0.20924 0.15088
 C383 C 0.55959 0.17863 0.12976
 C384 C 0.52564 0.17598 0.11144
 C385 C 0.48846 0.26586 0.13253
 C386 C 0.45399 0.26246 0.14892
 C387 C 0.42932 0.28994 0.14513
 C388 C 0.43909 0.32043 0.12331
 C389 C 0.47387 0.32403 0.10681
 C390 C 0.49868 0.29689 0.11240
 H391 H 0.47567 0.20235 0.09992
 H392 H 0.55422 0.26246 0.16655
 H393 H 0.44626 0.23787 0.16352
 H394 H 0.52550 0.29922 0.09965
 H395 H 0.57783 0.15650 0.12863
 H396 H 0.41990 0.34158 0.12004
 C397 C 0.00054 0.70376 0.62002
 C398 C 0.01032 0.73667 0.63620
 C399 C 0.04525 0.74238 0.65089
 C400 C 0.07074 0.71547 0.64882
 C401 C 0.06138 0.68321 0.63049
 C402 C 0.02609 0.67725 0.61638
 C403 C -0.01532 0.76579 0.63518
 C404 C -0.05075 0.76031 0.64842
 C405 C -0.07648 0.78701 0.64413
 C406 C -0.06621 0.81886 0.62486
 C407 C -0.03022 0.82477 0.61288
 C408 C -0.00487 0.79840 0.61867
 H409 H -0.02657 0.69931 0.60857
 H410 H 0.05263 0.76805 0.66311
 H411 H -0.05804 0.73466 0.66077
 H412 H 0.02277 0.80280 0.60882
 H413 H 0.08113 0.66244 0.62829
 H414 H -0.08562 0.83977 0.62094
 C415 C 0.48617 0.70383 0.39642
 C416 C 0.48277 0.73772 0.37951
 C417 C 0.44959 0.74744 0.36297
 C418 C 0.41998 0.72354 0.36324
 C419 C 0.42367 0.68985 0.38022
 C420 C 0.45663 0.67971 0.39670
 C421 C 0.51426 0.76247 0.37736
 C422 C 0.54654 0.75145 0.36001
 C423 C 0.57619 0.77508 0.35658
 C424 C 0.57344 0.80992 0.37052
 C425 C 0.54134 0.82135 0.38779
 C426 C 0.51177 0.79746 0.39126
 H427 H 0.51201 0.69595 0.40827
 H428 H 0.44687 0.77353 0.34994
 H429 H 0.54864 0.72445 0.34945
 H430 H 0.48662 0.80627 0.40387
 H431 H 0.40085 0.67121 0.38012
 H432 H 0.59634 0.82829 0.36774
 B433 B -0.03936 0.00926 1.02758
 B434 B -0.05513 -0.00048 0.98274
 B435 B -0.02437 0.03237 0.98871
 B436 B 0.00507 0.02103 1.02410
 B437 B -0.00806 -0.02007 1.04019
 B438 B -0.04570 -0.03352 1.01440
 B439 B 0.00983 -0.02533 0.96271
 B440 B 0.02592 -0.01545 1.00745
 B441 B -0.00508 -0.04826 1.00193
 B442 B -0.03446 -0.03686 0.96620
 B443 B -0.02127 0.00450 0.95006
 B444 B 0.01649 0.01752 0.97585
 B445 B 0.47761 0.52023 0.53597
 B446 B 0.45339 0.51265 0.49512
 B447 B 0.48986 0.53988 0.49397
 B448 B 0.52198 0.52373 0.52441
 B449 B 0.50423 0.48543 0.54428
 B450 B 0.46130 0.47913 0.52627
 B451 B 0.50846 0.47633 0.46527
 B452 B 0.53253 0.48375 0.50594
 B453 B 0.49578 0.45696 0.50738
 B454 B 0.46413 0.47281 0.47685
 B455 B 0.48185 0.51098 0.45666
 B456 B 0.52459 0.51791 0.47506
 B457 B 0.52213 0.98801 0.51722
 B458 B 0.53922 0.99667 0.47275
 B459 B 0.50766 0.96442 0.47854
 B460 B 0.47770 0.97720 0.51297
 B461 B 0.49134 1.01870 0.52799
 B462 B 0.52994 1.03028 0.50316
 B463 B 0.47546 1.02253 0.45014
 B464 B 0.45826 1.01367 0.49450
 B465 B 0.49002 1.04568 0.48870
 B466 B 0.51991 1.03299 0.45443
 B467 B 0.50608 0.99182 0.43903
 B468 B 0.46750 0.97980 0.46412
 B469 B 0.04675 0.50289 1.00371
 B470 B 0.06086 0.51039 0.95772
 B471 B 0.03000 0.47843 0.96705
 B472 B 0.00217 0.49192 1.00309
 B473 B 0.01665 0.53364 1.01593
 B474 B 0.05357 0.54469 0.98781
 B475 B -0.00426 0.53543 0.93906
 B476 B -0.01865 0.52808 0.98499
 B477 B 0.01285 0.55991 0.97607
 B478 B 0.04031 0.54620 0.93989
 B479 B 0.02571 0.50448 0.92691
 B480 B -0.01109 0.49329 0.95530
 B481 B 0.04180 0.51389 0.47995
 B482 B 0.05926 0.50383 0.52377
 B483 B 0.02765 0.53473 0.51989
 B484 B -0.00262 0.52247 0.48511
 B485 B 0.01105 0.48264 0.46750
 B486 B 0.04986 0.47132 0.49142
 B487 B -0.00437 0.47419 0.54535
 B488 B -0.02194 0.48411 0.50141
 B489 B 0.01006 0.45334 0.50501
 B490 B 0.04008 0.46568 0.53999
 B491 B 0.02639 0.50563 0.55778
 B492 B -0.01239 0.51692 0.53353
 B493 B 0.54770 0.00954 -0.01845
 B494 B 0.56410 -0.00091 0.02580
 B495 B 0.53301 0.03040 0.02111
 B496 B 0.50331 0.01855 -0.01445
 B497 B 0.51678 -0.02137 -0.03193
 B498 B 0.55506 -0.03303 -0.00694
 B499 B 0.49961 -0.02990 0.04543
 B500 B 0.48319 -0.01971 0.00112
 B501 B 0.51480 -0.05086 0.00532
 B502 B 0.54404 -0.03891 0.04128
 B503 B 0.53050 0.00121 0.05888
 B504 B 0.49251 0.01298 0.03361
 B505 B 0.45919 0.50111 -0.01119
 B506 B 0.43738 0.50600 0.03151
 B507 B 0.46842 0.47457 0.02679
 B508 B 0.50259 0.49023 -0.00188
 B509 B 0.49200 0.53265 -0.01477
 B510 B 0.45113 0.54213 0.00580
 B511 B 0.49869 0.53018 0.06476
 B512 B 0.52087 0.52517 0.02245
 B513 B 0.48962 0.55638 0.02692
 B514 B 0.45555 0.54082 0.05559
 B515 B 0.46624 0.49849 0.06861
 B516 B 0.50703 0.48906 0.04788
 B517 B -0.03588 0.99106 0.47794
 B518 B -0.05861 0.99756 0.51961
 B519 B -0.02478 0.96892 0.51840
 B520 B 0.00802 0.98491 0.48829
 B521 B -0.00629 1.02496 0.47117
 B522 B -0.04807 1.03227 0.49048
 B523 B 0.00042 1.02976 0.55051
 B524 B 0.02293 1.02329 0.50866
 B525 B -0.01130 1.05180 0.51007
 B526 B -0.04383 1.03561 0.54019
 B527 B -0.02936 0.99587 0.55757
 B528 B 0.01248 0.98830 0.53776
 B529 B 0.76569 0.21029 0.23916
 B530 B 0.75552 0.19198 0.28267
 B531 B 0.78631 0.22525 0.27970
 B532 B 0.77320 0.25436 0.24511
 B533 B 0.73326 0.23851 0.22676
 B534 B 0.72263 0.19935 0.25011
 B535 B 0.72346 0.25209 0.30467
 B536 B 0.73354 0.27035 0.26095
 B537 B 0.70294 0.23679 0.26374
 B538 B 0.71610 0.20793 0.29857
 B539 B 0.75622 0.22391 0.31715
 B540 B 0.76692 0.26308 0.29371
 B541 B 0.72279 0.77489 0.71391
 B542 B 0.73479 0.79482 0.75602
 B543 B 0.70255 0.76308 0.75591
 B544 B 0.71337 0.73146 0.72308
 B545 B 0.75375 0.74440 0.70292
 B546 B 0.76641 0.78448 0.72325
 B547 B 0.76466 0.73474 0.78121
 B548 B 0.75276 0.71440 0.73943
 B549 B 0.78472 0.74686 0.73898
 B550 B 0.77374 0.77803 0.77204
 B551 B 0.73347 0.76473 0.79255
 B552 B 0.72051 0.72501 0.77199
 B553 B 0.27808 0.28444 0.77820
 B554 B 0.27077 0.30411 0.73498
 B555 B 0.29939 0.27042 0.73843
 B556 B 0.28322 0.24044 0.77122
 B557 B 0.24341 0.25630 0.78814
 B558 B 0.23623 0.29641 0.76576
 B559 B 0.23611 0.24545 0.70949
 B560 B 0.24324 0.22547 0.75262
 B561 B 0.21485 0.25959 0.74991
 B562 B 0.23110 0.28930 0.71676
 B563 B 0.27108 0.27328 0.69957
 B564 B 0.27839 0.23331 0.72218
 B565 B 0.22930 0.71690 0.27611
 B566 B 0.24236 0.69618 0.23521
 B567 B 0.20936 0.72585 0.23317
 B568 B 0.21907 0.75922 0.26479
 B569 B 0.25931 0.74972 0.28618
 B570 B 0.27346 0.70998 0.26803
 B571 B 0.27119 0.75748 0.20779
 B572 B 0.25811 0.77824 0.24855
 B573 B 0.29099 0.74825 0.25086
 B574 B 0.28125 0.71508 0.21907
 B575 B 0.24102 0.72491 0.19722
 B576 B 0.22662 0.76433 0.21583
 B577 B 0.26815 0.72750 0.73275
 B578 B 0.25646 0.71232 0.77757
 B579 B 0.28799 0.74460 0.77301
 B580 B 0.27663 0.77181 0.73563
 B581 B 0.23669 0.75569 0.71720
 B582 B 0.22464 0.71806 0.74326
 B583 B 0.22519 0.77436 0.79323
 B584 B 0.23692 0.78976 0.74894
 B585 B 0.20554 0.75693 0.75308
 B586 B 0.21695 0.73019 0.79055
 B587 B 0.25665 0.74664 0.80914
 B588 B 0.26929 0.78361 0.78305
 B589 B 0.22975 0.28262 0.21976
 B590 B 0.23938 0.29952 0.26397
 B591 B 0.20725 0.26780 0.25880
 B592 B 0.22007 0.23875 0.22419
 B593 B 0.26127 0.25323 0.20784
 B594 B 0.27279 0.29143 0.23254
 B595 B 0.26757 0.23749 0.28581
 B596 B 0.25839 0.22051 0.24137
 B597 B 0.29031 0.25275 0.24609
 B598 B 0.27729 0.28138 0.28100
 B599 B 0.23587 0.26683 0.29750
 B600 B 0.22411 0.22873 0.27276
 B601 B 0.76726 0.77150 0.27461
 B602 B 0.75940 0.78395 0.22803
 B603 B 0.78984 0.75273 0.23777
 B604 B 0.77488 0.72736 0.27541
 B605 B 0.73425 0.74347 0.28907
 B606 B 0.72459 0.77898 0.25957
 B607 B 0.72823 0.72025 0.21354
 B608 B 0.73619 0.70768 0.25977
 B609 B 0.70577 0.73912 0.25060
 B610 B 0.72074 0.76419 0.21260
 B611 B 0.76170 0.74803 0.19886
 B612 B 0.77113 0.71271 0.22834
 B613 B 0.73506 0.20610 0.76762
 B614 B 0.74890 0.18593 0.72671
 B615 B 0.71834 0.21805 0.72404
 B616 B 0.72853 0.24959 0.75775
 B617 B 0.76667 0.23635 0.78127
 B618 B 0.77884 0.19636 0.76205
 B619 B 0.78348 0.24597 0.70416
 B620 B 0.76952 0.26635 0.74478
 B621 B 0.79985 0.23407 0.74782
 B622 B 0.78991 0.20266 0.71407
 B623 B 0.75185 0.21587 0.69028
 B624 B 0.73929 0.25582 0.70949
 C625 C 0.38497 1.01780 0.34252
 C626 C 0.40563 1.03868 0.36558
 C627 C 0.42980 1.02196 0.39416
 C628 C 0.45178 1.04090 0.41755
 H629 H 0.40633 1.06728 0.36265
 H630 H 0.42919 0.99322 0.39638
 H631 H 0.38706 0.98930 0.34667
 H632 H 0.45262 1.06962 0.41551
 C633 C -0.10508 0.52013 0.84319
 C634 C -0.08344 0.54354 0.86224
 C635 C -0.05699 0.53024 0.89071
 C636 C -0.03072 0.55072 0.90667
 H637 H -0.08374 0.57172 0.85610
 H638 H -0.05940 0.50244 0.89874
 H639 H -0.10113 0.49212 0.84910
 H640 H -0.02797 0.57849 0.89861
 C641 C 0.11741 -0.02080 0.87496
 C642 C 0.08856 -0.04000 0.88705
 C643 C 0.06621 -0.02669 0.91925
 C644 C 0.03452 -0.04199 0.92970
 H645 H 0.07999 -0.06375 0.87142
 H646 H 0.07573 -0.00288 0.93415
 H647 H 0.12404 0.00409 0.88948
 H648 H 0.02476 -0.06572 0.91486
 C649 C 0.60925 0.46414 0.37376
 C650 C 0.57719 0.44947 0.38352
 C651 C 0.55502 0.46862 0.41169
 C652 C 0.52617 0.45478 0.43044
 H653 H 0.56672 0.42574 0.36921
 H654 H 0.56423 0.49541 0.41835
 H655 H 0.61828 0.48846 0.38811
 H656 H 0.51675 0.42792 0.42438
 C657 C 0.59124 0.51257 0.16190
 C658 C 0.56524 0.53503 0.15199
 C659 C 0.53638 0.52267 0.12577
 C660 C 0.51952 0.54491 0.10178
 H661 H 0.56527 0.56211 0.16254
 H662 H 0.53230 0.49421 0.12260
 H663 H 0.58978 0.48555 0.15093
 H664 H 0.52454 0.57329 0.10400
 C665 C 0.08765 1.02703 0.66032
 C666 C 0.06692 1.04793 0.63815
 C667 C 0.04161 1.03088 0.61021
 C668 C 0.02049 1.04910 0.58588
 H669 H 0.06833 1.07659 0.64002
 H670 H 0.04184 1.00216 0.60823
 H671 H 0.08331 0.99853 0.65729
 H672 H 0.01993 1.07780 0.58752
 C673 C -0.11378 0.47311 0.62920
 C674 C -0.08475 0.45463 0.61891
 C675 C -0.06031 0.46978 0.58896
 C676 C -0.02866 0.45572 0.57852
 H677 H -0.07838 0.43000 0.63362
 H678 H -0.06908 0.49386 0.57474
 H679 H -0.11824 0.49876 0.61569
 H680 H -0.01950 0.43158 0.59229
 C681 C 0.38884 -0.02666 0.12683
 C682 C 0.41757 -0.04612 0.11762
 C683 C 0.44273 -0.03246 0.08762
 C684 C 0.47401 -0.04771 0.07789
 H685 H 0.42327 -0.07048 0.13318
 H686 H 0.43485 -0.00834 0.07286
 H687 H 0.38513 -0.00137 0.11222
 H688 H 0.48224 -0.07192 0.09220
 C689 C 0.32857 0.43221 0.06974
 C690 C 0.34247 0.46155 0.05274
 C691 C 0.38078 0.47226 0.05779
 C692 C 0.39537 0.49741 0.03459
 H693 H 0.32636 0.47640 0.03216
 H694 H 0.39765 0.45746 0.07771
 H695 H 0.34442 0.41854 0.09161
 H696 H 0.37787 0.51186 0.01507
 C697 C -0.16499 0.91707 0.55397
 C698 C -0.15083 0.94528 0.53474
 C699 C -0.11357 0.95867 0.54236
 C700 C -0.10004 0.98583 0.52124
 H701 H -0.16605 0.95858 0.51225
 H702 H -0.09661 0.94485 0.56304
 H703 H -0.14934 0.90639 0.57803
 H704 H -0.11763 0.99918 0.50077
 C705 C -0.15496 0.07182 0.92511
 C706 C -0.14436 0.04456 0.94742
 C707 C -0.10667 0.03226 0.94716
 C708 C -0.09620 0.00727 0.97254
 H709 H -0.16315 0.03254 0.96818
 H710 H -0.08687 0.04605 0.92893
 H711 H -0.13671 0.08262 0.90303
 H712 H -0.11656 -0.00640 0.99007
 C713 C 0.35333 0.59056 0.44793
 C714 C 0.36422 0.56319 0.46981
 C715 C 0.40105 0.54922 0.46632
 C716 C 0.41309 0.52600 0.49269
 H717 H 0.34623 0.55120 0.49132
 H718 H 0.41857 0.55895 0.44316
 H719 H 0.37146 0.60122 0.42564
 H720 H 0.39486 0.51653 0.51549
 C721 C 0.15869 0.58325 0.57493
 C722 C 0.14868 0.55435 0.55447
 C723 C 0.11139 0.53960 0.55654
 C724 C 0.10050 0.51382 0.53205
 H725 H 0.16756 0.54245 0.53440
 H726 H 0.09206 0.55211 0.57560
 H727 H 0.14005 0.59394 0.59615
 H728 H 0.12023 0.50164 0.51316
 C729 C 0.66761 0.07603 0.07290
 C730 C 0.65570 0.04624 0.05524
 C731 C 0.61768 0.03357 0.05839
 C732 C 0.60552 0.00762 0.03476
 H733 H 0.67340 0.03250 0.03537
 H734 H 0.59904 0.04790 0.07664
 H735 H 0.65041 0.08878 0.09410
 H736 H 0.62477 -0.00613 0.01664
 C737 C 0.64277 0.92704 0.42177
 C738 C 0.63067 0.95296 0.44453
 C739 C 0.59301 0.96475 0.44141
 C740 C 0.58072 0.98929 0.46577
 H741 H 0.64835 0.96489 0.46642
 H742 H 0.57488 0.95165 0.42095
 H743 H 0.62540 0.91648 0.39876
 H744 H 0.59963 1.00249 0.48552
 C745 C 0.15988 0.43453 0.90652
 C746 C 0.14941 0.46422 0.92438
 C747 C 0.11163 0.47602 0.92325
 C748 C 0.10150 0.50237 0.94677
 H749 H 0.16835 0.47846 0.94321
 H750 H 0.09165 0.46082 0.90671
 H751 H 0.14170 0.42103 0.88624
 H752 H 0.12203 0.51702 0.96316
 C753 C 0.00414 0.36925 0.40260
 C754 C -0.00251 0.36959 0.44106
 C755 C -0.01005 0.40358 0.45958
 C756 C 0.00403 0.41268 0.49439
 H757 H 0.00128 0.34603 0.45880
 H758 H -0.02241 0.42349 0.44122
 H759 H 0.00403 0.39383 0.38596
 H760 H 0.01761 0.39308 0.51204
 C761 C 0.53530 -0.15151 -0.08467
 C762 C 0.51880 -0.14137 -0.05161
 C763 C 0.52095 -0.10391 -0.03996
 C764 C 0.50882 -0.09162 -0.00555
 H765 H 0.50445 -0.16029 -0.03307
 H766 H 0.53389 -0.08576 -0.06060
 H767 H 0.55117 -0.13205 -0.10117
 H768 H 0.49664 -0.10962 0.01569
 C769 C -0.00280 -0.13432 1.10252
 C770 C 0.00607 -0.13287 1.06456
 C771 C 0.01425 -0.09805 1.04704
 C772 C 0.00166 -0.08882 1.01170
 H773 H 0.00370 -0.15629 1.04627
 H774 H 0.02547 -0.07790 1.06645
 H775 H -0.00401 -0.10998 1.11935
 H776 H -0.01082 -0.10874 0.99293
 C777 C 0.47621 0.35293 0.59525
 C778 C 0.48988 0.36442 0.56102
 C779 C 0.48775 0.40228 0.55081
 C780 C 0.49817 0.41561 0.51603
 H781 H 0.50164 0.34615 0.54044
 H782 H 0.47709 0.41984 0.57289
 H783 H 0.46285 0.37169 0.61413
 H784 H 0.50880 0.39837 0.49369
 C785 C 0.54154 1.15976 0.51935
 C786 C 0.50938 1.14381 0.51290
 C787 C 0.50779 1.11116 0.48950
 C788 C 0.48226 1.08619 0.49634
 H789 H 0.48580 1.15117 0.52959
 H790 H 0.53137 1.10476 0.47222
 H791 H 0.56517 1.14989 0.50439
 H792 H 0.45945 1.09229 0.51484
 C793 C -0.00248 0.66024 1.06582
 C794 C 0.01455 0.64290 1.03745
 C795 C -0.00365 0.61332 1.01681
 C796 C 0.00973 0.60116 0.98319
 H797 H 0.04265 0.64904 1.03065
 H798 H -0.02277 0.59719 1.03357
 H799 H -0.03165 0.65667 1.06797
 H800 H 0.02860 0.61796 0.96689
 C801 C 0.44719 0.66280 -0.01869
 C802 C 0.47674 0.65319 0.00121
 C803 C 0.47404 0.62140 0.02604
 C804 C 0.49989 0.59723 0.02434
 H805 H 0.50337 0.66402 -0.00536
 H806 H 0.44754 0.61389 0.03742
 H807 H 0.42194 0.64880 -0.01188
 H808 H 0.52573 0.60438 0.01124
 C809 C 0.00320 1.15936 0.42846
 C810 C -0.01360 1.13904 0.45516
 C811 C 0.00416 1.10822 0.47238
 C812 C -0.00940 1.09331 0.50480
 H813 H -0.04134 1.14400 0.46343
 H814 H 0.02344 1.09422 0.45454
 H815 H 0.03222 1.15671 0.42502
 H816 H -0.02829 1.10814 0.52229
 C817 C 0.76687 0.65056 0.89403
 C818 C 0.78673 0.67016 0.86868
 C819 C 0.76807 0.69091 0.83839
 C820 C 0.78532 0.71437 0.81503
 H821 H 0.81592 0.67197 0.87038
 H822 H 0.73914 0.68655 0.83520
 H823 H 0.73764 0.65190 0.89135
 H824 H 0.81420 0.71906 0.81822
 C825 C 0.28522 0.13078 0.37048
 C826 C 0.27794 0.16539 0.36742
 C827 C 0.27351 0.18199 0.32883
 C828 C 0.28354 0.21582 0.32161
 H829 H 0.27394 0.18150 0.39323
 H830 H 0.25817 0.16680 0.30744
 H831 H 0.29439 0.11716 0.34446
 H832 H 0.29851 0.23065 0.34368
 C833 C 0.69903 0.35931 0.38704
 C834 C 0.70109 0.32386 0.38460
 C835 C 0.71091 0.30696 0.34729
 C836 C 0.70424 0.27245 0.33967
 H837 H 0.69979 0.30774 0.41093
 H838 H 0.72724 0.32288 0.32735
 H839 H 0.69875 0.37515 0.36051
 H840 H 0.68845 0.25663 0.36027
 C841 C 0.22788 0.87098 0.88992
 C842 C 0.20520 0.84979 0.86933
 C843 C 0.22024 0.82869 0.83730
 C844 C 0.20493 0.79830 0.82426
 H845 H 0.17719 0.84557 0.87769
 H846 H 0.24604 0.83775 0.82548
 H847 H 0.25634 0.87089 0.88194
 H848 H 0.17940 0.78877 0.83628
 C849 C 0.27319 0.85226 0.10595
 C850 C 0.29351 0.82912 0.12583
 C851 C 0.27558 0.80615 0.15546
 C852 C 0.29153 0.77899 0.17368
 H853 H 0.32202 0.82613 0.11990
 H854 H 0.24801 0.81249 0.16305
 H855 H 0.24436 0.85173 0.11219
 H856 H 0.31912 0.77238 0.16658
 C857 C 0.78629 0.31370 0.58146
 C858 C 0.80651 0.30341 0.61187
 C859 C 0.79244 0.27466 0.63736
 C860 C 0.80653 0.26764 0.67259
 H861 H 0.83126 0.31750 0.61982
 H862 H 0.76728 0.26152 0.62869
 H863 H 0.76094 0.29941 0.57610
 H864 H 0.83115 0.28125 0.68199
 C865 C 0.23594 0.16350 0.59573
 C866 C 0.21620 0.18463 0.61843
 C867 C 0.23404 0.20463 0.65015
 C868 C 0.21605 0.22580 0.67443
 H869 H 0.18748 0.18761 0.61366
 H870 H 0.26292 0.20142 0.65382
 H871 H 0.26490 0.16253 0.60080
 H872 H 0.18722 0.22923 0.67084
 C873 C 0.72913 0.61732 0.12275
 C874 C 0.70895 0.64277 0.13839
 C875 C 0.72323 0.66380 0.17161
 C876 C 0.70911 0.69486 0.18218
 H877 H 0.68383 0.65019 0.12447
 H878 H 0.74739 0.65458 0.18609
 H879 H 0.75551 0.61223 0.13526
 H880 H 0.68524 0.70438 0.16741
 C881 C 0.17482 0.58921 0.18572
 C882 C 0.20194 0.60253 0.20761
 C883 C 0.21379 0.64000 0.20398
 C884 C 0.23485 0.65484 0.23151
 H885 H 0.21429 0.58652 0.23010
 H886 H 0.20302 0.65600 0.18053
 H887 H 0.16387 0.60552 0.16251
 H888 H 0.24510 0.63841 0.25498
 C889 C 0.67255 0.08330 0.67887
 C890 C 0.70252 0.09506 0.69735
 C891 C 0.71519 0.13241 0.69456
 C892 C 0.73942 0.14511 0.72040
 H893 H 0.71658 0.07777 0.71733
 H894 H 0.70253 0.14996 0.67379
 H895 H 0.65971 0.10048 0.65771
 H896 H 0.75143 0.12696 0.74114
 C897 C 0.84161 0.09864 0.31812
 C898 C 0.80933 0.10664 0.30295
 C899 C 0.79303 0.14115 0.31084
 C900 C 0.76524 0.15175 0.28923
 H901 H 0.79529 0.08881 0.28305
 H902 H 0.80625 0.15913 0.33102
 H903 H 0.85316 0.11654 0.33990
 H904 H 0.75213 0.13286 0.26960
 C905 C 0.32652 0.60163 0.77747
 C906 C 0.30615 0.62270 0.79952
 C907 C 0.29619 0.65746 0.78364
 C908 C 0.26587 0.67390 0.79363
 H909 H 0.29663 0.61471 0.82825
 H910 H 0.31493 0.66986 0.76320
 H911 H 0.33140 0.60997 0.74740
 H912 H 0.24725 0.66125 0.81409
 C913 C 0.35844 0.40066 0.69544
 C914 C 0.32618 0.39118 0.71040
 C915 C 0.31189 0.35449 0.70737
 C916 C 0.28330 0.34417 0.72881
 H917 H 0.31052 0.41034 0.72635
 H918 H 0.32627 0.33549 0.68984
 H919 H 0.37311 0.38164 0.67813
 H920 H 0.26946 0.36369 0.74623
 C921 C 0.82402 0.90052 0.22852
 C922 C 0.80755 0.87620 0.20578
 C923 C 0.79794 0.84137 0.22285
 C924 C 0.76995 0.82166 0.20998
 H925 H 0.80022 0.88178 0.17575
 H926 H 0.81421 0.83202 0.24698
 H927 H 0.82692 0.89387 0.25934
 H928 H 0.75365 0.83137 0.18601
 C929 C 0.67245 0.89841 0.81656
 C930 C 0.69610 0.88551 0.79087
 C931 C 0.70604 0.84787 0.79090
 C932 C 0.72658 0.83540 0.76205
 H933 H 0.70758 0.90267 0.76837
 H934 H 0.69496 0.83008 0.81308
 H935 H 0.66253 0.88154 0.84018
 H936 H 0.73705 0.85358 0.73990
 C937 C 0.17288 0.40188 0.32128
 C938 C 0.19912 0.38983 0.29820
 C939 C 0.21075 0.35268 0.29998
 C940 C 0.23145 0.34011 0.27141
 H941 H 0.21109 0.40710 0.27609
 H942 H 0.20058 0.33542 0.32293
 H943 H 0.16210 0.38493 0.34439
 H944 H 0.24163 0.35843 0.24924
 C945 C 0.11296 0.29216 0.83427
 C946 C 0.12206 0.27135 0.80418
 C947 C 0.16032 0.27003 0.79308
 C948 C 0.17266 0.25677 0.75923
 H949 H 0.10189 0.25588 0.78822
 H950 H 0.17928 0.28157 0.81396
 H951 H 0.13357 0.30909 0.84776
 H952 H 0.15403 0.24596 0.73766
 C953 C 0.61119 0.76320 0.34152
 C954 C 0.61499 0.74472 0.30835
 C955 C 0.65165 0.73476 0.29673
 C956 C 0.66349 0.73579 0.25957
 H957 H 0.59200 0.73883 0.28957
 H958 H 0.67067 0.73115 0.32049
 H959 H 0.63517 0.77161 0.35769
 H960 H 0.64466 0.74054 0.23590
 C961 C 0.60552 0.21110 0.16925
 C962 C 0.61306 0.22874 0.20240
 C963 C 0.65057 0.22926 0.21631
 C964 C 0.66136 0.23960 0.25216
 H965 H 0.59226 0.24208 0.21871
 H966 H 0.67030 0.21957 0.19570
 H967 H 0.62664 0.19615 0.15519
 H968 H 0.64191 0.24834 0.27357
 C969 C 0.10770 0.72114 0.66377
 C970 C 0.11579 0.74234 0.69414
 C971 C 0.15364 0.74654 0.70593
 C972 C 0.16435 0.75959 0.74067
 H973 H 0.09493 0.75547 0.71058
 H974 H 0.17342 0.73636 0.68567
 H975 H 0.12903 0.70640 0.64982
 H976 H 0.14472 0.76880 0.76164
 C977 C 0.88784 0.78253 0.65753
 C978 C 0.87674 0.75761 0.68343
 C979 C 0.83833 0.75496 0.69345
 C980 C 0.82594 0.74204 0.72771
 H981 H 0.89535 0.74045 0.69841
 H982 H 0.81979 0.76639 0.67252
 H983 H 0.86813 0.80141 0.64724
 H984 H 0.84455 0.73184 0.74929
 C985 C 0.39234 0.28619 0.16091
 C986 C 0.38313 0.26543 0.19153
 C987 C 0.34481 0.26201 0.20200
 C988 C 0.33216 0.24914 0.23626
 H989 H 0.40318 0.25160 0.20853
 H990 H 0.32612 0.27244 0.18061
 H991 H 0.37160 0.30145 0.14644
 H992 H 0.35052 0.23948 0.25838
 C993 C 0.38436 0.73348 0.34782
 C994 C 0.37947 0.75032 0.31362
 C995 C 0.34214 0.75599 0.30038
 C996 C 0.33216 0.75618 0.26253
 H997 H 0.40220 0.75725 0.29487
 H998 H 0.32164 0.75516 0.32303
 H999 H 0.36085 0.72400 0.36413
 H1000 H 0.35250 0.75572 0.23975
 C1001 C 0.89695 0.21025 0.84262
 C1002 C 0.88818 0.22882 0.81057
 C1003 C 0.85067 0.22766 0.79682
 C1004 C 0.84025 0.24047 0.76200
 H1005 H 0.90841 0.24366 0.79399
 H1006 H 0.83102 0.21445 0.81577
 H1007 H 0.87635 0.19386 0.85696
 H1008 H 0.85963 0.25343 0.74263
 C1009 C 0.57980 0.98951 0.64849
 C1010 C 0.57944 0.99233 0.60953
 C1011 C 0.54642 0.98403 0.58695
 C1012 C 0.54886 0.97384 0.54966
 H1013 H 0.60301 1.00243 0.59386
 H1014 H 0.52093 0.99295 0.59864
 H1015 H 0.55767 0.97477 0.66231
 H1016 H 0.57451 0.96400 0.53948
 C1017 C 0.08911 0.49354 1.14095
 C1018 C 0.09628 0.49290 1.10266
 C1019 C 0.06691 0.48911 1.07367
 C1020 C 0.07448 0.48929 1.03543
 H1021 H 0.12356 0.49887 1.09252
 H1022 H 0.03918 0.49164 1.08349
 H1023 H 0.06231 0.48590 1.15130
 H1024 H 0.10237 0.48685 1.02627
 C1025 C -0.13065 -0.01721 1.12747
 C1026 C -0.10841 0.00895 1.11401
 C1027 C -0.09370 0.00619 1.07396
 C1028 C -0.06374 0.02406 1.06213
 H1029 H -0.09750 0.02951 1.13292
 H1030 H -0.10469 -0.01505 1.05594
 H1031 H -0.13912 -0.03751 1.10667
 H1032 H -0.05202 0.04464 1.08059
 C1033 C 0.43404 0.49828 0.64302
 C1034 C 0.45263 0.52947 0.64202
 C1035 C 0.47516 0.53786 0.60760
 C1036 C 0.45986 0.53916 0.57212
 H1037 H 0.45475 0.54690 0.66699
 H1038 H 0.50395 0.53372 0.61058
 H1039 H 0.43627 0.48122 0.61757
 H1040 H 0.43095 0.54305 0.57034
 C1041 C 0.37188 0.52156 -0.11899
 C1042 C 0.39876 0.50125 -0.10578
 C1043 C 0.41072 0.50475 -0.06470
 C1044 C 0.43982 0.48830 -0.05049
 H1045 H 0.41449 0.48538 -0.12555
 H1046 H 0.39758 0.52452 -0.04710
 H1047 H 0.35780 0.53783 -0.09799
 H1048 H 0.45354 0.46909 -0.06838
 C1049 C -0.06342 1.01640 0.35404
 C1050 C -0.06470 0.98475 0.37190
 C1051 C -0.04065 0.97921 0.40524
 C1052 C -0.05478 0.97379 0.44085
 H1053 H -0.08653 0.96582 0.36593
 H1054 H -0.01301 0.98911 0.40222
 H1055 H -0.04412 1.03663 0.36387
 H1056 H -0.08302 0.96580 0.44357
 C1057 C 0.10782 0.50342 0.37896
 C1058 C 0.08026 0.52607 0.37633
 C1059 C 0.05564 0.53179 0.40962
 C1060 C 0.06676 0.53072 0.44692
 H1061 H 0.07104 0.53500 0.34799
 H1062 H 0.02695 0.53101 0.40299
 H1063 H 0.11406 0.49182 0.40718
 H1064 H 0.09543 0.53292 0.45324
 C1065 C 0.61398 0.00125 -0.11989
 C1066 C 0.58674 0.02435 -0.12136
 C1067 C 0.56245 0.02953 -0.08773
 C1068 C 0.57349 0.02638 -0.05061
 H1069 H 0.57722 0.03412 -0.14922
 H1070 H 0.53377 0.03020 -0.09431
 H1071 H 0.62055 -0.01115 -0.09219
 H1072 H 0.60218 0.02712 -0.04414
 C1073 C 0.64502 0.55569 0.02845
 C1074 C 0.62198 0.54190 0.05513
 C1075 C 0.58713 0.52388 0.04563
 C1076 C 0.56283 0.53658 0.02015
 H1077 H 0.62972 0.54072 0.08563
 H1078 H 0.57914 0.50259 0.06531
 H1079 H 0.63846 0.55185 -0.00222
 H1080 H 0.57033 0.55884 0.00152
 C1081 C 0.13229 1.10267 0.52734
 C1082 C 0.11793 1.07349 0.51064
 C1083 C 0.07881 1.06536 0.51463
 C1084 C 0.06424 1.03448 0.50251
 H1085 H 0.13505 1.05476 0.49592
 H1086 H 0.06198 1.08463 0.52886
 H1087 H 0.11451 1.11982 0.54356
 H1088 H 0.08140 1.01525 0.48863
 C1089 C 0.13653 -0.08026 0.97919
 C1090 C 0.12364 -0.05527 1.00306
 C1091 C 0.08395 -0.05182 1.00576
 C1092 C 0.06752 -0.02230 1.01762
 H1093 H 0.14161 -0.03644 1.01765
 H1094 H 0.06788 -0.07296 0.99269
 H1095 H 0.11719 -0.09691 0.96333
 H1096 H 0.08358 -0.00043 1.02943
 C1097 C 0.66175 0.45233 0.48215
 C1098 C 0.62599 0.44979 0.47620
 C1099 C 0.60057 0.47628 0.49101
 C1100 C 0.57046 0.46490 0.50922
 H1101 H 0.61424 0.42654 0.46203
 H1102 H 0.60332 0.50342 0.48065
 H1103 H 0.67181 0.47318 0.50142
 H1104 H 0.56937 0.43760 0.51942
 C1105 C -0.12784 0.40428 0.52333
 C1106 C -0.11678 0.43323 0.50315
 C1107 C -0.07786 0.44265 0.50386
 C1108 C -0.06329 0.47378 0.49185
 H1109 H -0.13552 0.44990 0.48769
 H1110 H -0.06070 0.42361 0.51794
 H1111 H -0.10753 0.38966 0.53928
 H1112 H -0.08026 0.49355 0.47856
 C1113 C 0.37079 -0.08890 0.02736
 C1114 C 0.38510 -0.06296 0.00463
 C1115 C 0.42493 -0.05870 0.00219
 C1116 C 0.44168 -0.02840 -0.00924
 H1117 H 0.36810 -0.04377 -0.00961
 H1118 H 0.44069 -0.07967 0.01481
 H1119 H 0.38926 -0.10606 0.04279
 H1120 H 0.42576 -0.00694 -0.02077
 C1121 C 0.33477 1.03663 0.45178
 C1122 C 0.35592 1.03533 0.48359
 C1123 C 0.38967 1.01518 0.48242
 C1124 C 0.41808 1.02454 0.50477
 H1125 H 0.35110 1.05290 0.50804
 H1126 H 0.39287 0.99585 0.45933
 H1127 H 0.34195 1.02122 0.42627
 H1128 H 0.41478 1.04433 0.52738
 C1129 C -0.13138 0.59589 0.96565
 C1130 C -0.11612 0.56969 0.98624
 C1131 C -0.07655 0.56501 0.98330
 C1132 C -0.05958 0.53619 0.99659
 H1133 H -0.13250 0.55080 1.00281
 H1134 H -0.06129 0.58497 0.96706
 H1135 H -0.11377 0.61295 0.94803
 H1136 H -0.07481 0.51585 1.01236
 C1137 C 0.01461 0.64316 0.59922
 C1138 C 0.03405 0.62646 0.57234
 C1139 C 0.02105 0.59191 0.55778
 C1140 C 0.03731 0.57498 0.52857
 H1141 H 0.05941 0.63790 0.56179
 H1142 H -0.00142 0.57916 0.57315
 H1143 H -0.01173 0.63238 0.60765
 H1144 H 0.05985 0.58750 0.51319
 C1145 C 0.51350 0.14339 0.09123
 C1146 C 0.53549 0.12417 0.06918
 C1147 C 0.52253 0.09004 0.05336
 C1148 C 0.54298 0.07058 0.02982
 H1149 H 0.56325 0.13291 0.06412
 H1150 H 0.49664 0.07963 0.06365
 H1151 H 0.48527 0.13531 0.09415
 H1152 H 0.56874 0.08114 0.01941
 C1153 C -0.00762 0.14589 0.91642
 C1154 C -0.02866 0.12626 0.94030
 C1155 C -0.01509 0.09282 0.95626
 C1156 C -0.03470 0.07230 0.98068
 H1157 H -0.05611 0.13399 0.94665
 H1158 H 0.01048 0.08359 0.94510
 H1159 H 0.02035 0.13865 0.91215
 H1160 H -0.06029 0.08147 0.99180
 C1161 C 0.46050 0.64255 0.40973
 C1162 C 0.47823 0.63287 0.44214
 C1163 C 0.48233 0.59475 0.45048
 C1164 C 0.48709 0.58152 0.48658
 H1165 H 0.48928 0.65264 0.46209
 H1166 H 0.48013 0.57687 0.42574
 H1167 H 0.44723 0.62219 0.39207
 H1168 H 0.48869 0.59920 0.51150
 C1169 C 0.53808 0.85917 0.39820
 C1170 C 0.52347 0.87029 0.43173
 C1171 C 0.51813 0.90854 0.43772
 C1172 C 0.51540 0.92331 0.47325
 H1173 H 0.51520 0.85140 0.45417
 H1174 H 0.51651 0.92500 0.41173
 H1175 H 0.54875 0.87864 0.37751
 H1176 H 0.51742 0.90694 0.49925
 C1177 C 0.01714 0.36315 0.89816
 C1178 C 0.03682 0.38366 0.92227
 C1179 C 0.02274 0.41790 0.93498
 C1180 C 0.04008 0.43824 0.96129
 H1181 H 0.06344 0.37560 0.93174
 H1182 H -0.00117 0.42763 0.92038
 H1183 H -0.01027 0.37054 0.89084
 H1184 H 0.06408 0.42864 0.97577
 C1185 C 0.48598 0.35635 0.08549
 C1186 C 0.46419 0.37657 0.06392
 C1187 C 0.47827 0.41061 0.04822
 C1188 C 0.45723 0.43368 0.02948
 H1189 H 0.43593 0.36919 0.05986
 H1190 H 0.50572 0.41839 0.05613
 H1191 H 0.51448 0.36370 0.08761
 H1192 H 0.42988 0.42582 0.02138
 C1193 C -0.01750 0.85908 0.59699
 C1194 C -0.03391 0.87564 0.56756
 C1195 C -0.01992 0.91063 0.55501
 C1196 C -0.03323 0.92792 0.52415
 H1197 H -0.05773 0.86391 0.55374
 H1198 H 0.00025 0.92358 0.57349
 H1199 H 0.00748 0.87023 0.60891
 H1200 H -0.05354 0.91525 0.50568
 C1201 C 0.23079 0.34188 0.09062
 C1202 C 0.23113 0.34078 0.12965
 C1203 C 0.22352 0.30743 0.15081
 C1204 C 0.21323 0.30841 0.18818
 H1205 H 0.23954 0.36388 0.14650
 H1206 H 0.23387 0.28322 0.13838
 H1207 H 0.21755 0.32001 0.07521
 H1208 H 0.20185 0.33272 0.19912
 C1209 C 0.74493 0.82439 0.58696
 C1210 C 0.71952 0.82454 0.61493
 C1211 C 0.71736 0.79433 0.64259
 C1212 C 0.70552 0.79778 0.67953
 H1213 H 0.70380 0.84807 0.61990
 H1214 H 0.73195 0.77080 0.63454
 H1215 H 0.76226 0.80166 0.58428
 H1216 H 0.69153 0.82161 0.68774
 C1217 C 0.25655 0.66017 0.63183
 C1218 C 0.28104 0.68717 0.62977
 C1219 C 0.28723 0.71201 0.66288
 C1220 C 0.28430 0.70198 0.70049
 H1221 H 0.29228 0.69517 0.60184
 H1222 H 0.28919 0.74001 0.65557
 H1223 H 0.24303 0.65507 0.65948
 H1224 H 0.28294 0.67386 0.70691
 C1225 C 0.76747 0.16223 0.10435
 C1226 C 0.76637 0.15989 0.14348
 C1227 C 0.77566 0.19072 0.16844
 C1228 C 0.78305 0.18602 0.20646
 H1229 H 0.75610 0.13593 0.15762
 H1230 H 0.76850 0.21674 0.15763
 H1231 H 0.78235 0.18455 0.09155
 H1232 H 0.79119 0.15990 0.21589
 C1233 C 0.74407 0.14210 0.86888
 C1234 C 0.72146 0.16959 0.87144
 C1235 C 0.71585 0.19412 0.83811
 C1236 C 0.71505 0.18340 0.80070
 H1237 H 0.71279 0.17882 0.89976
 H1238 H 0.71884 0.22217 0.84466
 H1239 H 0.75527 0.13576 0.84049
 H1240 H 0.71060 0.15543 0.79464
 C1241 C 0.26073 0.67101 0.39472
 C1242 C 0.22810 0.67313 0.37776
 C1243 C 0.22304 0.70143 0.34849
 C1244 C 0.21217 0.69459 0.31167
 H1245 H 0.20681 0.65364 0.38376
 H1246 H 0.23664 0.72650 0.35502
 H1247 H 0.28233 0.68895 0.38497
 H1248 H 0.19991 0.66892 0.30500
 C1249 C 0.74715 0.87448 0.35553
 C1250 C 0.76815 0.84609 0.35199
 C1251 C 0.77084 0.82922 0.31320
 C1252 C 0.78322 0.79632 0.30838
 H1253 H 0.77812 0.83241 0.37762
 H1254 H 0.75618 0.84149 0.28943
 H1255 H 0.73636 0.88624 0.32904
 H1256 H 0.79705 0.78349 0.33237
 C1257 C 0.26183 0.35643 0.86826
 C1258 C 0.28079 0.32759 0.87821
 C1259 C 0.28821 0.29954 0.84957
 C1260 C 0.29607 0.30697 0.81221
 H1261 H 0.28464 0.32071 0.90865
 H1262 H 0.28036 0.27273 0.85811
 H1263 H 0.25454 0.36046 0.83784
 H1264 H 0.30533 0.33362 0.80472
 C1265 C 0.80470 0.38694 0.69898
 C1266 C 0.79693 0.36757 0.73099
 C1267 C 0.77958 0.33206 0.72627
 C1268 C 0.78162 0.30647 0.75352
 H1269 H 0.80519 0.37673 0.75975
 H1270 H 0.76714 0.32597 0.69826
 H1271 H 0.79836 0.37558 0.67054
 H1272 H 0.79473 0.31216 0.78124
 C1273 C 0.32332 0.88646 0.20959
 C1274 C 0.30051 0.87413 0.23732
 C1275 C 0.29633 0.83545 0.24230
 C1276 C 0.26540 0.81970 0.25411
 H1277 H 0.28397 0.89150 0.25456
 H1278 H 0.31823 0.81945 0.23182
 H1279 H 0.33638 0.86686 0.19144
 H1280 H 0.24306 0.83578 0.26343
 C1281 C 0.16712 0.89314 0.77927
 C1282 C 0.19153 0.88241 0.75297
 C1283 C 0.19609 0.84392 0.74748
 C1284 C 0.22774 0.82972 0.73751
 H1285 H 0.20955 0.90128 0.73843
 H1286 H 0.17439 0.82682 0.75811
 H1287 H 0.15169 0.87303 0.79534
 H1288 H 0.24998 0.84701 0.72833
 C1289 C 0.65840 0.37273 0.28424
 C1290 C 0.68507 0.36124 0.26139
 C1291 C 0.69102 0.32292 0.25902
 C1292 C 0.72336 0.30989 0.25026
 H1293 H 0.70436 0.37966 0.24807
 H1294 H 0.67003 0.30558 0.27072
 H1295 H 0.64133 0.35333 0.29943
 H1296 H 0.74495 0.32769 0.24040
 C1297 C 0.66291 0.60179 0.23729
 C1298 C 0.68879 0.61447 0.26121
 C1299 C 0.69436 0.65319 0.26303
 C1300 C 0.72585 0.66846 0.27348
 H1301 H 0.70709 0.59710 0.27638
 H1302 H 0.67371 0.66913 0.24975
 H1303 H 0.64687 0.62073 0.22116
 H1304 H 0.74715 0.65233 0.28541
 C1305 C 0.16069 0.12124 0.72752
 C1306 C 0.18980 0.13354 0.74720
 C1307 C 0.19905 0.17190 0.74610
 C1308 C 0.23027 0.18540 0.76023
 H1309 H 0.20775 0.11563 0.76210
 H1310 H 0.18049 0.18909 0.73115
 H1311 H 0.14454 0.14024 0.71165
 H1312 H 0.24902 0.16802 0.77479
 C1313 C 0.33047 0.11331 0.26309
 C1314 C 0.30381 0.12677 0.24130
 C1315 C 0.29858 0.16558 0.24152
 C1316 C 0.26752 0.18048 0.23060
 H1317 H 0.28457 0.10951 0.22625
 H1318 H 0.31931 0.18178 0.25553
 H1319 H 0.34765 0.13165 0.27955
 H1320 H 0.24612 0.16408 0.21793
 C1321 C 0.82656 0.60873 0.76761
 C1322 C 0.79842 0.62044 0.74669
 C1323 C 0.79237 0.65913 0.74485
 C1324 C 0.76132 0.67340 0.73281
 H1325 H 0.77932 0.60206 0.73311
 H1326 H 0.81349 0.67625 0.75666
 H1327 H 0.84368 0.62833 0.78233
 H1328 H 0.73980 0.65627 0.72160
 C1329 C 0.90041 0.80085 0.17138
 C1330 C 0.88549 0.77515 0.19369
 C1331 C 0.84638 0.77460 0.20109
 C1332 C 0.83204 0.75763 0.23194
 H1333 H 0.90146 0.75427 0.20629
 H1334 H 0.82909 0.78738 0.17992
 H1335 H 0.88362 0.82310 0.16354
 H1336 H 0.84963 0.74497 0.25293
 C1337 C 0.41309 0.25293 0.66503
 C1338 C 0.39531 0.27166 0.69169
 C1339 C 0.36005 0.25867 0.70626
 C1340 C 0.34131 0.27719 0.73230
 H1341 H 0.40545 0.29762 0.70068
 H1342 H 0.34779 0.23553 0.69233
 H1343 H 0.40355 0.22627 0.65788
 H1344 H 0.35368 0.30032 0.74613
 C1345 C 0.37817 0.71112 0.87245
 C1346 C 0.37376 0.72381 0.83610
 C1347 C 0.33689 0.72581 0.82047
 C1348 C 0.32894 0.73911 0.78515
 H1349 H 0.39641 0.73316 0.81856
 H1350 H 0.31518 0.71684 0.83965
 H1351 H 0.35453 0.70098 0.88807
 H1352 H 0.35028 0.74826 0.76563
 C1353 C 0.89590 0.20429 0.36148
 C1354 C 0.88144 0.22011 0.33004
 C1355 C 0.84226 0.21867 0.32319
 C1356 C 0.82829 0.22135 0.28715
 H1357 H 0.89826 0.23419 0.30890
 H1358 H 0.82472 0.21635 0.34852
 H1359 H 0.87870 0.18643 0.37863
 H1360 H 0.84617 0.22337 0.26207
 C1361 C 0.10244 0.30749 0.33482
 C1362 C 0.11330 0.28824 0.30451
 C1363 C 0.15189 0.28258 0.29895
 C1364 C 0.16575 0.27505 0.26405
 H1365 H 0.09385 0.27540 0.28510
 H1366 H 0.16905 0.28404 0.32462
 H1367 H 0.12225 0.32228 0.35211
 H1368 H 0.14836 0.27350 0.23852
 C1369 C 0.59239 0.75133 0.83839
 C1370 C 0.61079 0.77038 0.81164
 C1371 C 0.64343 0.75569 0.79377
 C1372 C 0.66224 0.77313 0.76604
 H1373 H 0.60282 0.79713 0.80432
 H1374 H 0.65382 0.73140 0.80614
 H1375 H 0.59970 0.72398 0.84367
 H1376 H 0.65190 0.79747 0.75379
 C1377 C 0.62483 0.20809 0.62029
 C1378 C 0.63079 0.21169 0.65876
 C1379 C 0.66830 0.21381 0.67297
 C1380 C 0.67749 0.21178 0.71090
 H1381 H 0.60848 0.21346 0.67918
 H1382 H 0.68918 0.21783 0.65103
 H1383 H 0.64761 0.20406 0.60091
 H1384 H 0.65691 0.20763 0.73310
 C1385 C 0.10537 0.70265 0.14149
 C1386 C 0.11690 0.71043 0.17781
 C1387 C 0.15585 0.71187 0.18719
 C1388 C 0.16810 0.71638 0.22392
 H1389 H 0.09762 0.71732 0.20030
 H1390 H 0.17474 0.71145 0.16295
 H1391 H 0.12456 0.69365 0.11989
 H1392 H 0.14909 0.71698 0.24801
   
