data_POSCAR
  _audit_creation_date              2014-09-24
  _audit_creation_method            'ToBaCCo'
  _symmetry_space_group_name_H-M    'P1'
  _symmetry_Int_Tables_number       1
  _symmetry_cell_setting            triclinic
  loop_
  _symmetry_equiv_pos_as_xyz
 x,y,z
_cell_length_a 69.9518
_cell_length_b 69.6098
_cell_length_c 70.8121
_cell_angle_alpha 90.424900
_cell_angle_beta 89.696500
_cell_angle_gamma 90.193300
loop_
  _atom_site_label
  _atom_site_type_symbol
  _atom_site_fract_x
  _atom_site_fract_y
  _atom_site_fract_z
N1 N 0.20739 0.20975 0.20892
 N2 N 0.70764 0.71269 0.71182
 N3 N 0.29403 0.78810 0.70583
 N4 N 0.79299 0.28802 0.20691
 N5 N 0.79156 0.71061 0.28998
 N6 N 0.29139 0.21172 -0.20910
 N7 N 0.70839 0.29166 -0.20669
 N8 N 0.20688 0.79121 0.29337
 N9 N 0.45955 0.45612 0.45621
 N10 N -0.03865 -0.04210 0.95474
 N11 N 1.04101 0.54285 0.95759
 N12 N 0.53885 0.03944 0.46070
 N13 N -0.03803 0.03791 0.54075
 N14 N 0.45929 0.54174 0.04585
 N15 N 0.53841 -0.04003 0.04168
 N16 N 1.03857 0.45871 0.54163
 C17 C 0.40420 0.00955 0.22662
 H18 H 0.40543 0.02238 0.23526
 C19 C 0.41658 0.00676 0.21132
 H20 H 0.42718 0.01764 0.20812
 C21 C 0.38874 -0.02013 0.22030
 H22 H 0.37809 -0.03073 0.22401
 C23 C 0.40078 -0.02347 0.20483
 H24 H 0.39924 -0.03667 0.19678
 N25 N 0.39049 -0.00371 0.23068
 C26 C 0.34526 0.02713 0.26058
 H27 H 0.34412 0.01862 0.27327
 C28 C 0.33287 0.04252 0.25782
 H29 H 0.32211 0.04570 0.26843
 C30 C 0.36025 0.03275 0.23104
 H31 H 0.37076 0.02877 0.22052
 C32 C 0.34816 0.04826 0.22770
 H33 H 0.34980 0.05629 0.21476
 Zn34 Zn 0.37453 0.00117 0.25184
 N35 N 0.35872 0.02266 0.24735
 C36 C 0.38931 0.02229 0.28315
 N37 N 0.39064 0.00580 0.27280
 C38 C 0.40400 -0.00770 0.27675
 C39 C 0.41642 -0.00513 0.29193
 C40 C 0.40145 0.02544 0.29847
 C41 C 0.34470 -0.02441 0.24350
 C42 C 0.33204 -0.03966 0.24642
 C43 C 0.34729 -0.04558 0.27634
 C44 C 0.35962 -0.03018 0.27287
 N45 N 0.35827 -0.02009 0.25656
 H46 H 0.37887 0.03303 0.27958
 H47 H 0.40496 -0.02052 0.26807
 H48 H 0.42703 -0.01601 0.29475
 H49 H 0.39991 0.03848 0.30677
 H50 H 0.34376 -0.01597 0.23077
 H51 H 0.32153 -0.04306 0.23572
 H52 H 0.34848 -0.05333 0.28948
 H53 H 0.37014 -0.02624 0.28332
 C54 C 0.33423 0.05334 0.24119
 C55 C 0.41489 -0.00990 0.20015
 C56 C 0.33328 -0.05052 0.26301
 C57 C 0.41518 0.01159 0.30309
 C58 C 0.11270 -0.00973 0.71077
 H59 H 0.12300 -0.02123 0.71014
 C60 C 0.10043 -0.00696 0.69555
 H61 H 0.10150 -0.01634 0.68333
 C62 C 0.09815 0.01588 0.72766
 H63 H 0.09736 0.02468 0.74030
 C64 C 0.08551 0.01908 0.71282
 H65 H 0.07515 0.03055 0.71403
 N66 N 0.11159 0.00186 0.72629
 C67 C 0.14506 -0.03751 0.75531
 H68 H 0.13568 -0.03759 0.76747
 C69 C 0.15772 -0.05274 0.75239
 H70 H 0.15779 -0.06460 0.76220
 C71 C 0.15681 -0.02185 0.72797
 H72 H 0.15655 -0.00957 0.71871
 C73 C 0.16945 -0.03693 0.72433
 H74 H 0.17890 -0.03624 0.71220
 Zn75 Zn 0.12808 -0.00151 0.74716
 N76 N 0.14469 -0.02257 0.74304
 C77 C 0.09962 -0.02051 0.76769
 N78 N 0.11244 -0.00582 0.76863
 C79 C 0.11343 0.00583 0.78410
 C80 C 0.10141 0.00268 0.79958
 C81 C 0.08725 -0.02411 0.78280
 C82 C 0.14192 0.03628 0.73977
 C83 C 0.15369 0.05226 0.74272
 C84 C 0.16908 0.03533 0.76809
 C85 C 0.15702 0.01969 0.76466
 N86 N 0.14362 0.02051 0.75086
 H87 H 0.09900 -0.02942 0.75512
 H88 H 0.12337 0.01773 0.78442
 H89 H 0.10226 0.01222 0.81171
 H90 H 0.07726 -0.03599 0.78187
 H91 H 0.13147 0.03653 0.72860
 H92 H 0.15188 0.06481 0.73397
 H93 H 0.17973 0.03433 0.77907
 H94 H 0.15831 0.00682 0.77303
 C95 C 0.16998 -0.05260 0.73665
 C96 C 0.08667 0.00766 0.69643
 C97 C 0.16745 0.05195 0.75709
 C98 C 0.08808 -0.01244 0.79904
 C99 C 0.59859 0.48891 0.22286
 H100 H 0.59898 0.47502 0.22961
 C101 C 0.58630 0.49193 0.20771
 H102 H 0.57725 0.48030 0.20277
 C103 C 0.60964 0.52110 0.22134
 H104 H 0.61857 0.53249 0.22685
 C105 C 0.59726 0.52485 0.20640
 H106 H 0.59697 0.53906 0.20028
 N107 N 0.61023 0.50328 0.22909
 C108 C 0.65478 0.47153 0.25831
 H109 H 0.65479 0.47923 0.27165
 C110 C 0.66729 0.45619 0.25542
 H111 H 0.67675 0.45200 0.26670
 C112 C 0.64234 0.46770 0.22745
 H113 H 0.63296 0.47250 0.21641
 C114 C 0.65455 0.45222 0.22398
 H115 H 0.65433 0.44520 0.21029
 Zn116 Zn 0.62640 0.49808 0.24978
 N117 N 0.64248 0.47683 0.24451
 C118 C 0.60976 0.47510 0.27860
 N119 N 0.61035 0.49288 0.27074
 C120 C 0.59879 0.50724 0.27708
 C121 C 0.58659 0.50426 0.29244
 C122 C 0.59747 0.47138 0.29377
 C123 C 0.65476 0.52476 0.24072
 C124 C 0.66725 0.54022 0.24336
 C125 C 0.65488 0.54402 0.27508
 C126 C 0.64264 0.52846 0.27184
 N127 N 0.64260 0.51936 0.25477
 H128 H 0.61864 0.46372 0.27301
 H129 H 0.59919 0.52108 0.27025
 H130 H 0.57759 0.51588 0.29746
 H131 H 0.59718 0.45721 0.29997
 H132 H 0.65470 0.51702 0.22742
 H133 H 0.67689 0.54419 0.23203
 H134 H 0.65442 0.55130 0.28863
 H135 H 0.63331 0.52364 0.28303
 C136 C 0.66721 0.44627 0.23809
 C137 C 0.58557 0.51009 0.19933
 C138 C 0.66736 0.55015 0.26070
 C139 C 0.58585 0.48614 0.30094
 C140 C 0.90349 0.51117 0.72520
 H141 H 0.90479 0.52408 0.73371
 C142 C 0.91573 0.50823 0.70982
 H143 H 0.92654 0.51892 0.70667
 C144 C 0.88819 0.48129 0.71948
 H145 H 0.87760 0.47071 0.72340
 C146 C 0.90013 0.47777 0.70397
 H147 H 0.89830 0.46462 0.69590
 N148 N 0.88993 0.49788 0.72960
 C149 C 0.84514 0.52881 0.76008
 H150 H 0.84418 0.52029 0.77277
 C151 C 0.83275 0.54426 0.75756
 H152 H 0.82219 0.54745 0.76835
 C153 C 0.85967 0.53447 0.73033
 H154 H 0.87000 0.53048 0.71964
 C155 C 0.84758 0.55004 0.72723
 H156 H 0.84905 0.55810 0.71429
 Zn157 Zn 0.87424 0.50284 0.75095
 N158 N 0.85838 0.52434 0.74664
 C159 C 0.88952 0.52409 0.78193
 N160 N 0.89064 0.50753 0.77167
 C161 C 0.90400 0.49399 0.77554
 C162 C 0.91664 0.49662 0.79053
 C163 C 0.90187 0.52731 0.79706
 C164 C 0.84435 0.47723 0.74300
 C165 C 0.83177 0.46194 0.74605
 C166 C 0.84732 0.45613 0.77584
 C167 C 0.85957 0.47156 0.77223
 N168 N 0.85804 0.48161 0.75591
 H169 H 0.87907 0.53485 0.77843
 H170 H 0.90480 0.48111 0.76693
 H171 H 0.92725 0.48573 0.79329
 H172 H 0.90051 0.54041 0.80528
 H173 H 0.84327 0.48564 0.73026
 H174 H 0.82118 0.45848 0.73545
 H175 H 0.84867 0.44839 0.78898
 H176 H 0.87018 0.47555 0.78257
 C177 C 0.83390 0.55513 0.74095
 C178 C 0.91411 0.49136 0.69894
 C179 C 0.83322 0.45111 0.76264
 C180 C 0.91563 0.51344 0.80158
 C181 C 0.22306 0.40505 0.01028
 H182 H 0.23133 0.40608 0.02311
 C183 C 0.20777 0.41752 0.00741
 H184 H 0.20444 0.42822 0.01809
 C185 C 0.21787 0.39025 -0.01951
 H186 H 0.22197 0.37979 -0.03008
 C187 C 0.20247 0.40242 -0.02295
 H188 H 0.19465 0.40087 -0.03603
 N189 N 0.22768 0.39163 -0.00302
 C190 C 0.25732 0.34588 0.02655
 H191 H 0.27021 0.34492 0.01808
 C192 C 0.25452 0.33336 0.04162
 H193 H 0.26529 0.32267 0.04458
 C194 C 0.22741 0.36065 0.03252
 H195 H 0.21678 0.37117 0.02882
 C196 C 0.22402 0.34842 0.04773
 H197 H 0.21092 0.34994 0.05581
 Zn198 Zn 0.24893 0.37562 0.00168
 N199 N 0.24396 0.35934 0.02244
 C200 C 0.27990 0.39035 0.02330
 N201 N 0.27010 0.39183 0.00683
 C202 C 0.27468 0.40547 -0.00609
 C203 C 0.28992 0.41806 -0.00287
 C204 C 0.29526 0.40262 0.02707
 C205 C 0.24072 0.34611 -0.02401
 C206 C 0.24359 0.33382 -0.03942
 C207 C 0.27400 0.34934 -0.04512
 C208 C 0.27054 0.36133 -0.02958
 N209 N 0.25400 0.35968 -0.01953
 H210 H 0.27574 0.37979 0.03364
 H211 H 0.26647 0.40651 -0.01895
 H212 H 0.29354 0.42862 -0.01348
 H213 H 0.30279 0.40132 0.04032
 H214 H 0.22784 0.34487 -0.01556
 H215 H 0.23288 0.32304 -0.04266
 H216 H 0.28708 0.35114 -0.05316
 H217 H 0.28110 0.37194 -0.02560
 C218 C 0.23772 0.33459 0.05251
 C219 C 0.19722 0.41629 -0.00939
 C220 C 0.26038 0.33540 -0.05027
 C221 C 0.30048 0.41668 0.01387
 C222 C 0.72375 0.09501 -0.01151
 H223 H 0.73171 0.09422 -0.02463
 C224 C 0.70814 0.08283 -0.00856
 H225 H 0.70401 0.07283 -0.01960
 C226 C 0.71950 0.10912 0.01878
 H227 H 0.72417 0.11912 0.02954
 C228 C 0.70374 0.09727 0.02229
 H229 H 0.69643 0.09830 0.03578
 N230 N 0.72903 0.10791 0.00202
 C231 C 0.76027 0.15156 -0.02959
 H232 H 0.77398 0.15117 -0.02261
 C233 C 0.75745 0.16400 -0.04469
 H234 H 0.76905 0.17318 -0.04936
 C235 C 0.72831 0.14036 -0.03176
 H236 H 0.71693 0.13128 -0.02653
 C237 C 0.72475 0.15288 -0.04664
 H238 H 0.71071 0.15316 -0.05300
 Zn239 Zn 0.75071 0.12341 -0.00303
 N240 N 0.74591 0.13978 -0.02370
 C241 C 0.78075 0.10721 -0.02530
 N242 N 0.77137 0.10663 -0.00843
 C243 C 0.77609 0.09356 0.00493
 C244 C 0.79122 0.08085 0.00185
 C245 C 0.79600 0.09482 -0.02895
 C246 C 0.74320 0.15300 0.02269
 C247 C 0.74641 0.16544 0.03790
 C248 C 0.77673 0.14988 0.04303
 C249 C 0.77297 0.13777 0.02767
 N250 N 0.75630 0.13937 0.01801
 H251 H 0.77639 0.11717 -0.03605
 H252 H 0.76817 0.09315 0.01809
 H253 H 0.79503 0.07085 0.01283
 H254 H 0.80326 0.09548 -0.04247
 H255 H 0.73017 0.15411 0.01461
 H256 H 0.73564 0.17598 0.04160
 H257 H 0.79012 0.14847 0.05051
 H258 H 0.78346 0.12722 0.02343
 C259 C 0.73950 0.16474 -0.05336
 C260 C 0.69789 0.08390 0.00852
 C261 C 0.76333 0.16392 0.04834
 C262 C 0.80150 0.08150 -0.01522
 C263 C 0.22294 0.59516 0.48862
 H264 H 0.23043 0.59498 0.47521
 C265 C 0.20743 0.58285 0.49158
 H266 H 0.20317 0.57310 0.48038
 C267 C 0.21995 0.60769 0.51969
 H268 H 0.22506 0.61711 0.53075
 C269 C 0.20435 0.59566 0.52324
 H270 H 0.19734 0.59636 0.53690
 N271 N 0.22873 0.60744 0.50250
 C272 C 0.25921 0.65099 0.47002
 H273 H 0.27311 0.65043 0.47660
 C274 C 0.25616 0.66329 0.45485
 H275 H 0.26779 0.67219 0.44974
 C276 C 0.22700 0.64034 0.46890
 H277 H 0.21562 0.63155 0.47458
 C278 C 0.22323 0.65273 0.45396
 H279 H 0.20901 0.65318 0.44800
 Zn280 Zn 0.25008 0.62335 0.49715
 N281 N 0.24483 0.63954 0.47646
 C282 C 0.27963 0.60670 0.47445
 N283 N 0.27089 0.60683 0.49166
 C284 C 0.27627 0.59450 0.50544
 C285 C 0.29134 0.58173 0.50236
 C286 C 0.29481 0.59422 0.47079
 C287 C 0.24176 0.65146 0.52433
 C288 C 0.24500 0.66366 0.53971
 C289 C 0.27748 0.65205 0.54102
 C290 C 0.27351 0.63978 0.52582
 N291 N 0.25578 0.63953 0.51799
 H292 H 0.27474 0.61609 0.46343
 H293 H 0.26888 0.59469 0.51890
 H294 H 0.29564 0.57228 0.51364
 H295 H 0.30152 0.59424 0.45697
 H296 H 0.22794 0.65131 0.51753
 H297 H 0.23362 0.67291 0.54476
 H298 H 0.29159 0.65202 0.54725
 H299 H 0.28463 0.63061 0.52023
 C300 C 0.23799 0.66423 0.44667
 C301 C 0.19784 0.58305 0.50906
 C302 C 0.26304 0.66400 0.54825
 C303 C 0.30089 0.58155 0.48487
 C304 C 0.73027 0.91007 0.49626
 H305 H 0.74440 0.91619 0.49760
 C306 C 0.71474 0.92219 0.49323
 H307 H 0.71709 0.93754 0.49227
 C308 C 0.70986 0.88283 0.49625
 H309 H 0.70810 0.86744 0.49742
 C310 C 0.69390 0.89445 0.49344
 H311 H 0.67989 0.88791 0.49229
 N312 N 0.72764 0.89074 0.49749
 C313 C 0.75668 0.84391 0.52630
 H314 H 0.76841 0.84088 0.51682
 C315 C 0.75389 0.83235 0.54210
 H316 H 0.76337 0.82033 0.54438
 C317 C 0.73011 0.86313 0.53489
 H318 H 0.72111 0.87540 0.53232
 C319 C 0.72678 0.85191 0.55086
 H320 H 0.71516 0.85565 0.56034
 Zn321 Zn 0.74901 0.87434 0.50114
 N322 N 0.74474 0.85886 0.52284
 C323 C 0.77967 0.89025 0.52198
 N324 N 0.77130 0.88931 0.50471
 C325 C 0.77858 0.89908 0.48973
 C326 C 0.79469 0.91076 0.49193
 C327 C 0.79589 0.90166 0.52477
 C328 C 0.76969 0.84892 0.47779
 C329 C 0.77325 0.83706 0.46218
 C330 C 0.74242 0.84575 0.44974
 C331 C 0.73944 0.85740 0.46562
 N332 N 0.75285 0.85853 0.47944
 H333 H 0.77362 0.88240 0.53369
 H334 H 0.77169 0.89795 0.47613
 H335 H 0.80026 0.91850 0.47987
 H336 H 0.80215 0.90256 0.53870
 H337 H 0.78051 0.85063 0.48850
 H338 H 0.78658 0.82924 0.46140
 H339 H 0.73160 0.84518 0.43888
 H340 H 0.72640 0.86555 0.46676
 C341 C 0.73872 0.83624 0.55460
 C342 C 0.69629 0.91439 0.49175
 C343 C 0.75946 0.83526 0.44793
 C344 C 0.80349 0.91222 0.50966
 C345 C 0.00766 0.22299 0.40475
 H346 H 0.02012 0.23219 0.40567
 C347 C 0.00557 0.20757 0.41709
 H348 H 0.01664 0.20483 0.42734
 C349 C -0.02184 0.21541 0.39013
 H350 H -0.03264 0.21870 0.37982
 C351 C -0.02447 0.19979 0.40215
 H352 H -0.03735 0.19120 0.40095
 N353 N -0.00585 0.22651 0.39150
 C354 C 0.02309 0.25729 0.34618
 H355 H 0.01410 0.26986 0.34523
 C356 C 0.03838 0.25489 0.33364
 H357 H 0.04099 0.26566 0.32297
 C358 C 0.03007 0.22767 0.36086
 H359 H 0.02667 0.21697 0.37132
 C360 C 0.04551 0.22470 0.34861
 H361 H 0.05406 0.21186 0.35008
 Zn362 Zn -0.00200 0.24794 0.37562
 N363 N 0.01935 0.24386 0.35956
 C364 C 0.01835 0.28031 0.38990
 N365 N 0.00211 0.26961 0.39142
 C366 C -0.01127 0.27359 0.40487
 C367 C -0.00876 0.28907 0.41728
 C368 C 0.02144 0.29591 0.40201
 C369 C -0.02716 0.23815 0.34656
 C370 C -0.04237 0.24040 0.33410
 C371 C -0.04968 0.27071 0.34929
 C372 C -0.03427 0.26791 0.36142
 N373 N -0.02348 0.25174 0.35995
 H374 H 0.02902 0.27671 0.37940
 H375 H -0.02389 0.26463 0.40599
 H376 H -0.01949 0.29185 0.42802
 H377 H 0.03433 0.30441 0.40039
 H378 H -0.01818 0.22555 0.34554
 H379 H -0.04519 0.22932 0.32366
 H380 H -0.05797 0.28377 0.35052
 H381 H -0.03085 0.27878 0.37183
 C382 C 0.04985 0.23842 0.33478
 C383 C -0.01064 0.19569 0.41583
 C384 C -0.05387 0.25687 0.33538
 C385 C 0.00779 0.30047 0.41595
 C386 C -0.00797 0.72775 0.09489
 H387 H -0.02053 0.73671 0.09383
 C388 C -0.00540 0.71239 0.08235
 H389 H -0.01602 0.70969 0.07158
 C390 C 0.02143 0.72093 0.10984
 H391 H 0.03198 0.72442 0.12041
 C392 C 0.02458 0.70542 0.09760
 H393 H 0.03739 0.69691 0.09918
 N394 N 0.00526 0.73160 0.10841
 C395 C -0.02509 0.76223 0.15331
 H396 H -0.01631 0.77501 0.15453
 C397 C -0.04060 0.75959 0.16552
 H398 H -0.04361 0.77038 0.17621
 C399 C -0.03127 0.73232 0.13833
 H400 H -0.02745 0.72159 0.12791
 C401 C -0.04690 0.72909 0.15024
 H402 H -0.05519 0.71604 0.14855
 Zn403 Zn 0.00090 0.75302 0.12447
 N404 N -0.02082 0.74876 0.13995
 C405 C -0.01899 0.78529 0.10996
 N406 N -0.00279 0.77458 0.10879
 C407 C 0.01095 0.77840 0.09568
 C408 C 0.00881 0.79367 0.08321
 C409 C -0.02169 0.80074 0.09779
 C410 C 0.02554 0.74338 0.15382
 C411 C 0.04073 0.74556 0.16636
 C412 C 0.04824 0.77598 0.15183
 C413 C 0.03287 0.77323 0.13958
 N414 N 0.02202 0.75702 0.14065
 H415 H -0.02998 0.78175 0.12013
 H416 H 0.02357 0.76949 0.09490
 H417 H 0.02001 0.79660 0.07301
 H418 H -0.03478 0.80895 0.09877
 H419 H 0.01653 0.73073 0.15450
 H420 H 0.04348 0.73438 0.17653
 H421 H 0.05662 0.78904 0.15087
 H422 H 0.02958 0.78413 0.12935
 C423 C -0.05175 0.74282 0.16408
 C424 C 0.01105 0.70096 0.08364
 C425 C 0.05235 0.76202 0.16542
 C426 C -0.00770 0.80507 0.08417
 C427 C 0.49235 0.22611 0.59651
 H428 H 0.47983 0.23512 0.59546
 C429 C 0.49471 0.21056 0.58416
 H430 H 0.48396 0.20777 0.57352
 C431 C 0.52184 0.21930 0.61128
 H432 H 0.53250 0.22286 0.62172
 C433 C 0.52477 0.20360 0.59924
 H434 H 0.53753 0.19502 0.60083
 N435 N 0.50572 0.23005 0.60986
 C436 C 0.47603 0.26104 0.65494
 H437 H 0.48490 0.27376 0.65600
 C438 C 0.46063 0.25856 0.66732
 H439 H 0.45781 0.26942 0.67799
 C440 C 0.46948 0.23111 0.64015
 H441 H 0.47310 0.22032 0.62972
 C442 C 0.45395 0.22805 0.65223
 H443 H 0.44555 0.21505 0.65067
 Zn444 Zn 0.50158 0.25161 0.62581
 N445 N 0.48004 0.24749 0.64158
 C446 C 0.48149 0.28377 0.61139
 N447 N 0.49770 0.27309 0.61007
 C448 C 0.51130 0.27694 0.59683
 C449 C 0.50902 0.29223 0.58440
 C450 C 0.47864 0.29923 0.59928
 C451 C 0.52652 0.24215 0.65497
 C452 C 0.54181 0.24443 0.66738
 C453 C 0.54919 0.27474 0.65258
 C454 C 0.53372 0.27190 0.64047
 N455 N 0.52288 0.25569 0.64174
 H456 H 0.47061 0.28021 0.62167
 H457 H 0.52394 0.26805 0.59592
 H458 H 0.52012 0.29519 0.57411
 H459 H 0.46555 0.30741 0.60038
 H460 H 0.51751 0.22952 0.65582
 H461 H 0.54464 0.23333 0.67761
 H462 H 0.55755 0.28781 0.65148
 H463 H 0.53033 0.28273 0.63020
 C464 C 0.44934 0.24188 0.66606
 C465 C 0.51108 0.19902 0.58546
 C466 C 0.55342 0.26089 0.66624
 C467 C 0.49251 0.30361 0.58554
 C468 C 0.50667 0.72387 0.90642
 H469 H 0.51909 0.73314 0.90717
 C470 C 0.50474 0.70857 0.91894
 H471 H 0.51588 0.70601 0.92915
 C472 C 0.47712 0.71598 0.89206
 H473 H 0.46622 0.71909 0.88179
 C474 C 0.47462 0.70050 0.90427
 H475 H 0.46176 0.69186 0.90326
 N476 N 0.49306 0.72716 0.89320
 C477 C 0.52165 0.75783 0.84757
 H478 H 0.51247 0.77025 0.84647
 C479 C 0.53706 0.75558 0.83515
 H480 H 0.53957 0.76631 0.82441
 C481 C 0.52902 0.72847 0.86255
 H482 H 0.52573 0.71781 0.87308
 C483 C 0.54458 0.72564 0.85042
 H484 H 0.55332 0.71296 0.85204
 Zn485 Zn 0.49663 0.74843 0.87705
 N486 N 0.51805 0.74448 0.86106
 C487 C 0.51642 0.78135 0.89087
 N488 N 0.50038 0.77038 0.89256
 C489 C 0.48694 0.77430 0.90598
 C490 C 0.48921 0.78999 0.91819
 C491 C 0.51923 0.79721 0.90274
 C492 C 0.47165 0.73777 0.84815
 C493 C 0.45638 0.73953 0.83568
 C494 C 0.44852 0.76993 0.85042
 C495 C 0.46399 0.76761 0.86257
 N496 N 0.47509 0.75164 0.86133
 H497 H 0.52719 0.77774 0.88048
 H498 H 0.47445 0.76518 0.90719
 H499 H 0.47824 0.79301 0.92863
 H500 H 0.53218 0.80564 0.90131
 H501 H 0.48086 0.72533 0.84732
 H502 H 0.45376 0.72823 0.82542
 H503 H 0.43998 0.78284 0.85146
 H504 H 0.46721 0.77870 0.87282
 C505 C 0.54879 0.73933 0.83651
 C506 C 0.48856 0.69661 0.91792
 C507 C 0.44458 0.75579 0.83672
 C508 C 0.50552 0.80170 0.91663
 C509 C 0.15998 0.21850 0.24618
 C510 C 0.16488 0.19990 0.23997
 C511 C 0.18038 0.19706 0.22777
 C512 C 0.19132 0.21272 0.22147
 C513 C 0.18644 0.23131 0.22760
 C514 C 0.17095 0.23417 0.23983
 C515 C 0.14358 0.22150 0.25922
 N516 N 0.13925 0.23934 0.26585
 N517 N 0.12457 0.24201 0.27762
 C518 C 0.11356 0.22697 0.28325
 N519 N 0.11788 0.20914 0.27660
 N520 N 0.13257 0.20647 0.26485
 C521 C 0.09723 0.22993 0.29639
 C522 C 0.08543 0.21443 0.30160
 C523 C 0.07008 0.21719 0.31402
 C524 C 0.06615 0.23551 0.32154
 C525 C 0.07792 0.25101 0.31632
 C526 C 0.09327 0.24826 0.30389
 H527 H 0.15675 0.18750 0.24455
 H528 H 0.18381 0.18262 0.22311
 H529 H 0.19475 0.24358 0.22302
 H530 H 0.16760 0.24869 0.24432
 H531 H 0.08800 0.20013 0.29605
 H532 H 0.06111 0.20501 0.31753
 H533 H 0.07543 0.26525 0.32206
 H534 H 0.10209 0.26051 0.30024
 C535 C 0.66008 0.72079 0.74904
 C536 C 0.66499 0.70231 0.74252
 C537 C 0.68056 0.69968 0.73035
 C538 C 0.69155 0.71544 0.72441
 C539 C 0.68669 0.73391 0.73089
 C540 C 0.67113 0.73657 0.74308
 C541 C 0.64355 0.72358 0.76196
 N542 N 0.63903 0.74133 0.76868
 N543 N 0.62419 0.74382 0.78030
 C544 C 0.61322 0.72866 0.78570
 N545 N 0.61774 0.71091 0.77898
 N546 N 0.63258 0.70843 0.76737
 C547 C 0.59671 0.73141 0.79866
 C548 C 0.58509 0.71575 0.80381
 C549 C 0.56956 0.71833 0.81605
 C550 C 0.56527 0.73661 0.82344
 C551 C 0.57685 0.75227 0.81828
 C552 C 0.59239 0.74971 0.80604
 H553 H 0.65680 0.68984 0.74679
 H554 H 0.68397 0.68532 0.72542
 H555 H 0.69506 0.74625 0.72660
 H556 H 0.66779 0.75099 0.74783
 H557 H 0.58794 0.70147 0.79835
 H558 H 0.56075 0.70602 0.81953
 H559 H 0.57407 0.76649 0.82394
 H560 H 0.60105 0.76208 0.80243
 C561 C 0.33790 0.77562 0.74555
 C562 C 0.34134 0.77388 0.72603
 C563 C 0.32692 0.77784 0.71308
 C564 C 0.30874 0.78364 0.71932
 C565 C 0.30513 0.78501 0.73881
 C566 C 0.31957 0.78112 0.75180
 C567 C 0.35342 0.77199 0.75925
 N568 N 0.35072 0.77519 0.77802
 N569 N 0.36482 0.77230 0.79025
 C570 C 0.38221 0.76606 0.78423
 N571 N 0.38487 0.76278 0.76547
 N572 N 0.37079 0.76570 0.75325
 C573 C 0.39803 0.76313 0.79776
 C574 C 0.41569 0.75577 0.79154
 C575 C 0.43072 0.75328 0.80419
 C576 C 0.42848 0.75815 0.82337
 C577 C 0.41083 0.76544 0.82963
 C578 C 0.39576 0.76787 0.81698
 H579 H 0.35525 0.76966 0.72070
 H580 H 0.33002 0.77668 0.69811
 H581 H 0.29112 0.78915 0.74395
 H582 H 0.31638 0.78248 0.76673
 H583 H 0.41798 0.75199 0.77684
 H584 H 0.44423 0.74786 0.79890
 H585 H 0.40861 0.76911 0.84436
 H586 H 0.38236 0.77355 0.82228
 C587 C -0.16144 0.27794 0.24547
 C588 C -0.15849 0.27602 0.22589
 C589 C -0.17341 0.27932 0.21328
 C590 C -0.19161 0.28454 0.21996
 C591 C -0.19461 0.28639 0.23951
 C592 C -0.17970 0.28316 0.25213
 C593 C -0.14558 0.27459 0.25886
 N594 N -0.14800 0.27770 0.27768
 N595 N -0.13371 0.27479 0.28968
 C596 C -0.11640 0.26862 0.28339
 N597 N -0.11399 0.26549 0.26457
 N598 N -0.12826 0.26842 0.25256
 C599 C -0.10046 0.26547 0.29673
 C600 C -0.08292 0.25799 0.29030
 C601 C -0.06786 0.25512 0.30285
 C602 C -0.06995 0.25972 0.32210
 C603 C -0.08747 0.26718 0.32855
 C604 C -0.10256 0.26998 0.31602
 H605 H -0.14462 0.27208 0.22025
 H606 H -0.17072 0.27796 0.19826
 H607 H -0.20857 0.29024 0.24500
 H608 H -0.18251 0.28471 0.26712
 H609 H -0.08077 0.25438 0.27555
 H610 H -0.05445 0.24958 0.29742
 H611 H -0.08957 0.27065 0.34335
 H612 H -0.11586 0.27574 0.32148
 C613 C -0.16187 0.72042 0.25199
 C614 C -0.17342 0.73575 0.25819
 C615 C -0.18867 0.73254 0.27062
 C616 C -0.19272 0.71395 0.27710
 C617 C -0.18127 0.69861 0.27088
 C618 C -0.16600 0.70180 0.25848
 C619 C -0.14561 0.72379 0.23889
 N620 N -0.13413 0.70908 0.23333
 N621 N -0.11949 0.71209 0.22161
 C622 C -0.11570 0.72994 0.21492
 N623 N -0.12719 0.74466 0.22046
 N624 N -0.14183 0.74165 0.23219
 C625 C -0.09936 0.73327 0.20189
 C626 C -0.09576 0.75164 0.19452
 C627 C -0.08034 0.75474 0.18226
 C628 C -0.06816 0.73955 0.17708
 C629 C -0.07175 0.72119 0.18446
 C630 C -0.08717 0.71809 0.19670
 H631 H -0.17068 0.75027 0.25347
 H632 H -0.19742 0.74455 0.27511
 H633 H -0.18406 0.68417 0.27579
 H634 H -0.15743 0.68965 0.25402
 H635 H -0.10488 0.76366 0.19816
 H636 H -0.07810 0.76900 0.17663
 H637 H -0.06247 0.70925 0.18097
 H638 H -0.08945 0.70377 0.20215
 C639 C 0.33892 0.22093 0.75395
 C640 C 0.33422 0.20232 0.76008
 C641 C 0.31868 0.19932 0.77218
 C642 C 0.30750 0.21485 0.77845
 C643 C 0.31219 0.23345 0.77241
 C644 C 0.32772 0.23647 0.76028
 C645 C 0.35536 0.22410 0.74101
 N646 N 0.35950 0.24193 0.73445
 N647 N 0.37422 0.24475 0.72278
 C648 C 0.38545 0.22986 0.71717
 N649 N 0.38131 0.21203 0.72374
 N650 N 0.36658 0.20921 0.73540
 C651 C 0.40182 0.23297 0.70413
 C652 C 0.41383 0.21763 0.69894
 C653 C 0.42923 0.22053 0.68663
 C654 C 0.43299 0.23882 0.67918
 C655 C 0.42101 0.25417 0.68438
 C656 C 0.40561 0.25128 0.69671
 H657 H 0.34253 0.19002 0.75552
 H658 H 0.31541 0.18487 0.77679
 H659 H 0.30369 0.24561 0.77698
 H660 H 0.33091 0.25099 0.75585
 H661 H 0.41140 0.20335 0.70444
 H662 H 0.43836 0.20847 0.68314
 H663 H 0.42337 0.26838 0.67869
 H664 H 0.39663 0.26341 0.70034
 C665 C 0.66266 0.28089 0.75487
 C666 C 0.66030 0.27756 0.77431
 C667 C 0.67530 0.28100 0.78685
 C668 C 0.69300 0.28785 0.78026
 C669 C 0.69548 0.29094 0.76082
 C670 C 0.68047 0.28755 0.74826
 C671 C 0.64660 0.27759 0.74163
 N672 N 0.64854 0.28156 0.72296
 N673 N 0.63403 0.27880 0.71112
 C674 C 0.61697 0.27195 0.71743
 N675 N 0.61505 0.26795 0.73609
 N676 N 0.62955 0.27072 0.74793
 C677 C 0.60075 0.26902 0.70430
 C678 C 0.58328 0.26147 0.71083
 C679 C 0.56796 0.25880 0.69849
 C680 C 0.56973 0.26365 0.67933
 C681 C 0.58718 0.27119 0.67278
 C682 C 0.60253 0.27382 0.68511
 H683 H 0.64680 0.27244 0.77991
 H684 H 0.67300 0.27856 0.80177
 H685 H 0.70908 0.29596 0.75536
 H686 H 0.68284 0.29017 0.73338
 H687 H 0.58137 0.25766 0.72551
 H688 H 0.55461 0.25320 0.70401
 H689 H 0.58906 0.27484 0.65805
 H690 H 0.61578 0.27963 0.67957
 C691 C 0.16124 0.78093 0.25470
 C692 C 0.17914 0.78743 0.24819
 C693 C 0.19412 0.79066 0.26081
 C694 C 0.19152 0.78756 0.28024
 C695 C 0.17372 0.78087 0.28674
 C696 C 0.15875 0.77760 0.27413
 C697 C 0.14522 0.77782 0.24137
 N698 N 0.12809 0.77104 0.24757
 N699 N 0.11363 0.76843 0.23565
 C700 C 0.11566 0.77250 0.21701
 N701 N 0.13280 0.77926 0.21081
 N702 N 0.14727 0.78185 0.22273
 C703 C 0.09950 0.76974 0.20378
 C704 C 0.10139 0.77467 0.18464
 C705 C 0.08610 0.77219 0.17221
 C706 C 0.06859 0.76466 0.17862
 C707 C 0.06670 0.75968 0.19773
 C708 C 0.08196 0.76220 0.21017
 H709 H 0.18161 0.79005 0.23332
 H710 H 0.20779 0.79555 0.25542
 H711 H 0.17133 0.77843 0.30165
 H712 H 0.14517 0.77260 0.27965
 H713 H 0.11469 0.78048 0.17921
 H714 H 0.08807 0.77594 0.15752
 H715 H 0.05331 0.75407 0.20315
 H716 H 0.07997 0.75828 0.22482
 C717 C 0.24567 0.16324 0.21856
 C718 C 0.23943 0.16741 0.20019
 C719 C 0.22694 0.18267 0.19704
 C720 C 0.22040 0.19406 0.21217
 C721 C 0.22663 0.18995 0.23051
 C722 C 0.23914 0.17472 0.23368
 C723 C 0.25887 0.14700 0.22192
 N724 N 0.26550 0.14336 0.23953
 N725 N 0.27732 0.12875 0.24255
 C726 C 0.28299 0.11712 0.22810
 N727 N 0.27635 0.12075 0.21050
 N728 N 0.26455 0.13537 0.20747
 C729 C 0.29611 0.10081 0.23146
 C730 C 0.30125 0.08829 0.21663
 C731 C 0.31358 0.07291 0.21979
 C732 C 0.32110 0.06969 0.23785
 C733 C 0.31597 0.08219 0.25269
 C734 C 0.30362 0.09757 0.24954
 H735 H 0.24415 0.15888 0.18821
 H736 H 0.22222 0.18550 0.18280
 H737 H 0.22187 0.19864 0.24237
 H738 H 0.24366 0.17194 0.24800
 H739 H 0.29568 0.09029 0.20254
 H740 H 0.31702 0.06338 0.20812
 H741 H 0.32172 0.08025 0.26671
 H742 H 0.30003 0.10695 0.26129
 C743 C 0.74566 0.66577 0.72049
 C744 C 0.73929 0.67024 0.70224
 C745 C 0.72688 0.68563 0.69940
 C746 C 0.72055 0.69686 0.71474
 C747 C 0.72689 0.69244 0.73297
 C748 C 0.73933 0.67708 0.73582
 C749 C 0.75880 0.64941 0.72352
 N750 N 0.76564 0.64555 0.74101
 N751 N 0.77741 0.63083 0.74373
 C752 C 0.78284 0.61933 0.72910
 N753 N 0.77600 0.62319 0.71161
 N754 N 0.76424 0.63791 0.70889
 C755 C 0.79591 0.60292 0.73213
 C756 C 0.80074 0.59047 0.71713
 C757 C 0.81304 0.57499 0.72000
 C758 C 0.82082 0.57159 0.73792
 C759 C 0.81601 0.58403 0.75291
 C760 C 0.80369 0.59950 0.75006
 H761 H 0.74386 0.66185 0.69011
 H762 H 0.72205 0.68870 0.68525
 H763 H 0.72227 0.70099 0.74497
 H764 H 0.74394 0.67407 0.75007
 H765 H 0.79496 0.59261 0.70315
 H766 H 0.81623 0.56552 0.70821
 H767 H 0.82197 0.58197 0.76683
 H768 H 0.80035 0.60883 0.76192
 C769 C 0.74527 0.34006 0.78574
 C770 C 0.72554 0.34159 0.78239
 C771 C 0.71344 0.32580 0.78502
 C772 C 0.72080 0.30811 0.79097
 C773 C 0.74047 0.30663 0.79453
 C774 C 0.75257 0.32241 0.79195
 C775 C 0.75821 0.35667 0.78261
 N776 N 0.77718 0.35537 0.78637
 N777 N 0.78885 0.37020 0.78337
 C778 C 0.78207 0.38699 0.77646
 N779 N 0.76309 0.38831 0.77272
 N780 N 0.75141 0.37348 0.77574
 C781 C 0.79512 0.40344 0.77297
 C782 C 0.78824 0.42055 0.76510
 C783 C 0.80058 0.43599 0.76172
 C784 C 0.82008 0.43471 0.76619
 C785 C 0.82697 0.41764 0.77409
 C786 C 0.81464 0.40218 0.77743
 H787 H 0.71940 0.35498 0.77770
 H788 H 0.69829 0.32739 0.78243
 H789 H 0.74651 0.29314 0.79906
 H790 H 0.76768 0.32069 0.79468
 H791 H 0.77329 0.42204 0.76152
 H792 H 0.79481 0.44905 0.75583
 H793 H 0.84196 0.41613 0.77747
 H794 H 0.82046 0.38922 0.78347
 C795 C 0.24426 -0.16076 0.28589
 C796 C 0.25137 -0.17849 0.29211
 C797 C 0.23910 -0.19414 0.29468
 C798 C 0.21946 -0.19246 0.29108
 C799 C 0.21228 -0.17469 0.28513
 C800 C 0.22454 -0.15902 0.28252
 C801 C 0.25737 -0.14428 0.28276
 N802 N 0.25075 -0.12742 0.27583
 N803 N 0.26258 -0.11271 0.27281
 C804 C 0.28154 -0.11421 0.27660
 N805 N 0.28814 -0.13105 0.28357
 N806 N 0.27631 -0.14576 0.28657
 C807 C 0.29475 -0.09789 0.27314
 C808 C 0.31423 -0.09930 0.27770
 C809 C 0.32670 -0.08395 0.27442
 C810 C 0.32001 -0.06683 0.26645
 C811 C 0.30055 -0.06540 0.26185
 C812 C 0.28806 -0.08074 0.26518
 H813 H 0.26646 -0.18036 0.29485
 H814 H 0.24500 -0.20770 0.29921
 H815 H 0.19715 -0.17295 0.28252
 H816 H 0.21855 -0.14557 0.27782
 H817 H 0.31991 -0.11229 0.28381
 H818 H 0.34166 -0.08557 0.27790
 H819 H 0.29492 -0.05231 0.25591
 H820 H 0.27315 -0.07913 0.26151
 C821 C 0.25796 -0.16292 0.71345
 C822 C 0.27677 -0.16274 0.72029
 C823 C 0.28868 -0.17860 0.71751
 C824 C 0.28192 -0.19520 0.70820
 C825 C 0.26310 -0.19527 0.70128
 C826 C 0.25132 -0.17927 0.70375
 C827 C 0.24524 -0.14625 0.71662
 N828 N 0.22978 -0.14344 0.70547
 N829 N 0.21820 -0.12856 0.70845
 C830 C 0.22152 -0.11596 0.72281
 N831 N 0.23697 -0.11878 0.73398
 N832 N 0.24864 -0.13358 0.73090
 C833 C 0.20847 -0.09962 0.72631
 C834 C 0.20760 -0.09074 0.74419
 C835 C 0.19499 -0.07555 0.74759
 C836 C 0.18328 -0.06872 0.73309
 C837 C 0.18429 -0.07742 0.71516
 C838 C 0.19664 -0.09284 0.71185
 H839 H 0.28236 -0.15025 0.72764
 H840 H 0.30321 -0.17789 0.72265
 H841 H 0.25738 -0.20782 0.69414
 H842 H 0.23685 -0.17987 0.69839
 H843 H 0.21649 -0.09570 0.75563
 H844 H 0.19452 -0.06898 0.76150
 H845 H 0.17531 -0.07245 0.70379
 H846 H 0.19704 -0.09934 0.69791
 C847 C 0.75536 0.33544 0.21603
 C848 C 0.74820 0.31754 0.20996
 C849 C 0.76051 0.30202 0.20702
 C850 C 0.78025 0.30407 0.20999
 C851 C 0.78743 0.32194 0.21600
 C852 C 0.77513 0.33745 0.21903
 C853 C 0.74230 0.35190 0.21922
 N854 N 0.74889 0.36869 0.22666
 N855 N 0.73716 0.38347 0.22956
 C856 C 0.71833 0.38210 0.22513
 N857 N 0.71174 0.36532 0.21768
 N858 N 0.72347 0.35054 0.21480
 C859 C 0.70526 0.39855 0.22839
 C860 C 0.68617 0.39770 0.22230
 C861 C 0.67386 0.41320 0.22538
 C862 C 0.68032 0.42986 0.23471
 C863 C 0.69938 0.43072 0.24082
 C864 C 0.71173 0.41527 0.23765
 H865 H 0.73306 0.31545 0.20758
 H866 H 0.75463 0.28833 0.20254
 H867 H 0.80262 0.32391 0.21823
 H868 H 0.78115 0.35103 0.22364
 H869 H 0.68070 0.38506 0.21512
 H870 H 0.65919 0.41205 0.22069
 H871 H 0.70483 0.44346 0.24785
 H872 H 0.72633 0.41644 0.24252
 C873 C 0.75471 0.66239 0.28125
 C874 C 0.76019 0.67411 0.26604
 C875 C 0.77229 0.68986 0.26891
 C876 C 0.77911 0.69429 0.28704
 C877 C 0.77369 0.68262 0.30225
 C878 C 0.76164 0.66682 0.29939
 C879 C 0.74184 0.64569 0.27821
 N880 N 0.73748 0.63361 0.29260
 N881 N 0.72589 0.61863 0.28987
 C882 C 0.71814 0.61510 0.27263
 N883 N 0.72249 0.62718 0.25825
 N884 N 0.73410 0.64214 0.26098
 C885 C 0.70518 0.59845 0.26959
 C886 C 0.69611 0.59565 0.25211
 C887 C 0.68385 0.58001 0.24925
 C888 C 0.68041 0.56676 0.26377
 C889 C 0.68951 0.56954 0.28124
 C890 C 0.70173 0.58521 0.28412
 H891 H 0.75516 0.67113 0.25189
 H892 H 0.77623 0.69874 0.25701
 H893 H 0.77891 0.68570 0.31632
 H894 H 0.75773 0.65811 0.31143
 H895 H 0.69835 0.60560 0.24063
 H896 H 0.67685 0.57845 0.23572
 H897 H 0.68739 0.55945 0.29262
 H898 H 0.70855 0.58686 0.29773
 C899 C 0.25359 0.16448 0.78080
 C900 C 0.26046 0.17564 0.76572
 C901 C 0.27277 0.19114 0.76905
 C902 C 0.27851 0.19581 0.78750
 C903 C 0.27163 0.18472 0.80257
 C904 C 0.25930 0.16924 0.79927
 C905 C 0.24063 0.14794 0.77727
 N906 N 0.23360 0.13742 0.79183
 N907 N 0.22204 0.12250 0.78866
 C908 C 0.21703 0.11745 0.77079
 N909 N 0.22405 0.12798 0.75623
 N910 N 0.23559 0.14290 0.75940
 C911 C 0.20425 0.10077 0.76727
 C912 C 0.19959 0.09517 0.74873
 C913 C 0.18764 0.07937 0.74543
 C914 C 0.18006 0.06881 0.76058
 C915 C 0.18467 0.07444 0.77911
 C916 C 0.19662 0.09022 0.78242
 H917 H 0.25633 0.17244 0.75132
 H918 H 0.27777 0.19958 0.75722
 H919 H 0.27598 0.18795 0.81690
 H920 H 0.25433 0.16094 0.81122
 H921 H 0.20525 0.10291 0.73672
 H922 H 0.18457 0.07525 0.73098
 H923 H 0.17885 0.06677 0.79109
 H924 H 0.19983 0.09416 0.79688
 C925 C 0.21639 0.24711 0.16213
 C926 C 0.19792 0.24052 0.16669
 C927 C 0.19498 0.22831 0.18202
 C928 C 0.21043 0.22241 0.19311
 C929 C 0.22889 0.22896 0.18860
 C930 C 0.23185 0.24119 0.17329
 C931 C 0.21953 0.26006 0.14586
 N932 N 0.23725 0.26700 0.14183
 N933 N 0.24008 0.27863 0.12723
 C934 C 0.22531 0.28383 0.11600
 N935 N 0.20759 0.27688 0.12002
 N936 N 0.20476 0.26526 0.13464
 C937 C 0.22847 0.29679 0.09973
 C938 C 0.21332 0.30155 0.08769
 C939 C 0.21631 0.31377 0.07238
 C940 C 0.23452 0.32154 0.06875
 C941 C 0.24967 0.31679 0.08078
 C942 C 0.24669 0.30455 0.09608
 H943 H 0.18569 0.24476 0.15841
 H944 H 0.18064 0.22332 0.18516
 H945 H 0.24099 0.22470 0.19704
 H946 H 0.24626 0.24599 0.17021
 H947 H 0.19911 0.29578 0.09002
 H948 H 0.20440 0.31694 0.06322
 H949 H 0.26381 0.32275 0.07854
 H950 H 0.25868 0.30127 0.10510
 C951 C 0.71677 0.75074 0.66557
 C952 C 0.73224 0.74429 0.67640
 C953 C 0.72924 0.73188 0.69156
 C954 C 0.71071 0.72564 0.69622
 C955 C 0.69523 0.73209 0.68546
 C956 C 0.69821 0.74451 0.67031
 C957 C 0.71997 0.76378 0.64937
 N958 N 0.70504 0.77025 0.63903
 N959 N 0.70794 0.78184 0.62440
 C960 C 0.72589 0.78747 0.61947
 N961 N 0.74081 0.78103 0.62984
 N962 N 0.73791 0.76944 0.64447
 C963 C 0.72914 0.80020 0.60305
 C964 C 0.74779 0.80558 0.59771
 C965 C 0.75088 0.81733 0.58207
 C966 C 0.73541 0.82402 0.57141
 C967 C 0.71676 0.81878 0.57682
 C968 C 0.71366 0.80700 0.59244
 H969 H 0.74671 0.74882 0.67319
 H970 H 0.74137 0.72722 0.69974
 H971 H 0.68084 0.72734 0.68870
 H972 H 0.68597 0.74915 0.66227
 H973 H 0.76004 0.80067 0.60558
 H974 H 0.76540 0.82133 0.57841
 H975 H 0.70456 0.82352 0.56876
 H976 H 0.69911 0.80313 0.59613
 C977 C 0.78200 0.74847 0.33684
 C978 C 0.76652 0.74077 0.32666
 C979 C 0.76967 0.72846 0.31129
 C980 C 0.78834 0.72348 0.30580
 C981 C 0.80381 0.73114 0.31596
 C982 C 0.80069 0.74354 0.33128
 C983 C 0.77867 0.76150 0.35318
 N984 N 0.79350 0.77051 0.36186
 N985 N 0.79050 0.78217 0.37658
 C986 C 0.77253 0.78528 0.38328
 N987 N 0.75770 0.77625 0.37460
 N988 N 0.76070 0.76463 0.35986
 C989 C 0.76919 0.79816 0.39973
 C990 C 0.75091 0.79963 0.40795
 C991 C 0.74777 0.81165 0.42355
 C992 C 0.76281 0.82255 0.43127
 C993 C 0.78108 0.82114 0.42300
 C994 C 0.78423 0.80906 0.40744
 H995 H 0.75195 0.74432 0.33049
 H996 H 0.75750 0.72289 0.30358
 H997 H 0.81834 0.72737 0.31213
 H998 H 0.81295 0.74913 0.33883
 H999 H 0.73901 0.79137 0.40245
 H1000 H 0.73360 0.81217 0.42975
 H1001 H 0.79291 0.82957 0.42840
 H1002 H 0.79847 0.80836 0.40141
 C1003 C 0.28220 0.24906 -0.16183
 C1004 C 0.26680 0.24307 -0.17316
 C1005 C 0.26982 0.23086 -0.18864
 C1006 C 0.28829 0.22441 -0.19315
 C1007 C 0.30370 0.23042 -0.18192
 C1008 C 0.30070 0.24260 -0.16642
 C1009 C 0.27899 0.26193 -0.14533
 N1010 N 0.29372 0.26719 -0.13397
 N1011 N 0.29083 0.27869 -0.11911
 C1012 C 0.27308 0.28544 -0.11499
 N1013 N 0.25836 0.28019 -0.12636
 N1014 N 0.26125 0.26868 -0.14121
 C1015 C 0.26985 0.29823 -0.09843
 C1016 C 0.25159 0.30575 -0.09461
 C1017 C 0.24854 0.31779 -0.07901
 C1018 C 0.26366 0.32259 -0.06685
 C1019 C 0.28191 0.31509 -0.07066
 C1020 C 0.28498 0.30306 -0.08627
 H1021 H 0.25237 0.24777 -0.17007
 H1022 H 0.25775 0.22652 -0.19720
 H1023 H 0.31804 0.22552 -0.18507
 H1024 H 0.31289 0.24691 -0.15802
 H1025 H 0.23962 0.30241 -0.10371
 H1026 H 0.23437 0.32355 -0.07662
 H1027 H 0.29380 0.31830 -0.06142
 H1028 H 0.29921 0.29748 -0.08873
 C1029 C 0.71747 0.25365 -0.16082
 C1030 C 0.71769 0.24673 -0.17952
 C1031 C 0.71451 0.25918 -0.19456
 C1032 C 0.71145 0.27880 -0.19117
 C1033 C 0.71140 0.28581 -0.17256
 C1034 C 0.71419 0.27330 -0.15748
 C1035 C 0.72067 0.24045 -0.14489
 N1036 N 0.71390 0.24471 -0.12735
 N1037 N 0.71673 0.23278 -0.11302
 C1038 C 0.72661 0.21619 -0.11561
 N1039 N 0.73345 0.21197 -0.13314
 N1040 N 0.73047 0.22382 -0.14751
 C1041 C 0.72988 0.20301 -0.09968
 C1042 C 0.74543 0.19028 -0.10002
 C1043 C 0.74865 0.17798 -0.08487
 C1044 C 0.73616 0.17789 -0.06929
 C1045 C 0.72050 0.19045 -0.06901
 C1046 C 0.71750 0.20304 -0.08398
 H1047 H 0.72009 0.23165 -0.18251
 H1048 H 0.71462 0.25362 -0.20888
 H1049 H 0.70901 0.30093 -0.16977
 H1050 H 0.71404 0.27905 -0.14323
 H1051 H 0.75524 0.19000 -0.11190
 H1052 H 0.76077 0.16833 -0.08540
 H1053 H 0.71075 0.19068 -0.05708
 H1054 H 0.70536 0.21265 -0.08338
 C1055 C 0.21554 0.75300 0.33917
 C1056 C 0.21256 0.77269 0.34254
 C1057 C 0.20989 0.78526 0.32748
 C1058 C 0.20977 0.77828 0.30886
 C1059 C 0.21252 0.75862 0.30544
 C1060 C 0.21558 0.74610 0.32046
 C1061 C 0.21867 0.73973 0.35506
 N1062 N 0.22815 0.72293 0.35235
 N1063 N 0.23112 0.71105 0.36669
 C1064 C 0.22458 0.71541 0.38430
 N1065 N 0.21501 0.73217 0.38699
 N1066 N 0.21219 0.74413 0.37268
 C1067 C 0.22791 0.70223 0.40022
 C1068 C 0.21587 0.70259 0.41618
 C1069 C 0.21900 0.69006 0.43118
 C1070 C 0.23444 0.67724 0.43067
 C1071 C 0.24657 0.67697 0.41481
 C1072 C 0.24322 0.68921 0.39964
 H1073 H 0.21255 0.77843 0.35680
 H1074 H 0.20773 0.80041 0.33030
 H1075 H 0.21251 0.75307 0.29112
 H1076 H 0.21775 0.73098 0.31744
 H1077 H 0.20393 0.71242 0.41698
 H1078 H 0.20953 0.69056 0.44333
 H1079 H 0.25851 0.66712 0.41410
 H1080 H 0.25277 0.68867 0.38756
 C1081 C 0.28601 0.75074 0.65866
 C1082 C 0.28428 0.74377 0.67718
 C1083 C 0.28715 0.75601 0.69264
 C1084 C 0.29143 0.77547 0.68986
 C1085 C 0.29310 0.78252 0.67142
 C1086 C 0.29058 0.77021 0.65593
 C1087 C 0.28289 0.73778 0.64231
 N1088 N 0.29043 0.74194 0.62509
 N1089 N 0.28756 0.73026 0.61038
 C1090 C 0.27689 0.71403 0.61225
 N1091 N 0.26930 0.70991 0.62945
 N1092 N 0.27231 0.72150 0.64420
 C1093 C 0.27346 0.70117 0.59589
 C1094 C 0.25754 0.68881 0.59568
 C1095 C 0.25410 0.67684 0.58013
 C1096 C 0.26671 0.67674 0.56465
 C1097 C 0.28276 0.68891 0.56491
 C1098 C 0.28600 0.70116 0.58031
 H1099 H 0.28086 0.72883 0.67972
 H1100 H 0.28581 0.75042 0.70681
 H1101 H 0.29646 0.79751 0.66911
 H1102 H 0.29193 0.77600 0.64183
 H1103 H 0.24758 0.68855 0.60744
 H1104 H 0.24170 0.66749 0.58026
 H1105 H 0.29262 0.68912 0.55307
 H1106 H 0.29842 0.71048 0.58011
 C1107 C 0.78506 0.25097 0.15921
 C1108 C 0.78976 0.24338 0.17694
 C1109 C 0.79234 0.25551 0.19254
 C1110 C 0.79035 0.27548 0.19076
 C1111 C 0.78575 0.28309 0.17305
 C1112 C 0.78309 0.27098 0.15745
 C1113 C 0.78216 0.23810 0.14267
 N1114 N 0.77613 0.24521 0.12592
 N1115 N 0.77340 0.23364 0.11111
 C1116 C 0.77661 0.21446 0.11239
 N1117 N 0.78268 0.20735 0.12913
 N1118 N 0.78538 0.21892 0.14395
 C1119 C 0.77343 0.20156 0.09592
 C1120 C 0.77804 0.18194 0.09686
 C1121 C 0.77489 0.16977 0.08139
 C1122 C 0.76697 0.17691 0.06466
 C1123 C 0.76240 0.19651 0.06369
 C1124 C 0.76563 0.20871 0.07912
 H1125 H 0.79133 0.22805 0.17883
 H1126 H 0.79574 0.24930 0.20608
 H1127 H 0.78431 0.29846 0.17129
 H1128 H 0.77955 0.27733 0.14401
 H1129 H 0.78406 0.17594 0.10956
 H1130 H 0.77836 0.15468 0.08262
 H1131 H 0.75650 0.20247 0.05091
 H1132 H 0.76194 0.22374 0.07788
 C1133 C 0.47062 0.41116 0.49538
 C1134 C 0.47377 0.40836 0.47592
 C1135 C 0.47018 0.42310 0.46315
 C1136 C 0.46334 0.44097 0.46951
 C1137 C 0.46036 0.44387 0.48895
 C1138 C 0.46392 0.42912 0.50175
 C1139 C 0.47421 0.39540 0.50888
 N1140 N 0.47034 0.39766 0.52758
 N1141 N 0.47341 0.38342 0.53965
 C1142 C 0.48049 0.36630 0.53353
 N1143 N 0.48439 0.36406 0.51484
 N1144 N 0.48131 0.37830 0.50278
 C1145 C 0.48375 0.35036 0.54691
 C1146 C 0.49163 0.33289 0.54057
 C1147 C 0.49454 0.31779 0.55311
 C1148 C 0.48962 0.31977 0.57228
 C1149 C 0.48179 0.33723 0.57866
 C1150 C 0.47892 0.35236 0.56613
 H1151 H 0.47892 0.39474 0.47049
 H1152 H 0.47253 0.42048 0.44823
 H1153 H 0.45536 0.45760 0.49423
 H1154 H 0.46142 0.43181 0.51663
 H1155 H 0.49549 0.33081 0.52587
 H1156 H 0.50037 0.30443 0.54772
 H1157 H 0.47807 0.33926 0.59340
 H1158 H 0.47286 0.36562 0.57152
 C1159 C -0.02824 0.91263 -0.00627
 C1160 C -0.02547 0.90973 -0.02577
 C1161 C -0.02884 0.92455 -0.03851
 C1162 C -0.03502 0.94263 -0.03205
 C1163 C -0.03767 0.94561 -0.01257
 C1164 C -0.03435 0.93077 0.00018
 C1165 C -0.02489 0.89682 0.00723
 N1166 N -0.02863 0.89919 0.02594
 N1167 N -0.02577 0.88493 0.03803
 C1168 C -0.01903 0.86767 0.03193
 N1169 N -0.01526 0.86531 0.01322
 N1170 N -0.01814 0.87957 0.00113
 C1171 C -0.01597 0.85173 0.04535
 C1172 C -0.00817 0.83419 0.03910
 C1173 C -0.00542 0.81911 0.05170
 C1174 C -0.01044 0.82118 0.07085
 C1175 C -0.01820 0.83870 0.07712
 C1176 C -0.02091 0.85382 0.06454
 H1177 H -0.02081 0.89595 -0.03125
 H1178 H -0.02682 0.92188 -0.05346
 H1179 H -0.04223 0.95948 -0.00724
 H1180 H -0.03656 0.93356 0.01509
 H1181 H -0.00423 0.83205 0.02443
 H1182 H 0.00037 0.80570 0.04639
 H1183 H -0.02201 0.84080 0.09184
 H1184 H -0.02692 0.86712 0.06986
 C1185 C 0.03193 0.59034 -0.00497
 C1186 C 0.01641 0.57926 -0.01146
 C1187 C 0.01939 0.56374 -0.02374
 C1188 C 0.03793 0.55894 -0.02978
 C1189 C 0.05344 0.56999 -0.02334
 C1190 C 0.05049 0.58552 -0.01108
 C1191 C 0.02880 0.60679 0.00811
 N1192 N 0.04368 0.61792 0.01387
 N1193 N 0.04088 0.63268 0.02564
 C1194 C 0.02309 0.63693 0.03217
 N1195 N 0.00821 0.62579 0.02640
 N1196 N 0.01100 0.61105 0.01462
 C1197 C 0.01999 0.65333 0.04531
 C1198 C 0.00168 0.65722 0.05266
 C1199 C -0.00121 0.67265 0.06508
 C1200 C 0.01412 0.68457 0.07043
 C1201 C 0.03241 0.68070 0.06306
 C1202 C 0.03532 0.66527 0.05066
 H1203 H 0.00194 0.58254 -0.00704
 H1204 H 0.00724 0.55533 -0.02843
 H1205 H 0.06784 0.56662 -0.02792
 H1206 H 0.06277 0.59374 -0.00639
 H1207 H -0.01044 0.64829 0.04891
 H1208 H -0.01543 0.67509 0.07070
 H1209 H 0.04447 0.68978 0.06668
 H1210 H 0.04959 0.66275 0.04522
 C1211 C 0.53039 0.08681 0.49844
 C1212 C 0.54891 0.08153 0.49261
 C1213 C 0.55166 0.06597 0.48032
 C1214 C 0.53597 0.05539 0.47355
 C1215 C 0.51748 0.06059 0.47940
 C1216 C 0.51471 0.07612 0.49172
 C1217 C 0.52749 0.10341 0.51139
 N1218 N 0.50973 0.10807 0.51775
 N1219 N 0.50714 0.12301 0.52933
 C1220 C 0.52219 0.13396 0.53503
 N1221 N 0.53994 0.12929 0.52867
 N1222 N 0.54253 0.11434 0.51711
 C1223 C 0.51932 0.15062 0.54790
 C1224 C 0.53479 0.16249 0.55297
 C1225 C 0.53211 0.17819 0.56510
 C1226 C 0.51390 0.18238 0.57249
 C1227 C 0.49842 0.17053 0.56743
 C1228 C 0.50109 0.15484 0.55527
 H1229 H 0.56132 0.08942 0.49749
 H1230 H 0.56604 0.06230 0.47591
 H1231 H 0.50519 0.05252 0.47448
 H1232 H 0.50026 0.07975 0.49593
 H1233 H 0.54901 0.15974 0.54750
 H1234 H 0.54428 0.18720 0.56849
 H1235 H 0.48426 0.17321 0.57309
 H1236 H 0.48886 0.14597 0.55174
 C1237 C -0.02836 0.08470 0.50316
 C1238 C -0.03361 0.06649 0.49614
 C1239 C -0.03663 0.05114 0.50843
 C1240 C -0.03454 0.05367 0.52800
 C1241 C -0.02914 0.07180 0.53503
 C1242 C -0.02606 0.08714 0.52275
 C1243 C -0.02545 0.10107 0.49016
 N1244 N -0.01951 0.11844 0.49679
 N1245 N -0.01707 0.13320 0.48514
 C1246 C -0.02050 0.13123 0.46636
 N1247 N -0.02643 0.11386 0.45972
 N1248 N -0.02884 0.09910 0.47137
 C1249 C -0.01792 0.14771 0.45341
 C1250 C -0.02256 0.14596 0.43417
 C1251 C -0.02023 0.16152 0.42201
 C1252 C -0.01315 0.17917 0.42877
 C1253 C -0.00846 0.18093 0.44798
 C1254 C -0.01085 0.16539 0.46016
 H1255 H -0.03542 0.06405 0.48113
 H1256 H -0.04058 0.03724 0.50267
 H1257 H -0.02754 0.07412 0.55007
 H1258 H -0.02205 0.10095 0.52867
 H1259 H -0.02802 0.13256 0.42847
 H1260 H -0.02375 0.15967 0.40723
 H1261 H -0.00319 0.19441 0.45365
 H1262 H -0.00716 0.16728 0.47489
 C1263 C 0.47005 0.58734 1.00715
 C1264 C 0.46345 0.56938 1.00064
 C1265 C 0.46008 0.55441 1.01328
 C1266 C 0.46313 0.55707 1.03271
 C1267 C 0.46994 0.57492 1.03921
 C1268 C 0.47335 0.58989 1.02659
 C1269 C 0.47325 0.60338 0.99382
 N1270 N 0.47997 0.62062 1.00003
 N1271 N 0.48261 0.63511 0.98810
 C1272 C 0.47862 0.63300 0.96945
 N1273 N 0.47193 0.61575 0.96323
 N1274 N 0.46931 0.60125 0.97515
 C1275 C 0.48134 0.64921 0.95622
 C1276 C 0.47655 0.64721 0.93704
 C1277 C 0.47891 0.66257 0.92463
 C1278 C 0.48616 0.68027 0.93108
 C1279 C 0.49104 0.68226 0.95022
 C1280 C 0.48864 0.66693 0.96265
 H1281 H 0.46084 0.56687 0.98577
 H1282 H 0.45509 0.54069 1.00789
 H1283 H 0.47236 0.57735 1.05413
 H1284 H 0.47843 0.60351 1.03211
 H1285 H 0.47093 0.63378 0.93158
 H1286 H 0.47525 0.66052 0.90991
 H1287 H 0.49644 0.69579 0.95567
 H1288 H 0.49245 0.66901 0.97733
 C1289 C 0.52775 0.91287 1.00413
 C1290 C 0.53318 0.93094 0.99707
 C1291 C 0.53662 0.94635 1.00936
 C1292 C 0.53479 0.94404 1.02897
 C1293 C 0.52939 0.92602 1.03605
 C1294 C 0.52588 0.91061 1.02378
 C1295 C 0.52414 0.89649 0.99111
 N1296 N 0.51788 0.87933 0.99779
 N1297 N 0.51472 0.86459 0.98611
 C1298 C 0.51770 0.86636 0.96723
 N1299 N 0.52394 0.88352 0.96054
 N1300 N 0.52708 0.89827 0.97222
 C1301 C 0.51434 0.84989 0.95424
 C1302 C 0.51862 0.85139 0.93488
 C1303 C 0.51570 0.83578 0.92268
 C1304 C 0.50837 0.81835 0.92954
 C1305 C 0.50395 0.81688 0.94886
 C1306 C 0.50693 0.83245 0.96107
 H1307 H 0.53471 0.93322 0.98203
 H1308 H 0.54062 0.96016 1.00357
 H1309 H 0.52804 0.92386 1.05113
 H1310 H 0.52179 0.89691 1.02972
 H1311 H 0.52431 0.86460 0.92911
 H1312 H 0.51902 0.83742 0.90783
 H1313 H 0.49849 0.80356 0.95460
 H1314 H 0.50348 0.83078 0.97589
 C1315 C 0.02914 0.41121 0.50429
 C1316 C 0.01373 0.42244 0.51076
 C1317 C 0.01682 0.43796 0.52302
 C1318 C 0.03536 0.44262 0.52904
 C1319 C 0.05077 0.43143 0.52260
 C1320 C 0.04770 0.41589 0.51038
 C1321 C 0.02591 0.39475 0.49125
 N1322 N 0.04069 0.38351 0.48549
 N1323 N 0.03782 0.36875 0.47376
 C1324 C 0.02003 0.36459 0.46726
 N1325 N 0.00524 0.37584 0.47302
 N1326 N 0.00811 0.39059 0.48476
 C1327 C 0.01686 0.34817 0.45417
 C1328 C -0.00142 0.34433 0.44685
 C1329 C -0.00436 0.32888 0.43447
 C1330 C 0.01089 0.31690 0.42911
 C1331 C 0.02915 0.32071 0.43646
 C1332 C 0.03211 0.33616 0.44882
 H1333 H -0.00075 0.41928 0.50636
 H1334 H 0.00474 0.44648 0.52769
 H1335 H 0.06518 0.43467 0.52717
 H1336 H 0.05991 0.40756 0.50570
 H1337 H -0.01348 0.35331 0.45060
 H1338 H -0.01855 0.32648 0.42887
 H1339 H 0.04115 0.31158 0.43284
 H1340 H 0.04636 0.33862 0.45423
 C1341 C 0.41132 0.49304 0.46327
 C1342 C 0.42884 0.50027 0.45650
 C1343 C 0.44457 0.48817 0.45415
 C1344 C 0.44317 0.46855 0.45848
 C1345 C 0.42561 0.46125 0.46502
 C1346 C 0.40988 0.47337 0.46745
 C1347 C 0.39474 0.50600 0.46609
 N1348 N 0.37826 0.49948 0.47406
 N1349 N 0.36347 0.51120 0.47680
 C1350 C 0.36451 0.52995 0.47166
 N1351 N 0.38096 0.53645 0.46365
 N1352 N 0.39576 0.52474 0.46094
 C1353 C 0.34812 0.54307 0.47487
 C1354 C 0.34883 0.56214 0.46846
 C1355 C 0.33348 0.57456 0.47162
 C1356 C 0.31708 0.56826 0.48133
 C1357 C 0.31633 0.54920 0.48771
 C1358 C 0.33165 0.53674 0.48448
 H1359 H 0.43049 0.51534 0.45317
 H1360 H 0.45795 0.49418 0.44917
 H1361 H 0.42408 0.44613 0.46819
 H1362 H 0.39659 0.46728 0.47258
 H1363 H 0.36128 0.56752 0.46102
 H1364 H 0.33457 0.58923 0.46672
 H1365 H 0.30379 0.54386 0.49504
 H1366 H 0.33059 0.52215 0.48960
 C1367 C 0.91305 -0.00545 -0.03735
 C1368 C 0.91152 -0.02532 -0.03416
 C1369 C 0.92729 -0.03732 -0.03686
 C1370 C 0.94496 -0.02973 -0.04273
 C1371 C 0.94649 -0.00992 -0.04602
 C1372 C 0.93072 0.00209 -0.04338
 C1373 C 0.89638 0.00734 -0.03430
 N1374 N 0.89749 0.02633 -0.03848
 N1375 N 0.88257 0.03785 -0.03562
 C1376 C 0.86591 0.03090 -0.02843
 N1377 N 0.86480 0.01191 -0.02426
 N1378 N 0.87971 0.00038 -0.02715
 C1379 C 0.84936 0.04379 -0.02514
 C1380 C 0.83258 0.03690 -0.01646
 C1381 C 0.81706 0.04912 -0.01323
 C1382 C 0.81792 0.06847 -0.01868
 C1383 C 0.83465 0.07534 -0.02742
 C1384 C 0.85020 0.06316 -0.03058
 H1385 H 0.89813 -0.03164 -0.02959
 H1386 H 0.92570 -0.05258 -0.03444
 H1387 H 0.95999 -0.00371 -0.05042
 H1388 H 0.93244 0.01732 -0.04594
 H1389 H 0.83142 0.02206 -0.01210
 H1390 H 0.80427 0.04336 -0.00666
 H1391 H 0.83584 0.09024 -0.03157
 H1392 H 0.86289 0.06897 -0.03728
 C1393 C 0.58614 -0.00288 0.03195
 C1394 C 0.56843 0.00464 0.03785
 C1395 C 0.55282 -0.00752 0.04101
 C1396 C 0.55457 -0.02746 0.03842
 C1397 C 0.57225 -0.03500 0.03259
 C1398 C 0.58786 -0.02286 0.02935
 C1399 C 0.60271 0.01001 0.02851
 N1400 N 0.61937 0.00297 0.02140
 N1401 N 0.63424 0.01454 0.01828
 C1402 C 0.63311 0.03365 0.02215
 N1403 N 0.61646 0.04068 0.02928
 N1404 N 0.60157 0.02912 0.03237
 C1405 C 0.64968 0.04652 0.01867
 C1406 C 0.64901 0.06600 0.02405
 C1407 C 0.66465 0.07810 0.02079
 C1408 C 0.68129 0.07104 0.01201
 C1409 C 0.68196 0.05159 0.00660
 C1410 C 0.66636 0.03946 0.00993
 H1411 H 0.56657 0.01994 0.03994
 H1412 H 0.53928 -0.00136 0.04534
 H1413 H 0.57400 -0.05034 0.03066
 H1414 H 0.60128 -0.02916 0.02489
 H1415 H 0.63640 0.07193 0.03079
 H1416 H 0.66364 0.09307 0.02493
 H1417 H 0.69467 0.04568 0.00001
 H1418 H 0.66740 0.02455 0.00562
 C1419 C 0.08595 0.49627 0.53202
 C1420 C 0.07433 0.49019 0.51694
 C1421 C 0.05882 0.47790 0.52011
 C1422 C 0.05454 0.47149 0.53840
 C1423 C 0.06606 0.47759 0.55348
 C1424 C 0.08162 0.48982 0.55033
 C1425 C 0.10250 0.50919 0.52864
 N1426 N 0.11465 0.51387 0.54287
 N1427 N 0.12955 0.52542 0.53982
 C1428 C 0.13294 0.53281 0.52242
 N1429 N 0.12078 0.52815 0.50820
 N1430 N 0.10589 0.51658 0.51124
 C1431 C 0.14954 0.54566 0.51901
 C1432 C 0.15214 0.55452 0.50140
 C1433 C 0.16777 0.56664 0.49819
 C1434 C 0.18122 0.57016 0.51249
 C1435 C 0.17865 0.56128 0.53009
 C1436 C 0.16298 0.54920 0.53332
 H1437 H 0.07723 0.49486 0.50266
 H1438 H 0.05005 0.47347 0.50829
 H1439 H 0.06308 0.47271 0.56768
 H1440 H 0.09024 0.49421 0.56227
 H1441 H 0.14202 0.55220 0.49008
 H1442 H 0.16917 0.57348 0.48457
 H1443 H 0.18890 0.56345 0.54132
 H1444 H 0.16150 0.54255 0.54703
 C1445 C 0.08742 0.50457 -0.03260
 C1446 C 0.07586 0.51103 -0.01754
 C1447 C 0.06065 0.52353 -0.02077
 C1448 C 0.05664 0.52981 -0.03911
 C1449 C 0.06809 0.52333 -0.05418
 C1450 C 0.08333 0.51086 -0.05097
 C1451 C 0.10366 0.49143 -0.02915
 N1452 N 0.11539 0.48589 -0.04352
 N1453 N 0.13003 0.47415 -0.04041
 C1454 C 0.13355 0.46743 -0.02281
 N1455 N 0.12180 0.47297 -0.00845
 N1456 N 0.10718 0.48472 -0.01155
 C1457 C 0.14985 0.45438 -0.01935
 C1458 C 0.15294 0.44672 -0.00131
 C1459 C 0.16829 0.43439 0.00193
 C1460 C 0.18093 0.42944 -0.01280
 C1461 C 0.17788 0.43712 -0.03083
 C1462 C 0.16252 0.44943 -0.03407
 H1463 H 0.07857 0.50648 -0.00321
 H1464 H 0.05192 0.52824 -0.00896
 H1465 H 0.06532 0.52810 -0.06843
 H1466 H 0.09191 0.50619 -0.06290
 H1467 H 0.14344 0.45016 0.01035
 H1468 H 0.17010 0.42851 0.01591
 H1469 H 0.18752 0.43382 -0.04241
 H1470 H 0.16064 0.45512 -0.04813
 C1471 C 0.58523 1.00104 0.46965
 C1472 C 0.57271 1.00586 0.48454
 C1473 C 0.55754 1.01848 0.48161
 C1474 C 0.55446 1.02635 0.46370
 C1475 C 0.56681 1.02144 0.44877
 C1476 C 0.58212 1.00900 0.45173
 C1477 C 0.60152 0.98793 0.47281
 N1478 N 0.61603 0.98669 0.46004
 N1479 N 0.63078 0.97506 0.46296
 C1480 C 0.63161 0.96410 0.47872
 N1481 N 0.61707 0.96528 0.49146
 N1482 N 0.60236 0.97699 0.48859
 C1483 C 0.64809 0.95126 0.48199
 C1484 C 0.64711 0.93683 0.49576
 C1485 C 0.66270 0.92474 0.49883
 C1486 C 0.67966 0.92700 0.48837
 C1487 C 0.68068 0.94145 0.47466
 C1488 C 0.66503 0.95337 0.47142
 H1489 H 0.57474 1.00003 0.49852
 H1490 H 0.54809 1.02206 0.49327
 H1491 H 0.56469 1.02745 0.43489
 H1492 H 0.59145 1.00554 0.43995
 H1493 H 0.63426 0.93480 0.50411
 H1494 H 0.66160 0.91380 0.50958
 H1495 H 0.69353 0.94337 0.46628
 H1496 H 0.66627 0.96436 0.46074
 C1497 C 0.91466 1.00006 0.53156
 C1498 C 0.91286 1.01990 0.52846
 C1499 C 0.92830 1.03229 0.53159
 C1500 C 0.94592 1.02512 0.53776
 C1501 C 0.94772 1.00531 0.54092
 C1502 C 0.93226 0.99292 0.53791
 C1503 C 0.89830 0.98691 0.52816
 N1504 N 0.89910 0.96819 0.53337
 N1505 N 0.88438 0.95640 0.53031
 C1506 C 0.86826 0.96280 0.52185
 N1507 N 0.86747 0.98151 0.51660
 N1508 N 0.88216 0.99332 0.51971
 C1509 C 0.85183 0.94972 0.51849
 C1510 C 0.83619 0.95571 0.50765
 C1511 C 0.82062 0.94347 0.50463
 C1512 C 0.82027 0.92500 0.51248
 C1513 C 0.83589 0.91896 0.52329
 C1514 C 0.85154 0.93116 0.52620
 H1515 H 0.89949 1.02591 0.52368
 H1516 H 0.92647 1.04752 0.52927
 H1517 H 0.96120 0.99940 0.54554
 H1518 H 0.93417 0.97772 0.54039
 H1519 H 0.83594 0.96990 0.50148
 H1520 H 0.80868 0.94858 0.49642
 H1521 H 0.83608 0.90473 0.52936
 H1522 H 0.86334 0.92607 0.53462
 C1523 C 0.41101 0.50481 0.03819
 C1524 C 0.42852 0.49745 0.04453
 C1525 C 0.44425 0.50957 0.04717
 C1526 C 0.44286 0.52932 0.04354
 C1527 C 0.42530 0.53675 0.03749
 C1528 C 0.40956 0.52464 0.03480
 C1529 C 0.39446 0.49185 0.03492
 N1530 N 0.37783 0.49870 0.02784
 N1531 N 0.36306 0.48700 0.02466
 C1532 C 0.36429 0.46794 0.02844
 N1533 N 0.38090 0.46110 0.03557
 N1534 N 0.39567 0.47280 0.03873
 C1535 C 0.34792 0.45486 0.02476
 C1536 C 0.34905 0.43526 0.02929
 C1537 C 0.33367 0.42291 0.02577
 C1538 C 0.31681 0.42984 0.01760
 C1539 C 0.31566 0.44941 0.01305
 C1540 C 0.33102 0.46179 0.01661
 H1541 H 0.43017 0.48227 0.04729
 H1542 H 0.45764 0.50346 0.05178
 H1543 H 0.42379 0.55197 0.03485
 H1544 H 0.39628 0.53082 0.03001
 H1545 H 0.36184 0.42940 0.03555
 H1546 H 0.33507 0.40785 0.02922
 H1547 H 0.30277 0.45522 0.00695
 H1548 H 0.32963 0.47679 0.01297
 C1549 C 0.49757 0.46447 0.40984
 C1550 C 0.47803 0.46096 0.40673
 C1551 C 0.46552 0.45840 0.42197
 C1552 C 0.47241 0.45893 0.44052
 C1553 C 0.49191 0.46222 0.44368
 C1554 C 0.50437 0.46516 0.42848
 C1555 C 0.51077 0.46747 0.39374
 N1556 N 0.52736 0.47738 0.39608
 N1557 N 0.53919 0.48023 0.38156
 C1558 C 0.53499 0.47313 0.36415
 N1559 N 0.51845 0.46313 0.36183
 N1560 N 0.50654 0.46043 0.37631
 C1561 C 0.54811 0.47634 0.34802
 C1562 C 0.54793 0.46388 0.33231
 C1563 C 0.56039 0.46691 0.31711
 C1564 C 0.57295 0.48268 0.31718
 C1565 C 0.57306 0.49521 0.33279
 C1566 C 0.56089 0.49196 0.34816
 H1567 H 0.47237 0.46044 0.39253
 H1568 H 0.45049 0.45582 0.41936
 H1569 H 0.49739 0.46271 0.45795
 H1570 H 0.51937 0.46775 0.43130
 H1571 H 0.53829 0.45169 0.33185
 H1572 H 0.56001 0.45713 0.30515
 H1573 H 0.58271 0.50740 0.33317
 H1574 H 0.56129 0.50184 0.36004
 C1575 C -0.00070 -0.03354 0.90814
 C1576 C -0.02062 -0.03344 0.90551
 C1577 C -0.03304 -0.03619 0.92079
 C1578 C -0.02582 -0.03918 0.93898
 C1579 C -0.00595 -0.03934 0.94164
 C1580 C 0.00648 -0.03650 0.92640
 C1581 C 0.01249 -0.03057 0.89195
 N1582 N 0.03161 -0.02861 0.89471
 N1583 N 0.04345 -0.02589 0.88017
 C1584 C 0.03670 -0.02506 0.86224
 N1585 N 0.01759 -0.02705 0.85948
 N1586 N 0.00574 -0.02973 0.87402
 C1587 C 0.04989 -0.02198 0.84606
 C1588 C 0.04318 -0.02315 0.82740
 C1589 C 0.05559 -0.02018 0.81216
 C1590 C 0.07496 -0.01585 0.81522
 C1591 C 0.08169 -0.01467 0.83386
 C1592 C 0.06931 -0.01775 0.84910
 H1593 H -0.02666 -0.03119 0.89166
 H1594 H -0.04832 -0.03613 0.91843
 H1595 H -0.00011 -0.04152 0.95559
 H1596 H 0.02173 -0.03668 0.92895
 H1597 H 0.02832 -0.02637 0.82453
 H1598 H 0.04996 -0.02097 0.79796
 H1599 H 0.09659 -0.01155 0.83664
 H1600 H 0.07497 -0.01675 0.86328
 C1601 C -0.00083 0.02926 0.58747
 C1602 C 0.00665 0.03288 0.56935
 C1603 C -0.00555 0.03577 0.55408
 C1604 C -0.02545 0.03500 0.55656
 C1605 C -0.03296 0.03138 0.57461
 C1606 C -0.02079 0.02858 0.58992
 C1607 C 0.01212 0.02617 0.60368
 N1608 N 0.00507 0.02466 0.62152
 N1609 N 0.01671 0.02186 0.63607
 C1610 C 0.03590 0.02039 0.63339
 N1611 N 0.04294 0.02189 0.61554
 N1612 N 0.03131 0.02473 0.60101
 C1613 C 0.04887 0.01718 0.64955
 C1614 C 0.06841 0.01352 0.64648
 C1615 C 0.08063 0.01039 0.66169
 C1616 C 0.07364 0.01096 0.68032
 C1617 C 0.05414 0.01471 0.68342
 C1618 C 0.04188 0.01772 0.66821
 H1619 H 0.02193 0.03353 0.56695
 H1620 H 0.00052 0.03846 0.54025
 H1621 H -0.04828 0.03085 0.57683
 H1622 H -0.02704 0.02581 0.60366
 H1623 H 0.07429 0.01301 0.63232
 H1624 H 0.09563 0.00776 0.65888
 H1625 H 0.04832 0.01504 0.69762
 H1626 H 0.02693 0.02050 0.67109
 C1627 C 0.49721 0.53273 0.09173
 C1628 C 0.47765 0.53600 0.09507
 C1629 C 0.46518 0.53877 0.07998
 C1630 C 0.47211 0.53871 0.06137
 C1631 C 0.49164 0.53567 0.05799
 C1632 C 0.50406 0.53251 0.07303
 C1633 C 0.51038 0.52952 0.10766
 N1634 N 0.52696 0.51975 0.10501
 N1635 N 0.53877 0.51673 0.11938
 C1636 C 0.53455 0.52352 0.13694
 N1637 N 0.51802 0.53337 0.13957
 N1638 N 0.50613 0.53624 0.12524
 C1639 C 0.54767 0.52016 0.15288
 C1640 C 0.54754 0.53245 0.16872
 C1641 C 0.56004 0.52932 0.18373
 C1642 C 0.57258 0.51362 0.18333
 C1643 C 0.57261 0.50124 0.16760
 C1644 C 0.56041 0.50459 0.15242
 H1645 H 0.47196 0.53615 0.10932
 H1646 H 0.45013 0.54115 0.08277
 H1647 H 0.49715 0.53554 0.04368
 H1648 H 0.51907 0.53011 0.07005
 H1649 H 0.53794 0.54460 0.16942
 H1650 H 0.55972 0.53898 0.19578
 H1651 H 0.58224 0.48910 0.16697
 H1652 H 0.56076 0.49484 0.14043
 C1653 C 0.50149 -0.03071 0.08908
 C1654 C 0.52142 -0.02869 0.09091
 C1655 C 0.53349 -0.03172 0.07539
 C1656 C 0.52592 -0.03677 0.05770
 C1657 C 0.50603 -0.03872 0.05583
 C1658 C 0.49395 -0.03575 0.07135
 C1659 C 0.48867 -0.02763 0.10557
 N1660 N 0.46956 -0.03081 0.10417
 N1661 N 0.45804 -0.02810 0.11898
 C1662 C 0.46513 -0.02206 0.13584
 N1663 N 0.48424 -0.01886 0.13724
 N1664 N 0.49576 -0.02160 0.12243
 C1665 C 0.45229 -0.01901 0.15232
 C1666 C 0.45947 -0.01156 0.16940
 C1667 C 0.44734 -0.00861 0.18490
 C1668 C 0.42779 -0.01311 0.18371
 C1669 C 0.42062 -0.02062 0.16669
 C1670 C 0.43272 -0.02351 0.15116
 H1671 H 0.52773 -0.02487 0.10435
 H1672 H 0.54879 -0.03030 0.07721
 H1673 H 0.49986 -0.04245 0.04230
 H1674 H 0.47869 -0.03737 0.06940
 H1675 H 0.47446 -0.00797 0.17082
 H1676 H 0.45333 -0.00301 0.19790
 H1677 H 0.40557 -0.02401 0.16528
 H1678 H 0.42669 -0.02925 0.13824
 C1679 C 1.00118 0.46841 0.58857
 C1680 C 1.00728 0.44972 0.58391
 C1681 C 1.01949 0.44655 0.56853
 C1682 C 1.02590 0.46198 0.55749
 C1683 C 1.01986 0.48065 0.56212
 C1684 C 1.00762 0.48384 0.57748
 C1685 C 0.98822 0.47179 0.60491
 N1686 N 0.98171 0.48972 0.60900
 N1687 N 0.97009 0.49276 0.62367
 C1688 C 0.96448 0.47802 0.63490
 N1689 N 0.97100 0.46009 0.63081
 N1690 N 0.98261 0.45705 0.61612
 C1691 C 0.95157 0.48142 0.65126
 C1692 C 0.94648 0.46628 0.66336
 C1693 C 0.93435 0.46950 0.67880
 C1694 C 0.92699 0.48792 0.68251
 C1695 C 0.93205 0.50305 0.67041
 C1696 C 0.94420 0.49984 0.65498
 H1697 H 1.00263 0.43750 0.59214
 H1698 H 1.02409 0.43205 0.56531
 H1699 H 1.02452 0.49275 0.55373
 H1700 H 1.00322 0.49842 0.58064
 H1701 H 0.95194 0.45193 0.66098
 H1702 H 0.93095 0.45760 0.68800
 H1703 H 0.92642 0.51734 0.67272
 H1704 H 0.94775 0.51182 0.64593
 C1705 C 1.00390 0.53398 0.91062
 C1706 C 1.00985 0.51839 0.92166
 C1707 C 1.02203 0.52130 0.93700
 C1708 C 1.02850 0.53984 0.94167
 C1709 C 1.02261 0.55541 0.93067
 C1710 C 1.01046 0.55253 0.91531
 C1711 C 0.99092 0.53091 0.89438
 N1712 N 0.98567 0.54583 0.88330
 N1713 N 0.97397 0.54309 0.86874
 C1714 C 0.96699 0.52532 0.86463
 N1715 N 0.97224 0.51040 0.87571
 N1716 N 0.98395 0.51314 0.89026
 C1717 C 0.95390 0.52227 0.84846
 C1718 C 0.94606 0.50401 0.84474
 C1719 C 0.93368 0.50116 0.82955
 C1720 C 0.92884 0.51648 0.81770
 C1721 C 0.93670 0.53473 0.82139
 C1722 C 0.94907 0.53760 0.83659
 H1723 H 1.00508 0.50392 0.91848
 H1724 H 1.02629 0.50910 0.94537
 H1725 H 1.02754 0.56981 0.93394
 H1726 H 1.00620 0.56486 0.90713
 H1727 H 0.94940 0.49190 0.85363
 H1728 H 0.92766 0.48699 0.82725
 H1729 H 0.93347 0.54677 0.81236
 H1730 H 0.95489 0.55183 0.83898
 C1731 C 0.50203 0.03122 0.41340
 C1732 C 0.50814 0.01546 0.42409
 C1733 C 0.52021 0.01817 0.43955
 C1734 C 0.52638 0.03668 0.44471
 C1735 C 0.52033 0.05243 0.43404
 C1736 C 0.50830 0.04974 0.41855
 C1737 C 0.48920 0.02834 0.39700
 N1738 N 0.48392 0.04339 0.38613
 N1739 N 0.47238 0.04080 0.37142
 C1740 C 0.46561 0.02303 0.36695
 N1741 N 0.47090 0.00798 0.37782
 N1742 N 0.48245 0.01057 0.39252
 C1743 C 0.45274 0.02012 0.35059
 C1744 C 0.44502 0.00187 0.34658
 C1745 C 0.43286 -0.00088 0.33120
 C1746 C 0.42813 0.01455 0.31943
 C1747 C 0.43585 0.03279 0.32341
 C1748 C 0.44800 0.03555 0.33881
 H1749 H 0.50361 0.00099 0.42055
 H1750 H 0.52461 0.00582 0.44763
 H1751 H 0.52507 0.06682 0.43764
 H1752 H 0.50391 0.06220 0.41062
 H1753 H 0.44829 -0.01033 0.35538
 H1754 H 0.42694 -0.01505 0.32868
 H1755 H 0.43270 0.04491 0.31447
 H1756 H 0.45373 0.04979 0.34143
   
