data_POSCAR
  _audit_creation_date              2014-09-24
  _audit_creation_method            'ToBaCCo'
  _symmetry_space_group_name_H-M    'P1'
  _symmetry_Int_Tables_number       1
  _symmetry_cell_setting            triclinic
  loop_
  _symmetry_equiv_pos_as_xyz
 x,y,z
_cell_length_a 34.9906
_cell_length_b 34.9045
_cell_length_c 30.1644
_cell_angle_alpha 90.756800
_cell_angle_beta 89.786100
_cell_angle_gamma 89.737800
loop_
  _atom_site_label
  _atom_site_type_symbol
  _atom_site_fract_x
  _atom_site_fract_y
  _atom_site_fract_z
Zr1 Zr -0.06916 0.00212 0.00547
 O2 O -0.11567 -0.02476 -0.02698
 O3 O -0.09689 0.03661 0.05305
 O4 O -0.09792 -0.03647 0.04697
 O5 O -0.06139 0.07146 -0.07424
 O6 O -0.05012 -0.07143 0.07853
 O7 O -0.10344 0.04185 -0.02795
 O8 O -0.04782 0.06541 0.09016
 O9 O -0.03263 -0.00168 0.06010
 O10 O -0.03543 0.05138 0.00460
 O11 O -0.03814 -0.04895 -0.00475
 O12 O -0.04281 0.00224 -0.05765
 Zr13 Zr 0.06287 -0.00245 -0.01389
 Zr14 Zr 0.00041 -0.05093 0.04814
 Zr15 Zr -0.00711 0.05038 -0.05627
 Zr16 Zr 0.00235 0.04657 0.05706
 O17 O -0.01277 0.04839 -0.12608
 O18 O 0.00927 0.03340 0.12498
 O19 O 0.03213 0.04906 -0.00369
 O20 O 0.03592 -0.00269 0.04872
 O21 O 0.02963 -0.05218 -0.01272
 O22 O 0.02560 0.00118 -0.06762
 C23 C -0.08354 0.05944 0.08292
 C24 C -0.09514 0.06583 -0.05840
 C25 C -0.08569 -0.06313 0.07244
 O26 O 0.00854 -0.04904 0.11758
 O27 O 0.05415 -0.07508 0.06285
 O28 O 0.09626 -0.04450 0.01737
 C29 C 0.08780 -0.06950 0.04676
 O30 O -0.06249 -0.06510 -0.09011
 Zr31 Zr -0.00864 -0.04719 -0.06509
 O32 O 0.09071 -0.03650 -0.06204
 O33 O -0.00301 -0.11097 0.03855
 O34 O -0.01111 -0.10760 -0.05902
 O35 O -0.01095 -0.03711 -0.13421
 O36 O 0.04183 -0.07067 -0.09275
 C37 C 0.07745 -0.06268 -0.08809
 O38 O 0.10984 0.02274 0.01940
 O39 O -0.00633 0.11054 -0.04669
 O40 O 0.09150 0.03811 -0.05360
 O41 O 0.04314 0.07311 -0.08398
 O42 O 0.00072 0.10726 0.05467
 O43 O 0.05589 0.06978 0.07647
 C44 C 0.07873 0.06511 -0.07846
 H45 H -0.05020 0.07549 0.00801
 H46 H 0.05497 -0.00388 0.07285
 H47 H 0.03904 0.00251 -0.09650
 H48 H -0.05513 -0.07154 -0.00532
 H49 H 0.00406 0.05718 0.14231
 H50 H 0.00805 -0.07591 0.12776
 H51 H 0.00040 -0.12264 0.06805
 H52 H -0.00732 -0.11895 -0.08902
 H53 H -0.00211 0.11700 0.08553
 H54 H -0.01037 0.12203 -0.07618
 H55 H -0.01284 0.07528 -0.13622
 H56 H -0.00620 -0.06195 -0.14959
 H57 H 0.05267 0.08479 0.10432
 H58 H 0.13339 0.01344 0.00424
 H59 H -0.13949 -0.01560 -0.01226
 H60 H -0.05860 -0.08539 -0.11296
 Zr61 Zr 0.56010 0.48766 0.49991
 O62 O 0.60578 0.50451 0.54169
 O63 O 0.58939 0.45338 0.45269
 O64 O 0.58392 0.44218 0.53634
 O65 O 0.55871 0.56997 0.43660
 O66 O 0.53192 0.40987 0.56198
 O67 O 0.59795 0.52720 0.47077
 O68 O 0.54137 0.42930 0.40966
 O69 O 0.52166 0.44265 0.48901
 O70 O 0.53094 0.50005 0.44140
 O71 O 0.52478 0.48668 0.55659
 O72 O 0.53441 0.54183 0.51104
 Zr73 Zr 0.42755 0.50798 0.49687
 Zr74 Zr 0.48479 0.44357 0.54381
 Zr75 Zr 0.50318 0.55211 0.45311
 Zr76 Zr 0.49116 0.45663 0.43211
 O77 O 0.51062 0.61047 0.47080
 O78 O 0.48103 0.39676 0.43079
 O79 O 0.46259 0.50937 0.43970
 O80 O 0.45364 0.45423 0.48609
 O81 O 0.45626 0.49555 0.55587
 O82 O 0.46652 0.55245 0.50777
 C83 C 0.57663 0.43205 0.42089
 C84 C 0.59191 0.55709 0.44717
 C85 C 0.56810 0.41467 0.55764
 O86 O 0.47321 0.38591 0.52617
 O87 O 0.42987 0.42935 0.56621
 O88 O 0.38990 0.47104 0.53136
 C89 C 0.39646 0.44250 0.55714
 O90 O 0.54857 0.55408 0.59609
 Zr91 Zr 0.49624 0.53901 0.56497
 O92 O 0.39829 0.54323 0.54260
 O93 O 0.48597 0.43841 0.61363
 O94 O 0.49270 0.52022 0.63143
 O95 O 0.50133 0.59949 0.56889
 O96 O 0.44463 0.56051 0.59200
 C97 C 0.40995 0.56044 0.57798
 O98 O 0.38195 0.48847 0.45663
 O99 O 0.50626 0.55611 0.38325
 O100 O 0.40373 0.55194 0.45756
 O101 O 0.45590 0.58281 0.42981
 O102 O 0.49901 0.47205 0.36492
 O103 O 0.43957 0.44785 0.39648
 C104 C 0.41971 0.57846 0.43460
 H105 H 0.54807 0.50183 0.41533
 H106 H 0.43429 0.43415 0.48051
 H107 H 0.45413 0.57786 0.51124
 H108 H 0.53979 0.48138 0.58359
 H109 H 0.48733 0.38714 0.40056
 H110 H 0.47172 0.37144 0.55417
 H111 H 0.48062 0.41122 0.62028
 H112 H 0.48819 0.54313 0.65051
 H113 H 0.50236 0.44803 0.34741
 H114 H 0.51153 0.58330 0.37651
 H115 H 0.51241 0.62488 0.44277
 H116 H 0.49494 0.60747 0.59970
 H117 H 0.44387 0.42843 0.37273
 H118 H 0.35815 0.50039 0.46848
 H119 H 0.62963 0.49311 0.52926
 H120 H 0.54314 0.56834 0.62402
 Zr121 Zr 0.56880 -0.00220 0.49648
 O122 O 0.61631 0.02577 0.46791
 O123 O 0.59547 -0.03792 0.54297
 O124 O 0.59669 0.03472 0.54215
 O125 O 0.55990 -0.07029 0.41260
 O126 O 0.54836 0.07105 0.57194
 O127 O 0.60323 -0.03978 0.45697
 O128 O 0.54535 -0.06785 0.57625
 O129 O 0.53117 0.00085 0.55079
 O130 O 0.53459 -0.05107 0.49262
 O131 O 0.53769 0.04921 0.48905
 O132 O 0.54232 -0.00043 0.43356
 Zr133 Zr 0.43594 0.00410 0.47730
 Zr134 Zr 0.49834 0.05052 0.54167
 Zr135 Zr 0.50628 -0.04828 0.43216
 Zr136 Zr 0.49591 -0.04705 0.54492
 O137 O 0.51201 -0.04460 0.36249
 O138 O 0.48949 -0.03553 0.61375
 O139 O 0.46638 -0.04781 0.48434
 O140 O 0.46258 0.00258 0.53971
 O141 O 0.46956 0.05347 0.48121
 O142 O 0.47381 0.00132 0.42353
 C143 C 0.58129 -0.06163 0.57086
 C144 C 0.59419 -0.06401 0.42599
 C145 C 0.58390 0.06204 0.56739
 O146 O 0.49052 0.04702 0.61106
 O147 O 0.44496 0.07525 0.55847
 O148 O 0.40259 0.04571 0.51199
 C149 C 0.41116 0.07041 0.54257
 O150 O 0.56234 0.06671 0.40380
 Zr151 Zr 0.50834 0.04933 0.42879
 O152 O 0.40868 0.03992 0.43228
 O153 O 0.50172 0.11070 0.53517
 O154 O 0.51266 0.10946 0.43842
 O155 O 0.50961 0.04091 0.35903
 O156 O 0.45786 0.07508 0.40450
 C157 C 0.42206 0.06739 0.40914
 O158 O 0.38886 -0.02243 0.50844
 O159 O 0.50520 -0.10862 0.43816
 O160 O 0.40756 -0.03395 0.43298
 O161 O 0.45612 -0.07082 0.40455
 O162 O 0.49628 -0.10757 0.53756
 O163 O 0.44221 -0.06997 0.56399
 C164 C 0.42066 -0.06154 0.40818
 H165 H 0.54938 -0.07525 0.49426
 H166 H 0.44347 0.00346 0.56400
 H167 H 0.46055 0.00085 0.39459
 H168 H 0.55484 0.07168 0.48979
 H169 H 0.49416 -0.05982 0.62952
 H170 H 0.49094 0.07365 0.62285
 H171 H 0.49843 0.12200 0.56527
 H172 H 0.50869 0.12159 0.40926
 H173 H 0.49926 -0.11859 0.56748
 H174 H 0.50873 -0.11961 0.40794
 H175 H 0.51119 -0.07118 0.35060
 H176 H 0.50468 0.06613 0.34543
 H177 H 0.44556 -0.08618 0.59040
 H178 H 0.36546 -0.01231 0.49419
 H179 H 0.63964 0.01547 0.48220
 H180 H 0.55865 0.08710 0.38167
 Zr181 Zr -0.06343 0.50442 -0.02967
 O182 O -0.11065 0.47764 0.00088
 O183 O -0.09041 0.54090 -0.07472
 O184 O -0.09684 0.54545 0.00594
 O185 O -0.04349 0.42838 -0.10062
 O186 O -0.05434 0.57475 0.05252
 O187 O -0.09181 0.46667 -0.07458
 O188 O -0.04139 0.57825 -0.09824
 O189 O -0.02979 0.55375 -0.02535
 O190 O -0.02562 0.50169 -0.08342
 O191 O -0.03649 0.50267 0.03272
 O192 O -0.03283 0.45257 -0.02223
 Zr193 Zr 0.06957 0.49865 -0.01071
 Zr194 Zr -0.00092 0.55076 0.03499
 Zr195 Zr 0.00686 0.45204 -0.07450
 Zr196 Zr 0.00886 0.54984 -0.07790
 O197 O 0.00626 0.39165 -0.06867
 O198 O 0.01595 0.60984 -0.06962
 O199 O 0.04276 0.50007 -0.07343
 O200 O 0.03830 0.54993 -0.01773
 O201 O 0.03220 0.50132 0.04384
 O202 O 0.03571 0.44949 -0.01432
 C203 C -0.07724 0.57022 -0.09503
 C204 C -0.07896 0.43810 -0.09816
 C205 C -0.08821 0.56973 0.03697
 O206 O 0.00186 0.61095 0.02820
 O207 O 0.04906 0.57146 0.06525
 O208 O 0.09741 0.53533 0.03524
 C209 C 0.08461 0.56247 0.06070
 O210 O -0.05603 0.42975 0.05794
 Zr211 Zr -0.00279 0.45326 0.03812
 O212 O 0.09687 0.46291 0.03525
 O213 O -0.00840 0.54725 0.10443
 O214 O -0.00936 0.46478 0.10693
 O215 O -0.00188 0.39278 0.03023
 O216 O 0.04713 0.43316 0.06951
 C217 C 0.08305 0.43955 0.06375
 O218 O 0.11696 0.52726 -0.03872
 O219 O 0.01213 0.45568 -0.14419
 O220 O 0.10397 0.46260 -0.05190
 O221 O 0.06047 0.42967 -0.09351
 O222 O 0.00718 0.54235 -0.14776
 O223 O 0.06313 0.56500 -0.10405
 C224 C 0.09497 0.43729 -0.08170
 H225 H -0.03909 0.50120 -0.11222
 H226 H 0.05540 0.57243 -0.01693
 H227 H 0.05075 0.42547 -0.01271
 H228 H -0.05553 0.50330 0.05708
 H229 H 0.01228 0.62168 -0.09900
 H230 H -0.00121 0.62226 0.05832
 H231 H -0.00802 0.57388 0.11625
 H232 H -0.00411 0.44063 0.12277
 H233 H 0.00251 0.56794 -0.16056
 H234 H 0.01125 0.42908 -0.15598
 H235 H 0.00959 0.38067 -0.09892
 H236 H 0.00202 0.38164 0.05994
 H237 H 0.05982 0.58430 -0.12751
 H238 H 0.14037 0.51687 -0.02468
 H239 H -0.13400 0.48788 -0.01338
 H240 H -0.05210 0.41294 0.08373
 Zr241 Zr 0.05628 0.51246 0.47926
 O242 O 0.10418 0.48415 0.50662
 O243 O 0.08218 0.55014 0.43511
 O244 O 0.08493 0.47830 0.43119
 O245 O 0.04730 0.57657 0.56721
 O246 O 0.03740 0.44209 0.40059
 O247 O 0.08979 0.55042 0.51757
 O248 O 0.03175 0.57760 0.39950
 O249 O 0.01888 0.50942 0.42529
 O250 O 0.02114 0.56089 0.48436
 O251 O 0.02699 0.46040 0.48610
 O252 O 0.03064 0.50984 0.54262
 Zr253 Zr -0.07535 0.50347 0.49979
 Zr254 Zr -0.01254 0.45912 0.43406
 Zr255 Zr -0.00662 0.55706 0.54533
 Zr256 Zr -0.01729 0.55670 0.43209
 O257 O -0.00367 0.55342 0.61521
 O258 O -0.02457 0.54569 0.36335
 O259 O -0.04625 0.55595 0.49313
 O260 O -0.04938 0.50637 0.43700
 O261 O -0.04060 0.45479 0.49510
 O262 O -0.03779 0.50689 0.55348
 C263 C 0.06770 0.57291 0.40650
 C264 C 0.08125 0.57198 0.55116
 C265 C 0.07246 0.45231 0.40420
 O266 O -0.02248 0.46270 0.36508
 O267 O -0.06513 0.43313 0.41849
 O268 O -0.10742 0.46068 0.46717
 C269 C -0.09857 0.43672 0.43600
 O270 O 0.05290 0.44163 0.56956
 Zr271 Zr -0.00176 0.45954 0.54706
 O272 O -0.10139 0.46858 0.54737
 O273 O -0.00583 0.39907 0.43929
 O274 O 0.00234 0.39941 0.53692
 O275 O 0.00148 0.46814 0.61668
 O276 O -0.05101 0.43457 0.57439
 C277 C -0.08696 0.44206 0.57142
 O278 O -0.12407 0.52662 0.46813
 O279 O -0.00649 0.61751 0.54046
 O280 O -0.10509 0.54393 0.53889
 O281 O -0.05809 0.58005 0.57079
 O282 O -0.01763 0.61721 0.43944
 O283 O -0.07178 0.57935 0.41539
 C284 C -0.09338 0.57181 0.56341
 H285 H 0.03541 0.58527 0.48307
 H286 H -0.06871 0.50530 0.41313
 H287 H -0.05120 0.50752 0.58245
 H288 H 0.04487 0.43836 0.48430
 H289 H -0.02065 0.57021 0.34781
 H290 H -0.02093 0.43623 0.35288
 H291 H -0.00937 0.38809 0.40913
 H292 H -0.00086 0.38719 0.56616
 H293 H -0.01527 0.62815 0.40941
 H294 H -0.00364 0.62789 0.57099
 H295 H -0.00453 0.58004 0.62699
 H296 H -0.00243 0.44292 0.63067
 H297 H -0.06936 0.59543 0.38874
 H298 H -0.14700 0.51631 0.48325
 H299 H 0.12733 0.49497 0.49249
 H300 H 0.04982 0.42110 0.59163
 Zr301 Zr 0.42591 0.00367 -0.00318
 O302 O 0.37810 0.03032 -0.03302
 O303 O 0.39797 -0.03385 0.04054
 O304 O 0.39342 -0.03470 -0.04254
 O305 O 0.44373 0.07573 0.07446
 O306 O 0.43634 -0.05957 -0.09238
 O307 O 0.39661 0.04268 0.03852
 O308 O 0.44700 -0.07018 0.06678
 O309 O 0.45940 -0.04563 -0.01135
 O310 O 0.46235 0.00261 0.05165
 O311 O 0.45379 0.01028 -0.06450
 O312 O 0.45678 0.05561 -0.00421
 Zr313 Zr 0.55845 0.01041 -0.01893
 Zr314 Zr 0.48931 -0.03782 -0.07084
 Zr315 Zr 0.49518 0.05230 0.04909
 Zr316 Zr 0.49721 -0.04527 0.04203
 O317 O 0.49760 0.11289 0.04954
 O318 O 0.49932 -0.10468 0.02642
 O319 O 0.53112 0.00424 0.04311
 O320 O 0.52750 -0.04110 -0.01763
 O321 O 0.52230 0.01201 -0.07404
 O322 O 0.52466 0.05947 -0.01045
 C323 C 0.41130 -0.06169 0.06355
 C324 C 0.40840 0.06900 0.06531
 C325 C 0.40232 -0.05572 -0.07650
 O326 O 0.49266 -0.09835 -0.07053
 O327 O 0.53993 -0.05528 -0.10295
 O328 O 0.58740 -0.02169 -0.06845
 C329 C 0.57515 -0.04622 -0.09729
 O330 O 0.43396 0.08563 -0.07937
 Zr331 Zr 0.48733 0.05982 -0.06394
 O332 O 0.58657 0.04980 -0.05952
 O333 O 0.48291 -0.02904 -0.13970
 O334 O 0.48032 0.05412 -0.13351
 O335 O 0.48939 0.11964 -0.05095
 O336 O 0.53758 0.08040 -0.09431
 C337 C 0.57330 0.07412 -0.08726
 O338 O 0.60488 -0.02093 0.00746
 O339 O 0.49577 0.04407 0.11847
 O340 O 0.59201 0.04456 0.02372
 O341 O 0.54926 0.06813 0.07473
 O342 O 0.49981 -0.04112 0.11217
 O343 O 0.55076 -0.06669 0.06405
 C344 C 0.58341 0.06374 0.05911
 H345 H 0.44830 0.00179 0.08017
 H346 H 0.54472 -0.06357 -0.02069
 H347 H 0.53981 0.08334 -0.00931
 H348 H 0.43513 0.01170 -0.08903
 H349 H 0.49521 -0.11878 0.05433
 H350 H 0.49007 -0.10716 -0.10174
 H351 H 0.48391 -0.05464 -0.15427
 H352 H 0.48526 0.07953 -0.14658
 H353 H 0.49505 -0.06703 0.12400
 H354 H 0.49555 0.06991 0.13248
 H355 H 0.50012 0.12116 0.08094
 H356 H 0.49299 0.13249 -0.07977
 H357 H 0.54654 -0.08868 0.08386
 H358 H 0.62868 -0.00997 -0.00497
 H359 H 0.35473 0.01949 -0.01935
 H360 H 0.43749 0.10402 -0.10374
 Zr361 Zr 0.44111 0.49460 -0.00359
 O362 O 0.39242 0.52158 0.02500
 O363 O 0.41719 0.45917 -0.05232
 O364 O 0.41294 0.52898 -0.05021
 O365 O 0.44725 0.42845 0.07992
 O366 O 0.46071 0.56562 -0.07861
 O367 O 0.40678 0.45473 0.02925
 O368 O 0.46875 0.42900 -0.08373
 O369 O 0.48014 0.49766 -0.05608
 O370 O 0.47639 0.44637 0.00135
 O371 O 0.46937 0.54699 0.00600
 O372 O 0.46437 0.49741 0.06089
 Zr373 Zr 0.57140 0.50387 0.02217
 Zr374 Zr 0.51034 0.54833 -0.04468
 Zr375 Zr 0.50174 0.45028 0.06364
 Zr376 Zr 0.51653 0.45057 -0.04911
 O377 O 0.49355 0.45439 0.13307
 O378 O 0.52592 0.46132 -0.11730
 O379 O 0.54339 0.45103 0.01320
 O380 O 0.54760 0.50127 -0.04166
 O381 O 0.53657 0.55248 0.01734
 O382 O 0.53198 0.50091 0.07422
 C383 C 0.43266 0.43559 -0.08016
 C384 C 0.41427 0.43229 0.06150
 C385 C 0.42545 0.55535 -0.07580
 O386 O 0.52233 0.54471 -0.11339
 O387 O 0.56325 0.57465 -0.05652
 O388 O 0.60482 0.54598 -0.00894
 C389 C 0.59645 0.57054 -0.03890
 O390 O 0.44073 0.56444 0.09011
 Zr391 Zr 0.49626 0.54817 0.06789
 O392 O 0.59594 0.54043 0.06905
 O393 O 0.50341 0.60842 -0.03831
 O394 O 0.49063 0.60809 0.05893
 O395 O 0.49252 0.54081 0.13744
 O396 O 0.54502 0.57504 0.09529
 C397 C 0.58110 0.56775 0.09220
 O398 O 0.62025 0.47816 -0.00752
 O399 O 0.50452 0.38989 0.05720
 O400 O 0.59958 0.46748 0.06693
 O401 O 0.55199 0.42963 0.09381
 O402 O 0.51718 0.39005 -0.04369
 O403 O 0.57183 0.42864 -0.06453
 C404 C 0.58722 0.44011 0.09131
 H405 H 0.46260 0.42181 -0.00187
 H406 H 0.56771 0.50245 -0.06478
 H407 H 0.54422 0.50115 0.10376
 H408 H 0.45132 0.56884 0.00437
 H409 H 0.52263 0.43671 -0.13356
 H410 H 0.52112 0.57120 -0.12473
 H411 H 0.50769 0.61923 -0.06813
 H412 H 0.49308 0.62057 0.08848
 H413 H 0.51617 0.37911 -0.07415
 H414 H 0.50008 0.37944 0.08715
 H415 H 0.49410 0.42786 0.14436
 H416 H 0.49586 0.56639 0.15149
 H417 H 0.57049 0.41235 -0.09160
 H418 H 0.64291 0.48879 0.00792
 H419 H 0.36963 0.51125 0.00953
 H420 H 0.44280 0.58543 0.11237
 Zr421 Zr 0.07325 0.00755 0.51706
 O422 O 0.12146 -0.01382 0.48189
 O423 O 0.09802 0.04691 0.56077
 O424 O 0.09917 0.05209 0.48168
 O425 O 0.06728 -0.06546 0.59257
 O426 O 0.05150 0.07530 0.43776
 O427 O 0.10898 -0.02501 0.55890
 O428 O 0.04642 0.07577 0.59377
 O429 O 0.03353 0.05257 0.51526
 O430 O 0.03882 0.00214 0.57331
 O431 O 0.04417 0.00110 0.45651
 O432 O 0.04999 -0.04792 0.51226
 Zr433 Zr -0.05753 -0.01462 0.50777
 Zr434 Zr 0.00245 0.04440 0.45673
 Zr435 Zr 0.01330 -0.05135 0.56720
 Zr436 Zr -0.00174 0.04564 0.57027
 O437 O 0.02308 -0.11106 0.56083
 O438 O -0.01200 0.10477 0.55992
 O439 O -0.02864 -0.00812 0.56859
 O440 O -0.03373 0.04048 0.51204
 O441 O -0.02363 -0.00917 0.45081
 O442 O -0.01748 -0.05922 0.50890
 C443 C 0.08260 0.07185 0.58687
 C444 C 0.10107 -0.05222 0.58590
 C445 C 0.08616 0.07486 0.45209
 O446 O -0.01032 0.10356 0.46253
 O447 O -0.05136 0.05474 0.42733
 O448 O -0.09253 0.01457 0.46246
 C449 C -0.08490 0.04055 0.43391
 O450 O 0.07280 -0.06980 0.43191
 Zr451 Zr 0.01751 -0.05242 0.45386
 O452 O -0.08198 -0.05405 0.46390
 O453 O 0.00910 0.04029 0.38709
 O454 O 0.01988 -0.04240 0.38473
 O455 O 0.02407 -0.11249 0.46071
 O456 O -0.03098 -0.07851 0.42533
 C457 C -0.06697 -0.07562 0.43367
 O458 O -0.10620 0.00942 0.53970
 O459 O 0.00970 -0.04682 0.63712
 O460 O -0.08475 -0.05461 0.54936
 O461 O -0.03563 -0.07983 0.58940
 O462 O -0.00054 0.03964 0.64013
 O463 O -0.05656 0.05807 0.59758
 C464 C -0.07102 -0.07747 0.57861
 H465 H 0.05319 0.00404 0.60145
 H466 H -0.05389 0.06047 0.51180
 H467 H -0.02921 -0.08496 0.50804
 H468 H 0.06194 0.00355 0.43110
 H469 H -0.00830 0.11821 0.58872
 H470 H -0.00983 0.11388 0.43210
 H471 H 0.00410 0.06620 0.37531
 H472 H 0.01742 -0.06755 0.36939
 H473 H 0.00101 0.06574 0.65334
 H474 H 0.01482 -0.07274 0.64882
 H475 H 0.02271 -0.12158 0.59119
 H476 H 0.02091 -0.12431 0.43090
 H477 H -0.05486 0.08077 0.61750
 H478 H -0.12895 -0.00403 0.52776
 H479 H 0.14422 -0.00079 0.49438
 H480 H 0.07037 -0.08731 0.40598
 Zr481 Zr 0.75253 0.16907 0.26512
 O482 O 0.73337 0.12495 0.30711
 O483 O 0.78602 0.13811 0.21937
 O484 O 0.71481 0.13110 0.23108
 O485 O 0.82959 0.19853 0.32892
 O486 O 0.67247 0.17121 0.19743
 O487 O 0.79806 0.14563 0.30298
 O488 O 0.80243 0.18317 0.16857
 O489 O 0.73841 0.19679 0.20607
 O490 O 0.79679 0.20752 0.25190
 O491 O 0.69947 0.19609 0.27695
 O492 O 0.75600 0.20557 0.32144
 Zr493 Zr 0.73322 0.30216 0.25985
 Zr494 Zr 0.68725 0.22632 0.21910
 Zr495 Zr 0.79850 0.24554 0.30569
 Zr496 Zr 0.78184 0.23599 0.19451
 O497 O 0.80480 0.25016 0.37530
 O498 O 0.76064 0.23032 0.12900
 O499 O 0.78663 0.27555 0.24748
 O500 O 0.73020 0.26554 0.20398
 O501 O 0.68834 0.26443 0.27314
 O502 O 0.74724 0.27410 0.31849
 C503 C 0.80226 0.14865 0.18331
 C504 C 0.82538 0.16214 0.32470
 C505 C 0.68592 0.13775 0.20563
 O506 O 0.67959 0.22646 0.14951
 O507 O 0.65315 0.27338 0.20123
 O508 O 0.68622 0.32574 0.22551
 C509 C 0.65796 0.30974 0.20525
 O510 O 0.69527 0.18419 0.36698
 Zr511 Zr 0.70387 0.23492 0.33008
 O512 O 0.70151 0.33307 0.30796
 O513 O 0.63034 0.21513 0.23890
 O514 O 0.64406 0.22572 0.33330
 O515 O 0.72161 0.24385 0.39657
 O516 O 0.67820 0.28624 0.35266
 C517 C 0.68125 0.32133 0.34081
 O518 O 0.74884 0.34650 0.21612
 O519 O 0.85618 0.25218 0.28599
 O520 O 0.77391 0.34040 0.28668
 O521 O 0.81719 0.30143 0.32044
 O522 O 0.84203 0.24087 0.18846
 O523 O 0.79625 0.28720 0.16109
 C524 C 0.80431 0.33457 0.30957
 H525 H 0.82196 0.19488 0.24787
 H526 H 0.72407 0.28007 0.17694
 H527 H 0.75011 0.29179 0.34418
 H528 H 0.67945 0.17697 0.28337
 H529 H 0.78274 0.22472 0.10927
 H530 H 0.65224 0.22104 0.14388
 H531 H 0.61495 0.21320 0.21145
 H532 H 0.63542 0.23303 0.36359
 H533 H 0.84901 0.23322 0.15771
 H534 H 0.87146 0.25454 0.31349
 H535 H 0.83215 0.25550 0.38103
 H536 H 0.69831 0.24806 0.41481
 H537 H 0.80910 0.28067 0.13267
 H538 H 0.73821 0.37087 0.22835
 H539 H 0.74456 0.10064 0.29550
 H540 H 0.67672 0.18939 0.39121
 Zr541 Zr 0.74059 0.82477 0.75574
 O542 O 0.76996 0.87108 0.78606
 O543 O 0.70137 0.85329 0.71499
 O544 O 0.77090 0.85690 0.70859
 O545 O 0.67903 0.80944 0.84365
 O546 O 0.80607 0.81177 0.67106
 O547 O 0.70545 0.85568 0.80043
 O548 O 0.67165 0.80427 0.67838
 O549 O 0.74129 0.79052 0.69828
 O550 O 0.69309 0.78888 0.76015
 O551 O 0.79340 0.79576 0.75672
 O552 O 0.74689 0.79509 0.81599
 Zr553 Zr 0.75220 0.69228 0.76267
 Zr554 Zr 0.79248 0.75946 0.70089
 Zr555 Zr 0.70042 0.75729 0.81779
 Zr556 Zr 0.69508 0.75351 0.70421
 O557 O 0.70816 0.75859 0.88732
 O558 O 0.70238 0.75068 0.63443
 O559 O 0.69906 0.72082 0.76194
 O560 O 0.74611 0.72184 0.70284
 O561 O 0.79994 0.72775 0.75842
 O562 O 0.75145 0.72639 0.82008
 C563 C 0.67720 0.84011 0.68671
 C564 C 0.68391 0.84452 0.83241
 C565 C 0.79527 0.84658 0.67865
 O566 O 0.78581 0.75216 0.63162
 O567 O 0.81985 0.70806 0.68120
 O568 O 0.79473 0.66275 0.72662
 C569 C 0.81787 0.67377 0.69630
 O570 O 0.81365 0.81626 0.84378
 Zr571 Zr 0.79795 0.76300 0.81432
 O572 O 0.78875 0.66364 0.80602
 O573 O 0.85232 0.76779 0.70282
 O574 O 0.85697 0.77176 0.80208
 O575 O 0.79468 0.75809 0.88422
 O576 O 0.82781 0.71183 0.82927
 C577 C 0.81901 0.67606 0.82528
 O578 O 0.72881 0.64555 0.72657
 O579 O 0.63999 0.75511 0.81629
 O580 O 0.71454 0.65961 0.80088
 O581 O 0.68107 0.70411 0.84159
 O582 O 0.63516 0.75210 0.71487
 O583 O 0.67277 0.69974 0.68322
 C584 C 0.68905 0.66938 0.82967
 H585 H 0.66856 0.80309 0.76141
 H586 H 0.74648 0.70386 0.67717
 H587 H 0.75275 0.71120 0.84753
 H588 H 0.81485 0.81411 0.75538
 H589 H 0.67704 0.75536 0.62092
 H590 H 0.81155 0.75490 0.61826
 H591 H 0.86168 0.76585 0.67182
 H592 H 0.87077 0.76614 0.82990
 H593 H 0.62269 0.75599 0.68581
 H594 H 0.63107 0.75627 0.84750
 H595 H 0.68243 0.75616 0.90079
 H596 H 0.82099 0.75324 0.89488
 H597 H 0.65518 0.70360 0.65802
 H598 H 0.73982 0.62173 0.73894
 H599 H 0.75821 0.89510 0.77518
 H600 H 0.83498 0.81223 0.86471
 Zr601 Zr 0.25981 0.31570 0.77372
 O602 O 0.22898 0.36284 0.74826
 O603 O 0.29905 0.34275 0.81577
 O604 O 0.22807 0.34468 0.82421
 O605 O 0.31742 0.30718 0.68014
 O606 O 0.19373 0.29684 0.85608
 O607 O 0.29455 0.34945 0.73254
 O608 O 0.33271 0.29311 0.84515
 O609 O 0.26229 0.27871 0.82772
 O610 O 0.30831 0.28136 0.76335
 O611 O 0.20828 0.28507 0.77191
 O612 O 0.25275 0.28913 0.71082
 Zr613 Zr 0.25264 0.18312 0.75438
 Zr614 Zr 0.21222 0.24618 0.82405
 Zr615 Zr 0.30027 0.25264 0.70292
 Zr616 Zr 0.30963 0.24334 0.81572
 O617 O 0.28997 0.25588 0.63400
 O618 O 0.30512 0.23699 0.88535
 O619 O 0.30465 0.21350 0.75515
 O620 O 0.25996 0.21026 0.81636
 O621 O 0.20383 0.21703 0.76393
 O622 O 0.25040 0.22013 0.70038
 C623 C 0.32520 0.32894 0.84083
 C624 C 0.31383 0.34114 0.69720
 C625 C 0.20275 0.33229 0.85177
 O626 O 0.22218 0.23985 0.89268
 O627 O 0.19034 0.19285 0.84391
 O628 O 0.21485 0.15017 0.79322
 C629 C 0.19386 0.15889 0.82713
 O630 O 0.18365 0.30973 0.68958
 Zr631 Zr 0.20318 0.25547 0.71158
 O632 O 0.21347 0.15595 0.71215
 O633 O 0.15178 0.24878 0.82427
 O634 O 0.14416 0.26023 0.72715
 O635 O 0.20543 0.25617 0.64132
 O636 O 0.17568 0.20539 0.68971
 C637 C 0.18406 0.16960 0.69234
 O638 O 0.28007 0.13504 0.78256
 O639 O 0.36074 0.25330 0.70161
 O640 O 0.28997 0.15393 0.71021
 O641 O 0.32160 0.20121 0.67359
 O642 O 0.36912 0.24385 0.80200
 O643 O 0.33444 0.18924 0.83017
 C644 C 0.31494 0.16568 0.68204
 H645 H 0.33236 0.29615 0.76244
 H646 H 0.26161 0.19133 0.84043
 H647 H 0.24857 0.20617 0.67168
 H648 H 0.18600 0.30245 0.77530
 H649 H 0.33083 0.24149 0.89802
 H650 H 0.19681 0.24030 0.90739
 H651 H 0.14340 0.24620 0.85551
 H652 H 0.12972 0.25664 0.69920
 H653 H 0.38261 0.24637 0.83073
 H654 H 0.36842 0.25646 0.67023
 H655 H 0.31533 0.25573 0.61927
 H656 H 0.17913 0.25165 0.63041
 H657 H 0.35264 0.19219 0.85502
 H658 H 0.26893 0.11173 0.76862
 H659 H 0.24021 0.38642 0.76142
 H660 H 0.16184 0.30616 0.66915
 Zr661 Zr 0.24264 0.68381 0.24302
 O662 O 0.27245 0.63942 0.20885
 O663 O 0.20346 0.65323 0.28123
 O664 O 0.27325 0.64938 0.28768
 O665 O 0.17845 0.70341 0.15957
 O666 O 0.30915 0.69245 0.32667
 O667 O 0.20704 0.65499 0.19748
 O668 O 0.17694 0.69973 0.32568
 O669 O 0.24420 0.71508 0.30267
 O670 O 0.19468 0.71974 0.24317
 O671 O 0.29512 0.71289 0.24255
 O672 O 0.24744 0.71656 0.18495
 Zr673 Zr 0.25310 0.81728 0.24567
 Zr674 Zr 0.29498 0.74635 0.30063
 Zr675 Zr 0.20062 0.75428 0.18786
 Zr676 Zr 0.19751 0.75218 0.30128
 O677 O 0.20677 0.75610 0.11811
 O678 O 0.20596 0.75251 0.37086
 O679 O 0.20026 0.78812 0.24604
 O680 O 0.24811 0.78384 0.30294
 O681 O 0.30147 0.78169 0.24550
 O682 O 0.25127 0.78550 0.18636
 C683 C 0.18156 0.66460 0.31304
 C684 C 0.18397 0.66765 0.16791
 C685 C 0.29779 0.65813 0.31779
 O686 O 0.28972 0.74921 0.37052
 O687 O 0.32122 0.79637 0.32500
 O688 O 0.29175 0.84537 0.28900
 C689 C 0.31581 0.83213 0.31732
 O690 O 0.31695 0.69684 0.15654
 Zr691 Zr 0.29813 0.74869 0.18747
 O692 O 0.29052 0.84790 0.20436
 O693 O 0.35484 0.73855 0.29561
 O694 O 0.35765 0.74400 0.19934
 O695 O 0.29212 0.75227 0.11770
 O696 O 0.32324 0.80048 0.16767
 C697 C 0.31633 0.83598 0.17688
 O698 O 0.22781 0.86278 0.28278
 O699 O 0.14028 0.75708 0.19227
 O700 O 0.21512 0.85131 0.20866
 O701 O 0.18076 0.80821 0.16763
 O702 O 0.13738 0.75279 0.29275
 O703 O 0.17432 0.80459 0.32626
 C704 C 0.18918 0.84253 0.18017
 H705 H 0.17023 0.70564 0.24181
 H706 H 0.24833 0.80009 0.33008
 H707 H 0.25183 0.80174 0.15971
 H708 H 0.31682 0.69458 0.24201
 H709 H 0.18099 0.74694 0.38493
 H710 H 0.31569 0.74546 0.38278
 H711 H 0.36482 0.73834 0.32631
 H712 H 0.37107 0.75052 0.17147
 H713 H 0.12569 0.74664 0.32176
 H714 H 0.13049 0.75691 0.16148
 H715 H 0.18069 0.75878 0.10579
 H716 H 0.31782 0.75709 0.10505
 H717 H 0.15656 0.79924 0.35103
 H718 H 0.23879 0.88709 0.27185
 H719 H 0.26122 0.61478 0.21833
 H720 H 0.33928 0.70207 0.13733
 Zr721 Zr 0.24340 0.80646 0.76563
 O722 O 0.26777 0.85087 0.72779
 O723 O 0.20997 0.83767 0.81154
 O724 O 0.20160 0.83686 0.72936
 O725 O 0.32164 0.79296 0.83427
 O726 O 0.16444 0.78936 0.69982
 O727 O 0.28439 0.83862 0.80201
 O728 O 0.17978 0.79105 0.85067
 O729 O 0.19433 0.77258 0.77160
 O730 O 0.25029 0.77357 0.82256
 O731 O 0.24020 0.77376 0.70653
 O732 O 0.29464 0.77529 0.75550
 Zr733 Zr 0.24893 0.67232 0.76053
 Zr734 Zr 0.19282 0.73799 0.71448
 Zr735 Zr 0.29929 0.74055 0.81158
 Zr736 Zr 0.20263 0.73863 0.82706
 O737 O 0.35848 0.74291 0.79728
 O738 O 0.14220 0.73478 0.82458
 O739 O 0.25207 0.70451 0.82017
 O740 O 0.19808 0.70366 0.77053
 O741 O 0.24165 0.70454 0.70301
 O742 O 0.29754 0.70655 0.75430
 C743 C 0.18608 0.82626 0.84105
 C744 C 0.31231 0.82795 0.82700
 C745 C 0.17255 0.82475 0.70708
 O746 O 0.13382 0.73138 0.72795
 O747 O 0.17387 0.68554 0.68746
 O748 O 0.20934 0.64012 0.72261
 C749 C 0.18283 0.65053 0.69566
 O750 O 0.31129 0.79164 0.67254
 Zr751 Zr 0.28929 0.73994 0.69871
 O752 O 0.28097 0.64092 0.71372
 O753 O 0.19014 0.74331 0.64476
 O754 O 0.27259 0.74182 0.63126
 O755 O 0.34987 0.73776 0.69752
 O756 O 0.30501 0.68714 0.66872
 C757 C 0.29998 0.65196 0.67974
 O758 O 0.22375 0.62811 0.79796
 O759 O 0.30126 0.73944 0.88167
 O760 O 0.28975 0.64179 0.79794
 O761 O 0.32400 0.68892 0.83247
 O762 O 0.21623 0.74263 0.89543
 O763 O 0.18724 0.68704 0.85910
 C764 C 0.31690 0.65352 0.82342
 H765 H 0.25262 0.78930 0.84995
 H766 H 0.17594 0.68637 0.77384
 H767 H 0.32145 0.69155 0.75081
 H768 H 0.23730 0.79047 0.68048
 H769 H 0.13223 0.74118 0.85458
 H770 H 0.12038 0.73282 0.69915
 H771 H 0.16284 0.74119 0.63651
 H772 H 0.29538 0.73538 0.61299
 H773 H 0.19215 0.74826 0.91171
 H774 H 0.32855 0.74111 0.89012
 H775 H 0.37201 0.74152 0.82602
 H776 H 0.35781 0.73175 0.66662
 H777 H 0.16766 0.69264 0.88211
 H778 H 0.23278 0.60336 0.78507
 H779 H 0.25862 0.87553 0.74080
 H780 H 0.32573 0.78590 0.64494
 Zr781 Zr 0.25022 0.19210 0.25750
 O782 O 0.22821 0.14678 0.21796
 O783 O 0.28527 0.16214 0.30143
 O784 O 0.29460 0.16322 0.22369
 O785 O 0.17324 0.20252 0.32911
 O786 O 0.32342 0.20979 0.18308
 O787 O 0.21053 0.15854 0.29236
 O788 O 0.31989 0.21004 0.33380
 O789 O 0.29810 0.22762 0.25964
 O790 O 0.24516 0.22461 0.31587
 O791 O 0.24888 0.22357 0.19854
 O792 O 0.19751 0.22109 0.25238
 Zr793 Zr 0.23973 0.32516 0.25474
 Zr794 Zr 0.29534 0.26098 0.20278
 Zr795 Zr 0.19468 0.25600 0.30949
 Zr796 Zr 0.29183 0.26131 0.31655
 O797 O 0.13466 0.25456 0.30132
 O798 O 0.35170 0.26940 0.31103
 O799 O 0.24114 0.29365 0.31411
 O800 O 0.29195 0.29547 0.26010
 O801 O 0.24477 0.29275 0.19602
 O802 O 0.19198 0.28940 0.25274
 C803 C 0.31297 0.17445 0.32546
 C804 C 0.18263 0.16790 0.31830
 C805 C 0.31996 0.17498 0.19620
 O806 O 0.35497 0.26768 0.21125
 O807 O 0.31280 0.31420 0.17791
 O808 O 0.27665 0.35838 0.21579
 C809 C 0.30324 0.34887 0.18822
 O810 O 0.17774 0.20270 0.16974
 Zr811 Zr 0.19818 0.25560 0.19586
 O812 O 0.20395 0.35489 0.21058
 O813 O 0.29349 0.25681 0.13281
 O814 O 0.21088 0.25553 0.12707
 O815 O 0.13773 0.25337 0.20061
 O816 O 0.17594 0.30693 0.17041
 C817 C 0.18101 0.34251 0.18038
 O818 O 0.26531 0.37126 0.28998
 O819 O 0.19683 0.25480 0.37956
 O820 O 0.20178 0.35478 0.29742
 O821 O 0.17210 0.30742 0.33589
 O822 O 0.28243 0.25522 0.38559
 O823 O 0.30570 0.31391 0.34880
 C824 C 0.17827 0.34282 0.32703
 H825 H 0.24450 0.20854 0.34266
 H826 H 0.31371 0.31340 0.26223
 H827 H 0.16752 0.30375 0.25223
 H828 H 0.25105 0.20641 0.17224
 H829 H 0.36306 0.26374 0.34029
 H830 H 0.36664 0.26677 0.18126
 H831 H 0.32016 0.25948 0.12216
 H832 H 0.18671 0.26068 0.11118
 H833 H 0.30765 0.25019 0.39924
 H834 H 0.17011 0.25239 0.39014
 H835 H 0.12326 0.25495 0.33145
 H836 H 0.12728 0.25809 0.17066
 H837 H 0.32493 0.30921 0.37213
 H838 H 0.25438 0.39549 0.27852
 H839 H 0.23840 0.12250 0.23006
 H840 H 0.16226 0.20754 0.14296
 Zr841 Zr 0.75500 0.67827 0.25282
 O842 O 0.77963 0.62872 0.28100
 O843 O 0.71674 0.65362 0.20776
 O844 O 0.71384 0.64577 0.28693
 O845 O 0.82695 0.69618 0.17594
 O846 O 0.68816 0.68775 0.33768
 O847 O 0.79253 0.64891 0.20904
 O848 O 0.68074 0.70467 0.18617
 O849 O 0.70709 0.71370 0.26095
 O850 O 0.75639 0.71681 0.20034
 O851 O 0.76014 0.70309 0.31636
 O852 O 0.80798 0.70641 0.25802
 Zr853 Zr 0.76587 0.80972 0.27787
 Zr854 Zr 0.71357 0.74072 0.32266
 Zr855 Zr 0.80727 0.74725 0.20736
 Zr856 Zr 0.70993 0.75339 0.21010
 O857 O 0.86765 0.74426 0.20961
 O858 O 0.65057 0.76085 0.22211
 O859 O 0.76075 0.78525 0.21361
 O860 O 0.71337 0.78111 0.27186
 O861 O 0.76453 0.77113 0.33045
 O862 O 0.81345 0.77374 0.26941
 C863 C 0.68795 0.66852 0.18801
 C864 C 0.81856 0.66070 0.18220
 C865 C 0.69107 0.65437 0.31921
 O866 O 0.65345 0.74684 0.31974
 O867 O 0.69683 0.79097 0.35706
 O868 O 0.73194 0.83885 0.32631
 C869 C 0.70632 0.82638 0.35344
 O870 O 0.83321 0.67873 0.33324
 Zr871 Zr 0.81095 0.73418 0.32011
 O872 O 0.80303 0.83369 0.32456
 O873 O 0.72000 0.73073 0.39124
 O874 O 0.80287 0.72545 0.38894
 O875 O 0.87104 0.73332 0.31059
 O876 O 0.83390 0.78207 0.35351
 C877 C 0.82733 0.81819 0.35073
 O878 O 0.73883 0.85876 0.25152
 O879 O 0.80007 0.75443 0.13837
 O880 O 0.80482 0.84312 0.24136
 O881 O 0.82913 0.80134 0.18936
 O882 O 0.71492 0.75490 0.14005
 O883 O 0.69404 0.80899 0.18870
 C884 C 0.82622 0.83488 0.20764
 H885 H 0.75520 0.70374 0.17104
 H886 H 0.69162 0.79922 0.27475
 H887 H 0.83810 0.78747 0.27096
 H888 H 0.75984 0.68331 0.33958
 H889 H 0.63734 0.75848 0.19321
 H890 H 0.64361 0.74331 0.35026
 H891 H 0.69403 0.73182 0.40443
 H892 H 0.82807 0.72853 0.40340
 H893 H 0.68889 0.75158 0.12781
 H894 H 0.82596 0.75339 0.12499
 H895 H 0.87697 0.74807 0.17893
 H896 H 0.88304 0.73422 0.34030
 H897 H 0.67338 0.80689 0.16647
 H898 H 0.75015 0.88151 0.26643
 H899 H 0.76838 0.60613 0.26566
 H900 H 0.85023 0.68009 0.35936
 Zr901 Zr 0.75387 0.31853 0.74781
 O902 O 0.72632 0.36231 0.78541
 O903 O 0.79115 0.35018 0.70774
 O904 O 0.79227 0.34718 0.79121
 O905 O 0.68013 0.30879 0.67231
 O906 O 0.82607 0.29827 0.82205
 O907 O 0.71746 0.35261 0.70834
 O908 O 0.82289 0.30379 0.66814
 O909 O 0.80286 0.28380 0.74454
 O910 O 0.75062 0.28719 0.68826
 O911 O 0.75196 0.28422 0.80472
 O912 O 0.70164 0.28836 0.75052
 Zr913 Zr 0.74604 0.18481 0.74318
 Zr914 Zr 0.79945 0.24772 0.79926
 Zr915 Zr 0.70055 0.25508 0.69192
 Zr916 Zr 0.79807 0.25145 0.68617
 O917 O 0.64050 0.25762 0.70010
 O918 O 0.85804 0.24619 0.69432
 O919 O 0.74792 0.21840 0.68562
 O920 O 0.79782 0.21514 0.74052
 O921 O 0.74952 0.21511 0.80349
 O922 O 0.69749 0.21973 0.74684
 C923 C 0.81662 0.33894 0.67954
 C924 C 0.69055 0.34335 0.68114
 C925 C 0.81876 0.33412 0.81674
 O926 O 0.85929 0.24157 0.79137
 O927 O 0.81683 0.19361 0.82219
 O928 O 0.78249 0.15048 0.78117
 C929 C 0.80799 0.15925 0.81003
 O930 O 0.67889 0.30304 0.83259
 Zr931 Zr 0.70207 0.25149 0.80525
 O932 O 0.71005 0.15293 0.78447
 O933 O 0.79662 0.24935 0.86932
 O934 O 0.71345 0.25109 0.87426
 O935 O 0.64165 0.25106 0.79992
 O936 O 0.68329 0.19846 0.83003
 C937 C 0.68859 0.16350 0.81713
 O938 O 0.77341 0.14106 0.70521
 O939 O 0.70356 0.25703 0.62191
 O940 O 0.70856 0.15597 0.69981
 O941 O 0.67766 0.20427 0.66425
 O942 O 0.78974 0.25741 0.61698
 O943 O 0.81538 0.20030 0.65257
 C944 C 0.68407 0.16852 0.67177
 H945 H 0.75059 0.30358 0.66174
 H946 H 0.82000 0.19754 0.73796
 H947 H 0.67331 0.20512 0.74671
 H948 H 0.75291 0.30007 0.83215
 H949 H 0.87024 0.25318 0.66587
 H950 H 0.87040 0.24138 0.82155
 H951 H 0.82316 0.24630 0.88013
 H952 H 0.68922 0.24494 0.88966
 H953 H 0.81501 0.26276 0.60352
 H954 H 0.67696 0.25953 0.61110
 H955 H 0.62932 0.25761 0.66995
 H956 H 0.63120 0.24441 0.82940
 H957 H 0.83658 0.20602 0.63189
 H958 H 0.76326 0.11608 0.71519
 H959 H 0.73680 0.38713 0.77542
 H960 H 0.66221 0.29697 0.85812
 C961 C 0.12238 0.41616 0.89833
 C962 C 0.16185 0.42289 0.90126
 C963 C 0.18872 0.39752 0.88200
 C964 C 0.18144 0.35822 0.87760
 H965 H 0.17181 0.45012 0.91431
 H966 H 0.21668 0.40833 0.87323
 H967 H 0.11300 0.39300 0.87667
 H968 H 0.15723 0.34664 0.89547
 C969 C 0.39608 0.60766 0.41327
 C970 C 0.36141 0.60131 0.39651
 C971 C 0.34228 0.63261 0.37281
 C972 C 0.31413 0.62647 0.34376
 H973 H 0.34851 0.57319 0.39817
 H974 H 0.35317 0.66141 0.37764
 H975 H 0.40934 0.63533 0.40830
 H976 H 0.30389 0.59760 0.33781
 C977 C 0.90379 0.89506 0.60028
 C978 C 0.86631 0.90010 0.60627
 C979 C 0.84489 0.86991 0.62891
 C980 C 0.81285 0.87689 0.65189
 H981 H 0.85224 0.92632 0.59632
 H982 H 0.85753 0.84147 0.62936
 H983 H 0.91737 0.86964 0.61346
 H984 H 0.80114 0.90568 0.65364
 C985 C 0.61473 0.08453 0.08100
 C986 C 0.62185 0.08296 0.12452
 C987 C 0.64914 0.11022 0.14456
 C988 C 0.66573 0.10535 0.18418
 H989 H 0.60620 0.06339 0.14539
 H990 H 0.65447 0.13647 0.12672
 H991 H 0.63238 0.10240 0.06019
 H992 H 0.66301 0.07848 0.20143
 C993 C 0.88265 0.05521 0.40757
 C994 C 0.88599 0.08587 0.38174
 C995 C 0.85296 0.10337 0.35898
 C996 C 0.85607 0.13938 0.34503
 H997 H 0.91345 0.10000 0.37930
 H998 H 0.82623 0.08805 0.35579
 H999 H 0.85500 0.04174 0.41129
 H1000 H 0.88261 0.15447 0.35125
 C1001 C 0.36370 0.42216 0.57688
 C1002 C 0.36703 0.40515 0.61629
 C1003 C 0.33845 0.37815 0.63369
 C1004 C 0.33587 0.37247 0.67738
 H1005 H 0.39254 0.41001 0.63588
 H1006 H 0.32112 0.36156 0.61082
 H1007 H 0.33738 0.41978 0.55825
 H1008 H 0.35137 0.39116 0.69991
 C1009 C 0.60280 0.93240 0.87530
 C1010 C 0.64055 0.93816 0.87649
 C1011 C 0.66679 0.91106 0.85393
 C1012 C 0.66143 0.87322 0.85714
 H1013 H 0.65238 0.96259 0.89407
 H1014 H 0.69098 0.92225 0.83581
 H1015 H 0.59162 0.90915 0.85503
 H1016 H 0.63885 0.86264 0.87839
 C1017 C 0.11272 0.58608 0.08506
 C1018 C 0.10359 0.62168 0.09900
 C1019 C 0.13002 0.64891 0.12062
 C1020 C 0.16140 0.63892 0.14308
 H1021 H 0.07535 0.63292 0.09212
 H1022 H 0.12124 0.67871 0.12040
 H1023 H 0.14160 0.57528 0.08844
 H1024 H 0.16916 0.60902 0.14620
 C1025 C 0.38402 0.91447 0.08838
 C1026 C 0.39537 0.88140 0.10644
 C1027 C 0.37015 0.85464 0.12975
 C1028 C 0.33930 0.86495 0.15362
 H1029 H 0.42450 0.87154 0.10150
 H1030 H 0.37929 0.82494 0.12908
 H1031 H 0.35437 0.92340 0.09040
 H1032 H 0.33131 0.89486 0.15700
 C1033 C 0.60325 0.40803 0.39511
 C1034 C 0.64108 0.41330 0.39383
 C1035 C 0.66594 0.38684 0.36809
 C1036 C 0.65903 0.34915 0.36712
 H1037 H 0.65379 0.43794 0.41012
 H1038 H 0.69067 0.39831 0.35122
 H1039 H 0.59069 0.38527 0.37524
 H1040 H 0.63632 0.33773 0.38754
 C1041 C 0.89716 0.59416 0.88720
 C1042 C 0.90719 0.63042 0.87131
 C1043 C 0.88114 0.65720 0.85503
 C1044 C 0.84375 0.64854 0.84219
 H1045 H 0.93649 0.64002 0.87447
 H1046 H 0.89182 0.68591 0.84988
 H1047 H 0.86734 0.58619 0.88898
 H1048 H 0.83426 0.61909 0.84140
 C1049 C 0.10884 0.09726 0.61047
 C1050 C 0.09662 0.12642 0.63597
 C1051 C 0.12307 0.15270 0.65838
 C1052 C 0.15822 0.14227 0.67108
 H1053 H 0.06637 0.13282 0.63864
 H1054 H 0.11249 0.18131 0.66574
 H1055 H 0.13913 0.09239 0.60529
 H1056 H 0.16790 0.11290 0.66730
 C1057 C 0.09946 0.43082 0.37608
 C1058 C 0.13733 0.43575 0.37665
 C1059 C 0.16274 0.40872 0.35261
 C1060 C 0.15552 0.37102 0.35216
 H1061 H 0.14988 0.45953 0.39473
 H1062 H 0.18816 0.41976 0.33677
 H1063 H 0.08748 0.40825 0.35543
 H1064 H 0.13182 0.36009 0.37141
 C1065 C 0.39686 0.57611 0.89774
 C1066 C 0.40576 0.60853 0.87688
 C1067 C 0.37772 0.63444 0.85635
 C1068 C 0.34256 0.62460 0.84278
 H1069 H 0.43484 0.61901 0.87820
 H1070 H 0.38750 0.66350 0.85147
 H1071 H 0.36756 0.56636 0.89887
 H1072 H 0.33310 0.59516 0.84411
 C1073 C 0.61201 0.08593 0.59140
 C1074 C 0.60273 0.12154 0.60523
 C1075 C 0.62913 0.14914 0.62630
 C1076 C 0.66113 0.13957 0.64779
 H1077 H 0.57433 0.13252 0.59867
 H1078 H 0.61997 0.17884 0.62632
 H1079 H 0.64099 0.07535 0.59450
 H1080 H 0.66940 0.10978 0.65056
 C1081 C 0.88499 0.91247 0.09290
 C1082 C 0.88898 0.89627 0.13251
 C1083 C 0.86091 0.86787 0.14801
 C1084 C 0.85091 0.86567 0.19071
 H1085 H 0.91315 0.90348 0.15332
 H1086 H 0.84825 0.84847 0.12390
 H1087 H 0.85913 0.90724 0.07411
 H1088 H 0.86124 0.88702 0.21411
 C1089 C 0.87385 0.09011 0.92559
 C1090 C 0.87215 0.10046 0.88340
 C1091 C 0.84448 0.12921 0.86902
 C1092 C 0.83022 0.12762 0.82824
 H1093 H 0.89188 0.08817 0.85924
 H1094 H 0.83662 0.15245 0.89153
 H1095 H 0.85231 0.10007 0.94904
 H1096 H 0.83595 0.10288 0.80709
 C1097 C 0.11234 0.59452 0.57111
 C1098 C 0.11668 0.59809 0.61498
 C1099 C 0.14458 0.62528 0.63382
 C1100 C 0.15997 0.62032 0.67390
 H1101 H 0.09883 0.58171 0.63717
 H1102 H 0.15181 0.65046 0.61489
 H1103 H 0.13212 0.60867 0.54902
 H1104 H 0.15498 0.59395 0.69155
 C1105 C 0.62392 0.91179 0.40446
 C1106 C 0.66176 0.91770 0.40662
 C1107 C 0.68920 0.89175 0.38298
 C1108 C 0.68392 0.85367 0.38124
 H1109 H 0.67264 0.94308 0.42318
 H1110 H 0.71385 0.90425 0.36703
 H1111 H 0.61359 0.88803 0.38441
 H1112 H 0.66046 0.84161 0.39994
 C1113 C 0.38334 0.40743 0.07619
 C1114 C 0.37462 0.40368 0.11884
 C1115 C 0.34659 0.37505 0.13260
 C1116 C 0.32601 0.38000 0.16950
 H1117 H 0.38867 0.42128 0.14373
 H1118 H 0.34364 0.34906 0.11283
 H1119 H 0.36717 0.39202 0.05114
 H1120 H 0.32728 0.40700 0.18760
 C1121 C 0.60822 0.59231 0.11574
 C1122 C 0.59837 0.62612 0.13387
 C1123 C 0.62637 0.65265 0.15376
 C1124 C 0.66130 0.64182 0.16691
 H1125 H 0.56904 0.63600 0.13198
 H1126 H 0.61709 0.68203 0.15888
 H1127 H 0.63778 0.58320 0.11462
 H1128 H 0.67014 0.61213 0.16513
 C1129 C 0.10435 0.91357 0.88608
 C1130 C 0.14204 0.91996 0.88462
 C1131 C 0.16818 0.89269 0.86215
 C1132 C 0.16305 0.85483 0.86534
 H1133 H 0.15394 0.94575 0.89926
 H1134 H 0.19241 0.90391 0.84412
 H1135 H 0.09261 0.88908 0.86843
 H1136 H 0.14036 0.84408 0.88630
 C1137 C 0.39376 0.09210 0.38779
 C1138 C 0.40262 0.12710 0.37349
 C1139 C 0.37425 0.15485 0.35714
 C1140 C 0.33896 0.14560 0.34366
 H1141 H 0.43173 0.13724 0.37645
 H1142 H 0.38377 0.18425 0.35480
 H1143 H 0.36446 0.08240 0.38790
 H1144 H 0.32971 0.11609 0.34258
 C1145 C 0.88652 0.41834 0.59710
 C1146 C 0.89849 0.38595 0.61606
 C1147 C 0.87311 0.35870 0.63812
 C1148 C 0.84033 0.36833 0.65855
 H1149 H 0.92799 0.37690 0.61227
 H1150 H 0.88314 0.32930 0.63886
 H1151 H 0.85658 0.42634 0.59799
 H1152 H 0.83138 0.39802 0.66113
 C1153 C 0.88091 0.59426 0.05558
 C1154 C 0.88061 0.60500 0.09842
 C1155 C 0.85268 0.63293 0.11691
 C1156 C 0.84182 0.63099 0.15943
 H1157 H 0.90174 0.59313 0.12065
 H1158 H 0.84180 0.65556 0.09610
 H1159 H 0.85819 0.60357 0.03386
 H1160 H 0.85057 0.60653 0.17877
 C1161 C 0.59243 0.38629 0.57922
 C1162 C 0.62391 0.39581 0.60169
 C1163 C 0.64428 0.36615 0.62661
 C1164 C 0.67091 0.37429 0.65709
 H1165 H 0.63332 0.42535 0.60338
 H1166 H 0.63644 0.33657 0.62019
 H1167 H 0.58186 0.35717 0.58060
 H1168 H 0.67866 0.40380 0.66393
 C1169 C 0.11280 0.10330 0.43468
 C1170 C 0.11619 0.10972 0.39138
 C1171 C 0.14172 0.13988 0.37532
 C1172 C 0.15927 0.13669 0.33606
 H1173 H 0.10044 0.09238 0.36767
 H1174 H 0.14655 0.16488 0.39626
 H1175 H 0.13104 0.11838 0.45800
 H1176 H 0.15679 0.11042 0.31673
 C1177 C 0.37146 0.92247 0.90179
 C1178 C 0.37041 0.91718 0.85766
 C1179 C 0.34226 0.89190 0.83556
 C1180 C 0.33517 0.85688 0.85092
 H1181 H 0.39072 0.93193 0.83682
 H1182 H 0.33130 0.90013 0.80352
 H1183 H 0.34906 0.91077 0.92241
 H1184 H 0.34972 0.84756 0.88060
 C1185 C 0.13267 0.93046 0.61139
 C1186 C 0.12541 0.90516 0.64335
 C1187 C 0.15544 0.88351 0.66650
 C1188 C 0.14530 0.85235 0.68892
 H1189 H 0.09597 0.89833 0.65129
 H1190 H 0.18529 0.89095 0.66257
 H1191 H 0.16191 0.93770 0.60318
 H1192 H 0.11549 0.84394 0.68939
 C1193 C 0.62529 0.57863 0.43158
 C1194 C 0.62587 0.59412 0.39130
 C1195 C 0.65639 0.62036 0.37757
 C1196 C 0.66532 0.62419 0.33476
 H1197 H 0.60287 0.58814 0.36824
 H1198 H 0.67077 0.63758 0.40256
 H1199 H 0.64952 0.58206 0.45354
 H1200 H 0.65298 0.60498 0.31024
 C1201 C 0.37904 0.09439 0.08465
 C1202 C 0.38452 0.11438 0.12200
 C1203 C 0.35591 0.14251 0.13723
 C1204 C 0.34782 0.14660 0.18015
 H1205 H 0.40996 0.10981 0.14169
 H1206 H 0.34044 0.15914 0.11297
 H1207 H 0.35219 0.09721 0.06711
 H1208 H 0.36067 0.12749 0.20397
 C1209 C 0.89702 0.41624 0.87776
 C1210 C 0.85805 0.42387 0.87102
 C1211 C 0.83388 0.39886 0.84713
 C1212 C 0.84174 0.35963 0.84089
 H1213 H 0.84640 0.45130 0.88171
 H1214 H 0.80665 0.41004 0.83611
 H1215 H 0.90956 0.39178 0.86052
 H1216 H 0.86556 0.34712 0.85848
 C1217 C 0.60056 0.09730 0.88769
 C1218 C 0.63336 0.10933 0.90564
 C1219 C 0.65781 0.13724 0.88311
 C1220 C 0.66745 0.13349 0.84033
 H1221 H 0.64006 0.10237 0.93964
 H1222 H 0.66861 0.16110 0.90261
 H1223 H 0.59179 0.10792 0.85566
 H1224 H 0.65960 0.10786 0.82192
 C1225 C 0.38228 0.58280 0.60417
 C1226 C 0.35242 0.60023 0.58543
 C1227 C 0.32863 0.62778 0.61055
 C1228 C 0.31864 0.62206 0.65275
 H1229 H 0.34819 0.59803 0.54993
 H1230 H 0.31948 0.65350 0.59381
 H1231 H 0.38896 0.58847 0.63870
 H1232 H 0.32496 0.59492 0.66824
 C1233 C 0.11043 0.41766 0.09081
 C1234 C 0.09937 0.38639 0.11266
 C1235 C 0.12543 0.36035 0.13609
 C1236 C 0.15798 0.37088 0.15610
 H1237 H 0.06996 0.37702 0.11030
 H1238 H 0.11563 0.33108 0.13898
 H1239 H 0.14027 0.42573 0.09016
 H1240 H 0.16663 0.40063 0.15677
 C1241 C 0.90746 0.90048 0.40718
 C1242 C 0.86961 0.90615 0.40715
 C1243 C 0.84398 0.88096 0.38208
 C1244 C 0.85052 0.84329 0.37868
 H1245 H 0.85710 0.93066 0.42428
 H1246 H 0.81885 0.89365 0.36728
 H1247 H 0.92015 0.87789 0.38691
 H1248 H 0.87409 0.83040 0.39643
 C1249 C 0.87729 0.59701 0.58260
 C1250 C 0.88287 0.61615 0.62039
 C1251 C 0.85436 0.64376 0.63643
 C1252 C 0.84497 0.64529 0.67912
 H1253 H 0.90824 0.61104 0.64004
 H1254 H 0.84014 0.66219 0.61290
 H1255 H 0.85043 0.60000 0.56513
 H1256 H 0.85666 0.62447 0.70181
 C1257 C 0.61575 0.41993 0.11858
 C1258 C 0.60689 0.38948 0.14304
 C1259 C 0.63621 0.36874 0.16850
 C1260 C 0.62876 0.33395 0.18433
 H1261 H 0.57787 0.37872 0.14309
 H1262 H 0.66451 0.38089 0.17208
 H1263 H 0.64501 0.42998 0.11786
 H1264 H 0.60104 0.32122 0.17810
 C1265 C 0.39452 0.91483 0.38124
 C1266 C 0.35727 0.92211 0.37526
 C1267 C 0.33279 0.89663 0.34762
 C1268 C 0.33948 0.85882 0.34357
 H1269 H 0.34464 0.94797 0.38925
 H1270 H 0.30787 0.90907 0.33212
 H1271 H 0.40751 0.89053 0.36420
 H1272 H 0.36246 0.84596 0.36225
 C1273 C 0.10614 0.08885 0.89683
 C1274 C 0.14060 0.09810 0.91273
 C1275 C 0.16475 0.12733 0.89144
 C1276 C 0.17174 0.12782 0.84770
 H1277 H 0.14906 0.08805 0.94509
 H1278 H 0.17802 0.14852 0.91289
 H1279 H 0.09608 0.10242 0.86689
 H1280 H 0.16159 0.10463 0.82668
 C1281 C 0.11878 0.90591 0.06253
 C1282 C 0.12369 0.89982 0.10568
 C1283 C 0.15154 0.87144 0.12110
 C1284 C 0.16653 0.87396 0.16166
 H1285 H 0.10633 0.91528 0.12990
 H1286 H 0.15891 0.84747 0.09942
 H1287 H 0.13794 0.89281 0.03836
 H1288 H 0.16127 0.89920 0.18215
 C1289 C 0.87148 0.41046 0.42067
 C1290 C 0.86795 0.40036 0.37805
 C1291 C 0.84171 0.36959 0.36467
 C1292 C 0.82632 0.36812 0.32424
 H1293 H 0.88532 0.41404 0.35301
 H1294 H 0.83546 0.34722 0.38822
 H1295 H 0.85210 0.39884 0.44514
 H1296 H 0.82993 0.39177 0.30171
 C1297 C 0.38028 0.09579 0.55974
 C1298 C 0.37964 0.10851 0.60189
 C1299 C 0.35110 0.13677 0.61851
 C1300 C 0.33928 0.13591 0.66076
 H1301 H 0.40069 0.09780 0.62501
 H1302 H 0.34036 0.15857 0.59647
 H1303 H 0.35758 0.10401 0.53740
 H1304 H 0.34799 0.11212 0.68120
 C1305 C 0.62673 0.59649 0.94642
 C1306 C 0.62741 0.60915 0.90490
 C1307 C 0.65474 0.63817 0.89031
 C1308 C 0.66615 0.63840 0.84814
 H1309 H 0.60720 0.59793 0.88086
 H1310 H 0.66480 0.65972 0.91365
 H1311 H 0.64860 0.60524 0.96976
 H1312 H 0.65825 0.61501 0.82605
 C1313 C 0.40741 0.41309 0.89116
 C1314 C 0.36970 0.41957 0.88944
 C1315 C 0.34389 0.39353 0.86559
 C1316 C 0.34948 0.35560 0.86556
 H1317 H 0.35724 0.44457 0.90560
 H1318 H 0.31895 0.40575 0.84986
 H1319 H 0.42002 0.38962 0.87222
 H1320 H 0.37299 0.34348 0.88412
 C1321 C 0.88909 0.08176 0.10964
 C1322 C 0.85690 0.09535 0.09169
 C1323 C 0.83206 0.12281 0.11551
 C1324 C 0.82368 0.11917 0.15847
 H1325 H 0.85090 0.08985 0.05697
 H1326 H 0.81999 0.14621 0.09683
 H1327 H 0.89748 0.09087 0.14267
 H1328 H 0.83309 0.09398 0.17609
 C1329 C 0.60812 0.91572 0.59758
 C1330 C 0.59662 0.88361 0.61748
 C1331 C 0.62211 0.85731 0.64118
 C1332 C 0.65386 0.86810 0.66251
 H1333 H 0.56740 0.87407 0.61354
 H1334 H 0.61272 0.82783 0.64295
 H1335 H 0.63790 0.92401 0.59827
 H1336 H 0.66203 0.89798 0.66386
 C1337 C 0.09397 0.59673 0.38126
 C1338 C 0.12494 0.61166 0.40060
 C1339 C 0.14906 0.63965 0.37812
 C1340 C 0.15941 0.63529 0.33573
 H1341 H 0.13049 0.60647 0.43534
 H1342 H 0.15947 0.66377 0.39750
 H1343 H 0.08579 0.60542 0.34825
 H1344 H 0.15209 0.60935 0.31757
   
