data_POSCAR
  _audit_creation_date              2014-09-24
  _audit_creation_method            'ToBaCCo'
  _symmetry_space_group_name_H-M    'P1'
  _symmetry_Int_Tables_number       1
  _symmetry_cell_setting            triclinic
  loop_
  _symmetry_equiv_pos_as_xyz
 x,y,z
_cell_length_a 51.6801
_cell_length_b 52.0746
_cell_length_c 51.4683
_cell_angle_alpha 90.221400
_cell_angle_beta 89.562600
_cell_angle_gamma 90.035300
loop_
  _atom_site_label
  _atom_site_type_symbol
  _atom_site_fract_x
  _atom_site_fract_y
  _atom_site_fract_z
C1 C 0.35176 1.35798 0.31638
 N2 N 0.36528 1.34004 0.32968
 C3 C 0.35485 1.32887 0.35128
 N4 N 0.33106 1.33661 0.36010
 C5 C 0.31750 1.35462 0.34668
 N6 N 0.32790 1.36459 0.32480
 C7 C 0.34785 0.84547 0.81399
 N8 N 0.35897 0.82703 0.82901
 C9 C 0.34762 0.82035 0.85209
 N10 N 0.32600 0.83292 0.86032
 C11 C 0.31516 0.85148 0.84556
 N12 N 0.32597 0.85726 0.82235
 C13 C 0.85496 1.33962 0.82664
 N14 N 0.86384 1.31927 0.84054
 C15 C 0.84863 1.30831 0.85907
 N16 N 0.82486 1.31801 0.86400
 C17 C 0.81599 1.33859 0.85089
 N18 N 0.83101 1.34936 0.83208
 C19 C 0.85498 0.85441 0.32645
 N20 N 0.83189 0.86017 0.33742
 C21 C 0.82279 0.84729 0.35825
 N22 N 0.83664 0.82731 0.36786
 C23 C 0.85983 0.82081 0.35677
 N24 N 0.86921 0.83481 0.33639
 C25 C 0.64614 0.64905 0.32286
 N26 N 0.66710 0.63575 0.33127
 C27 C 0.68030 0.64368 0.35260
 N28 N 0.67261 0.66531 0.36541
 C29 C 0.65171 0.67874 0.35713
 N30 N 0.63859 0.67048 0.33593
 C31 C 0.64674 0.15344 0.82383
 N32 N 0.66762 0.14170 0.83494
 C33 C 0.68109 0.15402 0.85412
 N34 N 0.67333 0.17768 0.86201
 C35 C 0.65236 0.18902 0.85175
 N36 N 0.63914 0.17687 0.83279
 C37 C 1.13477 0.63868 0.83628
 N38 N 1.12467 0.65872 0.84998
 C39 C 1.13682 0.66753 0.87161
 N40 N 1.15886 0.65595 0.87965
 C41 C 1.16893 0.63582 0.86619
 N42 N 1.15700 0.62749 0.84436
 C43 C 1.13864 0.12948 0.32563
 N44 N 1.15858 0.11942 0.33899
 C45 C 1.16955 0.13224 0.35910
 N46 N 1.15962 0.15554 0.36647
 C47 C 1.13862 0.16536 0.35386
 N48 N 1.12868 0.15241 0.33322
 C49 C 0.63479 1.36269 0.66286
 N50 N 0.65577 1.37449 0.65192
 C51 C 0.66409 1.36734 0.62764
 N52 N 0.65111 1.34866 0.61462
 C53 C 0.63062 1.33665 0.62567
 N54 N 0.62277 1.34355 0.64982
 C55 C 0.62790 0.86724 1.17066
 N56 N 0.65212 0.87546 1.16467
 C57 C 0.66501 0.86588 1.14375
 N58 N 0.65378 0.84723 1.12902
 C59 C 0.62954 0.83869 1.13506
 N60 N 0.61670 0.84896 1.15571
 C61 C 1.14971 1.35399 1.17502
 N62 N 1.13598 1.33407 1.16487
 C63 C 1.14574 1.32008 1.14458
 N64 N 1.16919 1.32660 1.13404
 C65 C 1.18263 1.34704 1.14367
 N66 N 1.17281 1.36017 1.16423
 C67 C 1.14938 0.85555 0.66814
 N68 N 1.14046 0.83171 0.66167
 C69 C 1.15234 0.81803 0.64248
 N70 N 1.17293 0.82817 0.62995
 C71 C 1.18177 0.85191 0.63569
 N72 N 1.16988 0.86572 0.65485
 C73 C 0.35809 0.64948 0.67900
 N74 N 0.36733 0.67058 0.66702
 C75 C 0.35575 0.68007 0.64560
 N76 N 0.33461 0.66775 0.63557
 C77 C 0.32482 0.64649 0.64791
 N78 N 0.33662 0.63787 0.66975
 C79 C 0.36233 0.14312 1.17044
 N80 N 0.34137 0.12953 1.16239
 C81 C 0.32644 0.13846 1.14274
 N82 N 0.33281 0.16100 1.13107
 C83 C 0.35414 0.17424 1.13842
 N84 N 0.36877 0.16529 1.15818
 C85 C 0.85574 0.63861 1.16783
 N86 N 0.86432 0.66278 1.16180
 C87 C 0.85464 0.67516 1.14059
 N88 N 0.83645 0.66347 1.12583
 C89 C 0.82790 0.63969 1.13169
 N90 N 0.83749 0.62744 1.15265
 C91 C 0.84302 0.14584 0.69058
 N92 N 0.82007 0.13978 0.67994
 C93 C 0.81173 0.15105 0.65788
 N94 N 0.82650 0.16991 0.64673
 C95 C 0.84918 0.17728 0.65820
 N96 N 0.85754 0.16467 0.67968
 C97 C 1.36279 0.35970 0.67295
 N98 N 1.34194 0.37231 0.66349
 C99 C 1.32936 0.36338 0.64228
 N100 N 1.33770 0.34155 0.63041
 C101 C 1.35864 0.32873 0.63955
 N102 N 1.37112 0.33794 0.66084
 C103 C 1.35504 0.87030 1.17641
 N104 N 1.36571 0.84734 1.17004
 C105 C 1.35958 0.83528 1.14742
 N106 N 1.34154 0.84612 1.13150
 C107 C 1.33038 0.86904 1.13817
 N108 N 1.33753 0.88103 1.16040
 C109 C 0.84936 0.35593 1.17569
 N110 N 0.83013 0.36540 1.16047
 C111 C 0.82211 0.35210 1.13916
 N112 N 0.83399 0.32970 1.13268
 C113 C 0.85340 0.32022 1.14743
 N114 N 0.86072 0.33319 1.16911
 C115 C 0.86655 0.85593 0.65818
 N116 N 0.87646 0.83463 0.64640
 C117 C 0.86566 0.82521 0.62441
 N118 N 0.84532 0.83753 0.61385
 C119 C 0.83530 0.85890 0.62504
 N120 N 0.84559 0.86790 0.64766
 C121 C 0.63352 0.63443 0.66052
 N122 N 0.62171 0.65394 0.64799
 C123 C 0.63409 0.66697 0.62894
 N124 N 0.65857 0.66025 0.62216
 C125 C 0.67060 0.64032 0.63404
 N126 N 0.65813 0.62759 0.65362
 C127 C 0.64638 1.16107 1.18552
 N128 N 0.66435 1.14718 1.17177
 C129 C 0.67446 1.15696 1.14922
 N130 N 0.66529 1.17957 1.13996
 C131 C 0.64733 1.19315 1.15341
 N132 N 0.63861 1.18408 1.17633
 C133 C 0.14557 0.65241 1.17624
 N134 N 0.13487 0.67143 1.16169
 C135 C 0.14882 0.68305 1.14256
 N136 N 0.17339 0.67531 1.13788
 C137 C 0.18417 0.65608 1.15161
 N138 N 0.17028 0.64458 1.17089
 C139 C 0.14429 1.13302 0.67374
 N140 N 0.13127 1.15424 0.66597
 C141 C 0.14152 1.17000 0.64756
 N142 N 0.16494 1.16414 0.63673
 C143 C 0.17772 1.14252 0.64392
 N144 N 0.16737 1.12720 0.66252
 C145 C 1.36706 0.63086 0.33771
 N146 N 1.37302 0.65519 0.34557
 C147 C 1.35898 0.66678 0.36487
 N148 N 1.33844 0.65420 0.37555
 C149 C 1.33267 0.62987 0.36800
 N150 N 1.34717 0.61833 0.34938
 C151 C 1.36607 1.14067 0.83465
 N152 N 1.34164 1.13370 0.84196
 C153 C 1.32837 1.14786 0.86006
 N154 N 1.33936 1.16963 0.86994
 C155 C 1.36380 1.17654 0.86278
 N156 N 1.37693 1.16167 0.84562
 C157 C 0.86682 0.62579 0.84161
 N158 N 0.87945 0.64747 0.84907
 C159 C 0.86946 0.66253 0.86833
 N160 N 0.84683 0.65574 0.88008
 C161 C 0.83446 0.63385 0.87302
 N162 N 0.84445 0.61911 0.85368
 C163 C 0.84947 1.16253 0.31725
 N164 N 0.82457 1.15470 0.32164
 C165 C 0.80994 1.16634 0.34034
 N166 N 0.82015 1.18558 0.35458
 C167 C 0.84499 1.19305 0.35118
 N168 N 0.85975 1.18131 0.33261
 C169 C 0.65427 0.35843 0.32030
 N170 N 0.67742 0.36686 0.32902
 C171 C 0.68792 0.35746 0.35086
 N172 N 0.67543 0.33878 0.36412
 C173 C 0.65239 0.32938 0.35563
 N174 N 0.64150 0.33964 0.33380
 C175 C 0.64451 0.85099 0.81556
 N176 N 0.66489 0.86142 0.82870
 C177 C 0.67122 0.85214 0.85266
 N178 N 0.65736 0.83246 0.86295
 C179 C 0.63710 0.82224 0.84999
 N180 N 0.63083 0.83150 0.82639
 C181 C 0.14220 0.35078 0.82629
 N182 N 0.13450 0.32925 0.83893
 C183 C 0.14535 0.32259 0.86195
 N184 N 0.16438 0.33764 0.87213
 C185 C 0.17262 0.35893 0.85920
 N186 N 0.16134 0.36541 0.83645
 C187 C 0.14066 0.85193 0.32859
 N188 N 0.13223 0.82964 0.33962
 C189 C 0.14319 0.82068 0.36165
 N190 N 0.16245 0.83412 0.37287
 C191 C 0.17109 0.85637 0.36250
 N192 N 0.16031 0.86532 0.34015
 O193 O 0.96842 0.90255 0.86448
 O194 O 0.96805 0.87147 0.83531
 C195 C 0.95934 0.89268 0.84381
 C196 C 0.93786 0.90602 0.83051
 C197 C 0.92762 0.89741 0.80663
 H198 H 0.93601 0.88083 0.79701
 O199 O 1.02321 1.08570 0.87414
 O200 O 1.02097 1.11553 0.84393
 C201 C 1.03054 1.09474 0.85242
 C202 C 1.05046 1.08103 0.83691
 C203 C 1.05714 1.08949 0.81193
 H204 H 1.04775 1.10642 0.80441
 O205 O 0.86881 0.96693 0.90770
 O206 O 0.83860 0.96715 0.87767
 C207 C 0.84797 0.95801 0.89852
 C208 C 0.83499 0.93622 0.91168
 C209 C 0.81327 0.92489 0.90044
 H210 H 0.80523 0.93319 0.88300
 O211 O 1.12705 1.01952 0.89984
 O212 O 1.15676 1.01855 0.86890
 C213 C 1.14795 1.02814 0.88990
 C214 C 1.16185 1.04984 0.90260
 C215 C 1.18563 1.05872 0.89260
 H216 H 1.19358 1.04950 0.87547
 O217 O 0.90620 0.87008 0.97814
 O218 O 0.87727 0.83902 0.98044
 C219 C 0.89758 0.84860 0.97031
 C220 C 0.91027 0.83513 0.94828
 C221 C 0.90127 0.81093 0.94061
 H222 H 0.88686 0.80136 0.95248
 O223 O 1.09493 1.12480 0.96941
 O224 O 1.12494 1.15489 0.96834
 C225 C 1.10366 1.14582 0.96039
 C226 C 1.08891 1.15916 0.94005
 C227 C 1.09751 1.18243 0.92905
 H228 H 1.11518 1.19121 0.93597
 O229 O 0.90321 1.01772 0.87279
 O230 O 0.87307 1.01884 0.84270
 C231 C 0.89427 1.02708 0.85201
 C232 C 0.90861 1.04810 0.83908
 C233 C 0.90081 1.05773 0.81482
 H234 H 0.88440 1.04928 0.80498
 O235 O 1.09128 0.96780 0.86604
 O236 O 1.12093 0.96712 0.83503
 C237 C 1.10004 0.95850 0.84479
 C238 C 1.08597 0.93715 0.83169
 C239 C 1.09555 0.92593 0.80852
 H240 H 1.11323 0.93316 0.79980
 O241 O 1.01827 0.87014 0.90258
 O242 O 1.01805 0.83868 0.87375
 C243 C 1.02663 0.84857 0.89461
 C244 C 1.04647 0.83477 0.90970
 C245 C 1.05297 0.80948 0.90301
 H246 H 1.04366 0.80069 0.88648
 O247 O 0.97311 1.11871 0.91284
 O248 O 0.97135 1.14868 0.88273
 C249 C 0.96345 1.13930 0.90416
 C250 C 0.94248 1.15251 0.91855
 C251 C 0.93588 1.17756 0.91156
 H252 H 0.94662 1.18693 0.89615
 O253 O 0.86171 1.08337 0.97794
 O254 O 0.83186 1.11354 0.97682
 C255 C 0.84108 1.09247 0.96835
 C256 C 0.82838 1.07873 0.94655
 C257 C 0.80477 1.08741 0.93615
 H258 H 0.79507 1.10376 0.94490
 O259 O 1.12165 0.90329 0.97256
 O260 O 1.15080 0.87237 0.97200
 C261 C 1.14231 0.89358 0.96340
 C262 C 1.15664 0.90683 0.94244
 C263 C 1.18093 0.89774 0.93467
 H264 H 1.18858 0.88086 0.94404
 O265 O 0.97279 1.08513 0.87549
 O266 O 0.97119 1.11538 0.84566
 C267 C 0.96329 1.09417 0.85473
 C268 C 0.94261 1.08048 0.84081
 C269 C 0.93459 1.08978 0.81675
 H270 H 0.94384 1.10673 0.80895
 O271 O 1.01904 0.90396 0.86598
 O272 O 1.01902 0.87272 0.83695
 C273 C 1.02820 0.89380 0.84545
 C274 C 1.05045 0.90602 0.83193
 C275 C 1.06002 0.89550 0.80867
 H276 H 1.04958 0.87982 0.79974
 O277 O 1.12521 0.96944 0.90292
 O278 O 1.15522 0.96813 0.87227
 C279 C 1.14607 0.96018 0.89386
 C280 C 1.15899 0.93943 0.90849
 C281 C 1.18356 0.93022 0.90115
 H282 H 1.19379 0.93903 0.88505
 O283 O 0.86633 1.01700 0.90734
 O284 O 0.83612 1.01716 0.87733
 C285 C 0.84506 1.02555 0.89858
 C286 C 0.83068 1.04590 0.91262
 C287 C 0.80720 1.05479 0.90261
 H288 H 0.79994 1.04632 0.88490
 O289 O 0.89854 1.11722 0.97819
 O290 O 0.86909 1.14783 0.97707
 C291 C 0.89050 1.13838 0.96919
 C292 C 0.90634 1.15207 0.94948
 C293 C 0.89991 1.17719 0.94193
 H294 H 0.88329 1.18670 0.95058
 O295 O 1.08540 0.86881 0.97341
 O296 O 1.11444 0.83778 0.97300
 C297 C 1.09354 0.84742 0.96460
 C298 C 1.07885 0.83390 0.94402
 C299 C 1.08487 0.80838 0.93718
 H300 H 1.09979 0.79825 0.94767
 O301 O 1.08933 1.01774 0.86726
 O302 O 1.11863 1.01764 0.83589
 C303 C 1.09773 1.02636 0.84584
 C304 C 1.08321 1.04737 0.83326
 C305 C 1.08955 1.05595 0.80817
 H306 H 1.10481 1.04643 0.79728
 O307 O 0.90120 0.96793 0.86890
 O308 O 0.87088 0.96921 0.83901
 C309 C 0.89189 0.96011 0.84742
 C310 C 0.90509 0.93958 0.83253
 C311 C 0.89545 0.93131 0.80853
 H312 H 0.87954 0.94173 0.80006
 O313 O 1.02350 1.12294 0.90810
 O314 O 1.02112 1.15259 0.87772
 C315 C 1.03114 1.14409 0.89830
 C316 C 1.05271 1.15838 0.91019
 C317 C 1.06091 1.18195 0.89991
 H318 H 1.04939 1.19069 0.88493
 O319 O 0.96826 0.87031 0.90284
 O320 O 0.96792 0.83891 0.87397
 C321 C 0.95957 0.84882 0.89505
 C322 C 0.93955 0.83542 0.91076
 C323 C 0.92979 0.81131 0.90305
 H324 H 0.93689 0.80229 0.88539
 O325 O 1.12928 1.08849 0.96729
 O326 O 1.15941 1.11847 0.96631
 C327 C 1.15006 1.09756 0.95759
 C328 C 1.16301 1.08382 0.93562
 C329 C 1.18696 1.09226 0.92543
 H330 H 1.19653 1.10858 0.93424
 O331 O 0.86794 0.90208 0.97738
 O332 O 0.83897 0.87104 0.97876
 C333 C 0.84740 0.89168 0.96864
 C334 C 0.83421 0.90349 0.94583
 C335 C 0.81225 0.89219 0.93397
 H336 H 0.80380 0.87489 0.94201
 Cu337 Cu 0.99334 0.89002 0.88669
 Cu338 Cu 0.99330 0.85239 0.85197
 Cu339 Cu 0.99850 1.10014 0.89577
 Cu340 Cu 0.99590 1.13606 0.85957
 Cu341 Cu 0.88795 0.99235 0.89212
 Cu342 Cu 0.85155 0.99323 0.85632
 Cu343 Cu 1.10536 0.99363 0.88703
 Cu344 Cu 1.14085 0.99276 0.84995
 C345 C 0.92641 0.92712 0.84309
 H346 H 0.93364 0.93348 0.86174
 C347 C 0.90610 0.90990 0.79552
 C348 C 1.06337 1.05983 0.84726
 H349 H 1.05847 1.05350 0.86671
 C350 C 1.07636 1.07689 0.79716
 C351 C 0.84518 0.92558 0.93443
 H352 H 0.86224 0.93419 0.94291
 C353 C 0.80200 0.90268 0.91092
 C354 C 1.15087 1.06242 0.92420
 H355 H 1.13241 1.05588 0.93178
 C356 C 1.19873 1.07966 0.90406
 C357 C 0.92960 0.84715 0.93341
 H358 H 0.93644 0.86599 0.93915
 C359 C 0.91029 0.79913 0.91770
 C360 C 1.06651 1.14744 0.93048
 H361 H 1.06020 1.12917 0.93829
 C362 C 1.08375 1.19394 0.90861
 C363 C 0.92983 1.05941 0.85174
 H364 H 0.93583 1.05248 0.87057
 C365 C 0.91402 1.07849 0.80337
 C366 C 1.06339 0.92700 0.84315
 H367 H 1.05621 0.93503 0.86126
 C368 C 1.08290 0.90478 0.79706
 C369 C 1.05929 0.84679 0.93041
 H370 H 1.05459 0.86648 0.93543
 C371 C 1.07177 0.79585 0.91688
 C372 C 0.92792 1.13995 0.93785
 H373 H 0.93285 1.12045 0.94313
 C374 C 0.91482 1.19014 0.92317
 C375 C 0.84095 1.05769 0.93479
 H376 H 0.85932 1.05110 0.94225
 C377 C 0.79389 1.07536 0.91419
 C378 C 1.14591 0.92785 0.92950
 H379 H 1.12688 0.93461 0.93524
 C380 C 1.19485 0.90951 0.91446
 O381 O 1.02820 0.91009 1.13377
 O382 O 1.02845 0.88048 1.16427
 C383 C 1.03760 0.90099 1.15461
 C384 C 1.05980 0.91429 1.16709
 C385 C 1.06987 0.90638 1.19124
 H386 H 1.06069 0.89070 1.20156
 O387 O 0.97127 1.09476 1.12617
 O388 O 0.97198 1.12559 1.15561
 C389 C 0.96240 1.10473 1.14711
 C390 C 0.94028 1.09219 1.16110
 C391 C 0.92828 1.10386 1.18302
 H392 H 0.93541 1.12208 1.19024
 O393 O 0.86597 1.02177 1.09917
 O394 O 0.83666 1.02130 1.13054
 C395 C 0.84471 1.02975 1.10884
 C396 C 0.82962 1.04950 1.09494
 C397 C 0.80593 1.05833 1.10499
 H398 H 0.79884 1.05026 1.12299
 O399 O 1.12979 0.97357 1.08910
 O400 O 1.16067 0.97420 1.11838
 C401 C 1.15075 0.96454 1.09790
 C402 C 1.16275 0.94202 1.08439
 C403 C 1.18664 0.93161 1.09226
 H404 H 1.19713 0.94049 1.10808
 O405 O 1.08694 0.86877 1.02409
 O406 O 1.11601 0.83777 1.02351
 C407 C 1.09550 0.84764 1.03281
 C408 C 1.08181 0.83513 1.05462
 C409 C 1.08847 0.81031 1.06295
 H410 H 1.10323 0.79957 1.05254
 O411 O 0.89721 1.11920 1.02819
 O412 O 0.86738 1.14943 1.02726
 C413 C 0.88854 1.14071 1.03606
 C414 C 0.90326 1.15586 1.05547
 C415 C 0.89418 1.17991 1.06373
 H416 H 0.87605 1.18694 1.05617
 O417 O 0.90485 0.97529 1.13540
 O418 O 0.87573 0.97471 1.16690
 C419 C 0.89712 0.96711 1.15739
 C420 C 0.91318 0.94824 1.17148
 C421 C 0.90670 0.93985 1.19677
 H422 H 0.88994 0.94783 1.20666
 O423 O 1.09457 1.02492 1.12311
 O424 O 1.12485 1.02675 1.15298
 C425 C 1.10347 1.03479 1.14375
 C426 C 1.08868 1.05591 1.15674
 C427 C 1.09670 1.06623 1.18075
 H428 H 1.11395 1.05885 1.18992
 O429 O 0.97500 0.87736 1.09934
 O430 O 0.97525 0.84779 1.12992
 C431 C 0.96612 0.85664 1.10888
 C432 C 0.94508 0.84240 1.09554
 C433 C 0.93752 0.81828 1.10497
 H434 H 0.94689 0.81063 1.12200
 O435 O 1.02329 1.12766 1.08869
 O436 O 1.02431 1.15823 1.11836
 C437 C 1.03333 1.14824 1.09761
 C438 C 1.05636 1.15993 1.08426
 C439 C 1.06845 1.18224 1.09432
 H440 H 1.06057 1.19150 1.11152
 O441 O 0.87023 0.90611 1.02838
 O442 O 0.84089 0.87537 1.02975
 C443 C 0.84959 0.89674 1.03791
 C444 C 0.83580 0.91036 1.05915
 C445 C 0.81082 0.90272 1.06631
 H446 H 0.80188 0.88696 1.05596
 O447 O 1.13072 1.08841 1.01811
 O448 O 1.16085 1.11839 1.01708
 C449 C 1.15197 1.09753 1.02622
 C450 C 1.16589 1.08464 1.04746
 C451 C 1.18932 1.09483 1.05618
 H452 H 1.19834 1.10992 1.04497
 O453 O 1.02193 1.09072 1.12219
 O454 O 1.02261 1.12105 1.15217
 C455 C 1.03110 1.09984 1.14303
 C456 C 1.05257 1.08653 1.15646
 C457 C 1.06026 1.09548 1.18080
 H458 H 1.04853 1.10992 1.19037
 O459 O 0.97763 0.91306 1.13445
 O460 O 0.97814 0.88343 1.16495
 C461 C 0.96949 0.90437 1.15597
 C462 C 0.94914 0.91807 1.17051
 C463 C 0.94252 0.90995 1.19550
 H464 H 0.95307 0.89409 1.20375
 O465 O 1.13210 1.02388 1.08937
 O466 O 1.16282 1.02510 1.11881
 C467 C 1.15327 1.03316 1.09775
 C468 C 1.16635 1.05401 1.08317
 C469 C 1.18929 1.06544 1.09247
 H470 H 1.19782 1.05861 1.11031
 O471 O 0.86978 0.97192 1.09920
 O472 O 0.84015 0.97145 1.13023
 C473 C 0.84903 0.96279 1.10877
 C474 C 0.83539 0.94200 1.09442
 C475 C 0.81013 0.93406 1.10131
 H476 H 0.80015 0.94322 1.11744
 O477 O 1.09419 1.12264 1.01995
 O478 O 1.12426 1.15267 1.01903
 C479 C 1.10337 1.14359 1.02863
 C480 C 1.09025 1.15732 1.05057
 C481 C 1.10136 1.17980 1.06059
 H482 H 1.11824 1.18769 1.05095
 O483 O 0.90595 0.87129 1.02932
 O484 O 0.87683 0.84041 1.03152
 C485 C 0.89761 0.85070 1.03967
 C486 C 0.91189 0.83907 1.06183
 C487 C 0.90465 0.81488 1.07183
 H488 H 0.88903 0.80425 1.06289
 O489 O 1.09727 0.97503 1.12762
 O490 O 1.12796 0.97663 1.15709
 C491 C 1.10687 0.96728 1.14890
 C492 C 1.09367 0.94683 1.16397
 C493 C 1.10370 0.93852 1.18777
 H494 H 1.12131 0.94728 1.19463
 O495 O 0.90457 1.02496 1.13065
 O496 O 0.87538 1.02498 1.16211
 C497 C 0.89566 1.03446 1.15158
 C498 C 0.90828 1.05739 1.16326
 C499 C 0.89737 1.06886 1.18539
 H500 H 0.88133 1.05935 1.19494
 O501 O 0.97178 1.12743 1.08818
 O502 O 0.97264 1.15819 1.11768
 C503 C 0.96290 1.14835 1.09731
 C504 C 0.94005 1.16031 1.08483
 C505 C 0.93058 1.18449 1.09288
 H506 H 0.94089 1.19540 1.10748
 O507 O 1.02500 0.87552 1.09725
 O508 O 1.02498 0.84588 1.12776
 C509 C 1.03282 0.85414 1.10594
 C510 C 1.05127 0.83873 1.09062
 C511 C 1.05803 0.81404 1.09876
 H512 H 1.04961 0.80664 1.11652
 O513 O 1.12284 0.90367 1.02320
 O514 O 1.15196 0.87274 1.02250
 C515 C 1.14385 0.89410 1.03144
 C516 C 1.15887 0.90761 1.05190
 C517 C 1.18269 0.89770 1.05998
 H518 H 1.19051 0.88090 1.05029
 O519 O 0.86096 1.08458 1.02897
 O520 O 0.83095 1.11460 1.02828
 C521 C 0.83999 1.09400 1.03781
 C522 C 0.82696 1.08107 1.06007
 C523 C 0.80308 1.08965 1.07030
 H524 H 0.79318 1.10542 1.06099
 Cu525 Cu 1.00162 0.89715 1.11325
 Cu526 Cu 1.00167 0.86147 1.14986
 Cu527 Cu 0.99684 1.10733 1.10329
 Cu528 Cu 0.99816 1.14382 1.13879
 Cu529 Cu 0.89040 0.89047 1.00311
 Cu530 Cu 0.85564 0.85336 1.00541
 Cu531 Cu 1.10120 0.88916 0.99842
 Cu532 Cu 1.13627 0.85211 0.99762
 Cu533 Cu 0.88232 1.09786 1.00347
 Cu534 Cu 0.84669 1.13426 1.00220
 Cu535 Cu 1.10930 1.10306 0.99362
 Cu536 Cu 1.14541 1.13906 0.99273
 Cu537 Cu 0.88914 0.99828 1.11299
 Cu538 Cu 0.85420 0.99795 1.15069
 Cu539 Cu 1.11053 0.99922 1.10438
 Cu540 Cu 1.14713 1.00090 1.13964
 C541 C 1.07167 0.93479 1.15398
 H542 H 1.06419 0.94095 1.13542
 C543 C 1.09175 0.91866 1.20207
 C544 C 0.92987 1.06905 1.15138
 H545 H 0.93828 1.06032 1.13415
 C546 C 0.90637 1.09254 1.19496
 C547 C 0.83969 1.06069 1.07234
 H548 H 0.85819 1.05411 1.06486
 C549 C 0.79217 1.07817 1.09272
 C550 C 1.14918 0.92984 1.06407
 H551 H 1.13063 0.93733 1.05805
 C552 C 1.19662 0.90922 1.08029
 C553 C 1.06288 0.84896 1.06835
 H554 H 1.05789 0.86822 1.06230
 C555 C 1.07639 0.79948 1.08494
 C556 C 0.92635 1.14637 1.06589
 H557 H 0.93328 1.12767 1.05975
 C558 C 0.90783 1.19466 1.08205
 C559 C 0.93478 0.93750 1.15880
 H560 H 0.93971 0.94338 1.13921
 C561 C 0.92159 0.92078 1.20908
 C562 C 1.06664 1.06645 1.14464
 H563 H 1.06074 1.05945 1.12575
 C564 C 1.08275 1.08637 1.19272
 C565 C 0.93236 0.85256 1.07377
 H566 H 0.93801 0.87125 1.06649
 C567 C 0.91767 0.80418 1.09317
 C568 C 1.06762 1.14761 1.06241
 H569 H 1.05906 1.13013 1.05492
 C570 C 1.09131 1.19208 1.08288
 C571 C 0.84785 0.93016 1.07309
 H572 H 0.86730 0.93590 1.06768
 C573 C 0.79749 0.91472 1.08690
 C574 C 1.15475 1.06393 1.06074
 H575 H 1.13654 1.05608 1.05408
 C576 C 1.20067 1.08631 1.07931
 O577 O 0.97589 0.40404 0.37231
 O578 O 0.97467 0.37345 0.34262
 C579 C 0.96627 0.39461 0.35164
 C580 C 0.94454 0.40764 0.33821
 C581 C 0.93480 0.39710 0.31517
 H582 H 0.94513 0.38123 0.30639
 O583 O 1.02552 0.58939 0.36728
 O584 O 1.02615 0.62016 0.33801
 C585 C 1.03531 0.59932 0.34691
 C586 C 1.05794 0.58652 0.33419
 C587 C 1.07006 0.59675 0.31178
 H588 H 1.06258 0.61416 0.30319
 O589 O 0.87613 0.47513 0.40835
 O590 O 0.84391 0.47345 0.38056
 C591 C 0.85456 0.46585 0.40145
 C592 C 0.84193 0.44566 0.41748
 C593 C 0.81744 0.43640 0.41040
 H594 H 0.80761 0.44453 0.39383
 O595 O 1.12774 0.52191 0.40557
 O596 O 1.15920 0.52162 0.37641
 C597 C 1.14906 0.53080 0.39705
 C598 C 1.16142 0.55266 0.41089
 C599 C 1.18508 0.56312 0.40206
 H600 H 1.19503 0.55468 0.38552
 O601 O 0.91032 0.37081 0.48317
 O602 O 0.87951 0.34153 0.48197
 C603 C 0.90103 0.35022 0.47370
 C604 C 0.91517 0.33678 0.45241
 C605 C 0.90726 0.31233 0.44365
 H606 H 0.89105 0.30278 0.45296
 O607 O 1.08958 0.62650 0.47572
 O608 O 1.11883 0.65733 0.47443
 C609 C 1.09782 0.64760 0.46643
 C610 C 1.08316 0.66052 0.44562
 C611 C 1.08987 0.68543 0.43736
 H612 H 1.10536 0.69573 0.44691
 O613 O 0.90705 0.52336 0.36648
 O614 O 0.87533 0.52227 0.33817
 C615 C 0.89674 0.53159 0.34575
 C616 C 0.90991 0.55286 0.33148
 C617 C 0.89953 0.56463 0.30905
 H618 H 0.88160 0.55758 0.30092
 O619 O 1.09364 0.47213 0.36854
 O620 O 1.12465 0.47122 0.33892
 C621 C 1.10311 0.46299 0.34760
 C622 C 1.08892 0.44202 0.33414
 C623 C 1.09624 0.43280 0.30931
 H624 H 1.11223 0.44174 0.29905
 O625 O 1.02737 0.36703 0.40487
 O626 O 1.02595 0.33680 0.37481
 C627 C 1.03557 0.34575 0.39551
 C628 C 1.05671 0.33182 0.40892
 C629 C 1.06814 0.30918 0.39860
 H630 H 1.06116 0.30116 0.38052
 O631 O 0.97284 0.62191 0.40305
 O632 O 0.97249 0.65274 0.37382
 C633 C 0.96363 0.64294 0.39471
 C634 C 0.94234 0.65580 0.40957
 C635 C 0.93109 0.67888 0.40076
 H636 H 0.93794 0.68754 0.38289
 O637 O 0.87433 0.58639 0.47925
 O638 O 0.84492 0.61702 0.48082
 C639 C 0.85353 0.59625 0.47094
 C640 C 0.84001 0.58448 0.44851
 C641 C 0.81745 0.59584 0.43900
 H642 H 0.80871 0.61137 0.44997
 O643 O 1.12263 0.40241 0.47489
 O644 O 1.15319 0.37285 0.47437
 C645 C 1.14374 0.39365 0.46577
 C646 C 1.15779 0.40736 0.44491
 C647 C 1.18186 0.39799 0.43672
 H648 H 1.18941 0.38079 0.44560
 O649 O 0.97479 0.58750 0.36636
 O650 O 0.97522 0.61826 0.33706
 C651 C 0.96638 0.59708 0.34542
 C652 C 0.94500 0.58434 0.33147
 C653 C 0.93510 0.59517 0.30885
 H654 H 0.94539 0.61108 0.30011
 O655 O 1.02665 0.40537 0.37247
 O656 O 1.02521 0.37502 0.34251
 C657 C 1.03459 0.39596 0.35112
 C658 C 1.05521 0.40922 0.33637
 C659 C 1.06288 0.40008 0.31195
 H660 H 1.05355 0.38306 0.30445
 O661 O 1.12694 0.47153 0.40600
 O662 O 1.15832 0.47088 0.37676
 C663 C 1.14814 0.46226 0.39756
 C664 C 1.16052 0.44075 0.41175
 C665 C 1.18484 0.43099 0.40391
 H666 H 1.19517 0.43980 0.38787
 O667 O 0.87428 0.52484 0.40493
 O668 O 0.84226 0.52370 0.37691
 C669 C 0.85261 0.53323 0.39712
 C670 C 0.83980 0.55452 0.41170
 C671 C 0.81747 0.56676 0.40209
 H672 H 0.80919 0.56043 0.38389
 O673 O 0.90949 0.62168 0.47785
 O674 O 0.88000 0.65221 0.47980
 C675 C 0.90025 0.64269 0.46944
 C676 C 0.91224 0.65576 0.44665
 C677 C 0.90179 0.67896 0.43778
 H678 H 0.88657 0.68805 0.44904
 O679 O 1.08996 0.36483 0.47587
 O680 O 1.12067 0.33543 0.47558
 C681 C 1.09964 0.34418 0.46679
 C682 C 1.08729 0.33095 0.44470
 C683 C 1.09805 0.30829 0.43464
 H684 H 1.11367 0.29923 0.44505
 O685 O 1.09314 0.52207 0.36968
 O686 O 1.12434 0.52156 0.34022
 C687 C 1.10311 0.53073 0.34886
 C688 C 1.09056 0.55242 0.33517
 C689 C 1.10172 0.56235 0.31246
 H690 H 1.11803 0.55235 0.30394
 O691 O 0.90779 0.47304 0.36940
 O692 O 0.87605 0.47119 0.34111
 C693 C 0.89748 0.46273 0.34960
 C694 C 0.91042 0.44025 0.33709
 C695 C 0.90025 0.42850 0.31455
 H696 H 0.88287 0.43614 0.30586
 O697 O 1.02297 0.62244 0.40490
 O698 O 1.02268 0.65338 0.37576
 C699 C 1.03099 0.64404 0.39686
 C700 C 1.05046 0.65848 0.41178
 C701 C 1.05733 0.68326 0.40390
 H702 H 1.04810 0.69144 0.38705
 O703 O 0.97744 0.37219 0.41120
 O704 O 0.97618 0.34157 0.38152
 C705 C 0.96836 0.35111 0.40302
 C706 C 0.94825 0.33753 0.41820
 C707 C 0.94026 0.31322 0.41005
 H708 H 0.94915 0.30483 0.39292
 O709 O 1.12449 0.59066 0.47501
 O710 O 1.15381 0.62141 0.47345
 C711 C 1.14506 0.60000 0.46535
 C712 C 1.15893 0.58634 0.44419
 C713 C 1.18249 0.59616 0.43522
 H714 H 1.19089 0.61267 0.44486
 O715 O 0.87753 0.40863 0.48306
 O716 O 0.84665 0.37944 0.48230
 C717 C 0.85645 0.40024 0.47382
 C718 C 0.84298 0.41411 0.45273
 C719 C 0.81848 0.40544 0.44521
 H720 H 0.80985 0.38921 0.45510
 Cu721 Cu 1.00213 0.39013 0.39311
 Cu722 Cu 1.00017 0.35382 0.35735
 Cu723 Cu 0.99898 0.60209 0.38816
 Cu724 Cu 0.99917 0.63915 0.35314
 Cu725 Cu 0.89461 0.49942 0.38983
 Cu726 Cu 0.85621 0.49738 0.35636
 Cu727 Cu 1.10734 0.49684 0.39039
 Cu728 Cu 1.14482 0.49626 0.35519
 C729 C 0.93245 0.42942 0.34884
 H730 H 0.93990 0.43761 0.36666
 C731 C 0.91212 0.40653 0.30360
 C732 C 1.06853 0.56442 0.34567
 H733 H 1.05995 0.55681 0.36330
 C734 C 1.09233 0.58498 0.30095
 C735 C 0.85458 0.43452 0.43895
 H736 H 0.87370 0.44108 0.44434
 C737 C 0.80562 0.41635 0.42418
 C738 C 1.14855 0.56444 0.43210
 H739 H 1.13010 0.55699 0.43878
 C740 C 1.19541 0.58516 0.41397
 C741 C 0.93596 0.34908 0.43969
 H742 H 0.94191 0.36809 0.44583
 C743 C 0.92000 0.30031 0.42262
 C744 C 1.06314 0.64735 0.43291
 H745 H 1.05810 0.62802 0.43880
 C746 C 1.07676 0.69706 0.41665
 C747 C 0.93269 0.56298 0.34224
 H748 H 0.94045 0.55481 0.35986
 C749 C 0.91197 0.58623 0.29780
 C750 C 1.06806 0.43031 0.34715
 H751 H 1.06233 0.43705 0.36628
 C752 C 1.08291 0.41198 0.29780
 C753 C 1.06649 0.34232 0.43198
 H754 H 1.05840 0.35997 0.43971
 C755 C 1.08929 0.29749 0.41124
 C756 C 0.93263 0.64442 0.43251
 H757 H 0.94063 0.62641 0.43917
 C758 C 0.91042 0.69039 0.41454
 C759 C 0.85089 0.56367 0.43489
 H760 H 0.86848 0.55498 0.44205
 C761 C 0.80646 0.58786 0.41539
 C762 C 1.14730 0.42892 0.43257
 H763 H 1.12850 0.43598 0.43867
 C764 C 1.19579 0.40971 0.41661
 O765 O 1.02765 0.40374 0.63186
 O766 O 1.02930 0.37503 0.66315
 C767 C 1.03778 0.39560 0.65260
 C768 C 1.06010 0.40981 0.66399
 C769 C 1.06994 0.40261 0.68830
 H770 H 1.06057 0.38738 0.69915
 O771 O 0.98204 0.58527 0.63718
 O772 O 0.98218 0.61548 0.66736
 C773 C 0.97399 0.59418 0.65876
 C774 C 0.95448 0.57988 0.67371
 C775 C 0.94896 0.58647 0.69952
 H776 H 0.95946 0.60219 0.70828
 O777 O 0.87817 0.52310 0.60236
 O778 O 0.84822 0.52372 0.63310
 C779 C 0.85729 0.53218 0.61177
 C780 C 0.84318 0.55260 0.59775
 C781 C 0.81861 0.56045 0.60642
 H782 H 0.81057 0.55184 0.62379
 O783 O 1.13407 0.47354 0.58917
 O784 O 1.16571 0.47260 0.61765
 C785 C 1.15539 0.46436 0.59693
 C786 C 1.16756 0.44308 0.58228
 C787 C 1.19265 0.43468 0.58827
 H788 H 1.20375 0.44486 0.60281
 O789 O 1.08972 0.36644 0.52710
 O790 O 1.12062 0.33726 0.52603
 C791 C 1.09970 0.34592 0.53573
 C792 C 1.08772 0.33242 0.55799
 C793 C 1.09861 0.30955 0.56694
 H794 H 1.11394 0.30073 0.55562
 O795 O 0.91203 0.62072 0.52895
 O796 O 0.88268 0.65142 0.53048
 C797 C 0.90380 0.64179 0.53836
 C798 C 0.91854 0.65482 0.55919
 C799 C 0.91311 0.68043 0.56603
 H800 H 0.89872 0.69100 0.55522
 O801 O 0.91209 0.47105 0.63650
 O802 O 0.88181 0.47176 0.66693
 C803 C 0.90258 0.46238 0.65753
 C804 C 0.91506 0.44056 0.67087
 C805 C 0.90409 0.43093 0.69376
 H806 H 0.88834 0.44143 0.70270
 O807 O 1.10048 0.52217 0.62837
 O808 O 1.13183 0.52118 0.65717
 C809 C 1.11042 0.53013 0.64941
 C810 C 1.09730 0.55065 0.66439
 C811 C 1.10714 0.55911 0.68822
 H812 H 1.12334 0.54896 0.69645
 O813 O 0.97632 0.36622 0.60081
 O814 O 0.97719 0.33659 0.63121
 C815 C 0.96763 0.34544 0.61031
 C816 C 0.94568 0.33252 0.59683
 C817 C 0.93538 0.30858 0.60476
 H818 H 0.94402 0.29847 0.62086
 O819 O 1.02890 0.62202 0.59894
 O820 O 1.02861 0.65230 0.62907
 C821 C 1.03664 0.64361 0.60744
 C822 C 1.05547 0.65859 0.59228
 C823 C 1.06288 0.68305 0.60070
 H824 H 1.05422 0.69110 0.61815
 O825 O 0.87391 0.40577 0.53383
 O826 O 0.84282 0.37680 0.53292
 C827 C 0.85234 0.39729 0.54230
 C828 C 0.83887 0.41138 0.56367
 C829 C 0.81407 0.40416 0.57282
 H830 H 0.80414 0.38810 0.56391
 O831 O 1.12720 0.59257 0.52554
 O832 O 1.15653 0.62330 0.52382
 C833 C 1.14835 0.60231 0.53333
 C834 C 1.16352 0.58936 0.55383
 C835 C 1.18693 0.60001 0.56217
 H836 H 1.19308 0.61795 0.55368
 O837 O 1.03222 0.58690 0.63415
 O838 O 1.03244 0.61714 0.66427
 C839 C 1.04167 0.59654 0.65468
 C840 C 1.06393 0.58365 0.66693
 C841 C 1.07434 0.59238 0.69054
 H842 H 1.06572 0.60877 0.70031
 O843 O 0.97711 0.40095 0.63664
 O844 O 0.97798 0.37188 0.66762
 C845 C 0.96852 0.39226 0.65810
 C846 C 0.94673 0.40576 0.67129
 C847 C 0.93456 0.39560 0.69370
 H848 H 0.94151 0.37781 0.70195
 O849 O 1.13450 0.52395 0.59117
 O850 O 1.16596 0.52324 0.61980
 C851 C 1.15579 0.53289 0.59964
 C852 C 1.16789 0.55533 0.58615
 C853 C 1.19180 0.56613 0.59398
 H854 H 1.20249 0.55731 0.60960
 O855 O 0.87629 0.47313 0.60171
 O856 O 0.84600 0.47396 0.63213
 C857 C 0.85484 0.46520 0.61077
 C858 C 0.84034 0.44508 0.59676
 C859 C 0.81551 0.43818 0.60510
 H860 H 0.80647 0.44929 0.62047
 O861 O 1.09116 0.62710 0.52642
 O862 O 1.12050 0.65785 0.52505
 C863 C 1.10008 0.64827 0.53485
 C864 C 1.08685 0.66114 0.55687
 C865 C 1.09458 0.68552 0.56587
 H866 H 1.11010 0.69573 0.55610
 O867 O 0.90971 0.37070 0.53405
 O868 O 0.87869 0.34166 0.53272
 C869 C 0.89976 0.34988 0.54222
 C870 C 0.91251 0.33525 0.56323
 C871 C 0.90249 0.31161 0.57139
 H872 H 0.88519 0.30440 0.56219
 O873 O 1.09882 0.47229 0.62521
 O874 O 1.13015 0.47124 0.65400
 C875 C 1.10850 0.46291 0.64569
 C876 C 1.09465 0.44218 0.66019
 C877 C 1.10410 0.43430 0.68435
 H878 H 1.12156 0.44307 0.69170
 O879 O 0.91288 0.52070 0.63881
 O880 O 0.88305 0.52134 0.66969
 C881 C 0.90455 0.52899 0.66056
 C882 C 0.92010 0.54808 0.67479
 C883 C 0.91475 0.55464 0.70083
 H884 H 0.89918 0.54502 0.71112
 O885 O 0.97926 0.61814 0.59977
 O886 O 0.97905 0.64863 0.62967
 C887 C 0.97037 0.63910 0.60864
 C888 C 0.95027 0.65298 0.59405
 C889 C 0.94421 0.67832 0.60086
 H890 H 0.95353 0.68678 0.61755
 O891 O 1.02662 0.36538 0.59997
 O892 O 1.02835 0.33620 0.63081
 C893 C 1.03627 0.34491 0.60916
 C894 C 1.05738 0.33189 0.59454
 C895 C 1.06924 0.30935 0.60385
 H896 H 1.06258 0.30086 0.62188
 O897 O 1.12601 0.40154 0.52504
 O898 O 1.15648 0.37188 0.52403
 C899 C 1.14778 0.39306 0.53257
 C900 C 1.16333 0.40785 0.55136
 C901 C 1.18831 0.39956 0.55771
 H902 H 1.19566 0.38210 0.54897
 O903 O 0.87442 0.58756 0.53046
 O904 O 0.84490 0.61808 0.53190
 C905 C 0.85389 0.59708 0.54040
 C906 C 0.84098 0.58395 0.56262
 C907 C 0.81619 0.59147 0.57155
 H908 H 0.80582 0.60646 0.56147
 Cu909 Cu 1.00173 0.38687 0.61433
 Cu910 Cu 1.00339 0.35214 0.65139
 Cu911 Cu 1.00568 0.59985 0.61461
 Cu912 Cu 1.00541 0.63641 0.65071
 Cu913 Cu 0.89596 0.39185 0.50875
 Cu914 Cu 0.85881 0.35699 0.50727
 Cu915 Cu 1.10374 0.38660 0.50101
 Cu916 Cu 1.14071 0.35133 0.49996
 Cu917 Cu 0.89547 0.60102 0.50413
 Cu918 Cu 0.86018 0.63767 0.50598
 Cu919 Cu 1.10503 0.60624 0.50087
 Cu920 Cu 1.14042 0.64300 0.49892
 Cu921 Cu 0.89791 0.49712 0.61675
 Cu922 Cu 0.86169 0.49781 0.65351
 Cu923 Cu 1.11400 0.49819 0.60546
 Cu924 Cu 1.15158 0.49681 0.63998
 C925 C 1.07244 0.42993 0.65019
 H926 H 1.06517 0.43562 0.63140
 C927 C 1.09170 0.41495 0.69880
 C928 C 0.94031 0.56048 0.66165
 H929 H 0.94435 0.55577 0.64150
 C930 C 0.92944 0.57366 0.71354
 C931 C 0.85407 0.56426 0.57571
 H932 H 0.87314 0.55841 0.56912
 C933 C 0.80457 0.57944 0.59323
 C934 C 1.15323 0.42980 0.56346
 H935 H 1.13377 0.43598 0.55893
 C936 C 1.20333 0.41300 0.57587
 C937 C 1.06690 0.34324 0.57163
 H938 H 1.05858 0.36103 0.56475
 C939 C 1.09029 0.29825 0.59030
 C940 C 0.93753 0.64138 0.57304
 H941 H 0.94193 0.62166 0.56790
 C942 C 0.92617 0.69252 0.58664
 C943 C 0.93659 0.42813 0.65998
 H944 H 0.94507 0.43559 0.64224
 C945 C 0.91274 0.40785 0.70479
 C946 C 1.07557 0.56280 0.65411
 H947 H 1.06804 0.55635 0.63562
 C948 C 1.09618 0.58034 0.70130
 C949 C 0.93418 0.34531 0.57581
 H950 H 0.94167 0.36373 0.56958
 C951 C 0.91392 0.29768 0.59172
 C952 C 1.06711 0.64801 0.57010
 H953 H 1.06142 0.62899 0.56373
 C954 C 1.08232 0.69669 0.58764
 C955 C 0.85173 0.43185 0.57589
 H956 H 0.87103 0.43717 0.56956
 C957 C 0.80231 0.41738 0.59386
 C958 C 1.15432 0.56697 0.56572
 H959 H 1.13600 0.55903 0.55951
 C960 C 1.20180 0.58843 0.58172
 O961 O 0.59893 1.02854 0.62485
 O962 O 0.63070 1.02820 0.65320
 C963 C 0.60875 1.03618 0.64619
 C964 C 0.59491 1.05494 0.66282
 C965 C 0.60523 1.06256 0.68683
 H966 H 0.62336 1.05429 0.69284
 O967 O 0.41400 0.96860 0.62943
 O968 O 0.38353 0.96614 0.65954
 C969 C 0.40476 0.95825 0.64983
 C970 C 0.41887 0.93668 0.66202
 C971 C 0.41018 0.92553 0.68542
 H972 H 0.39303 0.93296 0.69506
 O973 O 0.52459 1.12480 0.59985
 O974 O 0.52497 1.15378 0.63121
 C975 C 0.53255 1.14602 0.60890
 C976 C 0.55070 1.16205 0.59350
 C977 C 0.55670 1.18678 0.60227
 H978 H 0.54672 1.19416 0.61924
 O979 O 0.48121 0.86916 0.58650
 O980 O 0.48275 0.83871 0.61606
 C981 C 0.47265 0.84814 0.59564
 C982 C 0.45040 0.83518 0.58245
 C983 C 0.44098 0.81099 0.59064
 H984 H 0.45010 0.80118 0.60667
 O985 O 0.62255 1.10507 0.51980
 O986 O 0.65126 1.13640 0.52090
 C987 C 0.64330 1.11462 0.52873
 C988 C 0.65814 1.10073 0.54882
 C989 C 0.68127 1.11134 0.55809
 H990 H 0.68793 1.12944 0.55027
 O991 O 0.37449 0.90579 0.52103
 O992 O 0.34363 0.87652 0.52223
 C993 C 0.35339 0.89743 0.53050
 C994 C 0.34054 0.91214 0.55159
 C995 C 0.31500 0.90650 0.55931
 H996 H 0.30435 0.89157 0.54930
 O997 O 0.47735 1.08808 0.63810
 O998 O 0.47715 1.11688 0.66959
 C999 C 0.46871 1.09608 0.65984
 C1000 C 0.44813 1.08106 0.67309
 C1001 C 0.43696 1.08892 0.69693
 H1002 H 0.44397 1.10613 0.70644
 O1003 O 0.53316 0.90525 0.61934
 O1004 O 0.53551 0.87528 0.64934
 C1005 C 0.54341 0.89655 0.63985
 C1006 C 0.56488 0.91129 0.65243
 C1007 C 0.57518 0.90347 0.67645
 H1008 H 0.56718 0.88683 0.68619
 O1009 O 0.63488 0.98205 0.58392
 O1010 O 0.66639 0.98318 0.61254
 C1011 C 0.65667 0.97406 0.59199
 C1012 C 0.67027 0.95275 0.57867
 C1013 C 0.69375 0.94384 0.58863
 H1014 H 0.70301 0.95445 0.60412
 O1015 O 0.37998 1.02195 0.59756
 O1016 O 0.34955 1.01965 0.62773
 C1017 C 0.35892 1.03011 0.60743
 C1018 C 0.34514 1.05206 0.59541
 C1019 C 0.32083 1.05956 0.60512
 H1020 H 0.31276 1.04941 0.62158
 O1021 O 0.41009 1.13187 0.53228
 O1022 O 0.37941 1.16110 0.53588
 C1023 C 0.40095 1.15194 0.54306
 C1024 C 0.41500 1.16392 0.56498
 C1025 C 0.40828 1.18851 0.57428
 H1026 H 0.39359 1.19943 0.56428
 O1027 O 0.59993 0.87483 0.51848
 O1028 O 0.63104 0.84589 0.51630
 C1029 C 0.60971 0.85376 0.52576
 C1030 C 0.59640 0.83855 0.54582
 C1031 C 0.60604 0.81456 0.55303
 H1032 H 0.62233 0.80656 0.54245
 O1033 O 0.41423 1.01845 0.63384
 O1034 O 0.38369 1.01576 0.66389
 C1035 C 0.40475 1.02530 0.65565
 C1036 C 0.41746 1.04558 0.67099
 C1037 C 0.40716 1.05299 0.69509
 H1038 H 0.39178 1.04160 0.70352
 O1039 O 0.59814 0.97873 0.61807
 O1040 O 0.62959 0.97860 0.64677
 C1041 C 0.60852 0.96919 0.63808
 C1042 C 0.59633 0.94680 0.65135
 C1043 C 0.60611 0.93853 0.67522
 H1044 H 0.62245 0.94853 0.68353
 O1045 O 0.53196 0.86826 0.58550
 O1046 O 0.53387 0.83789 0.61515
 C1047 C 0.54166 0.84747 0.59389
 C1048 C 0.56298 0.83516 0.57921
 C1049 C 0.57311 0.81123 0.58661
 H1050 H 0.56453 0.80097 0.60280
 O1051 O 0.47491 1.12428 0.60368
 O1052 O 0.47526 1.15324 0.63506
 C1053 C 0.46632 1.14494 0.61369
 C1054 C 0.44611 1.15976 0.60013
 C1055 C 0.43875 1.18401 0.60947
 H1056 H 0.44733 1.19083 0.62725
 O1057 O 0.37650 1.09491 0.53246
 O1058 O 0.34557 1.12386 0.53629
 C1059 C 0.35572 1.10272 0.54318
 C1060 C 0.34340 1.08728 0.56410
 C1061 C 0.31888 1.09416 0.57393
 H1062 H 0.30873 1.11033 0.56563
 O1063 O 0.63475 0.91070 0.51935
 O1064 O 0.66612 0.88204 0.51765
 C1065 C 0.65641 0.90242 0.52728
 C1066 C 0.66997 0.91680 0.54807
 C1067 C 0.69335 0.90784 0.55873
 H1068 H 0.70195 0.89021 0.55152
 O1069 O 0.48280 0.90256 0.62385
 O1070 O 0.48496 0.87232 0.65363
 C1071 C 0.47520 0.89301 0.64527
 C1072 C 0.45404 0.90544 0.66006
 C1073 C 0.44549 0.89494 0.68364
 H1074 H 0.45519 0.87828 0.69147
 O1075 O 0.52784 1.09048 0.63614
 O1076 O 0.52810 1.11906 0.66784
 C1077 C 0.53733 1.09901 0.65720
 C1078 C 0.55990 1.08573 0.66860
 C1079 C 0.57029 1.09307 0.69279
 H1080 H 0.56087 1.10807 0.70400
 O1081 O 0.37924 0.97190 0.59317
 O1082 O 0.34884 0.97004 0.62341
 C1083 C 0.35783 0.96310 0.60148
 C1084 C 0.34300 0.94443 0.58593
 C1085 C 0.31760 0.93852 0.59335
 H1086 H 0.30941 0.94791 0.61027
 O1087 O 0.63004 1.03286 0.58459
 O1088 O 0.66139 1.03330 0.61337
 C1089 C 0.65075 1.04271 0.59327
 C1090 C 0.66202 1.06578 0.58032
 C1091 C 0.68523 1.07684 0.58924
 H1092 H 0.69550 1.06788 0.60507
 O1093 O 0.41041 0.87124 0.51993
 O1094 O 0.38006 0.84149 0.52121
 C1095 C 0.40156 0.85044 0.52917
 C1096 C 0.41612 0.83657 0.54959
 C1097 C 0.40770 0.81230 0.55761
 H1098 H 0.39096 0.80368 0.54849
 O1099 O 0.58520 1.13753 0.52268
 O1100 O 0.61362 1.16909 0.52409
 C1101 C 0.59354 1.15796 0.53314
 C1102 C 0.58023 1.16822 0.55661
 C1103 C 0.58661 1.19262 0.56635
 H1104 H 0.60090 1.20417 0.55625
 Cu1105 Cu 0.61252 1.00580 0.59987
 Cu1106 Cu 0.65011 1.00577 0.63414
 Cu1107 Cu 0.40002 0.99535 0.61050
 Cu1108 Cu 0.36329 0.99259 0.64660
 Cu1109 Cu 0.50110 1.10374 0.61656
 Cu1110 Cu 0.50151 1.13858 0.65416
 Cu1111 Cu 0.50711 0.88921 0.60080
 Cu1112 Cu 0.50951 0.85307 0.63646
 C1113 C 0.57214 1.06633 0.65412
 H1114 H 0.56449 1.06073 0.63540
 C1115 C 0.59297 1.08137 0.70233
 C1116 C 0.44093 0.92654 0.64964
 H1117 H 0.44743 0.93456 0.63133
 C1118 C 0.42361 0.90479 0.69647
 C1119 C 0.56225 1.15297 0.57040
 H1120 H 0.55770 1.13383 0.56349
 C1121 C 0.57510 1.20198 0.58933
 C1122 C 0.43772 0.84768 0.56179
 H1123 H 0.44426 0.86647 0.55561
 C1124 C 0.41987 0.79932 0.57793
 C1125 C 0.64877 1.07781 0.55985
 H1126 H 0.63070 1.06979 0.55303
 C1127 C 0.69509 1.09960 0.57814
 C1128 C 0.35426 0.93149 0.56478
 H1129 H 0.37407 0.93578 0.55928
 C1130 C 0.30326 0.91985 0.58010
 C1131 C 0.43819 1.05931 0.66044
 H1132 H 0.44596 1.05357 0.64170
 C1133 C 0.41608 1.07508 0.70795
 C1134 C 0.57553 0.93321 0.64019
 H1135 H 0.56800 0.93939 0.62166
 C1136 C 0.59555 0.91724 0.68817
 C1137 C 0.65866 0.93932 0.55824
 H1138 H 0.64032 0.94602 0.55079
 C1139 C 0.70509 0.92109 0.57945
 C1140 C 0.35624 1.06596 0.57475
 H1141 H 0.37515 1.06052 0.56735
 C1142 C 0.30724 1.08025 0.59424
 C1143 C 0.43431 1.14995 0.57776
 H1144 H 0.43961 1.13101 0.57075
 C1145 C 0.42036 1.19901 0.59638
 C1146 C 0.57470 0.84855 0.55870
 H1147 H 0.56742 0.86727 0.55330
 C1148 C 0.59487 0.80092 0.57371
 O1149 O 0.59068 0.98436 0.37537
 O1150 O 0.61952 0.98581 0.34359
 C1151 C 0.59898 0.97652 0.35349
 C1152 C 0.58536 0.95589 0.33944
 C1153 C 0.59415 0.94876 0.31469
 H1154 H 0.60903 0.96016 0.30542
 O1155 O 0.40291 1.03103 0.37622
 O1156 O 0.37255 1.03045 0.34634
 C1157 C 0.39382 1.03904 0.35485
 C1158 C 0.40785 1.05871 0.33974
 C1159 C 0.40033 1.06432 0.31427
 H1160 H 0.38407 1.05410 0.30612
 O1161 O 0.46829 1.13580 0.40728
 O1162 O 0.46606 1.16484 0.37636
 C1163 C 0.45825 1.15604 0.39812
 C1164 C 0.43714 1.16889 0.41317
 C1165 C 0.42536 1.19168 0.40452
 H1166 H 0.43188 1.20036 0.38653
 O1167 O 0.52644 0.87611 0.40674
 O1168 O 0.52702 0.84888 0.37381
 C1169 C 0.53601 0.85657 0.39541
 C1170 C 0.55856 0.84328 0.40680
 C1171 C 0.56781 0.82038 0.39579
 H1172 H 0.55680 0.81147 0.38042
 O1173 O 0.63291 0.91324 0.46925
 O1174 O 0.66420 0.88450 0.46710
 C1175 C 0.65405 0.90532 0.45951
 C1176 C 0.66648 0.92003 0.43852
 C1177 C 0.68898 0.91069 0.42653
 H1178 H 0.69756 0.89314 0.43367
 O1179 O 0.37270 1.09800 0.48213
 O1180 O 0.34179 1.12698 0.48598
 C1181 C 0.35089 1.10686 0.47527
 C1182 C 0.33645 1.09425 0.45397
 C1183 C 0.31256 1.10411 0.44597
 H1184 H 0.30404 1.11970 0.45697
 O1185 O 0.51978 1.10165 0.37213
 O1186 O 0.51875 1.13031 0.34074
 C1187 C 0.52838 1.11009 0.35064
 C1188 C 0.55008 1.09624 0.33762
 C1189 C 0.55958 1.10385 0.31303
 H1190 H 0.55075 1.11985 0.30305
 O1191 O 0.47385 0.91281 0.37637
 O1192 O 0.47455 0.88541 0.34362
 C1193 C 0.46491 0.90507 0.35485
 C1194 C 0.44241 0.91806 0.34295
 C1195 C 0.43179 0.90762 0.32035
 H1196 H 0.44131 0.89153 0.31095
 O1197 O 0.62665 1.03523 0.40906
 O1198 O 0.65537 1.03619 0.37714
 C1199 C 0.64670 1.04487 0.39857
 C1200 C 0.65940 1.06726 0.41059
 C1201 C 0.68272 1.07648 0.40041
 H1202 H 0.69206 1.06625 0.38455
 O1203 O 0.36776 0.98086 0.41243
 O1204 O 0.33708 0.98180 0.38291
 C1205 C 0.34676 0.97213 0.40320
 C1206 C 0.33424 0.94938 0.41487
 C1207 C 0.31135 0.93984 0.40415
 H1208 H 0.30170 0.95064 0.38911
 O1209 O 0.58590 1.14236 0.47173
 O1210 O 0.61462 1.17362 0.47269
 C1211 C 0.59406 1.16396 0.46353
 C1212 C 0.57988 1.17708 0.44230
 C1213 C 0.58819 1.20079 0.43193
 H1214 H 0.60451 1.21054 0.44061
 O1215 O 0.40705 0.86931 0.46959
 O1216 O 0.37706 0.83923 0.47038
 C1217 C 0.39797 0.84825 0.46103
 C1218 C 0.41214 0.83496 0.43968
 C1219 C 0.40494 0.81056 0.43015
 H1220 H 0.38883 0.80050 0.43907
 O1221 O 0.40370 0.98115 0.37776
 O1222 O 0.37311 0.98054 0.34810
 C1223 C 0.39426 0.97181 0.35707
 C1224 C 0.40769 0.95011 0.34386
 C1225 C 0.39716 0.93886 0.32134
 H1226 H 0.37947 0.94638 0.31318
 O1227 O 0.59008 1.03428 0.37486
 O1228 O 0.61918 1.03504 0.34330
 C1229 C 0.59816 1.04309 0.35327
 C1230 C 0.58362 1.06317 0.33934
 C1231 C 0.59246 1.07086 0.31484
 H1232 H 0.60952 1.06183 0.30664
 O1233 O 0.47583 0.87244 0.40557
 O1234 O 0.47667 0.84507 0.37277
 C1235 C 0.46762 0.85207 0.39463
 C1236 C 0.44672 0.83702 0.40720
 C1237 C 0.43922 0.81291 0.39763
 H1238 H 0.44918 0.80527 0.38075
 O1239 O 0.51843 1.13864 0.40564
 O1240 O 0.51671 1.16767 0.37463
 C1241 C 0.52614 1.15965 0.39582
 C1242 C 0.54672 1.17451 0.40890
 C1243 C 0.55542 1.19786 0.39855
 H1244 H 0.54656 1.20461 0.38095
 O1245 O 0.37245 0.90554 0.47080
 O1246 O 0.34204 0.87584 0.47152
 C1247 C 0.35090 0.89693 0.46280
 C1248 C 0.33641 0.91179 0.44306
 C1249 C 0.31334 0.90241 0.43191
 H1250 H 0.30550 0.88407 0.43798
 O1251 O 0.62229 1.10797 0.46969
 O1252 O 0.65141 1.13889 0.47043
 C1253 C 0.64316 1.11778 0.46113
 C1254 C 0.65747 1.10400 0.44019
 C1255 C 0.68078 1.11340 0.42932
 H1256 H 0.68897 1.13129 0.43623
 O1257 O 0.52444 0.91283 0.37296
 O1258 O 0.52497 0.88558 0.34005
 C1259 C 0.53327 0.90585 0.35091
 C1260 C 0.55388 0.92105 0.33811
 C1261 C 0.56382 0.91349 0.31370
 H1262 H 0.55608 0.89666 0.30407
 O1263 O 0.46957 1.10030 0.37177
 O1264 O 0.46809 1.12891 0.34033
 C1265 C 0.46047 1.10794 0.35028
 C1266 C 0.44044 1.09241 0.33722
 C1267 C 0.43287 1.09768 0.31157
 H1268 H 0.44245 1.11286 0.30084
 O1269 O 0.36829 1.03153 0.41338
 O1270 O 0.33795 1.03226 0.38355
 C1271 C 0.34743 1.04088 0.40461
 C1272 C 0.33473 1.06239 0.41897
 C1273 C 0.31104 1.07297 0.41083
 H1274 H 0.30157 1.06500 0.39392
 O1275 O 0.62990 0.98474 0.40672
 O1276 O 0.65851 0.98629 0.37475
 C1277 C 0.65067 0.97669 0.39595
 C1278 C 0.66513 0.95508 0.40750
 C1279 C 0.68793 0.94561 0.39571
 H1280 H 0.69592 0.95581 0.37928
 O1281 O 0.59968 0.87639 0.46831
 O1282 O 0.63073 0.84743 0.46586
 C1283 C 0.60915 0.85618 0.45815
 C1284 C 0.59485 0.84322 0.43694
 C1285 C 0.60419 0.82051 0.42528
 H1286 H 0.62202 0.81204 0.43208
 O1287 O 0.40730 1.13387 0.48115
 O1288 O 0.37639 1.16284 0.48477
 C1289 C 0.39677 1.15456 0.47358
 C1290 C 0.40764 1.16835 0.45070
 C1291 C 0.39635 1.19122 0.44191
 H1292 H 0.38093 1.19980 0.45330
 Cu1293 Cu 0.60660 1.00948 0.39496
 Cu1294 Cu 0.64106 1.01093 0.35656
 Cu1295 Cu 0.38857 1.00639 0.39809
 Cu1296 Cu 0.35206 1.00639 0.36233
 Cu1297 Cu 0.60096 1.12030 0.49560
 Cu1298 Cu 0.63546 1.15779 0.49716
 Cu1299 Cu 0.61368 0.89668 0.49416
 Cu1300 Cu 0.65125 0.86204 0.49159
 Cu1301 Cu 0.39486 1.11191 0.50666
 Cu1302 Cu 0.35779 1.14667 0.51121
 Cu1303 Cu 0.39412 0.89088 0.49503
 Cu1304 Cu 0.35768 0.85523 0.49656
 Cu1305 Cu 0.49409 1.11624 0.39228
 Cu1306 Cu 0.49219 1.15084 0.35488
 Cu1307 Cu 0.50011 0.89620 0.39377
 Cu1308 Cu 0.50086 0.86359 0.35425
 C1309 C 0.56493 0.94221 0.35095
 H1310 H 0.55812 0.94764 0.37016
 C1311 C 0.58436 0.92700 0.30208
 C1312 C 0.42811 1.07258 0.35093
 H1313 H 0.43365 1.06853 0.37076
 C1314 C 0.41299 1.08343 0.29972
 C1315 C 0.42811 1.15755 0.43632
 H1316 H 0.43667 1.13978 0.44291
 C1317 C 0.40468 1.20290 0.41862
 C1318 C 0.57202 0.85438 0.42753
 H1319 H 0.56501 0.87220 0.43592
 C1320 C 0.59093 0.80905 0.40441
 C1321 C 0.65481 0.94232 0.42909
 H1322 H 0.63706 0.94923 0.43799
 C1323 C 0.69987 0.92303 0.40487
 C1324 C 0.34719 1.07328 0.44056
 H1325 H 0.36571 1.06575 0.44665
 C1326 C 0.29981 1.09407 0.42411
 C1327 C 0.56220 1.07565 0.35050
 H1328 H 0.55552 1.06983 0.36958
 C1329 C 0.58068 1.09092 0.30140
 C1330 C 0.43034 0.93944 0.35461
 H1331 H 0.43828 0.94743 0.37230
 C1332 C 0.40888 0.91726 0.30986
 C1333 C 0.64716 1.08082 0.43068
 H1334 H 0.62901 1.07362 0.43840
 C1335 C 0.69365 1.09936 0.40961
 C1336 C 0.34651 0.93540 0.43443
 H1337 H 0.36448 0.94259 0.44237
 C1338 C 0.30101 0.91624 0.41203
 C1339 C 0.55879 1.16452 0.43090
 H1340 H 0.55236 1.14624 0.43855
 C1341 C 0.57592 1.21160 0.41002
 C1342 C 0.43328 0.84762 0.42827
 H1343 H 0.43889 0.86643 0.43532
 C1344 C 0.41873 0.79906 0.40929
 O1345 O 0.46774 0.41457 0.86946
 O1346 O 0.46575 0.38468 0.83907
 C1347 C 0.45767 0.40566 0.84894
 C1348 C 0.43570 0.41946 0.83721
 C1349 C 0.42634 0.41266 0.81260
 H1350 H 0.43621 0.39782 0.80156
 O1351 O 0.52127 0.59543 0.86758
 O1352 O 0.52018 0.62560 0.83768
 C1353 C 0.52920 0.60458 0.84600
 C1354 C 0.55004 0.59111 0.83139
 C1355 C 0.56044 0.60100 0.80795
 H1356 H 0.55235 0.61815 0.79937
 O1357 O 0.36354 0.47894 0.91586
 O1358 O 0.33186 0.48024 0.88745
 C1359 C 0.34168 0.47106 0.90794
 C1360 C 0.32808 0.45063 0.92261
 C1361 C 0.30326 0.44192 0.91552
 H1362 H 0.29333 0.45083 0.89944
 O1363 O 0.62352 0.52603 0.90028
 O1364 O 0.65305 0.52654 0.86907
 C1365 C 0.64475 0.53430 0.89105
 C1366 C 0.66010 0.55283 0.90622
 C1367 C 0.68561 0.55857 0.89883
 H1368 H 0.69359 0.54976 0.88148
 O1369 O 0.40414 0.37950 0.97778
 O1370 O 0.37330 0.35021 0.97882
 C1371 C 0.39394 0.35930 0.96867
 C1372 C 0.40576 0.34632 0.94585
 C1373 C 0.39532 0.32311 0.93712
 H1374 H 0.37980 0.31433 0.94818
 O1375 O 0.59382 0.62415 0.97331
 O1376 O 0.62582 0.65215 0.97140
 C1377 C 0.60395 0.64406 0.96351
 C1378 C 0.59062 0.65771 0.94231
 C1379 C 0.60094 0.68068 0.93293
 H1380 H 0.61728 0.68907 0.94284
 O1381 O 0.40006 0.52842 0.88038
 O1382 O 0.36831 0.52991 0.85203
 C1383 C 0.39014 0.53783 0.86005
 C1384 C 0.40355 0.55867 0.84580
 C1385 C 0.39279 0.56802 0.82286
 H1386 H 0.37610 0.55838 0.81488
 O1387 O 0.58685 0.47728 0.86472
 O1388 O 0.61592 0.47815 0.83312
 C1389 C 0.59515 0.46921 0.84293
 C1390 C 0.58076 0.44896 0.82900
 C1391 C 0.58853 0.44145 0.80406
 H1392 H 0.60497 0.45086 0.79503
 O1393 O 0.51935 0.38004 0.90278
 O1394 O 0.51761 0.34975 0.87279
 C1395 C 0.52777 0.35920 0.89319
 C1396 C 0.55011 0.34617 0.90528
 C1397 C 0.55857 0.32254 0.89536
 H1398 H 0.54844 0.31410 0.87913
 O1399 O 0.47408 0.63072 0.90832
 O1400 O 0.47370 0.66105 0.87858
 C1401 C 0.46557 0.65206 0.90003
 C1402 C 0.44546 0.66637 0.91488
 C1403 C 0.43722 0.69036 0.90601
 H1404 H 0.44598 0.69814 0.88858
 O1405 O 0.37352 0.59964 0.98363
 O1406 O 0.34301 0.62920 0.98521
 C1407 C 0.35173 0.60815 0.97629
 C1408 C 0.33637 0.59373 0.95700
 C1409 C 0.31147 0.60218 0.95049
 H1410 H 0.30389 0.61931 0.95971
 O1411 O 0.63129 0.41279 0.96616
 O1412 O 0.66113 0.38258 0.96431
 C1413 C 0.65190 0.40358 0.95624
 C1414 C 0.66428 0.41681 0.93413
 C1415 C 0.68728 0.40749 0.92285
 H1416 H 0.69709 0.39130 0.93153
 O1417 O 0.47092 0.59455 0.87391
 O1418 O 0.46950 0.62474 0.84404
 C1419 C 0.46058 0.60410 0.85390
 C1420 C 0.43752 0.59132 0.84266
 C1421 C 0.42586 0.60087 0.82005
 H1422 H 0.43409 0.61745 0.81039
 O1423 O 0.51795 0.41186 0.86439
 O1424 O 0.51628 0.38181 0.83416
 C1425 C 0.52589 0.40257 0.84281
 C1426 C 0.54706 0.41599 0.82850
 C1427 C 0.55542 0.40836 0.80338
 H1428 H 0.54594 0.39256 0.79354
 O1429 O 0.62521 0.47670 0.89696
 O1430 O 0.65415 0.47746 0.86521
 C1431 C 0.64612 0.46857 0.88666
 C1432 C 0.66106 0.44838 0.89964
 C1433 C 0.68413 0.43907 0.88859
 H1434 H 0.69117 0.44706 0.87048
 O1435 O 0.36607 0.52884 0.91742
 O1436 O 0.33418 0.53017 0.88920
 C1437 C 0.34482 0.53832 0.90983
 C1438 C 0.33277 0.55952 0.92475
 C1439 C 0.30778 0.56809 0.91867
 H1440 H 0.29688 0.55829 0.90371
 O1441 O 0.40901 0.63501 0.98077
 O1442 O 0.37864 0.66470 0.98156
 C1443 C 0.39943 0.65559 0.97179
 C1444 C 0.41265 0.66838 0.94945
 C1445 C 0.40456 0.69254 0.94004
 H1446 H 0.38864 0.70249 0.94945
 O1447 O 0.59366 0.38010 0.96581
 O1448 O 0.62315 0.34955 0.96360
 C1449 C 0.60186 0.35923 0.95601
 C1450 C 0.58652 0.34627 0.93548
 C1451 C 0.59446 0.32244 0.92535
 H1452 H 0.61161 0.31327 0.93295
 O1453 O 0.58795 0.52731 0.86502
 O1454 O 0.61738 0.52796 0.83376
 C1455 C 0.59663 0.53645 0.84383
 C1456 C 0.58307 0.55769 0.83096
 C1457 C 0.59306 0.56763 0.80781
 H1458 H 0.60978 0.55867 0.79872
 O1459 O 0.39783 0.47859 0.87854
 O1460 O 0.36629 0.48009 0.84997
 C1461 C 0.38768 0.47085 0.85753
 C1462 C 0.40100 0.45092 0.84180
 C1463 C 0.39157 0.44361 0.81736
 H1464 H 0.37401 0.45246 0.81060
 O1465 O 0.52461 0.62752 0.90590
 O1466 O 0.52440 0.65787 0.87616
 C1467 C 0.53407 0.64799 0.89651
 C1468 C 0.55692 0.65979 0.90922
 C1469 C 0.56820 0.68247 0.89953
 H1470 H 0.55997 0.69177 0.88271
 O1471 O 0.46850 0.37838 0.90363
 O1472 O 0.46645 0.34812 0.87366
 C1473 C 0.45857 0.35766 0.89508
 C1474 C 0.43714 0.34514 0.90992
 C1475 C 0.42595 0.32192 0.90127
 H1476 H 0.43339 0.31260 0.88390
 O1477 O 0.62970 0.58968 0.97320
 O1478 O 0.66195 0.61745 0.97237
 C1479 C 0.65129 0.59719 0.96392
 C1480 C 0.66366 0.58283 0.94243
 C1481 C 0.68930 0.58818 0.93498
 H1482 H 0.70050 0.60195 0.94601
 O1483 O 0.36660 0.41201 0.98298
 O1484 O 0.33564 0.38288 0.98475
 C1485 C 0.34457 0.40376 0.97589
 C1486 C 0.32961 0.41803 0.95638
 C1487 C 0.30494 0.40959 0.94920
 H1488 H 0.29686 0.39288 0.95869
 Cu1489 Cu 0.49357 0.39918 0.88797
 Cu1490 Cu 0.49130 0.36296 0.85204
 Cu1491 Cu 0.49787 0.60902 0.89178
 Cu1492 Cu 0.49678 0.64534 0.85619
 Cu1493 Cu 0.38498 0.50336 0.90099
 Cu1494 Cu 0.34699 0.50526 0.86677
 Cu1495 Cu 0.60285 0.50171 0.88489
 Cu1496 Cu 0.63793 0.50272 0.84697
 C1497 C 0.42315 0.43888 0.85142
 H1498 H 0.43024 0.44415 0.87047
 C1499 C 0.40436 0.42478 0.80223
 C1500 C 0.56140 0.56926 0.84247
 H1501 H 0.55401 0.56178 0.86068
 C1502 C 0.58230 0.58940 0.79636
 C1503 C 0.34081 0.43879 0.94334
 H1504 H 0.36006 0.44504 0.94866
 C1505 C 0.29137 0.42149 0.92900
 C1506 C 0.64935 0.56482 0.92821
 H1507 H 0.62951 0.56076 0.93377
 C1508 C 0.70058 0.57590 0.91336
 C1509 C 0.42679 0.35717 0.93228
 H1510 H 0.43480 0.37525 0.93890
 C1511 C 0.40476 0.31096 0.91464
 C1512 C 0.56843 0.64749 0.93057
 H1513 H 0.56041 0.62964 0.93779
 C1514 C 0.59053 0.69282 0.91109
 C1515 C 0.42609 0.57022 0.85548
 H1516 H 0.43440 0.56312 0.87332
 C1517 C 0.40323 0.58951 0.81022
 C1518 C 0.55984 0.43645 0.84089
 H1519 H 0.55397 0.44224 0.86029
 C1520 C 0.57592 0.42150 0.79085
 C1521 C 0.56407 0.35787 0.92550
 H1522 H 0.55786 0.37635 0.93299
 C1523 C 0.58050 0.31036 0.90540
 C1524 C 0.43334 0.65569 0.93679
 H1525 H 0.43951 0.63699 0.94348
 C1526 C 0.41712 0.70388 0.91847
 C1527 C 0.34678 0.57222 0.94424
 H1528 H 0.36617 0.56590 0.94885
 C1529 C 0.29684 0.58933 0.93157
 C1530 C 0.65158 0.43750 0.92260
 H1531 H 0.63359 0.44449 0.93093
 C1532 C 0.69743 0.41865 0.90011
 O1533 O 0.52808 0.40270 1.12384
 O1534 O 0.52855 0.37144 1.15268
 C1535 C 0.53666 0.39295 1.14470
 C1536 C 0.55608 0.40684 1.15998
 C1537 C 0.56385 0.39751 1.18415
 H1538 H 0.55566 0.37970 1.19116
 O1539 O 0.48157 0.60209 1.12805
 O1540 O 0.48400 0.63135 1.15903
 C1541 C 0.47450 0.61057 1.15007
 C1542 C 0.45483 0.59636 1.16530
 C1543 C 0.44784 0.60510 1.19009
 H1544 H 0.45835 0.62109 1.19830
 O1545 O 0.38116 0.53011 1.10046
 O1546 O 0.35292 0.53014 1.13279
 C1547 C 0.36079 0.53894 1.11107
 C1548 C 0.34646 0.56012 1.09852
 C1549 C 0.32270 0.56820 1.10892
 H1550 H 0.31488 0.55856 1.12584
 O1551 O 0.62412 0.47192 1.09210
 O1552 O 0.65461 0.47189 1.12185
 C1553 C 0.64552 0.46348 1.10058
 C1554 C 0.66027 0.44392 1.08560
 C1555 C 0.68466 0.43601 1.09411
 H1556 H 0.69210 0.44386 1.11205
 O1557 O 0.59545 0.37689 1.01577
 O1558 O 0.62532 0.34668 1.01367
 C1559 C 0.60442 0.35547 1.02321
 C1560 C 0.59095 0.34087 1.04366
 C1561 C 0.60139 0.31764 1.05224
 H1562 H 0.61908 0.31061 1.04342
 O1563 O 0.41104 0.63663 1.03156
 O1564 O 0.38043 0.66610 1.03241
 C1565 C 0.40193 0.65761 1.04040
 C1566 C 0.41611 0.67218 1.06050
 C1567 C 0.40721 0.69628 1.06855
 H1568 H 0.38980 0.70379 1.05988
 O1569 O 0.41823 0.47997 1.13364
 O1570 O 0.39021 0.47983 1.16616
 C1571 C 0.41028 0.47072 1.15503
 C1572 C 0.42368 0.44818 1.16617
 C1573 C 0.41658 0.43852 1.19068
 H1574 H 0.40216 0.44852 1.20229
 O1575 O 0.58971 0.52358 1.12770
 O1576 O 0.62025 0.52278 1.15735
 C1577 C 0.59970 0.53259 1.14828
 C1578 C 0.58854 0.55557 1.16131
 C1579 C 0.59897 0.56372 1.18495
 H1580 H 0.61242 0.55119 1.19464
 O1581 O 0.47697 0.36918 1.08842
 O1582 O 0.47821 0.33802 1.11730
 C1583 C 0.46867 0.34786 1.09710
 C1584 C 0.44722 0.33468 1.08404
 C1585 C 0.43967 0.31003 1.09173
 H1586 H 0.45017 0.30068 1.10714
 O1587 O 0.53073 0.63722 1.09128
 O1588 O 0.53354 0.66696 1.12173
 C1589 C 0.54093 0.65759 1.10008
 C1590 C 0.56222 0.66960 1.08511
 C1591 C 0.57222 0.69386 1.09170
 H1592 H 0.56370 0.70455 1.10771
 O1593 O 0.37358 0.41199 1.03333
 O1594 O 0.34279 0.38269 1.03491
 C1595 C 0.35322 0.40305 1.04381
 C1596 C 0.34190 0.41622 1.06681
 C1597 C 0.31892 0.40711 1.07824
 H1598 H 0.30921 0.39084 1.06951
 O1599 O 0.62865 0.58974 1.02411
 O1600 O 0.66051 0.61790 1.02315
 C1601 C 0.65013 0.59783 1.03265
 C1602 C 0.66268 0.58385 1.05415
 C1603 C 0.68664 0.59193 1.06422
 H1604 H 0.69624 0.60861 1.05612
 O1605 O 0.53147 0.60206 1.12677
 O1606 O 0.53438 0.63144 1.15758
 C1607 C 0.54159 0.61013 1.14770
 C1608 C 0.56177 0.59434 1.16056
 C1609 C 0.57362 0.60274 1.18370
 H1610 H 0.56829 0.62114 1.19203
 O1611 O 0.47862 0.40593 1.12234
 O1612 O 0.47923 0.37509 1.15162
 C1613 C 0.47098 0.39676 1.14380
 C1614 C 0.45262 0.41153 1.16004
 C1615 C 0.44535 0.40227 1.18448
 H1616 H 0.45291 0.38403 1.19095
 O1617 O 0.62509 0.52151 1.09201
 O1618 O 0.65555 0.52117 1.12183
 C1619 C 0.64652 0.52966 1.10065
 C1620 C 0.66088 0.54985 1.08659
 C1621 C 0.68522 0.55733 1.09544
 H1622 H 0.69416 0.54629 1.11069
 O1623 O 0.37947 0.47979 1.10212
 O1624 O 0.35142 0.47990 1.13460
 C1625 C 0.35914 0.47086 1.11293
 C1626 C 0.34475 0.44930 1.10052
 C1627 C 0.32189 0.43962 1.11190
 H1628 H 0.31510 0.44847 1.12963
 O1629 O 0.59734 0.62882 1.02333
 O1630 O 0.62925 0.65692 1.02140
 C1631 C 0.60775 0.64971 1.03081
 C1632 C 0.59500 0.66545 1.05106
 C1633 C 0.60468 0.68976 1.05764
 H1634 H 0.62078 0.69756 1.04665
 O1635 O 0.40446 0.37276 1.02771
 O1636 O 0.37363 0.34347 1.02887
 C1637 C 0.39564 0.35139 1.03589
 C1638 C 0.41108 0.33620 1.05424
 C1639 C 0.40358 0.31134 1.06204
 H1640 H 0.38652 0.30251 1.05378
 O1641 O 0.59050 0.47282 1.13012
 O1642 O 0.62100 0.47239 1.15983
 C1643 C 0.59991 0.46377 1.15095
 C1644 C 0.58667 0.44205 1.16381
 C1645 C 0.59440 0.43258 1.18820
 H1646 H 0.60960 0.44230 1.19877
 O1647 O 0.41696 0.53067 1.13531
 O1648 O 0.38895 0.53057 1.16782
 C1649 C 0.40904 0.53978 1.15696
 C1650 C 0.42284 0.56190 1.16899
 C1651 C 0.41545 0.57162 1.19360
 H1652 H 0.39985 0.56246 1.20426
 O1653 O 0.48050 0.64013 1.09581
 O1654 O 0.48263 0.66992 1.12621
 C1655 C 0.47244 0.66117 1.10560
 C1656 C 0.45049 0.67459 1.09275
 C1657 C 0.44138 0.69917 1.10055
 H1658 H 0.45099 0.70946 1.11604
 O1659 O 0.52725 0.37146 1.08422
 O1660 O 0.52846 0.34050 1.11331
 C1661 C 0.53657 0.35047 1.09223
 C1662 C 0.55772 0.33817 1.07735
 C1663 C 0.56827 0.31479 1.08555
 H1664 H 0.55984 0.30501 1.10212
 O1665 O 0.63084 0.41183 1.01719
 O1666 O 0.66078 0.38171 1.01565
 C1667 C 0.65153 0.40206 1.02588
 C1668 C 0.66397 0.41421 1.04882
 C1669 C 0.68854 0.40648 1.05770
 H1670 H 0.69932 0.39193 1.04713
 O1671 O 0.37704 0.60015 1.03407
 O1672 O 0.34629 0.62945 1.03577
 C1673 C 0.35631 0.60878 1.04423
 C1674 C 0.34421 0.59460 1.06630
 C1675 C 0.32042 0.60248 1.07723
 H1676 H 0.31037 0.61887 1.06924
 Cu1677 Cu 0.50278 0.39028 1.10159
 Cu1678 Cu 0.50351 0.35301 1.13647
 Cu1679 Cu 0.50585 0.61769 1.10726
 Cu1680 Cu 0.50884 0.65292 1.14421
 Cu1681 Cu 0.39018 0.39701 1.00552
 Cu1682 Cu 0.35326 0.36199 1.00688
 Cu1683 Cu 0.61006 0.39867 0.99143
 Cu1684 Cu 0.64569 0.36219 0.98902
 Cu1685 Cu 0.39575 0.61499 1.00731
 Cu1686 Cu 0.35906 0.65032 1.00884
 Cu1687 Cu 0.60931 0.60517 0.99882
 Cu1688 Cu 0.64759 0.63886 0.99686
 Cu1689 Cu 0.40183 0.50512 1.11478
 Cu1690 Cu 0.36814 0.50519 1.15360
 Cu1691 Cu 0.60398 0.49727 1.10771
 Cu1692 Cu 0.64076 0.49703 1.14333
 C1693 C 0.56717 0.42925 1.15022
 H1694 H 0.56127 0.43616 1.13134
 C1695 C 0.58269 0.41038 1.19876
 C1696 C 0.44251 0.57458 1.15500
 H1697 H 0.44787 0.56780 1.13578
 C1698 C 0.42769 0.59348 1.20421
 C1699 C 0.35693 0.57321 1.07703
 H1700 H 0.37542 0.56714 1.06909
 C1701 C 0.30939 0.58911 1.09835
 C1702 C 0.65023 0.43315 1.06283
 H1703 H 0.63128 0.43913 1.05635
 C1704 C 0.69928 0.41774 1.08016
 C1705 C 0.56892 0.35088 1.05605
 H1706 H 0.56118 0.36916 1.04982
 C1707 C 0.59021 0.30442 1.07313
 C1708 C 0.43783 0.66168 1.07241
 H1709 H 0.44438 0.64283 1.06629
 C1710 C 0.41991 0.71046 1.08796
 C1711 C 0.44202 0.43468 1.15114
 H1712 H 0.44735 0.44170 1.13205
 C1713 C 0.42750 0.41563 1.20002
 C1714 C 0.56967 0.57080 1.14935
 H1715 H 0.56154 0.56456 1.13105
 C1716 C 0.59269 0.58772 1.19584
 C1717 C 0.43317 0.34740 1.06501
 H1718 H 0.43884 0.36664 1.05940
 C1719 C 0.41814 0.29790 1.08057
 C1720 C 0.57365 0.65572 1.06464
 H1721 H 0.56642 0.63679 1.05975
 C1722 C 0.59360 0.70406 1.07809
 C1723 C 0.35448 0.43749 1.07791
 H1724 H 0.37228 0.44453 1.06926
 C1725 C 0.30850 0.41859 1.10081
 C1726 C 0.64986 0.56289 1.06568
 H1727 H 0.63098 0.55708 1.05881
 C1728 C 0.69781 0.57897 1.08530
 C1729 C 1.10630 1.11991 1.26403
 C1730 C 1.11421 1.09499 1.25717
 N1731 N 1.12970 1.08168 1.27347
 C1732 C 1.13777 1.09225 1.29623
 C1733 C 1.12964 1.11723 1.30328
 N1734 N 1.11391 1.13028 1.28690
 N1735 N 1.09198 1.13378 1.24728
 C1736 C 1.08472 1.12376 1.22411
 C1737 C 1.09157 1.09828 1.21744
 N1738 N 1.10653 1.08467 1.23419
 H1739 H 1.15035 1.08119 1.30863
 H1740 H 1.07407 1.13592 1.21103
 C1741 C 1.12804 0.60747 0.77210
 C1742 C 1.10228 0.61281 0.76575
 N1743 N 1.08745 0.62681 0.78250
 C1744 C 1.09726 0.63562 0.80535
 C1745 C 1.12300 0.62989 0.81189
 N1746 N 1.13769 0.61593 0.79496
 N1747 N 1.14317 0.59421 0.75519
 C1748 C 1.13366 0.58561 0.73225
 C1749 C 1.10751 0.59009 0.72595
 N1750 N 1.09258 0.60393 0.74294
 H1751 H 1.08505 0.64672 0.81836
 H1752 H 1.14669 0.57579 0.71907
 C1753 C 0.62817 1.10873 0.77196
 C1754 C 0.60887 1.12286 0.75941
 N1755 N 0.60179 1.14606 0.76900
 C1756 C 0.61334 1.15603 0.79038
 C1757 C 0.63345 1.14240 0.80275
 N1758 N 0.64020 1.11883 0.79318
 N1759 N 0.63471 1.08522 0.76255
 C1760 C 0.62328 1.07547 0.74089
 C1761 C 0.60465 1.09012 0.72742
 N1762 N 0.59779 1.11339 0.73752
 H1763 H 0.60713 1.17474 0.79719
 H1764 H 0.62877 1.05645 0.73454
 C1765 C 0.63138 0.61365 1.26377
 C1766 C 0.60777 0.62459 1.25639
 N1767 N 0.59735 0.64371 1.27108
 C1768 C 0.60946 0.65233 1.29285
 C1769 C 0.63294 0.64096 1.30064
 N1770 N 0.64319 0.62182 1.28572
 N1771 N 0.64247 0.59542 1.24859
 C1772 C 0.63085 0.58717 1.22655
 C1773 C 0.60645 0.59712 1.21946
 N1774 N 0.59576 0.61598 1.23459
 H1775 H 0.60061 0.66765 1.30407
 H1776 H 0.64106 0.57331 1.21467
 C1777 C 0.89764 0.88253 1.27761
 C1778 C 0.88020 0.89758 1.26345
 N1779 N 0.85503 0.89855 1.27086
 C1780 C 0.84644 0.88498 1.29166
 C1781 C 0.86363 0.86887 1.30528
 N1782 N 0.88895 0.86815 1.29783
 N1783 N 0.92305 0.88270 1.27102
 C1784 C 0.93165 0.89642 1.25030
 C1785 C 0.91386 0.90983 1.23462
 N1786 N 0.88856 0.91048 1.24213
 H1787 H 0.82617 0.88626 1.29694
 H1788 H 0.95215 0.89638 1.24603
 C1789 C 0.87126 0.37669 0.76910
 C1790 C 0.89708 0.36966 0.76444
 N1791 N 0.90863 0.35269 0.78063
 C1792 C 0.89550 0.34246 0.80122
 C1793 C 0.86965 0.34989 0.80618
 N1794 N 0.85835 0.36695 0.78984
 N1795 N 0.85917 0.39257 0.75240
 C1796 C 0.87180 0.40227 0.73145
 C1797 C 0.89820 0.39640 0.72712
 N1798 N 0.91005 0.37978 0.74372
 H1799 H 0.90526 0.32888 0.81362
 H1800 H 0.86093 0.41406 0.71822
 C1801 C 0.39489 0.86712 0.76370
 C1802 C 0.37806 0.87697 0.74486
 N1803 N 0.35217 0.87443 0.74808
 C1804 C 0.34223 0.86295 0.76955
 C1805 C 0.35888 0.85366 0.78890
 N1806 N 0.38496 0.85577 0.78540
 N1807 N 0.42081 0.86999 0.76042
 C1808 C 0.43065 0.88216 0.73916
 C1809 C 0.41379 0.89216 0.72031
 N1810 N 0.38784 0.88925 0.72378
 H1811 H 0.32143 0.86168 0.77181
 H1812 H 0.45140 0.88429 0.73719
 C1813 C 0.39802 0.37911 1.26724
 C1814 C 0.38275 0.39601 1.25271
 N1815 N 0.35771 0.39987 1.25943
 C1816 C 0.34711 0.38759 1.28009
 C1817 C 0.36221 0.37031 1.29468
 N1818 N 0.38742 0.36653 1.28778
 N1819 N 0.42323 0.37565 1.26059
 C1820 C 0.43368 0.38793 1.23974
 C1821 C 0.41809 0.40418 1.22456
 N1822 N 0.39304 0.40796 1.23177
 H1823 H 0.32701 0.39127 1.28484
 H1824 H 0.45388 0.38488 1.23507
 C1825 C 0.88693 1.11841 0.73764
 C1826 C 0.87015 1.10288 0.75234
 N1827 N 0.84472 1.10181 0.74622
 C1828 C 0.83528 1.11561 0.72607
 C1829 C 0.85192 1.13191 0.71178
 N1830 N 0.87742 1.13284 0.71806
 N1831 N 0.91255 1.11849 0.74290
 C1832 C 0.92207 1.10444 0.76279
 C1833 C 0.90506 1.09028 0.77887
 N1834 N 0.87948 1.08950 0.77279
 H1835 H 0.81489 1.11417 0.72164
 H1836 H 0.94270 1.10472 0.76611
 C1837 C 0.88551 0.62594 0.23081
 C1838 C 0.87959 0.59984 0.23443
 N1839 N 0.86599 0.58720 0.21595
 C1840 C 0.85803 0.59938 0.19409
 C1841 C 0.86436 0.62552 0.19003
 N1842 N 0.87809 0.63807 0.20869
 N1843 N 0.89812 0.63889 0.24974
 C1844 C 0.90570 0.62687 0.27178
 C1845 C 0.90115 0.60027 0.27502
 N1846 N 0.88770 0.58754 0.25624
 H1847 H 0.84713 0.58855 0.17991
 H1848 H 0.91521 0.63814 0.28659
 C1849 C 0.38452 1.10301 0.22523
 C1850 C 0.39901 1.12066 0.23977
 N1851 N 0.40270 1.14477 0.23056
 C1852 C 0.39214 1.15217 0.20765
 C1853 C 0.37667 1.13484 0.19356
 N1854 N 0.37345 1.11054 0.20270
 N1855 N 0.38122 1.07879 0.23419
 C1856 C 0.39109 1.07157 0.25743
 C1857 C 0.40439 1.08962 0.27293
 N1858 N 0.40839 1.11367 0.26328
 H1859 H 0.39503 1.17168 0.20104
 H1860 H 0.38839 1.05193 0.26359
 C1861 C 0.36738 0.61792 0.74237
 C1862 C 0.39376 0.62235 0.74695
 N1863 N 0.40799 0.63569 0.72932
 C1864 C 0.39699 0.64477 0.70728
 C1865 C 0.37066 0.63993 0.70247
 N1866 N 0.35651 0.62659 0.72022
 N1867 N 0.35294 0.60538 0.76033
 C1868 C 0.36373 0.59658 0.78252
 C1869 C 0.39047 0.60001 0.78683
 N1870 N 0.40471 0.61319 0.76892
 H1871 H 0.40875 0.65538 0.69352
 H1872 H 0.35132 0.58732 0.79664
 C1873 C 1.11334 0.86768 0.72962
 C1874 C 1.11825 0.89380 0.73422
 N1875 N 1.13292 0.90717 0.71692
 C1876 C 1.14296 0.89556 0.69530
 C1877 C 1.13796 0.86936 0.69061
 N1878 N 1.12317 0.85615 0.70801
 N1879 N 1.09931 0.85407 0.74712
 C1880 C 1.08962 0.86538 0.76892
 C1881 C 1.09384 0.89181 0.77351
 N1882 N 1.10840 0.90528 0.75597
 H1883 H 1.15472 0.90667 0.68198
 H1884 H 1.07914 0.85359 0.78266
 C1885 C 1.10715 0.37711 0.22691
 C1886 C 1.12375 0.39354 0.24064
 N1887 N 1.14819 0.39736 0.23176
 C1888 C 1.15691 0.38526 0.20996
 C1889 C 1.14069 0.36779 0.19669
 N1890 N 1.11604 0.36433 0.20558
 N1891 N 1.08238 0.37420 0.23512
 C1892 C 1.07366 0.38627 0.25691
 C1893 C 1.09075 0.40137 0.27195
 N1894 N 1.11534 0.40498 0.26293
 H1895 H 1.17661 0.38874 0.20360
 H1896 H 1.05357 0.38385 0.26230
 C1897 C 0.61833 0.90089 0.23164
 C1898 C 0.59277 0.89434 0.23809
 N1899 N 0.57903 0.87906 0.22181
 C1900 C 0.58980 0.86994 0.19940
 C1901 C 0.61547 0.87665 0.19284
 N1902 N 0.62894 0.89211 0.20923
 N1903 N 0.63250 0.91525 0.24822
 C1904 C 0.62221 0.92372 0.27097
 C1905 C 0.59624 0.91793 0.27737
 N1906 N 0.58226 0.90307 0.26071
 H1907 H 0.57839 0.85765 0.18692
 H1908 H 0.63458 0.93431 0.28400
 C1909 C 0.60957 0.40163 0.71811
 C1910 C 0.60048 0.38244 0.73505
 N1911 N 0.60374 0.35739 0.72849
 C1912 C 0.61549 0.35066 0.70574
 C1913 C 0.62479 0.36980 0.68880
 N1914 N 0.62158 0.39493 0.69546
 N1915 N 0.60578 0.42665 0.72435
 C1916 C 0.59383 0.43342 0.74696
 C1917 C 0.58548 0.41432 0.76451
 N1918 N 0.58881 0.38917 0.75788
 H1919 H 0.61743 0.33053 0.70079
 H1920 H 0.59121 0.45359 0.75138
 C1921 C 1.26682 1.12495 1.10858
 C1922 C 1.26100 1.09992 1.11667
 N1923 N 1.27678 1.08814 1.13394
 C1924 C 1.29820 1.10025 1.14330
 C1925 C 1.30444 1.12516 1.13454
 N1926 N 1.28837 1.13674 1.11739
 N1927 N 1.25068 1.13731 1.09232
 C1928 C 1.22914 1.12564 1.08319
 C1929 C 1.22365 1.09993 1.09004
 N1930 N 1.23969 1.08788 1.10709
 H1931 H 1.31039 1.09032 1.15700
 H1932 H 1.21641 1.13673 1.07107
 C1933 C 1.27114 0.62593 0.60636
 C1934 C 1.25871 0.60779 0.62226
 N1935 N 1.26862 0.60257 0.64595
 C1936 C 1.29028 0.61467 0.65453
 C1937 C 1.30255 0.63356 0.63900
 N1938 N 1.29247 0.63865 0.61514
 N1939 N 1.26193 0.63021 0.58220
 C1940 C 1.24054 0.61775 0.57343
 C1941 C 1.22691 0.60054 0.58984
 N1942 N 1.23686 0.59579 0.61384
 H1943 H 1.29745 0.60986 0.67360
 H1944 H 1.23457 0.62132 0.55372
 C1945 C 0.76112 1.13615 0.61070
 C1946 C 0.74558 1.11928 0.62526
 N1947 N 0.75152 1.11434 0.65025
 C1948 C 0.77256 1.12513 0.66138
 C1949 C 0.78866 1.14191 0.64692
 N1950 N 0.78225 1.14726 0.62183
 N1951 N 0.75528 1.14038 0.58540
 C1952 C 0.73455 1.12872 0.57415
 C1953 C 0.71866 1.11206 0.58891
 N1954 N 0.72487 1.10782 0.61415
 H1955 H 0.77661 1.12042 0.68140
 H1956 H 0.73089 1.13222 0.55383
 C1957 C 0.76699 0.60508 1.12028
 C1958 C 0.76158 0.61113 1.09433
 N1959 N 0.77848 0.62592 1.08065
 C1960 C 0.80044 0.63504 1.09189
 C1961 C 0.80586 0.62874 1.11784
 N1962 N 0.78896 0.61383 1.13130
 N1963 N 0.74970 0.59149 1.13448
 C1964 C 0.72729 0.58324 1.12386
 C1965 C 0.72198 0.58835 1.09749
 N1966 N 0.73931 0.60252 1.08346
 H1967 H 0.81344 0.64712 1.08076
 H1968 H 0.71366 0.57330 1.13627
 C1969 C 1.26432 0.87453 0.88864
 C1970 C 1.24996 0.89021 0.87199
 N1971 N 1.25781 0.89327 0.84701
 C1972 C 1.27932 0.88117 0.83784
 C1973 C 1.29328 0.86464 0.85428
 N1974 N 1.28534 0.86188 0.87937
 N1975 N 1.25713 0.87228 0.91387
 C1976 C 1.23570 0.88438 0.92308
 C1977 C 1.22016 0.89884 0.90607
 N1978 N 1.22811 0.90173 0.88096
 H1979 H 1.28502 0.88403 0.81778
 H1980 H 1.23095 0.88251 0.94347
 C1981 C 1.26461 0.37343 0.38997
 C1982 C 1.24944 0.38832 0.37322
 N1983 N 1.25654 0.39082 0.34802
 C1984 C 1.27832 0.37940 0.33880
 C1985 C 1.29376 0.36436 0.35546
 N1986 N 1.28624 0.36155 0.38072
 N1987 N 1.25797 0.37191 0.41544
 C1988 C 1.23662 0.38417 0.42480
 C1989 C 1.22070 0.39830 0.40781
 N1990 N 1.22785 0.40016 0.38241
 H1991 H 1.28344 0.38213 0.31857
 H1992 H 1.23229 0.38287 0.44534
 C1993 C 0.76474 0.88723 0.36864
 C1994 C 0.75636 0.87977 0.39335
 N1995 N 0.76901 0.86064 0.40594
 C1996 C 0.78996 0.84884 0.39494
 C1997 C 0.79872 0.85675 0.37033
 N1998 N 0.78566 0.87571 0.35785
 N1999 N 0.75211 0.90616 0.35592
 C2000 C 0.73140 0.91821 0.36686
 C2001 C 0.72294 0.91117 0.39197
 N2002 N 0.73581 0.89190 0.40439
 H2003 H 0.79999 0.83401 0.40555
 H2004 H 0.72166 0.93269 0.35565
 C2005 C 0.76426 0.38604 0.86501
 C2006 C 0.74648 0.37091 0.87893
 N2007 N 0.75089 0.34546 0.88183
 C2008 C 0.77258 0.33445 0.87186
 C2009 C 0.79084 0.34959 0.85845
 N2010 N 0.78609 0.37509 0.85511
 N2011 N 0.75989 0.41161 0.86257
 C2012 C 0.73857 0.42274 0.87346
 C2013 C 0.72081 0.40760 0.88761
 N2014 N 0.72535 0.38199 0.88987
 H2015 H 0.77578 0.31413 0.87486
 H2016 H 0.73589 0.44324 0.87154
 C2017 C 0.72269 0.88627 1.10567
 C2018 C 0.73870 0.89647 1.12510
 N2019 N 0.73040 0.89636 1.15017
 C2020 C 0.70686 0.88652 1.15669
 C2021 C 0.69095 0.87590 1.13731
 N2022 N 0.69934 0.87607 1.11219
 N2023 N 0.73060 0.88699 1.08054
 C2024 C 0.75403 0.89693 1.07394
 C2025 C 0.77075 0.90622 1.09342
 N2026 N 0.76236 0.90605 1.11860
 H2027 H 0.70071 0.88679 1.17684
 H2028 H 0.75948 0.89748 1.05362
 C2029 C 0.72791 0.39696 0.62326
 C2030 C 0.73509 0.39114 0.59753
 N2031 N 0.71816 0.37862 0.58199
 C2032 C 0.69452 0.37132 0.59108
 C2033 C 0.68720 0.37696 0.61701
 N2034 N 0.70417 0.38997 0.63233
 N2035 N 0.74523 0.40846 0.63912
 C2036 C 0.76927 0.41475 0.63040
 C2037 C 0.77645 0.40970 0.60431
 N2038 N 0.75903 0.39772 0.58862
 H2039 H 0.68171 0.36104 0.57815
 H2040 H 0.78266 0.42319 0.64402
 C2041 C 0.23222 0.89549 0.61319
 C2042 C 0.24670 0.87925 0.59682
 N2043 N 0.23886 0.85477 0.59286
 C2044 C 0.21733 0.84560 0.60482
 C2045 C 0.20321 0.86146 0.62218
 N2046 N 0.21101 0.88620 0.62575
 N2047 N 0.23980 0.92019 0.61650
 C2048 C 0.26170 0.92914 0.60488
 C2049 C 0.27725 0.91238 0.58980
 N2050 N 0.26888 0.88793 0.58580
 H2051 H 0.21181 0.82585 0.60123
 H2052 H 0.26690 0.94905 0.60774
 C2053 C 0.23898 0.38751 1.13314
 C2054 C 0.25148 0.37537 1.11233
 N2055 N 0.24108 0.35357 1.10209
 C2056 C 0.21862 0.34344 1.11178
 C2057 C 0.20604 0.35565 1.13284
 N2058 N 0.21683 0.37740 1.14286
 N2059 N 0.24884 0.40951 1.14310
 C2060 C 0.27087 0.42005 1.13330
 C2061 C 0.28404 0.40791 1.11247
 N2062 N 0.27367 0.38575 1.10256
 H2063 H 0.21077 0.32616 1.10313
 H2064 H 0.27742 0.43782 1.14176
 C2065 C 0.72850 1.10663 0.87581
 C2066 C 0.74366 1.12163 0.89257
 N2067 N 0.73797 1.14674 0.89606
 C2068 C 0.71775 1.15765 0.88364
 C2069 C 0.70247 1.14288 0.86643
 N2070 N 0.70841 1.11758 0.86291
 N2071 N 0.73390 1.08128 0.87305
 C2072 C 0.75406 1.07040 0.88584
 C2073 C 0.77004 1.08566 0.90189
 N2074 N 0.76403 1.11093 0.90497
 H2075 H 0.71392 1.17781 0.88710
 H2076 H 0.75738 1.05004 0.88344
 C2077 C 0.74179 0.62870 0.38598
 C2078 C 0.74576 0.60284 0.37929
 N2079 N 0.72850 0.59084 0.36360
 C2080 C 0.70741 0.60351 0.35443
 C2081 C 0.70314 0.62931 0.36158
 N2082 N 0.72059 0.64122 0.37721
 N2083 N 0.75929 0.64100 0.40100
 C2084 C 0.78039 0.62855 0.41013
 C2085 C 0.78410 0.60224 0.40446
 N2086 N 0.76670 0.59016 0.38874
 H2087 H 0.69394 0.59343 0.34203
 H2088 H 0.79419 0.63936 0.42144
 C2089 C 0.22890 1.12587 0.39701
 C2090 C 0.23657 1.10084 0.39032
 N2091 N 0.22159 1.08658 0.37437
 C2092 C 0.19941 1.09625 0.36447
 C2093 C 0.19151 1.12154 0.37083
 N2094 N 0.20651 1.13565 0.38730
 N2095 N 0.24449 1.14030 0.41233
 C2096 C 0.26727 1.13083 0.42134
 C2097 C 0.27495 1.10548 0.41496
 N2098 N 0.25917 1.09129 0.39943
 H2099 H 0.18816 1.08417 0.35164
 H2100 H 0.27934 1.14338 0.43278
 C2101 C 0.22416 0.61855 0.90797
 C2102 C 0.23904 0.60301 0.89132
 N2103 N 0.23046 0.59783 0.86700
 C2104 C 0.20770 0.60769 0.85849
 C2105 C 0.19303 0.62378 0.87495
 N2106 N 0.20167 0.62870 0.89938
 N2107 N 0.23250 0.62335 0.93241
 C2108 C 0.25535 0.61373 0.94087
 C2109 C 0.27092 0.59887 0.92393
 N2110 N 0.26202 0.59369 0.89959
 H2111 H 0.20143 0.60340 0.83894
 H2112 H 0.26104 0.61760 0.96066
 C2113 C 1.13166 1.25727 1.11270
 C2114 C 1.10488 1.25472 1.11665
 N2115 N 1.09191 1.27351 1.12971
 C2116 C 1.10449 1.29467 1.13892
 C2117 C 1.13131 1.29748 1.13460
 N2118 N 1.14418 1.27853 1.12153
 N2119 N 1.14485 1.23827 1.10038
 C2120 C 1.13249 1.21704 1.09135
 C2121 C 1.10537 1.21464 1.09423
 N2122 N 1.09231 1.23360 1.10727
 H2123 H 1.09360 1.30926 1.14928
 H2124 H 1.14395 1.20212 1.08222
 C2125 C 1.10823 0.76574 0.62224
 C2126 C 1.12580 0.74825 0.61099
 N2127 N 1.15151 0.75316 0.61185
 C2128 C 1.16049 0.77498 0.62308
 C2129 C 1.14299 0.79277 0.63400
 N2130 N 1.11718 0.78764 0.63347
 N2131 N 1.08249 0.76088 0.62105
 C2132 C 1.07353 0.73920 0.60938
 C2133 C 1.09112 0.72150 0.59836
 N2134 N 1.11688 0.72663 0.59938
 H2135 H 1.18112 0.77863 0.62304
 H2136 H 1.05288 0.73582 0.60874
 C2137 C 0.59837 1.27403 0.61961
 C2138 C 0.60180 1.26823 0.59319
 N2139 N 0.61372 1.28548 0.57739
 C2140 C 0.62264 1.30819 0.58699
 C2141 C 0.61929 1.31388 0.61353
 N2142 N 0.60706 1.29664 0.62908
 N2143 N 0.58758 1.25650 0.63571
 C2144 C 0.57985 1.23330 0.62662
 C2145 C 0.58278 1.22735 0.59997
 N2146 N 0.59386 1.24512 0.58397
 H2147 H 0.63248 1.32146 0.57414
 H2148 H 0.57228 1.21960 0.64041
 C2149 C 0.62445 0.77615 1.10099
 C2150 C 0.59792 0.77085 1.10359
 N2151 N 0.58203 0.78862 1.11454
 C2152 C 0.59155 0.81126 1.12353
 C2153 C 0.61825 0.81639 1.12163
 N2154 N 0.63404 0.79871 1.11010
 N2155 N 0.64041 0.75809 1.09064
 C2156 C 0.63108 0.73493 1.08280
 C2157 C 0.60446 0.72941 1.08551
 N2158 N 0.58859 0.74770 1.09590
 H2159 H 0.57848 0.82484 1.13269
 H2160 H 0.64452 0.72079 1.07528
 C2161 C 0.89127 1.25980 0.88902
 C2162 C 0.87309 1.24295 0.90013
 N2163 N 0.84749 1.24806 0.89815
 C2164 C 0.83919 1.26919 0.88534
 C2165 C 0.85730 1.28575 0.87355
 N2166 N 0.88300 1.28068 0.87579
 N2167 N 0.91687 1.25480 0.89133
 C2168 C 0.92514 1.23329 0.90358
 C2169 C 0.90692 1.21562 0.91352
 N2170 N 0.88130 1.22124 0.91190
 H2171 H 0.81861 1.27271 0.88395
 H2172 H 0.94571 1.22987 0.90511
 C2173 C 0.87255 0.75800 0.38822
 C2174 C 0.89870 0.75366 0.38212
 N2175 N 0.91185 0.77145 0.36795
 C2176 C 0.90002 0.79331 0.35963
 C2177 C 0.87385 0.79781 0.36598
 N2178 N 0.86084 0.77988 0.38018
 N2179 N 0.85911 0.74009 0.40173
 C2180 C 0.87065 0.71816 0.40986
 C2181 C 0.89717 0.71387 0.40463
 N2182 N 0.91046 0.73179 0.39049
 H2183 H 0.91097 0.80704 0.34827
 H2184 H 0.85900 0.70413 0.42005
 C2185 C 0.36725 1.26982 0.38983
 C2186 C 0.39330 1.26480 0.38388
 N2187 N 0.40657 1.28127 0.36833
 C2188 C 0.39490 1.30238 0.35823
 C2189 C 0.36867 1.30740 0.36391
 N2190 N 0.35554 1.29092 0.37977
 N2191 N 0.35383 1.25307 0.40488
 C2192 C 0.36526 1.23158 0.41441
 C2193 C 0.39154 1.22644 0.40874
 N2194 N 0.40480 1.24334 0.39340
 H2195 H 0.40596 1.31495 0.34566
 H2196 H 0.35362 1.21844 0.42573
 C2197 C 0.39177 0.77192 0.88112
 C2198 C 0.37436 0.75685 0.89562
 N2199 N 0.34894 0.76326 0.89623
 C2200 C 0.34009 0.78390 0.88284
 C2201 C 0.35732 0.79858 0.86759
 N2202 N 0.38287 0.79222 0.86719
 N2203 N 0.41727 0.76591 0.88106
 C2204 C 0.42609 0.74510 0.89415
 C2205 C 0.40854 0.72891 0.90747
 N2206 N 0.38304 0.73562 0.90821
 H2207 H 0.31966 0.78839 0.88359
 H2208 H 0.44662 0.74110 0.89380
 C2209 C 1.09431 0.72174 0.89074
 C2210 C 1.11107 0.73690 0.90567
 N2211 N 1.13534 0.72838 0.91056
 C2212 C 1.14376 0.70555 0.90080
 C2213 C 1.12735 0.69080 0.88491
 N2214 N 1.10288 0.69925 0.88046
 N2215 N 1.06991 0.73003 0.88627
 C2216 C 1.06169 0.75316 0.89539
 C2217 C 1.07891 0.76922 0.90911
 N2218 N 1.10311 0.76028 0.91428
 H2219 H 1.16338 0.69946 0.90466
 H2220 H 1.04193 0.75880 0.89177
 C2221 C 1.12762 0.23002 0.38370
 C2222 C 1.10139 0.23431 0.37813
 N2223 N 1.08809 0.21628 0.36461
 C2224 C 1.09973 0.19420 0.35651
 C2225 C 1.12591 0.18954 0.36247
 N2226 N 1.13923 0.20774 0.37599
 N2227 N 1.14111 0.24831 0.39661
 C2228 C 1.12952 0.27039 0.40473
 C2229 C 1.10286 0.27442 0.40028
 N2230 N 1.08958 0.25624 0.38662
 H2231 H 1.08848 0.18021 0.34583
 H2232 H 1.14117 0.28464 0.41454
 C2233 C 0.61930 0.74120 0.36803
 C2234 C 0.62628 0.74729 0.39359
 N2235 N 0.64201 0.73109 0.40679
 C2236 C 0.65093 0.70900 0.39559
 C2237 C 0.64344 0.70265 0.37013
 N2238 N 0.62783 0.71907 0.35704
 N2239 N 0.60421 0.75754 0.35448
 C2240 C 0.59530 0.77959 0.36544
 C2241 C 0.60132 0.78552 0.39149
 N2242 N 0.61707 0.76920 0.40478
 H2243 H 0.66334 0.69639 0.40657
 H2244 H 0.58393 0.79237 0.35362
 C2245 C 0.60815 0.24130 0.87153
 C2246 C 0.62496 0.25818 0.88438
 N2247 N 0.65049 0.25243 0.88593
 C2248 C 0.65997 0.23042 0.87527
 C2249 C 0.64316 0.21357 0.86223
 N2250 N 0.61761 0.21950 0.86064
 N2251 N 0.58252 0.24666 0.87068
 C2252 C 0.57292 0.26837 0.88179
 C2253 C 0.58980 0.28581 0.89411
 N2254 N 0.61546 0.28000 0.89521
 H2255 H 0.68038 0.22615 0.87695
 H2256 H 0.55229 0.27166 0.88120
 C2257 C 0.89539 0.73215 1.12511
 C2258 C 0.87716 0.74838 1.11342
 N2259 N 0.85206 0.74100 1.11228
 C2260 C 0.84437 0.71798 1.12194
 C2261 C 0.86255 0.70144 1.13338
 N2262 N 0.88773 0.70904 1.13484
 N2263 N 0.92058 0.73942 1.12569
 C2264 C 0.92835 0.76220 1.11535
 C2265 C 0.91008 0.77870 1.10384
 N2266 N 0.88487 0.77114 1.10312
 H2267 H 0.82424 0.71246 1.12036
 H2268 H 0.94868 0.76713 1.11583
 C2269 C 0.87652 0.22847 0.61529
 C2270 C 0.89118 0.24293 0.63300
 N2271 N 0.89236 0.23531 0.65812
 C2272 C 0.87945 0.21405 0.66639
 C2273 C 0.86412 0.19984 0.64890
 N2274 N 0.86309 0.20748 0.62363
 N2275 N 0.87594 0.23569 0.59004
 C2276 C 0.88873 0.25702 0.58178
 C2277 C 0.90237 0.27251 0.59969
 N2278 N 0.90353 0.26464 0.62491
 H2279 H 0.88069 0.20864 0.68662
 H2280 H 0.88808 0.26178 0.56137
 C2281 C 0.38314 0.73030 0.60180
 C2282 C 0.39103 0.74883 0.62009
 N2283 N 0.38569 0.74518 0.64560
 C2284 C 0.37319 0.72374 0.65377
 C2285 C 0.36554 0.70486 0.63569
 N2286 N 0.37064 0.70864 0.60995
 N2287 N 0.38860 0.73410 0.57626
 C2288 C 0.40125 0.75562 0.56819
 C2289 C 0.40896 0.77434 0.58646
 N2290 N 0.40368 0.77030 0.61206
 H2291 H 0.36963 0.72119 0.67436
 H2292 H 0.40508 0.75825 0.54767
 C2293 C 0.39512 0.22624 1.11187
 C2294 C 0.37677 0.24276 1.10091
 N2295 N 0.35133 0.23621 1.10168
 C2296 C 0.34343 0.21399 1.11315
 C2297 C 0.36175 0.19790 1.12491
 N2298 N 0.38720 0.20445 1.12382
 N2299 N 0.42057 0.23230 1.11054
 C2300 C 0.42856 0.25453 1.09942
 C2301 C 0.41020 0.27202 1.08970
 N2302 N 0.38466 0.26535 1.09030
 H2303 H 0.32303 0.20926 1.11362
 H2304 H 0.44908 0.25850 1.09844
 C2305 C 1.10044 1.10880 0.72530
 C2306 C 1.11704 1.09303 0.73960
 N2307 N 1.14168 1.08922 0.73117
 C2308 C 1.15063 1.10091 0.70931
 C2309 C 1.13436 1.11763 0.69554
 N2310 N 1.10951 1.12095 0.70383
 N2311 N 1.07572 1.11231 0.73352
 C2312 C 1.06701 1.10136 0.75584
 C2313 C 1.08402 1.08669 0.77115
 N2314 N 1.10855 1.08255 0.76220
 H2315 H 1.17052 1.09788 0.70333
 H2316 H 1.04705 1.10432 0.76149
 C2317 C 1.13191 0.61607 0.23523
 C2318 C 1.10578 0.62186 0.23988
 N2319 N 1.09318 0.63757 0.22321
 C2320 C 1.10554 0.64777 0.20216
 C2321 C 1.13178 0.64174 0.19722
 N2322 N 1.14416 0.62588 0.21404
 N2323 N 1.14487 0.60126 0.25232
 C2324 C 1.13285 0.59155 0.27367
 C2325 C 1.10625 0.59636 0.27813
 N2326 N 1.09350 0.61181 0.26107
 H2327 H 1.09488 0.66034 0.18941
 H2328 H 1.14430 0.58057 0.28712
 C2329 C 0.62060 1.11718 0.23439
 C2330 C 0.60644 1.13421 0.25028
 N2331 N 0.60656 1.15959 0.24491
 C2332 C 0.61995 1.16879 0.22421
 C2333 C 0.63442 1.15189 0.20815
 N2334 N 0.63452 1.12637 0.21388
 N2335 N 0.61959 1.09166 0.23934
 C2336 C 0.60566 1.08249 0.25980
 C2337 C 0.59249 1.09968 0.27661
 N2338 N 0.59301 1.12517 0.27106
 H2339 H 0.61932 1.18922 0.22049
 H2340 H 0.60517 1.06199 0.26304
 C2341 C 0.62131 0.61254 0.72785
 C2342 C 0.59417 0.61044 0.72832
 N2343 N 0.58072 0.61462 0.70620
 C2344 C 0.59313 0.62111 0.68377
 C2345 C 0.62029 0.62331 0.68326
 N2346 N 0.63373 0.61890 0.70542
 N2347 N 0.63477 0.60882 0.75001
 C2348 C 0.62242 0.60267 0.77251
 C2349 C 0.59529 0.59990 0.77300
 N2350 N 0.58175 0.60405 0.75080
 H2351 H 0.58187 0.62496 0.66657
 H2352 H 0.63371 0.59947 0.78983
 C2353 C 0.87334 0.88557 0.72373
 C2354 C 0.89933 0.88034 0.72947
 N2355 N 0.91413 0.86756 0.71177
 C2356 C 0.90411 0.85974 0.68867
 C2357 C 0.87812 0.86517 0.68272
 N2358 N 0.86338 0.87805 0.70052
 N2359 N 0.85832 0.89758 0.74170
 C2360 C 0.86811 0.90503 0.76497
 C2361 C 0.89447 0.90069 0.77064
 N2362 N 0.90932 0.88808 0.75263
 H2363 H 0.91637 0.84947 0.67503
 H2364 H 0.85519 0.91394 0.77892
 C2365 C 0.88244 0.36842 0.23665
 C2366 C 0.87509 0.39374 0.24234
 N2367 N 0.85862 0.40602 0.22608
 C2368 C 0.84937 0.39415 0.20434
 C2369 C 0.85747 0.36895 0.19814
 N2370 N 0.87382 0.35686 0.21472
 N2371 N 0.89782 0.35558 0.25330
 C2372 C 0.90682 0.36702 0.27514
 C2373 C 0.90089 0.39304 0.28048
 N2374 N 0.88464 0.40559 0.26395
 H2375 H 0.83633 0.40452 0.19181
 H2376 H 0.91822 0.35553 0.28818
 C2377 C 0.38049 0.88043 0.24252
 C2378 C 0.37717 0.90700 0.24604
 N2379 N 0.36598 0.92102 0.22700
 C2380 C 0.35818 0.90969 0.20452
 C2381 C 0.36219 0.88320 0.20072
 N2382 N 0.37317 0.86924 0.21997
 N2383 N 0.39123 0.86625 0.26160
 C2384 C 0.39947 0.87750 0.28385
 C2385 C 0.39742 0.90433 0.28703
 N2386 N 0.38583 0.91839 0.26812
 H2387 H 0.34946 0.92134 0.18958
 H2388 H 0.40774 0.86555 0.29879
 C2389 C 0.37574 0.40018 0.72898
 C2390 C 0.39459 0.38600 0.74200
 N2391 N 0.40352 0.36378 0.73133
 C2392 C 0.39415 0.35494 0.70832
 C2393 C 0.37452 0.36873 0.69560
 N2394 N 0.36603 0.39117 0.70635
 N2395 N 0.36725 0.42266 0.73925
 C2396 C 0.37638 0.43146 0.76231
 C2397 C 0.39461 0.41680 0.77620
 N2398 N 0.40341 0.39450 0.76527
 H2399 H 0.40152 0.33704 0.70049
 H2400 H 0.36944 0.44978 0.76927
 C2401 C 1.12455 0.89324 1.27355
 C2402 C 1.10697 0.87784 1.25990
 N2403 N 1.10056 0.85442 1.26944
 C2404 C 1.11100 0.84563 1.29192
 C2405 C 1.12921 0.86076 1.30552
 N2406 N 1.13543 0.88434 1.29579
 N2407 N 1.13024 0.91700 1.26450
 C2408 C 1.11959 0.92593 1.24219
 C2409 C 1.10268 0.91017 1.22761
 N2410 N 1.09664 0.88650 1.23729
 H2411 H 1.10536 0.82682 1.29880
 H2412 H 1.12423 0.94527 1.23634
 C2413 C 1.12287 0.39140 0.77093
 C2414 C 1.10818 0.37438 0.75587
 N2415 N 1.10440 0.34995 0.76427
 C2416 C 1.11479 0.34176 0.78702
 C2417 C 1.12995 0.35870 0.80188
 N2418 N 1.13350 0.38316 0.79338
 N2419 N 1.12625 0.41593 0.76293
 C2420 C 1.11601 0.42420 0.74024
 C2421 C 1.10198 0.40700 0.72445
 N2422 N 1.09819 0.38249 0.73298
 H2423 H 1.11155 0.32217 0.79320
 H2424 H 1.11869 0.44407 0.73487
 C2425 C 0.62779 0.89326 0.75997
 C2426 C 0.61691 0.87543 0.74261
 N2427 N 0.61658 0.85019 0.74884
 C2428 C 0.62630 0.84194 0.77177
 C2429 C 0.63697 0.85969 0.78943
 N2430 N 0.63761 0.88505 0.78298
 N2431 N 0.62752 0.91857 0.75388
 C2432 C 0.61709 0.92687 0.73121
 C2433 C 0.60642 0.90902 0.71354
 N2434 N 0.60655 0.88367 0.71994
 H2435 H 0.62540 0.82169 0.77634
 H2436 H 0.61683 0.94725 0.72731
 C2437 C 0.60982 0.37630 1.26836
 C2438 C 0.62545 0.39304 1.25373
 N2439 N 0.64993 0.39789 1.26135
 C2440 C 0.65963 0.38681 1.28296
 C2441 C 0.64426 0.36962 1.29773
 N2442 N 0.61957 0.36478 1.28990
 N2443 N 0.58506 0.37211 1.26090
 C2444 C 0.57543 0.38344 1.23924
 C2445 C 0.59144 0.39947 1.22389
 N2446 N 0.61603 0.40402 1.23192
 H2447 H 0.67935 0.39132 1.28826
 H2448 H 0.55546 0.37993 1.23425
 C2449 C 0.86487 1.12618 1.25837
 C2450 C 0.89130 1.13140 1.25485
 N2451 N 0.90348 1.14693 1.27216
 C2452 C 0.89046 1.15742 1.29277
 C2453 C 0.86395 1.15181 1.29665
 N2454 N 0.85198 1.13621 1.27914
 N2455 N 0.85231 1.11157 1.24070
 C2456 C 0.86501 1.10138 1.21993
 C2457 C 0.89190 1.10538 1.21673
 N2458 N 0.90431 1.12079 1.23425
 H2459 H 0.90081 1.16980 1.30606
 H2460 H 0.85399 1.09039 1.20600
 C2461 C 0.90868 0.60201 0.78804
 C2462 C 0.89099 0.58789 0.77313
 N2463 N 0.86634 0.58491 0.78179
 C2464 C 0.85842 0.59587 0.80448
 C2465 C 0.87577 0.61109 0.81885
 N2466 N 0.90063 0.61357 0.81033
 N2467 N 0.93343 0.60454 0.77961
 C2468 C 0.94112 0.59437 0.75648
 C2469 C 0.92299 0.58170 0.74052
 N2470 N 0.89844 0.57834 0.74970
 H2471 H 0.83849 0.59356 0.81065
 H2472 H 0.96114 0.59652 0.75065
 C2473 C 0.37863 1.10177 0.77688
 C2474 C 0.40447 1.10825 0.77132
 N2475 N 0.41742 1.12403 0.78765
 C2476 C 0.40560 1.13407 0.80902
 C2477 C 0.37943 1.12806 0.81454
 N2478 N 0.36675 1.11164 0.79836
 N2479 N 0.36542 1.08683 0.75994
 C2480 C 0.37682 1.07798 0.73778
 C2481 C 0.40294 1.08412 0.73220
 N2482 N 0.41598 1.09929 0.74929
 H2483 H 0.41654 1.14691 0.82135
 H2484 H 0.36517 1.06692 0.72447
 C2485 C 0.40295 0.62447 1.27690
 C2486 C 0.39792 0.59878 1.27028
 N2487 N 0.38412 0.58386 1.28685
 C2488 C 0.37465 0.59358 1.30952
 C2489 C 0.37926 0.61955 1.31615
 N2490 N 0.39371 0.63421 1.29967
 N2491 N 0.41568 0.63968 1.25979
 C2492 C 0.42379 0.63041 1.23641
 C2493 C 0.41924 0.60443 1.22972
 N2494 N 0.40623 0.58936 1.24703
 H2495 H 0.36335 0.58116 1.32204
 H2496 H 0.43299 0.64360 1.22310
 C2497 C 1.11123 1.26247 0.87294
 C2498 C 1.11959 1.25555 0.89777
 N2499 N 1.13672 1.27091 0.91037
 C2500 C 1.14578 1.29292 0.89925
 C2501 C 1.13702 1.30014 0.87442
 N2502 N 1.11991 1.28451 0.86203
 N2503 N 1.09487 1.24687 0.85987
 C2504 C 1.08606 1.22474 0.87060
 C2505 C 1.09354 1.21790 0.89600
 N2506 N 1.11050 1.23355 0.90879
 H2507 H 1.15941 1.30470 0.90982
 H2508 H 1.07377 1.21260 0.85896
 C2509 C 1.10074 0.76767 0.38376
 C2510 C 1.11821 0.75221 0.39745
 N2511 N 1.14336 0.75941 0.39917
 C2512 C 1.15184 0.78137 0.38777
 C2513 C 1.13450 0.79662 0.37361
 N2514 N 1.10928 0.78937 0.37197
 N2515 N 1.07548 0.76082 0.38266
 C2516 C 1.06697 0.73888 0.39406
 C2517 C 1.08464 0.72263 0.40678
 N2518 N 1.10984 0.73004 0.40843
 H2519 H 1.17200 0.78671 0.38950
 H2520 H 1.04662 0.73420 0.39303
 C2521 C 0.60609 1.27933 0.37426
 C2522 C 0.61971 1.26659 0.39384
 N2523 N 0.64322 1.27547 0.40107
 C2524 C 0.65392 1.29634 0.38942
 C2525 C 0.64080 1.30879 0.36899
 N2526 N 0.61698 1.29989 0.36207
 N2527 N 0.58219 1.27087 0.36774
 C2528 C 0.57153 1.24994 0.37940
 C2529 C 0.58568 1.23611 0.39821
 N2530 N 0.60939 1.24531 0.40509
 H2531 H 0.67283 1.30263 0.39573
 H2532 H 0.55219 1.24453 0.37389
 C2533 C 0.62650 0.76036 0.88275
 C2534 C 0.60022 0.75560 0.87797
 N2535 N 0.58630 0.77291 0.86422
 C2536 C 0.59755 0.79474 0.85503
 C2537 C 0.62376 0.79965 0.86029
 N2538 N 0.63755 0.78227 0.87405
 N2539 N 0.64079 0.74269 0.89540
 C2540 C 0.62993 0.72061 0.90405
 C2541 C 0.60324 0.71611 0.90045
 N2542 N 0.58913 0.73373 0.88708
 H2543 H 0.58616 0.80817 0.84392
 H2544 H 0.64226 0.70671 0.91334
 C2545 C 0.87531 1.26583 1.10611
 C2546 C 0.89019 1.25129 1.12336
 N2547 N 0.89325 1.25975 1.14817
 C2548 C 0.88196 1.28199 1.15651
 C2549 C 0.86656 1.29628 1.13936
 N2550 N 0.86377 1.28775 1.11451
 N2551 N 0.87256 1.25780 1.08123
 C2552 C 0.88353 1.23556 1.07284
 C2553 C 0.89764 1.22020 1.09024
 N2554 N 0.90092 1.22878 1.11512
 H2555 H 0.88466 1.28821 1.17639
 H2556 H 0.88117 1.23001 1.05273
 C2557 C 0.90596 0.76797 0.61052
 C2558 C 0.88937 0.75332 0.59488
 N2559 N 0.86602 0.76293 0.58813
 C2560 C 0.85833 0.78644 0.59663
 C2561 C 0.87452 0.80081 0.61310
 N2562 N 0.89809 0.79121 0.61952
 N2563 N 0.92954 0.75856 0.61672
 C2564 C 0.93706 0.73485 0.60857
 C2565 C 0.91991 0.71943 0.59402
 N2566 N 0.89661 0.72944 0.58722
 H2567 H 0.83942 0.79346 0.59121
 H2568 H 0.95625 0.72838 0.61348
 C2569 C 0.39764 1.27212 0.62588
 C2570 C 0.38282 1.25946 0.60709
 N2571 N 0.36067 1.27049 0.59857
 C2572 C 0.35254 1.29350 0.60824
 C2573 C 0.36692 1.30584 0.62787
 N2574 N 0.38927 1.29472 0.63601
 N2575 N 0.42022 1.26165 0.63373
 C2576 C 0.42846 1.23874 0.62412
 C2577 C 0.41303 1.22508 0.60617
 N2578 N 0.39068 1.23623 0.59788
 H2579 H 0.33469 1.30164 0.60111
 H2580 H 0.44698 1.23170 0.63047
 C2581 C 0.38421 0.78145 1.10859
 C2582 C 0.39845 0.76765 1.12703
 N2583 N 0.39969 0.77666 1.15176
 C2584 C 0.38734 0.79872 1.15888
 C2585 C 0.37229 0.81226 1.14063
 N2586 N 0.37120 0.80307 1.11583
 N2587 N 0.38398 0.77324 1.08361
 C2588 C 0.39660 0.75147 1.07633
 C2589 C 0.40951 0.73642 1.09503
 N2590 N 0.41048 0.74533 1.11999
 H2591 H 0.38893 0.80527 1.17879
 H2592 H 0.39624 0.74591 1.05608
 C2593 C 0.87739 0.72800 0.89502
 C2594 C 0.90316 0.73380 0.88857
 N2595 N 0.91761 0.71618 0.87540
 C2596 C 0.90743 0.69302 0.86847
 C2597 C 0.88170 0.68709 0.87532
 N2598 N 0.86739 0.70487 0.88842
 N2599 N 0.86264 0.74562 0.90759
 C2600 C 0.87257 0.76874 0.91450
 C2601 C 0.89871 0.77449 0.90900
 N2602 N 0.91330 0.75686 0.89576
 H2603 H 0.91935 0.67934 0.85797
 H2604 H 0.85998 0.78249 0.92402
 C2605 C 0.89116 0.23555 0.38266
 C2606 C 0.87469 0.25089 0.39802
 N2607 N 0.84892 0.24626 0.39817
 C2608 C 0.83877 0.22714 0.38343
 C2609 C 0.85508 0.21234 0.36708
 N2610 N 0.88101 0.21693 0.36729
 N2611 N 0.91703 0.23970 0.38317
 C2612 C 0.92709 0.25915 0.39755
 C2613 C 0.91044 0.27587 0.41142
 N2614 N 0.88461 0.27084 0.41172
 H2615 H 0.81805 0.22409 0.38404
 H2616 H 0.94783 0.26189 0.39753
 C2617 C 0.39760 0.72534 0.37984
 C2618 C 0.37968 0.74045 0.39364
 N2619 N 0.35532 0.73141 0.39757
 C2620 C 0.34810 0.70793 0.38838
 C2621 C 0.36597 0.69276 0.37434
 N2622 N 0.39037 0.70199 0.37041
 N2623 N 0.42213 0.73402 0.37652
 C2624 C 0.42953 0.75727 0.38603
 C2625 C 0.41148 0.77300 0.39934
 N2626 N 0.38694 0.76386 0.40296
 H2627 H 0.32857 0.70125 0.39195
 H2628 H 0.44947 0.76303 0.38348
 C2629 C 0.37085 0.24022 0.89163
 C2630 C 0.39689 0.24571 0.88591
 N2631 N 0.41151 0.22804 0.87322
 C2632 C 0.40127 0.20516 0.86581
 C2633 C 0.37511 0.19941 0.87156
 N2634 N 0.36061 0.21721 0.88455
 N2635 N 0.35606 0.25824 0.90361
 C2636 C 0.36619 0.28133 0.91053
 C2637 C 0.39259 0.28666 0.90565
 N2638 N 0.40717 0.26864 0.89312
 H2639 H 0.41358 0.19165 0.85553
 H2640 H 0.35358 0.29537 0.91958
 C2641 C 1.10329 0.73074 1.11898
 C2642 C 1.11907 0.74498 1.10202
 N2643 N 1.14391 0.73772 1.09788
 C2644 C 1.15390 0.71707 1.11027
 C2645 C 1.13849 0.70327 1.12822
 N2646 N 1.11337 0.71042 1.13187
 N2647 N 1.07830 0.73781 1.12271
 C2648 C 1.06859 0.75897 1.11089
 C2649 C 1.08483 0.77424 1.09507
 N2650 N 1.10960 0.76641 1.09070
 H2651 H 1.17391 0.71203 1.10659
 H2652 H 1.04850 0.76387 1.11416
 C2653 C 1.12905 0.23147 0.61680
 C2654 C 1.10347 0.23651 0.62456
 N2655 N 1.09103 0.21957 0.64029
 C2656 C 1.10298 0.19777 0.64846
 C2657 C 1.12849 0.19232 0.64009
 N2658 N 1.14078 0.20952 0.62444
 N2659 N 1.14193 0.24872 0.60197
 C2660 C 1.13025 0.27058 0.59396
 C2661 C 1.10406 0.27529 0.60047
 N2662 N 1.09147 0.25815 0.61609
 H2663 H 1.09246 0.18470 0.66099
 H2664 H 1.14158 0.28412 0.58280
 C2665 C 0.62730 0.73035 0.59782
 C2666 C 0.60071 0.73512 0.60076
 N2667 N 0.58529 0.71707 0.61186
 C2668 C 0.59536 0.69456 0.62043
 C2669 C 0.62206 0.68985 0.61771
 N2670 N 0.63734 0.70789 0.60629
 N2671 N 0.64285 0.74860 0.58740
 C2672 C 0.63302 0.77143 0.57957
 C2673 C 0.60627 0.77627 0.58213
 N2674 N 0.59081 0.75789 0.59286
 H2675 H 0.58268 0.68064 0.62953
 H2676 H 0.64617 0.78575 0.57198
 C2677 C 0.62862 0.24094 1.10620
 C2678 C 0.61169 0.25626 1.12096
 N2679 N 0.60756 0.25096 1.14639
 C2680 C 0.61944 0.23074 1.15774
 C2681 C 0.63648 0.21522 1.14300
 N2682 N 0.64079 0.22094 1.11756
 N2683 N 0.63196 0.24578 1.08053
 C2684 C 0.61938 0.26554 1.06901
 C2685 C 0.60292 0.28147 1.08398
 N2686 N 0.59946 0.27615 1.10961
 H2687 H 0.61546 0.22686 1.17803
 H2688 H 0.62215 0.26849 1.04841
 C2689 C 1.27137 1.10592 0.87399
 C2690 C 1.25530 1.12232 0.88854
 N2691 N 1.26311 1.14680 0.89322
 C2692 C 1.28628 1.15561 0.88410
 C2693 C 1.30251 1.13926 0.86941
 N2694 N 1.29447 1.11472 0.86473
 N2695 N 1.26387 1.08130 0.86982
 C2696 C 1.24094 1.07231 0.87928
 C2697 C 1.22431 1.08874 0.89356
 N2698 N 1.23225 1.11343 0.89791
 H2699 H 1.29196 1.17519 0.88830
 H2700 H 1.23617 1.05237 0.87600
 C2701 C 1.26561 0.62055 0.39135
 C2702 C 1.26306 0.59369 0.39049
 N2703 N 1.28362 0.57910 0.38316
 C2704 C 1.30655 0.59019 0.37648
 C2705 C 1.30913 0.61709 0.37745
 N2706 N 1.28852 0.63159 0.38493
 N2707 N 1.24500 0.63524 0.39804
 C2708 C 1.22201 0.62431 0.40441
 C2709 C 1.21950 0.59735 0.40446
 N2710 N 1.24013 0.58266 0.39716
 H2711 H 1.32254 0.57815 0.37034
 H2712 H 1.20587 0.63661 0.40953
 C2713 C 0.76071 1.12369 0.36904
 C2714 C 0.74081 1.14119 0.37500
 N2715 N 0.74295 1.16590 0.36702
 C2716 C 0.76431 1.17402 0.35382
 C2717 C 0.78443 1.15665 0.34818
 N2718 N 0.78207 1.13180 0.35590
 N2719 N 0.75894 1.09916 0.37756
 C2720 C 0.73803 1.09120 0.39150
 C2721 C 0.71784 1.10854 0.39725
 N2722 N 0.71981 1.13325 0.38888
 H2723 H 0.76605 1.19408 0.34862
 H2724 H 0.73706 1.07144 0.39789
 C2725 C 0.77641 0.59540 0.88867
 C2726 C 0.76157 0.61264 0.90352
 N2727 N 0.77126 0.63623 0.90922
 C2728 C 0.79507 0.64347 0.90043
 C2729 C 0.80965 0.62644 0.88491
 N2730 N 0.79991 0.60273 0.87960
 N2731 N 0.76693 0.57176 0.88315
 C2732 C 0.74296 0.56466 0.89136
 C2733 C 0.72747 0.58221 0.90544
 N2734 N 0.73747 0.60572 0.91145
 H2735 H 0.80219 0.66250 0.90497
 H2736 H 0.73627 0.54547 0.88695
 C2737 C 1.26726 0.87550 1.10492
 C2738 C 1.26398 0.90229 1.10508
 N2739 N 1.28341 0.91751 1.11373
 C2740 C 1.30574 0.90718 1.12276
 C2741 C 1.30890 0.88032 1.12330
 N2742 N 1.28955 0.86509 1.11411
 N2743 N 1.24756 0.86028 1.09689
 C2744 C 1.22478 0.87057 1.08894
 C2745 C 1.22131 0.89746 1.08904
 N2746 N 1.24117 0.91262 1.09724
 H2747 H 1.32059 0.91979 1.13028
 H2748 H 1.20936 0.85776 1.08314
 C2749 C 1.27538 0.38252 0.59964
 C2750 C 1.26118 0.39905 0.61592
 N2751 N 1.27000 0.40445 0.64009
 C2752 C 1.29229 0.39382 0.64884
 C2753 C 1.30616 0.37660 0.63285
 N2754 N 1.29736 0.37149 0.60852
 N2755 N 1.26682 0.37750 0.57533
 C2756 C 1.24431 0.38775 0.56672
 C2757 C 1.22925 0.40339 0.58341
 N2758 N 1.23846 0.40891 0.60754
 H2759 H 1.29871 0.39827 0.66831
 H2760 H 1.23841 0.38362 0.54704
 C2761 C 0.77313 0.89344 0.61570
 C2762 C 0.76902 0.88965 0.58898
 N2763 N 0.78703 0.87701 0.57459
 C2764 C 0.80881 0.86771 0.58571
 C2765 C 0.81295 0.87120 0.61254
 N2766 N 0.79496 0.88418 0.62690
 N2767 N 0.75483 0.90564 0.63014
 C2768 C 0.73276 0.91444 0.61909
 C2769 C 0.72869 0.91105 0.59218
 N2770 N 0.74701 0.89849 0.57787
 H2771 H 0.82269 0.85746 0.57372
 H2772 H 0.71840 0.92364 0.63135
 C2773 C 0.77042 0.39443 1.11346
 C2774 C 0.75592 0.37724 1.09831
 N2775 N 0.76401 0.35256 1.09577
 C2776 C 0.78570 0.34421 1.10796
 C2777 C 0.79977 0.36116 1.12393
 N2778 N 0.79175 0.38599 1.12611
 N2779 N 0.76267 0.41919 1.11566
 C2780 C 0.74068 0.42743 1.10406
 C2781 C 0.72515 0.40998 1.09003
 N2782 N 0.73357 0.38529 1.08713
 H2783 H 0.79144 0.32433 1.10580
 H2784 H 0.73531 0.44741 1.10608
 C2785 C 0.72406 1.10883 1.12829
 C2786 C 0.73862 1.12315 1.11031
 N2787 N 0.73152 1.14754 1.10483
 C2788 C 0.71065 1.15841 1.11665
 C2789 C 0.69625 1.14444 1.13524
 N2790 N 0.70336 1.11981 1.14055
 N2791 N 0.73101 1.08424 1.13326
 C2792 C 0.75213 1.07350 1.12156
 C2793 C 0.76755 1.08819 1.10431
 N2794 N 0.75995 1.11264 1.09897
 H2795 H 0.70576 1.17804 1.11193
 H2796 H 0.75659 1.05370 1.12574
 C2797 C 0.72978 0.60126 0.62104
 C2798 C 0.74535 0.61863 0.60716
 N2799 N 0.73647 0.64272 0.60273
 C2800 C 0.71271 0.65020 0.61144
 C2801 C 0.69701 0.63289 0.62548
 N2802 N 0.70608 0.60875 0.62997
 N2803 N 0.73840 0.57700 0.62491
 C2804 C 0.76199 0.56938 0.61588
 C2805 C 0.77811 0.58689 0.60247
 N2806 N 0.76906 0.61113 0.59829
 H2807 H 0.70617 0.66952 0.60745
 H2808 H 0.76779 0.54969 0.61891
 C2809 C 0.23396 1.10278 0.62452
 C2810 C 0.24949 1.12028 0.61089
 N2811 N 0.24109 1.14478 0.60768
 C2812 C 0.21789 1.15259 0.61767
 C2813 C 0.20255 1.13515 0.63183
 N2814 N 0.21107 1.11062 0.63478
 N2815 N 0.24193 1.07817 0.62728
 C2816 C 0.26502 1.07025 0.61739
 C2817 C 0.28129 1.08789 0.60442
 N2818 N 0.27279 1.11250 0.60127
 H2819 H 0.21171 1.17224 0.61494
 H2820 H 0.27026 1.05029 0.61948
 C2821 C 0.23910 0.61372 1.13358
 C2822 C 0.25648 0.63146 1.12258
 N2823 N 0.25067 0.65683 1.12305
 C2824 C 0.22805 0.66525 1.13360
 C2825 C 0.21034 0.64754 1.14421
 N2826 N 0.21641 0.62211 1.14412
 N2827 N 0.24473 0.58830 1.13254
 C2828 C 0.26697 0.57981 1.12114
 C2829 C 0.28455 0.59756 1.11021
 N2830 N 0.27868 0.62302 1.11119
 H2831 H 0.22366 0.68557 1.13318
 H2832 H 0.27064 0.55938 1.12033
 C2833 C 0.73731 0.87581 0.86838
 C2834 C 0.73658 0.87630 0.89572
 N2835 N 0.71441 0.86957 0.90825
 C2836 C 0.69305 0.86230 0.89476
 C2837 C 0.69360 0.86207 0.86738
 N2838 N 0.71586 0.86886 0.85486
 N2839 N 0.75957 0.88202 0.85582
 C2840 C 0.78093 0.88925 0.86922
 C2841 C 0.78010 0.89081 0.89660
 N2842 N 0.75786 0.88394 0.90922
 H2843 H 0.67576 0.85674 0.90533
 H2844 H 0.79832 0.89429 0.85855
 C2845 C 0.73783 0.38061 0.39626
 C2846 C 0.75515 0.39296 0.37928
 N2847 N 0.75058 0.39289 0.35339
 C2848 C 0.72931 0.38111 0.34368
 C2849 C 0.71195 0.36863 0.36061
 N2850 N 0.71668 0.36864 0.38657
 N2851 N 0.74217 0.38119 0.42220
 C2852 C 0.76333 0.39323 0.43193
 C2853 C 0.78116 0.40504 0.41488
 N2854 N 0.77637 0.40473 0.38894
 H2855 H 0.72596 0.38153 0.32295
 H2856 H 0.76610 0.39356 0.45273
 C2857 C 0.23356 0.88988 0.37367
 C2858 C 0.23633 0.88689 0.40067
 N2859 N 0.21706 0.87575 0.41460
 C2860 C 0.19534 0.86706 0.40277
 C2861 C 0.19263 0.86952 0.37567
 N2862 N 0.21184 0.88109 0.36174
 N2863 N 0.25303 0.90071 0.35972
 C2864 C 0.27501 0.90889 0.37152
 C2865 C 0.27780 0.90615 0.39862
 N2866 N 0.25831 0.89502 0.41249
 H2867 H 0.18051 0.85779 0.41438
 H2868 H 0.29025 0.91730 0.35979
 C2869 C 0.22184 0.38636 0.90362
 C2870 C 0.23717 0.40083 0.88643
 N2871 N 0.23053 0.40221 0.86104
 C2872 C 0.20942 0.38953 0.85198
 C2873 C 0.19451 0.37426 0.86897
 N2874 N 0.20109 0.37319 0.89450
 N2875 N 0.22819 0.38541 0.92910
 C2876 C 0.24959 0.39764 0.93807
 C2877 C 0.26596 0.41098 0.92065
 N2878 N 0.25891 0.41257 0.89524
 H2879 H 0.20478 0.39079 0.83155
 H2880 H 0.25381 0.39665 0.95858
   
