data_POSCAR
  _audit_creation_date              2014-09-24
  _audit_creation_method            'ToBaCCo'
  _symmetry_space_group_name_H-M    'P1'
  _symmetry_Int_Tables_number       1
  _symmetry_cell_setting            triclinic
  loop_
  _symmetry_equiv_pos_as_xyz
 x,y,z
_cell_length_a 111.3809
_cell_length_b 111.6056
_cell_length_c 112.5362
_cell_angle_alpha 89.950200
_cell_angle_beta 89.964800
_cell_angle_gamma 90.001100
loop_
  _atom_site_label
  _atom_site_type_symbol
  _atom_site_fract_x
  _atom_site_fract_y
  _atom_site_fract_z
N1 N 0.35618 0.32341 0.33209
 N2 N 0.35497 0.33072 0.32299
 C3 C 0.36420 0.32907 0.31542
 C4 C 0.37152 0.32029 0.32008
 C5 C 0.36622 0.31685 0.33062
 H6 H 0.36543 0.33381 0.30712
 H7 H 0.36938 0.31002 0.33668
 Cu8 Cu 0.34141 0.34158 0.32174
 Cu9 Cu 0.34457 0.32280 0.34502
 Cu10 Cu 0.32259 0.34466 0.34498
 N11 N 0.33039 0.35502 0.32292
 N12 N 0.32308 0.35622 0.33203
 C13 C 0.31648 0.36621 0.33057
 C14 C 0.31988 0.37150 0.32002
 C15 C 0.32868 0.36421 0.31533
 H16 H 0.30967 0.36936 0.33667
 H17 H 0.33342 0.36547 0.30703
 N18 N 0.32359 0.33214 0.35729
 N19 N 0.33197 0.32377 0.35729
 C20 C 0.33037 0.31663 0.36683
 C21 C 0.32056 0.32076 0.37306
 C22 C 0.31643 0.33056 0.36683
 H23 H 0.33594 0.30904 0.36913
 H24 H 0.30882 0.33612 0.36911
 H25 H 0.32998 0.33001 0.33627
 H26 H 0.34074 0.34078 0.34329
 N27 N 0.35670 0.82383 -0.16790
 N28 N 0.35669 0.83237 -0.17598
 C29 C 0.36609 0.83073 -0.18337
 C30 C 0.37223 0.82069 -0.17963
 C31 C 0.36608 0.81648 -0.16985
 H32 H 0.36833 0.83638 -0.19087
 H33 H 0.36818 0.80862 -0.16465
 Cu34 Cu 0.34421 0.84460 -0.17608
 Cu35 Cu 0.34470 0.82299 -0.15534
 Cu36 Cu 0.32253 0.84478 -0.15534
 N37 N 0.33180 0.85691 -0.17594
 N38 N 0.32324 0.85677 -0.16789
 C39 C 0.31574 0.86603 -0.16982
 C40 C 0.31988 0.87224 -0.17958
 C41 C 0.33005 0.86629 -0.18330
 H42 H 0.30783 0.86800 -0.16461
 H43 H 0.33570 0.86865 -0.19077
 N44 N 0.32336 0.83193 -0.14338
 N45 N 0.33182 0.82364 -0.14334
 C46 C 0.33013 0.81637 -0.13392
 C47 C 0.32016 0.82032 -0.12782
 C48 C 0.31605 0.83015 -0.13399
 H49 H 0.33575 0.80883 -0.13159
 H50 H 0.30838 0.83563 -0.13173
 H51 H 0.33115 0.83146 -0.16468
 H52 H 0.34073 0.84115 -0.15503
 N53 N 0.85570 0.32337 -0.16804
 N54 N 0.85566 0.33171 -0.17631
 C55 C 0.86502 0.32989 -0.18369
 C56 C 0.87122 0.31999 -0.17972
 C57 C 0.86513 0.31603 -0.16981
 H58 H 0.86721 0.33536 -0.19132
 H59 H 0.86737 0.30836 -0.16436
 Cu60 Cu 0.84328 0.34398 -0.17657
 Cu61 Cu 0.84366 0.32275 -0.15548
 Cu62 Cu 0.82158 0.34471 -0.15589
 N63 N 0.83090 0.35626 -0.17683
 N64 N 0.82238 0.35645 -0.16872
 C65 C 0.81508 0.36585 -0.17078
 C66 C 0.81927 0.37175 -0.18071
 C67 C 0.82925 0.36548 -0.18439
 H68 H 0.80736 0.36824 -0.16544
 H69 H 0.83495 0.36759 -0.19189
 N70 N 0.82233 0.33203 -0.14367
 N71 N 0.83072 0.32366 -0.14353
 C72 C 0.82902 0.31657 -0.13398
 C73 C 0.81912 0.32070 -0.12789
 C74 C 0.81506 0.33046 -0.13421
 H75 H 0.83463 0.30906 -0.13152
 H76 H 0.80748 0.33608 -0.13197
 H77 H 0.83012 0.33109 -0.16491
 H78 H 0.83971 0.34085 -0.15541
 N79 N 0.85608 0.82357 0.33202
 N80 N 0.85496 0.83087 0.32291
 C81 C 0.86427 0.82924 0.31545
 C82 C 0.87156 0.82047 0.32019
 C83 C 0.86615 0.81702 0.33067
 H84 H 0.86558 0.83396 0.30715
 H85 H 0.86924 0.81019 0.33676
 Cu86 Cu 0.84135 0.84167 0.32152
 Cu87 Cu 0.84430 0.82296 0.34481
 Cu88 Cu 0.82215 0.84470 0.34446
 N89 N 0.83025 0.85507 0.32250
 N90 N 0.82277 0.85624 0.33148
 C91 C 0.81615 0.86622 0.32991
 C92 C 0.81974 0.87150 0.31941
 C93 C 0.82866 0.86425 0.31489
 H94 H 0.80925 0.86936 0.33591
 H95 H 0.83358 0.86554 0.30670
 N96 N 0.82310 0.83218 0.35680
 N97 N 0.83154 0.82387 0.35692
 C98 C 0.82981 0.81669 0.36640
 C99 C 0.81985 0.82072 0.37246
 C100 C 0.81578 0.83051 0.36619
 H101 H 0.83536 0.80910 0.36875
 H102 H 0.80807 0.83599 0.36834
 H103 H 0.82969 0.83013 0.33590
 H104 H 0.84025 0.84097 0.34305
 N105 N 0.64405 0.67671 0.33257
 N106 N 0.64510 0.66928 0.32356
 C107 C 0.63585 0.67099 0.31604
 C108 C 0.62870 0.67993 0.32065
 C109 C 0.63411 0.68341 0.33109
 H110 H 0.63447 0.66616 0.30782
 H111 H 0.63109 0.69034 0.33710
 Cu112 Cu 0.65847 0.65819 0.32237
 Cu113 Cu 0.65563 0.67716 0.34550
 Cu114 Cu 0.67753 0.65518 0.34540
 N115 N 0.66955 0.64481 0.32344
 N116 N 0.67701 0.64368 0.33243
 C117 C 0.68368 0.63373 0.33088
 C118 C 0.68013 0.62841 0.32041
 C119 C 0.67120 0.63562 0.31586
 H120 H 0.69062 0.63064 0.33685
 H121 H 0.66633 0.63431 0.30766
 N122 N 0.67654 0.66765 0.35773
 N123 N 0.66818 0.67605 0.35776
 C124 C 0.66985 0.68321 0.36725
 C125 C 0.67969 0.67907 0.37342
 C126 C 0.68375 0.66925 0.36721
 H127 H 0.66437 0.69087 0.36951
 H128 H 0.69141 0.66372 0.36942
 H129 H 0.67014 0.66984 0.33665
 H130 H 0.65942 0.65918 0.34389
 N131 N 0.64472 0.17755 -0.16875
 N132 N 0.64578 0.17014 -0.17778
 C133 C 0.63643 0.17171 -0.18520
 C134 C 0.62920 0.18056 -0.18052
 C135 C 0.63467 0.18410 -0.17012
 H136 H 0.63499 0.16682 -0.19337
 H137 H 0.63157 0.19094 -0.16404
 Cu138 Cu 0.65926 0.15917 -0.17903
 Cu139 Cu 0.65641 0.17815 -0.15593
 Cu140 Cu 0.67841 0.15629 -0.15604
 N141 N 0.67032 0.14577 -0.17789
 N142 N 0.67780 0.14469 -0.16891
 C143 C 0.68444 0.13472 -0.17038
 C144 C 0.68084 0.12933 -0.18079
 C145 C 0.67190 0.13649 -0.18539
 H146 H 0.69134 0.13164 -0.16434
 H147 H 0.66694 0.13507 -0.19353
 N148 N 0.67748 0.16886 -0.14382
 N149 N 0.66907 0.17721 -0.14377
 C150 C 0.67075 0.18441 -0.13432
 C151 C 0.68066 0.18036 -0.12821
 C152 C 0.68475 0.17054 -0.13440
 H153 H 0.66520 0.19201 -0.13201
 H154 H 0.69241 0.16503 -0.13217
 H155 H 0.67096 0.17080 -0.16477
 H156 H 0.66030 0.16009 -0.15749
 N157 N 0.14371 0.67714 -0.16786
 N158 N 0.14383 0.66878 -0.17609
 C159 C 0.13440 0.67043 -0.18343
 C160 C 0.12819 0.68038 -0.17957
 C161 C 0.13427 0.68444 -0.16971
 H162 H 0.13219 0.66487 -0.19098
 H163 H 0.13195 0.69207 -0.16426
 Cu164 Cu 0.15626 0.65653 -0.17623
 Cu165 Cu 0.15564 0.67779 -0.15521
 Cu166 Cu 0.17774 0.65584 -0.15546
 N167 N 0.16859 0.64419 -0.17637
 N168 N 0.17704 0.64404 -0.16821
 C169 C 0.18445 0.63475 -0.17027
 C170 C 0.18038 0.62878 -0.18019
 C171 C 0.17031 0.63492 -0.18387
 H172 H 0.19220 0.63248 -0.16494
 H173 H 0.16474 0.63281 -0.19145
 N174 N 0.17691 0.66851 -0.14331
 N175 N 0.16851 0.67688 -0.14320
 C176 C 0.17030 0.68409 -0.13377
 C177 C 0.18023 0.68000 -0.12772
 C178 C 0.18425 0.67018 -0.13394
 H179 H 0.16481 0.69172 -0.13143
 H180 H 0.19192 0.66467 -0.13177
 H181 H 0.16920 0.66951 -0.16458
 H182 H 0.15959 0.65974 -0.15510
 N183 N 0.14397 0.17650 0.33198
 N184 N 0.14519 0.16920 0.32289
 C185 C 0.13591 0.17078 0.31538
 C186 C 0.12854 0.17950 0.32009
 C187 C 0.13387 0.18297 0.33059
 H188 H 0.13469 0.16605 0.30708
 H189 H 0.13071 0.18978 0.33666
 Cu190 Cu 0.15889 0.15851 0.32160
 Cu191 Cu 0.15571 0.17730 0.34475
 Cu192 Cu 0.17774 0.15548 0.34484
 N193 N 0.16974 0.14495 0.32295
 N194 N 0.17705 0.14377 0.33206
 C195 C 0.18344 0.13361 0.33078
 C196 C 0.17990 0.12821 0.32035
 C197 C 0.17124 0.13558 0.31555
 H198 H 0.19015 0.13040 0.33695
 H199 H 0.16640 0.13424 0.30732
 N200 N 0.17682 0.16819 0.35695
 N201 N 0.16841 0.17654 0.35689
 C202 C 0.17009 0.18387 0.36624
 C203 C 0.17998 0.17989 0.37243
 C204 C 0.18408 0.16999 0.36636
 H205 H 0.16457 0.19153 0.36841
 H206 H 0.19177 0.16453 0.36863
 H207 H 0.17040 0.16995 0.33610
 H208 H 0.15965 0.15919 0.34317
 N209 N 0.64499 0.32218 0.66878
 N210 N 0.64599 0.32959 0.67782
 C211 C 0.63666 0.32792 0.68526
 C212 C 0.62952 0.31901 0.68058
 C213 C 0.63501 0.31552 0.67017
 H214 H 0.63517 0.33280 0.69343
 H215 H 0.63197 0.30867 0.66409
 Cu216 Cu 0.65933 0.34073 0.67904
 Cu217 Cu 0.65664 0.32174 0.65589
 Cu218 Cu 0.67838 0.34386 0.65601
 N219 N 0.67024 0.35427 0.67791
 N220 N 0.67770 0.35543 0.66892
 C221 C 0.68415 0.36553 0.67032
 C222 C 0.68048 0.37095 0.68070
 C223 C 0.67167 0.36363 0.68535
 H224 H 0.69096 0.36872 0.66424
 H225 H 0.66667 0.36502 0.69347
 N226 N 0.67759 0.33134 0.64373
 N227 N 0.66928 0.32289 0.64366
 C228 C 0.67103 0.31578 0.63414
 C229 C 0.68086 0.32000 0.62800
 C230 C 0.68485 0.32982 0.63426
 H231 H 0.66557 0.30812 0.63182
 H232 H 0.69245 0.33543 0.63206
 H233 H 0.67105 0.32913 0.66475
 H234 H 0.66027 0.33973 0.65751
 N235 N 0.64437 0.82253 1.16820
 N236 N 0.64541 0.82978 1.17736
 C237 C 0.63598 0.82816 1.18469
 C238 C 0.62873 0.81944 1.17981
 C239 C 0.63426 0.81602 1.16940
 H240 H 0.63453 0.83293 1.19292
 H241 H 0.63118 0.80929 1.16320
 Cu242 Cu 0.65896 0.84061 1.17894
 Cu243 Cu 0.65613 0.82211 1.15542
 Cu244 Cu 0.67793 0.84411 1.15583
 N245 N 0.66976 0.85423 1.17785
 N246 N 0.67717 0.85557 1.16885
 C247 C 0.68359 0.86568 1.17041
 C248 C 0.67992 0.87090 1.18090
 C249 C 0.67117 0.86346 1.18544
 H250 H 0.69040 0.86898 1.16439
 H251 H 0.66621 0.86466 1.19362
 N252 N 0.67717 0.83165 1.14346
 N253 N 0.66884 0.82322 1.14332
 C254 C 0.67060 0.81615 1.13378
 C255 C 0.68046 0.82037 1.12770
 C256 C 0.68446 0.83015 1.13402
 H257 H 0.66511 0.80852 1.13140
 H258 H 0.69207 0.83576 1.13186
 H259 H 0.67063 0.82935 1.16439
 H260 H 0.65983 0.84015 1.15743
 N261 N 0.14394 0.32314 1.16787
 N262 N 0.14426 0.33133 1.17626
 C263 C 0.13480 0.32975 1.18357
 C264 C 0.12832 0.32008 1.17950
 C265 C 0.13430 0.31605 1.16957
 H266 H 0.13279 0.33517 1.19127
 H267 H 0.13184 0.30853 1.16402
 Cu268 Cu 0.15693 0.34330 1.17692
 Cu269 Cu 0.15592 0.32237 1.15532
 Cu270 Cu 0.17799 0.34422 1.15543
 N271 N 0.16922 0.35569 1.17653
 N272 N 0.17740 0.35603 1.16811
 C273 C 0.18455 0.36560 1.16982
 C274 C 0.18059 0.37153 1.17981
 C275 C 0.17088 0.36507 1.18389
 H276 H 0.19199 0.36814 1.16417
 H277 H 0.16538 0.36714 1.19154
 N278 N 0.17714 0.33153 1.14334
 N279 N 0.16878 0.32313 1.14335
 C280 C 0.17051 0.31589 1.13392
 C281 C 0.18037 0.31999 1.12776
 C282 C 0.18440 0.32986 1.13390
 H283 H 0.16497 0.30828 1.13163
 H284 H 0.19200 0.33543 1.13160
 H285 H 0.16964 0.33047 1.16465
 H286 H 0.15973 0.34046 1.15562
 N287 N 0.14407 0.82257 0.66791
 N288 N 0.14512 0.82987 0.67702
 C289 C 0.13584 0.82811 0.68450
 C290 C 0.12866 0.81926 0.67976
 C291 C 0.13409 0.81590 0.66928
 H292 H 0.13442 0.83288 0.69275
 H293 H 0.13102 0.80911 0.66314
 Cu294 Cu 0.15846 0.84103 0.67831
 Cu295 Cu 0.15572 0.82219 0.65502
 Cu296 Cu 0.17743 0.84429 0.65520
 N297 N 0.16930 0.85463 0.67713
 N298 N 0.17670 0.85586 0.66809
 C299 C 0.18321 0.86591 0.66956
 C300 C 0.17965 0.87121 0.68003
 C301 C 0.17085 0.86387 0.68467
 H302 H 0.19008 0.86907 0.66353
 H303 H 0.16602 0.86512 0.69292
 N304 N 0.17668 0.83176 0.64293
 N305 N 0.16835 0.82334 0.64282
 C306 C 0.17016 0.81618 0.63335
 C307 C 0.18005 0.82035 0.62728
 C308 C 0.18401 0.83019 0.63353
 H309 H 0.16472 0.80851 0.63104
 H310 H 0.19166 0.83575 0.63138
 H311 H 0.17017 0.82953 0.66393
 H312 H 0.15935 0.84020 0.65680
 N313 N 0.35548 0.67735 0.66899
 N314 N 0.35432 0.66977 0.67788
 C315 C 0.36363 0.67115 0.68539
 C316 C 0.37093 0.68004 0.68092
 C317 C 0.36556 0.68382 0.67054
 H318 H 0.36499 0.66606 0.69346
 H319 H 0.36875 0.69073 0.66458
 Cu320 Cu 0.34081 0.65881 0.67885
 Cu321 Cu 0.34389 0.67812 0.65604
 Cu322 Cu 0.32192 0.65619 0.65566
 N323 N 0.32982 0.64537 0.67748
 N324 N 0.32243 0.64440 0.66842
 C325 C 0.31589 0.63433 0.66967
 C326 C 0.31944 0.62875 0.68002
 C327 C 0.32827 0.63593 0.68480
 H328 H 0.30910 0.63127 0.66352
 H329 H 0.33319 0.63440 0.69294
 N330 N 0.32295 0.66895 0.64358
 N331 N 0.33133 0.67732 0.64373
 C332 C 0.32976 0.68461 0.63430
 C333 C 0.31997 0.68059 0.62799
 C334 C 0.31582 0.67069 0.63406
 H335 H 0.33532 0.69226 0.63215
 H336 H 0.30820 0.66519 0.63168
 H337 H 0.32922 0.67066 0.66464
 H338 H 0.33997 0.66008 0.65734
 N339 N 0.35595 0.17692 1.16874
 N340 N 0.35470 0.16942 1.17768
 C341 C 0.36397 0.17083 1.18524
 C342 C 0.37134 0.17965 1.18074
 C343 C 0.36604 0.18337 1.17030
 H344 H 0.36524 0.16583 1.19338
 H345 H 0.36928 0.19024 1.16433
 Cu346 Cu 0.34114 0.15855 1.17869
 Cu347 Cu 0.34436 0.17775 1.15582
 Cu348 Cu 0.32221 0.15601 1.15549
 N349 N 0.33011 0.14518 1.17729
 N350 N 0.32271 0.14422 1.16824
 C351 C 0.31605 0.13425 1.16956
 C352 C 0.31951 0.12872 1.17996
 C353 C 0.32842 0.13583 1.18469
 H354 H 0.30917 0.13126 1.16346
 H355 H 0.33324 0.13436 1.19290
 N356 N 0.32332 0.16876 1.14342
 N357 N 0.33179 0.17705 1.14353
 C358 C 0.33020 0.18440 1.13416
 C359 C 0.32031 0.18050 1.12793
 C360 C 0.31612 0.17062 1.13398
 H361 H 0.33580 0.19202 1.13202
 H362 H 0.30842 0.16521 1.13166
 H363 H 0.32966 0.17036 1.16442
 H364 H 0.34031 0.15965 1.15715
 N365 N 0.85545 0.67715 1.16889
 N366 N 0.85423 0.66966 1.17783
 C367 C 0.86347 0.67111 1.18540
 C368 C 0.87082 0.67997 1.18091
 C369 C 0.86552 0.68365 1.17046
 H370 H 0.86477 0.66610 1.19353
 H371 H 0.86875 0.69050 1.16445
 Cu372 Cu 0.84075 0.65863 1.17872
 Cu373 Cu 0.84392 0.67787 1.15589
 Cu374 Cu 0.82199 0.65589 1.15544
 N375 N 0.82986 0.64511 1.17729
 N376 N 0.82254 0.64409 1.16817
 C377 C 0.81601 0.63401 1.16938
 C378 C 0.81947 0.62848 1.17978
 C379 C 0.82824 0.63570 1.18462
 H380 H 0.80924 0.63096 1.16320
 H381 H 0.83303 0.63424 1.19286
 N382 N 0.82303 0.66864 1.14337
 N383 N 0.83141 0.67702 1.14352
 C384 C 0.82982 0.68432 1.13411
 C385 C 0.82002 0.68030 1.12781
 C386 C 0.81589 0.67040 1.13386
 H387 H 0.83536 0.69199 1.13197
 H388 H 0.80826 0.66490 1.13149
 H389 H 0.82926 0.67032 1.16434
 H390 H 0.84006 0.65974 1.15714
 N391 N 0.85564 0.17718 0.66838
 N392 N 0.85545 0.16879 0.67661
 C393 C 0.86496 0.17028 0.68387
 C394 C 0.87134 0.18008 0.67993
 C395 C 0.86527 0.18426 0.67011
 H396 H 0.86715 0.16465 0.69139
 H397 H 0.86772 0.19182 0.66460
 Cu398 Cu 0.84284 0.15675 0.67672
 Cu399 Cu 0.84365 0.17807 0.65579
 Cu400 Cu 0.82136 0.15629 0.65590
 N401 N 0.83046 0.14446 0.67679
 N402 N 0.82205 0.14439 0.66859
 C403 C 0.81477 0.13493 0.67041
 C404 C 0.81884 0.12885 0.68027
 C405 C 0.82878 0.13506 0.68415
 H406 H 0.80715 0.13258 0.66494
 H407 H 0.83437 0.13283 0.69168
 N408 N 0.82227 0.16910 0.64385
 N409 N 0.83073 0.17741 0.64384
 C410 C 0.82905 0.18470 0.63444
 C411 C 0.81913 0.18074 0.62831
 C412 C 0.81501 0.17088 0.63444
 H413 H 0.83467 0.19225 0.63213
 H414 H 0.80737 0.16538 0.63214
 H415 H 0.82992 0.16981 0.66504
 H416 H 0.83953 0.15997 0.65560
 N417 N 0.32305 0.35575 0.66835
 N418 N 0.33060 0.35476 0.67729
 C419 C 0.32908 0.36413 0.68469
 C420 C 0.32015 0.37130 0.68007
 C421 C 0.31647 0.36577 0.66975
 H422 H 0.33403 0.36556 0.69283
 H423 H 0.30949 0.36877 0.66378
 Cu424 Cu 0.34157 0.34131 0.67852
 Cu425 Cu 0.32231 0.34395 0.65563
 Cu426 Cu 0.34436 0.32208 0.65565
 N427 N 0.35512 0.33044 0.67731
 N428 N 0.35617 0.32290 0.66840
 C429 C 0.36629 0.31645 0.66979
 C430 C 0.37182 0.32021 0.68009
 C431 C 0.36455 0.32908 0.68468
 H432 H 0.36940 0.30955 0.66378
 H433 H 0.36601 0.33414 0.69274
 N434 N 0.33157 0.32285 0.64357
 N435 N 0.32316 0.33120 0.64355
 C436 C 0.31583 0.32940 0.63419
 C437 C 0.31988 0.31948 0.62811
 C438 C 0.32981 0.31551 0.63423
 H439 H 0.30815 0.33487 0.63194
 H440 H 0.33533 0.30786 0.63202
 H441 H 0.32986 0.32954 0.66441
 H442 H 0.34044 0.34018 0.65697
 N443 N 0.32298 0.85659 0.16780
 N444 N 0.33155 0.85668 0.17585
 C445 C 0.32983 0.86608 0.18318
 C446 C 0.31971 0.87209 0.17945
 C447 C 0.31555 0.86590 0.16971
 H448 H 0.33552 0.86841 0.19062
 H449 H 0.30777 0.86805 0.16438
 Cu450 Cu 0.34418 0.84465 0.17576
 Cu451 Cu 0.32219 0.84458 0.15530
 Cu452 Cu 0.34438 0.82280 0.15520
 N453 N 0.35644 0.83223 0.17577
 N454 N 0.35647 0.82372 0.16768
 C455 C 0.36588 0.81640 0.16962
 C456 C 0.37199 0.82057 0.17942
 C457 C 0.36582 0.83060 0.18314
 H458 H 0.36810 0.80863 0.16432
 H459 H 0.36801 0.83622 0.19066
 N460 N 0.33137 0.82339 0.14332
 N461 N 0.32292 0.83170 0.14339
 C462 C 0.31551 0.82988 0.13410
 C463 C 0.31952 0.82000 0.12795
 C464 C 0.32955 0.81606 0.13397
 H465 H 0.30785 0.83539 0.13188
 H466 H 0.33514 0.80851 0.13162
 H467 H 0.33101 0.83135 0.16462
 H468 H 0.34041 0.84095 0.15470
 N469 N 0.82346 0.35668 0.16729
 N470 N 0.83089 0.35559 0.17631
 C471 C 0.82923 0.36481 0.18384
 C472 C 0.82031 0.37200 0.17924
 C473 C 0.81679 0.36664 0.16878
 H474 H 0.83405 0.36613 0.19208
 H475 H 0.80986 0.36969 0.16278
 Cu476 Cu 0.84192 0.34218 0.17748
 Cu477 Cu 0.82292 0.34508 0.15440
 Cu478 Cu 0.84499 0.32324 0.15440
 N479 N 0.85550 0.33135 0.17628
 N480 N 0.85665 0.32392 0.16728
 C481 C 0.86669 0.31737 0.16876
 C482 C 0.87207 0.32095 0.17920
 C483 C 0.86478 0.32979 0.18380
 H484 H 0.86980 0.31046 0.16278
 H485 H 0.86607 0.33463 0.19202
 N486 N 0.83235 0.32415 0.14216
 N487 N 0.82395 0.33251 0.14216
 C488 C 0.81670 0.33082 0.13273
 C489 C 0.82078 0.32098 0.12656
 C490 C 0.83066 0.31691 0.13273
 H491 H 0.80899 0.33627 0.13053
 H492 H 0.83615 0.30924 0.13052
 H493 H 0.83039 0.33054 0.16311
 H494 H 0.84105 0.34128 0.15591
 N495 N 0.82288 0.85698 0.66805
 N496 N 0.83134 0.85679 0.67621
 C497 C 0.82968 0.86605 0.68370
 C498 C 0.81975 0.87234 0.67995
 C499 C 0.81560 0.86641 0.67003
 H500 H 0.83530 0.86815 0.69124
 H501 H 0.80786 0.86874 0.66472
 Cu502 Cu 0.84370 0.84450 0.67606
 Cu503 Cu 0.82208 0.84514 0.65532
 Cu504 Cu 0.84420 0.82316 0.65507
 N505 N 0.85609 0.83225 0.67590
 N506 N 0.85620 0.82390 0.66765
 C507 C 0.86570 0.81666 0.66940
 C508 C 0.87179 0.82071 0.67926
 C509 C 0.86551 0.83056 0.68322
 H510 H 0.86797 0.80899 0.66399
 H511 H 0.86771 0.83608 0.69081
 N512 N 0.83127 0.82401 0.64315
 N513 N 0.82287 0.83238 0.64322
 C514 C 0.81563 0.83077 0.63376
 C515 C 0.81972 0.82097 0.62752
 C516 C 0.82959 0.81686 0.63365
 H517 H 0.80807 0.83639 0.63147
 H518 H 0.83522 0.80935 0.63124
 H519 H 0.83060 0.83145 0.66443
 H520 H 0.84026 0.84125 0.65494
 N521 N 0.67702 0.64407 0.66846
 N522 N 0.66965 0.64528 0.67753
 C523 C 0.67117 0.63599 0.68503
 C524 C 0.67993 0.62865 0.68036
 C525 C 0.68349 0.63398 0.66988
 H526 H 0.66629 0.63468 0.69324
 H527 H 0.69027 0.63078 0.66379
 Cu528 Cu 0.65881 0.65885 0.67874
 Cu529 Cu 0.67769 0.65565 0.65553
 Cu530 Cu 0.65580 0.67763 0.65551
 N531 N 0.64533 0.66983 0.67751
 N532 N 0.64418 0.67714 0.66841
 C533 C 0.63415 0.68371 0.66980
 C534 C 0.62878 0.68029 0.68030
 C535 C 0.63606 0.67150 0.68502
 H536 H 0.63101 0.69049 0.66367
 H537 H 0.63471 0.66670 0.69327
 N538 N 0.66840 0.67662 0.64327
 N539 N 0.67677 0.66824 0.64329
 C540 C 0.68409 0.66998 0.63391
 C541 C 0.68007 0.67988 0.62778
 C542 C 0.67016 0.68392 0.63389
 H543 H 0.69181 0.66453 0.63173
 H544 H 0.66473 0.69164 0.63171
 H545 H 0.67045 0.67024 0.66424
 H546 H 0.65965 0.65952 0.65720
 N547 N 0.67786 0.14436 0.16884
 N548 N 0.66978 0.14489 0.17735
 C549 C 0.67142 0.13558 0.18481
 C550 C 0.68101 0.12897 0.18071
 C551 C 0.68492 0.13473 0.17060
 H552 H 0.66601 0.13368 0.19258
 H553 H 0.69228 0.13206 0.16491
 Cu554 Cu 0.65770 0.15749 0.17771
 Cu555 Cu 0.67850 0.15600 0.15600
 Cu556 Cu 0.65668 0.17809 0.15581
 N557 N 0.64526 0.16971 0.17714
 N558 N 0.64490 0.17772 0.16856
 C559 C 0.63534 0.18492 0.17019
 C560 C 0.62944 0.18117 0.18029
 C561 C 0.63590 0.17154 0.18452
 H562 H 0.63280 0.19225 0.16443
 H563 H 0.63386 0.16622 0.19231
 N564 N 0.66935 0.17700 0.14367
 N565 N 0.67768 0.16857 0.14374
 C566 C 0.68493 0.17012 0.13428
 C567 C 0.68094 0.17995 0.12803
 C568 C 0.67109 0.18413 0.13415
 H569 H 0.69252 0.16451 0.13204
 H570 H 0.66560 0.19177 0.13180
 H571 H 0.67046 0.16994 0.16509
 H572 H 0.66034 0.15992 0.15634
 N573 N 0.17803 0.64484 0.16860
 N574 N 0.16993 0.64529 0.17711
 C575 C 0.17163 0.63597 0.18455
 C576 C 0.18127 0.62944 0.18042
 C577 C 0.18515 0.63525 0.17033
 H578 H 0.16623 0.63400 0.19230
 H579 H 0.19252 0.63264 0.16464
 Cu580 Cu 0.15775 0.65777 0.17749
 Cu581 Cu 0.17860 0.65652 0.15580
 Cu582 Cu 0.15668 0.67851 0.15572
 N583 N 0.14520 0.66989 0.17693
 N584 N 0.14485 0.67798 0.16843
 C585 C 0.13522 0.68507 0.17004
 C586 C 0.12926 0.68117 0.18005
 C587 C 0.13576 0.67155 0.18424
 H588 H 0.13266 0.69243 0.16432
 H589 H 0.13370 0.66614 0.19196
 N590 N 0.16939 0.67755 0.14360
 N591 N 0.17772 0.66912 0.14361
 C592 C 0.18493 0.67069 0.13412
 C593 C 0.18091 0.68054 0.12793
 C594 C 0.17109 0.68471 0.13411
 H595 H 0.19248 0.66507 0.13182
 H596 H 0.16557 0.69233 0.13178
 H597 H 0.17048 0.67034 0.16496
 H598 H 0.16042 0.66034 0.15612
 N599 N 0.17785 0.14439 0.66853
 N600 N 0.16980 0.14481 0.67710
 C601 C 0.17149 0.13540 0.68443
 C602 C 0.18105 0.12884 0.68018
 C603 C 0.18491 0.13473 0.67012
 H604 H 0.16614 0.13340 0.69220
 H605 H 0.19223 0.13214 0.66437
 Cu606 Cu 0.15774 0.15743 0.67770
 Cu607 Cu 0.17841 0.15617 0.65583
 Cu608 Cu 0.15648 0.17813 0.65588
 N609 N 0.14523 0.16961 0.67725
 N610 N 0.14477 0.17762 0.66867
 C611 C 0.13519 0.18476 0.67038
 C612 C 0.12939 0.18100 0.68053
 C613 C 0.13593 0.17140 0.68471
 H614 H 0.13259 0.19210 0.66466
 H615 H 0.13398 0.16610 0.69252
 N616 N 0.16910 0.17718 0.64367
 N617 N 0.17751 0.16883 0.64369
 C618 C 0.18470 0.17046 0.63420
 C619 C 0.18058 0.18026 0.62799
 C620 C 0.17072 0.18434 0.63416
 H621 H 0.19232 0.16491 0.63192
 H622 H 0.16513 0.19191 0.63184
 H623 H 0.17027 0.16998 0.66501
 H624 H 0.16016 0.15992 0.65628
 N625 N 0.32250 0.64410 0.33167
 N626 N 0.32994 0.64508 0.32264
 C627 C 0.32830 0.63574 0.31525
 C628 C 0.31938 0.62861 0.31996
 C629 C 0.31585 0.63412 0.33034
 H630 H 0.33320 0.63425 0.30708
 H631 H 0.30898 0.63110 0.33643
 Cu632 Cu 0.34106 0.65841 0.32136
 Cu633 Cu 0.32202 0.65578 0.34449
 Cu634 Cu 0.34423 0.67744 0.34436
 N635 N 0.35466 0.66923 0.32249
 N636 N 0.35587 0.67667 0.33147
 C637 C 0.36600 0.68309 0.32998
 C638 C 0.37136 0.67941 0.31956
 C639 C 0.36398 0.67064 0.31499
 H640 H 0.36922 0.68993 0.33600
 H641 H 0.36528 0.66569 0.30683
 N642 N 0.33160 0.67667 0.35661
 N643 N 0.32311 0.66841 0.35664
 C644 C 0.31592 0.67017 0.36611
 C645 C 0.32013 0.67997 0.37225
 C646 C 0.33003 0.68392 0.36605
 H647 H 0.30821 0.66474 0.36839
 H648 H 0.33566 0.69148 0.36829
 H649 H 0.32955 0.67019 0.33564
 H650 H 0.34014 0.65940 0.34288
 N651 N 0.32235 0.14382 0.83165
 N652 N 0.33072 0.14408 0.82340
 C653 C 0.32902 0.13484 0.81589
 C654 C 0.31912 0.12851 0.81972
 C655 C 0.31506 0.13439 0.82971
 H656 H 0.33461 0.13276 0.80832
 H657 H 0.30748 0.13192 0.83519
 Cu658 Cu 0.34313 0.15634 0.82358
 Cu659 Cu 0.32172 0.15551 0.84452
 Cu660 Cu 0.34393 0.17738 0.84480
 N661 N 0.35563 0.16853 0.82376
 N662 N 0.35585 0.17676 0.83212
 C663 C 0.36535 0.18402 0.83035
 C664 C 0.37133 0.18008 0.82037
 C665 C 0.36498 0.17029 0.81635
 H666 H 0.36773 0.19156 0.83589
 H667 H 0.36705 0.16488 0.80865
 N668 N 0.33109 0.17646 0.85684
 N669 N 0.32265 0.16813 0.85675
 C670 C 0.31541 0.16976 0.86622
 C671 C 0.31954 0.17953 0.87247
 C672 C 0.32944 0.18359 0.86636
 H673 H 0.30777 0.16422 0.86846
 H674 H 0.33506 0.19111 0.86874
 H675 H 0.33020 0.16922 0.83548
 H676 H 0.33988 0.15933 0.84479
 N677 N 0.82248 0.64365 0.83193
 N678 N 0.83005 0.64455 0.82299
 C679 C 0.82847 0.63517 0.81563
 C680 C 0.81945 0.62811 0.82026
 C681 C 0.81581 0.63369 0.83056
 H682 H 0.83346 0.63362 0.80753
 H683 H 0.80881 0.63076 0.83656
 Cu684 Cu 0.84116 0.65790 0.82169
 Cu685 Cu 0.82179 0.65544 0.84464
 Cu686 Cu 0.84392 0.67716 0.84453
 N687 N 0.85478 0.66869 0.82296
 N688 N 0.85578 0.67627 0.83185
 C689 C 0.86584 0.68279 0.83041
 C690 C 0.87140 0.67904 0.82013
 C691 C 0.86419 0.67012 0.81556
 H692 H 0.86883 0.68982 0.83632
 H693 H 0.86561 0.66515 0.80743
 N694 N 0.83112 0.67655 0.85660
 N695 N 0.82269 0.66822 0.85667
 C696 C 0.81545 0.67000 0.86611
 C697 C 0.81957 0.67987 0.87219
 C698 C 0.82946 0.68385 0.86599
 H699 H 0.80782 0.66448 0.86844
 H700 H 0.83506 0.69143 0.86822
 H701 H 0.82932 0.66971 0.83570
 H702 H 0.83987 0.65905 0.84319
 N703 N 0.82190 0.14412 0.33161
 N704 N 0.82987 0.14447 0.32298
 C705 C 0.82812 0.13503 0.31573
 C706 C 0.81859 0.12851 0.32010
 C707 C 0.81481 0.13446 0.33014
 H708 H 0.83343 0.13298 0.30795
 H709 H 0.80753 0.13190 0.33598
 Cu710 Cu 0.84199 0.15698 0.32209
 Cu711 Cu 0.82153 0.15599 0.34422
 Cu712 Cu 0.84373 0.17768 0.34388
 N713 N 0.85472 0.16889 0.32254
 N714 N 0.85540 0.17693 0.33105
 C715 C 0.86515 0.18384 0.32926
 C716 C 0.87082 0.17986 0.31912
 C717 C 0.86404 0.17040 0.31504
 H718 H 0.86795 0.19114 0.33493
 H719 H 0.86582 0.16499 0.30727
 N720 N 0.83113 0.17699 0.35614
 N721 N 0.82263 0.16874 0.35625
 C722 C 0.81549 0.17054 0.36575
 C723 C 0.81974 0.18036 0.37183
 C724 C 0.82962 0.18427 0.36557
 H725 H 0.80782 0.16511 0.36812
 H726 H 0.83528 0.19182 0.36777
 H727 H 0.82967 0.16970 0.33487
 H728 H 0.83977 0.15953 0.34350
 N729 N 0.67731 0.35557 0.33148
 N730 N 0.66994 0.35457 0.32240
 C731 C 0.67155 0.36398 0.31505
 C732 C 0.68037 0.37117 0.31984
 C733 C 0.68386 0.36563 0.33022
 H734 H 0.66671 0.36545 0.30685
 H735 H 0.69067 0.36866 0.33637
 Cu736 Cu 0.65900 0.34110 0.32098
 Cu737 Cu 0.67785 0.34376 0.34421
 Cu738 Cu 0.65586 0.32188 0.34388
 N739 N 0.64544 0.33020 0.32203
 N740 N 0.64425 0.32269 0.33097
 C741 C 0.63413 0.31627 0.32948
 C742 C 0.62874 0.32001 0.31910
 C743 C 0.63610 0.32884 0.31455
 H744 H 0.63090 0.30942 0.33550
 H745 H 0.63474 0.33389 0.30646
 N746 N 0.66845 0.32263 0.35615
 N747 N 0.67684 0.33100 0.35627
 C748 C 0.68403 0.32922 0.36573
 C749 C 0.67992 0.31932 0.37179
 C750 C 0.67008 0.31531 0.36555
 H751 H 0.69167 0.33471 0.36807
 H752 H 0.66453 0.30766 0.36771
 H753 H 0.67050 0.32932 0.33528
 H754 H 0.65977 0.33995 0.34253
 N755 N 0.67662 0.85578 0.83138
 N756 N 0.66918 0.85452 0.82239
 C757 C 0.67055 0.86382 0.81488
 C758 C 0.67931 0.87123 0.81945
 C759 C 0.68301 0.86591 0.82988
 H760 H 0.66557 0.86509 0.80673
 H761 H 0.68983 0.86917 0.83591
 Cu762 Cu 0.65845 0.84086 0.82125
 Cu763 Cu 0.67739 0.84420 0.84432
 Cu764 Cu 0.65551 0.82223 0.84467
 N765 N 0.64495 0.82995 0.82267
 N766 N 0.64382 0.82271 0.83184
 C767 C 0.63376 0.81616 0.83055
 C768 C 0.62836 0.81952 0.82006
 C769 C 0.63563 0.82826 0.81523
 H770 H 0.63064 0.80942 0.83673
 H771 H 0.63427 0.83299 0.80695
 N772 N 0.66820 0.82331 0.85681
 N773 N 0.67660 0.83166 0.85663
 C774 C 0.68398 0.83001 0.86597
 C775 C 0.67996 0.82021 0.87227
 C776 C 0.66999 0.81614 0.86628
 H777 H 0.69172 0.83548 0.86804
 H778 H 0.66449 0.80851 0.86863
 H779 H 0.66996 0.82946 0.83581
 H780 H 0.65920 0.84024 0.84281
 N781 N 0.17666 0.35637 0.83171
 N782 N 0.16825 0.35609 0.82351
 C783 C 0.16976 0.36546 0.81610
 C784 C 0.17960 0.37187 0.81991
 C785 C 0.18380 0.36592 0.82980
 H786 H 0.16414 0.36754 0.80854
 H787 H 0.19141 0.36839 0.83523
 Cu788 Cu 0.15611 0.34355 0.82357
 Cu789 Cu 0.17758 0.34449 0.84440
 Cu790 Cu 0.15579 0.32220 0.84455
 N791 N 0.14387 0.33113 0.82365
 N792 N 0.14383 0.32278 0.83192
 C793 C 0.13445 0.31541 0.83012
 C794 C 0.12834 0.31937 0.82023
 C795 C 0.13449 0.32933 0.81630
 H796 H 0.13218 0.30779 0.83562
 H797 H 0.13223 0.33484 0.80871
 N798 N 0.16866 0.32321 0.85654
 N799 N 0.17695 0.33167 0.85647
 C800 C 0.18437 0.32997 0.86577
 C801 C 0.18051 0.32002 0.87192
 C802 C 0.17059 0.31590 0.86589
 H803 H 0.19200 0.33555 0.86795
 H804 H 0.16519 0.30818 0.86818
 H805 H 0.16931 0.33069 0.83523
 H806 H 0.15949 0.34031 0.84469
 N807 N 0.17704 0.85594 0.33158
 N808 N 0.16883 0.85551 0.32319
 C809 C 0.17040 0.86487 0.31577
 C810 C 0.18006 0.87142 0.31978
 C811 C 0.18411 0.86557 0.32979
 H812 H 0.16490 0.86684 0.30810
 H813 H 0.19157 0.86816 0.33537
 Cu814 Cu 0.15672 0.84296 0.32283
 Cu815 Cu 0.17777 0.84418 0.34431
 Cu816 Cu 0.15588 0.82215 0.34454
 N817 N 0.14423 0.83079 0.32346
 N818 N 0.14396 0.82268 0.33195
 C819 C 0.13441 0.81547 0.33032
 C820 C 0.12843 0.81931 0.32031
 C821 C 0.13482 0.82901 0.31613
 H822 H 0.13198 0.80802 0.33598
 H823 H 0.13275 0.83436 0.30838
 N824 N 0.16868 0.82309 0.35654
 N825 N 0.17702 0.83150 0.35646
 C826 C 0.18435 0.82985 0.36584
 C827 C 0.18037 0.81999 0.37205
 C828 C 0.17047 0.81587 0.36598
 H829 H 0.19197 0.83542 0.36804
 H830 H 0.16498 0.80824 0.36832
 H831 H 0.16956 0.83036 0.33518
 H832 H 0.15957 0.84032 0.34415
 C833 C 0.24299 1.02560 0.25837
 C834 C 0.25067 1.03167 0.25063
 C835 C 0.25812 1.02548 0.24278
 C836 C 0.25809 1.01283 0.24266
 C837 C 0.25029 1.00654 0.25047
 C838 C 0.24266 1.01295 0.25833
 C839 C 0.23490 1.00655 0.26588
 C840 C 0.23465 0.99407 0.26574
 C841 C 0.24217 0.98755 0.25807
 C842 C 0.25007 0.99383 0.25036
 C843 C 0.26558 1.00631 0.23497
 C844 C 0.26541 0.99383 0.23490
 C845 C 0.25771 0.98743 0.24250
 C846 C 0.25737 0.97478 0.24247
 C847 C 0.24959 0.96871 0.25011
 C848 C 0.24202 0.97490 0.25784
 H849 H 0.22893 1.01116 0.27194
 H850 H 0.22849 0.98955 0.27170
 H851 H 0.27166 1.01083 0.22894
 H852 H 0.27137 0.98921 0.22883
 H853 H 0.25079 1.04140 0.25067
 H854 H 0.24938 0.95898 0.24998
 C855 C 0.25700 0.47435 0.74220
 C856 C 0.24916 0.46851 0.74995
 C857 C 0.24177 0.47490 0.75770
 C858 C 0.24219 0.48755 0.75783
 C859 C 0.25012 0.49362 0.74997
 C860 C 0.25755 0.48699 0.74209
 C861 C 0.26528 0.49317 0.73434
 C862 C 0.26572 0.50565 0.73431
 C863 C 0.25847 0.51238 0.74206
 C864 C 0.25060 0.50632 0.74997
 C865 C 0.23492 0.49429 0.76555
 C866 C 0.23543 0.50677 0.76558
 C867 C 0.24319 0.51295 0.75786
 C868 C 0.24378 0.52559 0.75778
 C869 C 0.25155 0.53143 0.74995
 C870 C 0.25884 0.52503 0.74212
 H871 H 0.27104 0.48839 0.72821
 H872 H 0.27181 0.50999 0.72817
 H873 H 0.22879 0.48994 0.77166
 H874 H 0.22966 0.51155 0.77170
 H875 H 0.24877 0.45879 0.74992
 H876 H 0.25191 0.54115 0.74993
 C877 C 0.75806 -0.02579 0.25703
 C878 C 0.75000 -0.03184 0.24969
 C879 C 0.74195 -0.02564 0.24245
 C880 C 0.74191 -0.01299 0.24242
 C881 C 0.75000 -0.00671 0.24992
 C882 C 0.75809 -0.01313 0.25731
 C883 C 0.76594 -0.00674 0.26475
 C884 C 0.76586 0.00574 0.26494
 C885 C 0.75798 0.01228 0.25764
 C886 C 0.75001 0.00600 0.25002
 C887 C 0.73404 -0.00645 0.23510
 C888 C 0.73415 0.00604 0.23510
 C889 C 0.74205 0.01243 0.24249
 C890 C 0.74225 0.02508 0.24259
 C891 C 0.75006 0.03113 0.25019
 C892 C 0.75784 0.02493 0.25771
 H893 H 0.77220 -0.01137 0.27051
 H894 H 0.77206 0.01025 0.27084
 H895 H 0.72776 -0.01095 0.22928
 H896 H 0.72794 0.01066 0.22929
 H897 H 0.75000 -0.04157 0.24960
 H898 H 0.75007 0.04086 0.25026
 C899 C 0.75749 0.47456 0.75743
 C900 C 0.74962 0.46846 0.74993
 C901 C 0.74170 0.47461 0.74251
 C902 C 0.74157 0.48727 0.74249
 C903 C 0.74951 0.49359 0.75011
 C904 C 0.75750 0.48722 0.75765
 C905 C 0.76524 0.49365 0.76516
 C906 C 0.76515 0.50614 0.76528
 C907 C 0.75736 0.51263 0.75786
 C908 C 0.74948 0.50631 0.75018
 C909 C 0.73377 0.49376 0.73507
 C910 C 0.73378 0.50625 0.73510
 C911 C 0.74156 0.51269 0.74258
 C912 C 0.74167 0.52534 0.74269
 C913 C 0.74943 0.53144 0.75030
 C914 C 0.75720 0.52528 0.75787
 H915 H 0.77143 0.48907 0.77103
 H916 H 0.77128 0.51068 0.77124
 H917 H 0.72760 0.48922 0.72917
 H918 H 0.72762 0.51084 0.72921
 H919 H 0.74967 0.45873 0.74985
 H920 H 0.74941 0.54117 0.75035
 C921 C 0.25690 0.47464 0.25773
 C922 C 0.24918 0.46868 0.24997
 C923 C 0.24172 0.47497 0.24221
 C924 C 0.24190 0.48762 0.24210
 C925 C 0.24972 0.49380 0.24996
 C926 C 0.25726 0.48729 0.25783
 C927 C 0.26491 0.49359 0.26555
 C928 C 0.26514 0.50608 0.26557
 C929 C 0.25774 0.51270 0.25786
 C930 C 0.24997 0.50651 0.24997
 C931 C 0.23451 0.49424 0.23440
 C932 C 0.23476 0.50672 0.23440
 C933 C 0.24242 0.51302 0.24211
 C934 C 0.24274 0.52567 0.24223
 C935 C 0.25041 0.53164 0.25002
 C936 C 0.25786 0.52535 0.25780
 H937 H 0.27077 0.48890 0.27165
 H938 H 0.27117 0.51052 0.27168
 H939 H 0.22846 0.48980 0.22830
 H940 H 0.22889 0.51141 0.22830
 H941 H 0.24895 0.45896 0.25000
 H942 H 0.25055 0.54137 0.25007
 C943 C 0.75728 0.97493 0.74354
 C944 C 0.74927 0.96884 0.75091
 C945 C 0.74130 0.97499 0.75827
 C946 C 0.74129 0.98764 0.75838
 C947 C 0.74932 0.99396 0.75084
 C948 C 0.75736 0.98758 0.74335
 C949 C 0.76520 0.99402 0.73592
 C950 C 0.76512 1.00651 0.73579
 C951 C 0.75725 1.01300 0.74313
 C952 C 0.74931 1.00667 0.75078
 C953 C 0.73348 0.99412 0.76580
 C954 C 0.73354 1.00661 0.76580
 C955 C 0.74135 1.01304 0.75834
 C956 C 0.74145 1.02570 0.75820
 C957 C 0.74921 1.03180 0.75058
 C958 C 0.75704 1.02566 0.74306
 H959 H 0.77144 0.98943 0.73011
 H960 H 0.77131 1.01106 0.72989
 H961 H 0.72728 0.98958 0.77168
 H962 H 0.72736 1.01119 0.77168
 H963 H 0.74923 0.95910 0.75093
 H964 H 0.74914 1.04153 0.75048
 C965 C 0.75733 0.47432 0.24294
 C966 C 0.74983 0.46847 0.25100
 C967 C 0.74240 0.47486 0.25871
 C968 C 0.74236 0.48751 0.25841
 C969 C 0.75003 0.49358 0.25031
 C970 C 0.75757 0.48697 0.24254
 C971 C 0.76510 0.49315 0.23460
 C972 C 0.76524 0.50563 0.23429
 C973 C 0.75782 0.51236 0.24188
 C974 C 0.75012 0.50629 0.24995
 C975 C 0.73489 0.49424 0.26595
 C976 C 0.73492 0.50672 0.26554
 C977 C 0.74247 0.51290 0.25762
 C978 C 0.74259 0.52554 0.25710
 C979 C 0.75025 0.53139 0.24920
 C980 C 0.75783 0.52501 0.24163
 H981 H 0.77096 0.48837 0.22856
 H982 H 0.77121 0.50999 0.22803
 H983 H 0.72892 0.48989 0.27221
 H984 H 0.72898 0.51150 0.27150
 H985 H 0.74974 0.45875 0.25126
 H986 H 0.75027 0.54112 0.24887
 C987 C 0.25726 -0.02556 0.75824
 C988 C 0.24978 -0.03179 0.75047
 C989 C 0.24223 -0.02578 0.74257
 C990 C 0.24203 -0.01312 0.74240
 C991 C 0.24966 -0.00667 0.75022
 C992 C 0.25733 -0.01291 0.75818
 C993 C 0.26485 -0.00635 0.76580
 C994 C 0.26488 0.00614 0.76559
 C995 C 0.25736 0.01250 0.75779
 C996 C 0.24964 0.00605 0.75006
 C997 C 0.23446 -0.00677 0.73464
 C998 C 0.23440 0.00572 0.73452
 C999 C 0.24195 0.01229 0.74213
 C1000 C 0.24206 0.02495 0.74204
 C1001 C 0.24971 0.03117 0.74965
 C1002 C 0.25735 0.02515 0.75745
 H1003 H 0.27080 -0.01083 0.77197
 H1004 H 0.27087 0.01078 0.77161
 H1005 H 0.22851 -0.01142 0.72859
 H1006 H 0.22841 0.01021 0.72839
 H1007 H 0.24984 -0.04152 0.75054
 H1008 H 0.24977 0.04090 0.74947
 C1009 C 0.24221 0.25796 1.02506
 C1010 C 0.24988 0.25029 1.03126
 C1011 C 0.25740 0.24230 1.02532
 C1012 C 0.25731 0.24183 1.01278
 C1013 C 0.24961 0.24964 1.00635
 C1014 C 0.24202 0.25775 1.01252
 C1015 C 0.23451 0.26544 1.00598
 C1016 C 0.23452 0.26525 0.99359
 C1017 C 0.24200 0.25732 0.98731
 C1018 C 0.24957 0.24939 0.99374
 C1019 C 0.26471 0.23382 1.00650
 C1020 C 0.26463 0.23354 0.99412
 C1021 C 0.25718 0.24129 0.98758
 C1022 C 0.25714 0.24122 0.97503
 C1023 C 0.24968 0.24908 0.96883
 C1024 C 0.24218 0.25710 0.97476
 H1025 H 0.22860 0.27172 1.01041
 H1026 H 0.22860 0.27137 0.98896
 H1027 H 0.27063 0.22770 1.01113
 H1028 H 0.27049 0.22722 0.98970
 H1029 H 0.25003 0.25059 1.04091
 H1030 H 0.24979 0.24901 0.95918
 C1031 C 0.25736 0.74170 0.47473
 C1032 C 0.24970 0.74941 0.46858
 C1033 C 0.24200 0.75718 0.47459
 C1034 C 0.24181 0.75728 0.48714
 C1035 C 0.24958 0.74951 0.49351
 C1036 C 0.25740 0.74166 0.48728
 C1037 C 0.26505 0.73406 0.49376
 C1038 C 0.26510 0.73421 0.50615
 C1039 C 0.25749 0.74196 0.51248
 C1040 C 0.24962 0.74965 0.50611
 C1041 C 0.23412 0.76496 0.49347
 C1042 C 0.23414 0.76509 0.50586
 C1043 C 0.24185 0.75756 0.51233
 C1044 C 0.24208 0.75771 0.52488
 C1045 C 0.24986 0.75013 0.53103
 C1046 C 0.25752 0.74231 0.52504
 H1047 H 0.27110 0.72795 0.48929
 H1048 H 0.27118 0.72822 0.51073
 H1049 H 0.22803 0.77095 0.48889
 H1050 H 0.22807 0.77118 0.51033
 H1051 H 0.24981 0.74943 0.45893
 H1052 H 0.25001 0.75037 0.54067
 C1053 C 0.25795 0.75802 -0.02523
 C1054 C 0.25057 0.75005 -0.03137
 C1055 C 0.24309 0.74206 -0.02536
 C1056 C 0.24283 0.74200 -0.01281
 C1057 C 0.25034 0.75004 -0.00645
 C1058 C 0.25798 0.75806 -0.01268
 C1059 C 0.26539 0.76589 -0.00622
 C1060 C 0.26529 0.76587 0.00616
 C1061 C 0.25774 0.75806 0.01251
 C1062 C 0.25019 0.75007 0.00615
 C1063 C 0.23531 0.73416 -0.00647
 C1064 C 0.23511 0.73424 0.00591
 C1065 C 0.24246 0.74212 0.01238
 C1066 C 0.24233 0.74232 0.02493
 C1067 C 0.24982 0.75019 0.03107
 C1068 C 0.25748 0.75801 0.02506
 H1069 H 0.27135 0.77209 -0.01070
 H1070 H 0.27118 0.77206 0.01073
 H1071 H 0.22948 0.72793 -0.01105
 H1072 H 0.22913 0.72805 0.01039
 H1073 H 0.25065 0.75007 -0.04102
 H1074 H 0.24966 0.75024 0.04071
 C1075 C 0.24208 0.24163 0.52486
 C1076 C 0.24975 0.24915 0.53122
 C1077 C 0.25747 0.25708 0.52543
 C1078 C 0.25761 0.25761 0.51289
 C1079 C 0.24988 0.24997 0.50631
 C1080 C 0.24206 0.24194 0.51232
 C1081 C 0.23448 0.23447 0.50564
 C1082 C 0.23465 0.23477 0.49326
 C1083 C 0.24238 0.24259 0.48713
 C1084 C 0.25001 0.25032 0.49371
 C1085 C 0.26526 0.26550 0.50676
 C1086 C 0.26535 0.26588 0.49438
 C1087 C 0.25783 0.25835 0.48770
 C1088 C 0.25791 0.25858 0.47515
 C1089 C 0.25043 0.25088 0.46879
 C1090 C 0.24273 0.24291 0.47459
 H1091 H 0.22837 0.22829 0.50994
 H1092 H 0.22866 0.22882 0.48851
 H1093 H 0.27124 0.27146 0.51151
 H1094 H 0.27141 0.27211 0.49008
 H1095 H 0.24972 0.24881 0.54086
 H1096 H 0.25063 0.25104 0.45915
 C1097 C 0.74190 0.75782 1.02500
 C1098 C 0.74955 0.75013 1.03120
 C1099 C 0.75719 0.74225 1.02525
 C1100 C 0.75726 0.74193 1.01270
 C1101 C 0.74954 0.74971 1.00627
 C1102 C 0.74181 0.75770 1.01244
 C1103 C 0.73426 0.76535 1.00590
 C1104 C 0.73435 0.76523 0.99351
 C1105 C 0.74198 0.75745 0.98723
 C1106 C 0.74962 0.74958 0.99366
 C1107 C 0.76484 0.73410 1.00642
 C1108 C 0.76491 0.73396 0.99404
 C1109 C 0.75740 0.74165 0.98750
 C1110 C 0.75748 0.74169 0.97494
 C1111 C 0.74993 0.74947 0.96874
 C1112 C 0.74225 0.75732 0.97468
 H1113 H 0.72824 0.77152 1.01033
 H1114 H 0.72839 0.77131 0.98888
 H1115 H 0.77081 0.72803 1.01105
 H1116 H 0.77092 0.72778 0.98961
 H1117 H 0.74961 0.75035 1.04084
 H1118 H 0.75011 0.74948 0.95909
 C1119 C 0.75728 0.24175 0.47466
 C1120 C 0.74959 0.24947 0.46858
 C1121 C 0.74184 0.25715 0.47464
 C1122 C 0.74168 0.25720 0.48719
 C1123 C 0.74950 0.24941 0.49350
 C1124 C 0.75733 0.24162 0.48721
 C1125 C 0.76499 0.23398 0.49362
 C1126 C 0.76505 0.23405 0.50600
 C1127 C 0.75745 0.24176 0.51241
 C1128 C 0.74956 0.24948 0.50611
 C1129 C 0.73399 0.26481 0.49360
 C1130 C 0.73404 0.26488 0.50599
 C1131 C 0.74180 0.25733 0.51240
 C1132 C 0.74208 0.25742 0.52496
 C1133 C 0.74989 0.24980 0.53102
 C1134 C 0.75754 0.24203 0.52495
 H1135 H 0.77103 0.22790 0.48910
 H1136 H 0.77114 0.22802 0.51053
 H1137 H 0.72787 0.27081 0.48907
 H1138 H 0.72797 0.27092 0.51052
 H1139 H 0.74968 0.24956 0.45893
 H1140 H 0.75008 0.24998 0.54067
 C1141 C 0.75793 0.25772 -0.02522
 C1142 C 0.75049 0.24985 -0.03143
 C1143 C 0.74275 0.24205 -0.02549
 C1144 C 0.74239 0.24197 -0.01294
 C1145 C 0.74990 0.24994 -0.00651
 C1146 C 0.75767 0.25790 -0.01266
 C1147 C 0.76495 0.26578 -0.00611
 C1148 C 0.76465 0.26582 0.00628
 C1149 C 0.75710 0.25794 0.01254
 C1150 C 0.74964 0.24993 0.00610
 C1151 C 0.73477 0.23415 -0.00668
 C1152 C 0.73456 0.23410 0.00570
 C1153 C 0.74194 0.24189 0.01225
 C1154 C 0.74185 0.24189 0.02480
 C1155 C 0.74922 0.24981 0.03102
 C1156 C 0.75677 0.25780 0.02509
 H1157 H 0.77094 0.27200 -0.01052
 H1158 H 0.77042 0.27206 0.01092
 H1159 H 0.72892 0.22798 -0.01131
 H1160 H 0.72856 0.22789 0.01012
 H1161 H 0.75073 0.24980 -0.04107
 H1162 H 0.74907 0.24976 0.04067
 C1163 C 0.75748 0.75759 0.47475
 C1164 C 0.74973 0.74974 0.46892
 C1165 C 0.74218 0.74204 0.47523
 C1166 C 0.74228 0.74214 0.48779
 C1167 C 0.75015 0.75008 0.49383
 C1168 C 0.75779 0.75785 0.48729
 C1169 C 0.76552 0.76562 0.49346
 C1170 C 0.76577 0.76575 0.50584
 C1171 C 0.75830 0.75813 0.51249
 C1172 C 0.75041 0.75021 0.50644
 C1173 C 0.73477 0.73454 0.49444
 C1174 C 0.73502 0.73468 0.50683
 C1175 C 0.74279 0.74242 0.51299
 C1176 C 0.74322 0.74259 0.52553
 C1177 C 0.75101 0.75042 0.53135
 C1178 C 0.75850 0.75815 0.52503
 H1179 H 0.77146 0.77165 0.48875
 H1180 H 0.77190 0.77189 0.51017
 H1181 H 0.72863 0.72842 0.49011
 H1182 H 0.72907 0.72867 0.51156
 H1183 H 0.74960 0.74959 0.45927
 H1184 H 0.75126 0.75048 0.54100
 C1185 C 0.97441 0.25688 0.24200
 C1186 C 0.96835 0.24891 0.24945
 C1187 C 0.97455 0.24134 0.25717
 C1188 C 0.98721 0.24165 0.25756
 C1189 C 0.99350 0.24973 0.25004
 C1190 C 0.98708 0.25740 0.24222
 C1191 C 0.99348 0.26532 0.23485
 C1192 C 1.00599 0.26575 0.23517
 C1193 C 1.01252 0.25824 0.24285
 C1194 C 1.00623 0.25014 0.25034
 C1195 C 0.99374 0.23412 0.26521
 C1196 C 1.00624 0.23450 0.26549
 C1197 C 1.01265 0.24244 0.25814
 C1198 C 1.02531 0.24293 0.25834
 C1199 C 1.03137 0.25096 0.25098
 C1200 C 1.02519 0.25857 0.24328
 H1201 H 0.98886 0.27127 0.22878
 H1202 H 1.01053 0.27201 0.22934
 H1203 H 0.98922 0.22786 0.27105
 H1204 H 1.01087 0.22853 0.27153
 H1205 H 0.95861 0.24858 0.24922
 H1206 H 1.04111 0.25130 0.25124
 C1207 C 0.47498 0.25788 0.74171
 C1208 C 0.46862 0.25045 0.74944
 C1209 C 0.47452 0.24279 0.75731
 C1210 C 0.48720 0.24242 0.75750
 C1211 C 0.49379 0.24993 0.74965
 C1212 C 0.48766 0.25772 0.74173
 C1213 C 0.49435 0.26512 0.73408
 C1214 C 0.50685 0.26488 0.73419
 C1215 C 0.51310 0.25723 0.74195
 C1216 C 0.50652 0.24969 0.74976
 C1217 C 0.49346 0.23482 0.76530
 C1218 C 0.50597 0.23457 0.76540
 C1219 C 0.51267 0.24193 0.75771
 C1220 C 0.52535 0.24178 0.75771
 C1221 C 0.53170 0.24922 0.74996
 C1222 C 0.52577 0.25690 0.74214
 H1223 H 0.48996 0.27117 0.72794
 H1224 H 0.51159 0.27075 0.72813
 H1225 H 0.48870 0.22899 0.77140
 H1226 H 0.51038 0.22856 0.77157
 H1227 H 0.45887 0.25069 0.74937
 H1228 H 0.54145 0.24905 0.75004
 C1229 C -0.02565 0.25696 0.75774
 C1230 C -0.03166 0.24925 0.75002
 C1231 C -0.02541 0.24178 0.74226
 C1232 C -0.01274 0.24193 0.74211
 C1233 C -0.00650 0.24973 0.74993
 C1234 C -0.01298 0.25730 0.75780
 C1235 C -0.00662 0.26493 0.76548
 C1236 C 0.00589 0.26510 0.76548
 C1237 C 0.01248 0.25766 0.75779
 C1238 C 0.00623 0.24993 0.74991
 C1239 C -0.00615 0.23452 0.73441
 C1240 C 0.00635 0.23474 0.73436
 C1241 C 0.01271 0.24237 0.74204
 C1242 C 0.02539 0.24266 0.74211
 C1243 C 0.03141 0.25026 0.74993
 C1244 C 0.02516 0.25770 0.75774
 H1245 H -0.01129 0.27083 0.77156
 H1246 H 0.01038 0.27112 0.77157
 H1247 H -0.01064 0.22847 0.72834
 H1248 H 0.01101 0.22886 0.72825
 H1249 H -0.04141 0.24903 0.75009
 H1250 H 0.04116 0.25036 0.74998
 C1251 C 0.47486 0.24129 0.24256
 C1252 C 0.46856 0.24890 0.25016
 C1253 C 0.47451 0.25682 0.25772
 C1254 C 0.48719 0.25725 0.25775
 C1255 C 0.49372 0.24957 0.25004
 C1256 C 0.48754 0.24156 0.24239
 C1257 C 0.49418 0.23404 0.23483
 C1258 C 0.50668 0.23435 0.23479
 C1259 C 0.51299 0.24219 0.24232
 C1260 C 0.50646 0.24988 0.25001
 C1261 C 0.49349 0.26509 0.26527
 C1262 C 0.50600 0.26539 0.26524
 C1263 C 0.51265 0.25786 0.25768
 C1264 C 0.52533 0.25807 0.25757
 C1265 C 0.53164 0.25045 0.24997
 C1266 C 0.52566 0.24257 0.24239
 H1267 H 0.48974 0.22784 0.22888
 H1268 H 0.51139 0.22838 0.22880
 H1269 H 0.48877 0.27105 0.27126
 H1270 H 0.51044 0.27158 0.27120
 H1271 H 0.45881 0.24860 0.25024
 H1272 H 0.54138 0.25067 0.24995
 C1273 C 1.02513 0.74269 0.75814
 C1274 C 1.03130 0.75008 0.75022
 C1275 C 1.02520 0.75757 0.74235
 C1276 C 1.01252 0.75777 0.74230
 C1277 C 1.00613 0.75027 0.75031
 C1278 C 1.01245 0.74270 0.75829
 C1279 C 1.00595 0.73535 0.76615
 C1280 C 0.99344 0.73542 0.76618
 C1281 C 0.98700 0.74282 0.75833
 C1282 C 0.99340 0.75032 0.75032
 C1283 C 1.00608 0.76521 0.73449
 C1284 C 0.99357 0.76525 0.73449
 C1285 C 0.98707 0.75786 0.74231
 C1286 C 0.97440 0.75775 0.74236
 C1287 C 0.96823 0.75035 0.75027
 C1288 C 0.97433 0.74295 0.75823
 H1289 H 1.01049 0.72948 0.77235
 H1290 H 0.98883 0.72960 0.77239
 H1291 H 1.01068 0.77106 0.72831
 H1292 H 0.98901 0.77114 0.72831
 H1293 H 1.04105 0.74997 0.75016
 H1294 H 0.95848 0.75033 0.75023
 C1295 C 0.52574 0.74302 0.25781
 C1296 C 0.53162 0.75098 0.25022
 C1297 C 0.52524 0.75862 0.24272
 C1298 C 0.51257 0.75846 0.24278
 C1299 C 0.50646 0.75042 0.25049
 C1300 C 0.51307 0.74265 0.25804
 C1301 C 0.50685 0.73470 0.26554
 C1302 C 0.49434 0.73436 0.26561
 C1303 C 0.48762 0.74196 0.25818
 C1304 C 0.49373 0.75007 0.25055
 C1305 C 0.50585 0.76603 0.23533
 C1306 C 0.49334 0.76569 0.23539
 C1307 C 0.48712 0.75776 0.24290
 C1308 C 0.47445 0.75723 0.24297
 C1309 C 0.46857 0.74926 0.25055
 C1310 C 0.47495 0.74165 0.25809
 H1311 H 0.51163 0.72866 0.27140
 H1312 H 0.48997 0.72807 0.27152
 H1313 H 0.51023 0.77228 0.22937
 H1314 H 0.48857 0.77169 0.22949
 H1315 H 0.54137 0.75114 0.25005
 H1316 H 0.45882 0.74890 0.25050
 C1317 C -0.02548 0.75740 0.25746
 C1318 C -0.03156 0.74964 0.24984
 C1319 C -0.02539 0.74203 0.24215
 C1320 C -0.01271 0.74216 0.24190
 C1321 C -0.00640 0.75000 0.24963
 C1322 C -0.01280 0.75764 0.25748
 C1323 C -0.00637 0.76524 0.26513
 C1324 C 0.00615 0.76532 0.26511
 C1325 C 0.01266 0.75784 0.25739
 C1326 C 0.00634 0.75014 0.24955
 C1327 C -0.00620 0.73468 0.23420
 C1328 C 0.00631 0.73487 0.23407
 C1329 C 0.01274 0.74252 0.24168
 C1330 C 0.02542 0.74275 0.24169
 C1331 C 0.03152 0.75034 0.24946
 C1332 C 0.02534 0.75780 0.25730
 H1333 H -0.01098 0.77117 0.27123
 H1334 H 0.01069 0.77131 0.27119
 H1335 H -0.01073 0.72861 0.22819
 H1336 H 0.01092 0.72894 0.22797
 H1337 H -0.04131 0.74946 0.24996
 H1338 H 0.04127 0.75038 0.24946
 C1339 C 0.47446 0.74206 0.74228
 C1340 C 0.46825 0.74966 0.74996
 C1341 C 0.47430 0.75743 0.75759
 C1342 C 0.48698 0.75771 0.75761
 C1343 C 0.49342 0.75007 0.74979
 C1344 C 0.48714 0.74220 0.74207
 C1345 C 0.49368 0.73469 0.73441
 C1346 C 0.50619 0.73486 0.73434
 C1347 C 0.51259 0.74254 0.74194
 C1348 C 0.50616 0.75022 0.74973
 C1349 C 0.49339 0.76535 0.76524
 C1350 C 0.50590 0.76550 0.76519
 C1351 C 0.51245 0.75802 0.75751
 C1352 C 0.52512 0.75804 0.75739
 C1353 C 0.53133 0.75048 0.74967
 C1354 C 0.52527 0.74275 0.74201
 H1355 H 0.48916 0.72861 0.72840
 H1356 H 0.51081 0.72890 0.72829
 H1357 H 0.48876 0.77127 0.77133
 H1358 H 0.51043 0.77153 0.77125
 H1359 H 0.45850 0.74945 0.75006
 H1360 H 0.54108 0.75056 0.74967
 C1361 C 0.38211 0.31526 0.31476
 C1362 C 0.39088 0.31083 0.31028
 C1363 C 0.40118 0.30526 0.30488
 C1364 C 0.39953 0.29638 0.29627
 C1365 C 0.40944 0.29070 0.29117
 C1366 C 0.42118 0.29379 0.29463
 C1367 C 0.42276 0.30282 0.30321
 C1368 C 0.41281 0.30851 0.30831
 C1369 C 0.43166 0.28755 0.28930
 C1370 C 0.44209 0.29390 0.28608
 C1371 C 0.45164 0.28803 0.28044
 C1372 C 0.45089 0.27575 0.27803
 C1373 C 0.44068 0.26933 0.28146
 C1374 C 0.43115 0.27516 0.28708
 C1375 C 0.46009 0.26973 0.27133
 C1376 C 0.46710 0.26415 0.26533
 H1377 H 0.39057 0.29382 0.29351
 H1378 H 0.40791 0.28394 0.28443
 H1379 H 0.43168 0.30534 0.30613
 H1380 H 0.41419 0.31536 0.31499
 H1381 H 0.44272 0.30346 0.28759
 H1382 H 0.45948 0.29311 0.27774
 H1383 H 0.43998 0.25983 0.27961
 H1384 H 0.42335 0.26997 0.28962
 C1385 C 0.38207 0.81567 0.81524
 C1386 C 0.39076 0.81110 0.81071
 C1387 C 0.40104 0.80549 0.80529
 C1388 C 0.39939 0.79647 0.79683
 C1389 C 0.40932 0.79084 0.79168
 C1390 C 0.42107 0.79414 0.79494
 C1391 C 0.42264 0.80331 0.80338
 C1392 C 0.41268 0.80893 0.80853
 C1393 C 0.43156 0.78797 0.78954
 C1394 C 0.44183 0.79444 0.78603
 C1395 C 0.45140 0.78864 0.78037
 C1396 C 0.45084 0.77629 0.77820
 C1397 C 0.44080 0.76976 0.78191
 C1398 C 0.43124 0.77553 0.78755
 C1399 C 0.46002 0.77031 0.77141
 C1400 C 0.46697 0.76474 0.76533
 H1401 H 0.39043 0.79377 0.79422
 H1402 H 0.40779 0.78398 0.78504
 H1403 H 0.43156 0.80600 0.80614
 H1404 H 0.41406 0.81590 0.81508
 H1405 H 0.44229 0.80404 0.78733
 H1406 H 0.45909 0.79380 0.77744
 H1407 H 0.44024 0.76022 0.78023
 H1408 H 0.42356 0.77025 0.79028
 C1409 C -0.11831 0.31468 0.81501
 C1410 C -0.10960 0.31008 0.81059
 C1411 C -0.09930 0.30443 0.80527
 C1412 C -0.08769 0.30779 0.80864
 C1413 C -0.07771 0.30215 0.80355
 C1414 C -0.07925 0.29307 0.79502
 C1415 C -0.09098 0.28982 0.79165
 C1416 C -0.10092 0.29545 0.79675
 C1417 C -0.06872 0.28698 0.78961
 C1418 C -0.06908 0.27460 0.78729
 C1419 C -0.05948 0.26894 0.78165
 C1420 C -0.04934 0.27551 0.77828
 C1421 C -0.04874 0.28779 0.78076
 C1422 C -0.05837 0.29349 0.78642
 C1423 C -0.04007 0.26966 0.77154
 C1424 C -0.03303 0.26418 0.76549
 H1425 H -0.08634 0.31472 0.81525
 H1426 H -0.06882 0.30478 0.80642
 H1427 H -0.09248 0.28302 0.78495
 H1428 H -0.10987 0.29280 0.79405
 H1429 H -0.07681 0.26929 0.78979
 H1430 H -0.06006 0.25945 0.77970
 H1431 H -0.04097 0.29298 0.77810
 H1432 H -0.05787 0.30305 0.78798
 C1433 C -0.11779 0.81546 0.31497
 C1434 C -0.10898 0.81105 0.31054
 C1435 C -0.09866 0.80551 0.30513
 C1436 C -0.10029 0.79648 0.29668
 C1437 C -0.09037 0.79087 0.29152
 C1438 C -0.07862 0.79419 0.29477
 C1439 C -0.07706 0.80337 0.30319
 C1440 C -0.08702 0.80899 0.30835
 C1441 C -0.06813 0.78801 0.28938
 C1442 C -0.05777 0.79444 0.28603
 C1443 C -0.04821 0.78862 0.28036
 C1444 C -0.04888 0.77631 0.27803
 C1445 C -0.05901 0.76983 0.28159
 C1446 C -0.06854 0.77560 0.28723
 C1447 C -0.03971 0.77033 0.27125
 C1448 C -0.03277 0.76474 0.26518
 H1449 H -0.10925 0.79374 0.29409
 H1450 H -0.09190 0.78400 0.28490
 H1451 H -0.06814 0.80607 0.30595
 H1452 H -0.08565 0.81597 0.31490
 H1453 H -0.05722 0.80401 0.28746
 H1454 H -0.04045 0.79374 0.27757
 H1455 H -0.05964 0.76031 0.27978
 H1456 H -0.07627 0.77035 0.28986
 C1457 C 0.61810 0.68495 0.31539
 C1458 C 0.60933 0.68931 0.31086
 C1459 C 0.59906 0.69472 0.30527
 C1460 C 0.58748 0.69037 0.30746
 C1461 C 0.57758 0.69560 0.30180
 C1462 C 0.57918 0.70525 0.29389
 C1463 C 0.59087 0.70963 0.29189
 C1464 C 0.60072 0.70437 0.29751
 C1465 C 0.56877 0.71077 0.28767
 C1466 C 0.56998 0.71477 0.27586
 C1467 C 0.56050 0.72055 0.27016
 C1468 C 0.54961 0.72236 0.27608
 C1469 C 0.54816 0.71816 0.28771
 C1470 C 0.55769 0.71238 0.29348
 C1471 C 0.54032 0.72914 0.27028
 C1472 C 0.53324 0.73525 0.26490
 H1473 H 0.58611 0.68291 0.31347
 H1474 H 0.56873 0.69195 0.30347
 H1475 H 0.59241 0.71719 0.28606
 H1476 H 0.60964 0.70783 0.29578
 H1477 H 0.57829 0.71347 0.27103
 H1478 H 0.56173 0.72379 0.26116
 H1479 H 0.53977 0.71954 0.29239
 H1480 H 0.55648 0.70950 0.30259
 C1481 C 0.61835 0.18534 0.81450
 C1482 C 0.60929 0.18954 0.81040
 C1483 C 0.59856 0.19480 0.80555
 C1484 C 0.58846 0.18771 0.80328
 C1485 C 0.57810 0.19287 0.79847
 C1486 C 0.57772 0.20521 0.79591
 C1487 C 0.58791 0.21226 0.79831
 C1488 C 0.59825 0.20708 0.80309
 C1489 C 0.56692 0.21071 0.79042
 C1490 C 0.56299 0.22213 0.79400
 C1491 C 0.55346 0.22774 0.78814
 C1492 C 0.54771 0.22200 0.77867
 C1493 C 0.55132 0.21049 0.77527
 C1494 C 0.56084 0.20485 0.78113
 C1495 C 0.53902 0.22846 0.77170
 C1496 C 0.53238 0.23429 0.76553
 H1497 H 0.58860 0.17820 0.80519
 H1498 H 0.57036 0.18724 0.79681
 H1499 H 0.58797 0.22175 0.79625
 H1500 H 0.60603 0.21265 0.80478
 H1501 H 0.56740 0.22679 0.80121
 H1502 H 0.55081 0.23669 0.79078
 H1503 H 0.54704 0.20604 0.76784
 H1504 H 0.56376 0.19613 0.77808
 C1505 C 1.11749 0.68537 0.81531
 C1506 C 1.10851 0.68958 0.81102
 C1507 C 1.09783 0.69465 0.80586
 C1508 C 1.08921 0.70008 0.81313
 C1509 C 1.07893 0.70518 0.80810
 C1510 C 1.07715 0.70490 0.79573
 C1511 C 1.08586 0.69938 0.78851
 C1512 C 1.09613 0.69429 0.79355
 C1513 C 1.06648 0.71069 0.79029
 C1514 C 1.06053 0.70529 0.78065
 C1515 C 1.05110 0.71120 0.77493
 C1516 C 1.04747 0.72255 0.77878
 C1517 C 1.05308 0.72784 0.78859
 C1518 C 1.06250 0.72194 0.79433
 C1519 C 1.03888 0.72928 0.77196
 C1520 C 1.03227 0.73522 0.76587
 H1521 H 1.09045 0.70040 0.82267
 H1522 H 1.07235 0.70929 0.81389
 H1523 H 1.08485 0.69921 0.77894
 H1524 H 1.10279 0.69018 0.78784
 H1525 H 1.06328 0.69657 0.77744
 H1526 H 1.04686 0.70706 0.76730
 H1527 H 1.05042 0.73668 0.79155
 H1528 H 1.06699 0.72639 0.80163
 C1529 C 1.11793 0.18454 0.31485
 C1530 C 1.10912 0.18903 0.31050
 C1531 C 1.09874 0.19468 0.30534
 C1532 C 1.09996 0.20568 0.29950
 C1533 C 1.08993 0.21129 0.29455
 C1534 C 1.07849 0.20597 0.29539
 C1535 C 1.07735 0.19490 0.30128
 C1536 C 1.08742 0.18929 0.30623
 C1537 C 1.06786 0.21196 0.29004
 C1538 C 1.05905 0.20528 0.28399
 C1539 C 1.04947 0.21106 0.27833
 C1540 C 1.04854 0.22356 0.27872
 C1541 C 1.05709 0.23024 0.28496
 C1542 C 1.06666 0.22450 0.29060
 C1543 C 1.03951 0.22975 0.27194
 C1544 C 1.03261 0.23547 0.26594
 H1545 H 1.10868 0.20992 0.29875
 H1546 H 1.09116 0.21971 0.28992
 H1547 H 1.06865 0.19065 0.30220
 H1548 H 1.08636 0.18079 0.31078
 H1549 H 1.05979 0.19564 0.28328
 H1550 H 1.04296 0.20581 0.27342
 H1551 H 1.05651 0.23992 0.28524
 H1552 H 1.07317 0.22989 0.29532
 C1553 C 0.61869 0.31416 0.68558
 C1554 C 0.60966 0.30991 0.68970
 C1555 C 0.59898 0.30458 0.69459
 C1556 C 0.58915 0.31173 0.69773
 C1557 C 0.57885 0.30648 0.70259
 C1558 C 0.57825 0.29401 0.70432
 C1559 C 0.58816 0.28691 0.70106
 C1560 C 0.59844 0.29217 0.69624
 C1561 C 0.56755 0.28840 0.70989
 C1562 C 0.56314 0.27738 0.70569
 C1563 C 0.55371 0.27160 0.71155
 C1564 C 0.54856 0.27677 0.72167
 C1565 C 0.55265 0.28790 0.72571
 C1566 C 0.56206 0.29371 0.71984
 C1567 C 0.53989 0.27015 0.72850
 C1568 C 0.53315 0.26429 0.73454
 H1569 H 0.58947 0.32135 0.69646
 H1570 H 0.57132 0.31216 0.70492
 H1571 H 0.58805 0.27731 0.70248
 H1572 H 0.60602 0.28656 0.69389
 H1573 H 0.56710 0.27315 0.69796
 H1574 H 0.55066 0.26296 0.70839
 H1575 H 0.54881 0.29192 0.73361
 H1576 H 0.56536 0.30211 0.72336
 C1577 C 0.61786 0.81462 0.18471
 C1578 C 0.60880 0.81039 0.18882
 C1579 C 0.59813 0.80511 0.19377
 C1580 C 0.58777 0.81202 0.19542
 C1581 C 0.57749 0.80687 0.20044
 C1582 C 0.57747 0.79474 0.20385
 C1583 C 0.58792 0.78787 0.20208
 C1584 C 0.59817 0.79303 0.19709
 C1585 C 0.56674 0.78928 0.20950
 C1586 C 0.56322 0.77754 0.20657
 C1587 C 0.55371 0.77204 0.21255
 C1588 C 0.54757 0.77818 0.22152
 C1589 C 0.55078 0.78998 0.22429
 C1590 C 0.56028 0.79552 0.21829
 C1591 C 0.53887 0.77191 0.22864
 C1592 C 0.53224 0.76615 0.23490
 H1593 H 0.58764 0.82138 0.19285
 H1594 H 0.56955 0.81235 0.20160
 H1595 H 0.58825 0.77857 0.20480
 H1596 H 0.60616 0.78762 0.19589
 H1597 H 0.56793 0.77256 0.19975
 H1598 H 0.55137 0.76287 0.21041
 H1599 H 0.54619 0.79476 0.23133
 H1600 H 0.56288 0.80451 0.22084
 C1601 C 1.11774 0.31504 0.18480
 C1602 C 1.10896 0.31078 0.18943
 C1603 C 1.09862 0.30565 0.19517
 C1604 C 1.10019 0.29755 0.20453
 C1605 C 1.09022 0.29262 0.21026
 C1606 C 1.07850 0.29578 0.20675
 C1607 C 1.07702 0.30390 0.19728
 C1608 C 1.08702 0.30880 0.19153
 C1609 C 1.06793 0.29056 0.21295
 C1610 C 1.05761 0.28712 0.20658
 C1611 C 1.04798 0.28157 0.21240
 C1612 C 1.04854 0.27945 0.22464
 C1613 C 1.05863 0.28311 0.23108
 C1614 C 1.06823 0.28865 0.22530
 C1615 C 1.03935 0.27266 0.23059
 C1616 C 1.03241 0.26650 0.23608
 H1617 H 1.10913 0.29503 0.20740
 H1618 H 1.09170 0.28623 0.21736
 H1619 H 1.06813 0.30661 0.19444
 H1620 H 1.08572 0.31509 0.18431
 H1621 H 1.05713 0.28835 0.19705
 H1622 H 1.04025 0.27869 0.20731
 H1623 H 1.05920 0.28144 0.24055
 H1624 H 1.07593 0.29136 0.23051
 C1625 C 1.11790 0.81430 0.68481
 C1626 C 1.10894 0.80997 0.68900
 C1627 C 1.09835 0.80455 0.69400
 C1628 C 1.09866 0.79257 0.69765
 C1629 C 1.08845 0.78724 0.70256
 C1630 C 1.07777 0.79384 0.70390
 C1631 C 1.07753 0.80588 0.70020
 C1632 C 1.08776 0.81120 0.69526
 C1633 C 1.06706 0.78820 0.70941
 C1634 C 1.06022 0.79443 0.71793
 C1635 C 1.05074 0.78875 0.72382
 C1636 C 1.04791 0.77681 0.72121
 C1637 C 1.05441 0.77067 0.71249
 C1638 C 1.06391 0.77632 0.70662
 C1639 C 1.03917 0.77048 0.72824
 C1640 C 1.03244 0.76481 0.73447
 H1641 H 1.10682 0.78736 0.69677
 H1642 H 1.08898 0.77802 0.70551
 H1643 H 1.06941 0.81115 0.70105
 H1644 H 1.08742 0.82047 0.69243
 H1645 H 1.06251 0.80353 0.72036
 H1646 H 1.04585 0.79354 0.73066
 H1647 H 1.05235 0.76141 0.71045
 H1648 H 1.06891 0.77135 0.69999
 C1649 C 0.38182 0.68454 0.68611
 C1650 C 0.39090 0.68835 0.69054
 C1651 C 0.40163 0.69300 0.69596
 C1652 C 0.40144 0.69658 0.70787
 C1653 C 0.41174 0.70138 0.71311
 C1654 C 0.42239 0.70267 0.70650
 C1655 C 0.42253 0.69896 0.69456
 C1656 C 0.41221 0.69414 0.68933
 C1657 C 0.43314 0.70826 0.71199
 C1658 C 0.43998 0.71674 0.70566
 C1659 C 0.44942 0.72283 0.71122
 C1660 C 0.45217 0.72045 0.72312
 C1661 C 0.44570 0.71173 0.72935
 C1662 C 0.43626 0.70566 0.72383
 C1663 C 0.46076 0.72774 0.72934
 C1664 C 0.46736 0.73412 0.73499
 H1665 H 0.39329 0.69579 0.71308
 H1666 H 0.41128 0.70434 0.72227
 H1667 H 0.43062 0.69975 0.68928
 H1668 H 0.41246 0.69138 0.68011
 H1669 H 0.43773 0.71904 0.69658
 H1670 H 0.45430 0.72965 0.70635
 H1671 H 0.44772 0.70986 0.73858
 H1672 H 0.43127 0.69906 0.72888
 C1673 C 0.38218 0.18418 0.18597
 C1674 C 0.39122 0.18802 0.19045
 C1675 C 0.40192 0.19270 0.19591
 C1676 C 0.40168 0.19624 0.20782
 C1677 C 0.41195 0.20103 0.21312
 C1678 C 0.42263 0.20235 0.20655
 C1679 C 0.42281 0.19869 0.19459
 C1680 C 0.41251 0.19388 0.18931
 C1681 C 0.43338 0.20787 0.21211
 C1682 C 0.44031 0.21632 0.20584
 C1683 C 0.44981 0.22227 0.21144
 C1684 C 0.45253 0.21981 0.22333
 C1685 C 0.44593 0.21114 0.22951
 C1686 C 0.43643 0.20520 0.22395
 C1687 C 0.46120 0.22697 0.22959
 C1688 C 0.46782 0.23331 0.23526
 H1689 H 0.39351 0.19542 0.21300
 H1690 H 0.41145 0.20395 0.22228
 H1691 H 0.43092 0.19949 0.18934
 H1692 H 0.41280 0.19114 0.18008
 H1693 H 0.43810 0.21868 0.19677
 H1694 H 0.45476 0.22907 0.20661
 H1695 H 0.44790 0.20921 0.23875
 H1696 H 0.43137 0.19863 0.22896
 C1697 C -0.11830 0.68451 0.18610
 C1698 C -0.10922 0.68838 0.19051
 C1699 C -0.09850 0.69311 0.19589
 C1700 C -0.09870 0.69677 0.20778
 C1701 C -0.08841 0.70160 0.21301
 C1702 C -0.07774 0.70288 0.20640
 C1703 C -0.07760 0.69912 0.19447
 C1704 C -0.08792 0.69426 0.18926
 C1705 C -0.06698 0.70845 0.21191
 C1706 C -0.06008 0.71689 0.20558
 C1707 C -0.05061 0.72292 0.21114
 C1708 C -0.04788 0.72055 0.22305
 C1709 C -0.05443 0.71189 0.22928
 C1710 C -0.06390 0.70586 0.22376
 C1711 C -0.03921 0.72777 0.22925
 C1712 C -0.03254 0.73411 0.23488
 H1713 H -0.10685 0.69599 0.21298
 H1714 H -0.08888 0.70460 0.22214
 H1715 H -0.06950 0.69989 0.18919
 H1716 H -0.08765 0.69145 0.18005
 H1717 H -0.06230 0.71917 0.19649
 H1718 H -0.04568 0.72970 0.20626
 H1719 H -0.05244 0.71002 0.23852
 H1720 H -0.06893 0.69930 0.22881
 C1721 C -0.11777 0.18486 0.68486
 C1722 C -0.10864 0.18893 0.68896
 C1723 C -0.09782 0.19391 0.69388
 C1724 C -0.09014 0.18677 0.70072
 C1725 C -0.07982 0.19173 0.70580
 C1726 C -0.07706 0.20394 0.70414
 C1727 C -0.08478 0.21099 0.69713
 C1728 C -0.09508 0.20600 0.69204
 C1729 C -0.06647 0.20942 0.71007
 C1730 C -0.05974 0.21845 0.70438
 C1731 C -0.05043 0.22427 0.71038
 C1732 C -0.04765 0.22110 0.72209
 C1733 C -0.05404 0.21190 0.72769
 C1734 C -0.06337 0.20609 0.72174
 C1735 C -0.03909 0.22799 0.72875
 C1736 C -0.03249 0.23409 0.73470
 H1737 H -0.09217 0.17740 0.70221
 H1738 H -0.07398 0.18600 0.71099
 H1739 H -0.08304 0.22044 0.69578
 H1740 H -0.10099 0.21161 0.68680
 H1741 H -0.06178 0.22113 0.69536
 H1742 H -0.04559 0.23144 0.70599
 H1743 H -0.05206 0.20946 0.73680
 H1744 H -0.06847 0.19932 0.72645
 C1745 C 0.31488 0.38212 0.31479
 C1746 C 0.31048 0.39094 0.31039
 C1747 C 0.30494 0.40128 0.30507
 C1748 C 0.30835 0.41286 0.30847
 C1749 C 0.30270 0.42285 0.30343
 C1750 C 0.29354 0.42136 0.29494
 C1751 C 0.29029 0.40967 0.29152
 C1752 C 0.29592 0.39972 0.29657
 C1753 C 0.28734 0.43188 0.28964
 C1754 C 0.27494 0.43139 0.28729
 C1755 C 0.26918 0.44091 0.28163
 C1756 C 0.27565 0.45111 0.27830
 C1757 C 0.28792 0.45186 0.28087
 C1758 C 0.29374 0.44231 0.28654
 C1759 C 0.26969 0.46028 0.27152
 C1760 C 0.26415 0.46726 0.26546
 H1761 H 0.31532 0.41416 0.31507
 H1762 H 0.30534 0.43171 0.30633
 H1763 H 0.28345 0.40820 0.28484
 H1764 H 0.29323 0.39081 0.29385
 H1765 H 0.26970 0.42361 0.28975
 H1766 H 0.25968 0.44021 0.27964
 H1767 H 0.29303 0.45970 0.27827
 H1768 H 0.30330 0.44294 0.28815
 C1769 C 0.31480 -0.11791 0.81539
 C1770 C 0.31024 -0.10917 0.81101
 C1771 C 0.30473 -0.09870 0.80588
 C1772 C 0.29305 -0.09936 0.80138
 C1773 C 0.28763 -0.08919 0.79652
 C1774 C 0.29383 -0.07820 0.79609
 C1775 C 0.30560 -0.07765 0.80058
 C1776 C 0.31100 -0.08783 0.80547
 C1777 C 0.28808 -0.06747 0.79075
 C1778 C 0.29457 -0.05992 0.78305
 C1779 C 0.28887 -0.05034 0.77734
 C1780 C 0.27666 -0.04815 0.77932
 C1781 C 0.27023 -0.05539 0.78725
 C1782 C 0.27589 -0.06498 0.79293
 C1783 C 0.27035 -0.03937 0.77233
 C1784 C 0.26463 -0.03267 0.76612
 H1785 H 0.28815 -0.10774 0.80159
 H1786 H 0.27865 -0.08996 0.79290
 H1787 H 0.31059 -0.06931 0.80041
 H1788 H 0.32004 -0.08723 0.80895
 H1789 H 0.30392 -0.06171 0.78109
 H1790 H 0.29389 -0.04488 0.77111
 H1791 H 0.26075 -0.05383 0.78878
 H1792 H 0.27069 -0.07054 0.79892
 C1793 C 0.81459 0.38177 0.81422
 C1794 C 0.81046 0.39067 0.80972
 C1795 C 0.80552 0.40129 0.80433
 C1796 C 0.80317 0.41144 0.81124
 C1797 C 0.79831 0.42173 0.80601
 C1798 C 0.79577 0.42199 0.79376
 C1799 C 0.79819 0.41174 0.78689
 C1800 C 0.80303 0.40147 0.79215
 C1801 C 0.79029 0.43275 0.78820
 C1802 C 0.79396 0.43657 0.77685
 C1803 C 0.78814 0.44610 0.77121
 C1804 C 0.77859 0.45195 0.77684
 C1805 C 0.77512 0.44847 0.78829
 C1806 C 0.78095 0.43896 0.79396
 C1807 C 0.77161 0.46065 0.77040
 C1808 C 0.76538 0.46735 0.76469
 H1809 H 0.80507 0.41141 0.82068
 H1810 H 0.79663 0.42951 0.81151
 H1811 H 0.79614 0.41159 0.77749
 H1812 H 0.80475 0.39364 0.78672
 H1813 H 0.80124 0.43209 0.77226
 H1814 H 0.79086 0.44868 0.76232
 H1815 H 0.76767 0.45286 0.79267
 H1816 H 0.77784 0.43615 0.80264
 C1817 C 0.81519 -0.11839 0.31437
 C1818 C 0.81113 -0.10950 0.30978
 C1819 C 0.80622 -0.09903 0.30409
 C1820 C 0.80760 -0.08769 0.30924
 C1821 C 0.80283 -0.07755 0.30364
 C1822 C 0.79662 -0.07863 0.29280
 C1823 C 0.79527 -0.09009 0.28773
 C1824 C 0.80005 -0.10019 0.29334
 C1825 C 0.79135 -0.06795 0.28686
 C1826 C 0.79160 -0.06692 0.27440
 C1827 C 0.78581 -0.05739 0.26872
 C1828 C 0.77974 -0.04873 0.27540
 C1829 C 0.77978 -0.04944 0.28782
 C1830 C 0.78557 -0.05897 0.29352
 C1831 C 0.77257 -0.03986 0.26940
 C1832 C 0.76617 -0.03306 0.26400
 H1833 H 0.81237 -0.08669 0.31757
 H1834 H 0.80410 -0.06886 0.30772
 H1835 H 0.79034 -0.09128 0.27952
 H1836 H 0.79887 -0.10893 0.28930
 H1837 H 0.79614 -0.07356 0.26901
 H1838 H 0.78581 -0.05696 0.25910
 H1839 H 0.77503 -0.04282 0.29307
 H1840 H 0.78512 -0.05955 0.30312
 C1841 C 0.31477 0.61777 0.68484
 C1842 C 0.31069 0.60861 0.68884
 C1843 C 0.30563 0.59775 0.69361
 C1844 C 0.29320 0.59678 0.69511
 C1845 C 0.28823 0.58635 0.69990
 C1846 C 0.29563 0.57672 0.70330
 C1847 C 0.30812 0.57774 0.70169
 C1848 C 0.31308 0.58819 0.69686
 C1849 C 0.29032 0.56590 0.70891
 C1850 C 0.29573 0.56067 0.71895
 C1851 C 0.29009 0.55124 0.72496
 C1852 C 0.27902 0.54688 0.72097
 C1853 C 0.27380 0.55173 0.71073
 C1854 C 0.27941 0.56116 0.70472
 C1855 C 0.27240 0.53841 0.72805
 C1856 C 0.26645 0.53194 0.73429
 H1857 H 0.28735 0.60414 0.69267
 H1858 H 0.27860 0.58593 0.70122
 H1859 H 0.31403 0.57044 0.70414
 H1860 H 0.32272 0.58883 0.69572
 H1861 H 0.30406 0.56420 0.72246
 H1862 H 0.29415 0.54765 0.73295
 H1863 H 0.26520 0.54846 0.70760
 H1864 H 0.27511 0.56489 0.69693
 C1865 C 0.31453 1.11801 0.18501
 C1866 C 0.31019 1.10908 0.18923
 C1867 C 0.30480 1.09853 0.19428
 C1868 C 0.31150 1.08800 0.19558
 C1869 C 0.30621 1.07779 0.20054
 C1870 C 0.29414 1.07800 0.20424
 C1871 C 0.28749 1.08862 0.20286
 C1872 C 0.29279 1.09882 0.19793
 C1873 C 0.28855 1.06730 0.20979
 C1874 C 0.27668 1.06407 0.20700
 C1875 C 0.27112 1.05453 0.21288
 C1876 C 0.27734 1.04810 0.22160
 C1877 C 0.28926 1.05104 0.22422
 C1878 C 0.29486 1.06056 0.21832
 C1879 C 0.27109 1.03935 0.22865
 C1880 C 0.26543 1.03263 0.23490
 H1881 H 0.32079 1.08768 0.19276
 H1882 H 0.31151 1.06970 0.20141
 H1883 H 0.27824 1.08912 0.20580
 H1884 H 0.28755 1.10694 0.19701
 H1885 H 0.27165 1.06900 0.20037
 H1886 H 0.26185 1.05239 0.21085
 H1887 H 0.29411 1.04622 0.23106
 H1888 H 0.30396 1.06294 0.22076
 C1889 C 0.81459 0.61763 0.18466
 C1890 C 0.81028 0.60859 0.18870
 C1891 C 0.80487 0.59792 0.19350
 C1892 C 0.79283 0.59811 0.19706
 C1893 C 0.78753 0.58785 0.20185
 C1894 C 0.79422 0.57722 0.20316
 C1895 C 0.80629 0.57709 0.19950
 C1896 C 0.81158 0.58738 0.19468
 C1897 C 0.78864 0.56647 0.20864
 C1898 C 0.79495 0.55967 0.21712
 C1899 C 0.78934 0.55013 0.22298
 C1900 C 0.77740 0.54725 0.22039
 C1901 C 0.77118 0.55373 0.21171
 C1902 C 0.77676 0.56327 0.20586
 C1903 C 0.77107 0.53856 0.22746
 C1904 C 0.76529 0.53196 0.23372
 H1905 H 0.78756 0.60623 0.19621
 H1906 H 0.77827 0.58829 0.20475
 H1907 H 0.81162 0.56901 0.20029
 H1908 H 0.82089 0.58712 0.19190
 H1909 H 0.80406 0.56201 0.21955
 H1910 H 0.79418 0.54528 0.22981
 H1911 H 0.76190 0.55164 0.20970
 H1912 H 0.77172 0.56826 0.19928
 C1913 C 0.81382 1.11813 0.68531
 C1914 C 0.80949 1.10915 0.68950
 C1915 C 0.80415 1.09855 0.69451
 C1916 C 0.79209 1.09873 0.69799
 C1917 C 0.78683 1.08853 0.70296
 C1918 C 0.79357 1.07798 0.70455
 C1919 C 0.80569 1.07787 0.70101
 C1920 C 0.81094 1.08809 0.69601
 C1921 C 0.78798 1.06728 0.71013
 C1922 C 0.79423 1.06059 0.71874
 C1923 C 0.78857 1.05115 0.72472
 C1924 C 0.77664 1.04823 0.72211
 C1925 C 0.77048 1.05459 0.71329
 C1926 C 0.77611 1.06403 0.70732
 C1927 C 0.77030 1.03953 0.72917
 C1928 C 0.76452 1.03283 0.73535
 H1929 H 0.78678 1.10679 0.69691
 H1930 H 0.77753 1.08897 0.70576
 H1931 H 0.81107 1.06984 0.70202
 H1932 H 0.82028 1.08784 0.69333
 H1933 H 0.80333 1.06296 0.72118
 H1934 H 0.79338 1.04638 0.73162
 H1935 H 0.76122 1.05245 0.71124
 H1936 H 0.77111 1.06890 0.70062
 C1937 C 0.68506 0.61781 0.31509
 C1938 C 0.68933 0.60904 0.31051
 C1939 C 0.69465 0.59878 0.30484
 C1940 C 0.69086 0.58717 0.30772
 C1941 C 0.69605 0.57727 0.30207
 C1942 C 0.70511 0.57888 0.29348
 C1943 C 0.70891 0.59061 0.29078
 C1944 C 0.70368 0.60046 0.29638
 C1945 C 0.71060 0.56846 0.28729
 C1946 C 0.71384 0.56937 0.27523
 C1947 C 0.71960 0.55990 0.26951
 C1948 C 0.72213 0.54931 0.27567
 C1949 C 0.71869 0.54815 0.28758
 C1950 C 0.71295 0.55767 0.29336
 C1951 C 0.72889 0.54007 0.26979
 C1952 C 0.73493 0.53302 0.26432
 H1953 H 0.68386 0.58577 0.31427
 H1954 H 0.69284 0.56838 0.30429
 H1955 H 0.71603 0.59219 0.28441
 H1956 H 0.70671 0.60941 0.29411
 H1957 H 0.71198 0.57743 0.27021
 H1958 H 0.72226 0.56091 0.26030
 H1959 H 0.72065 0.54000 0.29244
 H1960 H 0.71067 0.55670 0.30266
 C1961 C 0.68535 1.11910 0.81443
 C1962 C 0.68948 1.11005 0.81026
 C1963 C 0.69457 1.09930 0.80535
 C1964 C 0.70702 1.09834 0.80396
 C1965 C 0.71202 1.08794 0.79916
 C1966 C 0.70463 1.07836 0.79564
 C1967 C 0.69213 1.07939 0.79708
 C1968 C 0.68714 1.08980 0.80193
 C1969 C 0.70998 1.06754 0.79013
 C1970 C 0.70481 1.06246 0.77990
 C1971 C 0.71044 1.05291 0.77410
 C1972 C 0.72124 1.04828 0.77850
 C1973 C 0.72622 1.05301 0.78890
 C1974 C 0.72063 1.06257 0.79469
 C1975 C 0.72785 1.03958 0.77171
 C1976 C 0.73381 1.03290 0.76572
 H1977 H 0.71285 1.10567 0.80653
 H1978 H 0.72166 1.08749 0.79797
 H1979 H 0.68623 1.07212 0.79452
 H1980 H 0.67749 1.09044 0.80299
 H1981 H 0.69669 1.06618 0.77612
 H1982 H 0.70658 1.04942 0.76597
 H1983 H 0.73461 1.04953 0.79234
 H1984 H 0.72473 1.06621 0.80263
 C1985 C 0.18565 0.61837 0.81440
 C1986 C 0.19022 0.60966 0.80993
 C1987 C 0.19586 0.59935 0.80465
 C1988 C 0.20563 0.60086 0.79697
 C1989 C 0.21133 0.59088 0.79203
 C1990 C 0.20734 0.57922 0.79472
 C1991 C 0.19744 0.57779 0.80237
 C1992 C 0.19175 0.58780 0.80731
 C1993 C 0.21349 0.56863 0.78949
 C1994 C 0.20687 0.55874 0.78533
 C1995 C 0.21268 0.54913 0.77976
 C1996 C 0.22517 0.54928 0.77834
 C1997 C 0.23184 0.55892 0.78274
 C1998 C 0.22606 0.56851 0.78829
 C1999 C 0.23117 0.54011 0.77158
 C2000 C 0.23665 0.53309 0.76552
 H2001 H 0.20886 0.60976 0.79482
 H2002 H 0.21878 0.59231 0.78601
 H2003 H 0.19423 0.56894 0.80470
 H2004 H 0.18421 0.58652 0.81327
 H2005 H 0.19718 0.55859 0.78603
 H2006 H 0.20742 0.54175 0.77631
 H2007 H 0.24150 0.55915 0.78165
 H2008 H 0.23144 0.57588 0.79157
 C2009 C 0.18455 1.11730 0.31540
 C2010 C 0.18861 1.10821 0.31124
 C2011 C 0.19366 1.09749 0.30621
 C2012 C 0.19251 1.09526 0.29403
 C2013 C 0.19786 1.08514 0.28901
 C2014 C 0.20446 1.07711 0.29610
 C2015 C 0.20546 1.07936 0.30836
 C2016 C 0.20007 1.08948 0.31338
 C2017 C 0.21062 1.06670 0.29061
 C2018 C 0.22243 1.06372 0.29391
 C2019 C 0.22856 1.05449 0.28810
 C2020 C 0.22295 1.04809 0.27897
 C2021 C 0.21110 1.05078 0.27583
 C2022 C 0.20497 1.06001 0.28162
 C2023 C 0.22969 1.03951 0.27215
 C2024 C 0.23558 1.03284 0.26607
 H2025 H 0.18763 1.10144 0.28839
 H2026 H 0.19710 1.08376 0.27951
 H2027 H 0.21040 1.07329 0.31406
 H2028 H 0.20099 1.09112 0.32282
 H2029 H 0.22708 1.06880 0.30069
 H2030 H 0.23779 1.05259 0.29049
 H2031 H 0.20670 1.04593 0.26873
 H2032 H 0.19584 1.06201 0.27898
 C2033 C 0.68500 0.38193 0.68562
 C2034 C 0.68898 0.39110 0.68966
 C2035 C 0.69397 0.40196 0.69447
 C2036 C 0.68658 0.41033 0.70014
 C2037 C 0.69155 0.42068 0.70513
 C2038 C 0.70399 0.42278 0.70451
 C2039 C 0.71131 0.41439 0.69863
 C2040 C 0.70633 0.40406 0.69366
 C2041 C 0.70943 0.43339 0.71040
 C2042 C 0.71896 0.43964 0.70500
 C2043 C 0.72471 0.44899 0.71099
 C2044 C 0.72101 0.45223 0.72243
 C2045 C 0.71134 0.44628 0.72774
 C2046 C 0.70556 0.43694 0.72176
 C2047 C 0.72785 0.46082 0.72915
 C2048 C 0.73395 0.46745 0.73506
 H2049 H 0.67699 0.40882 0.70078
 H2050 H 0.68566 0.42704 0.70948
 H2051 H 0.72094 0.41565 0.69816
 H2052 H 0.71214 0.39762 0.68932
 H2053 H 0.72206 0.43720 0.69620
 H2054 H 0.73224 0.45348 0.70682
 H2055 H 0.70850 0.44861 0.73666
 H2056 H 0.69838 0.43220 0.72623
 C2057 C 0.68445 -0.11827 0.18614
 C2058 C 0.68831 -0.10924 0.19061
 C2059 C 0.69301 -0.09855 0.19605
 C2060 C 0.69634 -0.09870 0.20803
 C2061 C 0.70115 -0.08844 0.21331
 C2062 C 0.70272 -0.07787 0.20666
 C2063 C 0.69927 -0.07778 0.19463
 C2064 C 0.69443 -0.08806 0.18937
 C2065 C 0.70832 -0.06716 0.21219
 C2066 C 0.71700 -0.06044 0.20599
 C2067 C 0.72301 -0.05098 0.21158
 C2068 C 0.72036 -0.04807 0.22339
 C2069 C 0.71147 -0.05445 0.22950
 C2070 C 0.70548 -0.06392 0.22395
 C2071 C 0.72755 -0.03942 0.22964
 C2072 C 0.73392 -0.03277 0.23526
 H2073 H 0.69533 -0.10679 0.21328
 H2074 H 0.70390 -0.08887 0.22253
 H2075 H 0.70026 -0.06975 0.18931
 H2076 H 0.69186 -0.08784 0.18009
 H2077 H 0.71949 -0.06279 0.19699
 H2078 H 0.72997 -0.04619 0.20681
 H2079 H 0.70941 -0.05233 0.23867
 H2080 H 0.69873 -0.06881 0.22890
 C2081 C 0.18538 0.38238 0.18475
 C2082 C 0.18943 0.39149 0.18887
 C2083 C 0.19435 0.40231 0.19382
 C2084 C 0.20647 0.40508 0.19208
 C2085 C 0.21137 0.41541 0.19714
 C2086 C 0.20420 0.42318 0.20399
 C2087 C 0.19196 0.42039 0.20553
 C2088 C 0.18710 0.41001 0.20050
 C2089 C 0.20960 0.43384 0.20988
 C2090 C 0.20591 0.43725 0.22136
 C2091 C 0.21162 0.44666 0.22729
 C2092 C 0.22111 0.45280 0.22185
 C2093 C 0.22463 0.44973 0.21032
 C2094 C 0.21888 0.44036 0.20434
 C2095 C 0.22796 0.46136 0.22858
 C2096 C 0.23404 0.46793 0.23458
 H2097 H 0.21217 0.39918 0.18694
 H2098 H 0.22086 0.41713 0.19593
 H2099 H 0.18614 0.42622 0.21060
 H2100 H 0.17769 0.40796 0.20190
 H2101 H 0.19893 0.43236 0.22598
 H2102 H 0.20890 0.44888 0.23626
 H2103 H 0.23202 0.45436 0.20605
 H2104 H 0.22182 0.43813 0.19544
 C2105 C 0.18460 -0.11815 0.68527
 C2106 C 0.18900 -0.10932 0.68964
 C2107 C 0.19457 -0.09897 0.69488
 C2108 C 0.18992 -0.08749 0.69288
 C2109 C 0.19551 -0.07746 0.69790
 C2110 C 0.20586 -0.07882 0.70494
 C2111 C 0.21042 -0.09041 0.70693
 C2112 C 0.20481 -0.10040 0.70193
 C2113 C 0.21189 -0.06825 0.71029
 C2114 C 0.22450 -0.06761 0.71063
 C2115 C 0.23022 -0.05808 0.71631
 C2116 C 0.22346 -0.04902 0.72171
 C2117 C 0.21091 -0.04940 0.72117
 C2118 C 0.20515 -0.05894 0.71546
 C2119 C 0.22950 -0.04001 0.72861
 C2120 C 0.23503 -0.03311 0.73477
 H2121 H 0.18202 -0.08627 0.68740
 H2122 H 0.19185 -0.06865 0.69613
 H2123 H 0.21824 -0.09178 0.71248
 H2124 H 0.20848 -0.10924 0.70356
 H2125 H 0.22994 -0.07454 0.70659
 H2126 H 0.23994 -0.05791 0.71672
 H2127 H 0.20559 -0.04251 0.72543
 H2128 H 0.19543 -0.05925 0.71544
 C2129 C 0.31570 0.31592 0.38388
 C2130 C 0.31163 0.31181 0.39295
 C2131 C 0.30674 0.30679 0.40371
 C2132 C 0.30127 0.31420 0.41216
 C2133 C 0.29624 0.30925 0.42245
 C2134 C 0.29663 0.29680 0.42443
 C2135 C 0.30227 0.28945 0.41593
 C2136 C 0.30727 0.29442 0.40565
 C2137 C 0.29077 0.29138 0.43502
 C2138 C 0.29610 0.28165 0.44098
 C2139 C 0.29003 0.27582 0.45021
 C2140 C 0.27858 0.27966 0.45363
 C2141 C 0.27339 0.28961 0.44806
 C2142 C 0.27945 0.29545 0.43884
 C2143 C 0.27167 0.27267 0.46194
 C2144 C 0.26558 0.26645 0.46831
 H2145 H 0.30082 0.32380 0.41076
 H2146 H 0.29207 0.31515 0.42887
 H2147 H 0.30254 0.27982 0.41708
 H2148 H 0.31144 0.28859 0.39915
 H2149 H 0.30488 0.27842 0.43837
 H2150 H 0.29412 0.26811 0.45442
 H2151 H 0.26449 0.29259 0.45057
 H2152 H 0.27504 0.30283 0.43436
 C2153 C 0.31511 0.81535 -0.11717
 C2154 C 0.31071 0.81121 -0.10828
 C2155 C 0.30521 0.80624 -0.09780
 C2156 C 0.29343 0.80195 -0.09835
 C2157 C 0.28802 0.79705 -0.08825
 C2158 C 0.29433 0.79639 -0.07743
 C2159 C 0.30618 0.80074 -0.07697
 C2160 C 0.31158 0.80564 -0.08710
 C2161 C 0.28859 0.79096 -0.06679
 C2162 C 0.29508 0.78315 -0.05936
 C2163 C 0.28939 0.77734 -0.04988
 C2164 C 0.27718 0.77932 -0.04768
 C2165 C 0.27075 0.78734 -0.05481
 C2166 C 0.27641 0.79314 -0.06428
 C2167 C 0.27092 0.77226 -0.03897
 C2168 C 0.26525 0.76598 -0.03231
 H2169 H 0.28843 0.80234 -0.10660
 H2170 H 0.27897 0.79360 -0.08896
 H2171 H 0.31123 0.80045 -0.06875
 H2172 H 0.32070 0.80897 -0.08658
 H2173 H 0.30443 0.78118 -0.06114
 H2174 H 0.29441 0.77104 -0.04450
 H2175 H 0.26127 0.78886 -0.05324
 H2176 H 0.27121 0.79923 -0.06974
 C2177 C 0.81427 0.31599 -0.11702
 C2178 C 0.81021 0.31197 -0.10790
 C2179 C 0.80533 0.30707 -0.09709
 C2180 C 0.79314 0.30853 -0.09446
 C2181 C 0.78826 0.30337 -0.08422
 C2182 C 0.79553 0.29670 -0.07638
 C2183 C 0.80783 0.29549 -0.07900
 C2184 C 0.81268 0.30061 -0.08930
 C2185 C 0.79016 0.29066 -0.06582
 C2186 C 0.79407 0.27918 -0.06233
 C2187 C 0.78835 0.27309 -0.05305
 C2188 C 0.77864 0.27835 -0.04713
 C2189 C 0.77492 0.28990 -0.05027
 C2190 C 0.78066 0.29604 -0.05950
 C2191 C 0.77177 0.27146 -0.03870
 C2192 C 0.76566 0.26540 -0.03220
 H2193 H 0.78736 0.31350 -0.10043
 H2194 H 0.77873 0.30434 -0.08261
 H2195 H 0.81373 0.29058 -0.07311
 H2196 H 0.82214 0.29945 -0.09122
 H2197 H 0.80124 0.27469 -0.06705
 H2198 H 0.79125 0.26412 -0.05076
 H2199 H 0.76737 0.29404 -0.04579
 H2200 H 0.77755 0.30493 -0.06180
 C2201 C 0.81477 0.81577 0.38312
 C2202 C 0.81048 0.81160 0.39206
 C2203 C 0.80531 0.80656 0.40267
 C2204 C 0.79304 0.80792 0.40496
 C2205 C 0.78792 0.80274 0.41508
 C2206 C 0.79503 0.79614 0.42310
 C2207 C 0.80740 0.79498 0.42080
 C2208 C 0.81248 0.80013 0.41064
 C2209 C 0.78945 0.79011 0.43354
 C2210 C 0.79323 0.77860 0.43703
 C2211 C 0.78742 0.77256 0.44628
 C2212 C 0.77776 0.77792 0.45218
 C2213 C 0.77413 0.78949 0.44901
 C2214 C 0.77995 0.79557 0.43978
 C2215 C 0.77096 0.77114 0.46074
 C2216 C 0.76498 0.76515 0.46742
 H2217 H 0.78739 0.81286 0.39884
 H2218 H 0.77835 0.80366 0.41646
 H2219 H 0.81316 0.79009 0.42685
 H2220 H 0.82200 0.79904 0.40897
 H2221 H 0.80039 0.77406 0.43234
 H2222 H 0.79025 0.76357 0.44860
 H2223 H 0.76662 0.79370 0.45348
 H2224 H 0.77692 0.80448 0.43746
 C2225 C 0.68598 0.31516 0.61730
 C2226 C 0.69036 0.31110 0.60837
 C2227 C 0.69573 0.30620 0.59779
 C2228 C 0.70783 0.30284 0.59785
 C2229 C 0.71304 0.29788 0.58768
 C2230 C 0.70622 0.29621 0.57729
 C2231 C 0.69407 0.29967 0.57729
 C2232 C 0.68887 0.30466 0.58748
 C2233 C 0.71172 0.29059 0.56664
 C2234 C 0.70543 0.28188 0.56008
 C2235 C 0.71097 0.27593 0.55062
 C2236 C 0.72284 0.27865 0.54753
 C2237 C 0.72905 0.28754 0.55378
 C2238 C 0.72354 0.29348 0.56325
 C2239 C 0.72908 0.27156 0.53881
 C2240 C 0.73474 0.26530 0.53211
 H2241 H 0.71321 0.30395 0.60579
 H2242 H 0.72235 0.29512 0.58803
 H2243 H 0.68862 0.29860 0.56940
 H2244 H 0.67950 0.30727 0.58733
 H2245 H 0.69638 0.27935 0.56256
 H2246 H 0.70613 0.26896 0.54594
 H2247 H 0.73827 0.28967 0.55153
 H2248 H 0.72856 0.30025 0.56802
 C2249 C 0.68553 0.81560 1.11695
 C2250 C 0.68987 0.81159 1.10798
 C2251 C 0.69522 0.80675 1.09737
 C2252 C 0.70730 0.80333 1.09743
 C2253 C 0.71253 0.79846 1.08724
 C2254 C 0.70573 0.79692 1.07681
 C2255 C 0.69360 0.80044 1.07680
 C2256 C 0.68838 0.80534 1.08702
 C2257 C 0.71125 0.79133 1.06615
 C2258 C 0.70497 0.78264 1.05956
 C2259 C 0.71057 0.77663 1.05017
 C2260 C 0.72248 0.77929 1.04719
 C2261 C 0.72866 0.78820 1.05344
 C2262 C 0.72309 0.79419 1.06284
 C2263 C 0.72880 0.77211 1.03859
 C2264 C 0.73452 0.76578 1.03201
 H2265 H 0.71266 0.80434 1.10540
 H2266 H 0.72183 0.79566 1.08760
 H2267 H 0.68817 0.79946 1.06888
 H2268 H 0.67903 0.80799 1.08686
 H2269 H 0.69589 0.78015 1.06198
 H2270 H 0.70575 0.76966 1.04548
 H2271 H 0.73791 0.79028 1.05126
 H2272 H 0.72811 0.80095 1.06764
 C2273 C 0.18535 0.31510 1.11704
 C2274 C 0.18965 0.31104 1.10808
 C2275 C 0.19499 0.30618 1.09749
 C2276 C 0.20711 0.30292 1.09754
 C2277 C 0.21239 0.29811 1.08735
 C2278 C 0.20560 0.29649 1.07693
 C2279 C 0.19341 0.29981 1.07695
 C2280 C 0.18815 0.30465 1.08717
 C2281 C 0.21121 0.29104 1.06624
 C2282 C 0.20503 0.28235 1.05957
 C2283 C 0.21074 0.27646 1.05015
 C2284 C 0.22264 0.27925 1.04726
 C2285 C 0.22871 0.28817 1.05360
 C2286 C 0.22303 0.29405 1.06301
 C2287 C 0.22906 0.27217 1.03866
 C2288 C 0.23483 0.26590 1.03208
 H2289 H 0.21248 0.30402 1.10550
 H2290 H 0.22172 0.29543 1.08770
 H2291 H 0.18798 0.29876 1.06904
 H2292 H 0.17876 0.30717 1.08703
 H2293 H 0.19597 0.27975 1.06192
 H2294 H 0.20601 0.26947 1.04540
 H2295 H 0.23795 0.29034 1.05149
 H2296 H 0.22796 0.30082 1.06787
 C2297 C 0.18525 0.81543 0.61668
 C2298 C 0.18968 0.81129 0.60781
 C2299 C 0.19510 0.80632 0.59730
 C2300 C 0.18833 0.80484 0.58693
 C2301 C 0.19360 0.79987 0.57678
 C2302 C 0.20573 0.79635 0.57688
 C2303 C 0.21245 0.79792 0.58734
 C2304 C 0.20717 0.80287 0.59748
 C2305 C 0.21132 0.79080 0.56624
 C2306 C 0.22319 0.79366 0.56303
 C2307 C 0.22879 0.78776 0.55359
 C2308 C 0.22262 0.77894 0.54721
 C2309 C 0.21069 0.77627 0.55011
 C2310 C 0.20505 0.78218 0.55954
 C2311 C 0.22894 0.77186 0.53857
 C2312 C 0.23468 0.76560 0.53194
 H2313 H 0.17898 0.80751 0.58669
 H2314 H 0.18822 0.79887 0.56883
 H2315 H 0.22175 0.79511 0.58777
 H2316 H 0.21248 0.80393 0.60547
 H2317 H 0.22819 0.80037 0.56791
 H2318 H 0.23805 0.78985 0.55148
 H2319 H 0.20588 0.76936 0.54532
 H2320 H 0.19596 0.77968 0.56189
 C2321 C 0.31510 0.68568 0.61730
 C2322 C 0.31101 0.69006 0.60838
 C2323 C 0.30606 0.69547 0.59784
 C2324 C 0.30453 0.68873 0.58746
 C2325 C 0.29953 0.69402 0.57733
 C2326 C 0.29603 0.70613 0.57744
 C2327 C 0.29768 0.71284 0.58790
 C2328 C 0.30266 0.70754 0.59802
 C2329 C 0.29041 0.71174 0.56684
 C2330 C 0.29333 0.72356 0.56358
 C2331 C 0.28741 0.72915 0.55413
 C2332 C 0.27852 0.72302 0.54779
 C2333 C 0.27575 0.71116 0.55078
 C2334 C 0.28168 0.70553 0.56022
 C2335 C 0.27152 0.72930 0.53903
 C2336 C 0.26534 0.73498 0.53227
 H2337 H 0.30717 0.67939 0.58721
 H2338 H 0.29847 0.68866 0.56937
 H2339 H 0.29491 0.72212 0.58835
 H2340 H 0.30376 0.71283 0.60601
 H2341 H 0.30010 0.72852 0.56841
 H2342 H 0.28957 0.73837 0.55196
 H2343 H 0.26877 0.70638 0.54604
 H2344 H 0.27913 0.69649 0.56261
 C2345 C 0.31536 0.18571 1.11734
 C2346 C 0.31118 0.19014 1.10849
 C2347 C 0.30614 0.19554 1.09800
 C2348 C 0.30467 0.18880 1.08761
 C2349 C 0.29963 0.19406 1.07748
 C2350 C 0.29603 0.20615 1.07762
 C2351 C 0.29759 0.21284 1.08810
 C2352 C 0.30261 0.20756 1.09821
 C2353 C 0.29040 0.21173 1.06702
 C2354 C 0.29322 0.22359 1.06381
 C2355 C 0.28727 0.22917 1.05438
 C2356 C 0.27844 0.22298 1.04801
 C2357 C 0.27581 0.21107 1.05091
 C2358 C 0.28177 0.20546 1.06033
 C2359 C 0.27138 0.22926 1.03930
 C2360 C 0.26517 0.23494 1.03257
 H2361 H 0.30740 0.17949 1.08735
 H2362 H 0.29863 0.18871 1.06952
 H2363 H 0.29472 0.22210 1.08856
 H2364 H 0.30365 0.21285 1.10622
 H2365 H 0.29994 0.22859 1.06868
 H2366 H 0.28934 0.23841 1.05226
 H2367 H 0.26890 0.20624 1.04612
 H2368 H 0.27931 0.19637 1.06267
 C2369 C 0.81510 0.68544 1.11716
 C2370 C 0.81095 0.68983 1.10827
 C2371 C 0.80596 0.69524 1.09776
 C2372 C 0.80246 0.70727 1.09797
 C2373 C 0.79749 0.71256 1.08785
 C2374 C 0.79594 0.70588 1.07736
 C2375 C 0.79952 0.69379 1.07722
 C2376 C 0.80452 0.68851 1.08736
 C2377 C 0.79032 0.71149 1.06676
 C2378 C 0.78165 0.70525 1.06008
 C2379 C 0.77564 0.71091 1.05071
 C2380 C 0.77827 0.72284 1.04786
 C2381 C 0.78715 0.72898 1.05420
 C2382 C 0.79315 0.72335 1.06357
 C2383 C 0.77117 0.72916 1.03920
 C2384 C 0.76496 0.73488 1.03250
 H2385 H 0.80349 0.71255 1.10598
 H2386 H 0.79463 0.72182 1.08831
 H2387 H 0.79853 0.68845 1.06925
 H2388 H 0.80722 0.67919 1.08710
 H2389 H 0.77919 0.69615 1.06239
 H2390 H 0.76870 0.70611 1.04594
 H2391 H 0.78923 0.73823 1.05210
 H2392 H 0.79989 0.72832 1.06843
 C2393 C 0.81423 0.18576 0.61761
 C2394 C 0.81015 0.19006 0.60865
 C2395 C 0.80531 0.19536 0.59802
 C2396 C 0.80197 0.20744 0.59800
 C2397 C 0.79723 0.21264 0.58773
 C2398 C 0.79575 0.20582 0.57732
 C2399 C 0.79914 0.19368 0.57741
 C2400 C 0.80391 0.18849 0.58771
 C2401 C 0.79038 0.21134 0.56655
 C2402 C 0.78169 0.20514 0.55989
 C2403 C 0.77587 0.21076 0.55038
 C2404 C 0.77873 0.22260 0.54738
 C2405 C 0.78767 0.22868 0.55369
 C2406 C 0.79347 0.22309 0.56320
 C2407 C 0.77167 0.22895 0.53872
 C2408 C 0.76541 0.23467 0.53208
 H2409 H 0.80296 0.21282 0.60594
 H2410 H 0.79450 0.22195 0.58800
 H2411 H 0.79819 0.18823 0.56951
 H2412 H 0.80649 0.17913 0.58762
 H2413 H 0.77903 0.19613 0.56232
 H2414 H 0.76887 0.20602 0.54564
 H2415 H 0.78991 0.23786 0.55149
 H2416 H 0.80025 0.22802 0.56806
 C2417 C 0.68478 0.68407 0.38404
 C2418 C 0.68912 0.68828 0.39291
 C2419 C 0.69444 0.69333 0.40343
 C2420 C 0.70688 0.69497 0.40399
 C2421 C 0.71211 0.69997 0.41413
 C2422 C 0.70495 0.70343 0.42385
 C2423 C 0.69244 0.70173 0.42320
 C2424 C 0.68724 0.69670 0.41305
 C2425 C 0.71052 0.70909 0.43444
 C2426 C 0.70516 0.71911 0.43984
 C2427 C 0.71091 0.72503 0.44920
 C2428 C 0.72204 0.72097 0.45331
 C2429 C 0.72726 0.71078 0.44825
 C2430 C 0.72154 0.70486 0.43889
 C2431 C 0.72868 0.72796 0.46182
 C2432 C 0.73461 0.73417 0.46832
 H2433 H 0.71254 0.69246 0.39656
 H2434 H 0.72173 0.70137 0.41426
 H2435 H 0.68671 0.70423 0.43057
 H2436 H 0.67759 0.69547 0.41271
 H2437 H 0.69675 0.72267 0.43654
 H2438 H 0.70685 0.73300 0.45295
 H2439 H 0.73592 0.70759 0.45131
 H2440 H 0.72581 0.69706 0.43502
 C2441 C 0.68564 0.18529 -0.11752
 C2442 C 0.68983 0.18943 -0.10855
 C2443 C 0.69487 0.19440 -0.09788
 C2444 C 0.70139 0.18711 -0.09008
 C2445 C 0.70652 0.19200 -0.07984
 C2446 C 0.70515 0.20426 -0.07726
 C2447 C 0.69848 0.21149 -0.08510
 C2448 C 0.69339 0.20658 -0.09535
 C2449 C 0.71104 0.20963 -0.06671
 C2450 C 0.70508 0.21834 -0.05986
 C2451 C 0.71100 0.22410 -0.05052
 C2452 C 0.72294 0.22121 -0.04790
 C2453 C 0.72882 0.21230 -0.05443
 C2454 C 0.72291 0.20652 -0.06376
 C2455 C 0.72953 0.22815 -0.03934
 C2456 C 0.73538 0.23429 -0.03271
 H2457 H 0.70256 0.17767 -0.09196
 H2458 H 0.71152 0.18621 -0.07392
 H2459 H 0.69744 0.22099 -0.08345
 H2460 H 0.68841 0.21232 -0.10135
 H2461 H 0.69589 0.22081 -0.06184
 H2462 H 0.70638 0.23101 -0.04555
 H2463 H 0.73810 0.21009 -0.05256
 H2464 H 0.72778 0.19997 -0.06895
 C2465 C 0.18547 0.68500 -0.11718
 C2466 C 0.19003 0.68916 -0.10839
 C2467 C 0.19570 0.69415 -0.09804
 C2468 C 0.20633 0.70070 -0.09927
 C2469 C 0.21195 0.70554 -0.08928
 C2470 C 0.20702 0.70387 -0.07788
 C2471 C 0.19631 0.69727 -0.07672
 C2472 C 0.19070 0.69243 -0.08675
 C2473 C 0.21298 0.70918 -0.06732
 C2474 C 0.20619 0.71472 -0.05832
 C2475 C 0.21190 0.72050 -0.04884
 C2476 C 0.22445 0.72073 -0.04823
 C2477 C 0.23125 0.71493 -0.05695
 C2478 C 0.22558 0.70917 -0.06641
 C2479 C 0.23046 0.72779 -0.03936
 C2480 C 0.23596 0.73409 -0.03257
 H2481 H 0.21026 0.70211 -0.10798
 H2482 H 0.22006 0.71074 -0.09051
 H2483 H 0.19236 0.69575 -0.06805
 H2484 H 0.18248 0.68735 -0.08569
 H2485 H 0.19648 0.71498 -0.05883
 H2486 H 0.20654 0.72505 -0.04220
 H2487 H 0.24097 0.71511 -0.05659
 H2488 H 0.23105 0.70484 -0.07310
 C2489 C 0.18504 0.18512 0.38294
 C2490 C 0.18933 0.18962 0.39169
 C2491 C 0.19463 0.19516 0.40196
 C2492 C 0.20192 0.20526 0.40053
 C2493 C 0.20746 0.21047 0.41038
 C2494 C 0.20580 0.20565 0.42182
 C2495 C 0.19824 0.19565 0.42323
 C2496 C 0.19271 0.19042 0.41333
 C2497 C 0.21218 0.21096 0.43213
 C2498 C 0.20634 0.21261 0.44311
 C2499 C 0.21229 0.21827 0.45254
 C2500 C 0.22413 0.22223 0.45110
 C2501 C 0.23008 0.22029 0.44032
 C2502 C 0.22417 0.21470 0.43092
 C2503 C 0.23009 0.22901 0.46022
 C2504 C 0.23558 0.23513 0.46717
 H2505 H 0.20340 0.20906 0.39179
 H2506 H 0.21302 0.21831 0.40904
 H2507 H 0.19682 0.19172 0.43191
 H2508 H 0.18706 0.18261 0.41453
 H2509 H 0.19709 0.20987 0.44429
 H2510 H 0.20758 0.21976 0.46084
 H2511 H 0.23925 0.22331 0.43911
 H2512 H 0.22897 0.21336 0.42266
 C2513 C 0.31522 0.38198 0.68524
 C2514 C 0.31085 0.39081 0.68962
 C2515 C 0.30530 0.40114 0.69496
 C2516 C 0.30836 0.41272 0.69126
 C2517 C 0.30267 0.42268 0.69631
 C2518 C 0.29382 0.42113 0.70511
 C2519 C 0.29092 0.40945 0.70885
 C2520 C 0.29661 0.39954 0.70380
 C2521 C 0.28753 0.43159 0.71039
 C2522 C 0.27515 0.43098 0.71281
 C2523 C 0.26930 0.44047 0.71842
 C2524 C 0.27569 0.45075 0.72166
 C2525 C 0.28794 0.45161 0.71903
 C2526 C 0.29384 0.44210 0.71338
 C2527 C 0.26969 0.45989 0.72843
 C2528 C 0.26417 0.46688 0.73449
 H2529 H 0.31507 0.41406 0.68440
 H2530 H 0.30503 0.43155 0.69320
 H2531 H 0.28431 0.40796 0.71576
 H2532 H 0.29420 0.39061 0.70676
 H2533 H 0.27000 0.42311 0.71043
 H2534 H 0.25982 0.43969 0.72044
 H2535 H 0.29299 0.45951 0.72156
 H2536 H 0.30338 0.44281 0.71171
 C2537 C 0.31451 0.88266 0.18458
 C2538 C 0.31002 0.89148 0.18884
 C2539 C 0.30448 0.90192 0.19394
 C2540 C 0.31030 0.91304 0.19350
 C2541 C 0.30486 0.92316 0.19849
 C2542 C 0.29352 0.92227 0.20394
 C2543 C 0.28778 0.91104 0.20433
 C2544 C 0.29322 0.90095 0.19936
 C2545 C 0.28773 0.93290 0.20942
 C2546 C 0.27528 0.93469 0.20830
 C2547 C 0.26964 0.94414 0.21421
 C2548 C 0.27635 0.95197 0.22128
 C2549 C 0.28880 0.95049 0.22219
 C2550 C 0.29447 0.94102 0.21627
 C2551 C 0.27023 0.96077 0.22838
 C2552 C 0.26463 0.96753 0.23463
 H2553 H 0.31902 0.91388 0.18930
 H2554 H 0.30946 0.93169 0.19797
 H2555 H 0.27915 0.91002 0.20866
 H2556 H 0.28866 0.89238 0.19980
 H2557 H 0.26988 0.92868 0.20297
 H2558 H 0.26000 0.94514 0.21350
 H2559 H 0.29406 0.95641 0.22775
 H2560 H 0.30404 0.93980 0.21742
 C2561 C 0.81527 0.38255 0.18456
 C2562 C 0.81086 0.39128 0.18910
 C2563 C 0.80531 0.40149 0.19464
 C2564 C 0.80845 0.41314 0.19122
 C2565 C 0.80276 0.42300 0.19647
 C2566 C 0.79386 0.42130 0.20520
 C2567 C 0.79092 0.40953 0.20867
 C2568 C 0.79657 0.39972 0.20340
 C2569 C 0.78758 0.43168 0.21068
 C2570 C 0.77530 0.43090 0.21350
 C2571 C 0.76949 0.44033 0.21926
 C2572 C 0.77581 0.45073 0.22222
 C2573 C 0.78795 0.45177 0.21918
 C2574 C 0.79381 0.44231 0.21343
 C2575 C 0.76988 0.45986 0.22906
 C2576 C 0.76443 0.46685 0.23517
 H2577 H 0.81521 0.41461 0.18445
 H2578 H 0.80517 0.43192 0.19353
 H2579 H 0.78431 0.40788 0.21554
 H2580 H 0.79411 0.39073 0.20614
 H2581 H 0.77016 0.42297 0.21131
 H2582 H 0.76009 0.43941 0.22160
 H2583 H 0.79294 0.45977 0.22147
 H2584 H 0.80329 0.44318 0.21147
 C2585 C 0.81463 0.88277 0.68546
 C2586 C 0.81038 0.89150 0.69017
 C2587 C 0.80529 0.90183 0.69593
 C2588 C 0.79821 0.90033 0.70608
 C2589 C 0.79325 0.91028 0.71179
 C2590 C 0.79532 0.92193 0.70742
 C2591 C 0.80245 0.92336 0.69718
 C2592 C 0.80739 0.91337 0.69147
 C2593 C 0.78994 0.93248 0.71349
 C2594 C 0.78522 0.94212 0.70689
 C2595 C 0.77951 0.95167 0.71263
 C2596 C 0.77848 0.95173 0.72502
 C2597 C 0.78341 0.94235 0.73167
 C2598 C 0.78913 0.93281 0.72596
 C2599 C 0.77150 0.96077 0.73097
 C2600 C 0.76525 0.96766 0.73643
 H2601 H 0.79651 0.89143 0.70957
 H2602 H 0.78765 0.90881 0.71952
 H2603 H 0.80434 0.93221 0.69367
 H2604 H 0.81288 0.91467 0.68362
 H2605 H 0.78559 0.94208 0.69728
 H2606 H 0.77563 0.95884 0.70739
 H2607 H 0.78261 0.94226 0.74126
 H2608 H 0.79283 0.92566 0.73133
 C2609 C 0.68465 0.61783 0.68545
 C2610 C 0.68878 0.60881 0.68968
 C2611 C 0.69394 0.59812 0.69470
 C2612 C 0.70640 0.59659 0.69467
 C2613 C 0.71150 0.58633 0.69969
 C2614 C 0.70418 0.57744 0.70482
 C2615 C 0.69165 0.57902 0.70475
 C2616 C 0.68656 0.58930 0.69970
 C2617 C 0.70968 0.56681 0.71060
 C2618 C 0.70536 0.56267 0.72161
 C2619 C 0.71114 0.55328 0.72752
 C2620 C 0.72125 0.54786 0.72247
 C2621 C 0.72541 0.55167 0.71136
 C2622 C 0.71965 0.56108 0.70544
 C2623 C 0.72802 0.53923 0.72921
 C2624 C 0.73404 0.53255 0.73517
 H2625 H 0.71220 0.60339 0.69087
 H2626 H 0.72118 0.58547 0.69979
 H2627 H 0.68578 0.57229 0.70855
 H2628 H 0.67690 0.59038 0.69974
 H2629 H 0.69780 0.56700 0.72588
 H2630 H 0.70794 0.55051 0.73619
 H2631 H 0.73328 0.54759 0.70740
 H2632 H 0.72309 0.56397 0.69691
 C2633 C 0.68587 0.11821 0.18579
 C2634 C 0.69006 0.10920 0.18998
 C2635 C 0.69522 0.09849 0.19495
 C2636 C 0.68783 0.08907 0.19870
 C2637 C 0.69289 0.07874 0.20366
 C2638 C 0.70541 0.07769 0.20487
 C2639 C 0.71276 0.08719 0.20101
 C2640 C 0.70769 0.09751 0.19609
 C2641 C 0.71084 0.06695 0.21049
 C2642 C 0.72143 0.06190 0.20586
 C2643 C 0.72707 0.05239 0.21171
 C2644 C 0.72220 0.04779 0.22223
 C2645 C 0.71149 0.05253 0.22672
 C2646 C 0.70581 0.06202 0.22087
 C2647 C 0.72880 0.03908 0.22902
 C2648 C 0.73470 0.03234 0.23503
 H2649 H 0.67817 0.08973 0.19783
 H2650 H 0.68702 0.07154 0.20648
 H2651 H 0.72242 0.08673 0.20201
 H2652 H 0.71349 0.10477 0.19327
 H2653 H 0.72542 0.06542 0.19781
 H2654 H 0.73540 0.04884 0.20819
 H2655 H 0.70772 0.04914 0.23494
 H2656 H 0.69775 0.06581 0.22472
 C2657 C 0.18616 0.61866 0.18543
 C2658 C 0.19039 0.60963 0.18955
 C2659 C 0.19560 0.59891 0.19442
 C2660 C 0.18827 0.58940 0.19804
 C2661 C 0.19337 0.57907 0.20296
 C2662 C 0.20590 0.57813 0.20426
 C2663 C 0.21319 0.58771 0.20050
 C2664 C 0.20807 0.59802 0.19562
 C2665 C 0.21138 0.56742 0.20989
 C2666 C 0.22209 0.56254 0.20537
 C2667 C 0.22781 0.55310 0.21127
 C2668 C 0.22288 0.54841 0.22172
 C2669 C 0.21204 0.55297 0.22610
 C2670 C 0.20630 0.56240 0.22020
 C2671 C 0.22949 0.53973 0.22854
 C2672 C 0.23535 0.53299 0.23458
 H2673 H 0.17860 0.58998 0.19710
 H2674 H 0.18755 0.57180 0.20569
 H2675 H 0.22285 0.58733 0.20157
 H2676 H 0.21383 0.60534 0.19288
 H2677 H 0.22613 0.56613 0.19737
 H2678 H 0.23623 0.54968 0.20784
 H2679 H 0.20823 0.54950 0.23426
 H2680 H 0.19814 0.56606 0.22397
 C2681 C 0.18596 0.11802 0.68509
 C2682 C 0.19020 0.10895 0.68914
 C2683 C 0.19539 0.09819 0.69395
 C2684 C 0.18801 0.08868 0.69749
 C2685 C 0.19306 0.07831 0.70238
 C2686 C 0.20557 0.07732 0.70375
 C2687 C 0.21292 0.08689 0.70006
 C2688 C 0.20785 0.09725 0.69520
 C2689 C 0.21097 0.06657 0.70939
 C2690 C 0.22173 0.06167 0.70499
 C2691 C 0.22731 0.05215 0.71089
 C2692 C 0.22220 0.04738 0.72122
 C2693 C 0.21131 0.05196 0.72547
 C2694 C 0.20570 0.06146 0.71958
 C2695 C 0.22873 0.03871 0.72812
 C2696 C 0.23458 0.03205 0.73426
 H2697 H 0.17836 0.08931 0.69651
 H2698 H 0.18719 0.07106 0.70505
 H2699 H 0.22256 0.08649 0.70119
 H2700 H 0.21365 0.10456 0.69253
 H2701 H 0.22590 0.06532 0.69708
 H2702 H 0.23577 0.04873 0.70756
 H2703 H 0.20736 0.04844 0.73355
 H2704 H 0.19751 0.06512 0.72326
 C2705 C 0.31452 0.61781 0.31499
 C2706 C 0.31027 0.60881 0.31085
 C2707 C 0.30494 0.59819 0.30592
 C2708 C 0.29293 0.59838 0.30232
 C2709 C 0.28767 0.58814 0.29746
 C2710 C 0.29438 0.57754 0.29612
 C2711 C 0.30646 0.57742 0.29977
 C2712 C 0.31170 0.58769 0.30467
 C2713 C 0.28881 0.56681 0.29065
 C2714 C 0.29507 0.56007 0.28209
 C2715 C 0.28941 0.55059 0.27620
 C2716 C 0.27749 0.54768 0.27887
 C2717 C 0.27133 0.55409 0.28765
 C2718 C 0.27695 0.56358 0.29352
 C2719 C 0.27112 0.53902 0.27183
 C2720 C 0.26532 0.53240 0.26562
 H2721 H 0.28763 0.60648 0.30321
 H2722 H 0.27842 0.58857 0.29455
 H2723 H 0.31181 0.56936 0.29893
 H2724 H 0.32100 0.58744 0.30746
 H2725 H 0.30416 0.56243 0.27961
 H2726 H 0.29421 0.54578 0.26931
 H2727 H 0.26207 0.55198 0.28973
 H2728 H 0.27196 0.56851 0.30017
 C2729 C 0.31425 0.11780 0.81453
 C2730 C 0.31019 0.10884 0.81010
 C2731 C 0.30535 0.09822 0.80466
 C2732 C 0.30229 0.09832 0.79260
 C2733 C 0.29750 0.08807 0.78729
 C2734 C 0.29568 0.07756 0.79397
 C2735 C 0.29881 0.07753 0.80608
 C2736 C 0.30364 0.08779 0.81138
 C2737 C 0.29015 0.06687 0.78837
 C2738 C 0.28104 0.06045 0.79427
 C2739 C 0.27511 0.05102 0.78856
 C2740 C 0.27826 0.04785 0.77694
 C2741 C 0.28756 0.05394 0.77115
 C2742 C 0.29348 0.06338 0.77682
 C2743 C 0.27125 0.03915 0.77054
 C2744 C 0.26508 0.03243 0.76481
 H2745 H 0.30353 0.10635 0.78732
 H2746 H 0.29498 0.08843 0.77800
 H2747 H 0.29758 0.06955 0.81143
 H2748 H 0.30601 0.08760 0.82071
 H2749 H 0.27819 0.06302 0.80311
 H2750 H 0.26783 0.04646 0.79308
 H2751 H 0.29003 0.05161 0.76212
 H2752 H 0.30055 0.06807 0.77211
 C2753 C 0.81454 0.61735 0.81524
 C2754 C 0.81025 0.60837 0.81108
 C2755 C 0.80493 0.59775 0.80613
 C2756 C 0.81216 0.58814 0.80258
 C2757 C 0.80695 0.57791 0.79761
 C2758 C 0.79442 0.57716 0.79615
 C2759 C 0.78724 0.58685 0.79983
 C2760 C 0.79246 0.59706 0.80478
 C2761 C 0.78886 0.56654 0.79045
 C2762 C 0.77794 0.56189 0.79472
 C2763 C 0.77221 0.55251 0.78877
 C2764 C 0.77733 0.54763 0.77850
 C2765 C 0.78836 0.55196 0.77437
 C2766 C 0.79412 0.56133 0.78032
 C2767 C 0.77070 0.53906 0.77158
 C2768 C 0.76477 0.53243 0.76550
 H2769 H 0.82182 0.58858 0.80362
 H2770 H 0.81270 0.57056 0.79495
 H2771 H 0.77760 0.58663 0.79864
 H2772 H 0.78679 0.60447 0.80745
 H2773 H 0.77375 0.56561 0.80258
 H2774 H 0.76363 0.54928 0.79200
 H2775 H 0.79233 0.54835 0.76634
 H2776 H 0.80244 0.56481 0.77673
 C2777 C 0.81367 0.11768 0.31524
 C2778 C 0.80948 0.10863 0.31114
 C2779 C 0.80433 0.09792 0.30620
 C2780 C 0.81166 0.08817 0.30325
 C2781 C 0.80663 0.07785 0.29826
 C2782 C 0.79420 0.07716 0.29618
 C2783 C 0.78691 0.08699 0.29925
 C2784 C 0.79195 0.09729 0.30421
 C2785 C 0.78883 0.06642 0.29051
 C2786 C 0.77769 0.06197 0.29442
 C2787 C 0.77215 0.05249 0.28846
 C2788 C 0.77767 0.04732 0.27854
 C2789 C 0.78892 0.05144 0.27480
 C2790 C 0.79450 0.06091 0.28077
 C2791 C 0.77122 0.03868 0.27154
 C2792 C 0.76537 0.03204 0.26539
 H2793 H 0.82126 0.08857 0.30477
 H2794 H 0.81245 0.07040 0.29608
 H2795 H 0.77734 0.08682 0.29756
 H2796 H 0.78621 0.10480 0.30641
 H2797 H 0.77318 0.06593 0.30199
 H2798 H 0.76340 0.04943 0.29138
 H2799 H 0.79321 0.04760 0.26704
 H2800 H 0.80301 0.06423 0.27747
 C2801 C 0.68522 0.38203 0.31493
 C2802 C 0.68950 0.39107 0.31087
 C2803 C 0.69490 0.40175 0.30605
 C2804 C 0.68841 0.41248 0.30549
 C2805 C 0.69375 0.42281 0.30081
 C2806 C 0.70567 0.42253 0.29669
 C2807 C 0.71211 0.41170 0.29731
 C2808 C 0.70675 0.40139 0.30195
 C2809 C 0.71136 0.43336 0.29148
 C2810 C 0.72342 0.43610 0.29397
 C2811 C 0.72912 0.44566 0.28826
 C2812 C 0.72284 0.45263 0.28001
 C2813 C 0.71072 0.45024 0.27775
 C2814 C 0.70498 0.44069 0.28348
 C2815 C 0.72922 0.46132 0.27297
 C2816 C 0.73499 0.46791 0.26669
 H2817 H 0.67923 0.41286 0.30867
 H2818 H 0.68860 0.43104 0.30052
 H2819 H 0.72123 0.41114 0.29401
 H2820 H 0.71185 0.39313 0.30230
 H2821 H 0.72851 0.43072 0.30020
 H2822 H 0.73853 0.44738 0.29002
 H2823 H 0.70581 0.45549 0.27126
 H2824 H 0.69572 0.43873 0.28129
 C2825 C 0.68381 0.88211 0.81428
 C2826 C 0.68764 0.89119 0.80987
 C2827 C 0.69231 0.90193 0.80449
 C2828 C 0.69544 0.90194 0.79245
 C2829 C 0.70023 0.91224 0.78723
 C2830 C 0.70198 0.92271 0.79398
 C2831 C 0.69872 0.92264 0.80607
 C2832 C 0.69391 0.91231 0.81128
 C2833 C 0.70758 0.93345 0.78849
 C2834 C 0.71638 0.94003 0.79466
 C2835 C 0.72242 0.94948 0.78908
 C2836 C 0.71970 0.95252 0.77732
 C2837 C 0.71068 0.94629 0.77126
 C2838 C 0.70464 0.93684 0.77680
 C2839 C 0.72691 0.96117 0.77107
 C2840 C 0.73328 0.96783 0.76545
 H2841 H 0.69429 0.89394 0.78712
 H2842 H 0.70283 0.91193 0.77796
 H2843 H 0.69986 0.93058 0.81148
 H2844 H 0.69151 0.91240 0.82061
 H2845 H 0.71894 0.93756 0.80361
 H2846 H 0.72947 0.95415 0.79381
 H2847 H 0.70855 0.94853 0.76213
 H2848 H 0.69780 0.93206 0.77189
 C2849 C 0.18441 0.38261 0.81470
 C2850 C 0.18841 0.39161 0.81028
 C2851 C 0.19321 0.40230 0.80492
 C2852 C 0.19612 0.40236 0.79283
 C2853 C 0.20092 0.41264 0.78757
 C2854 C 0.20290 0.42305 0.79435
 C2855 C 0.19991 0.42293 0.80651
 C2856 C 0.19509 0.41262 0.81175
 C2857 C 0.20841 0.43381 0.78880
 C2858 C 0.21739 0.44030 0.79478
 C2859 C 0.22336 0.44974 0.78911
 C2860 C 0.22037 0.45286 0.77743
 C2861 C 0.21114 0.44674 0.77157
 C2862 C 0.20518 0.43730 0.77721
 C2863 C 0.22753 0.46143 0.77100
 C2864 C 0.23384 0.46797 0.76519
 H2865 H 0.19476 0.39440 0.78748
 H2866 H 0.20330 0.41238 0.77824
 H2867 H 0.20122 0.43083 0.81194
 H2868 H 0.19287 0.41269 0.82112
 H2869 H 0.22015 0.43776 0.80365
 H2870 H 0.23057 0.45433 0.79368
 H2871 H 0.20879 0.44903 0.76251
 H2872 H 0.19818 0.43259 0.77244
 C2873 C 0.18486 0.88216 0.31460
 C2874 C 0.18889 0.89113 0.31015
 C2875 C 0.19374 0.90175 0.30471
 C2876 C 0.19681 0.90164 0.29265
 C2877 C 0.20171 0.91186 0.28735
 C2878 C 0.20361 0.92233 0.29405
 C2879 C 0.20044 0.92237 0.30615
 C2880 C 0.19552 0.91214 0.31144
 C2881 C 0.20918 0.93303 0.28845
 C2882 C 0.21803 0.93963 0.29451
 C2883 C 0.22389 0.94918 0.28891
 C2884 C 0.22092 0.95229 0.27722
 C2885 C 0.21189 0.94600 0.27125
 C2886 C 0.20604 0.93644 0.27682
 C2887 C 0.22794 0.96104 0.27091
 C2888 C 0.23417 0.96775 0.26521
 H2889 H 0.19550 0.89363 0.28737
 H2890 H 0.20424 0.91147 0.27807
 H2891 H 0.20171 0.93033 0.31151
 H2892 H 0.19316 0.91232 0.32078
 H2893 H 0.22076 0.93712 0.30341
 H2894 H 0.23098 0.95388 0.29356
 H2895 H 0.20959 0.94827 0.26217
 H2896 H 0.19917 0.93163 0.27198
 C2897 C 0.38277 0.31569 0.68510
 C2898 C 0.39192 0.31181 0.68935
 C2899 C 0.40275 0.30704 0.69448
 C2900 C 0.40409 0.30666 0.70684
 C2901 C 0.41440 0.30165 0.71187
 C2902 C 0.42353 0.29692 0.70459
 C2903 C 0.42216 0.29747 0.69217
 C2904 C 0.41183 0.30250 0.68716
 C2905 C 0.43419 0.29104 0.70999
 C2906 C 0.43874 0.28031 0.70522
 C2907 C 0.44810 0.27423 0.71088
 C2908 C 0.45308 0.27881 0.72135
 C2909 C 0.44889 0.28968 0.72595
 C2910 C 0.43952 0.29577 0.72030
 C2911 C 0.46154 0.27178 0.72804
 C2912 C 0.46802 0.26561 0.73404
 H2913 H 0.39709 0.31010 0.71259
 H2914 H 0.41508 0.30119 0.72145
 H2915 H 0.42908 0.29402 0.68634
 H2916 H 0.41089 0.30275 0.67758
 H2917 H 0.43474 0.27635 0.69738
 H2918 H 0.45119 0.26575 0.70732
 H2919 H 0.45263 0.29327 0.73408
 H2920 H 0.43633 0.30409 0.72411
 C2921 C 0.38245 0.81536 0.18481
 C2922 C 0.39114 0.81086 0.18938
 C2923 C 0.40136 0.80528 0.19490
 C2924 C 0.41303 0.80835 0.19140
 C2925 C 0.42292 0.80269 0.19664
 C2926 C 0.42123 0.79387 0.20544
 C2927 C 0.40945 0.79098 0.20898
 C2928 C 0.39960 0.79662 0.20372
 C2929 C 0.43164 0.78763 0.21093
 C2930 C 0.43094 0.77534 0.21361
 C2931 C 0.44041 0.76954 0.21934
 C2932 C 0.45078 0.77589 0.22243
 C2933 C 0.45172 0.78806 0.21957
 C2934 C 0.44222 0.79391 0.21384
 C2935 C 0.45996 0.76994 0.22922
 C2936 C 0.46698 0.76444 0.23529
 H2937 H 0.41449 0.81505 0.18458
 H2938 H 0.43186 0.80506 0.19367
 H2939 H 0.40784 0.78442 0.21590
 H2940 H 0.39061 0.79422 0.20655
 H2941 H 0.42303 0.77019 0.21134
 H2942 H 0.43955 0.76013 0.22156
 H2943 H 0.45967 0.79308 0.22199
 H2944 H 0.44300 0.80340 0.21201
 C2945 C 0.88267 0.31596 0.18453
 C2946 C 0.89143 0.31154 0.18904
 C2947 C 0.90167 0.30593 0.19451
 C2948 C 0.89992 0.29738 0.20344
 C2949 C 0.90975 0.29161 0.20858
 C2950 C 0.92152 0.29427 0.20485
 C2951 C 0.92321 0.30299 0.19595
 C2952 C 0.91334 0.30877 0.19081
 C2953 C 0.93190 0.28789 0.21021
 C2954 C 0.94261 0.29401 0.21296
 C2955 C 0.95208 0.28804 0.21861
 C2956 C 0.95099 0.27589 0.22152
 C2957 C 0.94050 0.26969 0.21856
 C2958 C 0.93105 0.27561 0.21293
 C2959 C 0.96014 0.26982 0.22825
 C2960 C 0.96709 0.26422 0.23429
 H2961 H 0.89093 0.29514 0.20640
 H2962 H 0.90813 0.28512 0.21556
 H2963 H 0.93214 0.30517 0.19281
 H2964 H 0.91480 0.31537 0.18389
 H2965 H 0.94351 0.30348 0.21107
 H2966 H 0.96014 0.29295 0.22094
 H2967 H 0.93953 0.26029 0.22080
 H2968 H 0.92303 0.27058 0.21075
 C2969 C 0.88228 0.81546 0.68452
 C2970 C 0.89104 0.81093 0.68890
 C2971 C 0.90136 0.80530 0.69417
 C2972 C 0.89973 0.79629 0.70264
 C2973 C 0.90964 0.79063 0.70774
 C2974 C 0.92139 0.79385 0.70436
 C2975 C 0.92296 0.80298 0.69585
 C2976 C 0.91300 0.80867 0.69079
 C2977 C 0.93190 0.78769 0.70976
 C2978 C 0.94240 0.79407 0.71267
 C2979 C 0.95196 0.78833 0.71841
 C2980 C 0.95113 0.77616 0.72127
 C2981 C 0.94085 0.76969 0.71815
 C2982 C 0.93134 0.77538 0.71240
 C2983 C 0.96027 0.77033 0.72818
 C2984 C 0.96718 0.76489 0.73441
 H2985 H 0.89076 0.79365 0.70531
 H2986 H 0.90809 0.78382 0.71442
 H2987 H 0.93186 0.80559 0.69296
 H2988 H 0.91438 0.81563 0.68421
 H2989 H 0.94309 0.80358 0.71086
 H2990 H 0.95985 0.79344 0.72086
 H2991 H 0.94008 0.76028 0.72039
 H2992 H 0.92350 0.77013 0.71011
 C2993 C 0.61779 0.31555 0.31403
 C2994 C 0.60863 0.31172 0.30977
 C2995 C 0.59779 0.30702 0.30461
 C2996 C 0.58853 0.30278 0.31192
 C2997 C 0.57818 0.29783 0.30689
 C2998 C 0.57695 0.29707 0.29447
 C2999 C 0.58624 0.30149 0.28721
 C3000 C 0.59659 0.30640 0.29226
 C3001 C 0.56628 0.29126 0.28906
 C3002 C 0.56099 0.29603 0.27874
 C3003 C 0.55162 0.28997 0.27306
 C3004 C 0.54740 0.27909 0.27764
 C3005 C 0.55236 0.27446 0.28811
 C3006 C 0.56171 0.28052 0.29382
 C3007 C 0.53890 0.27209 0.27097
 C3008 C 0.53236 0.26589 0.26506
 H3009 H 0.58936 0.30322 0.32150
 H3010 H 0.57113 0.29460 0.31270
 H3011 H 0.58565 0.30084 0.27763
 H3012 H 0.60372 0.30959 0.28651
 H3013 H 0.56422 0.30435 0.27496
 H3014 H 0.54790 0.29360 0.26493
 H3015 H 0.54926 0.26598 0.29165
 H3016 H 0.56568 0.27655 0.30166
 C3017 C 0.61757 0.81462 0.81507
 C3018 C 0.60859 0.81030 0.81092
 C3019 C 0.59799 0.80491 0.80595
 C3020 C 0.58746 0.81162 0.80457
 C3021 C 0.57724 0.80634 0.79961
 C3022 C 0.57744 0.79428 0.79599
 C3023 C 0.58805 0.78761 0.79750
 C3024 C 0.59825 0.79290 0.80244
 C3025 C 0.56676 0.78870 0.79037
 C3026 C 0.56355 0.77682 0.79311
 C3027 C 0.55408 0.77125 0.78715
 C3028 C 0.54768 0.77746 0.77840
 C3029 C 0.55059 0.78938 0.77583
 C3030 C 0.56005 0.79499 0.78181
 C3031 C 0.53896 0.77118 0.77134
 C3032 C 0.53227 0.76546 0.76515
 H3033 H 0.58716 0.82092 0.80731
 H3034 H 0.56916 0.81166 0.79866
 H3035 H 0.58854 0.77836 0.79463
 H3036 H 0.60636 0.78763 0.80344
 H3037 H 0.56846 0.77180 0.79975
 H3038 H 0.55197 0.76198 0.78914
 H3039 H 0.54579 0.79422 0.76897
 H3040 H 0.56241 0.80409 0.77940
 C3041 C 0.11768 0.31423 0.81521
 C3042 C 0.10872 0.30983 0.81107
 C3043 C 0.09808 0.30447 0.80617
 C3044 C 0.09825 0.29245 0.80267
 C3045 C 0.08798 0.28719 0.79783
 C3046 C 0.07738 0.29390 0.79640
 C3047 C 0.07728 0.30598 0.79995
 C3048 C 0.08757 0.31122 0.80482
 C3049 C 0.06663 0.28835 0.79091
 C3050 C 0.05989 0.29463 0.78235
 C3051 C 0.05042 0.28900 0.77640
 C3052 C 0.04751 0.27709 0.77900
 C3053 C 0.05389 0.27091 0.78779
 C3054 C 0.06337 0.27650 0.79373
 C3055 C 0.03887 0.27077 0.77189
 C3056 C 0.03224 0.26505 0.76561
 H3057 H 0.10635 0.28717 0.80362
 H3058 H 0.08840 0.27792 0.79501
 H3059 H 0.06922 0.31134 0.79906
 H3060 H 0.08733 0.32054 0.80751
 H3061 H 0.06227 0.30371 0.77990
 H3062 H 0.04562 0.29382 0.76952
 H3063 H 0.05176 0.26166 0.78982
 H3064 H 0.06829 0.27148 0.80038
 C3065 C 0.11779 0.81416 0.31526
 C3066 C 0.10891 0.80972 0.31103
 C3067 C 0.09840 0.80424 0.30598
 C3068 C 0.09926 0.79293 0.30070
 C3069 C 0.08910 0.78757 0.29576
 C3070 C 0.07793 0.79345 0.29602
 C3071 C 0.07715 0.80483 0.30134
 C3072 C 0.08733 0.81017 0.30631
 C3073 C 0.06723 0.78779 0.29054
 C3074 C 0.05928 0.79457 0.28351
 C3075 C 0.04975 0.78901 0.27758
 C3076 C 0.04803 0.77663 0.27868
 C3077 C 0.05566 0.76989 0.28595
 C3078 C 0.06519 0.77542 0.29185
 C3079 C 0.03924 0.77058 0.27152
 C3080 C 0.03251 0.76503 0.26521
 H3081 H 0.10779 0.78828 0.30035
 H3082 H 0.09003 0.77890 0.29154
 H3083 H 0.06865 0.80952 0.30176
 H3084 H 0.08657 0.81892 0.31041
 H3085 H 0.06069 0.80409 0.28225
 H3086 H 0.04397 0.79428 0.27188
 H3087 H 0.05445 0.76030 0.28680
 H3088 H 0.07105 0.77000 0.29733
 C3089 C 0.61801 0.68515 0.68538
 C3090 C 0.60902 0.68942 0.68960
 C3091 C 0.59841 0.69474 0.69463
 C3092 C 0.58881 0.68754 0.69831
 C3093 C 0.57859 0.69278 0.70336
 C3094 C 0.57785 0.70529 0.70473
 C3095 C 0.58753 0.71243 0.70093
 C3096 C 0.59774 0.70718 0.69593
 C3097 C 0.56719 0.71090 0.71034
 C3098 C 0.56242 0.72163 0.70578
 C3099 C 0.55293 0.72739 0.71155
 C3100 C 0.54806 0.72251 0.72195
 C3101 C 0.55255 0.71168 0.72640
 C3102 C 0.56202 0.70588 0.72061
 C3103 C 0.53931 0.72919 0.72862
 C3104 C 0.53255 0.73516 0.73452
 H3105 H 0.58922 0.67790 0.69731
 H3106 H 0.57124 0.68707 0.70611
 H3107 H 0.58731 0.72206 0.70205
 H3108 H 0.60514 0.71283 0.69316
 H3109 H 0.56613 0.72564 0.69781
 H3110 H 0.54959 0.73581 0.70807
 H3111 H 0.54896 0.70790 0.73453
 H3112 H 0.56561 0.69771 0.72442
 C3113 C 0.61867 0.18616 0.18526
 C3114 C 0.60965 0.19041 0.18940
 C3115 C 0.59893 0.19559 0.19436
 C3116 C 0.59795 0.20803 0.19546
 C3117 C 0.58764 0.21309 0.20043
 C3118 C 0.57816 0.20576 0.20439
 C3119 C 0.57921 0.19326 0.20320
 C3120 C 0.58953 0.18821 0.19819
 C3121 C 0.56744 0.21118 0.21009
 C3122 C 0.56251 0.20612 0.22045
 C3123 C 0.55307 0.21180 0.22638
 C3124 C 0.54838 0.22257 0.22199
 C3125 C 0.55296 0.22746 0.21147
 C3126 C 0.56242 0.22181 0.20554
 C3127 C 0.53972 0.22918 0.22884
 C3128 C 0.53300 0.23508 0.23485
 H3129 H 0.60519 0.21382 0.19256
 H3130 H 0.58719 0.22273 0.20142
 H3131 H 0.57202 0.18740 0.20608
 H3132 H 0.59019 0.17857 0.19735
 H3133 H 0.56627 0.19802 0.22423
 H3134 H 0.54967 0.20801 0.23459
 H3135 H 0.54944 0.23582 0.20802
 H3136 H 0.56592 0.22582 0.19749
 C3137 C 0.11841 0.68604 0.18496
 C3138 C 0.10934 0.69026 0.18902
 C3139 C 0.09859 0.69549 0.19386
 C3140 C 0.09770 0.70793 0.19499
 C3141 C 0.08738 0.71307 0.19986
 C3142 C 0.07779 0.70582 0.20368
 C3143 C 0.07872 0.69331 0.20243
 C3144 C 0.08906 0.68818 0.19753
 C3145 C 0.06707 0.71132 0.20931
 C3146 C 0.06201 0.70625 0.21960
 C3147 C 0.05257 0.71200 0.22549
 C3148 C 0.04803 0.72283 0.22112
 C3149 C 0.05277 0.72775 0.21068
 C3150 C 0.06221 0.72203 0.20479
 C3151 C 0.03936 0.72945 0.22794
 C3152 C 0.03266 0.73533 0.23400
 H3153 H 0.10504 0.71366 0.19222
 H3154 H 0.08701 0.72271 0.20089
 H3155 H 0.07145 0.68751 0.20520
 H3156 H 0.08964 0.67853 0.19665
 H3157 H 0.06566 0.69809 0.22337
 H3158 H 0.04907 0.70819 0.23364
 H3159 H 0.04938 0.73618 0.20726
 H3160 H 0.06583 0.72606 0.19680
 C3161 C 0.11865 0.18600 0.68556
 C3162 C 0.10964 0.19031 0.68969
 C3163 C 0.09893 0.19559 0.69456
 C3164 C 0.09807 0.20805 0.69572
 C3165 C 0.08774 0.21321 0.70055
 C3166 C 0.07812 0.20598 0.70432
 C3167 C 0.07903 0.19347 0.70307
 C3168 C 0.08937 0.18832 0.69820
 C3169 C 0.06737 0.21148 0.70990
 C3170 C 0.06224 0.20637 0.72015
 C3171 C 0.05273 0.21207 0.72597
 C3172 C 0.04818 0.22289 0.72158
 C3173 C 0.05299 0.22786 0.71119
 C3174 C 0.06251 0.22218 0.70537
 C3175 C 0.03945 0.22947 0.72837
 C3176 C 0.03269 0.23529 0.73443
 H3177 H 0.10543 0.21377 0.69297
 H3178 H 0.08740 0.22285 0.70160
 H3179 H 0.07173 0.18768 0.70581
 H3180 H 0.08994 0.17867 0.69729
 H3181 H 0.06587 0.19822 0.72393
 H3182 H 0.04918 0.20823 0.73409
 H3183 H 0.04958 0.23627 0.70776
 H3184 H 0.06618 0.22623 0.69741
 C3185 C 0.38221 0.68399 0.31436
 C3186 C 0.39122 0.68791 0.30988
 C3187 C 0.40182 0.69273 0.30435
 C3188 C 0.41309 0.69133 0.30968
 C3189 C 0.42333 0.69621 0.30431
 C3190 C 0.42240 0.70252 0.29351
 C3191 C 0.41102 0.70384 0.28823
 C3192 C 0.40082 0.69898 0.29361
 C3193 C 0.43315 0.70791 0.28781
 C3194 C 0.43447 0.70762 0.27538
 C3195 C 0.44402 0.71354 0.26989
 C3196 C 0.45243 0.71979 0.27671
 C3197 C 0.45145 0.71982 0.28912
 C3198 C 0.44189 0.71388 0.29465
 C3199 C 0.46127 0.72707 0.27080
 C3200 C 0.46796 0.73352 0.26531
 H3201 H 0.41397 0.68649 0.31798
 H3202 H 0.43197 0.69495 0.30853
 H3203 H 0.40996 0.70883 0.28004
 H3204 H 0.39214 0.70016 0.28943
 H3205 H 0.42800 0.70296 0.26988
 H3206 H 0.44465 0.71351 0.26028
 H3207 H 0.45785 0.72473 0.29448
 H3208 H 0.44107 0.71435 0.30422
 C3209 C 0.38191 0.18527 0.81515
 C3210 C 0.39068 0.18978 0.81073
 C3211 C 0.40099 0.19539 0.80537
 C3212 C 0.41261 0.19207 0.80877
 C3213 C 0.42259 0.19766 0.80362
 C3214 C 0.42105 0.20669 0.79501
 C3215 C 0.40931 0.20988 0.79160
 C3216 C 0.39937 0.20429 0.79676
 C3217 C 0.43156 0.21280 0.78957
 C3218 C 0.43116 0.22519 0.78726
 C3219 C 0.44069 0.23089 0.78152
 C3220 C 0.45080 0.22434 0.77803
 C3221 C 0.45145 0.21206 0.78052
 C3222 C 0.44189 0.20633 0.78629
 C3223 C 0.46001 0.23022 0.77119
 C3224 C 0.46705 0.23566 0.76508
 H3225 H 0.41396 0.18520 0.81545
 H3226 H 0.43149 0.19506 0.80651
 H3227 H 0.40782 0.21664 0.78485
 H3228 H 0.39042 0.20691 0.79402
 H3229 H 0.42343 0.23047 0.78983
 H3230 H 0.44007 0.24038 0.77960
 H3231 H 0.45920 0.20689 0.77778
 H3232 H 0.44243 0.19677 0.78786
 C3233 C 0.88208 0.68400 0.81491
 C3234 C 0.89091 0.68845 0.81055
 C3235 C 0.90124 0.69414 0.80532
 C3236 C 0.91287 0.69067 0.80858
 C3237 C 0.92284 0.69651 0.80368
 C3238 C 0.92129 0.70590 0.79546
 C3239 C 0.90955 0.70921 0.79217
 C3240 C 0.89962 0.70339 0.79709
 C3241 C 0.93180 0.71224 0.79025
 C3242 C 0.93129 0.72466 0.78812
 C3243 C 0.94079 0.73053 0.78252
 C3244 C 0.95101 0.72415 0.77903
 C3245 C 0.95179 0.71186 0.78139
 C3246 C 0.94225 0.70594 0.78700
 C3247 C 0.96012 0.73018 0.77222
 C3248 C 0.96704 0.73573 0.76608
 H3249 H 0.91422 0.68353 0.81497
 H3250 H 0.93174 0.69382 0.80648
 H3251 H 0.90802 0.71624 0.78570
 H3252 H 0.89066 0.70614 0.79448
 H3253 H 0.92349 0.72983 0.79070
 H3254 H 0.94006 0.74004 0.78068
 H3255 H 0.95962 0.70682 0.77866
 H3256 H 0.94290 0.69636 0.78842
 C3257 C 0.88163 0.18451 0.31391
 C3258 C 0.89067 0.18841 0.30945
 C3259 C 0.90137 0.19311 0.30401
 C3260 C 0.91187 0.19455 0.31069
 C3261 C 0.92218 0.19933 0.30542
 C3262 C 0.92212 0.20272 0.29337
 C3263 C 0.91153 0.20115 0.28672
 C3264 C 0.90124 0.19638 0.29201
 C3265 C 0.93289 0.20819 0.28779
 C3266 C 0.93610 0.20528 0.27604
 C3267 C 0.94562 0.21116 0.27044
 C3268 C 0.95208 0.22000 0.27648
 C3269 C 0.94922 0.22270 0.28829
 C3270 C 0.93971 0.21681 0.29393
 C3271 C 0.96076 0.22711 0.27016
 C3272 C 0.96742 0.23340 0.26446
 H3273 H 0.91206 0.19201 0.31999
 H3274 H 0.93022 0.20033 0.31073
 H3275 H 0.91113 0.20386 0.27749
 H3276 H 0.89315 0.19535 0.28677
 H3277 H 0.93114 0.19857 0.27113
 H3278 H 0.94771 0.20906 0.26127
 H3279 H 0.95409 0.22962 0.29302
 H3280 H 0.93738 0.21934 0.30293
 C3281 C 0.31477 0.31428 0.61758
 C3282 C 0.31050 0.30982 0.60879
 C3283 C 0.30541 0.30433 0.59838
 C3284 C 0.30188 0.29230 0.59873
 C3285 C 0.29688 0.28692 0.58868
 C3286 C 0.29533 0.29350 0.57812
 C3287 C 0.29891 0.30559 0.57784
 C3288 C 0.30394 0.31095 0.58791
 C3289 C 0.28977 0.28779 0.56755
 C3290 C 0.28114 0.29397 0.56077
 C3291 C 0.27531 0.28827 0.55132
 C3292 C 0.27809 0.27638 0.54849
 C3293 C 0.28689 0.27029 0.55498
 C3294 C 0.29270 0.27594 0.56443
 C3295 C 0.27120 0.27006 0.53967
 C3296 C 0.26513 0.26438 0.53283
 H3297 H 0.30293 0.28710 0.60680
 H3298 H 0.29403 0.27766 0.58924
 H3299 H 0.29792 0.31085 0.56981
 H3300 H 0.30667 0.32026 0.58753
 H3301 H 0.27859 0.30305 0.56303
 H3302 H 0.26841 0.29303 0.54644
 H3303 H 0.28907 0.26106 0.55290
 H3304 H 0.29942 0.27102 0.56938
 C3305 C 0.31442 0.81506 0.11729
 C3306 C 0.31003 0.81098 0.10836
 C3307 C 0.30465 0.80613 0.09776
 C3308 C 0.29228 0.80394 0.09741
 C3309 C 0.28703 0.79905 0.08723
 C3310 C 0.29409 0.79626 0.07723
 C3311 C 0.30650 0.79856 0.07763
 C3312 C 0.31173 0.80348 0.08782
 C3313 C 0.28852 0.79068 0.06658
 C3314 C 0.29422 0.78112 0.06070
 C3315 C 0.28853 0.77527 0.05126
 C3316 C 0.27712 0.77894 0.04754
 C3317 C 0.27155 0.78868 0.05308
 C3318 C 0.27720 0.79453 0.06253
 C3319 C 0.27063 0.77200 0.03890
 C3320 C 0.26484 0.76582 0.03224
 H3321 H 0.28670 0.80593 0.10505
 H3322 H 0.27748 0.79721 0.08728
 H3323 H 0.31215 0.79662 0.07003
 H3324 H 0.32131 0.80518 0.08797
 H3325 H 0.30287 0.77787 0.06368
 H3326 H 0.29287 0.76766 0.04711
 H3327 H 0.26269 0.79156 0.05032
 H3328 H 0.27266 0.80196 0.06677
 C3329 C 0.81553 0.31581 0.11610
 C3330 C 0.81092 0.31145 0.10743
 C3331 C 0.80514 0.30615 0.09728
 C3332 C 0.79543 0.29839 0.09897
 C3333 C 0.78968 0.29324 0.08921
 C3334 C 0.79351 0.29583 0.07755
 C3335 C 0.80332 0.30363 0.07594
 C3336 C 0.80910 0.30874 0.08575
 C3337 C 0.78727 0.29034 0.06720
 C3338 C 0.79374 0.28653 0.05712
 C3339 C 0.78787 0.28076 0.04772
 C3340 C 0.77548 0.27875 0.04827
 C3341 C 0.76895 0.28275 0.05811
 C3342 C 0.77476 0.28854 0.06747
 C3343 C 0.76946 0.27185 0.03927
 C3344 C 0.76394 0.26567 0.03240
 H3345 H 0.79229 0.29631 0.10786
 H3346 H 0.78232 0.28711 0.09082
 H3347 H 0.80642 0.30591 0.06710
 H3348 H 0.81660 0.31476 0.08433
 H3349 H 0.80338 0.28766 0.05666
 H3350 H 0.79303 0.27763 0.04018
 H3351 H 0.75936 0.28120 0.05866
 H3352 H 0.76946 0.29154 0.07496
 C3353 C 0.81493 0.81624 0.61665
 C3354 C 0.81089 0.81224 0.60755
 C3355 C 0.80595 0.80736 0.59677
 C3356 C 0.81324 0.80089 0.58895
 C3357 C 0.80833 0.79581 0.57868
 C3358 C 0.79601 0.79707 0.57614
 C3359 C 0.78881 0.80373 0.58402
 C3360 C 0.79375 0.80886 0.59424
 C3361 C 0.79057 0.79105 0.56562
 C3362 C 0.78098 0.79640 0.55942
 C3363 C 0.77523 0.79030 0.55019
 C3364 C 0.77907 0.77883 0.54691
 C3365 C 0.78883 0.77359 0.55274
 C3366 C 0.79454 0.77963 0.56203
 C3367 C 0.77227 0.77197 0.53843
 C3368 C 0.76620 0.76588 0.53194
 H3369 H 0.82271 0.79969 0.59082
 H3370 H 0.81418 0.79089 0.57276
 H3371 H 0.77927 0.80473 0.58250
 H3372 H 0.78802 0.81384 0.60024
 H3373 H 0.77780 0.80524 0.56180
 H3374 H 0.76761 0.79441 0.54581
 H3375 H 0.79179 0.76465 0.55037
 H3376 H 0.80176 0.77514 0.56669
 C3377 C 0.31520 0.68503 0.38291
 C3378 C 0.31106 0.68935 0.39183
 C3379 C 0.30608 0.69461 0.40241
 C3380 C 0.30258 0.68736 0.41196
 C3381 C 0.29756 0.69250 0.42214
 C3382 C 0.29599 0.70499 0.42290
 C3383 C 0.29960 0.71220 0.41328
 C3384 C 0.30461 0.70704 0.40311
 C3385 C 0.29027 0.71049 0.43350
 C3386 C 0.29449 0.72145 0.43804
 C3387 C 0.28852 0.72709 0.44743
 C3388 C 0.27829 0.72183 0.45244
 C3389 C 0.27422 0.71076 0.44821
 C3390 C 0.28018 0.70511 0.43883
 C3391 C 0.27132 0.72835 0.46104
 C3392 C 0.26515 0.73420 0.46765
 H3393 H 0.30369 0.67772 0.41151
 H3394 H 0.29496 0.68673 0.42944
 H3395 H 0.29833 0.72182 0.41350
 H3396 H 0.30723 0.71273 0.39575
 H3397 H 0.30231 0.72575 0.43423
 H3398 H 0.29170 0.73569 0.45057
 H3399 H 0.26622 0.70669 0.45192
 H3400 H 0.27662 0.69676 0.43544
 C3401 C 0.31465 0.18440 0.88325
 C3402 C 0.31057 0.18856 0.89227
 C3403 C 0.30568 0.19364 0.90297
 C3404 C 0.30596 0.20605 0.90470
 C3405 C 0.30094 0.21107 0.91494
 C3406 C 0.29556 0.20372 0.92360
 C3407 C 0.29543 0.19124 0.92185
 C3408 C 0.30047 0.18624 0.91160
 C3409 C 0.28971 0.20914 0.93418
 C3410 C 0.27853 0.20486 0.93819
 C3411 C 0.27254 0.21059 0.94751
 C3412 C 0.27765 0.22062 0.95299
 C3413 C 0.28893 0.22472 0.94931
 C3414 C 0.29493 0.21902 0.93998
 C3415 C 0.27079 0.22740 0.96149
 C3416 C 0.26474 0.23347 0.96803
 H3417 H 0.30993 0.21187 0.89806
 H3418 H 0.30102 0.22071 0.91593
 H3419 H 0.29146 0.18535 0.92841
 H3420 H 0.30023 0.17662 0.91037
 H3421 H 0.27420 0.19739 0.93382
 H3422 H 0.26374 0.20743 0.95019
 H3423 H 0.29294 0.23253 0.95343
 H3424 H 0.30359 0.22242 0.93719
 C3425 C 0.81471 0.68486 0.88294
 C3426 C 0.81067 0.68912 0.89194
 C3427 C 0.80584 0.69436 0.90261
 C3428 C 0.80267 0.68711 0.91227
 C3429 C 0.79778 0.69224 0.92253
 C3430 C 0.79603 0.70471 0.92326
 C3431 C 0.79934 0.71191 0.91353
 C3432 C 0.80420 0.70677 0.90328
 C3433 C 0.79039 0.71019 0.93392
 C3434 C 0.79456 0.72122 0.93835
 C3435 C 0.78861 0.72688 0.94774
 C3436 C 0.77844 0.72161 0.95283
 C3437 C 0.77444 0.71046 0.94873
 C3438 C 0.78039 0.70477 0.93936
 C3439 C 0.77143 0.72819 0.96138
 C3440 C 0.76525 0.73410 0.96793
 H3441 H 0.80393 0.67749 0.91186
 H3442 H 0.79541 0.68648 0.92992
 H3443 H 0.79792 0.72151 0.91373
 H3444 H 0.80658 0.71247 0.89584
 H3445 H 0.80233 0.72554 0.93445
 H3446 H 0.79175 0.73554 0.95078
 H3447 H 0.76649 0.70637 0.95251
 H3448 H 0.77688 0.69636 0.93606
 C3449 C 0.81493 0.18543 0.38255
 C3450 C 0.81088 0.18973 0.39152
 C3451 C 0.80599 0.19499 0.40214
 C3452 C 0.80310 0.18778 0.41192
 C3453 C 0.79811 0.19290 0.42214
 C3454 C 0.79597 0.20532 0.42269
 C3455 C 0.79899 0.21248 0.41284
 C3456 C 0.80396 0.20734 0.40264
 C3457 C 0.79029 0.21078 0.43333
 C3458 C 0.79417 0.22199 0.43755
 C3459 C 0.78819 0.22758 0.44695
 C3460 C 0.77829 0.22204 0.45230
 C3461 C 0.77458 0.21072 0.44840
 C3462 C 0.78056 0.20510 0.43900
 C3463 C 0.77126 0.22849 0.46090
 C3464 C 0.76507 0.23430 0.46753
 H3465 H 0.80466 0.17820 0.41163
 H3466 H 0.79598 0.18717 0.42961
 H3467 H 0.79727 0.22203 0.41291
 H3468 H 0.80611 0.21300 0.39510
 H3469 H 0.80172 0.22651 0.43347
 H3470 H 0.79109 0.23637 0.44985
 H3471 H 0.76684 0.20642 0.45238
 H3472 H 0.77727 0.19654 0.43587
 C3473 C 0.68490 0.31427 0.38245
 C3474 C 0.68922 0.31010 0.39136
 C3475 C 0.69458 0.30515 0.40191
 C3476 C 0.70687 0.30254 0.40206
 C3477 C 0.71214 0.29766 0.41223
 C3478 C 0.70518 0.29530 0.42241
 C3479 C 0.69284 0.29798 0.42219
 C3480 C 0.68758 0.30290 0.41200
 C3481 C 0.71076 0.28975 0.43305
 C3482 C 0.70493 0.28039 0.43913
 C3483 C 0.71062 0.27452 0.44857
 C3484 C 0.72215 0.27799 0.45209
 C3485 C 0.72788 0.28752 0.44632
 C3486 C 0.72223 0.29337 0.43687
 C3487 C 0.72860 0.27106 0.46079
 C3488 C 0.73439 0.26491 0.46748
 H3489 H 0.71236 0.30421 0.39428
 H3490 H 0.72162 0.29551 0.41206
 H3491 H 0.68728 0.29636 0.42993
 H3492 H 0.67807 0.30492 0.41199
 H3493 H 0.69617 0.27729 0.43630
 H3494 H 0.70617 0.26705 0.45287
 H3495 H 0.73684 0.29023 0.44891
 H3496 H 0.72688 0.30064 0.43244
 C3497 C 0.68521 0.81519 0.88281
 C3498 C 0.68972 0.81097 0.89160
 C3499 C 0.69529 0.80591 0.90200
 C3500 C 0.70617 0.79975 0.90092
 C3501 C 0.71166 0.79483 0.91095
 C3502 C 0.70633 0.79599 0.92224
 C3503 C 0.69537 0.80218 0.92325
 C3504 C 0.68990 0.80712 0.91318
 C3505 C 0.71216 0.79055 0.93282
 C3506 C 0.70533 0.78430 0.94133
 C3507 C 0.71098 0.77835 0.95075
 C3508 C 0.72350 0.77868 0.95182
 C3509 C 0.73031 0.78520 0.94361
 C3510 C 0.72470 0.79112 0.93419
 C3511 C 0.72954 0.77153 0.96064
 C3512 C 0.73506 0.76522 0.96741
 H3513 H 0.71039 0.79870 0.89230
 H3514 H 0.71998 0.78994 0.90985
 H3515 H 0.69111 0.80330 0.93182
 H3516 H 0.68148 0.81190 0.91412
 H3517 H 0.69567 0.78362 0.94046
 H3518 H 0.70563 0.77323 0.95699
 H3519 H 0.74001 0.78548 0.94432
 H3520 H 0.73018 0.79601 0.92789
 C3521 C 0.18582 0.31496 0.88242
 C3522 C 0.19037 0.31073 0.89119
 C3523 C 0.19593 0.30566 0.90159
 C3524 C 0.20666 0.29924 0.90048
 C3525 C 0.21213 0.29430 0.91052
 C3526 C 0.20694 0.29571 0.92184
 C3527 C 0.19614 0.30217 0.92287
 C3528 C 0.19068 0.30713 0.91280
 C3529 C 0.21271 0.29027 0.93246
 C3530 C 0.20577 0.28448 0.94121
 C3531 C 0.21132 0.27863 0.95074
 C3532 C 0.22385 0.27855 0.95168
 C3533 C 0.23079 0.28459 0.94321
 C3534 C 0.22528 0.29042 0.93368
 C3535 C 0.22973 0.27143 0.96062
 C3536 C 0.23512 0.26510 0.96747
 H3537 H 0.21078 0.29801 0.89184
 H3538 H 0.22032 0.28920 0.90939
 H3539 H 0.19198 0.30350 0.93147
 H3540 H 0.18239 0.31211 0.91376
 H3541 H 0.19609 0.28411 0.94046
 H3542 H 0.20586 0.27389 0.95719
 H3543 H 0.24051 0.28455 0.94382
 H3544 H 0.23086 0.29495 0.92720
 C3545 C 0.18549 0.81507 0.38268
 C3546 C 0.18989 0.81095 0.39157
 C3547 C 0.19531 0.80601 0.40208
 C3548 C 0.20722 0.80204 0.40171
 C3549 C 0.21253 0.79714 0.41185
 C3550 C 0.20600 0.79614 0.42251
 C3551 C 0.19404 0.80019 0.42281
 C3552 C 0.18874 0.80511 0.41265
 C3553 C 0.21160 0.79057 0.43313
 C3554 C 0.20515 0.78232 0.44012
 C3555 C 0.21077 0.77631 0.44951
 C3556 C 0.22286 0.77854 0.45207
 C3557 C 0.22923 0.78701 0.44540
 C3558 C 0.22364 0.79300 0.43601
 C3559 C 0.22908 0.77137 0.46072
 C3560 C 0.23472 0.76506 0.46740
 H3561 H 0.21237 0.80265 0.39356
 H3562 H 0.22168 0.79392 0.41128
 H3563 H 0.18883 0.79962 0.43092
 H3564 H 0.17952 0.80819 0.41303
 H3565 H 0.19591 0.78017 0.43804
 H3566 H 0.20579 0.76968 0.45453
 H3567 H 0.23861 0.78876 0.44726
 H3568 H 0.22879 0.79942 0.43089
 C3569 C 0.68534 0.68516 0.61738
 C3570 C 0.68982 0.68968 0.60873
 C3571 C 0.69529 0.69518 0.59851
 C3572 C 0.70210 0.70562 0.59988
 C3573 C 0.70771 0.71083 0.59005
 C3574 C 0.70652 0.70570 0.57871
 C3575 C 0.69951 0.69532 0.57736
 C3576 C 0.69397 0.69006 0.58723
 C3577 C 0.71277 0.71110 0.56840
 C3578 C 0.70670 0.71305 0.55761
 C3579 C 0.71255 0.71869 0.54810
 C3580 C 0.72454 0.72228 0.54928
 C3581 C 0.73068 0.72011 0.55991
 C3582 C 0.72485 0.71458 0.56941
 C3583 C 0.73048 0.72890 0.54001
 C3584 C 0.73598 0.73489 0.53296
 H3585 H 0.70312 0.70970 0.60855
 H3586 H 0.71292 0.71893 0.59129
 H3587 H 0.69854 0.69115 0.56873
 H3588 H 0.68874 0.68196 0.58609
 H3589 H 0.69736 0.71053 0.55666
 H3590 H 0.70767 0.72045 0.53996
 H3591 H 0.73995 0.72288 0.56092
 H3592 H 0.72976 0.71304 0.57758
 C3593 C 0.68594 0.18475 0.11727
 C3594 C 0.69019 0.18875 0.10825
 C3595 C 0.69534 0.19354 0.09753
 C3596 C 0.70775 0.19529 0.09675
 C3597 C 0.71279 0.20007 0.08641
 C3598 C 0.70547 0.20320 0.07670
 C3599 C 0.69300 0.20136 0.07755
 C3600 C 0.68798 0.19655 0.08790
 C3601 C 0.71082 0.20875 0.06595
 C3602 C 0.70535 0.21874 0.06058
 C3603 C 0.71096 0.22466 0.05114
 C3604 C 0.72207 0.22064 0.04689
 C3605 C 0.72737 0.21045 0.05191
 C3606 C 0.72179 0.20454 0.06137
 C3607 C 0.72860 0.22767 0.03834
 C3608 C 0.73443 0.23394 0.03179
 H3609 H 0.71353 0.19305 0.10417
 H3610 H 0.72239 0.20157 0.08610
 H3611 H 0.68715 0.20361 0.07019
 H3612 H 0.67836 0.19521 0.08841
 H3613 H 0.69698 0.22227 0.06400
 H3614 H 0.70685 0.23263 0.04742
 H3615 H 0.73600 0.20730 0.04874
 H3616 H 0.72614 0.19677 0.06523
 C3617 C 0.18579 0.68530 0.11711
 C3618 C 0.18990 0.68929 0.10803
 C3619 C 0.19482 0.69411 0.09722
 C3620 C 0.18749 0.70051 0.08937
 C3621 C 0.19235 0.70549 0.07903
 C3622 C 0.20463 0.70414 0.07642
 C3623 C 0.21189 0.69754 0.08430
 C3624 C 0.20701 0.69257 0.09463
 C3625 C 0.21000 0.71003 0.06583
 C3626 C 0.21908 0.70431 0.05924
 C3627 C 0.22485 0.71029 0.04992
 C3628 C 0.22157 0.72204 0.04704
 C3629 C 0.21230 0.72768 0.05329
 C3630 C 0.20653 0.72172 0.06261
 C3631 C 0.22849 0.72875 0.03853
 C3632 C 0.23462 0.73471 0.03198
 H3633 H 0.17803 0.70172 0.09130
 H3634 H 0.18650 0.71041 0.07309
 H3635 H 0.22141 0.69649 0.08265
 H3636 H 0.21278 0.68767 0.10067
 H3637 H 0.22185 0.69527 0.06139
 H3638 H 0.23207 0.70588 0.04519
 H3639 H 0.20979 0.73682 0.05123
 H3640 H 0.19969 0.72644 0.06759
 C3641 C 0.18542 0.18505 0.61717
 C3642 C 0.18949 0.18907 0.60808
 C3643 C 0.19437 0.19394 0.59727
 C3644 C 0.20096 0.18664 0.58955
 C3645 C 0.20589 0.19145 0.57916
 C3646 C 0.20436 0.20366 0.57638
 C3647 C 0.19767 0.21089 0.58421
 C3648 C 0.19269 0.20605 0.59456
 C3649 C 0.21008 0.20899 0.56564
 C3650 C 0.20439 0.21828 0.55932
 C3651 C 0.21026 0.22405 0.54994
 C3652 C 0.22185 0.22052 0.54665
 C3653 C 0.22741 0.21098 0.55255
 C3654 C 0.22158 0.20525 0.56198
 C3655 C 0.22853 0.22750 0.53818
 C3656 C 0.23450 0.23373 0.53172
 H3657 H 0.20233 0.17725 0.59158
 H3658 H 0.21088 0.18559 0.57330
 H3659 H 0.19650 0.22037 0.58251
 H3660 H 0.18764 0.21179 0.60050
 H3661 H 0.19546 0.22125 0.56174
 H3662 H 0.20591 0.23148 0.54549
 H3663 H 0.23642 0.20825 0.55015
 H3664 H 0.22631 0.19824 0.56671
   
