data_POSCAR
  _audit_creation_date              2014-09-24
  _audit_creation_method            'ToBaCCo'
  _symmetry_space_group_name_H-M    'P1'
  _symmetry_Int_Tables_number       1
  _symmetry_cell_setting            triclinic
  loop_
  _symmetry_equiv_pos_as_xyz
 x,y,z
_cell_length_a 31.9189
_cell_length_b 32.1236
_cell_length_c 28.0776
_cell_angle_alpha 88.335800
_cell_angle_beta 91.835600
_cell_angle_gamma 90.042300
loop_
  _atom_site_label
  _atom_site_type_symbol
  _atom_site_fract_x
  _atom_site_fract_y
  _atom_site_fract_z
C1 C 0.39178 0.04202 0.30498
 C2 C 0.36408 0.07736 0.28562
 C3 C 0.33598 0.06614 0.25086
 C4 C 0.33712 0.01938 0.23960
 C5 C 0.36143 0.00772 0.32128
 C6 C 0.33272 -0.00420 0.28766
 C7 C 0.41128 0.02508 0.26007
 C8 C 0.38311 0.01193 0.22631
 H9 H 0.36885 0.10932 0.29569
 H10 H 0.31299 0.00996 0.21286
 H11 H 0.36675 -0.01025 0.35421
 H12 H 0.44353 0.02915 0.25147
 C13 C 0.11051 -0.03467 0.76805
 C14 C 0.12832 -0.07317 0.74517
 C15 C 0.15658 -0.06355 0.71035
 C16 C 0.16143 -0.01630 0.70021
 C17 C 0.14983 -0.01084 0.78424
 C18 C 0.17531 0.00119 0.74883
 C19 C 0.09167 -0.01095 0.72826
 C20 C 0.11868 -0.00017 0.69034
 H21 H 0.12040 -0.10443 0.75668
 H22 H 0.18475 -0.00961 0.67274
 H23 H 0.15221 0.00334 0.81888
 H24 H 0.05910 -0.00293 0.72852
 C25 C 0.60592 0.46106 0.26858
 C26 C 0.63056 0.42291 0.25415
 C27 C 0.66126 0.43198 0.22269
 C28 C 0.66420 0.47878 0.20849
 C29 C 0.63919 0.49150 0.28722
 C30 C 0.66963 0.50110 0.25609
 C31 C 0.58955 0.47978 0.22097
 C32 C 0.61936 0.49079 0.18983
 H33 H 0.62469 0.39164 0.26768
 H34 H 0.68978 0.48614 0.18395
 H35 H 0.63526 0.50882 0.31935
 H36 H 0.55642 0.48209 0.21207
 C37 C 0.88456 0.53403 0.80957
 C38 C 0.85710 0.57083 0.79406
 C39 C 0.82737 0.56195 0.76013
 C40 C 0.82685 0.51565 0.74585
 C41 C 0.85397 0.49982 0.82594
 C42 C 0.82358 0.49008 0.79296
 C43 C 0.90140 0.51913 0.76259
 C44 C 0.87196 0.50706 0.73027
 H45 H 0.86342 0.60216 0.80533
 H46 H 0.80193 0.50811 0.71902
 H47 H 0.86054 0.48004 0.85722
 H48 H 0.93322 0.52374 0.75200
 C49 C 0.31778 0.41341 1.00042
 C50 C 0.30798 0.39074 1.04792
 C51 C 0.27451 0.36430 1.04512
 C52 C 0.25388 0.36343 0.99550
 C53 C 0.32255 0.37849 0.96487
 C54 C 0.28931 0.35249 0.96237
 C55 C 0.27583 0.43528 0.98576
 C56 C 0.24179 0.40932 0.98416
 H57 H 0.32154 0.39943 1.08192
 H58 H 0.22731 0.34137 0.99268
 H59 H 0.34887 0.37621 0.94163
 H60 H 0.27319 0.46875 0.98311
 C61 C 0.76199 0.06967 0.96856
 C62 C 0.74499 0.10442 0.93456
 C63 C 0.71985 0.13244 0.95574
 C64 C 0.71461 0.12319 1.00965
 C65 C 0.78408 0.09221 1.00926
 C66 C 0.76012 0.12001 1.03101
 C67 C 0.72463 0.05157 0.98871
 C68 C 0.69740 0.08058 1.01094
 H69 H 0.75002 0.10532 0.89663
 H70 H 0.69591 0.14702 1.02713
 H71 H 0.81586 0.08493 1.02167
 H72 H 0.71495 0.02050 0.97959
 C73 C 0.26212 0.57149 0.47192
 C74 C 0.24297 0.60320 0.43532
 C75 C 0.21632 0.63107 0.45439
 C76 C 0.21044 0.62418 0.50817
 C77 C 0.28187 0.59789 0.51055
 C78 C 0.25571 0.62521 0.52977
 C79 C 0.22415 0.55123 0.49489
 C80 C 0.19565 0.57807 0.51243
 H81 H 0.25178 0.60547 0.39853
 H82 H 0.18938 0.64731 0.52357
 H83 H 0.31372 0.59348 0.52393
 H84 H 0.21994 0.51807 0.49468
 C85 C 0.81054 0.92061 0.50524
 C86 C 0.79804 0.89600 0.55046
 C87 C 0.76453 0.87013 0.54387
 C88 C 0.74822 0.86991 0.49212
 C89 C 0.81852 0.88716 0.46931
 C90 C 0.78647 0.86011 0.46191
 C91 C 0.76950 0.94218 0.48778
 C92 C 0.73602 0.91596 0.48173
 H93 H 0.81187 0.90118 0.58506
 H94 H 0.72278 0.84800 0.48709
 H95 H 0.84913 0.88364 0.45451
 H96 H 0.76682 0.97571 0.48654
 C97 C -0.01047 0.30677 0.40060
 C98 C 0.03100 0.31524 0.37630
 C99 C 0.04308 0.28417 0.34768
 C100 C 0.01204 0.24768 0.34549
 C101 C -0.04025 0.29809 0.36195
 C102 C -0.02810 0.26605 0.33126
 C103 C -0.00402 0.26444 0.42684
 C104 C 0.00789 0.23309 0.39814
 H105 H 0.04968 0.34279 0.38268
 H106 H 0.02208 0.22339 0.32126
 H107 H -0.07304 0.30569 0.36332
 H108 H -0.01018 0.25980 0.46428
 C109 C -0.00984 0.78586 0.08406
 C110 C -0.04681 0.78154 0.11745
 C111 C -0.04287 0.74947 0.15075
 C112 C -0.00168 0.72403 0.14662
 C113 C 0.02768 0.78955 0.11863
 C114 C 0.03366 0.75726 0.15059
 C115 C -0.00570 0.74340 0.06205
 C116 C -0.00225 0.71056 0.09356
 H117 H -0.07306 0.80293 0.11595
 H118 H 0.00188 0.69798 0.17323
 H119 H 0.04769 0.81679 0.11847
 H120 H -0.00569 0.74029 0.02381
 C121 C 0.49025 0.28845 0.58333
 C122 C 0.45272 0.28814 0.61452
 C123 C 0.45089 0.25566 0.64691
 C124 C 0.49037 0.22702 0.64642
 C125 C 0.52663 0.28966 0.61949
 C126 C 0.52788 0.25743 0.65220
 C127 C 0.49145 0.24558 0.56196
 C128 C 0.49261 0.21279 0.59377
 H129 H 0.43200 0.31452 0.61388
 H130 H 0.49037 0.20149 0.67377
 H131 H 0.55072 0.31341 0.61816
 H132 H 0.49133 0.24263 0.52391
 C133 C 0.48665 0.80357 0.90912
 C134 C 0.52487 0.81431 0.87970
 C135 C 0.53592 0.78392 0.84978
 C136 C 0.50701 0.74601 0.85113
 C137 C 0.45212 0.79263 0.87235
 C138 C 0.46311 0.76350 0.84145
 C139 C 0.49658 0.76386 0.93310
 C140 C 0.50785 0.73149 0.90117
 H141 H 0.54354 0.84203 0.88531
 H142 H 0.51452 0.72300 0.82452
 H143 H 0.41966 0.80159 0.87521
 H144 H 0.49569 0.75975 0.97139
 C145 C -0.19922 0.64795 0.95376
 C146 C -0.16657 0.61632 0.97222
 C147 C -0.18181 0.58607 1.00191
 C148 C -0.22939 0.59004 1.01025
 C149 C -0.23467 0.62189 0.93123
 C150 C -0.25032 0.59140 0.95999
 C151 C -0.21764 0.66448 0.99929
 C152 C -0.23475 0.63494 1.02828
 H153 H -0.13355 0.61944 0.96513
 H154 H -0.24209 0.56521 1.03400
 H155 H -0.24996 0.63069 0.89738
 H156 H -0.21245 0.69538 1.01187
 C157 C -0.27906 0.34784 0.45659
 C158 C -0.31782 0.37326 0.46622
 C159 C -0.31231 0.40141 0.50087
 C160 C -0.26776 0.40149 0.52327
 C161 C -0.24511 0.38053 0.44594
 C162 C -0.23982 0.40910 0.48031
 C163 C -0.26638 0.32905 0.50266
 C164 C -0.25889 0.35827 0.53972
 H165 H -0.34576 0.37225 0.44353
 H166 H -0.26305 0.42594 0.54964
 H167 H -0.22380 0.37813 0.41686
 H168 H -0.26633 0.29610 0.51011
 C169 C 0.21724 -0.14859 -0.04237
 C170 C 0.18066 -0.12074 -0.03136
 C171 C 0.18882 -0.09223 0.00211
 C172 C 0.23458 -0.09366 0.02181
 C173 C 0.25276 -0.11827 -0.05585
 C174 C 0.26144 -0.08889 -0.02285
 C175 C 0.23096 -0.16672 0.00363
 C176 C 0.24191 -0.13692 0.03908
 H177 H 0.15139 -0.12143 -0.05152
 H178 H 0.24170 -0.06900 0.04738
 H179 H 0.27289 -0.12326 -0.08551
 H180 H 0.23010 -0.19961 0.01204
 C181 C 0.29271 1.14415 0.45422
 C182 C 0.32667 1.11686 0.47813
 C183 C 0.31216 1.08724 0.50887
 C184 C 0.26413 1.08745 0.51339
 C185 C 0.26143 1.11337 0.43176
 C186 C 0.24601 1.08406 0.46236
 C187 C 0.26883 1.16196 0.49575
 C188 C 0.25327 1.13260 0.52647
 H189 H 0.35965 1.12067 0.47111
 H190 H 0.25246 1.06288 0.53814
 H191 H 0.24848 1.11797 0.39584
 H192 H 0.26653 1.19444 0.50298
 C193 C 0.17129 0.56104 0.26196
 C194 C 0.14266 0.54586 0.22152
 C195 C 0.12029 0.51098 0.23196
 C196 C 0.12487 0.49739 0.28476
 C197 C 0.14112 0.56975 0.30075
 C198 C 0.11632 0.53727 0.31277
 C199 C 0.19631 0.52229 0.27961
 C200 C 0.17237 0.48849 0.29104
 H201 H 0.13890 0.56155 0.18783
 H202 H 0.10479 0.47094 0.29538
 H203 H 0.13583 0.60087 0.31297
 H204 H 0.22985 0.52006 0.27545
 C205 C -0.17034 1.01110 0.28126
 C206 C -0.13161 0.99647 0.31056
 C207 C -0.11205 0.96329 0.29281
 C208 C -0.13284 0.94762 0.24671
 C209 C -0.15640 1.01798 0.22991
 C210 C -0.13486 0.98610 0.21220
 C211 C -0.19689 0.97432 0.27940
 C212 C -0.17642 0.93924 0.25914
 H213 H -0.12174 1.00998 0.34403
 H214 H -0.11580 0.92018 0.23439
 H215 H -0.16366 1.04627 0.20938
 H216 H -0.22833 0.97304 0.29260
 C217 C 0.32313 0.51683 -0.22614
 C218 C 0.36118 0.50024 -0.19691
 C219 C 0.37907 0.46612 -0.21446
 C220 C 0.35700 0.45109 -0.26010
 C221 C 0.33693 0.52192 -0.27778
 C222 C 0.35743 0.48922 -0.29486
 C223 C 0.29277 0.47969 -0.22823
 C224 C 0.31064 0.44509 -0.24641
 H225 H 0.37337 0.51484 -0.16500
 H226 H 0.37050 0.42268 -0.27415
 H227 H 0.33278 0.55065 -0.29799
 H228 H 0.26180 0.47935 -0.21370
 C229 C 0.66818 0.05365 -0.24652
 C230 C 0.64857 0.03250 -0.29032
 C231 C 0.61996 0.00193 -0.27987
 C232 C 0.61335 -0.00366 -0.22585
 C233 C 0.63127 0.06934 -0.21960
 C234 C 0.60271 0.04008 -0.20811
 C235 C 0.68625 0.01722 -0.21582
 C236 C 0.65835 -0.01403 -0.20627
 H237 H 0.65915 0.03903 -0.32597
 H238 H 0.58933 -0.02699 -0.21587
 H239 H 0.63006 0.10068 -0.20628
 H240 H 0.71981 0.01259 -0.21203
 C241 C 0.03007 0.22320 0.85614
 C242 C 0.04290 0.25939 0.88770
 C243 C 0.01285 0.27278 0.91741
 C244 C -0.02777 0.24608 0.91356
 C245 C 0.01669 0.18862 0.89122
 C246 C -0.01281 0.20014 0.92212
 C247 C -0.00871 0.23610 0.83202
 C248 C -0.04106 0.24948 0.86259
 H249 H 0.07393 0.27285 0.88626
 H250 H -0.05149 0.25497 0.93890
 H251 H 0.02714 0.15665 0.88966
 H252 H -0.01324 0.23205 0.79420
 C253 C 0.54580 0.24595 0.14112
 C254 C 0.53420 0.21471 0.10273
 C255 C 0.49977 0.22584 0.07546
 C256 C 0.47917 0.26679 0.08945
 C257 C 0.54994 0.28681 0.11297
 C258 C 0.51547 0.29831 0.08577
 C259 C 0.50666 0.25031 0.16942
 C260 C 0.47143 0.26104 0.14385
 H261 H 0.55112 0.18637 0.09661
 H262 H 0.45127 0.27521 0.06672
 H263 H 0.57963 0.30297 0.11150
 H264 H 0.50741 0.24477 0.20728
 C265 C 0.03419 0.74117 0.64906
 C266 C 0.02036 0.71146 0.61018
 C267 C -0.01236 0.72563 0.58214
 C268 C -0.02952 0.76800 0.59656
 C269 C 0.04145 0.78271 0.62247
 C270 C 0.00860 0.79657 0.59465
 C271 C -0.00495 0.74732 0.67700
 C272 C -0.03816 0.76285 0.65076
 H273 H 0.03180 0.67992 0.60812
 H274 H -0.05590 0.77953 0.57341
 H275 H 0.07064 0.79927 0.62443
 H276 H -0.00685 0.73701 0.71376
 C277 C 0.54320 0.72544 0.35725
 C278 C 0.55106 0.76275 0.38926
 C279 C 0.51799 0.77347 0.41624
 C280 C 0.48005 0.74433 0.41002
 C281 C 0.52931 0.69015 0.39138
 C282 C 0.49741 0.70003 0.41980
 C283 C 0.50284 0.73691 0.32859
 C284 C 0.46962 0.74706 0.35569
 H285 H 0.57940 0.78124 0.38763
 H286 H 0.45357 0.75140 0.43293
 H287 H 0.54064 0.65850 0.39024
 H288 H 0.50156 0.73877 0.29005
 B289 B -0.05284 -0.00558 1.02533
 B290 B -0.07544 -0.00255 0.96958
 B291 B -0.03829 0.03292 0.98662
 B292 B -0.00186 0.00775 1.02201
 B293 B -0.01615 -0.04297 1.02640
 B294 B -0.06231 -0.04876 0.99439
 B295 B -0.00185 -0.02588 0.93323
 B296 B 0.02040 -0.02802 0.98834
 B297 B -0.01677 -0.06347 0.97219
 B298 B -0.05291 -0.03867 0.93605
 B299 B -0.03827 0.01245 0.93123
 B300 B 0.00721 0.01837 0.96353
 B301 B 0.45289 0.49771 0.52737
 B302 B 0.42714 0.49969 0.47323
 B303 B 0.46578 0.53488 0.48608
 B304 B 0.50357 0.51006 0.51940
 B305 B 0.48870 0.45972 0.52669
 B306 B 0.44084 0.45373 0.49880
 B307 B 0.49778 0.47414 0.43223
 B308 B 0.52303 0.47320 0.48559
 B309 B 0.48473 0.43803 0.47342
 B310 B 0.44695 0.46234 0.43945
 B311 B 0.46212 0.51304 0.43160
 B312 B 0.50956 0.51904 0.45969
 B313 B 0.53779 0.96065 0.55481
 B314 B 0.55969 0.97395 0.50250
 B315 B 0.51787 0.94170 0.50246
 B316 B 0.48505 0.95670 0.54465
 B317 B 0.50630 0.99982 0.57005
 B318 B 0.55309 1.01044 0.54428
 B319 B 0.49118 1.01908 0.47592
 B320 B 0.46821 1.00471 0.52736
 B321 B 0.50977 1.03761 0.52779
 B322 B 0.54333 1.02263 0.48603
 B323 B 0.52183 0.97992 0.46055
 B324 B 0.47531 0.96928 0.48561
 B325 B 0.04529 0.46281 1.05959
 B326 B 0.06638 0.47248 1.00632
 B327 B 0.02638 0.43826 1.01019
 B328 B -0.00736 0.45526 1.05061
 B329 B 0.01150 0.50115 1.07097
 B330 B 0.05750 0.51197 1.04345
 B331 B -0.00456 0.51204 0.97555
 B332 B -0.02667 0.50104 1.02832
 B333 B 0.01333 0.53582 1.02507
 B334 B 0.04751 0.51891 0.98450
 B335 B 0.02838 0.47298 0.96433
 B336 B -0.01775 0.46243 0.99071
 B337 B -0.00763 0.53700 0.46005
 B338 B 0.01597 0.53023 0.51485
 B339 B -0.02520 0.56392 0.50667
 B340 B -0.06014 0.54287 0.46673
 B341 B -0.04031 0.49681 0.45126
 B342 B 0.00654 0.48917 0.48016
 B343 B -0.05355 0.49227 0.54683
 B344 B -0.07665 0.49721 0.49290
 B345 B -0.03586 0.46521 0.49959
 B346 B -0.00154 0.48550 0.53988
 B347 B -0.02096 0.53229 0.55582
 B348 B -0.06815 0.53910 0.52572
 B349 B 0.49518 0.04171 -0.04698
 B350 B 0.51880 0.03618 0.00814
 B351 B 0.47631 0.06768 -0.00160
 B352 B 0.44228 0.04514 -0.04062
 B353 B 0.46460 0.00007 -0.05567
 B354 B 0.51174 -0.00546 -0.02650
 B355 B 0.45100 -0.00437 0.04009
 B356 B 0.42754 -0.00083 -0.01387
 B357 B 0.47000 -0.03092 -0.00677
 B358 B 0.50308 -0.00891 0.03328
 B359 B 0.48154 0.03749 0.04858
 B360 B 0.43418 0.04205 0.01875
 B361 B 0.50810 0.48034 -0.07847
 B362 B 0.48578 0.48855 -0.02554
 B363 B 0.52778 0.45615 -0.02820
 B364 B 0.56078 0.47673 -0.06973
 B365 B 0.53876 0.52209 -0.09129
 B366 B 0.49218 0.52865 -0.06444
 B367 B 0.55524 0.52988 0.00433
 B368 B 0.57685 0.52388 -0.04869
 B369 B 0.53461 0.55459 -0.04516
 B370 B 0.50232 0.53416 -0.00478
 B371 B 0.52415 0.48941 0.01655
 B372 B 0.57072 0.48284 -0.01115
 B373 B 0.00493 0.97876 0.43884
 B374 B -0.01987 0.99231 0.48845
 B375 B 0.02185 0.95960 0.49258
 B376 B 0.05685 0.97518 0.45154
 B377 B 0.03678 1.01861 0.42268
 B378 B -0.01102 1.02839 0.44535
 B379 B 0.04830 1.03637 0.51697
 B380 B 0.07287 1.02348 0.46689
 B381 B 0.03087 1.05582 0.46356
 B382 B -0.00387 1.03997 0.50386
 B383 B 0.01639 0.99707 0.53256
 B384 B 0.06416 0.98703 0.50979
 B385 B 0.78471 0.20373 0.20684
 B386 B 0.77718 0.18296 0.26193
 B387 B 0.80928 0.22420 0.25543
 B388 B 0.78926 0.25611 0.21150
 B389 B 0.74328 0.23436 0.19166
 B390 B 0.73669 0.18880 0.22288
 B391 B 0.73501 0.25156 0.28562
 B392 B 0.74313 0.27307 0.23064
 B393 B 0.71064 0.23158 0.23773
 B394 B 0.73075 0.19970 0.28095
 B395 B 0.77610 0.22140 0.30075
 B396 B 0.78350 0.26709 0.27023
 B397 B 0.72024 0.79838 0.71498
 B398 B 0.73404 0.82088 0.76657
 B399 B 0.70338 0.77895 0.76812
 B400 B 0.71759 0.74590 0.72652
 B401 B 0.75920 0.76717 0.69929
 B402 B 0.76943 0.81473 0.72378
 B403 B 0.78247 0.75453 0.79255
 B404 B 0.76674 0.73025 0.74215
 B405 B 0.79832 0.77288 0.73935
 B406 B 0.78394 0.80654 0.78161
 B407 B 0.74269 0.78428 0.80906
 B408 B 0.73239 0.73765 0.78531
 B409 B 0.26054 0.24526 0.79602
 B410 B 0.25116 0.26994 0.74323
 B411 B 0.28787 0.23256 0.74642
 B412 B 0.27217 0.19480 0.78590
 B413 B 0.22400 0.20915 0.80440
 B414 B 0.21091 0.25569 0.77709
 B415 B 0.21743 0.19892 0.70806
 B416 B 0.22772 0.17486 0.76109
 B417 B 0.19048 0.21225 0.75672
 B418 B 0.20654 0.24993 0.71768
 B419 B 0.25387 0.23520 0.69948
 B420 B 0.26741 0.18855 0.72595
 B421 B 0.22200 0.75569 0.31076
 B422 B 0.23387 0.73125 0.26051
 B423 B 0.19885 0.77131 0.25828
 B424 B 0.21627 0.80726 0.29838
 B425 B 0.26206 0.78857 0.32391
 B426 B 0.27206 0.74169 0.30069
 B427 B 0.27336 0.80039 0.22795
 B428 B 0.26403 0.82411 0.27917
 B429 B 0.29722 0.78334 0.28023
 B430 B 0.27966 0.74870 0.24099
 B431 B 0.23456 0.76689 0.21596
 B432 B 0.22429 0.81437 0.23960
 B433 B 0.27696 0.70841 0.70780
 B434 B 0.26974 0.68897 0.76304
 B435 B 0.30085 0.73061 0.75585
 B436 B 0.28075 0.76123 0.71095
 B437 B 0.23591 0.73839 0.69130
 B438 B 0.22944 0.69341 0.72403
 B439 B 0.22573 0.75751 0.78470
 B440 B 0.23364 0.77805 0.72853
 B441 B 0.20244 0.73551 0.73655
 B442 B 0.22289 0.70522 0.78122
 B443 B 0.26765 0.72828 0.80075
 B444 B 0.27407 0.77367 0.76907
 B445 B 0.22876 0.29760 0.21264
 B446 B 0.24381 0.31963 0.26407
 B447 B 0.21091 0.27904 0.26532
 B448 B 0.22372 0.24578 0.22305
 B449 B 0.26663 0.26565 0.19611
 B450 B 0.27915 0.31200 0.22192
 B451 B 0.28851 0.25067 0.28984
 B452 B 0.27189 0.22835 0.23840
 B453 B 0.30605 0.26881 0.23695
 B454 B 0.29290 0.30264 0.27972
 B455 B 0.25014 0.28229 0.30652
 B456 B 0.23778 0.23620 0.28169
 B457 B 0.77857 0.73756 0.31197
 B458 B 0.77186 0.76529 0.26019
 B459 B 0.80837 0.72667 0.26487
 B460 B 0.78827 0.68714 0.29945
 B461 B 0.74000 0.70253 0.31516
 B462 B 0.73031 0.75099 0.29100
 B463 B 0.73921 0.69758 0.21797
 B464 B 0.74396 0.67056 0.26972
 B465 B 0.70922 0.70984 0.26571
 B466 B 0.72915 0.74799 0.23039
 B467 B 0.77802 0.73289 0.21480
 B468 B 0.78709 0.68438 0.23931
 B469 B 0.71251 0.24928 0.80988
 B470 B 0.72821 0.22446 0.76098
 B471 B 0.69225 0.26346 0.75582
 B472 B 0.70557 0.30061 0.79606
 B473 B 0.75026 0.28389 0.82530
 B474 B 0.76353 0.23672 0.80394
 B475 B 0.76697 0.29484 0.73041
 B476 B 0.75359 0.31887 0.78017
 B477 B 0.78821 0.27962 0.78503
 B478 B 0.77500 0.24349 0.74518
 B479 B 0.73055 0.25970 0.71631
 B480 B 0.71670 0.30701 0.73793
 C481 C 0.46521 1.05235 0.34536
 C482 C 0.42132 1.05457 0.34575
 C483 C 0.40446 1.06467 0.38997
 C484 C 0.42894 1.06056 0.43262
 C485 C 0.47041 1.04549 0.43190
 C486 C 0.48914 1.04859 0.38708
 C487 C 0.52454 1.02849 0.36230
 C488 C 0.49761 1.03167 0.31698
 H489 H 0.37124 1.07050 0.39240
 H490 H 0.41378 1.06498 0.46569
 H491 H 0.53107 0.99542 0.37172
 H492 H 0.55274 1.04878 0.36122
 H493 H 0.48801 1.00030 0.30485
 H494 H 0.51090 1.05291 0.28938
 C495 C -0.03973 0.53212 0.84336
 C496 C -0.08196 0.54339 0.84736
 C497 C -0.09326 0.55919 0.89147
 C498 C -0.06610 0.55486 0.93194
 C499 C -0.02761 0.53342 0.92951
 C500 C -0.01370 0.52655 0.88327
 C501 C 0.00980 0.49202 0.86094
 C502 C -0.01835 0.49847 0.81744
 H503 H -0.12464 0.57086 0.89585
 H504 H -0.07740 0.56461 0.96552
 H505 H 0.00447 0.46048 0.87683
 H506 H 0.04306 0.50025 0.85477
 H507 H -0.03890 0.47116 0.81049
 H508 H -0.00102 0.51071 0.78628
 C509 C 0.06666 -0.07309 0.83307
 C510 C 0.08066 -0.03680 0.80937
 C511 C 0.06712 0.00174 0.82616
 C512 C 0.03961 0.00415 0.86309
 C513 C 0.02490 -0.03190 0.88675
 C514 C 0.03905 -0.07065 0.87125
 C515 C 0.01271 -0.10518 0.85188
 C516 C 0.04304 -0.10832 0.81173
 H517 H 0.07754 0.03074 0.80973
 H518 H 0.03046 0.03500 0.87327
 H519 H -0.01906 -0.09446 0.83962
 H520 H 0.01272 -0.13326 0.87573
 H521 H 0.02875 -0.10012 0.77604
 H522 H 0.06160 -0.13762 0.81350
 C523 C 0.53798 0.48392 0.30372
 C524 C 0.57117 0.45515 0.30354
 C525 C 0.57457 0.42652 0.34236
 C526 C 0.54863 0.43027 0.38164
 C527 C 0.51975 0.46331 0.38407
 C528 C 0.51300 0.48781 0.34258
 C529 C 0.50936 0.53400 0.33485
 C530 C 0.53656 0.52964 0.29204
 H531 H 0.59955 0.40372 0.34460
 H532 H 0.55456 0.41012 0.41201
 H533 H 0.52498 0.55189 0.36370
 H534 H 0.47675 0.54383 0.32511
 H535 H 0.56752 0.54514 0.29637
 H536 H 0.51945 0.53687 0.25770
 C537 C 0.63591 0.51947 0.10799
 C538 C 0.60806 0.51437 0.14469
 C539 C 0.56925 0.53565 0.13780
 C540 C 0.55595 0.55119 0.09230
 C541 C 0.58015 0.54393 0.05208
 C542 C 0.62297 0.53393 0.06286
 C543 C 0.65766 0.50878 0.04219
 C544 C 0.67051 0.49345 0.09187
 H545 H 0.54781 0.53845 0.16656
 H546 H 0.52402 0.56235 0.08786
 H547 H 0.68217 0.52923 0.02718
 H548 H 0.64812 0.48250 0.01975
 H549 H 0.70182 0.50513 0.10371
 H550 H 0.66480 0.45965 0.09825
 C551 C 0.06541 1.04517 0.64624
 C552 C 0.10544 1.02606 0.65056
 C553 C 0.13179 1.03625 0.61219
 C554 C 0.11486 1.05384 0.56891
 C555 C 0.07099 1.05882 0.56172
 C556 C 0.04985 1.06426 0.60430
 C557 C 0.00556 1.06079 0.62065
 C558 C 0.02278 1.03897 0.66564
 H559 H 0.16468 1.02850 0.61322
 H560 H 0.13565 1.05861 0.53998
 H561 H -0.01614 1.04073 0.60022
 H562 H -0.00777 1.09191 0.62760
 H563 H 0.01314 1.00568 0.66736
 H564 H 0.01801 1.05690 0.69830
 C565 C -0.14001 0.49317 0.64353
 C566 C -0.11557 0.48850 0.68503
 C567 C -0.07565 0.46975 0.68075
 C568 C -0.05776 0.46570 0.63575
 C569 C -0.07926 0.48036 0.59391
 C570 C -0.12216 0.49104 0.59941
 C571 C -0.15203 0.52390 0.57918
 C572 C -0.17103 0.52553 0.62778
 H573 H -0.05649 0.46185 0.71222
 H574 H -0.02556 0.45534 0.63446
 H575 H -0.17464 0.51174 0.55215
 H576 H -0.13751 0.55420 0.56949
 H577 H -0.20373 0.51362 0.62825
 H578 H -0.16568 0.55565 0.64542
 C579 C 0.36970 -0.00768 0.14089
 C580 C 0.39662 -0.00580 0.18078
 C581 C 0.43767 -0.02136 0.17541
 C582 C 0.45313 -0.02815 0.12974
 C583 C 0.42836 -0.01846 0.08824
 C584 C 0.38518 -0.01176 0.09580
 C585 C 0.35097 0.01577 0.07433
 C586 C 0.33438 0.01939 0.12385
 H587 H 0.45900 -0.02545 0.20591
 H588 H 0.48599 -0.03584 0.12718
 H589 H 0.32859 -0.00104 0.05078
 H590 H 0.36142 0.04641 0.06009
 H591 H 0.30345 0.00409 0.12806
 H592 H 0.33716 0.05091 0.13821
 C593 C 0.38656 0.44314 0.03762
 C594 C 0.35592 0.44214 0.00060
 C595 C 0.36457 0.46674 -0.04048
 C596 C 0.40457 0.48466 -0.04661
 C597 C 0.43813 0.47630 -0.01331
 C598 C 0.42596 0.46005 0.03106
 C599 C 0.44555 0.43312 0.06964
 C600 C 0.40252 0.41356 0.07598
 H601 H 0.34156 0.46943 -0.06961
 H602 H 0.41001 0.50144 -0.07982
 H603 H 0.45657 0.45134 0.10068
 H604 H 0.46829 0.41087 0.05681
 H605 H 0.38946 0.41993 0.11126
 H606 H 0.40098 0.38053 0.06517
 C607 C -0.12296 0.95039 0.54748
 C608 C -0.15192 0.94992 0.50876
 C609 C -0.14090 0.97381 0.46798
 C610 C -0.10007 0.98989 0.46345
 C611 C -0.06816 0.98102 0.49857
 C612 C -0.08239 0.96528 0.54241
 C613 C -0.06522 0.93554 0.57979
 C614 C -0.10946 0.91925 0.58532
 H615 H -0.16252 0.97660 0.43752
 H616 H -0.09281 1.00560 0.43013
 H617 H -0.05239 0.95142 0.61174
 H618 H -0.04547 0.91123 0.56561
 H619 H -0.12234 0.92613 0.62056
 H620 H -0.11330 0.88652 0.57396
 C621 C -0.19891 0.00050 0.97185
 C622 C -0.20770 0.03872 0.94808
 C623 C -0.17679 0.05266 0.91628
 C624 C -0.13618 0.03491 0.91851
 C625 C -0.12427 0.00677 0.95630
 C626 C -0.15815 -0.01408 0.97731
 C627 C -0.16688 -0.03548 1.02385
 C628 C -0.21139 -0.01905 1.01813
 H629 H -0.18178 0.08036 0.89403
 H630 H -0.11289 0.04811 0.89529
 H631 H -0.15152 -0.02156 1.05497
 H632 H -0.16476 -0.06994 1.02227
 H633 H -0.21905 0.00407 1.04528
 H634 H -0.23503 -0.04410 1.01312
 C635 C 0.30461 0.50443 0.48167
 C636 C 0.29445 0.54091 0.45487
 C637 C 0.32440 0.55358 0.42137
 C638 C 0.36509 0.53609 0.42327
 C639 C 0.37822 0.50947 0.46204
 C640 C 0.34529 0.48963 0.48569
 C641 C 0.33878 0.47050 0.53390
 C642 C 0.29436 0.48758 0.53005
 H643 H 0.31844 0.57985 0.39718
 H644 H 0.38739 0.54784 0.39794
 H645 H 0.35672 0.48510 0.56284
 H646 H 0.34015 0.43593 0.53397
 H647 H 0.28847 0.51241 0.55576
 H648 H 0.27019 0.46269 0.52849
 C649 C 0.13837 0.52315 0.51575
 C650 C 0.15231 0.56368 0.52524
 C651 C 0.12202 0.59016 0.54453
 C652 C 0.07898 0.57831 0.54653
 C653 C 0.06477 0.54042 0.52713
 C654 C 0.09651 0.51216 0.51629
 C655 C 0.10139 0.48094 0.47823
 C656 C 0.14706 0.49322 0.47735
 H657 H 0.13085 0.62086 0.55550
 H658 H 0.05657 0.60033 0.55927
 H659 H 0.08469 0.48909 0.44397
 H660 H 0.09649 0.44849 0.49178
 H661 H 0.15563 0.50907 0.44326
 H662 H 0.16816 0.46738 0.48994
 C663 C 0.64040 0.02960 0.01066
 C664 C 0.65493 0.06982 0.02049
 C665 C 0.62414 0.09857 0.03465
 C666 C 0.58110 0.08735 0.03633
 C667 C 0.56704 0.04786 0.02168
 C668 C 0.59814 0.01913 0.01085
 C669 C 0.60709 -0.02208 0.03505
 C670 C 0.65301 -0.01074 0.03494
 H671 H 0.63247 0.12990 0.04410
 H672 H 0.55900 0.10998 0.04797
 H673 H 0.59896 -0.04845 0.01169
 H674 H 0.59438 -0.02460 0.07145
 H675 H 0.67122 -0.03101 0.01175
 H676 H 0.66712 -0.00652 0.07121
 C677 C 0.65748 0.90266 0.48032
 C678 C 0.69110 0.93062 0.47694
 C679 C 0.67979 0.97324 0.47158
 C680 C 0.63787 0.98659 0.47689
 C681 C 0.60530 0.95791 0.48663
 C682 C 0.61606 0.91545 0.48350
 C683 C 0.60567 0.87708 0.51268
 C684 C 0.65081 0.86519 0.51176
 H685 H 0.70327 0.99696 0.46615
 H686 H 0.63168 1.01973 0.47619
 H687 H 0.58730 0.85371 0.49288
 H688 H 0.59474 0.88224 0.54891
 H689 H 0.65532 0.83508 0.49410
 H690 H 0.66553 0.86830 0.54746
 C691 C 0.18125 0.45961 0.95869
 C692 C 0.19673 0.42350 0.98294
 C693 C 0.16658 0.40001 1.00798
 C694 C 0.12569 0.41506 1.01383
 C695 C 0.11209 0.45405 0.99392
 C696 C 0.14016 0.47368 0.96290
 C697 C 0.15234 0.51802 0.95449
 C698 C 0.19743 0.50283 0.95110
 H699 H 0.17512 0.37160 1.02736
 H700 H 0.10576 0.39700 1.03699
 H701 H 0.14740 0.53782 0.98557
 H702 H 0.13904 0.53083 0.92005
 H703 H 0.21770 0.51346 0.98127
 H704 H 0.21029 0.50789 0.91507
 C705 C -0.05796 0.36690 0.42385
 C706 C -0.02268 0.34185 0.43302
 C707 C 0.00273 0.35230 0.47330
 C708 C -0.00432 0.38928 0.49844
 C709 C -0.03674 0.41741 0.48377
 C710 C -0.06425 0.40324 0.44712
 C711 C -0.09032 0.42124 0.40593
 C712 C -0.08200 0.38164 0.38006
 H713 H 0.02983 0.33338 0.48333
 H714 H 0.01792 0.39751 0.52653
 H715 H -0.07713 0.44868 0.38718
 H716 H -0.12402 0.42392 0.41377
 H717 H -0.06172 0.38652 0.34889
 H718 H -0.11123 0.36360 0.37330
 C719 C 0.44427 -0.13231 -0.07523
 C720 C 0.47529 -0.16060 -0.05949
 C721 C 0.50051 -0.14921 -0.01937
 C722 C 0.49697 -0.10920 0.00050
 C723 C 0.46917 -0.07910 -0.02034
 C724 C 0.44302 -0.09270 -0.05827
 C725 C 0.43022 -0.07451 -0.10635
 C726 C 0.43030 -0.11802 -0.12445
 H727 H 0.52507 -0.16992 -0.00568
 H728 H 0.51813 -0.10091 0.02961
 H729 H 0.45543 -0.05618 -0.12318
 H730 H 0.39855 -0.06016 -0.10758
 H731 H 0.45433 -0.12284 -0.15162
 H732 H 0.39825 -0.12903 -0.13437
 C733 C 0.02592 -0.16005 1.03127
 C734 C -0.01133 -0.17930 1.04572
 C735 C -0.04782 -0.16977 1.01806
 C736 C -0.04741 -0.13833 0.98178
 C737 C -0.01110 -0.11360 0.97402
 C738 C 0.02603 -0.12858 0.99564
 C739 C 0.06098 -0.14967 0.97171
 C740 C 0.06259 -0.18172 1.01186
 H741 H -0.07682 -0.18598 1.02505
 H742 H -0.07706 -0.12962 0.96446
 H743 H 0.08878 -0.12950 0.97078
 H744 H 0.05149 -0.16301 0.93697
 H745 H 0.09104 -0.17910 1.03548
 H746 H 0.05534 -0.21373 1.00005
 C747 C 0.52771 0.34115 0.53149
 C748 C 0.49012 0.32269 0.54505
 C749 C 0.45394 0.33207 0.51669
 C750 C 0.45467 0.36359 0.48089
 C751 C 0.49102 0.38813 0.47440
 C752 C 0.52832 0.37259 0.49583
 C753 C 0.56223 0.34941 0.47187
 C754 C 0.56326 0.31786 0.51221
 H755 H 0.42479 0.31591 0.52315
 H756 H 0.42517 0.37271 0.46349
 H757 H 0.59122 0.36801 0.47037
 H758 H 0.55152 0.33638 0.43726
 H759 H 0.59197 0.31976 0.53554
 H760 H 0.55480 0.28598 0.50087
 C761 C 0.48961 1.15821 0.52933
 C762 C 0.49646 1.16868 0.57757
 C763 C 0.50760 1.13564 0.60957
 C764 C 0.51327 1.09487 0.59348
 C765 C 0.50662 1.08495 0.54486
 C766 C 0.49386 1.11749 0.51364
 C767 C 0.51394 1.13168 0.46877
 C768 C 0.50980 1.17560 0.48557
 H769 H 0.51367 1.14117 0.64693
 H770 H 0.52273 1.07101 0.61964
 H771 H 0.49403 1.12622 0.43645
 H772 H 0.54700 1.12112 0.46681
 H773 H 0.48769 1.19457 0.46252
 H774 H 0.54056 1.19060 0.49355
 C775 C 0.01471 0.63411 1.10573
 C776 C -0.00122 0.66665 1.07668
 C777 C -0.01554 0.65590 1.03008
 C778 C -0.00962 0.61551 1.01247
 C779 C 0.00971 0.58382 1.04101
 C780 C 0.02046 0.59444 1.08841
 C781 C 0.06043 0.58864 1.11722
 C782 C 0.05377 0.63193 1.13608
 H783 H -0.03065 0.67872 1.00630
 H784 H -0.01926 0.60984 0.97614
 H785 H 0.08841 0.58660 1.09481
 H786 H 0.05793 0.56355 1.14511
 H787 H 0.07765 0.65497 1.12442
 H788 H 0.04721 0.63166 1.17473
 C789 C 0.53404 0.66082 -0.11423
 C790 C 0.51668 0.68981 -0.08404
 C791 C 0.50747 0.67373 -0.03772
 C792 C 0.51463 0.63128 -0.02439
 C793 C 0.53195 0.60321 -0.05644
 C794 C 0.54139 0.62028 -0.10102
 C795 C 0.56192 0.61025 -0.14613
 C796 C 0.55380 0.65570 -0.16143
 H797 H 0.49328 0.69297 -0.01179
 H798 H 0.50601 0.62053 0.01085
 H799 H 0.54372 0.58799 -0.16793
 H800 H 0.59574 0.60287 -0.14085
 H801 H 0.53109 0.65834 -0.19222
 H802 H 0.58296 0.67435 -0.16483
 C803 C 0.01300 1.15592 0.38500
 C804 C 0.01500 1.18939 0.41557
 C805 C 0.02385 1.17869 0.46438
 C806 C 0.02951 1.13652 0.48020
 C807 C 0.02786 1.10363 0.44756
 C808 C 0.01861 1.11566 0.40024
 C809 C 0.00917 1.09850 0.35242
 C810 C 0.00267 1.14382 0.33498
 H811 H 0.02651 1.20260 0.49062
 H812 H 0.03536 1.12993 0.51781
 H813 H -0.02002 1.07966 0.35161
 H814 H 0.03698 1.08342 0.33745
 H815 H -0.03033 1.15108 0.32402
 H816 H 0.02666 1.15412 0.30936
 C817 C 0.81546 0.72332 0.92150
 C818 C 0.81712 0.67980 0.91757
 C819 C 0.82872 0.66575 0.87275
 C820 C 0.82593 0.69238 0.83200
 C821 C 0.81093 0.73354 0.83516
 C822 C 0.81331 0.74964 0.88147
 C823 C 0.79204 0.78304 0.90825
 C824 C 0.79344 0.75360 0.95133
 H825 H 0.83382 0.63290 0.86811
 H826 H 0.83091 0.67881 0.79826
 H827 H 0.75914 0.79029 0.89779
 H828 H 0.81238 0.81083 0.91291
 H829 H 0.76139 0.74341 0.96087
 H830 H 0.81369 0.76499 0.98116
 C831 C 0.31339 0.21764 0.41956
 C832 C 0.31001 0.17415 0.41667
 C833 C 0.32094 0.15803 0.37258
 C834 C 0.32164 0.18390 0.33149
 C835 C 0.31376 0.22707 0.33330
 C836 C 0.31767 0.24331 0.37949
 C837 C 0.30342 0.28064 0.40568
 C838 C 0.29767 0.25186 0.44895
 H839 H 0.32292 0.12473 0.36828
 H840 H 0.32400 0.16859 0.29853
 H841 H 0.27329 0.29486 0.39346
 H842 H 0.32921 0.30345 0.41112
 H843 H 0.26391 0.24912 0.45693
 H844 H 0.31921 0.25884 0.47958
 C845 C 0.71139 0.27638 0.41621
 C846 C 0.71254 0.32002 0.41458
 C847 C 0.70396 0.33913 0.36942
 C848 C 0.70464 0.31609 0.32783
 C849 C 0.71393 0.27323 0.32961
 C850 C 0.71161 0.25365 0.37515
 C851 C 0.73115 0.21678 0.40133
 C852 C 0.73150 0.24236 0.44602
 H853 H 0.70009 0.37261 0.36586
 H854 H 0.70007 0.33291 0.29477
 H855 H 0.76338 0.20893 0.39149
 H856 H 0.70937 0.18981 0.40312
 H857 H 0.76383 0.25030 0.45869
 H858 H 0.71045 0.22963 0.47366
 C859 C 0.18526 0.83774 0.87559
 C860 C 0.20456 0.82188 0.91793
 C861 C 0.21321 0.77874 0.91909
 C862 C 0.21160 0.75622 0.87670
 C863 C 0.20531 0.77681 0.83139
 C864 C 0.18871 0.81684 0.83325
 C865 C 0.19785 0.85618 0.80727
 C866 C 0.18843 0.87945 0.85144
 H867 H 0.22467 0.76251 0.95102
 H868 H 0.22116 0.72390 0.87948
 H869 H 0.17567 0.86118 0.77702
 H870 H 0.23181 0.85844 0.80104
 H871 H 0.15765 0.89569 0.84894
 H872 H 0.21488 0.89920 0.86360
 C873 C 0.26673 0.87888 0.12109
 C874 C 0.26131 0.85123 0.08380
 C875 C 0.27936 0.81118 0.09271
 C876 C 0.29347 0.79795 0.13900
 C877 C 0.28760 0.82318 0.17880
 C878 C 0.27916 0.86571 0.16697
 C879 C 0.25487 0.90088 0.18721
 C880 C 0.24153 0.91434 0.13703
 H881 H 0.28154 0.78903 0.06466
 H882 H 0.30281 0.76570 0.14429
 H883 H 0.27593 0.92417 0.20393
 H884 H 0.22732 0.89188 0.20808
 H885 H 0.25478 0.94506 0.12634
 H886 H 0.20749 0.91020 0.12921
 C887 C 0.76114 0.37377 0.62337
 C888 C 0.75853 0.34632 0.58559
 C889 C 0.77758 0.30684 0.59537
 C890 C 0.79052 0.29391 0.64231
 C891 C 0.78249 0.31869 0.68201
 C892 C 0.77244 0.36095 0.66977
 C893 C 0.74511 0.39488 0.68842
 C894 C 0.73347 0.40783 0.63779
 H895 H 0.78154 0.28490 0.56741
 H896 H 0.80078 0.26196 0.64793
 H897 H 0.76359 0.41969 0.70596
 H898 H 0.71712 0.38463 0.70782
 H899 H 0.74558 0.43930 0.62805
 H900 H 0.70019 0.40177 0.62809
 C901 C 0.21167 0.18320 0.57344
 C902 C 0.23109 0.14416 0.56993
 C903 C 0.23463 0.11899 0.61119
 C904 C 0.22206 0.13351 0.65486
 C905 C 0.20536 0.17421 0.65992
 C906 C 0.19889 0.19788 0.61746
 C907 C 0.15765 0.21184 0.59602
 C908 C 0.17171 0.19661 0.54869
 H909 H 0.25062 0.08932 0.61108
 H910 H 0.23170 0.11410 0.68490
 H911 H 0.15407 0.24624 0.59654
 H912 H 0.13081 0.19393 0.61047
 H913 H 0.17672 0.22217 0.52195
 H914 H 0.15282 0.16999 0.53538
 C915 C 0.74642 0.61918 0.11296
 C916 C 0.74553 0.64628 0.07358
 C917 C 0.72806 0.68623 0.08003
 C918 C 0.71999 0.70046 0.12612
 C919 C 0.73003 0.67559 0.16728
 C920 C 0.74054 0.63342 0.15851
 C921 C 0.77259 0.60247 0.17848
 C922 C 0.77813 0.58754 0.12856
 H923 H 0.72360 0.70774 0.04991
 H924 H 0.71044 0.73254 0.12952
 H925 H 0.75887 0.57759 0.20117
 H926 H 0.80202 0.61619 0.19300
 H927 H 0.76670 0.55524 0.12343
 H928 H 0.80965 0.59447 0.11475
 C929 C 0.19470 0.62490 0.21082
 C930 C 0.19868 0.59847 0.25155
 C931 C 0.22627 0.61177 0.28803
 C932 C 0.24026 0.65306 0.28856
 C933 C 0.22599 0.68263 0.25313
 C934 C 0.20832 0.66588 0.21158
 C935 C 0.17553 0.68006 0.17594
 C936 C 0.16000 0.63557 0.17572
 H937 H 0.23310 0.59171 0.31891
 H938 H 0.25824 0.66221 0.31984
 H939 H 0.18880 0.69083 0.14161
 H940 H 0.15178 0.70020 0.19044
 H941 H 0.16380 0.62069 0.14086
 H942 H 0.12865 0.63216 0.19150
 C943 C 0.69328 0.11713 0.70565
 C944 C 0.69873 0.08916 0.74459
 C945 C 0.72444 0.10301 0.78285
 C946 C 0.73630 0.14509 0.78566
 C947 C 0.72088 0.17536 0.75177
 C948 C 0.70298 0.15924 0.70964
 C949 C 0.66568 0.17125 0.67884
 C950 C 0.65641 0.12556 0.67305
 H951 H 0.73123 0.08276 0.81357
 H952 H 0.75360 0.15415 0.81746
 H953 H 0.67412 0.18764 0.64509
 H954 H 0.64043 0.18495 0.69916
 H955 H 0.66160 0.11491 0.63639
 H956 H 0.62608 0.11579 0.68829
 C957 C 0.84263 0.08457 0.30523
 C958 C 0.81347 0.05203 0.29860
 C959 C 0.77114 0.06344 0.29197
 C960 C 0.75996 0.10544 0.28408
 C961 C 0.79089 0.13702 0.27997
 C962 C 0.83220 0.12569 0.29345
 C963 C 0.87331 0.13192 0.26919
 C964 C 0.88603 0.08926 0.28719
 H965 H 0.74706 0.04007 0.28746
 H966 H 0.72721 0.11232 0.27635
 H967 H 0.89583 0.15411 0.28441
 H968 H 0.86934 0.13435 0.22971
 H969 H 0.90946 0.08980 0.31732
 H970 H 0.89559 0.06916 0.25831
 C971 C 0.34055 0.59105 0.79158
 C972 C 0.31061 0.55881 0.79173
 C973 C 0.26885 0.57028 0.79926
 C974 C 0.25695 0.61263 0.79515
 C975 C 0.28599 0.64370 0.78054
 C976 C 0.32839 0.63165 0.78179
 C977 C 0.36568 0.63938 0.75104
 C978 C 0.38131 0.59684 0.76698
 H979 H 0.24464 0.54697 0.80289
 H980 H 0.22401 0.61989 0.79756
 H981 H 0.38920 0.66254 0.76208
 H982 H 0.35712 0.64115 0.71245
 H983 H 0.40790 0.59821 0.79351
 H984 H 0.38864 0.57747 0.73660
 C985 C 0.30880 0.37122 0.78157
 C986 C 0.29061 0.40360 0.75430
 C987 C 0.25564 0.39339 0.72440
 C988 C 0.24297 0.35105 0.71907
 C989 C 0.26674 0.31803 0.74090
 C990 C 0.30016 0.33062 0.77116
 C991 C 0.34500 0.31815 0.78121
 C992 C 0.35235 0.36119 0.79922
 H993 H 0.23916 0.41775 0.70402
 H994 H 0.21547 0.34423 0.69711
 H995 H 0.36312 0.31471 0.74862
 H996 H 0.35105 0.29348 0.80845
 H997 H 0.37850 0.37667 0.78117
 H998 H 0.35474 0.36084 0.83877
 C999 C 0.81924 0.87213 0.22112
 C1000 C 0.80571 0.89951 0.25553
 C1001 C 0.77822 0.88381 0.28997
 C1002 C 0.76663 0.84164 0.29086
 C1003 C 0.78152 0.81398 0.25692
 C1004 C 0.80633 0.83077 0.22123
 C1005 C 0.79863 0.83089 0.16871
 C1006 C 0.81248 0.87596 0.16810
 H1007 H 0.76766 0.90318 0.31812
 H1008 H 0.74670 0.83072 0.31909
 H1009 H 0.76496 0.82672 0.15850
 H1010 H 0.82066 0.81001 0.15094
 H1011 H 0.78699 0.89818 0.15721
 H1012 H 0.84210 0.88069 0.14911
 C1013 C 0.71607 0.93361 0.81305
 C1014 C 0.67406 0.94220 0.79911
 C1015 C 0.65151 0.91026 0.77667
 C1016 C 0.67059 0.87257 0.76681
 C1017 C 0.71262 0.86373 0.78114
 C1018 C 0.73470 0.89511 0.80481
 C1019 C 0.75583 0.89311 0.85291
 C1020 C 0.73572 0.93478 0.86203
 H1021 H 0.61979 0.91483 0.76315
 H1022 H 0.65231 0.85113 0.74580
 H1023 H 0.79051 0.89479 0.85087
 H1024 H 0.74391 0.86725 0.87590
 H1025 H 0.75885 0.96051 0.86541
 H1026 H 0.71225 0.93317 0.89046
 C1027 C 0.23301 0.43720 0.29889
 C1028 C 0.19002 0.44551 0.29057
 C1029 C 0.16550 0.41320 0.27178
 C1030 C 0.18285 0.37436 0.26343
 C1031 C 0.22533 0.36491 0.27505
 C1032 C 0.25014 0.39779 0.29167
 C1033 C 0.27739 0.39956 0.33569
 C1034 C 0.25888 0.44230 0.34360
 H1035 H 0.13311 0.41792 0.26076
 H1036 H 0.16250 0.35240 0.24586
 H1037 H 0.31121 0.40059 0.32748
 H1038 H 0.26877 0.37577 0.36323
 H1039 H 0.28210 0.46792 0.34004
 H1040 H 0.23959 0.44340 0.37584
 C1041 C 0.07142 0.23335 0.77906
 C1042 C 0.06500 0.21170 0.82262
 C1043 C 0.09636 0.18288 0.83735
 C1044 C 0.13375 0.17977 0.81268
 C1045 C 0.14228 0.20570 0.77218
 C1046 C 0.10869 0.23053 0.75464
 C1047 C 0.10620 0.27527 0.73850
 C1048 C 0.06549 0.27811 0.76497
 H1049 H 0.09431 0.16531 0.87061
 H1050 H 0.15767 0.15966 0.82889
 H1051 H 0.10167 0.27882 0.69918
 H1052 H 0.13147 0.29483 0.75426
 H1053 H 0.03756 0.28310 0.74082
 H1054 H 0.06765 0.29899 0.79584
 C1055 C 0.59036 0.73775 0.28470
 C1056 C 0.58105 0.71523 0.32686
 C1057 C 0.61064 0.68446 0.34174
 C1058 C 0.64864 0.67976 0.31840
 C1059 C 0.66012 0.70620 0.27934
 C1060 C 0.62848 0.73372 0.26202
 C1061 C 0.62881 0.77881 0.24738
 C1062 C 0.58716 0.78301 0.27185
 H1063 H 0.60666 0.66581 0.37388
 H1064 H 0.67053 0.65723 0.33413
 H1065 H 0.62602 0.78352 0.20804
 H1066 H 0.65445 0.79661 0.26513
 H1067 H 0.56044 0.78989 0.24649
 H1068 H 0.58911 0.80309 0.30340
 C1069 C 0.59856 0.26918 0.20334
 C1070 C 0.58371 0.23761 0.17357
 C1071 C 0.60689 0.20059 0.17312
 C1072 C 0.64482 0.19687 0.19888
 C1073 C 0.66160 0.23033 0.22530
 C1074 C 0.63681 0.26583 0.22836
 C1075 C 0.61900 0.28417 0.27161
 C1076 C 0.57758 0.28770 0.24453
 H1077 H 0.59664 0.17430 0.15278
 H1078 H 0.66165 0.16795 0.19568
 H1079 H 0.63199 0.31531 0.27916
 H1080 H 0.61870 0.26187 0.30265
 H1081 H 0.56769 0.32045 0.23674
 H1082 H 0.55346 0.26739 0.26078
 C1083 C 0.10699 0.71666 0.65296
 C1084 C 0.07254 0.72816 0.67836
 C1085 C 0.07989 0.74061 0.72621
 C1086 C 0.12069 0.74002 0.74736
 C1087 C 0.15503 0.72935 0.72008
 C1088 C 0.14656 0.71652 0.67321
 C1089 C 0.15808 0.67766 0.64836
 C1090 C 0.11448 0.67830 0.62594
 H1091 H 0.05500 0.75320 0.74663
 H1092 H 0.12560 0.75093 0.78322
 H1093 H 0.16312 0.65054 0.67330
 H1094 H 0.18300 0.68305 0.62208
 H1095 H 0.09511 0.65138 0.63781
 H1096 H 0.11392 0.68511 0.58689
 C1097 C 0.88615 0.78356 0.64714
 C1098 C 0.92244 0.77389 0.67381
 C1099 C 0.91943 0.77484 0.72432
 C1100 C 0.88015 0.77576 0.74579
 C1101 C 0.84323 0.77593 0.71727
 C1102 C 0.84789 0.78444 0.66805
 C1103 C 0.82553 0.77134 0.62315
 C1104 C 0.86801 0.76992 0.60051
 H1105 H 0.94682 0.77295 0.74785
 H1106 H 0.87882 0.77383 0.78427
 H1107 H 0.80525 0.79654 0.60745
 H1108 H 0.81036 0.74029 0.62611
 H1109 H 0.87125 0.79403 0.57164
 H1110 H 0.87787 0.73798 0.59157
 C1111 C 0.42669 0.25579 0.21707
 C1112 C 0.43099 0.26651 0.16830
 C1113 C 0.39572 0.28430 0.14464
 C1114 C 0.35702 0.28567 0.16713
 C1115 C 0.35177 0.26901 0.21430
 C1116 C 0.38848 0.25713 0.23940
 C1117 C 0.39913 0.21990 0.27037
 C1118 C 0.44084 0.21852 0.24636
 H1119 H 0.39718 0.29609 0.10830
 H1120 H 0.33083 0.29849 0.14614
 H1121 H 0.38010 0.19224 0.26203
 H1122 H 0.40215 0.22745 0.30870
 H1123 H 0.44483 0.19048 0.22460
 H1124 H 0.46750 0.22547 0.27132
 C1125 C 0.41668 0.75429 0.28695
 C1126 C 0.42879 0.76235 0.33424
 C1127 C 0.40055 0.78591 0.36024
 C1128 C 0.35986 0.79521 0.34170
 C1129 C 0.34608 0.78197 0.29604
 C1130 C 0.37656 0.76312 0.26867
 C1131 C 0.37589 0.72461 0.23986
 C1132 C 0.41986 0.71542 0.25957
 H1133 H 0.40893 0.79597 0.39568
 H1134 H 0.33869 0.81128 0.36426
 H1135 H 0.37468 0.73193 0.20091
 H1136 H 0.35283 0.70104 0.25220
 H1137 H 0.44398 0.71783 0.23194
 H1138 H 0.42184 0.68695 0.28305
 C1139 C 0.88636 0.27582 0.87315
 C1140 C 0.91938 0.26475 0.84402
 C1141 C 0.91077 0.27031 0.79399
 C1142 C 0.86987 0.27835 0.77518
 C1143 C 0.83589 0.28251 0.80533
 C1144 C 0.84617 0.28404 0.85450
 C1145 C 0.82601 0.26600 0.89783
 C1146 C 0.86969 0.25703 0.91812
 H1147 H 0.93468 0.26685 0.76817
 H1148 H 0.86454 0.27878 0.73687
 H1149 H 0.80808 0.23696 0.89132
 H1150 H 0.80917 0.28994 0.91768
 H1151 H 0.87633 0.22327 0.92248
 H1152 H 0.87730 0.27565 0.94993
 C1153 C 0.56624 0.95046 0.68602
 C1154 C 0.60436 0.97208 0.68372
 C1155 C 0.62751 0.96485 0.64306
 C1156 C 0.60814 0.94793 0.60246
 C1157 C 0.56418 0.94046 0.60023
 C1158 C 0.54665 0.93383 0.64555
 C1159 C 0.50433 0.93973 0.66651
 C1160 C 0.52634 0.95906 0.70920
 H1161 H 0.65935 0.97592 0.64052
 H1162 H 0.62668 0.94871 0.57134
 H1163 H 0.48952 0.90934 0.67571
 H1164 H 0.48262 0.96179 0.64759
 H1165 H 0.52299 0.94039 0.74280
 H1166 H 0.52049 0.99303 0.71082
 C1167 C 0.13097 0.47818 1.15358
 C1168 C 0.10637 0.48318 1.19327
 C1169 C 0.06797 0.46148 1.19311
 C1170 C 0.05153 0.44417 1.15039
 C1171 C 0.07275 0.44947 1.10681
 C1172 C 0.11560 0.46096 1.11212
 C1173 C 0.14795 0.48569 1.08465
 C1174 C 0.16497 0.50258 1.13055
 H1175 H 0.04872 0.46160 1.22405
 H1176 H 0.01939 0.43335 1.15000
 H1177 H 0.13609 0.51144 1.06120
 H1178 H 0.17114 0.46662 1.06732
 H1179 H 0.16227 0.53682 1.12835
 H1180 H 0.19676 0.49124 1.14112
 C1181 C -0.11456 0.02682 1.13715
 C1182 C -0.11641 -0.01091 1.16433
 C1183 C -0.10064 -0.04649 1.14385
 C1184 C -0.08120 -0.04398 1.10037
 C1185 C -0.07621 -0.00548 1.07470
 C1186 C -0.09518 0.02944 1.09322
 C1187 C -0.07734 0.07133 1.10264
 C1188 C -0.09804 0.06860 1.15059
 H1189 H -0.10179 -0.07669 1.16133
 H1190 H -0.06968 -0.07313 1.08755
 H1191 H -0.09127 0.09580 1.07822
 H1192 H -0.04250 0.07117 1.10545
 H1193 H -0.12345 0.09190 1.15371
 H1194 H -0.07505 0.06677 1.18114
 C1195 C 0.39242 0.53241 0.63897
 C1196 C 0.38494 0.49387 0.66318
 C1197 C 0.40879 0.46001 0.64911
 C1198 C 0.43255 0.46284 0.60847
 C1199 C 0.43410 0.49992 0.57949
 C1200 C 0.41686 0.53543 0.59862
 C1201 C 0.39099 0.56934 0.57594
 C1202 C 0.36357 0.56578 0.61912
 H1203 H 0.40797 0.43000 0.66707
 H1204 H 0.44690 0.43405 0.59843
 H1205 H 0.37523 0.55985 0.54225
 H1206 H 0.40841 0.59925 0.57364
 H1207 H 0.33174 0.55369 0.61050
 H1208 H 0.36460 0.59420 0.64075
 C1209 C 0.45681 0.46408 -0.20500
 C1210 C 0.41779 0.44869 -0.19177
 C1211 C 0.41591 0.42887 -0.14652
 C1212 C 0.44970 0.43129 -0.11326
 C1213 C 0.48371 0.45810 -0.12215
 C1214 C 0.48836 0.47050 -0.17043
 C1215 C 0.50051 0.51087 -0.19428
 C1216 C 0.46725 0.50284 -0.23254
 H1217 H 0.38638 0.41730 -0.13388
 H1218 H 0.44506 0.41837 -0.07795
 H1219 H 0.53293 0.51032 -0.20755
 H1220 H 0.49228 0.53841 -0.17352
 H1221 H 0.48040 0.49600 -0.26765
 H1222 H 0.44164 0.52624 -0.23394
 C1223 C -0.03703 0.96308 0.31117
 C1224 C -0.07582 0.94443 0.31878
 C1225 C -0.08275 0.92585 0.36390
 C1226 C -0.05341 0.93024 0.40183
 C1227 C -0.01680 0.95402 0.39577
 C1228 C -0.00788 0.96748 0.34911
 C1229 C 0.02718 0.95192 0.32062
 C1230 C -0.00412 0.94686 0.27991
 H1231 H -0.11311 0.91253 0.37138
 H1232 H -0.06164 0.91860 0.43679
 H1233 H 0.04033 0.92188 0.33502
 H1234 H 0.05082 0.97658 0.31361
 H1235 H -0.00940 0.91383 0.27044
 H1236 H 0.00151 0.96839 0.24906
 C1237 C 0.04012 0.53444 0.33406
 C1238 C 0.08180 0.54404 0.34534
 C1239 C 0.08928 0.56620 0.38718
 C1240 C 0.05770 0.57079 0.42023
 C1241 C 0.01794 0.55212 0.41394
 C1242 C 0.00929 0.53731 0.36758
 C1243 C -0.01349 0.50082 0.34664
 C1244 C 0.01971 0.49923 0.30933
 H1245 H 0.12049 0.57717 0.39639
 H1246 H 0.06701 0.58454 0.45289
 H1247 H -0.04508 0.50927 0.33159
 H1248 H -0.01185 0.47213 0.36955
 H1249 H 0.00766 0.50850 0.27299
 H1250 H 0.03782 0.46978 0.31209
 C1251 C 0.52981 0.05193 -0.17726
 C1252 C 0.57326 0.04900 -0.17025
 C1253 C 0.58930 0.06252 -0.12619
 C1254 C 0.56251 0.06968 -0.08866
 C1255 C 0.51915 0.06056 -0.09258
 C1256 C 0.50334 0.05816 -0.13991
 C1257 C 0.46756 0.03796 -0.16618
 C1258 C 0.49756 0.02986 -0.20606
 H1259 H 0.62279 0.06567 -0.11989
 H1260 H 0.57711 0.07980 -0.05639
 H1261 H 0.44262 0.06079 -0.17695
 H1262 H 0.45583 0.00896 -0.14962
 H1263 H 0.48903 0.04683 -0.24003
 H1264 H 0.50488 -0.00372 -0.20840
 C1265 C 0.67311 0.60063 -0.04835
 C1266 C 0.70741 0.57454 -0.05094
 C1267 C 0.69933 0.53356 -0.06552
 C1268 C 0.65732 0.51852 -0.06950
 C1269 C 0.62274 0.54393 -0.05799
 C1270 C 0.63232 0.58656 -0.05179
 C1271 C 0.61903 0.62126 -0.02032
 C1272 C 0.66429 0.63479 -0.01599
 H1273 H 0.72517 0.51253 -0.07067
 H1274 H 0.65243 0.48601 -0.07712
 H1275 H 0.60638 0.61126 0.01429
 H1276 H 0.60056 0.64598 -0.03962
 H1277 H 0.67756 0.62891 0.02051
 H1278 H 0.67050 0.66603 -0.03234
 C1279 C 0.17418 1.08295 0.42506
 C1280 C 0.20622 1.06210 0.45106
 C1281 C 0.19634 1.02325 0.47212
 C1282 C 0.15433 1.00939 0.47275
 C1283 C 0.12082 1.03539 0.45530
 C1284 C 0.13246 1.07075 0.42803
 C1285 C 0.11925 1.11548 0.42877
 C1286 C 0.16432 1.12814 0.42367
 H1287 H 0.22047 1.00501 0.49095
 H1288 H 0.14809 0.98022 0.49143
 H1289 H 0.10789 1.12425 0.46399
 H1290 H 0.09996 1.12527 0.39688
 H1291 H 0.17745 1.14471 0.45500
 H1292 H 0.17069 1.14313 0.38845
 C1293 C 0.12424 -0.07758 1.04350
 C1294 C 0.15537 -0.06272 1.01327
 C1295 C 0.14288 -0.03422 0.97640
 C1296 C 0.10068 -0.02233 0.96919
 C1297 C 0.06919 -0.03856 0.99860
 C1298 C 0.08247 -0.06487 1.03686
 C1299 C 0.07655 -0.05958 1.08862
 C1300 C 0.12195 -0.07239 1.09618
 H1301 H 0.16532 -0.02403 0.95035
 H1302 H 0.09291 -0.00098 0.93986
 H1303 H 0.05417 -0.08274 1.10336
 H1304 H 0.07048 -0.02669 1.09761
 H1305 H 0.12577 -0.10256 1.11627
 H1306 H 0.14238 -0.04683 1.10932
 C1307 C 0.62444 0.42194 0.54115
 C1308 C 0.65493 0.43232 0.50826
 C1309 C 0.64341 0.45893 0.46917
 C1310 C 0.60215 0.47363 0.46265
 C1311 C 0.57114 0.46161 0.49478
 C1312 C 0.58379 0.43737 0.53498
 C1313 C 0.58034 0.44739 0.58606
 C1314 C 0.62462 0.43133 0.59309
 H1315 H 0.66561 0.46554 0.44154
 H1316 H 0.59433 0.49303 0.43146
 H1317 H 0.55676 0.42749 0.60409
 H1318 H 0.57740 0.48137 0.59172
 H1319 H 0.62639 0.40250 0.61595
 H1320 H 0.64755 0.45599 0.60288
 C1321 C -0.16891 0.41970 0.51169
 C1322 C -0.20183 0.43439 0.48341
 C1323 C -0.19499 0.47158 0.45646
 C1324 C -0.15542 0.49234 0.45938
 C1325 C -0.12166 0.47528 0.48781
 C1326 C -0.13048 0.43734 0.51257
 C1327 C -0.11386 0.40110 0.54392
 C1328 C -0.15753 0.38287 0.54191
 H1329 H -0.21985 0.48441 0.43337
 H1330 H -0.15115 0.52108 0.43903
 H1331 H -0.10434 0.40830 0.58092
 H1332 H -0.09223 0.37922 0.52773
 H1333 H -0.17124 0.38355 0.57737
 H1334 H -0.16015 0.35323 0.52254
 C1335 C 0.33555 -0.08114 0.00290
 C1336 C 0.30134 -0.06540 -0.02280
 C1337 C 0.30814 -0.02774 -0.04908
 C1338 C 0.34812 -0.00729 -0.04718
 C1339 C 0.38266 -0.02447 -0.01992
 C1340 C 0.37414 -0.06309 0.00368
 C1341 C 0.39066 -0.09858 0.03608
 C1342 C 0.34693 -0.11698 0.03465
 H1343 H 0.28266 -0.01387 -0.07039
 H1344 H 0.35178 0.02199 -0.06665
 H1345 H 0.40042 -0.09029 0.07269
 H1346 H 0.41233 -0.12064 0.02023
 H1347 H 0.33288 -0.11525 0.06987
 H1348 H 0.34432 -0.14723 0.01654
 C1349 C 0.34612 1.01725 0.51797
 C1350 C 0.34148 1.05783 0.53363
 C1351 C 0.37402 1.07333 0.56317
 C1352 C 0.41296 1.05258 0.56747
 C1353 C 0.42097 1.01751 0.53989
 C1354 C 0.38500 0.99762 0.52053
 C1355 C 0.37556 0.97528 0.47524
 C1356 C 0.33344 0.99748 0.47239
 H1357 H 0.37115 1.10379 0.57830
 H1358 H 0.43747 1.06673 0.58851
 H1359 H 0.37264 0.94111 0.48166
 H1360 H 0.39576 0.98436 0.44531
 H1361 H 0.30642 0.97601 0.47668
 H1362 H 0.33019 1.02031 0.44199
 C1363 C -0.14842 0.51534 1.01350
 C1364 C -0.15275 0.55653 1.02739
 C1365 C -0.12069 0.57203 1.05771
 C1366 C -0.08248 0.55029 1.06488
 C1367 C -0.07429 0.51419 1.03904
 C1368 C -0.11008 0.49476 1.01865
 C1369 C -0.11876 0.47065 0.97448
 C1370 C -0.16036 0.49380 0.96881
 H1371 H -0.12320 0.60305 1.07149
 H1372 H -0.05819 0.56454 1.08634
 H1373 H -0.12272 0.43686 0.98271
 H1374 H -0.09736 0.47780 0.94504
 H1375 H -0.18800 0.47317 0.97336
 H1376 H -0.16243 0.51533 0.93717
 C1377 C -0.01680 0.68799 0.50556
 C1378 C -0.03352 0.69693 0.54974
 C1379 C -0.05676 0.66569 0.57195
 C1380 C -0.05331 0.62463 0.55769
 C1381 C -0.02867 0.61323 0.51839
 C1382 C -0.01417 0.64696 0.49016
 C1383 C 0.02734 0.65620 0.46875
 C1384 C 0.02354 0.70065 0.48453
 H1385 H -0.07124 0.67141 0.60557
 H1386 H -0.06793 0.60176 0.58076
 H1387 H 0.02642 0.65366 0.42935
 H1388 H 0.05402 0.64086 0.48803
 H1389 H 0.01890 0.72336 0.45422
 H1390 H 0.04792 0.70942 0.51161
 C1391 C 0.44931 0.17388 0.05083
 C1392 C 0.48348 0.19836 0.03867
 C1393 C 0.51118 0.18363 0.00489
 C1394 C 0.50652 0.14352 -0.01308
 C1395 C 0.47507 0.11688 0.00388
 C1396 C 0.44515 0.13372 0.03363
 C1397 C 0.39971 0.14028 0.02115
 C1398 C 0.40446 0.18387 0.03895
 H1399 H 0.53881 0.20154 -0.00385
 H1400 H 0.52991 0.13235 -0.03643
 H1401 H 0.37924 0.12043 0.04364
 H1402 H 0.39259 0.13918 -0.01783
 H1403 H 0.38649 0.18941 0.07134
 H1404 H 0.40059 0.20837 0.01033
 C1405 C -0.00331 0.14993 0.99257
 C1406 C -0.02936 0.16869 0.95696
 C1407 C -0.06743 0.14784 0.94741
 C1408 C -0.07435 0.10684 0.96591
 C1409 C -0.04213 0.08372 0.99039
 C1410 C -0.00891 0.10877 1.00808
 C1411 C 0.03727 0.10347 1.01826
 C1412 C 0.04294 0.14851 1.00133
 H1413 H -0.08990 0.16094 0.92156
 H1414 H -0.10372 0.09286 0.95744
 H1415 H 0.05316 0.08176 0.99477
 H1416 H 0.04467 0.09846 1.05695
 H1417 H 0.06107 0.15160 0.96833
 H1418 H 0.05328 0.16928 1.03041
 C1419 C 0.50469 0.64981 0.49031
 C1420 C 0.47998 0.66857 0.45361
 C1421 C 0.44100 0.64965 0.44401
 C1422 C 0.43239 0.60913 0.46270
 C1423 C 0.46323 0.58551 0.48899
 C1424 C 0.49694 0.60957 0.50725
 C1425 C 0.54276 0.60271 0.51888
 C1426 C 0.55065 0.64697 0.50054
 H1427 H 0.41912 0.66397 0.41820
 H1428 H 0.40305 0.59579 0.45273
 H1429 H 0.55816 0.57959 0.49669
 H1430 H 0.54924 0.59855 0.55786
 H1431 H 0.56972 0.64823 0.46817
 H1432 H 0.56111 0.66821 0.52911
 C1433 C 0.50438 0.82026 0.48627
 C1434 C 0.51648 0.81473 0.43911
 C1435 C 0.53083 0.85010 0.41393
 C1436 C 0.53110 0.88945 0.43413
 C1437 C 0.51800 0.89547 0.48136
 C1438 C 0.50522 0.85958 0.50687
 C1439 C 0.46581 0.85137 0.53254
 C1440 C 0.46457 0.80888 0.50999
 H1441 H 0.54110 0.84761 0.37772
 H1442 H 0.54229 0.91503 0.41213
 H1443 H 0.43969 0.87219 0.51985
 H1444 H 0.47135 0.84966 0.57184
 H1445 H 0.43762 0.80548 0.48436
 H1446 H 0.46899 0.78266 0.53637
 C1447 C -0.00039 0.31942 0.98902
 C1448 C 0.01941 0.31148 0.94606
 C1449 C 0.04752 0.34253 0.93024
 C1450 C 0.05220 0.38051 0.95332
 C1451 C 0.02971 0.38994 0.99440
 C1452 C 0.00476 0.35727 1.01252
 C1453 C -0.03956 0.35703 1.02787
 C1454 C -0.04535 0.31657 1.00175
 H1455 H 0.06382 0.33945 0.89737
 H1456 H 0.07126 0.40378 0.93582
 H1457 H -0.05862 0.38296 1.01155
 H1458 H -0.04169 0.35305 1.06717
 H1459 H -0.06691 0.32024 0.97008
 H1460 H -0.05164 0.28938 1.02585
 C1461 C 0.49492 0.34104 0.01019
 C1462 C 0.51606 0.33661 0.05483
 C1463 C 0.54290 0.36879 0.06836
 C1464 C 0.55132 0.40178 0.03748
 C1465 C 0.52898 0.40835 -0.00684
 C1466 C 0.50047 0.37671 -0.02004
 C1467 C 0.50343 0.34892 -0.06201
 C1468 C 0.49614 0.31153 -0.02937
 H1469 H 0.55836 0.36851 0.10320
 H1470 H 0.57357 0.42399 0.05160
 H1471 H 0.53514 0.34935 -0.07735
 H1472 H 0.47743 0.35350 -0.08880
 H1473 H 0.52336 0.28992 -0.02613
 H1474 H 0.46527 0.29632 -0.03590
 C1475 C -0.00526 0.84183 0.52065
 C1476 C 0.00986 0.83671 0.56796
 C1477 C 0.02927 0.87064 0.58944
 C1478 C 0.03583 0.90754 0.56371
 C1479 C 0.02097 0.91329 0.51569
 C1480 C -0.00001 0.87957 0.49475
 C1481 C 0.01232 0.85644 0.45174
 C1482 C 0.00565 0.81610 0.47966
 H1483 H 0.03996 0.86852 0.62639
 H1484 H 0.05150 0.93213 0.58290
 H1485 H 0.04557 0.86192 0.44262
 H1486 H -0.01036 0.86026 0.42118
 H1487 H 0.03496 0.79788 0.48642
 H1488 H -0.02163 0.79785 0.46621
 C1489 C 0.24928 0.37448 0.12604
 C1490 C 0.25279 0.34833 0.08760
 C1491 C 0.22729 0.31242 0.08659
 C1492 C 0.20272 0.30116 0.12587
 C1493 C 0.20674 0.32343 0.16849
 C1494 C 0.22322 0.36393 0.16365
 C1495 C 0.20066 0.40439 0.15659
 C1496 C 0.23229 0.41709 0.12049
 H1497 H 0.22704 0.29256 0.05611
 H1498 H 0.18767 0.27093 0.12618
 H1499 H 0.20294 0.42420 0.18819
 H1500 H 0.16857 0.39978 0.14122
 H1501 H 0.25527 0.44061 0.13330
 H1502 H 0.21928 0.42324 0.08417
 C1503 C 0.72475 0.88095 0.61814
 C1504 C 0.73844 0.85449 0.58341
 C1505 C 0.72115 0.81406 0.58475
 C1506 C 0.69960 0.79922 0.62531
 C1507 C 0.70045 0.82258 0.66772
 C1508 C 0.70563 0.86624 0.65905
 C1509 C 0.72308 0.90404 0.68416
 C1510 C 0.74146 0.91973 0.63832
 H1511 H 0.72691 0.79300 0.55641
 H1512 H 0.69155 0.76646 0.62692
 H1513 H 0.74876 0.89748 0.71066
 H1514 H 0.69831 0.92521 0.69609
 H1515 H 0.77600 0.92176 0.64204
 H1516 H 0.72562 0.94786 0.62248
 C1517 C 0.27285 0.62165 0.61545
 C1518 C 0.26941 0.64560 0.57381
 C1519 C 0.28652 0.68595 0.57490
 C1520 C 0.29808 0.70375 0.61912
 C1521 C 0.29143 0.68194 0.66312
 C1522 C 0.28274 0.63870 0.65905
 C1523 C 0.25479 0.60625 0.68217
 C1524 C 0.24515 0.58853 0.63381
 H1525 H 0.28886 0.70437 0.54222
 H1526 H 0.30668 0.73637 0.61883
 H1527 H 0.22589 0.61745 0.69811
 H1528 H 0.27262 0.58388 0.70522
 H1529 H 0.21193 0.59283 0.62143
 H1530 H 0.25823 0.55687 0.62957
 C1531 C 0.79765 0.17715 0.07526
 C1532 C 0.77641 0.13908 0.07525
 C1533 C 0.77813 0.11575 0.11834
 C1534 C 0.79118 0.13442 0.16120
 C1535 C 0.80080 0.17766 0.16250
 C1536 C 0.80893 0.19649 0.11756
 C1537 C 0.80218 0.23873 0.09410
 C1538 C 0.79023 0.21689 0.04818
 H1539 H 0.76683 0.08393 0.11946
 H1540 H 0.78749 0.11602 0.19335
 H1541 H 0.83192 0.25657 0.09164
 H1542 H 0.77559 0.25668 0.10745
 H1543 H 0.81314 0.22197 0.01958
 H1544 H 0.75686 0.22095 0.03702
 C1545 C 0.70489 0.20727 0.93688
 C1546 C 0.69723 0.16542 0.92737
 C1547 C 0.67737 0.15590 0.88347
 C1548 C 0.67166 0.18666 0.84728
 C1549 C 0.68893 0.22651 0.85303
 C1550 C 0.70075 0.23769 0.89969
 C1551 C 0.67495 0.26503 0.92925
 C1552 C 0.67883 0.23258 0.96867
 H1553 H 0.67011 0.12390 0.87548
 H1554 H 0.65926 0.17750 0.81285
 H1555 H 0.64230 0.26916 0.91481
 H1556 H 0.69148 0.29453 0.93760
 H1557 H 0.64847 0.21743 0.97707
 H1558 H 0.69672 0.24379 1.00027
 C1559 C 0.21892 0.70664 0.43603
 C1560 C 0.20093 0.66799 0.42678
 C1561 C 0.17867 0.66325 0.38337
 C1562 C 0.17726 0.69551 0.34841
 C1563 C 0.20053 0.73229 0.35500
 C1564 C 0.21854 0.73840 0.40064
 C1565 C 0.20465 0.76990 0.43489
 C1566 C 0.20514 0.73579 0.47290
 H1567 H 0.16529 0.63339 0.37524
 H1568 H 0.16254 0.68923 0.31414
 H1569 H 0.17273 0.78226 0.42590
 H1570 H 0.22895 0.79411 0.44116
 H1571 H 0.17351 0.72820 0.48626
 H1572 H 0.22967 0.74029 0.50123
 C1573 C 0.76509 0.78768 0.43474
 C1574 C 0.79077 0.82305 0.43105
 C1575 C 0.82235 0.82119 0.39669
 C1576 C 0.82277 0.78928 0.36324
 C1577 C 0.79117 0.75898 0.36147
 C1578 C 0.76551 0.75651 0.40154
 C1579 C 0.72029 0.74617 0.40909
 C1580 C 0.71979 0.78082 0.44427
 H1581 H 0.84468 0.84610 0.39203
 H1582 H 0.84439 0.79167 0.33514
 H1583 H 0.71636 0.71479 0.42610
 H1584 H 0.69857 0.75308 0.37828
 H1585 H 0.71435 0.76919 0.48113
 H1586 H 0.69939 0.80693 0.43085
 C1587 C 0.24480 0.31760 0.90390
 C1588 C 0.28373 0.32043 0.92633
 C1589 C 0.31499 0.29217 0.91280
 C1590 C 0.30742 0.26555 0.87363
 C1591 C 0.27036 0.26996 0.84481
 C1592 C 0.23860 0.29459 0.86418
 C1593 C 0.20623 0.32523 0.84446
 C1594 C 0.21373 0.35023 0.88872
 H1595 H 0.34513 0.29127 0.93160
 H1596 H 0.33155 0.24396 0.86401
 H1597 H 0.17418 0.31162 0.84246
 H1598 H 0.21583 0.34239 0.81181
 H1599 H 0.18627 0.35054 0.91208
 H1600 H 0.22846 0.38106 0.88144
 C1601 C 0.76409 0.43885 0.80637
 C1602 C 0.80530 0.44780 0.79327
 C1603 C 0.82892 0.41552 0.77527
 C1604 C 0.81269 0.37524 0.77277
 C1605 C 0.77198 0.36507 0.78837
 C1606 C 0.74786 0.39823 0.80422
 C1607 C 0.72644 0.40213 0.85030
 C1608 C 0.74390 0.44611 0.85259
 H1609 H 0.86019 0.42147 0.76279
 H1610 H 0.83212 0.35261 0.75653
 H1611 H 0.73958 0.38064 0.87874
 H1612 H 0.69175 0.40126 0.84548
 H1613 H 0.76711 0.45027 0.88247
 H1614 H 0.71923 0.47050 0.84900
 C1615 C 0.34063 0.91957 0.28786
 C1616 C 0.31439 0.95360 0.29150
 C1617 C 0.27202 0.94533 0.30094
 C1618 C 0.25640 0.90382 0.30013
 C1619 C 0.28273 0.86999 0.28906
 C1620 C 0.32605 0.87913 0.28727
 C1621 C 0.36118 0.86766 0.25526
 C1622 C 0.37500 0.91245 0.25495
 H1623 H 0.25074 0.97082 0.30657
 H1624 H 0.22322 0.89875 0.30469
 H1625 H 0.35129 0.85731 0.21952
 H1626 H 0.38605 0.84827 0.27307
 H1627 H 0.36891 0.92727 0.21940
 H1628 H 0.40655 0.91750 0.27173
 C1629 C 0.17085 0.87235 0.66520
 C1630 C 0.18565 0.90512 0.69203
 C1631 C 0.22670 0.90031 0.71163
 C1632 C 0.24505 0.85992 0.71601
 C1633 C 0.22042 0.82401 0.70619
 C1634 C 0.18641 0.83239 0.67401
 C1635 C 0.14424 0.81460 0.66380
 C1636 C 0.12804 0.85815 0.65259
 H1637 H 0.24192 0.92592 0.72950
 H1638 H 0.27515 0.85683 0.73464
 H1639 H 0.12934 0.80297 0.69615
 H1640 H 0.14387 0.79458 0.63221
 H1641 H 0.10398 0.86852 0.67737
 H1642 H 0.12021 0.86387 0.61410
 C1643 C 0.67202 0.36477 0.18406
 C1644 C 0.68957 0.39910 0.20691
 C1645 C 0.72940 0.39435 0.22928
 C1646 C 0.74943 0.35519 0.23181
 C1647 C 0.72910 0.31946 0.21373
 C1648 C 0.69201 0.32591 0.18679
 C1649 C 0.68561 0.31921 0.13482
 C1650 C 0.66451 0.36125 0.13146
 H1651 H 0.74327 0.41990 0.24858
 H1652 H 0.77859 0.35231 0.25236
 H1653 H 0.66381 0.29296 0.12763
 H1654 H 0.71556 0.31816 0.11570
 H1655 H 0.63065 0.35950 0.12174
 H1656 H 0.68223 0.38476 0.11034
 C1657 C 0.67296 0.57618 0.23900
 C1658 C 0.69152 0.54127 0.25999
 C1659 C 0.72771 0.54826 0.28933
 C1660 C 0.74457 0.58937 0.29395
 C1661 C 0.72433 0.62441 0.27121
 C1662 C 0.68638 0.61551 0.24643
 C1663 C 0.64957 0.63279 0.21670
 C1664 C 0.63660 0.58833 0.20792
 H1665 H 0.74316 0.52224 0.30788
 H1666 H 0.77343 0.59352 0.31456
 H1667 H 0.65724 0.64983 0.18335
 H1668 H 0.62480 0.64778 0.23684
 H1669 H 0.64153 0.58107 0.17033
 H1670 H 0.60608 0.57936 0.22324
 C1671 C 0.22815 0.05354 0.77818
 C1672 C 0.19120 0.04366 0.75267
 C1673 C 0.16258 0.07572 0.74199
 C1674 C 0.17355 0.11664 0.74819
 C1675 C 0.21316 0.12782 0.76773
 C1676 C 0.23939 0.09512 0.78476
 C1677 C 0.28444 0.08655 0.77607
 C1678 C 0.27215 0.04140 0.76880
 H1679 H 0.13153 0.06980 0.72758
 H1680 H 0.15189 0.13900 0.73217
 H1681 H 0.30466 0.09091 0.80850
 H1682 H 0.29572 0.10230 0.74312
 H1683 H 0.28538 0.01977 0.79701
 H1684 H 0.27599 0.03123 0.73166
 C1685 C 0.33330 0.13085 0.20200
 C1686 C 0.31114 0.09830 0.22437
 C1687 C 0.27172 0.10728 0.24214
 C1688 C 0.25694 0.14836 0.24196
 C1689 C 0.28163 0.18174 0.22454
 C1690 C 0.31886 0.17205 0.20251
 C1691 C 0.32793 0.18029 0.15153
 C1692 C 0.34181 0.13567 0.14989
 H1693 H 0.25459 0.08333 0.26129
 H1694 H 0.22778 0.15412 0.25927
 H1695 H 0.35421 0.20248 0.14708
 H1696 H 0.29935 0.18746 0.12909
 H1697 H 0.37566 0.13226 0.14266
 H1698 H 0.32029 0.11724 0.12687
 C1699 C 0.82202 0.62536 0.70624
 C1700 C 0.80286 0.59609 0.73651
 C1701 C 0.76493 0.60795 0.75591
 C1702 C 0.75155 0.64978 0.75251
 C1703 C 0.77667 0.68165 0.73141
 C1704 C 0.80987 0.66717 0.70425
 C1705 C 0.85446 0.68054 0.69835
 C1706 C 0.86698 0.63508 0.69897
 H1707 H 0.74822 0.58619 0.77858
 H1708 H 0.72349 0.65724 0.77107
 H1709 H 0.86794 0.69633 0.72980
 H1710 H 0.85999 0.69590 0.66336
 H1711 H 0.88821 0.62618 0.72962
 H1712 H 0.87744 0.62464 0.66386
 C1713 C 0.90563 0.77696 0.20760
 C1714 C 0.92537 0.74272 0.18835
 C1715 C 0.91392 0.70301 0.20594
 C1716 C 0.88156 0.69817 0.23909
 C1717 C 0.85879 0.73277 0.25556
 C1718 C 0.87420 0.77227 0.24152
 C1719 C 0.89743 0.80326 0.27205
 C1720 C 0.92825 0.81018 0.23336
 H1721 H 0.92865 0.67553 0.19257
 H1722 H 0.87186 0.66675 0.24842
 H1723 H 0.91209 0.78850 0.30485
 H1724 H 0.87908 0.83175 0.27855
 H1725 H 0.96090 0.80154 0.24447
 H1726 H 0.92477 0.84099 0.21455
 C1727 C 0.37597 0.27041 0.66222
 C1728 C 0.41308 0.25046 0.67685
 C1729 C 0.41078 0.22596 0.71983
 C1730 C 0.37201 0.22147 0.74446
 C1731 C 0.33444 0.24113 0.72668
 C1732 C 0.33920 0.26513 0.68433
 C1733 C 0.31479 0.28534 0.64313
 C1734 C 0.35622 0.29110 0.61876
 H1735 H 0.43838 0.20985 0.73407
 H1736 H 0.37123 0.20166 0.77627
 H1737 H 0.30012 0.31529 0.65218
 H1738 H 0.29409 0.26361 0.62320
 H1739 H 0.36424 0.32463 0.61434
 H1740 H 0.35890 0.27218 0.58645
 C1741 C 0.40242 0.71722 0.83500
 C1742 C 0.43090 0.74318 0.81248
 C1743 C 0.42052 0.75785 0.76569
 C1744 C 0.38003 0.75076 0.74528
 C1745 C 0.34884 0.73083 0.77244
 C1746 C 0.36216 0.71427 0.81744
 C1747 C 0.34475 0.70728 0.86587
 C1748 C 0.38967 0.71033 0.88541
 H1749 H 0.44215 0.77779 0.74676
 H1750 H 0.37224 0.76405 0.71024
 H1751 H 0.33092 0.67577 0.87086
 H1752 H 0.32512 0.73360 0.87713
 H1753 H 0.40184 0.68033 0.90096
 H1754 H 0.39491 0.73757 0.90829
 C1755 C 0.91036 0.22320 0.33600
 C1756 C 0.94035 0.24320 0.30874
 C1757 C 0.93010 0.24946 0.25957
 C1758 C 0.88937 0.23962 0.24083
 C1759 C 0.85755 0.22525 0.27136
 C1760 C 0.87040 0.21774 0.31921
 C1761 C 0.85370 0.21264 0.36819
 C1762 C 0.89863 0.21900 0.38696
 H1763 H 0.95217 0.26497 0.23651
 H1764 H 0.88194 0.24662 0.20355
 H1765 H 0.84139 0.18081 0.37553
 H1766 H 0.83283 0.23870 0.37740
 H1767 H 0.91240 0.19061 0.40480
 H1768 H 0.90245 0.24800 0.40720
 C1769 C 0.09148 0.26176 0.28454
 C1770 C 0.08471 0.28273 0.32668
 C1771 C 0.11972 0.29928 0.35100
 C1772 C 0.15920 0.29851 0.33108
 C1773 C 0.16511 0.28126 0.28591
 C1774 C 0.13081 0.26111 0.26449
 C1775 C 0.11247 0.26635 0.21511
 C1776 C 0.06954 0.26685 0.23703
 H1777 H 0.11674 0.31322 0.38537
 H1778 H 0.18478 0.31269 0.35096
 H1779 H 0.11777 0.23852 0.19348
 H1780 H 0.12107 0.29657 0.19774
 H1781 H 0.05013 0.23923 0.22819
 H1782 H 0.05319 0.29733 0.23234
 C1783 C 0.58367 0.76246 0.78573
 C1784 C 0.57722 0.78256 0.82848
 C1785 C 0.61245 0.79670 0.85431
 C1786 C 0.65200 0.79526 0.83504
 C1787 C 0.65777 0.77971 0.78899
 C1788 C 0.62315 0.76124 0.76620
 C1789 C 0.60551 0.76778 0.71668
 C1790 C 0.56236 0.76912 0.73808
 H1791 H 0.60960 0.80933 0.88939
 H1792 H 0.67763 0.80801 0.85611
 H1793 H 0.61023 0.74016 0.69453
 H1794 H 0.61506 0.79797 0.69999
 H1795 H 0.54222 0.74226 0.72826
 H1796 H 0.54697 0.80012 0.73400
 C1797 C 0.57130 0.24134 0.72935
 C1798 C 0.56766 0.24939 0.67980
 C1799 C 0.60481 0.25741 0.65596
 C1800 C 0.64216 0.26448 0.68092
 C1801 C 0.64622 0.25849 0.73122
 C1802 C 0.61000 0.24497 0.75451
 C1803 C 0.58937 0.26317 0.79610
 C1804 C 0.54762 0.25918 0.76879
 H1805 H 0.60445 0.26205 0.61754
 H1806 H 0.66796 0.27446 0.65934
 H1807 H 0.59891 0.29598 0.80192
 H1808 H 0.59191 0.24231 0.82835
 H1809 H 0.53296 0.28969 0.75863
 H1810 H 0.52626 0.23596 0.78529
 C1811 C 0.07900 0.74096 0.22763
 C1812 C 0.07409 0.75503 0.17965
 C1813 C 0.10969 0.77282 0.15916
 C1814 C 0.14569 0.78149 0.18619
 C1815 C 0.15123 0.76838 0.23486
 C1816 C 0.11698 0.74663 0.25446
 C1817 C 0.09314 0.75673 0.29766
 C1818 C 0.05270 0.75026 0.26875
 H1819 H 0.10939 0.78227 0.12180
 H1820 H 0.16995 0.79769 0.16705
 H1821 H 0.09791 0.78946 0.30852
 H1822 H 0.09777 0.73306 0.32697
 H1823 H 0.03406 0.77926 0.26285
 H1824 H 0.03463 0.72258 0.28099
   
