data_POSCAR
  _audit_creation_date              2014-09-24
  _audit_creation_method            'ToBaCCo'
  _symmetry_space_group_name_H-M    'P1'
  _symmetry_Int_Tables_number       1
  _symmetry_cell_setting            triclinic
  loop_
  _symmetry_equiv_pos_as_xyz
 x,y,z
_cell_length_a 67.9208
_cell_length_b 67.9862
_cell_length_c 68.1516
_cell_angle_alpha 89.998400
_cell_angle_beta 90.157400
_cell_angle_gamma 89.948500
loop_
  _atom_site_label
  _atom_site_type_symbol
  _atom_site_fract_x
  _atom_site_fract_y
  _atom_site_fract_z
N1 N 0.17425 0.22357 0.22343
 N2 N 0.17853 0.20789 0.23393
 C3 C 0.16517 0.20603 0.24839
 C4 C 0.15196 0.22134 0.24676
 C5 C 0.15804 0.23221 0.23083
 H6 H 0.16486 0.19432 0.25913
 H7 H 0.15105 0.24523 0.22493
 Cu8 Cu 0.20085 0.19124 0.22730
 Cu9 Cu 0.18965 0.23131 0.20063
 Cu10 Cu 0.22983 0.20206 0.18893
 N11 N 0.22354 0.17506 0.22076
 N12 N 0.23485 0.17942 0.20573
 C13 C 0.24918 0.16581 0.20421
 C14 C 0.24665 0.15232 0.21907
 C15 C 0.23032 0.15850 0.22932
 H16 H 0.26044 0.16560 0.19302
 H17 H 0.22379 0.15134 0.24188
 N18 N 0.22235 0.22558 0.17371
 N19 N 0.20703 0.23671 0.17815
 C20 C 0.20552 0.25128 0.16482
 C21 C 0.22057 0.24913 0.15150
 C22 C 0.23097 0.23278 0.15745
 H23 H 0.19419 0.26246 0.16462
 H24 H 0.24369 0.22649 0.15028
 H25 H 0.19981 0.20351 0.19368
 H26 H 0.21577 0.21880 0.20998
 N27 N 0.67370 0.72388 0.72419
 N28 N 0.67815 0.70830 0.73477
 C29 C 0.66484 0.70639 0.74927
 C30 C 0.65149 0.72157 0.74759
 C31 C 0.65743 0.73241 0.73158
 H32 H 0.66465 0.69473 0.76007
 H33 H 0.65030 0.74533 0.72562
 Cu34 Cu 0.70057 0.69181 0.72810
 Cu35 Cu 0.68894 0.73160 0.70127
 Cu36 Cu 0.72915 0.70244 0.68941
 N37 N 0.72323 0.67562 0.72148
 N38 N 0.73437 0.67989 0.70629
 C39 C 0.74871 0.66630 0.70473
 C40 C 0.74637 0.65291 0.71972
 C41 C 0.73013 0.65914 0.73009
 H42 H 0.75986 0.66603 0.69343
 H43 H 0.72375 0.65207 0.74278
 N44 N 0.72147 0.72587 0.67415
 N45 N 0.70616 0.73698 0.67866
 C46 C 0.70452 0.75151 0.66530
 C47 C 0.71949 0.74936 0.65188
 C48 C 0.72997 0.73305 0.65780
 H49 H 0.69317 0.76266 0.66514
 H50 H 0.74264 0.72678 0.65055
 H51 H 0.69917 0.70381 0.69440
 H52 H 0.71521 0.71929 0.71043
 N53 N 0.32411 0.77643 0.72516
 N54 N 0.31983 0.79206 0.73571
 C55 C 0.33324 0.79390 0.75022
 C56 C 0.34647 0.77861 0.74856
 C57 C 0.34036 0.76780 0.73257
 H58 H 0.33354 0.80555 0.76101
 H59 H 0.34736 0.75480 0.72664
 Cu60 Cu 0.29743 0.80866 0.72908
 Cu61 Cu 0.30867 0.76873 0.70229
 Cu62 Cu 0.26844 0.79798 0.69051
 N63 N 0.27470 0.82484 0.72251
 N64 N 0.26341 0.82055 0.70738
 C65 C 0.24907 0.83416 0.70582
 C66 C 0.25159 0.84756 0.72078
 C67 C 0.26792 0.84135 0.73112
 H68 H 0.23784 0.83442 0.69454
 H69 H 0.27446 0.84847 0.74374
 N70 N 0.27595 0.77452 0.67524
 N71 N 0.29126 0.76338 0.67973
 C72 C 0.29275 0.74883 0.66639
 C73 C 0.27768 0.75100 0.65301
 C74 C 0.26730 0.76735 0.65892
 H75 H 0.30407 0.73763 0.66623
 H76 H 0.25458 0.77364 0.65170
 H77 H 0.29845 0.79654 0.69541
 H78 H 0.28252 0.78116 0.71156
 N79 N 0.82536 0.27586 0.22467
 N80 N 0.82094 0.29136 0.23536
 C81 C 0.83432 0.29320 0.24989
 C82 C 0.84766 0.27802 0.24809
 C83 C 0.84168 0.26729 0.23200
 H84 H 0.83452 0.30477 0.26078
 H85 H 0.84877 0.25440 0.22596
 Cu86 Cu 0.79843 0.30783 0.22879
 Cu87 Cu 0.80998 0.26822 0.20173
 Cu88 Cu 0.76961 0.29734 0.19007
 N89 N 0.77569 0.32401 0.22227
 N90 N 0.76446 0.31979 0.20708
 C91 C 0.75012 0.33341 0.20555
 C92 C 0.75257 0.34675 0.22057
 C93 C 0.76886 0.34048 0.23093
 H94 H 0.73894 0.33374 0.19422
 H95 H 0.77534 0.34754 0.24360
 N96 N 0.77724 0.27400 0.17468
 N97 N 0.79262 0.26292 0.17911
 C98 C 0.79417 0.24843 0.16571
 C99 C 0.77908 0.25057 0.15236
 C100 C 0.76861 0.26684 0.15835
 H101 H 0.80553 0.23728 0.16550
 H102 H 0.75583 0.27309 0.15119
 H103 H 0.79962 0.29602 0.19503
 H104 H 0.78374 0.28041 0.21099
 N105 N 0.82673 0.72322 0.27615
 N106 N 0.82233 0.70763 0.26557
 C107 C 0.83565 0.70574 0.25107
 C108 C 0.84896 0.72094 0.25275
 C109 C 0.84298 0.73177 0.26876
 H110 H 0.83586 0.69410 0.24026
 H111 H 0.85006 0.74471 0.27471
 Cu112 Cu 0.79992 0.69113 0.27217
 Cu113 Cu 0.81144 0.73096 0.29903
 Cu114 Cu 0.77116 0.70191 0.31072
 N115 N 0.77717 0.67507 0.27870
 N116 N 0.76596 0.67940 0.29381
 C117 C 0.75153 0.66592 0.29528
 C118 C 0.75389 0.65254 0.28029
 C119 C 0.77023 0.65865 0.27002
 H120 H 0.74029 0.66574 0.30650
 H121 H 0.77663 0.65155 0.25735
 N122 N 0.77881 0.72529 0.32604
 N123 N 0.79415 0.73635 0.32160
 C124 C 0.79573 0.75089 0.33496
 C125 C 0.78068 0.74878 0.34829
 C126 C 0.77023 0.73249 0.34233
 H127 H 0.80706 0.76204 0.33515
 H128 H 0.75748 0.72627 0.34948
 H129 H 0.80117 0.70320 0.30585
 H130 H 0.78523 0.71869 0.28971
 N131 N 0.32596 0.22387 -0.22458
 N132 N 0.32119 0.20876 -0.23568
 C133 C 0.33461 0.20688 -0.25010
 C134 C 0.34834 0.22162 -0.24780
 C135 C 0.34255 0.23215 -0.23154
 H136 H 0.33457 0.19554 -0.26123
 H137 H 0.34995 0.24469 -0.22513
 Cu138 Cu 0.29824 0.19266 -0.22997
 Cu139 Cu 0.31067 0.23137 -0.20168
 Cu140 Cu 0.27037 0.20235 -0.19031
 N141 N 0.27593 0.17619 -0.22291
 N142 N 0.26510 0.18005 -0.20741
 C143 C 0.25098 0.16626 -0.20575
 C144 C 0.25317 0.15316 -0.22101
 C145 C 0.26908 0.15977 -0.23164
 H146 H 0.24010 0.16566 -0.19421
 H147 H 0.27528 0.15298 -0.24457
 N148 N 0.27805 0.22555 -0.17477
 N149 N 0.29341 0.23661 -0.17911
 C150 C 0.29499 0.25106 -0.16565
 C151 C 0.27993 0.24888 -0.15235
 C152 C 0.26945 0.23265 -0.15844
 H153 H 0.30634 0.26220 -0.16538
 H154 H 0.25667 0.22642 -0.15136
 H155 H 0.30031 0.20336 -0.19588
 H156 H 0.28418 0.21969 -0.21103
 N157 N 0.67466 0.27591 -0.22492
 N158 N 0.67894 0.29151 -0.23552
 C159 C 0.66549 0.29338 -0.24999
 C160 C 0.65225 0.27814 -0.24824
 C161 C 0.65837 0.26732 -0.23225
 H162 H 0.66517 0.30504 -0.26079
 H163 H 0.65137 0.25436 -0.22626
 Cu164 Cu 0.70137 0.30806 -0.22897
 Cu165 Cu 0.69013 0.26823 -0.20206
 Cu166 Cu 0.73042 0.29736 -0.19043
 N167 N 0.72415 0.32416 -0.22249
 N168 N 0.73547 0.31987 -0.20738
 C169 C 0.74984 0.33342 -0.20591
 C170 C 0.74733 0.34681 -0.22089
 C171 C 0.73095 0.34062 -0.23115
 H172 H 0.76111 0.33368 -0.19467
 H173 H 0.72441 0.34774 -0.24377
 N174 N 0.72291 0.27399 -0.17508
 N175 N 0.70756 0.26289 -0.17951
 C176 C 0.70602 0.24843 -0.16608
 C177 C 0.72108 0.25061 -0.15269
 C178 C 0.73151 0.26688 -0.15871
 H179 H 0.69464 0.23732 -0.16583
 H180 H 0.74422 0.27319 -0.15149
 H181 H 0.70039 0.29603 -0.19527
 H182 H 0.71627 0.28055 -0.21141
 N183 N 0.17602 0.77657 0.27549
 N184 N 0.18032 0.79223 0.26499
 C185 C 0.16697 0.79408 0.25043
 C186 C 0.15377 0.77878 0.25200
 C187 C 0.15983 0.76795 0.26799
 H188 H 0.16668 0.80576 0.23966
 H189 H 0.15283 0.75494 0.27387
 Cu190 Cu 0.20263 0.80885 0.27177
 Cu191 Cu 0.19135 0.76887 0.29844
 Cu192 Cu 0.23147 0.79807 0.31046
 N193 N 0.22533 0.82498 0.27846
 N194 N 0.23657 0.82065 0.29363
 C195 C 0.25095 0.83420 0.29521
 C196 C 0.24849 0.84760 0.28024
 C197 C 0.23218 0.84146 0.26986
 H198 H 0.26217 0.83441 0.30651
 H199 H 0.22571 0.84857 0.25719
 N200 N 0.22391 0.77462 0.32568
 N201 N 0.20863 0.76349 0.32110
 C202 C 0.20704 0.74897 0.33446
 C203 C 0.22200 0.75114 0.34796
 C204 C 0.23243 0.76746 0.34208
 H205 H 0.19570 0.73782 0.33459
 H206 H 0.24508 0.77377 0.34940
 H207 H 0.20148 0.79667 0.30541
 H208 H 0.21751 0.78131 0.28930
 N209 N 0.47342 0.42443 0.47494
 N210 N 0.45773 0.42886 0.48534
 C211 C 0.45568 0.41552 0.49982
 C212 C 0.47088 0.40217 0.49831
 C213 C 0.48188 0.40815 0.48243
 H214 H 0.44392 0.41532 0.51048
 H215 H 0.49486 0.40103 0.47663
 Cu216 Cu 0.44131 0.45130 0.47850
 Cu217 Cu 0.48137 0.43972 0.45211
 Cu218 Cu 0.45233 0.47998 0.43996
 N219 N 0.42521 0.47400 0.47172
 N220 N 0.42963 0.48517 0.45659
 C221 C 0.41609 0.49954 0.45489
 C222 C 0.40257 0.49719 0.46974
 C223 C 0.40867 0.48091 0.48016
 H224 H 0.41595 0.51072 0.44360
 H225 H 0.40148 0.47453 0.49278
 N226 N 0.47590 0.47232 0.42495
 N227 N 0.48697 0.45701 0.42957
 C228 C 0.50162 0.45541 0.41637
 C229 C 0.49959 0.47042 0.40294
 C230 C 0.48322 0.48086 0.40869
 H231 H 0.51279 0.44407 0.41633
 H232 H 0.47701 0.49357 0.40139
 H233 H 0.46900 0.46595 0.46116
 H234 H 0.45363 0.45001 0.44494
 N235 N -0.02557 -0.07487 0.97474
 N236 N -0.04076 -0.07002 0.98567
 C237 C -0.04274 -0.08336 1.00015
 C238 C -0.02799 -0.09713 0.99811
 C239 C -0.01735 -0.09142 0.98191
 H240 H -0.05417 -0.08328 1.01116
 H241 H -0.00479 -0.09890 0.97565
 Cu242 Cu -0.05691 -0.04714 0.97962
 Cu243 Cu -0.01799 -0.05976 0.95173
 Cu244 Cu -0.04713 -0.01969 0.93965
 N245 N -0.07342 -0.02495 0.97215
 N246 N -0.06955 -0.01430 0.95652
 C247 C -0.08341 -0.00025 0.95457
 C248 C -0.09656 -0.00230 0.96978
 C249 C -0.08992 -0.01805 0.98067
 H250 H -0.08401 0.01049 0.94287
 H251 H -0.09674 -0.02412 0.99365
 N252 N -0.02380 -0.02744 0.92438
 N253 N -0.01266 -0.04270 0.92900
 C254 C 0.00189 -0.04435 0.91569
 C255 C -0.00029 -0.02943 0.90219
 C256 C -0.01663 -0.01898 0.90801
 H257 H 0.01311 -0.05564 0.91565
 H258 H -0.02290 -0.00630 0.90073
 H259 H -0.02985 -0.03323 0.96066
 H260 H -0.04608 -0.04954 0.94561
 N261 N 1.02663 0.57598 0.97359
 N262 N 1.04218 0.57147 0.98425
 C263 C 1.04411 0.58478 0.99879
 C264 C 1.02897 0.59818 0.99705
 C265 C 1.01814 0.59228 0.98097
 H266 H 1.05572 0.58489 1.00968
 H267 H 1.00522 0.59942 0.97499
 Cu268 Cu 1.05854 0.54894 0.97764
 Cu269 Cu 1.01878 0.56071 0.95069
 Cu270 Cu 1.04771 0.52029 0.93896
 N271 N 1.07462 0.52619 0.97107
 N272 N 1.07027 0.51504 0.95589
 C273 C 1.08382 0.50066 0.95431
 C274 C 1.09727 0.50300 0.96930
 C275 C 1.09112 0.51927 0.97968
 H276 H 1.08404 0.48952 0.94299
 H277 H 1.09829 0.52567 0.99234
 N278 N 1.02428 0.52803 0.92365
 N279 N 1.01327 0.54343 0.92810
 C280 C 0.99871 0.54508 0.91472
 C281 C 1.00074 0.53003 0.90137
 C282 C 1.01700 0.51949 0.90733
 H283 H 0.98761 0.55649 0.91452
 H284 H 1.02318 0.50673 0.90014
 H285 H 1.03093 0.53442 0.95991
 H286 H 1.04654 0.55027 0.94390
 N287 N 0.52543 0.07507 0.47528
 N288 N 0.54053 0.07022 0.48640
 C289 C 0.54237 0.08355 0.50093
 C290 C 0.52763 0.09731 0.49870
 C291 C 0.51713 0.09160 0.48235
 H292 H 0.55368 0.08343 0.51213
 H293 H 0.50457 0.09904 0.47596
 Cu294 Cu 0.55667 0.04729 0.48059
 Cu295 Cu 0.51794 0.05991 0.45223
 Cu296 Cu 0.54697 0.01965 0.44069
 N297 N 0.57317 0.02504 0.47338
 N298 N 0.56929 0.01428 0.45780
 C299 C 0.58316 0.00023 0.45601
 C300 C 0.59632 0.00238 0.47127
 C301 C 0.58968 0.01821 0.48202
 H302 H 0.58378 -0.01055 0.44436
 H303 H 0.59654 0.02439 0.49496
 N304 N 0.52376 0.02740 0.42513
 N305 N 0.51270 0.04278 0.42951
 C306 C 0.49831 0.04449 0.41596
 C307 C 0.50050 0.02949 0.40256
 C308 C 0.51669 0.01893 0.40869
 H309 H 0.48720 0.05589 0.41568
 H310 H 0.52296 0.00619 0.40153
 H311 H 0.52962 0.03338 0.46145
 H312 H 0.54599 0.04951 0.44646
 N313 N -0.02610 0.07526 0.52512
 N314 N -0.04113 0.07035 0.51393
 C315 C -0.04299 0.08366 0.49939
 C316 C -0.02833 0.09748 0.50167
 C317 C -0.01787 0.09182 0.51807
 H318 H -0.05425 0.08349 0.48814
 H319 H -0.00538 0.09931 0.52451
 Cu320 Cu -0.05717 0.04736 0.51970
 Cu321 Cu -0.01863 0.06015 0.54819
 Cu322 Cu -0.04753 0.01984 0.55973
 N323 N -0.07359 0.02507 0.52689
 N324 N -0.06976 0.01438 0.54253
 C325 C -0.08353 0.00025 0.54425
 C326 C -0.09658 0.00227 0.52887
 C327 C -0.08997 0.01810 0.51812
 H328 H -0.08415 -0.01053 0.55590
 H329 H -0.09673 0.02417 0.50508
 N330 N -0.02441 0.02770 0.57535
 N331 N -0.01339 0.04307 0.57095
 C332 C 0.00101 0.04479 0.58449
 C333 C -0.00115 0.02982 0.59791
 C334 C -0.01732 0.01924 0.59181
 H335 H 0.01211 0.05618 0.58473
 H336 H -0.02353 0.00649 0.59895
 H337 H -0.03016 0.03355 0.53900
 H338 H -0.04666 0.04969 0.55387
 N339 N 0.47317 0.57612 0.02679
 N340 N 0.45761 0.57171 0.01613
 C341 C 0.45574 0.58503 0.00159
 C342 C 0.47093 0.59835 0.00336
 C343 C 0.48172 0.59237 0.01943
 H344 H 0.44414 0.58521 -0.00930
 H345 H 0.49467 0.59945 0.02543
 Cu346 Cu 0.44116 0.54924 0.02264
 Cu347 Cu 0.48091 0.56082 0.04971
 Cu348 Cu 0.45193 0.52048 0.06132
 N349 N 0.42518 0.52643 0.02909
 N350 N 0.42948 0.51524 0.04427
 C351 C 0.41603 0.50076 0.04566
 C352 C 0.40271 0.50308 0.03055
 C353 C 0.40882 0.51943 0.02030
 H354 H 0.41583 0.48953 0.05690
 H355 H 0.40175 0.52581 0.00756
 N356 N 0.47526 0.52820 0.07675
 N357 N 0.48632 0.54354 0.07232
 C358 C 0.50083 0.54516 0.08574
 C359 C 0.49873 0.53014 0.09912
 C360 C 0.48246 0.51965 0.09312
 H361 H 0.51196 0.55652 0.08596
 H362 H 0.47624 0.50692 0.10029
 H363 H 0.46872 0.53459 0.04037
 H364 H 0.45312 0.55046 0.05640
 N365 N 0.52637 -0.07483 0.02553
 N366 N 0.54156 -0.07003 0.01459
 C367 C 0.54349 -0.08338 0.00010
 C368 C 0.52872 -0.09710 0.00216
 C369 C 0.51812 -0.09135 0.01837
 H370 H 0.55490 -0.08332 -0.01093
 H371 H 0.50553 -0.09877 0.02463
 Cu372 Cu 0.55773 -0.04720 0.02063
 Cu373 Cu 0.51882 -0.05970 0.04854
 Cu374 Cu 0.54796 -0.01964 0.06053
 N375 N 0.57425 -0.02503 0.02804
 N376 N 0.57037 -0.01432 0.04364
 C377 C 0.58421 -0.00027 0.04553
 C378 C 0.59736 -0.00237 0.03032
 C379 C 0.59074 -0.01816 0.01949
 H380 H 0.58480 0.01051 0.05718
 H381 H 0.59755 -0.02427 0.00652
 N382 N 0.52466 -0.02734 0.07583
 N383 N 0.51353 -0.04261 0.07126
 C384 C 0.49900 -0.04422 0.08459
 C385 C 0.50118 -0.02927 0.09805
 C386 C 0.51750 -0.01884 0.09219
 H387 H 0.48779 -0.05549 0.08466
 H388 H 0.52376 -0.00614 0.09943
 H389 H 0.53065 -0.03320 0.03954
 H390 H 0.54688 -0.04949 0.05463
 N391 N 1.02682 0.42399 0.52551
 N392 N 1.04250 0.42840 0.51512
 C393 C 1.04451 0.41511 0.50058
 C394 C 1.02928 0.40182 0.50205
 C395 C 1.01832 0.40778 0.51796
 H396 H 1.05624 0.41492 0.48989
 H397 H 1.00531 0.40070 0.52375
 Cu398 Cu 1.05897 0.45078 0.52199
 Cu399 Cu 1.01889 0.43926 0.54837
 Cu400 Cu 1.04792 0.47945 0.56055
 N401 N 1.07504 0.47346 0.52879
 N402 N 1.07061 0.48463 0.54391
 C403 C 1.08413 0.49901 0.54560
 C404 C 1.09765 0.49664 0.53075
 C405 C 1.09156 0.48037 0.52033
 H406 H 1.08426 0.51019 0.55688
 H407 H 1.09876 0.47398 0.50771
 N408 N 1.02438 0.47182 0.57557
 N409 N 1.01332 0.45651 0.57095
 C410 C 0.99867 0.45493 0.58416
 C411 C 1.00069 0.46992 0.59759
 C412 C 1.01705 0.48036 0.59184
 H413 H 0.98750 0.44360 0.58419
 H414 H 1.02325 0.49306 0.59913
 H415 H 1.03127 0.46547 0.53932
 H416 H 1.04664 0.44949 0.55554
 C417 C 0.35271 -0.01765 0.25346
 C418 C 0.36289 -0.00014 0.24982
 C419 C 0.35246 0.01725 0.24616
 C420 C 0.33177 0.01730 0.24610
 C421 C 0.32169 -0.00038 0.24979
 C422 C 0.33203 -0.01793 0.25349
 C423 C 0.38453 -0.00000 0.24982
 C424 C 0.39481 -0.00304 0.23230
 C425 C 0.41549 -0.00278 0.23211
 C426 C 0.42572 0.00056 0.24976
 C427 C 0.41555 0.00370 0.26743
 C428 C 0.39486 0.00335 0.26731
 H429 H 0.36094 -0.03097 0.25650
 H430 H 0.36050 0.03067 0.24312
 H431 H 0.38664 -0.00534 0.21882
 H432 H 0.38674 0.00599 0.28072
 H433 H 0.30575 -0.00046 0.24978
 H434 H 0.44166 0.00022 0.24984
 C435 C 0.14760 -0.01728 0.74660
 C436 C 0.13734 0.00027 0.74990
 C437 C 0.14770 0.01782 0.75289
 C438 C 0.16838 0.01798 0.75259
 C439 C 0.17853 0.00026 0.74924
 C440 C 0.16828 -0.01744 0.74620
 C441 C 0.11571 0.00033 0.75003
 C442 C 0.10554 -0.00294 0.76757
 C443 C 0.08486 -0.00268 0.76788
 C444 C 0.07452 0.00080 0.75032
 C445 C 0.08458 0.00412 0.73262
 C446 C 0.10526 0.00386 0.73264
 H447 H 0.13942 -0.03072 0.74404
 H448 H 0.13959 0.03136 0.75518
 H449 H 0.11378 -0.00538 0.78099
 H450 H 0.11330 0.00666 0.71922
 H451 H 0.19448 0.00016 0.74951
 H452 H 0.05857 0.00043 0.75034
 C453 C 0.64777 0.48256 0.24737
 C454 C 0.63749 0.50008 0.25080
 C455 C 0.64781 0.51763 0.25387
 C456 C 0.66849 0.51783 0.25353
 C457 C 0.67867 0.50015 0.25009
 C458 C 0.66846 0.48244 0.24697
 C459 C 0.61585 0.50010 0.25092
 C460 C 0.60567 0.49690 0.26847
 C461 C 0.58499 0.49719 0.26878
 C462 C 0.57466 0.50068 0.25121
 C463 C 0.58474 0.50392 0.23351
 C464 C 0.60541 0.50359 0.23352
 H465 H 0.63961 0.46912 0.24473
 H466 H 0.63968 0.53114 0.25623
 H467 H 0.61391 0.49449 0.28190
 H468 H 0.61346 0.50632 0.22009
 H469 H 0.69462 0.50008 0.25035
 H470 H 0.55872 0.50038 0.25122
 C471 C 0.85213 0.48250 0.75262
 C472 C 0.86240 0.50002 0.74925
 C473 C 0.85205 0.51757 0.74614
 C474 C 0.83137 0.51776 0.74638
 C475 C 0.82121 0.50008 0.74977
 C476 C 0.83145 0.48237 0.75293
 C477 C 0.88404 0.50004 0.74923
 C478 C 0.89430 0.49674 0.73175
 C479 C 0.91498 0.49698 0.73154
 C480 C 0.92522 0.50053 0.74914
 C481 C 0.91506 0.50388 0.76678
 C482 C 0.89438 0.50359 0.76666
 H483 H 0.86031 0.46906 0.75529
 H484 H 0.86017 0.53108 0.74382
 H485 H 0.88613 0.49427 0.71829
 H486 H 0.88627 0.50640 0.78005
 H487 H 0.80527 0.50001 0.74946
 H488 H 0.94117 0.50020 0.74921
 C489 C 0.25328 0.35512 -0.01804
 C490 C 0.25020 0.36546 -0.00056
 C491 C 0.24714 0.35521 0.01699
 C492 C 0.24715 0.33455 0.01721
 C493 C 0.25025 0.32431 -0.00045
 C494 C 0.25332 0.33446 -0.01815
 C495 C 0.25022 0.38707 -0.00062
 C496 C 0.23273 0.39740 -0.00420
 C497 C 0.23264 0.41806 -0.00450
 C498 C 0.25036 0.42822 -0.00116
 C499 C 0.26801 0.41799 0.00242
 C500 C 0.26778 0.39733 0.00269
 H501 H 0.25541 0.36321 -0.03157
 H502 H 0.24502 0.36338 0.03047
 H503 H 0.21929 0.38928 -0.00701
 H504 H 0.28127 0.38917 0.00517
 H505 H 0.25026 0.30838 -0.00041
 H506 H 0.25032 0.44415 -0.00084
 C507 C 0.74685 0.14496 -0.01768
 C508 C 0.75010 0.13459 -0.00022
 C509 C 0.75305 0.14480 0.01738
 C510 C 0.75280 0.16546 0.01768
 C511 C 0.74953 0.17574 0.00006
 C512 C 0.74650 0.16563 -0.01769
 C513 C 0.75015 0.11298 -0.00031
 C514 C 0.76763 0.10271 -0.00400
 C515 C 0.76785 0.08205 -0.00402
 C516 C 0.75026 0.07182 -0.00030
 C517 C 0.73262 0.08199 0.00339
 C518 C 0.73272 0.10265 0.00336
 H519 H 0.74428 0.13689 -0.03115
 H520 H 0.75529 0.13661 0.03084
 H521 H 0.78098 0.11087 -0.00704
 H522 H 0.71934 0.11076 0.00643
 H523 H 0.74983 0.19166 0.00008
 H524 H 0.75030 0.05589 -0.00027
 C525 C 0.24668 0.64511 0.48292
 C526 C 0.24968 0.63471 0.50042
 C527 C 0.25237 0.64492 0.51807
 C528 C 0.25210 0.66558 0.51838
 C529 C 0.24904 0.67586 0.50073
 C530 C 0.24627 0.66577 0.48293
 C531 C 0.24977 0.61310 0.50029
 C532 C 0.26723 0.60286 0.49641
 C533 C 0.26747 0.58220 0.49631
 C534 C 0.24992 0.57194 0.50013
 C535 C 0.23230 0.58207 0.50402
 C536 C 0.23239 0.60273 0.50407
 H537 H 0.24433 0.63704 0.46940
 H538 H 0.25443 0.63672 0.53155
 H539 H 0.28055 0.61104 0.49329
 H540 H 0.21901 0.61081 0.50727
 H541 H 0.24932 0.69179 0.50077
 H542 H 0.24998 0.55601 0.50009
 C543 C 0.75310 0.85512 0.48236
 C544 C 0.74973 0.86547 0.49979
 C545 C 0.74602 0.85524 0.51721
 C546 C 0.74566 0.83458 0.51737
 C547 C 0.74907 0.82433 0.49978
 C548 C 0.75278 0.83446 0.48219
 C549 C 0.74988 0.88709 0.49974
 C550 C 0.73237 0.89750 0.49658
 C551 C 0.73237 0.91816 0.49630
 C552 C 0.75020 0.92824 0.49928
 C553 C 0.76788 0.91792 0.50246
 C554 C 0.76756 0.89726 0.50265
 H555 H 0.75568 0.86321 0.46891
 H556 H 0.74317 0.86342 0.53056
 H557 H 0.71883 0.88946 0.49406
 H558 H 0.78106 0.88903 0.50481
 H559 H 0.74936 0.80840 0.49989
 H560 H 0.75023 0.94416 0.49964
 C561 C -0.01772 0.25261 0.35340
 C562 C -0.00003 0.24964 0.36357
 C563 C 0.01744 0.24638 0.35320
 C564 C 0.01736 0.24602 0.33259
 C565 C -0.00048 0.24903 0.32252
 C566 C -0.01811 0.25232 0.33279
 C567 C 0.00018 0.24971 0.38513
 C568 C -0.00296 0.23219 0.39546
 C569 C -0.00252 0.23202 0.41607
 C570 C 0.00107 0.24969 0.42617
 C571 C 0.00426 0.26737 0.41595
 C572 C 0.00377 0.26722 0.39534
 H573 H -0.03119 0.25487 0.36159
 H574 H 0.03099 0.24383 0.36123
 H575 H -0.00545 0.21868 0.38740
 H576 H 0.00645 0.28063 0.38718
 H577 H -0.00056 0.24932 0.30663
 H578 H 0.00088 0.24979 0.44206
 C579 C -0.01674 0.74649 0.14617
 C580 C 0.00067 0.74999 0.13579
 C581 C 0.01832 0.75317 0.14596
 C582 C 0.01873 0.75283 0.16657
 C583 C 0.00114 0.74933 0.17684
 C584 C -0.01667 0.74612 0.16677
 C585 C 0.00045 0.75004 0.11423
 C586 C -0.00301 0.76758 0.10401
 C587 C -0.00356 0.76771 0.08340
 C588 C -0.00054 0.75000 0.07318
 C589 C 0.00295 0.73231 0.08329
 C590 C 0.00342 0.73249 0.10390
 H591 H -0.03025 0.74377 0.13813
 H592 H 0.03176 0.75559 0.13777
 H593 H -0.00555 0.78102 0.11216
 H594 H 0.00583 0.71896 0.11197
 H595 H 0.00123 0.74960 0.19273
 H596 H -0.00039 0.75008 0.05729
 C597 C 0.48231 0.24646 0.64700
 C598 C 0.49975 0.24981 0.63663
 C599 C 0.51742 0.25289 0.64679
 C600 C 0.51780 0.25265 0.66741
 C601 C 0.50018 0.24931 0.67767
 C602 C 0.48237 0.24617 0.66761
 C603 C 0.49954 0.24983 0.61506
 C604 C 0.49602 0.26734 0.60482
 C605 C 0.49552 0.26745 0.58421
 C606 C 0.49865 0.24974 0.57402
 C607 C 0.50216 0.23206 0.58416
 C608 C 0.50259 0.23227 0.60477
 H609 H 0.46878 0.24381 0.63896
 H610 H 0.53087 0.25518 0.63860
 H611 H 0.49339 0.28078 0.61295
 H612 H 0.50502 0.21876 0.61286
 H613 H 0.50025 0.24966 0.69356
 H614 H 0.49885 0.24980 0.55813
 C615 C 0.48201 0.75295 0.85453
 C616 C 0.49972 0.74996 0.86467
 C617 C 0.51715 0.74662 0.85428
 C618 C 0.51705 0.74625 0.83367
 C619 C 0.49920 0.74933 0.82363
 C620 C 0.48159 0.75265 0.83392
 C621 C 0.49996 0.75005 0.88624
 C622 C 0.49686 0.73255 0.89660
 C623 C 0.49728 0.73242 0.91721
 C624 C 0.50082 0.75012 0.92728
 C625 C 0.50398 0.76778 0.91703
 C626 C 0.50351 0.76759 0.89642
 H627 H 0.46856 0.75524 0.86274
 H628 H 0.53071 0.74403 0.86230
 H629 H 0.49441 0.71902 0.88855
 H630 H 0.50615 0.78099 0.88824
 H631 H 0.49910 0.74963 0.80774
 H632 H 0.50060 0.75025 0.94317
 C633 C 0.05322 0.22721 0.29432
 C634 C 0.07075 0.23625 0.30025
 C635 C 0.07091 0.24835 0.31687
 C636 C 0.05358 0.25146 0.32747
 C637 C 0.13483 0.22472 0.25861
 C638 C 0.03589 0.23031 0.30488
 C639 C 0.08850 0.23321 0.28916
 C640 C 0.10323 0.23061 0.27969
 C641 C 0.12034 0.22747 0.26840
 C642 C 0.03586 0.24252 0.32155
 H643 H 0.05295 0.21776 0.28151
 H644 H 0.08439 0.25546 0.32156
 H645 H 0.05398 0.26111 0.34011
 H646 H 0.02254 0.22300 0.30012
 C647 C 0.57060 0.74833 0.81791
 C648 C 0.57035 0.73630 0.80124
 C649 C 0.55277 0.72738 0.79529
 C650 C 0.53546 0.73054 0.80588
 C651 C 0.63435 0.72487 0.75945
 C652 C 0.55330 0.75150 0.82854
 C653 C 0.58807 0.73324 0.79010
 C654 C 0.60278 0.73064 0.78059
 C655 C 0.61987 0.72756 0.76927
 C656 C 0.53552 0.74269 0.82260
 H657 H 0.58412 0.75535 0.82261
 H658 H 0.55242 0.71801 0.78243
 H659 H 0.52207 0.72334 0.80109
 H660 H 0.55376 0.76111 0.84120
 C661 C 0.43193 0.77352 0.81878
 C662 C 0.42770 0.76231 0.80207
 C663 C 0.44092 0.74779 0.79593
 C664 C 0.45838 0.74456 0.80635
 C665 C 0.36360 0.77514 0.76047
 C666 C 0.44938 0.77031 0.82925
 C667 C 0.40995 0.76586 0.79104
 C668 C 0.39521 0.76880 0.78159
 C669 C 0.37810 0.77222 0.77029
 C670 C 0.46285 0.75584 0.82309
 H671 H 0.42182 0.78484 0.82364
 H672 H 0.43777 0.73899 0.78304
 H673 H 0.46830 0.73312 0.80141
 H674 H 0.45251 0.77938 0.84194
 C675 C -0.05877 0.24742 0.29480
 C676 C -0.07197 0.26199 0.30090
 C677 C -0.06771 0.27326 0.31757
 C678 C -0.05027 0.27003 0.32805
 C679 C -0.13609 0.27478 0.25932
 C680 C -0.04133 0.24419 0.30524
 C681 C -0.08971 0.26554 0.28986
 C682 C -0.10446 0.26848 0.28041
 C683 C -0.12158 0.27189 0.26913
 C684 C -0.03684 0.25551 0.32194
 H685 H -0.06194 0.23859 0.28194
 H686 H -0.07779 0.28462 0.32238
 H687 H -0.04711 0.27914 0.34070
 H688 H -0.03142 0.23272 0.30033
 C689 C -0.07027 0.74784 0.18241
 C690 C -0.06996 0.73586 0.19911
 C691 C -0.05230 0.72708 0.20513
 C692 C -0.03500 0.73033 0.19456
 C693 C -0.13393 0.72426 0.24088
 C694 C -0.05298 0.75110 0.17181
 C695 C -0.08766 0.73274 0.21024
 C696 C -0.10237 0.73010 0.21974
 C697 C -0.11945 0.72698 0.23106
 C698 C -0.03512 0.74244 0.17781
 H699 H -0.08385 0.75475 0.17765
 H700 H -0.05191 0.71775 0.21801
 H701 H -0.02156 0.72324 0.19940
 H702 H -0.05350 0.76067 0.15912
 C703 C 0.42876 0.24814 0.68318
 C704 C 0.42900 0.23617 0.69989
 C705 C 0.44661 0.22734 0.70595
 C706 C 0.46394 0.23052 0.69542
 C707 C 0.36470 0.22467 0.74117
 C708 C 0.44608 0.25134 0.67261
 C709 C 0.41124 0.23306 0.71093
 C710 C 0.39647 0.23044 0.72033
 C711 C 0.37928 0.22734 0.73150
 C712 C 0.46389 0.24260 0.67865
 H713 H 0.41521 0.25509 0.67839
 H714 H 0.44695 0.21801 0.71884
 H715 H 0.47735 0.22338 0.70028
 H716 H 0.44562 0.26089 0.65991
 C717 C 0.55848 0.24781 0.70539
 C718 C 0.57167 0.26234 0.69924
 C719 C 0.56739 0.27358 0.68255
 C720 C 0.54993 0.27037 0.67210
 C721 C 0.63596 0.27492 0.74059
 C722 C 0.54103 0.24458 0.69498
 C723 C 0.58946 0.26584 0.71022
 C724 C 0.60424 0.26873 0.71962
 C725 C 0.62141 0.27208 0.73083
 C726 C 0.53651 0.25588 0.67825
 H727 H 0.56167 0.23900 0.71826
 H728 H 0.57747 0.28491 0.67770
 H729 H 0.54676 0.27945 0.65943
 H730 H 0.53113 0.23314 0.69992
 C731 C 0.05951 0.74792 0.20443
 C732 C 0.07258 0.76261 0.19841
 C733 C 0.06818 0.77399 0.18184
 C734 C 0.05074 0.77074 0.17138
 C735 C 0.13666 0.77535 0.24004
 C736 C 0.04206 0.74467 0.19402
 C737 C 0.09033 0.76615 0.20943
 C738 C 0.10507 0.76908 0.21889
 C739 C 0.12218 0.77247 0.23020
 C740 C 0.03744 0.75609 0.17741
 H741 H 0.06278 0.73899 0.21720
 H742 H 0.07817 0.78544 0.17709
 H743 H 0.04748 0.77992 0.15880
 H744 H 0.03225 0.73310 0.19885
 C745 C 0.31622 0.07095 0.24711
 C746 C 0.29937 0.07058 0.23525
 C747 C 0.29320 0.05287 0.22680
 C748 C 0.30377 0.03555 0.23025
 C749 C 0.25819 0.13497 0.22266
 C750 C 0.32683 0.05365 0.25057
 C751 C 0.28831 0.08833 0.23186
 C752 C 0.27891 0.10312 0.22900
 C753 C 0.26779 0.12033 0.22561
 C754 C 0.32069 0.03574 0.24222
 H755 H 0.32110 0.08458 0.25377
 H756 H 0.28021 0.05243 0.21755
 H757 H 0.29883 0.02206 0.22340
 H758 H 0.33965 0.05421 0.26004
 C759 C 0.81586 0.56707 0.72519
 C760 C 0.79918 0.57135 0.73643
 C761 C 0.79313 0.55822 0.75103
 C762 C 0.80364 0.54084 0.75432
 C763 C 0.75798 0.63562 0.72336
 C764 C 0.82641 0.54970 0.72848
 C765 C 0.78814 0.58908 0.73288
 C766 C 0.77875 0.60384 0.72989
 C767 C 0.76761 0.62103 0.72638
 C768 C 0.82037 0.53635 0.74304
 H769 H 0.82064 0.57711 0.71381
 H770 H 0.78027 0.56140 0.75985
 H771 H 0.79878 0.53099 0.76582
 H772 H 0.83909 0.54655 0.71940
 C773 C 0.81619 0.42867 0.75111
 C774 C 0.79952 0.42877 0.76314
 C775 C 0.79337 0.44632 0.77193
 C776 C 0.80379 0.46373 0.76867
 C777 C 0.75883 0.36415 0.77550
 C778 C 0.82665 0.44607 0.74784
 C779 C 0.78863 0.41091 0.76640
 C780 C 0.77937 0.39607 0.76919
 C781 C 0.76836 0.37880 0.77255
 C782 C 0.82052 0.46382 0.75655
 H783 H 0.82105 0.41517 0.74419
 H784 H 0.78052 0.44655 0.78131
 H785 H 0.79887 0.47709 0.77580
 H786 H 0.83933 0.44572 0.73826
 C787 C 0.29396 -0.05387 0.27274
 C788 C 0.30029 -0.07153 0.26430
 C789 C 0.31710 -0.07174 0.25248
 C790 C 0.32751 -0.05434 0.24904
 C791 C 0.25944 -0.13602 0.27686
 C792 C 0.30433 -0.03646 0.26931
 C793 C 0.28939 -0.08936 0.26767
 C794 C 0.28010 -0.10418 0.27052
 C795 C 0.26903 -0.12140 0.27391
 C796 C 0.32119 -0.03649 0.25737
 H797 H 0.28099 -0.05354 0.28196
 H798 H 0.32210 -0.08533 0.24583
 H799 H 0.34030 -0.05479 0.23960
 H800 H 0.29926 -0.02301 0.27615
 C801 C 0.18356 -0.07114 0.74831
 C802 C 0.20015 -0.07116 0.73617
 C803 C 0.20624 -0.05368 0.72721
 C804 C 0.19585 -0.03623 0.73042
 C805 C 0.24075 -0.13596 0.72410
 C806 C 0.17313 -0.05370 0.75153
 C807 C 0.21102 -0.08906 0.73297
 C808 C 0.22027 -0.10394 0.73023
 C809 C 0.23125 -0.12126 0.72696
 C810 C 0.17919 -0.03603 0.74265
 H811 H 0.17875 -0.08458 0.75536
 H812 H 0.21902 -0.05354 0.71773
 H813 H 0.20071 -0.02293 0.72317
 H814 H 0.16051 -0.05397 0.76120
 C815 C 0.70654 0.44638 0.22784
 C816 C 0.70043 0.42882 0.23662
 C817 C 0.68379 0.42873 0.24870
 C818 C 0.67333 0.44613 0.25203
 C819 C 0.74108 0.36413 0.22415
 C820 C 0.69611 0.46380 0.23115
 C821 C 0.71131 0.41096 0.23330
 C822 C 0.72057 0.39610 0.23047
 C823 C 0.73157 0.37880 0.22710
 C824 C 0.67941 0.46388 0.24332
 H825 H 0.71936 0.44661 0.21842
 H826 H 0.67896 0.41522 0.25562
 H827 H 0.66068 0.44577 0.26165
 H828 H 0.70100 0.47716 0.22403
 C829 C 0.68403 0.56713 0.27465
 C830 C 0.70068 0.57137 0.26336
 C831 C 0.70669 0.55824 0.24874
 C832 C 0.69617 0.54088 0.24547
 C833 C 0.74218 0.63534 0.27657
 C834 C 0.67347 0.54978 0.27139
 C835 C 0.71178 0.58905 0.26693
 C836 C 0.72124 0.60374 0.26994
 C837 C 0.73247 0.62084 0.27350
 C838 C 0.67947 0.53642 0.25681
 H839 H 0.67929 0.57717 0.28605
 H840 H 0.71954 0.56140 0.23989
 H841 H 0.70100 0.53102 0.23397
 H842 H 0.66082 0.54665 0.28050
 C843 C 0.18388 0.06737 0.77352
 C844 C 0.20060 0.07153 0.76232
 C845 C 0.20670 0.05829 0.74783
 C846 C 0.19618 0.04092 0.74460
 C847 C 0.24167 0.13582 0.77531
 C848 C 0.17332 0.05001 0.77032
 C849 C 0.21165 0.08925 0.76581
 C850 C 0.22102 0.10401 0.76877
 C851 C 0.23211 0.12120 0.77227
 C852 C 0.17939 0.03656 0.75585
 H853 H 0.17907 0.07749 0.78483
 H854 H 0.21961 0.06137 0.73905
 H855 H 0.20107 0.03098 0.73319
 H856 H 0.16062 0.04695 0.77937
 C857 C 0.25182 0.29627 0.05750
 C858 C 0.23733 0.30249 0.07067
 C859 C 0.22620 0.31933 0.06652
 C860 C 0.22948 0.32985 0.04920
 C861 C 0.22418 0.26095 0.13442
 C862 C 0.25511 0.30676 0.04018
 C863 C 0.23373 0.29142 0.08830
 C864 C 0.23072 0.28197 0.10296
 C865 C 0.22720 0.27072 0.11998
 C866 C 0.24392 0.32363 0.03580
 H867 H 0.26054 0.28327 0.06058
 H868 H 0.21489 0.32423 0.07658
 H869 H 0.22047 0.34264 0.04612
 H870 H 0.26651 0.30175 0.03028
 C871 C 0.74704 0.81924 0.57094
 C872 C 0.73499 0.80255 0.57069
 C873 C 0.72626 0.79646 0.55309
 C874 C 0.72963 0.80694 0.53578
 C875 C 0.72291 0.76113 0.63473
 C876 C 0.75042 0.82976 0.55363
 C877 C 0.73174 0.79152 0.58840
 C878 C 0.72899 0.78209 0.60313
 C879 C 0.72574 0.77087 0.62023
 C880 C 0.74181 0.82367 0.53584
 H881 H 0.75392 0.82405 0.58447
 H882 H 0.71686 0.78360 0.55274
 H883 H 0.72258 0.80205 0.52237
 H884 H 0.76005 0.84244 0.55410
 C885 C 0.77457 0.81893 0.43332
 C886 C 0.76337 0.80220 0.42898
 C887 C 0.74861 0.79613 0.44191
 C888 C 0.74510 0.80666 0.45916
 C889 C 0.77705 0.76063 0.36535
 C890 C 0.77107 0.82950 0.45057
 C891 C 0.76716 0.79112 0.41139
 C892 C 0.77031 0.78167 0.39677
 C893 C 0.77396 0.77041 0.37977
 C894 C 0.75633 0.82344 0.46372
 H895 H 0.78607 0.82372 0.42344
 H896 H 0.73983 0.78322 0.43867
 H897 H 0.73348 0.80178 0.46885
 H898 H 0.78012 0.84221 0.45378
 C899 C 0.24873 0.29603 -0.05830
 C900 C 0.26318 0.30223 -0.07151
 C901 C 0.27428 0.31908 -0.06742
 C902 C 0.27101 0.32965 -0.05013
 C903 C 0.27630 0.26066 -0.13525
 C904 C 0.24544 0.30656 -0.04100
 C905 C 0.26676 0.29113 -0.08913
 C906 C 0.26976 0.28167 -0.10377
 C907 C 0.27328 0.27042 -0.12080
 C908 C 0.25659 0.32346 -0.03669
 H909 H 0.24002 0.28303 -0.06134
 H910 H 0.28555 0.32396 -0.07752
 H911 H 0.27999 0.34245 -0.04710
 H912 H 0.23405 0.30159 -0.03108
 C913 C 0.74861 0.18117 -0.07117
 C914 C 0.73653 0.19787 -0.07109
 C915 C 0.72762 0.20394 -0.05363
 C916 C 0.73080 0.19343 -0.03628
 C917 C 0.72456 0.23898 -0.13544
 C918 C 0.75181 0.17062 -0.05383
 C919 C 0.73336 0.20886 -0.08887
 C920 C 0.73065 0.21822 -0.10366
 C921 C 0.72740 0.22934 -0.12085
 C922 C 0.74298 0.17667 -0.03618
 H923 H 0.75562 0.17637 -0.08460
 H924 H 0.71819 0.21681 -0.05341
 H925 H 0.72358 0.19829 -0.02299
 H926 H 0.76144 0.15792 -0.05417
 C927 C 0.24904 0.68147 0.42953
 C928 C 0.23687 0.69810 0.42948
 C929 C 0.22769 0.70408 0.44684
 C930 C 0.23069 0.69353 0.46420
 C931 C 0.22540 0.73943 0.36519
 C932 C 0.25206 0.67089 0.44688
 C933 C 0.23387 0.70914 0.41170
 C934 C 0.23129 0.71855 0.39692
 C935 C 0.22816 0.72974 0.37975
 C936 C 0.24295 0.67683 0.46443
 H937 H 0.25627 0.67675 0.41618
 H938 H 0.21819 0.71689 0.44697
 H939 H 0.22326 0.69832 0.47740
 H940 H 0.26176 0.65824 0.44664
 C941 C 0.27260 0.68085 0.56797
 C942 C 0.26128 0.69756 0.57205
 C943 C 0.24679 0.70367 0.55874
 C944 C 0.24371 0.69320 0.54135
 C945 C 0.27406 0.73918 0.63590
 C946 C 0.26952 0.67033 0.55060
 C947 C 0.26472 0.70866 0.58972
 C948 C 0.26763 0.71812 0.60440
 C949 C 0.27108 0.72940 0.62145
 C950 C 0.25510 0.67645 0.53705
 H951 H 0.28390 0.67604 0.57815
 H952 H 0.23792 0.71656 0.56176
 H953 H 0.23233 0.69812 0.53133
 H954 H 0.27868 0.65765 0.54758
 C955 C 0.74788 0.20349 0.05813
 C956 C 0.76248 0.19736 0.07130
 C957 C 0.77379 0.18067 0.06709
 C958 C 0.77057 0.17020 0.04971
 C959 C 0.77546 0.23879 0.13523
 C960 C 0.74466 0.19306 0.04075
 C961 C 0.76602 0.20839 0.08899
 C962 C 0.76899 0.21781 0.10369
 C963 C 0.77247 0.22904 0.12076
 C964 C 0.75602 0.17633 0.03631
 H965 H 0.73902 0.21636 0.06127
 H966 H 0.78518 0.17584 0.07715
 H967 H 0.77970 0.15752 0.04660
 H968 H 0.73317 0.19798 0.03084
 C969 C 0.47637 0.30339 0.54604
 C970 C 0.48529 0.32093 0.55206
 C971 C 0.49736 0.32108 0.56874
 C972 C 0.50059 0.30374 0.57930
 C973 C 0.47406 0.38502 0.51022
 C974 C 0.47958 0.28604 0.55657
 C975 C 0.48225 0.33868 0.54093
 C976 C 0.47969 0.35341 0.53142
 C977 C 0.47667 0.37052 0.52007
 C978 C 0.49181 0.28599 0.57328
 H979 H 0.46695 0.30311 0.53318
 H980 H 0.50439 0.33457 0.57349
 H981 H 0.51025 0.30412 0.59196
 H982 H 0.47239 0.27268 0.55173
 C983 C -0.02275 0.80380 0.04540
 C984 C -0.01368 0.82128 0.05137
 C985 C -0.00147 0.82134 0.06795
 C986 C 0.00173 0.80396 0.07847
 C987 C -0.02487 0.88561 0.00989
 C988 C -0.01956 0.78641 0.05588
 C989 C -0.01673 0.83907 0.04031
 C990 C -0.01929 0.85385 0.03088
 C991 C -0.02229 0.87104 0.01964
 C992 C -0.00722 0.78628 0.07250
 H993 H -0.03227 0.80360 0.03261
 H994 H 0.00568 0.83478 0.07266
 H995 H 0.01149 0.80427 0.09106
 H996 H -0.02688 0.77310 0.05108
 C997 C -0.00205 0.69199 0.04509
 C998 C 0.01268 0.67886 0.05101
 C999 C 0.02409 0.68304 0.06762
 C1000 C 0.02086 0.70036 0.07822
 C1001 C 0.02556 0.61522 0.00902
 C1002 C -0.00530 0.70931 0.05565
 C1003 C 0.01625 0.66125 0.03984
 C1004 C 0.01922 0.64662 0.03030
 C1005 C 0.02266 0.62963 0.01891
 C1006 C 0.00617 0.71373 0.07230
 H1007 H -0.01100 0.68887 0.03228
 H1008 H 0.03558 0.67301 0.07229
 H1009 H 0.03008 0.70346 0.09083
 H1010 H -0.01689 0.71918 0.05088
 C1011 C 0.49717 0.19169 0.54602
 C1012 C 0.51180 0.17849 0.55204
 C1013 C 0.52318 0.18268 0.56868
 C1014 C 0.51999 0.20004 0.57921
 C1015 C 0.52430 0.11448 0.51052
 C1016 C 0.49397 0.20905 0.55651
 C1017 C 0.51527 0.16080 0.54098
 C1018 C 0.51815 0.14608 0.53154
 C1019 C 0.52148 0.12898 0.52029
 C1020 C 0.50539 0.21346 0.57320
 H1021 H 0.48825 0.18857 0.53319
 H1022 H 0.53458 0.17259 0.57344
 H1023 H 0.52917 0.20313 0.59186
 H1024 H 0.48244 0.21896 0.55168
 C1025 C 0.00238 0.19165 0.45423
 C1026 C -0.01237 0.17858 0.44829
 C1027 C -0.02379 0.18284 0.43169
 C1028 C -0.02054 0.20017 0.42113
 C1029 C -0.02502 0.11464 0.48984
 C1030 C 0.00564 0.20899 0.44371
 C1031 C -0.01590 0.16091 0.45936
 C1032 C -0.01882 0.14622 0.46882
 C1033 C -0.02219 0.12913 0.48007
 C1034 C -0.00582 0.21347 0.42707
 H1035 H 0.01134 0.18847 0.46702
 H1036 H -0.03528 0.17284 0.42699
 H1037 H -0.02975 0.20332 0.40852
 H1038 H 0.01726 0.21880 0.44848
 C1039 C 0.50200 0.69220 0.95556
 C1040 C 0.48733 0.67906 0.94955
 C1041 C 0.47604 0.68322 0.93285
 C1042 C 0.47933 0.70051 0.92224
 C1043 C 0.47438 0.61540 0.99141
 C1044 C 0.50531 0.70949 0.94498
 C1045 C 0.48374 0.66145 0.96070
 C1046 C 0.48076 0.64682 0.97021
 C1047 C 0.47730 0.62982 0.98156
 C1048 C 0.49396 0.71388 0.92824
 H1049 H 0.51086 0.68910 0.96844
 H1050 H 0.46460 0.67318 0.92811
 H1051 H 0.47020 0.70359 0.90955
 H1052 H 0.51686 0.71935 0.94981
 C1053 C 0.50213 0.82147 0.93229
 C1054 C 0.51422 0.82136 0.94895
 C1055 C 0.52316 0.80383 0.95503
 C1056 C 0.51993 0.78644 0.94459
 C1057 C 0.52557 0.88566 0.99038
 C1058 C 0.49888 0.80408 0.92180
 C1059 C 0.51731 0.83915 0.95998
 C1060 C 0.51991 0.85393 0.96941
 C1061 C 0.52295 0.87110 0.98064
 C1062 C 0.50769 0.78635 0.92789
 H1063 H 0.49509 0.83495 0.92749
 H1064 H 0.53259 0.80359 0.96788
 H1065 H 0.52713 0.77308 0.94948
 H1066 H 0.48921 0.80443 0.90915
 C1067 C 0.02350 0.30327 0.45407
 C1068 C 0.01460 0.32083 0.44805
 C1069 C 0.00252 0.32102 0.43138
 C1070 C -0.00074 0.30368 0.42082
 C1071 C 0.02602 0.38475 0.49006
 C1072 C 0.02026 0.28592 0.44355
 C1073 C 0.01767 0.33856 0.45919
 C1074 C 0.02027 0.35326 0.46874
 C1075 C 0.02335 0.37031 0.48015
 C1076 C 0.00803 0.28591 0.42685
 H1077 H 0.03291 0.30296 0.46693
 H1078 H -0.00450 0.33453 0.42663
 H1079 H -0.01040 0.30409 0.40816
 H1080 H 0.02744 0.27254 0.44839
 C1081 C 0.30318 0.54393 0.47692
 C1082 C 0.32092 0.55014 0.48536
 C1083 C 0.32127 0.56699 0.49717
 C1084 C 0.30392 0.57752 0.50061
 C1085 C 0.38527 0.50884 0.47318
 C1086 C 0.28583 0.55443 0.48035
 C1087 C 0.33869 0.53909 0.48206
 C1088 C 0.35347 0.52968 0.47928
 C1089 C 0.37067 0.51850 0.47601
 C1090 C 0.28599 0.57130 0.49231
 H1091 H 0.30276 0.53095 0.46771
 H1092 H 0.33491 0.57189 0.50382
 H1093 H 0.30447 0.59031 0.51006
 H1094 H 0.27231 0.54943 0.47353
 C1095 C 0.80370 0.04378 -0.02316
 C1096 C 0.82139 0.05006 -0.01467
 C1097 C 0.82165 0.06690 -0.00286
 C1098 C 0.80427 0.07739 0.00052
 C1099 C 0.88602 0.00918 -0.02681
 C1100 C 0.78630 0.05423 -0.01979
 C1101 C 0.83922 0.03909 -0.01796
 C1102 C 0.85405 0.02977 -0.02073
 C1103 C 0.87133 0.01872 -0.02399
 C1104 C 0.78638 0.07113 -0.00786
 H1105 H 0.80334 0.03079 -0.03237
 H1106 H 0.83526 0.07185 0.00383
 H1107 H 0.80475 0.09019 0.00996
 H1108 H 0.77282 0.04920 -0.02666
 C1109 C 0.69698 0.04378 0.02287
 C1110 C 0.67925 0.04994 0.01436
 C1111 C 0.67890 0.06667 0.00240
 C1112 C 0.69622 0.07717 -0.00110
 C1113 C 0.61475 0.00910 0.02685
 C1114 C 0.71433 0.05424 0.01937
 C1115 C 0.66148 0.03897 0.01777
 C1116 C 0.64666 0.02966 0.02062
 C1117 C 0.62941 0.01862 0.02397
 C1118 C 0.71415 0.07103 0.00730
 H1119 H 0.69741 0.03088 0.03220
 H1120 H 0.66525 0.07153 -0.00431
 H1121 H 0.69567 0.08990 -0.01064
 H1122 H 0.72784 0.04932 0.02627
 C1123 C 0.19687 0.54358 0.52334
 C1124 C 0.17908 0.54974 0.51495
 C1125 C 0.17861 0.56660 0.50317
 C1126 C 0.19588 0.57721 0.49971
 C1127 C 0.11491 0.50830 0.52727
 C1128 C 0.21415 0.55415 0.51989
 C1129 C 0.16137 0.53863 0.51829
 C1130 C 0.14664 0.52919 0.52110
 C1131 C 0.12948 0.51798 0.52441
 C1132 C 0.21387 0.57105 0.50797
 H1133 H 0.19739 0.53058 0.53253
 H1134 H 0.16492 0.57147 0.49656
 H1135 H 0.19524 0.59003 0.49030
 H1136 H 0.22771 0.54920 0.52668
 C1137 C 0.19674 0.45637 -0.02363
 C1138 C 0.17912 0.45025 -0.01497
 C1139 C 0.17892 0.43350 -0.00304
 C1140 C 0.19629 0.42295 0.00030
 C1141 C 0.11461 0.49141 -0.02717
 C1142 C 0.21412 0.44586 -0.02030
 C1143 C 0.16131 0.46128 -0.01824
 C1144 C 0.14649 0.47066 -0.02100
 C1145 C 0.12925 0.48179 -0.02429
 C1146 C 0.21411 0.42905 -0.00825
 H1147 H 0.19704 0.46928 -0.03295
 H1148 H 0.16537 0.42866 0.00377
 H1149 H 0.19586 0.41021 0.00982
 H1150 H 0.22754 0.45076 -0.02731
 C1151 C 0.67871 0.93371 0.49858
 C1152 C 0.67874 0.95042 0.48658
 C1153 C 0.69624 0.95653 0.47769
 C1154 C 0.71367 0.94603 0.48081
 C1155 C 0.61382 0.99102 0.47474
 C1156 C 0.69612 0.92317 0.50172
 C1157 C 0.66085 0.96136 0.48344
 C1158 C 0.64595 0.97062 0.48076
 C1159 C 0.62858 0.98158 0.47756
 C1160 C 0.71381 0.92924 0.49289
 H1161 H 0.66524 0.92888 0.50557
 H1162 H 0.69641 0.96941 0.46832
 H1163 H 0.72698 0.95091 0.47360
 H1164 H 0.69581 0.91046 0.51128
 C1165 C 0.80842 0.95600 0.49770
 C1166 C 0.82173 0.94974 0.51212
 C1167 C 0.81757 0.93295 0.52324
 C1168 C 0.80013 0.92250 0.52003
 C1169 C 0.88610 0.99072 0.52520
 C1170 C 0.79097 0.94559 0.49447
 C1171 C 0.83950 0.96071 0.51565
 C1172 C 0.85428 0.97005 0.51864
 C1173 C 0.87149 0.98113 0.52216
 C1174 C 0.78659 0.92876 0.50565
 H1175 H 0.81152 0.96895 0.48897
 H1176 H 0.82775 0.92801 0.53448
 H1177 H 0.79707 0.90975 0.52903
 H1178 H 0.78098 0.95061 0.48312
 C1179 C 0.31726 0.43329 0.02403
 C1180 C 0.32159 0.45000 0.01285
 C1181 C 0.30854 0.45612 -0.00186
 C1182 C 0.29117 0.44566 -0.00532
 C1183 C 0.38556 0.49134 0.02671
 C1184 C 0.29989 0.42279 0.02058
 C1185 C 0.33928 0.46103 0.01662
 C1186 C 0.35398 0.47043 0.01978
 C1187 C 0.37107 0.48163 0.02351
 C1188 C 0.28662 0.42891 0.00591
 H1189 H 0.32723 0.42846 0.03550
 H1190 H 0.31178 0.46900 -0.01063
 H1191 H 0.28138 0.45057 -0.01689
 H1192 H 0.29668 0.41010 0.02962
 C1193 C 0.56979 0.47582 0.31794
 C1194 C 0.55311 0.48710 0.32226
 C1195 C 0.54698 0.50181 0.30924
 C1196 C 0.55741 0.50517 0.29191
 C1197 C 0.51151 0.47394 0.38593
 C1198 C 0.58026 0.47916 0.30062
 C1199 C 0.54207 0.48345 0.33989
 C1200 C 0.53263 0.48043 0.35453
 C1201 C 0.52134 0.47692 0.37153
 C1202 C 0.57414 0.49383 0.28737
 H1203 H 0.57462 0.46435 0.32789
 H1204 H 0.53412 0.51066 0.31245
 H1205 H 0.55249 0.51674 0.28213
 H1206 H 0.59294 0.47005 0.29742
 C1207 C 0.04692 0.00195 0.80839
 C1208 C 0.05303 -0.01280 0.82137
 C1209 C 0.06968 -0.02412 0.81701
 C1210 C 0.08014 -0.02076 0.79968
 C1211 C 0.01155 -0.02591 0.88512
 C1212 C 0.05733 0.00531 0.79105
 C1213 C 0.04202 -0.01645 0.83902
 C1214 C 0.03259 -0.01946 0.85367
 C1215 C 0.02134 -0.02295 0.87069
 C1216 C 0.07402 -0.00606 0.78647
 H1217 H 0.03408 0.01082 0.81163
 H1218 H 0.07448 -0.03563 0.82693
 H1219 H 0.09279 -0.02990 0.79645
 H1220 H 0.05243 0.01691 0.78130
 C1221 C 0.06896 0.00260 0.67908
 C1222 C 0.05208 0.01441 0.67934
 C1223 C 0.04591 0.02300 0.69695
 C1224 C 0.05652 0.01973 0.71424
 C1225 C 0.01057 0.02639 0.61515
 C1226 C 0.07960 -0.00069 0.69637
 C1227 C 0.04097 0.01763 0.66161
 C1228 C 0.03151 0.02035 0.64687
 C1229 C 0.02028 0.02358 0.62971
 C1230 C 0.07346 0.00779 0.71417
 H1231 H 0.07383 -0.00416 0.66553
 H1232 H 0.03290 0.03222 0.69730
 H1233 H 0.05158 0.02670 0.72765
 H1234 H 0.09243 -0.01013 0.69587
 C1235 C 0.56893 0.50229 0.18004
 C1236 C 0.55225 0.51438 0.18029
 C1237 C 0.54628 0.52318 0.19785
 C1238 C 0.55688 0.51985 0.21514
 C1239 C 0.51054 0.52663 0.11628
 C1240 C 0.57958 0.49894 0.19732
 C1241 C 0.54111 0.51766 0.16258
 C1242 C 0.53162 0.52044 0.14787
 C1243 C 0.52033 0.52375 0.13078
 C1244 C 0.57363 0.50765 0.21508
 H1245 H 0.57364 0.49536 0.16653
 H1246 H 0.53342 0.53261 0.19820
 H1247 H 0.55210 0.52696 0.22852
 H1248 H 0.59227 0.48930 0.19686
 C1249 C 0.43086 -0.02380 0.18284
 C1250 C 0.44766 -0.01264 0.17875
 C1251 C 0.45380 0.00189 0.19195
 C1252 C 0.44328 0.00518 0.20923
 C1253 C 0.48934 -0.02571 0.11512
 C1254 C 0.42029 -0.02053 0.20012
 C1255 C 0.45877 -0.01624 0.16116
 C1256 C 0.46825 -0.01923 0.14653
 C1257 C 0.47955 -0.02272 0.12953
 C1258 C 0.42644 -0.00605 0.21356
 H1259 H 0.42600 -0.03512 0.17274
 H1260 H 0.46676 0.01065 0.18890
 H1261 H 0.44821 0.01662 0.21914
 H1262 H 0.40753 -0.02956 0.20314
 C1263 C 0.93037 0.47546 0.68248
 C1264 C 0.94709 0.48668 0.67822
 C1265 C 0.95319 0.50138 0.69125
 C1266 C 0.94269 0.50480 0.70853
 C1267 C 0.98877 0.47347 0.61460
 C1268 C 0.91983 0.47887 0.69976
 C1269 C 0.95816 0.48300 0.66061
 C1270 C 0.96763 0.47996 0.64599
 C1271 C 0.97893 0.47645 0.62900
 C1272 C 0.92593 0.49353 0.71302
 H1273 H 0.92555 0.46400 0.67252
 H1274 H 0.96608 0.51018 0.68807
 H1275 H 0.94759 0.51637 0.71830
 H1276 H 0.90712 0.46981 0.70292
 C1277 C 0.93059 0.50240 0.82033
 C1278 C 0.94732 0.51440 0.82012
 C1279 C 0.95340 0.52311 0.80255
 C1280 C 0.94286 0.51976 0.78523
 C1281 C 0.98890 0.52657 0.88421
 C1282 C 0.92002 0.49904 0.80302
 C1283 C 0.95840 0.51767 0.83786
 C1284 C 0.96785 0.52044 0.85259
 C1285 C 0.97912 0.52372 0.86971
 C1286 C 0.92608 0.50764 0.78525
 H1287 H 0.92580 0.49554 0.83385
 H1288 H 0.96630 0.53247 0.80223
 H1289 H 0.94774 0.52680 0.77184
 H1290 H 0.90730 0.48946 0.80346
 C1291 C 0.45388 0.02269 0.30334
 C1292 C 0.44774 0.01396 0.32088
 C1293 C 0.43099 0.00199 0.32102
 C1294 C 0.42045 -0.00131 0.30367
 C1295 C 0.48885 0.02607 0.38528
 C1296 C 0.44338 0.01942 0.28599
 C1297 C 0.45873 0.01721 0.33867
 C1298 C 0.46809 0.01997 0.35347
 C1299 C 0.47922 0.02324 0.37068
 C1300 C 0.42656 0.00734 0.28594
 H1301 H 0.46680 0.03203 0.30308
 H1302 H 0.42614 -0.00489 0.33450
 H1303 H 0.40771 -0.01087 0.30406
 H1304 H 0.44830 0.02650 0.27264
   
