data_POSCAR
  _audit_creation_date              2014-09-24
  _audit_creation_method            'ToBaCCo'
  _symmetry_space_group_name_H-M    'P1'
  _symmetry_Int_Tables_number       1
  _symmetry_cell_setting            triclinic
  loop_
  _symmetry_equiv_pos_as_xyz
 x,y,z
_cell_length_a 47.9924
_cell_length_b 47.9882
_cell_length_c 37.0519
_cell_angle_alpha 90.048900
_cell_angle_beta 90.022700
_cell_angle_gamma 89.990100
loop_
  _atom_site_label
  _atom_site_type_symbol
  _atom_site_fract_x
  _atom_site_fract_y
  _atom_site_fract_z
Zr1 Zr -0.04901 0.00265 -0.00329
 O2 O -0.08013 -0.01920 -0.03237
 O3 O -0.07298 0.02768 0.03125
 O4 O -0.07213 -0.02405 0.03055
 O5 O -0.03826 0.05262 -0.06930
 O6 O -0.03894 -0.04915 0.06050
 O7 O -0.07176 0.02912 -0.03778
 O8 O -0.04035 0.05018 0.06540
 O9 O -0.02608 0.00120 0.04475
 O10 O -0.02535 0.03921 -0.00180
 O11 O -0.02517 -0.03403 -0.00657
 O12 O -0.02523 0.00257 -0.05125
 Zr13 Zr 0.04816 0.00150 -0.00391
 Zr14 Zr -0.00073 -0.03417 0.04028
 Zr15 Zr -0.00018 0.03834 -0.04761
 Zr16 Zr -0.00146 0.03702 0.04485
 O17 O 0.00129 0.03618 -0.10461
 O18 O -0.00140 0.02859 0.10102
 O19 O 0.02456 0.03856 -0.00080
 O20 O 0.02405 0.00167 0.04352
 O21 O 0.02481 -0.03533 -0.00548
 O22 O 0.02487 0.00295 -0.05158
 C23 C -0.06562 0.04457 0.05640
 C24 C -0.06377 0.04683 -0.06167
 C25 C -0.06436 -0.04282 0.05321
 O26 O 0.00076 -0.03204 0.09729
 O27 O 0.03721 -0.05136 0.05825
 O28 O 0.07082 -0.02681 0.02835
 C29 C 0.06273 -0.04572 0.05063
 O30 O -0.03636 -0.04731 -0.07764
 Zr31 Zr 0.00059 -0.03286 -0.05210
 O32 O 0.07211 -0.02400 -0.03786
 O33 O -0.00250 -0.07794 0.03369
 O34 O -0.00058 -0.07673 -0.04535
 O35 O 0.00331 -0.02626 -0.10858
 O36 O 0.03942 -0.04889 -0.06900
 C37 C 0.06470 -0.04276 -0.06064
 O38 O 0.07926 0.02213 0.02663
 O39 O -0.00137 0.08216 -0.04131
 O40 O 0.07129 0.02982 -0.03555
 O41 O 0.03803 0.05587 -0.06404
 O42 O -0.00307 0.08104 0.04012
 O43 O 0.03549 0.05505 0.06622
 C44 C 0.06347 0.04959 -0.05675
 H45 H -0.03684 0.05635 -0.00164
 H46 H 0.03603 0.00144 0.06528
 H47 H 0.03660 0.00380 -0.07351
 H48 H -0.03726 -0.05071 -0.00795
 H49 H -0.00655 0.04607 0.11361
 H50 H -0.00012 -0.05147 0.10624
 H51 H -0.00187 -0.08617 0.05820
 H52 H 0.00456 -0.08528 -0.06877
 H53 H -0.00779 0.08866 0.06423
 H54 H -0.00189 0.09023 -0.06591
 H55 H 0.00195 0.05564 -0.11350
 H56 H 0.00801 -0.04439 -0.11988
 H57 H 0.03075 0.06677 0.08735
 H58 H 0.09760 0.01553 0.01766
 H59 H -0.09848 -0.01254 -0.02352
 H60 H -0.03167 -0.06254 -0.09464
 Zr61 Zr 0.54816 0.50152 0.49618
 O62 O 0.57920 0.52229 0.52666
 O63 O 0.57217 0.47589 0.46248
 O64 O 0.57076 0.47336 0.52872
 O65 O 0.53814 0.55562 0.43559
 O66 O 0.53709 0.44895 0.55872
 O67 O 0.57135 0.52969 0.46440
 O68 O 0.53954 0.45088 0.43139
 O69 O 0.52481 0.46468 0.49481
 O70 O 0.52494 0.50276 0.44843
 O71 O 0.52396 0.50191 0.54353
 O72 O 0.52455 0.53860 0.49893
 Zr73 Zr 0.45098 0.50267 0.49649
 Zr74 Zr 0.49918 0.46604 0.54049
 Zr75 Zr 0.49989 0.53817 0.45205
 Zr76 Zr 0.50067 0.46694 0.44810
 O77 O 0.49869 0.58201 0.45803
 O78 O 0.49953 0.42311 0.45520
 O79 O 0.47486 0.50237 0.44860
 O80 O 0.47484 0.46597 0.49356
 O81 O 0.47383 0.50143 0.54460
 O82 O 0.47463 0.53924 0.49778
 C83 C 0.56479 0.45705 0.43977
 C84 C 0.56358 0.54935 0.44301
 C85 C 0.56263 0.45456 0.55113
 O86 O 0.49744 0.42225 0.53423
 O87 O 0.46094 0.45115 0.56070
 O88 O 0.42781 0.47612 0.53045
 C89 C 0.43553 0.45746 0.55328
 O90 O 0.53536 0.55540 0.56583
 Zr91 Zr 0.49845 0.53726 0.54451
 O92 O 0.42695 0.52783 0.53079
 O93 O 0.50056 0.46844 0.59748
 O94 O 0.49844 0.52910 0.60075
 O95 O 0.49681 0.58125 0.53945
 O96 O 0.45953 0.55047 0.56488
 C97 C 0.43427 0.54481 0.55586
 O98 O 0.41992 0.48069 0.46748
 O99 O 0.50148 0.53577 0.39507
 O100 O 0.42830 0.52897 0.46172
 O101 O 0.46185 0.55233 0.43011
 O102 O 0.50346 0.47329 0.39158
 O103 O 0.46377 0.45235 0.42259
 C104 C 0.43633 0.54656 0.43770
 H105 H 0.53671 0.50352 0.42652
 H106 H 0.46274 0.44929 0.49227
 H107 H 0.46314 0.55637 0.49778
 H108 H 0.53590 0.50177 0.56533
 H109 H 0.50471 0.41445 0.43185
 H110 H 0.49802 0.41413 0.55880
 H111 H 0.49967 0.44905 0.60658
 H112 H 0.49327 0.54664 0.61319
 H113 H 0.50817 0.45511 0.38042
 H114 H 0.50215 0.55519 0.38604
 H115 H 0.49821 0.58998 0.43338
 H116 H 0.49204 0.58897 0.56349
 H117 H 0.46849 0.43704 0.40574
 H118 H 0.40156 0.48738 0.47623
 H119 H 0.59755 0.51566 0.51780
 H120 H 0.53059 0.56724 0.58683
 Zr121 Zr 0.54888 -0.00296 0.49800
 O122 O 0.58028 0.01864 0.46921
 O123 O 0.57256 -0.02821 0.53265
 O124 O 0.57202 0.02373 0.53199
 O125 O 0.53801 -0.05285 0.43174
 O126 O 0.53884 0.04905 0.56168
 O127 O 0.57157 -0.02958 0.46353
 O128 O 0.53965 -0.05056 0.56643
 O129 O 0.52578 -0.00134 0.54587
 O130 O 0.52497 -0.03937 0.49923
 O131 O 0.52523 0.03385 0.49458
 O132 O 0.52524 -0.00273 0.44987
 Zr133 Zr 0.45164 -0.00118 0.49667
 Zr134 Zr 0.50063 0.03418 0.54127
 Zr135 Zr 0.49995 -0.03834 0.45325
 Zr136 Zr 0.50093 -0.03702 0.54572
 O137 O 0.49867 -0.03616 0.39624
 O138 O 0.50082 -0.02853 0.60189
 O139 O 0.47504 -0.03838 0.49988
 O140 O 0.47561 -0.00151 0.54425
 O141 O 0.47525 0.03549 0.49533
 O142 O 0.47511 -0.00281 0.44916
 C143 C 0.56500 -0.04514 0.55763
 C144 C 0.56355 -0.04723 0.43952
 C145 C 0.56426 0.04261 0.55454
 O146 O 0.49898 0.03203 0.59826
 O147 O 0.46274 0.05160 0.55907
 O148 O 0.42906 0.02730 0.52888
 C149 C 0.43720 0.04615 0.55128
 O150 O 0.53674 0.04706 0.42360
 Zr151 Zr 0.49962 0.03285 0.44887
 O152 O 0.42798 0.02451 0.46259
 O153 O 0.50263 0.07793 0.53475
 O154 O 0.50108 0.07671 0.45571
 O155 O 0.49703 0.02620 0.39237
 O156 O 0.46096 0.04918 0.43175
 C157 C 0.43560 0.04325 0.43992
 O158 O 0.42027 -0.02159 0.52693
 O159 O 0.50086 -0.08216 0.45947
 O160 O 0.42846 -0.02944 0.46482
 O161 O 0.46170 -0.05569 0.43655
 O162 O 0.50215 -0.08104 0.54085
 O163 O 0.46380 -0.05476 0.56691
 C164 C 0.43625 -0.04929 0.44367
 H165 H 0.53633 -0.05658 0.49941
 H166 H 0.46356 -0.00120 0.56593
 H167 H 0.46344 -0.00359 0.42715
 H168 H 0.53742 0.05046 0.49329
 H169 H 0.50581 -0.04604 0.61449
 H170 H 0.49994 0.05146 0.60726
 H171 H 0.50196 0.08618 0.55926
 H172 H 0.49609 0.08529 0.43226
 H173 H 0.50676 -0.08872 0.56495
 H174 H 0.50144 -0.09025 0.43486
 H175 H 0.49791 -0.05561 0.38730
 H176 H 0.49248 0.04435 0.38105
 H177 H 0.46842 -0.06649 0.58805
 H178 H 0.40203 -0.01487 0.51782
 H179 H 0.59854 0.01185 0.47820
 H180 H 0.53220 0.06226 0.40654
 Zr181 Zr -0.04842 0.49889 -0.00671
 O182 O -0.07982 0.47850 0.02351
 O183 O -0.07206 0.52474 -0.04061
 O184 O -0.07091 0.52731 0.02570
 O185 O -0.03855 0.44442 -0.06692
 O186 O -0.03714 0.55151 0.05587
 O187 O -0.07167 0.47069 -0.03855
 O188 O -0.03909 0.54941 -0.07139
 O189 O -0.02474 0.53551 -0.00799
 O190 O -0.02503 0.49729 -0.05428
 O191 O -0.02439 0.49843 0.04082
 O192 O -0.02510 0.46164 -0.00364
 Zr193 Zr 0.04882 0.49690 -0.00558
 Zr194 Zr 0.00070 0.53407 0.03789
 Zr195 Zr -0.00024 0.46170 -0.05032
 Zr196 Zr -0.00044 0.53290 -0.05451
 O197 O 0.00060 0.41786 -0.04428
 O198 O 0.00119 0.57674 -0.04760
 O199 O 0.02512 0.49727 -0.05366
 O200 O 0.02524 0.53377 -0.00885
 O201 O 0.02577 0.49849 0.04235
 O202 O 0.02483 0.46055 -0.00440
 C203 C -0.06447 0.54357 -0.06319
 C204 C -0.06399 0.45082 -0.05973
 C205 C -0.06270 0.54609 0.04816
 O206 O 0.00275 0.57783 0.03146
 O207 O 0.03896 0.54883 0.05826
 O208 O 0.07205 0.52349 0.02843
 C209 C 0.06436 0.54235 0.05106
 O210 O -0.03629 0.44516 0.06332
 Zr211 Zr 0.00085 0.46287 0.04214
 O212 O 0.07248 0.47158 0.02899
 O213 O -0.00086 0.53185 0.09488
 O214 O 0.00079 0.47125 0.09834
 O215 O 0.00201 0.41885 0.03715
 O216 O 0.03956 0.44925 0.06278
 C217 C 0.06491 0.45465 0.05397
 O218 O 0.08022 0.51847 -0.03440
 O219 O -0.00159 0.46400 -0.10732
 O220 O 0.07140 0.47025 -0.04012
 O221 O 0.03778 0.44712 -0.07191
 O222 O -0.00320 0.52635 -0.11101
 O223 O 0.03667 0.54702 -0.07987
 C224 C 0.06336 0.45262 -0.06416
 H225 H -0.03675 0.49657 -0.07625
 H226 H 0.03746 0.55035 -0.01012
 H227 H 0.03615 0.44331 -0.00427
 H228 H -0.03641 0.49872 0.06254
 H229 H -0.00381 0.58537 -0.07101
 H230 H 0.00214 0.58605 0.05600
 H231 H 0.00015 0.55126 0.10393
 H232 H 0.00575 0.45371 0.11089
 H233 H -0.00775 0.54452 -0.12226
 H234 H -0.00241 0.44457 -0.11632
 H235 H 0.00112 0.40984 -0.06892
 H236 H 0.00662 0.41113 0.06123
 H237 H 0.03214 0.56223 -0.09694
 H238 H 0.09848 0.51163 -0.02547
 H239 H -0.09806 0.48528 0.01444
 H240 H -0.03169 0.43337 0.08442
 Zr241 Zr 0.04926 0.50269 0.50322
 O242 O 0.08044 0.48075 0.53204
 O243 O 0.07317 0.52791 0.46890
 O244 O 0.07239 0.47618 0.46912
 O245 O 0.03846 0.55228 0.56978
 O246 O 0.03923 0.45118 0.43895
 O247 O 0.07198 0.52900 0.53797
 O248 O 0.04048 0.55052 0.43500
 O249 O 0.02630 0.50143 0.45519
 O250 O 0.02555 0.53923 0.50212
 O251 O 0.02548 0.46596 0.50616
 O252 O 0.02551 0.50234 0.55121
 Zr253 Zr -0.04789 0.50139 0.50393
 Zr254 Zr 0.00102 0.46601 0.45933
 Zr255 Zr 0.00040 0.53810 0.54795
 Zr256 Zr 0.00163 0.53723 0.45548
 O257 O -0.00107 0.53568 0.60493
 O258 O 0.00154 0.52906 0.39923
 O259 O -0.02437 0.53851 0.50117
 O260 O -0.02382 0.50183 0.45648
 O261 O -0.02449 0.46459 0.50512
 O262 O -0.02458 0.50266 0.55159
 C263 C 0.06576 0.54490 0.44391
 C264 C 0.06397 0.54656 0.56207
 C265 C 0.06464 0.45751 0.44630
 O266 O -0.00051 0.46841 0.40236
 O267 O -0.03689 0.44885 0.44125
 O268 O -0.07052 0.47320 0.47144
 C269 C -0.06241 0.45442 0.44897
 O270 O 0.03675 0.45234 0.57707
 Zr271 Zr -0.00024 0.46687 0.55173
 O272 O -0.07179 0.47572 0.53766
 O273 O 0.00287 0.42221 0.46546
 O274 O 0.00098 0.42304 0.54453
 O275 O -0.00292 0.47322 0.60828
 O276 O -0.03904 0.45073 0.56854
 C277 C -0.06433 0.45687 0.56027
 O278 O -0.07905 0.52211 0.47361
 O279 O 0.00154 0.58194 0.54210
 O280 O -0.07105 0.52953 0.53583
 O281 O -0.03783 0.55550 0.56454
 O282 O 0.00317 0.58122 0.46066
 O283 O -0.03537 0.55531 0.43434
 C284 C -0.06326 0.54921 0.55719
 H285 H 0.03701 0.55638 0.50213
 H286 H -0.03582 0.50168 0.43473
 H287 H -0.03630 0.50339 0.57355
 H288 H 0.03761 0.44929 0.50737
 H289 H 0.00665 0.54661 0.38680
 H290 H 0.00040 0.44902 0.39321
 H291 H 0.00223 0.41410 0.44087
 H292 H -0.00413 0.41437 0.56787
 H293 H 0.00787 0.58896 0.43663
 H294 H 0.00206 0.58990 0.56678
 H295 H -0.00176 0.55510 0.61401
 H296 H -0.00758 0.45503 0.61941
 H297 H -0.03066 0.56715 0.41334
 H298 H -0.09737 0.51545 0.48253
 H299 H 0.09877 0.48747 0.52324
 H300 H 0.03209 0.43703 0.59393
 Zr301 Zr 0.45215 0.00126 0.00384
 O302 O 0.42105 0.02196 -0.02660
 O303 O 0.42820 -0.02447 0.03743
 O304 O 0.42965 -0.02693 -0.02877
 O305 O 0.46197 0.05536 0.06455
 O306 O 0.46339 -0.05121 -0.05887
 O307 O 0.42886 0.02936 0.03565
 O308 O 0.46090 -0.04944 0.06841
 O309 O 0.47560 -0.03550 0.00508
 O310 O 0.47533 0.00253 0.05161
 O311 O 0.47635 0.00177 -0.04350
 O312 O 0.47563 0.03841 0.00123
 Zr313 Zr 0.54930 0.00270 0.00356
 Zr314 Zr 0.50124 -0.03402 -0.04058
 Zr315 Zr 0.50027 0.03801 0.04812
 Zr316 Zr 0.49972 -0.03322 0.05182
 O317 O 0.50137 0.08186 0.04235
 O318 O 0.50103 -0.07704 0.04457
 O319 O 0.52542 0.00228 0.05145
 O320 O 0.52556 -0.03406 0.00636
 O321 O 0.52649 0.00145 -0.04458
 O322 O 0.52553 0.03921 0.00241
 C323 C 0.43562 -0.04334 0.06003
 C324 C 0.43657 0.04904 0.05707
 C325 C 0.43784 -0.04569 -0.05124
 O326 O 0.50310 -0.07782 -0.03450
 O327 O 0.53952 -0.04883 -0.06075
 O328 O 0.57256 -0.02378 -0.03043
 C329 C 0.56490 -0.04248 -0.05326
 O330 O 0.46479 0.05521 -0.06569
 Zr331 Zr 0.50175 0.03720 -0.04435
 O332 O 0.57327 0.02802 -0.03057
 O333 O 0.49988 -0.03157 -0.09756
 O334 O 0.50189 0.02906 -0.10061
 O335 O 0.50315 0.08120 -0.03910
 O336 O 0.54064 0.05065 -0.06455
 C337 C 0.56591 0.04508 -0.05551
 O338 O 0.58044 -0.01921 0.03249
 O339 O 0.49865 0.03554 0.10510
 O340 O 0.57189 0.02900 0.03845
 O341 O 0.53825 0.05223 0.07014
 O342 O 0.49686 -0.02692 0.10836
 O343 O 0.53666 -0.04771 0.07731
 C344 C 0.56379 0.04654 0.06253
 H345 H 0.46354 0.00324 0.07351
 H346 H 0.53770 -0.05071 0.00761
 H347 H 0.53696 0.05637 0.00251
 H348 H 0.46441 0.00162 -0.06531
 H349 H 0.49588 -0.08574 0.06789
 H350 H 0.50254 -0.08591 -0.05911
 H351 H 0.50084 -0.05095 -0.10673
 H352 H 0.50701 0.04663 -0.11298
 H353 H 0.49220 -0.04511 0.11944
 H354 H 0.49790 0.05495 0.11420
 H355 H 0.50181 0.08979 0.06705
 H356 H 0.50790 0.08897 -0.06310
 H357 H 0.53198 -0.06303 0.09414
 H358 H 0.59879 -0.01245 0.02378
 H359 H 0.40272 0.01527 -0.01777
 H360 H 0.46954 0.06705 -0.08668
 Zr361 Zr 0.45091 0.49728 0.00358
 O362 O 0.41989 0.51910 0.03281
 O363 O 0.42685 0.47236 -0.03098
 O364 O 0.42776 0.52405 -0.03012
 O365 O 0.46173 0.44713 0.06936
 O366 O 0.46091 0.54916 -0.06008
 O367 O 0.42820 0.47075 0.03799
 O368 O 0.45939 0.44988 -0.06529
 O369 O 0.47375 0.49880 -0.04451
 O370 O 0.47454 0.46069 0.00191
 O371 O 0.47479 0.53393 0.00691
 O372 O 0.47478 0.49725 0.05150
 Zr373 Zr 0.54807 0.49834 0.00397
 Zr374 Zr 0.49914 0.53414 -0.04000
 Zr375 Zr 0.49979 0.46145 0.04767
 Zr376 Zr 0.49833 0.46295 -0.04479
 O377 O 0.50134 0.46351 0.10468
 O378 O 0.49828 0.47150 -0.10093
 O379 O 0.52444 0.46130 0.00081
 O380 O 0.52389 0.49827 -0.04341
 O381 O 0.52475 0.53518 0.00572
 O382 O 0.52486 0.49681 0.05169
 C383 C 0.43414 0.45550 -0.05621
 C384 C 0.43621 0.45296 0.06179
 C385 C 0.43550 0.54284 -0.05274
 O386 O 0.50055 0.53211 -0.09701
 O387 O 0.53707 0.55135 -0.05796
 O388 O 0.57070 0.52669 -0.02821
 C389 C 0.56260 0.54567 -0.05039
 O390 O 0.46372 0.54706 0.07806
 Zr391 Zr 0.50062 0.53265 0.05239
 O392 O 0.57211 0.52376 0.03792
 O393 O 0.49739 0.57789 -0.03327
 O394 O 0.49943 0.57653 0.04580
 O395 O 0.50349 0.52595 0.10884
 O396 O 0.53949 0.54864 0.06920
 C397 C 0.56475 0.54252 0.06075
 O398 O 0.57908 0.47771 -0.02670
 O399 O 0.49860 0.41765 0.04124
 O400 O 0.57124 0.46997 0.03549
 O401 O 0.53803 0.44389 0.06398
 O402 O 0.49670 0.41892 -0.04022
 O403 O 0.53523 0.44492 -0.06629
 C404 C 0.56346 0.45019 0.05665
 H405 H 0.46304 0.44357 0.00171
 H406 H 0.53583 0.49854 -0.06519
 H407 H 0.53664 0.49592 0.07360
 H408 H 0.46271 0.55062 0.00837
 H409 H 0.49309 0.45405 -0.11357
 H410 H 0.49965 0.55156 -0.10589
 H411 H 0.49798 0.58617 -0.05776
 H412 H 0.50461 0.58503 0.06924
 H413 H 0.49192 0.41137 -0.06434
 H414 H 0.49812 0.40953 0.06582
 H415 H 0.50202 0.44403 0.11351
 H416 H 0.50821 0.54406 0.12018
 H417 H 0.53044 0.43326 -0.08747
 H418 H 0.59744 0.48427 -0.01777
 H419 H 0.40151 0.51250 0.02399
 H420 H 0.46844 0.56223 0.09513
 Zr421 Zr 0.04807 -0.00141 0.50405
 O422 O 0.07915 -0.02197 0.47342
 O423 O 0.07203 0.02417 0.53790
 O424 O 0.07057 0.02695 0.47172
 O425 O 0.03824 -0.05580 0.56422
 O426 O 0.03682 0.05140 0.44191
 O427 O 0.07135 -0.02966 0.53561
 O428 O 0.03934 0.04898 0.56914
 O429 O 0.02462 0.03535 0.50570
 O430 O 0.02489 -0.00292 0.55180
 O431 O 0.02385 -0.00167 0.45670
 O432 O 0.02456 -0.03854 0.50105
 Zr433 Zr -0.04910 -0.00283 0.50376
 Zr434 Zr -0.00103 0.03411 0.46001
 Zr435 Zr -0.00006 -0.03838 0.54793
 Zr436 Zr 0.00051 0.03283 0.55240
 O437 O -0.00114 -0.08220 0.54167
 O438 O -0.00082 0.07669 0.54564
 O439 O -0.02520 -0.00267 0.55165
 O440 O -0.02535 0.03391 0.50694
 O441 O -0.02629 -0.00133 0.45565
 O442 O -0.02534 -0.03933 0.50220
 C443 C 0.06461 0.04293 0.56069
 C444 C 0.06365 -0.04944 0.55683
 C445 C 0.06237 0.04583 0.44945
 O446 O -0.00291 0.07787 0.46659
 O447 O -0.03932 0.04898 0.43994
 O448 O -0.07237 0.02381 0.47001
 C449 C -0.06470 0.04259 0.44734
 O450 O 0.03538 -0.05502 0.43399
 Zr451 Zr -0.00157 -0.03709 0.45548
 O452 O -0.07309 -0.02793 0.46931
 O453 O 0.00032 0.03196 0.40300
 O454 O -0.00170 -0.02867 0.39931
 O455 O -0.00302 -0.08111 0.46023
 O456 O -0.04047 -0.05036 0.43507
 C457 C -0.06574 -0.04482 0.44415
 O458 O -0.08021 0.01894 0.53293
 O459 O 0.00156 -0.03619 0.60493
 O460 O -0.07169 -0.02935 0.53833
 O461 O -0.03805 -0.05276 0.56976
 O462 O 0.00343 0.02624 0.60887
 O463 O -0.03641 0.04718 0.57804
 C464 C -0.06360 -0.04704 0.56221
 H465 H 0.03669 -0.00373 0.57370
 H466 H -0.03749 0.05056 0.50836
 H467 H -0.03677 -0.05650 0.50209
 H468 H 0.03577 -0.00141 0.43490
 H469 H 0.00435 0.08526 0.56905
 H470 H -0.00236 0.08610 0.44207
 H471 H -0.00065 0.05139 0.39405
 H472 H -0.00682 -0.04617 0.38674
 H473 H 0.00809 0.04439 0.62015
 H474 H 0.00231 -0.05565 0.61383
 H475 H -0.00157 -0.09026 0.56628
 H476 H -0.00779 -0.08874 0.43614
 H477 H -0.03173 0.06240 0.59506
 H478 H -0.09856 0.01224 0.52414
 H479 H 0.09749 -0.01532 0.48232
 H480 H 0.03062 -0.06675 0.41287
 Zr481 Zr 0.75278 0.20097 0.25387
 O482 O 0.73093 0.16994 0.28299
 O483 O 0.77791 0.17689 0.21957
 O484 O 0.72620 0.17767 0.22005
 O485 O 0.80257 0.21207 0.32008
 O486 O 0.70109 0.21069 0.18981
 O487 O 0.77919 0.17841 0.28861
 O488 O 0.80040 0.20942 0.18533
 O489 O 0.75137 0.22370 0.20570
 O490 O 0.78931 0.22468 0.25240
 O491 O 0.71605 0.22476 0.25685
 O492 O 0.75257 0.22495 0.30170
 Zr493 Zr 0.75144 0.29813 0.25394
 Zr494 Zr 0.71595 0.24900 0.20987
 Zr495 Zr 0.78830 0.25003 0.29807
 Zr496 Zr 0.78715 0.24837 0.20562
 O497 O 0.78606 0.25178 0.35506
 O498 O 0.77882 0.24819 0.14941
 O499 O 0.78856 0.27459 0.25114
 O500 O 0.75175 0.27384 0.20665
 O501 O 0.71466 0.27473 0.25550
 O502 O 0.75287 0.27503 0.30175
 C503 C 0.79482 0.18418 0.19445
 C504 C 0.79682 0.18652 0.31256
 C505 C 0.70746 0.18532 0.19728
 O506 O 0.71818 0.25027 0.15287
 O507 O 0.69872 0.28683 0.19164
 O508 O 0.72314 0.32061 0.22148
 C509 C 0.70429 0.31239 0.19916
 O510 O 0.70265 0.21383 0.32790
 Zr511 Zr 0.71709 0.25070 0.30225
 O512 O 0.72588 0.32219 0.28769
 O513 O 0.67218 0.24717 0.21626
 O514 O 0.67325 0.24946 0.29530
 O515 O 0.72361 0.25364 0.35875
 O516 O 0.70101 0.28958 0.31892
 C517 C 0.70712 0.31483 0.31046
 O518 O 0.77205 0.32914 0.22331
 O519 O 0.83213 0.24887 0.29199
 O520 O 0.77967 0.32144 0.28554
 O521 O 0.80574 0.28835 0.31432
 O522 O 0.83116 0.24686 0.21055
 O523 O 0.80515 0.28527 0.18414
 C524 C 0.79941 0.31375 0.30685
 H525 H 0.80646 0.21322 0.25239
 H526 H 0.75153 0.28573 0.18483
 H527 H 0.75367 0.28686 0.32363
 H528 H 0.69940 0.21264 0.25822
 H529 H 0.79634 0.24302 0.13693
 H530 H 0.69877 0.24931 0.14383
 H531 H 0.66399 0.24768 0.19170
 H532 H 0.66465 0.25468 0.31866
 H533 H 0.83882 0.24205 0.18651
 H534 H 0.84016 0.24847 0.31663
 H535 H 0.80550 0.25251 0.36402
 H536 H 0.70545 0.25835 0.36995
 H537 H 0.81692 0.28047 0.16310
 H538 H 0.76542 0.34750 0.23215
 H539 H 0.73763 0.15156 0.27428
 H540 H 0.68738 0.21856 0.34480
 Zr541 Zr 0.74777 0.79873 0.75426
 O542 O 0.76966 0.83006 0.78291
 O543 O 0.72229 0.82249 0.72000
 O544 O 0.77416 0.82188 0.72004
 O545 O 0.69842 0.78789 0.82104
 O546 O 0.79921 0.78873 0.68993
 O547 O 0.72148 0.82143 0.78903
 O548 O 0.69963 0.78965 0.68636
 O549 O 0.74897 0.77569 0.70629
 O550 O 0.71133 0.77488 0.75339
 O551 O 0.78459 0.77505 0.75718
 O552 O 0.74837 0.77506 0.80232
 Zr553 Zr 0.74943 0.70154 0.75527
 Zr554 Zr 0.78449 0.75051 0.71041
 Zr555 Zr 0.71270 0.74982 0.79928
 Zr556 Zr 0.71327 0.75089 0.70679
 O557 O 0.71534 0.74846 0.85625
 O558 O 0.72130 0.75081 0.65052
 O559 O 0.71224 0.72497 0.75257
 O560 O 0.74875 0.72554 0.70776
 O561 O 0.78614 0.72508 0.75625
 O562 O 0.74822 0.72493 0.80288
 C563 C 0.70516 0.81498 0.69518
 C564 C 0.70401 0.81341 0.81321
 C565 C 0.79283 0.81414 0.69723
 O566 O 0.78191 0.74889 0.65344
 O567 O 0.80171 0.71261 0.69233
 O568 O 0.77758 0.67895 0.72270
 C569 C 0.79626 0.68709 0.70013
 O570 O 0.79834 0.78648 0.82807
 Zr571 Zr 0.78392 0.74940 0.80282
 O572 O 0.77537 0.67778 0.78893
 O573 O 0.82830 0.75247 0.71640
 O574 O 0.82772 0.75085 0.79549
 O575 O 0.77773 0.74671 0.85939
 O576 O 0.80038 0.71068 0.81955
 C577 C 0.79434 0.68534 0.81136
 O578 O 0.72876 0.67023 0.72512
 O579 O 0.66883 0.75084 0.79365
 O580 O 0.72139 0.67836 0.78727
 O581 O 0.69539 0.71158 0.81595
 O582 O 0.66929 0.75218 0.71217
 O583 O 0.69531 0.71379 0.68571
 C584 C 0.70170 0.68614 0.80862
 H585 H 0.69413 0.78626 0.75344
 H586 H 0.74888 0.71351 0.68604
 H587 H 0.74760 0.71322 0.82485
 H588 H 0.80121 0.78723 0.75830
 H589 H 0.70369 0.75584 0.63814
 H590 H 0.80127 0.74985 0.64422
 H591 H 0.83634 0.75180 0.69178
 H592 H 0.83648 0.74582 0.81882
 H593 H 0.66143 0.75681 0.68817
 H594 H 0.66096 0.75138 0.81837
 H595 H 0.69596 0.74772 0.86542
 H596 H 0.79596 0.74211 0.87046
 H597 H 0.68342 0.71844 0.66472
 H598 H 0.73551 0.65196 0.73408
 H599 H 0.76284 0.84835 0.77408
 H600 H 0.81366 0.78190 0.84496
 Zr601 Zr 0.25158 0.29994 0.74654
 O602 O 0.22972 0.33096 0.71735
 O603 O 0.27651 0.32404 0.78107
 O604 O 0.22467 0.32305 0.78025
 O605 O 0.30172 0.28914 0.68068
 O606 O 0.19961 0.28984 0.81016
 O607 O 0.27807 0.32267 0.71205
 O608 O 0.29908 0.29151 0.81527
 O609 O 0.25011 0.27710 0.79462
 O610 O 0.28819 0.27635 0.74815
 O611 O 0.21498 0.27597 0.74321
 O612 O 0.25165 0.27603 0.69863
 Zr613 Zr 0.25072 0.20272 0.74609
 Zr614 Zr 0.21482 0.25164 0.79011
 Zr615 Zr 0.28748 0.25107 0.70239
 Zr616 Zr 0.28600 0.25255 0.79484
 O617 O 0.28541 0.24951 0.64538
 O618 O 0.27745 0.25265 0.85098
 O619 O 0.28770 0.22642 0.74924
 O620 O 0.25073 0.22694 0.79347
 O621 O 0.21383 0.22598 0.74439
 O622 O 0.25218 0.22592 0.69838
 C623 C 0.29344 0.31675 0.80621
 C624 C 0.29586 0.31466 0.68824
 C625 C 0.20585 0.31528 0.80283
 O626 O 0.21688 0.25032 0.84712
 O627 O 0.19775 0.21368 0.80815
 O628 O 0.22244 0.18006 0.77837
 C629 C 0.20348 0.18815 0.80061
 O630 O 0.20181 0.28698 0.67207
 Zr631 Zr 0.21630 0.25012 0.69773
 O632 O 0.22532 0.17863 0.71216
 O633 O 0.17106 0.25321 0.78339
 O634 O 0.17243 0.25120 0.70438
 O635 O 0.22302 0.24728 0.64127
 O636 O 0.20040 0.21121 0.68090
 C637 C 0.20657 0.18596 0.68933
 O638 O 0.27140 0.17173 0.77672
 O639 O 0.33128 0.25235 0.70879
 O640 O 0.27916 0.17958 0.71452
 O641 O 0.30515 0.21286 0.68601
 O642 O 0.33001 0.25420 0.79020
 O643 O 0.30406 0.21570 0.81639
 C644 C 0.29892 0.18740 0.69332
 H645 H 0.30530 0.28786 0.74832
 H646 H 0.25050 0.21502 0.81526
 H647 H 0.25310 0.21414 0.67647
 H648 H 0.19827 0.28802 0.74175
 H649 H 0.29489 0.25788 0.86360
 H650 H 0.19743 0.25114 0.85603
 H651 H 0.16279 0.25261 0.80788
 H652 H 0.16393 0.24600 0.68094
 H653 H 0.33759 0.25899 0.81431
 H654 H 0.33940 0.25285 0.68421
 H655 H 0.30488 0.24887 0.63652
 H656 H 0.20492 0.24250 0.62994
 H657 H 0.31572 0.22052 0.83754
 H658 H 0.26487 0.15336 0.76777
 H659 H 0.23632 0.34934 0.72620
 H660 H 0.18663 0.28222 0.65504
 Zr661 Zr 0.24723 0.70062 0.24569
 O662 O 0.26890 0.66941 0.21655
 O663 O 0.22209 0.67675 0.28015
 O664 O 0.27384 0.67732 0.27948
 O665 O 0.19731 0.71175 0.17962
 O666 O 0.29911 0.71034 0.30956
 O667 O 0.22062 0.67805 0.21107
 O668 O 0.19978 0.70948 0.31437
 O669 O 0.24883 0.72349 0.29379
 O670 O 0.21080 0.72449 0.24721
 O671 O 0.28404 0.72428 0.24255
 O672 O 0.24746 0.72448 0.19780
 Zr673 Zr 0.24895 0.79782 0.24540
 Zr674 Zr 0.28434 0.74866 0.28948
 Zr675 Zr 0.21182 0.74972 0.20147
 Zr676 Zr 0.21314 0.74831 0.29393
 O677 O 0.21400 0.75127 0.14448
 O678 O 0.22157 0.74825 0.35011
 O679 O 0.21176 0.77441 0.24835
 O680 O 0.24862 0.77364 0.29274
 O681 O 0.28564 0.77426 0.24379
 O682 O 0.24734 0.77458 0.19766
 C683 C 0.20525 0.68418 0.30531
 C684 C 0.20295 0.68617 0.18716
 C685 C 0.29265 0.68496 0.30218
 O686 O 0.28220 0.75004 0.34648
 O687 O 0.30172 0.78648 0.30767
 O688 O 0.27738 0.82028 0.27783
 C689 C 0.29623 0.81205 0.30015
 O690 O 0.29729 0.71311 0.17149
 Zr691 Zr 0.28302 0.75010 0.19710
 O692 O 0.27457 0.82166 0.21154
 O693 O 0.32809 0.74666 0.28293
 O694 O 0.32688 0.74867 0.20391
 O695 O 0.27641 0.75294 0.14062
 O696 O 0.29926 0.78887 0.18031
 C697 C 0.29328 0.81417 0.18874
 O698 O 0.22849 0.82901 0.27598
 O699 O 0.16800 0.74879 0.20770
 O700 O 0.22074 0.82114 0.21380
 O701 O 0.19451 0.78807 0.18517
 O702 O 0.16912 0.74697 0.28912
 O703 O 0.19531 0.78534 0.31536
 C704 C 0.20093 0.81347 0.19256
 H705 H 0.19361 0.71310 0.24731
 H706 H 0.24892 0.78558 0.31454
 H707 H 0.24656 0.78635 0.17575
 H708 H 0.30065 0.71209 0.24115
 H709 H 0.20406 0.74319 0.36266
 H710 H 0.30163 0.74903 0.35547
 H711 H 0.33632 0.74720 0.30745
 H712 H 0.33546 0.75380 0.18051
 H713 H 0.16148 0.74225 0.31321
 H714 H 0.15992 0.74835 0.18309
 H715 H 0.19454 0.75208 0.13556
 H716 H 0.29456 0.75754 0.12934
 H717 H 0.18357 0.78064 0.33647
 H718 H 0.23519 0.84731 0.26707
 H719 H 0.26214 0.65109 0.22534
 H720 H 0.31251 0.71774 0.15449
 Zr721 Zr 0.25145 0.79820 0.75385
 O722 O 0.27207 0.82922 0.72324
 O723 O 0.22588 0.82225 0.78759
 O724 O 0.22316 0.82070 0.72139
 O725 O 0.30576 0.78837 0.81419
 O726 O 0.19872 0.78695 0.69153
 O727 O 0.27969 0.82149 0.78545
 O728 O 0.20099 0.78963 0.81878
 O729 O 0.21466 0.77481 0.75538
 O730 O 0.25287 0.77509 0.80163
 O731 O 0.25175 0.77393 0.70653
 O732 O 0.28856 0.77465 0.75102
 Zr733 Zr 0.25276 0.70104 0.75369
 Zr734 Zr 0.21594 0.74910 0.70973
 Zr735 Zr 0.28830 0.75007 0.79793
 Zr736 Zr 0.21709 0.75076 0.80212
 O737 O 0.33212 0.74889 0.79185
 O738 O 0.17324 0.74950 0.79518
 O739 O 0.25256 0.72499 0.80154
 O740 O 0.21604 0.72484 0.75670
 O741 O 0.25136 0.72379 0.70554
 O742 O 0.28929 0.72474 0.75224
 C743 C 0.20710 0.81489 0.81033
 C744 C 0.29945 0.81378 0.80673
 C745 C 0.20431 0.81250 0.69907
 O746 O 0.17217 0.74727 0.71613
 O747 O 0.20109 0.71080 0.68963
 O748 O 0.22618 0.67776 0.71985
 C749 C 0.20746 0.68542 0.69707
 O750 O 0.30516 0.78537 0.68405
 Zr751 Zr 0.28714 0.74846 0.70548
 O752 O 0.27787 0.67697 0.71936
 O753 O 0.21816 0.75040 0.65273
 O754 O 0.27881 0.74833 0.64927
 O755 O 0.33114 0.74691 0.71040
 O756 O 0.30035 0.70952 0.68513
 C757 C 0.29477 0.68427 0.69422
 O758 O 0.23091 0.67000 0.78280
 O759 O 0.28605 0.75180 0.85492
 O760 O 0.27918 0.67845 0.78840
 O761 O 0.30256 0.71210 0.81990
 O762 O 0.22360 0.75370 0.85862
 O763 O 0.20265 0.71388 0.82775
 C764 C 0.29682 0.68655 0.81236
 H765 H 0.25367 0.78691 0.82352
 H766 H 0.19938 0.71272 0.75806
 H767 H 0.30644 0.71327 0.75221
 H768 H 0.25153 0.78583 0.68472
 H769 H 0.16465 0.75472 0.81855
 H770 H 0.16398 0.74780 0.69158
 H771 H 0.19875 0.74945 0.64370
 H772 H 0.29632 0.74316 0.63678
 H773 H 0.20545 0.75840 0.86982
 H774 H 0.30550 0.75252 0.86388
 H775 H 0.34015 0.74849 0.81649
 H776 H 0.33880 0.74211 0.68635
 H777 H 0.18740 0.71860 0.84468
 H778 H 0.23760 0.65162 0.77407
 H779 H 0.26544 0.84758 0.73210
 H780 H 0.31693 0.78057 0.66300
 Zr781 Zr 0.24843 0.20156 0.25367
 O782 O 0.22785 0.17019 0.22355
 O783 O 0.27426 0.17791 0.28757
 O784 O 0.27670 0.17891 0.22134
 O785 O 0.19424 0.21171 0.31410
 O786 O 0.30088 0.21252 0.19094
 O787 O 0.22035 0.17844 0.28567
 O788 O 0.29914 0.21089 0.31822
 O789 O 0.28513 0.22513 0.25473
 O790 O 0.24708 0.22507 0.30118
 O791 O 0.24787 0.22546 0.20607
 O792 O 0.21123 0.22497 0.25070
 Zr793 Zr 0.24674 0.29875 0.25229
 Zr794 Zr 0.28360 0.25045 0.20879
 Zr795 Zr 0.21155 0.24993 0.29732
 Zr796 Zr 0.28277 0.24955 0.30120
 O797 O 0.16770 0.25093 0.29144
 O798 O 0.32658 0.25096 0.29405
 O799 O 0.24720 0.27519 0.30043
 O800 O 0.28355 0.27510 0.25546
 O801 O 0.24808 0.27560 0.20441
 O802 O 0.21030 0.27489 0.25133
 C803 C 0.29313 0.18553 0.31011
 C804 C 0.20061 0.18626 0.30692
 C805 C 0.29544 0.18701 0.19882
 O806 O 0.32739 0.25243 0.21496
 O807 O 0.29837 0.28863 0.18826
 O808 O 0.27322 0.32184 0.21813
 C809 C 0.29197 0.31405 0.19546
 O810 O 0.19449 0.21364 0.18384
 Zr811 Zr 0.21238 0.25079 0.20484
 O812 O 0.22136 0.32243 0.21780
 O813 O 0.28117 0.24871 0.15182
 O814 O 0.22055 0.25055 0.14860
 O815 O 0.16839 0.25211 0.21001
 O816 O 0.19882 0.28950 0.18415
 C817 C 0.20433 0.31485 0.19290
 O818 O 0.26853 0.33017 0.28090
 O819 O 0.21400 0.24868 0.35431
 O820 O 0.22038 0.32151 0.28691
 O821 O 0.19725 0.28803 0.31893
 O822 O 0.27642 0.24705 0.35775
 O823 O 0.29712 0.28670 0.32634
 C824 C 0.20288 0.31354 0.31107
 H825 H 0.24640 0.21343 0.32320
 H826 H 0.30017 0.28728 0.25663
 H827 H 0.19311 0.28628 0.25127
 H828 H 0.24807 0.21338 0.18439
 H829 H 0.33528 0.24599 0.31744
 H830 H 0.33550 0.25171 0.19038
 H831 H 0.30055 0.24965 0.14268
 H832 H 0.20298 0.25554 0.13613
 H833 H 0.29462 0.24249 0.36894
 H834 H 0.19459 0.24796 0.36338
 H835 H 0.15976 0.25153 0.31611
 H836 H 0.16060 0.25668 0.18596
 H837 H 0.31243 0.28217 0.34329
 H838 H 0.26172 0.34843 0.27197
 H839 H 0.23459 0.15193 0.23261
 H840 H 0.18262 0.21823 0.16280
 Zr841 Zr 0.75163 0.70164 0.24574
 O842 O 0.77240 0.67055 0.27608
 O843 O 0.72609 0.67769 0.21185
 O844 O 0.72342 0.67892 0.27806
 O845 O 0.80582 0.71192 0.18532
 O846 O 0.69889 0.71249 0.30815
 O847 O 0.77992 0.67858 0.21384
 O848 O 0.70106 0.71038 0.18093
 O849 O 0.71477 0.72496 0.24440
 O850 O 0.75293 0.72499 0.19814
 O851 O 0.75187 0.72573 0.29323
 O852 O 0.78866 0.72531 0.24875
 Zr853 Zr 0.75260 0.79886 0.24666
 Zr854 Zr 0.71597 0.75047 0.29024
 Zr855 Zr 0.78828 0.75009 0.20202
 Zr856 Zr 0.71707 0.74923 0.19785
 O857 O 0.83210 0.75131 0.20815
 O858 O 0.67323 0.75034 0.20480
 O859 O 0.75245 0.77510 0.19862
 O860 O 0.71596 0.77495 0.24346
 O861 O 0.75130 0.77588 0.29463
 O862 O 0.78920 0.77524 0.24791
 C863 C 0.70724 0.68510 0.18920
 C864 C 0.79960 0.68644 0.19253
 C865 C 0.70454 0.68698 0.30043
 O866 O 0.67219 0.75217 0.28384
 O867 O 0.70093 0.78863 0.31063
 O868 O 0.72588 0.82190 0.28068
 C869 C 0.70718 0.81408 0.30339
 O870 O 0.80530 0.71436 0.31570
 Zr871 Zr 0.78717 0.75130 0.29449
 O872 O 0.77767 0.82283 0.28116
 O873 O 0.71826 0.74893 0.34722
 O874 O 0.77886 0.75120 0.35069
 O875 O 0.83116 0.75296 0.28956
 O876 O 0.80032 0.79019 0.31508
 C877 C 0.79465 0.81547 0.30619
 O878 O 0.73065 0.82998 0.21777
 O879 O 0.78598 0.74870 0.14502
 O880 O 0.77896 0.82167 0.21211
 O881 O 0.80245 0.78821 0.18040
 O882 O 0.72355 0.74654 0.14133
 O883 O 0.70251 0.78617 0.17247
 C884 C 0.79664 0.81372 0.18812
 H885 H 0.75374 0.71328 0.17616
 H886 H 0.69926 0.78702 0.24218
 H887 H 0.80632 0.78674 0.24802
 H888 H 0.75170 0.71373 0.31496
 H889 H 0.66463 0.74521 0.18140
 H890 H 0.66402 0.75150 0.30838
 H891 H 0.69885 0.74977 0.35627
 H892 H 0.79636 0.75637 0.36322
 H893 H 0.70541 0.74182 0.13010
 H894 H 0.80541 0.74808 0.13604
 H895 H 0.84012 0.75188 0.18352
 H896 H 0.83883 0.75768 0.31364
 H897 H 0.68726 0.78148 0.15552
 H898 H 0.73729 0.84833 0.22666
 H899 H 0.76582 0.65222 0.26708
 H900 H 0.81707 0.71911 0.33678
 Zr901 Zr 0.74900 0.29893 0.74697
 O902 O 0.72865 0.33020 0.77753
 O903 O 0.77454 0.32267 0.71289
 O904 O 0.77756 0.32146 0.77911
 O905 O 0.69439 0.28907 0.68702
 O906 O 0.80197 0.28772 0.80899
 O907 O 0.72072 0.32220 0.71539
 O908 O 0.79913 0.28977 0.68171
 O909 O 0.78566 0.27534 0.74530
 O910 O 0.74725 0.27558 0.69934
 O911 O 0.74878 0.27488 0.79443
 O912 O 0.71179 0.27556 0.75020
 Zr913 Zr 0.74721 0.20174 0.74769
 Zr914 Zr 0.78447 0.24986 0.79112
 Zr915 Zr 0.71171 0.25075 0.70343
 Zr916 Zr 0.78290 0.25106 0.69873
 O917 O 0.66791 0.24987 0.70986
 O918 O 0.82678 0.24961 0.70535
 O919 O 0.74732 0.22547 0.69970
 O920 O 0.78403 0.22536 0.74429
 O921 O 0.74895 0.22473 0.79570
 O922 O 0.71080 0.22564 0.74928
 C923 C 0.79319 0.31510 0.69006
 C924 C 0.70085 0.31448 0.69426
 C925 C 0.79649 0.31328 0.80135
 O926 O 0.82820 0.24778 0.78439
 O927 O 0.79925 0.21157 0.81131
 O928 O 0.77386 0.17851 0.78148
 C929 C 0.79274 0.18618 0.80406
 O930 O 0.69556 0.28667 0.81729
 Zr931 Zr 0.71328 0.24958 0.79589
 O932 O 0.72212 0.17798 0.78233
 O933 O 0.78249 0.25143 0.84812
 O934 O 0.72189 0.24960 0.85203
 O935 O 0.66925 0.24829 0.79130
 O936 O 0.69991 0.21079 0.81651
 C937 C 0.70532 0.18547 0.80751
 O938 O 0.76878 0.17045 0.71861
 O939 O 0.71373 0.25215 0.64642
 O940 O 0.72050 0.17911 0.71329
 O941 O 0.69711 0.21273 0.68181
 O942 O 0.77615 0.25377 0.64226
 O943 O 0.79706 0.21399 0.67321
 C944 C 0.70277 0.18718 0.68943
 H945 H 0.74641 0.28729 0.67739
 H946 H 0.80062 0.21316 0.74287
 H947 H 0.69360 0.21427 0.74949
 H948 H 0.74916 0.28688 0.81617
 H949 H 0.83529 0.25466 0.68189
 H950 H 0.83650 0.24838 0.80888
 H951 H 0.80194 0.25042 0.85702
 H952 H 0.70441 0.24459 0.86469
 H953 H 0.79428 0.25833 0.63090
 H954 H 0.69426 0.25294 0.63759
 H955 H 0.65977 0.24938 0.68529
 H956 H 0.66167 0.24364 0.81543
 H957 H 0.81224 0.21856 0.65613
 H958 H 0.76204 0.15215 0.72750
 H959 H 0.73534 0.34848 0.76852
 H960 H 0.68389 0.28203 0.83849
 C961 C 0.12056 0.40791 0.88574
 N962 N 0.13954 0.39342 0.90535
 N963 N 0.15758 0.37643 0.88908
 C964 C 0.15724 0.37342 0.85268
 N965 N 0.13832 0.38797 0.83306
 N966 N 0.12027 0.40496 0.84933
 C967 C 0.10009 0.42494 0.90349
 C968 C 0.08254 0.43857 0.91881
 C969 C 0.17541 0.35372 0.83534
 C970 C 0.18984 0.33653 0.82063
 C971 C 0.37712 0.59211 0.38544
 N972 N 0.37748 0.59494 0.34903
 N973 N 0.35949 0.61192 0.33267
 C974 C 0.34057 0.62655 0.35220
 N975 N 0.34017 0.62365 0.38861
 N976 N 0.35816 0.60668 0.40497
 C977 C 0.39760 0.57521 0.40330
 C978 C 0.41515 0.56173 0.41871
 C979 C 0.32260 0.64632 0.33480
 C980 C 0.30838 0.66360 0.32003
 C981 C 0.87730 0.90699 0.61399
 N982 N 0.85888 0.89185 0.59429
 N983 N 0.84090 0.87483 0.61055
 C984 C 0.84075 0.87245 0.64702
 N985 N 0.85912 0.88764 0.66673
 N986 N 0.87711 0.90466 0.65047
 C987 C 0.89775 0.92401 0.59631
 C988 C 0.91527 0.93762 0.58104
 C989 C 0.82277 0.85268 0.66440
 C990 C 0.80855 0.83542 0.67922
 C991 C 0.62295 0.09221 0.11461
 N992 N 0.62254 0.09531 0.15099
 N993 N 0.64055 0.11235 0.16722
 C994 C 0.65951 0.12679 0.14757
 N995 N 0.65996 0.12364 0.11120
 N996 N 0.64196 0.10659 0.09498
 C997 C 0.60247 0.07526 0.09688
 C998 C 0.58492 0.06175 0.08153
 C999 C 0.67748 0.14663 0.16481
 C1000 C 0.69171 0.16397 0.17948
 C1001 C 0.87692 0.09069 0.39761
 N1002 N 0.87382 0.09024 0.36123
 N1003 N 0.85684 0.10829 0.34499
 C1004 C 0.84247 0.12735 0.36462
 N1005 N 0.84551 0.12775 0.40100
 N1006 N 0.86248 0.10970 0.41725
 C1007 C 0.89669 0.07266 0.41488
 C1008 C 0.91397 0.05838 0.42955
 C1009 C 0.82556 0.14785 0.34688
 C1010 C 0.81205 0.16540 0.33153
 C1011 C 0.37697 0.40979 0.60345
 N1012 N 0.36166 0.39150 0.58377
 N1013 N 0.34446 0.37370 0.60005
 C1014 C 0.34205 0.37363 0.63652
 N1015 N 0.35730 0.39197 0.65619
 N1016 N 0.37450 0.40977 0.63991
 C1017 C 0.39688 0.42761 0.58604
 C1018 C 0.41422 0.44174 0.57124
 C1019 C 0.32488 0.35331 0.65423
 C1020 C 0.31120 0.33583 0.66948
 C1021 C 0.62345 0.90944 0.89725
 N1022 N 0.63823 0.89087 0.91713
 N1023 N 0.65532 0.87281 0.90109
 C1024 C 0.65813 0.87276 0.86467
 N1025 N 0.64340 0.89137 0.84480
 N1026 N 0.62631 0.90943 0.86084
 C1027 C 0.60358 0.92748 0.91435
 C1028 C 0.58625 0.94175 0.92894
 C1029 C 0.67515 0.85221 0.84718
 C1030 C 0.68873 0.83461 0.83201
 C1031 C 0.12257 0.59052 0.10149
 N1032 N 0.13750 0.60920 0.08199
 N1033 N 0.15443 0.62721 0.09843
 C1034 C 0.15695 0.62712 0.13490
 N1035 N 0.14207 0.60839 0.15439
 N1036 N 0.12514 0.59038 0.13795
 C1037 C 0.10289 0.57245 0.08394
 C1038 C 0.08568 0.55814 0.06905
 C1039 C 0.17394 0.64756 0.15281
 C1040 C 0.18756 0.66506 0.16821
 C1041 C 0.37613 0.90943 0.10826
 N1042 N 0.35974 0.89255 0.08797
 N1043 N 0.34212 0.87489 0.10370
 C1044 C 0.34039 0.87361 0.14018
 N1045 N 0.35670 0.89055 0.16047
 N1046 N 0.37432 0.90821 0.14474
 C1047 C 0.39644 0.92692 0.09141
 C1048 C 0.41409 0.94090 0.07715
 C1049 C 0.32294 0.85329 0.15710
 C1050 C 0.30900 0.83566 0.17146
 C1051 C 0.62442 0.41016 0.39117
 N1052 N 0.64113 0.39357 0.41137
 N1053 N 0.65876 0.37596 0.39554
 C1054 C 0.66019 0.37444 0.35905
 N1055 N 0.64355 0.39111 0.33884
 N1056 N 0.62591 0.40872 0.35468
 C1057 C 0.60406 0.42755 0.40815
 C1058 C 0.58637 0.44141 0.42252
 C1059 C 0.67760 0.35410 0.34206
 C1060 C 0.69148 0.33642 0.32770
 C1061 C 0.87816 0.58994 0.89042
 N1062 N 0.87668 0.59187 0.85397
 N1063 N 0.85896 0.60961 0.83852
 C1064 C 0.84221 0.62593 0.85907
 N1065 N 0.84364 0.62394 0.89553
 N1066 N 0.86135 0.60621 0.91097
 C1067 C 0.89849 0.57226 0.90707
 C1068 C 0.91610 0.55813 0.92125
 C1069 C 0.82452 0.64628 0.84249
 C1070 C 0.81035 0.66389 0.82840
 C1071 C 0.12412 0.09016 0.60903
 N1072 N 0.14064 0.10684 0.58870
 N1073 N 0.15822 0.12458 0.60440
 C1074 C 0.15979 0.12614 0.64088
 N1075 N 0.14335 0.10939 0.66121
 N1076 N 0.12576 0.09165 0.64551
 C1077 C 0.10381 0.07263 0.59219
 C1078 C 0.08616 0.05865 0.57790
 C1079 C 0.17716 0.14659 0.65774
 C1080 C 0.19099 0.16433 0.67206
 C1081 C 0.12288 0.40954 0.39606
 N1082 N 0.13802 0.39113 0.41572
 N1083 N 0.15498 0.37308 0.39941
 C1084 C 0.15729 0.37289 0.36294
 N1085 N 0.14221 0.39136 0.34328
 N1086 N 0.12525 0.40940 0.35958
 C1087 C 0.10314 0.42753 0.41347
 C1088 C 0.08590 0.44177 0.42830
 C1089 C 0.17418 0.35236 0.34521
 C1090 C 0.18767 0.33476 0.32992
 C1091 C 0.37716 0.59095 0.89744
 N1092 N 0.37409 0.59049 0.86106
 N1093 N 0.35705 0.60847 0.84480
 C1094 C 0.34260 0.62747 0.86441
 N1095 N 0.34561 0.62789 0.90080
 N1096 N 0.36264 0.60990 0.91706
 C1097 C 0.39695 0.57295 0.91474
 C1098 C 0.41422 0.55868 0.92944
 C1099 C 0.32562 0.64792 0.84665
 C1100 C 0.31208 0.66544 0.83131
 C1101 C 0.62235 0.09109 0.60466
 N1102 N 0.63739 0.10956 0.58497
 N1103 N 0.65431 0.12768 0.60124
 C1104 C 0.65669 0.12791 0.63772
 N1105 N 0.64170 0.10940 0.65740
 N1106 N 0.62478 0.09128 0.64114
 C1107 C 0.60270 0.07291 0.58726
 C1108 C 0.58552 0.05851 0.57247
 C1109 C 0.67369 0.14845 0.65541
 C1110 C 0.68733 0.16601 0.67066
 C1111 C 0.87727 0.90925 0.10330
 N1112 N 0.86214 0.89080 0.08363
 N1113 N 0.84504 0.87290 0.09991
 C1114 C 0.84256 0.87288 0.13637
 N1115 N 0.85763 0.89138 0.15604
 N1116 N 0.87473 0.90928 0.13976
 C1117 C 0.89709 0.92717 0.08591
 C1118 C 0.91437 0.94139 0.07113
 C1119 C 0.82550 0.85248 0.15409
 C1120 C 0.81191 0.83494 0.16935
 C1121 C 0.87705 0.09285 0.88674
 N1122 N 0.87700 0.09544 0.85030
 N1123 N 0.85906 0.11257 0.83412
 C1124 C 0.84061 0.12762 0.85387
 N1125 N 0.84062 0.12497 0.89031
 N1126 N 0.85855 0.10784 0.90650
 C1127 C 0.89749 0.07577 0.90437
 C1128 C 0.91503 0.06215 0.91958
 C1129 C 0.82269 0.14750 0.83661
 C1130 C 0.80848 0.16484 0.82191
 C1131 C 0.12317 0.59225 0.61407
 N1132 N 0.12294 0.59507 0.65049
 N1133 N 0.14089 0.61214 0.66677
 C1134 C 0.15963 0.62689 0.64714
 N1135 N 0.15991 0.62400 0.61073
 N1136 N 0.14196 0.60693 0.59445
 C1137 C 0.10271 0.57528 0.59632
 C1138 C 0.08516 0.56176 0.58099
 C1139 C 0.17755 0.64674 0.66447
 C1140 C 0.19173 0.66407 0.67920
 C1141 C 0.62259 0.90668 0.38748
 N1142 N 0.64100 0.89141 0.40699
 N1143 N 0.65893 0.87441 0.39053
 C1144 C 0.65904 0.87218 0.35403
 N1145 N 0.64068 0.88751 0.33451
 N1146 N 0.62274 0.90451 0.35097
 C1147 C 0.60221 0.92373 0.40536
 C1148 C 0.58471 0.93738 0.42071
 C1149 C 0.67704 0.85248 0.33641
 C1150 C 0.69132 0.83530 0.32146
 C1151 C 0.37687 0.40693 0.11302
 N1152 N 0.35864 0.39173 0.09310
 N1153 N 0.34057 0.37468 0.10916
 C1154 C 0.34015 0.37235 0.14563
 N1155 N 0.35832 0.38761 0.16555
 N1156 N 0.37640 0.40465 0.14949
 C1157 C 0.39742 0.42398 0.09556
 C1158 C 0.41501 0.43760 0.08047
 C1159 C 0.32207 0.35256 0.16282
 C1160 C 0.30777 0.33531 0.17752
 C1161 C 0.62442 0.58955 0.10905
 N1162 N 0.64096 0.60619 0.08869
 N1163 N 0.65861 0.62388 0.10435
 C1164 C 0.66022 0.62544 0.14082
 N1165 N 0.64376 0.60873 0.16119
 N1166 N 0.62610 0.59104 0.14553
 C1167 C 0.60404 0.57208 0.09225
 C1168 C 0.58634 0.55816 0.07797
 C1169 C 0.67767 0.64584 0.15764
 C1170 C 0.69157 0.66354 0.17194
 C1171 C 0.12427 0.91031 0.89070
 N1172 N 0.14118 0.89395 0.91096
 N1173 N 0.15882 0.87631 0.89519
 C1174 C 0.16007 0.87453 0.85871
 N1175 N 0.14323 0.89096 0.83845
 N1176 N 0.12558 0.90859 0.85421
 C1177 C 0.10392 0.92772 0.90765
 C1178 C 0.08624 0.94160 0.92203
 C1179 C 0.17751 0.85417 0.84182
 C1180 C 0.19142 0.83648 0.82752
 C1181 C 0.37643 0.09065 0.39100
 N1182 N 0.37508 0.09223 0.35450
 N1183 N 0.35745 0.10984 0.33866
 C1184 C 0.34065 0.12638 0.35885
 N1185 N 0.34194 0.12474 0.39534
 N1186 N 0.35957 0.10713 0.41118
 C1187 C 0.39667 0.07311 0.40804
 C1188 C 0.41421 0.05908 0.42250
 C1189 C 0.32308 0.14660 0.34185
 C1190 C 0.30901 0.16414 0.32745
 C1191 C 0.87616 0.40990 0.60891
 N1192 N 0.85967 0.39304 0.58874
 N1193 N 0.84201 0.37549 0.60461
 C1194 C 0.84034 0.37430 0.64110
 N1195 N 0.85677 0.39123 0.66127
 N1196 N 0.87443 0.40877 0.64540
 C1197 C 0.89650 0.42728 0.59192
 C1198 C 0.91415 0.44118 0.57754
 C1199 C 0.82286 0.35408 0.65816
 C1200 C 0.80891 0.33652 0.67264
 C1201 C 0.88057 0.59384 0.10215
 N1202 N 0.88128 0.59457 0.13876
 N1203 N 0.86455 0.61170 0.15702
 C1204 C 0.84657 0.62866 0.13925
 N1205 N 0.84582 0.62789 0.10265
 N1206 N 0.86256 0.61076 0.08438
 C1207 C 0.89971 0.57645 0.08249
 C1208 C 0.91645 0.56233 0.06644
 C1209 C 0.82957 0.64822 0.15877
 C1210 C 0.81569 0.66528 0.17462
 C1211 C 0.61966 0.40726 0.60500
 N1212 N 0.63830 0.39110 0.58712
 N1213 N 0.65515 0.37400 0.60522
 C1214 C 0.65389 0.37252 0.64175
 N1215 N 0.63529 0.38873 0.65964
 N1216 N 0.61844 0.40583 0.64154
 C1217 C 0.60040 0.42452 0.58546
 C1218 C 0.58355 0.43850 0.56946
 C1219 C 0.67094 0.35291 0.66100
 C1220 C 0.68482 0.33576 0.67662
 C1221 C 0.11934 0.09349 0.39605
 N1222 N 0.11872 0.09444 0.35946
 N1223 N 0.13557 0.11159 0.34148
 C1224 C 0.15359 0.12833 0.35954
 N1225 N 0.15426 0.12734 0.39613
 N1226 N 0.13740 0.11019 0.41411
 C1227 C 0.10007 0.07613 0.41541
 C1228 C 0.08324 0.06203 0.43127
 C1229 C 0.17067 0.14795 0.34034
 C1230 C 0.18457 0.16506 0.32470
 C1231 C 0.38084 0.90683 0.89518
 N1232 N 0.36208 0.89094 0.91321
 N1233 N 0.34519 0.87376 0.89527
 C1234 C 0.34654 0.87194 0.85877
 N1235 N 0.36525 0.88788 0.84074
 N1236 N 0.38214 0.90506 0.85867
 C1237 C 0.40012 0.92415 0.91456
 C1238 C 0.41697 0.93819 0.93047
 C1239 C 0.32945 0.85226 0.83972
 C1240 C 0.31553 0.83506 0.82425
 C1241 C 0.12182 0.90360 0.60901
 N1242 N 0.13798 0.88503 0.59100
 N1243 N 0.15517 0.86820 0.60898
 C1244 C 0.15675 0.86942 0.64551
 N1245 N 0.14064 0.88803 0.66351
 N1246 N 0.12344 0.90486 0.64554
 C1247 C 0.10213 0.92063 0.58990
 C1248 C 0.08493 0.93451 0.57438
 C1249 C 0.17410 0.85018 0.66491
 C1250 C 0.18816 0.83336 0.68083
 C1251 C 0.62174 0.59610 0.39039
 N1252 N 0.63874 0.61389 0.40841
 N1253 N 0.65602 0.63059 0.39039
 C1254 C 0.65685 0.63002 0.35380
 N1255 N 0.63989 0.61218 0.33577
 N1256 N 0.62262 0.59548 0.35379
 C1257 C 0.60202 0.57917 0.40964
 C1258 C 0.58483 0.56536 0.42528
 C1259 C 0.67429 0.64920 0.33440
 C1260 C 0.68840 0.66602 0.31854
 C1261 C 0.37829 0.09585 0.10936
 N1262 N 0.37726 0.09526 0.14594
 N1263 N 0.35998 0.11206 0.16385
 C1264 C 0.34319 0.12996 0.14571
 N1265 N 0.34417 0.13050 0.10912
 N1266 N 0.36146 0.11371 0.09122
 C1267 C 0.39805 0.07887 0.09026
 C1268 C 0.41527 0.06504 0.07471
 C1269 C 0.32575 0.14921 0.16498
 C1270 C 0.31163 0.16607 0.18076
 C1271 C 0.87965 0.40496 0.89009
 N1272 N 0.86337 0.38669 0.90840
 N1273 N 0.84613 0.36971 0.89070
 C1274 C 0.84461 0.37043 0.85414
 N1275 N 0.86085 0.38874 0.83583
 N1276 N 0.87810 0.40573 0.85353
 C1277 C 0.89940 0.42219 0.90897
 C1278 C 0.91667 0.43617 0.92433
 C1279 C 0.82710 0.35107 0.83502
 C1280 C 0.81287 0.33419 0.81935
 C1281 C 0.62534 0.09047 0.89316
 N1282 N 0.64170 0.10795 0.91264
 N1283 N 0.65901 0.12545 0.89607
 C1284 C 0.66047 0.12599 0.85953
 N1285 N 0.64419 0.10844 0.84006
 N1286 N 0.62687 0.09093 0.85663
 C1287 C 0.60511 0.07337 0.91090
 C1288 C 0.58747 0.05992 0.92605
 C1289 C 0.67735 0.14633 0.84164
 C1290 C 0.69062 0.16398 0.82629
 C1291 C 0.37468 0.58948 0.60799
 N1292 N 0.37379 0.59032 0.64454
 N1293 N 0.35643 0.60767 0.66135
 C1294 C 0.33945 0.62467 0.64210
 N1295 N 0.34026 0.62375 0.60554
 N1296 N 0.35762 0.60640 0.58874
 C1297 C 0.39497 0.57264 0.58994
 C1298 C 0.41266 0.55942 0.57454
 C1299 C 0.32260 0.64496 0.66015
 C1300 C 0.30937 0.66265 0.67554
 C1301 C 0.12396 0.40927 0.10633
 N1302 N 0.14096 0.39224 0.08712
 N1303 N 0.15827 0.37486 0.10396
 C1304 C 0.15909 0.37400 0.14052
 N1305 N 0.14216 0.39110 0.15974
 N1306 N 0.12485 0.40848 0.14289
 C1307 C 0.10383 0.42632 0.08821
 C1308 C 0.08632 0.43976 0.07275
 C1309 C 0.17607 0.35382 0.15864
 C1310 C 0.18947 0.33628 0.17410
 C1311 C 0.87470 0.91031 0.39220
 N1312 N 0.85780 0.89331 0.41154
 N1313 N 0.84042 0.87592 0.39483
 C1314 C 0.83943 0.87503 0.35828
 N1315 N 0.85625 0.89212 0.33893
 N1316 N 0.87363 0.90951 0.35565
 C1317 C 0.89500 0.92723 0.41014
 C1318 C 0.91267 0.94051 0.42548
 C1319 C 0.82254 0.85473 0.34030
 C1320 C 0.80928 0.83705 0.32492
 C1321 C 0.87869 0.59603 0.60987
 N1322 N 0.87764 0.59523 0.64644
 N1323 N 0.86045 0.61201 0.66450
 C1324 C 0.84377 0.63012 0.64652
 N1325 N 0.84477 0.63087 0.60994
 N1326 N 0.86197 0.61409 0.59189
 C1327 C 0.89836 0.57905 0.59061
 C1328 C 0.91552 0.56522 0.57495
 C1329 C 0.82643 0.64935 0.66597
 C1330 C 0.81238 0.66618 0.68190
 C1331 C 0.62158 0.40321 0.10897
 N1332 N 0.63786 0.38474 0.09099
 N1333 N 0.65510 0.36798 0.10900
 C1334 C 0.65660 0.36917 0.14553
 N1335 N 0.64036 0.38769 0.16351
 N1336 N 0.62312 0.40445 0.14550
 C1337 C 0.60187 0.42021 0.08980
 C1338 C 0.58470 0.43408 0.07425
 C1339 C 0.67400 0.35000 0.16497
 C1340 C 0.68811 0.33323 0.18091
 C1341 C 0.37846 0.90342 0.39084
 N1342 N 0.36208 0.88499 0.40872
 N1343 N 0.34504 0.86807 0.39060
 C1344 C 0.34383 0.86902 0.35403
 N1345 N 0.36016 0.88749 0.33615
 N1346 N 0.37720 0.90442 0.35427
 C1347 C 0.39797 0.92061 0.41018
 C1348 C 0.41504 0.93460 0.42588
 C1349 C 0.32652 0.84974 0.33447
 C1350 C 0.31245 0.83292 0.31847
 C1351 C 0.12135 0.09676 0.89076
 N1352 N 0.13782 0.11507 0.90875
 N1353 N 0.15492 0.13194 0.89072
 C1354 C 0.15610 0.13104 0.85415
 N1355 N 0.13967 0.11269 0.83616
 N1356 N 0.12257 0.09581 0.85420
 C1357 C 0.10177 0.07965 0.90999
 C1358 C 0.08467 0.06571 0.92559
 C1359 C 0.17338 0.15033 0.83471
 C1360 C 0.18739 0.16720 0.81880
 C1361 C 0.11981 0.90667 0.10392
 N1362 N 0.13805 0.89019 0.08584
 N1363 N 0.15489 0.87298 0.10378
 C1364 C 0.15401 0.87170 0.14035
 N1365 N 0.13581 0.88822 0.15843
 N1366 N 0.11897 0.90544 0.14049
 C1367 C 0.10054 0.92405 0.08458
 C1368 C 0.08367 0.93813 0.06875
 C1369 C 0.17104 0.85199 0.15946
 C1370 C 0.18490 0.83478 0.17499
 C1371 C 0.88053 0.40693 0.39549
 N1372 N 0.86206 0.39071 0.41352
 N1373 N 0.84523 0.37350 0.39556
 C1374 C 0.84634 0.37198 0.35903
 N1375 N 0.86477 0.38824 0.34099
 N1376 N 0.88160 0.40545 0.35895
 C1377 C 0.89980 0.42427 0.41487
 C1378 C 0.91666 0.43831 0.43076
 C1379 C 0.82932 0.35226 0.33992
 C1380 C 0.81546 0.33505 0.32441
 C1381 C 0.38030 0.09424 0.60448
 N1382 N 0.38092 0.09528 0.64107
 N1383 N 0.36412 0.11256 0.65901
 C1384 C 0.34618 0.12935 0.64092
 N1385 N 0.34553 0.12827 0.60433
 N1386 N 0.36233 0.11100 0.58639
 C1387 C 0.39950 0.07671 0.58514
 C1388 C 0.41630 0.06248 0.56933
 C1389 C 0.32908 0.14904 0.66010
 C1390 C 0.31512 0.16618 0.67568
 C1391 C 0.61989 0.59331 0.89677
 N1392 N 0.61946 0.59434 0.86018
 N1393 N 0.63646 0.61149 0.84242
 C1394 C 0.65442 0.62815 0.86071
 N1395 N 0.65489 0.62707 0.89730
 N1396 N 0.63790 0.60992 0.91505
 C1397 C 0.60048 0.57595 0.91590
 C1398 C 0.58355 0.56186 0.93158
 C1399 C 0.67163 0.64778 0.84174
 C1400 C 0.68561 0.66491 0.82626
 C1401 C 0.37420 0.41117 0.89179
 N1402 N 0.35696 0.39456 0.91119
 N1403 N 0.33937 0.37734 0.89454
 C1404 C 0.33852 0.37624 0.85799
 N1405 N 0.35568 0.39294 0.83859
 N1406 N 0.37327 0.41015 0.85524
 C1407 C 0.39469 0.42788 0.90970
 C1408 C 0.41248 0.44099 0.92505
 C1409 C 0.32145 0.35603 0.84012
 C1410 C 0.30810 0.33838 0.82483
 C1411 C 0.87484 0.08926 0.10860
 N1412 N 0.87414 0.09038 0.14515
 N1413 N 0.85677 0.10775 0.16189
 C1414 C 0.83960 0.12452 0.14257
 N1415 N 0.84022 0.12333 0.10602
 N1416 N 0.85759 0.10595 0.08928
 C1417 C 0.89513 0.07240 0.09057
 C1418 C 0.91280 0.05917 0.07516
 C1419 C 0.82271 0.14484 0.16052
 C1420 C 0.80946 0.16254 0.17584
 C1421 C 0.62421 0.90951 0.60974
 N1422 N 0.64152 0.89293 0.59033
 N1423 N 0.65894 0.87555 0.60697
 C1424 C 0.65957 0.87423 0.64351
 N1425 N 0.64232 0.89087 0.66292
 N1426 N 0.62490 0.90826 0.64628
 C1427 C 0.60399 0.92656 0.59178
 C1428 C 0.58643 0.93999 0.57640
 C1429 C 0.67669 0.85402 0.66137
 C1430 C 0.69020 0.83645 0.67662
 C1431 C 0.12520 0.58970 0.39173
 N1432 N 0.14216 0.60674 0.41097
 N1433 N 0.15951 0.62406 0.39414
 C1434 C 0.16040 0.62484 0.35758
 N1435 N 0.14352 0.60771 0.33835
 N1436 N 0.12616 0.59039 0.35518
 C1437 C 0.10495 0.57283 0.40980
 C1438 C 0.08731 0.55957 0.42521
 C1439 C 0.17730 0.64505 0.33949
 C1440 C 0.19057 0.66266 0.32406
   
