data_POSCAR
  _audit_creation_date              2014-09-24
  _audit_creation_method            'ToBaCCo'
  _symmetry_space_group_name_H-M    'P1'
  _symmetry_Int_Tables_number       1
  _symmetry_cell_setting            triclinic
  loop_
  _symmetry_equiv_pos_as_xyz
 x,y,z
_cell_length_a 65.8476
_cell_length_b 65.8639
_cell_length_c 65.9161
_cell_angle_alpha 89.962300
_cell_angle_beta 89.983000
_cell_angle_gamma 90.001500
loop_
  _atom_site_label
  _atom_site_type_symbol
  _atom_site_fract_x
  _atom_site_fract_y
  _atom_site_fract_z
C1 C 0.19200 0.22039 0.21441
 C2 C 0.20332 0.22606 0.19730
 C3 C 0.22018 0.21486 0.19167
 C4 C 0.22593 0.19781 0.20306
 C5 C 0.21476 0.19222 0.21995
 C6 C 0.19767 0.20357 0.22565
 C7 C 0.17494 0.22843 0.22341
 N8 N 0.17014 0.21688 0.23980
 C9 C 0.18395 0.20163 0.24129
 C10 C 0.22378 0.17519 0.22802
 N11 N 0.24012 0.17033 0.21643
 C12 C 0.24156 0.18407 0.20113
 C13 C 0.22817 0.22384 0.17457
 N14 N 0.21655 0.24016 0.16972
 C15 C 0.20131 0.24164 0.18353
 H16 H 0.16661 0.24169 0.21840
 H17 H 0.18401 0.19000 0.25290
 H18 H 0.21881 0.16692 0.24133
 H19 H 0.25313 0.18407 0.18945
 H20 H 0.24145 0.21885 0.16626
 H21 H 0.18963 0.25321 0.18355
 C22 C 0.69187 0.72014 0.71451
 C23 C 0.70321 0.72584 0.69741
 C24 C 0.72006 0.71462 0.69177
 C25 C 0.72578 0.69754 0.70313
 C26 C 0.71459 0.69193 0.72000
 C27 C 0.69751 0.70329 0.72571
 C28 C 0.67481 0.72818 0.72352
 N29 N 0.67000 0.71659 0.73988
 C30 C 0.68379 0.70133 0.74134
 C31 C 0.72359 0.67487 0.72804
 N32 N 0.73993 0.67002 0.71644
 C33 C 0.74139 0.68379 0.70117
 C34 C 0.72808 0.72361 0.67470
 N35 N 0.71648 0.73996 0.66987
 C36 C 0.70123 0.74144 0.68366
 H37 H 0.66650 0.74145 0.71854
 H38 H 0.68383 0.68967 0.75292
 H39 H 0.71860 0.66658 0.74132
 H40 H 0.75297 0.68380 0.68950
 H41 H 0.74135 0.71862 0.66639
 H42 H 0.68957 0.75303 0.68369
 C43 C 0.30733 0.78000 0.71496
 C44 C 0.29601 0.77435 0.69786
 C45 C 0.27920 0.78561 0.69219
 C46 C 0.27351 0.80270 0.70352
 C47 C 0.28468 0.80827 0.72040
 C48 C 0.30171 0.79686 0.72615
 C49 C 0.32435 0.77191 0.72400
 N50 N 0.32918 0.78348 0.74035
 C51 C 0.31542 0.79877 0.74178
 C52 C 0.27571 0.82535 0.72842
 N53 N 0.25939 0.83030 0.71679
 C54 C 0.25794 0.81650 0.70152
 C55 C 0.27119 0.77664 0.67511
 N56 N 0.28276 0.76026 0.67031
 C57 C 0.29797 0.75874 0.68413
 H58 H 0.33264 0.75862 0.71902
 H59 H 0.31540 0.81043 0.75336
 H60 H 0.28075 0.83358 0.74172
 H61 H 0.24642 0.81648 0.68980
 H62 H 0.25795 0.78167 0.66677
 H63 H 0.30960 0.74712 0.68419
 C64 C 0.80834 0.27962 0.21476
 C65 C 0.79704 0.27388 0.19767
 C66 C 0.78018 0.28506 0.19198
 C67 C 0.77441 0.30214 0.20329
 C68 C 0.78557 0.30780 0.22015
 C69 C 0.80265 0.29647 0.22592
 C70 C 0.82539 0.27161 0.22382
 N71 N 0.83019 0.28322 0.24017
 C72 C 0.81635 0.29848 0.24155
 C73 C 0.77652 0.32484 0.22815
 N74 N 0.76018 0.32965 0.21653
 C75 C 0.75877 0.31586 0.20129
 C76 C 0.77221 0.27604 0.17492
 N77 N 0.78384 0.25971 0.17014
 C78 C 0.79907 0.25826 0.18396
 H79 H 0.83369 0.25832 0.21882
 H80 H 0.81622 0.31019 0.25308
 H81 H 0.78146 0.33316 0.24143
 H82 H 0.74721 0.31581 0.18961
 H83 H 0.75895 0.28101 0.16658
 H84 H 0.81075 0.24670 0.18403
 C85 C 0.80842 0.72054 0.28441
 C86 C 0.79707 0.72630 0.30148
 C87 C 0.78023 0.71509 0.30716
 C88 C 0.77452 0.69796 0.29589
 C89 C 0.78572 0.69229 0.27906
 C90 C 0.80279 0.70365 0.27329
 C91 C 0.82546 0.72857 0.27536
 N92 N 0.83033 0.71693 0.25904
 C93 C 0.81652 0.70164 0.25768
 C94 C 0.77672 0.67519 0.27111
 N95 N 0.76037 0.67039 0.28273
 C96 C 0.75891 0.68422 0.29793
 C97 C 0.77219 0.72412 0.32419
 N98 N 0.78377 0.74050 0.32896
 C99 C 0.79902 0.74195 0.31516
 H100 H 0.83372 0.74189 0.28033
 H101 H 0.81644 0.68990 0.24618
 H102 H 0.78170 0.66685 0.25786
 H103 H 0.74734 0.68428 0.30960
 H104 H 0.75892 0.71913 0.33252
 H105 H 0.81067 0.75355 0.31509
 C106 C 0.30814 0.22029 -0.21521
 C107 C 0.29672 0.22606 -0.19820
 C108 C 0.27987 0.21486 -0.19256
 C109 C 0.27422 0.19771 -0.20383
 C110 C 0.28548 0.19202 -0.22061
 C111 C 0.30257 0.20338 -0.22633
 C112 C 0.32523 0.22832 -0.22419
 N113 N 0.33017 0.21665 -0.24047
 C114 C 0.31638 0.20135 -0.24188
 C115 C 0.27652 0.17491 -0.22858
 N116 N 0.26011 0.17008 -0.21701
 C117 C 0.25861 0.18396 -0.20182
 C118 C 0.27176 0.22393 -0.17558
 N119 N 0.28331 0.24032 -0.17080
 C120 C 0.29862 0.24175 -0.18454
 H121 H 0.33345 0.24164 -0.21919
 H122 H 0.31636 0.18959 -0.25336
 H123 H 0.28160 0.16660 -0.24181
 H124 H 0.24702 0.18409 -0.19016
 H125 H 0.25847 0.21895 -0.16729
 H126 H 0.31027 0.25335 -0.18460
 C127 C 0.69223 0.27942 -0.21507
 C128 C 0.70361 0.27368 -0.19802
 C129 C 0.72044 0.28490 -0.19238
 C130 C 0.72612 0.30203 -0.20369
 C131 C 0.71490 0.30769 -0.22051
 C132 C 0.69783 0.29631 -0.22623
 C133 C 0.67517 0.27137 -0.22406
 N134 N 0.67026 0.28301 -0.24039
 C135 C 0.68406 0.29831 -0.24182
 C136 C 0.72388 0.32479 -0.22852
 N137 N 0.74026 0.32964 -0.21693
 C138 C 0.74172 0.31578 -0.20170
 C139 C 0.72851 0.27587 -0.17536
 N140 N 0.71695 0.25948 -0.17055
 C141 C 0.70168 0.25802 -0.18432
 H142 H 0.66693 0.25805 -0.21904
 H143 H 0.68411 0.31005 -0.25333
 H144 H 0.71883 0.33308 -0.24178
 H145 H 0.75328 0.31568 -0.19001
 H146 H 0.74179 0.28087 -0.16706
 H147 H 0.69004 0.24641 -0.18436
 C148 C 0.19208 0.77995 0.28481
 C149 C 0.20335 0.77425 0.30194
 C150 C 0.22017 0.78547 0.30764
 C151 C 0.22593 0.80255 0.29630
 C152 C 0.21482 0.80817 0.27940
 C153 C 0.19776 0.79681 0.27362
 C154 C 0.17506 0.77191 0.27575
 N155 N 0.17029 0.78349 0.25938
 C156 C 0.18408 0.79876 0.25795
 C157 C 0.22386 0.82524 0.27140
 N158 N 0.24017 0.83012 0.28307
 C159 C 0.24153 0.81630 0.29835
 C160 C 0.22813 0.77647 0.32473
 N161 N 0.21652 0.76011 0.32952
 C162 C 0.20133 0.75863 0.31567
 H163 H 0.16673 0.75863 0.28072
 H164 H 0.18415 0.81042 0.24637
 H165 H 0.21889 0.83350 0.25809
 H166 H 0.25302 0.81622 0.31010
 H167 H 0.24137 0.78147 0.33308
 H168 H 0.18967 0.74704 0.31560
 C169 C 0.47027 0.44205 0.46523
 C170 C 0.47598 0.45339 0.44813
 C171 C 0.46477 0.47023 0.44247
 C172 C 0.44768 0.47595 0.45381
 C173 C 0.44204 0.46476 0.47067
 C174 C 0.45341 0.44769 0.47641
 C175 C 0.47831 0.42500 0.47426
 N176 N 0.46672 0.42018 0.49060
 C177 C 0.45144 0.43396 0.49204
 C178 C 0.42497 0.47377 0.47868
 N179 N 0.42013 0.49010 0.46706
 C180 C 0.43392 0.49155 0.45181
 C181 C 0.47378 0.47825 0.42541
 N182 N 0.49014 0.46666 0.42060
 C183 C 0.49161 0.45141 0.43440
 H184 H 0.49160 0.41670 0.46928
 H185 H 0.43977 0.43400 0.50362
 H186 H 0.41665 0.46879 0.49196
 H187 H 0.43395 0.50312 0.44013
 H188 H 0.46878 0.49151 0.41709
 H189 H 0.50320 0.43975 0.43445
 C190 C -0.02947 -0.05817 0.96505
 C191 C -0.02370 -0.04678 0.94801
 C192 C -0.03488 -0.02992 0.94238
 C193 C -0.05200 -0.02423 0.95368
 C194 C -0.05769 -0.03546 0.97049
 C195 C -0.04636 -0.05256 0.97620
 C196 C -0.02146 -0.07526 0.97403
 N197 N -0.03311 -0.08016 0.99035
 C198 C -0.04838 -0.06634 0.99178
 C199 C -0.07477 -0.02645 0.97850
 N200 N -0.07959 -0.01005 0.96692
 C201 C -0.06573 -0.00859 0.95170
 C202 C -0.02582 -0.02184 0.92537
 N203 N -0.00946 -0.03343 0.92056
 C204 C -0.00803 -0.04872 0.93432
 H205 H -0.00815 -0.08352 0.96902
 H206 H -0.06013 -0.06628 1.00329
 H207 H -0.08307 -0.03151 0.99176
 H208 H -0.06560 0.00299 0.94002
 H209 H -0.03079 -0.00854 0.91708
 H210 H 0.00355 -0.06038 0.93436
 C211 C 1.02946 0.55796 0.96530
 C212 C 1.02371 0.54659 0.94826
 C213 C 1.03494 0.52977 0.94260
 C214 C 1.05208 0.52410 0.95388
 C215 C 1.05775 0.53531 0.97069
 C216 C 1.04637 0.55237 0.97643
 C217 C 1.02141 0.57500 0.97431
 N218 N 1.03306 0.57991 0.99061
 C219 C 1.04838 0.56613 0.99201
 C220 C 1.07487 0.52633 0.97865
 N221 N 1.07972 0.50997 0.96705
 C222 C 1.06585 0.50851 0.95185
 C223 C 1.02590 0.52171 0.92559
 N224 N 1.00950 0.53326 0.92081
 C225 C 1.00804 0.54851 0.93458
 H226 H 1.00808 0.58323 0.96931
 H227 H 1.06012 0.56608 1.00351
 H228 H 1.08318 0.53137 0.99190
 H229 H 1.06573 0.49696 0.94016
 H230 H 1.03090 0.50845 0.91728
 H231 H 0.99642 0.56015 0.93464
 C232 C 0.52998 0.05755 0.46534
 C233 C 0.52423 0.04623 0.44826
 C234 C 0.53545 0.02941 0.44256
 C235 C 0.55257 0.02369 0.45384
 C236 C 0.55824 0.03485 0.47069
 C237 C 0.54687 0.05190 0.47647
 C238 C 0.52195 0.07458 0.47439
 N239 N 0.53359 0.07938 0.49070
 C240 C 0.54887 0.06560 0.49210
 C241 C 0.57534 0.02584 0.47865
 N242 N 0.58020 0.00951 0.46700
 C243 C 0.56634 0.00810 0.45178
 C244 C 0.52640 0.02141 0.42552
 N245 N 0.51002 0.03299 0.42077
 C246 C 0.50857 0.04821 0.43458
 H247 H 0.50865 0.08288 0.46946
 H248 H 0.56057 0.06556 0.50363
 H249 H 0.58363 0.03085 0.49192
 H250 H 0.56624 -0.00341 0.44006
 H251 H 0.53139 0.00816 0.41718
 H252 H 0.49696 0.05986 0.43467
 C253 C -0.02964 0.05835 0.53553
 C254 C -0.02391 0.04702 0.55261
 C255 C -0.03507 0.03013 0.55825
 C256 C -0.05214 0.02437 0.54690
 C257 C -0.05779 0.03556 0.53005
 C258 C -0.04647 0.05267 0.52433
 C259 C -0.02164 0.07544 0.52651
 N260 N -0.03325 0.08023 0.51016
 C261 C -0.04847 0.06640 0.50871
 C262 C -0.07481 0.02651 0.52201
 N263 N -0.07962 0.01014 0.53359
 C264 C -0.06584 0.00871 0.54885
 C265 C -0.02604 0.02212 0.57530
 N266 N -0.00972 0.03376 0.58012
 C267 C -0.00829 0.04902 0.56634
 H268 H -0.00839 0.08378 0.53149
 H269 H -0.06013 0.06633 0.49714
 H270 H -0.08312 0.03148 0.50873
 H271 H -0.06580 -0.00288 0.56051
 H272 H -0.03100 0.00882 0.58361
 H273 H 0.00326 0.06072 0.56630
 C274 C 0.47024 0.55825 0.03498
 C275 C 0.47594 0.54689 0.05205
 C276 C 0.46472 0.53004 0.05770
 C277 C 0.44763 0.52435 0.04637
 C278 C 0.44200 0.53556 0.02952
 C279 C 0.45337 0.55263 0.02380
 C280 C 0.47829 0.57530 0.02596
 N281 N 0.46668 0.58018 0.00961
 C282 C 0.45139 0.56637 0.00819
 C283 C 0.42493 0.52657 0.02150
 N284 N 0.42008 0.51022 0.03309
 C285 C 0.43387 0.50874 0.04834
 C286 C 0.47372 0.52200 0.07475
 N287 N 0.49009 0.53358 0.07957
 C288 C 0.49157 0.54884 0.06578
 H289 H 0.49160 0.58356 0.03098
 H290 H 0.43968 0.56630 -0.00334
 H291 H 0.41663 0.53158 0.00824
 H292 H 0.43389 0.49715 0.05999
 H293 H 0.46872 0.50873 0.08306
 H294 H 0.50316 0.56050 0.06574
 C295 C 0.52991 -0.05812 0.03560
 C296 C 0.52423 -0.04680 0.05270
 C297 C 0.53546 -0.02998 0.05836
 C298 C 0.55255 -0.02426 0.04700
 C299 C 0.55816 -0.03543 0.03013
 C300 C 0.54677 -0.05248 0.02440
 C301 C 0.52184 -0.07514 0.02658
 N302 N 0.53342 -0.07995 0.01022
 C303 C 0.54870 -0.06619 0.00877
 C304 C 0.57523 -0.02644 0.02210
 N305 N 0.58010 -0.01013 0.03370
 C306 C 0.56633 -0.00867 0.04897
 C307 C 0.52648 -0.02198 0.07543
 N308 N 0.51011 -0.03356 0.08025
 C309 C 0.50861 -0.04878 0.06644
 H310 H 0.50855 -0.08344 0.03157
 H311 H 0.56036 -0.06615 -0.00281
 H312 H 0.58351 -0.03142 0.00881
 H313 H 0.56634 0.00288 0.06065
 H314 H 0.53149 -0.00873 0.08375
 H315 H 0.49701 -0.06043 0.06640
 C316 C 1.02977 0.44255 0.53525
 C317 C 1.02412 0.45377 0.55242
 C318 C 1.03533 0.47060 0.55811
 C319 C 1.05238 0.47640 0.54673
 C320 C 1.05795 0.46532 0.52979
 C321 C 1.04658 0.44827 0.52402
 C322 C 1.02172 0.42554 0.52619
 N323 N 1.03325 0.42082 0.50977
 C324 C 1.04850 0.43463 0.50833
 C325 C 1.07497 0.47439 0.52174
 N326 N 1.07988 0.49069 0.53341
 C327 C 1.06612 0.49202 0.54874
 C328 C 1.02637 0.47850 0.57524
 N329 N 1.01004 0.46686 0.58005
 C330 C 1.00855 0.45170 0.56619
 H331 H 1.00846 0.41719 0.53118
 H332 H 1.06013 0.43474 0.49671
 H333 H 1.08319 0.46945 0.50839
 H334 H 1.06608 0.50349 0.56050
 H335 H 1.03138 0.49173 0.58361
 H336 H 0.99697 0.44003 0.56612
 C337 C 0.40646 0.00898 0.22368
 H338 H 0.40767 0.02244 0.23299
 C339 C 0.41975 0.00615 0.20741
 H340 H 0.43110 0.01762 0.20428
 C341 C 0.39027 -0.02239 0.21677
 H342 H 0.37897 -0.03362 0.22062
 C343 C 0.40321 -0.02581 0.20033
 H344 H 0.40154 -0.03965 0.19164
 N345 N 0.39196 -0.00510 0.22791
 C346 C 0.34343 0.02676 0.25970
 H347 H 0.34216 0.01748 0.27319
 C348 C 0.33023 0.04310 0.25681
 H349 H 0.31888 0.04632 0.26825
 C350 C 0.35966 0.03352 0.22834
 H351 H 0.37094 0.02957 0.21713
 C352 C 0.34682 0.05002 0.22485
 H353 H 0.34854 0.05867 0.21099
 Zn354 Zn 0.37486 -0.00030 0.25051
 N355 N 0.35791 0.02241 0.24566
 C356 C 0.39016 0.02175 0.28432
 N357 N 0.39183 0.00444 0.27321
 C358 C 0.40624 -0.00969 0.27753
 C359 C 0.41947 -0.00689 0.29384
 C360 C 0.40304 0.02515 0.30080
 C361 C 0.34333 -0.02715 0.24110
 C362 C 0.33004 -0.04344 0.24386
 C363 C 0.34646 -0.05060 0.27585
 C364 C 0.35939 -0.03413 0.27249
 N365 N 0.35777 -0.02293 0.25522
 H366 H 0.37893 0.03303 0.28040
 H367 H 0.40744 -0.02318 0.26825
 H368 H 0.43077 -0.01839 0.29703
 H369 H 0.40139 0.03902 0.30946
 H370 H 0.34217 -0.01781 0.22764
 H371 H 0.31873 -0.04656 0.23236
 H372 H 0.34808 -0.05933 0.28968
 H373 H 0.37064 -0.03029 0.28376
 C374 C 0.33186 0.05503 0.23921
 C375 C 0.41818 -0.01142 0.19543
 C376 C 0.33154 -0.05547 0.26141
 C377 C 0.41794 0.01071 0.30578
 C378 C 0.09405 -0.00886 0.72343
 H379 H 0.09284 -0.02233 0.73275
 C380 C 0.08076 -0.00602 0.70717
 H381 H 0.06940 -0.01749 0.70406
 C382 C 0.11024 0.02251 0.71648
 H383 H 0.12154 0.03374 0.72032
 C384 C 0.09730 0.02594 0.70005
 H385 H 0.09897 0.03979 0.69135
 N386 N 0.10855 0.00521 0.72765
 C387 C 0.15715 -0.02659 0.75941
 H388 H 0.15844 -0.01728 0.77286
 C389 C 0.17034 -0.04294 0.75654
 H390 H 0.18172 -0.04613 0.76797
 C391 C 0.14083 -0.03344 0.72813
 H392 H 0.12952 -0.02953 0.71694
 C393 C 0.15367 -0.04996 0.72467
 H394 H 0.15191 -0.05865 0.71085
 Zn395 Zn 0.12565 0.00040 0.75024
 N396 N 0.14263 -0.02229 0.74539
 C397 C 0.11039 -0.02171 0.78406
 N398 N 0.10868 -0.00439 0.77295
 C399 C 0.09423 0.00970 0.77727
 C400 C 0.08100 0.00684 0.79359
 C401 C 0.09752 -0.02517 0.80055
 C402 C 0.15717 0.02730 0.74085
 C403 C 0.17044 0.04360 0.74364
 C404 C 0.15395 0.05070 0.77559
 C405 C 0.14104 0.03423 0.77222
 N406 N 0.14271 0.02305 0.75496
 H407 H 0.12165 -0.03296 0.78013
 H408 H 0.09300 0.02319 0.76798
 H409 H 0.06968 0.01832 0.79679
 H410 H 0.09919 -0.03904 0.80920
 H411 H 0.15837 0.01798 0.72740
 H412 H 0.18177 0.04674 0.73215
 H413 H 0.15229 0.05942 0.78942
 H414 H 0.12977 0.03036 0.78348
 C415 C 0.16866 -0.05493 0.73900
 C416 C 0.08232 0.01155 0.69518
 C417 C 0.16889 0.05561 0.76118
 C418 C 0.08258 -0.01077 0.80553
 C419 C 0.59350 0.49075 0.22308
 H420 H 0.59229 0.47725 0.23236
 C421 C 0.58026 0.49360 0.20678
 H422 H 0.56893 0.48212 0.20360
 C423 C 0.60965 0.52217 0.21626
 H424 H 0.62091 0.53342 0.22016
 C425 C 0.59675 0.52561 0.19979
 H426 H 0.59842 0.53948 0.19113
 N427 N 0.60796 0.50484 0.22737
 C428 C 0.65646 0.47303 0.25927
 H429 H 0.65767 0.48232 0.27275
 C430 C 0.66970 0.45672 0.25644
 H431 H 0.68102 0.45353 0.26791
 C432 C 0.64030 0.46622 0.22790
 H433 H 0.62904 0.47014 0.21666
 C434 C 0.65320 0.44974 0.22446
 H435 H 0.65153 0.44107 0.21061
 Zn436 Zn 0.62501 0.50002 0.25000
 N437 N 0.64200 0.47734 0.24519
 C438 C 0.60967 0.47792 0.28379
 N439 N 0.60801 0.49526 0.27269
 C440 C 0.59360 0.50939 0.27702
 C441 C 0.58038 0.50657 0.29335
 C442 C 0.59680 0.47451 0.30029
 C443 C 0.65652 0.52691 0.24060
 C444 C 0.66981 0.54320 0.24337
 C445 C 0.65341 0.55026 0.27538
 C446 C 0.64047 0.53381 0.27201
 N447 N 0.64209 0.52266 0.25473
 H448 H 0.62089 0.46664 0.27985
 H449 H 0.59241 0.52289 0.26774
 H450 H 0.56909 0.51808 0.29656
 H451 H 0.59844 0.46063 0.30894
 H452 H 0.65767 0.51760 0.22713
 H453 H 0.68111 0.54634 0.23185
 H454 H 0.65180 0.55895 0.28922
 H455 H 0.62922 0.52994 0.28329
 C456 C 0.66814 0.44477 0.23885
 C457 C 0.58182 0.51121 0.19483
 C458 C 0.66832 0.55518 0.26093
 C459 C 0.58191 0.48895 0.30528
 C460 C 0.90632 0.50877 0.72362
 H461 H 0.90748 0.52223 0.73294
 C462 C 0.91963 0.50600 0.70736
 H463 H 0.93096 0.51750 0.70426
 C464 C 0.89022 0.47738 0.71664
 H465 H 0.87894 0.46611 0.72047
 C466 C 0.90318 0.47401 0.70021
 H467 H 0.90156 0.46018 0.69150
 N468 N 0.89185 0.49465 0.72781
 C469 C 0.84317 0.52635 0.75953
 H470 H 0.84190 0.51706 0.77301
 C471 C 0.82995 0.54267 0.75664
 H472 H 0.81858 0.54586 0.76807
 C473 C 0.85945 0.53318 0.72821
 H474 H 0.87076 0.52927 0.71701
 C475 C 0.84658 0.54967 0.72472
 H476 H 0.84831 0.55834 0.71087
 Zn477 Zn 0.87470 0.49940 0.75038
 N478 N 0.85769 0.52205 0.74551
 C479 C 0.88987 0.52151 0.78421
 N480 N 0.89161 0.50420 0.77311
 C481 C 0.90607 0.49011 0.77747
 C482 C 0.91926 0.49297 0.79380
 C483 C 0.90270 0.52497 0.80071
 C484 C 0.84325 0.47245 0.74094
 C485 C 0.82999 0.45614 0.74371
 C486 C 0.84641 0.44903 0.77570
 C487 C 0.85931 0.46552 0.77235
 N488 N 0.85767 0.47671 0.75507
 H489 H 0.87861 0.53275 0.78025
 H490 H 0.90733 0.47662 0.76820
 H491 H 0.93059 0.48150 0.79703
 H492 H 0.90100 0.53883 0.80935
 H493 H 0.84208 0.48179 0.72748
 H494 H 0.81869 0.45300 0.73220
 H495 H 0.84804 0.44031 0.78954
 H496 H 0.87054 0.46939 0.78363
 C497 C 0.83159 0.55463 0.73905
 C498 C 0.91813 0.48845 0.69535
 C499 C 0.83150 0.44412 0.76126
 C500 C 0.91764 0.51058 0.80572
 C501 C 0.22258 0.40691 0.00882
 H502 H 0.23194 0.40807 0.02225
 C503 C 0.20628 0.42019 0.00608
 H504 H 0.20317 0.43149 0.01760
 C505 C 0.21557 0.39085 -0.02256
 H506 H 0.21941 0.37961 -0.03384
 C507 C 0.19909 0.40378 -0.02588
 H508 H 0.19034 0.40216 -0.03969
 N509 N 0.22679 0.39248 -0.00532
 C510 C 0.25881 0.34382 0.02614
 H511 H 0.27228 0.34264 0.01681
 C512 C 0.25602 0.33052 0.04241
 H513 H 0.26751 0.31919 0.04552
 C514 C 0.22742 0.35995 0.03311
 H515 H 0.21616 0.37123 0.02928
 C516 C 0.22403 0.34700 0.04955
 H517 H 0.21019 0.34865 0.05827
 Zn518 Zn 0.24946 0.37542 -0.00065
 N519 N 0.24470 0.35830 0.02194
 C520 C 0.28328 0.39065 0.02146
 N521 N 0.27215 0.39241 0.00417
 C522 C 0.27646 0.40691 -0.00987
 C523 C 0.29278 0.42013 -0.00701
 C524 C 0.29977 0.40352 0.02492
 C525 C 0.24011 0.34406 -0.02770
 C526 C 0.24295 0.33085 -0.04402
 C527 C 0.27498 0.34734 -0.05097
 C528 C 0.27154 0.36020 -0.03449
 N529 N 0.25422 0.35849 -0.02338
 H530 H 0.27936 0.37935 0.03267
 H531 H 0.26716 0.40818 -0.02334
 H532 H 0.29597 0.43149 -0.01845
 H533 H 0.30845 0.40180 0.03877
 H534 H 0.22661 0.34283 -0.01841
 H535 H 0.23146 0.31954 -0.04721
 H536 H 0.28886 0.34901 -0.05963
 H537 H 0.28281 0.37144 -0.03056
 C538 C 0.23845 0.33205 0.05443
 C539 C 0.19423 0.41869 -0.01144
 C540 C 0.26057 0.33242 -0.05595
 C541 C 0.30474 0.41850 0.01057
 C542 C 0.72387 0.09307 -0.00929
 H543 H 0.73316 0.09182 -0.02277
 C544 C 0.70754 0.07985 -0.00641
 H545 H 0.70434 0.06851 -0.01785
 C546 C 0.71707 0.10928 0.02206
 H547 H 0.72100 0.12056 0.03327
 C548 C 0.70058 0.09641 0.02554
 H549 H 0.69191 0.09812 0.03939
 N550 N 0.72819 0.10755 0.00475
 C551 C 0.76014 0.15596 -0.02718
 H552 H 0.77365 0.15720 -0.01792
 C553 C 0.75727 0.16918 -0.04351
 H554 H 0.76875 0.18050 -0.04673
 C555 C 0.72871 0.13980 -0.03390
 H556 H 0.71746 0.12856 -0.02995
 C557 C 0.72525 0.15267 -0.05040
 H558 H 0.71137 0.15099 -0.05903
 Zn559 Zn 0.75086 0.12455 -0.00012
 N560 N 0.74605 0.14152 -0.02282
 C561 C 0.78471 0.10919 -0.02213
 N562 N 0.77354 0.10752 -0.00485
 C563 C 0.77779 0.09306 0.00926
 C564 C 0.79408 0.07979 0.00646
 C565 C 0.80119 0.09627 -0.02552
 C566 C 0.74155 0.15610 0.02671
 C567 C 0.74435 0.16937 0.04298
 C568 C 0.77635 0.15289 0.05006
 C569 C 0.77295 0.13997 0.03362
 N570 N 0.75565 0.14164 0.02247
 H571 H 0.78084 0.12045 -0.03339
 H572 H 0.76846 0.09187 0.02272
 H573 H 0.79723 0.06847 0.01795
 H574 H 0.80989 0.09792 -0.03935
 H575 H 0.72807 0.15729 0.01740
 H576 H 0.73286 0.18070 0.04611
 H577 H 0.79020 0.15124 0.05876
 H578 H 0.78420 0.12869 0.02977
 C579 C 0.73965 0.16759 -0.05541
 C580 C 0.69559 0.08146 0.01118
 C581 C 0.76193 0.16783 0.05496
 C582 C 0.80609 0.08133 -0.01110
 C583 C 0.22256 0.59364 0.49082
 H584 H 0.23189 0.59241 0.47736
 C585 C 0.20625 0.58040 0.49365
 H586 H 0.20310 0.56906 0.48220
 C587 C 0.21565 0.60985 0.52214
 H588 H 0.21953 0.62113 0.53336
 C589 C 0.19916 0.59696 0.52557
 H590 H 0.19045 0.59865 0.53940
 N591 N 0.22683 0.60813 0.50487
 C592 C 0.25889 0.65658 0.47311
 H593 H 0.27236 0.65778 0.48242
 C594 C 0.25610 0.66981 0.45679
 H595 H 0.26760 0.68113 0.45362
 C596 C 0.22748 0.64044 0.46624
 H597 H 0.21621 0.62919 0.47014
 C598 C 0.22409 0.65333 0.44976
 H599 H 0.21024 0.65167 0.44106
 Zn600 Zn 0.24952 0.62513 0.50008
 N601 N 0.24477 0.64213 0.47740
 C602 C 0.28334 0.60975 0.47806
 N603 N 0.27219 0.60809 0.49536
 C604 C 0.27648 0.59366 0.50948
 C605 C 0.29279 0.58042 0.50669
 C606 C 0.29983 0.59685 0.47467
 C607 C 0.24017 0.65665 0.52695
 C608 C 0.24298 0.66992 0.54322
 C609 C 0.27498 0.65343 0.55030
 C610 C 0.27158 0.64051 0.53385
 N611 N 0.25428 0.64219 0.52271
 H612 H 0.27944 0.62099 0.46679
 H613 H 0.26716 0.59248 0.52296
 H614 H 0.29596 0.56912 0.51820
 H615 H 0.30852 0.59849 0.46082
 H616 H 0.22670 0.65785 0.51764
 H617 H 0.23149 0.68124 0.54636
 H618 H 0.28883 0.65178 0.55898
 H619 H 0.28284 0.62925 0.52999
 C620 C 0.23852 0.66825 0.44481
 C621 C 0.19424 0.58200 0.51121
 C622 C 0.26056 0.66837 0.55520
 C623 C 0.30477 0.58194 0.48911
 C624 C 0.72310 0.90660 0.50889
 H625 H 0.73243 0.90777 0.52235
 C626 C 0.70679 0.91987 0.50612
 H627 H 0.70365 0.93117 0.51762
 C628 C 0.71617 0.89053 0.47751
 H629 H 0.72004 0.87928 0.46624
 C630 C 0.69968 0.90343 0.47415
 H631 H 0.69097 0.90180 0.46032
 N632 N 0.72735 0.89217 0.49478
 C633 C 0.75926 0.84353 0.52638
 H634 H 0.77276 0.84234 0.51710
 C635 C 0.75640 0.83025 0.54265
 H636 H 0.76789 0.81892 0.54582
 C637 C 0.72785 0.85967 0.53321
 H638 H 0.71660 0.87095 0.52933
 C639 C 0.72439 0.84674 0.54966
 H640 H 0.71052 0.84840 0.55832
 Zn641 Zn 0.75001 0.87511 0.49952
 N642 N 0.74517 0.85800 0.52210
 C643 C 0.78378 0.89035 0.52171
 N644 N 0.77268 0.89210 0.50440
 C645 C 0.77701 0.90661 0.49036
 C646 C 0.79332 0.91984 0.49327
 C647 C 0.80025 0.90323 0.52521
 C648 C 0.74073 0.84375 0.47244
 C649 C 0.74360 0.83057 0.45610
 C650 C 0.77563 0.84708 0.44921
 C651 C 0.77217 0.85991 0.46572
 N652 N 0.75483 0.85818 0.47681
 H653 H 0.77984 0.87905 0.53291
 H654 H 0.76774 0.90787 0.47687
 H655 H 0.79652 0.93120 0.48183
 H656 H 0.80890 0.90151 0.53907
 H657 H 0.72723 0.84251 0.48171
 H658 H 0.73211 0.81927 0.45287
 H659 H 0.78951 0.84877 0.44057
 H660 H 0.78342 0.87115 0.46968
 C661 C 0.73880 0.83180 0.55460
 C662 C 0.69478 0.91834 0.48858
 C663 C 0.76122 0.83217 0.44419
 C664 C 0.80525 0.91821 0.51087
 C665 C 0.00907 0.22369 0.40631
 H666 H 0.02253 0.23303 0.40748
 C667 C 0.00628 0.20741 0.41960
 H668 H 0.01778 0.20430 0.43092
 C669 C -0.02233 0.21672 0.39022
 H670 H -0.03359 0.22055 0.37895
 C671 C -0.02571 0.20026 0.40316
 H672 H -0.03955 0.19154 0.40153
 N673 N -0.00505 0.22790 0.39186
 C674 C 0.02664 0.25980 0.34328
 H675 H 0.01732 0.27328 0.34204
 C676 C 0.04295 0.25695 0.33005
 H677 H 0.04611 0.26841 0.31870
 C678 C 0.03351 0.22843 0.35950
 H679 H 0.02962 0.21720 0.37078
 C680 C 0.04999 0.22499 0.34662
 H681 H 0.05868 0.21114 0.34831
 Zn682 Zn -0.00031 0.25053 0.37477
 N683 N 0.02236 0.24573 0.35777
 C684 C 0.02174 0.28440 0.38998
 N685 N 0.00444 0.27325 0.39170
 C686 C -0.00966 0.27754 0.40615
 C687 C -0.00683 0.29387 0.41935
 C688 C 0.02516 0.30089 0.40284
 C689 C -0.02722 0.24109 0.34333
 C690 C -0.04352 0.24385 0.33007
 C691 C -0.05069 0.27584 0.34651
 C692 C -0.03420 0.27248 0.35941
 N693 N -0.02300 0.25522 0.35776
 H694 H 0.03300 0.28049 0.37873
 H695 H -0.02314 0.26823 0.40738
 H696 H -0.01832 0.29704 0.43067
 H697 H 0.03902 0.30958 0.40116
 H698 H -0.01786 0.22764 0.34215
 H699 H -0.04664 0.23235 0.31877
 H700 H -0.05942 0.28966 0.34814
 H701 H -0.03036 0.28376 0.37065
 C702 C 0.05493 0.23937 0.33165
 C703 C -0.01128 0.19539 0.41809
 C704 C -0.05556 0.26140 0.33159
 C705 C 0.01076 0.30584 0.41777
 C706 C -0.00944 0.72288 0.09299
 H707 H -0.02291 0.73221 0.09174
 C708 C -0.00662 0.70653 0.07981
 H709 H -0.01809 0.70336 0.06848
 C710 C 0.02192 0.71600 0.10920
 H711 H 0.03316 0.71990 0.12046
 C712 C 0.02534 0.69948 0.09637
 H713 H 0.03917 0.69077 0.09809
 N714 N 0.00464 0.72717 0.10745
 C715 C -0.02701 0.75922 0.15593
 H716 H -0.01766 0.77267 0.15714
 C717 C -0.04331 0.75642 0.16920
 H718 H -0.04642 0.76790 0.18054
 C719 C -0.03401 0.72788 0.13977
 H720 H -0.03018 0.71664 0.12849
 C721 C -0.05049 0.72449 0.15269
 H722 H -0.05923 0.71067 0.15102
 Zn723 Zn -0.00013 0.74988 0.12441
 N724 N -0.02280 0.74514 0.14146
 C725 C -0.02218 0.78374 0.10911
 N726 N -0.00492 0.77254 0.10737
 C727 C 0.00915 0.77677 0.09286
 C728 C 0.00633 0.79310 0.07963
 C729 C -0.02559 0.80023 0.09624
 C730 C 0.02683 0.74062 0.15589
 C731 C 0.04315 0.74347 0.16910
 C732 C 0.05021 0.77542 0.15251
 C733 C 0.03372 0.77197 0.13964
 N734 N 0.02256 0.75468 0.14139
 H735 H -0.03341 0.77988 0.12042
 H736 H 0.02260 0.76743 0.09161
 H737 H 0.01779 0.79623 0.06827
 H738 H -0.03941 0.80897 0.09796
 H739 H 0.01751 0.72715 0.15715
 H740 H 0.04631 0.73202 0.18046
 H741 H 0.05891 0.78926 0.15079
 H742 H 0.02983 0.78319 0.12835
 C743 C -0.05535 0.73888 0.16765
 C744 C 0.01095 0.69453 0.08144
 C745 C 0.05514 0.76104 0.16748
 C746 C -0.01122 0.80513 0.08126
 C747 C 0.49101 0.22284 0.59426
 H748 H 0.47753 0.23216 0.59305
 C749 C 0.49383 0.20654 0.58102
 H750 H 0.48234 0.20339 0.56971
 C751 C 0.52241 0.21596 0.61039
 H752 H 0.53366 0.21984 0.62165
 C753 C 0.52582 0.19948 0.59750
 H754 H 0.53968 0.19079 0.59917
 N755 N 0.50511 0.22711 0.60870
 C756 C 0.47335 0.25904 0.65719
 H757 H 0.48266 0.27251 0.65843
 C758 C 0.45701 0.25621 0.67040
 H759 H 0.45382 0.26768 0.68172
 C760 C 0.46648 0.22768 0.64101
 H761 H 0.47038 0.21644 0.62975
 C762 C 0.44996 0.22425 0.65386
 H763 H 0.44126 0.21041 0.65217
 Zn764 Zn 0.50032 0.24977 0.62571
 N765 N 0.47764 0.24497 0.64273
 C766 C 0.47820 0.28358 0.61040
 N767 N 0.49551 0.27244 0.60869
 C768 C 0.50960 0.27673 0.59423
 C769 C 0.50675 0.29304 0.58098
 C770 C 0.47476 0.30005 0.59750
 C771 C 0.52730 0.24048 0.65717
 C772 C 0.54364 0.24332 0.67038
 C773 C 0.55067 0.27528 0.65381
 C774 C 0.53416 0.27186 0.64096
 N775 N 0.52301 0.25456 0.64270
 H776 H 0.46696 0.27968 0.62167
 H777 H 0.52308 0.26743 0.59301
 H778 H 0.51822 0.29621 0.56965
 H779 H 0.46089 0.30873 0.59917
 H780 H 0.51799 0.22701 0.65842
 H781 H 0.54682 0.23185 0.68171
 H782 H 0.55937 0.28913 0.65210
 H783 H 0.53026 0.28310 0.62969
 C784 C 0.44500 0.23864 0.66879
 C785 C 0.51141 0.19456 0.58258
 C786 C 0.55563 0.26089 0.66875
 C787 C 0.48915 0.30500 0.58255
 C788 C 0.50909 0.72287 0.90663
 H789 H 0.52256 0.73221 0.90782
 C790 C 0.50629 0.70656 0.91988
 H791 H 0.51779 0.70342 0.93119
 C792 C 0.47769 0.71596 0.89052
 H793 H 0.46642 0.71983 0.87927
 C794 C 0.47430 0.69947 0.90341
 H795 H 0.46046 0.69076 0.90176
 N796 N 0.49497 0.72713 0.89219
 C797 C 0.52660 0.75919 0.84367
 H798 H 0.51729 0.77267 0.84249
 C799 C 0.54289 0.75638 0.83039
 H800 H 0.54603 0.76788 0.81908
 C801 C 0.53351 0.72777 0.85977
 H802 H 0.52963 0.71650 0.87103
 C803 C 0.54996 0.72437 0.84684
 H804 H 0.55866 0.71051 0.84848
 Zn805 Zn 0.49971 0.74982 0.87517
 N806 N 0.52235 0.74507 0.85811
 C807 C 0.52183 0.78360 0.89047
 N808 N 0.50451 0.77247 0.89218
 C809 C 0.49043 0.77675 0.90665
 C810 C 0.49328 0.79304 0.91989
 C811 C 0.52528 0.80006 0.90336
 C812 C 0.47269 0.74052 0.84378
 C813 C 0.45636 0.74336 0.83057
 C814 C 0.44937 0.77535 0.84705
 C815 C 0.46587 0.77192 0.85991
 N816 N 0.47700 0.75461 0.85821
 H817 H 0.53307 0.77971 0.87921
 H818 H 0.47694 0.76744 0.90787
 H819 H 0.48181 0.79620 0.93122
 H820 H 0.53914 0.80874 0.90169
 H821 H 0.48200 0.72703 0.84255
 H822 H 0.45318 0.73188 0.81926
 H823 H 0.44070 0.78921 0.84873
 H824 H 0.46979 0.78316 0.87116
 C825 C 0.55487 0.73880 0.83192
 C826 C 0.48873 0.69456 0.91834
 C827 C 0.44440 0.76095 0.83214
 C828 C 0.51088 0.80500 0.91831
 C829 C 0.12149 0.22644 0.27864
 N830 N 0.12520 0.23946 0.26310
 N831 N 0.14082 0.23639 0.25062
 C832 C 0.15333 0.22019 0.25324
 N833 N 0.14960 0.20719 0.26880
 N834 N 0.13397 0.21025 0.28126
 C835 C 0.10425 0.22981 0.29238
 N836 N 0.10020 0.21648 0.30756
 N837 N 0.08455 0.21952 0.32000
 C838 C 0.07234 0.23600 0.31779
 N839 N 0.07646 0.24933 0.30258
 N840 N 0.09209 0.24629 0.29011
 C841 C 0.62136 0.72605 0.77878
 N842 N 0.63384 0.70985 0.78133
 N843 N 0.64946 0.70682 0.76885
 C844 C 0.65318 0.71987 0.75333
 N845 N 0.64069 0.73608 0.75078
 N846 N 0.62507 0.73912 0.76327
 C847 C 0.60414 0.72938 0.79254
 N848 N 0.59197 0.74586 0.79035
 N849 N 0.57636 0.74886 0.80285
 C850 C 0.57227 0.73548 0.81802
 N851 N 0.58448 0.71899 0.82016
 N852 N 0.60011 0.71599 0.80768
 C853 C 0.37781 0.77387 0.77919
 N854 N 0.37406 0.76083 0.76370
 N855 N 0.35845 0.76391 0.75122
 C856 C 0.34598 0.78014 0.75379
 N857 N 0.34974 0.79318 0.76930
 N858 N 0.36537 0.79010 0.78176
 C859 C 0.39505 0.77050 0.79292
 N860 N 0.39914 0.78386 0.80804
 N861 N 0.41479 0.78082 0.82047
 C862 C 0.42698 0.76431 0.81830
 N863 N 0.42283 0.75096 0.80314
 N864 N 0.40719 0.75400 0.79069
 C865 C -0.12205 0.27401 0.27845
 N866 N -0.12548 0.26116 0.26272
 N867 N -0.14108 0.26417 0.25021
 C868 C -0.15388 0.28014 0.25295
 N869 N -0.15041 0.29297 0.26872
 N870 N -0.13479 0.28997 0.28121
 C871 C -0.10483 0.27072 0.29222
 N872 N -0.10100 0.28397 0.30751
 N873 N -0.08536 0.28101 0.31999
 C874 C -0.07296 0.26468 0.31770
 N875 N -0.07686 0.25143 0.30238
 N876 N -0.09247 0.25440 0.28988
 C877 C -0.12187 0.72618 0.22079
 N878 N -0.13457 0.71019 0.21804
 N879 N -0.15020 0.70717 0.23053
 C880 C -0.15372 0.72003 0.24627
 N881 N -0.14097 0.73603 0.24899
 N882 N -0.12536 0.73905 0.23649
 C883 C -0.10464 0.72949 0.20702
 N884 N -0.09231 0.74583 0.20936
 N885 N -0.07669 0.74882 0.19686
 C886 C -0.07276 0.73557 0.18155
 N887 N -0.08513 0.71923 0.17926
 N888 N -0.10078 0.71624 0.19174
 C889 C 0.37819 0.22589 0.72156
 N890 N 0.36552 0.20988 0.71875
 N891 N 0.34981 0.20687 0.73114
 C892 C 0.34619 0.21974 0.74685
 N893 N 0.35892 0.23575 0.74963
 N894 N 0.37460 0.23877 0.73722
 C895 C 0.39550 0.22920 0.70789
 N896 N 0.40780 0.24556 0.71029
 N897 N 0.42350 0.24856 0.69788
 C898 C 0.42753 0.23531 0.68260
 N899 N 0.41519 0.21894 0.68026
 N900 N 0.39948 0.21595 0.69264
 C901 C 0.62234 0.27370 0.72157
 N902 N 0.62590 0.26084 0.73727
 N903 N 0.64155 0.26389 0.74971
 C904 C 0.65428 0.27990 0.74691
 N905 N 0.65069 0.29274 0.73115
 N906 N 0.63502 0.28970 0.71874
 C907 C 0.60507 0.27037 0.70788
 N908 N 0.60112 0.28360 0.69260
 N909 N 0.58543 0.28060 0.68020
 C910 C 0.57308 0.26423 0.68257
 N911 N 0.57710 0.25100 0.69788
 N912 N 0.59277 0.25401 0.71030
 C913 C 0.12169 0.77395 0.22047
 N914 N 0.13417 0.79016 0.21789
 N915 N 0.14979 0.79322 0.23037
 C916 C 0.15350 0.78019 0.24591
 N917 N 0.14100 0.76398 0.24849
 N918 N 0.12540 0.76091 0.23599
 C919 C 0.10447 0.77060 0.20673
 N920 N 0.09231 0.75411 0.20899
 N921 N 0.07667 0.75108 0.19653
 C922 C 0.07256 0.76441 0.18133
 N923 N 0.08477 0.78090 0.17912
 N924 N 0.10042 0.78393 0.19156
 C925 C 0.27895 0.12166 0.22610
 N926 N 0.28154 0.13407 0.20985
 N927 N 0.26909 0.14971 0.20675
 C928 C 0.25356 0.15351 0.21978
 N929 N 0.25098 0.14108 0.23602
 N930 N 0.26344 0.12546 0.23913
 C931 C 0.29267 0.10441 0.22951
 N932 N 0.29040 0.09232 0.24603
 N933 N 0.30284 0.07667 0.24911
 C934 C 0.31803 0.07247 0.23579
 N935 N 0.32025 0.08461 0.21926
 N936 N 0.30782 0.10028 0.21618
 C937 C 0.77870 0.62128 0.72602
 N938 N 0.78131 0.63373 0.70980
 N939 N 0.76888 0.64939 0.70673
 C940 C 0.75334 0.65317 0.71976
 N941 N 0.75073 0.64071 0.73598
 N942 N 0.76319 0.62506 0.73906
 C943 C 0.79240 0.60402 0.72941
 N944 N 0.79012 0.59189 0.74590
 N945 N 0.80255 0.57624 0.74896
 C946 C 0.81775 0.57207 0.73565
 N947 N 0.81999 0.58424 0.71915
 N948 N 0.80757 0.59991 0.71608
 C949 C 0.77842 0.37753 0.77386
 N950 N 0.76268 0.37406 0.76104
 N951 N 0.75019 0.35842 0.76405
 C952 C 0.75299 0.34562 0.77999
 N953 N 0.76878 0.34912 0.79280
 N954 N 0.78124 0.36478 0.78980
 C955 C 0.79217 0.39478 0.77058
 N956 N 0.80747 0.39864 0.78381
 N957 N 0.81993 0.41430 0.78086
 C958 C 0.81762 0.42670 0.76454
 N959 N 0.80229 0.42278 0.75130
 N960 N 0.78980 0.40714 0.75427
 C961 C 0.27839 -0.12203 0.27394
 N962 N 0.28113 -0.13474 0.28992
 N963 N 0.26865 -0.15039 0.29289
 C964 C 0.25292 -0.15392 0.28001
 N965 N 0.25021 -0.14115 0.26403
 N966 N 0.26271 -0.12552 0.26104
 C967 C 0.29215 -0.10478 0.27068
 N968 N 0.28984 -0.09244 0.25435
 N969 N 0.30234 -0.07681 0.25140
 C970 C 0.31763 -0.07288 0.26468
 N971 N 0.31989 -0.08526 0.28102
 N972 N 0.30741 -0.10091 0.28396
 C973 C 0.22141 -0.12171 0.72610
 N974 N 0.23712 -0.12530 0.73894
 N975 N 0.24954 -0.14097 0.73589
 C976 C 0.24671 -0.15369 0.71990
 N977 N 0.23095 -0.15007 0.70709
 N978 N 0.21855 -0.13438 0.71012
 C979 C 0.20774 -0.10441 0.72945
 N980 N 0.19243 -0.10043 0.71626
 N981 N 0.18005 -0.08472 0.71928
 C982 C 0.18246 -0.07239 0.73563
 N983 N 0.19780 -0.07644 0.74882
 N984 N 0.21021 -0.09212 0.74579
 C985 C 0.72124 0.37827 0.22599
 N986 N 0.71870 0.36582 0.20978
 N987 N 0.73119 0.35020 0.20675
 C988 C 0.74671 0.34646 0.21980
 N989 N 0.74925 0.35893 0.23601
 N990 N 0.73674 0.37453 0.23905
 C991 C 0.70748 0.39549 0.22933
 N992 N 0.70968 0.40761 0.24582
 N993 N 0.69719 0.42323 0.24885
 C994 C 0.68202 0.42737 0.23550
 N995 N 0.67986 0.41520 0.21900
 N996 N 0.69233 0.39956 0.21597
 C997 C 0.72149 0.62169 0.27347
 N998 N 0.71895 0.63419 0.28964
 N999 N 0.73142 0.64983 0.29260
 C1000 C 0.74693 0.65354 0.27952
 N1001 N 0.74947 0.64102 0.26336
 N1002 N 0.73698 0.62539 0.26038
 C1003 C 0.70772 0.60445 0.27021
 N1004 N 0.70990 0.59227 0.25376
 N1005 N 0.69739 0.57665 0.25081
 C1006 C 0.68223 0.57257 0.26421
 N1007 N 0.68011 0.58479 0.28067
 N1008 N 0.69260 0.60043 0.28362
 C1009 C 0.22197 0.12219 0.77381
 N1010 N 0.21910 0.13495 0.78971
 N1011 N 0.23155 0.15061 0.79270
 C1012 C 0.24738 0.15410 0.77992
 N1013 N 0.25022 0.14128 0.76401
 N1014 N 0.23775 0.12564 0.76101
 C1015 C 0.20822 0.10494 0.77052
 N1016 N 0.21063 0.09257 0.75423
 N1017 N 0.19815 0.07694 0.75126
 C1018 C 0.18278 0.07302 0.76447
 N1019 N 0.18043 0.08543 0.78076
 N1020 N 0.19289 0.10108 0.78373
 C1021 C 0.22586 0.27895 0.12097
 N1022 N 0.20967 0.28152 0.13347
 N1023 N 0.20669 0.26907 0.14913
 C1024 C 0.21977 0.25357 0.15286
 N1025 N 0.23596 0.25101 0.14034
 N1026 N 0.23895 0.26347 0.12470
 C1027 C 0.22913 0.29269 0.10372
 N1028 N 0.24559 0.29049 0.09153
 N1029 N 0.24855 0.30298 0.07590
 C1030 C 0.23516 0.31815 0.07182
 N1031 N 0.21869 0.32029 0.08405
 N1032 N 0.21573 0.30782 0.09970
 C1033 C 0.72595 0.77876 0.62115
 N1034 N 0.73901 0.76326 0.62490
 N1035 N 0.73597 0.75080 0.64054
 C1036 C 0.71976 0.75338 0.65302
 N1037 N 0.70671 0.76891 0.64927
 N1038 N 0.70974 0.78135 0.63362
 C1039 C 0.72928 0.79249 0.60391
 N1040 N 0.71592 0.80764 0.59984
 N1041 N 0.71893 0.82009 0.58419
 C1042 C 0.73544 0.81791 0.57200
 N1043 N 0.74880 0.80274 0.57613
 N1044 N 0.74578 0.79026 0.59176
 C1045 C 0.77420 0.77932 0.37758
 N1046 N 0.79042 0.78193 0.36513
 N1047 N 0.79348 0.76948 0.34950
 C1048 C 0.78045 0.75394 0.34576
 N1049 N 0.76423 0.75134 0.35823
 N1050 N 0.76116 0.76381 0.37384
 C1051 C 0.77082 0.79303 0.39482
 N1052 N 0.75431 0.79076 0.40694
 N1053 N 0.75126 0.80319 0.42258
 C1054 C 0.76460 0.81836 0.42675
 N1055 N 0.78113 0.82058 0.41459
 N1056 N 0.78417 0.80818 0.39893
 C1057 C 0.27360 0.27931 -0.12234
 N1058 N 0.28986 0.28188 -0.13476
 N1059 N 0.29296 0.26937 -0.15033
 C1060 C 0.27995 0.25381 -0.15406
 N1061 N 0.26369 0.25126 -0.14162
 N1062 N 0.26058 0.26378 -0.12606
 C1063 C 0.27020 0.29309 -0.10517
 N1064 N 0.25367 0.29087 -0.09306
 N1065 N 0.25060 0.30336 -0.07747
 C1066 C 0.26395 0.31855 -0.07334
 N1067 N 0.28048 0.32072 -0.08549
 N1068 N 0.28355 0.30825 -0.10110
 C1069 C 0.72660 0.22059 -0.12195
 N1070 N 0.71037 0.21800 -0.13438
 N1071 N 0.70728 0.23047 -0.14999
 C1072 C 0.72030 0.24602 -0.15376
 N1073 N 0.73653 0.24861 -0.14131
 N1074 N 0.73963 0.23612 -0.12571
 C1075 C 0.73000 0.20685 -0.10473
 N1076 N 0.74652 0.20910 -0.09263
 N1077 N 0.74959 0.19664 -0.07700
 C1078 C 0.73625 0.18145 -0.07283
 N1079 N 0.71973 0.17924 -0.08498
 N1080 N 0.71666 0.19169 -0.10062
 C1081 C 0.22585 0.72128 0.37822
 N1082 N 0.20968 0.71869 0.36572
 N1083 N 0.20669 0.73115 0.35007
 C1084 C 0.21975 0.74668 0.34636
 N1085 N 0.23592 0.74926 0.35888
 N1086 N 0.23892 0.73678 0.37452
 C1087 C 0.22914 0.70754 0.39547
 N1088 N 0.24561 0.70977 0.40764
 N1089 N 0.24859 0.69730 0.42328
 C1090 C 0.23521 0.68212 0.42739
 N1091 N 0.21874 0.67994 0.41517
 N1092 N 0.21577 0.69239 0.39951
 C1093 C 0.27331 0.72144 0.62166
 N1094 N 0.26027 0.73697 0.62536
 N1095 N 0.26330 0.74944 0.64097
 C1096 C 0.27948 0.74684 0.65349
 N1097 N 0.29251 0.73129 0.64979
 N1098 N 0.28949 0.71883 0.63416
 C1099 C 0.26999 0.70770 0.60444
 N1100 N 0.28335 0.69254 0.60043
 N1101 N 0.28036 0.68008 0.58480
 C1102 C 0.26389 0.68226 0.57258
 N1103 N 0.25053 0.69745 0.57666
 N1104 N 0.25353 0.70993 0.59227
 C1105 C 0.77455 0.22087 0.12147
 N1106 N 0.76146 0.23636 0.12517
 N1107 N 0.76444 0.24883 0.14079
 C1108 C 0.78062 0.24627 0.15332
 N1109 N 0.79371 0.23077 0.14961
 N1110 N 0.79073 0.21831 0.13397
 C1111 C 0.77128 0.20714 0.10424
 N1112 N 0.78467 0.19201 0.10022
 N1113 N 0.78171 0.17955 0.08458
 C1114 C 0.76523 0.18171 0.07235
 N1115 N 0.75185 0.19687 0.07644
 N1116 N 0.75481 0.20935 0.09206
 C1117 C 0.47625 0.37154 0.52948
 N1118 N 0.48930 0.37527 0.51398
 N1119 N 0.48624 0.39089 0.50149
 C1120 C 0.47002 0.40337 0.50405
 N1121 N 0.45697 0.39962 0.51958
 N1122 N 0.46002 0.38399 0.53205
 C1123 C 0.47960 0.35431 0.54324
 N1124 N 0.46625 0.35024 0.55838
 N1125 N 0.46928 0.33460 0.57084
 C1126 C 0.48579 0.32241 0.56867
 N1127 N 0.49914 0.32654 0.55349
 N1128 N 0.49611 0.34217 0.54101
 C1129 C -0.02391 0.87187 0.02839
 N1130 N -0.01104 0.87540 0.01269
 N1131 N -0.01405 0.89107 0.00026
 C1132 C -0.03003 0.90383 0.00305
 N1133 N -0.04289 0.90026 0.01880
 N1134 N -0.03989 0.88457 0.03121
 C1135 C -0.02062 0.85458 0.04208
 N1136 N -0.03385 0.85065 0.05738
 N1137 N -0.03087 0.83496 0.06979
 C1138 C -0.01453 0.82258 0.06742
 N1139 N -0.00130 0.82657 0.05210
 N1140 N -0.00429 0.84224 0.03967
 C1141 C 0.02375 0.62781 0.02865
 N1142 N 0.03977 0.61514 0.03146
 N1143 N 0.04280 0.59948 0.01905
 C1144 C 0.02995 0.59588 0.00332
 N1145 N 0.01393 0.60861 0.00054
 N1146 N 0.01089 0.62425 0.01297
 C1147 C 0.02042 0.64509 0.04234
 N1148 N 0.00406 0.65738 0.03993
 N1149 N 0.00105 0.67305 0.05234
 C1150 C 0.01428 0.67707 0.06763
 N1151 N 0.03065 0.66473 0.06999
 N1152 N 0.03366 0.64904 0.05761
 C1153 C 0.52417 0.12801 0.52957
 N1154 N 0.54039 0.11555 0.53210
 N1155 N 0.54340 0.09992 0.51964
 C1156 C 0.53032 0.09619 0.50415
 N1157 N 0.51410 0.10867 0.50163
 N1158 N 0.51107 0.12429 0.51411
 C1159 C 0.52085 0.14524 0.54331
 N1160 N 0.50435 0.15740 0.54111
 N1161 N 0.50135 0.17303 0.55358
 C1162 C 0.51474 0.17715 0.56872
 N1163 N 0.53124 0.16495 0.57087
 N1164 N 0.53424 0.14930 0.55842
 C1165 C -0.02390 0.12890 0.47127
 N1166 N -0.04008 0.11638 0.46872
 N1167 N -0.04307 0.10074 0.48120
 C1168 C -0.03001 0.09705 0.49671
 N1169 N -0.01383 0.10959 0.49926
 N1170 N -0.01083 0.12521 0.48676
 C1171 C -0.02062 0.14612 0.45750
 N1172 N -0.00416 0.15833 0.45968
 N1173 N -0.00119 0.17395 0.44717
 C1174 C -0.01457 0.17800 0.43201
 N1175 N -0.03104 0.16575 0.42988
 N1176 N -0.03400 0.15012 0.44236
 C1177 C 0.47599 0.62800 0.97141
 N1178 N 0.48884 0.62451 0.98713
 N1179 N 0.48579 0.60889 0.99962
 C1180 C 0.46980 0.59613 0.99686
 N1181 N 0.45697 0.59967 0.98109
 N1182 N 0.46001 0.61530 0.96862
 C1183 C 0.47932 0.64524 0.95766
 N1184 N 0.46607 0.64912 0.94237
 N1185 N 0.46906 0.66477 0.92991
 C1186 C 0.48542 0.67714 0.93222
 N1187 N 0.49866 0.67319 0.94753
 N1188 N 0.49566 0.65756 0.96002
 C1189 C 0.52382 0.87146 0.97135
 N1190 N 0.51078 0.87519 0.98686
 N1191 N 0.51386 0.89078 0.99935
 C1192 C 0.53009 0.90325 0.99678
 N1193 N 0.54312 0.89952 0.98125
 N1194 N 0.54005 0.88391 0.96878
 C1195 C 0.52045 0.85425 0.95761
 N1196 N 0.53381 0.85020 0.94246
 N1197 N 0.53077 0.83457 0.93000
 C1198 C 0.51425 0.82239 0.93218
 N1199 N 0.50090 0.82650 0.94736
 N1200 N 0.50395 0.84212 0.95984
 C1201 C 0.02366 0.37231 0.47081
 N1202 N 0.01064 0.37598 0.48635
 N1203 N 0.01372 0.39156 0.49887
 C1204 C 0.02993 0.40406 0.49629
 N1205 N 0.04293 0.40039 0.48072
 N1206 N 0.03986 0.38480 0.46822
 C1207 C 0.02029 0.35511 0.45705
 N1208 N 0.03363 0.35109 0.44188
 N1209 N 0.03060 0.33546 0.42942
 C1210 C 0.01411 0.32325 0.43162
 N1211 N 0.00077 0.32734 0.44682
 N1212 N 0.00381 0.34295 0.45929
 C1213 C 0.37140 0.52892 0.47645
 N1214 N 0.37514 0.51344 0.48953
 N1215 N 0.39078 0.50097 0.48652
 C1216 C 0.40328 0.50353 0.47032
 N1217 N 0.39953 0.51903 0.45724
 N1218 N 0.38387 0.53148 0.46024
 C1219 C 0.35414 0.54266 0.47974
 N1220 N 0.35007 0.55777 0.46635
 N1221 N 0.33441 0.57022 0.46932
 C1222 C 0.32220 0.56807 0.48581
 N1223 N 0.32633 0.55293 0.49920
 N1224 N 0.34198 0.54045 0.49623
 C1225 C 0.87260 0.02818 -0.02382
 N1226 N 0.87604 0.01241 -0.01101
 N1227 N 0.89165 -0.00010 -0.01404
 C1228 C 0.90446 0.00271 -0.02998
 N1229 N 0.90098 0.01853 -0.04277
 N1230 N 0.88535 0.03101 -0.03975
 C1231 C 0.85537 0.04195 -0.02050
 N1232 N 0.85152 0.05728 -0.03372
 N1233 N 0.83589 0.06976 -0.03073
 C1234 C 0.82349 0.06743 -0.01441
 N1235 N 0.82740 0.05207 -0.00120
 N1236 N 0.84302 0.03957 -0.00419
 C1237 C 0.62889 0.02860 0.02416
 N1238 N 0.62509 0.01312 0.01112
 N1239 N 0.60943 0.00068 0.01418
 C1240 C 0.59697 0.00327 0.03040
 N1241 N 0.60077 0.01877 0.04344
 N1242 N 0.61644 0.03120 0.04038
 C1243 C 0.64616 0.04230 0.02080
 N1244 N 0.65029 0.05743 0.03413
 N1245 N 0.66597 0.06984 0.03108
 C1246 C 0.67814 0.06763 0.01457
 N1247 N 0.67395 0.05247 0.00124
 N1248 N 0.65829 0.04004 0.00430
 C1249 C 0.12768 0.52893 0.52407
 N1250 N 0.11504 0.53166 0.54011
 N1251 N 0.09941 0.51918 0.54315
 C1252 C 0.09582 0.50346 0.53029
 N1253 N 0.10852 0.50075 0.51425
 N1254 N 0.12413 0.51325 0.51120
 C1255 C 0.14491 0.54268 0.52072
 N1256 N 0.15719 0.54034 0.50435
 N1257 N 0.17282 0.55282 0.50133
 C1258 C 0.17682 0.56812 0.51456
 N1259 N 0.16450 0.57042 0.53094
 N1260 N 0.14885 0.55796 0.53396
 C1261 C 0.12763 0.47181 -0.02387
 N1262 N 0.11486 0.46901 -0.03978
 N1263 N 0.09920 0.48146 -0.04273
 C1264 C 0.09571 0.49724 -0.02991
 N1265 N 0.10854 0.50002 -0.01399
 N1266 N 0.12418 0.48754 -0.01103
 C1267 C 0.14489 0.45806 -0.02063
 N1268 N 0.15728 0.46041 -0.00435
 N1269 N 0.17292 0.44791 -0.00142
 C1270 C 0.17681 0.43259 -0.01467
 N1271 N 0.16438 0.43030 -0.03096
 N1272 N 0.14872 0.44277 -0.03388
 C1273 C 0.62813 0.97138 0.47607
 N1274 N 0.61538 0.96859 0.46014
 N1275 N 0.59971 0.98103 0.45718
 C1276 C 0.59619 0.99678 0.47003
 N1277 N 0.60899 0.99954 0.48597
 N1278 N 0.62464 0.98707 0.48894
 C1279 C 0.64539 0.95764 0.47932
 N1280 N 0.65775 0.95999 0.49562
 N1281 N 0.67340 0.94752 0.49857
 C1282 C 0.67735 0.93222 0.48531
 N1283 N 0.66495 0.92992 0.46900
 N1284 N 0.64927 0.94237 0.46606
 C1285 C 0.87177 0.97124 0.52397
 N1286 N 0.88420 0.96865 0.54019
 N1287 N 0.89983 0.98113 0.54327
 C1288 C 0.90358 0.99668 0.53026
 N1289 N 0.89113 0.99926 0.51404
 N1290 N 0.87552 0.98677 0.51095
 C1291 C 0.85455 0.95749 0.52057
 N1292 N 0.84244 0.95975 0.50406
 N1293 N 0.82682 0.94729 0.50098
 C1294 C 0.82265 0.93207 0.51429
 N1295 N 0.83481 0.92986 0.53080
 N1296 N 0.85045 0.94231 0.53388
 C1297 C 0.37136 0.47144 0.02354
 N1298 N 0.38381 0.46882 0.03975
 N1299 N 0.39947 0.48126 0.04281
 C1300 C 0.40324 0.49681 0.02979
 N1301 N 0.39076 0.49942 0.01358
 N1302 N 0.37513 0.48696 0.01051
 C1303 C 0.35411 0.45772 0.02017
 N1304 N 0.34198 0.46000 0.00369
 N1305 N 0.32633 0.44755 0.00063
 C1306 C 0.32217 0.43234 0.01395
 N1307 N 0.33435 0.43011 0.03045
 N1308 N 0.35001 0.44254 0.03349
 C1309 C 0.52895 0.47614 0.37190
 N1310 N 0.53153 0.45992 0.38436
 N1311 N 0.51908 0.45689 0.40001
 C1312 C 0.50356 0.46994 0.40376
 N1313 N 0.50099 0.48615 0.39128
 N1314 N 0.51345 0.48920 0.37565
 C1315 C 0.54268 0.47947 0.35465
 N1316 N 0.54045 0.49598 0.34252
 N1317 N 0.55291 0.49899 0.32687
 C1318 C 0.56806 0.48561 0.32271
 N1319 N 0.57023 0.46910 0.33489
 N1320 N 0.55780 0.46609 0.35056
 C1321 C 0.02950 -0.02379 0.87201
 N1322 N 0.01398 -0.01074 0.87575
 N1323 N 0.00147 -0.01384 0.89133
 C1324 C 0.00402 -0.03009 0.90378
 N1325 N 0.01956 -0.04312 0.90004
 N1326 N 0.03206 -0.04003 0.88443
 C1327 C 0.04327 -0.02040 0.85480
 N1328 N 0.05842 -0.03374 0.85072
 N1329 N 0.07088 -0.03069 0.83509
 C1330 C 0.06871 -0.01416 0.82293
 N1331 N 0.05353 -0.00081 0.82708
 N1332 N 0.04104 -0.00387 0.84269
 C1333 C 0.02916 0.02434 0.62875
 N1334 N 0.01368 0.01126 0.62504
 N1335 N 0.00118 0.01428 0.60943
 C1336 C 0.00373 0.03049 0.59693
 N1337 N 0.01924 0.04357 0.60065
 N1338 N 0.03171 0.04055 0.61628
 C1339 C 0.04293 0.02102 0.64596
 N1340 N 0.05808 0.03439 0.64998
 N1341 N 0.07056 0.03139 0.66560
 C1342 C 0.06841 0.01489 0.67781
 N1343 N 0.05323 0.00153 0.67372
 N1344 N 0.04073 0.00453 0.65812
 C1345 C 0.52887 0.52407 0.12826
 N1346 N 0.51337 0.51102 0.12451
 N1347 N 0.50091 0.51408 0.10888
 C1348 C 0.50351 0.53029 0.09639
 N1349 N 0.51903 0.54333 0.10015
 N1350 N 0.53147 0.54028 0.11579
 C1351 C 0.54259 0.52073 0.14550
 N1352 N 0.55773 0.53409 0.14958
 N1353 N 0.57016 0.53107 0.16523
 C1354 C 0.56797 0.51456 0.17742
 N1355 N 0.55279 0.50121 0.17328
 N1356 N 0.54034 0.50423 0.15764
 C1357 C 0.47128 -0.02416 0.12893
 N1358 N 0.46868 -0.04033 0.11645
 N1359 N 0.48114 -0.04334 0.10081
 C1360 C 0.49668 -0.03030 0.09708
 N1361 N 0.49928 -0.01413 0.10959
 N1362 N 0.48680 -0.01111 0.12522
 C1363 C 0.45753 -0.02085 0.14617
 N1364 N 0.45977 -0.00439 0.15833
 N1365 N 0.44728 -0.00139 0.17395
 C1366 C 0.43208 -0.01475 0.17805
 N1367 N 0.42990 -0.03122 0.16583
 N1368 N 0.44237 -0.03421 0.15020
 C1369 C 0.97126 0.47600 0.62883
 N1370 N 0.96869 0.45986 0.61629
 N1371 N 0.98113 0.45693 0.60062
 C1372 C 0.99664 0.47002 0.59692
 N1373 N 0.99921 0.48616 0.60949
 N1374 N 0.98675 0.48910 0.62514
 C1375 C 0.95751 0.47923 0.64608
 N1376 N 0.95971 0.49566 0.65829
 N1377 N 0.94721 0.49859 0.67391
 C1378 C 0.93205 0.48519 0.67797
 N1379 N 0.92990 0.46874 0.66571
 N1380 N 0.94238 0.46582 0.65007
 C1381 C 0.97060 0.52361 0.87225
 N1382 N 0.96799 0.53983 0.88468
 N1383 N 0.98047 0.54292 0.90029
 C1384 C 0.99604 0.52992 0.90403
 N1385 N 0.99864 0.51370 0.89158
 N1386 N 0.98615 0.51060 0.87599
 C1387 C 0.95686 0.52022 0.85503
 N1388 N 0.95913 0.50371 0.84293
 N1389 N 0.94668 0.50065 0.82730
 C1390 C 0.93148 0.51397 0.82314
 N1391 N 0.92925 0.53048 0.83530
 N1392 N 0.94169 0.53354 0.85094
 C1393 C 0.47106 0.02352 0.37222
 N1394 N 0.48658 0.01047 0.37592
 N1395 N 0.49910 0.01351 0.39150
 C1396 C 0.49654 0.02971 0.40399
 N1397 N 0.48099 0.04275 0.40029
 N1398 N 0.46849 0.03972 0.38469
 C1399 C 0.45728 0.02018 0.35502
 N1400 N 0.44213 0.03355 0.35098
 N1401 N 0.42966 0.03054 0.33536
 C1402 C 0.43182 0.01404 0.32317
 N1403 N 0.44700 0.00068 0.32728
 N1404 N 0.45949 0.00369 0.34289
   
