data_POSCAR
  _audit_creation_date              2014-09-24
  _audit_creation_method            'ToBaCCo'
  _symmetry_space_group_name_H-M    'P1'
  _symmetry_Int_Tables_number       1
  _symmetry_cell_setting            triclinic
  loop_
  _symmetry_equiv_pos_as_xyz
 x,y,z
_cell_length_a 89.4416
_cell_length_b 88.8484
_cell_length_c 91.3260
_cell_angle_alpha 89.720400
_cell_angle_beta 89.711600
_cell_angle_gamma 89.675600
loop_
  _atom_site_label
  _atom_site_type_symbol
  _atom_site_fract_x
  _atom_site_fract_y
  _atom_site_fract_z
N1 N 0.36473 0.32455 0.34207
 N2 N 0.36454 0.33303 0.33022
 C3 C 0.37648 0.32956 0.32181
 C4 C 0.38454 0.31830 0.32883
 C5 C 0.37680 0.31547 0.34166
 H6 H 0.37883 0.33458 0.31124
 H7 H 0.37948 0.30707 0.34987
 Cu8 Cu 0.34837 0.34741 0.32679
 Cu9 Cu 0.34866 0.32523 0.35661
 Cu10 Cu 0.31545 0.33654 0.34073
 N11 N 0.33005 0.35859 0.32266
 N12 N 0.31713 0.35383 0.32777
 C13 C 0.30618 0.36303 0.32309
 C14 C 0.31255 0.37435 0.31485
 C15 C 0.32776 0.37122 0.31471
 H16 H 0.29447 0.36180 0.32585
 H17 H 0.33645 0.37757 0.30926
 N18 N 0.31640 0.32465 0.35891
 N19 N 0.32905 0.32108 0.36548
 C20 C 0.32594 0.31432 0.37836
 C21 C 0.31054 0.31368 0.37991
 C22 C 0.30488 0.32026 0.36739
 H23 H 0.33426 0.31026 0.38599
 H24 H 0.29322 0.32221 0.36489
 H25 H 0.33614 0.32591 0.33850
 H26 H 0.33492 0.34334 0.34978
 N27 N 0.36587 0.81680 -0.17116
 N28 N 0.36878 0.82950 -0.17800
 C29 C 0.38025 0.82738 -0.18737
 C30 C 0.38475 0.81246 -0.18632
 C31 C 0.37537 0.80609 -0.17597
 H32 H 0.38476 0.83601 -0.19447
 H33 H 0.37559 0.79457 -0.17209
 Cu34 Cu 0.35692 0.84738 -0.17445
 Cu35 Cu 0.35064 0.81542 -0.15589
 Cu36 Cu 0.32948 0.84765 -0.14928
 N37 N 0.34084 0.86207 -0.17514
 N38 N 0.33014 0.86240 -0.16522
 C39 C 0.32068 0.87383 -0.16836
 C40 C 0.32573 0.88084 -0.18107
 C41 C 0.33849 0.87306 -0.18504
 H42 H 0.31079 0.87657 -0.16203
 H43 H 0.34554 0.87520 -0.19448
 N44 N 0.32734 0.82892 -0.13770
 N45 N 0.33491 0.81650 -0.14074
 C46 C 0.33084 0.80562 -0.13126
 C47 C 0.32037 0.81145 -0.12172
 C48 C 0.31833 0.82626 -0.12609
 H49 H 0.33540 0.79432 -0.13102
 H50 H 0.31083 0.83445 -0.12126
 H51 H 0.33687 0.83229 -0.16419
 H52 H 0.35066 0.83766 -0.14993
 N53 N 0.86415 0.32678 -0.16106
 N54 N 0.86411 0.33496 -0.17310
 C55 C 0.87581 0.33086 -0.18156
 C56 C 0.88354 0.31948 -0.17435
 C57 C 0.87587 0.31725 -0.16139
 H58 H 0.87819 0.33549 -0.19228
 H59 H 0.87833 0.30894 -0.15303
 Cu60 Cu 0.84836 0.34975 -0.17670
 Cu61 Cu 0.84836 0.32841 -0.14637
 Cu62 Cu 0.81525 0.34096 -0.16166
 N63 N 0.83041 0.36139 -0.18110
 N64 N 0.81743 0.35759 -0.17541
 C65 C 0.80677 0.36691 -0.18051
 C66 C 0.81342 0.37729 -0.18972
 C67 C 0.82849 0.37347 -0.18990
 H68 H 0.79506 0.36632 -0.17754
 H69 H 0.83735 0.37891 -0.19600
 N70 N 0.81614 0.32922 -0.14334
 N71 N 0.82881 0.32512 -0.13712
 C72 C 0.82580 0.31799 -0.12442
 C73 C 0.81043 0.31762 -0.12260
 C74 C 0.80468 0.32482 -0.13477
 H75 H 0.83418 0.31324 -0.11724
 H76 H 0.79299 0.32686 -0.13711
 H77 H 0.83533 0.32926 -0.16421
 H78 H 0.83525 0.34697 -0.15330
 N79 N 0.85885 0.81893 0.32905
 N80 N 0.85553 0.82560 0.31659
 C81 C 0.86550 0.82144 0.30630
 C82 C 0.87568 0.81174 0.31264
 C83 C 0.87115 0.81031 0.32711
 H84 H 0.86555 0.82545 0.29510
 H85 H 0.87639 0.80361 0.33558
 Cu86 Cu 0.83917 0.83985 0.31483
 Cu87 Cu 0.84692 0.82209 0.34673
 Cu88 Cu 0.82269 0.85247 0.34555
 N89 N 0.82789 0.85852 0.31511
 N90 N 0.82203 0.86377 0.32729
 C91 C 0.81512 0.87694 0.32447
 C92 C 0.81670 0.88005 0.30965
 C93 C 0.82484 0.86811 0.30405
 H94 H 0.80909 0.88347 0.33254
 H95 H 0.82831 0.86654 0.29279
 N96 N 0.82479 0.83945 0.36288
 N97 N 0.83374 0.82760 0.36329
 C98 C 0.83151 0.82017 0.37602
 C99 C 0.82062 0.82780 0.38391
 C100 C 0.81668 0.83994 0.37530
 H101 H 0.83700 0.80975 0.37904
 H102 H 0.80799 0.84810 0.37766
 H103 H 0.82776 0.83107 0.33749
 H104 H 0.84389 0.84414 0.34052
 N105 N 0.63832 0.67907 0.33613
 N106 N 0.63792 0.66896 0.32567
 C107 C 0.62615 0.67193 0.31692
 C108 C 0.61888 0.68460 0.32221
 C109 C 0.62689 0.68882 0.33437
 H110 H 0.62343 0.66571 0.30716
 H111 H 0.62476 0.69852 0.34120
 Cu112 Cu 0.65357 0.65372 0.32380
 Cu113 Cu 0.65406 0.67948 0.35077
 Cu114 Cu 0.68227 0.65288 0.34740
 N115 N 0.66941 0.63863 0.32227
 N116 N 0.68075 0.63871 0.33137
 C117 C 0.69052 0.62785 0.32758
 C118 C 0.68502 0.62048 0.31554
 C119 C 0.67157 0.62757 0.31239
 H120 H 0.70095 0.62551 0.33310
 H121 H 0.66417 0.62514 0.30339
 N122 N 0.68186 0.66806 0.36297
 N123 N 0.67099 0.67805 0.36446
 C124 C 0.67395 0.68681 0.37609
 C125 C 0.68736 0.68208 0.38211
 C126 C 0.69205 0.67024 0.37353
 H127 H 0.66706 0.69612 0.37970
 H128 H 0.70224 0.66379 0.37487
 H129 H 0.67025 0.67006 0.33746
 H130 H 0.65957 0.65693 0.34960
 N131 N 0.63848 0.17538 -0.17073
 N132 N 0.64064 0.16478 -0.18052
 C133 C 0.63009 0.16605 -0.19095
 C134 C 0.62079 0.17795 -0.18739
 C135 C 0.62644 0.18365 -0.17450
 H136 H 0.62913 0.15882 -0.20038
 H137 H 0.62231 0.19326 -0.16847
 Cu138 Cu 0.65675 0.15008 -0.17860
 Cu139 Cu 0.65174 0.17805 -0.15418
 Cu140 Cu 0.67940 0.15124 -0.14908
 N141 N 0.67175 0.13458 -0.17482
 N142 N 0.68049 0.13503 -0.16331
 C143 C 0.68981 0.12308 -0.16355
 C144 C 0.68674 0.11468 -0.17585
 C145 C 0.67516 0.12229 -0.18277
 H146 H 0.69831 0.12072 -0.15546
 H147 H 0.66970 0.11922 -0.19284
 N148 N 0.67656 0.16853 -0.13590
 N149 N 0.66620 0.17892 -0.13807
 C150 C 0.66758 0.18968 -0.12784
 C151 C 0.67924 0.18581 -0.11873
 C152 C 0.68472 0.17233 -0.12412
 H153 H 0.66072 0.19972 -0.12711
 H154 H 0.69421 0.16603 -0.12005
 H155 H 0.67042 0.16735 -0.16289
 H156 H 0.65692 0.15534 -0.15243
 N157 N 0.13966 0.68028 -0.16325
 N158 N 0.14012 0.67190 -0.17506
 C159 C 0.12818 0.67509 -0.18345
 C160 C 0.11983 0.68614 -0.17653
 C161 C 0.12744 0.68919 -0.16377
 H162 H 0.12598 0.66999 -0.19394
 H163 H 0.12446 0.69750 -0.15564
 Cu164 Cu 0.15650 0.65802 -0.17873
 Cu165 Cu 0.15544 0.67969 -0.14862
 Cu166 Cu 0.18458 0.65450 -0.15479
 N167 N 0.16967 0.64059 -0.17885
 N168 N 0.18059 0.63912 -0.16938
 C169 C 0.18828 0.62640 -0.17231
 C170 C 0.18175 0.61957 -0.18428
 C171 C 0.17000 0.62888 -0.18814
 H172 H 0.19811 0.62269 -0.16644
 H173 H 0.16244 0.62737 -0.19721
 N174 N 0.18391 0.66820 -0.13788
 N175 N 0.17261 0.67746 -0.13529
 C176 C 0.17553 0.68539 -0.12311
 C177 C 0.18934 0.68092 -0.11783
 C178 C 0.19433 0.67004 -0.12745
 H179 H 0.16841 0.69416 -0.11873
 H180 H 0.20489 0.66407 -0.12698
 H181 H 0.17227 0.67294 -0.16236
 H182 H 0.16199 0.65760 -0.15270
 N183 N 0.13798 0.18129 0.33826
 N184 N 0.13722 0.17268 0.32662
 C185 C 0.12512 0.17667 0.31875
 C186 C 0.11803 0.18848 0.32583
 C187 C 0.12651 0.19115 0.33811
 H188 H 0.12195 0.17160 0.30849
 H189 H 0.12455 0.19977 0.34623
 Cu190 Cu 0.15235 0.15747 0.32250
 Cu191 Cu 0.15403 0.17949 0.35244
 Cu192 Cu 0.18172 0.15317 0.34496
 N193 N 0.16516 0.13972 0.32170
 N194 N 0.17658 0.13810 0.33057
 C195 C 0.18396 0.12532 0.32731
 C196 C 0.17673 0.11852 0.31575
 C197 C 0.16487 0.12796 0.31245
 H198 H 0.19403 0.12154 0.33272
 H199 H 0.15683 0.12651 0.30376
 N200 N 0.18202 0.16620 0.36225
 N201 N 0.17131 0.17599 0.36532
 C202 C 0.17458 0.18288 0.37799
 C203 C 0.18797 0.17709 0.38313
 C204 C 0.19236 0.16657 0.37290
 H205 H 0.16777 0.19153 0.38302
 H206 H 0.20233 0.15964 0.37325
 H207 H 0.16958 0.17198 0.33782
 H208 H 0.15931 0.15709 0.34818
 N209 N 0.63820 0.31808 0.66938
 N210 N 0.63676 0.32938 0.67852
 C211 C 0.62532 0.32657 0.68777
 C212 C 0.61932 0.31275 0.68420
 C213 C 0.62779 0.30766 0.67254
 H214 H 0.62181 0.33389 0.69656
 H215 H 0.62640 0.29717 0.66676
 Cu216 Cu 0.65024 0.34646 0.67790
 Cu217 Cu 0.65317 0.31799 0.65390
 Cu218 Cu 0.67747 0.34821 0.65212
 N219 N 0.66499 0.36241 0.67760
 N220 N 0.67534 0.36340 0.66737
 C221 C 0.68415 0.37530 0.67022
 C222 C 0.67905 0.38197 0.68300
 C223 C 0.66697 0.37349 0.68738
 H224 H 0.69391 0.37842 0.66389
 H225 H 0.66035 0.37510 0.69720
 N226 N 0.67785 0.33157 0.63783
 N227 N 0.66890 0.31984 0.63890
 C228 C 0.67231 0.31003 0.62820
 C229 C 0.68384 0.31585 0.61993
 C230 C 0.68714 0.32954 0.62630
 H231 H 0.66685 0.29936 0.62650
 H232 H 0.69587 0.33723 0.62303
 H233 H 0.66867 0.33116 0.66487
 H234 H 0.65557 0.34113 0.65218
 N235 N 0.63812 0.82229 1.16044
 N236 N 0.63657 0.83208 1.17110
 C237 C 0.62437 0.82848 1.17910
 C238 C 0.61801 0.81576 1.17305
 C239 C 0.62701 0.81219 1.16126
 H240 H 0.62058 0.83448 1.18872
 H241 H 0.62568 0.80274 1.15397
 Cu242 Cu 0.65087 0.84834 1.17386
 Cu243 Cu 0.65458 0.82290 1.14653
 Cu244 Cu 0.68214 0.84893 1.15292
 N245 N 0.66736 0.86203 1.17781
 N246 N 0.67965 0.86176 1.16985
 C247 C 0.68934 0.87187 1.17508
 C248 C 0.68279 0.87900 1.18685
 C249 C 0.66881 0.87251 1.18836
 H250 H 0.70033 0.87405 1.17058
 H251 H 0.66045 0.87507 1.19658
 N252 N 0.68274 0.83511 1.13623
 N253 N 0.67213 0.82524 1.13367
 C254 C 0.67567 0.81749 1.12147
 C255 C 0.68917 0.82280 1.11616
 C256 C 0.69332 0.83393 1.12576
 H257 H 0.66897 0.80861 1.11689
 H258 H 0.70335 0.84063 1.12512
 H259 H 0.66893 0.83199 1.16171
 H260 H 0.65969 0.84542 1.14866
 N261 N 0.13730 0.32155 1.16613
 N262 N 0.13726 0.33014 1.17782
 C263 C 0.12570 0.32616 1.18653
 C264 C 0.11820 0.31443 1.17991
 C265 C 0.12587 0.31180 1.16703
 H266 H 0.12304 0.33130 1.19693
 H267 H 0.12330 0.30339 1.15893
 Cu268 Cu 0.15246 0.34554 1.18051
 Cu269 Cu 0.15208 0.32355 1.15056
 Cu270 Cu 0.17847 0.35156 1.15434
 N271 N 0.16724 0.36150 1.18222
 N272 N 0.17714 0.36394 1.17180
 C273 C 0.18585 0.37558 1.17557
 C274 C 0.18120 0.38071 1.18913
 C275 C 0.16942 0.37150 1.19306
 H276 H 0.19505 0.37978 1.16905
 H277 H 0.16295 0.37209 1.20308
 N278 N 0.17804 0.33790 1.13745
 N279 N 0.16792 0.32728 1.13596
 C280 C 0.17070 0.31971 1.12348
 C281 C 0.18320 0.32586 1.11686
 C282 C 0.18758 0.33732 1.12600
 H283 H 0.16431 0.31022 1.11969
 H284 H 0.19714 0.34455 1.12446
 H285 H 0.16889 0.33248 1.16328
 H286 H 0.15603 0.34615 1.15404
 N287 N 0.13996 0.82056 0.66737
 N288 N 0.14144 0.82942 0.67875
 C289 C 0.12935 0.82828 0.68742
 C290 C 0.11976 0.81804 0.68133
 C291 C 0.12679 0.81326 0.66856
 H292 H 0.12773 0.83432 0.69757
 H293 H 0.12274 0.80507 0.66083
 Cu294 Cu 0.15905 0.84144 0.68171
 Cu295 Cu 0.15583 0.81917 0.65253
 Cu296 Cu 0.18217 0.84790 0.65356
 N297 N 0.17248 0.85833 0.68171
 N298 N 0.18146 0.86109 0.67060
 C299 C 0.18923 0.87371 0.67339
 C300 C 0.18472 0.87907 0.68696
 C301 C 0.17411 0.86905 0.69188
 H302 H 0.19743 0.87862 0.66608
 H303 H 0.16791 0.86962 0.70207
 N304 N 0.18100 0.83323 0.63743
 N305 N 0.17093 0.82240 0.63686
 C306 C 0.17362 0.81396 0.62487
 C307 C 0.18604 0.81971 0.61771
 C308 C 0.19041 0.83184 0.62596
 H309 H 0.16744 0.80401 0.62195
 H310 H 0.20006 0.83885 0.62395
 H311 H 0.17409 0.82851 0.66307
 H312 H 0.15988 0.84158 0.65518
 N313 N 0.36079 0.68025 0.66935
 N314 N 0.35769 0.67233 0.68116
 C315 C 0.36815 0.67482 0.69136
 C316 C 0.37843 0.68476 0.68565
 C317 C 0.37346 0.68804 0.67163
 H318 H 0.36832 0.66971 0.70214
 H319 H 0.37847 0.69570 0.66381
 Cu320 Cu 0.34059 0.65919 0.68213
 Cu321 Cu 0.34752 0.68021 0.65240
 Cu322 Cu 0.32027 0.65252 0.65196
 N323 N 0.32812 0.64161 0.68055
 N324 N 0.32013 0.63881 0.66884
 C325 C 0.31282 0.62569 0.67090
 C326 C 0.31664 0.62009 0.68460
 C327 C 0.32634 0.63045 0.69034
 H328 H 0.30549 0.62057 0.66299
 H329 H 0.33182 0.62983 0.70087
 N330 N 0.32253 0.66770 0.63615
 N331 N 0.33287 0.67826 0.63643
 C332 C 0.33092 0.68754 0.62489
 C333 C 0.31888 0.68258 0.61692
 C334 C 0.31380 0.66994 0.62432
 H335 H 0.33745 0.69750 0.62267
 H336 H 0.30410 0.66330 0.62167
 H337 H 0.32803 0.67180 0.66193
 H338 H 0.34232 0.65770 0.65572
 N339 N 0.36225 0.18101 1.16413
 N340 N 0.36240 0.17083 1.17461
 C341 C 0.37374 0.17382 1.18381
 C342 C 0.38095 0.18661 1.17879
 C343 C 0.37335 0.19088 1.16634
 H344 H 0.37634 0.16740 1.19357
 H345 H 0.37565 0.20057 1.15950
 Cu346 Cu 0.34744 0.15500 1.17530
 Cu347 Cu 0.34745 0.18106 1.14865
 Cu348 Cu 0.31928 0.15450 1.15095
 N349 N 0.33274 0.13892 1.17523
 N350 N 0.32174 0.13864 1.16572
 C351 C 0.31301 0.12664 1.16861
 C352 C 0.31893 0.11905 1.18057
 C353 C 0.33141 0.12713 1.18442
 H354 H 0.30297 0.12387 1.16268
 H355 H 0.33878 0.12470 1.19349
 N356 N 0.32061 0.16947 1.13483
 N357 N 0.33150 0.17943 1.13406
 C358 C 0.32940 0.18828 1.12227
 C359 C 0.31664 0.18376 1.11523
 C360 C 0.31128 0.17176 1.12342
 H361 H 0.33646 0.19759 1.11911
 H362 H 0.30125 0.16538 1.12139
 H363 H 0.33086 0.17157 1.16127
 H364 H 0.34178 0.15831 1.14950
 N365 N 0.86190 0.68111 1.16632
 N366 N 0.86328 0.67110 1.17688
 C367 C 0.87476 0.67497 1.18552
 C368 C 0.88086 0.68814 1.18010
 C369 C 0.87239 0.69179 1.16797
 H370 H 0.87825 0.66884 1.19517
 H371 H 0.87382 0.70144 1.16085
 Cu372 Cu 0.84976 0.65415 1.17869
 Cu373 Cu 0.84678 0.67934 1.15113
 Cu374 Cu 0.82243 0.64923 1.15413
 N375 N 0.83559 0.63775 1.18054
 N376 N 0.82519 0.63566 1.17065
 C377 C 0.81702 0.62357 1.17440
 C378 C 0.82255 0.61785 1.18740
 C379 C 0.83425 0.62714 1.19105
 H380 H 0.80750 0.61954 1.16835
 H381 H 0.84119 0.62624 1.20068
 N382 N 0.82137 0.66413 1.13819
 N383 N 0.83073 0.67551 1.13689
 C384 C 0.82704 0.68362 1.12492
 C385 C 0.81474 0.67704 1.11850
 C386 C 0.81142 0.66479 1.12720
 H387 H 0.83266 0.69374 1.12133
 H388 H 0.80233 0.65701 1.12563
 H389 H 0.83152 0.66800 1.16407
 H390 H 0.84442 0.65633 1.15260
 N391 N 0.86102 0.17690 0.66234
 N392 N 0.86150 0.16649 0.67262
 C393 C 0.87308 0.16937 0.68158
 C394 C 0.88013 0.18228 0.67658
 C395 C 0.87219 0.18671 0.66440
 H396 H 0.87590 0.16282 0.69120
 H397 H 0.87423 0.19659 0.65773
 Cu398 Cu 0.84648 0.15064 0.67372
 Cu399 Cu 0.84561 0.17764 0.64751
 Cu400 Cu 0.81711 0.15181 0.65053
 N401 N 0.82986 0.13654 0.67538
 N402 N 0.81833 0.13740 0.66653
 C403 C 0.80838 0.12675 0.67023
 C404 C 0.81394 0.11870 0.68195
 C405 C 0.82762 0.12518 0.68500
 H406 H 0.79787 0.12488 0.66475
 H407 H 0.83525 0.12202 0.69365
 N408 N 0.81786 0.16716 0.63495
 N409 N 0.82902 0.17671 0.63353
 C410 C 0.82654 0.18558 0.62178
 C411 C 0.81314 0.18141 0.61556
 C412 C 0.80791 0.16977 0.62419
 H413 H 0.83375 0.19462 0.61825
 H414 H 0.79759 0.16369 0.62270
 H415 H 0.82965 0.16794 0.66105
 H416 H 0.83981 0.15509 0.64814
 N417 N 0.32130 0.36002 0.66477
 N418 N 0.33178 0.36122 0.67475
 C419 C 0.32836 0.37284 0.68363
 C420 C 0.31500 0.37912 0.67894
 C421 C 0.31083 0.37069 0.66703
 H422 H 0.33480 0.37619 0.69304
 H423 H 0.30084 0.37218 0.66053
 Cu424 Cu 0.34814 0.34663 0.67562
 Cu425 Cu 0.32180 0.34471 0.64955
 Cu426 Cu 0.35108 0.31907 0.65085
 N427 N 0.36456 0.33208 0.67637
 N428 N 0.36537 0.32125 0.66662
 C429 C 0.37695 0.31215 0.66982
 C430 C 0.38383 0.31750 0.68218
 C431 C 0.37573 0.33020 0.68613
 H432 H 0.37999 0.30214 0.66378
 H433 H 0.37751 0.33719 0.69562
 N434 N 0.33558 0.31868 0.63570
 N435 N 0.32439 0.32841 0.63514
 C436 C 0.31572 0.32511 0.62357
 C437 C 0.32181 0.31269 0.61660
 C438 C 0.33432 0.30892 0.62456
 H439 H 0.30571 0.33120 0.62053
 H440 H 0.34189 0.29966 0.62237
 H441 H 0.33319 0.32889 0.66173
 H442 H 0.34459 0.34146 0.64971
 N443 N 0.32634 0.86662 0.16562
 N444 N 0.33781 0.86614 0.17454
 C445 C 0.33646 0.87721 0.18446
 C446 C 0.32349 0.88512 0.18154
 C447 C 0.31729 0.87811 0.16951
 H448 H 0.34432 0.87938 0.19314
 H449 H 0.30699 0.88106 0.16402
 Cu450 Cu 0.35341 0.85119 0.17224
 Cu451 Cu 0.32419 0.85223 0.14972
 Cu452 Cu 0.35027 0.82302 0.14803
 N453 N 0.36601 0.83352 0.17336
 N454 N 0.36534 0.82271 0.16360
 C455 C 0.37557 0.81204 0.16702
 C456 C 0.38279 0.81645 0.17969
 C457 C 0.37638 0.83003 0.18342
 H458 H 0.37726 0.80167 0.16106
 H459 H 0.37906 0.83684 0.19283
 N460 N 0.33391 0.82560 0.13360
 N461 N 0.32397 0.83664 0.13446
 C462 C 0.31418 0.83534 0.12342
 C463 C 0.31806 0.82297 0.11519
 C464 C 0.33064 0.81699 0.12191
 H465 H 0.30483 0.84283 0.12145
 H466 H 0.33684 0.80708 0.11862
 H467 H 0.33528 0.83492 0.16067
 H468 H 0.34641 0.84586 0.14701
 N469 N 0.81930 0.36193 0.16038
 N470 N 0.82845 0.36310 0.17153
 C471 C 0.82411 0.37480 0.17988
 C472 C 0.81158 0.38128 0.17359
 C473 C 0.80883 0.37283 0.16126
 H474 H 0.82957 0.37823 0.18984
 H475 H 0.79980 0.37447 0.15357
 Cu476 Cu 0.84496 0.34905 0.17415
 Cu477 Cu 0.82153 0.34625 0.14572
 Cu478 Cu 0.85078 0.32084 0.15030
 N479 N 0.86111 0.33460 0.17678
 N480 N 0.86356 0.32376 0.16730
 C481 C 0.87542 0.31552 0.17170
 C482 C 0.88059 0.32153 0.18468
 C483 C 0.87124 0.33354 0.18760
 H484 H 0.87974 0.30574 0.16605
 H485 H 0.87180 0.34091 0.19696
 N486 N 0.83658 0.31985 0.13383
 N487 N 0.82557 0.32964 0.13205
 C488 C 0.81780 0.32596 0.12002
 C489 C 0.82419 0.31322 0.11395
 C490 C 0.83602 0.30962 0.12299
 H491 H 0.80801 0.33192 0.11616
 H492 H 0.84356 0.30014 0.12179
 H493 H 0.83188 0.33064 0.15930
 H494 H 0.84432 0.34304 0.14813
 N495 N 0.82630 0.86392 0.66201
 N496 N 0.83564 0.86347 0.67309
 C497 C 0.83203 0.87447 0.68259
 C498 C 0.81974 0.88218 0.67714
 C499 C 0.81642 0.87519 0.66408
 H500 H 0.83771 0.87643 0.69283
 H501 H 0.80736 0.87798 0.65673
 Cu502 Cu 0.85141 0.84828 0.67419
 Cu503 Cu 0.82756 0.84959 0.64594
 Cu504 Cu 0.84345 0.81593 0.65708
 N505 N 0.86356 0.83027 0.67702
 N506 N 0.86010 0.81762 0.67049
 C507 C 0.86961 0.80673 0.67476
 C508 C 0.87967 0.81286 0.68438
 C509 C 0.87556 0.82787 0.68563
 H510 H 0.86926 0.79518 0.67109
 H511 H 0.88065 0.83628 0.69250
 N512 N 0.83084 0.81789 0.63958
 N513 N 0.82530 0.83083 0.63491
 C514 C 0.81800 0.82857 0.62225
 C515 C 0.81905 0.81342 0.61885
 C516 C 0.82723 0.80703 0.63005
 H517 H 0.81224 0.83726 0.61612
 H518 H 0.83055 0.79534 0.63101
 H519 H 0.83103 0.83492 0.66240
 H520 H 0.84754 0.83726 0.65000
 N521 N 0.68072 0.63608 0.66209
 N522 N 0.66968 0.63616 0.67166
 C523 C 0.67101 0.62394 0.68043
 C524 C 0.68349 0.61585 0.67594
 C525 C 0.68932 0.62385 0.66432
 H526 H 0.66328 0.62092 0.68908
 H527 H 0.69903 0.62084 0.65784
 Cu528 Cu 0.65416 0.65171 0.67087
 Cu529 Cu 0.68309 0.65137 0.64700
 Cu530 Cu 0.65560 0.67871 0.64488
 N531 N 0.63891 0.66752 0.66963
 N532 N 0.63955 0.67775 0.65919
 C533 C 0.62782 0.68715 0.66046
 C534 C 0.61935 0.68269 0.67229
 C535 C 0.62665 0.67015 0.67795
 H536 H 0.62564 0.69669 0.65336
 H537 H 0.62330 0.66350 0.68734
 N538 N 0.67275 0.67793 0.63140
 N539 N 0.68349 0.66776 0.63245
 C540 C 0.69391 0.67056 0.62210
 C541 C 0.68940 0.68297 0.61410
 C542 C 0.67596 0.68740 0.62028
 H543 H 0.70402 0.66405 0.62043
 H544 H 0.66919 0.69697 0.61711
 H545 H 0.67149 0.66814 0.65781
 H546 H 0.66057 0.65592 0.64518
 N547 N 0.67560 0.13872 0.16694
 N548 N 0.66369 0.13780 0.17538
 C549 C 0.66556 0.12631 0.18492
 C550 C 0.67943 0.11983 0.18223
 C551 C 0.68546 0.12800 0.17083
 H552 H 0.65753 0.12305 0.19323
 H553 H 0.69622 0.12616 0.16567
 Cu554 Cu 0.64707 0.15187 0.17314
 Cu555 Cu 0.67732 0.15322 0.15115
 Cu556 Cu 0.65047 0.18110 0.14935
 N557 N 0.63377 0.16927 0.17380
 N558 N 0.63527 0.18070 0.16471
 C559 C 0.62501 0.19130 0.16802
 C560 C 0.61658 0.18622 0.17972
 C561 C 0.62243 0.17219 0.18315
 H562 H 0.62381 0.20198 0.16241
 H563 H 0.61898 0.16482 0.19198
 N564 N 0.66687 0.17933 0.13493
 N565 N 0.67721 0.16873 0.13585
 C566 C 0.68695 0.17033 0.12471
 C567 C 0.68256 0.18246 0.11633
 C568 C 0.66977 0.18799 0.12308
 H569 H 0.69654 0.16315 0.12273
 H570 H 0.66313 0.19758 0.11967
 H571 H 0.66491 0.16932 0.16258
 H572 H 0.65472 0.15836 0.14826
 N573 N 0.17826 0.63865 0.17044
 N574 N 0.16669 0.63986 0.17930
 C575 C 0.16698 0.62842 0.18901
 C576 C 0.17934 0.61957 0.18604
 C577 C 0.18628 0.62637 0.17417
 H578 H 0.15898 0.62674 0.19777
 H579 H 0.19661 0.62297 0.16893
 Cu580 Cu 0.15271 0.65660 0.17769
 Cu581 Cu 0.18263 0.65372 0.15554
 Cu582 Cu 0.15549 0.68110 0.14956
 N583 N 0.13846 0.67293 0.17509
 N584 N 0.13963 0.68259 0.16420
 C585 C 0.12862 0.69294 0.16533
 C586 C 0.12001 0.68943 0.17745
 C587 C 0.12657 0.67668 0.18340
 H588 H 0.12700 0.70235 0.15793
 H589 H 0.12315 0.67081 0.19324
 N590 N 0.17254 0.67776 0.13618
 N591 N 0.18306 0.66758 0.13867
 C592 C 0.19342 0.66843 0.12796
 C593 C 0.18922 0.67961 0.11827
 C594 C 0.17593 0.68531 0.12379
 H595 H 0.20335 0.66146 0.12724
 H596 H 0.16939 0.69449 0.11932
 H597 H 0.17051 0.67198 0.16385
 H598 H 0.16028 0.65829 0.15216
 N599 N 0.18167 0.13734 0.66643
 N600 N 0.17194 0.13493 0.67701
 C601 C 0.17656 0.12309 0.68510
 C602 C 0.18993 0.11790 0.67929
 C603 C 0.19288 0.12723 0.66751
 H604 H 0.17084 0.11880 0.69469
 H605 H 0.20249 0.12668 0.66029
 Cu606 Cu 0.15460 0.14798 0.67952
 Cu607 Cu 0.17904 0.15337 0.65202
 Cu608 Cu 0.14796 0.17656 0.65623
 N609 N 0.13718 0.16097 0.68181
 N610 N 0.13462 0.17210 0.67260
 C611 C 0.12204 0.17938 0.67665
 C612 C 0.11645 0.17244 0.68912
 C613 C 0.12634 0.16086 0.69211
 H614 H 0.11749 0.18911 0.67107
 H615 H 0.12568 0.15302 0.70119
 N616 N 0.16276 0.17919 0.64035
 N617 N 0.17441 0.17017 0.63860
 C618 C 0.18219 0.17466 0.62671
 C619 C 0.17512 0.18713 0.62077
 C620 C 0.16292 0.18975 0.62971
 H621 H 0.19238 0.16941 0.62281
 H622 H 0.15476 0.19868 0.62847
 H623 H 0.16711 0.16771 0.66552
 H624 H 0.15602 0.15489 0.65371
 N625 N 0.32636 0.63701 0.33317
 N626 N 0.33619 0.63846 0.32250
 C627 C 0.33449 0.62719 0.31292
 C628 C 0.32304 0.61812 0.31779
 C629 C 0.31808 0.62461 0.33073
 H630 H 0.34096 0.62573 0.30299
 H631 H 0.30911 0.62075 0.33777
 Cu632 Cu 0.34996 0.65520 0.32182
 Cu633 Cu 0.32549 0.65146 0.34936
 Cu634 Cu 0.34278 0.68568 0.34153
 N635 N 0.36398 0.67179 0.32212
 N636 N 0.36085 0.68402 0.32960
 C637 C 0.37141 0.69442 0.32690
 C638 C 0.38180 0.68830 0.31735
 C639 C 0.37675 0.67390 0.31453
 H640 H 0.37138 0.70569 0.33133
 H641 H 0.38162 0.66583 0.30706
 N642 N 0.32858 0.68285 0.35785
 N643 N 0.32237 0.66983 0.36126
 C644 C 0.31410 0.67160 0.37356
 C645 C 0.31529 0.68644 0.37801
 C646 C 0.32448 0.69319 0.36780
 H647 H 0.30778 0.66276 0.37886
 H648 H 0.32823 0.70474 0.36785
 H649 H 0.32933 0.66779 0.33450
 H650 H 0.34542 0.66356 0.34676
 N651 N 0.32189 0.13779 0.83185
 N652 N 0.33284 0.13981 0.82239
 C653 C 0.33195 0.12922 0.81191
 C654 C 0.31992 0.12006 0.81509
 C655 C 0.31377 0.12584 0.82780
 H656 H 0.33952 0.12814 0.80270
 H657 H 0.30398 0.12182 0.83358
 Cu658 Cu 0.34732 0.15590 0.82484
 Cu659 Cu 0.31870 0.15091 0.84850
 Cu660 Cu 0.34495 0.17861 0.85431
 N661 N 0.36229 0.17119 0.82874
 N662 N 0.36134 0.17991 0.84031
 C663 C 0.37291 0.18952 0.84025
 C664 C 0.38159 0.18668 0.82804
 C665 C 0.37456 0.17496 0.82095
 H666 H 0.37480 0.19810 0.84838
 H667 H 0.37799 0.16969 0.81082
 N668 N 0.32753 0.17558 0.86723
 N669 N 0.31733 0.16524 0.86478
 C670 C 0.30641 0.16651 0.87490
 C671 C 0.30997 0.17809 0.88422
 C672 C 0.32344 0.18362 0.87907
 H673 H 0.29647 0.15964 0.87542
 H674 H 0.32953 0.19309 0.88334
 H675 H 0.32949 0.16966 0.84012
 H676 H 0.34112 0.15599 0.85085
 N677 N 0.82064 0.63783 0.83445
 N678 N 0.82990 0.63680 0.82327
 C679 C 0.82582 0.62513 0.81484
 C680 C 0.81329 0.61858 0.82107
 C681 C 0.81027 0.62695 0.83344
 H682 H 0.83142 0.62177 0.80486
 H683 H 0.80126 0.62516 0.84119
 Cu684 Cu 0.84630 0.65090 0.82068
 Cu685 Cu 0.82290 0.65293 0.84965
 Cu686 Cu 0.85295 0.67716 0.84620
 N687 N 0.86311 0.66464 0.81897
 N688 N 0.86585 0.67458 0.82921
 C689 C 0.87804 0.68255 0.82542
 C690 C 0.88316 0.67736 0.81205
 C691 C 0.87341 0.66605 0.80823
 H692 H 0.88254 0.69172 0.83173
 H693 H 0.87379 0.65945 0.79832
 N694 N 0.83864 0.67809 0.86260
 N695 N 0.82714 0.66893 0.86391
 C696 C 0.81933 0.67260 0.87605
 C697 C 0.82628 0.68467 0.88262
 C698 C 0.83843 0.68786 0.87382
 H699 H 0.80926 0.66704 0.87969
 H700 H 0.84641 0.69678 0.87545
 H701 H 0.83370 0.66876 0.83685
 H702 H 0.84573 0.65505 0.84704
 N703 N 0.81640 0.13760 0.33544
 N704 N 0.82694 0.13563 0.32554
 C705 C 0.82346 0.12360 0.31728
 C706 C 0.81005 0.11781 0.32241
 C707 C 0.80594 0.12695 0.33389
 H708 H 0.83013 0.11942 0.30826
 H709 H 0.79599 0.12591 0.34059
 Cu710 Cu 0.84401 0.14916 0.32453
 Cu711 Cu 0.81687 0.15372 0.34963
 Cu712 Cu 0.84680 0.17823 0.34817
 N713 N 0.86033 0.16353 0.32334
 N714 N 0.86148 0.17475 0.33261
 C715 C 0.87356 0.18302 0.32903
 C716 C 0.88029 0.17663 0.31685
 C717 C 0.87162 0.16432 0.31355
 H718 H 0.87697 0.19308 0.33470
 H719 H 0.87332 0.15666 0.30453
 N720 N 0.83066 0.17978 0.36301
 N721 N 0.81911 0.17059 0.36319
 C722 C 0.80962 0.17476 0.37389
 C723 C 0.81544 0.18705 0.38091
 C724 C 0.82883 0.19001 0.37379
 H725 H 0.79913 0.16933 0.37643
 H726 H 0.83643 0.19911 0.37605
 H727 H 0.82947 0.16861 0.33696
 H728 H 0.83997 0.15629 0.35003
 N729 N 0.67855 0.36213 0.33575
 N730 N 0.66929 0.36247 0.32463
 C731 C 0.67247 0.37447 0.31612
 C732 C 0.68442 0.38194 0.32224
 C733 C 0.68803 0.37379 0.33463
 H734 H 0.66674 0.37735 0.30609
 H735 H 0.69695 0.37617 0.34222
 Cu736 Cu 0.65424 0.34703 0.32209
 Cu737 Cu 0.67765 0.34658 0.35075
 Cu738 Cu 0.65028 0.31937 0.34718
 N739 N 0.63877 0.33189 0.32042
 N740 N 0.63699 0.32133 0.33041
 C741 C 0.62529 0.31268 0.32669
 C742 C 0.61956 0.31810 0.31363
 C743 C 0.62839 0.33021 0.30994
 H744 H 0.62145 0.30303 0.33288
 H745 H 0.62723 0.33730 0.30035
 N746 N 0.66485 0.31940 0.36336
 N747 N 0.67504 0.32998 0.36482
 C748 C 0.68322 0.32702 0.37682
 C749 C 0.67801 0.31392 0.38319
 C750 C 0.66643 0.30932 0.37435
 H751 H 0.69257 0.33368 0.38043
 H752 H 0.65973 0.29933 0.37582
 H753 H 0.66844 0.32993 0.33779
 H754 H 0.65507 0.34200 0.34833
 N755 N 0.67675 0.86226 0.83720
 N756 N 0.66745 0.86257 0.82609
 C757 C 0.67055 0.87467 0.81762
 C758 C 0.68241 0.88226 0.82385
 C759 C 0.68600 0.87410 0.83623
 H760 H 0.66486 0.87753 0.80756
 H761 H 0.69500 0.87641 0.84375
 Cu762 Cu 0.65273 0.84664 0.82352
 Cu763 Cu 0.67712 0.84607 0.85164
 Cu764 Cu 0.65189 0.81724 0.84683
 N765 N 0.63819 0.83045 0.82137
 N766 N 0.63832 0.81890 0.83043
 C767 C 0.62775 0.80907 0.82649
 C768 C 0.62048 0.81471 0.81440
 C769 C 0.62734 0.82834 0.81135
 H770 H 0.62546 0.79854 0.83203
 H771 H 0.62479 0.83597 0.80243
 N772 N 0.66638 0.81747 0.86288
 N773 N 0.67578 0.82863 0.86500
 C774 C 0.68413 0.82547 0.87690
 C775 C 0.67973 0.81164 0.88240
 C776 C 0.66852 0.80690 0.87326
 H777 H 0.69297 0.83250 0.88102
 H778 H 0.66247 0.79643 0.87412
 H779 H 0.66896 0.82998 0.83770
 H780 H 0.65503 0.84016 0.84939
 N781 N 0.17747 0.36204 0.83183
 N782 N 0.16812 0.36194 0.82076
 C783 C 0.17201 0.37274 0.81114
 C784 C 0.18436 0.38007 0.81644
 C785 C 0.18758 0.37305 0.82963
 H786 H 0.16647 0.37502 0.80087
 H787 H 0.19685 0.37540 0.83680
 Cu788 Cu 0.15197 0.34753 0.81972
 Cu789 Cu 0.17637 0.34701 0.84754
 Cu790 Cu 0.14782 0.32065 0.84515
 N791 N 0.13587 0.33306 0.81855
 N792 N 0.13416 0.32260 0.82863
 C793 C 0.12222 0.31412 0.82524
 C794 C 0.11622 0.31961 0.81231
 C795 C 0.12515 0.33157 0.80838
 H796 H 0.11837 0.30460 0.83159
 H797 H 0.12390 0.33859 0.79876
 N798 N 0.16271 0.32059 0.86101
 N799 N 0.17334 0.33079 0.86218
 C800 C 0.18174 0.32748 0.87401
 C801 C 0.17615 0.31455 0.88047
 C802 C 0.16417 0.31050 0.87195
 H803 H 0.19151 0.33367 0.87735
 H804 H 0.15719 0.30072 0.87353
 H805 H 0.16634 0.33046 0.83524
 H806 H 0.15375 0.34309 0.84601
 N807 N 0.17783 0.86335 0.33489
 N808 N 0.16714 0.86374 0.32505
 C809 C 0.17006 0.87455 0.31514
 C810 C 0.18318 0.88149 0.31895
 C811 C 0.18791 0.87414 0.33158
 H812 H 0.16316 0.87719 0.30577
 H813 H 0.19798 0.87630 0.33772
 Cu814 Cu 0.15027 0.85028 0.32584
 Cu815 Cu 0.17778 0.84832 0.35079
 Cu816 Cu 0.14954 0.82152 0.34934
 N817 N 0.13623 0.83400 0.32346
 N818 N 0.13567 0.82290 0.33299
 C819 C 0.12480 0.81332 0.32910
 C820 C 0.11829 0.81872 0.31638
 C821 C 0.12587 0.83181 0.31306
 H822 H 0.12206 0.80307 0.33492
 H823 H 0.12392 0.83919 0.30381
 N824 N 0.16460 0.82199 0.36496
 N825 N 0.17544 0.83202 0.36564
 C826 C 0.18388 0.82895 0.37755
 C827 C 0.17795 0.81644 0.38457
 C828 C 0.16582 0.81240 0.37631
 H829 H 0.19359 0.83527 0.38081
 H830 H 0.15848 0.80300 0.37843
 H831 H 0.16673 0.83272 0.33840
 H832 H 0.15526 0.84410 0.35142
 C833 C 0.25107 0.95360 0.25791
 C834 C 0.25823 0.95399 0.24462
 C835 C 0.25845 0.96893 0.24015
 N836 N 0.25149 0.97759 0.25024
 C837 C 0.24693 0.96829 0.26113
 C838 C 0.26429 0.97410 0.22658
 C839 C 0.26403 0.98932 0.22182
 C840 C 0.26756 0.99401 0.20771
 C841 C 0.26676 1.00945 0.20758
 C842 C 0.26271 1.01388 0.22160
 N843 N 0.26125 1.00153 0.23026
 C844 C 0.26123 1.02906 0.22609
 C845 C 0.25436 1.03359 0.23939
 C846 C 0.25209 1.04842 0.24356
 C847 C 0.24448 1.04803 0.25661
 C848 C 0.24221 1.03297 0.26003
 N849 N 0.24825 1.02422 0.24945
 C850 C 0.23493 1.02774 0.27292
 C851 C 0.23416 1.01244 0.27743
 C852 C 0.22821 1.00763 0.29071
 C853 C 0.22945 0.99221 0.29104
 C854 C 0.23612 0.98789 0.27796
 N855 N 0.23880 1.00031 0.26970
 C856 C 0.23921 0.97274 0.27404
 H857 H 0.24921 0.94359 0.26443
 H858 H 0.26258 0.94427 0.23889
 H859 H 0.24278 1.00048 0.25910
 H860 H 0.27058 0.98706 0.19845
 H861 H 0.26901 1.01658 0.19820
 H862 H 0.25537 1.05853 0.23776
 H863 H 0.24114 1.05778 0.26290
 H864 H 0.22579 0.98503 0.29996
 H865 H 0.26017 1.00151 0.24156
 H866 H 0.22344 1.01447 0.29934
 C867 C 0.25052 0.54590 0.76033
 C868 C 0.25833 0.54596 0.74738
 C869 C 0.25940 0.53111 0.74288
 N870 N 0.25220 0.52204 0.75250
 C871 C 0.24680 0.53105 0.76322
 C872 C 0.26620 0.52628 0.72967
 C873 C 0.26866 0.51099 0.72612
 C874 C 0.27333 0.50587 0.71251
 C875 C 0.27593 0.49066 0.71392
 C876 C 0.27275 0.48689 0.72836
 N877 N 0.26839 0.49935 0.73571
 C878 C 0.27473 0.47240 0.73452
 C879 C 0.26864 0.46807 0.74822
 C880 C 0.27179 0.45466 0.75542
 C881 C 0.26306 0.45444 0.76780
 C882 C 0.25493 0.46776 0.76782
 N883 N 0.25831 0.47606 0.75582
 C884 C 0.24402 0.47168 0.77840
 C885 C 0.23828 0.48645 0.78008
 C886 C 0.22616 0.49024 0.78889
 C887 C 0.22454 0.50561 0.78807
 C888 C 0.23563 0.51082 0.77870
 N889 N 0.24404 0.49909 0.77398
 C890 C 0.23794 0.52614 0.77519
 H891 H 0.24785 0.55573 0.76680
 H892 H 0.26265 0.55587 0.74194
 H893 H 0.25401 0.49984 0.76817
 H894 H 0.27500 0.51245 0.70263
 H895 H 0.27985 0.48324 0.70534
 H896 H 0.27958 0.44593 0.75214
 H897 H 0.26281 0.44553 0.77592
 H898 H 0.21607 0.51220 0.79368
 H899 H 0.26716 0.50016 0.74698
 H900 H 0.21920 0.48273 0.79529
 C901 C 0.72619 -0.04475 0.26414
 C902 C 0.73909 -0.04426 0.27217
 C903 C 0.74573 -0.03055 0.26906
 N904 N 0.73730 -0.02262 0.25947
 C905 C 0.72534 -0.03128 0.25646
 C906 C 0.75974 -0.02587 0.27443
 C907 C 0.76512 -0.01105 0.27283
 C908 C 0.77976 -0.00672 0.27527
 C909 C 0.78017 0.00866 0.27356
 C910 C 0.76576 0.01329 0.27013
 N911 N 0.75666 0.00119 0.26975
 C912 C 0.76108 0.02844 0.26884
 C913 C 0.74706 0.03281 0.26307
 C914 C 0.74147 0.04739 0.26290
 C915 C 0.72816 0.04695 0.25554
 C916 C 0.72615 0.03216 0.25122
 N917 N 0.73773 0.02355 0.25582
 C918 C 0.71442 0.02710 0.24219
 C919 C 0.71158 0.01174 0.23943
 C920 C 0.70243 0.00651 0.22837
 C921 C 0.70244 -0.00894 0.22940
 C922 C 0.71154 -0.01274 0.24112
 N923 N 0.71696 -0.00006 0.24726
 C924 C 0.71419 -0.02760 0.24613
 H925 H 0.71831 -0.05395 0.26400
 H926 H 0.74309 -0.05303 0.27944
 H927 H 0.72284 0.00059 0.25701
 H928 H 0.78914 -0.01386 0.27817
 H929 H 0.78992 0.01565 0.27501
 H930 H 0.74648 0.05739 0.26740
 H931 H 0.72092 0.05650 0.25344
 H932 H 0.69645 -0.01648 0.22228
 H933 H 0.74507 0.00145 0.26931
 H934 H 0.69645 0.01312 0.22029
 C935 C 0.75627 0.45689 0.72713
 C936 C 0.76814 0.45631 0.73656
 C937 C 0.76731 0.46920 0.74503
 N938 N 0.75530 0.47759 0.74113
 C939 C 0.74853 0.47008 0.73018
 C940 C 0.77707 0.47260 0.75666
 C941 C 0.77807 0.48705 0.76301
 C942 C 0.78601 0.49028 0.77562
 C943 C 0.78490 0.50556 0.77772
 C944 C 0.77622 0.51125 0.76642
 N945 N 0.77219 0.49992 0.75744
 C946 C 0.77281 0.52665 0.76436
 C947 C 0.76126 0.53187 0.75507
 C948 C 0.75878 0.54681 0.75131
 C949 C 0.74618 0.54716 0.74285
 C950 C 0.74147 0.53240 0.74152
 N951 N 0.75064 0.52306 0.74907
 C952 C 0.72863 0.52790 0.73378
 C953 C 0.72553 0.51275 0.73024
 C954 C 0.71195 0.50763 0.72499
 C955 C 0.71381 0.49259 0.72191
 C956 C 0.72843 0.48890 0.72548
 N957 N 0.73551 0.50125 0.73048
 C958 C 0.73498 0.47454 0.72350
 H959 H 0.75364 0.44853 0.71898
 H960 H 0.77646 0.44744 0.73708
 H961 H 0.74691 0.50216 0.73236
 H962 H 0.79205 0.48248 0.78257
 H963 H 0.78988 0.51177 0.78660
 H964 H 0.76536 0.55650 0.75428
 H965 H 0.74118 0.55713 0.73804
 H966 H 0.70535 0.48522 0.71756
 H967 H 0.76711 0.50116 0.74731
 H968 H 0.70178 0.51407 0.72344
 C969 C 0.25885 0.54741 0.25516
 C970 C 0.25020 0.54741 0.24281
 C971 C 0.24579 0.53266 0.24062
 N972 N 0.25160 0.52365 0.25115
 C973 C 0.25975 0.53260 0.25996
 C974 C 0.23597 0.52788 0.22949
 C975 C 0.23251 0.51264 0.22687
 C976 C 0.22047 0.50783 0.21865
 C977 C 0.22122 0.49238 0.21830
 C978 C 0.23378 0.48817 0.22622
 N979 N 0.24062 0.50061 0.23137
 C980 C 0.23902 0.47321 0.22777
 C981 C 0.25069 0.46905 0.23735
 C982 C 0.25855 0.45560 0.23672
 C983 C 0.26852 0.45578 0.24807
 C984 C 0.26628 0.46926 0.25539
 N985 N 0.25538 0.47736 0.24879
 C986 C 0.27363 0.47350 0.26841
 C987 C 0.27265 0.48812 0.27438
 C988 C 0.27694 0.49192 0.28845
 C989 C 0.27495 0.50723 0.28973
 C990 C 0.26952 0.51238 0.27640
 N991 N 0.26823 0.50065 0.26710
 C992 C 0.26721 0.52771 0.27277
 H993 H 0.26385 0.55725 0.26000
 H994 H 0.24738 0.55723 0.23631
 H995 H 0.26621 0.50136 0.25593
 H996 H 0.21199 0.51473 0.21346
 H997 H 0.21346 0.48510 0.21274
 H998 H 0.25737 0.44668 0.22879
 H999 H 0.27652 0.44697 0.25058
 H1000 H 0.27749 0.51383 0.29932
 H1001 H 0.25107 0.50100 0.23623
 H1002 H 0.28118 0.48446 0.29688
 C1003 C 0.75028 0.95089 0.76045
 C1004 C 0.76361 0.95100 0.75298
 C1005 C 0.76586 0.96567 0.74827
 N1006 N 0.75436 0.97452 0.75267
 C1007 C 0.74486 0.96555 0.76023
 C1008 C 0.77788 0.97042 0.73928
 C1009 C 0.78098 0.98569 0.73607
 C1010 C 0.79071 0.99049 0.72516
 C1011 C 0.79081 1.00595 0.72558
 C1012 C 0.78116 1.01022 0.73677
 N1013 N 0.77534 0.99779 0.74322
 C1014 C 0.77827 1.02532 0.74085
 C1015 C 0.76658 1.02963 0.75049
 C1016 C 0.76476 1.04391 0.75628
 C1017 C 0.75155 1.04383 0.76395
 C1018 C 0.74578 1.02943 0.76276
 N1019 N 0.75496 1.02081 0.75444
 C1020 C 0.73166 1.02484 0.76816
 C1021 C 0.72642 1.00988 0.76731
 C1022 C 0.71177 1.00552 0.76994
 C1023 C 0.71154 0.99006 0.76928
 C1024 C 0.72605 0.98537 0.76628
 N1025 N 0.73504 0.99752 0.76518
 C1026 C 0.73084 0.97018 0.76592
 H1027 H 0.74512 0.94105 0.76527
 H1028 H 0.77075 0.94131 0.75111
 H1029 H 0.74664 0.99729 0.76490
 H1030 H 0.79700 0.98358 0.71755
 H1031 H 0.79719 1.01321 0.71837
 H1032 H 0.77208 1.05349 0.75498
 H1033 H 0.74669 1.05343 0.76948
 H1034 H 0.70183 0.98308 0.77112
 H1035 H 0.76896 0.99751 0.75275
 H1036 H 0.70227 1.01269 0.77237
 C1037 C 0.73378 0.45293 0.24765
 C1038 C 0.74625 0.45219 0.23889
 C1039 C 0.75168 0.46674 0.23771
 N1040 N 0.74307 0.47626 0.24566
 C1041 C 0.73209 0.46786 0.25171
 C1042 C 0.76499 0.47082 0.23034
 C1043 C 0.76970 0.48587 0.22851
 C1044 C 0.78380 0.49014 0.22370
 C1045 C 0.78349 0.50554 0.22214
 C1046 C 0.76920 0.51025 0.22600
 N1047 N 0.76086 0.49820 0.22981
 C1048 C 0.76400 0.52525 0.22506
 C1049 C 0.75049 0.53029 0.23152
 C1050 C 0.74396 0.54425 0.22903
 C1051 C 0.73153 0.54498 0.23785
 C1052 C 0.73086 0.53144 0.24541
 N1053 N 0.74248 0.52248 0.24155
 C1054 C 0.72013 0.52788 0.25627
 C1055 C 0.71796 0.51317 0.26180
 C1056 C 0.70951 0.50970 0.27413
 C1057 C 0.70976 0.49430 0.27559
 C1058 C 0.71837 0.48875 0.26413
 N1059 N 0.72321 0.50032 0.25570
 C1060 C 0.72109 0.47331 0.26154
 H1061 H 0.72686 0.44349 0.25077
 H1062 H 0.75084 0.44204 0.23413
 H1063 H 0.72852 0.49942 0.24560
 H1064 H 0.79328 0.48292 0.22132
 H1065 H 0.79269 0.51245 0.21841
 H1066 H 0.74770 0.55299 0.22161
 H1067 H 0.72384 0.55439 0.23857
 H1068 H 0.70427 0.48792 0.28417
 H1069 H 0.74936 0.49822 0.23139
 H1070 H 0.70378 0.51745 0.28138
 C1071 C 0.24514 -0.04879 0.75014
 C1072 C 0.25299 -0.04866 0.76298
 C1073 C 0.25763 -0.03397 0.76507
 N1074 N 0.25274 -0.02512 0.75398
 C1075 C 0.24496 -0.03411 0.74490
 C1076 C 0.26693 -0.02916 0.77660
 C1077 C 0.27052 -0.01392 0.77913
 C1078 C 0.28206 -0.00915 0.78804
 C1079 C 0.28181 0.00632 0.78778
 C1080 C 0.27005 0.01061 0.77880
 N1081 N 0.26316 -0.00180 0.77365
 C1082 C 0.26558 0.02569 0.77623
 C1083 C 0.25490 0.02997 0.76561
 C1084 C 0.24776 0.04384 0.76507
 C1085 C 0.23865 0.04363 0.75304
 C1086 C 0.24063 0.02968 0.74655
 N1087 N 0.25060 0.02136 0.75425
 C1088 C 0.23371 0.02504 0.73345
 C1089 C 0.23464 0.01019 0.72808
 C1090 C 0.23093 0.00595 0.71398
 C1091 C 0.23248 -0.00944 0.71337
 C1092 C 0.23704 -0.01420 0.72716
 N1093 N 0.23828 -0.00215 0.73605
 C1094 C 0.23850 -0.02943 0.73151
 H1095 H 0.24025 -0.05865 0.74523
 H1096 H 0.25515 -0.05835 0.76989
 H1097 H 0.23961 -0.00246 0.74733
 H1098 H 0.28993 -0.01610 0.79402
 H1099 H 0.28941 0.01356 0.79360
 H1100 H 0.24883 0.05308 0.77266
 H1101 H 0.23136 0.05271 0.74957
 H1102 H 0.23016 -0.01635 0.70394
 H1103 H 0.25314 -0.00200 0.76799
 H1104 H 0.22733 0.01319 0.70508
 C1105 C 0.24907 0.26399 0.95671
 C1106 C 0.25935 0.25250 0.95716
 C1107 C 0.25703 0.24490 0.97027
 N1108 N 0.24568 0.25137 0.97782
 C1109 C 0.24082 0.26308 0.96957
 C1110 C 0.26493 0.23184 0.97473
 C1111 C 0.26399 0.22561 0.98897
 C1112 C 0.26938 0.21150 0.99290
 C1113 C 0.26705 0.20995 1.00773
 C1114 C 0.26028 0.22315 1.01247
 N1115 N 0.25855 0.23267 1.00097
 C1116 C 0.25689 0.22646 1.02726
 C1117 C 0.24779 0.23870 1.03171
 C1118 C 0.24466 0.24239 1.04614
 C1119 C 0.23469 0.25415 1.04578
 C1120 C 0.23201 0.25732 1.03113
 N1121 N 0.23991 0.24774 1.02258
 C1122 C 0.22148 0.26802 1.02596
 C1123 C 0.21896 0.27113 1.01097
 C1124 C 0.20687 0.27927 1.00560
 C1125 C 0.20890 0.28057 0.99072
 C1126 C 0.22221 0.27326 0.98736
 N1127 N 0.22832 0.26763 0.99978
 C1128 C 0.22866 0.27260 0.97321
 H1129 H 0.24789 0.27215 0.94795
 H1130 H 0.26762 0.25008 0.94880
 H1131 H 0.23902 0.26319 1.00078
 H1132 H 0.27457 0.20320 0.98585
 H1133 H 0.27018 0.20027 1.01428
 H1134 H 0.24880 0.23697 1.05596
 H1135 H 0.22971 0.25945 1.05528
 H1136 H 0.20145 0.28634 0.98324
 H1137 H 0.25550 0.24393 1.00152
 H1138 H 0.19758 0.28390 1.01177
 C1139 C 0.23146 0.74252 0.54404
 C1140 C 0.24109 0.73045 0.54406
 C1141 C 0.24824 0.73044 0.53057
 N1142 N 0.24342 0.74219 0.52236
 C1143 C 0.23313 0.74959 0.53057
 C1144 C 0.25943 0.72002 0.52630
 C1145 C 0.26419 0.71807 0.51161
 C1146 C 0.27646 0.70949 0.50736
 C1147 C 0.27697 0.70987 0.49231
 C1148 C 0.26506 0.71875 0.48774
 N1149 N 0.25724 0.72358 0.49957
 C1150 C 0.26154 0.72178 0.47291
 C1151 C 0.25159 0.73338 0.46847
 C1152 C 0.24668 0.73569 0.45425
 C1153 C 0.23835 0.74868 0.45433
 C1154 C 0.23810 0.75374 0.46867
 N1155 N 0.24631 0.74443 0.47725
 C1156 C 0.23122 0.76725 0.47341
 C1157 C 0.22924 0.77106 0.48832
 C1158 C 0.22412 0.78491 0.49328
 C1159 C 0.22232 0.78363 0.50821
 C1160 C 0.22648 0.76908 0.51199
 N1161 N 0.23058 0.76147 0.49981
 C1162 C 0.22571 0.76301 0.52631
 H1163 H 0.22408 0.74567 0.55294
 H1164 H 0.24253 0.72249 0.55296
 H1165 H 0.23243 0.74995 0.49922
 H1166 H 0.28424 0.70353 0.51436
 H1167 H 0.28526 0.70432 0.48552
 H1168 H 0.24895 0.72884 0.44473
 H1169 H 0.23313 0.75377 0.44486
 H1170 H 0.21834 0.79241 0.51545
 H1171 H 0.24696 0.72905 0.49936
 H1172 H 0.22161 0.79482 0.48679
 C1173 C 0.23614 0.75813 -0.04417
 C1174 C 0.24766 0.76823 -0.04411
 C1175 C 0.25505 0.76628 -0.03091
 N1176 N 0.24835 0.75539 -0.02288
 C1177 C 0.23676 0.75043 -0.03096
 C1178 C 0.26823 0.77390 -0.02682
 C1179 C 0.27421 0.77329 -0.01253
 C1180 C 0.28845 0.77795 -0.00879
 C1181 C 0.28970 0.77620 0.00613
 C1182 C 0.27617 0.77053 0.01114
 N1183 N 0.26677 0.76889 -0.00031
 C1184 C 0.27243 0.76827 0.02606
 C1185 C 0.25952 0.76048 0.03082
 C1186 C 0.25460 0.75955 0.04521
 C1187 C 0.24229 0.75043 0.04526
 C1188 C 0.24025 0.74578 0.03094
 N1189 N 0.25082 0.75192 0.02215
 C1190 C 0.22929 0.73542 0.02636
 C1191 C 0.22658 0.73194 0.01153
 C1192 C 0.21847 0.71962 0.00684
 C1193 C 0.21795 0.72045 -0.00818
 C1194 C 0.22569 0.73330 -0.01227
 N1195 N 0.23086 0.74027 -0.00018
 C1196 C 0.22710 0.73861 -0.02682
 H1197 H 0.22812 0.75673 -0.05288
 H1198 H 0.25025 0.77612 -0.05281
 H1199 H 0.23558 0.75091 0.00019
 H1200 H 0.29704 0.78226 -0.01605
 H1201 H 0.29939 0.77903 0.01258
 H1202 H 0.25935 0.76481 0.05476
 H1203 H 0.23571 0.74749 0.05481
 H1204 H 0.21243 0.71251 -0.01526
 H1205 H 0.25542 0.76661 0.00034
 H1206 H 0.21347 0.71090 0.01355
 C1207 C 0.24812 0.23815 0.45710
 C1208 C 0.25947 0.24844 0.45735
 C1209 C 0.25917 0.25497 0.47110
 N1210 N 0.24820 0.24876 0.47934
 C1211 C 0.24151 0.23838 0.47086
 C1212 C 0.26817 0.26718 0.47551
 C1213 C 0.26834 0.27271 0.48998
 C1214 C 0.27410 0.28653 0.49403
 C1215 C 0.27260 0.28749 0.50899
 C1216 C 0.26601 0.27420 0.51369
 N1217 N 0.26354 0.26523 0.50203
 C1218 C 0.26367 0.27019 0.52851
 C1219 C 0.25519 0.25763 0.53306
 C1220 C 0.25446 0.25211 0.54727
 C1221 C 0.24448 0.24046 0.54717
 C1222 C 0.23917 0.23944 0.53297
 N1223 N 0.24572 0.24997 0.52438
 C1224 C 0.22785 0.22954 0.52832
 C1225 C 0.22349 0.22811 0.51356
 C1226 C 0.21026 0.22162 0.50901
 C1227 C 0.21039 0.22203 0.49396
 C1228 C 0.22376 0.22866 0.48971
 N1229 N 0.23172 0.23223 0.50176
 C1230 C 0.22875 0.23006 0.47506
 H1231 H 0.24514 0.23138 0.44777
 H1232 H 0.26692 0.25093 0.44830
 H1233 H 0.24279 0.23567 0.50194
 H1234 H 0.27892 0.29503 0.48695
 H1235 H 0.27621 0.29681 0.51566
 H1236 H 0.26042 0.25604 0.55677
 H1237 H 0.24140 0.23366 0.55655
 H1238 H 0.20172 0.21765 0.48696
 H1239 H 0.26040 0.25400 0.50243
 H1240 H 0.20143 0.21707 0.51582
 C1241 C 0.76302 0.74736 1.04475
 C1242 C 0.75148 0.75757 1.04500
 C1243 C 0.74587 0.75829 1.03088
 N1244 N 0.75335 0.74855 1.02216
 C1245 C 0.76386 0.74186 1.03059
 C1246 C 0.73337 0.76698 1.02649
 C1247 C 0.72925 0.76925 1.01171
 C1248 C 0.71613 0.77625 1.00722
 C1249 C 0.71686 0.77744 0.99222
 C1250 C 0.73035 0.77105 0.98793
 N1251 N 0.73790 0.76623 0.99987
 C1252 C 0.73548 0.77025 0.97330
 C1253 C 0.74709 0.76046 0.96866
 C1254 C 0.75289 0.75986 0.95457
 C1255 C 0.76284 0.74807 0.95432
 C1256 C 0.76310 0.74208 0.96836
 N1257 N 0.75336 0.74959 0.97705
 C1258 C 0.77136 0.72922 0.97269
 C1259 C 0.77326 0.72473 0.98744
 C1260 C 0.77993 0.71132 0.99186
 C1261 C 0.78083 0.71173 1.00688
 C1262 C 0.77458 0.72531 1.01125
 N1263 N 0.77014 0.73322 0.99934
 C1264 C 0.77356 0.73019 1.02591
 H1265 H 0.76983 0.74422 1.05405
 H1266 H 0.74769 0.76368 1.05454
 H1267 H 0.76675 0.74441 0.99930
 H1268 H 0.70706 0.78034 1.01403
 H1269 H 0.70839 0.78242 0.98526
 H1270 H 0.75010 0.76698 0.94533
 H1271 H 0.76908 0.74437 0.94481
 H1272 H 0.78552 0.70300 1.01381
 H1273 H 0.74897 0.76266 1.00001
 H1274 H 0.78400 0.70228 0.98499
 C1275 C 0.76221 0.27414 0.54460
 C1276 C 0.77312 0.26325 0.54407
 C1277 C 0.77263 0.25711 0.53016
 N1278 N 0.76173 0.26381 0.52221
 C1279 C 0.75534 0.27424 0.53103
 C1280 C 0.78171 0.24506 0.52526
 C1281 C 0.78343 0.24118 0.51035
 C1282 C 0.79054 0.22824 0.50537
 C1283 C 0.79062 0.22900 0.49033
 C1284 C 0.78349 0.24234 0.48651
 N1285 N 0.77924 0.24975 0.49877
 C1286 C 0.78161 0.24757 0.47199
 C1287 C 0.77153 0.25926 0.46817
 C1288 C 0.77082 0.26615 0.45453
 C1289 C 0.75906 0.27609 0.45507
 C1290 C 0.75303 0.27504 0.46904
 N1291 N 0.76064 0.26471 0.47702
 C1292 C 0.74034 0.28313 0.47399
 C1293 C 0.73633 0.28446 0.48893
 C1294 C 0.72294 0.29052 0.49398
 C1295 C 0.72372 0.29069 0.50901
 C1296 C 0.73752 0.28466 0.51275
 N1297 N 0.74517 0.28098 0.50045
 C1298 C 0.74290 0.28331 0.52722
 H1299 H 0.75969 0.28119 0.55393
 H1300 H 0.78063 0.26030 0.55289
 H1301 H 0.75636 0.27784 0.49992
 H1302 H 0.79526 0.21921 0.51189
 H1303 H 0.79535 0.22065 0.48304
 H1304 H 0.77803 0.26426 0.44516
 H1305 H 0.75548 0.28338 0.44621
 H1306 H 0.71508 0.29478 0.51634
 H1307 H 0.77517 0.26070 0.49921
 H1308 H 0.71361 0.29452 0.48750
 C1309 C 0.75240 0.23495 -0.04418
 C1310 C 0.76359 0.24542 -0.04439
 C1311 C 0.76206 0.25378 -0.03169
 N1312 N 0.75030 0.24877 -0.02373
 C1313 C 0.74438 0.23725 -0.03135
 C1314 C 0.77095 0.26629 -0.02800
 C1315 C 0.77128 0.27261 -0.01383
 C1316 C 0.77800 0.28616 -0.01039
 C1317 C 0.77667 0.28790 0.00451
 C1318 C 0.76906 0.27543 0.00978
 N1319 N 0.76594 0.26610 -0.00146
 C1320 C 0.76600 0.27258 0.02474
 C1321 C 0.75545 0.26187 0.02968
 C1322 C 0.75209 0.25895 0.04426
 C1323 C 0.74044 0.24901 0.04437
 C1324 C 0.73704 0.24610 0.02985
 N1325 N 0.74613 0.25411 0.02093
 C1326 C 0.72497 0.23713 0.02515
 C1327 C 0.72198 0.23384 0.01032
 C1328 C 0.70898 0.22715 0.00535
 C1329 C 0.71083 0.22483 -0.00943
 C1330 C 0.72490 0.23016 -0.01310
 N1331 N 0.73165 0.23554 -0.00100
 C1332 C 0.73139 0.22927 -0.02721
 H1333 H 0.75043 0.22658 -0.05250
 H1334 H 0.77196 0.24668 -0.05291
 H1335 H 0.74282 0.23852 -0.00022
 H1336 H 0.78343 0.29397 -0.01781
 H1337 H 0.78090 0.29728 0.01073
 H1338 H 0.75714 0.26380 0.05386
 H1339 H 0.73490 0.24476 0.05408
 H1340 H 0.70275 0.21971 -0.01662
 H1341 H 0.76194 0.25518 -0.00055
 H1342 H 0.69923 0.22407 0.01173
 C1343 C 0.74043 0.75692 0.45198
 C1344 C 0.75327 0.76527 0.45205
 C1345 C 0.75818 0.76551 0.46642
 N1346 N 0.74893 0.75734 0.47505
 C1347 C 0.73805 0.75209 0.46626
 C1348 C 0.77151 0.77235 0.47115
 C1349 C 0.77527 0.77430 0.48602
 C1350 C 0.78911 0.77902 0.49097
 C1351 C 0.78784 0.78082 0.50588
 C1352 C 0.77328 0.77711 0.50964
 N1353 N 0.76568 0.77325 0.49747
 C1354 C 0.76721 0.77801 0.52391
 C1355 C 0.75364 0.77105 0.52802
 C1356 C 0.74628 0.77316 0.54126
 C1357 C 0.73430 0.76361 0.54133
 C1358 C 0.73463 0.75611 0.52807
 N1359 N 0.74647 0.76063 0.51996
 C1360 C 0.72458 0.74469 0.52401
 C1361 C 0.72280 0.73975 0.50945
 C1362 C 0.71455 0.72729 0.50538
 C1363 C 0.71496 0.72670 0.49035
 C1364 C 0.72355 0.73875 0.48563
 N1365 N 0.72816 0.74673 0.49733
 C1366 C 0.72652 0.74226 0.47080
 H1367 H 0.73371 0.75458 0.44244
 H1368 H 0.75839 0.77054 0.44258
 H1369 H 0.73336 0.75715 0.49698
 H1370 H 0.79904 0.78118 0.48448
 H1371 H 0.79663 0.78449 0.51311
 H1372 H 0.74922 0.78075 0.55001
 H1373 H 0.72620 0.76240 0.55009
 H1374 H 0.70964 0.71827 0.48366
 H1375 H 0.75420 0.77173 0.49681
 H1376 H 0.70877 0.71943 0.51249
 C1377 C 1.04537 0.25263 0.24567
 C1378 C 1.04483 0.24124 0.25583
 C1379 C 1.03021 0.24067 0.26094
 N1380 N 1.02180 0.25120 0.25407
 C1381 C 1.03099 0.25843 0.24461
 C1382 C 1.02508 0.23116 0.27235
 C1383 C 1.00997 0.23039 0.27686
 C1384 C 1.00515 0.22432 0.29007
 C1385 C 0.98980 0.22539 0.29020
 C1386 C 0.98563 0.23197 0.27701
 N1387 N 0.99802 0.23488 0.26891
 C1388 C 0.97068 0.23397 0.27237
 C1389 C 0.96662 0.24211 0.25964
 C1390 C 0.95245 0.24240 0.25354
 C1391 C 0.95307 0.25212 0.24185
 C1392 C 0.96748 0.25779 0.24138
 N1393 N 0.97572 0.25165 0.25228
 C1394 C 0.97253 0.26909 0.23160
 C1395 C 0.98750 0.27410 0.23097
 C1396 C 0.99206 0.28742 0.22441
 C1397 C 1.00734 0.28806 0.22585
 C1398 C 1.01174 0.27505 0.23314
 N1399 N 0.99956 0.26656 0.23613
 C1400 C 1.02678 0.27085 0.23579
 H1401 H 1.05527 0.25618 0.23978
 H1402 H 1.05421 0.23433 0.25918
 H1403 H 0.99958 0.25554 0.23995
 H1404 H 1.01198 0.21964 0.29873
 H1405 H 0.98254 0.22149 0.29892
 H1406 H 0.94265 0.23629 0.25709
 H1407 H 0.94384 0.25481 0.23466
 H1408 H 1.01442 0.29699 0.22174
 H1409 H 0.99829 0.23813 0.25799
 H1410 H 0.98509 0.29585 0.21917
 C1411 C 0.54529 0.26700 0.76198
 C1412 C 0.54505 0.25463 0.77101
 C1413 C 0.53101 0.24827 0.76961
 N1414 N 0.52266 0.25639 0.76009
 C1415 C 0.53135 0.26787 0.75546
 C1416 C 0.52635 0.23482 0.77655
 C1417 C 0.51141 0.22976 0.77645
 C1418 C 0.50694 0.21536 0.78031
 C1419 C 0.49159 0.21520 0.77953
 C1420 C 0.48709 0.22954 0.77527
 N1421 N 0.49926 0.23835 0.77348
 C1422 C 0.47205 0.23442 0.77438
 C1423 C 0.46761 0.24828 0.76803
 C1424 C 0.45316 0.25403 0.76819
 C1425 C 0.45340 0.26703 0.76006
 C1426 C 0.46791 0.26870 0.75495
 N1427 N 0.47657 0.25722 0.75982
 C1428 C 0.47266 0.28005 0.74508
 C1429 C 0.48778 0.28233 0.74109
 C1430 C 0.49244 0.29099 0.72926
 C1431 C 0.50780 0.29050 0.72911
 C1432 C 0.51214 0.28160 0.74089
 N1433 N 0.49986 0.27678 0.74821
 C1434 C 0.52714 0.27873 0.74489
 H1435 H 0.55461 0.27457 0.76050
 H1436 H 0.55419 0.25082 0.77783
 H1437 H 0.49976 0.27125 0.75825
 H1438 H 0.51400 0.20597 0.78346
 H1439 H 0.48455 0.20567 0.78211
 H1440 H 0.44338 0.24932 0.77345
 H1441 H 0.44388 0.27428 0.75797
 H1442 H 0.51495 0.29606 0.72119
 H1443 H 0.49922 0.24995 0.77210
 H1444 H 0.48550 0.29695 0.72145
 C1445 C 0.04364 0.24909 0.75799
 C1446 C 0.04344 0.23823 0.74741
 C1447 C 0.02854 0.23550 0.74430
 N1448 N 0.01972 0.24458 0.75247
 C1449 C 0.02886 0.25297 0.76081
 C1450 C 0.02341 0.22527 0.73360
 C1451 C 0.00815 0.22208 0.73087
 C1452 C 0.00327 0.21283 0.71968
 C1453 C -0.01203 0.21230 0.72064
 C1454 C -0.01621 0.22136 0.73231
 N1455 N -0.00383 0.22703 0.73868
 C1456 C -0.03125 0.22433 0.73634
 C1457 C -0.03586 0.23630 0.74554
 C1458 C -0.05062 0.24007 0.74857
 C1459 C -0.05035 0.25279 0.75699
 C1460 C -0.03542 0.25620 0.75922
 N1461 N -0.02663 0.24614 0.75215
 C1462 C -0.03031 0.26823 0.76796
 C1463 C -0.01519 0.27054 0.77188
 C1464 C -0.01069 0.28007 0.78298
 C1465 C 0.00455 0.27857 0.78411
 C1466 C 0.00906 0.26828 0.77357
 N1467 N -0.00306 0.26363 0.76600
 C1468 C 0.02414 0.26387 0.77114
 H1469 H 0.05360 0.25363 0.76294
 H1470 H 0.05324 0.23302 0.74259
 H1471 H -0.00303 0.25697 0.75676
 H1472 H 0.01002 0.20702 0.71160
 H1473 H -0.01928 0.20622 0.71331
 H1474 H -0.06061 0.23441 0.74497
 H1475 H -0.06008 0.25867 0.76116
 H1476 H 0.01150 0.28444 0.79187
 H1477 H -0.00358 0.23294 0.74842
 H1478 H -0.01769 0.28710 0.78985
 C1479 C 0.45167 0.23810 0.25390
 C1480 C 0.45169 0.25065 0.26257
 C1481 C 0.46632 0.25570 0.26294
 N1482 N 0.47515 0.24680 0.25455
 C1483 C 0.46624 0.23600 0.24904
 C1484 C 0.47109 0.26888 0.27011
 C1485 C 0.48627 0.27285 0.27175
 C1486 C 0.49120 0.28661 0.27690
 C1487 C 0.50649 0.28553 0.27819
 C1488 C 0.51049 0.27116 0.27373
 N1489 N 0.49812 0.26349 0.26990
 C1490 C 0.52519 0.26526 0.27409
 C1491 C 0.52957 0.25203 0.26663
 C1492 C 0.54330 0.24487 0.26813
 C1493 C 0.54338 0.23306 0.25853
 C1494 C 0.52966 0.23330 0.25156
 N1495 N 0.52125 0.24494 0.25647
 C1496 C 0.52536 0.22324 0.24043
 C1497 C 0.51040 0.22145 0.23584
 C1498 C 0.50609 0.21330 0.22366
 C1499 C 0.49073 0.21363 0.22335
 C1500 C 0.48604 0.22204 0.23529
 N1501 N 0.49809 0.22665 0.24293
 C1502 C 0.47091 0.22480 0.23902
 H1503 H 0.44197 0.23139 0.25137
 H1504 H 0.44199 0.25551 0.26791
 H1505 H 0.49787 0.23170 0.25315
 H1506 H 0.48447 0.29634 0.27973
 H1507 H 0.51381 0.29430 0.28206
 H1508 H 0.55233 0.24779 0.27540
 H1509 H 0.55246 0.22511 0.25698
 H1510 H 0.48380 0.20835 0.21518
 H1511 H 0.49764 0.25201 0.26791
 H1512 H 0.51325 0.20766 0.21581
 C1513 C 0.95905 0.76495 0.75579
 C1514 C 0.95938 0.75369 0.76609
 C1515 C 0.97226 0.74539 0.76346
 N1516 N 0.97975 0.75112 0.75183
 C1517 C 0.97167 0.76308 0.74710
 C1518 C 0.97652 0.73232 0.77130
 C1519 C 0.99104 0.72598 0.77064
 C1520 C 0.99504 0.71215 0.77659
 C1521 C 1.01019 0.71050 0.77444
 C1522 C 1.01501 0.72331 0.76712
 N1523 N 1.00330 0.73274 0.76498
 C1524 C 1.03006 0.72638 0.76347
 C1525 C 1.03443 0.73751 0.75323
 C1526 C 1.04910 0.74080 0.74951
 C1527 C 1.04852 0.75120 0.73837
 C1528 C 1.03350 0.75398 0.73569
 N1529 N 1.02494 0.74549 0.74468
 C1530 C 1.02799 0.76341 0.72441
 C1531 C 1.01271 0.76712 0.72264
 C1532 C 1.00681 0.77436 0.71046
 C1533 C 0.99188 0.77684 0.71335
 C1534 C 0.98906 0.77104 0.72721
 N1535 N 1.00183 0.76525 0.73284
 C1536 C 0.97508 0.77174 0.73449
 H1537 H 0.95046 0.77352 0.75482
 H1538 H 0.95113 0.75188 0.77462
 H1539 H 1.00335 0.76178 0.74360
 H1540 H 0.98784 0.70413 0.78207
 H1541 H 1.01689 0.70097 0.77794
 H1542 H 1.05920 0.73598 0.75408
 H1543 H 1.05808 0.75596 0.73276
 H1544 H 0.98403 0.78231 0.70606
 H1545 H 1.00394 0.74383 0.76139
 H1546 H 1.01267 0.77765 0.70057
 C1547 C 0.54884 0.73711 0.24575
 C1548 C 0.54860 0.74934 0.23654
 C1549 C 0.53376 0.75376 0.23529
 N1550 N 0.52501 0.74485 0.24373
 C1551 C 0.53419 0.73462 0.25011
 C1552 C 0.52866 0.76640 0.22723
 C1553 C 0.51339 0.76956 0.22454
 C1554 C 0.50804 0.78278 0.21828
 C1555 C 0.49292 0.78096 0.21628
 C1556 C 0.48941 0.76670 0.22144
 N1557 N 0.50196 0.75980 0.22634
 C1558 C 0.47502 0.76025 0.22095
 C1559 C 0.47095 0.74740 0.22923
 C1560 C 0.45756 0.73974 0.22792
 C1561 C 0.45758 0.72874 0.23850
 C1562 C 0.47104 0.72992 0.24582
 N1563 N 0.47918 0.74136 0.24018
 C1564 C 0.47532 0.72092 0.25790
 C1565 C 0.49020 0.71970 0.26294
 C1566 C 0.49445 0.71234 0.27570
 C1567 C 0.50978 0.71292 0.27630
 C1568 C 0.51451 0.72075 0.26396
 N1569 N 0.50252 0.72472 0.25580
 C1570 C 0.52962 0.72360 0.26040
 H1571 H 0.55874 0.73089 0.24897
 H1572 H 0.55830 0.75437 0.23141
 H1573 H 0.50287 0.72918 0.24528
 H1574 H 0.51440 0.79265 0.21521
 H1575 H 0.48538 0.78919 0.21155
 H1576 H 0.44866 0.74183 0.22017
 H1577 H 0.44874 0.72070 0.24048
 H1578 H 0.51667 0.70822 0.28491
 H1579 H 0.50291 0.74850 0.22913
 H1580 H 0.48727 0.70701 0.28374
 C1581 C -0.04503 0.72967 0.25782
 C1582 C -0.04510 0.73941 0.26940
 C1583 C -0.03128 0.74642 0.26937
 N1584 N -0.02279 0.74128 0.25817
 C1585 C -0.03117 0.73101 0.25111
 C1586 C -0.02703 0.75795 0.27909
 C1587 C -0.01210 0.76277 0.28073
 C1588 C -0.00784 0.77560 0.28819
 C1589 C 0.00753 0.77593 0.28789
 C1590 C 0.01225 0.76332 0.28022
 N1591 N 0.00022 0.75531 0.27597
 C1592 C 0.02737 0.75918 0.27801
 C1593 C 0.03202 0.74807 0.26791
 C1594 C 0.04625 0.74183 0.26724
 C1595 C 0.04633 0.73205 0.25568
 C1596 C 0.03215 0.73263 0.24965
 N1597 N 0.02343 0.74246 0.25711
 C1598 C 0.02761 0.72451 0.23718
 C1599 C 0.01257 0.72330 0.23276
 C1600 C 0.00801 0.71783 0.21931
 C1601 C -0.00735 0.71748 0.21963
 C1602 C -0.01175 0.72274 0.23327
 N1603 N 0.00046 0.72623 0.24121
 C1604 C -0.02669 0.72328 0.23833
 H1605 H -0.05413 0.72236 0.25476
 H1606 H -0.05426 0.74108 0.27702
 H1607 H 0.00059 0.72870 0.25231
 H1608 H -0.01504 0.78385 0.29338
 H1609 H 0.01443 0.78449 0.29279
 H1610 H 0.05558 0.74397 0.27442
 H1611 H 0.05573 0.72520 0.25222
 H1612 H -0.01446 0.71365 0.21086
 H1613 H 0.00046 0.74459 0.27150
 H1614 H 0.01502 0.71432 0.21025
 C1615 C 0.54930 0.76302 0.74006
 C1616 C 0.54918 0.74978 0.73242
 C1617 C 0.53453 0.74478 0.73252
 N1618 N 0.52577 0.75438 0.74023
 C1619 C 0.53477 0.76556 0.74484
 C1620 C 0.52965 0.73110 0.72638
 C1621 C 0.51445 0.72728 0.72468
 C1622 C 0.50936 0.71326 0.72036
 C1623 C 0.49414 0.71456 0.71854
 C1624 C 0.49034 0.72931 0.72187
 N1625 N 0.50278 0.73699 0.72551
 C1626 C 0.47580 0.73547 0.72081
 C1627 C 0.47162 0.74926 0.72738
 C1628 C 0.45809 0.75663 0.72524
 C1629 C 0.45806 0.76888 0.73432
 C1630 C 0.47163 0.76868 0.74157
 N1631 N 0.47989 0.75667 0.73735
 C1632 C 0.47582 0.77902 0.75249
 C1633 C 0.49076 0.78105 0.75703
 C1634 C 0.49504 0.78967 0.76891
 C1635 C 0.51040 0.78939 0.76925
 C1636 C 0.51511 0.78050 0.75765
 N1637 N 0.50308 0.77560 0.75016
 C1638 C 0.53023 0.77745 0.75414
 H1639 H 0.55904 0.76989 0.74197
 H1640 H 0.55883 0.74446 0.72742
 H1641 H 0.50334 0.77009 0.74016
 H1642 H 0.51597 0.70322 0.71842
 H1643 H 0.48674 0.70568 0.71509
 H1644 H 0.44914 0.75354 0.71795
 H1645 H 0.44911 0.77705 0.73539
 H1646 H 0.51731 0.79497 0.77725
 H1647 H 0.50347 0.74858 0.72671
 H1648 H 0.48785 0.79559 0.77654
 C1649 C 0.39780 0.30994 0.32369
 C1650 C 0.40495 0.31300 0.31041
 C1651 C 0.41743 0.30364 0.30500
 N1652 N 0.42435 0.30719 0.29219
 N1653 N 0.43539 0.29857 0.28699
 C1654 C 0.43990 0.28607 0.29441
 N1655 N 0.43300 0.28253 0.30721
 N1656 N 0.42198 0.29116 0.31242
 C1657 C 0.45176 0.27616 0.28865
 C1658 C 0.45959 0.27939 0.27582
 H1659 H 0.40118 0.32230 0.30366
 H1660 H 0.45428 0.26585 0.29455
 H1661 H 0.40182 0.30078 0.33051
 H1662 H 0.45775 0.28992 0.27008
 C1663 C 0.39618 0.80501 0.80617
 C1664 C 0.40582 0.81224 0.79637
 C1665 C 0.41778 0.80406 0.78862
 N1666 N 0.42820 0.81176 0.78079
 N1667 N 0.43910 0.80447 0.77373
 C1668 C 0.43993 0.78921 0.77420
 N1669 N 0.42947 0.78151 0.78195
 N1670 N 0.41862 0.78880 0.78906
 C1671 C 0.45174 0.78091 0.76639
 C1672 C 0.46393 0.78798 0.75981
 H1673 H 0.40488 0.82424 0.79449
 H1674 H 0.45100 0.76875 0.76606
 H1675 H 0.39770 0.79309 0.80830
 H1676 H 0.46546 0.79999 0.76108
 C1677 C -0.10365 0.31045 0.82052
 C1678 C -0.09604 0.31349 0.80750
 C1679 C -0.08403 0.30357 0.80207
 N1680 N -0.07605 0.30753 0.79000
 N1681 N -0.06537 0.29848 0.78478
 C1682 C -0.06232 0.28510 0.79142
 N1683 N -0.07032 0.28112 0.80347
 N1684 N -0.08095 0.29020 0.80872
 C1685 C -0.05086 0.27480 0.78557
 C1686 C -0.04154 0.27885 0.77398
 H1687 H -0.09900 0.32329 0.80104
 H1688 H -0.04978 0.26368 0.79038
 H1689 H -0.10027 0.30093 0.82719
 H1690 H -0.04183 0.29020 0.76961
 C1691 C -0.11146 0.80489 0.30508
 C1692 C -0.10015 0.79706 0.31233
 C1693 C -0.08733 0.79065 0.30428
 N1694 N -0.07580 0.78416 0.31164
 N1695 N -0.06420 0.77828 0.30438
 C1696 C -0.06374 0.77869 0.28951
 N1697 N -0.07526 0.78515 0.28218
 N1698 N -0.08682 0.79105 0.28942
 C1699 C -0.05136 0.77186 0.28122
 C1700 C -0.03880 0.76558 0.28789
 H1701 H -0.10052 0.79582 0.32412
 H1702 H -0.05227 0.77147 0.26940
 H1703 H -0.11072 0.80651 0.29333
 H1704 H -0.03713 0.76692 0.29955
 C1705 C 0.60614 0.69288 0.31587
 C1706 C 0.59765 0.68721 0.30443
 C1707 C 0.58553 0.69600 0.29760
 N1708 N 0.57639 0.68939 0.28775
 N1709 N 0.56557 0.69729 0.28124
 C1710 C 0.56354 0.71211 0.28430
 N1711 N 0.57271 0.71873 0.29411
 N1712 N 0.58348 0.71082 0.30067
 C1713 C 0.55192 0.72108 0.27689
 C1714 C 0.54114 0.71450 0.26807
 H1715 H 0.59986 0.67599 0.30035
 H1716 H 0.55183 0.73317 0.27837
 H1717 H 0.60341 0.70381 0.32041
 H1718 H 0.54033 0.70235 0.26756
 C1719 C 0.60796 0.18353 0.80409
 C1720 C 0.59717 0.19297 0.81025
 C1721 C 0.58473 0.19935 0.80174
 N1722 N 0.57329 0.20637 0.80879
 N1723 N 0.56218 0.21270 0.80126
 C1724 C 0.56213 0.21233 0.78640
 N1725 N 0.57359 0.20533 0.77934
 N1726 N 0.58467 0.19891 0.78687
 C1727 C 0.55035 0.22002 0.77799
 C1728 C 0.53746 0.22565 0.78468
 H1729 H 0.59771 0.19569 0.82178
 H1730 H 0.55199 0.22168 0.76633
 H1731 H 0.60686 0.17988 0.79285
 H1732 H 0.53508 0.22287 0.79601
 C1733 C 1.10633 0.69395 0.81818
 C1734 C 1.09865 0.68927 0.80579
 C1735 C 1.08588 0.69774 0.79981
 N1736 N 1.07817 0.69214 0.78832
 N1737 N 1.06685 0.69987 0.78249
 C1738 C 1.06286 0.71353 0.78791
 N1739 N 1.07057 0.71914 0.79940
 N1740 N 1.08186 0.71138 0.80526
 C1741 C 1.05071 0.72242 0.78132
 C1742 C 1.04179 0.71685 0.77016
 H1743 H 1.10212 0.67914 0.80015
 H1744 H 1.04880 0.73378 0.78520
 H1745 H 1.10244 0.70372 0.82418
 H1746 H 1.04302 0.70532 0.76654
 C1747 C 1.10486 0.19719 0.32113
 C1748 C 1.09527 0.19215 0.31025
 C1749 C 1.08264 0.20131 0.30498
 N1750 N 1.07229 0.19510 0.29608
 N1751 N 1.06103 0.20338 0.29085
 C1752 C 1.05976 0.21819 0.29428
 N1753 N 1.07014 0.22441 0.30315
 N1754 N 1.08134 0.21611 0.30845
 C1755 C 1.04790 0.22764 0.28792
 C1756 C 1.03603 0.22153 0.28018
 H1757 H 1.09698 0.18113 0.30550
 H1758 H 1.04873 0.23976 0.28892
 H1759 H 1.10257 0.20778 0.32655
 H1760 H 1.03433 0.20947 0.28018
 C1761 C 0.60687 0.30472 0.69128
 C1762 C 0.59736 0.31163 0.70138
 C1763 C 0.58512 0.30346 0.70865
 N1764 N 0.57502 0.31105 0.71699
 N1765 N 0.56398 0.30376 0.72377
 C1766 C 0.56267 0.28860 0.72250
 N1767 N 0.57279 0.28101 0.71421
 N1768 N 0.58379 0.28830 0.70737
 C1769 C 0.55076 0.28031 0.73013
 C1770 C 0.53903 0.28751 0.73742
 H1771 H 0.59872 0.32343 0.70391
 H1772 H 0.55112 0.26812 0.72989
 H1773 H 0.60501 0.29313 0.68821
 H1774 H 0.53786 0.29963 0.73673
 C1775 C 0.60496 0.80704 0.17795
 C1776 C 0.59615 0.81096 0.18999
 C1777 C 0.58363 0.80145 0.19491
 N1778 N 0.57514 0.80561 0.20658
 N1779 N 0.56399 0.79690 0.21128
 C1780 C 0.56092 0.78372 0.20447
 N1781 N 0.56938 0.77959 0.19279
 N1782 N 0.58051 0.78829 0.18808
 C1783 C 0.54902 0.77368 0.20976
 C1784 C 0.53988 0.77723 0.22164
 H1785 H 0.59857 0.82108 0.19607
 H1786 H 0.54765 0.76291 0.20442
 H1787 H 0.60233 0.79699 0.17184
 H1788 H 0.54057 0.78817 0.22675
 C1789 C 1.10505 0.30600 0.18510
 C1790 C 1.09694 0.30998 0.19758
 C1791 C 1.08396 0.30121 0.20268
 N1792 N 1.07583 0.30600 0.21437
 N1793 N 1.06419 0.29809 0.21922
 C1794 C 1.06024 0.28506 0.21256
 N1795 N 1.06836 0.28027 0.20088
 N1796 N 1.07999 0.28821 0.19602
 C1797 C 1.04769 0.27594 0.21806
 C1798 C 1.03872 0.28057 0.22971
 H1799 H 1.10008 0.31981 0.20378
 H1800 H 1.04567 0.26511 0.21307
 H1801 H 1.10159 0.29640 0.17873
 H1802 H 1.04009 0.29166 0.23435
 C1803 C 1.10554 0.81345 0.68808
 C1804 C 1.09665 0.80176 0.68304
 C1805 C 1.08339 0.79691 0.69147
 N1806 N 1.07517 0.78498 0.68704
 N1807 N 1.06357 0.78023 0.69501
 C1808 C 1.05977 0.78725 0.70771
 N1809 N 1.06792 0.79922 0.71206
 N1810 N 1.07948 0.80395 0.70410
 C1811 C 1.04756 0.78181 0.71713
 C1812 C 1.03883 0.76946 0.71363
 H1813 H 1.09976 0.79572 0.67321
 H1814 H 1.04577 0.78730 0.72757
 H1815 H 1.10232 0.81927 0.69801
 H1816 H 1.04010 0.76388 0.70318
 C1817 C 0.39141 0.69068 0.69353
 C1818 C 0.40303 0.69836 0.68664
 C1819 C 0.41569 0.70432 0.69502
 N1820 N 0.42795 0.70967 0.68795
 N1821 N 0.43935 0.71530 0.69547
 C1822 C 0.43888 0.71582 0.71033
 N1823 N 0.42660 0.71051 0.71739
 N1824 N 0.41525 0.70482 0.70988
 C1825 C 0.45097 0.72269 0.71879
 C1826 C 0.46449 0.72697 0.71244
 H1827 H 0.40300 0.69981 0.67486
 H1828 H 0.44902 0.72490 0.73030
 H1829 H 0.39196 0.68851 0.70520
 H1830 H 0.46715 0.72364 0.70134
 C1831 C 0.39351 0.19477 0.18532
 C1832 C 0.40206 0.18888 0.19672
 C1833 C 0.41428 0.19750 0.20335
 N1834 N 0.42366 0.19075 0.21302
 N1835 N 0.43464 0.19850 0.21922
 C1836 C 0.43659 0.21331 0.21602
 N1837 N 0.42717 0.22007 0.20639
 N1838 N 0.41625 0.21230 0.20014
 C1839 C 0.44834 0.22217 0.22307
 C1840 C 0.45941 0.21558 0.23170
 H1841 H 0.39992 0.17763 0.20079
 H1842 H 0.44830 0.23426 0.22148
 H1843 H 0.39621 0.20572 0.18080
 H1844 H 0.46037 0.20344 0.23233
 C1845 C -0.10658 0.69675 0.18608
 C1846 C -0.09651 0.69021 0.19585
 C1847 C -0.08434 0.69867 0.20266
 N1848 N -0.07352 0.69114 0.21010
 N1849 N -0.06264 0.69859 0.21675
 C1850 C -0.06222 0.71386 0.21630
 N1851 N -0.07307 0.72140 0.20890
 N1852 N -0.08392 0.71394 0.20216
 C1853 C -0.05058 0.72218 0.22409
 C1854 C -0.03805 0.71498 0.22989
 H1855 H -0.09740 0.67836 0.19851
 H1856 H -0.05189 0.73423 0.22539
 H1857 H -0.10508 0.70828 0.18251
 H1858 H -0.03598 0.70321 0.22753
 C1859 C -0.10726 0.19056 0.68288
 C1860 C -0.09902 0.18538 0.69480
 C1861 C -0.08684 0.19438 0.70106
 N1862 N -0.07816 0.18857 0.71186
 N1863 N -0.06724 0.19671 0.71769
 C1864 C -0.06463 0.21099 0.71294
 N1865 N -0.07334 0.21680 0.70218
 N1866 N -0.08422 0.20865 0.69633
 C1867 C -0.05289 0.22030 0.71946
 C1868 C -0.04289 0.21467 0.72979
 H1869 H -0.10147 0.17452 0.69965
 H1870 H -0.05211 0.23200 0.71614
 H1871 H -0.10441 0.20123 0.67783
 H1872 H -0.04277 0.20277 0.73241
 C1873 C 0.30428 0.38697 0.30825
 C1874 C 0.31114 0.39989 0.30283
 C1875 C 0.30221 0.41259 0.29713
 N1876 N 0.30893 0.42565 0.29316
 N1877 N 0.30087 0.43717 0.28800
 C1878 C 0.28579 0.43601 0.28666
 N1879 N 0.27910 0.42296 0.29061
 N1880 N 0.28714 0.41148 0.29578
 C1881 C 0.27673 0.44826 0.28040
 C1882 C 0.28272 0.46210 0.27634
 H1883 H 0.32319 0.40094 0.30317
 H1884 H 0.26501 0.44610 0.27834
 H1885 H 0.29219 0.38629 0.30836
 H1886 H 0.29405 0.46491 0.27939
 C1887 C 0.31963 -0.10707 0.81115
 C1888 C 0.30706 -0.09895 0.81571
 C1889 C 0.30093 -0.08656 0.80673
 N1890 N 0.29029 -0.07723 0.81231
 N1891 N 0.28466 -0.06605 0.80420
 C1892 C 0.28944 -0.06384 0.79021
 N1893 N 0.30000 -0.07321 0.78463
 N1894 N 0.30568 -0.08433 0.79274
 C1895 C 0.28308 -0.05188 0.78093
 C1896 C 0.27369 -0.04067 0.78640
 H1897 H 0.30172 -0.10148 0.82609
 H1898 H 0.28579 -0.05191 0.76935
 H1899 H 0.32517 -0.10382 0.80105
 H1900 H 0.27193 -0.03967 0.79810
 C1901 C 0.80595 0.38896 0.80309
 C1902 C 0.81310 0.39988 0.79459
 C1903 C 0.80458 0.41211 0.78749
 N1904 N 0.81181 0.42390 0.78120
 N1905 N 0.80414 0.43508 0.77492
 C1906 C 0.78895 0.43484 0.77466
 N1907 N 0.78175 0.42301 0.78085
 N1908 N 0.78941 0.41188 0.78717
 C1909 C 0.78020 0.44699 0.76782
 C1910 C 0.78655 0.46036 0.76282
 H1911 H 0.82515 0.39981 0.79343
 H1912 H 0.76820 0.44555 0.76701
 H1913 H 0.79393 0.38965 0.80454
 H1914 H 0.79831 0.46247 0.76462
 C1915 C 0.81099 -0.10783 0.30165
 C1916 C 0.80343 -0.09584 0.30821
 C1917 C 0.79637 -0.08376 0.29962
 N1918 N 0.79083 -0.07145 0.30654
 N1919 N 0.78387 -0.06064 0.29901
 C1920 C 0.78214 -0.06179 0.28430
 N1921 N 0.78767 -0.07411 0.27737
 N1922 N 0.79470 -0.08489 0.28489
 C1923 C 0.77380 -0.05033 0.27602
 C1924 C 0.76925 -0.03684 0.28237
 H1925 H 0.80257 -0.09516 0.32001
 H1926 H 0.77083 -0.05266 0.26477
 H1927 H 0.81254 -0.10784 0.28987
 H1928 H 0.77325 -0.03383 0.29314
 C1929 C 0.31210 0.60617 0.69212
 C1930 C 0.30128 0.59633 0.68695
 C1931 C 0.29689 0.58302 0.69565
 N1932 N 0.28525 0.57432 0.69145
 N1933 N 0.28100 0.56258 0.69961
 C1934 C 0.28828 0.55911 0.71223
 N1935 N 0.29997 0.56772 0.71633
 N1936 N 0.30419 0.57944 0.70821
 C1937 C 0.28350 0.54667 0.72180
 C1938 C 0.27108 0.53783 0.71895
 H1939 H 0.29564 0.59866 0.67672
 H1940 H 0.28961 0.54479 0.73186
 H1941 H 0.31738 0.60384 0.70254
 H1942 H 0.26507 0.53902 0.70874
 C1943 C 0.31329 1.10578 0.18854
 C1944 C 0.30048 1.09791 0.18460
 C1945 C 0.29494 1.08521 0.19354
 N1946 N 0.28277 1.07732 0.18926
 N1947 N 0.27758 1.06600 0.19744
 C1948 C 0.28436 1.06217 0.21022
 N1949 N 0.29651 1.07005 0.21448
 N1950 N 0.30171 1.08133 0.20630
 C1951 C 0.27868 1.04999 0.21967
 C1952 C 0.26663 1.04095 0.21591
 H1953 H 0.29432 1.10119 0.17492
 H1954 H 0.28408 1.04814 0.23013
 H1955 H 0.31949 1.10222 0.19812
 H1956 H 0.26154 1.04204 0.20522
 C1957 C 0.81680 0.60514 0.19607
 C1958 C 0.80741 0.59445 0.18997
 C1959 C 0.80061 0.58235 0.19868
 N1960 N 0.79352 0.57094 0.19183
 N1961 N 0.78678 0.56016 0.19955
 C1962 C 0.78682 0.56045 0.21442
 N1963 N 0.79388 0.57188 0.22128
 N1964 N 0.80070 0.58262 0.21355
 C1965 C 0.77877 0.54905 0.22301
 C1966 C 0.77314 0.53609 0.21660
 H1967 H 0.80495 0.59488 0.17838
 H1968 H 0.77696 0.55098 0.23459
 H1969 H 0.82019 0.60411 0.20740
 H1970 H 0.77601 0.53339 0.20538
 C1971 C 0.80625 1.10614 0.68929
 C1972 C 0.81300 1.09681 0.69968
 C1973 C 0.80475 1.08426 0.70653
 N1974 N 0.81193 1.07420 0.71530
 N1975 N 0.80450 1.06282 0.72148
 C1976 C 0.78961 1.06114 0.71913
 N1977 N 0.78245 1.07123 0.71043
 N1978 N 0.78987 1.08255 0.70422
 C1979 C 0.78103 1.04891 0.72602
 C1980 C 0.78760 1.03729 0.73408
 H1981 H 0.82457 1.09851 0.70263
 H1982 H 0.76900 1.04902 0.72467
 H1983 H 0.79486 1.10395 0.68600
 H1984 H 0.79966 1.03628 0.73455
 C1985 C 0.69272 0.60827 0.30771
 C1986 C 0.68588 0.59948 0.29712
 C1987 C 0.69414 0.58734 0.28967
 N1988 N 0.68676 0.57702 0.28156
 N1989 N 0.69420 0.56589 0.27496
 C1990 C 0.70931 0.56476 0.27616
 N1991 N 0.71668 0.57515 0.28414
 N1992 N 0.70924 0.58620 0.29080
 C1993 C 0.71780 0.55264 0.26900
 C1994 C 0.71100 0.54024 0.26263
 H1995 H 0.67419 0.60120 0.29456
 H1996 H 0.72990 0.55324 0.26913
 H1997 H 0.70418 0.60588 0.31078
 H1998 H 0.69901 0.53882 0.26355
 C1999 C 0.69422 1.10158 0.81984
 C2000 C 0.69060 1.09364 0.80719
 C2001 C 0.69917 1.08035 0.80236
 N2002 N 0.69526 1.07316 0.78989
 N2003 N 0.70315 1.06138 0.78512
 C2004 C 0.71525 1.05635 0.79266
 N2005 N 0.71913 1.06350 0.80516
 N2006 N 0.71124 1.07527 0.80994
 C2007 C 0.72449 1.04381 0.78721
 C2008 C 0.72138 1.03644 0.77415
 H2009 H 0.68140 1.09732 0.80038
 H2010 H 0.73443 1.04068 0.79327
 H2011 H 0.70334 1.09758 0.82662
 H2012 H 0.71116 1.03892 0.76828
 C2013 C 0.18660 0.60601 0.80777
 C2014 C 0.19786 0.59646 0.81285
 C2015 C 0.20336 0.58362 0.80420
 N2016 N 0.21351 0.57392 0.81003
 N2017 N 0.21894 0.56253 0.80215
 C2018 C 0.21445 0.56044 0.78812
 N2019 N 0.20430 0.57013 0.78229
 N2020 N 0.19883 0.58148 0.79019
 C2021 C 0.22086 0.54837 0.77904
 C2022 C 0.23061 0.53755 0.78468
 H2023 H 0.20292 0.59848 0.82340
 H2024 H 0.21816 0.54820 0.76749
 H2025 H 0.18114 0.60357 0.79749
 H2026 H 0.23241 0.53684 0.79638
 C2027 C 0.18117 1.10485 0.30775
 C2028 C 0.19302 1.09574 0.31230
 C2029 C 0.19854 1.08296 0.30362
 N2030 N 0.21012 1.07451 0.30866
 N2031 N 0.21566 1.06325 0.30071
 C2032 C 0.20983 1.06003 0.28739
 N2033 N 0.19821 1.06843 0.28237
 N2034 N 0.19266 1.07969 0.29034
 C2035 C 0.21623 1.04806 0.27821
 C2036 C 0.22818 1.03912 0.28279
 H2037 H 0.19878 1.09822 0.32239
 H2038 H 0.21171 1.04647 0.26734
 H2039 H 0.17512 1.10210 0.29788
 H2040 H 0.23235 1.04001 0.29386
 C2041 C 0.68556 0.39442 0.69134
 C2042 C 0.69581 0.40450 0.68537
 C2043 C 0.70244 0.41647 0.69431
 N2044 N 0.70953 0.42822 0.68780
 N2045 N 0.71568 0.43901 0.69584
 C2046 C 0.71505 0.43837 0.71071
 N2047 N 0.70806 0.42658 0.71721
 N2048 N 0.70182 0.41587 0.70916
 C2049 C 0.72225 0.44982 0.71980
 C2050 C 0.72703 0.46359 0.71418
 H2051 H 0.69876 0.40384 0.67388
 H2052 H 0.72388 0.44737 0.73132
 H2053 H 0.68183 0.39586 0.70255
 H2054 H 0.72420 0.46683 0.70308
 C2055 C 0.68992 -0.10920 0.19554
 C2056 C 0.68217 -0.09984 0.20519
 C2057 C 0.68992 -0.08762 0.21288
 N2058 N 0.68202 -0.07686 0.22012
 N2059 N 0.68903 -0.06559 0.22677
 C2060 C 0.70420 -0.06474 0.22643
 N2061 N 0.71207 -0.07556 0.21932
 N2062 N 0.70507 -0.08676 0.21264
 C2063 C 0.71229 -0.05247 0.23358
 C2064 C 0.70524 -0.03996 0.23972
 H2065 H 0.67021 -0.10104 0.20662
 H2066 H 0.72440 -0.05311 0.23366
 H2067 H 0.70173 -0.10735 0.19363
 H2068 H 0.69326 -0.03854 0.23867
 C2069 C 0.18760 0.39294 0.19790
 C2070 C 0.19763 0.40327 0.19193
 C2071 C 0.20460 0.41519 0.20065
 N2072 N 0.21259 0.42614 0.19384
 N2073 N 0.21921 0.43688 0.20155
 C2074 C 0.21815 0.43702 0.21639
 N2075 N 0.21022 0.42604 0.22321
 N2076 N 0.20353 0.41533 0.21549
 C2077 C 0.22560 0.44866 0.22508
 C2078 C 0.23197 0.46141 0.21871
 H2079 H 0.20039 0.40280 0.18038
 H2080 H 0.22583 0.44735 0.23688
 H2081 H 0.18414 0.39394 0.20924
 H2082 H 0.23071 0.46345 0.20708
 C2083 C 0.18961 -0.10753 0.69495
 C2084 C 0.20086 -0.09800 0.68997
 C2085 C 0.20571 -0.08506 0.69873
 N2086 N 0.21749 -0.07661 0.69429
 N2087 N 0.22217 -0.06513 0.70239
 C2088 C 0.21518 -0.06168 0.71520
 N2089 N 0.20335 -0.07006 0.71958
 N2090 N 0.19870 -0.08153 0.71150
 C2091 C 0.22045 -0.04945 0.72459
 C2092 C 0.23313 -0.04107 0.72131
 H2093 H 0.20649 -0.10024 0.67968
 H2094 H 0.21450 -0.04731 0.73474
 H2095 H 0.18420 -0.10530 0.70536
 H2096 H 0.23891 -0.04256 0.71096
 C2097 C 0.30155 0.30793 0.39221
 C2098 C 0.30779 0.30278 0.40526
 C2099 C 0.29840 0.29734 0.41743
 N2100 N 0.30481 0.29242 0.43002
 N2101 N 0.29640 0.28728 0.44103
 C2102 C 0.28127 0.28692 0.43984
 N2103 N 0.27487 0.29189 0.42728
 N2104 N 0.28327 0.29702 0.41629
 C2105 C 0.27182 0.28068 0.45156
 C2106 C 0.27772 0.27486 0.46450
 H2107 H 0.31980 0.30277 0.40665
 H2108 H 0.25989 0.28000 0.44969
 H2109 H 0.28951 0.30807 0.39097
 H2110 H 0.28943 0.27646 0.46699
 C2111 C 0.31338 0.80315 -0.10953
 C2112 C 0.30559 0.81015 -0.09818
 C2113 C 0.29929 0.80142 -0.08588
 N2114 N 0.29374 0.80857 -0.07391
 N2115 N 0.28805 0.80072 -0.06274
 C2116 C 0.28768 0.78544 -0.06315
 N2117 N 0.29316 0.77832 -0.07515
 N2118 N 0.29891 0.78615 -0.08627
 C2119 C 0.28093 0.77657 -0.05124
 C2120 C 0.27630 0.78291 -0.03804
 H2121 H 0.30450 0.82229 -0.09803
 H2122 H 0.27920 0.76465 -0.05302
 H2123 H 0.31509 0.79107 -0.10919
 H2124 H 0.27909 0.79447 -0.03556
 C2125 C 0.80166 0.31096 -0.11058
 C2126 C 0.80827 0.30486 -0.09808
 C2127 C 0.79934 0.29805 -0.08626
 N2128 N 0.80614 0.29298 -0.07392
 N2129 N 0.79819 0.28668 -0.06317
 C2130 C 0.78314 0.28519 -0.06439
 N2131 N 0.77635 0.29024 -0.07673
 N2132 N 0.78429 0.29656 -0.08746
 C2133 C 0.77420 0.27807 -0.05279
 C2134 C 0.78034 0.27335 -0.03954
 H2135 H 0.82029 0.30513 -0.09683
 H2136 H 0.76236 0.27650 -0.05469
 H2137 H 0.78960 0.31098 -0.11161
 H2138 H 0.79189 0.27585 -0.03709
 C2139 C 0.81325 0.82360 0.39776
 C2140 C 0.81623 0.81020 0.40519
 C2141 C 0.80727 0.80555 0.41798
 N2142 N 0.81007 0.79219 0.42471
 N2143 N 0.80161 0.78762 0.43592
 C2144 C 0.79004 0.79625 0.44080
 N2145 N 0.78730 0.80963 0.43412
 N2146 N 0.79575 0.81420 0.42292
 C2147 C 0.78021 0.79116 0.45275
 C2148 C 0.78230 0.77748 0.45992
 H2149 H 0.82487 0.80264 0.40125
 H2150 H 0.77072 0.79816 0.45572
 H2151 H 0.80459 0.83109 0.40181
 H2152 H 0.79186 0.77040 0.45742
 C2153 C 0.69113 0.30827 0.60749
 C2154 C 0.70090 0.31553 0.59789
 C2155 C 0.70805 0.30749 0.58562
 N2156 N 0.71544 0.31526 0.57502
 N2157 N 0.72201 0.30805 0.56392
 C2158 C 0.72148 0.29280 0.56306
 N2159 N 0.71417 0.28504 0.57370
 N2160 N 0.70754 0.29224 0.58474
 C2161 C 0.72900 0.28459 0.55115
 C2162 C 0.73494 0.29181 0.53887
 H2163 H 0.70309 0.32743 0.59915
 H2164 H 0.72991 0.27245 0.55203
 H2165 H 0.68834 0.29659 0.60564
 H2166 H 0.73293 0.30373 0.53722
 C2167 C 0.69780 0.81785 1.10329
 C2168 C 0.69290 0.80655 1.09397
 C2169 C 0.70193 0.80135 1.08146
 N2170 N 0.69681 0.79012 1.07286
 N2171 N 0.70499 0.78507 1.06167
 C2172 C 0.71860 0.79109 1.05866
 N2173 N 0.72370 0.80236 1.06723
 N2174 N 0.71551 0.80740 1.07842
 C2175 C 0.72798 0.78530 1.04666
 C2176 C 0.72349 0.77334 1.03796
 H2177 H 0.68224 0.80119 1.09595
 H2178 H 0.73892 0.79018 1.04491
 H2179 H 0.70844 0.82323 1.10121
 H2180 H 0.71235 0.76877 1.03913
 C2181 C 0.19098 0.32101 1.10343
 C2182 C 0.18520 0.31006 1.09420
 C2183 C 0.19352 0.30445 1.08139
 N2184 N 0.18719 0.29412 1.07249
 N2185 N 0.19477 0.28853 1.06114
 C2186 C 0.20897 0.29305 1.05828
 N2187 N 0.21529 0.30341 1.06715
 N2188 N 0.20770 0.30903 1.07848
 C2189 C 0.21776 0.28641 1.04628
 C2190 C 0.21186 0.27575 1.03684
 H2191 H 0.17435 0.30525 1.09648
 H2192 H 0.22943 0.28947 1.04521
 H2193 H 0.20162 0.32617 1.10085
 H2194 H 0.20008 0.27302 1.03726
 C2195 C 0.19425 0.81365 0.60502
 C2196 C 0.18831 0.80296 0.59561
 C2197 C 0.19724 0.79653 0.58354
 N2198 N 0.19046 0.78872 0.57271
 N2199 N 0.19850 0.78262 0.56190
 C2200 C 0.21362 0.78402 0.56158
 N2201 N 0.22039 0.79175 0.57245
 N2202 N 0.21235 0.79794 0.58318
 C2203 C 0.22273 0.77681 0.55010
 C2204 C 0.21653 0.77119 0.53730
 H2205 H 0.17683 0.79939 0.59697
 H2206 H 0.23468 0.77578 0.55178
 H2207 H 0.20538 0.81795 0.60295
 H2208 H 0.20489 0.77342 0.53484
 C2209 C 0.31234 0.69038 0.60418
 C2210 C 0.30126 0.68412 0.59546
 C2211 C 0.29437 0.69265 0.58333
 N2212 N 0.28552 0.68558 0.57351
 N2213 N 0.27906 0.69328 0.56265
 C2214 C 0.28115 0.70836 0.56128
 N2215 N 0.28993 0.71543 0.57114
 N2216 N 0.29646 0.70772 0.58192
 C2217 C 0.27381 0.71720 0.54965
 C2218 C 0.26665 0.71062 0.53779
 H2219 H 0.29763 0.67268 0.59745
 H2220 H 0.27423 0.72936 0.55032
 H2221 H 0.31652 0.70150 0.60157
 H2222 H 0.26728 0.69854 0.53627
 C2223 C 0.31036 0.19132 1.10226
 C2224 C 0.29757 0.18663 1.09497
 C2225 C 0.29161 0.19536 1.08249
 N2226 N 0.27983 0.19019 1.07469
 N2227 N 0.27433 0.19821 1.06354
 C2228 C 0.28040 0.21171 1.05981
 N2229 N 0.29214 0.21686 1.06762
 N2230 N 0.29765 0.20884 1.07871
 C2231 C 0.27431 0.22103 1.04787
 C2232 C 0.26293 0.21624 1.03870
 H2233 H 0.29184 0.17652 1.09845
 H2234 H 0.27883 0.23222 1.04632
 H2235 H 0.31618 0.20124 1.09837
 H2236 H 0.25874 0.20485 1.03946
 C2237 C 0.80621 0.68204 1.10564
 C2238 C 0.81160 0.69273 1.09579
 C2239 C 0.80263 0.69800 1.08330
 N2240 N 0.80898 0.70670 1.07275
 N2241 N 0.80088 0.71184 1.06157
 C2242 C 0.78612 0.70851 1.06056
 N2243 N 0.77976 0.69984 1.07113
 N2244 N 0.78788 0.69464 1.08227
 C2245 C 0.77687 0.71476 1.04874
 C2246 C 0.78305 0.72243 1.03687
 H2247 H 0.82272 0.69725 1.09712
 H2248 H 0.76482 0.71376 1.04960
 H2249 H 0.79544 0.67688 1.10377
 H2250 H 0.79504 0.72238 1.03518
 C2251 C 0.80546 0.18822 0.60292
 C2252 C 0.81264 0.19810 0.59334
 C2253 C 0.80478 0.20565 0.58124
 N2254 N 0.81263 0.21369 0.57118
 N2255 N 0.80564 0.22096 0.56039
 C2256 C 0.79051 0.22051 0.55932
 N2257 N 0.78265 0.21250 0.56939
 N2258 N 0.78965 0.20517 0.58014
 C2259 C 0.78256 0.22897 0.54785
 C2260 C 0.78999 0.23602 0.53628
 H2261 H 0.82443 0.20038 0.59467
 H2262 H 0.77049 0.22981 0.54857
 H2263 H 0.79390 0.18525 0.60108
 H2264 H 0.80188 0.23423 0.53473
 C2265 C 0.69564 0.68841 0.39448
 C2266 C 0.68964 0.69937 0.40368
 C2267 C 0.69842 0.70600 0.41558
 N2268 N 0.69181 0.71559 0.42518
 N2269 N 0.69971 0.72187 0.43584
 C2270 C 0.71453 0.71880 0.43726
 N2271 N 0.72114 0.70923 0.42766
 N2272 N 0.71323 0.70292 0.41703
 C2273 C 0.72354 0.72596 0.44867
 C2274 C 0.71720 0.73489 0.45957
 H2275 H 0.67824 0.70319 0.40220
 H2276 H 0.73554 0.72423 0.44848
 H2277 H 0.70684 0.68418 0.39641
 H2278 H 0.70515 0.73566 0.46063
 C2279 C 0.68491 0.19491 -0.10657
 C2280 C 0.69467 0.18914 -0.09608
 C2281 C 0.70067 0.19856 -0.08430
 N2282 N 0.70775 0.19208 -0.07275
 N2283 N 0.71344 0.20052 -0.06215
 C2284 C 0.71235 0.21577 -0.06276
 N2285 N 0.70535 0.22225 -0.07435
 N2286 N 0.69957 0.21381 -0.08490
 C2287 C 0.71904 0.22529 -0.05145
 C2288 C 0.72410 0.21950 -0.03815
 H2289 H 0.69779 0.17735 -0.09631
 H2290 H 0.72003 0.23725 -0.05361
 H2291 H 0.68101 0.20644 -0.10572
 H2292 H 0.72192 0.20787 -0.03527
 C2293 C 0.19774 0.68706 -0.10541
 C2294 C 0.19125 0.69676 -0.09521
 C2295 C 0.19994 0.70374 -0.08343
 N2296 N 0.19282 0.71158 -0.07273
 N2297 N 0.20056 0.71824 -0.06217
 C2298 C 0.21573 0.71738 -0.06199
 N2299 N 0.22285 0.70960 -0.07273
 N2300 N 0.21510 0.70287 -0.08324
 C2301 C 0.22449 0.72494 -0.05062
 C2302 C 0.21791 0.73135 -0.03825
 H2303 H 0.17943 0.69935 -0.09582
 H2304 H 0.23653 0.72528 -0.05188
 H2305 H 0.20937 0.68382 -0.10430
 H2306 H 0.20604 0.72999 -0.03627
 C2307 C 0.19621 0.18115 0.39643
 C2308 C 0.19085 0.19181 0.40630
 C2309 C 0.19939 0.19644 0.41920
 N2310 N 0.19385 0.20736 0.42805
 N2311 N 0.20160 0.21202 0.43957
 C2312 C 0.21518 0.20590 0.44269
 N2313 N 0.22068 0.19490 0.43389
 N2314 N 0.21294 0.19025 0.42235
 C2315 C 0.22410 0.21143 0.45500
 C2316 C 0.21934 0.22354 0.46346
 H2317 H 0.18016 0.19724 0.40443
 H2318 H 0.23494 0.20637 0.45705
 H2319 H 0.20688 0.17568 0.39836
 H2320 H 0.20827 0.22828 0.46191
 C2321 C 0.30626 0.39150 0.68544
 C2322 C 0.31242 0.40180 0.69510
 C2323 C 0.30337 0.41390 0.70171
 N2324 N 0.31015 0.42566 0.70832
 N2325 N 0.30205 0.43657 0.71451
 C2326 C 0.28687 0.43605 0.71439
 N2327 N 0.28010 0.42424 0.70787
 N2328 N 0.28820 0.41340 0.70158
 C2329 C 0.27779 0.44766 0.72170
 C2330 C 0.28377 0.46131 0.72617
 H2331 H 0.32424 0.40126 0.69759
 H2332 H 0.26607 0.44538 0.72377
 H2333 H 0.29471 0.39277 0.68212
 H2334 H 0.29504 0.46433 0.72296
 C2335 C 0.31791 0.89814 0.18984
 C2336 C 0.30512 0.90619 0.18590
 C2337 C 0.29969 0.91905 0.19454
 N2338 N 0.28722 0.92667 0.19034
 N2339 N 0.28207 0.93819 0.19823
 C2340 C 0.28923 0.94251 0.21059
 N2341 N 0.30172 0.93493 0.21475
 N2342 N 0.30686 0.92343 0.20687
 C2343 C 0.28344 0.95479 0.21975
 C2344 C 0.27047 0.96276 0.21633
 H2345 H 0.29886 0.90299 0.17630
 H2346 H 0.28920 0.95726 0.22987
 H2347 H 0.32421 0.90152 0.19936
 H2348 H 0.26490 0.96097 0.20599
 C2349 C 0.80260 0.39415 0.17877
 C2350 C 0.80652 0.40249 0.19104
 C2351 C 0.79728 0.41504 0.19644
 N2352 N 0.80177 0.42297 0.20827
 N2353 N 0.79343 0.43424 0.21344
 C2354 C 0.78028 0.43798 0.20696
 N2355 N 0.77580 0.43006 0.19512
 N2356 N 0.78415 0.41880 0.18994
 C2357 C 0.77079 0.45018 0.21269
 C2358 C 0.77490 0.45875 0.22471
 H2359 H 0.81663 0.39976 0.19697
 H2360 H 0.76015 0.45237 0.20746
 H2361 H 0.79261 0.39708 0.17272
 H2362 H 0.78578 0.45723 0.22966
 C2363 C 0.81121 0.89460 0.68383
 C2364 C 0.81631 0.90253 0.69594
 C2365 C 0.80733 0.91455 0.70279
 N2366 N 0.81343 0.92338 0.71325
 N2367 N 0.80534 0.93418 0.71964
 C2368 C 0.79084 0.93648 0.71585
 N2369 N 0.78473 0.92761 0.70544
 N2370 N 0.79283 0.91687 0.69900
 C2371 C 0.78161 0.94810 0.72298
 C2372 C 0.78756 0.95882 0.73236
 H2373 H 0.82722 0.90002 0.70043
 H2374 H 0.76974 0.94834 0.72069
 H2375 H 0.80062 0.89767 0.67891
 H2376 H 0.79955 0.95954 0.73377
 C2377 C 0.68937 0.60138 0.68132
 C2378 C 0.68539 0.59509 0.69476
 C2379 C 0.69235 0.58095 0.69986
 N2380 N 0.69188 0.57710 0.71425
 N2381 N 0.69876 0.56466 0.71900
 C2382 C 0.70625 0.55557 0.70950
 N2383 N 0.70649 0.55930 0.69510
 N2384 N 0.69970 0.57177 0.69037
 C2385 C 0.71452 0.54220 0.71457
 C2386 C 0.71794 0.53984 0.72926
 H2387 H 0.67780 0.60103 0.70201
 H2388 H 0.71914 0.53464 0.70642
 H2389 H 0.69778 0.59585 0.67464
 H2390 H 0.71447 0.54808 0.73732
 C2391 C 0.68687 0.10710 0.18950
 C2392 C 0.67986 0.09771 0.19964
 C2393 C 0.68797 0.08496 0.20631
 N2394 N 0.68078 0.07515 0.21530
 N2395 N 0.68815 0.06363 0.22138
 C2396 C 0.70298 0.06155 0.21866
 N2397 N 0.71014 0.07137 0.20969
 N2398 N 0.70277 0.08283 0.20361
 C2399 C 0.71153 0.04934 0.22560
 C2400 C 0.70503 0.03847 0.23458
 H2401 H 0.66825 0.09955 0.20255
 H2402 H 0.72353 0.04911 0.22390
 H2403 H 0.69836 0.10484 0.18636
 H2404 H 0.69297 0.03774 0.23548
 C2405 C 0.18434 0.60647 0.19464
 C2406 C 0.19595 0.59711 0.19002
 C2407 C 0.20164 0.58472 0.19918
 N2408 N 0.21180 0.57489 0.19360
 N2409 N 0.21739 0.56386 0.20190
 C2410 C 0.21306 0.56231 0.21610
 N2411 N 0.20292 0.57215 0.22169
 N2412 N 0.19728 0.58314 0.21338
 C2413 C 0.21957 0.55055 0.22551
 C2414 C 0.22883 0.53930 0.21992
 H2415 H 0.20109 0.59888 0.17940
 H2416 H 0.21721 0.55082 0.23716
 H2417 H 0.17870 0.60419 0.20493
 H2418 H 0.23021 0.53816 0.20818
 C2419 C 0.19949 0.10556 0.68469
 C2420 C 0.19410 0.09462 0.69428
 C2421 C 0.20367 0.08264 0.70033
 N2422 N 0.19737 0.07084 0.70746
 N2423 N 0.20587 0.06010 0.71339
 C2424 C 0.22101 0.06081 0.71249
 N2425 N 0.22733 0.07265 0.70540
 N2426 N 0.21882 0.08335 0.69937
 C2427 C 0.23049 0.04938 0.71960
 C2428 C 0.22457 0.03600 0.72506
 H2429 H 0.18238 0.09465 0.69734
 H2430 H 0.24230 0.05162 0.72087
 H2431 H 0.21092 0.10492 0.68076
 H2432 H 0.21310 0.03307 0.72266
 C2433 C 0.31765 0.60478 0.30997
 C2434 C 0.30560 0.59604 0.31457
 C2435 C 0.30039 0.58328 0.30569
 N2436 N 0.28844 0.57501 0.31008
 N2437 N 0.28354 0.56367 0.30189
 C2438 C 0.29043 0.56019 0.28903
 N2439 N 0.30238 0.56843 0.28469
 N2440 N 0.30726 0.57973 0.29285
 C2441 C 0.28500 0.54808 0.27954
 C2442 C 0.27271 0.53921 0.28310
 H2443 H 0.29973 0.59873 0.32463
 H2444 H 0.29060 0.54632 0.26914
 H2445 H 0.32339 0.60194 0.29988
 H2446 H 0.26734 0.54024 0.29370
 C2447 C 0.31469 0.10720 0.80645
 C2448 C 0.30436 0.09697 0.81207
 C2449 C 0.29840 0.08450 0.80340
 N2450 N 0.28982 0.07389 0.81001
 N2451 N 0.28400 0.06270 0.80229
 C2452 C 0.28649 0.06176 0.78764
 N2453 N 0.29503 0.07240 0.78102
 N2454 N 0.30092 0.08356 0.78876
 C2455 C 0.27978 0.04974 0.77890
 C2456 C 0.27241 0.03758 0.78530
 H2457 H 0.30054 0.09801 0.82329
 H2458 H 0.28069 0.05041 0.76708
 H2459 H 0.31923 0.10567 0.79554
 H2460 H 0.27248 0.03614 0.79709
 C2461 C 0.80462 0.60567 0.81579
 C2462 C 0.80992 0.59619 0.80480
 C2463 C 0.80110 0.58358 0.79914
 N2464 N 0.80744 0.57376 0.78959
 N2465 N 0.79952 0.56250 0.78407
 C2466 C 0.78493 0.56067 0.78785
 N2467 N 0.77858 0.57049 0.79739
 N2468 N 0.78652 0.58172 0.80297
 C2469 C 0.77586 0.54874 0.78126
 C2470 C 0.78211 0.53776 0.77222
 H2471 H 0.82097 0.59793 0.80022
 H2472 H 0.76390 0.54883 0.78318
 H2473 H 0.79390 0.60346 0.82091
 H2474 H 0.79415 0.53679 0.77125
 C2475 C 0.80140 0.10489 0.31723
 C2476 C 0.80554 0.09613 0.30525
 C2477 C 0.79612 0.08359 0.30035
 N2478 N 0.79999 0.07552 0.28832
 N2479 N 0.79135 0.06432 0.28373
 C2480 C 0.77855 0.06078 0.29103
 N2481 N 0.77473 0.06882 0.30307
 N2482 N 0.78335 0.08000 0.30764
 C2483 C 0.76865 0.04873 0.28603
 C2484 C 0.77158 0.04028 0.27355
 H2485 H 0.81569 0.09861 0.29923
 H2486 H 0.75850 0.04661 0.29221
 H2487 H 0.79116 0.10235 0.32310
 H2488 H 0.78197 0.04169 0.26758
 C2489 C 0.69228 0.39528 0.31663
 C2490 C 0.68639 0.40426 0.30550
 C2491 C 0.69468 0.41696 0.29915
 N2492 N 0.68788 0.42628 0.28942
 N2493 N 0.69539 0.43753 0.28317
 C2494 C 0.71000 0.43983 0.28641
 N2495 N 0.71681 0.43051 0.29615
 N2496 N 0.70928 0.41930 0.30244
 C2497 C 0.71864 0.45168 0.27904
 C2498 C 0.71198 0.46227 0.26983
 H2499 H 0.67538 0.40194 0.30124
 H2500 H 0.73065 0.45186 0.28056
 H2501 H 0.70292 0.39811 0.32147
 H2502 H 0.69992 0.46304 0.26914
 C2503 C 0.69055 0.89559 0.81852
 C2504 C 0.68713 0.90312 0.80552
 C2505 C 0.69630 0.91577 0.80016
 N2506 N 0.69275 0.92291 0.78746
 N2507 N 0.70120 0.93412 0.78237
 C2508 C 0.71351 0.93859 0.78981
 N2509 N 0.71702 0.93148 0.80252
 N2510 N 0.70858 0.92029 0.80760
 C2511 C 0.72327 0.95062 0.78423
 C2512 C 0.72036 0.95852 0.77135
 H2513 H 0.67776 0.89953 0.79898
 H2514 H 0.73331 0.95318 0.79031
 H2515 H 0.69989 0.89935 0.82503
 H2516 H 0.71006 0.95670 0.76546
 C2517 C 0.19243 0.39206 0.80863
 C2518 C 0.20330 0.40100 0.81504
 C2519 C 0.21087 0.41287 0.80651
 N2520 N 0.21899 0.42361 0.81334
 N2521 N 0.22563 0.43449 0.80561
 C2522 C 0.22444 0.43496 0.79078
 N2523 N 0.21645 0.42416 0.78398
 N2524 N 0.20976 0.41335 0.79169
 C2525 C 0.23159 0.44679 0.78196
 C2526 C 0.23789 0.45964 0.78799
 H2527 H 0.20593 0.39964 0.82653
 H2528 H 0.23139 0.44564 0.77015
 H2529 H 0.18928 0.39416 0.79736
 H2530 H 0.23703 0.46158 0.79967
 C2531 C 0.19005 0.89381 0.31050
 C2532 C 0.20219 0.90227 0.31517
 C2533 C 0.20794 0.91478 0.30607
 N2534 N 0.21879 0.92400 0.31115
 N2535 N 0.22383 0.93538 0.30293
 C2536 C 0.21820 0.93792 0.28933
 N2537 N 0.20742 0.92868 0.28426
 N2538 N 0.20237 0.91736 0.29247
 C2539 C 0.22362 0.95022 0.27988
 C2540 C 0.23415 0.96073 0.28429
 H2541 H 0.20728 0.89995 0.32567
 H2542 H 0.21918 0.95100 0.26888
 H2543 H 0.18481 0.89661 0.30017
 H2544 H 0.23808 0.96076 0.29548
 C2545 C 0.39635 0.30999 0.68963
 C2546 C 0.40415 0.31624 0.70125
 C2547 C 0.41625 0.30776 0.70851
 N2548 N 0.42542 0.31464 0.71817
 N2549 N 0.43633 0.30693 0.72477
 C2550 C 0.43841 0.29204 0.72197
 N2551 N 0.42918 0.28517 0.71240
 N2552 N 0.41835 0.29288 0.70577
 C2553 C 0.45009 0.28316 0.72932
 C2554 C 0.46118 0.28960 0.73787
 H2555 H 0.40152 0.32751 0.70493
 H2556 H 0.45004 0.27106 0.72790
 H2557 H 0.39962 0.29900 0.68559
 H2558 H 0.46223 0.30172 0.73837
 C2559 C 0.39430 0.80860 0.18829
 C2560 C 0.40388 0.79774 0.18248
 C2561 C 0.41586 0.79104 0.19146
 N2562 N 0.42756 0.78381 0.18503
 N2563 N 0.43858 0.77804 0.19313
 C2564 C 0.43825 0.77923 0.20796
 N2565 N 0.42648 0.78631 0.21438
 N2566 N 0.41554 0.79217 0.20629
 C2567 C 0.45006 0.77265 0.21715
 C2568 C 0.46364 0.76755 0.21146
 H2569 H 0.40315 0.79478 0.17102
 H2570 H 0.44804 0.77176 0.22884
 H2571 H 0.39592 0.81234 0.19944
 H2572 H 0.46642 0.76968 0.20008
 C2573 C 0.89293 0.31630 0.19403
 C2574 C 0.90352 0.30577 0.18939
 C2575 C 0.91556 0.30045 0.19907
 N2576 N 0.92682 0.29181 0.19361
 N2577 N 0.93765 0.28672 0.20232
 C2578 C 0.93760 0.29003 0.21683
 N2579 N 0.92633 0.29863 0.22229
 N2580 N 0.91554 0.30379 0.21357
 C2581 C 0.94910 0.28395 0.22670
 C2582 C 0.96167 0.27631 0.22152
 H2583 H 0.90313 0.30146 0.17833
 H2584 H 0.94748 0.28518 0.23840
 H2585 H 0.89384 0.32117 0.20483
 H2586 H 0.96410 0.27615 0.20989
 C2587 C 0.89167 0.80445 0.69175
 C2588 C 0.90322 0.81129 0.69938
 C2589 C 0.91518 0.80223 0.70617
 N2590 N 0.92775 0.80890 0.71119
 N2591 N 0.93872 0.80067 0.71707
 C2592 C 0.93746 0.78546 0.71817
 N2593 N 0.92483 0.77883 0.71329
 N2594 N 0.91392 0.78704 0.70736
 C2595 C 0.94933 0.77610 0.72462
 C2596 C 0.96335 0.78170 0.72822
 H2597 H 0.90383 0.82344 0.69991
 H2598 H 0.94706 0.76426 0.72638
 H2599 H 0.89163 0.79232 0.69063
 H2600 H 0.96621 0.79318 0.72536
 C2601 C 0.60707 0.31230 0.30495
 C2602 C 0.59644 0.30254 0.31078
 C2603 C 0.58410 0.29671 0.30190
 N2604 N 0.57244 0.28965 0.30850
 N2605 N 0.56131 0.28412 0.30056
 C2606 C 0.56146 0.28538 0.28573
 N2607 N 0.57315 0.29237 0.27913
 N2608 N 0.58423 0.29800 0.28707
 C2609 C 0.54962 0.27870 0.27680
 C2610 C 0.53640 0.27334 0.28294
 H2611 H 0.59693 0.29937 0.32223
 H2612 H 0.55146 0.27766 0.26511
 H2613 H 0.60596 0.31627 0.29378
 H2614 H 0.53383 0.27556 0.29433
 C2615 C 0.60838 0.80694 0.80674
 C2616 C 0.59955 0.81357 0.79595
 C2617 C 0.58740 0.80505 0.78903
 N2618 N 0.57756 0.81203 0.77995
 N2619 N 0.56651 0.80432 0.77378
 C2620 C 0.56494 0.78934 0.77646
 N2621 N 0.57481 0.78238 0.78547
 N2622 N 0.58580 0.79008 0.79165
 C2623 C 0.55308 0.78047 0.76960
 C2624 C 0.54182 0.78689 0.76110
 H2625 H 0.60129 0.82519 0.79281
 H2626 H 0.55322 0.76839 0.77125
 H2627 H 0.60608 0.79550 0.81020
 H2628 H 0.54076 0.79903 0.76038
 C2629 C 0.10339 0.31409 0.80391
 C2630 C 0.09388 0.30286 0.80906
 C2631 C 0.08131 0.29735 0.80027
 N2632 N 0.07168 0.28716 0.80606
 N2633 N 0.06037 0.28193 0.79815
 C2634 C 0.05829 0.28668 0.78414
 N2635 N 0.06792 0.29687 0.77835
 N2636 N 0.07920 0.30213 0.78628
 C2637 C 0.04619 0.28064 0.77509
 C2638 C 0.03565 0.27064 0.78065
 H2639 H 0.09560 0.29801 0.81981
 H2640 H 0.04574 0.28383 0.76363
 H2641 H 0.10132 0.31921 0.79332
 H2642 H 0.03540 0.26799 0.79224
 C2643 C 0.10613 0.81211 0.30780
 C2644 C 0.09695 0.80084 0.31343
 C2645 C 0.08483 0.79421 0.30482
 N2646 N 0.07463 0.78519 0.31147
 N2647 N 0.06367 0.77898 0.30379
 C2648 C 0.06254 0.78151 0.28915
 N2649 N 0.07279 0.79046 0.28249
 N2650 N 0.08370 0.79674 0.29018
 C2651 C 0.05078 0.77438 0.28046
 C2652 C 0.03882 0.76684 0.28693
 H2653 H 0.09839 0.79700 0.32461
 H2654 H 0.05154 0.77501 0.26863
 H2655 H 0.10409 0.81659 0.29694
 H2656 H 0.03723 0.76728 0.29869
 C2657 C 0.60569 0.69042 0.67727
 C2658 C 0.59773 0.68654 0.68986
 C2659 C 0.58464 0.69550 0.69454
 N2660 N 0.57737 0.69221 0.70723
 N2661 N 0.56580 0.70060 0.71166
 C2662 C 0.56110 0.71257 0.70354
 N2663 N 0.56831 0.71579 0.69084
 N2664 N 0.57985 0.70742 0.68643
 C2665 C 0.54880 0.72239 0.70841
 C2666 C 0.54108 0.72011 0.72148
 H2667 H 0.60134 0.67714 0.69657
 H2668 H 0.54604 0.73214 0.70175
 H2669 H 0.60200 0.69994 0.67075
 H2670 H 0.54322 0.71023 0.72815
 C2671 C 0.60446 0.19459 0.18707
 C2672 C 0.59490 0.18792 0.19728
 C2673 C 0.58298 0.19651 0.20471
 N2674 N 0.57254 0.18922 0.21286
 N2675 N 0.56174 0.19688 0.21971
 C2676 C 0.56106 0.21213 0.21871
 N2677 N 0.57155 0.21942 0.21063
 N2678 N 0.58229 0.21176 0.20372
 C2679 C 0.54939 0.22082 0.22635
 C2680 C 0.53709 0.21407 0.23308
 H2681 H 0.59595 0.17603 0.19971
 H2682 H 0.55033 0.23297 0.22649
 H2683 H 0.60286 0.20630 0.18408
 H2684 H 0.53537 0.20207 0.23197
 C2685 C 0.10709 0.69793 0.18315
 C2686 C 0.09720 0.69151 0.19318
 C2687 C 0.08492 0.69999 0.20004
 N2688 N 0.07446 0.69253 0.20799
 N2689 N 0.06354 0.70001 0.21480
 C2690 C 0.06274 0.71525 0.21398
 N2691 N 0.07322 0.72274 0.20605
 N2692 N 0.08410 0.71524 0.19916
 C2693 C 0.05108 0.72361 0.22197
 C2694 C 0.03901 0.71630 0.22849
 H2695 H 0.09842 0.67976 0.19615
 H2696 H 0.05203 0.73572 0.22287
 H2697 H 0.10529 0.70934 0.17928
 H2698 H 0.03729 0.70442 0.22654
 C2699 C 0.10323 0.17658 0.69791
 C2700 C 0.09307 0.18758 0.69338
 C2701 C 0.08030 0.19231 0.70249
 N2702 N 0.07046 0.20264 0.69724
 N2703 N 0.05906 0.20740 0.70547
 C2704 C 0.05709 0.20200 0.71929
 N2705 N 0.06691 0.19163 0.72453
 N2706 N 0.07830 0.18685 0.71628
 C2707 C 0.04496 0.20770 0.72872
 C2708 C 0.03467 0.21834 0.72373
 H2709 H 0.09452 0.19304 0.68286
 H2710 H 0.04446 0.20397 0.74002
 H2711 H 0.10148 0.17076 0.70822
 H2712 H 0.03456 0.22161 0.71229
 C2713 C 0.39462 0.69617 0.31076
 C2714 C 0.40533 0.68875 0.30227
 C2715 C 0.41744 0.69682 0.29469
 N2716 N 0.42842 0.68897 0.28776
 N2717 N 0.43926 0.69613 0.28053
 C2718 C 0.43946 0.71140 0.27991
 N2719 N 0.42846 0.71924 0.28681
 N2720 N 0.41767 0.71209 0.29409
 C2721 C 0.45112 0.71950 0.27172
 C2722 C 0.46362 0.71228 0.26581
 H2723 H 0.40484 0.67665 0.30104
 H2724 H 0.44996 0.73158 0.27046
 H2725 H 0.39556 0.70817 0.31258
 H2726 H 0.46551 0.70043 0.26797
 C2727 C 0.39504 0.19508 0.82365
 C2728 C 0.40336 0.19162 0.81115
 C2729 C 0.41629 0.20069 0.80654
 N2730 N 0.42408 0.19693 0.79429
 N2731 N 0.43559 0.20525 0.78980
 C2732 C 0.43974 0.21763 0.79741
 N2733 N 0.43199 0.22136 0.80968
 N2734 N 0.42049 0.21304 0.81417
 C2735 C 0.45208 0.22724 0.79235
 C2736 C 0.46030 0.22407 0.77975
 H2737 H 0.40023 0.18219 0.80440
 H2738 H 0.45449 0.23738 0.79842
 H2739 H 0.39834 0.20443 0.83045
 H2740 H 0.45855 0.21366 0.77390
 C2741 C 0.89568 0.68310 0.80318
 C2742 C 0.90657 0.69243 0.80906
 C2743 C 0.91855 0.69905 0.80008
 N2744 N 0.93017 0.70604 0.80664
 N2745 N 0.94091 0.71245 0.79865
 C2746 C 0.94037 0.71218 0.78380
 N2747 N 0.92873 0.70525 0.77724
 N2748 N 0.91803 0.69875 0.78522
 C2749 C 0.95187 0.71961 0.77482
 C2750 C 0.96523 0.72478 0.78068
 H2751 H 0.90642 0.69492 0.82066
 H2752 H 0.94986 0.72094 0.76319
 H2753 H 0.89640 0.67977 0.79181
 H2754 H 0.96798 0.72236 0.79199
 C2755 C 0.89344 0.18175 0.30844
 C2756 C 0.90183 0.19426 0.31237
 C2757 C 0.91457 0.19956 0.30349
 N2758 N 0.92253 0.21167 0.30788
 N2759 N 0.93392 0.21675 0.29984
 C2760 C 0.93779 0.20990 0.28708
 N2761 N 0.92986 0.19778 0.28270
 N2762 N 0.91847 0.19269 0.29075
 C2763 C 0.95011 0.21561 0.27789
 C2764 C 0.95863 0.22798 0.28191
 H2765 H 0.89896 0.20047 0.32216
 H2766 H 0.95239 0.21015 0.26752
 H2767 H 0.89649 0.17546 0.29873
 H2768 H 0.95698 0.23310 0.29254
 C2769 C 0.31642 0.30462 0.60366
 C2770 C 0.30401 0.30929 0.59565
 C2771 C 0.29862 0.30067 0.58304
 N2772 N 0.28663 0.30566 0.57535
 N2773 N 0.28148 0.29779 0.56408
 C2774 C 0.28815 0.28465 0.56010
 N2775 N 0.30016 0.27968 0.56777
 N2776 N 0.30531 0.28755 0.57902
 C2777 C 0.28232 0.27556 0.54803
 C2778 C 0.26998 0.28006 0.53987
 H2779 H 0.29801 0.31942 0.59870
 H2780 H 0.28753 0.26477 0.54579
 H2781 H 0.32250 0.29460 0.60040
 H2782 H 0.26498 0.29105 0.54149
 C2783 C 0.30984 0.81775 0.10226
 C2784 C 0.31417 0.80541 0.09385
 C2785 C 0.30524 0.80055 0.08120
 N2786 N 0.30974 0.78863 0.07300
 N2787 N 0.30158 0.78405 0.06169
 C2788 C 0.28862 0.79125 0.05816
 N2789 N 0.28416 0.80316 0.06634
 N2790 N 0.29231 0.80774 0.07762
 C2791 C 0.27913 0.78610 0.04608
 C2792 C 0.28292 0.77390 0.03727
 H2793 H 0.32420 0.79915 0.09659
 H2794 H 0.26850 0.79174 0.04437
 H2795 H 0.29987 0.82401 0.09931
 H2796 H 0.29375 0.76852 0.03830
 C2797 C 0.81921 0.30469 0.10108
 C2798 C 0.80808 0.31012 0.09177
 C2799 C 0.80227 0.30135 0.07945
 N2800 N 0.79192 0.30759 0.07043
 N2801 N 0.78617 0.29970 0.05947
 C2802 C 0.79055 0.28525 0.05713
 N2803 N 0.80092 0.27901 0.06613
 N2804 N 0.80670 0.28691 0.07708
 C2805 C 0.78385 0.27621 0.04543
 C2806 C 0.77339 0.28218 0.03573
 H2807 H 0.80329 0.32117 0.09358
 H2808 H 0.78688 0.26442 0.04467
 H2809 H 0.82442 0.29389 0.09894
 H2810 H 0.77075 0.29409 0.03586
 C2811 C 0.81280 0.80526 0.60635
 C2812 C 0.80631 0.81247 0.59437
 C2813 C 0.79975 0.80394 0.58223
 N2814 N 0.79479 0.81125 0.57010
 N2815 N 0.78863 0.80365 0.55915
 C2816 C 0.78717 0.78846 0.55995
 N2817 N 0.79208 0.78116 0.57210
 N2818 N 0.79829 0.78875 0.58302
 C2819 C 0.77990 0.77994 0.54825
 C2820 C 0.77565 0.78654 0.53504
 H2821 H 0.80613 0.82464 0.59376
 H2822 H 0.77750 0.76815 0.55018
 H2823 H 0.81352 0.79308 0.60657
 H2824 H 0.77908 0.79792 0.53243
 C2825 C 0.30884 0.69406 0.39087
 C2826 C 0.30082 0.68672 0.40189
 C2827 C 0.29487 0.69503 0.41463
 N2828 N 0.28729 0.68769 0.42540
 N2829 N 0.28176 0.69520 0.43685
 C2830 C 0.28365 0.71033 0.43795
 N2831 N 0.29126 0.71763 0.42721
 N2832 N 0.29677 0.71013 0.41579
 C2833 C 0.27719 0.71901 0.45014
 C2834 C 0.26903 0.71246 0.46152
 H2835 H 0.29895 0.67472 0.40126
 H2836 H 0.27844 0.73114 0.44989
 H2837 H 0.31082 0.70604 0.39176
 H2838 H 0.26863 0.70032 0.46256
 C2839 C 0.30065 0.18368 0.89635
 C2840 C 0.30611 0.19347 0.90689
 C2841 C 0.29649 0.19961 0.91852
 N2842 N 0.30265 0.20697 0.92997
 N2843 N 0.29402 0.21286 0.94043
 C2844 C 0.27890 0.21169 0.93977
 N2845 N 0.27274 0.20440 0.92829
 N2846 N 0.28137 0.19842 0.91788
 C2847 C 0.26921 0.21862 0.95091
 C2848 C 0.27481 0.22421 0.96399
 H2849 H 0.31780 0.19660 0.90675
 H2850 H 0.25733 0.21946 0.94876
 H2851 H 0.28922 0.17979 0.89708
 H2852 H 0.28639 0.22224 0.96687
 C2853 C 0.82179 0.69303 0.89582
 C2854 C 0.80964 0.68885 0.90450
 C2855 C 0.80483 0.69771 0.91726
 N2856 N 0.79302 0.69307 0.92545
 N2857 N 0.78830 0.70115 0.93683
 C2858 C 0.79522 0.71418 0.94046
 N2859 N 0.80706 0.71879 0.93229
 N2860 N 0.81179 0.71070 0.92091
 C2861 C 0.78977 0.72349 0.95265
 C2862 C 0.77752 0.71930 0.96115
 H2863 H 0.80331 0.67889 0.90183
 H2864 H 0.79516 0.73416 0.95470
 H2865 H 0.82825 0.70285 0.89869
 H2866 H 0.77243 0.70838 0.95969
 C2867 C 0.80798 0.19515 0.39291
 C2868 C 0.81508 0.20559 0.40179
 C2869 C 0.80695 0.21300 0.41387
 N2870 N 0.81446 0.22084 0.42419
 N2871 N 0.80712 0.22739 0.43523
 C2872 C 0.79199 0.22638 0.43629
 N2873 N 0.78450 0.21865 0.42592
 N2874 N 0.79183 0.21205 0.41496
 C2875 C 0.78359 0.23370 0.44819
 C2876 C 0.79049 0.24014 0.46026
 H2877 H 0.82684 0.20796 0.40020
 H2878 H 0.77150 0.23395 0.44750
 H2879 H 0.79645 0.19224 0.39518
 H2880 H 0.80243 0.23878 0.46176
 C2881 C 0.68401 0.30599 0.39610
 C2882 C 0.69339 0.31319 0.40596
 C2883 C 0.70075 0.30529 0.41814
 N2884 N 0.70823 0.31331 0.42833
 N2885 N 0.71554 0.30637 0.43911
 C2886 C 0.71572 0.29111 0.44005
 N2887 N 0.70825 0.28307 0.42985
 N2888 N 0.70086 0.29002 0.41911
 C2889 C 0.72437 0.28331 0.45147
 C2890 C 0.73086 0.29099 0.46306
 H2891 H 0.69554 0.32511 0.40472
 H2892 H 0.72588 0.27123 0.45065
 H2893 H 0.68096 0.29435 0.39786
 H2894 H 0.72839 0.30282 0.46467
 C2895 C 0.68579 0.80300 0.89480
 C2896 C 0.69573 0.80903 0.90485
 C2897 C 0.70191 0.79988 0.91687
 N2898 N 0.71010 0.80645 0.92752
 N2899 N 0.71592 0.79821 0.93833
 C2900 C 0.71379 0.78308 0.93885
 N2901 N 0.70565 0.77651 0.92818
 N2902 N 0.69978 0.78476 0.91741
 C2903 C 0.72059 0.77372 0.95036
 C2904 C 0.72791 0.77989 0.96231
 H2905 H 0.69895 0.82073 0.90401
 H2906 H 0.72007 0.76160 0.94929
 H2907 H 0.68207 0.79149 0.89613
 H2908 H 0.72740 0.79191 0.96419
 C2909 C 0.18204 0.30590 0.89299
 C2910 C 0.19249 0.31166 0.90271
 C2911 C 0.19854 0.30250 0.91482
 N2912 N 0.20634 0.30911 0.92574
 N2913 N 0.21198 0.30088 0.93667
 C2914 C 0.21010 0.28571 0.93701
 N2915 N 0.20240 0.27911 0.92604
 N2916 N 0.19668 0.28734 0.91518
 C2917 C 0.21654 0.27636 0.94875
 C2918 C 0.22220 0.28241 0.96162
 H2919 H 0.19613 0.32322 0.90161
 H2920 H 0.21667 0.26426 0.94734
 H2921 H 0.17772 0.29466 0.89473
 H2922 H 0.22092 0.29433 0.96377
 C2923 C 0.18295 0.80829 0.39776
 C2924 C 0.19549 0.81206 0.40594
 C2925 C 0.20006 0.80283 0.41866
 N2926 N 0.21238 0.80644 0.42650
 N2927 N 0.21668 0.79790 0.43780
 C2928 C 0.20880 0.78545 0.44169
 N2929 N 0.19647 0.78189 0.43389
 N2930 N 0.19218 0.79041 0.42262
 C2931 C 0.21357 0.77550 0.45374
 C2932 C 0.22617 0.77824 0.46218
 H2933 H 0.20216 0.82171 0.40287
 H2934 H 0.20726 0.76531 0.45574
 H2935 H 0.17639 0.79860 0.40101
 H2936 H 0.23230 0.78864 0.46087
 C2937 C 0.69762 0.69006 0.60193
 C2938 C 0.69095 0.70064 0.59270
 C2939 C 0.69924 0.70811 0.58083
 N2940 N 0.69179 0.71657 0.57080
 N2941 N 0.69917 0.72358 0.56009
 C2942 C 0.71429 0.72246 0.55908
 N2943 N 0.72174 0.71407 0.56915
 N2944 N 0.71435 0.70699 0.57982
 C2945 C 0.72265 0.73032 0.54751
 C2946 C 0.71566 0.73724 0.53564
 H2947 H 0.67921 0.70339 0.59402
 H2948 H 0.73474 0.73045 0.54818
 H2949 H 0.70910 0.68662 0.60005
 H2950 H 0.70370 0.73612 0.53417
 C2951 C 0.69045 0.18784 0.10320
 C2952 C 0.68528 0.19955 0.09437
 C2953 C 0.69390 0.20459 0.08149
 N2954 N 0.68857 0.21577 0.07274
 N2955 N 0.69649 0.22052 0.06122
 C2956 C 0.71001 0.21425 0.05804
 N2957 N 0.71530 0.20307 0.06676
 N2958 N 0.70739 0.19832 0.07825
 C2959 C 0.71925 0.21969 0.04581
 C2960 C 0.71461 0.23111 0.03638
 H2961 H 0.67481 0.20515 0.09691
 H2962 H 0.73037 0.21497 0.04449
 H2963 H 0.70081 0.18215 0.10037
 H2964 H 0.70333 0.23557 0.03699
 C2965 C 0.19776 0.68461 0.10534
 C2966 C 0.19194 0.69477 0.09516
 C2967 C 0.20085 0.70054 0.08280
 N2968 N 0.19432 0.70955 0.07260
 N2969 N 0.20233 0.71527 0.06159
 C2970 C 0.21718 0.71223 0.06039
 N2971 N 0.22371 0.70321 0.07057
 N2972 N 0.21569 0.69745 0.08156
 C2973 C 0.22629 0.71902 0.04869
 C2974 C 0.21999 0.72771 0.03756
 H2975 H 0.18053 0.69873 0.09627
 H2976 H 0.23832 0.71750 0.04902
 H2977 H 0.20895 0.68015 0.10384
 H2978 H 0.20794 0.72828 0.03645
 C2979 C 0.17965 0.19616 0.60798
 C2980 C 0.19010 0.19091 0.59783
 C2981 C 0.19528 0.20011 0.58542
 N2982 N 0.20392 0.19377 0.57485
 N2983 N 0.20913 0.20203 0.56376
 C2984 C 0.20594 0.21697 0.56286
 N2985 N 0.19731 0.22333 0.57344
 N2986 N 0.19203 0.21504 0.58449
 C2987 C 0.21230 0.22634 0.55111
 C2988 C 0.22006 0.22009 0.53934
 H2989 H 0.19459 0.17962 0.59890
 H2990 H 0.21132 0.23847 0.55195
 H2991 H 0.17443 0.20707 0.60640
 H2992 H 0.21999 0.20802 0.53771
   
