data_POSCAR
  _audit_creation_date              2014-09-24
  _audit_creation_method            'ToBaCCo'
  _symmetry_space_group_name_H-M    'P1'
  _symmetry_Int_Tables_number       1
  _symmetry_cell_setting            triclinic
  loop_
  _symmetry_equiv_pos_as_xyz
 x,y,z
_cell_length_a 46.6213
_cell_length_b 46.6690
_cell_length_c 40.7606
_cell_angle_alpha 89.089200
_cell_angle_beta 90.690000
_cell_angle_gamma 89.703000
loop_
  _atom_site_label
  _atom_site_type_symbol
  _atom_site_fract_x
  _atom_site_fract_y
  _atom_site_fract_z
C1 C 0.37334 0.02233 0.29817
 C2 C 0.35312 0.04534 0.28426
 C3 C 0.33754 0.03688 0.25780
 C4 C 0.34343 0.00583 0.24746
 C5 C 0.35434 -0.00362 0.30507
 C6 C 0.33877 -0.01252 0.27872
 C7 C 0.39165 0.01333 0.26900
 C8 C 0.37614 0.00458 0.24246
 H9 H 0.35228 0.06696 0.29352
 H10 H 0.33056 -0.00092 0.22585
 H11 H 0.35471 -0.01500 0.32845
 H12 H 0.41487 0.01379 0.26934
 C13 C 0.11769 -0.01414 0.77543
 C14 C 0.13580 -0.03824 0.76140
 C15 C 0.15217 -0.02988 0.73568
 C16 C 0.14877 0.00190 0.72595
 C17 C 0.13925 0.00938 0.78368
 C18 C 0.15564 0.01782 0.75790
 C19 C 0.10098 -0.00263 0.74792
 C20 C 0.11797 0.00633 0.72060
 H21 H 0.13720 -0.05951 0.77242
 H22 H 0.16241 0.00837 0.70497
 H23 H 0.14074 0.01898 0.80768
 H24 H 0.07781 -0.00090 0.74793
 C25 C 0.62050 0.48437 0.27781
 C26 C 0.63817 0.46024 0.26335
 C27 C 0.65456 0.46860 0.23770
 C28 C 0.65176 0.50044 0.22838
 C29 C 0.64224 0.50765 0.28612
 C30 C 0.65865 0.51610 0.26040
 C31 C 0.60303 0.49697 0.24886
 C32 C 0.61934 0.50552 0.22297
 H33 H 0.63910 0.43877 0.27388
 H34 H 0.66525 0.50697 0.20730
 H35 H 0.64372 0.51723 0.31012
 H36 H 0.57988 0.49895 0.24886
 C37 C 0.87321 0.52297 0.79796
 C38 C 0.85278 0.54584 0.78415
 C39 C 0.83733 0.53734 0.75761
 C40 C 0.84352 0.50640 0.74711
 C41 C 0.85446 0.49681 0.80470
 C42 C 0.83899 0.48788 0.77827
 C43 C 0.89163 0.51427 0.76876
 C44 C 0.87625 0.50549 0.74215
 H45 H 0.85174 0.56742 0.79351
 H46 H 0.83075 0.49962 0.72544
 H47 H 0.85485 0.48538 0.82804
 H48 H 0.91484 0.51495 0.76913
 C49 C 0.28186 0.42468 0.99599
 C50 C 0.27277 0.40618 1.02560
 C51 C 0.25176 0.38695 1.01851
 C52 C 0.24196 0.38782 0.98245
 C53 C 0.29011 0.40340 0.96968
 C54 C 0.26953 0.38403 0.96252
 C55 C 0.25393 0.43859 0.98346
 C56 C 0.23270 0.41938 0.97698
 H57 H 0.28082 0.40934 1.05031
 H58 H 0.22497 0.37206 0.97653
 H59 H 0.31094 0.40344 0.95815
 H60 H 0.25017 0.46148 0.98438
 C61 C 0.77054 0.06227 0.98597
 C62 C 0.76198 0.08168 0.95655
 C63 C 0.74135 0.10131 0.96367
 C64 C 0.73095 0.09944 0.99922
 C65 C 0.77888 0.08294 1.01321
 C66 C 0.75834 0.10241 1.02025
 C67 C 0.74406 0.04917 0.99662
 C68 C 0.72193 0.06959 1.00345
 H69 H 0.77159 0.08034 0.93256
 H70 H 0.71426 0.11566 1.00482
 H71 H 0.79965 0.08241 1.02547
 H72 H 0.74055 0.02624 0.99632
 C73 C 0.27341 0.56437 0.48947
 C74 C 0.26470 0.58341 0.45986
 C75 C 0.24414 0.60313 0.46672
 C76 C 0.23390 0.60190 0.50228
 C77 C 0.28169 0.58523 0.51647
 C78 C 0.26125 0.60484 0.52322
 C79 C 0.24537 0.55083 0.50087
 C80 C 0.22446 0.57048 0.50722
 H81 H 0.27409 0.58164 0.43580
 H82 H 0.21708 0.61801 0.50771
 H83 H 0.30240 0.58469 0.52886
 H84 H 0.24169 0.52793 0.50088
 C85 C 0.78187 0.92522 0.49432
 C86 C 0.77307 0.90671 0.52404
 C87 C 0.75214 0.88734 0.51715
 C88 C 0.74213 0.88808 0.48115
 C89 C 0.79011 0.90395 0.46801
 C90 C 0.76962 0.88445 0.46102
 C91 C 0.75381 0.93893 0.48196
 C92 C 0.73265 0.91959 0.47569
 H93 H 0.78121 0.90998 0.54868
 H94 H 0.72521 0.87221 0.47538
 H95 H 0.81088 0.90410 0.45635
 H96 H 0.74992 0.96181 0.48290
 C97 C -0.01593 0.29128 0.39104
 C98 C 0.01112 0.29280 0.37019
 C99 C 0.01501 0.26993 0.35012
 C100 C -0.00924 0.24736 0.35290
 C101 C -0.03909 0.28755 0.36752
 C102 C -0.03594 0.26345 0.34667
 C103 C -0.01330 0.26259 0.40964
 C104 C -0.00938 0.23949 0.39000
 H105 H 0.02613 0.31037 0.37182
 H106 H -0.00630 0.22871 0.33667
 H107 H -0.05786 0.30132 0.36642
 H108 H -0.01295 0.26107 0.43619
 C109 C 0.01725 0.77042 0.10614
 C110 C -0.00954 0.77337 0.12702
 C111 C -0.01426 0.75100 0.14813
 C112 C 0.00892 0.72730 0.14650
 C113 C 0.04162 0.76554 0.13108
 C114 C 0.03745 0.74319 0.15213
 C115 C 0.01379 0.74169 0.08900
 C116 C 0.00932 0.71900 0.10988
 H117 H -0.02385 0.79168 0.12467
 H118 H 0.00558 0.70907 0.16384
 H119 H 0.06081 0.77850 0.13203
 H120 H 0.01455 0.73968 0.06259
 C121 C 0.51706 0.26990 0.60794
 C122 C 0.49038 0.27309 0.62896
 C123 C 0.48543 0.25066 0.64992
 C124 C 0.50831 0.22668 0.64803
 C125 C 0.54147 0.26455 0.63271
 C126 C 0.53708 0.24216 0.65361
 C127 C 0.51316 0.24131 0.59060
 C128 C 0.50850 0.21856 0.61134
 H129 H 0.47627 0.29156 0.62675
 H130 H 0.50481 0.20840 0.66525
 H131 H 0.56094 0.27711 0.63349
 H132 H 0.51392 0.23941 0.56418
 C133 C 0.48581 0.78809 0.89391
 C134 C 0.51289 0.79062 0.87310
 C135 C 0.51782 0.76777 0.85335
 C136 C 0.49473 0.74420 0.85644
 C137 C 0.46170 0.78306 0.86871
 C138 C 0.46611 0.76012 0.84917
 C139 C 0.48896 0.76113 0.91181
 C140 C 0.49429 0.73692 0.89156
 H141 H 0.52702 0.80894 0.87431
 H142 H 0.49833 0.72571 0.84014
 H143 H 0.44260 0.79631 0.86659
 H144 H 0.48849 0.75970 0.93837
 C145 C -0.22726 0.62407 0.95316
 C146 C -0.20442 0.60362 0.96701
 C147 C -0.21312 0.58792 0.99338
 C148 C -0.24421 0.59394 1.00369
 C149 C -0.25332 0.60532 0.94611
 C150 C -0.26246 0.58963 0.97236
 C151 C -0.23628 0.64221 0.98242
 C152 C -0.24525 0.62658 1.00886
 H153 H -0.18273 0.60272 0.95781
 H154 H -0.25116 0.58097 1.02521
 H155 H -0.26457 0.60590 0.92270
 H156 H -0.23560 0.66540 0.98222
 C157 C -0.26183 0.36748 0.47111
 C158 C -0.28641 0.38532 0.48459
 C159 C -0.27869 0.40173 0.51041
 C160 C -0.24704 0.39867 0.52076
 C161 C -0.23837 0.38928 0.46322
 C162 C -0.23059 0.40573 0.48911
 C163 C -0.25062 0.35089 0.49892
 C164 C -0.24235 0.36795 0.52632
 H165 H -0.30755 0.38643 0.47326
 H166 H -0.24111 0.41236 0.54179
 H167 H -0.22836 0.39091 0.43941
 H168 H -0.24864 0.32776 0.49905
 C169 C 0.23523 -0.13101 -0.02752
 C170 C 0.21093 -0.11300 -0.01374
 C171 C 0.21899 -0.09674 0.01207
 C172 C 0.25068 -0.10013 0.02213
 C173 C 0.25885 -0.10942 -0.03552
 C174 C 0.26698 -0.09314 -0.00963
 C175 C 0.24647 -0.14779 0.00011
 C176 C 0.25511 -0.13091 0.02751
 H177 H 0.18973 -0.11165 -0.02490
 H178 H 0.25689 -0.08656 0.04318
 H179 H 0.26876 -0.10786 -0.05939
 H180 H 0.24828 -0.17094 0.00009
 C181 C 0.27367 1.12416 0.45339
 C182 C 0.29615 1.10332 0.46725
 C183 C 0.28720 1.08786 0.49369
 C184 C 0.25622 1.09446 0.50401
 C185 C 0.24728 1.10586 0.44642
 C186 C 0.23788 1.09038 0.47271
 C187 C 0.26500 1.14252 0.48259
 C188 C 0.25574 1.12713 0.50908
 H189 H 0.31781 1.10198 0.45800
 H190 H 0.24906 1.08166 0.52558
 H191 H 0.23605 1.10652 0.42299
 H192 H 0.26599 1.16569 0.48228
 C193 C 0.17527 0.53193 0.25400
 C194 C 0.15657 0.52305 0.22458
 C195 C 0.13719 0.50219 0.23188
 C196 C 0.13811 0.49232 0.26796
 C197 C 0.15414 0.54027 0.28049
 C198 C 0.13463 0.51986 0.28789
 C199 C 0.18902 0.50391 0.26646
 C200 C 0.16965 0.48282 0.27316
 H201 H 0.15974 0.53107 0.19982
 H202 H 0.12223 0.47547 0.27407
 H203 H 0.15439 0.56105 0.29199
 H204 H 0.21190 0.49999 0.26536
 C205 C -0.18701 1.02011 0.26167
 C206 C -0.16741 1.01170 0.29094
 C207 C -0.14788 0.99099 0.28384
 C208 C -0.15001 0.98034 0.24847
 C209 C -0.16648 1.02817 0.23404
 C210 C -0.14712 1.00754 0.22701
 C211 C -0.20029 0.99362 0.25156
 C212 C -0.17995 0.97140 0.24477
 H213 H -0.16861 1.02142 0.31484
 H214 H -0.13385 0.96360 0.24290
 H215 H -0.16704 1.04883 0.22149
 H216 H -0.22324 0.99019 0.25224
 C217 C 0.31450 0.52279 -0.23791
 C218 C 0.33360 0.51403 -0.20842
 C219 C 0.35301 0.49317 -0.21522
 C220 C 0.35142 0.48269 -0.25062
 C221 C 0.33533 0.53057 -0.26527
 C222 C 0.35463 0.50982 -0.27198
 C223 C 0.30047 0.49488 -0.24876
 C224 C 0.31982 0.47366 -0.25506
 H225 H 0.33211 0.52362 -0.18447
 H226 H 0.36730 0.46563 -0.25599
 H227 H 0.33502 0.55119 -0.27791
 H228 H 0.27750 0.49154 -0.24851
 C229 C 0.67494 0.03248 -0.24477
 C230 C 0.65631 0.02356 -0.27425
 C231 C 0.63703 0.00259 -0.26701
 C232 C 0.63799 -0.00735 -0.23096
 C233 C 0.65374 0.04066 -0.21829
 C234 C 0.63433 0.02013 -0.21097
 C235 C 0.68883 0.00452 -0.23237
 C236 C 0.66958 -0.01668 -0.22575
 H237 H 0.65943 0.03167 -0.29898
 H238 H 0.62219 -0.02431 -0.22490
 H239 H 0.65387 0.06143 -0.20674
 H240 H 0.71173 0.00071 -0.23349
 C241 C 0.03735 0.23565 0.85739
 C242 C 0.03985 0.26254 0.87834
 C243 C 0.01682 0.26746 0.89796
 C244 C -0.00685 0.24451 0.89461
 C245 C 0.03202 0.21142 0.88243
 C246 C 0.00889 0.21579 0.90183
 C247 C 0.01054 0.23904 0.83933
 C248 C -0.01384 0.24434 0.85944
 H249 H 0.05825 0.27659 0.87728
 H250 H -0.02549 0.24808 0.91079
 H251 H 0.04514 0.19223 0.88448
 H252 H 0.00932 0.23873 0.81277
 C253 C 0.52086 0.26655 0.14393
 C254 C 0.52372 0.23994 0.12289
 C255 C 0.50127 0.23537 0.10193
 C256 C 0.47759 0.25857 0.10382
 C257 C 0.51594 0.29108 0.11915
 C258 C 0.49352 0.28711 0.09823
 C259 C 0.49210 0.26300 0.16126
 C260 C 0.46933 0.25874 0.14050
 H261 H 0.54200 0.22558 0.12510
 H262 H 0.45931 0.25538 0.08657
 H263 H 0.52886 0.31030 0.11830
 H264 H 0.49013 0.26364 0.18768
 C265 C 0.02123 0.76851 0.64233
 C266 C 0.02413 0.74182 0.62142
 C267 C 0.00165 0.73712 0.60055
 C268 C -0.02211 0.76024 0.60243
 C269 C 0.01617 0.79293 0.61744
 C270 C -0.00628 0.78879 0.59663
 C271 C -0.00745 0.76493 0.65978
 C272 C -0.03025 0.76050 0.63914
 H273 H 0.04248 0.72754 0.62360
 H274 H -0.04043 0.75692 0.58527
 H275 H 0.02910 0.81214 0.61637
 H276 H -0.00934 0.76562 0.68621
 C277 C 0.53892 0.73512 0.35926
 C278 C 0.54114 0.76211 0.37995
 C279 C 0.51809 0.76700 0.39948
 C280 C 0.49457 0.74395 0.39644
 C281 C 0.53347 0.71096 0.38426
 C282 C 0.51035 0.71532 0.40361
 C283 C 0.51062 0.73861 0.34019
 C284 C 0.48737 0.74357 0.35931
 H285 H 0.55944 0.77628 0.37879
 H286 H 0.47576 0.74754 0.41235
 H287 H 0.54662 0.69180 0.38640
 H288 H 0.50945 0.73836 0.31364
 B289 B -0.01419 0.01045 1.04337
 B290 B -0.03079 0.00467 1.00743
 B291 B -0.00643 0.03092 1.01050
 B292 B 0.02012 0.01962 1.03631
 B293 B 0.01172 -0.01444 1.04882
 B294 B -0.02019 -0.02340 1.03109
 B295 B 0.01831 -0.01468 0.98250
 B296 B 0.03511 -0.00880 1.01845
 B297 B 0.01064 -0.03495 1.01515
 B298 B -0.01592 -0.02367 0.98965
 B299 B -0.00739 0.01025 0.97694
 B300 B 0.02458 0.01920 0.99467
 B301 B 0.48843 0.51011 0.54529
 B302 B 0.47155 0.50436 0.50951
 B303 B 0.49605 0.53049 0.51232
 B304 B 0.52274 0.51910 0.53790
 B305 B 0.51424 0.48510 0.55057
 B306 B 0.48216 0.47627 0.53312
 B307 B 0.52036 0.48474 0.48417
 B308 B 0.53744 0.49057 0.51996
 B309 B 0.51281 0.46455 0.51694
 B310 B 0.48614 0.47592 0.49164
 B311 B 0.49475 0.50978 0.47880
 B312 B 0.52688 0.51859 0.49622
 B313 B 0.51653 0.96681 0.55050
 B314 B 0.53138 0.97718 0.51486
 B315 B 0.50466 0.95313 0.51486
 B316 B 0.48094 0.96197 0.54422
 B317 B 0.49345 0.99243 0.56219
 B318 B 0.52512 1.00154 0.54405
 B319 B 0.48290 1.00481 0.49756
 B320 B 0.46784 0.99442 0.53289
 B321 B 0.49464 1.01834 0.53290
 B322 B 0.51831 1.00951 0.50375
 B323 B 0.50570 0.97922 0.48565
 B324 B 0.47416 0.97004 0.50370
 B325 B 0.01642 0.46685 1.04976
 B326 B 0.03123 0.47721 1.01410
 B327 B 0.00439 0.45328 1.01412
 B328 B -0.01921 0.46218 1.04359
 B329 B -0.00650 0.49256 1.06158
 B330 B 0.02515 0.50155 1.04335
 B331 B -0.01717 0.50508 0.99702
 B332 B -0.03218 0.49470 1.03238
 B333 B -0.00527 0.51850 1.03234
 B334 B 0.01828 0.50960 1.00309
 B335 B 0.00548 0.47941 0.98497
 B336 B -0.02606 0.47034 1.00311
 B337 B 0.00043 0.52583 0.46974
 B338 B 0.01845 0.52006 0.50513
 B339 B -0.00783 0.54501 0.50300
 B340 B -0.03422 0.53300 0.47817
 B341 B -0.02398 0.49980 0.46543
 B342 B 0.00896 0.49212 0.48197
 B343 B -0.02870 0.49733 0.53209
 B344 B -0.04681 0.50333 0.49663
 B345 B -0.02063 0.47835 0.49895
 B346 B 0.00589 0.49034 0.52359
 B347 B -0.00433 0.52346 0.53653
 B348 B -0.03739 0.53116 0.52001
 B349 B 0.49955 0.02438 -0.02970
 B350 B 0.51773 0.01815 0.00546
 B351 B 0.49152 0.04321 0.00388
 B352 B 0.46497 0.03157 -0.02098
 B353 B 0.47503 -0.00152 -0.03429
 B354 B 0.50800 -0.00951 -0.01804
 B355 B 0.47062 -0.00471 0.03240
 B356 B 0.45237 0.00174 -0.00287
 B357 B 0.47844 -0.02335 -0.00109
 B358 B 0.50515 -0.01172 0.02359
 B359 B 0.49511 0.02128 0.03707
 B360 B 0.46201 0.02927 0.02085
 B361 B 0.49091 0.49212 -0.04095
 B362 B 0.47455 0.50267 -0.00667
 B363 B 0.49909 0.47614 -0.00516
 B364 B 0.52543 0.48390 -0.03204
 B365 B 0.51653 0.51593 -0.05035
 B366 B 0.48469 0.52726 -0.03471
 B367 B 0.52389 0.52476 0.01539
 B368 B 0.54029 0.51450 -0.01897
 B369 B 0.51558 0.54079 -0.02061
 B370 B 0.48944 0.53300 0.00633
 B371 B 0.49830 0.50081 0.02463
 B372 B 0.53016 0.48955 0.00898
 B373 B -0.00892 0.99343 0.45709
 B374 B -0.02561 1.00372 0.49126
 B375 B -0.00094 0.97734 0.49286
 B376 B 0.02557 0.98537 0.46630
 B377 B 0.01663 1.01743 0.44810
 B378 B -0.01540 1.02850 0.46348
 B379 B 0.02342 1.02598 0.51399
 B380 B 0.04015 1.01599 0.47973
 B381 B 0.01529 1.04214 0.47798
 B382 B -0.01101 1.03406 0.50461
 B383 B -0.00211 1.00184 0.52279
 B384 B 0.02994 0.99084 0.50741
 B385 B 0.76202 0.23579 0.20259
 B386 B 0.75690 0.21907 0.23870
 B387 B 0.78286 0.24370 0.23501
 B388 B 0.77088 0.27016 0.20940
 B389 B 0.73674 0.26141 0.19762
 B390 B 0.72838 0.22939 0.21561
 B391 B 0.73729 0.26785 0.26395
 B392 B 0.74251 0.28476 0.22783
 B393 B 0.71665 0.26002 0.23174
 B394 B 0.72858 0.23357 0.25706
 B395 B 0.76261 0.24244 0.26902
 B396 B 0.77093 0.27451 0.25104
 B397 B 0.71762 0.76749 0.70106
 B398 B 0.72796 0.78236 0.73658
 B399 B 0.70401 0.75556 0.73683
 B400 B 0.71293 0.73192 0.70750
 B401 B 0.74335 0.74456 0.68931
 B402 B 0.75235 0.77622 0.70728
 B403 B 0.75584 0.73403 0.75390
 B404 B 0.74547 0.71897 0.71869
 B405 B 0.76931 0.74584 0.71845
 B406 B 0.76039 0.76944 0.74756
 B407 B 0.73015 0.75670 0.76588
 B408 B 0.72107 0.72516 0.74800
 B409 B 0.27382 0.24957 0.78161
 B410 B 0.26793 0.26803 0.74650
 B411 B 0.29301 0.24185 0.74814
 B412 B 0.28111 0.21510 0.77270
 B413 B 0.24787 0.22502 0.78578
 B414 B 0.24001 0.25811 0.76970
 B415 B 0.24533 0.22120 0.71904
 B416 B 0.25145 0.20266 0.75422
 B417 B 0.22634 0.22871 0.75243
 B418 B 0.23821 0.25560 0.72804
 B419 B 0.27139 0.24572 0.71478
 B420 B 0.27924 0.21251 0.73082
 B421 B 0.24201 0.74087 0.29141
 B422 B 0.25234 0.72464 0.25698
 B423 B 0.22567 0.74904 0.25587
 B424 B 0.23356 0.77534 0.28256
 B425 B 0.26580 0.76656 0.30036
 B426 B 0.27715 0.73483 0.28461
 B427 B 0.27403 0.77407 0.23445
 B428 B 0.26399 0.79036 0.26895
 B429 B 0.29042 0.76578 0.27023
 B430 B 0.28249 0.73968 0.24347
 B431 B 0.25008 0.74842 0.22568
 B432 B 0.23882 0.78017 0.24143
 B433 B 0.26227 0.73833 0.70501
 B434 B 0.25619 0.72156 0.74087
 B435 B 0.28230 0.74612 0.73810
 B436 B 0.27108 0.77266 0.71218
 B437 B 0.23720 0.76403 0.69928
 B438 B 0.22829 0.73201 0.71691
 B439 B 0.23612 0.77035 0.76560
 B440 B 0.24228 0.78732 0.72972
 B441 B 0.21627 0.76264 0.73273
 B442 B 0.22749 0.73611 0.75834
 B443 B 0.26123 0.74486 0.77142
 B444 B 0.27012 0.77694 0.75381
 B445 B 0.21646 0.26646 0.20125
 B446 B 0.22676 0.28128 0.23680
 B447 B 0.20289 0.25439 0.23697
 B448 B 0.21190 0.23085 0.20757
 B449 B 0.24229 0.24365 0.18941
 B450 B 0.25116 0.27529 0.20747
 B451 B 0.25483 0.23303 0.25396
 B452 B 0.24451 0.21800 0.21872
 B453 B 0.26825 0.24497 0.21854
 B454 B 0.25923 0.26845 0.24772
 B455 B 0.22904 0.25556 0.26603
 B456 B 0.22008 0.22402 0.24806
 B457 B 0.77480 0.74913 0.28109
 B458 B 0.76847 0.76730 0.24590
 B459 B 0.79369 0.74125 0.24745
 B460 B 0.78219 0.71463 0.27242
 B461 B 0.74902 0.72447 0.28585
 B462 B 0.74084 0.75740 0.26955
 B463 B 0.74585 0.72016 0.21918
 B464 B 0.75241 0.70190 0.25447
 B465 B 0.72716 0.72781 0.25273
 B466 B 0.73864 0.75460 0.22794
 B467 B 0.77173 0.74477 0.21434
 B468 B 0.77991 0.71172 0.23060
 B469 B 0.74219 0.24125 0.79082
 B470 B 0.75298 0.22489 0.75669
 B471 B 0.72628 0.24923 0.75497
 B472 B 0.73376 0.27566 0.78164
 B473 B 0.76581 0.26702 0.80002
 B474 B 0.77742 0.23524 0.78464
 B475 B 0.77485 0.27426 0.73421
 B476 B 0.76435 0.29067 0.76845
 B477 B 0.79081 0.26615 0.77030
 B478 B 0.78328 0.23991 0.74357
 B479 B 0.75107 0.24851 0.72520
 B480 B 0.73953 0.28033 0.74058
 C481 C 0.42000 1.04056 0.38436
 N482 N 0.43373 1.03755 0.35545
 N483 N 0.41898 1.03311 0.32786
 C484 C 0.38992 1.03145 0.32812
 N485 N 0.37613 1.03559 0.35684
 N486 N 0.39090 1.03987 0.38449
 C487 C 0.43636 1.03883 0.41525
 N488 N 0.42270 1.03342 0.44387
 N489 N 0.43746 1.02517 0.47058
 C490 C 0.46640 1.02215 0.46971
 N491 N 0.48014 1.02881 0.44145
 N492 N 0.46540 1.03696 0.41471
 C493 C -0.08025 0.54129 0.88418
 N494 N -0.06652 0.53856 0.85524
 N495 N -0.08125 0.53410 0.82765
 C496 C -0.11029 0.53213 0.82794
 N497 N -0.12410 0.53600 0.85670
 N498 N -0.10935 0.54031 0.88435
 C499 C -0.06385 0.53949 0.91504
 N500 N -0.07747 0.53386 0.94364
 N501 N -0.06265 0.52549 0.97025
 C502 C -0.03371 0.52255 0.96932
 N503 N -0.02002 0.52941 0.94109
 N504 N -0.03481 0.53770 0.91444
 C505 C 0.07313 -0.03552 0.86143
 N506 N 0.10206 -0.03816 0.86024
 N507 N 0.11584 -0.03246 0.83253
 C508 C 0.10126 -0.02359 0.80512
 N509 N 0.07223 -0.02170 0.80611
 N510 N 0.05843 -0.02753 0.83379
 C511 C 0.05856 -0.03641 0.89294
 N512 N 0.02992 -0.03152 0.89399
 N513 N 0.01728 -0.02664 0.92241
 C514 C 0.03277 -0.02632 0.95080
 N515 N 0.06123 -0.03230 0.94992
 N516 N 0.07393 -0.03724 0.92145
 C517 C 0.57517 0.46326 0.36324
 N518 N 0.60406 0.46003 0.36226
 N519 N 0.61813 0.46563 0.33471
 C520 C 0.60388 0.47497 0.30728
 N521 N 0.57489 0.47746 0.30804
 N522 N 0.56081 0.47174 0.33556
 C523 C 0.56038 0.46253 0.39461
 N524 N 0.53194 0.46849 0.39549
 N525 N 0.51929 0.47356 0.42387
 C526 C 0.53460 0.47296 0.45240
 N527 N 0.56281 0.46587 0.45169
 N528 N 0.57552 0.46078 0.42325
 C529 C 0.58223 0.53806 0.13593
 N530 N 0.56630 0.53454 0.16332
 N531 N 0.57831 0.52492 0.19119
 C532 C 0.60669 0.51828 0.19275
 N533 N 0.62280 0.52245 0.16557
 N534 N 0.61075 0.53200 0.13762
 C535 C 0.56790 0.54322 0.10409
 N536 N 0.58277 0.54065 0.07588
 N537 N 0.56900 0.53828 0.04725
 C538 C 0.53991 0.53850 0.04563
 N539 N 0.52515 0.54275 0.07366
 N540 N 0.53886 0.54511 0.10233
 C541 C 0.08085 1.03812 0.63527
 N542 N 0.10970 1.03413 0.63743
 N543 N 0.12192 1.02455 0.66529
 C544 C 0.10569 1.01815 0.69188
 N545 N 0.07692 1.02269 0.68977
 N546 N 0.06475 1.03241 0.66205
 C547 C 0.06666 1.04360 0.60340
 N548 N 0.03761 1.04500 0.60145
 N549 N 0.02410 1.04300 0.57262
 C550 C 0.03909 1.03956 0.54458
 N551 N 0.06817 1.03984 0.54642
 N552 N 0.08174 1.04190 0.57523
 C553 C -0.08313 0.48234 0.65523
 N554 N -0.06764 0.48798 0.68272
 N555 N -0.08068 0.49469 0.71043
 C556 C -0.10973 0.49622 0.71178
 N557 N -0.12531 0.49007 0.68444
 N558 N -0.11224 0.48336 0.65662
 C559 C -0.06847 0.47936 0.62375
 N560 N -0.08368 0.47672 0.59539
 N561 N -0.07080 0.47955 0.56652
 C562 C -0.04234 0.48519 0.56482
 N563 N -0.02695 0.48646 0.59325
 N564 N -0.03973 0.48353 0.62213
 C565 C 0.41637 -0.01940 0.15558
 N566 N 0.38728 -0.01801 0.15702
 N567 N 0.37433 -0.01105 0.18483
 C568 C 0.39003 -0.00497 0.21211
 N569 N 0.41906 -0.00685 0.21071
 N570 N 0.43197 -0.01383 0.18301
 C571 C 0.43093 -0.02263 0.12407
 N572 N 0.45972 -0.01888 0.12237
 N573 N 0.47248 -0.01606 0.09345
 C574 C 0.45700 -0.01704 0.06506
 N575 N 0.42846 -0.02228 0.06683
 N576 N 0.41562 -0.02501 0.09574
 C577 C 0.35597 0.47433 0.00695
 N578 N 0.33819 0.47843 -0.01933
 N579 N 0.31367 0.46409 -0.02165
 C580 C 0.30592 0.44521 0.00230
 N581 N 0.32336 0.44173 0.02901
 N582 N 0.34791 0.45604 0.03131
 C583 C 0.38522 0.48560 0.00634
 N584 N 0.40470 0.47724 0.02963
 N585 N 0.43236 0.48343 0.02623
 C586 C 0.44159 0.49786 -0.00076
 N587 N 0.42191 0.50734 -0.02329
 N588 N 0.39426 0.50114 -0.01994
 C589 C -0.14417 0.97515 0.50464
 N590 N -0.16191 0.97891 0.47828
 N591 N -0.18642 0.96451 0.47616
 C592 C -0.19416 0.94591 0.50038
 N593 N -0.17677 0.94279 0.52718
 N594 N -0.15224 0.95717 0.52929
 C595 C -0.11493 0.98642 0.50388
 N596 N -0.09556 0.97860 0.52753
 N597 N -0.06790 0.98482 0.52417
 C598 C -0.05857 0.99870 0.49687
 N599 N -0.07813 1.00761 0.47392
 N600 N -0.10578 1.00140 0.47724
 C601 C -0.15094 0.02036 0.98235
 N602 N -0.17006 0.01308 1.00582
 N603 N -0.19652 0.02390 1.00488
 C604 C -0.20488 0.04221 0.98031
 N605 N -0.18610 0.04827 0.95599
 N606 N -0.15966 0.03745 0.95690
 C607 C -0.12043 0.01431 0.98742
 N608 N -0.10087 0.02547 0.96649
 N609 N -0.07294 0.02296 0.97304
 C610 C -0.06361 0.00971 1.00106
 N611 N -0.08317 -0.00182 1.02175
 N612 N -0.11110 0.00070 1.01523
 C613 C 0.35144 0.52152 0.48570
 N614 N 0.33241 0.51476 0.50947
 N615 N 0.30611 0.52597 0.50867
 C616 C 0.29784 0.54418 0.48397
 N617 N 0.31651 0.54975 0.45940
 N618 N 0.34278 0.53853 0.46017
 C619 C 0.38187 0.51498 0.49046
 N620 N 0.40139 0.52553 0.46907
 N621 N 0.42933 0.52265 0.47529
 C622 C 0.43874 0.50963 0.50342
 N623 N 0.41923 0.49869 0.52457
 N624 N 0.39127 0.50158 0.51837
 C625 C 0.13818 0.54815 0.51529
 N626 N 0.14611 0.57600 0.51259
 N627 N 0.17366 0.58306 0.51122
 C628 C 0.19435 0.56254 0.51241
 N629 N 0.18645 0.53464 0.51558
 N630 N 0.15883 0.52756 0.51708
 C631 C 0.10775 0.54071 0.51404
 N632 N 0.09880 0.51334 0.51892
 N633 N 0.07102 0.50691 0.51650
 C634 C 0.05129 0.52759 0.50895
 N635 N 0.06043 0.55476 0.50385
 N636 N 0.08806 0.56126 0.50645
 C637 C 0.63752 0.04653 0.01325
 N638 N 0.64520 0.07452 0.01276
 N639 N 0.67262 0.08192 0.01062
 C640 C 0.69347 0.06164 0.00872
 N641 N 0.68579 0.03357 0.00982
 N642 N 0.65831 0.02613 0.01209
 C643 C 0.60711 0.03890 0.01281
 N644 N 0.59847 0.01122 0.01553
 N645 N 0.57067 0.00472 0.01372
 C646 C 0.55060 0.02566 0.00898
 N647 N 0.55944 0.05315 0.00604
 N648 N 0.58709 0.05971 0.00805
 C649 C 0.64669 0.94451 0.48152
 N650 N 0.66721 0.96434 0.47545
 N651 N 0.69448 0.95634 0.47196
 C652 C 0.70218 0.92822 0.47418
 N653 N 0.68148 0.90841 0.47944
 N654 N 0.65427 0.91640 0.48304
 C655 C 0.61718 0.95314 0.48885
 N656 N 0.59849 0.93338 0.50037
 N657 N 0.57205 0.94101 0.50853
 C658 C 0.56311 0.96863 0.50542
 N659 N 0.58185 0.98850 0.49395
 N660 N 0.60847 0.98091 0.48594
 C661 C 0.14672 0.44451 0.98161
 N662 N 0.15420 0.41637 0.98284
 N663 N 0.18144 0.40835 0.97964
 C664 C 0.20228 0.42814 0.97508
 N665 N 0.19469 0.45630 0.97315
 N666 N 0.16739 0.46435 0.97624
 C667 C 0.11714 0.45315 0.98857
 N668 N 0.10856 0.48098 0.98601
 N669 N 0.08188 0.48855 0.99380
 C670 C 0.06294 0.46861 1.00464
 N671 N 0.07175 0.44093 1.00739
 N672 N 0.09825 0.43331 0.99946
 C673 C -0.02422 0.36373 0.45189
 N674 N -0.04564 0.35655 0.43078
 N675 N -0.04329 0.33355 0.41205
 C676 C -0.01936 0.31676 0.41347
 N677 N 0.00190 0.32372 0.43500
 N678 N -0.00043 0.34680 0.45373
 C679 C -0.02564 0.39100 0.46964
 N680 N -0.00297 0.40017 0.48779
 N681 N -0.00260 0.42666 0.49959
 C682 C -0.02495 0.44500 0.49392
 N683 N -0.04795 0.43542 0.47668
 N684 N -0.04837 0.40895 0.46490
 C685 C 0.47542 -0.13849 -0.04734
 N686 N 0.45475 -0.14598 -0.06929
 N687 N 0.45766 -0.16941 -0.08728
 C688 C 0.48142 -0.18629 -0.08418
 N689 N 0.50193 -0.17897 -0.06188
 N690 N 0.49902 -0.15552 -0.04388
 C691 C 0.47359 -0.11087 -0.03027
 N692 N 0.49541 -0.10196 -0.01062
 N693 N 0.49563 -0.07537 0.00094
 C694 C 0.47396 -0.05666 -0.00648
 N695 N 0.45181 -0.06594 -0.02536
 N696 N 0.45153 -0.09250 -0.03689
 C697 C 0.02389 -0.15371 1.04915
 N698 N 0.00140 -0.17171 1.04481
 N699 N 0.00006 -0.19642 1.06159
 C700 C 0.02112 -0.20404 1.08342
 N701 N 0.04396 -0.18635 1.08701
 N702 N 0.04531 -0.16169 1.07024
 C703 C 0.02314 -0.12448 1.03518
 N704 N 0.04347 -0.10527 1.04401
 N705 N 0.04055 -0.07764 1.03593
 C706 C 0.01731 -0.06811 1.01859
 N707 N -0.00265 -0.08748 1.00899
 N708 N 0.00020 -0.11513 1.01712
 C709 C 0.52473 0.34574 0.55111
 N710 N 0.50203 0.32803 0.54666
 N711 N 0.50033 0.30334 0.56344
 C712 C 0.52122 0.29547 0.58536
 N713 N 0.54425 0.31289 0.58907
 N714 N 0.54596 0.33753 0.57232
 C715 C 0.52440 0.37496 0.53711
 N716 N 0.54475 0.39401 0.54631
 N717 N 0.54215 0.42166 0.53818
 C718 C 0.51924 0.43135 0.52037
 N719 N 0.49928 0.41213 0.51040
 N720 N 0.50180 0.38447 0.51860
 C721 C 0.49584 1.13513 0.57679
 N722 N 0.49483 1.14059 0.60942
 N723 N 0.49873 1.16707 0.62044
 C724 C 0.50386 1.18915 0.59925
 N725 N 0.50474 1.18366 0.56661
 N726 N 0.50087 1.15720 0.55559
 C727 C 0.49289 1.10560 0.56483
 N728 N 0.49560 1.09969 0.53244
 N729 N 0.49489 1.07270 0.52208
 C730 C 0.49125 1.05062 0.54373
 N731 N 0.48822 1.05664 0.57601
 N732 N 0.48892 1.08355 0.58635
 C733 C -0.00336 0.63540 1.07585
 N734 N -0.00425 0.64099 1.10846
 N735 N -0.00030 0.66752 1.11931
 C736 C 0.00477 0.68951 1.09798
 N737 N 0.00554 0.68389 1.06536
 N738 N 0.00161 0.65738 1.05451
 C739 C -0.00646 0.60584 1.06404
 N740 N -0.00402 0.59984 1.03164
 N741 N -0.00490 0.57283 1.02139
 C742 C -0.00843 0.55081 1.04314
 N743 N -0.01118 0.55691 1.07544
 N744 N -0.01031 0.58385 1.08568
 C745 C 0.51289 0.65687 -0.06871
 N746 N 0.50551 0.67893 -0.04919
 N747 N 0.49952 0.70473 -0.06211
 C748 C 0.50037 0.70954 -0.09511
 N749 N 0.50774 0.68739 -0.11461
 N750 N 0.51386 0.66160 -0.10167
 C751 C 0.51795 0.62788 -0.05473
 N752 N 0.52598 0.60618 -0.07442
 N753 N 0.52752 0.57937 -0.06283
 C754 C 0.52135 0.57310 -0.03102
 N755 N 0.51393 0.59492 -0.01109
 N756 N 0.51245 0.62182 -0.02267
 C757 C 0.01050 1.15813 0.43011
 N758 N 0.01268 1.16331 0.39730
 N759 N 0.00611 1.18902 0.38442
 C760 C -0.00300 1.21054 0.40383
 N761 N -0.00511 1.20531 0.43663
 N762 N 0.00136 1.17962 0.44949
 C763 C 0.01621 1.12926 0.44410
 N764 N 0.01021 1.12298 0.47597
 N765 N 0.01226 1.09613 0.48757
 C766 C 0.02079 1.07456 0.46786
 N767 N 0.02749 1.08107 0.43625
 N768 N 0.02538 1.10785 0.42464
 C769 C 0.79152 0.67102 0.86709
 N770 N 0.78831 0.68463 0.89599
 N771 N 0.78372 0.66979 0.92357
 C772 C 0.78211 0.64076 0.92329
 N773 N 0.78645 0.62709 0.89459
 N774 N 0.79089 0.64194 0.86696
 C775 C 0.78989 0.68745 0.83619
 N776 N 0.78461 0.67387 0.80758
 N777 N 0.77638 0.68866 0.78087
 C778 C 0.77326 0.71756 0.78171
 N779 N 0.77979 0.73123 0.80996
 N780 N 0.78793 0.71646 0.83671
 C781 C 0.29217 0.17053 0.36691
 N782 N 0.29142 0.14146 0.36697
 N783 N 0.28720 0.12676 0.39476
 C784 C 0.28320 0.14060 0.42342
 N785 N 0.28499 0.16963 0.42349
 N786 N 0.28937 0.18431 0.39577
 C787 C 0.29004 0.18681 0.33594
 N788 N 0.28808 0.21582 0.33630
 N789 N 0.27948 0.23045 0.30964
 C790 C 0.27244 0.21664 0.28165
 N791 N 0.27552 0.18773 0.28093
 N792 N 0.28422 0.17307 0.30755
 C793 C 0.71780 0.32269 0.38522
 N794 N 0.71497 0.35158 0.38622
 N795 N 0.72049 0.36543 0.41384
 C796 C 0.72935 0.35097 0.44135
 N797 N 0.73151 0.32198 0.44052
 N798 N 0.72588 0.30811 0.41292
 C799 C 0.71673 0.30804 0.35383
 N800 N 0.72191 0.27948 0.35287
 N801 N 0.72640 0.26681 0.32440
 C802 C 0.72598 0.28221 0.29587
 N803 N 0.71973 0.31058 0.29671
 N804 N 0.71519 0.32330 0.32521
 C805 C 0.21432 0.82471 0.88645
 N806 N 0.22212 0.80994 0.91413
 N807 N 0.22784 0.82366 0.94181
 C808 C 0.22606 0.85267 0.94273
 N809 N 0.21740 0.86732 0.91526
 N810 N 0.21180 0.85362 0.88757
 C811 C 0.21354 0.81022 0.85497
 N812 N 0.21291 0.82566 0.82644
 N813 N 0.21805 0.81305 0.79801
 C814 C 0.22402 0.78462 0.79716
 N815 N 0.22348 0.76906 0.82555
 N816 N 0.21840 0.78161 0.85394
 C817 C 0.28631 0.83195 0.11310
 N818 N 0.28088 0.81589 0.08632
 N819 N 0.27133 0.82806 0.05852
 C820 C 0.26670 0.85679 0.05633
 N821 N 0.27282 0.87297 0.08293
 N822 N 0.28221 0.86076 0.11087
 C823 C 0.29163 0.81775 0.14502
 N824 N 0.28948 0.83273 0.17315
 N825 N 0.28735 0.81908 0.20196
 C826 C 0.28745 0.79002 0.20384
 N827 N 0.29129 0.77516 0.17584
 N828 N 0.29336 0.78874 0.14701
 C829 C 0.78814 0.33146 0.61261
 N830 N 0.78313 0.31521 0.58588
 N831 N 0.77382 0.32717 0.55784
 C832 C 0.76902 0.35586 0.55538
 N833 N 0.77472 0.37223 0.58194
 N834 N 0.78388 0.36023 0.61010
 C835 C 0.79320 0.31749 0.64472
 N836 N 0.79061 0.33263 0.67268
 N837 N 0.78826 0.31914 0.70157
 C838 C 0.78857 0.29010 0.70370
 N839 N 0.79285 0.27509 0.67589
 N840 N 0.79513 0.28851 0.64698
 C841 C 0.23155 0.16756 0.59567
 N842 N 0.23229 0.13848 0.59423
 N843 N 0.23935 0.12548 0.56652
 C844 C 0.24619 0.14110 0.53935
 N845 N 0.24497 0.17013 0.54074
 N846 N 0.23789 0.18310 0.56835
 C847 C 0.22814 0.18211 0.62711
 N848 N 0.23261 0.21075 0.62885
 N849 N 0.23522 0.22337 0.65778
 C850 C 0.23330 0.20791 0.68617
 N851 N 0.22731 0.17956 0.68434
 N852 N 0.22481 0.16684 0.65540
 C853 C 0.73102 0.66629 0.09606
 N854 N 0.73243 0.63724 0.09454
 N855 N 0.73929 0.62446 0.06663
 C856 C 0.74525 0.64028 0.03932
 N857 N 0.74334 0.66928 0.04080
 N858 N 0.73645 0.68203 0.06861
 C859 C 0.72788 0.68069 0.12764
 N860 N 0.73142 0.70947 0.12932
 N861 N 0.73428 0.72212 0.15821
 C862 C 0.73357 0.70654 0.18661
 N863 N 0.72856 0.67799 0.18488
 N864 N 0.72578 0.66525 0.15599
 C865 C 0.22487 0.60603 0.24294
 N866 N 0.22912 0.58808 0.26907
 N867 N 0.21486 0.56350 0.27136
 C868 C 0.19593 0.55588 0.24751
 N869 N 0.19233 0.57348 0.22091
 N870 N 0.20656 0.59808 0.21864
 C871 C 0.23592 0.63533 0.24370
 N872 N 0.22753 0.65487 0.22046
 N873 N 0.23348 0.68254 0.22399
 C874 C 0.24767 0.69170 0.25108
 N875 N 0.25719 0.67198 0.27356
 N876 N 0.25124 0.64433 0.27007
 C877 C 0.72484 0.10639 0.74385
 N878 N 0.72877 0.08868 0.77025
 N879 N 0.71435 0.06421 0.77271
 C880 C 0.69555 0.05648 0.74879
 N881 N 0.69225 0.07383 0.72194
 N882 N 0.70664 0.09832 0.71949
 C883 C 0.73613 0.13560 0.74430
 N884 N 0.72799 0.15498 0.72078
 N885 N 0.73414 0.18263 0.72399
 C886 C 0.74831 0.19193 0.75102
 N887 N 0.75757 0.17236 0.77381
 N888 N 0.75141 0.14472 0.77063
 C889 C 0.77211 0.09906 0.26464
 N890 N 0.78916 0.09028 0.29006
 N891 N 0.79957 0.06370 0.29128
 C892 C 0.79313 0.04484 0.26730
 N893 N 0.77480 0.05326 0.24280
 N894 N 0.76439 0.07986 0.24156
 C895 C 0.76650 0.12958 0.25919
 N896 N 0.75271 0.13887 0.23150
 N897 N 0.75036 0.16676 0.22472
 C898 C 0.76223 0.18632 0.24502
 N899 N 0.77574 0.17702 0.27288
 N900 N 0.77809 0.14913 0.27969
 C901 C 0.27285 0.60147 0.76543
 N902 N 0.28993 0.59271 0.79084
 N903 N 0.30075 0.56629 0.79178
 C904 C 0.29470 0.54758 0.76752
 N905 N 0.27646 0.55598 0.74294
 N906 N 0.26564 0.58243 0.74198
 C907 C 0.26658 0.63194 0.76048
 N908 N 0.25303 0.64134 0.73268
 N909 N 0.25025 0.66927 0.72631
 C910 C 0.26143 0.68876 0.74717
 N911 N 0.27461 0.67936 0.77519
 N912 N 0.27739 0.65143 0.78158
 C913 C 0.29649 0.38768 0.73744
 N914 N 0.27606 0.40850 0.73620
 N915 N 0.28342 0.43603 0.73759
 C916 C 0.31146 0.44366 0.74008
 N917 N 0.33180 0.42279 0.74074
 N918 N 0.32447 0.39534 0.73948
 C919 C 0.28883 0.35730 0.73857
 N920 N 0.30942 0.33742 0.74527
 N921 N 0.30281 0.30982 0.74759
 C922 C 0.27549 0.30088 0.74310
 N923 N 0.25477 0.32081 0.73646
 N924 N 0.26130 0.34857 0.73431
 C925 C 0.79674 0.88701 0.23673
 N926 N 0.77636 0.90783 0.23779
 N927 N 0.78387 0.93529 0.23949
 C928 C 0.81199 0.94293 0.24010
 N929 N 0.83223 0.92204 0.23830
 N930 N 0.82476 0.89464 0.23674
 C931 C 0.78908 0.85663 0.23771
 N932 N 0.80992 0.83667 0.24267
 N933 N 0.80339 0.80906 0.24501
 C934 C 0.77589 0.80017 0.24222
 N935 N 0.75491 0.82018 0.23731
 N936 N 0.76139 0.84796 0.23518
 C937 C 0.69484 0.89750 0.76918
 N938 N 0.71463 0.91812 0.77484
 N939 N 0.70652 0.94535 0.77808
 C940 C 0.67834 0.95292 0.77602
 N941 N 0.65858 0.93214 0.77117
 N942 N 0.66667 0.90496 0.76781
 C943 C 0.70359 0.86803 0.76209
 N944 N 0.68386 0.84923 0.75092
 N945 N 0.69158 0.82281 0.74294
 C946 C 0.71928 0.81402 0.74590
 N947 N 0.73912 0.83288 0.75701
 N948 N 0.73143 0.85946 0.76485
 C949 C 0.19427 0.39675 0.26878
 N950 N 0.16614 0.40439 0.26772
 N951 N 0.15828 0.43166 0.27082
 C952 C 0.17823 0.45237 0.27511
 N953 N 0.20637 0.44462 0.27685
 N954 N 0.21425 0.41731 0.27385
 C955 C 0.20279 0.36714 0.26200
 N956 N 0.23068 0.35863 0.26401
 N957 N 0.23820 0.33196 0.25635
 C958 C 0.21813 0.31294 0.24618
 N959 N 0.19036 0.32165 0.24401
 N960 N 0.18281 0.34816 0.25181
 C961 C 0.11099 0.22546 0.79856
 N962 N 0.09403 0.24911 0.79525
 N963 N 0.07054 0.25197 0.81331
 C964 C 0.06311 0.23136 0.83554
 N965 N 0.07993 0.20756 0.83852
 N966 N 0.10340 0.20470 0.82047
 C967 C 0.13864 0.22368 0.78141
 N968 N 0.15696 0.20155 0.78787
 N969 N 0.18358 0.20189 0.77633
 C970 C 0.19296 0.22416 0.75759
 N971 N 0.17429 0.24589 0.75030
 N972 N 0.14765 0.24562 0.76188
 C973 C 0.61225 0.72464 0.30012
 N974 N 0.59513 0.74816 0.29655
 N975 N 0.57175 0.75112 0.31477
 C976 C 0.56463 0.73077 0.33744
 N977 N 0.58161 0.70711 0.34069
 N978 N 0.60496 0.70414 0.32247
 C979 C 0.63976 0.72276 0.28272
 N980 N 0.65825 0.70082 0.28942
 N981 N 0.68477 0.70113 0.27760
 C982 C 0.69387 0.72317 0.25832
 N983 N 0.67503 0.74469 0.25080
 N984 N 0.64848 0.74445 0.26265
 C985 C 0.59727 0.27264 0.19989
 N986 N 0.58894 0.29438 0.17937
 N987 N 0.56410 0.29319 0.16300
 C988 C 0.54655 0.27021 0.16644
 N989 N 0.55451 0.24883 0.18775
 N990 N 0.57941 0.25001 0.20411
 C991 C 0.62669 0.27184 0.21335
 N992 N 0.63648 0.24857 0.23055
 N993 N 0.66426 0.24586 0.23818
 C994 C 0.68332 0.26630 0.22894
 N995 N 0.67334 0.28985 0.21247
 N996 N 0.64560 0.29263 0.20488
 C997 C 0.09738 0.77517 0.69859
 N998 N 0.08929 0.79658 0.67750
 N999 N 0.06455 0.79520 0.66096
 C1000 C 0.04689 0.77235 0.66478
 N1001 N 0.05464 0.75130 0.68659
 N1002 N 0.07943 0.75266 0.70315
 C1003 C 0.12665 0.77453 0.71240
 N1004 N 0.13607 0.75171 0.73066
 N1005 N 0.16373 0.74902 0.73880
 C1006 C 0.18305 0.76903 0.72903
 N1007 N 0.17346 0.79213 0.71145
 N1008 N 0.14581 0.79489 0.70336
 C1009 C 0.88622 0.74774 0.67404
 N1010 N 0.89170 0.74677 0.64139
 N1011 N 0.91821 0.75074 0.63027
 C1012 C 0.94028 0.75591 0.65135
 N1013 N 0.93477 0.75677 0.68401
 N1014 N 0.90829 0.75282 0.69514
 C1015 C 0.85667 0.74462 0.68613
 N1016 N 0.85073 0.74727 0.71854
 N1017 N 0.82372 0.74638 0.72901
 C1018 C 0.80164 0.74263 0.70748
 N1019 N 0.80768 0.73967 0.67518
 N1020 N 0.83462 0.74054 0.66472
 C1021 C 0.38546 0.24667 0.17477
 N1022 N 0.40749 0.25133 0.19606
 N1023 N 0.43408 0.25505 0.18515
 C1024 C 0.43975 0.25436 0.15251
 N1025 N 0.41771 0.24961 0.13124
 N1026 N 0.39110 0.24588 0.14215
 C1027 C 0.35579 0.24375 0.18664
 N1028 N 0.33380 0.24012 0.16503
 N1029 N 0.30680 0.23931 0.17532
 C1030 C 0.30063 0.24190 0.20764
 N1031 N 0.32266 0.24522 0.22935
 N1032 N 0.34972 0.24604 0.21905
 C1033 C 0.40637 0.76299 0.31807
 N1034 N 0.42806 0.75359 0.29906
 N1035 N 0.45370 0.74739 0.31224
 C1036 C 0.45865 0.75005 0.34500
 N1037 N 0.43693 0.75945 0.36402
 N1038 N 0.41129 0.76575 0.35082
 C1039 C 0.37751 0.76819 0.30389
 N1040 N 0.35594 0.77753 0.32309
 N1041 N 0.32915 0.77911 0.31148
 C1042 C 0.32278 0.77169 0.28012
 N1043 N 0.34450 0.76298 0.26065
 N1044 N 0.37137 0.76145 0.27225
 C1045 C 0.90654 0.26353 0.81905
 N1046 N 0.91094 0.26435 0.85205
 N1047 N 0.93659 0.25805 0.86521
 C1048 C 0.95891 0.25063 0.84590
 N1049 N 0.95443 0.24993 0.81286
 N1050 N 0.92877 0.25610 0.79972
 C1051 C 0.87768 0.26871 0.80482
 N1052 N 0.87187 0.26307 0.77279
 N1053 N 0.84504 0.26455 0.76102
 C1054 C 0.82305 0.27212 0.78073
 N1055 N 0.82909 0.27847 0.81249
 N1056 N 0.85583 0.27691 0.82427
 C1057 C 0.58858 0.96220 0.66009
 N1058 N 0.57899 0.96299 0.69142
 N1059 N 0.59462 0.97537 0.71485
 C1060 C 0.61999 0.98807 0.70759
 N1061 N 0.62961 0.98703 0.67637
 N1062 N 0.61423 0.97434 0.65312
 C1063 C 0.56996 0.95293 0.63295
 N1064 N 0.58092 0.95138 0.60239
 N1065 N 0.56367 0.95104 0.57620
 C1066 C 0.53475 0.95214 0.57929
 N1067 N 0.52380 0.95159 0.61009
 N1068 N 0.54106 0.95188 0.63644
 C1069 C 0.08861 0.46178 1.15913
 N1070 N 0.07904 0.46265 1.19046
 N1071 N 0.09471 0.47505 1.21384
 C1072 C 0.12010 0.48766 1.20654
 N1073 N 0.12971 0.48654 1.17531
 N1074 N 0.11428 0.47384 1.15210
 C1075 C 0.06993 0.45256 1.13202
 N1076 N 0.08083 0.45101 1.10143
 N1077 N 0.06353 0.45079 1.07528
 C1078 C 0.03462 0.45201 1.07845
 N1079 N 0.02372 0.45145 1.10927
 N1080 N 0.04103 0.45163 1.13557
 C1081 C -0.08550 0.02030 1.15466
 N1082 N -0.10973 0.03645 1.15473
 N1083 N -0.12923 0.03241 1.17792
 C1084 C -0.12544 0.01180 1.20154
 N1085 N -0.10123 -0.00439 1.20142
 N1086 N -0.08160 -0.00017 1.17840
 C1087 C -0.06499 0.02294 1.12789
 N1088 N -0.03970 0.00864 1.13001
 N1089 N -0.02277 0.00712 1.10412
 C1090 C -0.03040 0.01980 1.07509
 N1091 N -0.05524 0.03509 1.07327
 N1092 N -0.07220 0.03674 1.09931
 C1093 C 0.41706 0.52153 0.65636
 N1094 N 0.39321 0.53825 0.65630
 N1095 N 0.37347 0.53459 0.67930
 C1096 C 0.37663 0.51383 0.70286
 N1097 N 0.40048 0.49711 0.70288
 N1098 N 0.42035 0.50093 0.68005
 C1099 C 0.43775 0.52366 0.62971
 N1100 N 0.46250 0.50843 0.63178
 N1101 N 0.47945 0.50649 0.60595
 C1102 C 0.47236 0.51966 0.57702
 N1103 N 0.44810 0.53585 0.57526
 N1104 N 0.43112 0.53791 0.60124
 C1105 C 0.41441 0.46807 -0.14508
 N1106 N 0.42132 0.46986 -0.17732
 N1107 N 0.40140 0.47660 -0.19991
 C1108 C 0.37408 0.48246 -0.19094
 N1109 N 0.36710 0.48028 -0.15880
 N1110 N 0.38688 0.47310 -0.13630
 C1111 C 0.43684 0.46636 -0.11966
 N1112 N 0.42989 0.45967 -0.08825
 N1113 N 0.44816 0.46489 -0.06374
 C1114 C 0.47381 0.47742 -0.06965
 N1115 N 0.48131 0.48274 -0.10124
 N1116 N 0.46321 0.47718 -0.12582
 C1117 C -0.08516 0.96762 0.35315
 N1118 N -0.07853 0.96992 0.32086
 N1119 N -0.09884 0.97602 0.29849
 C1120 C -0.12631 0.98071 0.30776
 N1121 N -0.13299 0.97803 0.33995
 N1122 N -0.11281 0.97147 0.36221
 C1123 C -0.06255 0.96666 0.37838
 N1124 N -0.06902 0.95934 0.40976
 N1125 N -0.05083 0.96502 0.43420
 C1126 C -0.02576 0.97867 0.42825
 N1127 N -0.01871 0.98470 0.39668
 N1128 N -0.03671 0.97868 0.37216
 C1129 C 0.07115 0.53458 0.35765
 N1130 N 0.06801 0.51339 0.33539
 N1131 N 0.08819 0.50852 0.31322
 C1132 C 0.11225 0.52472 0.31250
 N1133 N 0.11525 0.54602 0.33463
 N1134 N 0.09522 0.55072 0.35695
 C1135 C 0.05019 0.53797 0.38393
 N1136 N 0.05696 0.55261 0.41151
 N1137 N 0.03997 0.55146 0.43760
 C1138 C 0.01545 0.53592 0.43695
 N1139 N 0.00811 0.52256 0.40870
 N1140 N 0.02509 0.52353 0.38273
 C1141 C 0.57062 0.03427 -0.14134
 N1142 N 0.59466 0.05046 -0.14179
 N1143 N 0.61477 0.04596 -0.16407
 C1144 C 0.61188 0.02480 -0.18641
 N1145 N 0.58785 0.00855 -0.18593
 N1146 N 0.56759 0.01323 -0.16380
 C1147 C 0.54955 0.03742 -0.11512
 N1148 N 0.52446 0.02300 -0.11663
 N1149 N 0.50738 0.02177 -0.09076
 C1150 C 0.51461 0.03485 -0.06231
 N1151 N 0.53914 0.05037 -0.06132
 N1152 N 0.55623 0.05178 -0.08732
 C1153 C 0.65809 0.54815 -0.02998
 N1154 N 0.66652 0.56503 -0.05539
 N1155 N 0.69213 0.57743 -0.05487
 C1156 C 0.71027 0.57372 -0.02880
 N1157 N 0.70195 0.55662 -0.00341
 N1158 N 0.67633 0.54398 -0.00404
 C1159 C 0.62873 0.53696 -0.02948
 N1160 N 0.62092 0.51655 -0.00730
 N1161 N 0.59360 0.50851 -0.00514
 C1162 C 0.57307 0.52089 -0.02469
 N1163 N 0.58105 0.54073 -0.04742
 N1164 N 0.60838 0.54854 -0.04985
 C1165 C 0.15803 1.04970 0.47007
 N1166 N 0.16665 1.06661 0.44476
 N1167 N 0.19236 1.07879 0.44541
 C1168 C 0.21042 1.07482 0.47151
 N1169 N 0.20190 1.05773 0.49681
 N1170 N 0.17618 1.04531 0.49605
 C1171 C 0.12863 1.03864 0.47034
 N1172 N 0.12066 1.01814 0.49233
 N1173 N 0.09333 1.01010 0.49417
 C1174 C 0.07294 1.02254 0.47447
 N1175 N 0.08109 1.04249 0.45194
 N1176 N 0.10843 1.05031 0.44984
 C1177 C 0.15256 -0.04200 1.03397
 N1178 N 0.17112 -0.03521 1.00973
 N1179 N 0.19420 -0.05138 1.00481
 C1180 C 0.19965 -0.07477 1.02407
 N1181 N 0.18167 -0.08106 1.04902
 N1182 N 0.15857 -0.06485 1.05398
 C1183 C 0.12391 -0.02907 1.03379
 N1184 N 0.10397 -0.03843 1.05533
 N1185 N 0.07650 -0.03124 1.05116
 C1186 C 0.06789 -0.01496 1.02494
 N1187 N 0.08801 -0.00444 1.00431
 N1188 N 0.11551 -0.01155 1.00852
 C1189 C 0.65481 0.45636 0.53292
 N1190 N 0.67288 0.46292 0.50812
 N1191 N 0.69586 0.44673 0.50282
 C1192 C 0.70172 0.42354 0.52226
 N1193 N 0.68421 0.41745 0.54771
 N1194 N 0.66118 0.43366 0.55303
 C1195 C 0.62626 0.46949 0.53345
 N1196 N 0.60656 0.46012 0.55530
 N1197 N 0.57911 0.46761 0.55177
 C1198 C 0.57025 0.48422 0.52593
 N1199 N 0.59016 0.49474 0.50502
 N1200 N 0.61764 0.48733 0.50857
 C1201 C -0.16130 0.46183 0.48448
 N1202 N -0.16880 0.44599 0.45819
 N1203 N -0.19146 0.42886 0.45939
 C1204 C -0.20730 0.42671 0.48703
 N1205 N -0.20013 0.44297 0.51315
 N1206 N -0.17749 0.46023 0.51191
 C1207 C -0.13386 0.47677 0.48486
 N1208 N -0.12606 0.49297 0.51078
 N1209 N -0.09929 0.50247 0.51366
 C1210 C -0.07926 0.49550 0.49122
 N1211 N -0.08753 0.48070 0.46439
 N1212 N -0.11432 0.47139 0.46133
 C1213 C 0.33729 -0.03835 -0.01445
 N1214 N 0.32112 -0.03962 0.01302
 N1215 N 0.29815 -0.05644 0.01432
 C1216 C 0.29062 -0.07256 -0.01179
 N1217 N 0.30644 -0.07073 -0.03946
 N1218 N 0.32943 -0.05405 -0.04072
 C1219 C 0.36500 -0.02392 -0.01416
 N1220 N 0.38445 -0.02982 -0.03762
 N1221 N 0.41137 -0.02085 -0.03468
 C1222 C 0.41985 -0.00589 -0.00807
 N1223 N 0.39994 0.00155 0.01431
 N1224 N 0.37304 -0.00761 0.01157
 C1225 C 0.35372 1.03891 0.53392
 N1226 N 0.33385 1.02673 0.51394
 N1227 N 0.31115 1.04172 0.50306
 C1228 C 0.30737 1.06935 0.51200
 N1229 N 0.32687 1.08133 0.53251
 N1230 N 0.34956 1.06637 0.54337
 C1231 C 0.38151 1.02470 0.54017
 N1232 N 0.40338 1.03934 0.55431
 N1233 N 0.43002 1.02890 0.55430
 C1234 C 0.43585 1.00341 0.54021
 N1235 N 0.41379 0.98826 0.52718
 N1236 N 0.38714 0.99871 0.52712
 C1237 C -0.14612 0.53964 1.03372
 N1238 N -0.16652 0.52698 1.01486
 N1239 N -0.18932 0.54183 1.00397
 C1240 C -0.19262 0.56981 1.01175
 N1241 N -0.17257 0.58228 1.03113
 N1242 N -0.14981 0.56745 1.04203
 C1243 C -0.11834 0.52538 1.03992
 N1244 N -0.09632 0.54015 1.05355
 N1245 N -0.06972 0.52960 1.05349
 C1246 C -0.06409 0.50387 1.03985
 N1247 N -0.08630 0.48862 1.02732
 N1248 N -0.11291 0.49918 1.02732
 C1249 C -0.00027 0.66158 0.54583
 N1250 N 0.02313 0.66884 0.56382
 N1251 N 0.02369 0.69314 0.58035
 C1252 C 0.00085 0.71128 0.57984
 N1253 N -0.02257 0.70432 0.56143
 N1254 N -0.02313 0.67986 0.54473
 C1255 C -0.00108 0.63302 0.53088
 N1256 N -0.02268 0.62478 0.51045
 N1257 N -0.02380 0.59788 0.49967
 C1258 C -0.00333 0.57829 0.50879
 N1259 N 0.01799 0.58674 0.52928
 N1260 N 0.01934 0.61352 0.53972
 C1261 C 0.49916 0.15967 0.04743
 N1262 N 0.52239 0.16671 0.06584
 N1263 N 0.52302 0.19104 0.08227
 C1264 C 0.50041 0.20948 0.08128
 N1265 N 0.47715 0.20273 0.06248
 N1266 N 0.47653 0.17823 0.04584
 C1267 C 0.49829 0.13108 0.03254
 N1268 N 0.47724 0.12316 0.01119
 N1269 N 0.47614 0.09631 0.00026
 C1270 C 0.49608 0.07643 0.01014
 N1271 N 0.51679 0.08454 0.03161
 N1272 N 0.51813 0.11128 0.04221
 C1273 C -0.00968 0.14738 0.96554
 N1274 N -0.03030 0.15816 0.94483
 N1275 N -0.02518 0.18124 0.92598
 C1276 C 0.00085 0.19421 0.92693
 N1277 N 0.02126 0.18362 0.94791
 N1278 N 0.01603 0.16085 0.96699
 C1279 C -0.01314 0.11946 0.98269
 N1280 N 0.00713 0.11027 1.00468
 N1281 N 0.00740 0.08327 1.01584
 C1282 C -0.01259 0.06424 1.00552
 N1283 N -0.03343 0.07367 0.98428
 N1284 N -0.03381 0.10077 0.97323
 C1285 C 0.49228 0.64700 0.46757
 N1286 N 0.47155 0.65763 0.44689
 N1287 N 0.47650 0.68069 0.42796
 C1288 C 0.50246 0.69381 0.42882
 N1289 N 0.52296 0.68339 0.44979
 N1290 N 0.51791 0.66063 0.46893
 C1291 C 0.48904 0.61905 0.48469
 N1292 N 0.50956 0.60984 0.50637
 N1293 N 0.50999 0.58283 0.51745
 C1294 C 0.48991 0.56380 0.50737
 N1295 N 0.46884 0.57324 0.48646
 N1296 N 0.46830 0.60035 0.47548
 C1297 C 0.51322 0.84171 0.45566
 N1298 N 0.49334 0.82071 0.45950
 N1299 N 0.49478 0.79678 0.44190
 C1300 C 0.51619 0.79297 0.41995
 N1301 N 0.53605 0.81393 0.41647
 N1302 N 0.53453 0.83777 0.43380
 C1303 C 0.51151 0.86924 0.47297
 N1304 N 0.52781 0.89138 0.46234
 N1305 N 0.52618 0.91683 0.47635
 C1306 C 0.50873 0.92128 0.50219
 N1307 N 0.49216 0.89915 0.51286
 N1308 N 0.49357 0.87356 0.49856
 C1309 C 0.01234 0.34196 0.95454
 N1310 N -0.00771 0.32109 0.95819
 N1311 N -0.00639 0.29721 0.94048
 C1312 C 0.01507 0.29333 0.91860
 N1313 N 0.03509 0.31414 0.91531
 N1314 N 0.03370 0.33793 0.93277
 C1315 C 0.01076 0.36945 0.97195
 N1316 N 0.02720 0.39152 0.96140
 N1317 N 0.02570 0.41695 0.97549
 C1318 C 0.00828 0.42143 1.00135
 N1319 N -0.00842 0.39937 1.01194
 N1320 N -0.00715 0.37380 0.99755
 C1321 C 0.48305 0.35943 0.03858
 N1322 N 0.50424 0.34018 0.03277
 N1323 N 0.50605 0.31575 0.05003
 C1324 C 0.48648 0.30929 0.07338
 N1325 N 0.46484 0.32818 0.07865
 N1326 N 0.46312 0.35276 0.06152
 C1327 C 0.48427 0.38848 0.02384
 N1328 N 0.46759 0.40987 0.03547
 N1329 N 0.47140 0.43690 0.02543
 C1330 C 0.49187 0.44366 0.00324
 N1331 N 0.50827 0.42218 -0.00876
 N1332 N 0.50458 0.39515 0.00138
 C1333 C -0.01683 0.86059 0.53623
 N1334 N -0.03703 0.85381 0.55882
 N1335 N -0.03525 0.82936 0.57618
 C1336 C -0.01328 0.81072 0.57148
 N1337 N 0.00653 0.81725 0.54844
 N1338 N 0.00467 0.84157 0.53096
 C1339 C -0.01566 0.88959 0.52140
 N1340 N 0.00515 0.89643 0.49961
 N1341 N 0.00883 0.92349 0.48958
 C1342 C -0.00809 0.94482 0.50101
 N1343 N -0.02908 0.93788 0.52247
 N1344 N -0.03286 0.91082 0.53242
 C1345 C 0.21115 0.33858 0.09167
 N1346 N 0.21199 0.32902 0.06038
 N1347 N 0.22444 0.34463 0.03687
 C1348 C 0.23714 0.36996 0.04400
 N1349 N 0.23604 0.37958 0.07518
 N1350 N 0.22329 0.36420 0.09852
 C1351 C 0.20194 0.31992 0.11890
 N1352 N 0.20039 0.33079 0.14946
 N1353 N 0.20023 0.31350 0.17568
 C1354 C 0.20152 0.28462 0.17260
 N1355 N 0.20094 0.27374 0.14183
 N1356 N 0.20105 0.29104 0.11546
 C1357 C 0.71213 0.83914 0.59090
 N1358 N 0.71283 0.82942 0.55967
 N1359 N 0.72509 0.84497 0.53596
 C1360 C 0.73772 0.87040 0.54283
 N1361 N 0.73675 0.88016 0.57396
 N1362 N 0.72419 0.86484 0.59749
 C1363 C 0.70308 0.82061 0.61833
 N1364 N 0.70175 0.83165 0.64882
 N1365 N 0.70164 0.81450 0.67517
 C1366 C 0.70277 0.78560 0.67229
 N1367 N 0.70202 0.77455 0.64160
 N1368 N 0.70208 0.79172 0.61511
 C1369 C 0.27409 0.66719 0.59431
 N1370 N 0.29027 0.64298 0.59462
 N1371 N 0.28628 0.62327 0.57177
 C1372 C 0.26569 0.62683 0.54815
 N1373 N 0.24951 0.65104 0.54786
 N1374 N 0.25368 0.67087 0.57052
 C1375 C 0.27643 0.68780 0.62088
 N1376 N 0.26187 0.71293 0.61848
 N1377 N 0.25985 0.72982 0.64427
 C1378 C 0.27225 0.72231 0.67347
 N1379 N 0.28782 0.69768 0.67556
 N1380 N 0.28997 0.68075 0.64963
 C1381 C 0.77153 0.16451 0.09157
 N1382 N 0.78787 0.14042 0.09147
 N1383 N 0.78372 0.12078 0.06858
 C1384 C 0.76281 0.12428 0.04532
 N1385 N 0.74645 0.14837 0.04545
 N1386 N 0.75076 0.16813 0.06817
 C1387 C 0.77422 0.18510 0.11813
 N1388 N 0.75951 0.21016 0.11614
 N1389 N 0.75806 0.22709 0.14195
 C1390 C 0.77121 0.21970 0.17077
 N1391 N 0.78689 0.19512 0.17243
 N1392 N 0.78848 0.17816 0.14647
 C1393 C 0.71735 0.16397 0.89441
 N1394 N 0.71934 0.17044 0.92672
 N1395 N 0.72571 0.15014 0.94904
 C1396 C 0.73099 0.12284 0.93971
 N1397 N 0.72862 0.11631 0.90749
 N1398 N 0.72181 0.13648 0.88527
 C1399 C 0.71601 0.18670 0.86926
 N1400 N 0.70893 0.18031 0.83785
 N1401 N 0.71433 0.19876 0.81349
 C1402 C 0.72745 0.22404 0.81955
 N1403 N 0.73321 0.23100 0.85116
 N1404 N 0.72746 0.21272 0.87560
 C1405 C 0.21895 0.66437 0.39630
 N1406 N 0.22085 0.67134 0.42847
 N1407 N 0.22766 0.65149 0.45114
 C1408 C 0.23348 0.62416 0.44233
 N1409 N 0.23121 0.61712 0.41025
 N1410 N 0.22396 0.63684 0.38767
 C1411 C 0.21707 0.68671 0.37074
 N1412 N 0.21026 0.67970 0.33944
 N1413 N 0.21522 0.69796 0.31476
 C1414 C 0.22763 0.72368 0.32039
 N1415 N 0.23309 0.73123 0.35188
 N1416 N 0.22777 0.71314 0.37662
 C1417 C 0.78414 0.82048 0.39209
 N1418 N 0.76301 0.81751 0.41458
 N1419 N 0.75820 0.83785 0.43648
 C1420 C 0.77440 0.86191 0.43670
 N1421 N 0.79565 0.86473 0.41433
 N1422 N 0.80029 0.84454 0.39227
 C1423 C 0.78745 0.79932 0.36609
 N1424 N 0.80198 0.80588 0.33828
 N1425 N 0.80072 0.78872 0.31243
 C1426 C 0.78516 0.76423 0.31359
 N1427 N 0.77191 0.75711 0.34207
 N1428 N 0.77300 0.77426 0.36779
 C1429 C 0.28350 0.32007 0.89341
 N1430 N 0.26207 0.31746 0.91558
 N1431 N 0.25749 0.33778 0.93756
 C1432 C 0.27421 0.36147 0.93819
 N1433 N 0.29577 0.36393 0.91616
 N1434 N 0.30020 0.34375 0.89403
 C1435 C 0.28655 0.29901 0.86728
 N1436 N 0.30174 0.30526 0.83984
 N1437 N 0.30033 0.28830 0.81382
 C1438 C 0.28395 0.26435 0.81441
 N1439 N 0.27000 0.25750 0.84253
 N1440 N 0.27125 0.27444 0.86842
 C1441 C 0.79755 0.40844 0.77975
 N1442 N 0.79386 0.42674 0.75373
 N1443 N 0.80647 0.45236 0.75338
 C1444 C 0.82306 0.46062 0.77913
 N1445 N 0.82629 0.44243 0.80527
 N1446 N 0.81391 0.41683 0.80552
 C1447 C 0.78644 0.37909 0.77901
 N1448 N 0.79751 0.35879 0.79984
 N1449 N 0.78982 0.33148 0.79732
 C1450 C 0.77061 0.32344 0.77402
 N1451 N 0.75872 0.34392 0.75398
 N1452 N 0.76664 0.37123 0.75625
 C1453 C 0.29720 0.90812 0.28039
 N1454 N 0.29347 0.92641 0.25437
 N1455 N 0.30610 0.95201 0.25397
 C1456 C 0.32276 0.96027 0.27967
 N1457 N 0.32601 0.94209 0.30582
 N1458 N 0.31361 0.91650 0.30612
 C1459 C 0.28609 0.87876 0.27967
 N1460 N 0.29730 0.85842 0.30034
 N1461 N 0.28962 0.83111 0.29778
 C1462 C 0.27030 0.82311 0.27459
 N1463 N 0.25826 0.84363 0.25472
 N1464 N 0.26618 0.87094 0.25702
 C1465 C 0.20774 0.90434 0.71399
 N1466 N 0.18480 0.91004 0.69405
 N1467 N 0.16831 0.93293 0.69893
 C1468 C 0.17440 0.95104 0.72371
 N1469 N 0.19787 0.94588 0.74291
 N1470 N 0.21432 0.92300 0.73808
 C1471 C 0.22106 0.87588 0.71425
 N1472 N 0.23855 0.86762 0.73958
 N1473 N 0.24599 0.84022 0.74381
 C1474 C 0.23585 0.82005 0.72315
 N1475 N 0.21962 0.82855 0.69686
 N1476 N 0.21210 0.85591 0.69266
 C1477 C 0.70839 0.40203 0.21371
 N1478 N 0.68478 0.40791 0.19491
 N1479 N 0.66877 0.43100 0.20051
 C1480 C 0.67603 0.44913 0.22486
 N1481 N 0.70014 0.44378 0.24290
 N1482 N 0.71610 0.42069 0.23737
 C1483 C 0.72141 0.37345 0.21336
 N1484 N 0.73969 0.36504 0.23789
 N1485 N 0.74703 0.33759 0.24177
 C1486 C 0.73601 0.31751 0.22156
 N1487 N 0.71896 0.32614 0.19603
 N1488 N 0.71153 0.35356 0.19219
 C1489 C 0.71310 0.58658 0.26589
 N1490 N 0.71218 0.57056 0.23838
 N1491 N 0.69550 0.54752 0.23690
 C1492 C 0.67918 0.53975 0.26286
 N1493 N 0.68067 0.55541 0.29059
 N1494 N 0.69721 0.57848 0.29203
 C1495 C 0.72734 0.61437 0.26572
 N1496 N 0.72107 0.63370 0.28911
 N1497 N 0.72985 0.66067 0.28620
 C1498 C 0.74498 0.66934 0.25968
 N1499 N 0.75278 0.64958 0.23737
 N1500 N 0.74381 0.62262 0.24009
 C1501 C 0.21078 0.08774 0.76394
 N1502 N 0.20956 0.07204 0.73619
 N1503 N 0.19261 0.04920 0.73447
 C1504 C 0.17630 0.04135 0.76042
 N1505 N 0.17808 0.05671 0.78835
 N1506 N 0.19488 0.07956 0.79003
 C1507 C 0.22540 0.11533 0.76417
 N1508 N 0.21942 0.13444 0.78789
 N1509 N 0.22854 0.16132 0.78541
 C1510 C 0.24377 0.17012 0.75902
 N1511 N 0.25131 0.15052 0.73639
 N1512 N 0.24198 0.12366 0.73867
 C1513 C 0.28963 0.10419 0.21754
 N1514 N 0.31758 0.10061 0.20951
 N1515 N 0.33232 0.07779 0.22038
 C1516 C 0.31962 0.05754 0.23943
 N1517 N 0.29151 0.06073 0.24690
 N1518 N 0.27675 0.08361 0.23606
 C1519 C 0.27539 0.13198 0.21136
 N1520 N 0.24908 0.13733 0.22386
 N1521 N 0.23849 0.16390 0.22384
 C1522 C 0.25380 0.18615 0.21136
 N1523 N 0.27966 0.18060 0.19783
 N1524 N 0.29024 0.15404 0.19781
 C1525 C 0.78959 0.60477 0.71745
 N1526 N 0.81731 0.60070 0.70874
 N1527 N 0.83193 0.57778 0.71956
 C1528 C 0.81933 0.55795 0.73926
 N1529 N 0.79145 0.56164 0.74744
 N1530 N 0.77680 0.58458 0.73661
 C1531 C 0.77562 0.63269 0.71132
 N1532 N 0.74941 0.63829 0.72396
 N1533 N 0.73907 0.66496 0.72397
 C1534 C 0.75454 0.68705 0.71140
 N1535 N 0.78029 0.68127 0.69774
 N1536 N 0.79062 0.65461 0.69767
 C1537 C 0.91008 0.74917 0.20311
 N1538 N 0.92875 0.72666 0.20499
 N1539 N 0.95322 0.72720 0.18815
 C1540 C 0.95981 0.75024 0.16885
 N1541 N 0.94126 0.77274 0.16755
 N1542 N 0.91695 0.77219 0.18419
 C1543 C 0.88153 0.74832 0.21825
 N1544 N 0.86161 0.76800 0.20846
 N1545 N 0.83487 0.76659 0.21924
 C1546 C 0.82689 0.74599 0.24102
 N1547 N 0.84689 0.72623 0.25104
 N1548 N 0.87375 0.72740 0.23993
 C1549 C 0.40970 0.24926 0.70482
 N1550 N 0.42797 0.22640 0.70619
 N1551 N 0.45247 0.22681 0.68941
 C1552 C 0.45951 0.25006 0.67066
 N1553 N 0.44137 0.27290 0.66987
 N1554 N 0.41702 0.27249 0.68647
 C1555 C 0.38111 0.24858 0.71991
 N1556 N 0.36158 0.26891 0.71088
 N1557 N 0.33476 0.26762 0.72145
 C1558 C 0.32632 0.24642 0.74224
 N1559 N 0.34595 0.22606 0.75154
 N1560 N 0.37287 0.22713 0.74064
 C1561 C 0.39836 0.74263 0.78441
 N1562 N 0.41174 0.76839 0.78371
 N1563 N 0.43429 0.77330 0.80313
 C1564 C 0.44475 0.75254 0.82374
 N1565 N 0.43190 0.72646 0.82395
 N1566 N 0.40903 0.72164 0.80474
 C1567 C 0.37062 0.73940 0.76689
 N1568 N 0.35193 0.71845 0.77563
 N1569 N 0.32494 0.71892 0.76427
 C1570 C 0.31562 0.74014 0.74345
 N1571 N 0.33467 0.76044 0.73385
 N1572 N 0.36157 0.76008 0.74531
 C1573 C 0.89748 0.24520 0.28259
 N1574 N 0.91745 0.22465 0.29022
 N1575 N 0.93978 0.23053 0.30999
 C1576 C 0.94242 0.25691 0.32356
 N1577 N 0.92238 0.27717 0.31567
 N1578 N 0.90063 0.27156 0.29546
 C1579 C 0.87138 0.23957 0.26292
 N1580 N 0.86130 0.26044 0.24222
 N1581 N 0.83452 0.25975 0.23056
 C1582 C 0.81643 0.23832 0.23933
 N1583 N 0.82679 0.21687 0.25923
 N1584 N 0.85379 0.21739 0.27067
 C1585 C 0.09063 0.26336 0.29517
 N1586 N 0.06903 0.24424 0.29058
 N1587 N 0.04479 0.24616 0.30774
 C1588 C 0.04125 0.26733 0.32998
 N1589 N 0.06282 0.28639 0.33418
 N1590 N 0.08694 0.28440 0.31729
 C1591 C 0.11848 0.26124 0.27833
 N1592 N 0.14083 0.27676 0.28979
 N1593 N 0.16647 0.27505 0.27606
 C1594 C 0.17093 0.25829 0.24970
 N1595 N 0.14860 0.24247 0.23820
 N1596 N 0.12280 0.24397 0.25221
 C1597 C 0.59252 0.76350 0.79666
 N1598 N 0.58850 0.78469 0.81854
 N1599 N 0.56466 0.78602 0.83604
 C1600 C 0.54378 0.76609 0.83269
 N1601 N 0.54766 0.74481 0.81070
 N1602 N 0.57158 0.74355 0.79295
 C1603 C 0.62005 0.76196 0.77917
 N1604 N 0.62443 0.74409 0.75361
 N1605 N 0.65004 0.74282 0.73917
 C1606 C 0.67212 0.75947 0.74966
 N1607 N 0.66761 0.77686 0.77546
 N1608 N 0.64214 0.77836 0.78962
 C1609 C 0.60961 0.23137 0.71242
 N1610 N 0.58965 0.25153 0.71956
 N1611 N 0.56507 0.25325 0.70259
 C1612 C 0.55922 0.23458 0.67823
 N1613 N 0.57884 0.21394 0.67163
 N1614 N 0.60353 0.21230 0.68848
 C1615 C 0.63874 0.23300 0.72675
 N1616 N 0.66053 0.21755 0.71392
 N1617 N 0.68754 0.22183 0.72363
 C1618 C 0.69391 0.24156 0.74668
 N1619 N 0.67207 0.25675 0.75986
 N1620 N 0.64503 0.25260 0.75003
 C1621 C 0.10896 0.73288 0.21287
 N1622 N 0.09000 0.75451 0.21771
 N1623 N 0.06578 0.75634 0.20012
 C1624 C 0.05928 0.73636 0.17739
 N1625 N 0.07785 0.71427 0.17312
 N1626 N 0.10222 0.71252 0.19059
 C1627 C 0.13792 0.73407 0.22774
 N1628 N 0.15919 0.71675 0.21698
 N1629 N 0.18624 0.72059 0.22686
 C1630 C 0.19314 0.74174 0.24798
 N1631 N 0.17177 0.75875 0.25916
 N1632 N 0.14472 0.75503 0.24920
   
