data_POSCAR
  _audit_creation_date              2014-09-24
  _audit_creation_method            'ToBaCCo'
  _symmetry_space_group_name_H-M    'P1'
  _symmetry_Int_Tables_number       1
  _symmetry_cell_setting            triclinic
  loop_
  _symmetry_equiv_pos_as_xyz
 x,y,z
_cell_length_a 47.3666
_cell_length_b 47.5122
_cell_length_c 45.2487
_cell_angle_alpha 86.215000
_cell_angle_beta 89.833900
_cell_angle_gamma 89.932900
loop_
  _atom_site_label
  _atom_site_type_symbol
  _atom_site_fract_x
  _atom_site_fract_y
  _atom_site_fract_z
C1 C 0.40278 0.00487 0.29074
 C2 C 0.38643 0.03195 0.28334
 C3 C 0.37003 0.03154 0.25711
 C4 C 0.37309 0.00388 0.24151
 C5 C 0.38083 -0.01867 0.29164
 C6 C 0.36505 -0.01955 0.26499
 C7 C 0.42061 0.00076 0.26330
 C8 C 0.40496 -0.00019 0.23686
 H9 H 0.38896 0.05030 0.29599
 H10 H 0.36013 0.00369 0.22117
 H11 H 0.37965 -0.03465 0.30977
 H12 H 0.44328 -0.00235 0.26409
 C13 C 0.10525 -0.00583 0.77434
 C14 C 0.11661 -0.03467 0.76772
 C15 C 0.13890 -0.03396 0.74703
 C16 C 0.14611 -0.00394 0.73467
 C17 C 0.13090 0.01106 0.78324
 C18 C 0.15286 0.01273 0.76167
 C19 C 0.09619 0.00713 0.74610
 C20 C 0.11768 0.00853 0.72365
 H21 H 0.10820 -0.05418 0.77799
 H22 H 0.16302 -0.00290 0.71759
 H23 H 0.13040 0.02296 0.80277
 H24 H 0.07463 0.01396 0.74242
 C25 C 0.59925 0.50159 0.25439
 C26 C 0.61449 0.47461 0.24751
 C27 C 0.63703 0.47871 0.22701
 C28 C 0.64016 0.50946 0.21512
 C29 C 0.62213 0.52162 0.26377
 C30 C 0.64417 0.52613 0.24263
 C31 C 0.58893 0.51415 0.22453
 C32 C 0.61093 0.51832 0.20320
 H33 H 0.60735 0.45418 0.25646
 H34 H 0.65743 0.51272 0.19854
 H35 H 0.62049 0.53210 0.28418
 H36 H 0.56683 0.51816 0.22009
 C37 C 0.89380 0.49933 0.80164
 C38 C 0.88073 0.52863 0.79911
 C39 C 0.85914 0.53210 0.77781
 C40 C 0.85367 0.50541 0.76134
 C41 C 0.86922 0.47901 0.80727
 C42 C 0.84781 0.48168 0.78524
 C43 C 0.90405 0.49433 0.77039
 C44 C 0.88248 0.49770 0.74858
 H45 H 0.88832 0.54585 0.81150
 H46 H 0.83690 0.50766 0.74430
 H47 H 0.86972 0.46277 0.82513
 H48 H 0.92591 0.48994 0.76552
 C49 C 0.29205 0.40076 1.00508
 C50 C 0.28879 0.37691 1.02920
 C51 C 0.26416 0.36037 1.02632
 C52 C 0.24671 0.36931 0.99869
 C53 C 0.29155 0.38658 0.97601
 C54 C 0.26795 0.36894 0.97265
 C55 C 0.26459 0.41732 1.00531
 C56 C 0.24012 0.40074 1.00214
 H57 H 0.30318 0.37386 1.04771
 H58 H 0.22789 0.35619 0.99551
 H59 H 0.30874 0.38833 0.96012
 H60 H 0.26373 0.43970 1.00858
 C61 C 0.77364 0.09617 1.00196
 C62 C 0.76921 0.10672 0.96961
 C63 C 0.74881 0.12843 0.96553
 C64 C 0.73537 0.13625 0.99488
 C65 C 0.78059 0.12241 1.01813
 C66 C 0.76002 0.14409 1.01470
 C67 C 0.74606 0.08701 1.01268
 C68 C 0.72438 0.10794 1.00887
 H69 H 0.77964 0.09743 0.95125
 H70 H 0.71891 0.15287 0.99266
 H71 H 0.79848 0.12286 1.03285
 H72 H 0.74212 0.06536 1.02048
 C73 C 0.26019 0.58702 0.49716
 C74 C 0.25357 0.60494 0.46862
 C75 C 0.23425 0.62728 0.47281
 C76 C 0.22380 0.62791 0.50479
 C77 C 0.26997 0.60767 0.51929
 C78 C 0.25051 0.62969 0.52363
 C79 C 0.23169 0.57643 0.50864
 C80 C 0.21173 0.59831 0.51216
 H81 H 0.26346 0.60132 0.44765
 H82 H 0.20837 0.64509 0.50814
 H83 H 0.29038 0.60566 0.52984
 H84 H 0.22636 0.55426 0.50969
 C85 C 0.78458 0.91149 0.49742
 C86 C 0.78147 0.89005 0.52384
 C87 C 0.75572 0.87495 0.52429
 C88 C 0.73693 0.88271 0.49737
 C89 C 0.78105 0.89446 0.47046
 C90 C 0.75597 0.87834 0.47045
 C91 C 0.75837 0.93017 0.49765
 C92 C 0.73258 0.91488 0.49796
 H93 H 0.79720 0.88714 0.54112
 H94 H 0.71752 0.86992 0.49657
 H95 H 0.79606 0.89583 0.45240
 H96 H 0.75936 0.95286 0.49872
 C97 C -0.01583 0.30255 0.38578
 C98 C 0.01347 0.30723 0.37206
 C99 C 0.02253 0.28522 0.35448
 C100 C 0.00066 0.26130 0.35363
 C101 C -0.03452 0.29833 0.36116
 C102 C -0.02665 0.27610 0.34313
 C103 C -0.01401 0.27396 0.40337
 C104 C -0.00474 0.25170 0.38620
 H105 H 0.02599 0.32589 0.37511
 H106 H 0.00664 0.24365 0.34005
 H107 H -0.05433 0.30960 0.35852
 H108 H -0.01918 0.27137 0.42667
 C109 C -0.01331 0.75874 0.10465
 C110 C -0.03688 0.75710 0.12766
 C111 C -0.03389 0.73475 0.14984
 C112 C -0.00759 0.71659 0.14532
 C113 C 0.01369 0.76035 0.12293
 C114 C 0.01708 0.73755 0.14457
 C115 C -0.01282 0.72976 0.09187
 C116 C -0.00978 0.70695 0.11367
 H117 H -0.05486 0.77117 0.12613
 H118 H -0.00519 0.69896 0.16255
 H119 H 0.02922 0.77682 0.11893
 H120 H -0.01454 0.72728 0.06837
 C121 C 0.48840 0.26167 0.60101
 C122 C 0.46390 0.26588 0.62198
 C123 C 0.46235 0.24600 0.64656
 C124 C 0.48620 0.22387 0.64677
 C125 C 0.51458 0.26162 0.62070
 C126 C 0.51356 0.24150 0.64553
 C127 C 0.48554 0.23151 0.59217
 C128 C 0.48438 0.21089 0.61643
 H129 H 0.44926 0.28338 0.61882
 H130 H 0.48543 0.20797 0.66586
 H131 H 0.53254 0.27495 0.61565
 H132 H 0.48601 0.22675 0.56916
 C133 C 0.49033 0.78972 0.89519
 C134 C 0.51527 0.79878 0.87528
 C135 C 0.52077 0.78060 0.85228
 C136 C 0.49934 0.75619 0.85180
 C137 C 0.46560 0.78811 0.87397
 C138 C 0.46998 0.77016 0.85074
 C139 C 0.49602 0.76087 0.90597
 C140 C 0.50094 0.74170 0.88328
 H141 H 0.52866 0.81658 0.87933
 H142 H 0.50284 0.74157 0.83408
 H143 H 0.44563 0.79866 0.87726
 H144 H 0.49598 0.75477 0.92941
 C145 C -0.22572 0.65317 0.97569
 C146 C -0.20019 0.63451 0.98310
 C147 C -0.20530 0.61308 1.00583
 C148 C -0.23534 0.61377 1.01833
 C149 C -0.24939 0.63302 0.96865
 C150 C -0.25486 0.61182 0.99157
 C151 C -0.23434 0.66502 1.00493
 C152 C -0.23955 0.64382 1.02799
 H153 H -0.17973 0.63872 0.97311
 H154 H -0.23938 0.59713 1.03629
 H155 H -0.26068 0.63523 0.94791
 H156 H -0.23515 0.68742 1.00778
 C157 C -0.25545 0.34571 0.46841
 C158 C -0.28428 0.35907 0.47338
 C159 C -0.28352 0.38187 0.49209
 C160 C -0.25391 0.38737 0.50390
 C161 C -0.23652 0.37011 0.45720
 C162 C -0.23503 0.39237 0.47636
 C163 C -0.24512 0.33677 0.49777
 C164 C -0.24421 0.35874 0.51797
 H165 H -0.30362 0.35006 0.46557
 H166 H -0.25379 0.40457 0.51930
 H167 H -0.22347 0.36935 0.43753
 H168 H -0.24008 0.31497 0.50395
 C169 C 0.26104 -0.15191 -0.03940
 C170 C 0.23140 -0.13960 -0.03902
 C171 C 0.22746 -0.11879 -0.01866
 C172 C 0.25422 -0.11323 -0.00095
 C173 C 0.28067 -0.12657 -0.04481
 C174 C 0.27731 -0.10570 -0.02394
 C175 C 0.26655 -0.16284 -0.00921
 C176 C 0.26308 -0.14246 0.01255
 H177 H 0.21440 -0.14698 -0.05253
 H178 H 0.25165 -0.09716 0.01558
 H179 H 0.29735 -0.12652 -0.06115
 H180 H 0.27255 -0.18456 -0.00398
 C181 C 0.26582 1.16062 0.47641
 C182 C 0.29084 1.14074 0.48232
 C183 C 0.28578 1.11925 0.50500
 C184 C 0.25641 1.12092 0.51880
 C185 C 0.24092 1.14159 0.47017
 C186 C 0.23563 1.12026 0.49299
 C187 C 0.25908 1.17224 0.50643
 C188 C 0.25412 1.15079 0.52934
 H189 H 0.31114 1.14430 0.47172
 H190 H 0.25245 1.10411 0.53662
 H191 H 0.22865 1.14457 0.45010
 H192 H 0.25941 1.19454 0.50991
 C193 C 0.13955 0.53111 0.24730
 C194 C 0.11543 0.52136 0.22811
 C195 C 0.10452 0.49439 0.23764
 C196 C 0.11909 0.48127 0.26534
 C197 C 0.12759 0.53012 0.27850
 C198 C 0.11597 0.50361 0.28828
 C199 C 0.16145 0.50752 0.24763
 C200 C 0.15062 0.48063 0.25696
 H201 H 0.10909 0.53294 0.20781
 H202 H 0.10998 0.46066 0.27330
 H203 H 0.12655 0.54886 0.29075
 H204 H 0.18267 0.51050 0.23900
 C205 C -0.15557 1.02487 0.25779
 C206 C -0.13784 1.02077 0.28594
 C207 C -0.11731 0.99902 0.28487
 C208 C -0.11791 0.98437 0.25579
 C209 C -0.13435 1.02951 0.23250
 C210 C -0.11386 1.00788 0.23135
 C211 C -0.16842 0.99779 0.25378
 C212 C -0.14877 0.97497 0.25278
 H213 H -0.14017 1.03421 0.30417
 H214 H -0.10227 0.96695 0.25489
 H215 H -0.13559 1.04770 0.21692
 H216 H -0.19109 0.99513 0.25371
 C217 C 0.36198 0.52126 -0.23702
 C218 C 0.38957 0.51408 -0.22114
 C219 C 0.40074 0.48737 -0.22724
 C220 C 0.38271 0.47170 -0.24889
 C221 C 0.36852 0.51884 -0.26969
 C222 C 0.38016 0.49244 -0.27627
 C223 C 0.34219 0.49676 -0.22826
 C224 C 0.35290 0.47004 -0.23508
 H225 H 0.39843 0.52717 -0.20480
 H226 H 0.39237 0.45131 -0.25388
 H227 H 0.36595 0.53660 -0.28564
 H228 H 0.32159 0.49954 -0.21838
 C229 C 0.65029 0.03081 -0.25818
 C230 C 0.62775 0.02420 -0.28079
 C231 C 0.60891 0.00243 -0.27041
 C232 C 0.61542 -0.00952 -0.23898
 C233 C 0.63422 0.03744 -0.23025
 C234 C 0.61567 0.01570 -0.21970
 C235 C 0.66499 0.00263 -0.25053
 C236 C 0.64610 -0.01933 -0.24076
 H237 H 0.62658 0.03509 -0.30252
 H238 H 0.60066 -0.02653 -0.23082
 H239 H 0.63866 0.05596 -0.21838
 H240 H 0.68702 -0.00067 -0.25557
 C241 C 0.02167 0.25460 0.85483
 C242 C 0.01975 0.27683 0.87774
 C243 C -0.00363 0.27332 0.89732
 C244 C -0.02211 0.24815 0.89057
 C245 C 0.02175 0.22642 0.87353
 C246 C -0.00200 0.22286 0.89275
 C247 C -0.00501 0.25594 0.83908
 C248 C -0.02945 0.25249 0.85756
 H249 H 0.03472 0.29396 0.87828
 H250 H -0.04079 0.24549 0.90546
 H251 H 0.03803 0.21067 0.87168
 H252 H -0.00590 0.25876 0.81518
 C253 C 0.53104 0.24565 0.14400
 C254 C 0.52643 0.22204 0.12329
 C255 C 0.50209 0.22558 0.10522
 C256 C 0.48548 0.25244 0.11080
 C257 C 0.53165 0.27250 0.12361
 C258 C 0.50720 0.27634 0.10564
 C259 C 0.50380 0.24713 0.16188
 C260 C 0.47909 0.25044 0.14438
 H261 H 0.53981 0.20355 0.12371
 H262 H 0.46697 0.25541 0.09604
 H263 H 0.54890 0.28739 0.12365
 H264 H 0.50330 0.24481 0.18586
 C265 C 0.02804 0.74577 0.63239
 C266 C 0.02412 0.72420 0.60924
 C267 C 0.00006 0.72885 0.59102
 C268 C -0.01695 0.75481 0.59880
 C269 C 0.02843 0.77419 0.61463
 C270 C 0.00410 0.77938 0.59683
 C271 C 0.00033 0.74513 0.65002
 C272 C -0.02398 0.74990 0.63185
 H273 H 0.03715 0.70551 0.60892
 H274 H -0.03579 0.75866 0.58446
 H275 H 0.04462 0.78979 0.61764
 H276 H -0.00041 0.74106 0.67381
 C277 C 0.52598 0.75507 0.35840
 C278 C 0.52314 0.77553 0.38277
 C279 C 0.50026 0.76940 0.40259
 C280 C 0.48328 0.74329 0.39487
 C281 C 0.52814 0.72615 0.37475
 C282 C 0.50536 0.71943 0.39424
 C283 C 0.49745 0.75562 0.34301
 C284 C 0.47428 0.74948 0.36242
 H285 H 0.53624 0.79411 0.38329
 H286 H 0.46530 0.73867 0.41019
 H287 H 0.54592 0.71213 0.37217
 H288 H 0.49559 0.76086 0.31950
 B289 B -0.00644 0.00824 1.03641
 B290 B -0.02514 0.00508 1.00546
 B291 B 0.00307 0.02647 1.00512
 B292 B 0.02797 0.01148 1.02758
 B293 B 0.01479 -0.02007 1.04167
 B294 B -0.01862 -0.02374 1.02812
 B295 B 0.01831 -0.02162 0.98158
 B296 B 0.03703 -0.01861 1.01260
 B297 B 0.00880 -0.03999 1.01293
 B298 B -0.01616 -0.02502 0.99047
 B299 B -0.00279 0.00658 0.97639
 B300 B 0.03046 0.01019 0.99006
 B301 B 0.47557 0.49801 0.51648
 B302 B 0.45822 0.49619 0.48451
 B303 B 0.48358 0.52028 0.48747
 B304 B 0.50969 0.50620 0.50899
 B305 B 0.50000 0.47223 0.51918
 B306 B 0.46747 0.46626 0.50414
 B307 B 0.50474 0.47720 0.45903
 B308 B 0.52238 0.47928 0.49073
 B309 B 0.49702 0.45505 0.48797
 B310 B 0.47084 0.46913 0.46646
 B311 B 0.48071 0.50306 0.45628
 B312 B 0.51296 0.50899 0.47116
 B313 B 0.49842 0.95781 0.55735
 B314 B 0.52155 0.96703 0.53035
 B315 B 0.49471 0.94528 0.52398
 B316 B 0.46590 0.95540 0.54264
 B317 B 0.47551 0.98448 0.56075
 B318 B 0.51048 0.99132 0.55321
 B319 B 0.48142 0.99710 0.50130
 B320 B 0.45834 0.98803 0.52822
 B321 B 0.48511 1.00974 0.53470
 B322 B 0.51381 0.99962 0.51597
 B323 B 0.50430 0.97046 0.49799
 B324 B 0.46949 0.96368 0.50542
 B325 B 0.00800 0.45419 1.06118
 B326 B 0.03225 0.45992 1.03447
 B327 B 0.00423 0.43947 1.02891
 B328 B -0.02429 0.45282 1.04556
 B329 B -0.01323 0.48260 1.06150
 B330 B 0.02224 0.48665 1.05482
 B331 B -0.00510 0.49047 1.00182
 B332 B -0.02937 0.48484 1.02839
 B333 B -0.00148 0.50533 1.03406
 B334 B 0.02696 0.49203 1.01735
 B335 B 0.01603 0.46217 1.00148
 B336 B -0.01930 0.45815 1.00814
 B337 B -0.00645 0.51522 0.47780
 B338 B 0.01193 0.51138 0.50938
 B339 B -0.01303 0.53642 0.50534
 B340 B -0.04011 0.52402 0.48584
 B341 B -0.03149 0.49031 0.47815
 B342 B 0.00117 0.48264 0.49277
 B343 B -0.03435 0.49235 0.53825
 B344 B -0.05293 0.49630 0.50686
 B345 B -0.02798 0.47137 0.51080
 B346 B -0.00095 0.48382 0.53020
 B347 B -0.00952 0.51746 0.53800
 B348 B -0.04218 0.52501 0.52356
 B349 B 0.51530 0.02120 -0.02249
 B350 B 0.52593 0.01874 0.01281
 B351 B 0.49815 0.03910 0.00279
 B352 B 0.47982 0.02342 -0.02345
 B353 B 0.49669 -0.00766 -0.02921
 B354 B 0.52545 -0.01029 -0.00656
 B355 B 0.47862 -0.00982 0.02826
 B356 B 0.46803 -0.00707 -0.00718
 B357 B 0.49571 -0.02760 0.00308
 B358 B 0.51415 -0.01178 0.02918
 B359 B 0.49733 0.01918 0.03505
 B360 B 0.46835 0.02176 0.01254
 B361 B 0.51522 0.48140 -0.05397
 B362 B 0.49346 0.48461 -0.02523
 B363 B 0.52393 0.46703 -0.02043
 B364 B 0.54884 0.48330 -0.04234
 B365 B 0.53286 0.51187 -0.06047
 B366 B 0.49819 0.51225 -0.04992
 B367 B 0.53065 0.51871 -0.00111
 B368 B 0.55228 0.51571 -0.03001
 B369 B 0.52171 0.53315 -0.03442
 B370 B 0.49697 0.51690 -0.01277
 B371 B 0.51285 0.48850 0.00544
 B372 B 0.54754 0.48792 -0.00519
 B373 B -0.00789 1.00382 0.47885
 B374 B -0.02088 1.00752 0.51293
 B375 B 0.00744 0.98697 0.50833
 B376 B 0.02764 1.00184 0.48067
 B377 B 0.01119 1.03236 0.46832
 B378 B -0.01916 1.03569 0.48833
 B379 B 0.02524 1.03665 0.52635
 B380 B 0.03820 1.03295 0.49241
 B381 B 0.00993 1.05336 0.49694
 B382 B -0.01021 1.03858 0.52449
 B383 B 0.00613 1.00799 0.53701
 B384 B 0.03651 1.00465 0.51697
 B385 B 0.77382 0.25492 0.19745
 B386 B 0.77411 0.23092 0.22616
 B387 B 0.79492 0.25934 0.22639
 B388 B 0.77770 0.28729 0.21012
 B389 B 0.74520 0.27551 0.20009
 B390 B 0.74329 0.24014 0.20987
 B391 B 0.74963 0.26787 0.26027
 B392 B 0.74942 0.29194 0.23159
 B393 B 0.72857 0.26364 0.23140
 B394 B 0.74568 0.23565 0.24764
 B395 B 0.77819 0.24736 0.25768
 B396 B 0.78014 0.28271 0.24791
 B397 B 0.72676 0.76517 0.70944
 B398 B 0.73378 0.78296 0.73930
 B399 B 0.71135 0.75557 0.74196
 B400 B 0.72317 0.73063 0.72002
 B401 B 0.75377 0.74308 0.70385
 B402 B 0.76000 0.77594 0.71572
 B403 B 0.76156 0.73814 0.76370
 B404 B 0.75473 0.72028 0.73385
 B405 B 0.77700 0.74781 0.73124
 B406 B 0.76521 0.77255 0.75312
 B407 B 0.73467 0.76012 0.76937
 B408 B 0.72835 0.72728 0.75743
 B409 B 0.26528 0.24975 0.79682
 B410 B 0.26731 0.26859 0.76415
 B411 B 0.28689 0.23920 0.77022
 B412 B 0.26774 0.21517 0.79086
 B413 B 0.23565 0.23017 0.79712
 B414 B 0.23576 0.26367 0.78084
 B415 B 0.24175 0.22675 0.73754
 B416 B 0.23970 0.20796 0.77004
 B417 B 0.22027 0.23721 0.76403
 B418 B 0.23922 0.26131 0.74347
 B419 B 0.27127 0.24622 0.73698
 B420 B 0.27132 0.21288 0.75348
 B421 B 0.22760 0.74577 0.27773
 B422 B 0.23524 0.72904 0.24727
 B423 B 0.21297 0.75665 0.24525
 B424 B 0.22435 0.78061 0.26850
 B425 B 0.25444 0.76740 0.28472
 B426 B 0.26093 0.73508 0.27163
 B427 B 0.26366 0.77438 0.22498
 B428 B 0.25629 0.79123 0.25554
 B429 B 0.27831 0.76364 0.25754
 B430 B 0.26699 0.73969 0.23445
 B431 B 0.23685 0.75286 0.21806
 B432 B 0.23031 0.78527 0.23125
 B433 B 0.27699 0.73948 0.70349
 B434 B 0.27125 0.72062 0.73553
 B435 B 0.29445 0.74736 0.73399
 B436 B 0.28203 0.77354 0.71044
 B437 B 0.25024 0.76251 0.69762
 B438 B 0.24402 0.72923 0.71312
 B439 B 0.24602 0.76529 0.75752
 B440 B 0.25158 0.78419 0.72545
 B441 B 0.22850 0.75718 0.72705
 B442 B 0.24094 0.73128 0.75055
 B443 B 0.27262 0.74231 0.76339
 B444 B 0.27908 0.77551 0.74787
 B445 B 0.22365 0.25596 0.20746
 B446 B 0.23035 0.28065 0.23128
 B447 B 0.21055 0.25263 0.24188
 B448 B 0.22332 0.22399 0.22614
 B449 B 0.25202 0.23495 0.20557
 B450 B 0.25606 0.27055 0.20854
 B451 B 0.26290 0.24401 0.26334
 B452 B 0.25614 0.21933 0.23967
 B453 B 0.27603 0.24731 0.22887
 B454 B 0.26327 0.27592 0.24476
 B455 B 0.23448 0.26493 0.26538
 B456 B 0.23036 0.22954 0.26233
 B457 B 0.75761 0.76064 0.28445
 B458 B 0.75837 0.77825 0.25112
 B459 B 0.77984 0.75050 0.25810
 B460 B 0.76265 0.72600 0.28009
 B461 B 0.72959 0.73908 0.28610
 B462 B 0.72731 0.77185 0.26818
 B463 B 0.73560 0.73357 0.22679
 B464 B 0.73498 0.71604 0.26013
 B465 B 0.71363 0.74373 0.25291
 B466 B 0.73078 0.76818 0.23112
 B467 B 0.76369 0.75514 0.22491
 B468 B 0.76608 0.72236 0.24283
 B469 B 0.72149 0.24499 0.77644
 B470 B 0.72614 0.23311 0.74266
 B471 B 0.70744 0.26261 0.74678
 B472 B 0.72239 0.28064 0.77356
 B473 B 0.75099 0.26158 0.78609
 B474 B 0.75324 0.23180 0.76696
 B475 B 0.75951 0.27723 0.72758
 B476 B 0.75498 0.28922 0.76117
 B477 B 0.77351 0.25977 0.75726
 B478 B 0.75866 0.24176 0.73044
 B479 B 0.72994 0.26081 0.71791
 B480 B 0.72793 0.29055 0.73704
 C481 C 0.42069 1.00502 0.31816
 C482 C 0.41157 1.01603 0.34435
 C483 C 0.43028 1.01648 0.37021
 N484 N 0.42054 1.02564 0.39613
 N485 N 0.43717 1.02512 0.41989
 C486 C 0.46420 1.01565 0.41847
 N487 N 0.47401 1.00689 0.39245
 N488 N 0.45740 1.00738 0.36876
 C489 C 0.48170 1.01135 0.44511
 C490 C 0.47132 1.01589 0.47322
 H491 H 0.39042 1.02452 0.34585
 H492 H 0.50142 1.00010 0.44289
 H493 H 0.44130 0.99516 0.31760
 H494 H 0.45220 1.02811 0.47534
 C495 C -0.08354 0.49633 0.82490
 C496 C -0.08812 0.50562 0.85311
 C497 C -0.06627 0.50484 0.87603
 N498 N -0.07133 0.51712 0.90173
 N499 N -0.05217 0.51592 0.92324
 C500 C -0.02719 0.50249 0.91977
 N501 N -0.02203 0.49039 0.89395
 N502 N -0.04116 0.49168 0.87237
 C503 C -0.00766 0.49769 0.94471
 C504 C -0.01336 0.50793 0.97227
 H505 H -0.10839 0.51468 0.85833
 H506 H 0.00875 0.48205 0.94258
 H507 H -0.06356 0.48673 0.81959
 H508 H -0.02889 0.52449 0.97395
 C509 C 0.08305 -0.00811 0.79830
 C510 C 0.08971 -0.02212 0.82546
 C511 C 0.07017 -0.02576 0.85049
 N512 N 0.07952 -0.03865 0.87622
 N513 N 0.06281 -0.04116 0.89989
 C514 C 0.03602 -0.03104 0.89865
 N515 N 0.02645 -0.01859 0.87271
 N516 N 0.04322 -0.01601 0.84898
 C517 C 0.01877 -0.03055 0.92559
 C518 C 0.03103 -0.03499 0.95351
 H519 H 0.11077 -0.03072 0.82867
 H520 H -0.00251 -0.02229 0.92348
 H521 H 0.06235 0.00117 0.79461
 H522 H 0.05257 -0.04229 0.95484
 C523 C 0.57665 0.49667 0.27749
 C524 C 0.58317 0.48228 0.30444
 C525 C 0.56308 0.47858 0.32895
 N526 N 0.57168 0.46578 0.35504
 N527 N 0.55432 0.46362 0.37823
 C528 C 0.52768 0.47408 0.37609
 N529 N 0.51892 0.48650 0.34985
 N530 N 0.53631 0.48869 0.32663
 C531 C 0.50953 0.47480 0.40225
 C532 C 0.51956 0.46694 0.43051
 H533 H 0.60435 0.47414 0.30806
 H534 H 0.48912 0.48492 0.39950
 H535 H 0.55588 0.50577 0.27379
 H536 H 0.53964 0.45622 0.43313
 C537 C 0.60718 0.52805 0.17366
 C538 C 0.58125 0.53658 0.16147
 C539 C 0.57741 0.54056 0.12928
 N540 N 0.55119 0.54499 0.11789
 N541 N 0.54694 0.54525 0.08878
 C542 C 0.56882 0.54119 0.07006
 N543 N 0.59510 0.53745 0.08141
 N544 N 0.59934 0.53718 0.11047
 C545 C 0.56414 0.53663 0.03876
 C546 C 0.53734 0.53647 0.02628
 H547 H 0.56272 0.53833 0.17521
 H548 H 0.58190 0.52874 0.02687
 H549 H 0.62551 0.52800 0.15930
 H550 H 0.51954 0.54436 0.03833
 C551 C 0.11426 1.01875 0.69545
 C552 C 0.08954 1.03157 0.68431
 C553 C 0.08533 1.03796 0.65238
 N554 N 0.06092 1.05020 0.64251
 N555 N 0.05553 1.05348 0.61360
 C556 C 0.07440 1.04469 0.59351
 N557 N 0.09902 1.03293 0.60337
 N558 N 0.10443 1.02970 0.63226
 C559 C 0.06687 1.04358 0.56216
 C560 C 0.04061 1.05247 0.55132
 H561 H 0.07217 1.03618 0.69876
 H562 H 0.08023 1.03085 0.54898
 H563 H 0.13183 1.01672 0.68036
 H564 H 0.02759 1.06578 0.56433
 C565 C -0.11373 0.49519 0.71822
 C566 C -0.08892 0.48548 0.70561
 C567 C -0.08504 0.48606 0.67336
 N568 N -0.06222 0.47337 0.66184
 N569 N -0.05758 0.47516 0.63273
 C570 C -0.07557 0.48979 0.61410
 N571 N -0.09845 0.50235 0.62561
 N572 N -0.10317 0.50044 0.65469
 C573 C -0.06927 0.49445 0.58241
 C574 C -0.04698 0.48095 0.56899
 H575 H -0.07177 0.47726 0.71933
 H576 H -0.08118 0.51065 0.56993
 H577 H -0.13132 0.50089 0.70378
 H578 H -0.03549 0.46435 0.58132
 C579 C 0.41855 -0.00642 0.21061
 C580 C 0.40510 -0.01056 0.18384
 C581 C 0.42158 -0.01756 0.15763
 N582 N 0.40904 -0.01806 0.13074
 N583 N 0.42426 -0.02282 0.10674
 C584 C 0.45252 -0.02752 0.10883
 N585 N 0.46491 -0.02755 0.13578
 N586 N 0.44974 -0.02273 0.15971
 C587 C 0.47041 -0.02894 0.08240
 C588 C 0.45975 -0.02400 0.05389
 H589 H 0.38250 -0.00835 0.18152
 H590 H 0.49304 -0.02919 0.08580
 H591 H 0.44131 -0.00877 0.21150
 H592 H 0.43718 -0.02434 0.05060
 C593 C 0.31777 0.41875 0.00850
 C594 C 0.34479 0.40767 0.00580
 C595 C 0.36995 0.42566 0.00359
 N596 N 0.39459 0.41495 -0.00602
 N597 N 0.41729 0.43130 -0.00968
 C598 C 0.41620 0.45894 -0.00379
 N599 N 0.39166 0.46957 0.00626
 N600 N 0.36887 0.45325 0.00974
 C601 C 0.44117 0.47706 -0.00796
 C602 C 0.46461 0.46823 -0.02349
 H603 H 0.34728 0.38540 0.00255
 H604 H 0.44111 0.49744 0.00143
 H605 H 0.31512 0.44109 0.01119
 H606 H 0.46395 0.44812 -0.03339
 C607 C -0.18756 0.92658 0.49652
 C608 C -0.17742 0.94211 0.51926
 C609 C -0.14728 0.94955 0.51963
 N610 N -0.13774 0.97129 0.53488
 N611 N -0.11039 0.97809 0.53422
 C612 C -0.09169 0.96309 0.51863
 N613 N -0.10121 0.94109 0.50398
 N614 N -0.12844 0.93448 0.50443
 C615 C -0.06183 0.97073 0.51576
 C616 C -0.05111 0.99651 0.52333
 H617 H -0.19120 0.94769 0.53710
 H618 H -0.04860 0.95658 0.50411
 H619 H -0.17341 0.92286 0.47830
 H620 H -0.06466 1.01093 0.53436
 C621 C -0.20341 0.07419 1.00632
 C622 C -0.17717 0.07854 0.99275
 C623 C -0.15215 0.06116 0.99974
 N624 N -0.12902 0.06461 0.98223
 N625 N -0.10548 0.05026 0.98865
 C626 C -0.10402 0.03202 1.01299
 N627 N -0.12715 0.02861 1.03069
 N628 N -0.15086 0.04288 1.02413
 C629 C -0.07745 0.01707 1.02042
 C630 C -0.05578 0.01690 0.99958
 H631 H -0.17453 0.09620 0.97657
 H632 H -0.07472 0.00683 1.04232
 H633 H -0.20607 0.05696 1.02301
 H634 H -0.06008 0.02494 0.97710
 C635 C 0.28131 0.56377 0.49409
 C636 C 0.30690 0.56910 0.47972
 C637 C 0.33125 0.55022 0.48360
 N638 N 0.35443 0.55529 0.46655
 N639 N 0.37758 0.53980 0.47101
 C640 C 0.37857 0.51877 0.49283
 N641 N 0.35536 0.51365 0.50997
 N642 N 0.33205 0.52909 0.50538
 C643 C 0.40489 0.50293 0.49857
 C644 C 0.42720 0.50649 0.47870
 H645 H 0.30989 0.58881 0.46666
 H646 H 0.40717 0.48969 0.51884
 H647 H 0.27860 0.54424 0.50758
 H648 H 0.42398 0.51895 0.45806
 C649 C 0.18279 0.59365 0.51613
 C650 C 0.17135 0.56698 0.52314
 C651 C 0.14163 0.56057 0.51771
 N652 N 0.13066 0.53556 0.52837
 N653 N 0.10434 0.52849 0.52179
 C654 C 0.08820 0.54601 0.50393
 N655 N 0.09921 0.57097 0.49316
 N656 N 0.12547 0.57814 0.49993
 C657 C 0.05917 0.53856 0.49649
 C658 C 0.04452 0.51734 0.51268
 H659 H 0.18462 0.54970 0.53146
 H660 H 0.04883 0.55133 0.47915
 H661 H 0.16862 0.61140 0.51209
 H662 H 0.05539 0.50503 0.53016
 C663 C 0.69660 0.10354 0.01352
 C664 C 0.68477 0.07815 0.02507
 C665 C 0.65424 0.07272 0.02305
 N666 N 0.64295 0.04882 0.03628
 N667 N 0.61576 0.04268 0.03263
 C668 C 0.59895 0.06018 0.01546
 N669 N 0.61022 0.08410 0.00237
 N670 N 0.63731 0.09030 0.00615
 C671 C 0.56963 0.05277 0.00887
 C672 C 0.55549 0.03008 0.02329
 H673 H 0.69783 0.06126 0.03462
 H674 H 0.55971 0.06493 -0.00916
 H675 H 0.68234 0.12063 0.00687
 H676 H 0.56578 0.01821 0.04147
 C677 C 0.70651 0.92866 0.50032
 C678 C 0.68092 0.91456 0.50546
 C679 C 0.65395 0.92940 0.50907
 N680 N 0.63099 0.91454 0.51896
 N681 N 0.60626 0.92732 0.52221
 C682 C 0.60347 0.95548 0.51559
 N683 N 0.62641 0.97038 0.50557
 N684 N 0.65124 0.95760 0.50246
 C685 C 0.57585 0.96948 0.51815
 C686 C 0.55282 0.95525 0.53129
 H687 H 0.68021 0.89187 0.50849
 H688 H 0.57346 0.99091 0.50878
 H689 H 0.70647 0.95151 0.49940
 H690 H 0.55596 0.93414 0.54115
 C691 C 0.21344 0.41318 1.00378
 C692 C 0.18800 0.39848 1.00669
 C693 C 0.16127 0.41376 1.01037
 N694 N 0.13816 0.40004 1.02176
 N695 N 0.11414 0.41398 1.02573
 C696 C 0.11235 0.44213 1.01838
 N697 N 0.13534 0.45575 1.00672
 N698 N 0.15938 0.44188 1.00295
 C699 C 0.08577 0.45770 1.02137
 C700 C 0.06264 0.44619 1.03690
 H701 H 0.18755 0.37570 1.00844
 H702 H 0.08419 0.47846 1.01008
 H703 H 0.21275 0.43592 1.00461
 H704 H 0.06473 0.42586 1.04894
 C705 C -0.02568 0.32637 0.40385
 C706 C -0.01411 0.33187 0.43123
 C707 C -0.02455 0.35532 0.44810
 N708 N -0.01103 0.36242 0.47297
 N709 N -0.01966 0.38446 0.48746
 C710 C -0.04232 0.40001 0.47777
 N711 N -0.05607 0.39258 0.45323
 N712 N -0.04743 0.37065 0.43874
 C713 C -0.04990 0.42667 0.49060
 C714 C -0.03359 0.43848 0.51222
 H715 H 0.00308 0.31894 0.44021
 H716 H -0.06529 0.43970 0.47851
 H717 H -0.04184 0.34047 0.39457
 H718 H -0.01870 0.42527 0.52486
 C719 C 0.48350 -0.19063 -0.08073
 C720 C 0.50385 -0.17708 -0.06456
 C721 C 0.49638 -0.15330 -0.04657
 N722 N 0.51703 -0.13837 -0.03400
 N723 N 0.51081 -0.11521 -0.02019
 C724 C 0.48368 -0.10608 -0.01834
 N725 N 0.46298 -0.12128 -0.03048
 N726 N 0.46920 -0.14443 -0.04431
 C727 C 0.47688 -0.07867 -0.00644
 C728 C 0.49800 -0.06088 0.00278
 H729 H 0.52593 -0.18226 -0.06724
 H730 H 0.45527 -0.07156 -0.00773
 H731 H 0.46145 -0.18625 -0.07649
 H732 H 0.51915 -0.06935 0.00553
 C733 C -0.01778 -0.21697 1.08179
 C734 C 0.00426 -0.20349 1.06602
 C735 C 0.00047 -0.17569 1.05006
 N736 N 0.02342 -0.15956 1.04297
 N737 N 0.02041 -0.13330 1.03116
 C738 C -0.00567 -0.12219 1.02582
 N739 N -0.02863 -0.13855 1.03223
 N740 N -0.02563 -0.16476 1.04428
 C741 C -0.00915 -0.09243 1.01503
 C742 C 0.01231 -0.07295 1.01875
 H743 H 0.02547 -0.21184 1.06817
 H744 H -0.02950 -0.08536 1.00658
 H745 H -0.03904 -0.20894 1.07855
 H746 H 0.03123 -0.08021 1.03020
 C747 C 0.48674 0.28297 0.57462
 C748 C 0.50835 0.30116 0.56447
 C749 C 0.50266 0.32573 0.54366
 N750 N 0.52377 0.34398 0.53557
 N751 N 0.51835 0.36770 0.51914
 C752 C 0.49161 0.37405 0.51014
 N753 N 0.47060 0.35560 0.51784
 N754 N 0.47601 0.33189 0.53423
 C755 C 0.48453 0.40178 0.49556
 C756 C 0.50484 0.42262 0.48961
 H757 H 0.52953 0.29869 0.57299
 H758 H 0.46237 0.40711 0.49317
 H759 H 0.46626 0.28519 0.56407
 H760 H 0.52696 0.41705 0.49117
 C761 C 0.48256 1.18158 0.61345
 C762 C 0.47911 1.16968 0.58608
 C763 C 0.47919 1.13909 0.58208
 N764 N 0.47553 1.13001 0.55451
 N765 N 0.47636 1.10261 0.54988
 C766 C 0.48091 1.08316 0.57270
 N767 N 0.48446 1.09221 0.60033
 N768 N 0.48363 1.11966 0.60498
 C769 C 0.48284 1.05279 0.56783
 C770 C 0.48049 1.04214 0.53982
 H771 H 0.47620 1.18303 0.56609
 H772 H 0.48705 1.03844 0.58691
 H773 H 0.48379 1.16765 0.63333
 H774 H 0.47625 1.05633 0.52065
 C775 C -0.00868 0.67822 1.10811
 C776 C -0.01046 0.66759 1.08001
 C777 C -0.00894 0.63701 1.07581
 N778 N -0.01041 0.62749 1.04818
 N779 N -0.00888 0.59995 1.04414
 C780 C -0.00583 0.58087 1.06765
 N781 N -0.00441 0.59039 1.09523
 N782 N -0.00593 0.61788 1.09925
 C783 C -0.00378 0.55032 1.06402
 C784 C -0.00453 0.53837 1.03661
 H785 H -0.01293 0.68166 1.06043
 H786 H -0.00128 0.53668 1.08399
 H787 H -0.00622 0.66333 1.12710
 H788 H -0.00696 0.55176 1.01649
 C789 C 0.50567 0.71371 -0.11220
 C790 C 0.50717 0.69912 -0.08429
 C791 C 0.51081 0.66822 -0.08044
 N792 N 0.51254 0.65554 -0.05273
 N793 N 0.51525 0.62763 -0.04865
 C794 C 0.51629 0.61127 -0.07214
 N795 N 0.51462 0.62394 -0.09987
 N796 N 0.51193 0.65188 -0.10397
 C797 C 0.51870 0.58029 -0.06790
 C798 C 0.52053 0.56638 -0.03982
 H799 H 0.50543 0.71015 -0.06424
 H800 H 0.51863 0.56815 -0.08734
 H801 H 0.50827 0.70168 -0.13155
 H802 H 0.52063 0.57856 -0.02043
 C803 C -0.00013 1.22373 0.39691
 C804 C -0.00361 1.21366 0.42647
 C805 C 0.00200 1.18395 0.43616
 N806 N -0.00228 1.17454 0.46484
 N807 N 0.00234 1.14756 0.47363
 C808 C 0.01149 1.12909 0.45402
 N809 N 0.01589 1.13856 0.42545
 N810 N 0.01128 1.16545 0.41668
 C811 C 0.01550 1.09897 0.46243
 C812 C 0.01056 1.08660 0.49084
 H813 H -0.01057 1.22746 0.44310
 H814 H 0.02141 1.08580 0.44477
 H815 H 0.00694 1.20911 0.38105
 H816 H 0.00478 1.09959 0.50868
 C817 C 0.77948 0.67521 0.95083
 C818 C 0.79011 0.66752 0.92374
 C819 C 0.78986 0.68652 0.89684
 N820 N 0.79651 0.67621 0.87047
 N821 N 0.79411 0.69234 0.84541
 C822 C 0.78510 0.71944 0.84583
 N823 N 0.77901 0.72996 0.87228
 N824 N 0.78132 0.71378 0.89736
 C825 C 0.77915 0.73635 0.81819
 C826 C 0.77802 0.72404 0.79109
 H827 H 0.79671 0.64590 0.92160
 H828 H 0.77199 0.75786 0.81979
 H829 H 0.77165 0.69643 0.95289
 H830 H 0.78452 0.70234 0.79004
 C831 C 0.27081 0.18296 0.45165
 C832 C 0.28197 0.17594 0.42447
 C833 C 0.28256 0.19556 0.39791
 N834 N 0.29321 0.18681 0.37219
 N835 N 0.29189 0.20334 0.34728
 C836 C 0.27993 0.22933 0.34717
 N837 N 0.26965 0.23825 0.37300
 N838 N 0.27100 0.22173 0.39794
 C839 C 0.27455 0.24612 0.31924
 C840 C 0.28159 0.23641 0.29170
 H841 H 0.28923 0.15458 0.42207
 H842 H 0.26084 0.26428 0.32033
 H843 H 0.26258 0.20399 0.45392
 H844 H 0.29623 0.21899 0.29063
 C845 C 0.74404 0.32284 0.44676
 C846 C 0.72938 0.32695 0.42007
 C847 C 0.73369 0.30969 0.39471
 N848 N 0.71813 0.31515 0.36986
 N849 N 0.72325 0.30160 0.34558
 C850 C 0.74420 0.28212 0.34522
 N851 N 0.75958 0.27642 0.37018
 N852 N 0.75441 0.28992 0.39453
 C853 C 0.75196 0.26920 0.31771
 C854 C 0.73729 0.27508 0.29132
 H855 H 0.71553 0.34502 0.41669
 H856 H 0.77102 0.25658 0.31780
 H857 H 0.75870 0.30536 0.44980
 H858 H 0.71784 0.28706 0.29146
 C859 C 0.26331 0.82711 0.93705
 C860 C 0.25836 0.83647 0.90759
 C861 C 0.25213 0.81789 0.88383
 N862 N 0.24424 0.82958 0.85697
 N863 N 0.23827 0.81344 0.83490
 C864 C 0.23978 0.78493 0.83890
 N865 N 0.24751 0.77318 0.86586
 N866 N 0.25343 0.78935 0.88803
 C867 C 0.23647 0.76716 0.81375
 C868 C 0.23232 0.77896 0.78500
 H869 H 0.25649 0.85896 0.90212
 H870 H 0.24215 0.74510 0.81723
 H871 H 0.26423 0.80473 0.94332
 H872 H 0.22590 0.80079 0.78188
 C873 C 0.26673 0.85304 0.04196
 C874 C 0.27577 0.82773 0.05647
 C875 C 0.27691 0.82437 0.08910
 N876 N 0.28688 0.80014 0.10289
 N877 N 0.28637 0.79634 0.13236
 C878 C 0.27593 0.81668 0.14912
 N879 N 0.26622 0.84098 0.13534
 N880 N 0.26681 0.84480 0.10594
 C881 C 0.27161 0.81156 0.18121
 C882 C 0.28041 0.78683 0.19683
 H883 H 0.28176 0.80987 0.04421
 H884 H 0.25790 0.82605 0.19196
 H885 H 0.26234 0.87057 0.05542
 H886 H 0.29486 0.77280 0.18644
 C887 C 0.76274 0.35578 0.54681
 C888 C 0.77185 0.33074 0.56177
 C889 C 0.77425 0.32837 0.59432
 N890 N 0.78435 0.30433 0.60838
 N891 N 0.78423 0.30105 0.63787
 C892 C 0.77401 0.32168 0.65440
 N893 N 0.76426 0.34582 0.64034
 N894 N 0.76449 0.34915 0.61089
 C895 C 0.76945 0.31664 0.68648
 C896 C 0.77800 0.29172 0.70181
 H897 H 0.77630 0.31215 0.55001
 H898 H 0.75498 0.33063 0.69687
 H899 H 0.76063 0.37422 0.55952
 H900 H 0.79338 0.27844 0.69170
 C901 C 0.24884 0.15508 0.55916
 C902 C 0.24428 0.18132 0.57055
 C903 C 0.24178 0.18398 0.60273
 N904 N 0.23244 0.20837 0.61340
 N905 N 0.23151 0.21131 0.64251
 C906 C 0.23999 0.18998 0.66197
 N907 N 0.24928 0.16562 0.65128
 N908 N 0.25001 0.16262 0.62224
 C909 C 0.24230 0.19382 0.69383
 C910 C 0.23052 0.21675 0.70709
 H911 H 0.24244 0.20022 0.55600
 H912 H 0.25598 0.17942 0.70650
 H913 H 0.24808 0.13651 0.57437
 H914 H 0.21633 0.23077 0.69447
 C915 C 0.75276 0.64881 0.05705
 C916 C 0.74545 0.67529 0.06640
 C917 C 0.74056 0.67984 0.09783
 N918 N 0.73031 0.70492 0.10584
 N919 N 0.72765 0.70997 0.13434
 C920 C 0.73522 0.69011 0.15584
 N921 N 0.74528 0.66499 0.14781
 N922 N 0.74778 0.65989 0.11935
 C923 C 0.73599 0.69650 0.18710
 C924 C 0.72498 0.72130 0.19722
 H925 H 0.74331 0.69330 0.05066
 H926 H 0.74849 0.68266 0.20172
 H927 H 0.75212 0.63085 0.07307
 H928 H 0.71213 0.73493 0.18259
 C929 C 0.15014 0.56007 0.23758
 C930 C 0.17604 0.57007 0.24694
 C931 C 0.18260 0.60028 0.24511
 N932 N 0.20958 0.60905 0.24836
 N933 N 0.21548 0.63644 0.24858
 C934 C 0.19452 0.65597 0.24592
 N935 N 0.16754 0.64719 0.24281
 N936 N 0.16169 0.61984 0.24228
 C937 C 0.20037 0.68602 0.24791
 C938 C 0.22724 0.69724 0.24322
 H939 H 0.19129 0.55567 0.25739
 H940 H 0.18300 0.69928 0.25373
 H941 H 0.13515 0.57489 0.22727
 H942 H 0.24420 0.68344 0.23712
 C943 C 0.67031 0.05408 0.73191
 C944 C 0.66024 0.08071 0.72243
 C945 C 0.67790 0.10603 0.72287
 N946 N 0.66616 0.13178 0.71673
 N947 N 0.68104 0.15513 0.71996
 C948 C 0.70819 0.15358 0.72950
 N949 N 0.72007 0.12782 0.73523
 N950 N 0.70519 0.10446 0.73200
 C951 C 0.72394 0.17911 0.73570
 C952 C 0.71160 0.20571 0.73224
 H953 H 0.63793 0.08350 0.71790
 H954 H 0.74489 0.17669 0.74506
 H955 H 0.69247 0.05146 0.73729
 H956 H 0.69136 0.20799 0.72141
 C957 C 0.82404 0.04917 0.25840
 C958 C 0.83456 0.07623 0.26116
 C959 C 0.81810 0.10184 0.25415
 N960 N 0.83187 0.12667 0.24911
 N961 N 0.81766 0.15025 0.24192
 C962 C 0.78913 0.14989 0.23953
 N963 N 0.77525 0.12507 0.24481
 N964 N 0.78953 0.10136 0.25178
 C965 C 0.77345 0.17622 0.23333
 C966 C 0.78740 0.20091 0.22361
 H967 H 0.85690 0.07881 0.26537
 H968 H 0.75112 0.17658 0.23853
 H969 H 0.80206 0.04624 0.25278
 H970 H 0.80924 0.19994 0.21668
 C971 C 0.35137 0.55011 0.76894
 C972 C 0.32539 0.56003 0.75840
 C973 C 0.31979 0.59040 0.75414
 N974 N 0.29307 0.59995 0.74955
 N975 N 0.28812 0.62741 0.74420
 C976 C 0.30976 0.64622 0.74281
 N977 N 0.33647 0.63663 0.74711
 N978 N 0.34139 0.60923 0.75277
 C979 C 0.30472 0.67644 0.73648
 C980 C 0.27836 0.68829 0.74095
 H981 H 0.30982 0.54541 0.75099
 H982 H 0.32231 0.68939 0.72884
 H983 H 0.36651 0.56513 0.77648
 H984 H 0.26125 0.67474 0.74904
 C985 C 0.33677 0.44546 0.77013
 C986 C 0.34430 0.41938 0.75991
 C987 C 0.32670 0.39400 0.76491
 N988 N 0.33225 0.37116 0.74941
 N989 N 0.31679 0.34786 0.75353
 C990 C 0.29523 0.34640 0.77342
 N991 N 0.28978 0.36917 0.78915
 N992 N 0.30517 0.39261 0.78489
 C993 C 0.27866 0.32028 0.77845
 C994 C 0.28089 0.29880 0.75905
 H995 H 0.36282 0.41728 0.74627
 H996 H 0.26506 0.31779 0.79771
 H997 H 0.31680 0.44710 0.78165
 H998 H 0.29237 0.30287 0.73849
 C999 C 0.84436 0.94766 0.25135
 C1000 C 0.81694 0.93785 0.24725
 C1001 C 0.81031 0.90761 0.25004
 N1002 N 0.78570 0.89811 0.23912
 N1003 N 0.77902 0.87086 0.24249
 C1004 C 0.79660 0.85220 0.25718
 N1005 N 0.82110 0.86174 0.26828
 N1006 N 0.82789 0.88893 0.26468
 C1007 C 0.78915 0.82231 0.26205
 C1008 C 0.76826 0.80992 0.24567
 H1009 H 0.79980 0.95220 0.24151
 H1010 H 0.80071 0.80998 0.27884
 H1011 H 0.86124 0.93225 0.25354
 H1012 H 0.75744 0.82263 0.22847
 C1013 C 0.65283 0.95196 0.76188
 C1014 C 0.67992 0.94127 0.75809
 C1015 C 0.68475 0.91124 0.75401
 N1016 N 0.71148 0.90110 0.75348
 N1017 N 0.71627 0.87423 0.74843
 C1018 C 0.69453 0.85656 0.74341
 N1019 N 0.66777 0.86672 0.74378
 N1020 N 0.66297 0.89358 0.74900
 C1021 C 0.69971 0.82689 0.73780
 C1022 C 0.72616 0.81482 0.74279
 H1023 H 0.69810 0.95503 0.75694
 H1024 H 0.68236 0.81445 0.73033
 H1025 H 0.63557 0.93717 0.76554
 H1026 H 0.74310 0.82781 0.75037
 C1027 C 0.16739 0.45647 0.25538
 C1028 C 0.15679 0.42902 0.25702
 C1029 C 0.17507 0.40457 0.25262
 N1030 N 0.16341 0.37981 0.24567
 N1031 N 0.17964 0.35755 0.24130
 C1032 C 0.20816 0.35917 0.24382
 N1033 N 0.21983 0.38385 0.25108
 N1034 N 0.20360 0.40620 0.25521
 C1035 C 0.22608 0.33427 0.24035
 C1036 C 0.21562 0.31047 0.22772
 H1037 H 0.13438 0.42513 0.25902
 H1038 H 0.24731 0.33423 0.24916
 H1039 H 0.18966 0.45944 0.25050
 H1040 H 0.19465 0.31125 0.21827
 C1041 C 0.04717 0.25969 0.83493
 C1042 C 0.06027 0.23883 0.81933
 C1043 C 0.08758 0.24402 0.80405
 N1044 N 0.10193 0.22241 0.79270
 N1045 N 0.12763 0.22649 0.78103
 C1046 C 0.13989 0.25240 0.78017
 N1047 N 0.12535 0.27404 0.79109
 N1048 N 0.09973 0.26996 0.80278
 C1049 C 0.16941 0.25690 0.77058
 C1050 C 0.18690 0.23512 0.76221
 H1051 H 0.05141 0.21780 0.82008
 H1052 H 0.17844 0.27746 0.77349
 H1053 H 0.05566 0.28089 0.83276
 H1054 H 0.17780 0.21476 0.75857
 C1055 C 0.55031 0.76192 0.33766
 C1056 C 0.55890 0.74363 0.31647
 C1057 C 0.58442 0.74913 0.29844
 N1058 N 0.59715 0.72780 0.28492
 N1059 N 0.62156 0.73205 0.27058
 C1060 C 0.63392 0.75790 0.26897
 N1061 N 0.62083 0.77934 0.28189
 N1062 N 0.59657 0.77505 0.29639
 C1063 C 0.66240 0.76241 0.25668
 C1064 C 0.68049 0.74011 0.25133
 H1065 H 0.54797 0.72378 0.31483
 H1066 H 0.67075 0.78363 0.25651
 H1067 H 0.56152 0.78159 0.33950
 H1068 H 0.67209 0.71897 0.25104
 C1069 C 0.55707 0.24075 0.16271
 C1070 C 0.56871 0.26130 0.17961
 C1071 C 0.59588 0.25655 0.19491
 N1072 N 0.61022 0.27854 0.20531
 N1073 N 0.63588 0.27474 0.21695
 C1074 C 0.64803 0.24875 0.21880
 N1075 N 0.63344 0.22670 0.20898
 N1076 N 0.60787 0.23053 0.19725
 C1077 C 0.67746 0.24451 0.22833
 C1078 C 0.69544 0.26697 0.23293
 H1079 H 0.55883 0.28187 0.17972
 H1080 H 0.68608 0.22340 0.22800
 H1081 H 0.56712 0.22024 0.16294
 H1082 H 0.68694 0.28811 0.23322
 C1083 C 0.05459 0.73987 0.65011
 C1084 C 0.06573 0.75803 0.67010
 C1085 C 0.09569 0.75556 0.67894
 N1086 N 0.10621 0.77023 0.70126
 N1087 N 0.13370 0.76904 0.70782
 C1088 C 0.15163 0.75338 0.69203
 N1089 N 0.14109 0.73889 0.66977
 N1090 N 0.11371 0.73987 0.66343
 C1091 C 0.18225 0.75273 0.69713
 C1092 C 0.19528 0.76007 0.72315
 H1093 H 0.05321 0.77544 0.67720
 H1094 H 0.19507 0.74489 0.67957
 H1095 H 0.06726 0.72193 0.64460
 H1096 H 0.18257 0.76609 0.74163
 C1097 C 0.94785 0.74989 0.64144
 C1098 C 0.93865 0.74560 0.67081
 C1099 C 0.90817 0.74552 0.67811
 N1100 N 0.89923 0.74306 0.70674
 N1101 N 0.87171 0.74316 0.71324
 C1102 C 0.85212 0.74565 0.69130
 N1103 N 0.86108 0.74798 0.66277
 N1104 N 0.88850 0.74793 0.65630
 C1105 C 0.82158 0.74620 0.69748
 C1106 C 0.81003 0.74552 0.72593
 H1107 H 0.95363 0.74240 0.68871
 H1108 H 0.80765 0.74787 0.67851
 H1109 H 0.93200 0.75347 0.62441
 H1110 H 0.82375 0.74423 0.74507
 C1111 C 0.45219 0.25010 0.15768
 C1112 C 0.42693 0.25049 0.14181
 C1113 C 0.39879 0.24858 0.15588
 N1114 N 0.37580 0.24708 0.13833
 N1115 N 0.35002 0.24534 0.15001
 C1116 C 0.34607 0.24504 0.17972
 N1117 N 0.36905 0.24654 0.19751
 N1118 N 0.39499 0.24822 0.18576
 C1119 C 0.31693 0.24377 0.19111
 C1120 C 0.30869 0.24502 0.22076
 H1121 H 0.42715 0.25135 0.11793
 H1122 H 0.30076 0.24295 0.17431
 H1123 H 0.45101 0.24858 0.18165
 H1124 H 0.32435 0.24606 0.23801
 C1125 C 0.44582 0.74996 0.35383
 C1126 C 0.43663 0.75652 0.32475
 C1127 C 0.40654 0.75787 0.31664
 N1128 N 0.39895 0.76432 0.28805
 N1129 N 0.37181 0.76560 0.28030
 C1130 C 0.35128 0.76053 0.30095
 N1131 N 0.35888 0.75415 0.32951
 N1132 N 0.38598 0.75286 0.33725
 C1133 C 0.32118 0.76106 0.29316
 C1134 C 0.31093 0.76649 0.26438
 H1135 H 0.45156 0.76109 0.30701
 H1136 H 0.30646 0.75597 0.31108
 H1137 H 0.43013 0.74535 0.37091
 H1138 H 0.32534 0.77152 0.24619
 C1139 C 0.94348 0.25228 0.84844
 C1140 C 0.93440 0.25611 0.81897
 C1141 C 0.90411 0.25482 0.81129
 N1142 N 0.89545 0.26067 0.78293
 N1143 N 0.86811 0.25959 0.77594
 C1144 C 0.84846 0.25250 0.79708
 N1145 N 0.85716 0.24656 0.82534
 N1146 N 0.88440 0.24770 0.83231
 C1147 C 0.81808 0.25139 0.79035
 C1148 C 0.80663 0.25893 0.76252
 H1149 H 0.94929 0.26032 0.80108
 H1150 H 0.80407 0.24502 0.80853
 H1151 H 0.92745 0.24886 0.86541
 H1152 H 0.82041 0.26540 0.74420
 C1153 C 0.58774 0.99073 0.71281
 C1154 C 0.58632 0.99454 0.68208
 C1155 C 0.56488 0.98026 0.66523
 N1156 N 0.53917 0.97362 0.67711
 N1157 N 0.51942 0.96190 0.66097
 C1158 C 0.52493 0.95586 0.63264
 N1159 N 0.55078 0.96224 0.62095
 N1160 N 0.57036 0.97428 0.63692
 C1161 C 0.50212 0.94684 0.61353
 C1162 C 0.50846 0.93884 0.58526
 H1163 H 0.60263 1.00604 0.66965
 H1164 H 0.48110 0.95440 0.61823
 H1165 H 0.57322 0.97601 0.72407
 H1166 H 0.52790 0.92735 0.58250
 C1167 C 0.08397 0.47997 1.22249
 C1168 C 0.06610 0.49340 1.20163
 C1169 C 0.04748 0.47770 1.18286
 N1170 N 0.05606 0.45316 1.17185
 N1171 N 0.04053 0.44099 1.15173
 C1172 C 0.01567 0.45269 1.14239
 N1173 N 0.00686 0.47682 1.15395
 N1174 N 0.02259 0.48923 1.17365
 C1175 C 0.00050 0.44260 1.11697
 C1176 C 0.01559 0.43730 1.09143
 H1177 H 0.06493 0.51620 1.19941
 H1178 H -0.02130 0.44933 1.11466
 H1179 H 0.08117 0.45760 1.22799
 H1180 H 0.03723 0.43019 1.09378
 C1181 C -0.09254 0.00703 1.20995
 C1182 C -0.08936 0.02744 1.18644
 C1183 C -0.06843 0.02462 1.16291
 N1184 N -0.07032 0.04127 1.13744
 N1185 N -0.05247 0.03793 1.11514
 C1186 C -0.03194 0.01799 1.11770
 N1187 N -0.02974 0.00171 1.14336
 N1188 N -0.04768 0.00492 1.16558
 C1189 C -0.01378 0.01201 1.09265
 C1190 C -0.01922 0.02274 1.06379
 H1191 H -0.10344 0.04528 1.18373
 H1192 H 0.00220 -0.00407 1.09671
 H1193 H -0.07833 -0.01087 1.21139
 H1194 H -0.03505 0.03895 1.05966
 C1195 C 0.39145 0.48648 0.69617
 C1196 C 0.39181 0.50581 0.67142
 C1197 C 0.40816 0.50084 0.64462
 N1198 N 0.40955 0.52115 0.62208
 N1199 N 0.42514 0.51737 0.59809
 C1200 C 0.43996 0.49313 0.59592
 N1201 N 0.43848 0.47282 0.61838
 N1202 N 0.42294 0.47661 0.64234
 C1203 C 0.45699 0.48796 0.56975
 C1204 C 0.46019 0.50725 0.54531
 H1205 H 0.38113 0.52587 0.67169
 H1206 H 0.46671 0.46733 0.56953
 H1207 H 0.40166 0.46623 0.69457
 H1208 H 0.45058 0.52794 0.54511
 C1209 C 0.42502 0.47586 -0.21372
 C1210 C 0.44552 0.49288 -0.20196
 C1211 C 0.46712 0.48212 -0.18109
 N1212 N 0.49160 0.49660 -0.17900
 N1213 N 0.50935 0.49049 -0.15676
 C1214 C 0.50304 0.47002 -0.13548
 N1215 N 0.47877 0.45511 -0.13783
 N1216 N 0.46118 0.46095 -0.16036
 C1217 C 0.51986 0.46806 -0.10825
 C1218 C 0.50660 0.46354 -0.08081
 H1219 H 0.44547 0.51539 -0.20760
 H1220 H 0.54041 0.47807 -0.10933
 H1221 H 0.42845 0.45329 -0.21329
 H1222 H 0.48591 0.45391 -0.07990
 C1223 C -0.09801 0.99153 0.30743
 C1224 C -0.10055 1.00066 0.33597
 C1225 C -0.07928 0.99468 0.35902
 N1226 N -0.08646 0.99733 0.38769
 N1227 N -0.06717 0.99413 0.40892
 C1228 C -0.03986 0.98836 0.40235
 N1229 N -0.03263 0.98562 0.37362
 N1230 N -0.05204 0.98857 0.35231
 C1231 C -0.01815 0.98822 0.42560
 C1232 C -0.02614 0.98923 0.45516
 H1233 H -0.11925 1.01182 0.34241
 H1234 H 0.00376 0.99105 0.41917
 H1235 H -0.08100 0.97722 0.30273
 H1236 H -0.04815 0.98601 0.46060
 C1237 C 0.09969 0.49890 0.31411
 C1238 C 0.09403 0.51970 0.33392
 C1239 C 0.07321 0.51583 0.35801
 N1240 N 0.06801 0.53716 0.37586
 N1241 N 0.04889 0.53419 0.39752
 C1242 C 0.03415 0.50980 0.40193
 N1243 N 0.03931 0.48852 0.38405
 N1244 N 0.05840 0.49149 0.36242
 C1245 C 0.01430 0.50504 0.42669
 C1246 C 0.00818 0.52491 0.44728
 H1247 H 0.10416 0.54006 0.33154
 H1248 H 0.00587 0.48388 0.43005
 H1249 H 0.08987 0.47841 0.31800
 H1250 H 0.01533 0.54645 0.44354
 C1251 C 0.60121 0.01523 -0.19275
 C1252 C 0.59862 0.03848 -0.17561
 C1253 C 0.58797 0.03489 -0.14516
 N1254 N 0.57410 0.05613 -0.13260
 N1255 N 0.56441 0.05259 -0.10489
 C1256 C 0.56883 0.02787 -0.08871
 N1257 N 0.58314 0.00693 -0.10113
 N1258 N 0.59244 0.01031 -0.12887
 C1259 C 0.55755 0.02258 -0.05875
 C1260 C 0.53313 0.03552 -0.04895
 H1261 H 0.60399 0.05950 -0.18447
 H1262 H 0.56642 0.00474 -0.04583
 H1263 H 0.59161 -0.00451 -0.18467
 H1264 H 0.52375 0.05290 -0.06216
 C1265 C 0.72344 0.59179 -0.00882
 C1266 C 0.70322 0.59159 -0.03125
 C1267 C 0.67885 0.57250 -0.02975
 N1268 N 0.65653 0.57828 -0.04784
 N1269 N 0.63371 0.56194 -0.04630
 C1270 C 0.63245 0.53904 -0.02677
 N1271 N 0.65496 0.53294 -0.00896
 N1272 N 0.67774 0.54946 -0.01033
 C1273 C 0.60683 0.52166 -0.02416
 C1274 C 0.58089 0.53239 -0.03401
 H1275 H 0.70360 0.60720 -0.04969
 H1276 H 0.60799 0.50108 -0.01240
 H1277 H 0.72155 0.57660 0.01000
 H1278 H 0.57982 0.55341 -0.04475
 C1279 C 0.21320 1.10103 0.49352
 C1280 C 0.19166 1.10170 0.47244
 C1281 C 0.16676 1.08331 0.47584
 N1282 N 0.14317 1.08985 0.45992
 N1283 N 0.11988 1.07435 0.46379
 C1284 C 0.11942 1.05157 0.48355
 N1285 N 0.14318 1.04469 0.49908
 N1286 N 0.16642 1.06034 0.49538
 C1287 C 0.09333 1.03541 0.48939
 C1288 C 0.06704 1.04685 0.48183
 H1289 H 0.19147 1.11749 0.45414
 H1290 H 0.09472 1.01534 0.50209
 H1291 H 0.21182 1.08570 0.51227
 H1292 H 0.06600 1.06714 0.46957
 C1293 C 0.20067 -0.10724 0.98474
 C1294 C 0.19321 -0.08705 1.00439
 C1295 C 0.16338 -0.07853 1.00649
 N1296 N 0.15578 -0.05474 1.01960
 N1297 N 0.12874 -0.04681 1.02022
 C1298 C 0.10845 -0.06251 1.00790
 N1299 N 0.11605 -0.08642 0.99529
 N1300 N 0.14294 -0.09426 0.99460
 C1301 C 0.07871 -0.05406 1.00681
 C1302 C 0.06871 -0.02884 1.01679
 H1303 H 0.20881 -0.07713 1.01764
 H1304 H 0.06454 -0.06802 0.99623
 H1305 H 0.18421 -0.11501 0.97081
 H1306 H 0.08324 -0.01485 1.02702
 C1307 C 0.69274 0.39728 0.50007
 C1308 C 0.66712 0.39614 0.48508
 C1309 C 0.64218 0.41232 0.49295
 N1310 N 0.62316 0.41988 0.47160
 N1311 N 0.59981 0.43373 0.47813
 C1312 C 0.59438 0.44024 0.50634
 N1313 N 0.61322 0.43235 0.52789
 N1314 N 0.63687 0.41878 0.52126
 C1315 C 0.56782 0.45447 0.51318
 C1316 C 0.55459 0.47129 0.49104
 H1317 H 0.66561 0.38496 0.46508
 H1318 H 0.55778 0.45003 0.53451
 H1319 H 0.69485 0.41181 0.51741
 H1320 H 0.56628 0.47709 0.47093
 C1321 C -0.21507 0.41383 0.47124
 C1322 C -0.20744 0.43282 0.49203
 C1323 C -0.18137 0.44949 0.48840
 N1324 N -0.16947 0.46039 0.51235
 N1325 N -0.14434 0.47288 0.51017
 C1326 C -0.13022 0.47507 0.48394
 N1327 N -0.14244 0.46485 0.45981
 N1328 N -0.16751 0.45219 0.46202
 C1329 C -0.10138 0.48645 0.48200
 C1330 C -0.08520 0.48843 0.50739
 H1331 H -0.21818 0.43301 0.51310
 H1332 H -0.09194 0.49082 0.46035
 H1333 H -0.20293 0.41387 0.45089
 H1334 H -0.09458 0.48268 0.52874
 C1335 C 0.29576 -0.08300 -0.02099
 C1336 C 0.31849 -0.07689 -0.04010
 C1337 C 0.34199 -0.05864 -0.03232
 N1338 N 0.36581 -0.05804 -0.04903
 N1339 N 0.38835 -0.04366 -0.04110
 C1340 C 0.38788 -0.02925 -0.01618
 N1341 N 0.36388 -0.02943 0.00030
 N1342 N 0.34136 -0.04396 -0.00755
 C1343 C 0.41326 -0.01485 -0.00624
 C1344 C 0.43962 -0.01944 -0.01882
 H1345 H 0.32085 -0.08753 -0.06033
 H1346 H 0.41133 -0.00163 0.01224
 H1347 H 0.29319 -0.07077 -0.00180
 H1348 H 0.44117 -0.03212 -0.03778
 C1349 C 0.30556 1.09900 0.51521
 C1350 C 0.33048 1.09365 0.50010
 C1351 C 0.35123 1.07284 0.51170
 N1352 N 0.36873 1.06049 0.49266
 N1353 N 0.38834 1.04227 0.50274
 C1354 C 0.39141 1.03591 0.53226
 N1355 N 0.37409 1.04848 0.55139
 N1356 N 0.35417 1.06648 0.54127
 C1357 C 0.41454 1.01745 0.54319
 C1358 C 0.42713 0.99898 0.52452
 H1359 H 0.33434 1.10349 0.47823
 H1360 H 0.42332 1.02032 0.56486
 H1361 H 0.30061 1.08604 0.53514
 H1362 H 0.41694 0.99520 0.50374
 C1363 C -0.18519 0.59329 1.01643
 C1364 C -0.15991 0.58873 1.00157
 C1365 C -0.13862 0.56832 1.01271
 N1366 N -0.12005 0.55790 0.99340
 N1367 N -0.09979 0.54019 1.00294
 C1368 C -0.09714 0.53243 1.03221
 N1369 N -0.11556 0.54305 1.05166
 N1370 N -0.13610 0.56057 1.04205
 C1371 C -0.07362 0.51419 1.04261
 C1372 C -0.05966 0.49766 1.02293
 H1373 H -0.15605 0.59895 0.97987
 H1374 H -0.06621 0.51516 1.06514
 H1375 H -0.19017 0.58002 1.03615
 H1376 H -0.06844 0.49577 1.00107
 C1377 C -0.00862 0.71040 0.56981
 C1378 C 0.00926 0.68966 0.55958
 C1379 C -0.00032 0.66582 0.54307
 N1380 N 0.01919 0.64758 0.53349
 N1381 N 0.01132 0.62399 0.52152
 C1382 C -0.01643 0.61764 0.51871
 N1383 N -0.03603 0.63613 0.52783
 N1384 N -0.02814 0.65981 0.53982
 C1385 C -0.02515 0.58994 0.50894
 C1386 C -0.00532 0.56889 0.50423
 H1387 H 0.03156 0.69006 0.56463
 H1388 H -0.04747 0.58501 0.50887
 H1389 H -0.02984 0.71240 0.56107
 H1390 H 0.01673 0.57431 0.50502
 C1391 C 0.49362 0.20632 0.08479
 C1392 C 0.51196 0.18603 0.07452
 C1393 C 0.50274 0.16267 0.05717
 N1394 N 0.52232 0.14775 0.04281
 N1395 N 0.51510 0.12452 0.02976
 C1396 C 0.48802 0.11518 0.03078
 N1397 N 0.46835 0.13023 0.04494
 N1398 N 0.47553 0.15365 0.05779
 C1399 C 0.48078 0.08741 0.02036
 C1400 C 0.49962 0.07232 0.00364
 H1401 H 0.53431 0.18707 0.07921
 H1402 H 0.46162 0.07747 0.02892
 H1403 H 0.47241 0.20789 0.07593
 H1404 H 0.51742 0.08326 -0.00661
 C1405 C -0.00755 0.19901 0.91172
 C1406 C 0.01207 0.17764 0.91860
 C1407 C 0.00446 0.15202 0.93693
 N1408 N 0.02490 0.13606 0.95071
 N1409 N 0.01843 0.11198 0.96600
 C1410 C -0.00873 0.10287 0.96788
 N1411 N -0.02917 0.11881 0.95405
 N1412 N -0.02274 0.14305 0.93905
 C1413 C -0.01564 0.07471 0.98138
 C1414 C 0.00273 0.05980 1.00066
 H1415 H 0.03378 0.17988 0.91137
 H1416 H -0.03429 0.06473 0.97342
 H1417 H -0.02803 0.19761 0.92244
 H1418 H 0.02073 0.07072 1.00917
 C1419 C 0.50543 0.69367 0.41119
 C1420 C 0.48347 0.68301 0.42933
 C1421 C 0.48669 0.65520 0.44570
 N1422 N 0.46378 0.63931 0.45388
 N1423 N 0.46697 0.61339 0.46678
 C1424 C 0.49320 0.60259 0.47225
 N1425 N 0.51598 0.61875 0.46467
 N1426 N 0.51281 0.64448 0.45163
 C1427 C 0.49774 0.57323 0.48387
 C1428 C 0.47640 0.55298 0.48592
 H1429 H 0.46340 0.69381 0.43009
 H1430 H 0.51942 0.56659 0.48748
 H1431 H 0.52398 0.68050 0.40931
 H1432 H 0.45469 0.55937 0.48217
 C1433 C 0.49285 0.78616 0.42588
 C1434 C 0.51096 0.80662 0.43613
 C1435 C 0.50249 0.82763 0.45697
 N1436 N 0.52264 0.84388 0.46855
 N1437 N 0.51563 0.86493 0.48515
 C1438 C 0.48812 0.87069 0.49073
 N1439 N 0.46790 0.85427 0.47937
 N1440 N 0.47494 0.83306 0.46284
 C1441 C 0.48021 0.89598 0.50614
 C1442 C 0.50061 0.91343 0.51761
 H1443 H 0.53266 0.80767 0.42867
 H1444 H 0.45827 0.90244 0.50579
 H1445 H 0.47258 0.78269 0.43664
 H1446 H 0.52232 0.90640 0.51841
 C1447 C -0.00931 0.29026 0.92090
 C1448 C 0.01023 0.30934 0.93122
 C1449 C 0.00384 0.32838 0.95471
 N1450 N 0.02517 0.34286 0.96665
 N1451 N 0.01984 0.36184 0.98630
 C1452 C -0.00707 0.36715 0.99475
 N1453 N -0.02843 0.35248 0.98300
 N1454 N -0.02308 0.33334 0.96343
 C1455 C -0.01339 0.39083 1.01316
 C1456 C 0.00809 0.40694 1.02464
 H1457 H 0.03148 0.31023 0.92244
 H1458 H -0.03503 0.39817 1.01387
 H1459 H -0.02930 0.28750 0.93240
 H1460 H 0.02947 0.39891 1.02469
 C1461 C 0.50299 0.29914 0.08475
 C1462 C 0.52452 0.31766 0.07484
 C1463 C 0.51924 0.34295 0.05500
 N1464 N 0.54114 0.35644 0.04072
 N1465 N 0.53704 0.38053 0.02445
 C1466 C 0.51087 0.39213 0.02205
 N1467 N 0.48898 0.37859 0.03624
 N1468 N 0.49303 0.35437 0.05226
 C1469 C 0.50635 0.42038 0.00752
 C1470 C 0.52565 0.43405 -0.01200
 H1471 H 0.54620 0.31345 0.08114
 H1472 H 0.48780 0.43148 0.01446
 H1473 H 0.48223 0.30182 0.07498
 H1474 H 0.54411 0.42280 -0.01904
 C1475 C -0.00173 0.80512 0.58110
 C1476 C 0.01873 0.82582 0.57480
 C1477 C 0.01152 0.85448 0.56302
 N1478 N 0.03085 0.87009 0.54698
 N1479 N 0.02553 0.89689 0.53821
 C1480 C 0.00085 0.90921 0.54562
 N1481 N -0.01844 0.89365 0.56179
 N1482 N -0.01329 0.86671 0.57017
 C1483 C -0.00412 0.93940 0.53837
 C1484 C 0.00825 0.95376 0.51377
 H1485 H 0.04087 0.82099 0.57806
 H1486 H -0.01763 0.95058 0.55298
 H1487 H -0.02302 0.80891 0.57308
 H1488 H 0.02087 0.94212 0.49873
 C1489 C 0.25694 0.33914 0.04791
 C1490 C 0.22980 0.32801 0.05171
 C1491 C 0.22395 0.30706 0.07630
 N1492 N 0.20107 0.30980 0.09407
 N1493 N 0.19705 0.29203 0.11781
 C1494 C 0.21549 0.27057 0.12416
 N1495 N 0.23793 0.26749 0.10595
 N1496 N 0.24220 0.28550 0.08257
 C1497 C 0.21361 0.25245 0.15168
 C1498 C 0.20562 0.26332 0.17841
 H1499 H 0.21216 0.33706 0.03930
 H1500 H 0.22599 0.23324 0.15225
 H1501 H 0.27281 0.33262 0.06420
 H1502 H 0.19310 0.28239 0.17773
 C1503 C 0.74930 0.85502 0.54740
 C1504 C 0.72219 0.84479 0.55356
 C1505 C 0.71789 0.82390 0.57845
 N1506 N 0.69846 0.82828 0.59980
 N1507 N 0.69639 0.81041 0.62372
 C1508 C 0.71331 0.78729 0.62673
 N1509 N 0.73220 0.78263 0.60501
 N1510 N 0.73461 0.80071 0.58141
 C1511 C 0.71361 0.76870 0.65389
 C1512 C 0.71054 0.77931 0.68174
 H1513 H 0.70390 0.85419 0.54258
 H1514 H 0.72268 0.74793 0.65217
 H1515 H 0.76610 0.84844 0.56257
 H1516 H 0.70252 0.80048 0.68327
 C1517 C 0.25465 0.65122 0.54286
 C1518 C 0.27754 0.65213 0.56227
 C1519 C 0.28033 0.67423 0.58325
 N1520 N 0.29778 0.67020 0.60690
 N1521 N 0.29940 0.68936 0.62703
 C1522 C 0.28390 0.71342 0.62397
 N1523 N 0.26694 0.71771 0.59998
 N1524 N 0.26514 0.69845 0.57999
 C1525 C 0.28275 0.73329 0.64739
 C1526 C 0.29130 0.72575 0.67633
 H1527 H 0.29298 0.63537 0.56397
 H1528 H 0.27047 0.75231 0.64280
 H1529 H 0.23867 0.66751 0.54329
 H1530 H 0.30357 0.70676 0.68076
 C1531 C 0.76008 0.16863 0.03038
 C1532 C 0.78238 0.17596 0.04864
 C1533 C 0.77961 0.19715 0.07073
 N1534 N 0.80048 0.19981 0.09087
 N1535 N 0.79736 0.21684 0.11290
 C1536 C 0.77326 0.23197 0.11548
 N1537 N 0.75261 0.22972 0.09502
 N1538 N 0.75568 0.21260 0.07307
 C1539 C 0.76796 0.24839 0.14135
 C1540 C 0.78537 0.24687 0.16629
 H1541 H 0.80213 0.16457 0.04866
 H1542 H 0.74779 0.25906 0.14219
 H1543 H 0.74140 0.18180 0.02916
 H1544 H 0.80547 0.23604 0.16572
 C1545 C 0.74151 0.13906 0.93695
 C1546 C 0.72201 0.16066 0.93024
 C1547 C 0.71619 0.17033 0.89916
 N1548 N 0.70375 0.19572 0.89246
 N1549 N 0.70027 0.20529 0.86429
 C1550 C 0.70878 0.18960 0.84182
 N1551 N 0.72058 0.16398 0.84858
 N1552 N 0.72420 0.15452 0.87665
 C1553 C 0.70902 0.20098 0.81076
 C1554 C 0.70399 0.22935 0.80248
 H1555 H 0.71197 0.17174 0.94753
 H1556 H 0.71885 0.18785 0.79504
 H1557 H 0.75219 0.12992 0.91865
 H1558 H 0.69384 0.24249 0.81804
 C1559 C 0.22567 0.64761 0.45084
 C1560 C 0.23072 0.64553 0.42068
 C1561 C 0.22404 0.66866 0.39861
 N1562 N 0.22166 0.66330 0.36967
 N1563 N 0.21773 0.68427 0.34908
 C1564 C 0.21624 0.71144 0.35663
 N1565 N 0.21857 0.71682 0.38561
 N1566 N 0.22219 0.69579 0.40626
 C1567 C 0.21614 0.73480 0.33358
 C1568 C 0.21091 0.72984 0.30408
 H1569 H 0.23920 0.62632 0.41261
 H1570 H 0.22463 0.75491 0.33919
 H1571 H 0.21384 0.66561 0.45768
 H1572 H 0.20067 0.71032 0.29954
 C1573 C 0.74976 0.85924 0.44898
 C1574 C 0.76973 0.85127 0.42815
 C1575 C 0.76367 0.83225 0.40472
 N1576 N 0.78485 0.82488 0.38645
 N1577 N 0.77981 0.80857 0.36422
 C1578 C 0.75334 0.79904 0.35950
 N1579 N 0.73218 0.80629 0.37786
 N1580 N 0.73722 0.82258 0.40011
 C1581 C 0.74681 0.78256 0.33412
 C1582 C 0.76703 0.77426 0.31382
 H1583 H 0.79127 0.85858 0.42893
 H1584 H 0.72472 0.77800 0.33061
 H1585 H 0.72911 0.84945 0.44942
 H1586 H 0.78924 0.77775 0.31767
 C1587 C 0.26734 0.35172 0.94870
 C1588 C 0.24932 0.32885 0.94616
 C1589 C 0.25296 0.30973 0.92196
 N1590 N 0.23831 0.28520 0.92244
 N1591 N 0.24158 0.26769 0.90086
 C1592 C 0.25967 0.27393 0.87803
 N1593 N 0.27437 0.29847 0.87749
 N1594 N 0.27116 0.31595 0.89913
 C1595 C 0.26093 0.25528 0.85335
 C1596 C 0.27538 0.26204 0.82680
 H1597 H 0.23364 0.32346 0.96299
 H1598 H 0.24691 0.23726 0.85493
 H1599 H 0.28366 0.35518 0.93200
 H1600 H 0.29029 0.27931 0.82548
 C1601 C 0.82614 0.46208 0.78179
 C1602 C 0.82300 0.43718 0.79973
 C1603 C 0.80563 0.41357 0.79082
 N1604 N 0.80889 0.38773 0.80502
 N1605 N 0.79498 0.36553 0.79603
 C1606 C 0.77720 0.36833 0.77254
 N1607 N 0.77356 0.39426 0.75860
 N1608 N 0.78764 0.41646 0.76748
 C1609 C 0.76242 0.34374 0.76196
 C1610 C 0.77026 0.31634 0.77137
 H1611 H 0.83574 0.43320 0.81931
 H1612 H 0.74556 0.34731 0.74605
 H1613 H 0.81272 0.46533 0.76253
 H1614 H 0.78754 0.31300 0.78683
 C1615 C 0.34691 0.95846 0.25844
 C1616 C 0.33740 0.93767 0.27937
 C1617 C 0.32349 0.91190 0.27049
 N1618 N 0.30692 0.89651 0.29001
 N1619 N 0.29569 0.87220 0.28273
 C1620 C 0.30099 0.86222 0.25581
 N1621 N 0.31770 0.87752 0.23639
 N1622 N 0.32861 0.90199 0.24351
 C1623 C 0.29048 0.83456 0.24816
 C1624 C 0.26663 0.82203 0.26144
 H1625 H 0.34022 0.94002 0.30280
 H1626 H 0.30217 0.82388 0.23170
 H1627 H 0.34022 0.95738 0.23566
 H1628 H 0.25490 0.83329 0.27753
 C1629 C 0.15123 0.94074 0.73981
 C1630 C 0.17566 0.93762 0.72303
 C1631 C 0.18639 0.90879 0.71982
 N1632 N 0.21426 0.90365 0.71529
 N1633 N 0.22394 0.87716 0.71606
 C1634 C 0.20599 0.85505 0.72140
 N1635 N 0.17818 0.86028 0.72506
 N1636 N 0.16858 0.88655 0.72424
 C1637 C 0.21559 0.82575 0.72553
 C1638 C 0.24280 0.81639 0.72000
 H1639 H 0.18800 0.95564 0.71485
 H1640 H 0.20002 0.81110 0.73449
 H1641 H 0.14145 0.92172 0.74966
 H1642 H 0.25858 0.83129 0.71150
 C1643 C 0.65550 0.45736 0.21926
 C1644 C 0.65643 0.43113 0.23505
 C1645 C 0.67628 0.40871 0.22874
 N1646 N 0.68022 0.38734 0.24961
 N1647 N 0.69745 0.36612 0.24456
 C1648 C 0.71132 0.36535 0.21836
 N1649 N 0.70730 0.38667 0.19729
 N1650 N 0.69014 0.40812 0.20244
 C1651 C 0.72917 0.34102 0.21263
 C1652 C 0.73671 0.32189 0.23590
 H1653 H 0.64357 0.42702 0.25460
 H1654 H 0.73506 0.33735 0.19006
 H1655 H 0.67078 0.46204 0.20177
 H1656 H 0.73192 0.32678 0.25839
 C1657 C 0.66642 0.54525 0.24484
 C1658 C 0.66979 0.56205 0.26875
 C1659 C 0.68894 0.58631 0.26756
 N1660 N 0.68463 0.60690 0.28642
 N1661 N 0.69994 0.63039 0.28414
 C1662 C 0.72031 0.63403 0.26310
 N1663 N 0.72520 0.61311 0.24472
 N1664 N 0.70966 0.58969 0.24680
 C1665 C 0.73529 0.66098 0.25887
 C1666 C 0.72201 0.68577 0.26600
 H1667 H 0.65611 0.55966 0.28787
 H1668 H 0.75577 0.66151 0.24820
 H1669 H 0.68079 0.54815 0.22622
 H1670 H 0.70134 0.68459 0.27627
 C1671 C 0.17550 0.03175 0.76168
 C1672 C 0.17984 0.05002 0.78422
 C1673 C 0.19651 0.07596 0.77980
 N1674 N 0.19168 0.09728 0.79766
 N1675 N 0.20477 0.12192 0.79289
 C1676 C 0.22334 0.12611 0.77015
 N1677 N 0.22865 0.10461 0.75258
 N1678 N 0.21529 0.08001 0.75716
 C1679 C 0.23723 0.15353 0.76441
 C1680 C 0.22529 0.17809 0.77416
 H1681 H 0.16802 0.04763 0.80466
 H1682 H 0.25676 0.15433 0.75194
 H1683 H 0.18860 0.03404 0.74201
 H1684 H 0.20545 0.17688 0.78613
 C1685 C 0.35279 0.05396 0.24624
 C1686 C 0.34584 0.07656 0.26320
 C1687 C 0.32858 0.10085 0.25256
 N1688 N 0.31815 0.11811 0.27262
 N1689 N 0.30347 0.14103 0.26392
 C1690 C 0.29878 0.14777 0.23473
 N1691 N 0.30931 0.13056 0.21453
 N1692 N 0.32389 0.10742 0.22328
 C1693 C 0.28351 0.17389 0.22532
 C1694 C 0.26906 0.18897 0.24603
 H1695 H 0.35200 0.07623 0.28620
 H1696 H 0.28437 0.18171 0.20230
 H1697 H 0.34355 0.05303 0.22446
 H1698 H 0.26748 0.18024 0.26869
 C1699 C 0.84690 0.55862 0.77205
 C1700 C 0.82541 0.56519 0.75171
 C1701 C 0.81649 0.59479 0.74639
 N1702 N 0.79076 0.60156 0.73476
 N1703 N 0.78255 0.62848 0.73136
 C1704 C 0.79994 0.64946 0.73924
 N1705 N 0.82576 0.64264 0.75027
 N1706 N 0.83386 0.61587 0.75380
 C1707 C 0.79144 0.67917 0.73742
 C1708 C 0.76415 0.68853 0.73103
 H1709 H 0.81461 0.54903 0.74038
 H1710 H 0.80721 0.69384 0.74397
 H1711 H 0.85503 0.57555 0.78454
 H1712 H 0.74820 0.67355 0.72529
 C1713 C 0.94724 0.72980 0.17363
 C1714 C 0.92774 0.75014 0.18162
 C1715 C 0.90502 0.74491 0.20350
 N1716 N 0.88949 0.76706 0.21178
 N1717 N 0.86685 0.76299 0.22900
 C1718 C 0.85877 0.73655 0.23861
 N1719 N 0.87458 0.71434 0.23072
 N1720 N 0.89735 0.71842 0.21352
 C1721 C 0.83146 0.73176 0.25387
 C1722 C 0.81306 0.75411 0.25839
 H1723 H 0.92887 0.77137 0.17149
 H1724 H 0.82402 0.71023 0.25726
 H1725 H 0.94860 0.71002 0.18688
 H1726 H 0.82112 0.77529 0.25494
 C1727 C 0.44131 0.24915 0.66794
 C1728 C 0.43576 0.23105 0.69288
 C1729 C 0.41222 0.23784 0.71288
 N1730 N 0.39881 0.21731 0.72992
 N1731 N 0.37590 0.22336 0.74563
 C1732 C 0.36576 0.25022 0.74510
 N1733 N 0.37965 0.27074 0.72873
 N1734 N 0.40238 0.26469 0.71300
 C1735 C 0.33837 0.25714 0.75845
 C1736 C 0.32039 0.23695 0.77197
 H1737 H 0.44705 0.21135 0.69671
 H1738 H 0.33085 0.27828 0.75351
 H1739 H 0.42761 0.26734 0.66427
 H1740 H 0.32885 0.21617 0.77794
 C1741 C 0.44727 0.76409 0.83257
 C1742 C 0.44800 0.74759 0.80824
 C1743 C 0.42078 0.74004 0.79529
 N1744 N 0.41500 0.74598 0.76612
 N1745 N 0.38893 0.74246 0.75576
 C1746 C 0.36788 0.73269 0.77421
 N1747 N 0.37395 0.72617 0.80309
 N1748 N 0.39979 0.72996 0.81347
 C1749 C 0.33837 0.73058 0.76461
 C1750 C 0.32755 0.74351 0.73840
 H1751 H 0.46765 0.74120 0.79844
 H1752 H 0.32395 0.72048 0.78060
 H1753 H 0.42690 0.77282 0.83821
 H1754 H 0.34163 0.75400 0.72234
 C1755 C 0.95796 0.26755 0.32037
 C1756 C 0.93554 0.28323 0.30768
 C1757 C 0.91494 0.27156 0.28760
 N1758 N 0.89876 0.28940 0.27020
 N1759 N 0.87734 0.27968 0.25486
 C1760 C 0.87108 0.25174 0.25655
 N1761 N 0.88746 0.23382 0.27373
 N1762 N 0.90912 0.24352 0.28884
 C1763 C 0.84449 0.24174 0.24418
 C1764 C 0.82825 0.25910 0.22481
 H1765 H 0.93259 0.30505 0.31245
 H1766 H 0.83544 0.22264 0.25457
 H1767 H 0.96352 0.24787 0.31101
 H1768 H 0.83804 0.27744 0.21360
 C1769 C 0.04864 0.28671 0.33969
 C1770 C 0.05838 0.26688 0.32049
 C1771 C 0.08636 0.26935 0.30608
 N1772 N 0.09468 0.25006 0.28696
 N1773 N 0.12020 0.25161 0.27440
 C1774 C 0.13834 0.27257 0.28049
 N1775 N 0.12997 0.29190 0.29949
 N1776 N 0.10447 0.29037 0.31200
 C1777 C 0.16727 0.27383 0.26847
 C1778 C 0.17785 0.25472 0.24900
 H1779 H 0.04557 0.24904 0.31550
 H1780 H 0.18120 0.28958 0.27670
 H1781 H 0.06197 0.30470 0.34322
 H1782 H 0.16400 0.23909 0.24047
 C1783 C 0.54554 0.78405 0.83532
 C1784 C 0.55498 0.76590 0.81424
 C1785 C 0.58384 0.76855 0.80168
 N1786 N 0.59240 0.75201 0.77994
 N1787 N 0.61890 0.75334 0.76976
 C1788 C 0.63786 0.77120 0.78107
 N1789 N 0.62926 0.78773 0.80269
 N1790 N 0.60281 0.78649 0.81274
 C1791 C 0.66777 0.77182 0.77197
 C1792 C 0.67840 0.75821 0.74785
 H1793 H 0.54189 0.74881 0.80761
 H1794 H 0.68215 0.78327 0.78536
 H1795 H 0.55908 0.80155 0.84006
 H1796 H 0.66413 0.74728 0.73389
 C1797 C 0.53487 0.23815 0.66720
 C1798 C 0.55707 0.25742 0.66925
 C1799 C 0.58083 0.25419 0.69023
 N1800 N 0.59937 0.27579 0.69148
 N1801 N 0.62214 0.27330 0.70859
 C1802 C 0.62742 0.24907 0.72524
 N1803 N 0.60871 0.22743 0.72428
 N1804 N 0.58579 0.22993 0.70711
 C1805 C 0.65420 0.24557 0.74194
 C1806 C 0.67489 0.26656 0.73953
 H1807 H 0.55727 0.27668 0.65519
 H1808 H 0.65862 0.22555 0.75384
 H1809 H 0.53344 0.22050 0.68354
 H1810 H 0.66946 0.28674 0.72847
 C1811 C 0.04087 0.73368 0.16279
 C1812 C 0.06009 0.75526 0.16739
 C1813 C 0.08721 0.75020 0.18254
 N1814 N 0.09966 0.77128 0.19660
 N1815 N 0.12543 0.76796 0.20806
 C1816 C 0.13990 0.74356 0.20544
 N1817 N 0.12749 0.72250 0.19131
 N1818 N 0.10153 0.72566 0.18024
 C1819 C 0.16942 0.74079 0.21510
 C1820 C 0.18022 0.75519 0.23848
 H1821 H 0.05504 0.77688 0.16034
 H1822 H 0.18307 0.72712 0.20320
 H1823 H 0.04399 0.71328 0.17449
 H1824 H 0.16620 0.76795 0.25101
   
