data_POSCAR
  _audit_creation_date              2014-09-24
  _audit_creation_method            'ToBaCCo'
  _symmetry_space_group_name_H-M    'P1'
  _symmetry_Int_Tables_number       1
  _symmetry_cell_setting            triclinic
  loop_
  _symmetry_equiv_pos_as_xyz
 x,y,z
_cell_length_a 35.1690
_cell_length_b 35.2735
_cell_length_c 35.1128
_cell_angle_alpha 89.000500
_cell_angle_beta 89.153600
_cell_angle_gamma 89.086500
loop_
  _atom_site_label
  _atom_site_type_symbol
  _atom_site_fract_x
  _atom_site_fract_y
  _atom_site_fract_z
C1 C 0.10329 0.00062 0.21298
 C2 C 0.12706 0.03597 0.21456
 C3 C 0.14963 0.03719 0.24534
 C4 C 0.14677 0.00232 0.27238
 C5 C 0.13171 -0.03247 0.21515
 C6 C 0.15439 -0.03187 0.24629
 C7 C 0.08100 -0.00082 0.25085
 C8 C 0.10391 -0.00005 0.28201
 H9 H 0.12477 0.05927 0.19394
 H10 H 0.16557 0.00327 0.29749
 H11 H 0.13151 -0.05615 0.19574
 H12 H 0.05023 -0.00270 0.25286
 C13 C 0.40207 -0.00144 0.71805
 C14 C 0.37514 -0.03464 0.71908
 C15 C 0.35170 -0.03563 0.75001
 C16 C 0.35736 -0.00215 0.77766
 C17 C 0.37653 0.03377 0.72063
 C18 C 0.35335 0.03397 0.75203
 C19 C 0.42261 -0.00350 0.75370
 C20 C 0.39788 -0.00361 0.78668
 H21 H 0.37624 -0.05708 0.69818
 H22 H 0.33785 -0.00264 0.80286
 H23 H 0.37956 0.05826 0.70163
 H24 H 0.45334 -0.00142 0.75538
 C25 C 0.89828 0.49835 0.21390
 C26 C 0.87168 0.46508 0.21578
 C27 C 0.84868 0.46418 0.24691
 C28 C 0.85420 0.49804 0.27410
 C29 C 0.87278 0.53353 0.21662
 C30 C 0.85014 0.53407 0.24839
 C31 C 0.92033 0.49672 0.25133
 C32 C 0.89713 0.49696 0.28303
 H33 H 0.87276 0.44236 0.19517
 H34 H 0.83504 0.49771 0.29954
 H35 H 0.87609 0.55812 0.19781
 H36 H 0.95108 0.49861 0.25265
 C37 C 0.60508 0.49996 0.71444
 C38 C 0.62994 0.53462 0.71498
 C39 C 0.65271 0.53600 0.74560
 C40 C 0.64900 0.50187 0.77349
 C41 C 0.63253 0.46611 0.71728
 C42 C 0.65544 0.46683 0.74825
 C43 C 0.58300 0.50010 0.75242
 C44 C 0.60612 0.50098 0.78338
 H45 H 0.62778 0.55772 0.69410
 H46 H 0.66797 0.50289 0.79846
 H47 H 0.63168 0.44210 0.69832
 H48 H 0.55221 0.49870 0.75467
 C49 C 0.21172 0.10117 1.00206
 C50 C 0.21160 0.12721 1.03592
 C51 C 0.24220 0.14984 1.03711
 C52 C 0.27083 0.14466 1.00380
 C53 C 0.21546 0.12731 0.96713
 C54 C 0.24646 0.15002 0.96787
 C55 C 0.24945 0.07892 1.00394
 C56 C 0.28046 0.10181 1.00469
 H57 H 0.19015 0.12618 1.05857
 H58 H 0.29585 0.16345 1.00476
 H59 H 0.19675 0.12616 0.94282
 H60 H 0.25156 0.04819 1.00311
 C61 C 0.71747 0.39639 0.99831
 C62 C 0.71907 0.37081 0.96661
 C63 C 0.75183 0.34664 0.96613
 C64 C 0.77741 0.35251 0.99867
 C65 C 0.71981 0.37255 1.03229
 C66 C 0.75297 0.34853 1.03313
 C67 C 0.75287 0.41750 0.99652
 C68 C 0.78626 0.39320 0.99694
 H69 H 0.69904 0.37207 0.94321
 H70 H 0.80281 0.33330 0.99867
 H71 H 0.70093 0.37583 1.05692
 H72 H 0.75415 0.44823 0.99773
 C73 C 0.21701 0.90126 0.49841
 C74 C 0.21991 0.87430 0.46540
 C75 C 0.25140 0.85184 0.46534
 C76 C 0.27796 0.85820 0.49962
 C77 C 0.21984 0.87630 0.53414
 C78 C 0.25187 0.85416 0.53539
 C79 C 0.25416 0.92383 0.49702
 C80 C 0.28625 0.90113 0.49800
 H81 H 0.19961 0.87463 0.44227
 H82 H 0.30364 0.83946 0.49996
 H83 H 0.20037 0.87908 0.55832
 H84 H 0.25498 0.95455 0.49804
 C85 C 0.71365 0.60300 0.50048
 C86 C 0.71383 0.62763 0.53538
 C87 C 0.74452 0.65006 0.53724
 C88 C 0.77295 0.64607 0.50366
 C89 C 0.71731 0.63046 0.46661
 C90 C 0.74843 0.65293 0.46813
 C91 C 0.75126 0.58052 0.50128
 C92 C 0.78234 0.60322 0.50279
 H93 H 0.69224 0.62621 0.55788
 H94 H 0.79806 0.66465 0.50526
 H95 H 0.69873 0.63007 0.44214
 H96 H 0.75323 0.54986 0.49927
 C97 C -0.00061 0.21134 0.10222
 C98 C 0.03325 0.21242 0.12829
 C99 C 0.03403 0.24351 0.15021
 C100 C 0.00015 0.27130 0.14446
 C101 C -0.03546 0.21502 0.12840
 C102 C -0.03530 0.24648 0.15043
 C103 C 0.00049 0.24852 0.07898
 C104 C 0.00071 0.27996 0.10123
 H105 H 0.05641 0.19157 0.12747
 H106 H 0.00068 0.29668 0.16274
 H107 H -0.05944 0.19600 0.12755
 H108 H -0.00017 0.24992 0.04807
 C109 C -0.00170 0.71776 0.39837
 C110 C -0.03333 0.71982 0.37298
 C111 C -0.03374 0.75234 0.34880
 C112 C -0.00152 0.77774 0.35422
 C113 C 0.03382 0.72038 0.37306
 C114 C 0.03454 0.75203 0.35028
 C115 C -0.00281 0.75500 0.42059
 C116 C -0.00230 0.78667 0.39730
 H117 H -0.05656 0.69974 0.37403
 H118 H -0.00162 0.80310 0.33498
 H119 H 0.05830 0.70143 0.37634
 H120 H -0.00081 0.75619 0.45138
 C121 C 0.49929 0.21565 0.90033
 C122 C 0.46621 0.21857 0.87333
 C123 C 0.46635 0.24979 0.85047
 C124 C 0.50085 0.27595 0.85653
 C125 C 0.53485 0.21778 0.87516
 C126 C 0.53625 0.24948 0.85259
 C127 C 0.49835 0.25269 0.92264
 C128 C 0.49950 0.28441 0.89960
 H129 H 0.44291 0.19859 0.87397
 H130 H 0.50134 0.30145 0.83752
 H131 H 0.55883 0.19815 0.87816
 H132 H 0.49944 0.25370 0.95351
 C133 C 0.49868 0.71509 0.60180
 C134 C 0.53284 0.71457 0.62763
 C135 C 0.53477 0.74511 0.65021
 C136 C 0.50171 0.77404 0.64531
 C137 C 0.46422 0.71931 0.62834
 C138 C 0.46555 0.75022 0.65102
 C139 C 0.50078 0.75272 0.57932
 C140 C 0.50223 0.78365 0.60226
 H141 H 0.55534 0.69306 0.62619
 H142 H 0.50317 0.79894 0.66414
 H143 H 0.43966 0.70103 0.62737
 H144 H 0.49984 0.75481 0.54845
 C145 C 0.89531 1.00199 0.78642
 C146 C 0.86969 1.03439 0.78330
 C147 C 0.84548 1.03330 0.75094
 C148 C 0.85114 0.99951 0.72774
 C149 C 0.87016 0.96746 0.78670
 C150 C 0.84714 0.96569 0.75629
 C151 C 0.91738 1.00061 0.74838
 C152 C 0.89412 0.99944 0.71747
 H153 H 0.87140 1.05905 0.80134
 H154 H 0.83201 0.99816 0.70289
 H155 H 0.87218 0.94476 0.80804
 H156 H 0.94817 1.00178 0.74603
 C157 C 0.39671 0.50001 0.28799
 C158 C 0.36966 0.53414 0.28444
 C159 C 0.34710 0.53334 0.25319
 C160 C 0.35340 0.49788 0.22849
 C161 C 0.37151 0.46566 0.28761
 C162 C 0.34899 0.46414 0.25687
 C163 C 0.41921 0.49922 0.25023
 C164 C 0.39642 0.49833 0.21898
 H165 H 0.37060 0.55837 0.30311
 H166 H 0.33466 0.49671 0.20335
 H167 H 0.37295 0.44296 0.30898
 H168 H 0.45000 0.50075 0.24830
 C169 C 0.60258 1.00337 0.28300
 C170 C 0.62766 0.96764 0.28074
 C171 C 0.65012 0.96631 0.24872
 C172 C 0.64604 1.00202 0.22240
 C173 C 0.62810 1.03463 0.28018
 C174 C 0.65187 1.03450 0.24742
 C175 C 0.58002 1.00404 0.24577
 C176 C 0.60287 1.00278 0.21377
 H177 H 0.62455 0.94359 0.30028
 H178 H 0.66496 1.00173 0.19677
 H179 H 0.62749 1.05804 0.30006
 H180 H 0.54927 1.00184 0.24491
 C181 C 0.10229 0.50134 0.78080
 C182 C 0.12774 0.46599 0.77897
 C183 C 0.15061 0.46477 0.74735
 C184 C 0.14673 0.50011 0.72080
 C185 C 0.12902 0.53447 0.77822
 C186 C 0.15224 0.53447 0.74723
 C187 C 0.08047 0.50213 0.74323
 C188 C 0.10384 0.50105 0.71167
 H189 H 0.12453 0.44192 0.79847
 H190 H 0.16600 0.49982 0.69545
 H191 H 0.12815 0.55755 0.79843
 H192 H 0.04971 0.50045 0.74179
 C193 C 0.78509 0.89782 0.00149
 C194 C 0.78150 0.87093 0.03581
 C195 C 0.75084 0.84782 0.03437
 C196 C 0.72676 0.85345 -0.00173
 C197 C 0.78593 0.87254 -0.03292
 C198 C 0.75576 0.84949 -0.03494
 C199 C 0.74702 0.91951 -0.00023
 C200 C 0.71641 0.89612 -0.00170
 H201 H 0.79966 0.87225 0.06053
 H202 H 0.70210 0.83427 -0.00333
 H203 H 0.80752 0.87445 -0.05540
 H204 H 0.74438 0.95017 0.00141
 C205 C 0.28722 0.39872 0.50045
 C206 C 0.28362 0.37208 0.53505
 C207 C 0.25269 0.34923 0.53406
 C208 C 0.22834 0.35491 0.49811
 C209 C 0.28746 0.37316 0.46625
 C210 C 0.25701 0.35040 0.46467
 C211 C 0.24932 0.42076 0.49890
 C212 C 0.21843 0.39771 0.49788
 H213 H 0.30220 0.37317 0.55947
 H214 H 0.20345 0.33600 0.49687
 H215 H 0.30887 0.37467 0.44358
 H216 H 0.24703 0.45146 0.50009
 C217 C 0.28349 0.59668 0.00261
 C218 C 0.28179 0.62263 -0.03257
 C219 C 0.25038 0.64571 -0.03361
 C220 C 0.22381 0.64148 0.00174
 C221 C 0.28098 0.62282 0.03626
 C222 C 0.25029 0.64631 0.03642
 C223 C 0.24577 0.57519 0.00293
 C224 C 0.21431 0.59875 0.00203
 H225 H 0.30128 0.61971 -0.05671
 H226 H 0.19864 0.66091 0.00164
 H227 H 0.30150 0.62196 0.05921
 H228 H 0.24416 0.54458 0.00078
 C229 C 0.78332 0.10250 0.50011
 C230 C 0.78121 0.12724 0.46672
 C231 C 0.74815 0.15151 0.46645
 C232 C 0.72376 0.14685 0.50087
 C233 C 0.78193 0.12718 0.53244
 C234 C 0.74952 0.15165 0.53354
 C235 C 0.74775 0.08164 0.50128
 C236 C 0.71454 0.10620 0.50138
 H237 H 0.79971 0.12398 0.44181
 H238 H 0.69853 0.16626 0.50147
 H239 H 0.80230 0.12557 0.55556
 H240 H 0.74625 0.05104 0.49866
 C241 C 1.00024 0.78538 0.89910
 C242 C 1.03401 0.78226 0.87145
 C243 C 1.03245 0.75185 0.84807
 C244 C 0.99669 0.72749 0.85422
 C245 C 0.96539 0.78607 0.87432
 C246 C 0.96318 0.75623 0.85097
 C247 C 0.99932 0.74718 0.92069
 C248 C 0.99769 0.71677 0.89705
 H249 H 1.05861 0.80047 0.87259
 H250 H 0.99491 0.70306 0.83482
 H251 H 0.94297 0.80761 0.87648
 H252 H 1.00152 0.74436 0.95143
 C253 C 0.49901 0.28912 0.39829
 C254 C 0.53223 0.28603 0.36988
 C255 C 0.53080 0.25490 0.34739
 C256 C 0.49578 0.22993 0.35513
 C257 C 0.46358 0.28835 0.37440
 C258 C 0.46158 0.25781 0.35192
 C259 C 0.49950 0.25153 0.42087
 C260 C 0.49806 0.22046 0.39816
 H261 H 0.55653 0.30469 0.37006
 H262 H 0.49408 0.20489 0.33651
 H263 H 0.44092 0.30968 0.37617
 H264 H 0.50243 0.24959 0.45161
 C265 C 1.00270 0.28389 0.59824
 C266 C 0.96707 0.28116 0.62338
 C267 C 0.96623 0.24943 0.64607
 C268 C 1.00223 0.22377 0.64233
 C269 C 1.03572 0.28176 0.62530
 C270 C 1.03616 0.25072 0.64832
 C271 C 1.00436 0.24672 0.57612
 C272 C 1.00364 0.21509 0.59932
 H273 H 0.94263 0.30014 0.62007
 H274 H 1.00228 0.19836 0.66147
 H275 H 1.05857 0.30225 0.62466
 H276 H 1.00250 0.24554 0.54532
 C277 C 0.50239 0.78159 0.10046
 C278 C 0.46686 0.77898 0.12573
 C279 C 0.46616 0.74747 0.14871
 C280 C 0.50220 0.72188 0.14518
 C281 C 0.53548 0.77980 0.12742
 C282 C 0.53605 0.74903 0.15079
 C283 C 0.50408 0.74412 0.07872
 C284 C 0.50350 0.71267 0.10228
 H285 H 0.44232 0.79781 0.12224
 H286 H 0.50236 0.69669 0.16462
 H287 H 0.55822 0.80041 0.12658
 H288 H 0.50223 0.74260 0.04793
 O289 O -0.01934 0.97719 0.89216
 O290 O 0.04364 0.99687 0.89174
 O291 O -0.02225 0.89147 0.98344
 O292 O -0.00773 0.89133 1.04846
 O293 O -0.10896 0.98237 0.97962
 O294 O -0.10894 1.04711 0.99442
 O295 O 0.07008 0.99042 1.08408
 O296 O 0.07780 0.92844 1.05071
 O297 O 0.08319 1.06887 0.99256
 O298 O 0.05304 1.08054 0.93291
 O299 O -0.00862 1.08252 1.07118
 O300 O -0.06969 1.05037 1.08126
 O301 O 0.01728 1.02086 1.10712
 O302 O -0.04927 1.00580 1.10865
 O303 O 0.02135 1.10522 1.01786
 O304 O 0.00500 1.10460 0.94943
 O305 O 0.10601 1.01542 1.02202
 O306 O 0.10839 0.95376 1.00586
 O307 O -0.07125 1.00928 0.91522
 O308 O -0.08172 1.06716 0.94710
 O309 O -0.08632 0.92933 1.00998
 O310 O -0.05490 0.91892 1.06836
 O311 O 0.00806 0.91396 0.93021
 O312 O 0.06730 0.94578 0.92043
 Zr313 Zr 0.01585 0.97191 0.93975
 O314 O 0.05165 1.00506 0.97226
 Zr315 Zr -0.02840 0.93927 1.01773
 O316 O 0.00552 0.97111 1.05339
 Zr317 Zr -0.06108 1.01663 0.97333
 O318 O -0.02854 1.05194 1.00700
 Zr319 Zr 0.05838 0.98066 1.02671
 O320 O 0.02602 0.94491 0.99267
 Zr321 Zr 0.02582 1.05809 0.98234
 O322 O -0.00843 1.02633 0.94628
 Zr323 Zr -0.01865 1.02543 1.06003
 O324 O -0.05513 0.99193 1.02792
 O325 O -0.03787 0.96289 0.96383
 O326 O 0.03551 1.03481 1.03659
 C327 C -0.05136 0.99458 0.88822
 C328 C -0.00577 0.88721 0.95103
 C329 C -0.11314 0.95000 0.99604
 C330 C 0.05019 1.00534 1.11092
 C331 C 0.10994 1.04847 1.00700
 C332 C 0.00601 1.10916 1.05085
 H333 H 0.07631 1.00709 0.95855
 H334 H -0.04236 1.07642 1.00935
 H335 H -0.05405 0.94696 0.94792
 H336 H 0.00795 0.95720 1.07792
 H337 H 0.06226 0.92294 1.07380
 H338 H 0.01878 0.88685 1.03961
 H339 H -0.01863 1.11405 0.96189
 H340 H -0.06122 1.07635 0.92983
 H341 H 0.10123 0.94113 0.98215
 H342 H 0.06268 0.93242 0.89629
 H343 H -0.07682 1.07161 1.06390
 H344 H -0.11312 1.03826 1.02104
 H345 H 0.03283 1.02277 0.88825
 H346 H 0.07157 1.06127 0.92371
 H347 H -0.07187 0.93958 1.07755
 H348 H -0.03903 0.98039 1.11565
 O349 O 0.58485 0.57145 0.49158
 O350 O 0.55321 0.58170 0.43319
 O351 O 0.48892 0.58611 0.57073
 O352 O 0.43674 0.55641 0.58750
 O353 O 0.57163 0.49132 0.58572
 O354 O 0.58136 0.43341 0.55436
 O355 O 0.39258 0.48485 0.47912
 O356 O 0.39177 0.54578 0.49910
 O357 O 0.48224 0.47958 0.39422
 O358 O 0.54836 0.49446 0.39283
 O359 O 0.47806 0.39481 0.48363
 O360 O 0.49204 0.39279 0.54932
 O361 O 0.41580 0.43169 0.50905
 O362 O 0.44895 0.42154 0.57084
 O363 O 0.50808 0.41760 0.43036
 O364 O 0.56913 0.45004 0.42048
 O365 O 0.42846 0.50811 0.41749
 O366 O 0.42538 0.57013 0.44483
 O367 O 0.60800 0.51842 0.52157
 O368 O 0.60809 0.45336 0.50623
 O369 O 0.51918 0.52230 0.60875
 O370 O 0.45222 0.50333 0.60753
 O371 O 0.52089 0.60856 0.51844
 O372 O 0.50597 0.60891 0.45337
 Zr373 Zr 0.52704 0.56101 0.48386
 O374 O 0.49341 0.52886 0.44828
 Zr375 Zr 0.48337 0.52789 0.56157
 O376 O 0.44743 0.49493 0.52897
 Zr377 Zr 0.56046 0.48376 0.52799
 O378 O 0.52785 0.44836 0.49458
 Zr379 Zr 0.44046 0.51922 0.47452
 O380 O 0.47256 0.55501 0.50880
 Zr381 Zr 0.51789 0.47474 0.44152
 O382 O 0.55418 0.50856 0.47349
 Zr383 Zr 0.47346 0.44198 0.51916
 O384 O 0.50798 0.47357 0.55536
 O385 O 0.53695 0.53741 0.53771
 O386 O 0.46377 0.46517 0.46493
 C387 C 0.61183 0.55095 0.50541
 C388 C 0.50366 0.61281 0.55047
 C389 C 0.55159 0.50574 0.61269
 C390 C 0.38884 0.45192 0.49458
 C391 C 0.44894 0.49425 0.39049
 C392 C 0.49354 0.39089 0.45066
 H393 H 0.49064 0.54288 0.42382
 H394 H 0.54168 0.42389 0.49224
 H395 H 0.55291 0.55355 0.55363
 H396 H 0.42281 0.49284 0.54273
 H397 H 0.40027 0.57000 0.50972
 H398 H 0.41503 0.55402 0.57019
 H399 H 0.57616 0.42865 0.43771
 H400 H 0.61259 0.46298 0.47993
 H401 H 0.39962 0.56728 0.43420
 H402 H 0.47912 0.61249 0.46153
 H403 H 0.51843 0.38710 0.54084
 H404 H 0.56088 0.42416 0.57161
 H405 H 0.57063 0.56135 0.42411
 H406 H 0.53850 0.52014 0.38633
 H407 H 0.46527 0.47914 0.61441
 H408 H 0.42703 0.43826 0.57731
 O409 O 0.51425 -0.08176 0.57458
 O410 O 0.57350 -0.04808 0.57824
 O411 O 0.43259 0.00890 0.58754
 O412 O 0.41310 0.06060 0.55753
 O413 O 0.42101 -0.07307 0.49410
 O414 O 0.45511 -0.08123 0.43573
 O415 O 0.52046 0.11076 0.47812
 O416 O 0.49723 0.11088 0.54053
 O417 O 0.60836 0.02801 0.47538
 O418 O 0.61057 -0.04177 0.49431
 O419 O 0.51818 0.02502 0.39196
 O420 O 0.45323 0.00787 0.39364
 O421 O 0.49175 0.08620 0.42651
 O422 O 0.43073 0.05143 0.42125
 O423 O 0.57331 -0.00115 0.41409
 O424 O 0.59009 -0.05719 0.44453
 O425 O 0.58216 0.07989 0.50374
 O426 O 0.55333 0.08079 0.56583
 O427 O 0.48484 -0.10584 0.52325
 O428 O 0.50390 -0.10588 0.45745
 O429 O 0.39566 -0.02220 0.52486
 O430 O 0.39389 0.04500 0.50443
 O431 O 0.48711 -0.01899 0.60931
 O432 O 0.55067 -0.00241 0.60713
 Zr433 Zr 0.52117 -0.02389 0.56034
 O434 O 0.55477 0.01248 0.52629
 Zr435 Zr 0.44120 0.01601 0.52850
 O436 O 0.47184 0.05397 0.49325
 Zr437 Zr 0.47864 -0.05912 0.48563
 O438 O 0.51066 -0.02441 0.44840
 Zr439 Zr 0.52573 0.06390 0.51560
 O440 O 0.49344 0.02934 0.55346
 Zr441 Zr 0.56321 -0.01114 0.47246
 O442 O 0.53293 -0.04995 0.50798
 Zr443 Zr 0.48317 0.02853 0.44062
 O444 O 0.44881 -0.00803 0.47449
 O445 O 0.46780 -0.03609 0.53887
 O446 O 0.53670 0.04127 0.46183
 C447 C 0.50008 -0.10916 0.55613
 C448 C 0.45394 -0.00439 0.61412
 C449 C 0.39294 -0.05456 0.50892
 C450 C 0.50588 0.11371 0.44486
 C451 C 0.61046 0.06143 0.48939
 C452 C 0.55189 0.01158 0.38738
 H453 H 0.57890 0.01661 0.53960
 H454 H 0.51394 -0.03812 0.42423
 H455 H 0.45232 -0.05249 0.55602
 H456 H 0.45712 0.07794 0.49047
 H457 H 0.48734 0.10204 0.56564
 H458 H 0.42812 0.08365 0.55252
 H459 H 0.56985 -0.07159 0.43228
 H460 H 0.52959 -0.10959 0.46821
 H461 H 0.56161 0.10740 0.56227
 H462 H 0.54297 0.02458 0.60914
 H463 H 0.46380 -0.01758 0.38787
 H464 H 0.43616 -0.06227 0.42653
 H465 H 0.58121 -0.06704 0.55904
 H466 H 0.61969 -0.02809 0.51669
 H467 H 0.38818 0.03219 0.48036
 H468 H 0.42387 0.07346 0.43713
 O469 O 0.01015 0.41377 1.07179
 O470 O 0.06912 0.44699 1.07600
 O471 O -0.07144 0.50516 1.08306
 O472 O -0.09244 0.55503 1.05161
 O473 O -0.08138 0.42054 0.99075
 O474 O -0.04773 0.41321 0.93225
 O475 O 0.01791 0.60567 0.97483
 O476 O -0.00623 0.60609 1.03653
 O477 O 0.10549 0.52220 0.97319
 O478 O 0.10747 0.45299 0.99124
 O479 O 0.01596 0.52053 0.88864
 O480 O -0.04750 0.50405 0.88823
 O481 O -0.01113 0.58150 0.92323
 O482 O -0.07281 0.54502 0.91826
 O483 O 0.07091 0.49445 0.91132
 O484 O 0.08670 0.43724 0.94187
 O485 O 0.07930 0.57415 1.00146
 O486 O 0.04896 0.57578 1.06303
 O487 O -0.01761 0.38903 1.01984
 O488 O 0.00195 0.38937 0.95370
 O489 O -0.10745 0.47151 1.02079
 O490 O -0.10922 0.53948 0.99858
 O491 O -0.01736 0.47709 1.10564
 O492 O 0.04655 0.49313 1.10391
 Zr493 Zr 0.01724 0.47139 1.05711
 O494 O 0.05123 0.50739 1.02325
 Zr495 Zr -0.06250 0.51071 1.02400
 O496 O -0.03134 0.54891 0.98940
 Zr497 Zr -0.02418 0.43559 0.98200
 O498 O 0.00781 0.47052 0.94491
 Zr499 Zr 0.02237 0.55882 1.01228
 O500 O -0.01060 0.52442 1.04963
 Zr501 Zr 0.06011 0.48366 0.96947
 O502 O 0.02971 0.44504 1.00501
 Zr503 Zr -0.01954 0.52355 0.93691
 O504 O -0.05410 0.48655 0.97019
 O505 O -0.03576 0.45884 1.03505
 O506 O 0.03380 0.53617 0.95863
 C507 C -0.00316 0.38612 1.05314
 C508 C -0.05036 0.49224 1.10998
 C509 C -0.10966 0.43870 1.00552
 C510 C 0.00327 0.60888 0.94164
 C511 C 0.10767 0.55541 0.98753
 C512 C 0.04985 0.50746 0.88444
 H513 H 0.07521 0.51139 1.03687
 H514 H 0.01128 0.45700 0.92066
 H515 H -0.05124 0.44254 1.05228
 H516 H -0.04606 0.57288 0.98654
 H517 H -0.01708 0.59725 1.06125
 H518 H -0.07618 0.57758 1.04945
 H519 H 0.06679 0.42407 0.92783
 H520 H 0.02742 0.38564 0.96496
 H521 H 0.05775 0.60221 1.05939
 H522 H 0.03840 0.51998 1.10615
 H523 H -0.03941 0.47736 0.88465
 H524 H -0.06662 0.43217 0.92294
 H525 H 0.07729 0.42825 1.05675
 H526 H 0.11565 0.46583 1.01450
 H527 H -0.11595 0.52505 0.97577
 H528 H -0.07880 0.56840 0.93245
 O529 O -0.08315 0.57489 0.51062
 O530 O -0.04916 0.57836 0.56926
 O531 O 0.00704 0.58729 0.42794
 O532 O 0.05802 0.55696 0.40743
 O533 O -0.07663 0.49505 0.41735
 O534 O -0.08516 0.43722 0.45079
 O535 O 0.10861 0.47733 0.51606
 O536 O 0.10953 0.53920 0.49240
 O537 O 0.02577 0.47445 0.60355
 O538 O -0.04296 0.49287 0.60704
 O539 O 0.02248 0.39220 0.51300
 O540 O 0.00515 0.39403 0.44829
 O541 O 0.08372 0.42636 0.48687
 O542 O 0.04822 0.42231 0.42514
 O543 O -0.00321 0.41404 0.56845
 O544 O -0.06069 0.44533 0.58472
 O545 O 0.07780 0.50294 0.57744
 O546 O 0.07949 0.56486 0.54835
 O547 O -0.10823 0.52399 0.48164
 O548 O -0.10837 0.45805 0.50064
 O549 O -0.02541 0.52499 0.39136
 O550 O 0.04237 0.50439 0.38910
 O551 O -0.02036 0.60895 0.48272
 O552 O -0.00263 0.60607 0.54657
 Zr553 Zr -0.02533 0.56016 0.51688
 O554 O 0.01072 0.52566 0.55025
 Zr555 Zr 0.01357 0.52844 0.43647
 O556 O 0.05172 0.49310 0.46689
 Zr557 Zr -0.06185 0.48619 0.47462
 O558 O -0.02701 0.44851 0.50594
 Zr559 Zr 0.06204 0.51498 0.52089
 O560 O 0.02769 0.55305 0.48868
 Zr561 Zr -0.01343 0.47215 0.55853
 O562 O -0.05202 0.50827 0.52881
 Zr563 Zr 0.02593 0.44082 0.47814
 O564 O -0.01097 0.47486 0.44425
 O565 O -0.03834 0.53906 0.46356
 O566 O 0.03896 0.46155 0.53176
 C567 C -0.11097 0.55671 0.49694
 C568 C -0.00587 0.61376 0.44944
 C569 C -0.05813 0.50950 0.38908
 C570 C 0.11135 0.44427 0.50147
 C571 C 0.05919 0.48849 0.60564
 C572 C 0.00942 0.38756 0.54690
 H573 H 0.01504 0.53875 0.57445
 H574 H -0.04083 0.42446 0.50909
 H575 H -0.05479 0.55632 0.44824
 H576 H 0.07571 0.49033 0.45209
 H577 H 0.10099 0.56427 0.48233
 H578 H 0.08091 0.55342 0.42318
 H579 H -0.07332 0.43064 0.56492
 H580 H -0.11185 0.46888 0.52632
 H581 H 0.10608 0.56100 0.55683
 H582 H 0.02400 0.60867 0.53757
 H583 H -0.02066 0.38877 0.45841
 H584 H -0.06607 0.42748 0.43224
 H585 H -0.06768 0.55895 0.57760
 H586 H -0.03015 0.51614 0.61502
 H587 H 0.02895 0.48085 0.38301
 H588 H 0.07120 0.43716 0.41897
 O589 O 0.42216 0.99405 -0.08036
 O590 O 0.41300 0.93613 -0.04678
 O591 O 0.41522 1.07318 0.01408
 O592 O 0.44562 1.08039 0.06842
 O593 O 0.50468 1.08529 -0.07051
 O594 O 0.56098 1.05227 -0.08559
 O595 O 0.52343 0.97229 0.10672
 O596 O 0.46194 0.99301 0.11191
 O597 O 0.52032 0.89015 0.01500
 O598 O 0.50189 0.89270 -0.04975
 O599 O 0.60617 0.97432 0.01776
 O600 O 0.60743 1.04205 -0.00043
 O601 O 0.57492 1.00168 0.08029
 O602 O 0.58380 1.06211 0.04632
 O603 O 0.58143 0.92359 -0.01172
 O604 O 0.54578 0.92003 -0.07280
 O605 O 0.49683 0.91222 0.07129
 O606 O 0.43492 0.94183 0.07935
 O607 O 0.47375 1.02334 -0.10650
 O608 O 0.53944 1.00576 -0.11069
 O609 O 0.47796 1.10721 -0.01554
 O610 O 0.49944 1.10276 0.04913
 O611 O 0.39024 1.02268 -0.01566
 O612 O 0.38997 0.95676 0.00286
 Zr613 Zr 0.43663 0.98490 -0.02287
 O614 O 0.47132 0.94695 0.00836
 Zr615 Zr 0.47322 1.05877 0.01928
 O616 O 0.50893 1.02380 0.05263
 Zr617 Zr 0.51224 1.02676 -0.06109
 O618 O 0.55010 0.99088 -0.03099
 Zr619 Zr 0.48502 0.97015 0.06104
 O620 O 0.44665 1.00686 0.03152
 Zr621 Zr 0.52391 0.93881 -0.01973
 O622 O 0.48741 0.97331 -0.05340
 Zr623 Zr 0.56023 1.01286 0.02314
 O624 O 0.52603 1.05126 -0.00891
 O625 O 0.46032 1.03768 -0.03399
 O626 O 0.53728 0.95946 0.03390
 C627 C 0.44085 1.00822 -0.10872
 C628 C 0.38741 1.05521 0.00003
 C629 C 0.49226 1.11185 -0.04894
 C630 C 0.55663 0.98702 0.10867
 C631 C 0.50843 0.88560 0.04932
 C632 C 0.60900 0.94143 0.00290
 H633 H 0.45729 0.92303 0.01187
 H634 H 0.57384 0.98781 -0.04607
 H635 H 0.44370 1.05483 -0.04925
 H636 H 0.51293 1.03649 0.07708
 H637 H 0.43740 1.00535 0.10517
 H638 H 0.45490 1.06528 0.09045
 H639 H 0.56843 0.93518 -0.07948
 H640 H 0.52957 0.97999 -0.11444
 H641 H 0.43973 0.92954 0.10450
 H642 H 0.38768 0.96609 0.02923
 H643 H 0.61436 1.03025 -0.02497
 H644 H 0.57333 1.06595 -0.06485
 H645 H 0.43189 0.92645 -0.06555
 H646 H 0.47651 0.88710 -0.03872
 H647 H 0.52383 1.10808 0.03581
 H648 H 0.56757 1.06977 0.06821
 O649 O 0.58897 0.42770 0.00759
 O650 O 0.55600 0.41376 0.06483
 O651 O 0.49571 0.41774 -0.07362
 O652 O 0.44321 0.44942 -0.08836
 O653 O 0.57790 0.51105 -0.08153
 O654 O 0.58184 0.56904 -0.04793
 O655 O 0.39251 0.51192 0.02307
 O656 O 0.39583 0.45207 0.00080
 O657 O 0.47738 0.51640 0.10928
 O658 O 0.54471 0.49849 0.11128
 O659 O 0.47556 0.60383 0.02594
 O660 O 0.49012 0.61073 -0.03786
 O661 O 0.41469 0.56722 -0.00270
 O662 O 0.45150 0.58107 -0.06420
 O663 O 0.50552 0.57859 0.07766
 O664 O 0.56612 0.54427 0.08640
 O665 O 0.42572 0.48862 0.08413
 O666 O 0.42856 0.42648 0.05495
 O667 O 0.61144 0.48258 -0.01865
 O668 O 0.60813 0.54684 0.00038
 O669 O 0.52711 0.48160 -0.10644
 O670 O 0.45928 0.50332 -0.10525
 O671 O 0.52663 0.39221 -0.02255
 O672 O 0.50944 0.38829 0.04347
 Zr673 Zr 0.53031 0.43758 0.01572
 O674 O 0.49425 0.46777 0.05323
 Zr675 Zr 0.48855 0.47528 -0.06036
 O676 O 0.45019 0.50606 -0.02588
 Zr677 Zr 0.56274 0.51731 -0.02371
 O678 O 0.52747 0.55068 0.01163
 Zr679 Zr 0.44197 0.47863 0.02712
 O680 O 0.47660 0.44508 -0.00927
 Zr681 Zr 0.51626 0.52163 0.06328
 O682 O 0.55494 0.48959 0.02942
 Zr683 Zr 0.47359 0.55856 -0.01265
 O684 O 0.51082 0.52926 -0.05068
 O685 O 0.54138 0.46430 -0.03644
 O686 O 0.46272 0.53221 0.03993
 C687 C 0.61585 0.44895 -0.00494
 C688 C 0.51069 0.38977 -0.05512
 C689 C 0.55987 0.49696 -0.10931
 C690 C 0.38791 0.54567 0.00978
 C691 C 0.44386 0.50260 0.11190
 C692 C 0.49048 0.60643 0.05899
 H693 H 0.49075 0.45277 0.07705
 H694 H 0.54032 0.57501 0.01543
 H695 H 0.55845 0.44881 -0.05286
 H696 H 0.42607 0.50880 -0.03985
 H697 H 0.40608 0.42847 -0.01061
 H698 H 0.42135 0.44966 -0.07036
 H699 H 0.57378 0.56607 0.07008
 H700 H 0.61243 0.53534 0.02591
 H701 H 0.40224 0.42850 0.06537
 H702 H 0.48342 0.38463 0.03399
 H703 H 0.51761 0.61336 -0.03319
 H704 H 0.56221 0.57776 -0.06616
 H705 H 0.57040 0.43437 0.07648
 H706 H 0.53376 0.47339 0.11724
 H707 H 0.47319 0.52688 -0.11136
 H708 H 0.42968 0.56541 -0.07124
 O709 O -0.11102 0.01676 0.51964
 O710 O -0.10804 -0.04499 0.49779
 O711 O -0.02582 0.01733 0.60749
 O712 O 0.03556 0.00146 0.61162
 O713 O -0.02548 0.10729 0.52194
 O714 O -0.00855 0.11069 0.45646
 O715 O 0.08480 -0.07046 0.50485
 O716 O 0.05326 -0.08178 0.56307
 O717 O -0.00469 -0.07974 0.42316
 O718 O -0.06389 -0.04671 0.41275
 O719 O 0.07461 0.01103 0.41677
 O720 O 0.07889 0.07177 0.45168
 O721 O 0.10718 -0.01570 0.47828
 O722 O 0.10497 0.04943 0.49663
 O723 O 0.02369 -0.01806 0.39172
 O724 O -0.04511 0.00150 0.39070
 O725 O 0.02481 -0.10524 0.47506
 O726 O 0.00372 -0.11126 0.53585
 O727 O -0.08830 0.07087 0.49179
 O728 O -0.05453 0.08494 0.43468
 O729 O 0.00255 0.08152 0.57455
 O730 O 0.06241 0.04821 0.58152
 O731 O -0.07738 -0.01056 0.58224
 O732 O -0.07902 -0.07067 0.54882
 Zr733 Zr -0.06233 -0.01790 0.52441
 O734 O -0.02728 -0.05145 0.48907
 Zr735 Zr 0.01197 0.02429 0.56094
 O736 O 0.05008 -0.00783 0.52728
 Zr737 Zr -0.02942 0.06145 0.48426
 O738 O 0.00698 0.03099 0.44721
 Zr739 Zr 0.02623 -0.06003 0.51368
 O740 O -0.01037 -0.02986 0.55161
 Zr741 Zr -0.01544 -0.02279 0.43741
 O742 O -0.05397 0.00941 0.47112
 Zr743 Zr 0.05887 0.01955 0.47419
 O744 O 0.02396 0.05386 0.50963
 O745 O -0.04066 0.03520 0.53655
 O746 O 0.03786 -0.03380 0.46109
 C747 C -0.11528 0.04993 0.50476
 C748 C -0.05903 0.00284 0.61018
 C749 C -0.01079 0.10968 0.55512
 C750 C 0.11165 -0.04931 0.49192
 C751 C 0.01021 -0.10764 0.44183
 C752 C 0.05688 -0.00362 0.38909
 H753 H -0.04016 -0.07579 0.48531
 H754 H 0.01047 0.04579 0.42330
 H755 H -0.05780 0.05076 0.55283
 H756 H 0.07393 -0.01142 0.54152
 H757 H 0.03650 -0.07544 0.58503
 H758 H 0.05457 -0.01808 0.60414
 H759 H -0.03162 0.02461 0.38221
 H760 H -0.06917 0.06441 0.42324
 H761 H -0.01642 -0.10401 0.55440
 H762 H -0.10404 -0.06740 0.56193
 H763 H 0.06353 0.07871 0.42916
 H764 H 0.01777 0.11385 0.46537
 H765 H -0.11091 -0.03310 0.47222
 H766 H -0.07314 -0.06691 0.43030
 H767 H 0.07000 0.06836 0.56309
 H768 H 0.11122 0.03768 0.52159
 O769 O 0.63909 0.22269 0.26150
 O770 O 0.64275 0.24768 0.19986
 O771 O 0.73190 0.13954 0.26447
 O772 O 0.79367 0.13781 0.26367
 O773 O 0.71696 0.22805 0.35609
 O774 O 0.73130 0.29285 0.35659
 O775 O 0.83753 0.24583 0.18191
 O776 O 0.81168 0.18534 0.17467
 O777 O 0.74888 0.32273 0.16413
 O778 O 0.68757 0.33400 0.18951
 O779 O 0.81684 0.33390 0.26442
 O780 O 0.82200 0.29604 0.32411
 O781 O 0.85574 0.27482 0.23596
 O782 O 0.85326 0.25477 0.30166
 O783 O 0.76686 0.35742 0.23059
 O784 O 0.69614 0.35378 0.24090
 O785 O 0.78033 0.27013 0.14295
 O786 O 0.76053 0.20935 0.14057
 O787 O 0.65715 0.25293 0.31496
 O788 O 0.68580 0.31306 0.32518
 O789 O 0.74838 0.17542 0.33507
 O790 O 0.81341 0.17121 0.30646
 O791 O 0.68081 0.16294 0.23218
 O792 O 0.67593 0.20014 0.17404
 Zr793 Zr 0.68963 0.22191 0.22811
 O794 O 0.72495 0.25757 0.19489
 Zr795 Zr 0.76339 0.18808 0.27746
 O796 O 0.80157 0.22194 0.24541
 Zr797 Zr 0.71534 0.26359 0.30740
 O798 O 0.75181 0.30076 0.27741
 Zr799 Zr 0.77995 0.23401 0.19109
 O800 O 0.74388 0.19622 0.22129
 Zr801 Zr 0.73265 0.30973 0.22141
 O802 O 0.69365 0.27560 0.25295
 Zr803 Zr 0.80596 0.27545 0.27051
 O804 O 0.77062 0.23999 0.30483
 O805 O 0.70870 0.21058 0.28325
 O806 O 0.78754 0.28726 0.21509
 C807 C 0.63223 0.23759 0.29412
 C808 C 0.70106 0.13547 0.24582
 C809 C 0.73210 0.19515 0.36142
 C810 C 0.86236 0.26130 0.20271
 C811 C 0.76601 0.30343 0.13792
 C812 C 0.79784 0.36132 0.24899
 H813 H 0.71373 0.26083 0.16936
 H814 H 0.75251 0.32447 0.29194
 H815 H 0.69186 0.19322 0.29789
 H816 H 0.82644 0.20860 0.24345
 H817 H 0.79587 0.16310 0.18113
 H818 H 0.80917 0.14369 0.24067
 H819 H 0.70592 0.36221 0.26558
 H820 H 0.66884 0.32094 0.30412
 H821 H 0.74229 0.18958 0.14855
 H822 H 0.65197 0.18567 0.17631
 H823 H 0.80404 0.31680 0.33090
 H824 H 0.75717 0.28362 0.36310
 H825 H 0.63870 0.27313 0.21079
 H826 H 0.67699 0.31363 0.17404
 H827 H 0.81704 0.18966 0.32697
 H828 H 0.86025 0.22945 0.29187
 O829 O 0.75939 0.68051 0.66600
 O830 O 0.81688 0.67013 0.69764
 O831 O 0.67998 0.66590 0.76311
 O832 O 0.66276 0.69614 0.81431
 O833 O 0.66449 0.76127 0.67923
 O834 O 0.69612 0.81828 0.66832
 O835 O 0.77109 0.76757 0.85832
 O836 O 0.75157 0.70696 0.85927
 O837 O 0.85627 0.77250 0.76819
 O838 O 0.85862 0.75979 0.70340
 O839 O 0.76628 0.85806 0.77167
 O840 O 0.70183 0.86030 0.75951
 O841 O 0.74071 0.82052 0.83528
 O842 O 0.67892 0.83008 0.80067
 O843 O 0.81941 0.83574 0.74132
 O844 O 0.82877 0.80119 0.68022
 O845 O 0.83339 0.74351 0.82201
 O846 O 0.80556 0.68239 0.82557
 O847 O 0.72948 0.73342 0.64260
 O848 O 0.74397 0.79885 0.64234
 O849 O 0.64183 0.73026 0.73191
 O850 O 0.64341 0.74887 0.79912
 O851 O 0.73212 0.64362 0.73102
 O852 O 0.79750 0.64387 0.74538
 Zr853 Zr 0.76655 0.69128 0.72390
 O854 O 0.80203 0.72382 0.75717
 Zr855 Zr 0.68905 0.72434 0.76758
 O856 O 0.72167 0.75742 0.80336
 Zr857 Zr 0.72241 0.76826 0.69009
 O858 O 0.75561 0.80395 0.72267
 Zr859 Zr 0.77611 0.73337 0.81034
 O860 O 0.74180 0.69743 0.77846
 Zr861 Zr 0.80879 0.77804 0.73270
 O862 O 0.77693 0.74376 0.69661
 Zr863 Zr 0.73130 0.81045 0.77724
 O864 O 0.69525 0.77864 0.74269
 O865 O 0.71266 0.71460 0.71381
 O866 O 0.78563 0.78764 0.78705
 C867 C 0.74593 0.70103 0.63880
 C868 C 0.70035 0.63916 0.74868
 C869 C 0.63758 0.74716 0.69964
 C870 C 0.75503 0.80016 0.86229
 C871 C 0.86034 0.75708 0.80124
 C872 C 0.79885 0.86246 0.75550
 H873 H 0.82645 0.70980 0.75975
 H874 H 0.75769 0.82836 0.70861
 H875 H 0.69675 0.69837 0.69793
 H876 H 0.70786 0.75941 0.82799
 H877 H 0.74093 0.68270 0.85091
 H878 H 0.68052 0.69750 0.83578
 H879 H 0.81249 0.82345 0.67375
 H880 H 0.77010 0.78908 0.63747
 H881 H 0.81591 0.68502 0.85153
 H882 H 0.78901 0.63999 0.77214
 H883 H 0.70813 0.86465 0.73225
 H884 H 0.67940 0.82817 0.68892
 H885 H 0.82646 0.69061 0.68060
 H886 H 0.86327 0.73291 0.71062
 H887 H 0.63604 0.77277 0.78578
 H888 H 0.67304 0.81424 0.82347
 O889 O 0.32557 0.16497 0.74994
 O890 O 0.33380 0.19220 0.68784
 O891 O 0.33651 0.26818 0.81771
 O892 O 0.30241 0.31913 0.83068
 O893 O 0.24698 0.18233 0.84098
 O894 O 0.18721 0.17211 0.81214
 O895 O 0.23010 0.35495 0.71826
 O896 O 0.29150 0.35668 0.73815
 O897 O 0.22524 0.26182 0.64217
 O898 O 0.24428 0.19800 0.64393
 O899 O 0.14228 0.26729 0.73142
 O900 O 0.14212 0.25892 0.79842
 O901 O 0.17728 0.33314 0.74939
 O902 O 0.16842 0.30439 0.81448
 O903 O 0.16591 0.23354 0.68155
 O904 O 0.20536 0.17339 0.67760
 O905 O 0.25177 0.31670 0.66097
 O906 O 0.31555 0.32042 0.68579
 O907 O 0.27312 0.14329 0.78159
 O908 O 0.20789 0.14181 0.76590
 O909 O 0.27607 0.23603 0.85930
 O910 O 0.25057 0.30203 0.85256
 O911 O 0.36020 0.23306 0.76878
 O912 O 0.35888 0.24122 0.70193
 Zr913 Zr 0.31231 0.22210 0.73540
 O914 O 0.27793 0.25294 0.69679
 Zr915 Zr 0.27741 0.27001 0.80906
 O916 O 0.24222 0.30315 0.77319
 Zr917 Zr 0.23663 0.19084 0.78285
 O918 O 0.19920 0.22061 0.74658
 Zr919 Zr 0.26589 0.30701 0.71812
 O920 O 0.30358 0.27775 0.75508
 Zr921 Zr 0.22451 0.22771 0.69235
 O922 O 0.26066 0.19409 0.72759
 Zr923 Zr 0.19004 0.27621 0.76581
 O924 O 0.22387 0.24456 0.80516
 O925 O 0.28948 0.21554 0.79003
 O926 O 0.21257 0.28272 0.71087
 C927 C 0.30616 0.13863 0.76650
 C928 C 0.36407 0.25287 0.79881
 C929 C 0.26188 0.20321 0.86603
 C930 C 0.19669 0.35945 0.73265
 C931 C 0.23744 0.29553 0.63583
 C932 C 0.13842 0.24888 0.70048
 H933 H 0.29128 0.25476 0.67184
 H934 H 0.17544 0.20606 0.74589
 H935 H 0.30692 0.20112 0.80702
 H936 H 0.23902 0.32851 0.78444
 H937 H 0.31636 0.34878 0.74882
 H938 H 0.29929 0.33928 0.81102
 H939 H 0.18310 0.16747 0.69409
 H940 H 0.21840 0.13498 0.74059
 H941 H 0.31144 0.34551 0.67317
 H942 H 0.36088 0.26872 0.70650
 H943 H 0.13848 0.23169 0.79360
 H944 H 0.17872 0.19300 0.82888
 H945 H 0.31373 0.17444 0.68057
 H946 H 0.27126 0.20455 0.63972
 H947 H 0.22753 0.28812 0.86074
 H948 H 0.18519 0.32596 0.81939
 O949 O 0.26907 0.81858 0.33542
 O950 O 0.32566 0.82441 0.29887
 O951 O 0.18603 0.84171 0.24531
 O952 O 0.17170 0.81647 0.18995
 O953 O 0.16666 0.75024 0.32513
 O954 O 0.19358 0.68873 0.33392
 O955 O 0.26880 0.73205 0.14061
 O956 O 0.25548 0.79526 0.14112
 O957 O 0.35605 0.71782 0.22796
 O958 O 0.35811 0.73269 0.29462
 O959 O 0.26200 0.64266 0.22452
 O960 O 0.19768 0.64551 0.24366
 O961 O 0.23482 0.68258 0.16506
 O962 O 0.17422 0.67881 0.20410
 O963 O 0.31674 0.66026 0.25248
 O964 O 0.32810 0.68953 0.31498
 O965 O 0.33414 0.74763 0.17447
 O966 O 0.31150 0.81295 0.17254
 O967 O 0.23511 0.76914 0.35969
 O968 O 0.24357 0.70236 0.35840
 O969 O 0.14555 0.78293 0.27297
 O970 O 0.14457 0.76465 0.20691
 O971 O 0.24009 0.85917 0.27472
 O972 O 0.30454 0.85361 0.25248
 Zr973 Zr 0.27287 0.80846 0.27650
 O974 O 0.30536 0.77257 0.24095
 Zr975 Zr 0.19291 0.78347 0.23604
 O976 O 0.22222 0.74713 0.19851
 Zr977 Zr 0.22390 0.73572 0.31190
 O978 O 0.25419 0.69691 0.27743
 Zr979 Zr 0.27809 0.76551 0.18879
 O980 O 0.24711 0.80494 0.22279
 Zr981 Zr 0.30866 0.71776 0.26504
 O982 O 0.27983 0.75473 0.30289
 Zr983 Zr 0.22866 0.69306 0.22387
 O984 O 0.19556 0.72843 0.26024
 O985 O 0.21798 0.79013 0.28885
 O986 O 0.28402 0.71074 0.21178
 C987 C 0.25428 0.79957 0.36325
 C988 C 0.20731 0.86633 0.26038
 C989 C 0.14052 0.76731 0.30575
 C990 C 0.25019 0.70118 0.13722
 C991 C 0.36052 0.73143 0.19419
 C992 C 0.29538 0.63567 0.23754
 H993 H 0.33072 0.78384 0.23706
 H994 H 0.25535 0.67201 0.29071
 H995 H 0.20367 0.80733 0.30607
 H996 H 0.20774 0.74659 0.17463
 H997 H 0.24643 0.82025 0.15036
 H998 H 0.18533 0.80798 0.16674
 H999 H 0.31025 0.66893 0.32146
 H1000 H 0.27096 0.70774 0.36079
 H1001 H 0.32201 0.80872 0.14655
 H1002 H 0.29445 0.85847 0.22666
 H1003 H 0.20494 0.64045 0.27038
 H1004 H 0.17615 0.68107 0.31364
 H1005 H 0.33442 0.80307 0.31537
 H1006 H 0.36742 0.75677 0.28335
 H1007 H 0.13630 0.74091 0.21977
 H1008 H 0.16854 0.69543 0.18185
 O1009 O 0.14130 0.72243 0.76229
 O1010 O 0.14471 0.74862 0.70108
 O1011 O 0.23471 0.64034 0.76424
 O1012 O 0.29657 0.63919 0.76168
 O1013 O 0.21945 0.72636 0.85682
 O1014 O 0.23269 0.79117 0.85922
 O1015 O 0.33920 0.74956 0.68311
 O1016 O 0.31410 0.68887 0.67445
 O1017 O 0.24936 0.82564 0.66757
 O1018 O 0.18810 0.83578 0.69369
 O1019 O 0.31832 0.83502 0.76709
 O1020 O 0.32403 0.79706 0.82604
 O1021 O 0.35739 0.77712 0.73793
 O1022 O 0.35437 0.75496 0.80395
 O1023 O 0.26796 0.85886 0.73402
 O1024 O 0.19736 0.85474 0.74533
 O1025 O 0.28152 0.77400 0.64508
 O1026 O 0.26274 0.71318 0.64097
 O1027 O 0.15906 0.75153 0.81650
 O1028 O 0.18723 0.81189 0.82814
 O1029 O 0.25157 0.67469 0.83444
 O1030 O 0.31631 0.67166 0.80579
 O1031 O 0.18332 0.66392 0.73253
 O1032 O 0.17852 0.70190 0.67451
 Zr1033 Zr 0.19181 0.72291 0.72900
 O1034 O 0.22664 0.75969 0.69666
 Zr1035 Zr 0.26609 0.68881 0.77728
 O1036 O 0.30387 0.72369 0.74606
 Zr1037 Zr 0.21716 0.76309 0.80919
 O1038 O 0.25330 0.80124 0.78016
 Zr1039 Zr 0.28185 0.73674 0.69217
 O1040 O 0.24625 0.69785 0.72140
 Zr1041 Zr 0.23380 0.81125 0.72450
 O1042 O 0.19515 0.77605 0.75514
 Zr1043 Zr 0.30765 0.77657 0.77250
 O1044 O 0.27268 0.74010 0.80598
 O1045 O 0.21119 0.71063 0.78378
 O1046 O 0.28888 0.78943 0.71746
 C1047 C 0.13431 0.73641 0.79527
 C1048 C 0.20368 0.63643 0.74593
 C1049 C 0.23508 0.69358 0.86119
 C1050 C 0.36398 0.76462 0.70429
 C1051 C 0.26658 0.80711 0.64095
 C1052 C 0.29919 0.86253 0.75204
 H1053 H 0.21523 0.76340 0.67126
 H1054 H 0.25392 0.82468 0.79515
 H1055 H 0.19455 0.69284 0.79811
 H1056 H 0.32886 0.71065 0.74373
 H1057 H 0.29854 0.66630 0.68031
 H1058 H 0.31265 0.64609 0.73937
 H1059 H 0.20742 0.86278 0.77004
 H1060 H 0.17008 0.82001 0.80733
 H1061 H 0.24476 0.69299 0.64841
 H1062 H 0.15483 0.68700 0.67653
 H1063 H 0.30536 0.81692 0.83359
 H1064 H 0.25892 0.78256 0.86510
 H1065 H 0.14021 0.77374 0.71263
 H1066 H 0.17795 0.81584 0.67739
 H1067 H 0.31994 0.68974 0.82663
 H1068 H 0.36291 0.73092 0.79225
 O1069 O 0.25770 0.18054 0.16586
 O1070 O 0.31523 0.16977 0.19768
 O1071 O 0.17824 0.16665 0.26327
 O1072 O 0.16137 0.19704 0.31445
 O1073 O 0.16339 0.26196 0.17929
 O1074 O 0.19555 0.31882 0.16840
 O1075 O 0.27030 0.26754 0.35829
 O1076 O 0.25014 0.20695 0.35921
 O1077 O 0.35535 0.27180 0.26824
 O1078 O 0.35673 0.25774 0.20232
 O1079 O 0.26643 0.35784 0.27155
 O1080 O 0.20195 0.36081 0.25935
 O1081 O 0.24052 0.32079 0.33516
 O1082 O 0.17872 0.33085 0.30060
 O1083 O 0.31932 0.33493 0.24120
 O1084 O 0.32899 0.30133 0.18082
 O1085 O 0.33222 0.24313 0.32212
 O1086 O 0.30407 0.18206 0.32563
 O1087 O 0.22810 0.23363 0.14250
 O1088 O 0.24321 0.29882 0.14221
 O1089 O 0.14062 0.23117 0.23205
 O1090 O 0.14242 0.24998 0.29915
 O1091 O 0.23007 0.14390 0.23100
 O1092 O 0.29532 0.14334 0.24512
 Zr1093 Zr 0.26497 0.19121 0.22383
 O1094 O 0.30079 0.22334 0.25719
 Zr1095 Zr 0.18783 0.22499 0.26765
 O1096 O 0.22075 0.25781 0.30339
 Zr1097 Zr 0.22141 0.26853 0.19003
 O1098 O 0.25505 0.30385 0.22256
 Zr1099 Zr 0.27495 0.23322 0.31035
 O1100 O 0.24034 0.19760 0.27844
 Zr1101 Zr 0.30800 0.27743 0.23257
 O1102 O 0.27571 0.24357 0.19649
 Zr1103 Zr 0.23088 0.31067 0.27715
 O1104 O 0.19446 0.27919 0.24269
 O1105 O 0.21126 0.21498 0.21384
 O1106 O 0.28497 0.28731 0.28692
 C1107 C 0.24433 0.20113 0.13865
 C1108 C 0.19831 0.13974 0.24876
 C1109 C 0.13644 0.24799 0.19975
 C1110 C 0.25470 0.30036 0.36221
 C1111 C 0.35925 0.25662 0.30141
 C1112 C 0.29908 0.36184 0.25543
 H1113 H 0.32509 0.20912 0.25986
 H1114 H 0.25739 0.32823 0.20850
 H1115 H 0.19519 0.19888 0.19799
 H1116 H 0.20699 0.25997 0.32803
 H1117 H 0.23936 0.18276 0.35081
 H1118 H 0.17906 0.19849 0.33597
 H1119 H 0.31186 0.32267 0.17351
 H1120 H 0.26935 0.28899 0.13755
 H1121 H 0.31443 0.18466 0.35158
 H1122 H 0.28723 0.13984 0.27205
 H1123 H 0.20830 0.36507 0.23210
 H1124 H 0.17886 0.32876 0.18899
 H1125 H 0.32492 0.19017 0.18061
 H1126 H 0.36256 0.23168 0.21159
 H1127 H 0.13528 0.27393 0.28578
 H1128 H 0.17273 0.31513 0.32346
 O1129 O 0.82614 0.66650 0.24948
 O1130 O 0.83445 0.69425 0.18791
 O1131 O 0.83798 0.77060 0.31740
 O1132 O 0.80395 0.82197 0.32944
 O1133 O 0.74939 0.68475 0.34218
 O1134 O 0.68907 0.67415 0.31464
 O1135 O 0.72954 0.85627 0.21876
 O1136 O 0.79119 0.85847 0.23718
 O1137 O 0.72415 0.76194 0.14332
 O1138 O 0.74370 0.69856 0.14523
 O1139 O 0.64244 0.76769 0.23340
 O1140 O 0.64669 0.75809 0.30407
 O1141 O 0.67719 0.83435 0.25062
 O1142 O 0.66642 0.80912 0.31235
 O1143 O 0.66575 0.73368 0.18358
 O1144 O 0.70594 0.67363 0.18004
 O1145 O 0.75034 0.81730 0.16125
 O1146 O 0.81460 0.82180 0.18495
 O1147 O 0.77421 0.64504 0.28216
 O1148 O 0.70883 0.64340 0.26887
 O1149 O 0.77826 0.73884 0.35975
 O1150 O 0.75269 0.80433 0.35311
 O1151 O 0.86118 0.73487 0.26873
 O1152 O 0.85903 0.74346 0.20172
 Zr1153 Zr 0.81296 0.72389 0.23562
 O1154 O 0.77777 0.75417 0.19726
 Zr1155 Zr 0.77882 0.77229 0.30923
 O1156 O 0.74274 0.80474 0.27368
 Zr1157 Zr 0.73793 0.69274 0.28429
 O1158 O 0.69974 0.72180 0.24822
 Zr1159 Zr 0.76556 0.80838 0.21823
 O1160 O 0.80411 0.77971 0.25483
 Zr1161 Zr 0.72448 0.72847 0.19375
 O1162 O 0.76132 0.69554 0.22877
 Zr1163 Zr 0.69057 0.77754 0.26712
 O1164 O 0.72532 0.74669 0.30631
 O1165 O 0.79085 0.71762 0.29055
 O1166 O 0.71233 0.78359 0.21186
 C1167 C 0.80678 0.64014 0.26614
 C1168 C 0.86537 0.75498 0.29854
 C1169 C 0.76437 0.70598 0.36685
 C1170 C 0.69629 0.86074 0.23358
 C1171 C 0.73591 0.79569 0.13654
 C1172 C 0.63837 0.74894 0.20269
 H1173 H 0.79076 0.75587 0.17212
 H1174 H 0.67613 0.70699 0.24801
 H1175 H 0.80854 0.70322 0.30731
 H1176 H 0.73943 0.83015 0.28479
 H1177 H 0.81624 0.85084 0.24762
 H1178 H 0.79946 0.84205 0.30998
 H1179 H 0.68335 0.66802 0.19618
 H1180 H 0.71831 0.63649 0.24319
 H1181 H 0.81005 0.84665 0.17200
 H1182 H 0.86097 0.77093 0.20646
 H1183 H 0.63872 0.73312 0.29489
 H1184 H 0.68083 0.69514 0.33136
 H1185 H 0.81423 0.67680 0.18034
 H1186 H 0.77048 0.70550 0.14036
 H1187 H 0.72957 0.79062 0.36142
 H1188 H 0.68664 0.82526 0.32225
 O1189 O 0.68626 0.34009 0.74843
 O1190 O 0.67470 0.31221 0.68794
 O1191 O 0.66827 0.24617 0.82486
 O1192 O 0.69410 0.19007 0.83827
 O1193 O 0.77077 0.31680 0.83620
 O1194 O 0.82751 0.32201 0.79892
 O1195 O 0.76202 0.14121 0.72179
 O1196 O 0.70206 0.14460 0.74850
 O1197 O 0.76694 0.23173 0.63990
 O1198 O 0.75665 0.30275 0.64548
 O1199 O 0.85655 0.21722 0.72523
 O1200 O 0.86034 0.22988 0.79118
 O1201 O 0.81701 0.15888 0.74947
 O1202 O 0.82955 0.18776 0.81248
 O1203 O 0.83430 0.24957 0.67337
 O1204 O 0.80956 0.30973 0.66299
 O1205 O 0.73474 0.18096 0.66370
 O1206 O 0.67538 0.18250 0.69785
 O1207 O 0.74119 0.35771 0.77612
 O1208 O 0.80542 0.35277 0.75349
 O1209 O 0.73677 0.26715 0.85977
 O1210 O 0.74965 0.19832 0.85486
 O1211 O 0.64655 0.28035 0.77387
 O1212 O 0.64359 0.26717 0.70897
 Zr1213 Zr 0.69385 0.28227 0.73693
 O1214 O 0.72223 0.24630 0.69837
 Zr1215 Zr 0.72596 0.23364 0.81168
 O1216 O 0.75536 0.19539 0.77575
 Zr1217 Zr 0.77420 0.30707 0.77703
 O1218 O 0.80592 0.27183 0.74006
 Zr1219 Zr 0.72915 0.19184 0.72253
 O1220 O 0.69685 0.22671 0.76013
 Zr1221 Zr 0.77776 0.26523 0.68815
 O1222 O 0.74786 0.30422 0.72363
 Zr1223 Zr 0.80966 0.21644 0.76296
 O1224 O 0.78170 0.25290 0.80219
 O1225 O 0.71953 0.28833 0.78961
 O1226 O 0.78433 0.21010 0.70990
 C1227 C 0.70792 0.36478 0.76283
 C1228 C 0.64188 0.26375 0.80625
 C1229 C 0.75584 0.29761 0.86386
 C1230 C 0.79554 0.13425 0.73459
 C1231 C 0.74897 0.20054 0.63593
 C1232 C 0.86083 0.23243 0.69211
 H1233 H 0.70697 0.24583 0.67496
 H1234 H 0.83126 0.28309 0.73617
 H1235 H 0.70512 0.30500 0.80728
 H1236 H 0.75657 0.17018 0.78846
 H1237 H 0.67876 0.15448 0.76131
 H1238 H 0.69503 0.16841 0.82080
 H1239 H 0.82415 0.32125 0.68356
 H1240 H 0.79412 0.35896 0.72844
 H1241 H 0.67564 0.15679 0.68680
 H1242 H 0.63839 0.24059 0.71658
 H1243 H 0.86826 0.25522 0.78187
 H1244 H 0.83588 0.30064 0.81558
 H1245 H 0.69527 0.32957 0.67991
 H1246 H 0.73229 0.29256 0.63671
 H1247 H 0.77522 0.20818 0.86009
 H1248 H 0.81207 0.16674 0.81858
 C1249 C 0.08098 1.00132 1.17839
 C1250 C 0.06581 1.00340 1.14806
 C1251 C 0.58241 0.50067 0.68009
 C1252 C 0.56704 0.50306 0.64987
 C1253 C 0.42472 -0.00182 0.68306
 C1254 C 0.43932 -0.00298 0.65204
 C1255 C -0.07948 0.49732 1.17873
 C1256 C -0.06499 0.49506 1.14776
 C1257 C -0.08800 0.50242 0.32075
 C1258 C -0.07473 0.50659 0.35197
 C1259 C 0.41149 1.00144 -0.17738
 C1260 C 0.42438 1.00542 -0.14594
 C1261 C 0.59116 0.49956 -0.17816
 C1262 C 0.57750 0.49830 -0.14645
 C1263 C 0.08874 -0.00176 0.32042
 C1264 C 0.07490 -0.00293 0.35208
 C1265 C 0.17733 1.07882 1.00282
 C1266 C 0.14709 1.06373 1.00500
 C1267 C 0.67924 0.58088 0.50051
 C1268 C 0.64896 0.56596 0.50263
 C1269 C 0.68425 0.41805 -0.00247
 C1270 C 0.65356 0.43348 -0.00373
 C1271 C 0.18111 -0.07748 0.49661
 C1272 C 0.14970 -0.06380 0.49421
 C1273 C 0.32407 -0.08371 0.50266
 C1274 C 0.35553 -0.07074 0.50626
 C1275 C -0.17787 0.40755 1.00085
 C1276 C -0.14666 0.42137 1.00378
 C1277 C -0.17951 0.58796 0.50070
 C1278 C -0.14800 0.57418 0.49885
 C1279 C 0.31875 1.08658 0.00324
 C1280 C 0.35032 1.07277 0.00178
 C1281 C 0.00080 1.17660 1.08056
 C1282 C 0.00354 1.14626 1.06590
 C1283 C 0.49869 0.68057 0.57971
 C1284 C 0.50074 0.65012 0.56512
 C1285 C -0.00246 0.68258 0.42059
 C1286 C -0.00400 0.65157 0.43495
 C1287 C 0.49735 1.18050 -0.07766
 C1288 C 0.49481 1.14957 -0.06338
 C1289 C 0.50439 0.32183 -0.08516
 C1290 C 0.50808 0.35285 -0.07169
 C1291 C 0.00354 -0.17579 0.41210
 C1292 C 0.00777 -0.14467 0.42529
 C1293 C 0.50170 -0.17805 0.58707
 C1294 C 0.50100 -0.14637 0.57350
 C1295 C -0.00073 0.31782 1.08514
 C1296 C -0.00198 0.34916 1.07088
 C1297 C 0.76280 0.33201 0.06745
 C1298 C 0.76650 0.31900 0.09945
 C1299 C 0.26217 0.83652 0.57134
 C1300 C 0.26628 0.82324 0.60300
 C1301 C 0.74938 0.67123 0.57105
 C1302 C 0.74884 0.68600 0.60152
 C1303 C 0.24737 0.17122 0.07082
 C1304 C 0.24704 0.18605 0.10130
 C1305 C 0.25672 0.17222 0.93456
 C1306 C 0.26131 0.18810 0.90420
 C1307 C 0.75921 0.67537 0.43529
 C1308 C 0.76401 0.69125 0.40504
 C1309 C 0.25837 0.82965 0.43163
 C1310 C 0.25813 0.81458 0.40094
 C1311 C 0.75884 0.32687 0.93321
 C1312 C 0.75922 0.31238 0.90203
 C1313 C 0.82711 0.42994 0.25314
 C1314 C 0.81259 0.39906 0.25254
 C1315 C 0.32948 0.93059 0.75585
 C1316 C 0.31435 0.90005 0.75535
 C1317 C 0.17683 0.93489 0.25600
 C1318 C 0.19259 0.90451 0.26009
 C1319 C 0.67759 0.43346 0.75833
 C1320 C 0.69322 0.40301 0.76263
 C1321 C 0.67244 0.57054 0.75165
 C1322 C 0.68606 0.60155 0.75169
 C1323 C 0.16966 0.07148 0.25159
 C1324 C 0.18362 0.10232 0.25173
 C1325 C 0.33505 0.06929 0.76235
 C1326 C 0.32171 0.10073 0.76630
 C1327 C 0.83359 0.57003 0.25963
 C1328 C 0.82149 0.60186 0.26461
 C1329 C 0.93102 0.25682 0.17202
 C1330 C 0.90049 0.26124 0.18755
 C1331 C 0.43241 0.76080 0.67323
 C1332 C 0.40204 0.76507 0.68907
 C1333 C 0.43261 0.25701 0.82836
 C1334 C 0.40183 0.25686 0.81348
 C1335 C 0.93402 0.75892 0.32815
 C1336 C 0.90324 0.75888 0.31317
 C1337 C 0.07046 0.76269 0.33323
 C1338 C 0.10230 0.76689 0.32076
 C1339 C 0.57218 0.25925 0.83491
 C1340 C 0.60386 0.26311 0.82184
 C1341 C 0.56921 0.75021 0.67062
 C1342 C 0.60007 0.74986 0.68481
 C1343 C 0.06814 0.25005 0.17063
 C1344 C 0.09896 0.25044 0.18485
 C1345 C -0.08189 1.00117 0.82074
 C1346 C -0.06658 0.99813 0.85096
 C1347 C 0.41882 0.49921 0.32272
 C1348 C 0.43366 0.49670 0.35321
 C1349 C 0.58061 0.00561 0.31841
 C1350 C 0.56635 0.00878 0.34945
 C1351 C 0.07984 0.50327 0.81588
 C1352 C 0.06505 0.50568 0.84674
 C1353 C 0.08916 0.49513 0.67395
 C1354 C 0.07596 0.49088 0.64272
 C1355 C 0.58744 0.99556 0.17651
 C1356 C 0.57365 0.99029 0.14565
 C1357 C 0.41183 0.50031 0.18060
 C1358 C 0.42585 0.50177 0.14899
 C1359 C -0.09085 0.00058 0.67895
 C1360 C -0.07691 0.00168 0.64730
 C1361 C -0.18078 0.92046 1.00135
 C1362 C -0.15046 0.93535 0.99903
 C1363 C 0.32152 0.42129 0.49971
 C1364 C 0.35171 0.43654 0.49716
 C1365 C 0.31875 0.57438 0.00449
 C1366 C 0.34988 0.56013 0.00721
 C1367 C -0.18361 0.08066 0.50073
 C1368 C -0.15296 0.06526 0.50257
 C1369 C 0.67871 0.09223 0.49580
 C1370 C 0.64754 0.07862 0.49166
 C1371 C 0.17638 0.58450 0.99561
 C1372 C 0.14498 0.57174 0.99082
 C1373 C 0.18002 0.41271 0.49936
 C1374 C 0.14839 0.42648 0.50058
 C1375 C 0.67787 0.91059 0.00010
 C1376 C 0.64611 0.92393 0.00164
 C1377 C 0.00009 0.81948 0.92183
 C1378 C -0.00246 0.84985 0.93657
 C1379 C 0.49861 0.32357 0.42048
 C1380 C 0.49611 0.35380 0.43547
 C1381 C 0.00447 0.31897 0.57601
 C1382 C 0.00715 0.34984 0.56153
 C1383 C 0.50394 0.81674 0.07817
 C1384 C 0.50639 0.84776 0.06390
 C1385 C 0.49760 0.67495 0.08787
 C1386 C 0.49321 0.64364 0.07514
 C1387 C -0.00258 0.17774 0.58438
 C1388 C -0.00735 0.14673 0.57125
 C1389 C 0.50143 0.18233 0.41352
 C1390 C 0.50399 0.15083 0.42736
 C1391 C -0.00004 0.67811 0.91135
 C1392 C 0.00180 0.64623 0.92446
 C1393 C 0.24042 0.66404 0.93068
 C1394 C 0.23608 0.67765 0.89919
 C1395 C 0.73759 0.16764 0.43217
 C1396 C 0.73293 0.18024 0.40014
 C1397 C 0.25201 0.32970 0.43044
 C1398 C 0.25238 0.31535 0.39967
 C1399 C 0.75133 0.82899 0.93066
 C1400 C 0.75221 0.81488 0.89980
 C1401 C 0.74008 0.82598 0.06773
 C1402 C 0.73557 0.81049 0.09828
 C1403 C 0.24222 0.32696 0.56735
 C1404 C 0.23759 0.31095 0.59769
 C1405 C 0.74378 0.17169 0.56651
 C1406 C 0.74470 0.18608 0.59772
 C1407 C 0.24501 0.66983 0.06948
 C1408 C 0.24625 0.68570 0.09972
 C1409 C 0.17465 0.56801 0.74073
 C1410 C 0.18951 0.59866 0.74145
 C1411 C 0.67244 0.06665 0.24063
 C1412 C 0.68705 0.09752 0.24115
 C1413 C 0.82554 0.06533 0.74028
 C1414 C 0.81027 0.09590 0.73506
 C1415 C 0.32544 0.56687 0.24246
 C1416 C 0.31008 0.59741 0.23778
 C1417 C 0.32829 0.42997 0.25181
 C1418 C 0.31400 0.39924 0.25253
 C1419 C 0.82695 0.93113 0.75145
 C1420 C 0.81320 0.90012 0.75239
 C1421 C 0.66756 0.93039 0.23838
 C1422 C 0.68060 0.89877 0.23408
 C1423 C 0.16813 0.42897 0.73720
 C1424 C 0.18115 0.39740 0.73300
 C1425 C 0.06563 0.74134 0.82581
 C1426 C 0.09605 0.73673 0.81011
 C1427 C 0.56381 0.24397 0.32502
 C1428 C 0.59403 0.23872 0.30910
 C1429 C 0.56982 0.74344 0.17329
 C1430 C 0.60055 0.74471 0.18820
 C1431 C 0.06998 0.24452 0.67060
 C1432 C 0.10071 0.24523 0.68556
 C1433 C 0.93042 0.23845 0.66337
 C1434 C 0.89883 0.23351 0.67636
 C1435 C 0.43032 0.73654 0.16594
 C1436 C 0.39863 0.73188 0.17874
 C1437 C 0.42739 0.25314 0.33100
 C1438 C 0.39668 0.25394 0.31648
 C1439 C 0.92878 0.75243 0.83015
 C1440 C 0.89792 0.75389 0.81593
   
