data_POSCAR
  _audit_creation_date              2014-09-24
  _audit_creation_method            'ToBaCCo'
  _symmetry_space_group_name_H-M    'P1'
  _symmetry_Int_Tables_number       1
  _symmetry_cell_setting            triclinic
  loop_
  _symmetry_equiv_pos_as_xyz
 x,y,z
_cell_length_a 54.3228
_cell_length_b 54.3337
_cell_length_c 54.2768
_cell_angle_alpha 89.928200
_cell_angle_beta 90.159100
_cell_angle_gamma 89.850600
loop_
  _atom_site_label
  _atom_site_type_symbol
  _atom_site_fract_x
  _atom_site_fract_y
  _atom_site_fract_z
C1 C 0.24620 0.99904 -0.02629
 C2 C 0.24716 0.99807 -0.00129
 C3 C 0.24852 0.97436 0.01218
 C4 C 0.24666 1.02056 0.01433
 C5 C 0.24248 1.02264 -0.03937
 C6 C 0.24733 0.97644 -0.04167
 C7 C 0.23011 0.95644 0.00953
 C8 C 0.23064 0.93517 0.02405
 C9 C 0.24921 0.93185 0.04176
 C10 C 0.26806 0.94943 0.04375
 C11 C 0.26762 0.97054 0.02917
 C12 C 0.22982 1.02203 0.03377
 C13 C 0.23102 1.04127 0.05072
 C14 C 0.24913 1.05968 0.04877
 C15 C 0.26563 1.05850 0.02864
 C16 C 0.26445 1.03904 0.01178
 C17 C 0.26140 1.03234 -0.05390
 C18 C 0.25778 1.05428 -0.06687
 C19 C 0.23496 1.06650 -0.06591
 C20 C 0.21596 1.05656 -0.05157
 C21 C 0.21979 1.03493 -0.03811
 C22 C 0.26701 0.95974 -0.03958
 C23 C 0.26702 0.93786 -0.05318
 C24 C 0.24761 0.93249 -0.06942
 C25 C 0.22805 0.94942 -0.07166
 C26 C 0.22804 0.97122 -0.05806
 H27 H 0.21503 0.95925 -0.00326
 H28 H 0.21601 0.92179 0.02217
 H29 H 0.28303 0.94700 0.05673
 H30 H 0.28202 0.98412 0.03138
 H31 H 0.21603 1.00787 0.03619
 H32 H 0.21788 1.04139 0.06573
 H33 H 0.27806 1.03792 -0.00271
 H34 H 0.27892 1.02289 -0.05518
 H35 H 0.27254 1.06122 -0.07828
 H36 H 0.19816 1.06556 -0.05082
 H37 H 0.20494 1.02747 -0.02714
 H38 H 0.28221 0.96352 -0.02721
 H39 H 0.28226 0.92513 -0.05105
 H40 H 0.21237 0.94568 -0.08337
 H41 H 0.21257 0.98372 -0.05979
 H42 H 0.28012 1.07179 0.02603
 C43 C 0.72706 0.48448 0.50534
 C44 C 0.72720 0.48387 0.48040
 C45 C 0.72623 0.46032 0.46658
 C46 C 0.72819 0.50688 0.46583
 C47 C 0.72931 0.50764 0.51940
 C48 C 0.72498 0.46202 0.52057
 C49 C 0.74389 0.44181 0.47061
 C50 C 0.74301 0.41984 0.45723
 C51 C 0.72478 0.41619 0.43924
 C52 C 0.70698 0.43467 0.43539
 C53 C 0.70780 0.45655 0.44885
 C54 C 0.75067 0.51509 0.45628
 C55 C 0.75159 0.53640 0.44182
 C56 C 0.72990 0.54950 0.43630
 C57 C 0.70740 0.54110 0.44575
 C58 C 0.70659 0.52013 0.46071
 C59 C 0.71020 0.51467 0.53519
 C60 C 0.71393 0.53307 0.55269
 C61 C 0.73687 0.54471 0.55481
 C62 C 0.75571 0.53840 0.53815
 C63 C 0.75191 0.51997 0.52059
 C64 C 0.70234 0.44996 0.52312
 C65 C 0.69956 0.43144 0.54085
 C66 C 0.71950 0.42448 0.55587
 C67 C 0.74234 0.43615 0.55268
 C68 C 0.74497 0.45487 0.53531
 H69 H 0.75854 0.44448 0.48389
 H70 H 0.75691 0.40589 0.46056
 H71 H 0.69220 0.43221 0.42223
 H72 H 0.69387 0.47047 0.44555
 H73 H 0.76746 0.50491 0.45995
 H74 H 0.76911 0.54214 0.43433
 H75 H 0.68909 0.51392 0.46789
 H76 H 0.69275 0.50506 0.53475
 H77 H 0.69913 0.53752 0.56528
 H78 H 0.77381 0.54650 0.53942
 H79 H 0.76708 0.51426 0.50900
 H80 H 0.68661 0.45565 0.51218
 H81 H 0.68175 0.42284 0.54316
 H82 H 0.75789 0.43171 0.56439
 H83 H 0.76242 0.46436 0.53385
 H84 H 0.69046 0.55081 0.44158
 C85 C 0.75020 0.99130 0.99418
 C86 C 0.75382 0.96659 0.99511
 C87 C 0.75290 0.95243 1.01853
 C88 C 0.75919 0.95183 0.97283
 C89 C 0.74936 1.00491 0.97053
 C90 C 0.74696 1.00618 1.01682
 C91 C 0.76905 0.95733 1.03819
 C92 C 0.76901 0.94234 1.05922
 C93 C 0.75302 0.92204 1.06070
 C94 C 0.73693 0.91731 1.04104
 C95 C 0.73681 0.93237 1.02024
 C96 C 0.78147 0.93881 0.97171
 C97 C 0.78529 0.92109 0.95354
 C98 C 0.76693 0.91604 0.93607
 C99 C 0.74484 0.92970 0.93669
 C100 C 0.74100 0.94741 0.95500
 C101 C 0.72653 1.00972 0.95940
 C102 C 0.72500 1.02492 0.93865
 C103 C 0.74615 1.03630 0.92926
 C104 C 0.76913 1.03107 0.94012
 C105 C 0.77074 1.01528 0.96049
 C106 C 0.72707 1.00232 1.03278
 C107 C 0.72465 1.01644 1.05421
 C108 C 0.74187 1.03492 1.05998
 C109 C 0.76189 1.03847 1.04380
 C110 C 0.76425 1.02435 1.02252
 H111 H 0.78210 0.97231 1.03696
 H112 H 0.78210 0.94613 1.07377
 H113 H 0.72455 0.90172 1.04166
 H114 H 0.72435 0.92814 1.00522
 H115 H 0.79555 0.94169 0.98559
 H116 H 0.80239 0.91078 0.95357
 H117 H 0.72334 0.95663 0.95609
 H118 H 0.70985 1.00204 0.96708
 H119 H 0.70713 1.02858 0.93049
 H120 H 0.78580 1.03921 0.93290
 H121 H 0.78852 1.01171 0.96885
 H122 H 0.71345 0.98838 1.02865
 H123 H 0.70908 1.01303 1.06617
 H124 H 0.77623 1.05172 1.04726
 H125 H 0.77996 1.02737 1.01069
 H126 H 0.72998 0.92591 0.92396
 C127 C 0.24775 0.51075 0.48783
 C128 C 0.24589 0.48580 0.48791
 C129 C 0.25068 0.47068 0.46572
 C130 C 0.24055 0.47203 0.51093
 C131 C 0.24563 0.52490 0.51109
 C132 C 0.25185 0.52517 0.46496
 C133 C 0.23250 0.45448 0.45724
 C134 C 0.23762 0.43793 0.43826
 C135 C 0.26120 0.43704 0.42767
 C136 C 0.27936 0.45335 0.43611
 C137 C 0.27410 0.47022 0.45486
 C138 C 0.21926 0.47689 0.52476
 C139 C 0.21500 0.46431 0.54681
 C140 C 0.23155 0.44618 0.55494
 C141 C 0.25272 0.44117 0.54094
 C142 C 0.25712 0.45395 0.51911
 C143 C 0.26358 0.52258 0.52959
 C144 C 0.26085 0.53502 0.55196
 C145 C 0.23998 0.54978 0.55619
 C146 C 0.22208 0.55203 0.53763
 C147 C 0.22506 0.53999 0.51510
 C148 C 0.27026 0.54322 0.46452
 C149 C 0.27318 0.55835 0.44395
 C150 C 0.25748 0.55593 0.42344
 C151 C 0.23958 0.53735 0.42355
 C152 C 0.23661 0.52223 0.44422
 H153 H 0.21448 0.45430 0.46574
 H154 H 0.22339 0.42519 0.43264
 H155 H 0.29771 0.45283 0.42837
 H156 H 0.28850 0.48225 0.46155
 H157 H 0.20600 0.49045 0.51850
 H158 H 0.19860 0.46844 0.55733
 H159 H 0.27370 0.45002 0.50878
 H160 H 0.27953 0.51093 0.52676
 H161 H 0.27474 0.53263 0.56610
 H162 H 0.20585 0.56328 0.54054
 H163 H 0.21102 0.54187 0.50101
 H164 H 0.28233 0.54570 0.48024
 H165 H 0.28774 0.57189 0.44419
 H166 H 0.22735 0.53505 0.40793
 H167 H 0.22199 0.50872 0.44428
 H168 H 0.26615 0.42773 0.54706
 C169 C 0.98932 0.26225 0.01829
 C170 C 0.98979 0.26573 -0.00644
 C171 C 0.96692 0.26634 -0.02135
 C172 C 1.01328 0.26641 -0.02012
 C173 C 1.01234 0.25900 0.03261
 C174 C 0.96585 0.26007 0.03196
 C175 C 0.95429 0.24455 -0.02667
 C176 C 0.93357 0.24493 -0.04201
 C177 C 0.92483 0.26732 -0.05207
 C178 C 0.93713 0.28922 -0.04576
 C179 C 0.95825 0.28867 -0.03097
 C180 C 1.01885 0.24749 -0.03666
 C181 C 1.04085 0.24774 -0.04982
 C182 C 1.05783 0.26720 -0.04690
 C183 C 1.05216 0.28599 -0.02995
 C184 C 1.03006 0.28567 -0.01680
 C185 C 1.02260 0.27897 0.04520
 C186 C 1.04408 0.27595 0.05915
 C187 C 1.05537 0.25258 0.06128
 C188 C 1.04463 0.23257 0.04882
 C189 C 1.02358 0.23584 0.03429
 C190 C 0.94846 0.27923 0.03171
 C191 C 0.92641 0.27690 0.04471
 C192 C 0.92164 0.25563 0.05856
 C193 C 0.93901 0.23640 0.05862
 C194 C 0.96093 0.23867 0.04552
 H195 H 0.96073 0.22718 -0.01920
 H196 H 0.92434 0.22766 -0.04539
 H197 H 0.93088 0.30678 -0.05293
 H198 H 0.96783 0.30566 -0.02697
 H199 H 1.00620 0.23233 -0.03923
 H200 H 1.04411 0.23240 -0.06197
 H201 H 1.02593 0.30054 -0.00421
 H202 H 1.01392 0.29692 0.04423
 H203 H 1.05101 0.29181 0.06891
 H204 H 1.05270 0.21435 0.05006
 H205 H 1.01581 0.22022 0.02465
 H206 H 0.95206 0.29604 0.02163
 H207 H 0.91325 0.29191 0.04433
 H208 H 0.93559 0.21942 0.06845
 H209 H 0.97392 0.22353 0.04574
 H210 H 1.06468 0.30123 -0.02711
 C211 C 0.50176 0.74883 0.50253
 C212 C 0.50055 0.74221 0.52660
 C213 C 0.47686 0.73973 0.53964
 C214 C 0.52284 0.73718 0.54152
 C215 C 0.52563 0.75083 0.48957
 C216 C 0.47935 0.75357 0.48764
 C217 C 0.47035 0.75732 0.55732
 C218 C 0.44938 0.75408 0.57171
 C219 C 0.43491 0.73285 0.56901
 C220 C 0.44145 0.71523 0.55128
 C221 C 0.46215 0.71880 0.53643
 C222 C 0.54114 0.75511 0.54453
 C223 C 0.56127 0.75063 0.55995
 C224 C 0.56319 0.72822 0.57285
 C225 C 0.54479 0.71044 0.56995
 C226 C 0.52485 0.71481 0.55433
 C227 C 0.53973 0.72980 0.48442
 C228 C 0.56185 0.73191 0.47145
 C229 C 0.57027 0.75514 0.46376
 C230 C 0.55635 0.77615 0.46942
 C231 C 0.53399 0.77397 0.48188
 C232 C 0.47573 0.74036 0.46577
 C233 C 0.45516 0.74491 0.45106
 C234 C 0.43786 0.76293 0.45788
 C235 C 0.44123 0.77588 0.47996
 C236 C 0.46202 0.77150 0.49458
 H237 H 0.48180 0.77336 0.56023
 H238 H 0.44510 0.76767 0.58564
 H239 H 0.43066 0.69863 0.54912
 H240 H 0.46724 0.70488 0.52309
 H241 H 0.53949 0.77281 0.53547
 H242 H 0.57474 0.76505 0.56244
 H243 H 0.51081 0.70082 0.55243
 H244 H 0.53345 0.71181 0.49023
 H245 H 0.57246 0.71545 0.46768
 H246 H 0.56255 0.79421 0.46373
 H247 H 0.52327 0.79035 0.48573
 H248 H 0.48882 0.72639 0.46015
 H249 H 0.45270 0.73412 0.43449
 H250 H 0.42809 0.78981 0.48555
 H251 H 0.46475 0.78230 0.51110
 H252 H 0.54580 0.69316 0.57990
 C253 C 0.01124 0.75346 0.01449
 C254 C -0.01348 0.75754 0.01368
 C255 C -0.02746 0.76206 0.03670
 C256 C -0.02820 0.75746 -0.00945
 C257 C 0.02672 0.74864 -0.00765
 C258 C 0.02469 0.75468 0.03827
 C259 C -0.03990 0.74261 0.04808
 C260 C -0.05379 0.74669 0.06934
 C261 C -0.05611 0.77061 0.07924
 C262 C -0.04375 0.79008 0.06745
 C263 C -0.02920 0.78577 0.04666
 C264 C -0.02765 0.73750 -0.02586
 C265 C -0.04332 0.73703 -0.04643
 C266 C -0.06022 0.75640 -0.05070
 C267 C -0.06047 0.77632 -0.03423
 C268 C -0.04464 0.77690 -0.01402
 C269 C 0.02634 0.76419 -0.02836
 C270 C 0.04302 0.76059 -0.04775
 C271 C 0.06085 0.74160 -0.04655
 C272 C 0.06091 0.72609 -0.02580
 C273 C 0.04406 0.72947 -0.00676
 C274 C 0.04161 0.77369 0.04221
 C275 C 0.05554 0.77441 0.06383
 C276 C 0.05301 0.75588 0.08178
 C277 C 0.03553 0.73725 0.07811
 C278 C 0.02162 0.73650 0.05639
 H279 H -0.03891 0.72425 0.04040
 H280 H -0.06347 0.73117 0.07710
 H281 H -0.04517 0.80870 0.07444
 H282 H -0.01974 0.80100 0.03798
 H283 H -0.01556 0.72199 -0.02240
 H284 H -0.04259 0.72102 -0.05819
 H285 H -0.04548 0.79255 -0.00174
 H286 H 0.01368 0.77958 -0.02922
 H287 H 0.04235 0.77340 -0.06296
 H288 H 0.07424 0.71129 -0.02413
 H289 H 0.04489 0.71730 0.00904
 H290 H 0.04410 0.78789 0.02842
 H291 H 0.06825 0.78949 0.06640
 H292 H 0.03320 0.72284 0.09171
 H293 H 0.00889 0.72149 0.05347
 H294 H -0.07311 0.79158 -0.03687
 C295 C 0.50118 0.24676 0.50555
 C296 C 0.47634 0.24929 0.50413
 C297 C 0.46092 0.24910 0.52661
 C298 C 0.46353 0.25417 0.48047
 C299 C 0.51720 0.24801 0.48353
 C300 C 0.51387 0.24354 0.52958
 C301 C 0.46062 0.22864 0.54244
 C302 C 0.44706 0.22934 0.56428
 C303 C 0.43314 0.25025 0.57033
 C304 C 0.43332 0.27063 0.55433
 C305 C 0.44701 0.27000 0.53264
 C306 C 0.44904 0.23576 0.46968
 C307 C 0.43537 0.24071 0.44835
 C308 C 0.43550 0.26437 0.43783
 C309 C 0.44997 0.28279 0.44874
 C310 C 0.46415 0.27765 0.46972
 C311 C 0.53686 0.26468 0.48325
 C312 C 0.55345 0.26484 0.46371
 C313 C 0.55071 0.24842 0.44399
 C314 C 0.53082 0.23186 0.44407
 C315 C 0.51424 0.23163 0.46377
 C316 C 0.51637 0.26337 0.54591
 C317 C 0.52950 0.26047 0.56794
 C318 C 0.54000 0.23756 0.57408
 C319 C 0.53681 0.21760 0.55803
 C320 C 0.52420 0.22067 0.53574
 H321 H 0.47102 0.21223 0.53795
 H322 H 0.44722 0.21344 0.57634
 H323 H 0.42336 0.28731 0.55876
 H324 H 0.44720 0.28607 0.52082
 H325 H 0.44815 0.21764 0.47797
 H326 H 0.42398 0.22629 0.44067
 H327 H 0.47502 0.29214 0.47802
 H328 H 0.53956 0.27740 0.49835
 H329 H 0.56869 0.27766 0.46417
 H330 H 0.52849 0.21847 0.42953
 H331 H 0.49960 0.21815 0.46397
 H332 H 0.50848 0.28114 0.54137
 H333 H 0.53134 0.27605 0.58021
 H334 H 0.54469 0.19979 0.56244
 H335 H 0.52241 0.20520 0.52330
 H336 H 0.45018 0.30121 0.44107
 C337 C 1.00832 0.02937 0.23939
 C338 C 1.01122 0.00471 0.24256
 C339 C 1.03572 -0.00743 0.24403
 C340 C 0.98976 -0.01213 0.24436
 C341 C 0.98348 0.04054 0.23755
 C342 C 1.02938 0.04667 0.23700
 C343 C 1.05305 -0.00536 0.22501
 C344 C 1.07451 -0.01972 0.22539
 C345 C 1.07868 -0.03699 0.24435
 C346 C 1.06170 -0.03805 0.26395
 C347 C 1.04054 -0.02350 0.26368
 C348 C 0.98813 -0.03211 0.22815
 C349 C 0.97004 -0.04999 0.23128
 C350 C 0.95304 -0.04840 0.25072
 C351 C 0.95432 -0.02788 0.26665
 C352 C 0.97263 -0.01004 0.26354
 C353 C 0.97476 0.05534 0.25678
 C354 C 0.95230 0.06773 0.25447
 C355 C 0.93850 0.06592 0.23260
 C356 C 0.94726 0.05105 0.21337
 C357 C 0.96946 0.03817 0.21594
 C358 C 1.04840 0.04759 0.25460
 C359 C 1.06724 0.06505 0.25249
 C360 C 1.06710 0.08210 0.23295
 C361 C 1.04803 0.08118 0.21554
 C362 C 1.02948 0.06361 0.21745
 H363 H 1.04957 0.00668 0.20947
 H364 H 1.08728 -0.01815 0.21016
 H365 H 1.06444 -0.04990 0.27970
 H366 H 1.02752 -0.02519 0.27867
 H367 H 1.00132 -0.03417 0.21335
 H368 H 0.96968 -0.06541 0.21863
 H369 H 0.97398 0.00489 0.27666
 H370 H 0.98556 0.05757 0.27343
 H371 H 0.94630 0.07952 0.26936
 H372 H 0.93703 0.04962 0.19628
 H373 H 0.97616 0.02706 0.20082
 H374 H 1.04839 0.03519 0.27023
 H375 H 1.08134 0.06569 0.26660
 H376 H 1.04742 0.09420 0.20041
 H377 H 1.01502 0.06340 0.20368
 H378 H 0.94201 -0.02574 0.28208
 C379 C 0.50110 0.51848 0.74382
 C380 C 0.50258 0.49350 0.74254
 C381 C 0.48024 0.47778 0.74062
 C382 C 0.52635 0.47993 0.74241
 C383 C 0.52313 0.53477 0.74315
 C384 C 0.47687 0.53101 0.74541
 C385 C 0.46233 0.47723 0.75925
 C386 C 0.44261 0.46068 0.75785
 C387 C 0.44076 0.44417 0.73795
 C388 C 0.45867 0.44485 0.71942
 C389 C 0.47811 0.46153 0.72067
 C390 C 0.53035 0.46170 0.76030
 C391 C 0.55102 0.44649 0.75918
 C392 C 0.56808 0.44901 0.73993
 C393 C 0.56466 0.46794 0.72257
 C394 C 0.54379 0.48315 0.72362
 C395 C 0.52363 0.55430 0.72620
 C396 C 0.54354 0.57043 0.72546
 C397 C 0.56363 0.56738 0.74147
 C398 C 0.56325 0.54787 0.75858
 C399 C 0.54305 0.53183 0.75954
 C400 C 0.46157 0.53334 0.72466
 C401 C 0.43903 0.54578 0.72643
 C402 C 0.43135 0.55569 0.74909
 C403 C 0.44650 0.55285 0.76988
 C404 C 0.46927 0.54098 0.76796
 H405 H 0.46402 0.48900 0.77523
 H406 H 0.42951 0.46017 0.77281
 H407 H 0.45778 0.43221 0.70402
 H408 H 0.49185 0.46145 0.70624
 H409 H 0.51714 0.45897 0.77497
 H410 H 0.55350 0.43270 0.77338
 H411 H 0.54088 0.49689 0.70944
 H412 H 0.50853 0.55710 0.71344
 H413 H 0.54326 0.58538 0.71224
 H414 H 0.57811 0.54537 0.77165
 H415 H 0.54282 0.51738 0.77328
 H416 H 0.46721 0.52570 0.70713
 H417 H 0.42749 0.54736 0.71021
 H418 H 0.44091 0.56026 0.78752
 H419 H 0.48089 0.53930 0.78413
 H420 H 0.57768 0.47036 0.70769
 C421 C 1.01588 1.00527 0.76633
 C422 C 0.99128 1.00111 0.76478
 C423 C 0.98089 0.97619 0.76120
 C424 C 0.97309 1.02126 0.76642
 C425 C 1.02603 1.03042 0.76921
 C426 C 1.03406 0.98497 0.76386
 C427 C 0.98653 0.96205 0.74029
 C428 C 0.97583 0.93887 0.73707
 C429 C 0.95899 0.92981 0.75440
 C430 C 0.95383 0.94383 0.77553
 C431 C 0.96456 0.96685 0.77878
 C432 C 0.95901 1.02718 0.74562
 C433 C 0.94034 1.04474 0.74705
 C434 C 0.93502 1.05650 0.76961
 C435 C 0.94919 1.05027 0.79050
 C436 C 0.96825 1.03298 0.78885
 C437 C 1.04245 1.03524 0.78857
 C438 C 1.05430 1.05794 0.79016
 C439 C 1.05016 1.07615 0.77218
 C440 C 1.03301 1.07165 0.75333
 C441 C 1.02123 1.04886 0.75168
 C442 C 1.03277 0.96375 0.77855
 C443 C 1.04874 0.94399 0.77440
 C444 C 1.06680 0.94538 0.75579
 C445 C 1.06893 0.96735 0.74226
 C446 C 1.05265 0.98683 0.74612
 H447 H 0.99897 0.96909 0.72643
 H448 H 0.98015 0.92832 0.72072
 H449 H 0.94155 0.93703 0.78964
 H450 H 0.96017 0.97742 0.79511
 H451 H 0.96233 1.01790 0.72828
 H452 H 0.92960 1.04800 0.73059
 H453 H 0.97877 1.02825 0.80517
 H454 H 1.04637 1.02122 0.80225
 H455 H 1.06682 1.06107 0.80537
 H456 H 1.02948 1.08543 0.73931
 H457 H 1.00904 1.04533 0.73628
 H458 H 1.01910 0.96231 0.79297
 H459 H 1.04689 0.92802 0.78610
 H460 H 1.08279 0.96926 0.72806
 H461 H 1.05418 1.00317 0.73477
 H462 H 0.94555 1.05879 0.80816
 C463 C 0.52744 0.51637 0.24294
 C464 C 0.50245 0.51530 0.24238
 C465 C 0.48885 0.49199 0.23833
 C466 C 0.48702 0.53735 0.24667
 C467 C 0.54069 0.53988 0.24713
 C468 C 0.54308 0.49417 0.23955
 C469 C 0.49265 0.47750 0.21725
 C470 C 0.47892 0.45603 0.21362
 C471 C 0.46082 0.44911 0.23067
 C472 C 0.45736 0.46347 0.25191
 C473 C 0.47116 0.48472 0.25562
 C474 C 0.47190 0.54614 0.22763
 C475 C 0.45544 0.56541 0.23193
 C476 C 0.45357 0.57592 0.25551
 C477 C 0.46876 0.56710 0.27455
 C478 C 0.48558 0.54809 0.27011
 C479 C 0.55814 0.54127 0.26615
 C480 C 0.57234 0.56241 0.26923
 C481 C 0.56950 0.58252 0.25313
 C482 C 0.55147 0.58143 0.23458
 C483 C 0.53733 0.56017 0.23142
 C484 C 0.54027 0.47322 0.25446
 C485 C 0.55564 0.45278 0.25130
 C486 C 0.57434 0.45316 0.23340
 C487 C 0.57741 0.47431 0.21892
 C488 C 0.56188 0.49457 0.22188
 H489 H 0.50603 0.48295 0.20354
 H490 H 0.48199 0.44514 0.19720
 H491 H 0.44415 0.45821 0.26583
 H492 H 0.46808 0.49550 0.27210
 H493 H 0.47257 0.53776 0.20955
 H494 H 0.44353 0.57136 0.21704
 H495 H 0.49688 0.54118 0.28508
 H496 H 0.56093 0.52584 0.27851
 H497 H 0.58548 0.56292 0.28423
 H498 H 0.54887 0.59674 0.22204
 H499 H 0.52426 0.55932 0.21635
 H500 H 0.52640 0.47282 0.26874
 H501 H 0.55331 0.43709 0.26334
 H502 H 0.59186 0.47513 0.20523
 H503 H 0.56455 0.51064 0.21038
 H504 H 0.46742 0.57478 0.29291
 O505 O 0.27443 0.19663 0.18866
 O506 O 0.30363 0.19173 0.22198
 O507 O 0.20942 0.21927 0.22606
 O508 O 0.19723 0.24970 0.25015
 O509 O 0.23448 0.25934 0.16088
 O510 O 0.26645 0.28805 0.15376
 O511 O 0.26825 0.29274 0.28868
 O512 O 0.24315 0.25754 0.29540
 O513 O 0.33388 0.26450 0.25712
 O514 O 0.34397 0.24092 0.22321
 O515 O 0.29611 0.32632 0.22698
 O516 O 0.26070 0.33061 0.19835
 O517 O 0.26250 0.32210 0.25930
 O518 O 0.23460 0.32727 0.22412
 O519 O 0.32880 0.30015 0.22641
 O520 O 0.33622 0.26717 0.19307
 O521 O 0.30488 0.26322 0.28730
 O522 O 0.27411 0.23146 0.29526
 O523 O 0.27240 0.22700 0.15980
 O524 O 0.29569 0.26399 0.15319
 O525 O 0.20551 0.25382 0.19058
 O526 O 0.19750 0.28137 0.22571
 O527 O 0.24182 0.19270 0.22527
 O528 O 0.27781 0.18867 0.25025
 Zr529 Zr 0.27287 0.21565 0.22257
 O530 O 0.29403 0.23862 0.24552
 Zr531 Zr 0.22558 0.25431 0.22391
 O532 O 0.24457 0.27871 0.24736
 Zr533 Zr 0.26810 0.25953 0.18024
 O534 O 0.28880 0.28443 0.20155
 Zr535 Zr 0.27105 0.25972 0.26839
 O536 O 0.24971 0.23462 0.24730
 Zr537 Zr 0.31307 0.26475 0.22439
 O538 O 0.29428 0.23971 0.20108
 Zr539 Zr 0.26526 0.30320 0.22578
 O540 O 0.24416 0.28048 0.20228
 O541 O 0.24771 0.23407 0.20026
 O542 O 0.29097 0.28532 0.24813
 C543 C 0.27445 0.20436 0.16622
 C544 C 0.21871 0.19749 0.22666
 C545 C 0.21210 0.25694 0.16805
 C546 C 0.26442 0.31509 0.28178
 C547 C 0.32733 0.26414 0.27984
 C548 C 0.31928 0.32180 0.22708
 H549 H 0.30553 0.22826 0.25515
 H550 H 0.29793 0.29570 0.19057
 H551 H 0.23795 0.22278 0.18980
 H552 H 0.23264 0.28732 0.25805
 H553 H 0.23175 0.24436 0.29008
 H554 H 0.20218 0.25879 0.26513
 H555 H 0.35106 0.27685 0.19745
 H556 H 0.30953 0.25307 0.15794
 H557 H 0.28822 0.22081 0.29089
 H558 H 0.26695 0.19346 0.26407
 H559 H 0.27474 0.32941 0.18685
 H560 H 0.25491 0.30055 0.16030
 H561 H 0.31500 0.19818 0.20931
 H562 H 0.33921 0.22536 0.23134
 H563 H 0.20060 0.29328 0.21226
 H564 H 0.22285 0.32211 0.23702
 O565 O 0.76315 0.82985 0.24655
 O566 O 0.73246 0.83406 0.27886
 O567 O 0.82599 0.80499 0.28612
 O568 O 0.83492 0.77443 0.31252
 O569 O 0.80557 0.76967 0.21938
 O570 O 0.77524 0.74011 0.20853
 O571 O 0.76195 0.73031 0.34292
 O572 O 0.78571 0.76497 0.35309
 O573 O 0.69903 0.75658 0.30611
 O574 O 0.69317 0.78661 0.27626
 O575 O 0.73821 0.69889 0.27608
 O576 O 0.77670 0.69509 0.25243
 O577 O 0.76605 0.70138 0.31294
 O578 O 0.79984 0.69738 0.28162
 O579 O 0.70590 0.72549 0.27380
 O580 O 0.70112 0.75800 0.24267
 O581 O 0.72511 0.75944 0.33893
 O582 O 0.75515 0.79139 0.35048
 O583 O 0.76781 0.80092 0.21665
 O584 O 0.74517 0.76392 0.20658
 O585 O 0.83215 0.76962 0.25188
 O586 O 0.83712 0.74288 0.28750
 O587 O 0.79364 0.83171 0.28497
 O588 O 0.75617 0.83485 0.30817
 Zr589 Zr 0.76257 0.80931 0.27953
 O590 O 0.73934 0.78559 0.29937
 Zr591 Zr 0.80942 0.77009 0.28333
 O592 O 0.78832 0.74505 0.30418
 Zr593 Zr 0.77064 0.76738 0.23589
 O594 O 0.74829 0.74170 0.25430
 Zr595 Zr 0.76045 0.76376 0.32339
 O596 O 0.78373 0.78926 0.30527
 Zr597 Zr 0.72220 0.76053 0.27554
 O598 O 0.74283 0.78651 0.25503
 Zr599 Zr 0.76927 0.72160 0.27998
 O600 O 0.79236 0.74508 0.25919
 O601 O 0.78936 0.79158 0.25875
 O602 O 0.74216 0.73913 0.30048
 C603 C 0.76492 0.82326 0.22390
 C604 C 0.81672 0.82680 0.28672
 C605 C 0.82736 0.76951 0.22868
 C606 C 0.76355 0.70791 0.33555
 C607 C 0.70359 0.75669 0.32934
 C608 C 0.71514 0.70371 0.27418
 H609 H 0.72682 0.79545 0.30816
 H610 H 0.74020 0.73098 0.24201
 H611 H 0.79988 0.80311 0.24938
 H612 H 0.79911 0.73586 0.31567
 H613 H 0.79765 0.77818 0.34926
 H614 H 0.82899 0.76436 0.32647
 H615 H 0.68401 0.75367 0.24727
 H616 H 0.73092 0.77451 0.21070
 H617 H 0.74093 0.80167 0.34553
 H618 H 0.76664 0.82967 0.32222
 H619 H 0.76499 0.69794 0.23873
 H620 H 0.78674 0.72774 0.21547
 H621 H 0.72216 0.82959 0.26451
 H622 H 0.69590 0.79798 0.26229
 H623 H 0.83402 0.73022 0.27477
 H624 H 0.80867 0.70043 0.29728
 O625 O 0.74425 0.18031 0.79228
 O626 O 0.71714 0.16945 0.75930
 O627 O 0.80588 0.20984 0.74954
 O628 O 0.81414 0.24271 0.72679
 O629 O 0.77713 0.24830 0.81580
 O630 O 0.74176 0.27390 0.82167
 O631 O 0.74045 0.26944 0.68662
 O632 O 0.76769 0.23496 0.68265
 O633 O 0.67634 0.23756 0.72075
 O634 O 0.67088 0.21172 0.75622
 O635 O 0.70486 0.30352 0.74738
 O636 O 0.73918 0.31504 0.77334
 O637 O 0.73684 0.30150 0.71330
 O638 O 0.76643 0.31244 0.74794
 O639 O 0.67660 0.27289 0.75039
 O640 O 0.67423 0.24099 0.78477
 O641 O 0.70541 0.23916 0.69066
 O642 O 0.73430 0.20939 0.68359
 O643 O 0.74462 0.21210 0.81952
 O644 O 0.71544 0.24598 0.82408
 O645 O 0.80580 0.24475 0.78551
 O646 O 0.80887 0.27294 0.74916
 O647 O 0.77861 0.17915 0.75754
 O648 O 0.74311 0.16787 0.73190
 Zr649 Zr 0.74418 0.19729 0.75740
 O650 O 0.71975 0.21567 0.73338
 Zr651 Zr 0.78520 0.24226 0.75270
 O652 O 0.76276 0.26233 0.72826
 Zr653 Zr 0.74332 0.24384 0.79704
 O654 O 0.71893 0.26430 0.77453
 Zr655 Zr 0.73940 0.23825 0.70919
 O656 O 0.76424 0.21760 0.73113
 Zr657 Zr 0.69738 0.24017 0.75336
 O658 O 0.71990 0.21949 0.77788
 Zr659 Zr 0.73887 0.28498 0.74857
 O660 O 0.76337 0.26684 0.77318
 O661 O 0.76668 0.22035 0.77792
 O662 O 0.71614 0.26208 0.72806
 C663 C 0.74455 0.18902 0.81429
 C664 C 0.80036 0.18715 0.75287
 C665 C 0.79952 0.24754 0.80813
 C666 C 0.73849 0.29243 0.69147
 C667 C 0.68298 0.23849 0.69802
 C668 C 0.68262 0.29563 0.74828
 H669 H 0.70996 0.20354 0.72400
 H670 H 0.70840 0.27478 0.78507
 H671 H 0.77797 0.21090 0.78873
 H672 H 0.77346 0.27169 0.71693
 H673 H 0.77833 0.22103 0.68781
 H674 H 0.80632 0.24362 0.71035
 H675 H 0.65773 0.24709 0.77975
 H676 H 0.70358 0.23268 0.82040
 H677 H 0.74161 0.19453 0.69112
 H678 H 0.75693 0.17023 0.72029
 H679 H 0.72793 0.31100 0.78704
 H680 H 0.75202 0.28705 0.81439
 H681 H 0.70399 0.17577 0.77022
 H682 H 0.67594 0.19812 0.74525
 H683 H 0.80457 0.28456 0.76252
 H684 H 0.77715 0.30922 0.73359
 O685 O 0.22519 0.80206 0.77506
 O686 O 0.25058 0.81035 0.74052
 O687 O 0.16421 0.76373 0.74299
 O688 O 0.15869 0.72994 0.72022
 O689 O 0.19795 0.73738 0.80929
 O690 O 0.23458 0.71350 0.81720
 O691 O 0.23858 0.70096 0.68286
 O692 O 0.20432 0.72705 0.67449
 O693 O 0.29494 0.74136 0.71026
 O694 O 0.29904 0.77178 0.74380
 O695 O 0.27215 0.67693 0.74647
 O696 O 0.23923 0.66683 0.77472
 O697 O 0.23912 0.67232 0.71349
 O698 O 0.21118 0.66437 0.75008
 O699 O 0.29807 0.70940 0.74200
 O700 O 0.30048 0.74323 0.77363
 O701 O 0.26492 0.73867 0.68099
 O702 O 0.22665 0.76094 0.67270
 O703 O 0.23016 0.77485 0.80665
 O704 O 0.25961 0.74265 0.81538
 O705 O 0.16851 0.73253 0.77975
 O706 O 0.16624 0.70052 0.74755
 O707 O 0.19058 0.79615 0.74114
 O708 O 0.22390 0.80556 0.71338
 Zr709 Zr 0.22589 0.78045 0.74314
 O710 O 0.25101 0.76098 0.72132
 Zr711 Zr 0.18768 0.73301 0.74615
 O712 O 0.21097 0.71146 0.72371
 Zr713 Zr 0.23107 0.74012 0.78897
 O714 O 0.25614 0.71839 0.76860
 Zr715 Zr 0.23206 0.73437 0.70088
 O716 O 0.20627 0.75569 0.72073
 Zr717 Zr 0.27538 0.74078 0.74371
 O718 O 0.25218 0.76299 0.76582
 Zr719 Zr 0.23690 0.69332 0.74619
 O720 O 0.21193 0.71294 0.76897
 O721 O 0.20570 0.75915 0.76749
 O722 O 0.25738 0.71484 0.72208
 C723 C 0.22765 0.79681 0.79797
 C724 C 0.16886 0.78684 0.74131
 C725 C 0.17544 0.73454 0.80230
 C726 C 0.24044 0.67877 0.69072
 C727 C 0.28748 0.74071 0.68775
 C728 C 0.29368 0.68627 0.74372
 H729 H 0.25973 0.77283 0.71066
 H730 H 0.26770 0.70998 0.77996
 H731 H 0.19434 0.76931 0.77747
 H732 H 0.20118 0.69977 0.71379
 H733 H 0.18980 0.73699 0.67926
 H734 H 0.16463 0.71948 0.70656
 H735 H 0.31720 0.73892 0.76765
 H736 H 0.27168 0.75453 0.80875
 H737 H 0.23797 0.77482 0.67581
 H738 H 0.21215 0.79857 0.70131
 H739 H 0.25002 0.67363 0.78772
 H740 H 0.22437 0.69930 0.81216
 H741 H 0.26458 0.80646 0.75158
 H742 H 0.29439 0.78251 0.72980
 H743 H 0.17217 0.69078 0.76182
 H744 H 0.20013 0.66472 0.73557
 O745 O 0.23115 0.32483 0.71351
 O746 O 0.20431 0.33425 0.74807
 O747 O 0.29861 0.30717 0.75110
 O748 O 0.31205 0.27984 0.77831
 O749 O 0.27129 0.26183 0.69175
 O750 O 0.24121 0.23027 0.68940
 O751 O 0.24341 0.24205 0.82417
 O752 O 0.26699 0.27816 0.82598
 O753 O 0.17606 0.26181 0.79084
 O754 O 0.16606 0.28646 0.75766
 O755 O 0.21314 0.20024 0.76646
 O756 O 0.24854 0.19276 0.73943
 O757 O 0.24488 0.20886 0.79870
 O758 O 0.27511 0.20025 0.76459
 O759 O 0.18009 0.22589 0.76370
 O760 O 0.17100 0.25297 0.72837
 O761 O 0.20543 0.26940 0.81990
 O762 O 0.23578 0.30366 0.82247
 O763 O 0.23306 0.29128 0.68853
 O764 O 0.21031 0.25306 0.68728
 O765 O 0.30164 0.26852 0.71994
 O766 O 0.31091 0.24537 0.75842
 O767 O 0.26585 0.33321 0.74815
 O768 O 0.23075 0.33979 0.77406
 Zr769 Zr 0.23481 0.31001 0.74936
 O770 O 0.21455 0.28956 0.77526
 Zr771 Zr 0.28275 0.27203 0.75381
 O772 O 0.26475 0.25063 0.78075
 Zr773 Zr 0.23885 0.26153 0.71244
 O774 O 0.21946 0.23896 0.73702
 Zr775 Zr 0.23871 0.27194 0.79989
 O776 O 0.25918 0.29428 0.77532
 Zr777 Zr 0.19555 0.26088 0.75778
 O778 O 0.21300 0.28344 0.73125
 Zr779 Zr 0.24379 0.22348 0.76288
 O780 O 0.26377 0.24339 0.73605
 O781 O 0.25947 0.28933 0.72877
 O782 O 0.21870 0.24387 0.78331
 C783 C 0.23060 0.31444 0.69222
 C784 C 0.28908 0.32879 0.74932
 C785 C 0.29392 0.26458 0.69785
 C786 C 0.24471 0.21880 0.82016
 C787 C 0.18309 0.26515 0.81315
 C788 C 0.18990 0.20453 0.76656
 H789 H 0.20283 0.30059 0.78376
 H790 H 0.21032 0.22635 0.72761
 H791 H 0.26856 0.29958 0.71679
 H792 H 0.27700 0.24348 0.79223
 H793 H 0.27831 0.29034 0.81857
 H794 H 0.30730 0.27336 0.79464
 H795 H 0.15468 0.24916 0.73555
 H796 H 0.19643 0.26425 0.69108
 H797 H 0.22023 0.31226 0.81838
 H798 H 0.24244 0.33677 0.78777
 H799 H 0.23551 0.19351 0.72668
 H800 H 0.25388 0.21936 0.69675
 H801 H 0.19251 0.32737 0.73601
 H802 H 0.16702 0.29560 0.74192
 H803 H 0.30738 0.23185 0.74674
 H804 H 0.28559 0.20586 0.77841
 O805 O 0.78136 0.66901 0.70428
 O806 O 0.80881 0.66466 0.73908
 O807 O 0.71502 0.69401 0.73790
 O808 O 0.70223 0.72530 0.76026
 O809 O 0.74393 0.73015 0.67251
 O810 O 0.77567 0.75932 0.66601
 O811 O 0.77243 0.76870 0.80046
 O812 O 0.74675 0.73405 0.80758
 O813 O 0.83895 0.73857 0.77239
 O814 O 0.84991 0.71356 0.73956
 O815 O 0.80295 0.79968 0.73880
 O816 O 0.76896 0.80353 0.70883
 O817 O 0.76855 0.79704 0.76981
 O818 O 0.74157 0.80098 0.73341
 O819 O 0.83544 0.77332 0.74105
 O820 O 0.84395 0.73962 0.70876
 O821 O 0.80888 0.73824 0.80153
 O822 O 0.77717 0.70759 0.80950
 O823 O 0.78189 0.69854 0.67449
 O824 O 0.80513 0.73531 0.66745
 O825 O 0.71358 0.72735 0.70119
 O826 O 0.70434 0.75618 0.73528
 O827 O 0.74685 0.66679 0.73930
 O828 O 0.78180 0.66325 0.76634
 Zr829 Zr 0.77855 0.68917 0.73743
 O830 O 0.79919 0.71275 0.76029
 Zr831 Zr 0.73196 0.72858 0.73540
 O832 O 0.75026 0.75346 0.75883
 Zr833 Zr 0.77642 0.73167 0.69344
 O834 O 0.79642 0.75712 0.71463
 Zr835 Zr 0.77562 0.73487 0.78153
 O836 O 0.75471 0.70936 0.76049
 Zr837 Zr 0.81943 0.73796 0.73906
 O838 O 0.80130 0.71220 0.71605
 Zr839 Zr 0.77204 0.77687 0.73717
 O840 O 0.75173 0.75365 0.71358
 O841 O 0.75478 0.70722 0.71345
 O842 O 0.79660 0.75951 0.76117
 C843 C 0.78297 0.67609 0.68170
 C844 C 0.72376 0.67207 0.73946
 C845 C 0.72126 0.72872 0.67883
 C846 C 0.76942 0.79086 0.79257
 C847 C 0.83159 0.73880 0.79482
 C848 C 0.82601 0.79504 0.74052
 H849 H 0.81016 0.70257 0.77070
 H850 H 0.80612 0.76794 0.70368
 H851 H 0.74539 0.69563 0.70298
 H852 H 0.73802 0.76257 0.76874
 H853 H 0.73525 0.72099 0.80220
 H854 H 0.70688 0.73427 0.77541
 H855 H 0.85879 0.74901 0.71373
 H856 H 0.81881 0.72466 0.67318
 H857 H 0.79091 0.69625 0.80573
 H858 H 0.77000 0.66843 0.77921
 H859 H 0.78306 0.80134 0.69755
 H860 H 0.76355 0.77178 0.67149
 H861 H 0.82096 0.67057 0.72687
 H862 H 0.84476 0.69853 0.74840
 H863 H 0.70794 0.76739 0.72136
 H864 H 0.72962 0.79688 0.74650
 O865 O 0.26810 0.70249 0.28835
 O866 O 0.24200 0.69247 0.25450
 O867 O 0.32828 0.73841 0.24927
 O868 O 0.33426 0.77175 0.22717
 O869 O 0.29741 0.77013 0.31680
 O870 O 0.26089 0.79355 0.32452
 O871 O 0.25580 0.79915 0.18994
 O872 O 0.28734 0.76942 0.18274
 O873 O 0.19688 0.76063 0.22162
 O874 O 0.19270 0.73266 0.25525
 O875 O 0.22203 0.82628 0.25279
 O876 O 0.25604 0.83722 0.28031
 O877 O 0.25432 0.82879 0.21945
 O878 O 0.28257 0.83877 0.25442
 O879 O 0.19537 0.79414 0.25388
 O880 O 0.19500 0.75947 0.28581
 O881 O 0.22577 0.76373 0.19146
 O882 O 0.26142 0.73854 0.18235
 O883 O 0.26644 0.73226 0.31776
 O884 O 0.23638 0.76412 0.32534
 O885 O 0.32594 0.77199 0.28623
 O886 O 0.32745 0.80166 0.25169
 O887 O 0.30232 0.70582 0.25315
 O888 O 0.26818 0.69548 0.22650
 Zr889 Zr 0.26711 0.72212 0.25484
 O890 O 0.24139 0.74082 0.23253
 Zr891 Zr 0.30561 0.76946 0.25339
 O892 O 0.28181 0.79000 0.23065
 Zr893 Zr 0.26385 0.76538 0.29784
 O894 O 0.23815 0.78604 0.27719
 Zr895 Zr 0.25966 0.76619 0.20988
 O896 O 0.28579 0.74551 0.23019
 Zr897 Zr 0.21785 0.76244 0.25430
 O898 O 0.24172 0.74126 0.27699
 Zr899 Zr 0.25691 0.80954 0.25291
 O900 O 0.28260 0.79106 0.27580
 O901 O 0.28845 0.74477 0.27701
 O902 O 0.23521 0.78714 0.23065
 C903 C 0.26751 0.70968 0.31091
 C904 C 0.32381 0.71525 0.25018
 C905 C 0.31962 0.77234 0.30898
 C906 C 0.25416 0.82167 0.19693
 C907 C 0.20346 0.76172 0.19889
 C908 C 0.20024 0.81724 0.25328
 H909 H 0.23203 0.72871 0.22274
 H910 H 0.22716 0.79508 0.28853
 H911 H 0.30027 0.73525 0.28717
 H912 H 0.29159 0.80092 0.21989
 H913 H 0.30091 0.75822 0.18767
 H914 H 0.32707 0.77879 0.21196
 H915 H 0.17826 0.76551 0.28155
 H916 H 0.22480 0.75092 0.32055
 H917 H 0.25085 0.72469 0.18747
 H918 H 0.27877 0.70231 0.21335
 H919 H 0.24397 0.83220 0.29295
 H920 H 0.27047 0.80768 0.31820
 H921 H 0.22840 0.69712 0.26569
 H922 H 0.19869 0.71981 0.24384
 H923 H 0.32234 0.81235 0.26552
 H924 H 0.29391 0.83693 0.24031
 O925 O 0.72402 0.29625 0.27401
 O926 O 0.75095 0.30517 0.24435
 O927 O 0.66305 0.26561 0.23316
 O928 O 0.65684 0.23369 0.20845
 O929 O 0.68594 0.23305 0.30139
 O930 O 0.71861 0.20656 0.31330
 O931 O 0.73652 0.19762 0.17923
 O932 O 0.70871 0.22858 0.16781
 O933 O 0.79449 0.23025 0.21654
 O934 O 0.79705 0.25898 0.24831
 O935 O 0.75982 0.16772 0.24662
 O936 O 0.72230 0.16008 0.26850
 O937 O 0.73166 0.16798 0.20846
 O938 O 0.69801 0.16199 0.24042
 O939 O 0.78977 0.19690 0.24666
 O940 O 0.79120 0.22834 0.27978
 O941 O 0.76875 0.23066 0.18333
 O942 O 0.73491 0.25919 0.17147
 O943 O 0.72065 0.26767 0.30449
 O944 O 0.74673 0.23261 0.31490
 O945 O 0.65969 0.23177 0.26868
 O946 O 0.65840 0.20247 0.23369
 O947 O 0.69253 0.29512 0.23601
 O948 O 0.73103 0.30014 0.21145
 Zr949 Zr 0.72574 0.27577 0.24142
 O950 O 0.75171 0.25430 0.22246
 Zr951 Zr 0.68281 0.23257 0.23755
 O952 O 0.70651 0.20968 0.21699
 Zr953 Zr 0.72114 0.23370 0.28549
 O954 O 0.74578 0.20972 0.26754
 Zr955 Zr 0.73292 0.23084 0.19829
 O956 O 0.70676 0.25393 0.21570
 Zr957 Zr 0.77049 0.23058 0.24663
 O958 O 0.74725 0.25492 0.26634
 Zr959 Zr 0.72707 0.18787 0.24161
 O960 O 0.70181 0.20936 0.26220
 O961 O 0.70051 0.25598 0.26209
 O962 O 0.75288 0.20767 0.22148
 C963 C 0.72212 0.29001 0.29671
 C964 C 0.67012 0.28813 0.23310
 C965 C 0.66426 0.23201 0.29191
 C966 C 0.73544 0.17510 0.18618
 C967 C 0.79029 0.23040 0.19327
 C968 C 0.78244 0.17444 0.24724
 H969 H 0.76337 0.26527 0.21387
 H970 H 0.75460 0.19964 0.27995
 H971 H 0.68898 0.26678 0.27116
 H972 H 0.69686 0.19964 0.20528
 H973 H 0.69478 0.23981 0.17133
 H974 H 0.66424 0.22497 0.19430
 H975 H 0.80859 0.22497 0.27536
 H976 H 0.75989 0.24449 0.31077
 H977 H 0.74849 0.27039 0.17604
 H978 H 0.71855 0.29593 0.19883
 H979 H 0.73144 0.16523 0.28339
 H980 H 0.70840 0.19314 0.30643
 H981 H 0.76755 0.29788 0.24282
 H982 H 0.79221 0.26986 0.26212
 H983 H 0.66110 0.19154 0.24806
 H984 H 0.68957 0.16372 0.22434
 C985 C 0.25027 0.07701 0.06667
 C986 C 0.26663 0.09691 0.06741
 C987 C 0.26766 0.11361 0.08877
 N988 N 0.27949 0.13548 0.08691
 N989 N 0.28054 0.15076 0.10606
 C990 C 0.26999 0.14464 0.12789
 N991 N 0.25842 0.12263 0.12986
 N992 N 0.25723 0.10742 0.11065
 C993 C 0.27050 0.16162 0.14902
 C994 C 0.27637 0.18639 0.14609
 H995 H 0.27859 0.10115 0.05215
 H996 H 0.26454 0.15490 0.16683
 H997 H 0.23752 0.07548 0.08195
 H998 H 0.28065 0.19333 0.12788
 C999 C 0.74091 0.56141 0.57596
 C1000 C 0.76106 0.57707 0.57838
 C1001 C 0.76518 0.59140 0.60097
 N1002 N 0.78193 0.60985 0.60110
 N1003 N 0.78553 0.62324 0.62132
 C1004 C 0.77269 0.61851 0.64224
 N1005 N 0.75624 0.59978 0.64225
 N1006 N 0.75254 0.58648 0.62197
 C1007 C 0.77525 0.63428 0.66409
 C1008 C 0.78547 0.65764 0.66220
 H1009 H 0.77384 0.57952 0.56335
 H1010 H 0.76644 0.62868 0.68108
 H1011 H 0.72740 0.56106 0.59062
 H1012 H 0.79247 0.66383 0.64458
 C1013 C 0.75357 0.90440 0.08147
 C1014 C 0.76192 0.91003 0.10513
 C1015 C 0.76228 0.89123 0.12473
 N1016 N 0.76635 0.89776 0.14853
 N1017 N 0.76663 0.88078 0.16630
 C1018 C 0.76298 0.85664 0.16087
 N1019 N 0.75910 0.85014 0.13707
 N1020 N 0.75869 0.86710 0.11936
 C1021 C 0.76345 0.83748 0.18002
 C1022 C 0.76414 0.84284 0.20513
 H1023 H 0.76754 0.92858 0.10966
 H1024 H 0.76281 0.81847 0.17405
 H1025 H 0.74618 0.88620 0.07809
 H1026 H 0.76387 0.86182 0.21120
 C1027 C 0.22671 0.43290 0.57815
 C1028 C 0.23351 0.40836 0.58114
 C1029 C 0.23034 0.39486 0.60431
 N1030 N 0.23445 0.37027 0.60465
 N1031 N 0.23266 0.35764 0.62555
 C1032 C 0.22682 0.36911 0.64698
 N1033 N 0.22273 0.39377 0.64668
 N1034 N 0.22441 0.40643 0.62568
 C1035 C 0.22589 0.35514 0.67020
 C1036 C 0.22797 0.32959 0.67000
 H1037 H 0.24122 0.39836 0.56572
 H1038 H 0.22433 0.36498 0.68747
 H1039 H 0.21670 0.44222 0.59265
 H1040 H 0.22874 0.32004 0.65250
 C1041 C 0.74367 0.05365 0.90837
 C1042 C 0.75711 0.07548 0.90708
 C1043 C 0.75300 0.09387 0.88748
 N1044 N 0.76154 0.11717 0.89027
 N1045 N 0.75791 0.13402 0.87274
 C1046 C 0.74571 0.12814 0.85167
 N1047 N 0.73736 0.10479 0.84880
 N1048 N 0.74081 0.08800 0.86641
 C1049 C 0.74226 0.14623 0.83170
 C1050 C 0.74590 0.17146 0.83500
 H1051 H 0.76993 0.07997 0.92171
 H1052 H 0.73655 0.13942 0.81383
 H1053 H 0.72909 0.05046 0.89510
 H1054 H 0.75010 0.17850 0.85319
 C1055 C 0.25913 0.57275 0.40203
 C1056 C 0.26718 0.59701 0.40435
 C1057 C 0.26732 0.61454 0.38370
 N1058 N 0.27237 0.63856 0.38812
 N1059 N 0.27228 0.65491 0.36983
 C1060 C 0.26723 0.64784 0.34637
 N1061 N 0.26236 0.62376 0.34189
 N1062 N 0.26236 0.60739 0.36022
 C1063 C 0.26679 0.66589 0.32611
 C1064 C 0.26852 0.69110 0.33059
 H1065 H 0.27238 0.60403 0.42227
 H1066 H 0.26441 0.65925 0.30745
 H1067 H 0.25200 0.56652 0.38446
 H1068 H 0.27007 0.69762 0.34939
 C1069 C 0.24789 0.90892 0.91679
 C1070 C 0.23510 0.90566 0.89471
 C1071 C 0.23497 0.88237 0.88090
 N1072 N 0.22397 0.88167 0.85848
 N1073 N 0.22359 0.86097 0.84544
 C1074 C 0.23411 0.84005 0.85431
 N1075 N 0.24497 0.84063 0.87688
 N1076 N 0.24542 0.86144 0.88995
 C1077 C 0.23418 0.81731 0.83942
 C1078 C 0.22685 0.81796 0.81479
 H1079 H 0.22531 0.92099 0.88652
 H1080 H 0.24095 0.80035 0.84748
 H1081 H 0.25927 0.89403 0.92374
 H1082 H 0.22123 0.83538 0.80680
 C1083 C 0.72483 0.39309 0.42477
 C1084 C 0.71572 0.39200 0.40075
 C1085 C 0.71702 0.36971 0.38546
 N1086 N 0.71142 0.37134 0.36117
 N1087 N 0.71276 0.35161 0.34675
 C1088 C 0.71965 0.32941 0.35605
 N1089 N 0.72500 0.32767 0.38044
 N1090 N 0.72378 0.34750 0.39490
 C1091 C 0.72146 0.30770 0.33986
 C1092 C 0.72083 0.31047 0.31433
 H1093 H 0.70858 0.40849 0.39208
 H1094 H 0.72389 0.28963 0.34798
 H1095 H 0.73390 0.37706 0.43252
 H1096 H 0.71959 0.32883 0.30659
 C1097 C 0.07636 0.24834 0.07597
 C1098 C 0.09165 0.26687 0.08515
 C1099 C 0.11226 0.26144 0.10195
 N1100 N 0.13171 0.27700 0.10317
 N1101 N 0.15014 0.27276 0.11888
 C1102 C 0.14962 0.25298 0.13419
 N1103 N 0.13004 0.23755 0.13316
 N1104 N 0.11176 0.24161 0.11722
 C1105 C 0.16934 0.24888 0.15240
 C1106 C 0.19289 0.25836 0.14898
 H1107 H 0.08963 0.28569 0.07895
 H1108 H 0.16532 0.23801 0.16863
 H1109 H 0.08163 0.22943 0.07974
 H1110 H 0.19745 0.26712 0.13164
 C1111 C 0.58320 0.72352 0.59062
 C1112 C 0.60636 0.73423 0.58865
 C1113 C 0.62518 0.73074 0.60776
 N1114 N 0.64853 0.73851 0.60378
 N1115 N 0.66560 0.73605 0.62126
 C1116 C 0.65988 0.72586 0.64338
 N1117 N 0.63652 0.71817 0.64738
 N1118 N 0.61948 0.72051 0.62986
 C1119 C 0.67827 0.72385 0.66309
 C1120 C 0.70304 0.72867 0.65888
 H1121 H 0.61096 0.74526 0.57270
 H1122 H 0.67212 0.71862 0.68133
 H1123 H 0.57970 0.71069 0.60550
 H1124 H 0.70932 0.73270 0.64038
 C1125 C 0.07915 0.73789 0.93542
 C1126 C 0.08029 0.74981 0.91259
 C1127 C 0.10090 0.74565 0.89539
 N1128 N 0.09829 0.75153 0.87122
 N1129 N 0.11679 0.74810 0.85551
 C1130 C 0.13872 0.73886 0.86337
 N1131 N 0.14145 0.73324 0.88761
 N1132 N 0.12285 0.73645 0.90329
 C1133 C 0.15945 0.73556 0.84611
 C1134 C 0.15555 0.73498 0.82072
 H1135 H 0.06546 0.76159 0.90638
 H1136 H 0.17789 0.73349 0.85345
 H1137 H 0.09337 0.72436 0.93932
 H1138 H 0.13682 0.73556 0.81380
 C1139 C 0.56992 0.24815 0.42476
 C1140 C 0.56686 0.23808 0.40132
 C1141 C 0.58735 0.23744 0.38366
 N1142 N 0.58338 0.23067 0.35992
 N1143 N 0.60195 0.23001 0.34390
 C1144 C 0.62515 0.23598 0.35113
 N1145 N 0.62910 0.24258 0.37488
 N1146 N 0.61057 0.24334 0.39083
 C1147 C 0.64596 0.23541 0.33394
 C1148 C 0.64307 0.23161 0.30872
 H1149 H 0.54917 0.23101 0.39553
 H1150 H 0.66414 0.23878 0.34144
 H1151 H 0.58733 0.25678 0.42924
 H1152 H 0.62484 0.22906 0.30101
 C1153 C 0.92889 0.77585 0.09971
 C1154 C 0.91985 0.75805 0.11596
 C1155 C 0.90183 0.76406 0.13523
 N1156 N 0.90012 0.74966 0.15559
 N1157 N 0.88301 0.75409 0.17257
 C1158 C 0.86674 0.77290 0.16965
 N1159 N 0.86832 0.78720 0.14919
 N1160 N 0.88565 0.78297 0.13236
 C1161 C 0.84672 0.77683 0.18743
 C1162 C 0.84844 0.76871 0.21174
 H1163 H 0.92673 0.73937 0.11545
 H1164 H 0.83025 0.78631 0.18124
 H1165 H 0.92459 0.79495 0.10364
 H1166 H 0.86578 0.76151 0.21858
 C1167 C 0.41883 0.25051 0.59345
 C1168 C 0.39701 0.26384 0.59563
 C1169 C 0.38196 0.26367 0.61803
 N1170 N 0.35863 0.27245 0.61695
 N1171 N 0.34441 0.27226 0.63685
 C1172 C 0.35302 0.26346 0.65866
 N1173 N 0.37653 0.25500 0.65989
 N1174 N 0.39075 0.25502 0.63988
 C1175 C 0.33694 0.26281 0.68041
 C1176 C 0.31151 0.26417 0.67745
 H1177 H 0.38975 0.27369 0.57985
 H1178 H 0.34495 0.26050 0.69856
 H1179 H 0.42469 0.23869 0.60847
 H1180 H 0.30386 0.26465 0.65899
 C1181 C 0.90448 0.26864 0.93182
 C1182 C 0.89458 0.24842 0.91934
 C1183 C 0.87428 0.25105 0.90151
 N1184 N 0.87229 0.23480 0.88266
 N1185 N 0.85414 0.23687 0.86624
 C1186 C 0.83710 0.25509 0.86821
 N1187 N 0.83885 0.27114 0.88729
 N1188 N 0.85722 0.26927 0.90355
 C1189 C 0.81686 0.25712 0.85020
 C1190 C 0.81967 0.24837 0.82625
 H1191 H 0.90332 0.23057 0.92044
 H1192 H 0.79985 0.26601 0.85563
 H1193 H 0.89709 0.28666 0.92733
 H1194 H 0.83756 0.24173 0.82044
 C1195 C 0.41626 0.76825 0.44220
 C1196 C 0.41767 0.76673 0.41664
 C1197 C 0.39633 0.77000 0.40038
 N1198 N 0.39976 0.77002 0.37567
 N1199 N 0.38066 0.77180 0.36040
 C1200 C 0.35737 0.77354 0.36924
 N1201 N 0.35389 0.77361 0.39400
 N1202 N 0.37306 0.77190 0.40932
 C1203 C 0.33621 0.77429 0.35229
 C1204 C 0.33974 0.77459 0.32688
 H1205 H 0.43522 0.76294 0.40801
 H1206 H 0.31778 0.77368 0.35983
 H1207 H 0.39936 0.77440 0.45082
 H1208 H 0.35827 0.77559 0.31960
 C1209 C 0.08552 0.10197 0.23075
 C1210 C 0.10947 0.10047 0.23997
 C1211 C 0.12695 0.12093 0.23683
 N1212 N 0.15126 0.11760 0.24171
 N1213 N 0.16716 0.13603 0.23876
 C1214 C 0.15929 0.15849 0.23093
 N1215 N 0.13499 0.16184 0.22623
 N1216 N 0.11914 0.14341 0.22906
 C1217 C 0.17639 0.17922 0.22784
 C1218 C 0.20189 0.17642 0.22906
 H1219 H 0.11588 0.08374 0.24876
 H1220 H 0.16857 0.19722 0.22416
 H1221 H 0.08026 0.11813 0.22024
 H1222 H 0.20978 0.15827 0.23173
 C1223 C 0.58377 0.58570 0.74039
 C1224 C 0.60791 0.58142 0.74834
 C1225 C 0.62704 0.60058 0.74604
 N1226 N 0.65107 0.59519 0.75061
 N1227 N 0.66837 0.61246 0.74843
 C1228 C 0.66224 0.63579 0.74165
 N1229 N 0.63824 0.64116 0.73720
 N1230 N 0.62100 0.62391 0.73930
 C1231 C 0.68074 0.65544 0.73938
 C1232 C 0.70610 0.65151 0.74140
 H1233 H 0.61316 0.56358 0.75553
 H1234 H 0.67395 0.67385 0.73573
 H1235 H 0.57956 0.60318 0.73170
 H1236 H 0.71313 0.63306 0.74431
 C1237 C 0.91559 0.07346 0.77214
 C1238 C 0.90327 0.08432 0.75226
 C1239 C 0.88198 0.10061 0.75554
 N1240 N 0.87583 0.11661 0.73736
 N1241 N 0.85641 0.13136 0.73974
 C1242 C 0.84219 0.13041 0.76025
 N1243 N 0.84808 0.11412 0.77831
 N1244 N 0.86772 0.09952 0.77605
 C1245 C 0.82103 0.14704 0.76296
 C1246 C 0.82063 0.16951 0.75068
 H1247 H 0.91006 0.08233 0.73368
 H1248 H 0.80645 0.14231 0.77569
 H1249 H 0.91029 0.07907 0.79055
 H1250 H 0.83656 0.17512 0.74011
 C1251 C 0.43473 0.59478 0.26091
 C1252 C 0.42705 0.61191 0.24335
 C1253 C 0.40618 0.62858 0.24754
 N1254 N 0.40310 0.64858 0.23287
 N1255 N 0.38378 0.66341 0.23582
 C1256 C 0.36665 0.65861 0.25335
 N1257 N 0.36960 0.63847 0.26789
 N1258 N 0.38906 0.62376 0.26510
 C1259 C 0.34507 0.67468 0.25640
 C1260 C 0.34503 0.69872 0.24752
 H1261 H 0.43673 0.61329 0.22599
 H1262 H 0.32938 0.66783 0.26658
 H1263 H 0.42691 0.59536 0.27924
 H1264 H 0.36160 0.70614 0.23933
 C1265 C 0.08286 0.92590 0.75016
 C1266 C 0.08067 0.90184 0.75905
 C1267 C 0.09862 0.88271 0.75238
 N1268 N 0.09433 0.85882 0.75825
 N1269 N 0.11078 0.84145 0.75276
 C1270 C 0.13212 0.84740 0.74121
 N1271 N 0.13638 0.87126 0.73536
 N1272 N 0.11991 0.88858 0.74076
 C1273 C 0.15130 0.82898 0.73660
 C1274 C 0.14787 0.80393 0.74086
 H1275 H 0.06529 0.89634 0.77034
 H1276 H 0.16918 0.83560 0.73083
 H1277 H 0.09752 0.92955 0.73714
 H1278 H 0.12975 0.79698 0.74532
 C1279 C 0.59175 0.43249 0.23021
 C1280 C 0.58606 0.40814 0.23595
 C1281 C 0.60432 0.38829 0.23335
 N1282 N 0.59754 0.36448 0.23655
 N1283 N 0.61409 0.34642 0.23480
 C1284 C 0.63804 0.35155 0.22986
 N1285 N 0.64481 0.37534 0.22669
 N1286 N 0.62826 0.39337 0.22834
 C1287 C 0.65683 0.33208 0.22905
 C1288 C 0.65098 0.30716 0.23057
 H1289 H 0.56775 0.40334 0.24212
 H1290 H 0.67593 0.33765 0.22790
 H1291 H 0.60951 0.43655 0.22215
 H1292 H 0.63187 0.30150 0.23078
 C1293 C 0.93631 0.93209 0.25384
 C1294 C 0.91752 0.93116 0.27139
 C1295 C 0.90221 0.90902 0.27437
 N1296 N 0.88082 0.91021 0.28718
 N1297 N 0.86677 0.89031 0.28980
 C1298 C 0.87373 0.86840 0.27991
 N1299 N 0.89527 0.86714 0.26740
 N1300 N 0.90922 0.88707 0.26464
 C1301 C 0.85809 0.84643 0.28188
 C1302 C 0.83341 0.84797 0.28863
 H1303 H 0.91319 0.94685 0.28280
 H1304 H 0.86561 0.82895 0.27588
 H1305 H 0.93814 0.91639 0.24165
 H1306 H 0.82550 0.86574 0.29304
 C1307 C 0.42166 0.42482 0.73673
 C1308 C 0.39870 0.42650 0.74810
 C1309 C 0.38094 0.40603 0.74703
 N1310 N 0.35723 0.40953 0.75410
 N1311 N 0.34117 0.39101 0.75344
 C1312 C 0.34830 0.36826 0.74583
 N1313 N 0.37202 0.36476 0.73892
 N1314 N 0.38801 0.38329 0.73943
 C1315 C 0.33113 0.34734 0.74557
 C1316 C 0.30578 0.35011 0.74857
 H1317 H 0.39333 0.44325 0.75744
 H1318 H 0.33877 0.32915 0.74261
 H1319 H 0.42567 0.40872 0.72566
 H1320 H 0.29792 0.36838 0.75022
 C1321 C 0.07986 0.26889 0.93953
 C1322 C 0.08644 0.25292 0.92045
 C1323 C 0.10807 0.25684 0.90479
 N1324 N 0.10987 0.24415 0.88341
 N1325 N 0.12867 0.24790 0.86826
 C1326 C 0.14652 0.26439 0.87394
 N1327 N 0.14503 0.27681 0.89558
 N1328 N 0.12605 0.27318 0.91071
 C1329 C 0.16674 0.26898 0.85656
 C1330 C 0.16377 0.26295 0.83180
 H1331 H 0.07467 0.23791 0.91502
 H1332 H 0.18351 0.27762 0.86298
 H1333 H 0.09204 0.28422 0.94331
 H1334 H 0.14612 0.25605 0.82555
 C1335 C 0.59345 0.75799 0.44991
 C1336 C 0.60079 0.74120 0.43196
 C1337 C 0.62254 0.74540 0.41644
 N1338 N 0.62463 0.73354 0.39457
 N1339 N 0.64393 0.73754 0.38003
 C1340 C 0.66197 0.75338 0.38692
 N1341 N 0.66007 0.76497 0.40897
 N1342 N 0.64064 0.76116 0.42342
 C1343 C 0.68331 0.75796 0.37092
 C1344 C 0.68249 0.75282 0.34578
 H1345 H 0.58921 0.72554 0.42780
 H1346 H 0.69955 0.76637 0.37885
 H1347 H 0.60367 0.77495 0.45210
 H1348 H 0.66551 0.74620 0.33766
 C1349 C 0.92252 0.75650 0.92991
 C1350 C 0.92174 0.73964 0.91049
 C1351 C 0.90202 0.74072 0.89183
 N1352 N 0.90518 0.72978 0.86961
 N1353 N 0.88748 0.73077 0.85258
 C1354 C 0.86588 0.74254 0.85722
 N1355 N 0.86260 0.75319 0.87956
 N1356 N 0.88038 0.75240 0.89650
 C1357 C 0.84616 0.74359 0.83860
 C1358 C 0.85092 0.73907 0.81382
 H1359 H 0.93617 0.72617 0.90796
 H1360 H 0.82776 0.74863 0.84439
 H1361 H 0.90886 0.77111 0.92973
 H1362 H 0.86970 0.73574 0.80798
 C1363 C 0.41942 0.27058 0.41664
 C1364 C 0.41459 0.25398 0.39765
 C1365 C 0.39676 0.25931 0.37782
 N1366 N 0.39793 0.24670 0.35629
 N1367 N 0.38127 0.25050 0.33860
 C1368 C 0.36261 0.26686 0.34189
 N1369 N 0.36134 0.27936 0.36349
 N1370 N 0.37817 0.27577 0.38108
 C1371 C 0.34330 0.27012 0.32301
 C1372 C 0.34718 0.26389 0.29840
 H1373 H 0.42449 0.23667 0.39703
 H1374 H 0.32569 0.27765 0.32859
 H1375 H 0.41173 0.28898 0.41561
 H1376 H 0.36546 0.25854 0.29249
 C1377 C 0.06875 0.75533 0.10407
 C1378 C 0.09280 0.76423 0.10373
 C1379 C 0.10963 0.76261 0.12488
 N1380 N 0.13359 0.76862 0.12171
 N1381 N 0.14940 0.76725 0.14040
 C1382 C 0.14188 0.75990 0.16307
 N1383 N 0.11781 0.75405 0.16636
 N1384 N 0.10196 0.75532 0.14757
 C1385 C 0.15953 0.75849 0.18370
 C1386 C 0.18467 0.76118 0.17944
 H1387 H 0.10028 0.77158 0.08679
 H1388 H 0.15278 0.75538 0.20219
 H1389 H 0.06207 0.74597 0.12035
 H1390 H 0.19111 0.76343 0.16069
 C1391 C 0.55466 0.23416 0.59683
 C1392 C 0.57113 0.25202 0.60500
 C1393 C 0.58836 0.24763 0.62551
 N1394 N 0.60955 0.26070 0.62673
 N1395 N 0.62571 0.25668 0.64479
 C1396 C 0.62118 0.23963 0.66251
 N1397 N 0.59977 0.22682 0.66157
 N1398 N 0.58371 0.23063 0.64329
 C1399 C 0.63920 0.23519 0.68238
 C1400 C 0.66408 0.24007 0.67864
 H1401 H 0.57319 0.26887 0.59453
 H1402 H 0.63301 0.22754 0.69972
 H1403 H 0.55469 0.21623 0.60559
 H1404 H 0.67011 0.24563 0.66045
 C1405 C 0.89849 0.25386 0.07266
 C1406 C 0.89687 0.24031 0.09442
 C1407 C 0.87422 0.23895 0.10902
 N1408 N 0.87502 0.22897 0.13190
 N1409 N 0.85479 0.22775 0.14560
 C1410 C 0.83295 0.23633 0.13687
 N1411 N 0.83206 0.24609 0.11385
 N1412 N 0.85236 0.24743 0.10017
 C1413 C 0.81065 0.23547 0.15212
 C1414 C 0.81197 0.23023 0.17721
 H1415 H 0.91306 0.23125 0.10179
 H1416 H 0.79313 0.24008 0.14371
 H1417 H 0.88285 0.26475 0.06665
 H1418 H 0.82973 0.22690 0.18574
 C1419 C 0.41415 0.72810 0.58578
 C1420 C 0.39906 0.74701 0.59427
 C1421 C 0.38065 0.74307 0.61358
 N1422 N 0.36143 0.75887 0.61577
 N1423 N 0.34508 0.75608 0.63378
 C1424 C 0.34758 0.73761 0.65049
 N1425 N 0.36697 0.72196 0.64849
 N1426 N 0.38316 0.72457 0.63027
 C1427 C 0.32980 0.73474 0.67061
 C1428 C 0.30569 0.74304 0.66803
 H1429 H 0.40065 0.76526 0.58638
 H1430 H 0.33536 0.72498 0.68714
 H1431 H 0.41054 0.70932 0.59141
 H1432 H 0.29955 0.75028 0.65044
 C1433 C 0.23008 0.08849 0.91886
 C1434 C 0.24806 0.10608 0.91400
 C1435 C 0.24406 0.12575 0.89581
 N1436 N 0.25896 0.14576 0.89549
 N1437 N 0.25629 0.16301 0.87819
 C1438 C 0.23878 0.16068 0.86044
 N1439 N 0.22396 0.14063 0.86071
 N1440 N 0.22646 0.12354 0.87814
 C1441 C 0.23665 0.17849 0.84020
 C1442 C 0.24601 0.20230 0.84158
 H1443 H 0.26558 0.10527 0.92354
 H1444 H 0.22696 0.17275 0.82370
 H1445 H 0.21170 0.09100 0.91145
 H1446 H 0.25343 0.20917 0.85879
 C1447 C 0.73010 0.57101 0.41958
 C1448 C 0.74951 0.58775 0.41885
 C1449 C 0.75012 0.60814 0.40097
 N1450 N 0.76489 0.62785 0.40500
 N1451 N 0.76602 0.64614 0.38863
 C1452 C 0.75262 0.64522 0.36748
 N1453 N 0.73803 0.62541 0.36335
 N1454 N 0.73669 0.60727 0.37984
 C1455 C 0.75421 0.66483 0.34883
 C1456 C 0.76238 0.68849 0.35443
 H1457 H 0.76436 0.58628 0.43213
 H1458 H 0.74773 0.66083 0.33037
 H1459 H 0.71403 0.57426 0.40815
 H1460 H 0.76664 0.69324 0.37335
 C1461 C 0.73838 0.04911 0.08146
 C1462 C 0.75261 0.06962 0.08772
 C1463 C 0.74782 0.08501 0.10943
 N1464 N 0.75927 0.10705 0.11124
 N1465 N 0.75506 0.12177 0.13032
 C1466 C 0.73935 0.11497 0.14848
 N1467 N 0.72812 0.09271 0.14693
 N1468 N 0.73222 0.07800 0.12768
 C1469 C 0.73423 0.13181 0.16911
 C1470 C 0.73955 0.15677 0.16680
 H1471 H 0.76702 0.07614 0.07577
 H1472 H 0.72548 0.12484 0.18560
 H1473 H 0.72316 0.04445 0.09347
 H1474 H 0.74660 0.16360 0.14943
 C1475 C 0.23630 0.56268 0.57983
 C1476 C 0.25576 0.57306 0.59292
 C1477 C 0.25165 0.58830 0.61487
 N1478 N 0.26795 0.60627 0.62061
 N1479 N 0.26396 0.62105 0.63974
 C1480 C 0.24371 0.61818 0.65407
 N1481 N 0.22768 0.59982 0.64871
 N1482 N 0.23151 0.58523 0.62934
 C1483 C 0.23865 0.63545 0.67428
 C1484 C 0.24537 0.66002 0.67194
 H1485 H 0.27422 0.57217 0.58547
 H1486 H 0.22792 0.62943 0.68996
 H1487 H 0.21761 0.56620 0.58584
 H1488 H 0.25352 0.66620 0.65482
 C1489 C 0.77077 0.89518 0.91896
 C1490 C 0.75777 0.89212 0.89701
 C1491 C 0.76130 0.87039 0.88124
 N1492 N 0.75161 0.87019 0.85821
 N1493 N 0.75460 0.85071 0.84366
 C1494 C 0.76725 0.83059 0.85162
 N1495 N 0.77672 0.83066 0.87478
 N1496 N 0.77385 0.85023 0.88930
 C1497 C 0.77085 0.80918 0.83536
 C1498 C 0.76617 0.81108 0.81020
 H1499 H 0.74517 0.90625 0.89070
 H1500 H 0.77801 0.79218 0.84302
 H1501 H 0.78478 0.88176 0.92375
 H1502 H 0.76039 0.82867 0.80268
 C1503 C 0.26755 0.41830 0.40897
 C1504 C 0.25033 0.40945 0.39210
 C1505 C 0.25594 0.38964 0.37454
 N1506 N 0.24131 0.38651 0.35452
 N1507 N 0.24571 0.36842 0.33861
 C1508 C 0.26473 0.35253 0.34227
 N1509 N 0.27921 0.35545 0.36248
 N1510 N 0.27496 0.37375 0.37829
 C1511 C 0.26952 0.33254 0.32459
 C1512 C 0.26106 0.33436 0.30042
 H1513 H 0.23225 0.41785 0.39111
 H1514 H 0.28049 0.31684 0.33028
 H1515 H 0.28640 0.41183 0.40800
 H1516 H 0.25214 0.35123 0.29448
 C1517 C 0.24819 0.91058 0.05863
 C1518 C 0.25567 0.91273 0.08310
 C1519 C 0.25391 0.89257 0.10094
 N1520 N 0.25824 0.89725 0.12507
 N1521 N 0.25701 0.87930 0.14169
 C1522 C 0.25149 0.85595 0.13478
 N1523 N 0.24725 0.85120 0.11060
 N1524 N 0.24837 0.86922 0.09394
 C1525 C 0.25074 0.83602 0.15306
 C1526 C 0.25248 0.84102 0.17817
 H1527 H 0.26210 0.93030 0.08992
 H1528 H 0.24913 0.81722 0.14667
 H1529 H 0.23949 0.89378 0.05238
 H1530 H 0.25311 0.85994 0.18442
 C1531 C 0.71576 0.40653 0.57598
 C1532 C 0.73468 0.39129 0.58436
 C1533 C 0.73238 0.37579 0.60640
 N1534 N 0.74879 0.35736 0.61026
 N1535 N 0.74759 0.34357 0.63049
 C1536 C 0.73012 0.34789 0.64782
 N1537 N 0.71384 0.36654 0.64413
 N1538 N 0.71490 0.38021 0.62373
 C1539 C 0.72882 0.33251 0.67011
 C1540 C 0.73906 0.30901 0.67017
 H1541 H 0.75184 0.39045 0.57429
 H1542 H 0.71884 0.33914 0.68603
 H1543 H 0.69772 0.40525 0.58433
 H1544 H 0.74687 0.30180 0.65329
 C1545 C 0.06405 0.09952 0.77214
 C1546 C 0.08814 0.10097 0.78098
 C1547 C 0.10331 0.12314 0.77831
 N1548 N 0.12767 0.12199 0.78370
 N1549 N 0.14197 0.14163 0.78076
 C1550 C 0.13241 0.16320 0.77238
 N1551 N 0.10798 0.16444 0.76722
 N1552 N 0.09368 0.14475 0.77007
 C1553 C 0.14816 0.18486 0.76869
 C1554 C 0.17373 0.18326 0.77038
 H1555 H 0.09698 0.08477 0.78859
 H1556 H 0.13948 0.20221 0.76396
 H1557 H 0.05610 0.11523 0.76270
 H1558 H 0.18232 0.16567 0.77434
 C1559 C 0.58527 0.60459 0.25512
 C1560 C 0.60941 0.60332 0.26392
 C1561 C 0.62571 0.62483 0.26504
 N1562 N 0.64973 0.62169 0.27118
 N1563 N 0.66490 0.64087 0.27227
 C1564 C 0.65658 0.66395 0.26732
 N1565 N 0.63251 0.66712 0.26129
 N1566 N 0.61734 0.64790 0.26012
 C1567 C 0.67314 0.68528 0.26857
 C1568 C 0.69839 0.68258 0.27249
 H1569 H 0.61718 0.58574 0.26926
 H1570 H 0.66529 0.70347 0.26613
 H1571 H 0.57836 0.62186 0.24785
 H1572 H 0.70625 0.66432 0.27430
 C1573 C 0.09918 0.94712 0.24282
 C1574 C 0.10189 0.92572 0.25700
 C1575 C 0.12273 0.90865 0.25419
 N1576 N 0.12122 0.88573 0.26397
 N1577 N 0.13984 0.86991 0.26186
 C1578 C 0.16079 0.87649 0.25000
 N1579 N 0.16241 0.89949 0.24035
 N1580 N 0.14368 0.91528 0.24231
 C1581 C 0.18168 0.85931 0.24813
 C1582 C 0.17921 0.83432 0.25353
 H1583 H 0.08753 0.91984 0.26938
 H1584 H 0.19929 0.86646 0.24220
 H1585 H 0.11277 0.95062 0.22866
 H1586 H 0.16123 0.82696 0.25790
 C1587 C 0.58921 0.43186 0.73759
 C1588 C 0.58757 0.40732 0.74509
 C1589 C 0.60812 0.38969 0.74362
 N1590 N 0.60412 0.36575 0.74944
 N1591 N 0.62246 0.34945 0.74891
 C1592 C 0.64557 0.35649 0.74261
 N1593 N 0.64960 0.38046 0.73678
 N1594 N 0.63121 0.39678 0.73724
 C1595 C 0.66608 0.33867 0.74259
 C1596 C 0.66234 0.31363 0.74704
 H1597 H 0.57024 0.40036 0.75198
 H1598 H 0.68450 0.34544 0.73915
 H1599 H 0.60577 0.43825 0.72857
 H1600 H 0.64380 0.30687 0.74976
 C1601 C 0.91613 0.08097 0.22880
 C1602 C 0.89992 0.08651 0.24789
 C1603 C 0.87976 0.10437 0.24481
 N1604 N 0.86048 0.10430 0.26066
 N1605 N 0.84266 0.12111 0.25870
 C1606 C 0.84366 0.13880 0.24103
 N1607 N 0.86303 0.13897 0.22530
 N1608 N 0.88070 0.12200 0.22707
 C1609 C 0.82471 0.15808 0.23931
 C1610 C 0.80114 0.15490 0.24882
 H1611 H 0.90204 0.07751 0.26559
 H1612 H 0.82912 0.17486 0.22946
 H1613 H 0.91222 0.08773 0.21041
 H1614 H 0.79587 0.13723 0.25640
 C1615 C 0.40765 0.56889 0.75164
 C1616 C 0.39879 0.58487 0.73353
 C1617 C 0.37662 0.60008 0.73721
 N1618 N 0.37348 0.62091 0.72376
 N1619 N 0.35383 0.63520 0.72717
 C1620 C 0.33641 0.62908 0.74400
 N1621 N 0.33933 0.60803 0.75719
 N1622 N 0.35915 0.59386 0.75398
 C1623 C 0.31467 0.64492 0.74785
 C1624 C 0.31510 0.66978 0.74150
 H1625 H 0.40954 0.58790 0.71703
 H1626 H 0.29851 0.63716 0.75650
 H1627 H 0.39828 0.56803 0.76922
 H1628 H 0.33208 0.67771 0.73474
 C1629 C 0.94652 0.90608 0.75000
 C1630 C 0.92238 0.90232 0.75769
 C1631 C 0.90873 0.87950 0.75335
 N1632 N 0.88428 0.87911 0.75805
 N1633 N 0.87129 0.85872 0.75449
 C1634 C 0.88227 0.83786 0.74621
 N1635 N 0.90685 0.83813 0.74168
 N1636 N 0.91987 0.85864 0.74513
 C1637 C 0.86770 0.81539 0.74240
 C1638 C 0.84209 0.81654 0.74258
 H1639 H 0.91241 0.91722 0.76640
 H1640 H 0.87705 0.79804 0.73931
 H1641 H 0.95571 0.89217 0.73906
 H1642 H 0.83310 0.83427 0.74446
 C1643 C 0.44572 0.42697 0.22618
 C1644 C 0.42136 0.42565 0.23408
 C1645 C 0.40596 0.40372 0.23102
 N1646 N 0.38175 0.40501 0.23685
 N1647 N 0.36743 0.38528 0.23488
 C1648 C 0.37681 0.36346 0.22712
 N1649 N 0.40108 0.36211 0.22134
 N1650 N 0.41542 0.38191 0.22323
 C1651 C 0.36107 0.34155 0.22525
 C1652 C 0.33565 0.34320 0.22834
 H1653 H 0.41288 0.44157 0.24258
 H1654 H 0.36955 0.32396 0.22117
 H1655 H 0.45348 0.41202 0.21551
 H1656 H 0.32723 0.36103 0.23144
   
