data_POSCAR
  _audit_creation_date              2014-09-24
  _audit_creation_method            'ToBaCCo'
  _symmetry_space_group_name_H-M    'P1'
  _symmetry_Int_Tables_number       1
  _symmetry_cell_setting            triclinic
  loop_
  _symmetry_equiv_pos_as_xyz
 x,y,z
_cell_length_a 41.0490
_cell_length_b 41.0401
_cell_length_c 52.0985
_cell_angle_alpha 90.026500
_cell_angle_beta 90.006900
_cell_angle_gamma 89.958900
loop_
  _atom_site_label
  _atom_site_type_symbol
  _atom_site_fract_x
  _atom_site_fract_y
  _atom_site_fract_z
B1 B 0.26510 0.24107 0.27572
 B2 B 0.22642 0.23266 0.26796
 B3 B 0.23767 0.27127 0.27371
 B4 B 0.27556 0.27689 0.26221
 B5 B 0.28764 0.24076 0.24888
 B6 B 0.25695 0.21311 0.25277
 B7 B 0.23409 0.26263 0.22267
 B8 B 0.27279 0.27105 0.23039
 B9 B 0.26154 0.23246 0.22467
 B10 B 0.22367 0.22682 0.23617
 B11 B 0.21157 0.26295 0.24951
 B12 B 0.24229 0.29061 0.24560
 B13 B 0.72984 0.76173 0.27615
 B14 B 0.76848 0.77027 0.26837
 B15 B 0.75737 0.73162 0.27399
 B16 B 0.71946 0.72595 0.26254
 B17 B 0.70723 0.76212 0.24933
 B18 B 0.73790 0.78982 0.25329
 B19 B 0.76073 0.74048 0.22296
 B20 B 0.72210 0.73195 0.23074
 B21 B 0.73327 0.77061 0.22513
 B22 B 0.77116 0.77624 0.23660
 B23 B 0.78335 0.74010 0.24976
 B24 B 0.75271 0.71239 0.24582
 B25 B 0.74237 0.23433 -0.22538
 B26 B 0.73406 0.27298 -0.23329
 B27 B 0.77262 0.26165 -0.22757
 B28 B 0.77815 0.22365 -0.23887
 B29 B 0.74198 0.21156 -0.25213
 B30 B 0.71439 0.24242 -0.24833
 B31 B 0.76389 0.26483 -0.27860
 B32 B 0.77227 0.22618 -0.27070
 B33 B 0.73368 0.23751 -0.27644
 B34 B 0.72813 0.27551 -0.26508
 B35 B 0.76429 0.28758 -0.25188
 B36 B 0.79189 0.25676 -0.25566
 B37 B 0.27244 0.75755 -0.27240
 B38 B 0.23382 0.76871 -0.26667
 B39 B 0.24230 0.73008 -0.27453
 B40 B 0.27815 0.71961 -0.26105
 B41 B 0.29176 0.75284 -0.24429
 B42 B 0.26401 0.78352 -0.24811
 B43 B 0.23366 0.73342 -0.22347
 B44 B 0.27229 0.72222 -0.22920
 B45 B 0.26374 0.76087 -0.22136
 B46 B 0.22793 0.77134 -0.23490
 B47 B 0.21432 0.73812 -0.25158
 B48 B 0.24204 0.70740 -0.24774
 B49 B 1.23389 1.27052 0.72533
 B50 B 1.22275 1.23188 0.73103
 B51 B 1.26142 1.24042 0.72335
 B52 B 1.27171 1.27626 0.73690
 B53 B 1.23836 1.28989 0.75344
 B54 B 1.20774 1.26213 0.74947
 B55 B 1.25778 1.23182 0.77439
 B56 B 1.26888 1.27045 0.76868
 B57 B 1.23021 1.26191 0.77637
 B58 B 1.21994 1.22605 0.76284
 B59 B 1.25329 1.21244 0.74628
 B60 B 1.28388 1.24020 0.75023
 B61 B 0.76460 0.74048 0.77574
 B62 B 0.72595 0.73206 0.76789
 B63 B 0.73720 0.77069 0.77355
 B64 B 0.77514 0.77622 0.76214
 B65 B 0.78726 0.74002 0.74895
 B66 B 0.75653 0.71241 0.75285
 B67 B 0.73385 0.76178 0.72253
 B68 B 0.77251 0.77022 0.73033
 B69 B 0.76127 0.73161 0.72470
 B70 B 0.72334 0.72605 0.73612
 B71 B 0.71120 0.76226 0.74931
 B72 B 0.74196 0.78988 0.74539
 B73 B 1.23389 0.73669 0.22338
 B74 B 1.27247 0.72540 0.22918
 B75 B 1.26407 0.76406 0.22133
 B76 B 1.22825 0.77465 0.23480
 B77 B 1.21450 0.74149 0.25146
 B78 B 1.24213 0.71068 0.24765
 B79 B 1.27263 0.76074 0.27238
 B80 B 1.23406 0.77203 0.26659
 B81 B 1.24242 0.73337 0.27444
 B82 B 1.27825 0.72278 0.26102
 B83 B 1.29201 0.75595 0.24431
 B84 B 1.26435 0.78673 0.24809
 B85 B 0.77224 1.25807 0.22711
 B86 B 0.73361 1.26918 0.23283
 B87 B 0.74213 1.23057 0.22491
 B88 B 0.77797 1.22010 0.23839
 B89 B 0.79155 1.25329 0.25521
 B90 B 0.76377 1.28396 0.25143
 B91 B 0.73344 1.23376 0.27597
 B92 B 0.77209 1.22261 0.27023
 B93 B 0.76351 1.26123 0.27815
 B94 B 0.72769 1.27171 0.26461
 B95 B 0.71412 1.23853 0.24787
 B96 B 0.74186 1.20783 0.25166
 O97 O 0.54235 1.06147 0.04496
 O98 O 0.58046 1.03271 0.02181
 C99 C 0.57215 1.05433 0.03896
 O100 O 0.45635 0.94055 0.04214
 O101 O 0.41782 0.97131 0.02126
 C102 C 0.42646 0.94782 0.03666
 O103 O 0.54549 0.94679 0.04485
 O104 O 0.58200 0.97676 0.02113
 C105 C 0.57483 0.95488 0.03834
 O106 O 0.45256 1.06238 0.04218
 O107 O 0.41597 1.02954 0.02105
 C108 C 0.42318 1.05343 0.03651
 Zr109 Zr 0.49786 1.04389 0.03048
 O110 O 0.49521 1.04503 0.07104
 O111 O 0.49767 1.09527 0.02728
 Zr112 Zr 0.50024 0.96264 0.03099
 O113 O 0.49871 0.96763 0.07135
 O114 O 0.50403 0.91134 0.03347
 O115 O 0.52859 1.00408 0.03575
 O116 O 0.47015 1.00239 0.03565
 O117 O 0.45216 1.06169 -0.04513
 O118 O 0.41578 1.02913 -0.02359
 C119 C 0.42284 1.05281 -0.03925
 O120 O 0.54531 0.94630 -0.04733
 O121 O 0.58196 0.97666 -0.02412
 C122 C 0.57469 0.95457 -0.04111
 O123 O 0.45582 0.94027 -0.04439
 O124 O 0.41754 0.97107 -0.02325
 C125 C 0.42601 0.94749 -0.03863
 O126 O 0.54176 1.06116 -0.04829
 O127 O 0.58010 1.03346 -0.02467
 C128 C 0.57161 1.05460 -0.04210
 Zr129 Zr 0.49755 1.04343 -0.03349
 O130 O 0.49405 1.04432 -0.07403
 O131 O 0.49734 1.09484 -0.03046
 Zr132 Zr 0.49995 0.96186 -0.03324
 O133 O 0.49629 0.96197 -0.07380
 O134 O 0.50314 0.91045 -0.03161
 Zr135 Zr 0.54861 1.00430 -0.00155
 Zr136 Zr 0.44919 1.00133 -0.00121
 O137 O 0.47000 1.00175 -0.03813
 O138 O 0.52817 1.00345 -0.03871
 O139 O 0.46808 1.04907 -0.00145
 O140 O 0.52885 0.95701 -0.00120
 O141 O 0.52645 1.05046 -0.00160
 O142 O 0.47107 0.95489 -0.00103
 H143 H 0.45557 1.00202 0.05081
 H144 H 0.54339 0.93773 -0.00115
 H145 H 0.45540 1.00118 -0.05328
 H146 H 0.54036 1.07018 -0.00163
 H147 H 0.49599 0.90254 0.01696
 H148 H 0.50323 0.90257 -0.04961
 H149 H 0.51503 0.97442 -0.08059
 H150 H 0.51138 1.02995 -0.08081
 H151 H 0.49716 1.10338 -0.04825
 H152 H 0.49783 1.10390 0.04505
 H153 H 0.51097 1.02875 0.07756
 H154 H 0.49886 0.94519 0.07835
 O155 O 1.04216 0.56092 0.54544
 O156 O 1.08042 0.53226 0.52237
 C157 C 1.07200 0.55380 0.53956
 O158 O 0.95596 0.44025 0.54182
 O159 O 0.91765 0.47110 0.52076
 C160 C 0.92612 0.44758 0.53618
 O161 O 1.04512 0.44635 0.54501
 O162 O 1.08187 0.47628 0.52151
 C163 C 1.07453 0.45439 0.53866
 O164 O 0.95238 0.56206 0.54213
 O165 O 0.91592 0.52934 0.52073
 C166 C 0.92304 0.55315 0.53629
 Zr167 Zr 0.99776 0.54353 0.53066
 O168 O 0.99470 0.54426 0.57122
 O169 O 0.99780 0.59494 0.52788
 Zr170 Zr 1.00000 0.46228 0.53096
 O171 O 0.99817 0.46712 0.57132
 O172 O 1.00369 0.41097 0.53339
 O173 O 1.02839 0.50365 0.53596
 O174 O 0.96992 0.50205 0.53555
 O175 O 0.95274 0.56102 0.45421
 O176 O 0.91610 0.52903 0.47603
 C177 C 0.92335 0.55241 0.46013
 O178 O 1.04574 0.44608 0.45293
 O179 O 1.08222 0.47643 0.47631
 C180 C 1.07508 0.45435 0.45928
 O181 O 0.95618 0.44037 0.45519
 O182 O 0.91778 0.47105 0.47629
 C183 C 0.92633 0.44756 0.46086
 O184 O 1.04217 0.56039 0.45162
 O185 O 1.08034 0.53317 0.47576
 C186 C 1.07197 0.55404 0.45808
 Zr187 Zr 0.99797 0.54344 0.46679
 O188 O 0.99692 0.54792 0.42637
 O189 O 0.99732 0.59460 0.47164
 Zr190 Zr 1.00027 0.46174 0.46674
 O191 O 0.99739 0.46166 0.42614
 O192 O 1.00323 0.41031 0.46844
 Zr193 Zr 1.04872 0.50401 0.49876
 Zr194 Zr 0.94928 0.50117 0.49857
 O195 O 0.97044 0.50172 0.46178
 O196 O 1.02845 0.50336 0.46150
 O197 O 0.96818 0.54894 0.49862
 O198 O 1.02888 0.45673 0.49891
 O199 O 1.02672 0.55024 0.49876
 O200 O 0.97109 0.45469 0.49877
 H201 H 0.95521 0.50164 0.55063
 H202 H 1.04338 0.43743 0.49900
 H203 H 0.95594 0.50110 0.44659
 H204 H 1.04078 0.56987 0.49879
 H205 H 0.99570 0.40221 0.51685
 H206 H 1.00353 0.40241 0.45045
 H207 H 1.01607 0.47443 0.41957
 H208 H 0.99414 0.52575 0.41935
 H209 H 0.99798 0.60408 0.45416
 H210 H 0.99774 0.60336 0.54572
 H211 H 1.01060 0.52814 0.57775
 H212 H 0.99819 0.44465 0.57827
 O213 O 1.05776 0.54868 0.04321
 O214 O 1.02516 0.58552 0.02205
 C215 C 1.04917 0.57814 0.03735
 O216 O 1.05531 0.45879 -0.04576
 O217 O 1.02714 0.42084 -0.02214
 C218 C 1.04855 0.42904 -0.03944
 O219 O 1.05692 0.54861 -0.04239
 O220 O 1.02486 0.58550 -0.02078
 C221 C 1.04856 0.57807 -0.03634
 O222 O 1.05615 0.45914 0.04686
 O223 O 1.02748 0.42105 0.02366
 C224 C 1.04926 0.42935 0.04067
 Zr225 Zr 1.03772 0.50344 0.03293
 O226 O 1.08913 0.50241 0.03536
 O227 O 1.03287 0.50503 0.07329
 Zr228 Zr 1.03772 0.50331 -0.03141
 O229 O 1.08924 0.50273 -0.03017
 O230 O 1.03700 0.50642 -0.07198
 O231 O 1.04347 0.53259 0.00069
 O232 O 1.04443 0.47489 0.00074
 O233 O 0.94035 0.45671 0.04678
 O234 O 0.97045 0.41977 0.02355
 C235 C 0.94846 0.42723 0.04061
 O236 O 0.93532 0.54593 -0.04282
 O237 O 0.96627 0.58399 -0.02166
 C238 C 0.94282 0.57571 -0.03718
 O239 O 0.94041 0.45655 -0.04528
 O240 O 0.97042 0.41971 -0.02190
 C241 C 0.94848 0.42710 -0.03900
 O242 O 0.93433 0.54590 0.04336
 O243 O 0.96608 0.58398 0.02299
 C244 C 0.94215 0.57570 0.03805
 Zr245 Zr 0.95699 0.50185 0.03324
 O246 O 0.90597 0.49953 0.03850
 O247 O 0.96412 0.50344 0.07339
 Zr248 Zr 0.95664 0.50167 -0.03144
 O249 O 0.90530 0.49794 -0.03381
 O250 O 0.96151 0.50313 -0.07181
 Zr251 Zr 0.99598 0.55220 0.00072
 Zr252 Zr 0.99821 0.45281 0.00080
 O253 O 0.95115 0.47324 0.00091
 O254 O 0.94941 0.53059 0.00085
 O255 O 0.99798 0.47286 0.03815
 O256 O 0.99654 0.53151 -0.03623
 O257 O 0.99674 0.53195 0.03780
 O258 O 0.99775 0.47284 -0.03649
 H259 H 1.06433 0.46121 0.00067
 H260 H 0.99636 0.54627 -0.05128
 H261 H 0.93181 0.45882 0.00085
 H262 H 0.99654 0.54707 0.05265
 H263 H 1.02261 0.48884 -0.07834
 H264 H 0.93905 0.50303 -0.07879
 H265 H 0.89615 0.51138 -0.01979
 H266 H 0.89633 0.49501 0.02150
 H267 H 0.94207 0.50429 0.08107
 H268 H 1.05530 0.50654 0.08019
 H269 H 1.09742 0.50949 0.01843
 H270 H 1.09688 0.50310 -0.04822
 O271 O 0.44130 0.95601 0.45408
 O272 O 0.47064 0.91917 0.47801
 C273 C 0.44914 0.92656 0.46054
 O274 O 0.55798 1.04750 0.45786
 O275 O 0.52503 1.08458 0.47834
 C276 C 0.54920 1.07700 0.46328
 O277 O 0.55595 0.95803 0.45468
 O278 O 0.52666 0.92013 0.47756
 C279 C 0.54864 0.92828 0.46068
 O280 O 0.43610 1.04548 0.45647
 O281 O 0.46676 1.08354 0.47800
 C282 C 0.44355 1.07526 0.46222
 Zr283 Zr 0.45663 1.00119 0.46858
 O284 O 0.45586 1.00367 0.42800
 O285 O 0.40529 0.99896 0.47155
 Zr286 Zr 0.53788 1.00255 0.46858
 O287 O 0.53338 1.00395 0.42819
 O288 O 0.58932 1.00131 0.46643
 O289 O 0.49789 0.97231 0.46355
 O290 O 0.49682 1.03079 0.46368
 O291 O 0.43564 1.04584 0.54420
 O292 O 0.46661 1.08373 0.52281
 C293 C 0.44318 1.07557 0.53841
 O294 O 0.55572 0.95840 0.54706
 O295 O 0.52750 0.92035 0.52358
 C296 C 0.54900 0.92863 0.54077
 O297 O 0.55712 1.04810 0.54394
 O298 O 0.52465 1.08491 0.52273
 C299 C 0.54851 1.07754 0.53815
 O300 O 0.44080 0.95638 0.54705
 O301 O 0.47064 0.91933 0.52375
 C302 C 0.44889 0.92687 0.54098
 Zr303 Zr 0.45632 1.00144 0.53251
 O304 O 0.45501 1.00479 0.57305
 O305 O 0.40499 0.99916 0.52940
 Zr306 Zr 0.53785 1.00290 0.53286
 O307 O 0.53678 1.00648 0.57342
 O308 O 0.58937 1.00232 0.53183
 Zr309 Zr 0.49837 0.95226 0.50083
 Zr310 Zr 0.49635 1.05177 0.50054
 O311 O 0.49654 1.03096 0.53745
 O312 O 0.49766 0.97271 0.53800
 O313 O 0.44958 1.03066 0.50045
 O314 O 0.54461 0.97423 0.50081
 O315 O 0.45117 0.97229 0.50060
 O316 O 0.54377 1.03205 0.50068
 H317 H 0.49667 1.04536 0.44851
 H318 H 0.56447 0.96051 0.50076
 H319 H 0.49623 1.04557 0.55260
 H320 H 0.43201 0.95761 0.50059
 H321 H 0.59753 1.00930 0.48314
 H322 H 0.59693 1.00275 0.54991
 H323 H 0.52536 0.98700 0.58005
 H324 H 0.46991 0.98797 0.57990
 H325 H 0.39644 0.99864 0.54719
 H326 H 0.39679 0.99824 0.45375
 H327 H 0.47294 0.98869 0.42162
 H328 H 0.55589 1.00504 0.42138
 O329 O 0.96947 0.91996 0.46388
 O330 O 0.98675 0.95881 0.43522
 C331 C 0.97330 0.93111 0.44080
 O332 O 0.92862 1.02860 0.53479
 O333 O 0.96732 1.01138 0.56360
 C334 C 0.93959 1.02472 0.55791
 O335 O 0.92698 1.02390 0.46357
 O336 O 0.96712 1.00958 0.43498
 C337 C 0.93825 1.02038 0.44048
 O338 O 0.97383 0.91808 0.53509
 O339 O 0.98849 0.95804 0.56373
 C340 C 0.97741 0.92930 0.55819
 Zr341 Zr 0.98182 0.94098 0.49945
 O342 O 0.93535 0.91888 0.50124
 O343 O 1.00602 0.89552 0.49844
 Zr344 Zr 0.94989 1.01651 0.49928
 O345 O 0.90384 0.99357 0.50040
 O346 O 0.92864 1.06342 0.49715
 O347 O 0.95999 0.97636 0.47644
 O348 O 0.96013 0.97652 0.52182
 O349 O 1.07859 0.96128 0.53504
 O350 O 1.03950 0.97815 0.56367
 C351 C 1.06744 0.96517 0.55812
 O352 O 1.03714 1.06971 0.46415
 O353 O 1.02030 1.03091 0.43532
 C354 C 1.03336 1.05874 0.44103
 O355 O 1.03238 1.07119 0.53542
 O356 O 1.01823 1.03100 0.56397
 C357 C 1.02883 1.05992 0.55849
 O358 O 1.08030 0.96582 0.46368
 O359 O 1.04027 0.98032 0.43506
 C360 C 1.06915 0.96960 0.44058
 Zr361 Zr 1.05702 0.97241 0.49943
 O362 O 1.10538 0.98997 0.50197
 O363 O 1.07265 0.92334 0.49821
 Zr364 Zr 1.02532 1.04829 0.49965
 O365 O 1.07209 1.06971 0.50244
 O366 O 1.00236 1.09437 0.49842
 Zr367 Zr 1.00363 0.99478 0.46093
 Zr368 Zr 1.00342 0.99464 0.53794
 O369 O 1.04682 1.01263 0.52188
 O370 O 1.04729 1.01294 0.47671
 O371 O 1.02179 0.95087 0.52253
 O372 O 0.98543 1.03810 0.47699
 O373 O 1.02166 0.95125 0.47673
 O374 O 0.98510 1.03831 0.52241
 H375 H 0.94226 0.96935 0.53328
 H376 H 0.97819 1.05591 0.46548
 H377 H 1.06468 1.01992 0.53331
 H378 H 1.02878 0.93363 0.46498
 H379 H 0.94275 1.07824 0.50719
 H380 H 1.02010 1.11073 0.49854
 H381 H 1.08623 1.05872 0.48974
 H382 H 1.10748 1.00799 0.48950
 H383 H 1.09678 0.92400 0.49790
 H384 H 0.98866 0.87877 0.49792
 H385 H 0.92001 0.93384 0.49254
 H386 H 0.88748 1.01133 0.50049
 O387 O 0.47062 0.41928 -0.03606
 O388 O 0.48744 0.45828 -0.06476
 C389 C 0.47432 0.43043 -0.05915
 O390 O 0.42843 0.52761 0.03470
 O391 O 0.46736 0.51091 0.06350
 C392 C 0.43948 0.52392 0.05782
 O393 O 0.42678 0.52265 -0.03650
 O394 O 0.46710 0.50879 -0.06506
 C395 C 0.43810 0.51924 -0.05957
 O396 O 0.47502 0.41776 0.03525
 O397 O 0.48907 0.45806 0.06381
 C398 C 0.47837 0.42915 0.05833
 Zr399 Zr 0.48270 0.44053 -0.00051
 O400 O 0.43642 0.41802 0.00138
 O401 O 0.50714 0.39521 -0.00150
 Zr402 Zr 0.44981 0.51566 -0.00079
 O403 O 0.40410 0.49206 0.00038
 O404 O 0.42793 0.56227 -0.00298
 O405 O 0.46043 0.47558 -0.02357
 O406 O 0.46059 0.47588 0.02180
 O407 O 0.57960 0.46298 0.03504
 O408 O 0.53999 0.47877 0.06360
 C409 C 0.56828 0.46653 0.05810
 O410 O 0.53600 0.57004 -0.03608
 O411 O 0.51993 0.53079 -0.06480
 C412 C 0.53248 0.55887 -0.05916
 O413 O 0.53167 0.57152 0.03525
 O414 O 0.51791 0.53123 0.06384
 C415 C 0.52818 0.56026 0.05834
 O416 O 0.58120 0.46753 -0.03624
 O417 O 0.54075 0.48062 -0.06491
 C418 C 0.56991 0.47075 -0.05936
 Zr419 Zr 0.55744 0.47284 -0.00060
 O420 O 0.60651 0.48843 0.00017
 O421 O 0.57213 0.42349 -0.00143
 Zr422 Zr 0.52481 0.54845 -0.00049
 O423 O 0.57152 0.57014 0.00187
 O424 O 0.50139 0.59430 -0.00164
 Zr425 Zr 0.50382 0.49452 -0.03911
 Zr426 Zr 0.50365 0.49460 0.03787
 O427 O 0.54677 0.51310 0.02178
 O428 O 0.54724 0.51329 -0.02331
 O429 O 0.52255 0.45095 0.02259
 O430 O 0.48505 0.53764 -0.02312
 O431 O 0.52242 0.45122 -0.02331
 O432 O 0.48474 0.53799 0.02228
 H433 H 0.44283 0.46855 0.03330
 H434 H 0.47752 0.55534 -0.03462
 H435 H 0.56436 0.52074 0.03332
 H436 H 0.52982 0.43376 -0.03511
 H437 H 0.44196 0.57735 0.00687
 H438 H 0.51897 0.61084 -0.00163
 H439 H 0.58535 0.55980 -0.01139
 H440 H 0.60622 0.51208 0.00364
 H441 H 0.59624 0.42372 -0.00230
 H442 H 0.48987 0.37836 -0.00177
 H443 H 0.42102 0.43250 -0.00775
 H444 H 0.38748 0.50959 0.00049
 C445 C 0.29712 1.17872 0.15967
 N446 N 0.26563 1.17532 0.16725
 N447 N 0.25429 1.19217 0.18730
 C448 C 0.27408 1.21279 0.20053
 N449 N 0.30562 1.21555 0.19318
 N450 N 0.31682 1.19910 0.17304
 C451 C 0.31050 1.16104 0.13749
 N452 N 0.33858 1.17173 0.12679
 N453 N 0.35252 1.15535 0.10774
 C454 C 0.33916 1.12743 0.09865
 N455 N 0.31081 1.11666 0.10917
 N456 N 0.29660 1.13333 0.12820
 C457 C 0.35739 1.10865 0.07930
 N458 N 0.34940 1.07757 0.07261
 N459 N 0.36921 1.05997 0.05759
 C460 C 0.39761 1.07298 0.04886
 N461 N 0.40493 1.10418 0.05511
 N462 N 0.38525 1.12164 0.06990
 C463 C 0.79702 0.67783 0.65978
 N464 N 0.81677 0.69797 0.67333
 N465 N 0.80552 0.71440 0.69346
 C466 C 0.77389 0.71185 0.70063
 N467 N 0.75406 0.69146 0.68722
 N468 N 0.76544 0.67464 0.66717
 C469 C 0.81041 0.66025 0.63755
 N470 N 0.79648 0.63262 0.62815
 N471 N 0.81066 0.61606 0.60905
 C472 C 0.83900 0.62686 0.59856
 N473 N 0.85241 0.65472 0.60776
 N474 N 0.83850 0.67099 0.62688
 C475 C 0.85719 0.60819 0.57913
 N476 N 0.88495 0.62128 0.56965
 N477 N 0.90463 0.60388 0.55481
 C478 C 0.89740 0.57266 0.54859
 N479 N 0.86908 0.55955 0.55739
 N480 N 0.84928 0.57708 0.57246
 C481 C 0.69848 0.82630 0.16093
 N482 N 0.67863 0.80536 0.17361
 N483 N 0.68957 0.78818 0.19345
 C484 C 0.72100 0.79072 0.20114
 N485 N 0.74092 0.81188 0.18860
 N486 N 0.72985 0.82945 0.16886
 C487 C 0.68545 0.84485 0.13909
 N488 N 0.69961 0.87280 0.13052
 N489 N 0.68580 0.89013 0.11169
 C490 C 0.65760 0.87982 0.10065
 N491 N 0.64396 0.85168 0.10904
 N492 N 0.65750 0.83463 0.12789
 C493 C 0.63981 0.89911 0.08137
 N494 N 0.61224 0.88627 0.07136
 N495 N 0.59288 0.90401 0.05655
 C496 C 0.60025 0.93536 0.05086
 N497 N 0.62838 0.94827 0.06021
 N498 N 0.64788 0.93038 0.07528
 C499 C 1.19889 0.32588 0.66102
 N500 N 1.17912 0.30496 0.67379
 N501 N 1.19015 0.28786 0.69364
 C502 C 1.22160 0.29048 0.70127
 N503 N 1.24145 0.31163 0.68864
 N504 N 1.23028 0.32910 0.66888
 C505 C 1.18570 0.34435 0.63919
 N506 N 1.19982 0.37224 0.63046
 N507 N 1.18583 0.38954 0.61169
 C508 C 1.15746 0.37927 0.60089
 N509 N 1.14386 0.35119 0.60944
 N510 N 1.15759 0.33417 0.62822
 C511 C 1.13948 0.39857 0.58174
 N512 N 1.11157 0.38592 0.57216
 N513 N 1.09217 0.40367 0.55739
 C514 C 1.09982 0.43483 0.55131
 N515 N 1.12826 0.44755 0.56024
 N516 N 1.14780 0.42965 0.57527
 C517 C 0.70571 1.18549 -0.15841
 N518 N 0.73351 1.17500 -0.16990
 N519 N 0.74574 1.19095 -0.19005
 C520 C 0.73068 1.21797 -0.19944
 N521 N 0.70301 1.22843 -0.18783
 N522 N 0.69088 1.21263 -0.16767
 C523 C 0.69013 1.16685 -0.13754
 N524 N 0.66201 1.17805 -0.12713
 N525 N 0.64599 1.16054 -0.10977
 C526 C 0.65735 1.13109 -0.10200
 N527 N 0.68579 1.11992 -0.11211
 N528 N 0.70190 1.13752 -0.12959
 C529 C 0.63710 1.11125 -0.08459
 N530 N 0.64709 1.08205 -0.07489
 N531 N 0.62697 1.06398 -0.06051
 C532 C 0.59613 1.07446 -0.05559
 N533 N 0.58654 1.10366 -0.06514
 N534 N 0.60657 1.12169 -0.07919
 C535 C 1.20590 0.68451 0.34148
 N536 N 1.23359 0.67393 0.32986
 N537 N 1.24575 0.68984 0.30967
 C538 C 1.23072 0.71692 0.30035
 N539 N 1.20315 0.72746 0.31206
 N540 N 1.19110 0.71170 0.33227
 C541 C 1.19044 0.66597 0.36244
 N542 N 1.16247 0.67730 0.37301
 N543 N 1.14651 0.65987 0.39045
 C544 C 1.15779 0.63036 0.39815
 N545 N 1.18610 0.61906 0.38790
 N546 N 1.20214 0.63658 0.37034
 C547 C 1.13754 0.61056 0.41559
 N548 N 1.14749 0.58135 0.42528
 N549 N 1.12735 0.56330 0.43967
 C550 C 1.09653 0.57384 0.44461
 N551 N 1.08699 0.60307 0.43507
 N552 N 1.10704 0.62107 0.42101
 C553 C 0.29782 0.81074 -0.15396
 N554 N 0.31324 0.78359 -0.16266
 N555 N 0.30204 0.76747 -0.18302
 C556 C 0.27478 0.77762 -0.19538
 N557 N 0.25915 0.80462 -0.18654
 N558 N 0.27044 0.82088 -0.16622
 C559 C 0.31214 0.82985 -0.13280
 N560 N 0.30013 0.85959 -0.12612
 N561 N 0.31507 0.87776 -0.10838
 C562 C 0.34253 0.86675 -0.09664
 N563 N 0.35414 0.83686 -0.10310
 N564 N 0.33929 0.81880 -0.12079
 C565 C 0.36164 0.88739 -0.07899
 N566 N 0.39104 0.87650 -0.07088
 N567 N 0.41053 0.89555 -0.05715
 C568 C 0.40145 0.92624 -0.05064
 N569 N 0.37164 0.93713 -0.05818
 N570 N 0.35208 0.91801 -0.07219
 C571 C 0.79774 0.31097 0.34556
 N572 N 0.81319 0.28391 0.33675
 N573 N 0.80194 0.26782 0.31639
 C574 C 0.77457 0.27793 0.30414
 N575 N 0.75892 0.30485 0.31309
 N576 N 0.77027 0.32108 0.33341
 C577 C 0.81215 0.33005 0.36670
 N578 N 0.80008 0.35971 0.37354
 N579 N 0.81512 0.37787 0.39124
 C580 C 0.84276 0.36694 0.40277
 N581 N 0.85442 0.33712 0.39615
 N582 N 0.83947 0.31907 0.37851
 C583 C 0.86197 0.38756 0.42036
 N584 N 0.89154 0.37680 0.42816
 N585 N 0.91106 0.39582 0.44189
 C586 C 0.90185 0.42637 0.44869
 N587 N 0.87187 0.43714 0.44144
 N588 N 0.85229 0.41805 0.42743
 C589 C 1.18382 0.29783 0.15584
 N590 N 1.17402 0.26997 0.16758
 N591 N 1.19044 0.25827 0.18769
 C592 C 1.21724 0.27395 0.19681
 N593 N 1.22701 0.30169 0.18498
 N594 N 1.21075 0.31328 0.16483
 C595 C 1.16467 0.31270 0.13494
 N596 N 1.17560 0.34038 0.12370
 N597 N 1.15761 0.35582 0.10631
 C598 C 1.12790 0.34432 0.09936
 N599 N 1.11697 0.31631 0.11031
 N600 N 1.13508 0.30076 0.12779
 C601 C 1.10751 0.36410 0.08199
 N602 N 1.07748 0.35443 0.07382
 N603 N 1.05885 0.37439 0.05971
 C604 C 1.06965 0.40473 0.05352
 N605 N 1.09971 0.41395 0.06148
 N606 N 1.11826 0.39409 0.07527
 C607 C 0.68368 0.79677 0.65561
 N608 N 0.67373 0.76907 0.66750
 N609 N 0.69013 0.75742 0.68763
 C610 C 0.71708 0.77297 0.69662
 N611 N 0.72702 0.80054 0.68462
 N612 N 0.71077 0.81209 0.66446
 C613 C 0.66450 0.81166 0.63475
 N614 N 0.67544 0.83933 0.62349
 N615 N 0.65740 0.85483 0.60617
 C616 C 0.62763 0.84340 0.59929
 N617 N 0.61670 0.81539 0.61025
 N618 N 0.63485 0.79979 0.62767
 C619 C 0.60721 0.86328 0.58203
 N620 N 0.57730 0.85353 0.57365
 N621 N 0.55868 0.87355 0.55958
 C622 C 0.56935 0.90403 0.55368
 N623 N 0.59928 0.91334 0.56187
 N624 N 0.61783 0.89341 0.57560
 C625 C 1.17886 0.69928 -0.15860
 N626 N 1.17529 0.73044 -0.16693
 N627 N 1.19253 0.74126 -0.18691
 C628 C 1.21375 0.72127 -0.19935
 N629 N 1.21674 0.69003 -0.19126
 N630 N 1.19988 0.67934 -0.17116
 C631 C 1.16048 0.68663 -0.13654
 N632 N 1.17080 0.65897 -0.12492
 N633 N 1.15379 0.64587 -0.10585
 C634 C 1.12561 0.65969 -0.09768
 N635 N 1.11522 0.68758 -0.10915
 N636 N 1.13251 0.70095 -0.12818
 C637 C 1.10606 0.64236 -0.07834
 N638 N 1.07463 0.65056 -0.07293
 N639 N 1.05627 0.63136 -0.05803
 C640 C 1.06886 0.60339 -0.04812
 N641 N 1.10040 0.59591 -0.05306
 N642 N 1.11862 0.61500 -0.06773
 C643 C 0.67880 1.19907 0.34075
 N644 N 0.69960 1.17919 0.32792
 N645 N 0.71641 1.19006 0.30786
 C646 C 0.71358 1.22144 0.30007
 N647 N 0.69256 1.24138 0.31277
 N648 N 0.67538 1.23038 0.33273
 C649 C 0.66052 1.18617 0.36278
 N650 N 0.63277 1.20058 0.37151
 N651 N 0.61557 1.18700 0.39050
 C652 C 0.62581 1.15879 0.40156
 N653 N 0.65378 1.14488 0.39302
 N654 N 0.67070 1.15820 0.37400
 C655 C 0.60639 1.14129 0.42089
 N656 N 0.61889 1.11365 0.43109
 N657 N 0.60079 1.09453 0.44583
 C658 C 0.56942 1.10222 0.45122
 N659 N 0.55689 1.13044 0.44169
 N660 N 0.57513 1.14969 0.42674
 C661 C 0.80961 0.70586 0.15523
 N662 N 0.82046 0.73286 0.16766
 N663 N 0.80458 0.74433 0.18812
 C664 C 0.77729 0.72928 0.19693
 N665 N 0.76646 0.70238 0.18442
 N666 N 0.78219 0.69101 0.16393
 C667 C 0.82816 0.69129 0.13385
 N668 N 0.81635 0.66452 0.12177
 N669 N 0.83382 0.64941 0.10384
 C670 C 0.86385 0.66038 0.09718
 N671 N 0.87562 0.68747 0.10899
 N672 N 0.85805 0.70268 0.12698
 C673 C 0.88380 0.64095 0.07923
 N674 N 0.91445 0.64996 0.07213
 N675 N 0.93295 0.63012 0.05783
 C676 C 0.92141 0.60055 0.05029
 N677 N 0.89069 0.59201 0.05710
 N678 N 0.87225 0.61179 0.07112
 C679 C 0.31089 1.20558 0.65594
 N680 N 0.32155 1.23270 0.66830
 N681 N 0.30549 1.24423 0.68866
 C682 C 0.27820 1.22912 0.69743
 N683 N 0.26759 1.20208 0.68500
 N684 N 0.28350 1.19065 0.66461
 C685 C 0.32953 1.19101 0.63461
 N686 N 0.31773 1.16427 0.62249
 N687 N 0.33522 1.14919 0.60455
 C688 C 0.36526 1.16016 0.59793
 N689 N 0.37703 1.18722 0.60979
 N690 N 0.35944 1.20240 0.62779
 C691 C 0.38518 1.14079 0.57992
 N692 N 0.41590 1.14969 0.57291
 N693 N 0.43432 1.12989 0.55853
 C694 C 0.42263 1.10046 0.55080
 N695 N 0.39185 1.09202 0.55753
 N696 N 0.37349 1.11177 0.57164
 C697 C 0.82604 0.29886 -0.16301
 N698 N 0.80693 0.31853 -0.17752
 N699 N 0.79063 0.30677 -0.19751
 C700 C 0.79224 0.27470 -0.20358
 N701 N 0.81160 0.25489 -0.18922
 N702 N 0.82831 0.26678 -0.16929
 C703 C 0.84334 0.31291 -0.14091
 N704 N 0.87004 0.29856 -0.13029
 N705 N 0.88634 0.31329 -0.11131
 C706 C 0.87619 0.34267 -0.10220
 N707 N 0.84927 0.35652 -0.11263
 N708 N 0.83327 0.34204 -0.13162
 C709 C 0.89448 0.36132 -0.08283
 N710 N 0.88190 0.39011 -0.07491
 N711 N 0.89897 0.40988 -0.05995
 C712 C 0.92936 0.40178 -0.05205
 N713 N 0.94194 0.37250 -0.05930
 N714 N 0.92474 0.35257 -0.07451
 C715 C 0.32621 0.79787 0.33691
 N716 N 0.30677 0.81747 0.32262
 N717 N 0.29037 0.80573 0.30267
 C718 C 0.29222 0.77373 0.29641
 N719 N 0.31191 0.75399 0.31056
 N720 N 0.32871 0.76587 0.33045
 C721 C 0.34369 0.81196 0.35892
 N722 N 0.37052 0.79769 0.36942
 N723 N 0.38696 0.81251 0.38829
 C724 C 0.37684 0.84190 0.39740
 N725 N 0.34979 0.85565 0.38709
 N726 N 0.33365 0.84108 0.36823
 C727 C 0.39524 0.86071 0.41663
 N728 N 0.38283 0.88971 0.42422
 N729 N 0.39990 0.90953 0.43914
 C730 C 0.43011 0.90127 0.44734
 N731 N 0.44253 0.87179 0.44040
 N732 N 0.42534 0.85181 0.42521
 C733 C 1.16023 1.18144 0.31676
 N734 N 1.18016 1.20470 0.32650
 N735 N 1.20114 1.22023 0.31141
 C736 C 1.20284 1.21320 0.28604
 N737 N 1.18307 1.18971 0.27632
 N738 N 1.16217 1.17401 0.29144
 C739 C 1.13714 1.16482 0.33354
 N740 N 1.12018 1.13839 0.32533
 N741 N 1.10007 1.12281 0.34121
 C742 C 1.09610 1.13338 0.36571
 N743 N 1.11278 1.16000 0.37373
 N744 N 1.13295 1.17544 0.35794
 C745 C 1.07635 1.11522 0.38410
 N746 N 1.07351 1.12647 0.40845
 N747 N 1.05862 1.10880 0.42625
 C748 C 1.04598 1.07921 0.42040
 N749 N 1.04820 1.06811 0.39590
 N750 N 1.06317 1.08586 0.37801
 C751 C 0.65925 0.68129 -0.18347
 N752 N 0.66156 0.67354 -0.20871
 N753 N 0.68264 0.68909 -0.22376
 C754 C 0.70224 0.71273 -0.21406
 N755 N 0.70017 0.72007 -0.18876
 N756 N 0.67902 0.70469 -0.17374
 C757 C 0.63596 0.66482 -0.16676
 N758 N 0.63146 0.67567 -0.14246
 N759 N 0.61116 0.66034 -0.12672
 C760 C 0.59462 0.63360 -0.13469
 N761 N 0.59887 0.62282 -0.15910
 N762 N 0.61912 0.63830 -0.17494
 C763 C 0.57487 0.61547 -0.11628
 N764 N 0.56195 0.58596 -0.12227
 N765 N 0.54713 0.56818 -0.10432
 C766 C 0.54481 0.57940 -0.07986
 N767 N 0.55716 0.60914 -0.07411
 N768 N 0.57190 0.62684 -0.09198
 C769 C 0.82217 1.15845 0.68087
 N770 N 0.82891 1.15979 0.70633
 N771 N 0.81375 1.18128 0.72131
 C772 C 0.79155 1.20229 0.71132
 N773 N 0.78531 1.20126 0.68579
 N774 N 0.80027 1.17967 0.67084
 C775 C 0.83785 1.13438 0.66433
 N776 N 0.82715 1.13026 0.63994
 N777 N 0.84163 1.10901 0.62444
 C778 C 0.86734 1.09113 0.63274
 N779 N 0.87799 1.09504 0.65722
 N780 N 0.86334 1.11622 0.67282
 C781 C 0.88461 1.07016 0.61461
 N782 N 0.91364 1.05625 0.62073
 N783 N 0.93081 1.04036 0.60295
 C784 C 0.91943 1.03789 0.57855
 N785 N 0.89012 1.05119 0.57270
 N786 N 0.87303 1.06701 0.59039
 C787 C 0.32225 0.65759 0.18078
 N788 N 0.30060 0.67903 0.17072
 N789 N 0.28571 0.70067 0.18565
 C790 C 0.29178 0.70154 0.21121
 N791 N 0.31374 0.68030 0.22124
 N792 N 0.32883 0.65875 0.20627
 C793 C 0.33784 0.63348 0.16424
 N794 N 0.36319 0.61515 0.17275
 N795 N 0.37778 0.59394 0.15714
 C796 C 0.36721 0.59016 0.13263
 N797 N 0.34163 0.60822 0.12431
 N798 N 0.32722 0.62950 0.13982
 C799 C 0.38442 0.56916 0.11452
 N800 N 0.37286 0.56605 0.09029
 N801 N 0.38996 0.55025 0.07259
 C802 C 0.41926 0.53696 0.07845
 N803 N 0.43062 0.53939 0.10285
 N804 N 0.41344 0.55524 0.12064
 C805 C 1.18467 0.83583 0.68394
 N806 N 1.20743 0.81513 0.67445
 N807 N 1.22214 0.79378 0.68972
 C808 C 1.21476 0.79241 0.71505
 N809 N 1.19173 0.81292 0.72452
 N810 N 1.17683 0.83421 0.70920
 C811 C 1.16916 0.85951 0.66697
 N812 N 1.14309 0.87729 0.67482
 N813 N 1.12852 0.89795 0.65876
 C814 C 1.13980 0.90170 0.63444
 N815 N 1.16610 0.88421 0.62679
 N816 N 1.18051 0.86349 0.64275
 C817 C 1.12253 0.92191 0.61581
 N818 N 1.13427 0.92445 0.59158
 N819 N 1.11713 0.93952 0.57351
 C820 C 1.08762 0.95264 0.57898
 N821 N 1.07609 0.95077 0.60337
 N822 N 1.09329 0.93564 0.62151
 C823 C 0.68505 0.33693 0.18363
 N824 N 0.70752 0.31599 0.17405
 N825 N 0.72196 0.29436 0.18925
 C826 C 0.71459 0.29295 0.21458
 N827 N 0.69178 0.31366 0.22411
 N828 N 0.67714 0.33522 0.20887
 C829 C 0.66990 0.36100 0.16679
 N830 N 0.64376 0.37868 0.17463
 N831 N 0.62942 0.39964 0.15868
 C832 C 0.64102 0.40382 0.13451
 N833 N 0.66743 0.38647 0.12688
 N834 N 0.68161 0.36544 0.14273
 C835 C 0.62378 0.42413 0.11591
 N836 N 0.63575 0.42715 0.09179
 N837 N 0.61850 0.44204 0.07367
 C838 C 0.58867 0.45448 0.07902
 N839 N 0.57693 0.45219 0.10332
 N840 N 0.59423 0.43724 0.12149
 C841 C 0.83655 0.81885 0.31721
 N842 N 0.83546 0.82581 0.29178
 N843 N 0.81376 0.81120 0.27667
 C844 C 0.79229 0.78935 0.28651
 N845 N 0.79309 0.78292 0.31201
 N846 N 0.81487 0.79734 0.32708
 C847 C 0.86099 0.83368 0.33386
 N848 N 0.86494 0.82245 0.35811
 N849 N 0.88665 0.83605 0.37369
 C850 C 0.90518 0.86138 0.36560
 N851 N 0.90141 0.87256 0.34125
 N852 N 0.87977 0.85878 0.32557
 C853 C 0.92667 0.87779 0.38380
 N854 N 0.94115 0.90658 0.37791
 N855 N 0.95747 0.92313 0.39578
 C856 C 0.95984 0.91135 0.42006
 N857 N 0.94600 0.88224 0.42569
 N858 N 0.92974 0.86576 0.40790
 C859 C 0.33720 0.31880 -0.18258
 N860 N 0.33646 0.32535 -0.20808
 N861 N 0.31463 0.31087 -0.22315
 C862 C 0.29267 0.28961 -0.21320
 N863 N 0.29309 0.28363 -0.18763
 N864 N 0.31500 0.29791 -0.17259
 C865 C 0.36185 0.33336 -0.16598
 N866 N 0.36562 0.32223 -0.14168
 N867 N 0.38755 0.33559 -0.12616
 C868 C 0.40648 0.36056 -0.13436
 N869 N 0.40289 0.37163 -0.15875
 N870 N 0.38104 0.35809 -0.17438
 C871 C 0.42809 0.37686 -0.11619
 N872 N 0.44260 0.40562 -0.12210
 N873 N 0.45883 0.42223 -0.10421
 C874 C 0.46108 0.41054 -0.07990
 N875 N 0.44725 0.38143 -0.07425
 N876 N 0.43106 0.36489 -0.09206
 C877 C 1.18040 0.29734 -0.15658
 N878 N 1.17018 0.26972 -0.16848
 N879 N 1.18637 0.25797 -0.18870
 C880 C 1.21337 0.27334 -0.19777
 N881 N 1.22352 0.30087 -0.18579
 N882 N 1.20749 0.31252 -0.16555
 C883 C 1.16163 0.31223 -0.13545
 N884 N 1.17300 0.33968 -0.12410
 N885 N 1.15540 0.35513 -0.10645
 C886 C 1.12567 0.34385 -0.09933
 N887 N 1.11432 0.31606 -0.11038
 N888 N 1.13203 0.30051 -0.12813
 C889 C 1.10571 0.36368 -0.08166
 N890 N 1.07581 0.35409 -0.07312
 N891 N 1.05757 0.37407 -0.05871
 C892 C 1.06860 0.40436 -0.05258
 N893 N 1.09851 0.41351 -0.06093
 N894 N 1.11669 0.39361 -0.07502
 C895 C 0.68025 0.79674 0.34343
 N896 N 0.66975 0.76945 0.33122
 N897 N 0.68588 0.75783 0.31094
 C898 C 0.71311 0.77300 0.30209
 N899 N 0.72356 0.80020 0.31437
 N900 N 0.70758 0.81172 0.33469
 C901 C 0.66150 0.81151 0.36461
 N902 N 0.67317 0.83852 0.37642
 N903 N 0.65559 0.85388 0.39413
 C904 C 0.62558 0.84294 0.40085
 N905 N 0.61393 0.81559 0.38934
 N906 N 0.63162 0.80013 0.37154
 C907 C 0.60566 0.86271 0.41858
 N908 N 0.57536 0.85355 0.42648
 N909 N 0.55714 0.87357 0.44088
 C910 C 0.56862 0.90347 0.44764
 N911 N 0.59894 0.91217 0.43995
 N912 N 0.61710 0.89223 0.42587
 C913 C 0.81282 0.70558 -0.15632
 N914 N 0.82391 0.73253 -0.16866
 N915 N 0.80828 0.74408 -0.18921
 C916 C 0.78100 0.72915 -0.19820
 N917 N 0.76997 0.70228 -0.18579
 N918 N 0.78545 0.69084 -0.16521
 C919 C 0.83099 0.69099 -0.13474
 N920 N 0.81894 0.66423 -0.12283
 N921 N 0.83602 0.64915 -0.10466
 C922 C 0.86589 0.66014 -0.09759
 N923 N 0.87791 0.68722 -0.10925
 N924 N 0.86073 0.70239 -0.12749
 C925 C 0.88544 0.64078 -0.07933
 N926 N 0.91589 0.64985 -0.07176
 N927 N 0.93406 0.63008 -0.05716
 C928 C 0.92237 0.60052 -0.04977
 N929 N 0.89185 0.59191 -0.05706
 N930 N 0.87373 0.61163 -0.07138
 C931 C 0.31363 1.20578 0.34340
 N932 N 0.32452 1.23295 0.33125
 N933 N 0.30880 1.24462 0.31078
 C934 C 0.28162 1.22959 0.30169
 N935 N 0.27080 1.20249 0.31390
 N936 N 0.28637 1.19093 0.33440
 C937 C 0.33186 1.19107 0.36489
 N938 N 0.31986 1.16419 0.37667
 N939 N 0.33697 1.14899 0.39475
 C940 C 0.36683 1.15997 0.40186
 N941 N 0.37880 1.18716 0.39034
 N942 N 0.36159 1.20246 0.37219
 C943 C 0.38637 1.14048 0.42003
 N944 N 0.41678 1.14955 0.42772
 N945 N 0.43491 1.12970 0.44230
 C946 C 0.42323 1.10008 0.44952
 N947 N 0.39275 1.09147 0.44210
 N948 N 0.37468 1.11126 0.42781
 C949 C 1.17925 0.70185 0.15859
 N950 N 1.17551 0.73306 0.16679
 N951 N 1.19270 0.74413 0.18673
 C952 C 1.21405 0.72436 0.19924
 N953 N 1.21720 0.69308 0.19127
 N954 N 1.20039 0.68214 0.17123
 C955 C 1.16095 0.68884 0.13658
 N956 N 1.17142 0.66107 0.12519
 N957 N 1.15445 0.64754 0.10628
 C958 C 1.12615 0.66103 0.09801
 N959 N 1.11564 0.68907 0.10922
 N960 N 1.13288 0.70286 0.12810
 C961 C 1.10662 0.64318 0.07891
 N962 N 1.07529 0.65140 0.07315
 N963 N 1.05698 0.63189 0.05845
 C964 C 1.06948 0.60356 0.04910
 N965 N 1.10091 0.59601 0.05441
 N966 N 1.11910 0.61541 0.06889
 C967 C 0.67862 1.20220 0.65914
 N968 N 0.69992 1.18262 0.67174
 N969 N 0.71689 1.19373 0.69164
 C970 C 0.71374 1.22506 0.69951
 N971 N 0.69224 1.24470 0.68703
 N972 N 0.67490 1.23346 0.66722
 C973 C 0.66011 1.18893 0.63733
 N974 N 0.63201 1.20289 0.62883
 N975 N 0.61463 1.18887 0.61012
 C976 C 0.62501 1.16064 0.59914
 N977 N 0.65330 1.14719 0.60745
 N978 N 0.67042 1.16095 0.62618
 C979 C 0.60549 1.14263 0.58012
 N980 N 0.61799 1.11473 0.57033
 N981 N 0.59994 1.09530 0.55579
 C982 C 0.56861 1.10292 0.55017
 N983 N 0.55608 1.13137 0.55929
 N984 N 0.57427 1.15092 0.57407
 C985 C 0.82564 0.29640 0.16296
 N986 N 0.80669 0.31581 0.17782
 N987 N 0.79036 0.30366 0.19762
 C988 C 0.79179 0.27144 0.20319
 N989 N 0.81099 0.25187 0.18848
 N990 N 0.82772 0.26415 0.16871
 C991 C 0.84303 0.31099 0.14112
 N992 N 0.86946 0.29669 0.13004
 N993 N 0.88586 0.31194 0.11138
 C994 C 0.87611 0.34183 0.10308
 N995 N 0.84945 0.35563 0.11397
 N996 N 0.83335 0.34063 0.13261
 C997 C 0.89448 0.36100 0.08408
 N998 N 0.88237 0.39040 0.07719
 N999 N 0.89944 0.41041 0.06245
 C1000 C 0.92937 0.40195 0.05375
 N1001 N 0.94149 0.37211 0.06000
 N1002 N 0.92429 0.35194 0.07500
 C1003 C 0.32604 0.79582 0.66355
 N1004 N 0.30699 0.81521 0.67833
 N1005 N 0.29056 0.80307 0.69809
 C1006 C 0.29200 0.77086 0.70368
 N1007 N 0.31128 0.75129 0.68903
 N1008 N 0.32810 0.76357 0.66930
 C1009 C 0.34360 0.81050 0.64183
 N1010 N 0.37000 0.79618 0.63069
 N1011 N 0.38655 0.81157 0.61217
 C1012 C 0.37699 0.84163 0.60409
 N1013 N 0.35039 0.85544 0.61504
 N1014 N 0.33414 0.84029 0.63353
 C1015 C 0.39537 0.86090 0.58514
 N1016 N 0.38354 0.89058 0.57873
 N1017 N 0.40047 0.91051 0.56384
 C1018 C 0.42999 0.90172 0.55449
 N1019 N 0.44184 0.87162 0.56029
 N1020 N 0.42478 0.85151 0.57545
 C1021 C 0.29427 1.17812 -0.16090
 N1022 N 0.31361 1.19889 -0.17420
 N1023 N 0.30209 1.21536 -0.19420
 C1024 C 0.27056 1.21223 -0.20149
 N1025 N 0.25111 1.19122 -0.18834
 N1026 N 0.26278 1.17437 -0.16842
 C1027 C 0.30807 1.16039 -0.13891
 N1028 N 0.29449 1.13255 -0.12959
 N1029 N 0.30914 1.11585 -0.11079
 C1030 C 0.33764 1.12669 -0.10056
 N1031 N 0.35068 1.15474 -0.10968
 N1032 N 0.33630 1.17116 -0.12848
 C1033 C 0.35637 1.10790 -0.08153
 N1034 N 0.38457 1.12079 -0.07270
 N1035 N 0.40453 1.10335 -0.05813
 C1036 C 0.39717 1.07228 -0.05155
 N1037 N 0.36845 1.05937 -0.05971
 N1038 N 0.34836 1.07693 -0.07452
 C1039 C 0.79447 0.67757 0.33829
 N1040 N 0.81379 0.69807 0.32471
 N1041 N 0.80206 0.71464 0.30485
 C1042 C 0.77034 0.71191 0.29797
 N1043 N 0.75091 0.69117 0.31140
 N1044 N 0.76278 0.67421 0.33120
 C1045 C 0.80851 0.65979 0.36016
 N1046 N 0.79469 0.63228 0.36988
 N1047 N 0.80948 0.61557 0.38861
 C1048 C 0.83837 0.62607 0.39837
 N1049 N 0.85167 0.65379 0.38885
 N1050 N 0.83714 0.67021 0.37012
 C1051 C 0.85716 0.60733 0.41740
 N1052 N 0.88568 0.62000 0.42578
 N1053 N 0.90558 0.60262 0.44043
 C1054 C 0.89786 0.57183 0.44755
 N1055 N 0.86884 0.55915 0.43982
 N1056 N 0.84880 0.57666 0.42493
 C1057 C 0.70571 1.18223 0.15755
 N1058 N 0.69093 1.20936 0.16689
 N1059 N 0.70293 1.22492 0.18722
 C1060 C 0.73044 1.21424 0.19893
 N1061 N 0.74544 1.18719 0.18951
 N1062 N 0.73332 1.17147 0.16919
 C1063 C 0.69039 1.16403 0.13632
 N1064 N 0.70172 1.13443 0.12855
 N1065 N 0.68581 1.11727 0.11068
 C1066 C 0.65803 1.12917 0.09996
 N1067 N 0.64712 1.15888 0.10755
 N1068 N 0.66293 1.17593 0.12532
 C1069 C 0.63793 1.10983 0.08207
 N1070 N 0.60812 1.12132 0.07558
 N1071 N 0.58805 1.10368 0.06123
 C1072 C 0.59691 1.07386 0.05246
 N1073 N 0.62707 1.06234 0.05845
 N1074 N 0.64722 1.08002 0.07312
 C1075 C 1.20570 0.68168 0.65820
 N1076 N 1.19102 0.70889 0.66748
 N1077 N 1.20309 0.72446 0.68778
 C1078 C 1.23056 0.71371 0.69952
 N1079 N 1.24544 0.68657 0.69015
 N1080 N 1.23327 0.67084 0.66985
 C1081 C 1.19029 0.66346 0.63701
 N1082 N 1.20169 0.63394 0.62912
 N1083 N 1.18573 0.61677 0.61129
 C1084 C 1.15781 0.62857 0.60073
 N1085 N 1.14682 0.65821 0.60843
 N1086 N 1.16270 0.67528 0.62616
 C1087 C 1.13765 0.60922 0.58290
 N1088 N 1.10764 0.62047 0.57675
 N1089 N 1.08759 0.60284 0.56238
 C1090 C 1.09666 0.57325 0.55325
 N1091 N 1.12701 0.56197 0.55890
 N1092 N 1.14714 0.57964 0.57360
 C1093 C 0.70120 0.82623 -0.16252
 N1094 N 0.68157 0.80551 -0.17563
 N1095 N 0.69294 0.78837 -0.19535
 C1096 C 0.72458 0.79073 -0.20251
 N1097 N 0.74431 0.81167 -0.18952
 N1098 N 0.73281 0.82919 -0.16989
 C1099 C 0.68759 0.84474 -0.14084
 N1100 N 0.70166 0.87251 -0.13180
 N1101 N 0.68729 0.88984 -0.11321
 C1102 C 0.65858 0.87970 -0.10291
 N1103 N 0.64504 0.85174 -0.11176
 N1104 N 0.65914 0.83470 -0.13036
 C1105 C 0.64022 0.89897 -0.08393
 N1106 N 0.61202 0.88639 -0.07487
 N1107 N 0.59238 0.90408 -0.06024
 C1108 C 0.60006 0.93511 -0.05380
 N1109 N 0.62879 0.94777 -0.06221
 N1110 N 0.64857 0.92994 -0.07710
 C1111 C 1.20183 0.32641 0.33791
 N1112 N 1.18230 0.30542 0.32498
 N1113 N 1.19362 0.28841 0.30518
 C1114 C 1.22513 0.29117 0.29775
 N1115 N 1.24476 0.31239 0.31055
 N1116 N 1.23330 0.32979 0.33026
 C1117 C 1.18828 0.34480 0.35967
 N1118 N 1.20204 0.37285 0.36846
 N1119 N 1.18767 0.39010 0.38709
 C1120 C 1.15926 0.37961 0.39769
 N1121 N 1.14603 0.35137 0.38910
 N1122 N 1.16014 0.33440 0.37046
 C1123 C 1.14085 0.39884 0.41665
 N1124 N 1.11283 0.38609 0.42591
 N1125 N 1.09312 0.40375 0.44051
 C1126 C 1.10055 0.43493 0.44671
 N1127 N 1.12910 0.44775 0.43811
 N1128 N 1.14895 0.42995 0.42325
 C1129 C 0.29855 0.81330 0.15379
 N1130 N 0.27076 0.82321 0.16560
 N1131 N 0.25938 0.80717 0.18600
 C1132 C 0.27533 0.78066 0.19536
 N1133 N 0.30304 0.77079 0.18349
 N1134 N 0.31432 0.78667 0.16305
 C1135 C 0.31289 0.83205 0.13246
 N1136 N 0.34032 0.82101 0.12086
 N1137 N 0.35517 0.83874 0.10298
 C1138 C 0.34328 0.86828 0.09592
 N1139 N 0.31553 0.87928 0.10724
 N1140 N 0.30058 0.86143 0.12518
 C1141 C 0.36235 0.88857 0.07802
 N1142 N 0.35264 0.91894 0.07069
 N1143 N 0.37213 0.93776 0.05638
 C1144 C 0.40202 0.92681 0.04906
 N1145 N 0.41126 0.89637 0.05613
 N1146 N 0.39184 0.87763 0.07016
 C1147 C 0.79824 0.31386 0.65374
 N1148 N 0.77054 0.32388 0.66562
 N1149 N 0.75919 0.30791 0.68605
 C1150 C 0.77507 0.28134 0.69539
 N1151 N 0.80269 0.27136 0.68344
 N1152 N 0.81394 0.28718 0.66296
 C1153 C 0.81253 0.33251 0.63233
 N1154 N 0.83981 0.32129 0.62062
 N1155 N 0.85459 0.33889 0.60263
 C1156 C 0.84280 0.36847 0.59557
 N1157 N 0.81521 0.37965 0.60703
 N1158 N 0.80031 0.36194 0.62507
 C1159 C 0.86182 0.38861 0.57754
 N1160 N 0.85229 0.41908 0.57032
 N1161 N 0.87181 0.43780 0.55596
 C1162 C 0.90154 0.42663 0.54846
 N1163 N 0.91059 0.39609 0.55539
 N1164 N 0.89114 0.37745 0.56948
 C1165 C 1.15536 1.18178 0.68249
 N1166 N 1.17573 1.20455 0.67262
 N1167 N 1.19727 1.21955 0.68757
 C1168 C 1.19912 1.21247 0.71293
 N1169 N 1.17898 1.18937 0.72274
 N1170 N 1.15755 1.17417 0.70776
 C1171 C 1.13143 1.16589 0.66597
 N1172 N 1.11462 1.13935 0.67413
 N1173 N 1.09380 1.12432 0.65849
 C1174 C 1.08886 1.13559 0.63431
 N1175 N 1.10533 1.16238 0.62636
 N1176 N 1.12624 1.17726 0.64190
 C1177 C 1.06882 1.11758 0.61600
 N1178 N 1.06501 1.12930 0.59187
 N1179 N 1.05069 1.11135 0.57391
 C1180 C 1.03964 1.08103 0.57939
 N1181 N 1.04265 1.06953 0.60371
 N1182 N 1.05702 1.08755 0.62174
 C1183 C 0.65429 0.68224 0.18232
 N1184 N 0.67462 0.70504 0.17244
 N1185 N 0.69630 0.71991 0.18734
 C1186 C 0.69833 0.71267 0.21266
 N1187 N 0.67823 0.68956 0.22248
 N1188 N 0.65666 0.67449 0.20755
 C1189 C 0.63025 0.66642 0.16586
 N1190 N 0.61342 0.63990 0.17403
 N1191 N 0.59252 0.62492 0.15843
 C1192 C 0.58752 0.63623 0.13426
 N1193 N 0.60399 0.66301 0.12630
 N1194 N 0.62499 0.67784 0.14181
 C1195 C 0.56756 0.61817 0.11593
 N1196 N 0.56383 0.62985 0.09179
 N1197 N 0.54969 0.61183 0.07378
 C1198 C 0.53874 0.58146 0.07925
 N1199 N 0.54166 0.57001 0.10359
 N1200 N 0.55585 0.58810 0.12166
 C1201 C 1.18616 0.84068 0.31543
 N1202 N 1.17883 0.83935 0.29006
 N1203 N 1.19319 0.81745 0.27495
 C1204 C 1.21512 0.79600 0.28474
 N1205 N 1.22191 0.79703 0.31018
 N1206 N 1.20775 0.81901 0.32525
 C1207 C 1.17134 0.86511 0.33213
 N1208 N 1.18271 0.86917 0.35634
 N1209 N 1.16878 0.89050 0.37209
 C1210 C 1.14297 0.90854 0.36421
 N1211 N 1.13172 0.90474 0.33988
 N1212 N 1.14582 0.88349 0.32404
 C1213 C 1.12575 0.92899 0.38272
 N1214 N 1.09627 0.94216 0.37703
 N1215 N 1.07871 0.95679 0.39521
 C1216 C 1.09013 0.95874 0.41963
 N1217 N 1.11996 0.94635 0.42507
 N1218 N 1.13745 0.93175 0.40695
 C1219 C 0.68688 0.34210 -0.18442
 N1220 N 0.70821 0.32018 -0.17459
 N1221 N 0.72211 0.29804 -0.18966
 C1222 C 0.71530 0.29707 -0.21511
 N1223 N 0.69362 0.31877 -0.22489
 N1224 N 0.67951 0.34083 -0.20978
 C1225 C 0.67230 0.36671 -0.16774
 N1226 N 0.64689 0.38523 -0.17585
 N1227 N 0.63293 0.40660 -0.16003
 C1228 C 0.64422 0.41041 -0.13572
 N1229 N 0.66994 0.39224 -0.12782
 N1230 N 0.68373 0.37077 -0.14354
 C1231 C 0.62698 0.43086 -0.11723
 N1232 N 0.63868 0.43373 -0.09300
 N1233 N 0.62106 0.44818 -0.07487
 C1234 C 0.59110 0.46027 -0.08030
 N1235 N 0.57971 0.45823 -0.10472
 N1236 N 0.59739 0.44378 -0.12290
 C1237 C 0.82116 1.15380 0.31823
 N1238 N 0.79947 1.17514 0.32841
 N1239 N 0.78492 1.19721 0.31365
 C1240 C 0.79138 1.19864 0.28816
 N1241 N 0.81344 1.17756 0.27805
 N1242 N 0.82819 1.15560 0.29284
 C1243 C 0.83625 1.12902 0.33447
 N1244 N 0.86178 1.11097 0.32592
 N1245 N 0.87595 1.08915 0.34122
 C1246 C 0.86474 1.08439 0.36544
 N1247 N 0.83895 1.10213 0.37379
 N1248 N 0.82495 1.12405 0.35859
 C1249 C 0.88193 1.06312 0.38341
 N1250 N 0.87000 1.05910 0.40745
 N1251 N 0.88740 1.04375 0.42522
 C1252 C 0.91738 1.03183 0.41963
 N1253 N 0.92904 1.03502 0.39537
 N1254 N 0.91156 1.05039 0.37752
 C1255 C 0.32129 0.65325 -0.18134
 N1256 N 0.29968 0.67462 -0.17109
 N1257 N 0.28518 0.69678 -0.18580
 C1258 C 0.29161 0.69826 -0.21129
 N1259 N 0.31362 0.67717 -0.22146
 N1260 N 0.32833 0.65513 -0.20672
 C1261 C 0.33626 0.62831 -0.16519
 N1262 N 0.36174 0.61024 -0.17381
 N1263 N 0.37580 0.58824 -0.15861
 C1264 C 0.36452 0.58330 -0.13443
 N1265 N 0.33876 0.60106 -0.12602
 N1266 N 0.32488 0.62316 -0.14112
 C1267 C 0.38165 0.56187 -0.11656
 N1268 N 0.36966 0.55762 -0.09257
 N1269 N 0.38709 0.54223 -0.07483
 C1270 C 0.41715 0.53050 -0.08042
 N1271 N 0.42884 0.53388 -0.10466
 N1272 N 0.41133 0.54930 -0.12246
 C1273 C 0.84186 0.81718 0.68164
 N1274 N 0.84099 0.82398 0.70710
 N1275 N 0.81879 0.81002 0.72213
 C1276 C 0.79655 0.78904 0.71218
 N1277 N 0.79708 0.78284 0.68663
 N1278 N 0.81937 0.79659 0.67163
 C1279 C 0.86692 0.83125 0.66513
 N1280 N 0.87094 0.81984 0.64092
 N1281 N 0.89314 0.83292 0.62548
 C1282 C 0.91210 0.85790 0.63368
 N1283 N 0.90828 0.86920 0.65799
 N1284 N 0.88618 0.85593 0.67353
 C1285 C 0.93367 0.87428 0.61551
 N1286 N 0.94759 0.90337 0.62135
 N1287 N 0.96327 0.92034 0.60339
 C1288 C 0.96560 0.90870 0.57906
 N1289 N 0.95248 0.87922 0.57349
 N1290 N 0.93682 0.86232 0.59139
 C1291 C 0.34225 0.31791 0.18174
 N1292 N 0.34154 0.32451 0.20725
 N1293 N 0.31928 0.31062 0.22226
 C1294 C 0.29679 0.28995 0.21225
 N1295 N 0.29715 0.28397 0.18666
 N1296 N 0.31952 0.29764 0.17168
 C1297 C 0.36741 0.33183 0.16526
 N1298 N 0.37140 0.32038 0.14106
 N1299 N 0.39372 0.33330 0.12565
 C1300 C 0.41285 0.35813 0.13387
 N1301 N 0.40906 0.36948 0.15817
 N1302 N 0.38684 0.35637 0.17368
 C1303 C 0.43457 0.37435 0.11573
 N1304 N 0.44845 0.40347 0.12151
 N1305 N 0.46420 0.42035 0.10354
 C1306 C 0.46665 0.40858 0.07925
 N1307 N 0.45360 0.37905 0.07376
 N1308 N 0.43785 0.36224 0.09166
   
