data_POSCAR
  _audit_creation_date              2014-09-24
  _audit_creation_method            'ToBaCCo'
  _symmetry_space_group_name_H-M    'P1'
  _symmetry_Int_Tables_number       1
  _symmetry_cell_setting            triclinic
  loop_
  _symmetry_equiv_pos_as_xyz
 x,y,z
_cell_length_a 54.1362
_cell_length_b 54.3126
_cell_length_c 54.6570
_cell_angle_alpha 90.105300
_cell_angle_beta 89.970700
_cell_angle_gamma 89.809000
loop_
  _atom_site_label
  _atom_site_type_symbol
  _atom_site_fract_x
  _atom_site_fract_y
  _atom_site_fract_z
N1 N 0.20601 0.21150 0.20994
 N2 N 0.71527 0.71486 0.71259
 N3 N 0.29248 0.78712 0.71700
 N4 N 0.78698 0.28439 0.20794
 N5 N 0.78711 0.71419 0.28845
 N6 N 0.28937 0.21159 -0.21012
 N7 N 0.71085 0.28620 -0.21300
 N8 N 0.20934 0.78570 0.28710
 N9 N 0.46271 0.46222 0.46151
 N10 N -0.03397 -0.03868 0.95925
 N11 N 1.03745 0.53933 0.95852
 N12 N 0.53598 0.03773 0.45985
 N13 N -0.03822 0.04263 0.53937
 N14 N 0.46190 0.53723 0.04184
 N15 N 0.53722 -0.04062 0.04312
 N16 N 1.03941 0.46562 0.53731
 C17 C 0.40917 0.01081 0.21950
 H18 H 0.41109 0.02663 0.23139
 C19 C 0.42549 0.00744 0.19998
 H20 H 0.44007 0.02071 0.19707
 C21 C 0.38829 -0.02613 0.20948
 H22 H 0.37392 -0.03930 0.21336
 C23 C 0.40414 -0.03018 0.18972
 H24 H 0.40144 -0.04627 0.17832
 N25 N 0.39092 -0.00577 0.22376
 C26 C 0.33111 0.03214 0.26184
 H27 H 0.32892 0.02038 0.27765
 C28 C 0.31520 0.05213 0.25840
 H29 H 0.30065 0.05553 0.27159
 C30 C 0.35226 0.04138 0.22504
 H31 H 0.36657 0.03703 0.21195
 C32 C 0.33681 0.06157 0.22091
 H33 H 0.33975 0.07281 0.20484
 Zn34 Zn 0.36995 -0.00036 0.25095
 N35 N 0.34934 0.02730 0.24538
 C36 C 0.38741 0.02524 0.29292
 N37 N 0.39033 0.00494 0.27859
 C38 C 0.40858 -0.01171 0.28304
 C39 C 0.42454 -0.00852 0.30284
 C40 C 0.40291 0.02913 0.31296
 C41 C 0.33104 -0.03210 0.23935
 C42 C 0.31538 -0.05230 0.24192
 C43 C 0.33762 -0.06373 0.27852
 C44 C 0.35270 -0.04318 0.27539
 N45 N 0.34940 -0.02805 0.25585
 H46 H 0.37310 0.03851 0.28886
 H47 H 0.41078 -0.02746 0.27107
 H48 H 0.43912 -0.02185 0.30589
 H49 H 0.40000 0.04518 0.32439
 H50 H 0.32870 -0.01965 0.22409
 H51 H 0.30106 -0.05545 0.22845
 H52 H 0.34049 -0.07561 0.29416
 H53 H 0.36705 -0.03943 0.28856
 C54 C 0.31798 0.06720 0.23772
 C55 C 0.42305 -0.01327 0.18474
 C56 C 0.31872 -0.06852 0.26161
 C57 C 0.42178 0.01211 0.31815
 C58 C 0.09213 -0.01279 0.71111
 H59 H 0.09036 -0.02962 0.72134
 C60 C 0.07742 -0.00925 0.69042
 H61 H 0.06400 -0.02313 0.68544
 C62 C 0.11195 0.02542 0.70461
 H63 H 0.12582 0.03868 0.70966
 C64 C 0.09744 0.02981 0.68395
 H65 H 0.10015 0.04655 0.67356
 N66 N 0.10873 0.00463 0.71814
 C67 C 0.16025 -0.03679 0.76396
 H68 H 0.15877 -0.02668 0.78098
 C69 C 0.17567 -0.05739 0.76244
 H70 H 0.18606 -0.06320 0.77836
 C71 C 0.14873 -0.04137 0.72235
 H72 H 0.13856 -0.03480 0.70665
 C73 C 0.16353 -0.06237 0.72017
 H74 H 0.16463 -0.07191 0.70278
 Zn75 Zn 0.12785 -0.00029 0.74722
 N76 N 0.14745 -0.02901 0.74399
 C77 C 0.09163 -0.02465 0.77541
 N78 N 0.10680 -0.00472 0.77483
 C79 C 0.10785 0.01118 0.79411
 C80 C 0.09276 0.00775 0.81455
 C81 C 0.07596 -0.02856 0.79531
 C82 C 0.17361 0.02443 0.75407
 C83 C 0.18892 0.04457 0.75856
 C84 C 0.15289 0.07091 0.75888
 C85 C 0.13819 0.05019 0.75498
 N86 N 0.14868 0.02748 0.75259
 H87 H 0.09200 -0.03790 0.76071
 H88 H 0.12056 0.02642 0.79390
 H89 H 0.09369 0.02067 0.82963
 H90 H 0.06400 -0.04450 0.79545
 H91 H 0.18175 0.00640 0.75179
 H92 H 0.20872 0.04189 0.75986
 H93 H 0.14435 0.08889 0.76068
 H94 H 0.11833 0.05219 0.75377
 C95 C 0.17740 -0.07038 0.74031
 C96 C 0.07974 0.01245 0.67677
 C97 C 0.17852 0.06809 0.76091
 C98 C 0.07640 -0.01220 0.81516
 C99 C 0.58678 0.49007 0.22120
 H100 H 0.58303 0.47611 0.23478
 C101 C 0.57083 0.49309 0.20135
 H102 H 0.55465 0.48151 0.19989
 C103 C 0.61232 0.52234 0.20683
 H104 H 0.62874 0.53342 0.20887
 C105 C 0.59680 0.52606 0.18677
 H106 H 0.60142 0.54008 0.17348
 N107 N 0.60697 0.50469 0.22363
 C108 C 0.66350 0.46353 0.26327
 H109 H 0.66476 0.47357 0.28034
 C110 C 0.67841 0.44286 0.25943
 H111 H 0.69135 0.43744 0.27352
 C112 C 0.64552 0.45893 0.22404
 H113 H 0.63275 0.46526 0.21023
 C114 C 0.65993 0.43803 0.21952
 H115 H 0.65771 0.42832 0.20235
 Zn116 Zn 0.62758 0.49972 0.25111
 N117 N 0.64751 0.47125 0.24565
 C118 C 0.60827 0.47362 0.29196
 N119 N 0.60691 0.49488 0.27889
 C120 C 0.59013 0.51264 0.28476
 C121 C 0.57429 0.50961 0.30472
 C122 C 0.59291 0.46989 0.31212
 C123 C 0.67285 0.52558 0.25817
 C124 C 0.68765 0.54617 0.26224
 C125 C 0.65123 0.57183 0.26015
 C126 C 0.63701 0.55067 0.25673
 N127 N 0.64790 0.52803 0.25592
 H128 H 0.62107 0.45930 0.28674
 H129 H 0.58863 0.52900 0.27369
 H130 H 0.56083 0.52382 0.30879
 H131 H 0.59469 0.45301 0.32248
 H132 H 0.68147 0.50774 0.25678
 H133 H 0.70744 0.54392 0.26422
 H134 H 0.64236 0.58973 0.26066
 H135 H 0.61731 0.55243 0.25421
 C136 C 0.67674 0.42977 0.23730
 C137 C 0.57571 0.51136 0.18388
 C138 C 0.67681 0.56958 0.26323
 C139 C 0.57560 0.48802 0.31876
 C140 C 0.91333 0.51073 0.71699
 H141 H 0.91565 0.52593 0.72952
 C142 C 0.92956 0.50809 0.69727
 H143 H 0.94411 0.52148 0.69478
 C144 C 0.89274 0.47396 0.70601
 H145 H 0.87875 0.46038 0.70959
 C146 C 0.90844 0.47069 0.68600
 H147 H 0.90578 0.45493 0.67416
 N148 N 0.89514 0.49396 0.72086
 C149 C 0.82843 0.52464 0.74272
 H150 H 0.81980 0.50702 0.74548
 C151 C 0.81352 0.54525 0.73871
 H152 H 0.79363 0.54321 0.73808
 C153 C 0.86444 0.54924 0.74101
 H154 H 0.88426 0.55081 0.74224
 C155 C 0.85016 0.57042 0.73755
 H156 H 0.85911 0.58814 0.73576
 Zn157 Zn 0.87386 0.49849 0.74827
 N158 N 0.85348 0.52683 0.74339
 C159 C 0.88852 0.52170 0.79239
 N160 N 0.89386 0.50337 0.77623
 C161 C 0.91373 0.48836 0.77947
 C162 C 0.92935 0.49166 0.79953
 C163 C 0.90370 0.52571 0.81264
 C164 C 0.83758 0.46327 0.73520
 C165 C 0.82234 0.44286 0.73850
 C166 C 0.84121 0.43629 0.77798
 C167 C 0.85592 0.45698 0.77403
 N168 N 0.85388 0.47004 0.75290
 H169 H 0.87242 0.53319 0.78965
 H170 H 0.91753 0.47393 0.76632
 H171 H 0.94532 0.47979 0.80161
 H172 H 0.89910 0.54030 0.82540
 H173 H 0.83617 0.47398 0.71859
 H174 H 0.80908 0.43826 0.72441
 H175 H 0.84343 0.42600 0.79478
 H176 H 0.86892 0.46260 0.78793
 C177 C 0.82442 0.56844 0.73610
 C178 C 0.92716 0.48790 0.68136
 C179 C 0.82400 0.42904 0.76014
 C180 C 0.92449 0.51064 0.81636
 C181 C 0.21672 0.41395 0.01119
 H182 H 0.22835 0.41602 0.02715
 C183 C 0.19679 0.42993 0.00758
 H184 H 0.19333 0.44441 0.02079
 C185 C 0.20774 0.39300 -0.02579
 H186 H 0.21216 0.37873 -0.03887
 C187 C 0.18759 0.40852 -0.03010
 H188 H 0.17646 0.40567 -0.04630
 N189 N 0.22167 0.39580 -0.00528
 C190 C 0.25983 0.33649 0.03295
 H191 H 0.27597 0.33436 0.02144
 C192 C 0.25614 0.32058 0.05264
 H193 H 0.26947 0.30609 0.05604
 C194 C 0.22245 0.35750 0.04182
 H195 H 0.20923 0.37174 0.03743
 C196 C 0.21807 0.34206 0.06174
 H197 H 0.20169 0.34497 0.07275
 Zn198 Zn 0.24924 0.37511 0.00068
 N199 N 0.24320 0.35464 0.02805
 C200 C 0.29077 0.39286 0.02713
 N201 N 0.27688 0.39558 0.00657
 C202 C 0.28190 0.41354 -0.00998
 C203 C 0.30189 0.42934 -0.00645
 C204 C 0.31097 0.40821 0.03136
 C205 C 0.23862 0.33612 -0.03112
 C206 C 0.24210 0.32006 -0.05080
 C207 C 0.27969 0.34168 -0.06081
 C208 C 0.27557 0.35723 -0.04083
 N209 N 0.25514 0.35438 -0.02663
 H210 H 0.28627 0.37878 0.04030
 H211 H 0.27029 0.41559 -0.02596
 H212 H 0.30542 0.44365 -0.01975
 H213 H 0.32208 0.40540 0.04759
 H214 H 0.22274 0.33402 -0.01930
 H215 H 0.22887 0.30548 -0.05384
 H216 H 0.29577 0.34465 -0.07219
 H217 H 0.28870 0.37158 -0.03678
 C218 C 0.23505 0.32329 0.06741
 C219 C 0.18186 0.42728 -0.01327
 C220 C 0.26282 0.32279 -0.06606
 C221 C 0.31680 0.42672 0.01442
 C222 C 0.71246 0.08585 -0.01521
 H223 H 0.72253 0.08439 -0.03226
 C224 C 0.69196 0.07089 -0.01117
 H225 H 0.68670 0.05774 -0.02511
 C226 C 0.70782 0.10414 0.02389
 H227 H 0.71411 0.11700 0.03762
 C228 C 0.68704 0.08973 0.02859
 H229 H 0.67737 0.09206 0.04578
 N230 N 0.72015 0.10194 0.00230
 C231 C 0.76156 0.15926 -0.03608
 H232 H 0.77772 0.16088 -0.02465
 C233 C 0.75850 0.17527 -0.05584
 H234 H 0.77249 0.18899 -0.05941
 C235 C 0.72298 0.14063 -0.04430
 H236 H 0.70883 0.12757 -0.03956
 C237 C 0.71926 0.15611 -0.06431
 H238 H 0.70257 0.15414 -0.07504
 Zn239 Zn 0.74884 0.12141 -0.00317
 N240 N 0.74404 0.14218 -0.03079
 C241 C 0.79975 0.11109 -0.00965
 N242 N 0.77698 0.10066 -0.00813
 C243 C 0.77427 0.07581 -0.00962
 C244 C 0.79469 0.06056 -0.01348
 C245 C 0.82080 0.09645 -0.01288
 C246 C 0.73955 0.16194 0.02725
 C247 C 0.74276 0.17758 0.04729
 C248 C 0.77602 0.15134 0.06122
 C249 C 0.77211 0.13614 0.04096
 N250 N 0.75419 0.14174 0.02443
 H251 H 0.80175 0.13075 -0.00767
 H252 H 0.75631 0.06755 -0.00778
 H253 H 0.79171 0.04097 -0.01541
 H254 H 0.83870 0.10524 -0.01323
 H255 H 0.72540 0.16590 0.01384
 H256 H 0.73113 0.19374 0.04908
 H257 H 0.79020 0.14649 0.07433
 H258 H 0.78323 0.11976 0.03860
 C259 C 0.73712 0.17378 -0.07033
 C260 C 0.67895 0.07265 0.01102
 C261 C 0.76124 0.17239 0.06456
 C262 C 0.81847 0.07075 -0.01502
 C263 C 0.21936 0.59115 0.48945
 H264 H 0.23069 0.58991 0.47324
 C265 C 0.19935 0.57522 0.49222
 H266 H 0.19552 0.56188 0.47799
 C267 C 0.21152 0.60891 0.52828
 H268 H 0.21652 0.62161 0.54261
 C269 C 0.19127 0.59348 0.53172
 H270 H 0.18059 0.59514 0.54840
 N271 N 0.22493 0.60779 0.50723
 C272 C 0.24745 0.63845 0.45207
 H273 H 0.25070 0.61891 0.45023
 C274 C 0.24400 0.65272 0.43109
 H275 H 0.24479 0.64380 0.41340
 C276 C 0.24449 0.67383 0.47719
 H277 H 0.24520 0.68230 0.49499
 C278 C 0.24025 0.68866 0.45681
 H279 H 0.23690 0.70810 0.45969
 Zn280 Zn 0.25265 0.62874 0.50270
 N281 N 0.24760 0.64909 0.47464
 C282 C 0.29785 0.61449 0.48045
 N283 N 0.28079 0.60862 0.49773
 C284 C 0.28334 0.58818 0.51185
 C285 C 0.30353 0.57245 0.50858
 C286 C 0.31825 0.59920 0.47647
 C287 C 0.23947 0.66427 0.53859
 C288 C 0.24305 0.67938 0.55894
 C289 C 0.28346 0.66117 0.56427
 C290 C 0.27927 0.64666 0.54357
 N291 N 0.25757 0.64849 0.53111
 H292 H 0.29571 0.63109 0.46978
 H293 H 0.26954 0.58402 0.52554
 H294 H 0.30505 0.55603 0.51969
 H295 H 0.33170 0.60417 0.46268
 H296 H 0.22225 0.66522 0.52859
 H297 H 0.22853 0.69194 0.56456
 H298 H 0.30089 0.65968 0.57387
 H299 H 0.29346 0.63408 0.53739
 C300 C 0.24010 0.67826 0.43324
 C301 C 0.18491 0.57632 0.51356
 C302 C 0.26529 0.67792 0.57200
 C303 C 0.32122 0.57780 0.49057
 C304 C 0.72256 0.91424 0.47770
 H305 H 0.73985 0.91833 0.46879
 C306 C 0.70192 0.92895 0.47297
 H307 H 0.70367 0.94445 0.46067
 C308 C 0.69931 0.88937 0.50472
 H309 H 0.69816 0.87358 0.51663
 C310 C 0.67823 0.90367 0.50062
 H311 H 0.66110 0.89887 0.50963
 N312 N 0.72109 0.89518 0.49373
 C313 C 0.75344 0.83300 0.52792
 H314 H 0.76213 0.82584 0.51157
 C315 C 0.75060 0.81774 0.54823
 H316 H 0.75689 0.79881 0.54730
 C317 C 0.73494 0.86635 0.54924
 H318 H 0.72915 0.88543 0.54957
 C319 C 0.73133 0.85158 0.56983
 H320 H 0.72274 0.85935 0.58600
 Zn321 Zn 0.75021 0.87676 0.50055
 N322 N 0.74557 0.85681 0.52870
 C323 C 0.78458 0.90355 0.52925
 N324 N 0.77693 0.89889 0.50601
 C325 C 0.78790 0.91007 0.48661
 C326 C 0.80780 0.92596 0.49011
 C327 C 0.80390 0.91994 0.53366
 C328 C 0.73731 0.84242 0.46497
 C329 C 0.74037 0.82645 0.44515
 C330 C 0.78328 0.83827 0.44311
 C331 C 0.77949 0.85366 0.46328
 N332 N 0.75666 0.85582 0.47347
 H333 H 0.77557 0.89480 0.54453
 H334 H 0.78158 0.90624 0.46824
 H335 H 0.81676 0.93363 0.47418
 H336 H 0.80898 0.92379 0.55241
 H337 H 0.71946 0.84408 0.47374
 H338 H 0.72475 0.81567 0.43909
 H339 H 0.80145 0.83752 0.43488
 H340 H 0.79491 0.86369 0.47082
 C341 C 0.73928 0.82699 0.56943
 C342 C 0.67946 0.92393 0.48476
 C343 C 0.76355 0.82438 0.43369
 C344 C 0.81609 0.93126 0.51394
 C345 C -0.00570 0.22908 0.42173
 H346 H -0.00145 0.24687 0.42938
 C347 C -0.00914 0.20919 0.43748
 H348 H -0.00782 0.21199 0.45706
 C349 C -0.01158 0.20335 0.38720
 H350 H -0.01224 0.20104 0.36762
 C351 C -0.01469 0.18286 0.40230
 H352 H -0.01814 0.16499 0.39419
 N353 N -0.00738 0.22600 0.39705
 C354 C 0.02744 0.26328 0.33579
 H355 H 0.01426 0.27791 0.33247
 C356 C 0.04731 0.25980 0.31985
 H357 H 0.04922 0.27175 0.30413
 C358 C 0.04055 0.22957 0.36008
 H359 H 0.03793 0.21798 0.37592
 C360 C 0.06064 0.22539 0.34457
 H361 H 0.07342 0.21059 0.34868
 Zn362 Zn -0.00327 0.25356 0.37583
 N363 N 0.02442 0.24822 0.35540
 C364 C 0.02278 0.29581 0.39194
 N365 N 0.00164 0.28263 0.39473
 C366 C -0.01581 0.28952 0.41133
 C367 C -0.01222 0.31017 0.42614
 C368 C 0.02702 0.31672 0.40621
 C369 C -0.03509 0.24017 0.33739
 C370 C -0.05498 0.24241 0.32127
 C371 C -0.06682 0.27998 0.34188
 C372 C -0.04667 0.27706 0.35754
 N373 N -0.03141 0.25722 0.35528
 H374 H 0.03652 0.29006 0.37878
 H375 H -0.03238 0.27863 0.41342
 H376 H -0.02606 0.31482 0.43969
 H377 H 0.04386 0.32706 0.40348
 H378 H -0.02218 0.22514 0.33513
 H379 H -0.05728 0.22886 0.30690
 H380 H -0.07890 0.29573 0.34426
 H381 H -0.04323 0.29086 0.37131
 C382 C 0.06418 0.24059 0.32411
 C383 C -0.01375 0.18576 0.42777
 C384 C -0.07118 0.26254 0.32340
 C385 C 0.00949 0.32406 0.42376
 C386 C -0.01348 0.71811 0.08417
 H387 H -0.02899 0.73048 0.08178
 C388 C -0.01026 0.69821 0.06825
 H389 H -0.02335 0.69546 0.05353
 C390 C 0.02289 0.70729 0.10577
 H391 H 0.03591 0.71099 0.12026
 C392 C 0.02681 0.68718 0.09029
 H393 H 0.04265 0.67536 0.09336
 N394 N 0.00288 0.72215 0.10261
 C395 C -0.03409 0.76181 0.16165
 H396 H -0.02126 0.77680 0.16438
 C397 C -0.05412 0.75896 0.17749
 H398 H -0.05641 0.77177 0.19253
 C399 C -0.04585 0.72631 0.13934
 H400 H -0.04245 0.71343 0.12465
 C401 C -0.06623 0.72289 0.15461
 H402 H -0.07854 0.70763 0.15107
 Zn403 Zn -0.00207 0.74995 0.12305
 N404 N -0.03036 0.74563 0.14298
 C405 C -0.02491 0.79393 0.10593
 N406 N -0.00589 0.77783 0.10265
 C407 C 0.01081 0.78094 0.08433
 C408 C 0.00896 0.80107 0.06858
 C409 C -0.02735 0.81443 0.09071
 C410 C 0.02884 0.73791 0.16248
 C411 C 0.04873 0.74050 0.17855
 C412 C 0.06121 0.77680 0.15631
 C413 C 0.04099 0.77365 0.14081
 N414 N 0.02546 0.75427 0.14396
 H415 H -0.03821 0.79095 0.12034
 H416 H 0.02566 0.76775 0.08202
 H417 H 0.02258 0.80339 0.05427
 H418 H -0.04266 0.82701 0.09349
 H419 H 0.01606 0.72281 0.16471
 H420 H 0.05133 0.72717 0.19303
 H421 H 0.07336 0.79236 0.15358
 H422 H 0.03776 0.78673 0.12631
 C423 C -0.07055 0.73926 0.17410
 C424 C 0.01012 0.68242 0.07121
 C425 C 0.06529 0.76008 0.17544
 C426 C -0.01027 0.81818 0.07175
 C427 C 0.48742 0.21746 0.58488
 H428 H 0.47170 0.22962 0.58272
 C429 C 0.49054 0.19746 0.56907
 H430 H 0.47720 0.19447 0.55463
 C431 C 0.52433 0.20723 0.60586
 H432 H 0.53759 0.21119 0.62006
 C433 C 0.52813 0.18698 0.59051
 H434 H 0.54411 0.17532 0.59343
 N435 N 0.50408 0.22183 0.60297
 C436 C 0.46694 0.26113 0.66213
 H437 H 0.47923 0.27664 0.66434
 C438 C 0.44709 0.25805 0.67815
 H439 H 0.44440 0.27121 0.69282
 C440 C 0.45626 0.22465 0.64084
 H441 H 0.46001 0.21153 0.62644
 C442 C 0.43612 0.22095 0.65634
 H443 H 0.42431 0.20519 0.65331
 Zn444 Zn 0.49886 0.24959 0.62338
 N445 N 0.47107 0.24461 0.64384
 C446 C 0.47344 0.29183 0.60570
 N447 N 0.49370 0.27722 0.60290
 C448 C 0.51045 0.28149 0.58486
 C449 C 0.50740 0.30140 0.56901
 C450 C 0.46971 0.31199 0.59030
 C451 C 0.53088 0.23816 0.66201
 C452 C 0.55083 0.24120 0.67789
 C453 C 0.56155 0.27844 0.65632
 C454 C 0.54132 0.27475 0.64093
 N455 N 0.52661 0.25471 0.64385
 H456 H 0.46014 0.28795 0.61989
 H457 H 0.52618 0.26932 0.58278
 H458 H 0.52083 0.30433 0.55463
 H459 H 0.45372 0.32367 0.59315
 H460 H 0.51865 0.22259 0.66418
 H461 H 0.55370 0.22795 0.69241
 H462 H 0.57330 0.29425 0.65335
 H463 H 0.53745 0.28792 0.62666
 C464 C 0.43132 0.23774 0.67537
 C465 C 0.51110 0.18185 0.57181
 C466 C 0.56656 0.26154 0.67512
 C467 C 0.48684 0.31703 0.57167
 C468 C 0.51614 0.71427 0.91668
 H469 H 0.53210 0.72597 0.91903
 C470 C 0.51260 0.69417 0.93217
 H471 H 0.52588 0.69062 0.94655
 C472 C 0.47897 0.70538 0.89562
 H473 H 0.46575 0.70994 0.88154
 C474 C 0.47473 0.68507 0.91065
 H475 H 0.45845 0.67396 0.90762
 N476 N 0.49950 0.71939 0.89875
 C477 C 0.53764 0.76038 0.84161
 H478 H 0.52566 0.77629 0.84011
 C479 C 0.55784 0.75781 0.82591
 H480 H 0.56120 0.77178 0.81221
 C481 C 0.54720 0.72245 0.86081
 H482 H 0.54289 0.70859 0.87427
 C483 C 0.56758 0.71913 0.84547
 H484 H 0.57899 0.70287 0.84761
 Zn485 Zn 0.50489 0.74755 0.87913
 N486 N 0.53286 0.74295 0.85879
 C487 C 0.52983 0.78942 0.89807
 N488 N 0.50971 0.77467 0.90038
 C489 C 0.49278 0.77854 0.91838
 C490 C 0.49542 0.79823 0.93462
 C491 C 0.53314 0.80938 0.91383
 C492 C 0.47344 0.73716 0.83986
 C493 C 0.45346 0.74044 0.82404
 C494 C 0.44187 0.77679 0.84694
 C495 C 0.46219 0.77294 0.86219
 N496 N 0.47731 0.75320 0.85860
 H497 H 0.54334 0.78584 0.88397
 H498 H 0.47717 0.76627 0.92007
 H499 H 0.48184 0.80085 0.94894
 H500 H 0.54898 0.82122 0.91128
 H501 H 0.48589 0.72175 0.83729
 H502 H 0.45046 0.72733 0.80940
 H503 H 0.43003 0.79261 0.85001
 H504 H 0.46582 0.78577 0.87685
 C505 C 0.57314 0.73697 0.82775
 C506 C 0.49164 0.67926 0.92927
 C507 C 0.43730 0.76039 0.82760
 C508 C 0.51577 0.81406 0.93238
 C509 C 0.14572 0.22390 0.25824
 C510 C 0.15915 0.24407 0.24934
 C511 C 0.17902 0.23988 0.23338
 C512 C 0.18542 0.21574 0.22627
 C513 C 0.17165 0.19575 0.23531
 C514 C 0.15183 0.19972 0.25135
 C515 C 0.12488 0.22818 0.27512
 C516 C 0.11152 0.20800 0.28410
 C517 C 0.09174 0.21217 0.30017
 C518 C 0.08524 0.23631 0.30721
 C519 C 0.09885 0.25633 0.29799
 C520 C 0.11871 0.25237 0.28196
 C521 C 0.13798 0.18000 0.26065
 C522 C 0.11818 0.18407 0.27677
 C523 C 0.15246 0.26800 0.25664
 C524 C 0.13257 0.27208 0.27266
 H525 H 0.14252 0.16126 0.25547
 H526 H 0.10800 0.16836 0.28354
 H527 H 0.16268 0.28371 0.24990
 H528 H 0.12802 0.29083 0.27781
 H529 H 0.18967 0.25530 0.22663
 H530 H 0.17636 0.17717 0.22971
 H531 H 0.08118 0.19668 0.30691
 H532 H 0.09417 0.27495 0.30353
 C533 C 0.65582 0.72417 0.76240
 C534 C 0.67065 0.74448 0.75650
 C535 C 0.69047 0.74129 0.74023
 C536 C 0.69528 0.71805 0.72977
 C537 C 0.68038 0.69785 0.73612
 C538 C 0.66058 0.70081 0.75238
 C539 C 0.63479 0.72743 0.77928
 C540 C 0.61991 0.70713 0.78506
 C541 C 0.59984 0.71036 0.80097
 C542 C 0.59457 0.73369 0.81107
 C543 C 0.60976 0.75384 0.80509
 C544 C 0.62990 0.75081 0.78919
 C545 C 0.64532 0.68092 0.75866
 C546 C 0.62532 0.68403 0.77473
 C547 C 0.66527 0.76756 0.76690
 C548 C 0.64523 0.77068 0.78296
 H549 H 0.64883 0.66281 0.75103
 H550 H 0.61397 0.66823 0.77905
 H551 H 0.67658 0.78337 0.76251
 H552 H 0.64168 0.78880 0.79051
 H553 H 0.70212 0.75678 0.73555
 H554 H 0.68402 0.67997 0.72805
 H555 H 0.58808 0.69482 0.80517
 H556 H 0.60605 0.77179 0.81300
 C557 C 0.35385 0.77534 0.76399
 C558 C 0.33069 0.78103 0.77415
 C559 C 0.31045 0.78471 0.75857
 C560 C 0.31333 0.78300 0.73301
 C561 C 0.33672 0.77734 0.72315
 C562 C 0.35703 0.77337 0.73856
 C563 C 0.37520 0.77141 0.78028
 C564 C 0.39832 0.76553 0.77012
 C565 C 0.41855 0.76179 0.78570
 C566 C 0.41581 0.76413 0.81123
 C567 C 0.39249 0.77011 0.82109
 C568 C 0.37209 0.77367 0.80569
 C569 C 0.38045 0.76753 0.72907
 C570 C 0.40074 0.76363 0.74459
 C571 C 0.32827 0.78299 0.79967
 C572 C 0.34863 0.77942 0.81518
 H573 H 0.38312 0.76594 0.70948
 H574 H 0.41849 0.75913 0.73653
 H575 H 0.31050 0.78739 0.80773
 H576 H 0.34599 0.78117 0.83476
 H577 H 0.29244 0.78887 0.76622
 H578 H 0.33905 0.77619 0.70349
 H579 H 0.43650 0.75746 0.77799
 H580 H 0.39021 0.77166 0.84074
 C581 C -0.15263 0.27488 0.25656
 C582 C -0.16639 0.25426 0.24927
 C583 C -0.18627 0.25745 0.23311
 C584 C -0.19237 0.28106 0.22433
 C585 C -0.17835 0.30151 0.23183
 C586 C -0.15845 0.29854 0.24793
 C587 C -0.13176 0.27168 0.27361
 C588 C -0.11803 0.29231 0.28087
 C589 C -0.09822 0.28919 0.29709
 C590 C -0.09216 0.26565 0.30614
 C591 C -0.10616 0.24514 0.29861
 C592 C -0.12597 0.24806 0.28233
 C593 C -0.14425 0.31873 0.25558
 C594 C -0.12436 0.31567 0.27176
 C595 C -0.16003 0.23090 0.25837
 C596 C -0.14018 0.22786 0.27463
 H597 H -0.14856 0.33706 0.24902
 H598 H -0.11388 0.33173 0.27722
 H599 H -0.17051 0.21485 0.25290
 H600 H -0.13591 0.20953 0.28123
 H601 H -0.19718 0.24173 0.22751
 H602 H -0.18293 0.31967 0.22496
 H603 H -0.08735 0.30503 0.30242
 H604 H -0.10184 0.22699 0.30567
 C605 C -0.15282 0.72487 0.23966
 C606 C -0.16546 0.74543 0.24908
 C607 C -0.18527 0.74180 0.26520
 C608 C -0.19257 0.71782 0.27176
 C609 C -0.17976 0.69742 0.26200
 C610 C -0.15979 0.70085 0.24603
 C611 C -0.13184 0.72858 0.22285
 C612 C -0.11904 0.70803 0.21367
 C613 C -0.09899 0.71164 0.19784
 C614 C -0.09183 0.73560 0.19095
 C615 C -0.10502 0.75600 0.20030
 C616 C -0.12495 0.75259 0.21634
 C617 C -0.14658 0.68074 0.23641
 C618 C -0.12650 0.68427 0.22054
 C619 C -0.15802 0.76918 0.24216
 C620 C -0.13815 0.77270 0.22602
 H621 H -0.15176 0.66211 0.24122
 H622 H -0.11677 0.66827 0.21357
 H623 H -0.16765 0.78519 0.24926
 H624 H -0.13303 0.79132 0.22114
 H625 H -0.19519 0.75753 0.27251
 H626 H -0.18513 0.67895 0.26715
 H627 H -0.08878 0.69581 0.19116
 H628 H -0.09997 0.77449 0.19490
 C629 C 0.34935 0.22277 0.74113
 C630 C 0.34332 0.19876 0.74844
 C631 C 0.32340 0.19519 0.76441
 C632 C 0.30969 0.21543 0.77324
 C633 C 0.31600 0.23939 0.76573
 C634 C 0.33580 0.24317 0.74961
 C635 C 0.37029 0.22662 0.72431
 C636 C 0.37626 0.25061 0.71689
 C637 C 0.39616 0.25415 0.70083
 C638 C 0.41017 0.23393 0.69232
 C639 C 0.40391 0.21000 0.70011
 C640 C 0.38395 0.20624 0.71600
 C641 C 0.34234 0.26690 0.74179
 C642 C 0.36220 0.27055 0.72566
 C643 C 0.35738 0.17882 0.73969
 C644 C 0.37739 0.18250 0.72379
 H645 H 0.33201 0.28278 0.74817
 H646 H 0.36661 0.28915 0.72007
 H647 H 0.35292 0.16021 0.74523
 H648 H 0.38779 0.16663 0.71750
 H649 H 0.31871 0.17674 0.77029
 H650 H 0.30534 0.25497 0.77231
 H651 H 0.40054 0.27261 0.69473
 H652 H 0.41476 0.19433 0.69406
 C653 C 0.64974 0.27571 0.73949
 C654 C 0.66356 0.25522 0.74721
 C655 C 0.68372 0.25879 0.76290
 C656 C 0.69013 0.28263 0.77076
 C657 C 0.67612 0.30297 0.76277
 C658 C 0.65585 0.29961 0.74718
 C659 C 0.62845 0.27207 0.72306
 C660 C 0.61456 0.29255 0.71547
 C661 C 0.59430 0.28898 0.69990
 C662 C 0.58796 0.26517 0.69178
 C663 C 0.60218 0.24485 0.69960
 C664 C 0.62240 0.24820 0.71529
 C665 C 0.64152 0.31965 0.73917
 C666 C 0.62120 0.31617 0.72361
 C667 C 0.65693 0.23161 0.73905
 C668 C 0.63672 0.22816 0.72333
 H669 H 0.64604 0.33817 0.74500
 H670 H 0.61062 0.33212 0.71788
 H671 H 0.66745 0.21565 0.74485
 H672 H 0.63224 0.20964 0.71745
 H673 H 0.69459 0.24313 0.76889
 H674 H 0.68088 0.32132 0.76896
 H675 H 0.58330 0.30472 0.69435
 H676 H 0.59773 0.22649 0.69322
 C677 C 0.14836 0.77364 0.23978
 C678 C 0.17157 0.77924 0.22980
 C679 C 0.19166 0.78291 0.24552
 C680 C 0.18862 0.78123 0.27105
 C681 C 0.16518 0.77572 0.28077
 C682 C 0.14499 0.77176 0.26519
 C683 C 0.12713 0.76984 0.22332
 C684 C 0.10392 0.76418 0.23328
 C685 C 0.08377 0.76071 0.21752
 C686 C 0.08671 0.76314 0.19203
 C687 C 0.11014 0.76880 0.18238
 C688 C 0.13044 0.77211 0.19794
 C689 C 0.12148 0.76609 0.27448
 C690 C 0.10131 0.76230 0.25879
 C691 C 0.17419 0.78115 0.20430
 C692 C 0.15396 0.77769 0.18864
 H693 H 0.11866 0.76456 0.29404
 H694 H 0.08349 0.75797 0.26670
 H695 H 0.19201 0.78547 0.19639
 H696 H 0.15674 0.77944 0.16909
 H697 H 0.20969 0.78710 0.23801
 H698 H 0.16271 0.77473 0.30042
 H699 H 0.06573 0.75660 0.22507
 H700 H 0.11258 0.77042 0.16276
 C701 C 0.25372 0.15048 0.22172
 C702 C 0.24544 0.15569 0.19793
 C703 C 0.22980 0.17595 0.19413
 C704 C 0.22240 0.19087 0.21393
 C705 C 0.23093 0.18543 0.23765
 C706 C 0.24661 0.16524 0.24166
 C707 C 0.27011 0.12915 0.22583
 C708 C 0.27841 0.12396 0.24961
 C709 C 0.29403 0.10367 0.25341
 C710 C 0.30131 0.08859 0.23364
 C711 C 0.29271 0.09408 0.20992
 C712 C 0.27715 0.11436 0.20591
 C713 C 0.25530 0.15947 0.26518
 C714 C 0.27096 0.13919 0.26909
 C715 C 0.25289 0.14047 0.17845
 C716 C 0.26846 0.12013 0.18238
 H717 H 0.24996 0.17072 0.28071
 H718 H 0.27725 0.13539 0.28751
 H719 H 0.24661 0.14428 0.16002
 H720 H 0.27376 0.10885 0.16686
 H721 H 0.22311 0.18001 0.17589
 H722 H 0.22539 0.19702 0.25287
 H723 H 0.30080 0.09983 0.27167
 H724 H 0.29788 0.08241 0.19463
 C725 C 0.76236 0.65328 0.72192
 C726 C 0.74616 0.65397 0.70185
 C727 C 0.73088 0.67460 0.69864
 C728 C 0.73140 0.69402 0.71564
 C729 C 0.74750 0.69302 0.73575
 C730 C 0.76329 0.67275 0.73886
 C731 C 0.77856 0.63168 0.72535
 C732 C 0.79507 0.63118 0.74517
 C733 C 0.81045 0.61059 0.74832
 C734 C 0.80889 0.59046 0.73218
 C735 C 0.79214 0.59116 0.71252
 C736 C 0.77708 0.61188 0.70885
 C737 C 0.77995 0.67152 0.75851
 C738 C 0.79568 0.65115 0.76154
 C739 C 0.74546 0.63396 0.68555
 C740 C 0.76056 0.61320 0.68907
 H741 H 0.78088 0.68646 0.77164
 H742 H 0.80830 0.65094 0.77692
 H743 H 0.73301 0.63427 0.67004
 H744 H 0.75932 0.59808 0.67619
 H745 H 0.71827 0.67553 0.68326
 H746 H 0.74778 0.70815 0.74870
 H747 H 0.82323 0.60993 0.76358
 H748 H 0.79106 0.57567 0.70003
 C749 C 0.75946 0.34621 0.77574
 C750 C 0.75297 0.33115 0.75585
 C751 C 0.73686 0.31136 0.75967
 C752 C 0.72749 0.30651 0.78318
 C753 C 0.73432 0.32167 0.80295
 C754 C 0.75021 0.34165 0.79931
 C755 C 0.77617 0.36722 0.77180
 C756 C 0.78237 0.38248 0.79161
 C757 C 0.79801 0.40262 0.78770
 C758 C 0.80766 0.40745 0.76422
 C759 C 0.80137 0.39175 0.74461
 C760 C 0.78552 0.37171 0.74827
 C761 C 0.75695 0.35724 0.81871
 C762 C 0.77270 0.37736 0.81491
 C763 C 0.76271 0.33622 0.73258
 C764 C 0.77877 0.35612 0.72887
 H765 H 0.74991 0.35393 0.83696
 H766 H 0.77736 0.38899 0.83034
 H767 H 0.75788 0.32471 0.71710
 H768 H 0.78587 0.35939 0.71062
 H769 H 0.73171 0.29957 0.74450
 H770 H 0.72694 0.31802 0.82102
 H771 H 0.80232 0.41474 0.80286
 H772 H 0.80894 0.39499 0.72655
 C773 C 0.25592 -0.15287 0.27441
 C774 C 0.26652 -0.17578 0.28016
 C775 C 0.25110 -0.19612 0.28384
 C776 C 0.22525 -0.19355 0.28226
 C777 C 0.21496 -0.17049 0.27627
 C778 C 0.23021 -0.15009 0.27227
 C779 C 0.27202 -0.13134 0.27080
 C780 C 0.26142 -0.10844 0.26501
 C781 C 0.27680 -0.08799 0.26178
 C782 C 0.30257 -0.09028 0.26457
 C783 C 0.31288 -0.11339 0.27038
 C784 C 0.29769 -0.13402 0.27342
 C785 C 0.22029 -0.12690 0.26641
 C786 C 0.23563 -0.10644 0.26278
 C787 C 0.29230 -0.17780 0.28234
 C788 C 0.30763 -0.15725 0.27909
 H789 H 0.20048 -0.12454 0.26468
 H790 H 0.22723 -0.08888 0.25834
 H791 H 0.30070 -0.19536 0.28678
 H792 H 0.32741 -0.15956 0.28109
 H793 H 0.25906 -0.21392 0.28819
 H794 H 0.19508 -0.16844 0.27512
 H795 H 0.26875 -0.07020 0.25755
 H796 H 0.33273 -0.11532 0.27228
 C797 C 0.24311 -0.15302 0.72907
 C798 C 0.23389 -0.17543 0.72015
 C799 C 0.25015 -0.19530 0.71682
 C800 C 0.27559 -0.19268 0.72167
 C801 C 0.28446 -0.17002 0.73062
 C802 C 0.26827 -0.15020 0.73457
 C803 C 0.22613 -0.13200 0.73245
 C804 C 0.23531 -0.10965 0.74161
 C805 C 0.21911 -0.08968 0.74464
 C806 C 0.19409 -0.09184 0.73804
 C807 C 0.18518 -0.11432 0.72880
 C808 C 0.20110 -0.13457 0.72618
 C809 C 0.27677 -0.12755 0.74367
 C810 C 0.26054 -0.10766 0.74725
 C811 C 0.20866 -0.17743 0.71448
 C812 C 0.19257 -0.15730 0.71731
 H813 H 0.29614 -0.12518 0.74803
 H814 H 0.26784 -0.09050 0.75429
 H815 H 0.20134 -0.19463 0.70755
 H816 H 0.17329 -0.15954 0.71250
 H817 H 0.24312 -0.21274 0.71020
 H818 H 0.30400 -0.16776 0.73421
 H819 H 0.22602 -0.07229 0.75154
 H820 H 0.16586 -0.11601 0.72386
 C821 C 0.73909 0.34516 0.21999
 C822 C 0.74872 0.34101 0.19646
 C823 C 0.76425 0.32068 0.19248
 C824 C 0.77031 0.30478 0.21189
 C825 C 0.76049 0.30918 0.23534
 C826 C 0.74478 0.32932 0.23948
 C827 C 0.72291 0.36663 0.22434
 C828 C 0.71326 0.37075 0.24784
 C829 C 0.69798 0.39125 0.25191
 C830 C 0.69254 0.40776 0.23275
 C831 C 0.70245 0.40328 0.20927
 C832 C 0.71755 0.38269 0.20495
 C833 C 0.73472 0.33402 0.26273
 C834 C 0.71917 0.35435 0.26682
 C835 C 0.74281 0.35741 0.17748
 C836 C 0.72753 0.37793 0.18167
 H837 H 0.73894 0.32190 0.27790
 H838 H 0.71182 0.35733 0.28504
 H839 H 0.75014 0.35442 0.15926
 H840 H 0.72352 0.39019 0.16655
 H841 H 0.77202 0.31737 0.17449
 H842 H 0.76512 0.29685 0.25023
 H843 H 0.69018 0.39422 0.26994
 H844 H 0.69876 0.41600 0.19446
 C845 C 0.73905 0.65371 0.27835
 C846 C 0.74078 0.67173 0.26002
 C847 C 0.75681 0.69169 0.26341
 C848 C 0.77051 0.69386 0.28513
 C849 C 0.76830 0.67592 0.30349
 C850 C 0.75280 0.65558 0.30007
 C851 C 0.72271 0.63236 0.27466
 C852 C 0.72164 0.61393 0.29262
 C853 C 0.70656 0.59337 0.28873
 C854 C 0.69225 0.59151 0.26735
 C855 C 0.69313 0.61031 0.24971
 C856 C 0.70863 0.63068 0.25313
 C857 C 0.75096 0.63697 0.31778
 C858 C 0.73575 0.61641 0.31405
 C859 C 0.72650 0.66936 0.23869
 C860 C 0.71058 0.64926 0.23537
 H861 H 0.76152 0.63819 0.33457
 H862 H 0.73502 0.60236 0.32807
 H863 H 0.72761 0.68317 0.22446
 H864 H 0.69987 0.64814 0.21867
 H865 H 0.75857 0.70566 0.24939
 H866 H 0.77909 0.67764 0.32011
 H867 H 0.70575 0.57888 0.30233
 H868 H 0.68221 0.60872 0.23316
 C869 C 0.24159 0.15122 0.77803
 C870 C 0.24289 0.17003 0.76046
 C871 C 0.25887 0.18991 0.76442
 C872 C 0.27295 0.19122 0.78597
 C873 C 0.27121 0.17248 0.80356
 C874 C 0.25576 0.15221 0.79955
 C875 C 0.22521 0.13002 0.77375
 C876 C 0.22451 0.11084 0.79095
 C877 C 0.20926 0.09049 0.78655
 C878 C 0.19443 0.08960 0.76545
 C879 C 0.19502 0.10910 0.74857
 C880 C 0.21066 0.12927 0.75248
 C881 C 0.25431 0.13283 0.81647
 C882 C 0.23906 0.11242 0.81217
 C883 C 0.22818 0.16855 0.73934
 C884 C 0.21222 0.14859 0.73549
 H885 H 0.26519 0.13337 0.83309
 H886 H 0.23861 0.09778 0.82560
 H887 H 0.22896 0.18298 0.72571
 H888 H 0.20114 0.14819 0.71900
 H889 H 0.26028 0.20450 0.75100
 H890 H 0.28227 0.17359 0.82005
 H891 H 0.20867 0.07546 0.79957
 H892 H 0.18367 0.10827 0.73225
 C893 C 0.21829 0.25891 0.14952
 C894 C 0.19422 0.25083 0.15461
 C895 C 0.19025 0.23523 0.17464
 C896 C 0.21016 0.22769 0.18944
 C897 C 0.23418 0.23594 0.18404
 C898 C 0.23835 0.25160 0.16411
 C899 C 0.22258 0.27534 0.12849
 C900 C 0.24663 0.28349 0.12345
 C901 C 0.25060 0.29917 0.10349
 C902 C 0.23074 0.30663 0.08853
 C903 C 0.20673 0.29816 0.09386
 C904 C 0.20255 0.28257 0.11385
 C905 C 0.26216 0.26013 0.15849
 C906 C 0.26622 0.27583 0.13852
 C907 C 0.17464 0.25846 0.13954
 C908 C 0.17874 0.27404 0.11948
 H909 H 0.27778 0.25463 0.16962
 H910 H 0.28487 0.28200 0.13483
 H911 H 0.15599 0.25233 0.14326
 H912 H 0.16313 0.27948 0.10831
 H913 H 0.17179 0.22872 0.17865
 H914 H 0.24949 0.23026 0.19551
 H915 H 0.26908 0.30583 0.09980
 H916 H 0.19137 0.30346 0.08229
 C917 C 0.72555 0.76319 0.65220
 C918 C 0.74575 0.74984 0.66136
 C919 C 0.74229 0.73416 0.68141
 C920 C 0.71873 0.73142 0.69213
 C921 C 0.69861 0.74479 0.68238
 C922 C 0.70197 0.76088 0.66263
 C923 C 0.72912 0.77979 0.63119
 C924 C 0.70897 0.79339 0.62220
 C925 C 0.71249 0.80917 0.60222
 C926 C 0.73583 0.81097 0.59100
 C927 C 0.75580 0.79713 0.60017
 C928 C 0.75260 0.78164 0.62040
 C929 C 0.68223 0.77468 0.65305
 C930 C 0.68569 0.79075 0.63325
 C931 C 0.76901 0.75238 0.65025
 C932 C 0.77236 0.76793 0.63005
 H933 H 0.66395 0.77309 0.66096
 H934 H 0.66999 0.80109 0.62646
 H935 H 0.78475 0.74215 0.65715
 H936 H 0.79056 0.76925 0.62193
 H937 H 0.75796 0.72413 0.68869
 H938 H 0.68030 0.74255 0.69003
 H939 H 0.69704 0.81965 0.59504
 H940 H 0.77383 0.79864 0.59166
 C941 C 0.77724 0.76085 0.34988
 C942 C 0.75753 0.75718 0.33359
 C943 C 0.76086 0.74155 0.31340
 C944 C 0.78383 0.73012 0.30926
 C945 C 0.80348 0.73414 0.32559
 C946 C 0.80021 0.74933 0.34612
 C947 C 0.77375 0.77703 0.37131
 C948 C 0.79327 0.78031 0.38787
 C949 C 0.78977 0.79553 0.40835
 C950 C 0.76710 0.80790 0.41211
 C951 C 0.74782 0.80450 0.39506
 C952 C 0.75096 0.78891 0.37481
 C953 C 0.81936 0.75317 0.36302
 C954 C 0.81591 0.76829 0.38361
 C955 C 0.73494 0.76927 0.33778
 C956 C 0.73175 0.78498 0.35797
 H957 H 0.83714 0.74434 0.36035
 H958 H 0.83113 0.77069 0.39625
 H959 H 0.71962 0.76664 0.32530
 H960 H 0.71406 0.79403 0.36048
 H961 H 0.74583 0.73846 0.30069
 H962 H 0.82107 0.72512 0.32240
 H963 H 0.80464 0.79750 0.42145
 H964 H 0.73045 0.81419 0.39732
 C965 C 0.27815 0.25847 -0.14886
 C966 C 0.25774 0.25066 -0.16265
 C967 C 0.26156 0.23509 -0.18279
 C968 C 0.28560 0.22753 -0.18929
 C969 C 0.30586 0.23554 -0.17526
 C970 C 0.30223 0.25098 -0.15497
 C971 C 0.27423 0.27483 -0.12762
 C972 C 0.29461 0.28252 -0.11375
 C973 C 0.29078 0.29805 -0.09356
 C974 C 0.26677 0.30608 -0.08732
 C975 C 0.24656 0.29817 -0.10154
 C976 C 0.25018 0.28248 -0.12165
 C977 C 0.32217 0.25906 -0.14064
 C978 C 0.31842 0.27452 -0.12035
 C979 C 0.23394 0.25865 -0.15606
 C980 C 0.23022 0.27434 -0.13593
 H981 H 0.34084 0.25338 -0.14514
 H982 H 0.33431 0.28033 -0.10978
 H983 H 0.21804 0.25278 -0.16657
 H984 H 0.21157 0.28012 -0.13151
 H985 H 0.24595 0.22907 -0.19363
 H986 H 0.32434 0.22952 -0.18006
 H987 H 0.30644 0.30367 -0.08257
 H988 H 0.22806 0.30449 -0.09720
 C989 C 0.72203 0.23860 -0.15251
 C990 C 0.74224 0.24520 -0.16719
 C991 C 0.73843 0.26095 -0.18714
 C992 C 0.71461 0.26989 -0.19253
 C993 C 0.69454 0.26301 -0.17768
 C994 C 0.69816 0.24743 -0.15757
 C995 C 0.72594 0.22214 -0.13142
 C996 C 0.70577 0.21570 -0.11664
 C997 C 0.70958 0.20008 -0.09660
 C998 C 0.73332 0.19067 -0.09140
 C999 C 0.75333 0.19736 -0.10649
 C1000 C 0.74976 0.21316 -0.12646
 C1001 C 0.67843 0.24056 -0.14237
 C1002 C 0.68218 0.22500 -0.12222
 C1003 C 0.76582 0.23589 -0.16162
 C1004 C 0.76950 0.22009 -0.14163
 H1005 H 0.65994 0.24728 -0.14606
 H1006 H 0.66647 0.22016 -0.11094
 H1007 H 0.78155 0.24083 -0.17282
 H1008 H 0.78798 0.21329 -0.13800
 H1009 H 0.75386 0.26614 -0.19865
 H1010 H 0.67625 0.27008 -0.18168
 H1011 H 0.69410 0.19545 -0.08492
 H1012 H 0.77161 0.19001 -0.10291
 C1013 C 0.22273 0.73985 0.34883
 C1014 C 0.21163 0.72978 0.32790
 C1015 C 0.20756 0.74486 0.30748
 C1016 C 0.21378 0.77007 0.30814
 C1017 C 0.22448 0.77987 0.32957
 C1018 C 0.22939 0.76478 0.34976
 C1019 C 0.22743 0.72401 0.37023
 C1020 C 0.23912 0.73394 0.39088
 C1021 C 0.24374 0.71878 0.41109
 C1022 C 0.23601 0.69397 0.41120
 C1023 C 0.22411 0.68442 0.39025
 C1024 C 0.22009 0.69926 0.36963
 C1025 C 0.24087 0.77412 0.37085
 C1026 C 0.24585 0.75891 0.39099
 C1027 C 0.20481 0.70484 0.32785
 C1028 C 0.20878 0.68989 0.34844
 H1029 H 0.24618 0.79332 0.37174
 H1030 H 0.25484 0.76681 0.40685
 H1031 H 0.19616 0.69684 0.31184
 H1032 H 0.20307 0.67080 0.34770
 H1033 H 0.19956 0.73701 0.29107
 H1034 H 0.22903 0.79926 0.33052
 H1035 H 0.25349 0.72639 0.42664
 H1036 H 0.21761 0.66559 0.39002
 C1037 C 0.28160 0.74076 0.65523
 C1038 C 0.27738 0.76618 0.65307
 C1039 C 0.28134 0.78143 0.67339
 C1040 C 0.28894 0.77136 0.69592
 C1041 C 0.29304 0.74579 0.69775
 C1042 C 0.28957 0.73043 0.67741
 C1043 C 0.27754 0.72465 0.63389
 C1044 C 0.28211 0.69926 0.63594
 C1045 C 0.27830 0.68404 0.61554
 C1046 C 0.26959 0.69404 0.59340
 C1047 C 0.26497 0.71950 0.59170
 C1048 C 0.26910 0.73494 0.61185
 C1049 C 0.29383 0.70493 0.67879
 C1050 C 0.29026 0.68962 0.65838
 C1051 C 0.26918 0.77583 0.63065
 C1052 C 0.26501 0.76045 0.61042
 H1053 H 0.30003 0.69675 0.69579
 H1054 H 0.29381 0.67007 0.66021
 H1055 H 0.26583 0.79541 0.62878
 H1056 H 0.25857 0.76861 0.59350
 H1057 H 0.27847 0.80111 0.67178
 H1058 H 0.29878 0.73793 0.71505
 H1059 H 0.28168 0.66441 0.61693
 H1060 H 0.25850 0.72727 0.57460
 C1061 C 0.77611 0.23648 0.14736
 C1062 C 0.80023 0.24276 0.15436
 C1063 C 0.80373 0.25855 0.17437
 C1064 C 0.78332 0.26795 0.18744
 C1065 C 0.75925 0.26136 0.18018
 C1066 C 0.75553 0.24569 0.16013
 C1067 C 0.77230 0.22000 0.12623
 C1068 C 0.74817 0.21387 0.11913
 C1069 C 0.74465 0.19829 0.09895
 C1070 C 0.76507 0.18881 0.08595
 C1071 C 0.78916 0.19511 0.09339
 C1072 C 0.79288 0.21075 0.11349
 C1073 C 0.73167 0.23905 0.15255
 C1074 C 0.72804 0.22343 0.13238
 C1075 C 0.82036 0.23317 0.14114
 C1076 C 0.81675 0.21741 0.12107
 H1077 H 0.71564 0.24603 0.16225
 H1078 H 0.70933 0.21880 0.12711
 H1079 H 0.83907 0.23787 0.14635
 H1080 H 0.83277 0.21042 0.11138
 H1081 H 0.82228 0.26376 0.17966
 H1082 H 0.74348 0.26838 0.19026
 H1083 H 0.72607 0.19330 0.09354
 H1084 H 0.80496 0.18814 0.08332
 C1085 C 0.47295 0.40045 0.50793
 C1086 C 0.49348 0.41453 0.50094
 C1087 C 0.48998 0.43488 0.48556
 C1088 C 0.46617 0.44120 0.47729
 C1089 C 0.44580 0.42684 0.48443
 C1090 C 0.44909 0.40642 0.49976
 C1091 C 0.47652 0.37905 0.52414
 C1092 C 0.45600 0.36495 0.53111
 C1093 C 0.45949 0.34464 0.54655
 C1094 C 0.48327 0.33844 0.55512
 C1095 C 0.50363 0.35284 0.54790
 C1096 C 0.50036 0.37313 0.53239
 C1097 C 0.42902 0.39185 0.50709
 C1098 C 0.43242 0.37144 0.52248
 C1099 C 0.51706 0.40802 0.50954
 C1100 C 0.52044 0.38768 0.52502
 H1101 H 0.41052 0.39625 0.50089
 H1102 H 0.41645 0.36070 0.52771
 H1103 H 0.53304 0.41875 0.50429
 H1104 H 0.53893 0.38331 0.53127
 H1105 H 0.50565 0.44598 0.48017
 H1106 H 0.42750 0.43154 0.47787
 H1107 H 0.44374 0.33350 0.55168
 H1108 H 0.52195 0.34847 0.55463
 C1109 C -0.02107 0.90129 0.00725
 C1110 C -0.01874 0.89779 -0.01811
 C1111 C -0.02255 0.91781 -0.03381
 C1112 C -0.02871 0.94117 -0.02433
 C1113 C -0.03031 0.94450 0.00118
 C1114 C -0.02675 0.92455 0.01707
 C1115 C -0.01788 0.88011 0.02381
 C1116 C -0.02073 0.88349 0.04914
 C1117 C -0.01816 0.86317 0.06476
 C1118 C -0.01266 0.83967 0.05521
 C1119 C -0.00962 0.83670 0.02977
 C1120 C -0.01232 0.85684 0.01397
 C1121 C -0.02913 0.92727 0.04253
 C1122 C -0.02621 0.90708 0.05829
 C1123 C -0.01303 0.87426 -0.02726
 C1124 C -0.00983 0.85413 -0.01148
 H1125 H -0.03350 0.94512 0.05033
 H1126 H -0.02839 0.90993 0.07780
 H1127 H -0.01115 0.87134 -0.04679
 H1128 H -0.00555 0.83627 -0.01929
 H1129 H -0.02134 0.91518 -0.05344
 H1130 H -0.03472 0.96254 0.00852
 H1131 H -0.02024 0.86565 0.08434
 H1132 H -0.00566 0.81862 0.02226
 C1133 C 0.02576 0.60004 0.00627
 C1134 C 0.00551 0.58581 -0.00123
 C1135 C 0.00947 0.56576 -0.01697
 C1136 C 0.03345 0.55995 -0.02521
 C1137 C 0.05354 0.57442 -0.01748
 C1138 C 0.04980 0.59449 -0.00174
 C1139 C 0.02173 0.62115 0.02282
 C1140 C 0.04199 0.63536 0.03031
 C1141 C 0.03807 0.65540 0.04607
 C1142 C 0.01410 0.66125 0.05439
 C1143 C -0.00602 0.64677 0.04663
 C1144 C -0.00230 0.62670 0.03085
 C1145 C 0.06960 0.60917 0.00612
 C1146 C 0.06576 0.62926 0.02188
 C1147 C -0.01826 0.59192 0.00720
 C1148 C -0.02210 0.61202 0.02297
 H1149 H 0.08823 0.60508 0.00006
 H1150 H 0.08154 0.64010 0.02751
 H1151 H -0.03403 0.58108 0.00155
 H1152 H -0.04072 0.61610 0.02904
 H1153 H -0.00599 0.55453 -0.02274
 H1154 H 0.07198 0.57010 -0.02393
 H1155 H 0.05362 0.66661 0.05162
 H1156 H -0.02448 0.65092 0.05315
 C1157 C 0.52548 0.09860 0.50764
 C1158 C 0.50500 0.08462 0.50030
 C1159 C 0.50859 0.06449 0.48459
 C1160 C 0.53244 0.05831 0.47626
 C1161 C 0.55279 0.07248 0.48388
 C1162 C 0.54941 0.09269 0.49954
 C1163 C 0.52180 0.11988 0.52406
 C1164 C 0.54226 0.13394 0.53128
 C1165 C 0.53866 0.15420 0.54683
 C1166 C 0.51480 0.16040 0.55525
 C1167 C 0.49450 0.14602 0.54780
 C1168 C 0.49789 0.12578 0.53218
 C1169 C 0.56943 0.10718 0.50719
 C1170 C 0.56592 0.12747 0.52277
 C1171 C 0.48135 0.09107 0.50883
 C1172 C 0.47787 0.11128 0.52452
 H1173 H 0.58797 0.10281 0.50105
 H1174 H 0.58185 0.13817 0.52822
 H1175 H 0.46541 0.08041 0.50332
 H1176 H 0.45933 0.11563 0.53067
 H1177 H 0.49293 0.05350 0.47888
 H1178 H 0.57113 0.06788 0.47733
 H1179 H 0.55436 0.16532 0.55213
 H1180 H 0.47612 0.15038 0.55442
 C1181 C -0.02759 0.10341 0.49233
 C1182 C -0.01369 0.08181 0.48869
 C1183 C -0.01703 0.06189 0.50461
 C1184 C -0.03437 0.06343 0.52366
 C1185 C -0.04828 0.08504 0.52704
 C1186 C -0.04482 0.10524 0.51150
 C1187 C -0.02410 0.12446 0.47571
 C1188 C -0.03770 0.14619 0.47960
 C1189 C -0.03413 0.16624 0.46389
 C1190 C -0.01743 0.16449 0.44421
 C1191 C -0.00414 0.14249 0.44040
 C1192 C -0.00725 0.12246 0.45625
 C1193 C -0.05820 0.12722 0.51470
 C1194 C -0.05462 0.14739 0.49908
 C1195 C 0.00312 0.08056 0.46913
 C1196 C 0.00622 0.10051 0.45312
 H1197 H -0.07150 0.12886 0.52944
 H1198 H -0.06525 0.16403 0.50222
 H1199 H 0.01390 0.06399 0.46611
 H1200 H 0.01931 0.09876 0.43822
 H1201 H -0.00652 0.04505 0.50212
 H1202 H -0.06164 0.08597 0.54179
 H1203 H -0.04453 0.18310 0.46673
 H1204 H 0.00889 0.14118 0.42538
 C1205 C 0.47446 0.59701 0.99355
 C1206 C 0.49443 0.58217 1.00082
 C1207 C 0.49016 0.56236 1.01667
 C1208 C 0.46615 0.55741 1.02522
 C1209 C 0.44633 0.57240 1.01764
 C1210 C 0.45038 0.59227 1.00183
 C1211 C 0.47886 0.61798 0.97703
 C1212 C 0.45892 0.63290 0.96988
 C1213 C 0.46321 0.65289 0.95428
 C1214 C 0.48724 0.65800 0.94576
 C1215 C 0.50702 0.64277 0.95311
 C1216 C 0.50293 0.62276 0.96877
 C1217 C 0.43089 0.60758 0.99424
 C1218 C 0.43509 0.62757 0.97855
 C1219 C 0.51825 0.58748 0.99213
 C1220 C 0.52243 0.60742 0.97636
 H1221 H 0.41224 0.60411 1.00052
 H1222 H 0.41954 0.63895 0.97316
 H1223 H 0.53381 0.57616 0.99759
 H1224 H 0.54109 0.61090 0.97010
 H1225 H 0.50540 0.55072 1.02236
 H1226 H 0.42787 0.56870 1.02435
 H1227 H 0.44791 0.66469 0.94906
 H1228 H 0.52552 0.64632 0.94642
 C1229 C 0.52800 0.89748 0.99658
 C1230 C 0.50719 0.91124 1.00374
 C1231 C 0.51033 0.93164 1.01917
 C1232 C 0.53405 0.93834 1.02729
 C1233 C 0.55471 0.92438 1.01988
 C1234 C 0.55178 0.90388 1.00457
 C1235 C 0.52483 0.87601 0.98036
 C1236 C 0.54562 0.86223 0.97325
 C1237 C 0.54252 0.84187 0.95777
 C1238 C 0.51886 0.83535 0.94922
 C1239 C 0.49820 0.84941 0.95660
 C1240 C 0.50108 0.86972 0.97220
 C1241 C 0.57214 0.88962 0.99710
 C1242 C 0.56911 0.86912 0.98173
 C1243 C 0.48371 0.90434 0.99527
 C1244 C 0.48071 0.88395 0.97973
 H1245 H 0.59057 0.89436 1.00317
 H1246 H 0.58529 0.85862 0.97638
 H1247 H 0.46753 0.91481 1.00065
 H1248 H 0.46229 0.87929 0.97356
 H1249 H 0.49445 0.94249 1.02472
 H1250 H 0.57296 0.92941 1.02627
 H1251 H 0.55850 0.83099 0.95255
 H1252 H 0.47996 0.84480 0.94988
 C1253 C 0.02693 0.40650 0.48808
 C1254 C 0.00703 0.42153 0.49523
 C1255 C 0.01127 0.44108 0.51147
 C1256 C 0.03521 0.44570 0.52035
 C1257 C 0.05499 0.43060 0.51283
 C1258 C 0.05093 0.41087 0.49678
 C1259 C 0.02253 0.38568 0.47130
 C1260 C 0.04236 0.37043 0.46447
 C1261 C 0.03801 0.35041 0.44885
 C1262 C 0.01406 0.34567 0.43988
 C1263 C -0.00555 0.36140 0.44675
 C1264 C -0.00144 0.38133 0.46257
 C1265 C 0.07033 0.39530 0.48940
 C1266 C 0.06611 0.37538 0.47357
 C1267 C -0.01669 0.41664 0.48606
 C1268 C -0.02085 0.39692 0.46995
 H1269 H 0.08892 0.39847 0.49600
 H1270 H 0.08156 0.36374 0.46842
 H1271 H -0.03219 0.42813 0.49140
 H1272 H -0.03943 0.39375 0.46333
 H1273 H -0.00392 0.45281 0.51716
 H1274 H 0.07338 0.43404 0.51983
 H1275 H 0.05318 0.33826 0.44408
 H1276 H -0.02398 0.35821 0.43972
 C1277 C 0.40309 0.51181 0.47390
 C1278 C 0.40980 0.50573 0.44981
 C1279 C 0.42947 0.48936 0.44584
 C1280 C 0.44251 0.47919 0.46574
 C1281 C 0.43559 0.48563 0.48978
 C1282 C 0.41582 0.50186 0.49397
 C1283 C 0.38226 0.52885 0.47819
 C1284 C 0.37539 0.53475 0.50228
 C1285 C 0.35544 0.55081 0.50625
 C1286 C 0.34248 0.56103 0.48632
 C1287 C 0.34973 0.55498 0.46228
 C1288 C 0.36957 0.53885 0.45811
 C1289 C 0.40850 0.50830 0.51781
 C1290 C 0.38860 0.52445 0.52189
 C1291 C 0.39664 0.51608 0.43019
 C1292 C 0.37688 0.53239 0.43427
 H1293 H 0.41819 0.50075 0.53344
 H1294 H 0.38351 0.52888 0.54056
 H1295 H 0.40165 0.51154 0.41152
 H1296 H 0.36722 0.53996 0.41863
 H1297 H 0.43454 0.48432 0.42731
 H1298 H 0.44568 0.47805 0.50515
 H1299 H 0.35014 0.55558 0.52479
 H1300 H 0.33967 0.56251 0.44686
 C1301 C 0.90345 0.00782 -0.02987
 C1302 C 0.92410 0.01690 -0.04243
 C1303 C 0.94474 0.00159 -0.04576
 C1304 C 0.94466 -0.02290 -0.03713
 C1305 C 0.92344 -0.03179 -0.02505
 C1306 C 0.90301 -0.01641 -0.02101
 C1307 C 0.88185 0.02397 -0.02595
 C1308 C 0.86145 0.01506 -0.01288
 C1309 C 0.84107 0.03056 -0.00897
 C1310 C 0.84058 0.05465 -0.01864
 C1311 C 0.86125 0.06314 -0.03191
 C1312 C 0.88201 0.04799 -0.03536
 C1313 C 0.88215 -0.02475 -0.00820
 C1314 C 0.86180 -0.00922 -0.00404
 C1315 C 0.92368 0.04113 -0.05140
 C1316 C 0.90293 0.05636 -0.04807
 H1317 H 0.88161 -0.04340 -0.00120
 H1318 H 0.84614 -0.01634 0.00603
 H1319 H 0.93948 0.04835 -0.06119
 H1320 H 0.90331 0.07487 -0.05541
 H1321 H 0.96090 0.00876 -0.05498
 H1322 H 0.92282 -0.05069 -0.01878
 H1323 H 0.82572 0.02382 0.00178
 H1324 H 0.86113 0.08139 -0.03987
 C1325 C 0.59647 0.00841 0.02979
 C1326 C 0.58079 0.00173 0.01044
 C1327 C 0.56122 -0.01447 0.01497
 C1328 C 0.55719 -0.02372 0.03866
 C1329 C 0.57291 -0.01667 0.05790
 C1330 C 0.59271 -0.00070 0.05354
 C1331 C 0.61733 0.02513 0.02507
 C1332 C 0.63327 0.03145 0.04431
 C1333 C 0.65333 0.04701 0.03963
 C1334 C 0.65738 0.05649 0.01595
 C1335 C 0.64095 0.05014 -0.00305
 C1336 C 0.62102 0.03433 0.00137
 C1337 C 0.60895 0.00619 0.07236
 C1338 C 0.62894 0.02193 0.06781
 C1339 C 0.58504 0.01134 -0.01302
 C1340 C 0.60478 0.02743 -0.01747
 H1341 H 0.60626 -0.00074 0.09075
 H1342 H 0.64111 0.02669 0.08281
 H1343 H 0.57304 0.00636 -0.02808
 H1344 H 0.60743 0.03441 -0.03584
 H1345 H 0.54899 -0.01984 0.00021
 H1346 H 0.56987 -0.02397 0.07609
 H1347 H 0.66601 0.05136 0.05433
 H1348 H 0.64357 0.05758 -0.02124
 C1349 C 0.10111 0.51248 0.52719
 C1350 C 0.08607 0.50661 0.50709
 C1351 C 0.06570 0.49112 0.51055
 C1352 C 0.06027 0.48171 0.53391
 C1353 C 0.07547 0.48786 0.55388
 C1354 C 0.09599 0.50318 0.55060
 C1355 C 0.12263 0.52865 0.52365
 C1356 C 0.13777 0.53435 0.54370
 C1357 C 0.15822 0.54972 0.54024
 C1358 C 0.16346 0.55962 0.51698
 C1359 C 0.14802 0.55366 0.49707
 C1360 C 0.12764 0.53812 0.50029
 C1361 C 0.11156 0.50931 0.57023
 C1362 C 0.13213 0.52459 0.56682
 C1363 C 0.09171 0.51638 0.48397
 C1364 C 0.11211 0.53192 0.48064
 H1365 H 0.10782 0.50222 0.58837
 H1366 H 0.14368 0.52886 0.58244
 H1367 H 0.08023 0.51201 0.46833
 H1368 H 0.11577 0.53910 0.46252
 H1369 H 0.05392 0.48648 0.49520
 H1370 H 0.07143 0.48043 0.57182
 H1371 H 0.17016 0.55378 0.55562
 H1372 H 0.15162 0.56140 0.47916
 C1373 C 0.09863 0.49176 -0.02955
 C1374 C 0.09350 0.50003 -0.05335
 C1375 C 0.07322 0.51568 -0.05720
 C1376 C 0.05819 0.52305 -0.03746
 C1377 C 0.06362 0.51460 -0.01372
 C1378 C 0.08382 0.49891 -0.00966
 C1379 C 0.11994 0.47530 -0.02538
 C1380 C 0.12504 0.46699 -0.00160
 C1381 C 0.14529 0.45130 0.00225
 C1382 C 0.16046 0.44397 -0.01746
 C1383 C 0.15506 0.45259 -0.04119
 C1384 C 0.13480 0.46821 -0.04526
 C1385 C 0.08950 0.49021 0.01387
 C1386 C 0.10975 0.47450 0.01783
 C1387 C 0.10880 0.49254 -0.07278
 C1388 C 0.12911 0.47692 -0.06880
 H1389 H 0.07820 0.49559 0.02937
 H1390 H 0.11348 0.46820 0.03626
 H1391 H 0.10504 0.49882 -0.09121
 H1392 H 0.14044 0.47159 -0.08428
 H1393 H 0.06919 0.52234 -0.07545
 H1394 H 0.05198 0.52016 0.00147
 H1395 H 0.14904 0.44452 0.02052
 H1396 H 0.16678 0.44738 -0.05644
 C1397 C 0.59624 0.98866 0.47027
 C1398 C 0.59067 0.99701 0.44660
 C1399 C 0.57071 1.01317 0.44327
 C1400 C 0.55646 1.02103 0.46340
 C1401 C 0.56233 1.01249 0.48701
 C1402 C 0.58219 0.99625 0.49055
 C1403 C 0.61727 0.97173 0.47390
 C1404 C 0.62284 0.96336 0.49756
 C1405 C 0.64299 0.94744 0.50094
 C1406 C 0.65763 0.94003 0.48089
 C1407 C 0.65169 0.94854 0.45726
 C1408 C 0.63150 0.96437 0.45366
 C1409 C 0.58831 0.98746 0.51394
 C1410 C 0.60828 0.97127 0.51739
 C1411 C 0.60522 0.98911 0.42678
 C1412 C 0.62531 0.97308 0.43025
 H1413 H 0.57760 0.99317 0.52973
 H1414 H 0.61241 0.96497 0.53573
 H1415 H 0.60110 0.99543 0.40844
 H1416 H 0.63613 0.96751 0.41449
 H1417 H 0.56634 1.01988 0.42512
 H1418 H 0.55127 1.01839 0.50250
 H1419 H 0.64763 0.94123 0.51922
 H1420 H 0.66270 0.94273 0.44171
 C1421 C 0.89921 0.99605 0.52927
 C1422 C 0.91400 0.99312 0.55013
 C1423 C 0.93418 1.00885 0.55371
 C1424 C 0.94039 1.02683 0.53608
 C1425 C 0.92517 1.02931 0.51519
 C1426 C 0.90446 1.01425 0.51189
 C1427 C 0.87782 0.97972 0.52554
 C1428 C 0.86263 0.98311 0.50502
 C1429 C 0.84222 0.96765 0.50164
 C1430 C 0.83734 0.94826 0.51813
 C1431 C 0.85307 0.94508 0.53852
 C1432 C 0.87304 0.96098 0.54250
 C1433 C 0.88891 1.01700 0.49149
 C1434 C 0.86823 1.00183 0.48822
 C1435 C 0.90840 0.97440 0.56694
 C1436 C 0.88841 0.95845 0.56306
 H1437 H 0.89271 1.03106 0.47797
 H1438 H 0.85667 1.00463 0.47228
 H1439 H 0.91971 0.97188 0.58309
 H1440 H 0.88489 0.94410 0.57635
 H1441 H 0.94496 1.00692 0.57026
 H1442 H 0.92933 1.04296 0.50138
 H1443 H 0.83013 0.97091 0.48620
 H1444 H 0.85010 0.93007 0.55117
 C1445 C 0.40043 0.49029 0.03028
 C1446 C 0.41531 0.49701 0.01034
 C1447 C 0.43560 0.51248 0.01429
 C1448 C 0.44108 0.52114 0.03796
 C1449 C 0.42598 0.51419 0.05775
 C1450 C 0.40560 0.49877 0.05401
 C1451 C 0.37901 0.47408 0.02622
 C1452 C 0.36409 0.46741 0.04614
 C1453 C 0.34374 0.45201 0.04217
 C1454 C 0.33829 0.44320 0.01850
 C1455 C 0.35352 0.45010 -0.00125
 C1456 C 0.37387 0.46556 0.00250
 C1457 C 0.39025 0.49171 0.07348
 C1458 C 0.36983 0.47631 0.06961
 C1459 C 0.40958 0.48812 -0.01313
 C1460 C 0.38922 0.47264 -0.01698
 H1461 H 0.39403 0.49815 0.09187
 H1462 H 0.35845 0.47131 0.08513
 H1463 H 0.42092 0.49317 -0.02866
 H1464 H 0.38546 0.46618 -0.03537
 H1465 H 0.44728 0.51770 -0.00094
 H1466 H 0.43004 0.52103 0.07595
 H1467 H 0.33197 0.44713 0.05745
 H1468 H 0.34974 0.44317 -0.01947
 C1469 C 0.51086 0.47316 0.40124
 C1470 C 0.50496 0.49313 0.41655
 C1471 C 0.48910 0.48941 0.43648
 C1472 C 0.47926 0.46592 0.44115
 C1473 C 0.48549 0.44607 0.42572
 C1474 C 0.50122 0.44960 0.40567
 C1475 C 0.52739 0.47699 0.38014
 C1476 C 0.53313 0.45706 0.36475
 C1477 C 0.54878 0.46081 0.34466
 C1478 C 0.55884 0.48425 0.33999
 C1479 C 0.55286 0.50403 0.35569
 C1480 C 0.53709 0.50051 0.37575
 C1481 C 0.50743 0.43010 0.38988
 C1482 C 0.52308 0.43378 0.36974
 C1483 C 0.51503 0.51640 0.41157
 C1484 C 0.53086 0.52002 0.39154
 H1485 H 0.50009 0.41186 0.39309
 H1486 H 0.52738 0.41825 0.35799
 H1487 H 0.51065 0.53195 0.42325
 H1488 H 0.53824 0.53826 0.38836
 H1489 H 0.48444 0.50465 0.44847
 H1490 H 0.47777 0.42803 0.42922
 H1491 H 0.55288 0.44553 0.33252
 H1492 H 0.56072 0.52206 0.35249
 C1493 C 0.01286 -0.02770 0.89813
 C1494 C 0.02294 -0.02738 0.92182
 C1495 C 0.00737 -0.03128 0.94194
 C1496 C -0.01806 -0.03503 0.93846
 C1497 C -0.02791 -0.03525 0.91466
 C1498 C -0.01248 -0.03173 0.89436
 C1499 C 0.02914 -0.02372 0.87688
 C1500 C 0.01914 -0.02443 0.85319
 C1501 C 0.03475 -0.02081 0.83304
 C1502 C 0.06007 -0.01612 0.83652
 C1503 C 0.06976 -0.01528 0.86040
 C1504 C 0.05440 -0.01926 0.88067
 C1505 C -0.02183 -0.03217 0.87040
 C1506 C -0.00627 -0.02867 0.85015
 C1507 C 0.04832 -0.02305 0.92486
 C1508 C 0.06377 -0.01897 0.90464
 H1509 H -0.04133 -0.03530 0.86726
 H1510 H -0.01420 -0.02922 0.83196
 H1511 H 0.05630 -0.02272 0.94304
 H1512 H 0.08323 -0.01561 0.90780
 H1513 H 0.01482 -0.03109 0.96034
 H1514 H -0.04751 -0.03834 0.91210
 H1515 H 0.02720 -0.02126 0.81467
 H1516 H 0.08930 -0.01191 0.86313
 C1517 C 0.01377 0.03040 0.59608
 C1518 C 0.00911 0.01153 0.57910
 C1519 C -0.00775 0.01579 0.56006
 C1520 C -0.02027 0.03848 0.55838
 C1521 C -0.01508 0.05729 0.57532
 C1522 C 0.00193 0.05337 0.59423
 C1523 C 0.03116 0.02595 0.61637
 C1524 C 0.03578 0.04483 0.63334
 C1525 C 0.05204 0.04040 0.65280
 C1526 C 0.06341 0.01721 0.65552
 C1527 C 0.05865 -0.00150 0.63828
 C1528 C 0.04259 0.00281 0.61859
 C1529 C 0.00712 0.07184 0.61148
 C1530 C 0.02381 0.06766 0.63068
 C1531 C 0.02117 -0.01126 0.58171
 C1532 C 0.03757 -0.01557 0.60116
 H1533 H -0.00188 0.08964 0.61020
 H1534 H 0.02722 0.08236 0.64366
 H1535 H 0.01773 -0.02596 0.56874
 H1536 H 0.04632 -0.03348 0.60263
 H1537 H -0.01151 0.00146 0.54676
 H1538 H -0.02463 0.07480 0.57393
 H1539 H 0.05539 0.05477 0.66616
 H1540 H 0.06753 -0.01932 0.64015
 C1541 C 0.51005 0.52618 0.10224
 C1542 C 0.50081 0.50569 0.08953
 C1543 C 0.48493 0.50943 0.06961
 C1544 C 0.47819 0.53345 0.06246
 C1545 C 0.48755 0.55376 0.07553
 C1546 C 0.50355 0.55024 0.09537
 C1547 C 0.52686 0.52237 0.12312
 C1548 C 0.53621 0.54287 0.13573
 C1549 C 0.55224 0.53915 0.15553
 C1550 C 0.55884 0.51515 0.16282
 C1551 C 0.54923 0.49479 0.14998
 C1552 C 0.53327 0.49831 0.13007
 C1553 C 0.51321 0.57029 0.10849
 C1554 C 0.52929 0.56667 0.12831
 C1555 C 0.50769 0.48189 0.09699
 C1556 C 0.52362 0.47826 0.11693
 H1557 H 0.50833 0.58894 0.10336
 H1558 H 0.53635 0.58263 0.13791
 H1559 H 0.50069 0.46594 0.08734
 H1560 H 0.52845 0.45961 0.12210
 H1561 H 0.47795 0.49375 0.05951
 H1562 H 0.48225 0.57227 0.07026
 H1563 H 0.55931 0.55490 0.16550
 H1564 H 0.55444 0.47627 0.15529
 C1565 C 0.48902 -0.02897 0.10334
 C1566 C 0.49732 -0.05292 0.09801
 C1567 C 0.51321 -0.05666 0.07809
 C1568 C 0.52083 -0.03667 0.06359
 C1569 C 0.51239 -0.01277 0.06925
 C1570 C 0.49644 -0.00882 0.08909
 C1571 C 0.47224 -0.02493 0.12422
 C1572 C 0.46386 -0.00101 0.12949
 C1573 C 0.44780 0.00271 0.14930
 C1574 C 0.44017 -0.01728 0.16385
 C1575 C 0.44889 -0.04114 0.15832
 C1576 C 0.46487 -0.04508 0.13850
 C1577 C 0.48769 0.01485 0.09494
 C1578 C 0.47165 0.01869 0.11478
 C1579 C 0.48956 -0.07261 0.11274
 C1580 C 0.47363 -0.06875 0.13266
 H1581 H 0.49327 0.03055 0.08407
 H1582 H 0.46531 0.03723 0.11865
 H1583 H 0.49586 -0.09117 0.10883
 H1584 H 0.46809 -0.08444 0.14355
 H1585 H 0.51987 -0.07504 0.07393
 H1586 H 0.51810 0.00262 0.05802
 H1587 H 0.44096 0.02109 0.15317
 H1588 H 0.44346 -0.05660 0.16960
 C1589 C 0.99211 0.47517 0.59857
 C1590 C 0.99994 0.45138 0.59202
 C1591 C 1.01548 0.44833 0.57171
 C1592 C 1.02328 0.46888 0.55810
 C1593 C 1.01533 0.49261 0.56498
 C1594 C 0.99966 0.49586 0.58518
 C1595 C 0.97566 0.47846 0.61985
 C1596 C 0.96766 0.50222 0.62630
 C1597 C 0.95185 0.50523 0.64644
 C1598 C 0.94413 0.48468 0.66018
 C1599 C 0.95255 0.46100 0.65350
 C1600 C 0.96821 0.45778 0.63330
 C1601 C 0.99133 0.51936 0.59223
 C1602 C 0.97556 0.52248 0.61242
 C1603 C 0.99210 0.43113 0.60593
 C1604 C 0.97654 0.43428 0.62626
 H1605 H 0.99701 0.53546 0.58203
 H1606 H 0.96953 0.54091 0.61720
 H1607 H 0.99805 0.41269 0.60108
 H1608 H 0.97092 0.41818 0.63650
 H1609 H 1.02176 0.43007 0.56658
 H1610 H 1.02120 0.50842 0.55443
 H1611 H 0.94527 0.52349 0.65117
 H1612 H 0.94711 0.44510 0.66414
 C1613 C 0.98931 0.52713 0.89835
 C1614 C 0.99595 0.55131 0.90460
 C1615 C 1.01187 0.55522 0.92444
 C1616 C 1.02101 0.53519 0.93809
 C1617 C 1.01407 0.51106 0.93159
 C1618 C 0.99827 0.50692 0.91169
 C1619 C 0.97266 0.52290 0.87741
 C1620 C 0.96613 0.49871 0.87107
 C1621 C 0.95037 0.49479 0.85108
 C1622 C 0.94110 0.51485 0.83755
 C1623 C 0.94783 0.53899 0.84424
 C1624 C 0.96364 0.54311 0.86413
 C1625 C 0.99125 0.48300 0.90484
 C1626 C 0.97547 0.47896 0.88486
 C1627 C 0.98659 0.57106 0.89083
 C1628 C 0.97069 0.56704 0.87095
 H1629 H 0.99805 0.46726 0.91499
 H1630 H 0.97055 0.46022 0.88018
 H1631 H 0.99158 0.58980 0.89547
 H1632 H 0.96387 0.58279 0.86083
 H1633 H 1.01733 0.57380 0.92921
 H1634 H 1.02090 0.49560 0.94213
 H1635 H 0.94507 0.47618 0.84624
 H1636 H 0.94105 0.55451 0.83374
 C1637 C 0.48723 0.02693 0.40002
 C1638 C 0.49463 0.00662 0.41413
 C1639 C 0.51069 0.01031 0.43390
 C1640 C 0.51928 0.03408 0.43959
 C1641 C 0.51161 0.05424 0.42529
 C1642 C 0.49560 0.05077 0.40544
 C1643 C 0.47044 0.02314 0.37912
 C1644 C 0.46313 0.04342 0.36494
 C1645 C 0.44724 0.03971 0.34503
 C1646 C 0.43859 0.01594 0.33930
 C1647 C 0.44610 -0.00418 0.35380
 C1648 C 0.46206 -0.00068 0.37370
 C1649 C 0.48786 0.07061 0.39085
 C1650 C 0.47192 0.06700 0.37092
 C1651 C 0.48583 -0.01694 0.40816
 C1652 C 0.46980 -0.02053 0.38830
 H1653 H 0.49421 0.08908 0.39484
 H1654 H 0.46642 0.08279 0.36012
 H1655 H 0.49140 -0.03275 0.41893
 H1656 H 0.46345 -0.03900 0.38432
 H1657 H 0.51645 -0.00520 0.44499
 H1658 H 0.51836 0.07252 0.42952
 H1659 H 0.44190 0.05527 0.33380
 H1660 H 0.43931 -0.02249 0.34978
   
