data_POSCAR
  _audit_creation_date              2014-09-24
  _audit_creation_method            'ToBaCCo'
  _symmetry_space_group_name_H-M    'P1'
  _symmetry_Int_Tables_number       1
  _symmetry_cell_setting            triclinic
  loop_
  _symmetry_equiv_pos_as_xyz
 x,y,z
_cell_length_a 61.7332
_cell_length_b 61.5726
_cell_length_c 61.7066
_cell_angle_alpha 90.006200
_cell_angle_beta 90.075400
_cell_angle_gamma 90.071700
loop_
  _atom_site_label
  _atom_site_type_symbol
  _atom_site_fract_x
  _atom_site_fract_y
  _atom_site_fract_z
C1 C 0.32730 0.45179 0.92305
 C2 C 0.31833 0.46105 0.90435
 C3 C 0.29990 0.45191 0.89467
 C4 C 0.29009 0.43364 0.90408
 C5 C 0.29885 0.42421 0.92284
 C6 C 0.31761 0.43326 0.93235
 C7 C 0.34616 0.46048 0.93221
 C8 C 0.35572 0.45081 0.95049
 C9 C 0.34591 0.43243 0.95985
 C10 C 0.32692 0.42355 0.95088
 C11 C 0.31735 0.40484 0.95973
 C12 C 0.29876 0.39570 0.95022
 C13 C 0.28951 0.40555 0.93189
 H14 H 0.32602 0.47508 0.89712
 H15 H 0.27590 0.42655 0.89648
 H16 H 0.35349 0.47457 0.92473
 H17 H 0.35328 0.42484 0.97390
 H18 H 0.32454 0.39711 0.97378
 H19 H 0.27528 0.39855 0.92439
 C20 C 0.45115 0.82795 0.42243
 C21 C 0.46008 0.84696 0.43140
 C22 C 0.45114 0.85627 0.45020
 C23 C 0.43334 0.84617 0.46020
 C24 C 0.42423 0.82728 0.45144
 C25 C 0.43311 0.81811 0.43250
 C26 C 0.45955 0.81888 0.40332
 C27 C 0.45005 0.80026 0.39414
 C28 C 0.43222 0.79050 0.40434
 C29 C 0.42365 0.79932 0.42339
 C30 C 0.40536 0.79001 0.43315
 C31 C 0.39633 0.79931 0.45179
 C32 C 0.40596 0.81777 0.46102
 H33 H 0.47376 0.85474 0.42356
 H34 H 0.42619 0.85310 0.47462
 H35 H 0.47325 0.82645 0.39533
 H36 H 0.42476 0.77621 0.39735
 H37 H 0.39778 0.77581 0.42600
 H38 H 0.39899 0.82508 0.47535
 C39 C 0.95203 0.92228 0.82678
 C40 C 0.96080 0.90351 0.81733
 C41 C 0.95113 0.89416 0.79892
 C42 C 0.93278 0.90400 0.78973
 C43 C 0.92383 0.92270 0.79902
 C44 C 0.93340 0.93189 0.81766
 C45 C 0.96127 0.93124 0.84553
 C46 C 0.95205 0.94961 0.85542
 C47 C 0.93354 0.95919 0.84616
 C48 C 0.92410 0.95042 0.82737
 C49 C 0.90523 0.95951 0.81840
 C50 C 0.89559 0.95024 0.79994
 C51 C 0.90509 0.93199 0.79025
 H52 H 0.97492 0.89590 0.82452
 H53 H 0.92509 0.89697 0.77561
 H54 H 0.97543 0.92359 0.85249
 H55 H 0.92630 0.97328 0.85381
 H56 H 0.89779 0.97355 0.82592
 H57 H 0.89775 0.92467 0.77609
 C58 C 0.45151 -0.07522 0.32591
 C59 C 0.46085 -0.09377 0.31673
 C60 C 0.45147 -0.10360 0.29851
 C61 C 0.43290 -0.09448 0.28908
 C62 C 0.42337 -0.07587 0.29808
 C63 C 0.43265 -0.06623 0.31666
 C64 C 0.46042 -0.06596 0.34460
 C65 C 0.45062 -0.04794 0.35440
 C66 C 0.43194 -0.03884 0.34509
 C67 C 0.42284 -0.04789 0.32625
 C68 C 0.40382 -0.03933 0.31713
 C69 C 0.39448 -0.04895 0.29870
 C70 C 0.40439 -0.06711 0.28918
 H71 H 0.47513 -0.10076 0.32412
 H72 H 0.42564 -0.10220 0.27504
 H73 H 0.47474 -0.07315 0.35171
 H74 H 0.42433 -0.02498 0.35278
 H75 H 0.39604 -0.02541 0.32453
 H76 H 0.39722 -0.07469 0.27507
 C77 C 0.82723 0.29921 0.32711
 C78 C 0.81861 0.28983 0.34595
 C79 C 0.80032 0.29891 0.35595
 C80 C 0.79040 0.31725 0.34685
 C81 C 0.79881 0.32681 0.32804
 C82 C 0.81732 0.31779 0.31812
 C83 C 0.84591 0.29066 0.31742
 C84 C 0.85487 0.30054 0.29899
 C85 C 0.84485 0.31889 0.28997
 C86 C 0.82617 0.32762 0.29946
 C87 C 0.81652 0.34637 0.29094
 C88 C 0.79826 0.35548 0.30090
 C89 C 0.78935 0.34556 0.31932
 H90 H 0.82640 0.27575 0.35298
 H91 H 0.77636 0.32428 0.35471
 H92 H 0.85378 0.27657 0.32440
 H93 H 0.85175 0.32664 0.27583
 H94 H 0.82342 0.35418 0.27679
 H95 H 0.77533 0.35260 0.32713
 C96 C -0.20206 0.82599 0.82535
 C97 C -0.21071 0.84490 0.81625
 C98 C -0.20054 0.85504 0.79858
 C99 C -0.18173 0.84572 0.78971
 C100 C -0.17288 0.82669 0.79865
 C101 C -0.18307 0.81683 0.81660
 C102 C -0.21179 0.81652 0.84353
 C103 C -0.20267 0.79811 0.85326
 C104 C -0.18397 0.78877 0.84437
 C105 C -0.17405 0.79805 0.82611
 C106 C -0.15495 0.78923 0.81761
 C107 C -0.14465 0.79901 0.79983
 C108 C -0.15375 0.81764 0.79033
 H109 H -0.22516 0.85182 0.82331
 H110 H -0.17378 0.85354 0.77611
 H111 H -0.22616 0.82386 0.85036
 H112 H -0.17689 0.77460 0.85202
 H113 H -0.14798 0.77495 0.82509
 H114 H -0.14568 0.82523 0.77669
 C115 C 0.92420 0.32630 0.45203
 C116 C 0.93361 0.34488 0.46115
 C117 C 0.95176 0.35470 0.45150
 C118 C 0.96076 0.34541 0.43272
 C119 C 0.95154 0.32672 0.42342
 C120 C 0.93313 0.31717 0.43309
 C121 C 0.90559 0.31709 0.46124
 C122 C 0.89567 0.29897 0.45166
 C123 C 0.90473 0.28972 0.43300
 C124 C 0.92337 0.29873 0.42360
 C125 C 0.93206 0.28994 0.40457
 C126 C 0.95027 0.29942 0.39478
 C127 C 0.96002 0.31771 0.40432
 H128 H 0.92640 0.35183 0.47553
 H129 H 0.97469 0.35300 0.42514
 H130 H 0.89863 0.32437 0.47560
 H131 H 0.89695 0.27577 0.42558
 H132 H 0.92438 0.27593 0.39727
 H133 H 0.97401 0.32508 0.39663
 C134 C 0.42345 0.45010 0.82663
 C135 C 0.43259 0.45867 0.84565
 C136 C 0.45094 0.44897 0.85503
 C137 C 0.46036 0.43077 0.84514
 C138 C 0.45143 0.42201 0.82619
 C139 C 0.43292 0.43168 0.81687
 C140 C 0.40470 0.45923 0.81748
 C141 C 0.39532 0.45008 0.79884
 C142 C 0.40497 0.43194 0.78910
 C143 C 0.42362 0.42262 0.79803
 C144 C 0.43273 0.40399 0.78875
 C145 C 0.45093 0.39418 0.79819
 C146 C 0.46035 0.40336 0.81673
 H147 H 0.42527 0.47264 0.85342
 H148 H 0.47442 0.42314 0.85233
 H149 H 0.39713 0.47318 0.82504
 H150 H 0.39781 0.42474 0.77478
 H151 H 0.42533 0.39691 0.77449
 H152 H 0.47435 0.39563 0.82403
 C153 C 0.82669 0.92449 0.95227
 C154 C 0.81787 0.90558 0.96136
 C155 C 0.79981 0.89538 0.95182
 C156 C 0.79037 0.90454 0.93317
 C157 C 0.79901 0.92347 0.92387
 C158 C 0.81724 0.93348 0.93348
 C159 C 0.84519 0.93421 0.96132
 C160 C 0.85445 0.95274 0.95176
 C161 C 0.84474 0.96181 0.93328
 C162 C 0.82631 0.95225 0.92404
 C163 C 0.81722 0.96087 0.90512
 C164 C 0.79930 0.95087 0.89530
 C165 C 0.79012 0.93229 0.90482
 H166 H 0.82539 0.89872 0.97564
 H167 H 0.77652 0.89667 0.92570
 H168 H 0.85272 0.92710 0.97554
 H169 H 0.85170 0.97603 0.92566
 H170 H 0.82445 0.97513 0.89787
 H171 H 0.77633 0.92454 0.89714
 C172 C 0.32576 0.82889 0.29793
 C173 C 0.31617 0.84776 0.28959
 C174 C 0.29776 0.85675 0.29947
 C175 C 0.28868 0.84645 0.31766
 C176 C 0.29808 0.82757 0.32617
 C177 C 0.31671 0.81874 0.31633
 C178 C 0.34457 0.82033 0.28851
 C179 C 0.35452 0.80184 0.29733
 C180 C 0.34536 0.79166 0.31550
 C181 C 0.32655 0.80002 0.32513
 C182 C 0.31773 0.79034 0.34374
 C183 C 0.29930 0.79924 0.35368
 C184 C 0.28947 0.81769 0.34473
 H185 H 0.32327 0.85573 0.27562
 H186 H 0.27454 0.85323 0.32549
 H187 H 0.35161 0.82830 0.27456
 H188 H 0.35316 0.77745 0.32234
 H189 H 0.32546 0.77617 0.35066
 H190 H 0.27533 0.82459 0.35255
 C191 C 0.82683 0.42387 0.45189
 C192 C 0.81800 0.40474 0.46054
 C193 C 0.79977 0.39501 0.45097
 C194 C 0.79016 0.40465 0.43270
 C195 C 0.79878 0.42376 0.42383
 C196 C 0.81716 0.43343 0.43347
 C197 C 0.84547 0.43331 0.46096
 C198 C 0.85460 0.45212 0.45180
 C199 C 0.84468 0.46170 0.43368
 C200 C 0.82615 0.45242 0.42441
 C201 C 0.81688 0.46154 0.40580
 C202 C 0.79884 0.45181 0.39595
 C203 C 0.78970 0.43307 0.40513
 H204 H 0.82547 0.39716 0.47454
 H205 H 0.77620 0.39717 0.42513
 H206 H 0.85315 0.42581 0.47489
 H207 H 0.85153 0.47611 0.42636
 H208 H 0.82406 0.47595 0.39879
 H209 H 0.77580 0.42553 0.39741
 C210 C 0.95294 0.82520 -0.07544
 C211 C 0.96150 0.84384 -0.06552
 C212 C 0.95172 0.85260 -0.04697
 C213 C 0.93351 0.84236 -0.03799
 C214 C 0.92476 0.82372 -0.04769
 C215 C 0.93445 0.81511 -0.06653
 C216 C 0.96217 0.81690 -0.09447
 C217 C 0.95304 0.79870 -0.10482
 C218 C 0.93476 0.78860 -0.09574
 C219 C 0.92536 0.79671 -0.07672
 C220 C 0.90663 0.78712 -0.06809
 C221 C 0.89684 0.79582 -0.04950
 C222 C 0.90607 0.81394 -0.03926
 H223 H 0.97549 0.85189 -0.07249
 H224 H 0.92582 0.84911 -0.02375
 H225 H 0.97618 0.82492 -0.10133
 H226 H 0.92761 0.77464 -0.10376
 H227 H 0.89948 0.77322 -0.07612
 H228 H 0.89835 0.82069 -0.02500
 C229 C 0.32733 0.32608 0.79875
 C230 C 0.31836 0.34522 0.79022
 C231 C 0.29979 0.35446 0.79958
 C232 C 0.28998 0.34432 0.81743
 C233 C 0.29872 0.32522 0.82614
 C234 C 0.31744 0.31605 0.81679
 C235 C 0.34628 0.31706 0.78994
 C236 C 0.35545 0.29826 0.79902
 C237 C 0.34537 0.28825 0.81677
 C238 C 0.32652 0.29706 0.82577
 C239 C 0.31699 0.28749 0.84402
 C240 C 0.29860 0.29677 0.85356
 C241 C 0.28938 0.31547 0.84444
 H242 H 0.32597 0.35317 0.77651
 H243 H 0.27575 0.35139 0.82480
 H244 H 0.35416 0.32482 0.77628
 H245 H 0.35234 0.27382 0.82392
 H246 H 0.32425 0.27312 0.85103
 H247 H 0.27523 0.32266 0.85195
 C248 C 0.17422 0.54846 0.57571
 C249 C 0.15514 0.53967 0.56700
 C250 C 0.14500 0.54950 0.54913
 C251 C 0.15421 0.56812 0.53975
 C252 C 0.17329 0.57713 0.54826
 C253 C 0.18334 0.56726 0.56631
 C254 C 0.18402 0.53915 0.59402
 C255 C 0.20269 0.54848 0.60311
 C256 C 0.21188 0.56695 0.59351
 C257 C 0.20229 0.57645 0.57526
 C258 C 0.21101 0.59538 0.56622
 C259 C 0.20096 0.60541 0.54846
 C260 C 0.18223 0.59615 0.53941
 H261 H 0.14807 0.52538 0.57438
 H262 H 0.14626 0.57574 0.52605
 H263 H 0.17688 0.52494 0.60157
 H264 H 0.22623 0.57429 0.60047
 H265 H 0.22541 0.60246 0.57334
 H266 H 0.17444 0.60401 0.52575
 C267 C 0.57566 0.70228 0.07501
 C268 C 0.59495 0.71053 0.06621
 C269 C 0.60449 0.70064 0.04806
 C270 C 0.59448 0.68251 0.03850
 C271 C 0.57521 0.67405 0.04709
 C272 C 0.56575 0.68398 0.06538
 C273 C 0.56639 0.71159 0.09362
 C274 C 0.54746 0.70275 0.10268
 C275 C 0.53754 0.68480 0.09280
 C276 C 0.54660 0.67530 0.07434
 C277 C 0.53716 0.65677 0.06515
 C278 C 0.54671 0.64662 0.04724
 C279 C 0.56556 0.65545 0.03808
 H280 H 0.60279 0.72444 0.07364
 H281 H 0.60178 0.67472 0.02460
 H282 H 0.57409 0.72540 0.10136
 H283 H 0.52301 0.67783 0.09970
 H284 H 0.52266 0.65003 0.07234
 H285 H 0.57296 0.64749 0.02428
 C286 C 0.70339 0.17390 0.67602
 C287 C 0.71233 0.18299 0.65714
 C288 C 0.70316 0.20166 0.64778
 C289 C 0.68519 0.21147 0.65762
 C290 C 0.67604 0.20258 0.67639
 C291 C 0.68513 0.18372 0.68565
 C292 C 0.71197 0.15482 0.68511
 C293 C 0.70241 0.14538 0.70354
 C294 C 0.68436 0.15543 0.71311
 C295 C 0.67562 0.17443 0.70424
 C296 C 0.65706 0.18390 0.71329
 C297 C 0.64780 0.20242 0.70388
 C298 C 0.65750 0.21186 0.68562
 H299 H 0.72613 0.17535 0.64943
 H300 H 0.67793 0.22577 0.65047
 H301 H 0.72582 0.14706 0.67760
 H302 H 0.67675 0.14836 0.72724
 H303 H 0.64943 0.17658 0.72733
 H304 H 0.65037 0.22610 0.67822
 C305 C 1.07514 0.04730 0.17431
 C306 C 1.09375 0.03873 0.18415
 C307 C 1.10253 0.04850 0.20273
 C308 C 1.09232 0.06668 0.21185
 C309 C 1.07368 0.07542 0.20223
 C310 C 1.06506 0.06575 0.18334
 C311 C 1.06685 0.03809 0.15524
 C312 C 1.04869 0.04720 0.14493
 C313 C 1.03858 0.06545 0.15412
 C314 C 1.04668 0.07484 0.17321
 C315 C 1.03709 0.09353 0.18199
 C316 C 1.04577 0.10329 0.20065
 C317 C 1.06390 0.09406 0.21080
 H318 H 1.10177 0.02477 0.17710
 H319 H 1.09908 0.07434 0.22613
 H320 H 1.07487 0.02410 0.14832
 H321 H 1.02462 0.07258 0.14614
 H322 H 1.02319 0.10067 0.17401
 H323 H 1.07065 0.10175 0.22511
 C324 C 0.04756 0.17363 1.07636
 C325 C 0.03831 0.15462 1.06790
 C326 C 0.04759 0.14422 1.04989
 C327 C 0.06609 0.15325 1.04012
 C328 C 0.07554 0.17225 1.04841
 C329 C 0.06626 0.18248 1.06664
 C330 C 0.03874 0.18360 1.09477
 C331 C 0.04847 0.20216 1.10368
 C332 C 0.06693 0.21109 1.09384
 C333 C 0.07594 0.20132 1.07541
 C334 C 0.09481 0.20974 1.06596
 C335 C 0.10420 0.19953 1.04797
 C336 C 0.09443 0.18090 1.03914
 H337 H 0.02411 0.14785 1.07565
 H338 H 0.07335 0.14521 1.02627
 H339 H 0.02457 0.17669 1.10252
 H340 H 0.07458 0.22534 1.10073
 H341 H 0.10248 0.22403 1.07281
 H342 H 0.10169 0.17288 1.02533
 C343 C 0.17478 0.67535 0.70233
 C344 C 0.15636 0.68494 0.71155
 C345 C 0.14699 0.70338 0.70210
 C346 C 0.15639 0.71260 0.68357
 C347 C 0.17477 0.70319 0.67415
 C348 C 0.18400 0.68444 0.68348
 C349 C 0.18370 0.65647 0.71128
 C350 C 0.20162 0.64642 0.70155
 C351 C 0.21088 0.65559 0.68288
 C352 C 0.20214 0.67453 0.67370
 C353 C 0.21081 0.68343 0.65461
 C354 C 0.20150 0.70200 0.64521
 C355 C 0.18364 0.71189 0.65517
 H356 H 0.14895 0.67779 0.72580
 H357 H 0.14917 0.72676 0.67613
 H358 H 0.17640 0.64945 0.72560
 H359 H 0.22463 0.64771 0.67532
 H360 H 0.22454 0.67576 0.64681
 H361 H 0.17630 0.72613 0.64799
 C362 C 1.20177 0.17483 0.17347
 C363 C 1.21138 0.15616 0.18223
 C364 C 1.20265 0.14622 0.20078
 C365 C 1.18440 0.15540 0.21081
 C366 C 1.17461 0.17407 0.20224
 C367 C 1.18329 0.18382 0.18347
 C368 C 1.20996 0.18430 0.15451
 C369 C 1.19985 0.20250 0.14533
 C370 C 1.18161 0.21156 0.15543
 C371 C 1.17322 0.20229 0.17441
 C372 C 1.15455 0.21079 0.18414
 C373 C 1.14573 0.20098 0.20265
 C374 C 1.15591 0.18276 0.21176
 H375 H 1.22536 0.14923 0.17425
 H376 H 1.17754 0.14768 0.22505
 H377 H 1.22397 0.17728 0.14657
 H378 H 1.17368 0.22553 0.14835
 H379 H 1.14655 0.22477 0.17707
 H380 H 1.14909 0.17506 0.22598
 C381 C 0.67597 1.07497 0.54663
 C382 C 0.65689 1.06597 0.53808
 C383 C 0.64746 1.04754 0.54762
 C384 C 0.65739 1.03787 0.56570
 C385 C 0.67644 1.04667 0.57448
 C386 C 0.68579 1.06526 0.56490
 C387 C 0.68507 1.09388 0.53769
 C388 C 0.70377 1.10322 0.54683
 C389 C 0.71361 1.09322 0.56476
 C390 C 0.70468 1.07446 0.57391
 C391 C 0.71399 1.06522 0.59244
 C392 C 0.70453 1.04702 0.60228
 C393 C 0.68594 1.03762 0.59309
 H394 H 0.64909 1.07349 0.52423
 H395 H 0.65013 1.02377 0.57325
 H396 H 0.67735 1.10162 0.52391
 H397 H 0.72794 1.10022 0.57208
 H398 H 0.72829 1.07259 0.59946
 H399 H 0.67861 1.02360 0.60080
 C400 C 0.54636 0.57469 0.17526
 C401 C 0.53791 0.56540 0.15625
 C402 C 0.54761 0.54693 0.14706
 C403 C 0.56568 0.53751 0.15718
 C404 C 0.57433 0.54658 0.17613
 C405 C 0.56466 0.56522 0.18523
 C406 C 0.53729 0.59363 0.18415
 C407 C 0.54637 0.60319 0.20274
 C408 C 0.56435 0.59350 0.21271
 C409 C 0.57363 0.57470 0.20402
 C410 C 0.59222 0.56566 0.21344
 C411 C 0.60208 0.54739 0.20419
 C412 C 0.59294 0.53774 0.18573
 H413 H 0.52405 0.57273 0.14830
 H414 H 0.57333 0.52337 0.15014
 H415 H 0.52347 0.60123 0.17639
 H416 H 0.57153 0.60081 0.22696
 H417 H 0.59925 0.57323 0.22763
 H418 H 0.60070 0.52368 0.17856
 C419 C 0.67403 0.70349 0.17413
 C420 C 0.65539 0.71240 0.18344
 C421 C 0.64591 0.70279 0.20173
 C422 C 0.65550 0.68435 0.21106
 C423 C 0.67427 0.67525 0.20197
 C424 C 0.68354 0.68483 0.18336
 C425 C 0.68291 0.71260 0.15533
 C426 C 0.70107 0.70319 0.14548
 C427 C 0.71071 0.68480 0.15483
 C428 C 0.70203 0.67551 0.17369
 C429 C 0.71115 0.65671 0.18269
 C430 C 0.70191 0.64701 0.20110
 C431 C 0.68359 0.65642 0.21074
 H432 H 0.64805 0.72654 0.17607
 H433 H 0.64806 0.67688 0.22512
 H434 H 0.67534 0.72672 0.14816
 H435 H 0.72469 0.67751 0.14710
 H436 H 0.72517 0.64946 0.17507
 H437 H 0.67639 0.64879 0.22485
 C438 C 0.17171 0.04805 1.07612
 C439 C 0.15284 0.03968 1.06652
 C440 C 0.14362 0.04980 1.04830
 C441 C 0.15366 0.06827 1.03945
 C442 C 0.17250 0.07683 1.04886
 C443 C 0.18157 0.06673 1.06728
 C444 C 0.18054 0.03839 1.09474
 C445 C 0.19904 0.04726 1.10472
 C446 C 0.20891 0.06573 1.09568
 C447 C 0.20027 0.07558 1.07710
 C448 C 0.20967 0.09446 1.06853
 C449 C 0.20053 0.10465 1.05034
 C450 C 0.18211 0.09567 1.04048
 H451 H 0.14506 0.02549 1.07345
 H452 H 0.14672 0.07631 1.02548
 H453 H 0.17270 0.02423 1.10158
 H454 H 0.22311 0.07268 1.10341
 H455 H 0.22383 0.10138 1.07625
 H456 H 0.17505 0.10367 1.02650
 C457 C 0.57450 0.17635 0.54616
 C458 C 0.59328 0.18553 0.53734
 C459 C 0.60320 0.20347 0.54728
 C460 C 0.59391 0.21261 0.56592
 C461 C 0.57503 0.20364 0.57493
 C462 C 0.56532 0.18538 0.56503
 C463 C 0.56523 0.15777 0.53684
 C464 C 0.54703 0.14797 0.54629
 C465 C 0.53767 0.15719 0.56481
 C466 C 0.54675 0.17579 0.57431
 C467 C 0.53801 0.18446 0.59336
 C468 C 0.54773 0.20246 0.60341
 C469 C 0.56610 0.21211 0.59405
 H470 H 0.60041 0.17830 0.52305
 H471 H 0.60170 0.22637 0.57366
 H472 H 0.57259 0.15066 0.52261
 H473 H 0.52368 0.14947 0.57213
 H474 H 0.52395 0.17685 0.60055
 H475 H 0.57365 0.22590 0.60196
 C476 C 0.07550 0.54746 0.67333
 C477 C 0.09414 0.53792 0.68210
 C478 C 0.10394 0.54670 0.70066
 C479 C 0.09475 0.56492 0.71075
 C480 C 0.07608 0.57467 0.70217
 C481 C 0.06642 0.56593 0.68334
 C482 C 0.06616 0.53921 0.65433
 C483 C 0.04797 0.54923 0.64512
 C484 C 0.03880 0.56747 0.65521
 C485 C 0.04796 0.57594 0.67425
 C486 C 0.03935 0.59459 0.68402
 C487 C 0.04905 0.60348 0.70260
 C488 C 0.06728 0.59335 0.71173
 H489 H 0.10122 0.52395 0.67418
 H490 H 0.10247 0.57175 0.72500
 H491 H 0.07326 0.52521 0.64639
 H492 H 0.02483 0.57533 0.64809
 H493 H 0.02536 0.60254 0.67694
 H494 H 0.07491 0.60020 0.72598
 C495 C 0.67478 0.57626 0.04772
 C496 C 0.65615 0.56751 0.03805
 C497 C 0.64626 0.54893 0.04676
 C498 C 0.65532 0.53881 0.06501
 C499 C 0.67396 0.54736 0.07487
 C500 C 0.68373 0.56619 0.06622
 C501 C 0.68423 0.59529 0.03958
 C502 C 0.70239 0.60445 0.04977
 C503 C 0.71142 0.59429 0.06801
 C504 C 0.70216 0.57525 0.07635
 C505 C 0.71062 0.56547 0.09504
 C506 C 0.70080 0.54692 0.10384
 C507 C 0.68261 0.53779 0.09361
 H508 H 0.64914 0.57546 0.02406
 H509 H 0.64753 0.52456 0.07177
 H510 H 0.67725 0.60328 0.02557
 H511 H 0.72537 0.60136 0.07599
 H512 H 0.72457 0.57254 0.10309
 H513 H 0.67490 0.52355 0.10042
 C514 C 0.04881 0.67374 0.57616
 C515 C 0.03975 0.68285 0.59487
 C516 C 0.04915 0.70122 0.60456
 C517 C 0.06761 0.71072 0.59522
 C518 C 0.07689 0.70182 0.57646
 C519 C 0.06744 0.68324 0.56689
 C520 C 0.03989 0.65494 0.56689
 C521 C 0.04940 0.64548 0.54855
 C522 C 0.06774 0.65512 0.53920
 C523 C 0.07687 0.67389 0.54830
 C524 C 0.09562 0.68308 0.53941
 C525 C 0.10523 0.70140 0.54895
 C526 C 0.09574 0.71080 0.56738
 H527 H 0.02561 0.67535 0.60204
 H528 H 0.07492 0.72482 0.60284
 H529 H 0.02578 0.64737 0.57413
 H530 H 0.07522 0.64785 0.52511
 H531 H 0.10289 0.67566 0.52529
 H532 H 0.10327 0.72488 0.57480
 C533 C 0.54746 1.07412 0.67490
 C534 C 0.53807 1.06558 0.65600
 C535 C 0.54711 1.04728 0.64579
 C536 C 0.56542 1.03730 0.65491
 C537 C 0.57499 1.04565 0.67376
 C538 C 0.56603 1.06416 0.68381
 C539 C 0.53899 1.09284 0.68468
 C540 C 0.54891 1.10182 0.70310
 C541 C 0.56725 1.09174 0.71205
 C542 C 0.57593 1.07300 0.70247
 C543 C 0.59473 1.06333 0.71084
 C544 C 0.60382 1.04508 0.70071
 C545 C 0.59378 1.03618 0.68234
 H546 H 0.52403 1.07352 0.64911
 H547 H 0.57250 1.02326 0.64700
 H548 H 0.52492 1.10077 0.67773
 H549 H 0.57506 1.09866 0.72616
 H550 H 0.60263 1.07023 0.72496
 H551 H 0.60078 1.02218 0.67439
 C552 C 0.42364 0.32573 0.95242
 C553 C 0.43254 0.34448 0.96170
 C554 C 0.45059 0.35467 0.95230
 C555 C 0.46004 0.34559 0.93366
 C556 C 0.45131 0.32676 0.92419
 C557 C 0.43296 0.31682 0.93356
 C558 C 0.40515 0.31614 0.96139
 C559 C 0.39564 0.29788 0.95167
 C560 C 0.40506 0.28885 0.93303
 C561 C 0.42367 0.29824 0.92386
 C562 C 0.43282 0.28973 0.90487
 C563 C 0.45103 0.29960 0.89544
 C564 C 0.46027 0.31802 0.90522
 H565 H 0.42504 0.35127 0.97602
 H566 H 0.47393 0.35346 0.92630
 H567 H 0.39796 0.32326 0.97570
 H568 H 0.39760 0.27481 0.92548
 H569 H 0.42564 0.27561 0.89719
 H570 H 0.47421 0.32580 0.89796
 C571 C 0.92321 0.45183 0.32679
 C572 C 0.93268 0.46108 0.34535
 C573 C 0.95149 0.45200 0.35452
 C574 C 0.96102 0.43378 0.34471
 C575 C 0.95173 0.42434 0.32627
 C576 C 0.93275 0.43332 0.31725
 C577 C 0.90409 0.46039 0.31791
 C578 C 0.89438 0.45063 0.29975
 C579 C 0.90402 0.43229 0.29027
 C580 C 0.92309 0.42352 0.29895
 C581 C 0.93238 0.40477 0.28998
 C582 C 0.95109 0.39566 0.29914
 C583 C 0.96082 0.40564 0.31711
 H584 H 0.92520 0.47507 0.35294
 H585 H 0.97542 0.42652 0.35158
 H586 H 0.89652 0.47445 0.32527
 H587 H 0.89657 0.42460 0.27637
 H588 H 0.92486 0.39695 0.27613
 H589 H 0.97521 0.39867 0.32431
 C590 C 0.32761 0.95303 0.42296
 C591 C 0.31848 0.96216 0.40427
 C592 C 0.29997 0.95294 0.39479
 C593 C 0.29028 0.93469 0.40437
 C594 C 0.29922 0.92538 0.42312
 C595 C 0.31802 0.93453 0.43243
 C596 C 0.34653 0.96180 0.43196
 C597 C 0.35620 0.95223 0.45023
 C598 C 0.34650 0.93389 0.45974
 C599 C 0.32748 0.92495 0.45094
 C600 C 0.31805 0.90628 0.45998
 C601 C 0.29943 0.89703 0.45067
 C602 C 0.29000 0.90674 0.43236
 H603 H 0.32609 0.97618 0.39692
 H604 H 0.27604 0.92754 0.39693
 H605 H 0.35383 0.97585 0.42436
 H606 H 0.35398 0.92639 0.47378
 H607 H 0.32538 0.89865 0.47402
 H608 H 0.27573 0.89964 0.42500
 O609 O 0.24876 0.55710 0.72096
 O610 O 0.28687 0.54980 0.72333
 O611 O 0.22292 0.50044 0.69158
 O612 O 0.22378 0.46444 0.69751
 O613 O 0.19291 0.52728 0.74751
 O614 O 0.20043 0.52536 0.78555
 O615 O 0.27979 0.44339 0.75160
 O616 O 0.27591 0.44896 0.71388
 O617 O 0.30689 0.49844 0.77813
 O618 O 0.29939 0.53757 0.77599
 O619 O 0.25235 0.47141 0.80582
 O620 O 0.21328 0.47277 0.79824
 O621 O 0.25343 0.44309 0.77737
 O622 O 0.21308 0.45038 0.77401
 O623 O 0.27815 0.49786 0.80603
 O624 O 0.27491 0.53818 0.79797
 O625 O 0.30734 0.47211 0.75222
 O626 O 0.30041 0.47535 0.71224
 O627 O 0.22277 0.55722 0.74718
 O628 O 0.22512 0.54937 0.78594
 O629 O 0.19307 0.50096 0.72151
 O630 O 0.20162 0.46178 0.72572
 O631 O 0.24889 0.52683 0.69151
 O632 O 0.28749 0.52478 0.69969
 Zr633 Zr 0.26234 0.52582 0.72288
 O634 O 0.28323 0.50722 0.74241
 Zr635 Zr 0.22439 0.48739 0.72302
 O636 O 0.24394 0.46673 0.74201
 Zr637 Zr 0.22419 0.52591 0.76093
 O638 O 0.24312 0.50676 0.78192
 Zr639 Zr 0.27681 0.47412 0.73719
 O640 O 0.25740 0.49269 0.71581
 Zr641 Zr 0.27599 0.51242 0.77527
 O642 O 0.25707 0.53337 0.75578
 Zr643 Zr 0.23834 0.47366 0.77488
 O644 O 0.21709 0.49281 0.75589
 O645 O 0.22966 0.52024 0.72828
 O646 O 0.27116 0.47940 0.76999
 C647 C 0.23333 0.56614 0.73158
 C648 C 0.23346 0.51600 0.68257
 C649 C 0.18401 0.51648 0.73208
 C650 C 0.26948 0.43449 0.76731
 C651 C 0.31586 0.48260 0.76807
 C652 C 0.26795 0.48191 0.81471
 H653 H 0.29843 0.51099 0.73911
 H654 H 0.23945 0.51021 0.79712
 H655 H 0.22041 0.52940 0.71892
 H656 H 0.24093 0.45137 0.73845
 H657 H 0.26861 0.45499 0.70091
 H658 H 0.23238 0.45176 0.70226
 H659 H 0.26316 0.53506 0.80840
 H660 H 0.23906 0.55718 0.78444
 H661 H 0.31056 0.48738 0.71541
 H662 H 0.28628 0.51057 0.69228
 H663 H 0.21430 0.48620 0.80698
 H664 H 0.19368 0.51078 0.78502
 H665 H 0.28620 0.55673 0.73779
 H666 H 0.30824 0.53638 0.76270
 H667 H 0.19300 0.46457 0.73895
 H668 H 0.21637 0.43986 0.76236
 O669 O 0.19174 0.02811 0.24814
 O670 O 0.19959 0.02644 0.28628
 O671 O 0.24794 0.05835 0.22196
 O672 O 0.28391 0.05255 0.22215
 O673 O 0.22133 0.00169 0.19215
 O674 O 0.22385 -0.03648 0.20003
 O675 O 0.30579 -0.00091 0.27852
 O676 O 0.29991 0.03693 0.27412
 O677 O 0.25146 -0.02746 0.30632
 O678 O 0.21199 -0.02554 0.29883
 O679 O 0.27797 -0.05569 0.25197
 O680 O 0.27601 -0.04848 0.21258
 O681 O 0.30603 -0.02696 0.25234
 O682 O 0.29843 -0.02428 0.21217
 O683 O 0.25178 -0.05585 0.27790
 O684 O 0.21179 -0.04839 0.27515
 O685 O 0.27748 -0.00121 0.30633
 O686 O 0.27398 0.03857 0.29902
 O687 O 0.19175 0.00187 0.22204
 O688 O 0.19985 -0.03674 0.22474
 O689 O 0.24707 0.02827 0.19203
 O690 O 0.28628 0.02420 0.20008
 O691 O 0.22148 0.05824 0.24771
 O692 O 0.22408 0.05061 0.28625
 Zr693 Zr 0.22312 0.02696 0.26143
 O694 O 0.24212 0.00788 0.28237
 Zr695 Zr 0.26110 0.02690 0.22320
 O696 O 0.28206 0.00820 0.24273
 Zr697 Zr 0.22309 -0.01152 0.22353
 O698 O 0.24246 -0.03216 0.24262
 Zr699 Zr 0.27503 0.01334 0.27562
 O700 O 0.25606 0.03437 0.25620
 Zr701 Zr 0.23711 -0.02516 0.27550
 O702 O 0.21587 -0.00612 0.25644
 Zr703 Zr 0.27536 -0.02488 0.23752
 O704 O 0.25598 -0.00619 0.21620
 O705 O 0.22845 0.02133 0.22874
 O706 O 0.26995 -0.01964 0.27035
 C707 C 0.18275 0.01735 0.23271
 C708 C 0.23230 0.06728 0.23238
 C709 C 0.23166 0.01738 0.18312
 C710 C 0.31466 -0.01669 0.26828
 C711 C 0.26723 -0.01708 0.31510
 C712 C 0.26768 -0.06452 0.26772
 H713 H 0.23849 0.01133 0.29757
 H714 H 0.23910 -0.04746 0.23914
 H715 H 0.21912 0.03056 0.21953
 H716 H 0.29733 0.01185 0.23956
 H717 H 0.29364 0.04981 0.26685
 H718 H 0.29672 0.04791 0.23059
 H719 H 0.21445 -0.05849 0.26298
 H720 H 0.19236 -0.03534 0.23885
 H721 H 0.26185 0.03565 0.30905
 H722 H 0.23825 0.05803 0.28500
 H723 H 0.26294 -0.05764 0.21411
 H724 H 0.23827 -0.03568 0.19307
 H725 H 0.19276 0.01190 0.28576
 H726 H 0.21377 -0.01260 0.30817
 H727 H 0.28352 0.01077 0.19169
 H728 H 0.30854 -0.01212 0.21497
 O729 O 0.50024 0.69348 0.22071
 O730 O 0.46242 0.70157 0.22227
 O731 O 0.52792 0.74969 0.19189
 O732 O 0.52810 0.78552 0.19786
 O733 O 0.55633 0.72187 0.24842
 O734 O 0.54824 0.72407 0.28627
 O735 O 0.47139 0.80786 0.25057
 O736 O 0.47567 0.80209 0.21299
 O737 O 0.44254 0.75359 0.27671
 O738 O 0.44909 0.71445 0.27517
 O739 O 0.49736 0.77955 0.30546
 O740 O 0.53623 0.77732 0.29882
 O741 O 0.49734 0.80765 0.27683
 O742 O 0.53772 0.79923 0.27414
 O743 O 0.47091 0.75376 0.30529
 O744 O 0.47342 0.71315 0.29731
 O745 O 0.44310 0.77994 0.25083
 O746 O 0.45062 0.77619 0.21099
 O747 O 0.52571 0.69275 0.24751
 O748 O 0.52287 0.70075 0.28626
 O749 O 0.55720 0.74827 0.22253
 O750 O 0.54941 0.78779 0.22656
 O751 O 0.50140 0.72387 0.19127
 O752 O 0.46259 0.72674 0.19882
 Zr753 Zr 0.48740 0.72507 0.22241
 O754 O 0.46662 0.74413 0.24157
 Zr755 Zr 0.52622 0.76260 0.22333
 O756 O 0.50679 0.78373 0.24183
 Zr757 Zr 0.52486 0.72411 0.26122
 O758 O 0.50608 0.74379 0.28182
 Zr759 Zr 0.47383 0.77705 0.23638
 O760 O 0.49323 0.75806 0.21542
 Zr761 Zr 0.47319 0.73893 0.27460
 O762 O 0.49189 0.71748 0.25544
 Zr763 Zr 0.51174 0.77675 0.27479
 O764 O 0.53286 0.75702 0.25632
 O765 O 0.52011 0.72988 0.22845
 O766 O 0.47887 0.77179 0.26930
 C767 C 0.51524 0.68408 0.23168
 C768 C 0.51716 0.73443 0.18262
 C769 C 0.56574 0.73252 0.23322
 C770 C 0.48165 0.81654 0.26644
 C771 C 0.43408 0.76962 0.26649
 C772 C 0.48137 0.76950 0.31412
 H773 H 0.45139 0.74069 0.23801
 H774 H 0.50942 0.74031 0.29710
 H775 H 0.52929 0.72051 0.21925
 H776 H 0.51021 0.79901 0.23828
 H777 H 0.48302 0.79584 0.20018
 H778 H 0.51927 0.79819 0.20216
 H779 H 0.48483 0.71623 0.30815
 H780 H 0.50880 0.69323 0.28442
 H781 H 0.44006 0.76452 0.21411
 H782 H 0.46439 0.74082 0.19128
 H783 H 0.53515 0.76366 0.30717
 H784 H 0.55535 0.73849 0.28587
 H785 H 0.46252 0.69477 0.23681
 H786 H 0.44088 0.71538 0.26143
 H787 H 0.55802 0.78460 0.23972
 H788 H 0.53462 0.81008 0.26273
 O789 O 0.05791 0.72190 0.74957
 O790 O 0.04970 0.72374 0.78777
 O791 O 0.00191 0.69269 0.72237
 O792 O -0.03419 0.69879 0.72282
 O793 O 0.02938 0.74901 0.69350
 O794 O 0.02698 0.78727 0.70151
 O795 O -0.05610 0.75255 0.77847
 O796 O -0.05062 0.71450 0.77405
 O797 O -0.00157 0.77778 0.80751
 O798 O 0.03804 0.77542 0.80031
 O799 O -0.02692 0.80700 0.75291
 O800 O -0.02445 0.79962 0.71315
 O801 O -0.05560 0.77894 0.75262
 O802 O -0.04792 0.77648 0.71292
 O803 O -0.00131 0.80653 0.77949
 O804 O 0.03850 0.79874 0.77710
 O805 O -0.02821 0.75218 0.80695
 O806 O -0.02532 0.71259 0.79959
 O807 O 0.05852 0.74861 0.72396
 O808 O 0.05084 0.78714 0.72638
 O809 O 0.00300 0.72307 0.69287
 O810 O -0.03603 0.72718 0.70045
 O811 O 0.02776 0.69228 0.74881
 O812 O 0.02501 0.69973 0.78726
 Zr813 Zr 0.02644 0.72352 0.76260
 O814 O 0.00742 0.74270 0.78339
 Zr815 Zr -0.01114 0.72424 0.72393
 O816 O -0.03205 0.74321 0.74320
 Zr817 Zr 0.02731 0.76220 0.72491
 O818 O 0.00812 0.78301 0.74392
 Zr819 Zr -0.02551 0.73780 0.77616
 O820 O -0.00655 0.71658 0.75695
 Zr821 Zr 0.01300 0.77570 0.77683
 O822 O 0.03416 0.75653 0.75787
 Zr823 Zr -0.02480 0.77624 0.73830
 O824 O -0.00555 0.75729 0.71714
 O825 O 0.02151 0.72940 0.72988
 O826 O -0.01986 0.77072 0.77117
 C827 C 0.06719 0.73283 0.73446
 C828 C 0.01723 0.68349 0.73311
 C829 C 0.01873 0.73365 0.68423
 C830 C -0.06460 0.76861 0.76828
 C831 C -0.01765 0.76770 0.81601
 C832 C -0.01685 0.81553 0.76901
 H833 H 0.01083 0.73910 0.79861
 H834 H 0.01174 0.79829 0.74059
 H835 H 0.03082 0.72013 0.72072
 H836 H -0.04734 0.73982 0.73979
 H837 H -0.04434 0.70151 0.76698
 H838 H -0.04721 0.70379 0.73069
 H839 H 0.03616 0.80887 0.76488
 H840 H 0.05794 0.78587 0.74071
 H841 H -0.01292 0.71496 0.80947
 H842 H 0.01065 0.69267 0.78597
 H843 H -0.01174 0.80914 0.71544
 H844 H 0.01272 0.78647 0.69420
 H845 H 0.05694 0.73808 0.78716
 H846 H 0.03587 0.76257 0.80967
 H847 H -0.03337 0.74088 0.69250
 H848 H -0.05773 0.76395 0.71506
 O849 O -0.02772 -0.05807 -0.00109
 O850 O -0.02553 -0.05015 0.03720
 O851 O -0.05804 -0.00175 -0.02687
 O852 O -0.05215 0.03445 -0.02652
 O853 O -0.00201 -0.02822 -0.05726
 O854 O 0.03635 -0.02564 -0.04959
 O855 O 0.00181 0.05637 0.02869
 O856 O -0.03617 0.05035 0.02458
 O857 O 0.02795 0.00186 0.05685
 O858 O 0.02580 -0.03802 0.04908
 O859 O 0.05616 0.02813 0.00222
 O860 O 0.04836 0.02590 -0.03746
 O861 O 0.02781 0.05646 0.00255
 O862 O 0.02496 0.04908 -0.03724
 O863 O 0.05631 0.00213 0.02845
 O864 O 0.04905 -0.03768 0.02592
 O865 O 0.00207 0.02817 0.05687
 O866 O -0.03736 0.02484 0.04999
 O867 O -0.00178 -0.05800 -0.02737
 O868 O 0.03659 -0.04999 -0.02515
 O869 O -0.02848 -0.00243 -0.05711
 O870 O -0.02423 0.03664 -0.04928
 O871 O -0.05771 -0.02834 -0.00114
 O872 O -0.04983 -0.02580 0.03719
 Zr873 Zr -0.02639 -0.02662 0.01226
 O874 O -0.00722 -0.00747 0.03304
 Zr875 Zr -0.02664 0.01152 -0.02596
 O876 O -0.00764 0.03251 -0.00671
 Zr877 Zr 0.01159 -0.02657 -0.02597
 O878 O 0.03242 -0.00729 -0.00694
 Zr879 Zr -0.01257 0.02553 0.02622
 O880 O -0.03377 0.00642 0.00709
 Zr881 Zr 0.02566 -0.01256 0.02601
 O882 O 0.00654 -0.03384 0.00700
 Zr883 Zr 0.02531 0.02569 -0.01209
 O884 O 0.00629 0.00639 -0.03324
 O885 O -0.02109 -0.02122 -0.02047
 O886 O 0.02027 0.02036 0.02080
 C887 C -0.01714 -0.06705 -0.01661
 C888 C -0.06685 -0.01748 -0.01638
 C889 C -0.01775 -0.01784 -0.06613
 C890 C 0.01760 0.06519 0.01841
 C891 C 0.01778 0.01775 0.06564
 C892 C 0.06499 0.01795 0.01809
 H893 H -0.01057 -0.01109 0.04826
 H894 H 0.04765 -0.01069 -0.01049
 H895 H -0.03041 -0.03057 -0.02961
 H896 H -0.01121 0.04782 -0.00991
 H897 H -0.04915 0.04388 0.01767
 H898 H -0.04713 0.04749 -0.01861
 H899 H 0.05861 -0.03543 0.01327
 H900 H 0.03566 -0.05717 -0.01083
 H901 H -0.03487 0.01221 0.05957
 H902 H -0.05702 -0.01147 0.03619
 H903 H 0.05799 0.01323 -0.03543
 H904 H 0.03529 -0.01129 -0.05675
 H905 H -0.01117 -0.05723 0.03630
 H906 H 0.01336 -0.03582 0.05892
 H907 H -0.01069 0.03412 -0.05747
 H908 H 0.01239 0.05872 -0.03486
 O909 O -0.00229 0.47376 0.44147
 O910 O 0.03622 0.47650 0.44878
 O911 O -0.02640 0.44188 0.49745
 O912 O -0.02508 0.44706 0.53375
 O913 O -0.05823 0.49808 0.47298
 O914 O -0.05099 0.53664 0.47569
 O915 O 0.02912 0.50204 0.55564
 O916 O 0.02555 0.46387 0.54908
 O917 O 0.05580 0.52977 0.50136
 O918 O 0.04762 0.52785 0.46164
 O919 O 0.00132 0.55633 0.52888
 O920 O -0.03840 0.54785 0.52677
 O921 O 0.00227 0.52735 0.55654
 O922 O -0.03734 0.52421 0.54971
 O923 O 0.02675 0.55743 0.50222
 O924 O 0.02387 0.55056 0.46240
 O925 O 0.05677 0.50317 0.52697
 O926 O 0.05071 0.46371 0.52339
 O927 O -0.02917 0.49912 0.44248
 O928 O -0.02721 0.53741 0.45082
 O929 O -0.05706 0.47101 0.49816
 O930 O -0.04854 0.47448 0.53687
 O931 O -0.00120 0.44311 0.47049
 O932 O 0.03699 0.45158 0.47256
 Zr933 Zr 0.01172 0.47471 0.47262
 O934 O 0.03250 0.49396 0.49172
 Zr935 Zr -0.02567 0.47309 0.51136
 O936 O -0.00649 0.49221 0.53226
 Zr937 Zr -0.02713 0.51210 0.47397
 O938 O -0.00811 0.53302 0.49315
 Zr939 Zr 0.02638 0.48799 0.52469
 O940 O 0.00737 0.46667 0.50557
 Zr941 Zr 0.02484 0.52687 0.48725
 O942 O 0.00576 0.50774 0.46604
 Zr943 Zr -0.01260 0.52524 0.52600
 O944 O -0.03370 0.50604 0.50687
 O945 O -0.02097 0.47935 0.47869
 O946 O 0.02026 0.52088 0.52010
 C947 C -0.01829 0.48411 0.43302
 C948 C -0.01611 0.43351 0.48139
 C949 C -0.06661 0.48200 0.48327
 C950 C 0.01851 0.51739 0.56486
 C951 C 0.06503 0.51939 0.51687
 C952 C 0.01670 0.56565 0.51843
 H953 H 0.04771 0.49094 0.48782
 H954 H -0.01199 0.54827 0.49003
 H955 H -0.03017 0.47004 0.46942
 H956 H -0.00937 0.48832 0.54753
 H957 H 0.01894 0.45078 0.54245
 H958 H -0.01727 0.45213 0.54682
 H959 H 0.01110 0.55989 0.46496
 H960 H -0.01301 0.53683 0.44340
 H961 H 0.05969 0.46628 0.51039
 H962 H 0.03647 0.44419 0.48680
 H963 H -0.03639 0.55811 0.51460
 H964 H -0.05788 0.53525 0.49009
 H965 H 0.03489 0.49099 0.44195
 H966 H 0.05769 0.51552 0.46354
 H967 H -0.05691 0.48804 0.53491
 H968 H -0.03482 0.51130 0.55890
 O969 O 0.55729 0.02939 0.50116
 O970 O 0.54897 0.02759 0.46285
 O971 O 0.50091 0.05758 0.52845
 O972 O 0.46494 0.05093 0.52813
 O973 O 0.52902 0.00127 0.55691
 O974 O 0.52710 -0.03709 0.54822
 O975 O 0.44332 -0.00217 0.47234
 O976 O 0.44867 0.03603 0.47739
 O977 O 0.49754 -0.02626 0.44249
 O978 O 0.53777 -0.02321 0.44983
 O979 O 0.47322 -0.05672 0.49657
 O980 O 0.47609 -0.04994 0.53660
 O981 O 0.44424 -0.02899 0.49773
 O982 O 0.45223 -0.02730 0.53725
 O983 O 0.49867 -0.05559 0.46992
 O984 O 0.53793 -0.04771 0.47183
 O985 O 0.47072 -0.00094 0.44364
 O986 O 0.47339 0.03826 0.45132
 O987 O 0.55826 0.00243 0.52649
 O988 O 0.55110 -0.03605 0.52358
 O989 O 0.50246 0.02695 0.55777
 O990 O 0.46370 0.02237 0.55039
 O991 O 0.52658 0.05856 0.50191
 O992 O 0.52430 0.05142 0.46359
 Zr993 Zr 0.52579 0.02741 0.48803
 O994 O 0.50669 0.00842 0.46705
 Zr995 Zr 0.48832 0.02585 0.52676
 O996 O 0.46749 0.00681 0.50743
 Zr997 Zr 0.52717 -0.01159 0.52529
 O998 O 0.50812 -0.03240 0.50594
 Zr999 Zr 0.47378 0.01287 0.47457
 O1000 O 0.49277 0.03399 0.49386
 Zr1001 Zr 0.51261 -0.02459 0.47308
 O1002 O 0.53375 -0.00556 0.49234
 Zr1003 Zr 0.47517 -0.02620 0.51180
 O1004 O 0.49429 -0.00722 0.53314
 O1005 O 0.52102 0.02119 0.52071
 O1006 O 0.47976 -0.02008 0.47899
 C1007 C 0.56676 0.01843 0.51616
 C1008 C 0.51595 0.06709 0.51762
 C1009 C 0.51822 0.01640 0.56634
 C1010 C 0.43503 -0.01846 0.48233
 C1011 C 0.48125 -0.01621 0.43430
 C1012 C 0.48325 -0.06492 0.48029
 H1013 H 0.50994 0.01229 0.45187
 H1014 H 0.51192 -0.04767 0.50901
 H1015 H 0.53024 0.03052 0.52996
 H1016 H 0.45221 0.00994 0.51099
 H1017 H 0.45511 0.04906 0.48429
 H1018 H 0.45182 0.04570 0.52052
 H1019 H 0.53659 -0.05721 0.48469
 H1020 H 0.55786 -0.03475 0.50910
 H1021 H 0.48596 0.03640 0.44159
 H1022 H 0.50977 0.05811 0.46465
 H1023 H 0.48867 -0.05948 0.53385
 H1024 H 0.51292 -0.03648 0.55566
 H1025 H 0.55645 0.01339 0.46347
 H1026 H 0.53472 -0.01094 0.43995
 H1027 H 0.46640 0.00848 0.55800
 H1028 H 0.44250 -0.01466 0.53561
 O1029 O 0.50114 0.55713 0.02711
 O1030 O 0.46274 0.54879 0.02538
 O1031 O 0.52757 0.50122 0.05755
 O1032 O 0.52717 0.46490 0.05182
 O1033 O 0.55714 0.52752 0.00088
 O1034 O 0.54887 0.52475 -0.03744
 O1035 O 0.47199 0.44227 -0.00168
 O1036 O 0.47658 0.44848 0.03644
 O1037 O 0.44298 0.49628 -0.02747
 O1038 O 0.45045 0.53658 -0.02519
 O1039 O 0.49729 0.47088 -0.05636
 O1040 O 0.53734 0.47371 -0.04882
 O1041 O 0.49778 0.44249 -0.02803
 O1042 O 0.53716 0.45001 -0.02592
 O1043 O 0.47094 0.49671 -0.05625
 O1044 O 0.47284 0.53619 -0.04917
 O1045 O 0.44346 0.47000 -0.00151
 O1046 O 0.45061 0.47346 0.03765
 O1047 O 0.52718 0.55711 0.00093
 O1048 O 0.52448 0.54913 -0.03725
 O1049 O 0.55743 0.50178 0.02744
 O1050 O 0.54987 0.46283 0.02380
 O1051 O 0.50156 0.52749 0.05736
 O1052 O 0.46335 0.52481 0.04998
 Zr1053 Zr 0.48792 0.52556 0.02616
 O1054 O 0.46706 0.50609 0.00739
 Zr1055 Zr 0.52634 0.48773 0.02619
 O1056 O 0.50715 0.46652 0.00737
 Zr1057 Zr 0.52570 0.52567 -0.01227
 O1058 O 0.50650 0.50628 -0.03281
 Zr1059 Zr 0.47424 0.47314 0.01270
 O1060 O 0.49336 0.49257 0.03363
 Zr1061 Zr 0.47360 0.51123 -0.02558
 O1062 O 0.49275 0.53272 -0.00685
 Zr1063 Zr 0.51204 0.47338 -0.02568
 O1064 O 0.53324 0.49281 -0.00686
 O1065 O 0.52061 0.52041 0.02054
 O1066 O 0.47920 0.47837 -0.02022
 C1067 C 0.51653 0.56615 0.01633
 C1068 C 0.51697 0.51682 0.06644
 C1069 C 0.56626 0.51716 0.01649
 C1070 C 0.48214 0.43359 -0.01762
 C1071 C 0.43447 0.48027 -0.01720
 C1072 C 0.48131 0.48099 -0.06505
 H1073 H 0.45185 0.50955 0.01093
 H1074 H 0.50981 0.50972 -0.04809
 H1075 H 0.52981 0.52983 0.02971
 H1076 H 0.51054 0.45125 0.01093
 H1077 H 0.48329 0.45520 0.04941
 H1078 H 0.51953 0.45169 0.04682
 H1079 H 0.48584 0.53460 -0.05839
 H1080 H 0.51009 0.55613 -0.03624
 H1081 H 0.44118 0.48625 0.03550
 H1082 H 0.46424 0.51037 0.05698
 H1083 H 0.53462 0.48586 -0.05894
 H1084 H 0.55633 0.51058 -0.03624
 H1085 H 0.46358 0.55598 0.01106
 H1086 H 0.44033 0.53382 -0.01307
 H1087 H 0.55761 0.46507 0.00994
 H1088 H 0.53549 0.44082 -0.01288
 O1089 O 0.69259 0.22360 0.50279
 O1090 O 0.69986 0.22614 0.46440
 O1091 O 0.74858 0.19136 0.52690
 O1092 O 0.78479 0.19651 0.52615
 O1093 O 0.72416 0.24766 0.55893
 O1094 O 0.72733 0.28620 0.55178
 O1095 O 0.80677 0.25102 0.47140
 O1096 O 0.80007 0.21300 0.47523
 O1097 O 0.75272 0.27895 0.44482
 O1098 O 0.71288 0.27728 0.45314
 O1099 O 0.78051 0.30567 0.49926
 O1100 O 0.77863 0.29740 0.53888
 O1101 O 0.80795 0.27642 0.49821
 O1102 O 0.80115 0.27339 0.53805
 O1103 O 0.75384 0.30679 0.47377
 O1104 O 0.71414 0.30032 0.47658
 O1105 O 0.77814 0.25221 0.44391
 O1106 O 0.77411 0.21269 0.45019
 O1107 O 0.69373 0.24905 0.52962
 O1108 O 0.70250 0.28727 0.52792
 O1109 O 0.74923 0.22053 0.55782
 O1110 O 0.78799 0.22398 0.54938
 O1111 O 0.72153 0.19272 0.50172
 O1112 O 0.72344 0.20119 0.46361
 Zr1113 Zr 0.72373 0.22431 0.48893
 O1114 O 0.74289 0.24339 0.46814
 Zr1115 Zr 0.76247 0.22258 0.52644
 O1116 O 0.78346 0.24150 0.50720
 Zr1117 Zr 0.72536 0.26173 0.52783
 O1118 O 0.74465 0.28250 0.50877
 Zr1119 Zr 0.77579 0.23718 0.47433
 O1120 O 0.75659 0.21607 0.49339
 Zr1121 Zr 0.73866 0.27633 0.47579
 O1122 O 0.71738 0.25738 0.49490
 Zr1123 Zr 0.77747 0.27459 0.51323
 O1124 O 0.75824 0.25558 0.53439
 O1125 O 0.72983 0.22893 0.52167
 O1126 O 0.77146 0.27013 0.48037
 C1127 C 0.68415 0.23413 0.51865
 C1128 C 0.73253 0.18303 0.51651
 C1129 C 0.73438 0.23155 0.56736
 C1130 C 0.81611 0.26639 0.48193
 C1131 C 0.76812 0.26844 0.43561
 C1132 C 0.77010 0.31499 0.48382
 H1133 H 0.73894 0.24034 0.45292
 H1134 H 0.74165 0.29777 0.51261
 H1135 H 0.72049 0.21965 0.53082
 H1136 H 0.79871 0.23753 0.51009
 H1137 H 0.79344 0.19998 0.48193
 H1138 H 0.79777 0.20140 0.51813
 H1139 H 0.71663 0.30950 0.48950
 H1140 H 0.69513 0.28682 0.51367
 H1141 H 0.76141 0.21562 0.44086
 H1142 H 0.73762 0.19372 0.46412
 H1143 H 0.76624 0.30741 0.53713
 H1144 H 0.74176 0.28473 0.55864
 H1145 H 0.69318 0.24069 0.46564
 H1146 H 0.71487 0.26514 0.44285
 H1147 H 0.78604 0.23754 0.55777
 H1148 H 0.81041 0.26057 0.53538
 O1149 O 0.80739 0.75093 -0.02830
 O1150 O 0.79925 0.71265 -0.02578
 O1151 O 0.75111 0.77691 -0.05826
 O1152 O 0.71503 0.77673 -0.05208
 O1153 O 0.77822 0.80765 -0.00259
 O1154 O 0.77616 0.80028 0.03577
 O1155 O 0.69345 0.72187 0.00249
 O1156 O 0.69897 0.72567 -0.03554
 O1157 O 0.74804 0.69368 0.02831
 O1158 O 0.78779 0.70130 0.02575
 O1159 O 0.72242 0.74870 0.05641
 O1160 O 0.72469 0.78843 0.04832
 O1161 O 0.69373 0.74829 0.02831
 O1162 O 0.70128 0.78809 0.02517
 O1163 O 0.74824 0.72234 0.05648
 O1164 O 0.78783 0.72470 0.04886
 O1165 O 0.72154 0.69354 0.00261
 O1166 O 0.72432 0.70018 -0.03691
 O1167 O 0.80781 0.77745 -0.00250
 O1168 O 0.80018 0.77564 0.03601
 O1169 O 0.75222 0.80744 -0.02886
 O1170 O 0.71327 0.79978 -0.02428
 O1171 O 0.77743 0.75095 -0.05797
 O1172 O 0.77468 0.71262 -0.04986
 Zr1173 Zr 0.77595 0.73777 -0.02657
 O1174 O 0.75698 0.71720 -0.00710
 Zr1175 Zr 0.73816 0.77628 -0.02674
 O1176 O 0.71732 0.75722 -0.00743
 Zr1177 Zr 0.77658 0.77639 0.01117
 O1178 O 0.75746 0.75759 0.03229
 Zr1179 Zr 0.72404 0.72415 -0.01220
 O1180 O 0.74296 0.74307 -0.03370
 Zr1181 Zr 0.76250 0.72450 0.02568
 O1182 O 0.78360 0.74329 0.00625
 Zr1183 Zr 0.72450 0.76281 0.02544
 O1184 O 0.74368 0.78378 0.00611
 O1185 O 0.77085 0.77066 -0.02144
 O1186 O 0.72961 0.72980 0.02057
 C1187 C 0.81658 0.76648 -0.01787
 C1188 C 0.76665 0.76624 -0.06711
 C1189 C 0.76773 0.81650 -0.01827
 C1190 C 0.68483 0.73233 0.01826
 C1191 C 0.73208 0.68484 0.01829
 C1192 C 0.73262 0.73285 0.06525
 H1193 H 0.76048 0.70191 -0.01040
 H1194 H 0.76105 0.76126 0.04747
 H1195 H 0.78013 0.77971 -0.03087
 H1196 H 0.70203 0.76046 -0.01090
 H1197 H 0.70526 0.73255 -0.04862
 H1198 H 0.70203 0.76893 -0.04689
 H1199 H 0.78575 0.73746 0.05836
 H1200 H 0.80731 0.76128 0.03507
 H1201 H 0.73690 0.69056 -0.03449
 H1202 H 0.76035 0.71371 -0.05700
 H1203 H 0.73740 0.78641 0.05788
 H1204 H 0.76182 0.80741 0.03491
 H1205 H 0.80653 0.71365 -0.01151
 H1206 H 0.78541 0.69135 0.01339
 H1207 H 0.71594 0.80804 -0.01077
 H1208 H 0.69156 0.78570 0.01264
 O1209 O 1.00054 0.19241 0.22219
 O1210 O 0.96249 0.20019 0.22426
 O1211 O 1.02662 0.24863 0.19191
 O1212 O 1.02644 0.28468 0.19755
 O1213 O 1.05682 0.22226 0.24829
 O1214 O 1.04921 0.22459 0.28637
 O1215 O 0.97070 0.30678 0.25123
 O1216 O 0.97466 0.30071 0.21349
 O1217 O 0.94302 0.25245 0.27817
 O1218 O 0.95029 0.21301 0.27654
 O1219 O 0.99779 0.27925 0.30583
 O1220 O 1.03692 0.27724 0.29837
 O1221 O 0.99714 0.30715 0.27700
 O1222 O 1.03734 0.29940 0.27394
 O1223 O 0.97174 0.25305 0.30628
 O1224 O 0.97443 0.21272 0.29887
 O1225 O 0.94281 0.27846 0.25193
 O1226 O 0.94968 0.27469 0.21220
 O1227 O 1.02686 0.19245 0.24816
 O1228 O 1.02441 0.20062 0.28677
 O1229 O 1.05673 0.24803 0.22176
 O1230 O 1.04867 0.28731 0.22567
 O1231 O 1.00078 0.22212 0.19222
 O1232 O 0.96222 0.22482 0.20019
 Zr1233 Zr 0.98731 0.22385 0.22353
 O1234 O 0.96661 0.24292 0.24275
 Zr1235 Zr 1.02558 0.26195 0.22325
 O1236 O 1.00629 0.28301 0.24199
 Zr1237 Zr 1.02552 0.22390 0.26161
 O1238 O 1.00674 0.24343 0.28235
 Zr1239 Zr 0.97335 0.27589 0.23714
 O1240 O 0.99253 0.25684 0.21603
 Zr1241 Zr 0.97379 0.23807 0.27569
 O1242 O 0.99255 0.21669 0.25652
 Zr1243 Zr 1.01184 0.27640 0.27496
 O1244 O 1.03290 0.25686 0.25619
 O1245 O 1.02005 0.22922 0.22889
 O1246 O 0.97896 0.27096 0.27002
 C1247 C 1.01606 0.18342 0.23276
 C1248 C 1.01611 0.23291 0.18311
 C1249 C 1.06574 0.23269 0.23263
 C1250 C 0.98114 0.31574 0.26684
 C1251 C 0.93419 0.26823 0.26787
 C1252 C 0.98207 0.26902 0.31481
 H1253 H 0.95138 0.23926 0.23946
 H1254 H 1.01036 0.24014 0.29760
 H1255 H 1.02920 0.21988 0.21964
 H1256 H 1.00946 0.29830 0.23827
 H1257 H 0.98173 0.29436 0.20057
 H1258 H 1.01798 0.29750 0.20216
 H1259 H 0.98649 0.21563 0.30903
 H1260 H 1.01029 0.19309 0.28543
 H1261 H 0.93965 0.26255 0.21527
 H1262 H 0.96357 0.23893 0.19262
 H1263 H 1.03559 0.26405 0.30742
 H1264 H 1.05611 0.23909 0.28565
 H1265 H 0.96309 0.19344 0.23881
 H1266 H 0.94115 0.21442 0.26344
 H1267 H 1.05726 0.28458 0.23896
 H1268 H 1.03427 0.30970 0.26203
 O1269 O 0.69302 1.02624 0.74722
 O1270 O 0.70005 1.02426 0.78531
 O1271 O 0.74914 1.05703 0.72188
 O1272 O 0.78505 1.05183 0.72277
 O1273 O 0.72354 1.00029 0.69159
 O1274 O 0.72628 0.96229 0.69905
 O1275 O 0.80679 0.99821 0.77937
 O1276 O 0.80049 1.03579 0.77551
 O1277 O 0.75221 0.97031 0.80583
 O1278 O 0.71349 0.97127 0.79806
 O1279 O 0.78040 0.94322 0.75134
 O1280 O 0.77920 0.95072 0.71247
 O1281 O 0.80782 0.97242 0.75295
 O1282 O 0.80071 0.97584 0.71232
 O1283 O 0.75385 0.94238 0.77689
 O1284 O 0.71326 0.94963 0.77319
 O1285 O 0.77793 0.99684 0.80660
 O1286 O 0.77378 1.03692 0.79960
 O1287 O 0.69357 0.99999 0.72115
 O1288 O 0.70228 0.96129 0.72369
 O1289 O 0.74931 1.02684 0.69196
 O1290 O 0.78855 1.02356 0.70099
 O1291 O 0.72264 1.05654 0.74760
 O1292 O 0.72456 1.04832 0.78628
 Zr1293 Zr 0.72415 1.02510 0.76104
 O1294 O 0.74293 1.00590 0.78209
 Zr1295 Zr 0.76270 1.02577 0.72342
 O1296 O 0.78357 1.00728 0.74321
 Zr1297 Zr 0.72508 0.98693 0.72288
 O1298 O 0.74456 0.96634 0.74191
 Zr1299 Zr 0.77586 1.01190 0.77604
 O1300 O 0.75707 1.03290 0.75641
 Zr1301 Zr 0.73855 0.97284 0.77474
 O1302 O 0.71735 0.99195 0.75570
 Zr1303 Zr 0.77745 0.97419 0.73746
 O1304 O 0.75803 0.99272 0.71604
 O1305 O 0.73002 1.01980 0.72839
 O1306 O 0.77139 0.97892 0.77025
 C1307 C 0.68430 1.01539 0.73170
 C1308 C 0.73343 1.06578 0.73234
 C1309 C 0.73409 1.01592 0.68276
 C1310 C 0.81603 0.98266 0.76913
 C1311 C 0.76770 0.98075 0.81500
 C1312 C 0.77002 0.93404 0.76682
 H1313 H 0.73897 1.00909 0.79726
 H1314 H 0.74150 0.95103 0.73817
 H1315 H 0.72076 1.02899 0.71907
 H1316 H 0.79884 1.01121 0.74036
 H1317 H 0.79431 1.04864 0.76811
 H1318 H 0.79753 1.04760 0.73189
 H1319 H 0.71694 0.93899 0.76176
 H1320 H 0.69423 0.96278 0.73747
 H1321 H 0.76195 1.03332 0.80978
 H1322 H 0.73853 1.05615 0.78513
 H1323 H 0.76580 0.94192 0.71306
 H1324 H 0.74085 0.96314 0.69244
 H1325 H 0.69350 1.00959 0.78469
 H1326 H 0.71384 0.98492 0.80649
 H1327 H 0.78597 1.01039 0.69214
 H1328 H 0.81121 0.98742 0.71603
 O1329 O 0.69147 0.52735 0.24895
 O1330 O 0.69911 0.52572 0.28715
 O1331 O 0.74761 0.55817 0.22326
 O1332 O 0.78369 0.55266 0.22405
 O1333 O 0.72183 0.50148 0.19299
 O1334 O 0.72437 0.46333 0.20071
 O1335 O 0.80544 0.49880 0.28007
 O1336 O 0.79942 0.53665 0.27592
 O1337 O 0.75092 0.47182 0.30724
 O1338 O 0.71154 0.47369 0.29944
 O1339 O 0.77802 0.44410 0.25297
 O1340 O 0.77629 0.45168 0.21348
 O1341 O 0.80598 0.47291 0.25373
 O1342 O 0.79886 0.47571 0.21366
 O1343 O 0.75162 0.44369 0.27869
 O1344 O 0.71160 0.45101 0.27557
 O1345 O 0.77682 0.49819 0.30768
 O1346 O 0.77330 0.53800 0.30062
 O1347 O 0.69186 0.50132 0.22266
 O1348 O 0.70016 0.46282 0.22513
 O1349 O 0.74747 0.52816 0.19325
 O1350 O 0.78652 0.52450 0.20171
 O1351 O 0.72095 0.55779 0.24880
 O1352 O 0.72341 0.55005 0.28732
 Zr1353 Zr 0.72277 0.52646 0.26243
 O1354 O 0.74167 0.50733 0.28343
 Zr1355 Zr 0.76107 0.52682 0.22459
 O1356 O 0.78195 0.50807 0.24416
 Zr1357 Zr 0.72328 0.48817 0.22433
 O1358 O 0.74254 0.46750 0.24347
 Zr1359 Zr 0.77462 0.51295 0.27703
 O1360 O 0.75573 0.53404 0.25759
 Zr1361 Zr 0.73685 0.47431 0.27632
 O1362 O 0.71572 0.49337 0.25719
 Zr1363 Zr 0.77544 0.47498 0.23869
 O1364 O 0.75619 0.49375 0.21733
 O1365 O 0.72840 0.52102 0.22976
 O1366 O 0.76972 0.47999 0.27150
 C1367 C 0.68267 0.51660 0.23341
 C1368 C 0.73181 0.56696 0.23357
 C1369 C 0.73225 0.51719 0.18412
 C1370 C 0.81446 0.48312 0.26978
 C1371 C 0.76656 0.48220 0.31622
 C1372 C 0.76763 0.43514 0.26859
 H1373 H 0.73788 0.51067 0.29862
 H1374 H 0.73928 0.45221 0.23986
 H1375 H 0.71909 0.53021 0.22049
 H1376 H 0.79723 0.51181 0.24115
 H1377 H 0.79316 0.54957 0.26870
 H1378 H 0.79650 0.54797 0.23247
 H1379 H 0.71449 0.44090 0.26346
 H1380 H 0.69257 0.46404 0.23920
 H1381 H 0.76099 0.53504 0.31042
 H1382 H 0.73758 0.55750 0.28624
 H1383 H 0.76347 0.44218 0.21509
 H1384 H 0.73886 0.46422 0.19390
 H1385 H 0.69236 0.51114 0.28654
 H1386 H 0.71322 0.48655 0.30891
 H1387 H 0.78408 0.51099 0.19336
 H1388 H 0.80870 0.48808 0.21647
 O1389 O 0.55797 0.22040 0.75040
 O1390 O 0.54932 0.22231 0.78853
 O1391 O 0.50221 0.19127 0.72264
 O1392 O 0.46614 0.19734 0.72285
 O1393 O 0.52982 0.24769 0.69396
 O1394 O 0.52778 0.28587 0.70209
 O1395 O 0.44368 0.25147 0.77792
 O1396 O 0.44917 0.21326 0.77375
 O1397 O 0.49779 0.27668 0.80758
 O1398 O 0.53747 0.27411 0.80103
 O1399 O 0.47334 0.30569 0.75253
 O1400 O 0.47630 0.29807 0.71280
 O1401 O 0.44459 0.27782 0.75204
 O1402 O 0.45260 0.27513 0.71254
 O1403 O 0.49866 0.30526 0.77938
 O1404 O 0.53850 0.29719 0.77762
 O1405 O 0.47115 0.25109 0.80683
 O1406 O 0.47402 0.21154 0.79974
 O1407 O 0.55884 0.24702 0.72471
 O1408 O 0.55135 0.28551 0.72710
 O1409 O 0.50338 0.22181 0.69311
 O1410 O 0.46440 0.22565 0.70045
 O1411 O 0.52777 0.19081 0.74935
 O1412 O 0.52459 0.19831 0.78775
 Zr1413 Zr 0.52634 0.22208 0.76311
 O1414 O 0.50712 0.24137 0.78367
 Zr1415 Zr 0.48914 0.22282 0.72409
 O1416 O 0.46808 0.24190 0.74307
 Zr1417 Zr 0.52769 0.26072 0.72540
 O1418 O 0.50835 0.28161 0.74415
 Zr1419 Zr 0.47425 0.23657 0.77611
 O1420 O 0.49338 0.21524 0.75718
 Zr1421 Zr 0.51284 0.27434 0.77712
 O1422 O 0.53416 0.25508 0.75844
 Zr1423 Zr 0.47550 0.27488 0.73812
 O1424 O 0.49492 0.25583 0.71726
 O1425 O 0.52176 0.22792 0.73032
 O1426 O 0.48004 0.26946 0.77108
 C1427 C 0.56741 0.23128 0.73534
 C1428 C 0.51739 0.18204 0.73354
 C1429 C 0.51908 0.23250 0.68455
 C1430 C 0.43538 0.26755 0.76760
 C1431 C 0.48157 0.26669 0.81592
 C1432 C 0.48329 0.31426 0.76867
 H1433 H 0.51034 0.23780 0.79894
 H1434 H 0.51207 0.29686 0.74081
 H1435 H 0.53112 0.21866 0.72120
 H1436 H 0.45283 0.23853 0.73949
 H1437 H 0.45557 0.20020 0.76695
 H1438 H 0.45307 0.20233 0.73065
 H1439 H 0.53635 0.30732 0.76537
 H1440 H 0.55830 0.28422 0.74151
 H1441 H 0.48646 0.21378 0.80960
 H1442 H 0.51018 0.19137 0.78638
 H1443 H 0.48883 0.30776 0.71537
 H1444 H 0.51360 0.28519 0.69461
 H1445 H 0.55653 0.23667 0.78802
 H1446 H 0.53518 0.26124 0.81034
 H1447 H 0.46701 0.23941 0.69257
 H1448 H 0.44273 0.26264 0.71462
 O1449 O 0.25183 0.77961 0.44261
 O1450 O 0.21345 0.77804 0.45089
 O1451 O 0.27939 0.80801 0.49876
 O1452 O 0.27853 0.80170 0.53491
 O1453 O 0.30739 0.75153 0.47111
 O1454 O 0.29866 0.71323 0.47312
 O1455 O 0.22286 0.74839 0.55665
 O1456 O 0.22779 0.78661 0.55123
 O1457 O 0.19309 0.72401 0.50226
 O1458 O 0.20020 0.72698 0.46225
 O1459 O 0.24721 0.69387 0.52681
 O1460 O 0.28722 0.70080 0.52407
 O1461 O 0.24828 0.72164 0.55579
 O1462 O 0.28770 0.72340 0.54801
 O1463 O 0.22063 0.69487 0.50122
 O1464 O 0.22262 0.70293 0.46175
 O1465 O 0.19414 0.74941 0.52906
 O1466 O 0.20179 0.78871 0.52640
 O1467 O 0.27716 0.75268 0.44184
 O1468 O 0.27397 0.71422 0.44903
 O1469 O 0.30834 0.77725 0.49769
 O1470 O 0.30082 0.77310 0.53651
 O1471 O 0.25285 0.80895 0.47303
 O1472 O 0.21439 0.80201 0.47557
 Zr1473 Zr 0.23866 0.77788 0.47410
 O1474 O 0.21764 0.75889 0.49316
 Zr1475 Zr 0.27731 0.77641 0.51170
 O1476 O 0.25794 0.75743 0.53251
 Zr1477 Zr 0.27579 0.73876 0.47293
 O1478 O 0.25647 0.71805 0.49196
 Zr1479 Zr 0.22507 0.76338 0.52612
 O1480 O 0.24442 0.78451 0.50716
 Zr1481 Zr 0.22365 0.72586 0.48730
 O1482 O 0.24290 0.74487 0.46619
 Zr1483 Zr 0.26234 0.72442 0.52491
 O1484 O 0.28367 0.74333 0.50581
 O1485 O 0.27127 0.77156 0.47899
 O1486 O 0.22954 0.73044 0.52019
 C1487 C 0.26689 0.76866 0.43327
 C1488 C 0.26873 0.81744 0.48353
 C1489 C 0.31684 0.76667 0.48192
 C1490 C 0.23289 0.73214 0.56498
 C1491 C 0.18486 0.73403 0.51853
 C1492 C 0.23102 0.68560 0.51666
 H1493 H 0.20247 0.76273 0.48985
 H1494 H 0.25954 0.70276 0.48819
 H1495 H 0.28058 0.78079 0.46976
 H1496 H 0.26148 0.76063 0.54781
 H1497 H 0.23471 0.79963 0.54482
 H1498 H 0.27095 0.79653 0.54804
 H1499 H 0.23518 0.69311 0.46344
 H1500 H 0.25959 0.71568 0.44207
 H1501 H 0.19214 0.78685 0.51372
 H1502 H 0.21556 0.80875 0.49009
 H1503 H 0.28443 0.69112 0.51158
 H1504 H 0.30616 0.71395 0.48729
 H1505 H 0.21398 0.76379 0.44348
 H1506 H 0.19059 0.73952 0.46504
 H1507 H 0.30841 0.75919 0.53392
 H1508 H 0.28609 0.73611 0.55767
 O1509 O 0.25073 0.27758 0.94217
 O1510 O 0.21265 0.27602 0.95010
 O1511 O 0.27800 0.30696 0.99806
 O1512 O 0.27753 0.30123 1.03407
 O1513 O 0.30651 0.25023 0.97106
 O1514 O 0.29835 0.21219 0.97361
 O1515 O 0.22121 0.24816 1.05632
 O1516 O 0.22548 0.28592 1.05038
 O1517 O 0.19245 0.22198 1.00191
 O1518 O 0.19950 0.22368 0.96264
 O1519 O 0.24694 0.19313 1.02803
 O1520 O 0.28628 0.20016 1.02593
 O1521 O 0.24693 0.22168 1.05626
 O1522 O 0.28700 0.22421 1.04847
 O1523 O 0.22052 0.19331 1.00226
 O1524 O 0.22330 0.20098 0.96200
 O1525 O 0.19291 0.24782 1.02831
 O1526 O 0.20039 0.28766 1.02462
 O1527 O 0.27621 0.25079 0.94183
 O1528 O 0.27330 0.21213 0.94990
 O1529 O 0.30722 0.27630 0.99729
 O1530 O 0.29925 0.27263 1.03654
 O1531 O 0.25167 0.30735 0.97211
 O1532 O 0.21296 0.29994 0.97488
 Zr1533 Zr 0.23760 0.27617 0.97359
 O1534 O 0.21665 0.25709 0.99261
 Zr1535 Zr 0.27611 0.27555 1.01133
 O1536 O 0.25659 0.25695 1.03234
 Zr1537 Zr 0.27504 0.23730 0.97315
 O1538 O 0.25600 0.21672 0.99262
 Zr1539 Zr 0.22368 0.26235 1.02551
 O1540 O 0.24316 0.28334 1.00654
 Zr1541 Zr 0.22317 0.22400 0.98749
 O1542 O 0.24215 0.24305 0.96619
 Zr1543 Zr 0.26148 0.22387 1.02551
 O1544 O 0.28276 0.24245 1.00602
 O1545 O 0.27025 0.27017 0.97869
 O1546 O 0.22866 0.22935 1.02033
 C1547 C 0.26585 0.26659 0.93302
 C1548 C 0.26741 0.31611 0.98263
 C1549 C 0.31584 0.26556 0.98166
 C1550 C 0.23132 0.23221 1.06508
 C1551 C 0.18392 0.23215 1.01791
 C1552 C 0.23092 0.18447 1.01797
 H1553 H 0.20145 0.26066 0.98908
 H1554 H 0.25932 0.20141 0.98920
 H1555 H 0.27951 0.27932 0.96935
 H1556 H 0.25993 0.26054 1.04760
 H1557 H 0.23279 0.29877 1.04408
 H1558 H 0.26904 0.29669 1.04688
 H1559 H 0.23499 0.19040 0.96493
 H1560 H 0.25919 0.21374 0.94244
 H1561 H 0.19012 0.28468 1.01268
 H1562 H 0.21447 0.30733 0.98906
 H1563 H 0.28461 0.19108 1.01281
 H1564 H 0.30546 0.21286 0.98798
 H1565 H 0.21298 0.26150 0.94321
 H1566 H 0.19075 0.23705 0.96404
 H1567 H 0.30749 0.25913 1.03379
 H1568 H 0.28433 0.23629 1.05868
 C1569 C 0.28497 0.40944 0.79855
 C1570 C 0.27143 0.38832 0.79962
 C1571 C 0.29105 0.37556 0.79089
 C1572 C 0.30463 0.39652 0.78992
 C1573 C 0.28333 0.37908 0.76742
 C1574 C 0.26362 0.39205 0.77606
 C1575 C 0.27723 0.41292 0.77513
 C1576 C 0.29683 0.40028 0.76637
 H1577 H 0.28561 0.42222 0.81122
 H1578 H 0.26068 0.38386 0.81331
 H1579 H 0.32156 0.39821 0.79576
 H1580 H 0.28271 0.36638 0.75466
 H1581 H 0.24668 0.39042 0.77022
 H1582 H 0.30725 0.40539 0.75263
 C1583 C 0.28317 -0.08945 0.29895
 C1584 C 0.26958 -0.11054 0.30023
 C1585 C 0.28913 -0.12334 0.29142
 C1586 C 0.30276 -0.10242 0.29027
 C1587 C 0.28129 -0.11997 0.26797
 C1588 C 0.26166 -0.10691 0.27667
 C1589 C 0.27532 -0.08608 0.27555
 C1590 C 0.29484 -0.09880 0.26675
 H1591 H 0.28390 -0.07658 0.31152
 H1592 H 0.25885 -0.11485 0.31398
 H1593 H 0.31972 -0.10070 0.29602
 H1594 H 0.28055 -0.13273 0.25528
 H1595 H 0.24468 -0.10852 0.27092
 H1596 H 0.30518 -0.09377 0.25292
 C1597 C 0.78507 0.90885 0.79795
 C1598 C 0.77151 0.88774 0.79860
 C1599 C 0.79135 0.87505 0.79021
 C1600 C 0.80494 0.89602 0.78967
 C1601 C 0.78414 0.87867 0.76659
 C1602 C 0.76423 0.89158 0.77490
 C1603 C 0.77781 0.91246 0.77441
 C1604 C 0.79763 0.89992 0.76597
 H1605 H 0.78541 0.92155 0.81071
 H1606 H 0.76028 0.88349 0.81196
 H1607 H 0.82174 0.89775 0.79588
 H1608 H 0.78380 0.86605 0.75374
 H1609 H 0.74742 0.88997 0.76868
 H1610 H 0.80831 0.90516 0.75249
 C1611 C 0.45472 0.85092 0.26513
 C1612 C 0.44672 0.85464 0.28858
 C1613 C 0.46040 0.87551 0.28976
 C1614 C 0.46833 0.87204 0.26639
 C1615 C 0.47986 0.86264 0.29873
 C1616 C 0.46620 0.84162 0.29744
 C1617 C 0.47416 0.83816 0.27411
 C1618 C 0.48789 0.85893 0.27525
 H1619 H 0.44442 0.84589 0.25124
 H1620 H 0.42972 0.85307 0.29421
 H1621 H 0.46914 0.88479 0.25370
 H1622 H 0.49050 0.86702 0.31255
 H1623 H 0.46537 0.82880 0.31005
 H1624 H 0.50489 0.86045 0.26963
 C1625 C -0.04802 0.84041 0.78431
 C1626 C -0.03950 0.85338 0.80403
 C1627 C -0.04056 0.87431 0.79043
 C1628 C -0.04919 0.86150 0.77075
 C1629 C -0.01705 0.87099 0.78283
 C1630 C -0.01593 0.84979 0.79634
 C1631 C -0.02458 0.83709 0.77668
 C1632 C -0.02559 0.85792 0.76306
 H1633 H -0.06060 0.82754 0.78488
 H1634 H -0.04538 0.85163 0.82094
 H1635 H -0.06283 0.86571 0.75981
 H1636 H -0.00437 0.88377 0.78225
 H1637 H -0.00218 0.84477 0.80681
 H1638 H -0.01972 0.85956 0.74615
 C1639 C -0.02547 -0.10973 -0.01017
 C1640 C -0.04891 -0.11372 -0.01827
 C1641 C -0.03985 -0.12644 -0.03776
 C1642 C -0.01651 -0.12271 -0.02977
 C1643 C -0.03888 -0.10551 -0.05137
 C1644 C -0.04784 -0.09264 -0.03185
 C1645 C -0.02453 -0.08893 -0.02385
 C1646 C -0.01547 -0.10156 -0.04333
 H1647 H -0.01980 -0.11124 0.00684
 H1648 H -0.06270 -0.11838 -0.00772
 H1649 H -0.00370 -0.13532 -0.02899
 H1650 H -0.04452 -0.10387 -0.06838
 H1651 H -0.06064 -0.08001 -0.03267
 H1652 H -0.00165 -0.09639 -0.05360
 C1653 C -0.02406 0.39076 0.48716
 C1654 C -0.04782 0.38707 0.47993
 C1655 C -0.03960 0.37451 0.45992
 C1656 C -0.01594 0.37796 0.46707
 C1657 C -0.03897 0.39560 0.44653
 C1658 C -0.04709 0.40828 0.46656
 C1659 C -0.02348 0.41175 0.47376
 C1660 C -0.01524 0.39933 0.45377
 H1661 H -0.01779 0.38897 0.50393
 H1662 H -0.06115 0.38274 0.49117
 H1663 H -0.00317 0.36528 0.46723
 H1664 H -0.04523 0.39755 0.42977
 H1665 H -0.05983 0.42100 0.46637
 H1666 H -0.00176 0.40456 0.44309
 C1667 C 0.45205 -0.08998 0.46504
 C1668 C 0.46025 -0.10270 0.44505
 C1669 C 0.45962 -0.12377 0.45847
 C1670 C 0.45131 -0.11118 0.47843
 C1671 C 0.48325 -0.12027 0.46570
 C1672 C 0.48396 -0.09892 0.45238
 C1673 C 0.47562 -0.08648 0.47231
 C1674 C 0.47503 -0.10746 0.48573
 H1675 H 0.43935 -0.07724 0.46480
 H1676 H 0.45404 -0.10084 0.42826
 H1677 H 0.43794 -0.11548 0.48963
 H1678 H 0.49604 -0.13292 0.46594
 H1679 H 0.49746 -0.09367 0.44173
 H1680 H 0.48124 -0.10921 0.50253
 C1681 C 0.45102 0.40840 -0.03291
 C1682 C 0.45960 0.39559 -0.05267
 C1683 C 0.45877 0.37460 -0.03916
 C1684 C 0.45007 0.38725 -0.01942
 C1685 C 0.48226 0.37816 -0.03153
 C1686 C 0.48316 0.39941 -0.04496
 C1687 C 0.47445 0.41195 -0.02525
 C1688 C 0.47366 0.39106 -0.01172
 H1689 H 0.43833 0.42113 -0.03343
 H1690 H 0.45367 0.39732 -0.06958
 H1691 H 0.43650 0.38288 -0.00850
 H1692 H 0.49505 0.36552 -0.03101
 H1693 H 0.49684 0.40461 -0.05542
 H1694 H 0.47959 0.38942 0.00520
 C1695 C 0.76411 0.35729 0.47504
 C1696 C 0.78375 0.37057 0.48348
 C1697 C 0.79127 0.37394 0.45993
 C1698 C 0.77172 0.36087 0.45141
 C1699 C 0.80506 0.35315 0.46107
 C1700 C 0.79745 0.34952 0.48470
 C1701 C 0.77791 0.33659 0.47614
 C1702 C 0.78546 0.33994 0.45264
 H1703 H 0.74720 0.35879 0.48094
 H1704 H 0.78308 0.38340 0.49609
 H1705 H 0.76084 0.36510 0.43773
 H1706 H 0.82196 0.35157 0.45517
 H1707 H 0.80798 0.34465 0.49846
 H1708 H 0.78615 0.32704 0.44011
 C1709 C 0.79885 0.84155 -0.03356
 C1710 C 0.79030 0.85450 -0.05326
 C1711 C 0.79148 0.87546 -0.03969
 C1712 C 0.80014 0.86265 -0.02002
 C1713 C 0.76799 0.87213 -0.03198
 C1714 C 0.76674 0.85092 -0.04546
 C1715 C 0.77541 0.83822 -0.02582
 C1716 C 0.77655 0.85907 -0.01222
 H1717 H 0.81146 0.82872 -0.03418
 H1718 H 0.79608 0.85265 -0.07019
 H1719 H 0.81385 0.86686 -0.00916
 H1720 H 0.75534 0.88491 -0.03137
 H1721 H 0.75293 0.84593 -0.05588
 H1722 H 0.77075 0.86075 0.00471
 C1723 C 0.76708 0.29577 0.40137
 C1724 C 0.79063 0.30358 0.39772
 C1725 C 0.79170 0.28990 0.37686
 C1726 C 0.76823 0.28216 0.38027
 C1727 C 0.80041 0.27029 0.38968
 C1728 C 0.79924 0.28392 0.41069
 C1729 C 0.77581 0.27617 0.41408
 C1730 C 0.77685 0.26245 0.39332
 H1731 H 0.75332 0.30620 0.40637
 H1732 H 0.79647 0.32056 0.39936
 H1733 H 0.75555 0.28148 0.36752
 H1734 H 0.81414 0.25958 0.38520
 H1735 H 0.81183 0.28462 0.42352
 H1736 H 0.77101 0.24546 0.39175
 C1737 C 0.79362 0.76466 -0.10135
 C1738 C 0.78024 0.76573 -0.12259
 C1739 C 0.78810 0.78921 -0.12605
 C1740 C 0.80154 0.78820 -0.10506
 C1741 C 0.76845 0.79808 -0.11348
 C1742 C 0.76048 0.77451 -0.10976
 C1743 C 0.77398 0.77356 -0.08888
 C1744 C 0.78187 0.79699 -0.09236
 H1745 H 0.80392 0.75084 -0.09617
 H1746 H 0.77966 0.75295 -0.13527
 H1747 H 0.81850 0.79396 -0.10323
 H1748 H 0.75778 0.81184 -0.11803
 H1749 H 0.74352 0.76874 -0.11145
 H1750 H 0.78251 0.80977 -0.07967
 C1751 C 0.27673 0.48827 0.85700
 C1752 C 0.26785 0.46874 0.87017
 C1753 C 0.29121 0.46077 0.87372
 C1754 C 0.30019 0.48022 0.86079
 C1755 C 0.29001 0.44697 0.85297
 C1756 C 0.26658 0.45499 0.84917
 C1757 C 0.27558 0.47442 0.83635
 C1758 C 0.29889 0.46644 0.83988
 H1759 H 0.27113 0.50533 0.85843
 H1760 H 0.25516 0.46962 0.88287
 H1761 H 0.31402 0.49088 0.86515
 H1762 H 0.29562 0.42991 0.85148
 H1763 H 0.25269 0.44467 0.84419
 H1764 H 0.31149 0.46554 0.82711
 C1765 C 0.27648 -0.01075 0.35728
 C1766 C 0.26768 -0.03022 0.37060
 C1767 C 0.29105 -0.03826 0.37389
 C1768 C 0.29995 -0.01889 0.36080
 C1769 C 0.28955 -0.05211 0.35318
 C1770 C 0.26610 -0.04400 0.34964
 C1771 C 0.27502 -0.02464 0.33666
 C1772 C 0.29834 -0.03271 0.33994
 H1773 H 0.27096 0.00634 0.35873
 H1774 H 0.25515 -0.02925 0.38344
 H1775 H 0.31387 -0.00826 0.36495
 H1776 H 0.29508 -0.06920 0.35166
 H1777 H 0.25211 -0.05428 0.34484
 H1778 H 0.31079 -0.03370 0.32703
 C1779 C -0.01177 -0.02687 -0.10861
 C1780 C -0.01964 -0.05054 -0.11201
 C1781 C -0.03933 -0.04192 -0.12480
 C1782 C -0.03154 -0.01836 -0.12165
 C1783 C -0.05280 -0.04063 -0.10387
 C1784 C -0.03309 -0.04913 -0.09094
 C1785 C -0.02528 -0.02562 -0.08778
 C1786 C -0.04495 -0.01700 -0.10046
 H1787 H 0.00517 -0.02106 -0.11035
 H1788 H -0.00883 -0.06430 -0.11616
 H1789 H -0.03095 -0.00573 -0.13448
 H1790 H -0.06974 -0.04642 -0.10196
 H1791 H -0.03370 -0.06171 -0.07805
 H1792 H -0.05530 -0.00312 -0.09555
 C1793 C -0.04592 0.48504 0.39898
 C1794 C -0.03271 0.48431 0.37763
 C1795 C -0.03996 0.46062 0.37424
 C1796 C -0.05326 0.46128 0.39531
 C1797 C -0.01994 0.45230 0.38672
 C1798 C -0.01261 0.47608 0.39037
 C1799 C -0.02593 0.47669 0.41133
 C1800 C -0.03323 0.45306 0.40791
 H1801 H -0.05654 0.49860 0.40422
 H1802 H -0.03256 0.49711 0.36497
 H1803 H -0.07003 0.45507 0.39730
 H1804 H -0.00878 0.43889 0.38237
 H1805 H 0.00417 0.48232 0.38855
 H1806 H -0.03341 0.44029 0.42062
 C1807 C 0.45350 -0.01499 0.40041
 C1808 C 0.46677 -0.01550 0.37912
 C1809 C 0.45941 -0.03909 0.37535
 C1810 C 0.44605 -0.03866 0.39638
 C1811 C 0.47932 -0.04769 0.38779
 C1812 C 0.48677 -0.02402 0.39177
 C1813 C 0.47339 -0.02364 0.41271
 C1814 C 0.46599 -0.04717 0.40896
 H1815 H 0.44293 -0.00147 0.40583
 H1816 H 0.46702 -0.00254 0.36661
 H1817 H 0.42923 -0.04482 0.39811
 H1818 H 0.49034 -0.06112 0.38315
 H1819 H 0.50360 -0.01787 0.39010
 H1820 H 0.46572 -0.06007 0.42152
 C1821 C 0.45417 0.48221 -0.09931
 C1822 C 0.46772 0.48104 -0.12040
 C1823 C 0.45977 0.45760 -0.12395
 C1824 C 0.44615 0.45869 -0.10311
 C1825 C 0.47928 0.44864 -0.11113
 C1826 C 0.48731 0.47218 -0.10736
 C1827 C 0.47365 0.47322 -0.08661
 C1828 C 0.46569 0.44984 -0.09013
 H1829 H 0.44388 0.49608 -0.09426
 H1830 H 0.46849 0.49381 -0.13307
 H1831 H 0.42916 0.45301 -0.10151
 H1832 H 0.48991 0.43483 -0.11554
 H1833 H 0.50431 0.47786 -0.10888
 H1834 H 0.46491 0.43716 -0.07738
 C1835 C 0.47264 0.76363 0.35648
 C1836 C 0.48176 0.78321 0.36945
 C1837 C 0.45849 0.79139 0.37306
 C1838 C 0.44928 0.77190 0.36030
 C1839 C 0.45964 0.80501 0.35217
 C1840 C 0.48299 0.79675 0.34833
 C1841 C 0.47375 0.77727 0.33569
 C1842 C 0.45054 0.78549 0.33926
 H1843 H 0.47811 0.74654 0.35804
 H1844 H 0.49455 0.78234 0.38208
 H1845 H 0.43540 0.76136 0.36473
 H1846 H 0.45417 0.82210 0.35055
 H1847 H 0.49692 0.80694 0.34321
 H1848 H 0.43784 0.78637 0.32656
 C1849 C -0.01133 0.77612 0.85835
 C1850 C -0.01902 0.79973 0.86234
 C1851 C -0.03855 0.79086 0.87513
 C1852 C -0.03094 0.76735 0.87140
 C1853 C -0.05233 0.79006 0.85434
 C1854 C -0.03275 0.79880 0.84136
 C1855 C -0.02514 0.77534 0.83765
 C1856 C -0.04465 0.76648 0.85035
 H1857 H 0.00560 0.77023 0.85976
 H1858 H -0.00814 0.81338 0.86676
 H1859 H -0.03022 0.75447 0.88396
 H1860 H -0.06926 0.79594 0.85279
 H1861 H -0.03347 0.81157 0.82870
 H1862 H -0.05514 0.75275 0.84524
 C1863 C 0.40932 0.80081 0.28254
 C1864 C 0.38836 0.80261 0.26891
 C1865 C 0.37541 0.79332 0.28815
 C1866 C 0.39621 0.79163 0.30181
 C1867 C 0.37866 0.77004 0.27966
 C1868 C 0.39185 0.77922 0.26033
 C1869 C 0.41255 0.77757 0.27405
 C1870 C 0.39968 0.76828 0.29328
 H1871 H 0.42225 0.81329 0.28368
 H1872 H 0.38405 0.81675 0.25865
 H1873 H 0.39784 0.79689 0.31895
 H1874 H 0.36583 0.75745 0.27854
 H1875 H 0.39027 0.77398 0.24319
 H1876 H 0.40451 0.75410 0.30327
 C1877 C -0.08983 0.78412 0.79930
 C1878 C -0.10264 0.80383 0.79055
 C1879 C -0.12356 0.79022 0.79134
 C1880 C -0.11090 0.77054 0.80020
 C1881 C -0.11988 0.78249 0.76791
 C1882 C -0.09872 0.79603 0.76703
 C1883 C -0.08618 0.77637 0.77591
 C1884 C -0.10700 0.76273 0.77667
 H1885 H -0.07718 0.78475 0.81209
 H1886 H -0.10100 0.82080 0.79639
 H1887 H -0.11547 0.75976 0.81385
 H1888 H -0.13245 0.78188 0.75505
 H1889 H -0.09353 0.80648 0.75333
 H1890 H -0.10859 0.74575 0.77083
 C1891 C 0.85850 0.27470 0.48772
 C1892 C 0.87132 0.26637 0.46778
 C1893 C 0.87483 0.29003 0.46051
 C1894 C 0.86223 0.29845 0.48034
 C1895 C 0.85387 0.28931 0.44699
 C1896 C 0.85011 0.26558 0.45434
 C1897 C 0.83763 0.27403 0.47417
 C1898 C 0.84112 0.29763 0.46687
 H1899 H 0.86017 0.26854 0.50454
 H1900 H 0.88399 0.25360 0.46811
 H1901 H 0.86680 0.31196 0.49134
 H1902 H 0.85213 0.29548 0.43018
 H1903 H 0.84491 0.25200 0.44370
 H1904 H 0.82840 0.31035 0.46652
 C1905 C 0.85149 0.79264 -0.01634
 C1906 C 0.87231 0.77869 -0.01774
 C1907 C 0.87587 0.78682 -0.04105
 C1908 C 0.85527 0.80082 -0.03972
 C1909 C 0.86271 0.76759 -0.05017
 C1910 C 0.85888 0.75936 -0.02674
 C1911 C 0.83841 0.77343 -0.02545
 C1912 C 0.84196 0.78156 -0.04873
 H1913 H 0.84672 0.80291 -0.00235
 H1914 H 0.88503 0.77757 -0.00506
 H1915 H 0.85389 0.81793 -0.04520
 H1916 H 0.86703 0.75708 -0.06411
 H1917 H 0.86013 0.74224 -0.02125
 H1918 H 0.82920 0.78271 -0.06138
 C1919 C -0.10128 -0.04452 -0.01518
 C1920 C -0.12241 -0.03097 -0.01631
 C1921 C -0.12579 -0.03866 -0.03982
 C1922 C -0.10493 -0.05228 -0.03875
 C1923 C -0.11301 -0.01895 -0.04847
 C1924 C -0.10935 -0.01118 -0.02486
 C1925 C -0.08860 -0.02484 -0.02384
 C1926 C -0.09201 -0.03255 -0.04729
 H1927 H -0.09627 -0.05497 -0.00140
 H1928 H -0.13512 -0.03037 -0.00362
 H1929 H -0.10316 -0.06924 -0.04459
 H1930 H -0.11722 -0.00801 -0.06212
 H1931 H -0.11094 0.00579 -0.01900
 H1932 H -0.07925 -0.03317 -0.05995
 C1933 C -0.10067 0.45441 0.48437
 C1934 C -0.12195 0.46776 0.48385
 C1935 C -0.12559 0.46060 0.46021
 C1936 C -0.10459 0.44716 0.46067
 C1937 C -0.11311 0.48064 0.45186
 C1938 C -0.10922 0.48788 0.47558
 C1939 C -0.08833 0.47442 0.47599
 C1940 C -0.09198 0.46722 0.45242
 H1941 H -0.09535 0.44370 0.49783
 H1942 H -0.13450 0.46792 0.49672
 H1943 H -0.10273 0.43036 0.45442
 H1944 H -0.11755 0.49189 0.43855
 H1945 H -0.11090 0.50469 0.48186
 H1946 H -0.07939 0.46703 0.43958
 C1947 C 0.40070 -0.04589 0.48320
 C1948 C 0.37965 -0.03220 0.48223
 C1949 C 0.37616 -0.03962 0.45865
 C1950 C 0.39693 -0.05340 0.45955
 C1951 C 0.38907 -0.01992 0.45017
 C1952 C 0.39279 -0.01242 0.47383
 C1953 C 0.41347 -0.02620 0.47469
 C1954 C 0.40999 -0.03366 0.45118
 H1955 H 0.40570 -0.05650 0.49686
 H1956 H 0.36696 -0.03163 0.49495
 H1957 H 0.39853 -0.07032 0.45353
 H1958 H 0.38497 -0.00878 0.43665
 H1959 H 0.39130 0.00450 0.47986
 H1960 H 0.42277 -0.03423 0.43857
 C1961 C 0.39227 0.48629 -0.02601
 C1962 C 0.38869 0.47852 -0.04960
 C1963 C 0.37566 0.45894 -0.04098
 C1964 C 0.37902 0.46663 -0.01747
 C1965 C 0.39639 0.44512 -0.03979
 C1966 C 0.40956 0.46473 -0.04831
 C1967 C 0.41292 0.47248 -0.02487
 C1968 C 0.40004 0.45292 -0.01620
 H1969 H 0.39078 0.50328 -0.02020
 H1970 H 0.38477 0.48953 -0.06328
 H1971 H 0.36626 0.46738 -0.00484
 H1972 H 0.39799 0.42813 -0.04560
 H1973 H 0.42241 0.46398 -0.06084
 H1974 H 0.40493 0.44246 -0.00239
 C1975 C 0.35002 0.48390 0.79557
 C1976 C 0.35358 0.46035 0.80356
 C1977 C 0.37447 0.45911 0.79003
 C1978 C 0.37117 0.48258 0.78212
 C1979 C 0.36166 0.45026 0.77044
 C1980 C 0.34064 0.45160 0.78395
 C1981 C 0.33735 0.47501 0.77599
 C1982 C 0.35814 0.47382 0.76244
 H1983 H 0.34501 0.49781 0.80585
 H1984 H 0.35187 0.45466 0.82055
 H1985 H 0.38395 0.49525 0.78143
 H1986 H 0.36589 0.43643 0.75974
 H1987 H 0.32780 0.43900 0.78466
 H1988 H 0.35980 0.47950 0.74545
 C1989 C 0.35696 -0.02557 0.26236
 C1990 C 0.37004 -0.01677 0.28197
 C1991 C 0.37348 -0.04023 0.28987
 C1992 C 0.36061 -0.04912 0.27035
 C1993 C 0.35265 -0.03905 0.30350
 C1994 C 0.34897 -0.01551 0.29553
 C1995 C 0.33622 -0.02443 0.27602
 C1996 C 0.33963 -0.04784 0.28395
 H1997 H 0.35852 -0.01989 0.24536
 H1998 H 0.38277 -0.00405 0.28121
 H1999 H 0.36496 -0.06296 0.25970
 H2000 H 0.35103 -0.04474 0.32050
 H2001 H 0.34399 -0.00162 0.30585
 H2002 H 0.32683 -0.06048 0.28473
 C2003 C 0.14943 0.54299 0.73384
 C2004 C 0.14564 0.55134 0.71052
 C2005 C 0.12485 0.53757 0.70917
 C2006 C 0.12842 0.52928 0.73244
 C2007 C 0.13772 0.51824 0.69993
 C2008 C 0.15866 0.53198 0.70138
 C2009 C 0.16222 0.52368 0.72460
 C2010 C 0.14155 0.50985 0.72330
 H2011 H 0.15442 0.55313 0.74787
 H2012 H 0.14722 0.56847 0.70514
 H2013 H 0.11575 0.52824 0.74514
 H2014 H 0.13328 0.50780 0.68596
 H2015 H 0.17136 0.53306 0.68869
 H2016 H 0.14010 0.49271 0.72870
 C2017 C 0.14818 0.01561 0.20608
 C2018 C 0.12717 0.01665 0.21975
 C2019 C 0.12347 0.04006 0.21182
 C2020 C 0.14425 0.03908 0.19810
 C2021 C 0.13629 0.04914 0.23126
 C2022 C 0.14026 0.02563 0.23929
 C2023 C 0.16092 0.02468 0.22551
 C2024 C 0.15722 0.04806 0.21757
 H2025 H 0.15324 0.00174 0.19577
 H2026 H 0.11457 0.00381 0.22058
 H2027 H 0.14579 0.04475 0.18109
 H2028 H 0.13174 0.06296 0.24185
 H2029 H 0.13885 0.01994 0.25630
 H2030 H 0.16985 0.06089 0.21670
 C2031 C 0.59118 0.71721 0.20273
 C2032 C 0.61210 0.73097 0.20175
 C2033 C 0.62494 0.71141 0.21062
 C2034 C 0.60414 0.69763 0.21151
 C2035 C 0.62128 0.71917 0.23404
 C2036 C 0.60821 0.73882 0.22526
 C2037 C 0.58752 0.72501 0.22610
 C2038 C 0.60021 0.70547 0.23501
 H2039 H 0.57855 0.71643 0.18991
 H2040 H 0.61644 0.74183 0.18809
 H2041 H 0.60256 0.68063 0.20573
 H2042 H 0.63390 0.71991 0.24686
 H2043 H 0.60967 0.75583 0.23105
 H2044 H 0.59512 0.69505 0.24877
 C2045 C 0.10180 0.70604 0.73577
 C2046 C 0.10546 0.69834 0.71220
 C2047 C 0.12620 0.71219 0.71112
 C2048 C 0.12280 0.71982 0.73463
 C2049 C 0.11324 0.73173 0.70248
 C2050 C 0.09237 0.71792 0.70365
 C2051 C 0.08895 0.72558 0.72710
 C2052 C 0.10959 0.73947 0.72608
 H2053 H 0.09690 0.69554 0.74954
 H2054 H 0.10386 0.68136 0.70635
 H2055 H 0.13558 0.72054 0.74728
 H2056 H 0.11753 0.74259 0.68879
 H2057 H 0.07958 0.71715 0.69099
 H2058 H 0.11105 0.75645 0.73195
 C2059 C 0.64959 0.23594 0.54547
 C2060 C 0.62858 0.23567 0.53168
 C2061 C 0.62438 0.21211 0.53889
 C2062 C 0.64512 0.21231 0.55275
 C2063 C 0.63712 0.20340 0.51925
 C2064 C 0.64156 0.22704 0.51195
 C2065 C 0.66219 0.22719 0.52585
 C2066 C 0.65799 0.20368 0.53310
 H2067 H 0.65492 0.24940 0.55620
 H2068 H 0.61625 0.24876 0.53116
 H2069 H 0.64649 0.20613 0.56960
 H2070 H 0.63249 0.19002 0.50812
 H2071 H 0.64032 0.23324 0.49511
 H2072 H 0.67033 0.19058 0.53366
 C2073 C 0.64261 0.72343 0.01205
 C2074 C 0.63875 0.69999 0.02027
 C2075 C 0.62571 0.70915 0.03950
 C2076 C 0.62936 0.73251 0.03136
 C2077 C 0.64640 0.71045 0.05341
 C2078 C 0.65959 0.70139 0.03413
 C2079 C 0.66321 0.72470 0.02596
 C2080 C 0.65029 0.73388 0.04519
 H2081 H 0.64124 0.72891 -0.00504
 H2082 H 0.63445 0.68603 0.00974
 H2083 H 0.61671 0.74526 0.03027
 H2084 H 0.64784 0.70497 0.07049
 H2085 H 0.67231 0.68871 0.03524
 H2086 H 0.65523 0.74789 0.05540
 C2087 C 0.10726 0.02718 0.01200
 C2088 C 0.11088 0.05072 0.02016
 C2089 C 0.12374 0.04172 0.03963
 C2090 C 0.12038 0.01830 0.03155
 C2091 C 0.10292 0.04036 0.05326
 C2092 C 0.08989 0.04922 0.03376
 C2093 C 0.08654 0.02585 0.02567
 C2094 C 0.09932 0.01686 0.04511
 H2095 H 0.10882 0.02162 -0.00503
 H2096 H 0.11509 0.06462 0.00954
 H2097 H 0.13313 0.00562 0.03068
 H2098 H 0.10125 0.04592 0.07029
 H2099 H 0.07704 0.06178 0.03462
 H2100 H 0.09438 0.00287 0.05533
 C2101 C 0.09924 0.54694 0.51595
 C2102 C 0.10308 0.55449 0.53957
 C2103 C 0.12393 0.54082 0.54040
 C2104 C 0.12034 0.53335 0.51685
 C2105 C 0.11115 0.52109 0.54896
 C2106 C 0.09015 0.53471 0.54803
 C2107 C 0.08658 0.52722 0.52453
 C2108 C 0.10734 0.51353 0.52532
 H2109 H 0.09414 0.55753 0.50231
 H2110 H 0.10147 0.57140 0.54559
 H2111 H 0.13299 0.53284 0.50409
 H2112 H 0.11563 0.51017 0.56254
 H2113 H 0.07745 0.53525 0.56073
 H2114 H 0.10889 0.49661 0.51931
 C2115 C 0.60142 0.04536 0.51475
 C2116 C 0.60556 0.05287 0.53833
 C2117 C 0.62628 0.03900 0.53897
 C2118 C 0.62239 0.03156 0.51545
 C2119 C 0.61338 0.01939 0.54764
 C2120 C 0.59252 0.03323 0.54691
 C2121 C 0.58864 0.02576 0.52344
 C2122 C 0.60926 0.01186 0.52404
 H2123 H 0.59633 0.05599 0.50114
 H2124 H 0.60411 0.06981 0.54433
 H2125 H 0.63491 0.03092 0.50257
 H2126 H 0.61787 0.00842 0.56117
 H2127 H 0.57998 0.03390 0.55979
 H2128 H 0.61058 -0.00508 0.51802
 C2129 C 0.60872 0.52605 0.00990
 C2130 C 0.61252 0.54953 0.01814
 C2131 C 0.62537 0.54041 0.03754
 C2132 C 0.62183 0.51704 0.02940
 C2133 C 0.60456 0.53914 0.05120
 C2134 C 0.59156 0.54816 0.03177
 C2135 C 0.58803 0.52482 0.02363
 C2136 C 0.60081 0.51571 0.04302
 H2137 H 0.61020 0.52052 -0.00715
 H2138 H 0.61701 0.56347 0.00767
 H2139 H 0.63451 0.50431 0.02850
 H2140 H 0.60294 0.54465 0.06825
 H2141 H 0.57885 0.56086 0.03271
 H2142 H 0.59584 0.50171 0.05322
 C2143 C 0.04880 0.03316 0.09103
 C2144 C 0.03990 0.05263 0.10411
 C2145 C 0.04089 0.03876 0.12484
 C2146 C 0.04993 0.01933 0.11193
 C2147 C 0.01753 0.03081 0.12109
 C2148 C 0.01646 0.04461 0.10012
 C2149 C 0.02549 0.02521 0.08730
 C2150 C 0.02646 0.01131 0.10793
 H2151 H 0.06151 0.03409 0.07835
 H2152 H 0.04556 0.06969 0.10264
 H2153 H 0.06367 0.00859 0.11626
 H2154 H 0.00471 0.02988 0.13366
 H2155 H 0.00264 0.05497 0.09507
 H2156 H 0.02079 -0.00575 0.10928
 C2157 C 0.04549 0.51631 0.59935
 C2158 C 0.05310 0.53993 0.60330
 C2159 C 0.03924 0.54076 0.62401
 C2160 C 0.03170 0.51721 0.62030
 C2161 C 0.01976 0.54949 0.61106
 C2162 C 0.03357 0.54855 0.59018
 C2163 C 0.02602 0.52504 0.58650
 C2164 C 0.01212 0.52584 0.60711
 H2165 H 0.05602 0.50260 0.59435
 H2166 H 0.07002 0.54589 0.60189
 H2167 H 0.03096 0.50440 0.63293
 H2168 H 0.00896 0.56315 0.61556
 H2169 H 0.03432 0.56128 0.57748
 H2170 H -0.00480 0.51988 0.60844
 C2171 C 0.53308 0.04718 0.59197
 C2172 C 0.51924 0.04808 0.61283
 C2173 C 0.53872 0.03930 0.62577
 C2174 C 0.55260 0.03850 0.60506
 C2175 C 0.53114 0.01576 0.62200
 C2176 C 0.51157 0.02445 0.60879
 C2177 C 0.52549 0.02367 0.58820
 C2178 C 0.54495 0.01490 0.60105
 H2179 H 0.53387 0.06002 0.57935
 H2180 H 0.50834 0.06171 0.61717
 H2181 H 0.56953 0.04443 0.60358
 H2182 H 0.53037 0.00289 0.63458
 H2183 H 0.49465 0.01849 0.61010
 H2184 H 0.55546 0.00118 0.59603
 C2185 C 0.51502 0.54364 0.10092
 C2186 C 0.51595 0.52998 0.12199
 C2187 C 0.53924 0.53805 0.12592
 C2188 C 0.53838 0.55177 0.10509
 C2189 C 0.54844 0.51858 0.11319
 C2190 C 0.52505 0.51042 0.10902
 C2191 C 0.52424 0.52418 0.08830
 C2192 C 0.54748 0.53227 0.09221
 H2193 H 0.50120 0.55390 0.09570
 H2194 H 0.50304 0.52911 0.13446
 H2195 H 0.54396 0.56884 0.10355
 H2196 H 0.56220 0.50796 0.11778
 H2197 H 0.51945 0.49334 0.11043
 H2198 H 0.56038 0.53317 0.07972
 C2199 C 0.20647 0.51451 0.64817
 C2200 C 0.19837 0.53801 0.64470
 C2201 C 0.21186 0.53942 0.62378
 C2202 C 0.21989 0.51598 0.62701
 C2203 C 0.23141 0.54833 0.63657
 C2204 C 0.21795 0.54684 0.65761
 C2205 C 0.22601 0.52345 0.66085
 C2206 C 0.23955 0.52480 0.64005
 H2207 H 0.19626 0.50051 0.65313
 H2208 H 0.18137 0.54358 0.64651
 H2209 H 0.22061 0.50337 0.61418
 H2210 H 0.24199 0.56226 0.63227
 H2211 H 0.21718 0.55946 0.67045
 H2212 H 0.25655 0.51922 0.63837
 C2213 C 0.22237 0.01096 0.14071
 C2214 C 0.19877 0.01887 0.13734
 C2215 C 0.20740 0.03850 0.12444
 C2216 C 0.23089 0.03068 0.12754
 C2217 C 0.20885 0.05215 0.14530
 C2218 C 0.20034 0.03249 0.15835
 C2219 C 0.22380 0.02466 0.16146
 C2220 C 0.23240 0.04426 0.14864
 H2221 H 0.22810 -0.00604 0.13904
 H2222 H 0.18495 0.00811 0.13317
 H2223 H 0.24340 0.02997 0.11466
 H2224 H 0.20315 0.06914 0.14716
 H2225 H 0.18788 0.03321 0.17129
 H2226 H 0.24631 0.05466 0.15344
 C2227 C 0.72692 0.23764 0.61004
 C2228 C 0.70331 0.23022 0.61417
 C2229 C 0.71191 0.21035 0.62672
 C2230 C 0.73544 0.21768 0.62281
 C2231 C 0.71224 0.19679 0.60576
 C2232 C 0.70371 0.21669 0.59309
 C2233 C 0.72719 0.22406 0.58918
 C2234 C 0.73583 0.20419 0.60160
 H2235 H 0.73309 0.25451 0.61159
 H2236 H 0.68995 0.24131 0.61883
 H2237 H 0.74843 0.21801 0.63526
 H2238 H 0.70609 0.17992 0.60408
 H2239 H 0.69072 0.21632 0.58062
 H2240 H 0.74929 0.19353 0.59624
 C2241 C 0.72413 0.73936 0.10756
 C2242 C 0.70065 0.73140 0.11151
 C2243 C 0.70962 0.71194 0.12443
 C2244 C 0.73300 0.71981 0.12072
 C2245 C 0.71055 0.69810 0.10369
 C2246 C 0.70169 0.71758 0.09061
 C2247 C 0.72502 0.72547 0.08693
 C2248 C 0.73400 0.70603 0.09974
 H2249 H 0.72985 0.75640 0.10893
 H2250 H 0.68693 0.74213 0.11592
 H2251 H 0.74580 0.72067 0.13334
 H2252 H 0.70483 0.68106 0.10225
 H2253 H 0.68894 0.71670 0.07794
 H2254 H 0.74778 0.69563 0.09470
 C2255 C 0.51120 0.72658 0.13996
 C2256 C 0.53111 0.73522 0.12723
 C2257 C 0.53863 0.71168 0.12356
 C2258 C 0.51881 0.70296 0.13605
 C2259 C 0.55205 0.71232 0.14458
 C2260 C 0.54446 0.73593 0.14852
 C2261 C 0.52466 0.72716 0.16087
 C2262 C 0.53221 0.70368 0.15719
 H2263 H 0.49433 0.73257 0.13828
 H2264 H 0.53074 0.74813 0.11468
 H2265 H 0.50787 0.68940 0.13148
 H2266 H 0.56891 0.70635 0.14639
 H2267 H 0.55496 0.74958 0.15385
 H2268 H 0.53263 0.69077 0.16976
 C2269 C 0.03420 0.70273 0.65923
 C2270 C 0.02067 0.70139 0.63818
 C2271 C 0.04025 0.71019 0.62541
 C2272 C 0.05380 0.71145 0.64633
 C2273 C 0.03239 0.73368 0.62873
 C2274 C 0.01271 0.72496 0.64174
 C2275 C 0.02631 0.72617 0.66255
 C2276 C 0.04588 0.73500 0.64990
 H2277 H 0.03491 0.69007 0.67203
 H2278 H 0.00998 0.68755 0.63383
 H2279 H 0.07077 0.70575 0.64813
 H2280 H 0.03171 0.74635 0.61595
 H2281 H -0.00426 0.73067 0.64005
 H2282 H 0.05619 0.74892 0.65489
 C2283 C 0.52272 0.64140 0.23825
 C2284 C 0.51409 0.62833 0.21853
 C2285 C 0.53758 0.62436 0.21117
 C2286 C 0.54629 0.63721 0.23081
 C2287 C 0.53712 0.64519 0.19738
 C2288 C 0.51357 0.64942 0.20481
 C2289 C 0.52233 0.66212 0.22444
 C2290 C 0.54575 0.65816 0.21703
 H2291 H 0.51668 0.64005 0.25513
 H2292 H 0.50113 0.61583 0.21908
 H2293 H 0.55973 0.63275 0.24188
 H2294 H 0.54316 0.64667 0.18050
 H2295 H 0.50003 0.65463 0.19417
 H2296 H 0.55872 0.67066 0.21645
 C2297 C 0.01583 0.64904 0.70610
 C2298 C 0.03931 0.64535 0.69821
 C2299 C 0.04040 0.62438 0.71176
 C2300 C 0.01699 0.62784 0.71959
 C2301 C 0.04926 0.63713 0.73136
 C2302 C 0.04807 0.65824 0.71785
 C2303 C 0.02468 0.66170 0.72569
 C2304 C 0.02575 0.64084 0.73930
 H2305 H 0.00200 0.65409 0.69576
 H2306 H 0.04502 0.64712 0.68125
 H2307 H 0.00427 0.61510 0.72025
 H2308 H 0.06304 0.63259 0.74199
 H2309 H 0.06077 0.67101 0.71715
 H2310 H 0.02002 0.63920 0.75626
 C2311 C 0.03312 0.09031 0.04958
 C2312 C 0.05268 0.10333 0.04083
 C2313 C 0.03904 0.12421 0.04191
 C2314 C 0.01951 0.11136 0.05079
 C2315 C 0.03116 0.12070 0.01848
 C2316 C 0.04473 0.09957 0.01733
 C2317 C 0.02523 0.08681 0.02621
 C2318 C 0.01156 0.10760 0.02726
 H2319 H 0.03389 0.07752 0.06223
 H2320 H 0.06966 0.10169 0.04655
 H2321 H 0.00879 0.11566 0.06455
 H2322 H 0.03039 0.13339 0.00574
 H2323 H 0.05506 0.09453 0.00350
 H2324 H -0.00543 0.10913 0.02154
 C2325 C 0.02534 0.60803 0.51251
 C2326 C 0.01689 0.62114 0.53223
 C2327 C 0.04043 0.62454 0.53979
 C2328 C 0.04896 0.61166 0.52017
 C2329 C 0.03938 0.60366 0.55346
 C2330 C 0.01577 0.59999 0.54582
 C2331 C 0.02433 0.58724 0.52621
 C2332 C 0.04782 0.59063 0.53380
 H2333 H 0.01940 0.60961 0.49560
 H2334 H 0.00425 0.63393 0.53164
 H2335 H 0.06260 0.61603 0.50932
 H2336 H 0.04532 0.60201 0.57037
 H2337 H 0.00205 0.59499 0.55632
 H2338 H 0.06040 0.57779 0.53442
 C2339 C 0.52347 0.10965 0.51075
 C2340 C 0.51483 0.12289 0.53032
 C2341 C 0.53832 0.12687 0.53772
 C2342 C 0.54704 0.11389 0.51826
 C2343 C 0.53776 0.10618 0.55171
 C2344 C 0.51421 0.10193 0.54423
 C2345 C 0.52296 0.08907 0.52478
 C2346 C 0.54640 0.09307 0.53222
 H2347 H 0.51743 0.11083 0.49384
 H2348 H 0.50194 0.13541 0.52959
 H2349 H 0.56055 0.11839 0.50729
 H2350 H 0.54378 0.10486 0.56862
 H2351 H 0.50063 0.09681 0.55485
 H2352 H 0.55931 0.08053 0.53299
 C2353 C 0.53164 0.59191 0.04685
 C2354 C 0.55125 0.60469 0.03793
 C2355 C 0.53769 0.62564 0.03865
 C2356 C 0.51810 0.61298 0.04766
 C2357 C 0.52986 0.62179 0.01527
 C2358 C 0.54336 0.60060 0.01449
 C2359 C 0.52378 0.58806 0.02352
 C2360 C 0.51017 0.60888 0.02419
 H2361 H 0.53234 0.57937 0.05977
 H2362 H 0.56821 0.60308 0.04370
 H2363 H 0.50740 0.61761 0.06133
 H2364 H 0.52921 0.63432 0.00236
 H2365 H 0.55370 0.59532 0.00077
 H2366 H 0.49320 0.61037 0.01841
 C2367 C 0.70527 0.14861 0.51494
 C2368 C 0.71883 0.12742 0.51504
 C2369 C 0.71188 0.12332 0.53864
 C2370 C 0.69824 0.14423 0.53861
 C2371 C 0.73178 0.13594 0.54711
 C2372 C 0.73880 0.14029 0.52342
 C2373 C 0.72515 0.16109 0.52345
 C2374 C 0.71815 0.15697 0.54698
 H2375 H 0.69445 0.15404 0.50163
 H2376 H 0.71906 0.11505 0.50195
 H2377 H 0.68149 0.14580 0.54497
 H2378 H 0.74318 0.13145 0.56027
 H2379 H 0.75554 0.13889 0.51704
 H2380 H 0.71790 0.16937 0.56005
 C2381 C 0.70540 0.65027 0.01703
 C2382 C 0.71919 0.62931 0.01817
 C2383 C 0.71127 0.62560 0.04152
 C2384 C 0.69743 0.64634 0.04045
 C2385 C 0.73061 0.63859 0.05059
 C2386 C 0.73862 0.64254 0.02713
 C2387 C 0.72473 0.66318 0.02609
 C2388 C 0.71681 0.65951 0.04941
 H2389 H 0.69507 0.65527 0.00317
 H2390 H 0.72012 0.61665 0.00540
 H2391 H 0.68041 0.64775 0.04608
 H2392 H 0.74120 0.63409 0.06441
 H2393 H 0.75564 0.64123 0.02151
 H2394 H 0.71587 0.67225 0.06210
 C2395 C 0.23475 0.60062 0.70462
 C2396 C 0.21127 0.60446 0.69673
 C2397 C 0.21032 0.62538 0.71036
 C2398 C 0.23374 0.62178 0.71818
 C2399 C 0.20147 0.61257 0.72992
 C2400 C 0.20251 0.59152 0.71632
 C2401 C 0.22588 0.58793 0.72417
 C2402 C 0.22497 0.60874 0.73784
 H2403 H 0.24853 0.59553 0.69425
 H2404 H 0.20552 0.60279 0.67976
 H2405 H 0.24652 0.63445 0.71887
 H2406 H 0.18776 0.61701 0.74064
 H2407 H 0.18974 0.57882 0.71559
 H2408 H 0.23074 0.61029 0.75481
 C2409 C 0.23879 0.10982 0.22361
 C2410 C 0.23078 0.11348 0.20007
 C2411 C 0.21131 0.12637 0.20893
 C2412 C 0.21923 0.12299 0.23236
 C2413 C 0.19761 0.10549 0.21016
 C2414 C 0.21712 0.09245 0.20142
 C2415 C 0.22505 0.08906 0.22481
 C2416 C 0.20560 0.10187 0.23365
 H2417 H 0.25579 0.11138 0.22930
 H2418 H 0.24149 0.11774 0.18628
 H2419 H 0.22006 0.13576 0.24503
 H2420 H 0.18062 0.10375 0.20450
 H2421 H 0.21628 0.07963 0.18879
 H2422 H 0.19530 0.09692 0.24754
 C2423 C 0.73507 1.10068 0.70590
 C2424 C 0.71166 1.10457 0.69779
 C2425 C 0.71050 1.12527 0.71174
 C2426 C 0.73383 1.12163 0.71978
 C2427 C 0.70144 1.11213 0.73101
 C2428 C 0.70272 1.09129 0.71708
 C2429 C 0.72600 1.08766 0.72515
 C2430 C 0.72487 1.10825 0.73913
 H2431 H 0.74899 1.09579 0.69563
 H2432 H 0.70612 1.10310 0.68073
 H2433 H 0.74659 1.13431 0.72084
 H2434 H 0.68762 1.11617 0.74175
 H2435 H 0.69000 1.07857 0.71601
 H2436 H 0.73044 1.10954 0.75619
 C2437 C 0.70495 0.60154 0.23470
 C2438 C 0.71857 0.62267 0.23345
 C2439 C 0.71077 0.62605 0.20998
 C2440 C 0.69709 0.60517 0.21117
 C2441 C 0.73029 0.61314 0.20127
 C2442 C 0.73819 0.60952 0.22483
 C2443 C 0.72446 0.58874 0.22597
 C2444 C 0.71664 0.59212 0.20254
 H2445 H 0.69458 0.59661 0.24854
 H2446 H 0.71931 0.63547 0.24611
 H2447 H 0.68013 0.60346 0.20542
 H2448 H 0.74099 0.61750 0.18751
 H2449 H 0.75515 0.61110 0.23060
 H2450 H 0.71587 0.57930 0.18990
 C2451 C 0.52582 0.13935 0.73981
 C2452 C 0.51699 0.12636 0.72013
 C2453 C 0.54038 0.12279 0.71227
 C2454 C 0.54931 0.13552 0.73185
 C2455 C 0.53935 0.14375 0.69871
 C2456 C 0.51590 0.14755 0.70662
 C2457 C 0.52483 0.16020 0.72619
 C2458 C 0.54819 0.15664 0.71832
 H2459 H 0.52011 0.13775 0.75679
 H2460 H 0.50421 0.11368 0.72082
 H2461 H 0.56308 0.13093 0.74247
 H2462 H 0.54504 0.14548 0.68174
 H2463 H 0.50208 0.15263 0.69629
 H2464 H 0.56096 0.16934 0.71759
 C2465 C 1.03133 0.15822 0.20190
 C2466 C 1.05060 0.14496 0.21082
 C2467 C 1.03674 0.12421 0.20931
 C2468 C 1.01749 0.13732 0.20029
 C2469 C 1.02862 0.12759 0.23265
 C2470 C 1.04244 0.14856 0.23423
 C2471 C 1.02320 0.16159 0.22521
 C2472 C 1.00927 0.14096 0.22373
 H2473 H 1.03242 0.17109 0.18934
 H2474 H 1.06766 0.14651 0.20537
 H2475 H 1.00702 0.13302 0.18630
 H2476 H 1.02756 0.11474 0.24523
 H2477 H 1.05265 0.15334 0.24826
 H2478 H 0.99221 0.13953 0.22920
 C2479 C 0.20343 0.65145 0.51550
 C2480 C 0.21689 0.63023 0.51616
 C2481 C 0.20956 0.62650 0.53970
 C2482 C 0.19601 0.64746 0.53912
 C2483 C 0.22934 0.63918 0.54828
 C2484 C 0.23677 0.64312 0.52466
 C2485 C 0.22320 0.66398 0.52414
 C2486 C 0.21583 0.66027 0.54762
 H2487 H 0.19282 0.65672 0.50195
 H2488 H 0.21727 0.61764 0.50329
 H2489 H 0.17917 0.64909 0.54521
 H2490 H 0.24035 0.63464 0.56176
 H2491 H 0.25361 0.64156 0.51858
 H2492 H 0.21542 0.67292 0.56043
 C2493 C 0.20378 0.15013 1.01708
 C2494 C 0.21735 0.12901 1.01833
 C2495 C 0.20958 0.12561 1.04178
 C2496 C 0.19595 0.14650 1.04061
 C2497 C 0.22913 0.13848 1.05056
 C2498 C 0.23700 0.14212 1.02701
 C2499 C 0.22332 0.16291 1.02586
 C2500 C 0.21555 0.15954 1.04928
 H2501 H 0.19339 0.15510 1.00326
 H2502 H 0.21804 0.11622 1.00567
 H2503 H 0.17900 0.14814 1.04637
 H2504 H 0.23977 0.13400 1.06435
 H2505 H 0.25395 0.14056 1.02125
 H2506 H 0.21484 0.17240 1.06186
 C2507 C 0.22494 0.73800 0.60742
 C2508 C 0.20138 0.73039 0.61145
 C2509 C 0.21011 0.71063 0.62409
 C2510 C 0.23359 0.71815 0.62027
 C2511 C 0.21065 0.69702 0.60317
 C2512 C 0.20201 0.71681 0.59039
 C2513 C 0.22542 0.72437 0.58660
 C2514 C 0.23419 0.70462 0.59909
 H2515 H 0.23094 0.75493 0.60896
 H2516 H 0.18789 0.74135 0.61602
 H2517 H 0.24652 0.71864 0.63277
 H2518 H 0.20464 0.68009 0.60156
 H2519 H 0.18915 0.71631 0.57782
 H2520 H 0.24776 0.69407 0.59380
 C2521 C 0.22262 0.23878 1.10734
 C2522 C 0.19916 0.23074 1.11126
 C2523 C 0.20817 0.21137 1.12424
 C2524 C 0.23153 0.21930 1.12055
 C2525 C 0.20920 0.19746 1.10354
 C2526 C 0.20030 0.21688 1.09039
 C2527 C 0.22363 0.22482 1.08673
 C2528 C 0.23264 0.20546 1.09962
 H2529 H 0.22829 0.25584 1.10867
 H2530 H 0.18537 0.24137 1.11573
 H2531 H 0.24431 0.22025 1.13319
 H2532 H 0.20353 0.18041 1.10213
 H2533 H 0.18761 0.21592 1.07767
 H2534 H 0.24647 0.19509 1.09465
 C2535 C 0.72393 0.51050 0.14160
 C2536 C 0.70040 0.51831 0.13762
 C2537 C 0.70926 0.53787 0.12482
 C2538 C 0.73269 0.53016 0.12854
 C2539 C 0.71016 0.55164 0.14562
 C2540 C 0.70140 0.53205 0.15858
 C2541 C 0.72480 0.52434 0.16229
 C2542 C 0.73365 0.54388 0.14956
 H2543 H 0.72975 0.49351 0.14018
 H2544 H 0.68670 0.50758 0.13302
 H2545 H 0.74548 0.52945 0.11593
 H2546 H 0.70436 0.56863 0.14718
 H2547 H 0.68862 0.53280 0.17121
 H2548 H 0.74740 0.55436 0.15464
 C2549 C 0.70764 1.01394 0.64805
 C2550 C 0.69954 1.03735 0.64401
 C2551 C 0.71335 1.03839 0.62329
 C2552 C 0.72139 1.01505 0.62709
 C2553 C 0.73267 1.04761 0.63623
 C2554 C 0.71888 1.04648 0.65709
 C2555 C 0.72695 1.02318 0.66088
 C2556 C 0.74081 1.02417 0.64028
 H2557 H 0.69739 1.00001 0.65310
 H2558 H 0.68249 1.04288 0.64545
 H2559 H 0.72235 1.00219 0.61452
 H2560 H 0.74329 1.06147 0.63185
 H2561 H 0.71788 1.05933 0.66967
 H2562 H 0.75786 1.01862 0.63897
 C2563 C 0.51228 0.22514 0.64206
 C2564 C 0.53174 0.23417 0.62896
 C2565 C 0.53935 0.21076 0.62470
 C2566 C 0.51997 0.20165 0.63757
 C2567 C 0.55335 0.21121 0.64536
 C2568 C 0.54567 0.23469 0.64987
 C2569 C 0.52631 0.22554 0.66261
 C2570 C 0.53394 0.20218 0.65837
 H2571 H 0.49532 0.23102 0.64094
 H2572 H 0.53090 0.24726 0.61662
 H2573 H 0.50909 0.18806 0.63299
 H2574 H 0.57030 0.20535 0.64661
 H2575 H 0.55618 0.24835 0.65513
 H2576 H 0.53482 0.18910 0.67073
 C2577 C 1.04705 0.21757 0.15820
 C2578 C 1.03835 0.19790 0.14530
 C2579 C 1.03965 0.21145 0.12438
 C2580 C 1.04845 0.23109 0.13714
 C2581 C 1.01623 0.21935 0.12760
 C2582 C 1.01486 0.20587 0.14876
 C2583 C 1.02365 0.22549 0.16143
 C2584 C 1.02492 0.23910 0.14062
 H2585 H 1.05963 0.21686 0.17105
 H2586 H 1.04401 0.18090 0.14713
 H2587 H 1.06229 0.24170 0.13270
 H2588 H 1.00363 0.22002 0.11476
 H2589 H 1.00096 0.19554 0.15370
 H2590 H 1.01924 0.25611 0.13892
 C2591 C 0.60214 0.20459 0.73697
 C2592 C 0.60616 0.19705 0.71340
 C2593 C 0.62683 0.21104 0.71267
 C2594 C 0.62307 0.21851 0.73617
 C2595 C 0.61386 0.23055 0.70397
 C2596 C 0.59305 0.21659 0.70479
 C2597 C 0.58928 0.22410 0.72824
 C2598 C 0.60984 0.23812 0.72756
 H2599 H 0.59712 0.19399 0.75062
 H2600 H 0.60474 0.18010 0.70744
 H2601 H 0.63567 0.21925 0.74900
 H2602 H 0.61826 0.24150 0.69040
 H2603 H 0.58044 0.21581 0.69195
 H2604 H 0.61113 0.25508 0.73354
 C2605 C 1.10017 0.23402 0.20591
 C2606 C 1.12125 0.23297 0.21953
 C2607 C 1.12482 0.20950 0.21173
 C2608 C 1.10397 0.21049 0.19805
 C2609 C 1.11205 0.20060 0.23125
 C2610 C 1.10822 0.22417 0.23916
 C2611 C 1.08749 0.22513 0.22542
 C2612 C 1.09105 0.20169 0.21761
 H2613 H 1.09513 0.24785 0.19552
 H2614 H 1.13391 0.24577 0.22026
 H2615 H 1.10231 0.20473 0.18108
 H2616 H 1.11661 0.18682 0.24190
 H2617 H 1.10975 0.22995 0.25613
 H2618 H 1.07835 0.18891 0.21685
 C2619 C 0.14246 0.72548 0.51281
 C2620 C 0.13880 0.70182 0.52045
 C2621 C 0.12613 0.71041 0.54019
 C2622 C 0.12958 0.73399 0.53264
 C2623 C 0.14708 0.71135 0.55371
 C2624 C 0.15989 0.70285 0.53393
 C2625 C 0.16332 0.72637 0.52634
 C2626 C 0.15079 0.73501 0.54608
 H2627 H 0.14077 0.73143 0.49591
 H2628 H 0.13436 0.68818 0.50956
 H2629 H 0.11689 0.74674 0.53216
 H2630 H 0.14883 0.70539 0.57060
 H2631 H 0.17264 0.69017 0.53443
 H2632 H 0.15592 0.74873 0.55657
 C2633 C 0.15907 0.20092 1.03355
 C2634 C 0.14586 0.20974 1.05290
 C2635 C 0.12514 0.20822 1.03906
 C2636 C 0.13819 0.19930 1.01976
 C2637 C 0.12845 0.23166 1.03102
 C2638 C 0.14940 0.23325 1.04479
 C2639 C 0.16236 0.22432 1.02550
 C2640 C 0.14174 0.22284 1.01162
 H2641 H 0.17198 0.18843 1.03457
 H2642 H 0.14740 0.20418 1.06995
 H2643 H 0.13392 0.18532 1.00924
 H2644 H 0.11562 0.24424 1.03002
 H2645 H 0.15419 0.24727 1.05505
 H2646 H 0.14027 0.22839 0.99456
 C2647 C 0.64796 0.51462 0.20689
 C2648 C 0.62704 0.51545 0.22072
 C2649 C 0.62312 0.53887 0.21296
 C2650 C 0.64379 0.53811 0.19906
 C2651 C 0.63604 0.54793 0.23235
 C2652 C 0.64022 0.52441 0.24021
 C2653 C 0.66077 0.52370 0.22626
 C2654 C 0.65685 0.54708 0.21848
 H2655 H 0.65305 0.50085 0.19647
 H2656 H 0.61452 0.50251 0.22158
 H2657 H 0.64516 0.54388 0.18207
 H2658 H 0.63155 0.56164 0.24310
 H2659 H 0.63899 0.51863 0.25720
 H2660 H 0.66938 0.56001 0.21758
 C2661 C 0.64958 1.04162 0.73351
 C2662 C 0.64559 1.04994 0.71021
 C2663 C 0.62487 1.03605 0.70901
 C2664 C 0.62865 1.02778 0.73225
 C2665 C 0.63780 1.01680 0.69968
 C2666 C 0.65867 1.03066 0.70099
 C2667 C 0.66244 1.02239 0.72419
 C2668 C 0.64184 1.00843 0.72303
 H2669 H 0.65458 1.05181 0.74750
 H2670 H 0.64703 1.06708 0.70483
 H2671 H 0.61608 1.02666 0.74504
 H2672 H 0.63331 1.00634 0.68574
 H2673 H 0.67128 1.03181 0.68822
 H2674 H 0.64053 0.99129 0.72844
 C2675 C 0.84895 0.48429 0.29694
 C2676 C 0.85260 0.46074 0.30492
 C2677 C 0.87332 0.45944 0.29113
 C2678 C 0.86992 0.48292 0.28323
 C2679 C 0.86027 0.45059 0.27172
 C2680 C 0.83940 0.45198 0.28547
 C2681 C 0.83602 0.47540 0.27754
 C2682 C 0.85666 0.47415 0.26373
 H2683 H 0.84411 0.49822 0.30727
 H2684 H 0.85106 0.45508 0.32193
 H2685 H 0.88270 0.49558 0.28235
 H2686 H 0.86446 0.43673 0.26104
 H2687 H 0.82654 0.43941 0.28636
 H2688 H 0.85813 0.47980 0.24671
 C2689 C 0.85838 0.97415 0.76369
 C2690 C 0.87129 0.98280 0.78349
 C2691 C 0.87469 0.95927 0.79120
 C2692 C 0.86198 0.95055 0.77149
 C2693 C 0.85375 0.96029 0.80467
 C2694 C 0.85008 0.98390 0.79687
 C2695 C 0.83752 0.97511 0.77717
 C2696 C 0.84091 0.95165 0.78493
 H2697 H 0.86008 0.97999 0.74675
 H2698 H 0.88400 0.99555 0.78296
 H2699 H 0.86631 0.93685 0.76065
 H2700 H 0.85200 0.95445 0.82160
 H2701 H 0.84497 0.99769 0.80725
 H2702 H 0.82814 0.93897 0.78548
 C2703 C 0.40144 0.29527 0.76616
 C2704 C 0.38017 0.28188 0.76686
 C2705 C 0.37646 0.28949 0.79033
 C2706 C 0.39746 0.30297 0.78969
 C2707 C 0.38897 0.26968 0.79911
 C2708 C 0.39289 0.26197 0.77557
 C2709 C 0.41380 0.27547 0.77499
 C2710 C 0.41011 0.28313 0.79839
 H2711 H 0.40678 0.30575 0.75253
 H2712 H 0.36764 0.28143 0.75395
 H2713 H 0.39919 0.31990 0.79564
 H2714 H 0.38439 0.25878 0.81267
 H2715 H 0.39121 0.24503 0.76964
 H2716 H 0.42270 0.28360 0.81123
 C2717 C 0.90011 0.26707 0.29514
 C2718 C 0.89661 0.29056 0.30327
 C2719 C 0.87566 0.29189 0.28978
 C2720 C 0.87894 0.26847 0.28171
 C2721 C 0.88837 0.30087 0.27024
 C2722 C 0.90947 0.29943 0.28369
 C2723 C 0.91272 0.27606 0.27561
 C2724 C 0.89188 0.27735 0.26207
 H2725 H 0.90513 0.25310 0.30534
 H2726 H 0.89838 0.29616 0.32028
 H2727 H 0.86614 0.25581 0.28095
 H2728 H 0.88390 0.31480 0.25974
 H2729 H 0.92234 0.31200 0.28446
 H2730 H 0.89016 0.27176 0.24505
 C2731 C 0.35116 0.76547 0.45481
 C2732 C 0.35476 0.78913 0.44719
 C2733 C 0.37565 0.79019 0.46079
 C2734 C 0.37232 0.76660 0.46833
 C2735 C 0.36291 0.79874 0.48047
 C2736 C 0.34189 0.79759 0.46690
 C2737 C 0.33854 0.77404 0.47448
 C2738 C 0.35932 0.77506 0.48812
 H2739 H 0.34614 0.75170 0.44432
 H2740 H 0.35299 0.79507 0.43030
 H2741 H 0.38509 0.75394 0.46886
 H2742 H 0.36733 0.81243 0.49131
 H2743 H 0.32910 0.81025 0.46633
 H2744 H 0.36096 0.76910 0.50502
 C2745 C 0.35833 0.27385 0.98780
 C2746 C 0.37135 0.26521 0.96810
 C2747 C 0.37480 0.28873 0.96038
 C2748 C 0.36202 0.29746 0.97999
 C2749 C 0.35394 0.28767 0.94675
 C2750 C 0.35021 0.26407 0.95454
 C2751 C 0.33757 0.27285 0.97413
 C2752 C 0.34103 0.29631 0.96637
 H2753 H 0.35992 0.26803 1.00475
 H2754 H 0.38406 0.25249 0.96873
 H2755 H 0.36631 0.31118 0.99083
 H2756 H 0.35222 0.29348 0.92980
 H2757 H 0.34515 0.25025 0.94414
 H2758 H 0.32831 0.30903 0.96569
 C2759 C 0.79760 0.46681 0.34129
 C2760 C 0.79864 0.48037 0.36235
 C2761 C 0.78995 0.46065 0.37506
 C2762 C 0.78900 0.44706 0.35414
 C2763 C 0.76647 0.46828 0.37154
 C2764 C 0.77508 0.48810 0.35861
 C2765 C 0.77419 0.47448 0.33779
 C2766 C 0.76545 0.45477 0.35037
 H2767 H 0.81027 0.46625 0.32856
 H2768 H 0.81229 0.49124 0.36679
 H2769 H 0.79488 0.43011 0.35248
 H2770 H 0.75374 0.46882 0.38422
 H2771 H 0.76921 0.50506 0.36021
 H2772 H 0.75174 0.44428 0.34524
 C2773 C 0.79850 0.96538 0.84044
 C2774 C 0.79933 0.97906 0.86142
 C2775 C 0.79054 0.95940 0.87418
 C2776 C 0.78980 0.94569 0.85333
 C2777 C 0.76709 0.96701 0.87039
 C2778 C 0.77580 0.98676 0.85742
 C2779 C 0.77512 0.97303 0.83667
 C2780 C 0.76627 0.95338 0.84928
 H2781 H 0.81128 0.96476 0.82783
 H2782 H 0.81291 0.99001 0.86585
 H2783 H 0.79568 0.92873 0.85179
 H2784 H 0.75423 0.96761 0.88293
 H2785 H 0.76992 1.00372 0.85889
 H2786 H 0.75261 0.94286 0.84408
 C2787 C 0.26583 0.79579 0.39890
 C2788 C 0.28938 0.80359 0.39538
 C2789 C 0.29053 0.79002 0.37446
 C2790 C 0.26704 0.78227 0.37775
 C2791 C 0.29917 0.77033 0.38722
 C2792 C 0.29793 0.78387 0.40829
 C2793 C 0.27446 0.77612 0.41157
 C2794 C 0.27558 0.76248 0.39076
 H2795 H 0.25204 0.80622 0.40386
 H2796 H 0.29521 0.82056 0.39719
 H2797 H 0.25440 0.78167 0.36495
 H2798 H 0.31291 0.75965 0.38273
 H2799 H 0.31054 0.78452 0.42112
 H2800 H 0.26973 0.74551 0.38908
 C2801 C 0.29686 0.28152 0.90804
 C2802 C 0.29801 0.26796 0.88700
 C2803 C 0.28949 0.28771 0.87423
 C2804 C 0.28844 0.30129 0.89514
 C2805 C 0.26595 0.28011 0.87749
 C2806 C 0.27437 0.26026 0.89052
 C2807 C 0.27337 0.27390 0.91131
 C2808 C 0.26483 0.29363 0.89865
 H2809 H 0.30949 0.28208 0.92086
 H2810 H 0.31165 0.25711 0.88263
 H2811 H 0.29436 0.31823 0.89693
 H2812 H 0.25333 0.27960 0.86468
 H2813 H 0.26844 0.24332 0.88885
 H2814 H 0.25111 0.30413 0.90363
 C2815 C 0.46591 0.29806 0.84061
 C2816 C 0.44630 0.28944 0.85361
 C2817 C 0.45990 0.29076 0.87450
 C2818 C 0.47946 0.29949 0.86166
 C2819 C 0.46771 0.26724 0.87126
 C2820 C 0.45418 0.26584 0.85012
 C2821 C 0.47374 0.27459 0.83739
 C2822 C 0.48736 0.27588 0.85820
 H2823 H 0.46520 0.31060 0.82771
 H2824 H 0.42935 0.29517 0.85186
 H2825 H 0.49013 0.31333 0.86601
 H2826 H 0.46841 0.25462 0.88409
 H2827 H 0.44383 0.25194 0.84520
 H2828 H 0.50433 0.27016 0.85988
 C2829 C 0.95122 0.28490 0.33987
 C2830 C 0.94987 0.27121 0.36082
 C2831 C 0.95892 0.29066 0.37373
 C2832 C 0.96016 0.30440 0.35293
 C2833 C 0.98225 0.28260 0.37023
 C2834 C 0.97329 0.26305 0.35711
 C2835 C 0.97449 0.27681 0.33639
 C2836 C 0.98357 0.29625 0.34918
 H2837 H 0.93860 0.28581 0.32708
 H2838 H 0.93601 0.26059 0.36513
 H2839 H 0.95462 0.32147 0.35135
 H2840 H 0.99496 0.28170 0.38295
 H2841 H 0.97883 0.24597 0.35862
 H2842 H 0.99750 0.30651 0.34419
 C2843 C 0.48415 0.34866 0.79571
 C2844 C 0.48327 0.36975 0.78204
 C2845 C 0.45973 0.37327 0.78940
 C2846 C 0.46053 0.35243 0.80313
 C2847 C 0.45120 0.36040 0.76975
 C2848 C 0.47484 0.35663 0.76229
 C2849 C 0.47560 0.33589 0.77607
 C2850 C 0.45211 0.33940 0.78344
 H2851 H 0.49777 0.34362 0.80634
 H2852 H 0.49600 0.38249 0.78153
 H2853 H 0.45448 0.35088 0.82000
 H2854 H 0.43764 0.36484 0.75880
 H2855 H 0.48088 0.35811 0.74542
 H2856 H 0.43946 0.32659 0.78398
 C2857 C 0.98717 0.35821 0.27533
 C2858 C 0.96739 0.37118 0.26679
 C2859 C 0.95989 0.37471 0.29031
 C2860 C 0.97958 0.36197 0.29894
 C2861 C 0.94630 0.35376 0.28946
 C2862 C 0.95386 0.34998 0.26587
 C2863 C 0.97354 0.33736 0.27452
 C2864 C 0.96602 0.34087 0.29799
 H2865 H 1.00406 0.35981 0.26938
 H2866 H 0.96789 0.38388 0.25404
 H2867 H 0.99046 0.36645 0.31254
 H2868 H 0.92941 0.35211 0.29542
 H2869 H 0.94333 0.34484 0.25220
 H2870 H 0.96549 0.32811 0.31067
 C2871 C 0.26295 0.86004 0.47487
 C2872 C 0.28280 0.87304 0.48333
 C2873 C 0.29044 0.87623 0.45979
 C2874 C 0.27070 0.86348 0.45125
 C2875 C 0.30388 0.85523 0.46101
 C2876 C 0.29616 0.85177 0.48461
 C2877 C 0.27643 0.83914 0.47604
 C2878 C 0.28411 0.84234 0.45255
 H2879 H 0.24605 0.86183 0.48072
 H2880 H 0.28232 0.88591 0.49591
 H2881 H 0.25993 0.86783 0.43753
 H2882 H 0.32077 0.85332 0.45517
 H2883 H 0.30657 0.84679 0.49841
 H2884 H 0.28463 0.82945 0.43997
 C2885 C 0.29478 0.35034 0.98393
 C2886 C 0.30285 0.35381 0.96046
 C2887 C 0.28954 0.37489 0.95913
 C2888 C 0.28154 0.37166 0.98253
 C2889 C 0.26985 0.36225 0.95027
 C2890 C 0.28314 0.34103 0.95169
 C2891 C 0.27511 0.33780 0.97505
 C2892 C 0.26175 0.35878 0.97376
 H2893 H 0.30499 0.34528 0.99786
 H2894 H 0.31982 0.35185 0.95486
 H2895 H 0.28095 0.38448 0.99516
 H2896 H 0.25929 0.36669 0.93641
 H2897 H 0.28376 0.32818 0.93908
 H2898 H 0.24478 0.36062 0.97937
 C2899 C 0.78328 0.41028 0.29974
 C2900 C 0.76970 0.38921 0.30114
 C2901 C 0.78916 0.37636 0.29226
 C2902 C 0.80279 0.39727 0.29096
 C2903 C 0.78119 0.37970 0.26885
 C2904 C 0.76162 0.39278 0.27763
 C2905 C 0.77529 0.41359 0.27637
 C2906 C 0.79474 0.40084 0.26748
 H2907 H 0.78410 0.42318 0.31227
 H2908 H 0.75915 0.38476 0.31500
 H2909 H 0.81979 0.39894 0.29661
 H2910 H 0.78038 0.36688 0.25623
 H2911 H 0.74461 0.39117 0.27199
 H2912 H 0.80500 0.40582 0.25358
   
