data_POSCAR
  _audit_creation_date              2014-09-24
  _audit_creation_method            'ToBaCCo'
  _symmetry_space_group_name_H-M    'P1'
  _symmetry_Int_Tables_number       1
  _symmetry_cell_setting            triclinic
  loop_
  _symmetry_equiv_pos_as_xyz
 x,y,z
_cell_length_a 61.3638
_cell_length_b 67.2511
_cell_length_c 48.9876
_cell_angle_alpha 90.922300
_cell_angle_beta 88.866700
_cell_angle_gamma 90.172800
loop_
  _atom_site_label
  _atom_site_type_symbol
  _atom_site_fract_x
  _atom_site_fract_y
  _atom_site_fract_z
N1 N 0.37202 0.31792 0.29171
 N2 N 0.36828 0.33178 0.27379
 C3 C 0.38437 0.33129 0.25454
 C4 C 0.39856 0.31607 0.26084
 C5 C 0.39019 0.30796 0.28443
 H6 H 0.38570 0.34119 0.23740
 H7 H 0.39714 0.29602 0.29595
 Cu8 Cu 0.34296 0.34927 0.27881
 Cu9 Cu 0.35445 0.31474 0.32458
 Cu10 Cu 0.30260 0.33414 0.32149
 N11 N 0.31705 0.36554 0.28608
 N12 N 0.30199 0.36006 0.30399
 C13 C 0.28685 0.37446 0.30657
 C14 C 0.29256 0.38959 0.28907
 C15 C 0.31169 0.38344 0.27622
 H16 H 0.27260 0.37384 0.31990
 H17 H 0.32128 0.39168 0.26146
 N18 N 0.31018 0.31242 0.34625
 N19 N 0.33041 0.30614 0.34841
 C20 C 0.33114 0.29217 0.36762
 C21 C 0.31034 0.28931 0.37798
 C22 C 0.29734 0.30235 0.36400
 H23 H 0.34570 0.28430 0.37319
 H24 H 0.28001 0.30463 0.36695
 H25 H 0.32830 0.31962 0.30079
 H26 H 0.33426 0.33999 0.32591
 N27 N 0.36395 0.81337 -0.14868
 N28 N 0.36699 0.82115 -0.17291
 C29 C 0.38327 0.81138 -0.18615
 C30 C 0.39099 0.79698 -0.16894
 C31 C 0.37853 0.79881 -0.14523
 H32 H 0.38911 0.81455 -0.20661
 H33 H 0.37924 0.78969 -0.12728
 Cu34 Cu 0.34960 0.84366 -0.18407
 Cu35 Cu 0.33976 0.82110 -0.12472
 Cu36 Cu 0.29854 0.84486 -0.15853
 N37 N 0.32953 0.86457 -0.19385
 N38 N 0.30925 0.86424 -0.18465
 C39 C 0.29832 0.87945 -0.19522
 C40 C 0.31259 0.89018 -0.21143
 C41 C 0.33237 0.88038 -0.21017
 H42 H 0.28136 0.88277 -0.19077
 H43 H 0.34750 0.88431 -0.22045
 N44 N 0.29369 0.83097 -0.12390
 N45 N 0.30955 0.82218 -0.11091
 C46 C 0.30110 0.81278 -0.08912
 C47 C 0.27895 0.81614 -0.08810
 C48 C 0.27473 0.82783 -0.11030
 H49 H 0.31026 0.80351 -0.07564
 H50 H 0.25893 0.83279 -0.11683
 H51 H 0.32302 0.82329 -0.15961
 H52 H 0.32808 0.84753 -0.14169
 N53 N 0.87363 0.32690 -0.22229
 N54 N 0.87813 0.34223 -0.23784
 C55 C 0.89838 0.33999 -0.24863
 C56 C 0.90684 0.32228 -0.23944
 C57 C 0.89070 0.31437 -0.22285
 H58 H 0.90636 0.35037 -0.26221
 H59 H 0.89150 0.30072 -0.21153
 Cu60 Cu 0.85665 0.36330 -0.24254
 Cu61 Cu 0.84678 0.32516 -0.20052
 Cu62 Cu 0.80537 0.35621 -0.22047
 N63 N 0.83490 0.38449 -0.24453
 N64 N 0.81471 0.38103 -0.23641
 C65 C 0.80238 0.39701 -0.24094
 C66 C 0.81546 0.41151 -0.25226
 C67 C 0.83612 0.40315 -0.25435
 H68 H 0.78513 0.39804 -0.23607
 H69 H 0.85075 0.40999 -0.26259
 N70 N 0.80093 0.33500 -0.19396
 N71 N 0.81654 0.32286 -0.18657
 C72 C 0.80858 0.31087 -0.16697
 C73 C 0.78721 0.31618 -0.16138
 C74 C 0.78286 0.33148 -0.17880
 H75 H 0.81796 0.29991 -0.15639
 H76 H 0.76791 0.33991 -0.17970
 H77 H 0.83080 0.33657 -0.23186
 H78 H 0.83503 0.35421 -0.20259
 N79 N 0.86542 0.83095 0.29230
 N80 N 0.87393 0.84751 0.28254
 C81 C 0.89318 0.84332 0.27013
 C82 C 0.89694 0.82316 0.27235
 C83 C 0.87905 0.81578 0.28644
 H84 H 0.90389 0.85421 0.26086
 H85 H 0.87665 0.80065 0.29306
 Cu86 Cu 0.85963 0.87352 0.28695
 Cu87 Cu 0.83860 0.83023 0.31513
 Cu88 Cu 0.81548 0.87427 0.32805
 N89 N 0.83707 0.89368 0.28370
 N90 N 0.81913 0.89313 0.29880
 C91 C 0.80559 0.90754 0.29102
 C92 C 0.81577 0.91791 0.27026
 C93 C 0.83585 0.90888 0.26621
 H94 H 0.78963 0.91039 0.30001
 H95 H 0.84830 0.91258 0.25117
 N96 N 0.81010 0.85197 0.35180
 N97 N 0.81861 0.83445 0.34607
 C98 C 0.81144 0.82134 0.36467
 C99 C 0.79810 0.83133 0.38330
 C100 C 0.79756 0.85076 0.37458
 H101 H 0.81590 0.80579 0.36488
 H102 H 0.78849 0.86297 0.38383
 H103 H 0.83386 0.85531 0.29155
 H104 H 0.85078 0.85785 0.32262
 N105 N 0.64298 0.68796 0.31462
 N106 N 0.63782 0.66966 0.30737
 C107 C 0.61825 0.66960 0.29560
 C108 C 0.61062 0.68890 0.29542
 C109 C 0.62671 0.70025 0.30766
 H110 H 0.61015 0.65643 0.28788
 H111 H 0.62644 0.71612 0.31162
 Cu112 Cu 0.65662 0.64716 0.31407
 Cu113 Cu 0.67018 0.69361 0.33357
 Cu114 Cu 0.70955 0.65881 0.31557
 N115 N 0.67899 0.62689 0.31054
 N116 N 0.69975 0.63172 0.30948
 C117 C 0.71165 0.61540 0.30370
 C118 C 0.69759 0.59944 0.30159
 C119 C 0.67695 0.60718 0.30607
 H120 H 0.72920 0.61519 0.30109
 H121 H 0.66161 0.59929 0.30475
 N122 N 0.71619 0.68403 0.33455
 N123 N 0.70126 0.69724 0.34203
 C124 C 0.71025 0.71061 0.35927
 C125 C 0.73172 0.70526 0.36306
 C126 C 0.73496 0.68849 0.34695
 H127 H 0.70133 0.72214 0.37030
 H128 H 0.74928 0.67914 0.34630
 H129 H 0.68173 0.67462 0.30539
 H130 H 0.68307 0.66511 0.34107
 N131 N 0.63518 0.18504 -0.21812
 N132 N 0.62708 0.16711 -0.22286
 C133 C 0.60549 0.16870 -0.22657
 C134 C 0.59979 0.18855 -0.22429
 C135 C 0.61901 0.19854 -0.21908
 H136 H 0.59471 0.15636 -0.23101
 H137 H 0.62095 0.21434 -0.21542
 Cu138 Cu 0.64513 0.14269 -0.22542
 Cu139 Cu 0.66587 0.18952 -0.20855
 Cu140 Cu 0.69819 0.14994 -0.21557
 N141 N 0.66688 0.12276 -0.23688
 N142 N 0.68777 0.12609 -0.23341
 C143 C 0.69924 0.11011 -0.24184
 C144 C 0.68482 0.09579 -0.25086
 C145 C 0.66430 0.10426 -0.24752
 H146 H 0.71674 0.10871 -0.24050
 H147 H 0.64874 0.09741 -0.25181
 N148 N 0.70476 0.17109 -0.18984
 N149 N 0.69274 0.18722 -0.18789
 C150 C 0.70135 0.19960 -0.16904
 C151 C 0.71939 0.19043 -0.15837
 C152 C 0.72109 0.17238 -0.17201
 H153 H 0.69449 0.21380 -0.16279
 H154 H 0.73320 0.16100 -0.16914
 H155 H 0.66618 0.16484 -0.23600
 H156 H 0.66249 0.16076 -0.19868
 N157 N 0.13550 0.68091 -0.16348
 N158 N 0.12679 0.66377 -0.17077
 C159 C 0.10536 0.66627 -0.17466
 C160 C 0.10055 0.68611 -0.17009
 C161 C 0.12002 0.69506 -0.16333
 H162 H 0.09425 0.65472 -0.18123
 H163 H 0.12265 0.71056 -0.15812
 Cu164 Cu 0.14449 0.64022 -0.17703
 Cu165 Cu 0.16598 0.68319 -0.15358
 Cu166 Cu 0.19339 0.63863 -0.14855
 N167 N 0.16609 0.62064 -0.18884
 N168 N 0.18550 0.62043 -0.17794
 C169 C 0.19744 0.60586 -0.18978
 C170 C 0.18481 0.59638 -0.20901
 C171 C 0.16493 0.60603 -0.20790
 H172 H 0.21402 0.60231 -0.18456
 H173 H 0.15084 0.60282 -0.22016
 N174 N 0.20283 0.66296 -0.12991
 N175 N 0.19297 0.68020 -0.13266
 C176 C 0.20224 0.69367 -0.11586
 C177 C 0.21854 0.68433 -0.10185
 C178 C 0.21856 0.66490 -0.11136
 H179 H 0.19647 0.70871 -0.11250
 H180 H 0.22848 0.65283 -0.10431
 H181 H 0.17900 0.65811 -0.17296
 H182 H 0.16451 0.65490 -0.13935
 N183 N 0.12667 0.18466 0.27782
 N184 N 0.12105 0.16705 0.26829
 C185 C 0.10083 0.16807 0.25821
 C186 C 0.09358 0.18743 0.26153
 C187 C 0.11040 0.19758 0.27387
 H188 H 0.09205 0.15571 0.24925
 H189 H 0.11056 0.21305 0.28025
 Cu190 Cu 0.14088 0.14463 0.26950
 Cu191 Cu 0.15419 0.18930 0.29570
 Cu192 Cu 0.18501 0.14768 0.30898
 N193 N 0.16435 0.12540 0.26610
 N194 N 0.18186 0.12671 0.28111
 C195 C 0.19499 0.11117 0.27498
 C196 C 0.18505 0.09955 0.25521
 C197 C 0.16565 0.10900 0.25006
 H198 H 0.21031 0.10825 0.28468
 H199 H 0.15334 0.10423 0.23587
 N200 N 0.18906 0.17339 0.32842
 N201 N 0.17733 0.18921 0.32295
 C202 C 0.18113 0.20347 0.34183
 C203 C 0.19623 0.19652 0.35978
 C204 C 0.20092 0.17735 0.35079
 H205 H 0.17214 0.21724 0.34382
 H206 H 0.21057 0.16654 0.36127
 H207 H 0.17259 0.16503 0.28061
 H208 H 0.15407 0.16090 0.31077
 N209 N 0.63097 0.32210 0.68809
 N210 N 0.62525 0.33273 0.70986
 C211 C 0.60577 0.32618 0.71937
 C212 C 0.59891 0.31090 0.70231
 C213 C 0.61511 0.30888 0.68251
 H214 H 0.59696 0.33246 0.73678
 H215 H 0.61548 0.29839 0.66553
 Cu216 Cu 0.64343 0.35490 0.72232
 Cu217 Cu 0.65908 0.32567 0.66936
 Cu218 Cu 0.69679 0.34948 0.70994
 N219 N 0.66392 0.37653 0.73022
 N220 N 0.68497 0.37354 0.72683
 C221 C 0.69580 0.39038 0.73266
 C222 C 0.68086 0.40494 0.73952
 C223 C 0.66064 0.39569 0.73795
 H224 H 0.71324 0.39228 0.73010
 H225 H 0.64482 0.40254 0.74095
 N226 N 0.70509 0.33170 0.67962
 N227 N 0.69088 0.32367 0.66281
 C228 C 0.70182 0.31332 0.64314
 C229 C 0.72389 0.31505 0.64803
 C230 C 0.72536 0.32677 0.67130
 H231 H 0.69429 0.30473 0.62700
 H232 H 0.74005 0.33152 0.68139
 H233 H 0.66999 0.32989 0.70719
 H234 H 0.67074 0.35242 0.68547
 N235 N 0.62851 0.81900 1.19498
 N236 N 0.62100 0.83650 1.20297
 C237 C 0.60164 0.83418 1.21574
 C238 C 0.59673 0.81414 1.21610
 C239 C 0.61410 0.80485 1.20273
 H240 H 0.59225 0.84615 1.22506
 H241 H 0.61625 0.78904 1.19934
 Cu242 Cu 0.63775 0.86077 1.19914
 Cu243 Cu 0.65696 0.81638 1.17650
 Cu244 Cu 0.68608 0.85992 1.16677
 N245 N 0.65898 0.88181 1.20472
 N246 N 0.67821 0.88107 1.19246
 C247 C 0.68988 0.89713 1.19984
 C248 C 0.67726 0.90858 1.21759
 C249 C 0.65767 0.89850 1.22027
 H250 H 0.70624 0.90038 1.19253
 H251 H 0.64364 0.90287 1.23263
 N252 N 0.69497 0.83435 1.15044
 N253 N 0.68379 0.81767 1.15328
 C254 C 0.69468 0.80289 1.13996
 C255 C 0.71368 0.81076 1.12885
 C256 C 0.71339 0.83062 1.13604
 H257 H 0.68989 0.78740 1.13976
 H258 H 0.72605 0.84144 1.13182
 H259 H 0.67111 0.84158 1.19379
 H260 H 0.65672 0.84420 1.16079
 N261 N 0.12860 0.30963 1.20008
 N262 N 0.12448 0.32876 1.20212
 C263 C 0.10511 0.33140 1.21518
 C264 C 0.09686 0.31283 1.22170
 C265 C 0.11221 0.29942 1.21194
 H266 H 0.09749 0.34565 1.21923
 H267 H 0.11128 0.28337 1.21274
 Cu268 Cu 0.14513 0.34796 1.18712
 Cu269 Cu 0.15444 0.29936 1.18111
 Cu270 Cu 0.17762 0.33236 1.13511
 N271 N 0.16797 0.36492 1.17208
 N272 N 0.17958 0.35942 1.15038
 C273 C 0.19337 0.37428 1.14361
 C274 C 0.19059 0.38958 1.16257
 C275 C 0.17450 0.38311 1.18043
 H276 H 0.20538 0.37352 1.12717
 H277 H 0.16806 0.39104 1.19819
 N278 N 0.18189 0.30320 1.13235
 N279 N 0.17383 0.29096 1.15080
 C280 C 0.18064 0.27240 1.14495
 C281 C 0.19371 0.27286 1.12171
 C282 C 0.19417 0.29263 1.11415
 H283 H 0.17648 0.25950 1.15689
 H284 H 0.20336 0.29892 1.09730
 H285 H 0.17398 0.32451 1.17438
 H286 H 0.14913 0.32081 1.15356
 N287 N 0.13515 0.79826 0.69170
 N288 N 0.13066 0.81153 0.71099
 C289 C 0.11212 0.80623 0.72416
 C290 C 0.10450 0.78897 0.71203
 C291 C 0.11942 0.78429 0.69150
 H292 H 0.10437 0.81460 0.74068
 H293 H 0.11898 0.77161 0.67764
 Cu294 Cu 0.14887 0.83495 0.71620
 Cu295 Cu 0.16164 0.79969 0.66935
 Cu296 Cu 0.18123 0.84762 0.66293
 N297 N 0.16508 0.85981 0.71609
 N298 N 0.17836 0.86425 0.69567
 C299 C 0.18822 0.88169 0.70114
 C300 C 0.18045 0.88869 0.72609
 C301 C 0.16572 0.87454 0.73507
 H302 H 0.20013 0.88877 0.68791
 H303 H 0.15668 0.87468 0.75425
 N304 N 0.18871 0.82599 0.63688
 N305 N 0.18228 0.80744 0.64030
 C306 C 0.19105 0.79592 0.62023
 C307 C 0.20338 0.80789 0.60326
 C308 C 0.20155 0.82686 0.61432
 H309 H 0.18823 0.78012 0.61775
 H310 H 0.20929 0.84022 0.60677
 H311 H 0.17926 0.82344 0.68691
 H312 H 0.15425 0.82882 0.66727
 N313 N 0.36439 0.69292 0.68312
 N314 N 0.37291 0.67510 0.68636
 C315 C 0.39402 0.67718 0.69268
 C316 C 0.39888 0.69722 0.69391
 C317 C 0.37974 0.70684 0.68795
 H318 H 0.40481 0.66506 0.69734
 H319 H 0.37724 0.72272 0.68685
 Cu320 Cu 0.35559 0.65026 0.68601
 Cu321 Cu 0.33426 0.69665 0.67111
 Cu322 Cu 0.30287 0.65611 0.67374
 N323 N 0.33399 0.63029 0.69663
 N324 N 0.31313 0.63298 0.69236
 C325 C 0.30182 0.61715 0.70120
 C326 C 0.31638 0.60368 0.71135
 C327 C 0.33673 0.61239 0.70809
 H328 H 0.28436 0.61532 0.69970
 H329 H 0.35229 0.60621 0.71346
 N330 N 0.29753 0.67681 0.64777
 N331 N 0.30910 0.69330 0.64734
 C332 C 0.30220 0.70467 0.62678
 C333 C 0.28584 0.69440 0.61346
 C334 C 0.28328 0.67684 0.62734
 H335 H 0.30955 0.71863 0.62081
 H336 H 0.27238 0.66468 0.62243
 H337 H 0.33352 0.67159 0.69696
 H338 H 0.33883 0.66817 0.65960
 N339 N 0.39464 0.17232 1.18579
 N340 N 0.39365 0.15965 1.20594
 C341 C 0.40775 0.16535 1.22529
 C342 C 0.41785 0.18265 1.21679
 C343 C 0.40920 0.18665 1.19169
 H344 H 0.41015 0.15774 1.24427
 H345 H 0.41323 0.19901 1.17864
 Cu346 Cu 0.37351 0.13731 1.20506
 Cu347 Cu 0.37690 0.16902 1.15354
 Cu348 Cu 0.32829 0.14514 1.16904
 N349 N 0.34929 0.11877 1.20601
 N350 N 0.33135 0.12208 1.19254
 C351 C 0.31696 0.10739 1.19778
 C352 C 0.32658 0.09411 1.21510
 C353 C 0.34709 0.10177 1.21992
 H354 H 0.30086 0.10630 1.18928
 H355 H 0.35938 0.09554 1.23275
 N356 N 0.33207 0.16327 1.13776
 N357 N 0.35118 0.17095 1.13080
 C358 C 0.34920 0.18141 1.10784
 C359 C 0.32771 0.18056 1.10013
 C360 C 0.31723 0.16903 1.11955
 H361 H 0.36223 0.18975 1.09816
 H362 H 0.30016 0.16498 1.12017
 H363 H 0.35362 0.16331 1.18193
 H364 H 0.36017 0.14170 1.15887
 N365 N 0.85973 0.68873 1.21551
 N366 N 0.85995 0.67155 1.22799
 C367 C 0.87488 0.67223 1.24777
 C368 C 0.88447 0.69088 1.24765
 C369 C 0.87436 0.70100 1.22711
 H370 H 0.87909 0.65983 1.26040
 H371 H 0.87828 0.71577 1.22004
 Cu372 Cu 0.84202 0.64938 1.21569
 Cu373 Cu 0.84258 0.69269 1.18278
 Cu374 Cu 0.83705 0.64800 1.14786
 N375 N 0.82722 0.62743 1.19742
 N376 N 0.82665 0.62637 1.17061
 C377 C 0.81670 0.60940 1.16298
 C378 C 0.81024 0.59953 1.18629
 C379 C 0.81715 0.61134 1.20784
 H380 H 0.81364 0.60500 1.14206
 H381 H 0.81512 0.60840 1.22938
 N382 N 0.83591 0.67401 1.12999
 N383 N 0.83593 0.69107 1.14372
 C384 C 0.83043 0.70578 1.12688
 C385 C 0.82701 0.69753 1.10127
 C386 C 0.83076 0.67742 1.10391
 H387 H 0.82829 0.72118 1.13303
 H388 H 0.82797 0.66592 1.08869
 H389 H 0.82484 0.66598 1.17789
 H390 H 0.85513 0.66579 1.17409
 N391 N 0.87367 0.18512 0.72051
 N392 N 0.88035 0.16748 0.72832
 C393 C 0.89998 0.16954 0.73986
 C394 C 0.90596 0.18938 0.73903
 C395 C 0.88888 0.19885 0.72679
 H396 H 0.90955 0.15741 0.74742
 H397 H 0.88811 0.21439 0.72156
 Cu398 Cu 0.86374 0.14263 0.72186
 Cu399 Cu 0.84724 0.18894 0.69903
 Cu400 Cu 0.81776 0.14807 0.68749
 N401 N 0.84115 0.12202 0.72162
 N402 N 0.82289 0.12457 0.70853
 C403 C 0.81025 0.10838 0.71128
 C404 C 0.82120 0.09480 0.72665
 C405 C 0.84086 0.10383 0.73288
 H406 H 0.79444 0.10639 0.70224
 H407 H 0.85391 0.09768 0.74460
 N408 N 0.81772 0.16997 0.66232
 N409 N 0.82815 0.18662 0.66772
 C410 C 0.82381 0.19990 0.64827
 C411 C 0.81043 0.19079 0.62941
 C412 C 0.80688 0.17182 0.63892
 H413 H 0.83015 0.21491 0.64771
 H414 H 0.79666 0.16044 0.62996
 H415 H 0.84015 0.16368 0.72283
 H416 H 0.85498 0.16049 0.68951
 N417 N 0.30643 0.37358 0.68399
 N418 N 0.32718 0.37756 0.68752
 C419 C 0.32954 0.39711 0.69297
 C420 C 0.30908 0.40567 0.69329
 C421 C 0.29477 0.39033 0.68773
 H422 H 0.34480 0.40436 0.69766
 H423 H 0.27722 0.39127 0.68646
 Cu424 Cu 0.34866 0.35646 0.68807
 Cu425 Cu 0.29636 0.34701 0.67465
 Cu426 Cu 0.33584 0.31081 0.66459
 N427 N 0.36537 0.33324 0.69782
 N428 N 0.36049 0.31526 0.68886
 C429 C 0.37524 0.30232 0.69825
 C430 C 0.39000 0.31286 0.71396
 C431 C 0.38321 0.33240 0.71323
 H432 H 0.37543 0.28654 0.69362
 H433 H 0.39082 0.34515 0.72288
 N434 N 0.30618 0.30825 0.64986
 N435 N 0.29126 0.32216 0.65394
 C436 C 0.27404 0.31808 0.63824
 C437 C 0.27817 0.30072 0.62373
 C438 C 0.29860 0.29471 0.63175
 H439 H 0.26017 0.32778 0.63612
 H440 H 0.30795 0.28239 0.62328
 H441 H 0.32151 0.32997 0.69044
 H442 H 0.32559 0.33980 0.65513
 N443 N 0.31328 0.86536 0.21660
 N444 N 0.33282 0.86999 0.22571
 C445 C 0.33411 0.88987 0.22917
 C446 C 0.31442 0.89806 0.22206
 C447 C 0.30155 0.88213 0.21434
 H448 H 0.34814 0.89777 0.23686
 H449 H 0.28503 0.88274 0.20712
 Cu450 Cu 0.35507 0.84983 0.23405
 Cu451 Cu 0.30475 0.83803 0.20609
 Cu452 Cu 0.34046 0.80287 0.22146
 N453 N 0.37067 0.82745 0.24959
 N454 N 0.36458 0.80900 0.24473
 C455 C 0.37903 0.79648 0.25534
 C456 C 0.39516 0.80764 0.26744
 C457 C 0.38939 0.82730 0.26354
 H458 H 0.37863 0.78047 0.25285
 H459 H 0.39873 0.84040 0.26890
 N460 N 0.32110 0.79948 0.19113
 N461 N 0.30594 0.81260 0.18601
 C462 C 0.29450 0.80613 0.16436
 C463 C 0.30353 0.78834 0.15522
 C464 C 0.32037 0.78459 0.17258
 H465 H 0.28155 0.81432 0.15500
 H466 H 0.33141 0.77207 0.17164
 H467 H 0.32648 0.83484 0.23879
 H468 H 0.33746 0.83615 0.20315
 N469 N 0.82467 0.37827 0.17016
 N470 N 0.82488 0.37502 0.19654
 C471 C 0.81932 0.39179 0.21025
 C472 C 0.81612 0.40644 0.19132
 C473 C 0.81973 0.39745 0.16609
 H474 H 0.81821 0.39332 0.23225
 H475 H 0.81801 0.40411 0.14630
 Cu476 Cu 0.83465 0.34978 0.20999
 Cu477 Cu 0.82956 0.35693 0.14343
 Cu478 Cu 0.83402 0.30939 0.16902
 N479 N 0.85352 0.32730 0.21617
 N480 N 0.85320 0.31110 0.20074
 C481 C 0.86960 0.29910 0.20811
 C482 C 0.88090 0.30862 0.22878
 C483 C 0.87017 0.32636 0.23344
 H484 H 0.87417 0.28543 0.19759
 H485 H 0.87493 0.33829 0.24719
 N486 N 0.82441 0.31436 0.13153
 N487 N 0.82415 0.33252 0.12162
 C488 C 0.81661 0.33172 0.09611
 C489 C 0.81169 0.31220 0.08956
 C490 C 0.81685 0.30149 0.11248
 H491 H 0.81375 0.34460 0.08378
 H492 H 0.81487 0.28566 0.11528
 H493 H 0.81646 0.33678 0.16999
 H494 H 0.84668 0.33665 0.16523
 N495 N 0.82038 0.86760 0.68832
 N496 N 0.84001 0.87327 0.69597
 C497 C 0.84013 0.89313 0.69976
 C498 C 0.81956 0.90022 0.69452
 C499 C 0.80741 0.88368 0.68738
 H500 H 0.85380 0.90164 0.70728
 H501 H 0.79035 0.88334 0.68221
 Cu502 Cu 0.86342 0.85447 0.70464
 Cu503 Cu 0.81308 0.83969 0.67967
 Cu504 Cu 0.85052 0.80656 0.69708
 N505 N 0.87943 0.83372 0.72299
 N506 N 0.87394 0.81490 0.72039
 C507 C 0.88787 0.80370 0.73425
 C508 C 0.90303 0.81617 0.74600
 C509 C 0.89731 0.83517 0.73844
 H510 H 0.88753 0.78763 0.73484
 H511 H 0.90571 0.84891 0.74325
 N512 N 0.83092 0.80118 0.66743
 N513 N 0.81535 0.81364 0.66134
 C514 C 0.80412 0.80602 0.64021
 C515 C 0.81362 0.78811 0.63245
 C516 C 0.83055 0.78550 0.65013
 H517 H 0.79090 0.81346 0.63027
 H518 H 0.84199 0.77328 0.65014
 H519 H 0.83563 0.83869 0.71180
 H520 H 0.84569 0.83871 0.67565
 N521 N 0.67781 0.63422 0.67878
 N522 N 0.65901 0.62953 0.69039
 C523 C 0.65933 0.61039 0.69778
 C524 C 0.67955 0.60270 0.69098
 C525 C 0.69103 0.61822 0.67915
 H526 H 0.64616 0.60284 0.70837
 H527 H 0.70762 0.61786 0.67124
 Cu528 Cu 0.63652 0.64908 0.69768
 Cu529 Cu 0.68306 0.66080 0.66398
 Cu530 Cu 0.63722 0.69082 0.66233
 N531 N 0.61915 0.67186 0.70933
 N532 N 0.61959 0.68842 0.69546
 C533 C 0.60568 0.70156 0.70719
 C534 C 0.59600 0.69267 0.72957
 C535 C 0.60485 0.67381 0.73036
 H536 H 0.60237 0.71621 0.69952
 H537 H 0.60093 0.66227 0.74479
 N538 N 0.66301 0.69524 0.63930
 N539 N 0.68111 0.68478 0.64087
 C540 C 0.69591 0.69215 0.62289
 C541 C 0.68633 0.70769 0.60932
 C542 C 0.66553 0.70918 0.62023
 H543 H 0.71203 0.68613 0.61906
 H544 H 0.65314 0.71972 0.61476
 H545 H 0.65956 0.67729 0.68523
 H546 H 0.65098 0.66224 0.65490
 N547 N 0.68463 0.13222 0.16302
 N548 N 0.67798 0.13556 0.18834
 C549 C 0.68015 0.11878 0.20271
 C550 C 0.68798 0.10411 0.18503
 C551 C 0.69051 0.11307 0.16003
 H552 H 0.67596 0.11728 0.22413
 H553 H 0.69703 0.10640 0.14137
 Cu554 Cu 0.66552 0.16116 0.19869
 Cu555 Cu 0.68649 0.15333 0.13646
 Cu556 Cu 0.67770 0.20126 0.16138
 N557 N 0.64709 0.18463 0.19978
 N558 N 0.65209 0.20078 0.18614
 C559 C 0.63563 0.21397 0.18924
 C560 C 0.61939 0.20532 0.20511
 C561 C 0.62722 0.18677 0.21143
 H562 H 0.63471 0.22797 0.17876
 H563 H 0.61863 0.17525 0.22248
 N564 N 0.69499 0.19563 0.12774
 N565 N 0.69731 0.17732 0.11796
 C566 C 0.70997 0.17769 0.09535
 C567 C 0.71594 0.19713 0.09047
 C568 C 0.70609 0.20823 0.11133
 H569 H 0.71495 0.16463 0.08373
 H570 H 0.70708 0.22416 0.11447
 H571 H 0.69325 0.17337 0.16700
 H572 H 0.66544 0.17450 0.15247
 N573 N 0.17914 0.61956 0.21364
 N574 N 0.15961 0.61518 0.22380
 C575 C 0.15863 0.59546 0.22830
 C576 C 0.17848 0.58710 0.22074
 C577 C 0.19110 0.60280 0.21163
 H578 H 0.14469 0.58780 0.23701
 H579 H 0.20772 0.60205 0.20392
 Cu580 Cu 0.13700 0.63561 0.23223
 Cu581 Cu 0.18768 0.64671 0.20265
 Cu582 Cu 0.15269 0.68235 0.22157
 N583 N 0.12026 0.65838 0.24690
 N584 N 0.12710 0.67672 0.24337
 C585 C 0.11215 0.68956 0.25339
 C586 C 0.09480 0.67878 0.26356
 C587 C 0.10042 0.65897 0.25926
 H588 H 0.11314 0.70556 0.25163
 H589 H 0.09044 0.64606 0.26349
 N590 N 0.17228 0.68571 0.19075
 N591 N 0.18688 0.67222 0.18367
 C592 C 0.19799 0.67854 0.16134
 C593 C 0.18932 0.69665 0.15400
 C594 C 0.17305 0.70068 0.17298
 H595 H 0.21035 0.67004 0.15031
 H596 H 0.16218 0.71333 0.17345
 H597 H 0.16604 0.65017 0.23663
 H598 H 0.15511 0.64909 0.20145
 N599 N 0.18622 0.11141 0.70144
 N600 N 0.16652 0.10983 0.71221
 C601 C 0.16418 0.09164 0.72308
 C602 C 0.18362 0.08154 0.71908
 C603 C 0.19724 0.09452 0.70544
 H604 H 0.14981 0.08646 0.73398
 H605 H 0.21395 0.09188 0.69894
 Cu606 Cu 0.14673 0.13238 0.71332
 Cu607 Cu 0.19629 0.13506 0.68299
 Cu608 Cu 0.15860 0.17266 0.67606
 N609 N 0.13228 0.15774 0.72029
 N610 N 0.13703 0.17356 0.70587
 C611 C 0.12391 0.18862 0.71406
 C612 C 0.11025 0.18183 0.73470
 C613 C 0.11601 0.16218 0.73816
 H614 H 0.12384 0.20321 0.70508
 H615 H 0.10857 0.15176 0.75213
 N616 N 0.18603 0.17136 0.65451
 N617 N 0.20016 0.15676 0.65696
 C618 C 0.21602 0.15861 0.63782
 C619 C 0.21187 0.17536 0.62294
 C620 C 0.19287 0.18324 0.63414
 H621 H 0.22929 0.14825 0.63449
 H622 H 0.18413 0.19605 0.62708
 H623 H 0.17548 0.15608 0.70178
 H624 H 0.16535 0.14212 0.67116
 N625 N 0.31374 0.60778 0.28491
 N626 N 0.33095 0.60856 0.26854
 C627 C 0.33139 0.59212 0.25240
 C628 C 0.31332 0.58067 0.25898
 C629 C 0.30250 0.59103 0.27961
 H630 H 0.34353 0.58897 0.23664
 H631 H 0.28758 0.58669 0.29006
 Cu632 Cu 0.35032 0.63154 0.26962
 Cu633 Cu 0.30769 0.62804 0.31278
 Cu634 Cu 0.33344 0.67329 0.30163
 N635 N 0.36974 0.65425 0.27414
 N636 N 0.36294 0.67077 0.28624
 C637 C 0.37912 0.68436 0.28551
 C638 C 0.39703 0.67580 0.27246
 C639 C 0.39052 0.65669 0.26552
 H640 H 0.37795 0.69930 0.29393
 H641 H 0.40013 0.64548 0.25481
 N642 N 0.30794 0.67021 0.32644
 N643 N 0.29873 0.65284 0.33138
 C644 C 0.28288 0.65527 0.35050
 C645 C 0.28212 0.67513 0.35800
 C646 C 0.29817 0.68421 0.34236
 H647 H 0.27287 0.64342 0.35866
 H648 H 0.30293 0.69970 0.34329
 H649 H 0.31700 0.64860 0.28509
 H650 H 0.33660 0.64485 0.31316
 N651 N 0.30641 0.11782 0.79648
 N652 N 0.32680 0.11497 0.78870
 C653 C 0.32975 0.09550 0.78268
 C654 C 0.30998 0.08586 0.78660
 C655 C 0.29555 0.10046 0.79516
 H656 H 0.34477 0.08901 0.77486
 H657 H 0.27836 0.09865 0.79987
 Cu658 Cu 0.34610 0.13778 0.78403
 Cu659 Cu 0.29533 0.14394 0.80704
 Cu660 Cu 0.33533 0.17935 0.82024
 N661 N 0.36522 0.16082 0.78170
 N662 N 0.36067 0.17742 0.79519
 C663 C 0.37621 0.19105 0.78941
 C664 C 0.39122 0.18244 0.77135
 C665 C 0.38373 0.16328 0.76694
 H666 H 0.37671 0.20598 0.79794
 H667 H 0.39115 0.15201 0.75383
 N668 N 0.30539 0.18094 0.83610
 N669 N 0.29017 0.16777 0.83000
 C670 C 0.27202 0.17182 0.84483
 C671 C 0.27592 0.18828 0.86119
 C672 C 0.29719 0.19383 0.85506
 H673 H 0.25747 0.16271 0.84483
 H674 H 0.30627 0.20579 0.86455
 H675 H 0.31894 0.16393 0.79202
 H676 H 0.32506 0.14974 0.82335
 N677 N 0.79671 0.63732 0.79976
 N678 N 0.81760 0.63305 0.79908
 C679 C 0.82040 0.61445 0.78924
 C680 C 0.80018 0.60672 0.78308
 C681 C 0.78545 0.62162 0.78995
 H682 H 0.83602 0.60718 0.78669
 H683 H 0.76789 0.62090 0.78853
 Cu684 Cu 0.83963 0.65171 0.81140
 Cu685 Cu 0.78662 0.66252 0.81528
 Cu686 Cu 0.82221 0.70023 0.82172
 N687 N 0.85953 0.67468 0.81212
 N688 N 0.85300 0.69331 0.81464
 C689 C 0.87047 0.70542 0.81221
 C690 C 0.88877 0.69371 0.80795
 C691 C 0.88123 0.67436 0.80802
 H692 H 0.86990 0.72149 0.81346
 H693 H 0.89073 0.66101 0.80460
 N694 N 0.79383 0.70055 0.84072
 N695 N 0.78020 0.68549 0.83873
 C696 C 0.76319 0.68852 0.85603
 C697 C 0.76630 0.70651 0.86950
 C698 C 0.78580 0.71384 0.85914
 H699 H 0.75005 0.67803 0.85934
 H700 H 0.79417 0.72720 0.86575
 H701 H 0.82147 0.67427 0.79665
 H702 H 0.82159 0.67215 0.83456
 N703 N 0.79827 0.13195 0.31833
 N704 N 0.81775 0.13106 0.30676
 C705 C 0.81944 0.11412 0.29189
 C706 C 0.79985 0.10408 0.29410
 C707 C 0.78672 0.11578 0.31091
 H708 H 0.83372 0.10947 0.28019
 H709 H 0.77030 0.11248 0.31793
 Cu710 Cu 0.83854 0.15247 0.31194
 Cu711 Cu 0.79053 0.15294 0.34453
 Cu712 Cu 0.82190 0.19597 0.33878
 N713 N 0.85908 0.17379 0.31888
 N714 N 0.85235 0.19142 0.32755
 C715 C 0.86925 0.20426 0.32650
 C716 C 0.88753 0.19391 0.31738
 C717 C 0.88051 0.17466 0.31290
 H718 H 0.86829 0.21993 0.33173
 H719 H 0.89006 0.16250 0.30434
 N720 N 0.79411 0.19470 0.36018
 N721 N 0.78254 0.17820 0.36261
 C722 C 0.76618 0.18128 0.38082
 C723 C 0.76754 0.20058 0.39061
 C724 C 0.78533 0.20875 0.37699
 H725 H 0.75484 0.16997 0.38758
 H726 H 0.79227 0.22335 0.38050
 H727 H 0.80558 0.17237 0.31946
 H728 H 0.82041 0.16741 0.35151
 N729 N 0.69091 0.38213 0.31123
 N730 N 0.67583 0.37771 0.29324
 C731 C 0.67511 0.39224 0.27469
 C732 C 0.69085 0.40614 0.28101
 C733 C 0.70068 0.39927 0.30408
 H734 H 0.66418 0.39255 0.25766
 H735 H 0.71374 0.40645 0.31501
 Cu736 Cu 0.65775 0.35359 0.29487
 Cu737 Cu 0.69671 0.36559 0.34308
 Cu738 Cu 0.66351 0.32606 0.35078
 N739 N 0.63605 0.33417 0.30595
 N740 N 0.63744 0.32449 0.32894
 C741 C 0.61964 0.31294 0.33210
 C742 C 0.60683 0.31521 0.30951
 C743 C 0.61774 0.32862 0.29318
 H744 H 0.61661 0.30304 0.34894
 H745 H 0.61262 0.33414 0.27372
 N746 N 0.68771 0.33106 0.37494
 N747 N 0.70001 0.34702 0.37280
 C748 C 0.71514 0.34686 0.39239
 C749 C 0.71222 0.32975 0.40730
 C750 C 0.69477 0.32006 0.39566
 H751 H 0.72782 0.35791 0.39491
 H752 H 0.68783 0.30598 0.40181
 H753 H 0.68498 0.34467 0.31689
 H754 H 0.66388 0.36006 0.33531
 N755 N 0.68941 0.87140 0.79122
 N756 N 0.67048 0.87189 0.77908
 C757 C 0.66973 0.88794 0.76310
 C758 C 0.68933 0.89796 0.76517
 C759 C 0.70156 0.88698 0.78291
 H760 H 0.65572 0.89232 0.75159
 H761 H 0.71745 0.89079 0.79064
 Cu762 Cu 0.64795 0.85233 0.78685
 Cu763 Cu 0.69478 0.85253 0.82054
 Cu764 Cu 0.64536 0.84348 0.85352
 N765 N 0.62369 0.83767 0.80263
 N766 N 0.62194 0.83554 0.82923
 C767 C 0.60288 0.82653 0.83525
 C768 C 0.59258 0.82225 0.81103
 C769 C 0.60620 0.82943 0.79066
 H770 H 0.59734 0.82273 0.85562
 H771 H 0.60339 0.82910 0.76893
 N772 N 0.67382 0.84179 0.87160
 N773 N 0.69271 0.84308 0.85830
 C774 C 0.70879 0.83756 0.87490
 C775 C 0.69951 0.83310 0.90001
 C776 C 0.67741 0.83597 0.89726
 H777 H 0.72587 0.83678 0.86911
 H778 H 0.66477 0.83264 0.91221
 H779 H 0.66605 0.83475 0.82300
 H780 H 0.66453 0.86197 0.83027
 N781 N 0.18607 0.38317 0.82775
 N782 N 0.18176 0.38132 0.80164
 C783 C 0.18858 0.39776 0.78865
 C784 C 0.19716 0.41070 0.80787
 C785 C 0.19514 0.40109 0.83248
 H786 H 0.18728 0.40019 0.76696
 H787 H 0.20075 0.40632 0.85214
 Cu788 Cu 0.16689 0.35784 0.78773
 Cu789 Cu 0.18133 0.36153 0.85310
 Cu790 Cu 0.17077 0.31576 0.82274
 N791 N 0.14734 0.33557 0.78087
 N792 N 0.14924 0.31882 0.79413
 C793 C 0.13350 0.30615 0.78612
 C794 C 0.12091 0.31559 0.76716
 C795 C 0.13017 0.33423 0.76422
 H796 H 0.13079 0.29152 0.79442
 H797 H 0.12451 0.34613 0.75158
 N798 N 0.18354 0.31855 0.85913
 N799 N 0.18624 0.33602 0.87129
 C800 C 0.19544 0.33332 0.89565
 C801 C 0.19881 0.31320 0.89885
 C802 C 0.19105 0.30423 0.87536
 H803 H 0.20040 0.34521 0.90933
 H804 H 0.19125 0.28852 0.87024
 H805 H 0.18931 0.34239 0.82191
 H806 H 0.15991 0.34304 0.83239
 N807 N 0.18527 0.87808 0.29836
 N808 N 0.16579 0.87845 0.28771
 C809 C 0.16382 0.89528 0.27331
 C810 C 0.18325 0.90574 0.27507
 C811 C 0.19643 0.89439 0.29103
 H812 H 0.14951 0.89950 0.26226
 H813 H 0.21286 0.89787 0.29719
 Cu814 Cu 0.14532 0.85672 0.29442
 Cu815 Cu 0.19425 0.85736 0.32263
 Cu816 Cu 0.16586 0.81304 0.31466
 N817 N 0.12709 0.83316 0.29856
 N818 N 0.13509 0.81597 0.30591
 C819 C 0.11896 0.80226 0.30624
 C820 C 0.09984 0.81151 0.29907
 C821 C 0.10564 0.83107 0.29434
 H822 H 0.12095 0.78685 0.31167
 H823 H 0.09502 0.84289 0.28810
 N824 N 0.19433 0.81506 0.33290
 N825 N 0.20474 0.83211 0.33624
 C826 C 0.22261 0.82921 0.35102
 C827 C 0.22348 0.80939 0.35758
 C828 C 0.20535 0.80078 0.34580
 H829 H 0.23371 0.84083 0.35739
 H830 H 0.20003 0.78550 0.34766
 H831 H 0.17942 0.83827 0.29647
 H832 H 0.16546 0.84093 0.33056
 C833 C 0.25373 1.05378 0.23388
 C834 C 0.27293 1.04273 0.23484
 C835 C 0.27171 1.02189 0.23559
 C836 C 0.25153 1.01182 0.23326
 C837 C 0.23247 1.02346 0.23119
 C838 C 0.23348 1.04434 0.23258
 C839 C 0.25038 0.98941 0.23348
 C840 C 0.23088 0.97942 0.24098
 C841 C 0.22998 0.95858 0.24183
 C842 C 0.24887 0.94753 0.23634
 C843 C 0.26850 0.95689 0.22923
 C844 C 0.26896 0.97771 0.22693
 H845 H 0.25456 1.06989 0.23415
 H846 H 0.28665 1.01371 0.23780
 H847 H 0.21672 1.01651 0.22896
 H848 H 0.21646 0.98761 0.24717
 H849 H 0.24830 0.93148 0.23782
 H850 H 0.28386 0.98460 0.21979
 C851 C 0.25172 0.55794 0.74448
 C852 C 0.27156 0.54806 0.73988
 C853 C 0.27195 0.52718 0.74007
 C854 C 0.25254 0.51621 0.74378
 C855 C 0.23271 0.52647 0.74731
 C856 C 0.23233 0.54728 0.74836
 C857 C 0.25300 0.49412 0.74487
 C858 C 0.23908 0.48401 0.76311
 C859 C 0.23924 0.46320 0.76429
 C860 C 0.25370 0.45239 0.74731
 C861 C 0.26853 0.46226 0.73002
 C862 C 0.26771 0.48307 0.72840
 H863 H 0.25133 0.57406 0.74510
 H864 H 0.28732 0.51950 0.73737
 H865 H 0.21761 0.51831 0.75003
 H866 H 0.22820 0.49233 0.77665
 H867 H 0.25429 0.43633 0.74879
 H868 H 0.27847 0.49063 0.71418
 C869 C 0.74389 -0.04568 0.24338
 C870 C 0.76326 -0.03471 0.24260
 C871 C 0.76239 -0.01398 0.24102
 C872 C 0.74222 -0.00402 0.24168
 C873 C 0.72284 -0.01530 0.24264
 C874 C 0.72365 -0.03615 0.24282
 C875 C 0.74156 0.01808 0.24155
 C876 C 0.72549 0.02821 0.22718
 C877 C 0.72531 0.04911 0.22656
 C878 C 0.74128 0.05989 0.24071
 C879 C 0.75781 0.04996 0.25428
 C880 C 0.75758 0.02918 0.25513
 H881 H 0.74460 -0.06178 0.24413
 H882 H 0.77749 -0.00564 0.23976
 H883 H 0.70719 -0.00791 0.24287
 H884 H 0.71344 0.01981 0.21598
 H885 H 0.74168 0.07597 0.23968
 H886 H 0.76996 0.02167 0.26653
 C887 C 0.74626 0.45445 0.73940
 C888 C 0.76574 0.46506 0.73552
 C889 C 0.76487 0.48578 0.73282
 C890 C 0.74482 0.49597 0.73490
 C891 C 0.72544 0.48493 0.73894
 C892 C 0.72603 0.46411 0.74083
 C893 C 0.74426 0.51811 0.73342
 C894 C 0.72687 0.52790 0.72107
 C895 C 0.72606 0.54881 0.72044
 C896 C 0.74320 0.55993 0.73158
 C897 C 0.76079 0.55046 0.74369
 C898 C 0.76106 0.52961 0.74482
 H899 H 0.74687 0.43843 0.74121
 H900 H 0.77979 0.49403 0.72934
 H901 H 0.71000 0.49258 0.74079
 H902 H 0.71409 0.51923 0.71169
 H903 H 0.74274 0.57603 0.73111
 H904 H 0.77408 0.52234 0.75534
 C905 C 0.24320 0.43286 0.22433
 C906 C 0.25430 0.44318 0.24485
 C907 C 0.25452 0.46407 0.24498
 C908 C 0.24397 0.47464 0.22446
 C909 C 0.23299 0.46400 0.20386
 C910 C 0.23245 0.44310 0.20391
 C911 C 0.24442 0.49675 0.22477
 C912 C 0.22500 0.50774 0.22279
 C913 C 0.22532 0.52869 0.22464
 C914 C 0.24531 0.53845 0.22815
 C915 C 0.26478 0.52777 0.22984
 C916 C 0.26428 0.50693 0.22807
 H917 H 0.24283 0.41674 0.22435
 H918 H 0.26291 0.47210 0.26100
 H919 H 0.22478 0.47195 0.18799
 H920 H 0.20973 0.49990 0.22027
 H921 H 0.24575 0.55454 0.22976
 H922 H 0.27927 0.49860 0.22971
 C923 C 0.75106 1.05003 0.73324
 C924 C 0.77066 1.03960 0.73467
 C925 C 0.77028 1.01877 0.73330
 C926 C 0.75062 1.00829 0.72898
 C927 C 0.73105 1.01924 0.72744
 C928 C 0.73111 1.04009 0.73037
 C929 C 0.75068 0.98604 0.72642
 C930 C 0.73243 0.97465 0.73463
 C931 C 0.73292 0.95378 0.73305
 C932 C 0.75198 0.94415 0.72406
 C933 C 0.77033 0.95507 0.71573
 C934 C 0.76934 0.97594 0.71625
 H935 H 0.75134 1.06613 0.73487
 H936 H 0.78541 1.01081 0.73539
 H937 H 0.71580 1.01162 0.72408
 H938 H 0.71801 0.98185 0.74308
 H939 H 0.75247 0.92804 0.72345
 H940 H 0.78312 0.98430 0.70849
 C941 C 0.75096 0.55577 0.24071
 C942 C 0.76441 0.54609 0.22131
 C943 C 0.76411 0.52528 0.21939
 C944 C 0.75122 0.51395 0.23745
 C945 C 0.73772 0.52396 0.25670
 C946 C 0.73692 0.54483 0.25777
 C947 C 0.75182 0.49177 0.23611
 C948 C 0.73325 0.48043 0.24307
 C949 C 0.73417 0.45961 0.24290
 C950 C 0.75338 0.44996 0.23456
 C951 C 0.77152 0.46092 0.22564
 C952 C 0.77094 0.48174 0.22747
 H953 H 0.75070 0.57189 0.24159
 H954 H 0.77407 0.51797 0.20380
 H955 H 0.72794 0.51557 0.27106
 H956 H 0.71805 0.48764 0.24877
 H957 H 0.75372 0.43384 0.23348
 H958 H 0.78551 0.49004 0.22221
 C959 C 0.24821 -0.06835 0.75509
 C960 C 0.26794 -0.05801 0.75627
 C961 C 0.26793 -0.03717 0.75564
 C962 C 0.24806 -0.02647 0.75631
 C963 C 0.22830 -0.03744 0.75686
 C964 C 0.22844 -0.05824 0.75506
 C965 C 0.24785 -0.00412 0.75640
 C966 C 0.22942 0.00631 0.74747
 C967 C 0.22887 0.02714 0.74798
 C968 C 0.24732 0.03780 0.75599
 C969 C 0.26605 0.02795 0.76433
 C970 C 0.26602 0.00707 0.76522
 H971 H 0.24822 -0.08448 0.75476
 H972 H 0.28344 -0.02955 0.75521
 H973 H 0.21270 -0.03007 0.75826
 H974 H 0.21554 -0.00155 0.73939
 H975 H 0.24706 0.05391 0.75577
 H976 H 0.28008 -0.00023 0.77331
 C977 C 0.26056 0.22234 1.06721
 C978 C 0.24223 0.23386 1.06153
 C979 C 0.23879 0.23992 1.03471
 C980 C 0.25330 0.23415 1.01342
 C981 C 0.27189 0.22301 1.01965
 C982 C 0.27573 0.21722 1.04657
 C983 C 0.24878 0.23918 0.98462
 C984 C 0.25210 0.22494 0.96363
 C985 C 0.24722 0.22932 0.93660
 C986 C 0.23883 0.24797 0.93034
 C987 C 0.23533 0.26243 0.95095
 C988 C 0.24045 0.25794 0.97805
 H989 H 0.26343 0.21797 1.08803
 H990 H 0.22431 0.24837 1.03029
 H991 H 0.28334 0.21888 1.00346
 H992 H 0.25787 0.21020 0.96836
 H993 H 0.23473 0.25108 0.90941
 H994 H 0.23777 0.26889 0.99416
 C995 C 0.24816 0.74990 0.55145
 C996 C 0.24052 0.76552 0.53569
 C997 C 0.24154 0.76384 0.50709
 C998 C 0.25082 0.74698 0.49394
 C999 C 0.25863 0.73161 0.51024
 C1000 C 0.25696 0.73283 0.53882
 C1001 C 0.25216 0.74542 0.46342
 C1002 C 0.25205 0.72677 0.44981
 C1003 C 0.25369 0.72543 0.42119
 C1004 C 0.25391 0.74282 0.40589
 C1005 C 0.25351 0.76142 0.41898
 C1006 C 0.25344 0.76267 0.44755
 H1007 H 0.24702 0.75090 0.57353
 H1008 H 0.23444 0.77550 0.49524
 H1009 H 0.26642 0.71871 0.50094
 H1010 H 0.25100 0.71320 0.46127
 H1011 H 0.25444 0.74189 0.38377
 H1012 H 0.25392 0.77723 0.45721
 C1013 C 0.24425 0.74919 -0.04484
 C1014 C 0.24599 0.76687 -0.02951
 C1015 C 0.24571 0.76630 -0.00094
 C1016 C 0.24378 0.74802 0.01234
 C1017 C 0.24213 0.73038 -0.00315
 C1018 C 0.24237 0.73089 -0.03175
 C1019 C 0.24390 0.74714 0.04239
 C1020 C 0.22721 0.73711 0.05652
 C1021 C 0.22771 0.73546 0.08501
 C1022 C 0.24497 0.74408 0.09939
 C1023 C 0.26171 0.75414 0.08540
 C1024 C 0.26115 0.75560 0.05691
 H1025 H 0.24461 0.74969 -0.06696
 H1026 H 0.24719 0.77998 0.01088
 H1027 H 0.24062 0.71628 0.00713
 H1028 H 0.21398 0.73041 0.04525
 H1029 H 0.24547 0.74284 0.12141
 H1030 H 0.27424 0.76314 0.04602
 C1031 C 0.25058 0.23849 0.42360
 C1032 C 0.26671 0.24777 0.43924
 C1033 C 0.26523 0.24722 0.46781
 C1034 C 0.24780 0.23757 0.48097
 C1035 C 0.23182 0.22816 0.46515
 C1036 C 0.23309 0.22855 0.43642
 C1037 C 0.24643 0.23743 0.51123
 C1038 C 0.24206 0.21969 0.52513
 C1039 C 0.24123 0.21957 0.55381
 C1040 C 0.24517 0.23717 0.56860
 C1041 C 0.24960 0.25491 0.55502
 C1042 C 0.24999 0.25504 0.52638
 H1043 H 0.25172 0.23891 0.40150
 H1044 H 0.27773 0.25434 0.47990
 H1045 H 0.21840 0.22059 0.47528
 H1046 H 0.23929 0.20604 0.51367
 H1047 H 0.24470 0.23709 0.59074
 H1048 H 0.25328 0.26883 0.51589
 C1049 C 0.77446 0.75458 1.07170
 C1050 C 0.75820 0.76876 1.06771
 C1051 C 0.74950 0.77094 1.04166
 C1052 C 0.75786 0.75981 1.01918
 C1053 C 0.77443 0.74582 1.02367
 C1054 C 0.78235 0.74269 1.04997
 C1055 C 0.74982 0.76295 0.99095
 C1056 C 0.74935 0.74704 0.97193
 C1057 C 0.74358 0.75013 0.94483
 C1058 C 0.73718 0.76904 0.93670
 C1059 C 0.73597 0.78485 0.95573
 C1060 C 0.74297 0.78184 0.98257
 H1061 H 0.78073 0.75264 1.09200
 H1062 H 0.73662 0.78165 1.03895
 H1063 H 0.78140 0.73757 1.00656
 H1064 H 0.75364 0.73216 0.97797
 H1065 H 0.73212 0.77113 0.91587
 H1066 H 0.74334 0.79429 0.99678
 C1067 C 0.77505 0.25504 0.59017
 C1068 C 0.76346 0.27214 0.58358
 C1069 C 0.75567 0.27430 0.55702
 C1070 C 0.76053 0.25990 0.53650
 C1071 C 0.77259 0.24297 0.54371
 C1072 C 0.77896 0.24007 0.57065
 C1073 C 0.75319 0.26216 0.50769
 C1074 C 0.74981 0.24513 0.49108
 C1075 C 0.74568 0.24680 0.46324
 C1076 C 0.74278 0.26554 0.45218
 C1077 C 0.74435 0.28273 0.46858
 C1078 C 0.75029 0.28106 0.49609
 H1079 H 0.78005 0.25297 0.61102
 H1080 H 0.74602 0.28724 0.55255
 H1081 H 0.77727 0.23195 0.52843
 H1082 H 0.75104 0.23038 0.49937
 H1083 H 0.73915 0.26672 0.43069
 H1084 H 0.75259 0.29444 0.50825
 C1085 C 0.75380 0.25351 -0.10747
 C1086 C 0.75715 0.27158 -0.09375
 C1087 C 0.75841 0.27210 -0.06522
 C1088 C 0.75798 0.25433 -0.05028
 C1089 C 0.75532 0.23615 -0.06469
 C1090 C 0.75243 0.23581 -0.09303
 C1091 C 0.76036 0.25472 -0.01991
 C1092 C 0.75102 0.23977 -0.00378
 C1093 C 0.75391 0.23953 0.02453
 C1094 C 0.76504 0.25521 0.03742
 C1095 C 0.77414 0.27063 0.02180
 C1096 C 0.77227 0.26986 -0.00683
 H1097 H 0.75232 0.25325 -0.12949
 H1098 H 0.76013 0.28637 -0.05498
 H1099 H 0.75520 0.22220 -0.05403
 H1100 H 0.74132 0.22813 -0.01305
 H1101 H 0.76696 0.25519 0.05936
 H1102 H 0.78059 0.28087 -0.01902
 C1103 C 0.76562 0.76577 0.42630
 C1104 C 0.76879 0.78166 0.44470
 C1105 C 0.76682 0.77836 0.47291
 C1106 C 0.76185 0.75929 0.48257
 C1107 C 0.75908 0.74350 0.46392
 C1108 C 0.76090 0.74674 0.43583
 C1109 C 0.75938 0.75577 0.51213
 C1110 C 0.74022 0.74707 0.52254
 C1111 C 0.73764 0.74361 0.55062
 C1112 C 0.75448 0.74891 0.56829
 C1113 C 0.77373 0.75749 0.55798
 C1114 C 0.77615 0.76090 0.52994
 H1115 H 0.76709 0.76813 0.40449
 H1116 H 0.76925 0.79049 0.48735
 H1117 H 0.75545 0.72871 0.47126
 H1118 H 0.72736 0.74298 0.50867
 H1119 H 0.75265 0.74636 0.59001
 H1120 H 0.79107 0.76748 0.52198
 C1121 C 1.04712 0.25318 0.25108
 C1122 C 1.03532 0.23543 0.25320
 C1123 C 1.01272 0.23619 0.25762
 C1124 C 1.00188 0.25450 0.26127
 C1125 C 1.01411 0.27225 0.25910
 C1126 C 1.03667 0.27167 0.25332
 C1127 C 0.97782 0.25484 0.26682
 C1128 C 0.96478 0.27030 0.25726
 C1129 C 0.94207 0.27000 0.26134
 C1130 C 0.93215 0.25378 0.27424
 C1131 C 0.94481 0.23823 0.28411
 C1132 C 0.96762 0.23922 0.28106
 H1133 H 1.06456 0.25254 0.24721
 H1134 H 1.00364 0.22241 0.25846
 H1135 H 1.00609 0.28644 0.26177
 H1136 H 0.97209 0.28237 0.24593
 H1137 H 0.91457 0.25340 0.27683
 H1138 H 0.97749 0.22781 0.28987
 C1139 C 0.55200 0.25014 0.74378
 C1140 C 0.54054 0.23473 0.75680
 C1141 C 0.51765 0.23569 0.75866
 C1142 C 0.50596 0.25059 0.74544
 C1143 C 0.51782 0.26533 0.73136
 C1144 C 0.54076 0.26544 0.73091
 C1145 C 0.48149 0.25019 0.74554
 C1146 C 0.46937 0.26790 0.74439
 C1147 C 0.44645 0.26746 0.74363
 C1148 C 0.43548 0.24920 0.74534
 C1149 C 0.44714 0.23141 0.74699
 C1150 C 0.47006 0.23198 0.74644
 H1151 H 0.56964 0.24970 0.74237
 H1152 H 0.50885 0.22469 0.77032
 H1153 H 0.50928 0.27668 0.72045
 H1154 H 0.47772 0.28206 0.74371
 H1155 H 0.41782 0.24882 0.74515
 H1156 H 0.47892 0.21813 0.74679
 C1157 C -0.04587 0.25590 0.75189
 C1158 C -0.03411 0.27382 0.75263
 C1159 C -0.01118 0.27328 0.75351
 C1160 C 0.00033 0.25509 0.75165
 C1161 C -0.01210 0.23746 0.74925
 C1162 C -0.03498 0.23764 0.75065
 C1163 C 0.02499 0.25430 0.75212
 C1164 C 0.03591 0.23626 0.75736
 C1165 C 0.05873 0.23495 0.75595
 C1166 C 0.07105 0.25214 0.75183
 C1167 C 0.06091 0.27049 0.74833
 C1168 C 0.03801 0.27139 0.74737
 H1169 H -0.06353 0.25618 0.75204
 H1170 H -0.00261 0.28717 0.75610
 H1171 H -0.00424 0.22335 0.74562
 H1172 H 0.02697 0.22291 0.76213
 H1173 H 0.08870 0.25124 0.75159
 H1174 H 0.03066 0.28554 0.74334
 C1175 C 0.45128 0.25532 0.23836
 C1176 C 0.46059 0.27438 0.23728
 C1177 C 0.48342 0.27644 0.23752
 C1178 C 0.49678 0.25955 0.23949
 C1179 C 0.48706 0.24066 0.24127
 C1180 C 0.46442 0.23846 0.24037
 C1181 C 0.52086 0.26130 0.24067
 C1182 C 0.53414 0.24751 0.22641
 C1183 C 0.55679 0.24719 0.23005
 C1184 C 0.56633 0.26174 0.24685
 C1185 C 0.55324 0.27549 0.26147
 C1186 C 0.53056 0.27526 0.25823
 H1187 H 0.43371 0.25360 0.23801
 H1188 H 0.49072 0.29111 0.23670
 H1189 H 0.49713 0.22757 0.24324
 H1190 H 0.52667 0.23661 0.21302
 H1191 H 0.58371 0.26135 0.25034
 H1192 H 0.52041 0.28545 0.27017
 C1193 C 1.05761 0.74348 0.78219
 C1194 C 1.04554 0.73295 0.80187
 C1195 C 1.02323 0.73697 0.80548
 C1196 C 1.01254 0.75009 0.78822
 C1197 C 1.02466 0.75974 0.76771
 C1198 C 1.04715 0.75659 0.76480
 C1199 C 0.98846 0.75207 0.78980
 C1200 C 0.97837 0.77044 0.78559
 C1201 C 0.95556 0.77183 0.78496
 C1202 C 0.94281 0.75471 0.78912
 C1203 C 0.95260 0.73627 0.79370
 C1204 C 0.97543 0.73514 0.79396
 H1205 H 1.07478 0.74032 0.77890
 H1206 H 1.01398 0.72944 0.82128
 H1207 H 1.01656 0.76921 0.75340
 H1208 H 0.98833 0.78348 0.78203
 H1209 H 0.92521 0.75571 0.78838
 H1210 H 0.98326 0.72098 0.79678
 C1211 C 0.55915 0.74879 0.26056
 C1212 C 0.54965 0.73101 0.26972
 C1213 C 0.52693 0.72993 0.27375
 C1214 C 0.51345 0.74602 0.26756
 C1215 C 0.52323 0.76340 0.25749
 C1216 C 0.54598 0.76515 0.25462
 C1217 C 0.48925 0.74473 0.27129
 C1218 C 0.47703 0.76181 0.27822
 C1219 C 0.45417 0.76115 0.27972
 C1220 C 0.44348 0.74288 0.27573
 C1221 C 0.45530 0.72548 0.26966
 C1222 C 0.47815 0.72661 0.26708
 H1223 H 0.57669 0.74984 0.25792
 H1224 H 0.51981 0.71657 0.28219
 H1225 H 0.51306 0.77556 0.25129
 H1226 H 0.48530 0.77579 0.28174
 H1227 H 0.42584 0.74228 0.27695
 H1228 H 0.48733 0.71344 0.26149
 C1229 C -0.06466 0.75235 0.26947
 C1230 C -0.05110 0.76899 0.26728
 C1231 C -0.02867 0.76687 0.27121
 C1232 C -0.01977 0.74861 0.27937
 C1233 C -0.03392 0.73211 0.28202
 C1234 C -0.05620 0.73378 0.27616
 C1235 C 0.00425 0.74694 0.28434
 C1236 C 0.01537 0.72879 0.28076
 C1237 C 0.03808 0.72767 0.28386
 C1238 C 0.05006 0.74525 0.28857
 C1239 C 0.03935 0.76358 0.29198
 C1240 C 0.01645 0.76390 0.29155
 H1241 H -0.08193 0.75385 0.26574
 H1242 H -0.01829 0.77966 0.26815
 H1243 H -0.02769 0.71790 0.28814
 H1244 H 0.00659 0.71557 0.27462
 H1245 H 0.06767 0.74465 0.28951
 H1246 H 0.00804 0.77755 0.29662
 C1247 C 0.43728 0.74824 0.76073
 C1248 C 0.44582 0.75941 0.78244
 C1249 C 0.46836 0.76171 0.78469
 C1250 C 0.48258 0.75317 0.76511
 C1251 C 0.47390 0.74198 0.74340
 C1252 C 0.45130 0.73886 0.74155
 C1253 C 0.50650 0.75466 0.76845
 C1254 C 0.51965 0.73792 0.76357
 C1255 C 0.54222 0.73897 0.76686
 C1256 C 0.55187 0.75693 0.77516
 C1257 C 0.53879 0.77353 0.78163
 C1258 C 0.51618 0.77239 0.77778
 H1259 H 0.41983 0.74583 0.75989
 H1260 H 0.47479 0.76968 0.80219
 H1261 H 0.48487 0.73541 0.72826
 H1262 H 0.51231 0.72388 0.75754
 H1263 H 0.56929 0.75757 0.77834
 H1264 H 0.50614 0.78533 0.78207
 C1265 C 0.41885 0.30961 0.24698
 C1266 C 0.43196 0.32107 0.23030
 C1267 C 0.44985 0.30953 0.22436
 C1268 C 0.44604 0.29184 0.23758
 O1269 O 0.42731 0.29194 0.25132
 H1270 H 0.42913 0.33617 0.22395
 H1271 H 0.46389 0.31349 0.21187
 C1272 C 0.40745 0.78324 0.82548
 C1273 C 0.41581 0.77045 0.84442
 C1274 C 0.43160 0.75997 0.83069
 C1275 C 0.43141 0.76692 0.80442
 O1276 O 0.41686 0.78106 0.80110
 H1277 H 0.41120 0.76908 0.86575
 H1278 H 0.44191 0.74850 0.83871
 C1279 C -0.07150 0.31366 0.75466
 C1280 C -0.05412 0.32388 0.74341
 C1281 C -0.03746 0.31049 0.74181
 C1282 C -0.04595 0.29301 0.75203
 O1283 O -0.06665 0.29493 0.75981
 H1284 H -0.05363 0.33923 0.73717
 H1285 H -0.02126 0.31307 0.73345
 C1286 C -0.08332 0.81199 0.26451
 C1287 C -0.06483 0.82002 0.25258
 C1288 C -0.05011 0.80484 0.25122
 C1289 C -0.06081 0.78867 0.26235
 O1290 O -0.08096 0.79303 0.27030
 H1291 H -0.06220 0.83520 0.24629
 H1292 H -0.03354 0.80561 0.24336
 C1293 C 0.58937 0.69539 0.28541
 C1294 C 0.57319 0.68240 0.27740
 C1295 C 0.55619 0.69405 0.27051
 C1296 C 0.56321 0.71336 0.27468
 O1297 O 0.58344 0.71425 0.28365
 H1298 H 0.57363 0.66632 0.27685
 H1299 H 0.54059 0.68905 0.26306
 C1300 C 0.57778 0.19698 0.77356
 C1301 C 0.55897 0.18598 0.77662
 C1302 C 0.54244 0.19882 0.77200
 C1303 C 0.55231 0.21687 0.76629
 O1304 O 0.57387 0.21572 0.76728
 H1305 H 0.55750 0.17035 0.78125
 H1306 H 0.52531 0.19504 0.77172
 C1307 C 1.07931 0.69565 0.82711
 C1308 C 1.05971 0.68634 0.83233
 C1309 C 1.04425 0.69967 0.82526
 C1310 C 1.05562 0.71609 0.81592
 O1311 O 1.07698 0.71363 0.81710
 H1312 H 1.05705 0.67143 0.83974
 H1313 H 1.02683 0.69712 0.82535
 C1314 C 1.07223 0.19564 0.25491
 C1315 C 1.05462 0.18471 0.24604
 C1316 C 1.03813 0.19814 0.24392
 C1317 C 1.04702 0.21626 0.25155
 O1318 O 1.06770 0.21471 0.25818
 H1319 H 1.05381 0.16887 0.24199
 H1320 H 1.02168 0.19504 0.23751
 C1321 C 0.57804 0.30015 0.70330
 C1322 C 0.56269 0.30127 0.68329
 C1323 C 0.54629 0.28885 0.69138
 C1324 C 0.55304 0.28079 0.71556
 O1325 O 0.57240 0.28765 0.72284
 H1326 H 0.56346 0.31005 0.66496
 H1327 H 0.53149 0.28560 0.68050
 C1328 C 0.57742 0.80509 0.22923
 C1329 C 0.55996 0.81600 0.23924
 C1330 C 0.54588 0.80248 0.24995
 C1331 C 0.55573 0.78421 0.24577
 O1332 O 0.57501 0.78576 0.23324
 H1333 H 0.55775 0.83194 0.23889
 H1334 H 0.53043 0.80569 0.26006
 C1335 C 1.07575 0.30765 0.23448
 C1336 C 1.05997 0.32090 0.24341
 C1337 C 1.04295 0.30937 0.25237
 C1338 C 1.04970 0.28992 0.24822
 O1339 O 1.06959 0.28899 0.23742
 H1340 H 1.06065 0.33697 0.24307
 H1341 H 1.02752 0.31463 0.26064
 C1342 C 1.08437 0.77828 0.71891
 C1343 C 1.07013 0.77085 0.69988
 C1344 C 1.05362 0.76244 0.71475
 C1345 C 1.05933 0.76511 0.74165
 O1346 O 1.07799 0.77474 0.74429
 H1347 H 1.07157 0.77162 0.67787
 H1348 H 1.03947 0.75474 0.70699
 C1349 C 0.41975 0.70613 0.70166
 C1350 C 0.43965 0.69744 0.69612
 C1351 C 0.45444 0.70927 0.70891
 C1352 C 0.44241 0.72425 0.72165
 O1353 O 0.42128 0.72233 0.71715
 H1354 H 0.44289 0.68379 0.68478
 H1355 H 0.47175 0.70649 0.71002
 C1356 C 0.43421 0.19460 0.23108
 C1357 C 0.44748 0.18769 0.25122
 C1358 C 0.46086 0.20328 0.25750
 C1359 C 0.45444 0.21855 0.24099
 O1360 O 0.43832 0.21330 0.22492
 H1361 H 0.44770 0.17296 0.25977
 H1362 H 0.47367 0.20354 0.27236
 C1363 C -0.09662 0.69788 0.26312
 C1364 C -0.08458 0.68651 0.28047
 C1365 C -0.06768 0.69845 0.28833
 C1366 C -0.07081 0.71625 0.27526
 O1367 O -0.08836 0.71586 0.26003
 H1368 H -0.08744 0.67124 0.28617
 H1369 H -0.05465 0.69455 0.30178
 C1370 C -0.07292 0.19812 0.74649
 C1371 C -0.05571 0.18733 0.75606
 C1372 C -0.03915 0.20065 0.75890
 C1373 C -0.04744 0.21868 0.75083
 O1374 O -0.06803 0.21717 0.74340
 H1375 H -0.05518 0.17159 0.76019
 H1376 H -0.02301 0.19751 0.76619
 C1377 C 0.28092 0.40837 0.28522
 C1378 C 0.27386 0.42081 0.30619
 C1379 C 0.26383 0.43624 0.29377
 C1380 C 0.26516 0.43181 0.26620
 O1381 O 0.27558 0.41491 0.26095
 H1382 H 0.27581 0.41882 0.32788
 H1383 H 0.25574 0.44878 0.30363
 C1384 C 0.30728 -0.09263 0.77479
 C1385 C 0.32146 -0.08032 0.76071
 C1386 C 0.30878 -0.06508 0.75174
 C1387 C 0.28788 -0.06956 0.76069
 O1388 O 0.28706 -0.08614 0.77465
 H1389 H 0.33888 -0.08204 0.75772
 H1390 H 0.31407 -0.05244 0.73990
 C1391 C 0.80830 0.43032 0.74049
 C1392 C 0.82095 0.44545 0.72993
 C1393 C 0.80685 0.46094 0.72651
 C1394 C 0.78664 0.45399 0.73512
 O1395 O 0.78764 0.43547 0.74354
 H1396 H 0.83829 0.44530 0.72542
 H1397 H 0.81089 0.47540 0.71849
 C1398 C 0.80700 -0.06613 0.25654
 C1399 C 0.81799 -0.05437 0.23794
 C1400 C 0.80314 -0.04049 0.23036
 C1401 C 0.78420 -0.04513 0.24455
 O1402 O 0.78654 -0.06060 0.26045
 H1403 H 0.83480 -0.05556 0.23103
 H1404 H 0.80569 -0.02865 0.21592
 C1405 C 0.31073 0.58406 0.72212
 C1406 C 0.32531 0.56954 0.72913
 C1407 C 0.31271 0.55374 0.73695
 C1408 C 0.29141 0.55994 0.73423
 O1409 O 0.29029 0.57831 0.72526
 H1410 H 0.34292 0.57029 0.72834
 H1411 H 0.31844 0.53953 0.74391
 C1412 C 0.31702 1.07563 0.22568
 C1413 C 0.32831 1.06115 0.23907
 C1414 C 0.31337 1.04658 0.24445
 C1415 C 0.29404 1.05338 0.23411
 O1416 O 0.29628 1.07099 0.22272
 H1417 H 0.34541 1.06111 0.24406
 H1418 H 0.31623 1.03279 0.25487
 C1419 C 0.79797 0.58080 0.18768
 C1420 C 0.79614 0.56744 0.16621
 C1421 C 0.78351 0.55239 0.17602
 C1422 C 0.77838 0.55781 0.20268
 O1423 O 0.78715 0.57507 0.20981
 H1424 H 0.80322 0.56853 0.14588
 H1425 H 0.77831 0.53924 0.16487
 C1426 C 0.81301 1.07495 0.73371
 C1427 C 0.82484 1.05993 0.74512
 C1428 C 0.81069 1.04421 0.74705
 C1429 C 0.79126 1.05098 0.73684
 O1430 O 0.79276 1.06958 0.72877
 H1431 H 0.84174 1.06031 0.75102
 H1432 H 0.81412 1.02972 0.75518
 C1433 C 0.70344 0.57904 0.29359
 C1434 C 0.69029 0.56264 0.29730
 C1435 C 0.70155 0.54718 0.28554
 C1436 C 0.72068 0.55539 0.27534
 O1437 O 0.72180 0.57474 0.28032
 H1438 H 0.67427 0.56210 0.30691
 H1439 H 0.69590 0.53198 0.28355
 C1440 C 0.69064 1.07666 0.74041
 C1441 C 0.67665 1.06157 0.73275
 C1442 C 0.68978 1.04547 0.72727
 C1443 C 0.71080 1.05204 0.73193
 O1444 O 0.71118 1.07091 0.73980
 H1445 H 0.65906 1.06209 0.73173
 H1446 H 0.68452 1.03077 0.72097
 C1447 C 0.19167 0.57949 0.77366
 C1448 C 0.17796 0.56675 0.75980
 C1449 C 0.19134 0.55266 0.74810
 C1450 C 0.21215 0.55813 0.75547
 O1451 O 0.21232 0.57434 0.77098
 H1452 H 0.16037 0.56738 0.75892
 H1453 H 0.18653 0.53997 0.73573
 C1454 C 0.19294 1.08062 0.24329
 C1455 C 0.18053 1.06750 0.22818
 C1456 C 0.19394 1.05181 0.22211
 C1457 C 0.21360 1.05668 0.23373
 O1458 O 0.21298 1.07413 0.24660
 H1459 H 0.16366 1.06905 0.22255
 H1460 H 0.18993 1.03859 0.21035
 C1461 C 0.68644 0.42608 0.74330
 C1462 C 0.67210 0.44160 0.74762
 C1463 C 0.68484 0.45839 0.74781
 C1464 C 0.70600 0.45177 0.74355
 O1465 O 0.70681 0.43221 0.74091
 H1466 H 0.65455 0.44081 0.74987
 H1467 H 0.67923 0.47354 0.75047
 C1468 C 0.68380 -0.07243 0.23011
 C1469 C 0.67011 -0.05901 0.24330
 C1470 C 0.68314 -0.04322 0.25012
 C1471 C 0.70377 -0.04841 0.24078
 O1472 O 0.70412 -0.06607 0.22867
 H1473 H 0.65274 -0.06040 0.24702
 H1474 H 0.67820 -0.02967 0.26070
 C1475 C 0.20337 0.40800 0.16513
 C1476 C 0.21069 0.41934 0.14361
 C1477 C 0.22176 0.43485 0.15532
 C1478 C 0.22068 0.43151 0.18303
 O1479 O 0.20948 0.41526 0.18900
 H1480 H 0.20823 0.41660 0.12206
 H1481 H 0.23032 0.44670 0.14491
 C1482 C 0.18779 -0.09324 0.74034
 C1483 C 0.17560 -0.08207 0.75887
 C1484 C 0.18892 -0.06667 0.76645
 C1485 C 0.20827 -0.06994 0.75227
 O1486 O 0.20754 -0.08597 0.73641
 H1487 H 0.15902 -0.08477 0.76583
 H1488 H 0.18522 -0.05486 0.78107
 C1489 C 0.30404 0.27556 0.39983
 C1490 C 0.31866 0.26776 0.41778
 C1491 C 0.30654 0.25631 0.43494
 C1492 C 0.28544 0.25776 0.42601
 O1493 O 0.28381 0.26947 0.40465
 H1494 H 0.33605 0.27036 0.41854
 H1495 H 0.31236 0.24782 0.45190
 C1496 C 0.26322 0.80676 -0.06946
 C1497 C 0.24322 0.81452 -0.06168
 C1498 C 0.23418 0.80080 -0.04452
 C1499 C 0.24927 0.78570 -0.04364
 O1500 O 0.26687 0.78926 -0.05868
 H1501 H 0.23617 0.82846 -0.06774
 H1502 H 0.21833 0.80144 -0.03447
 C1503 C 0.77307 0.30855 -0.13945
 C1504 C 0.75713 0.31941 -0.12575
 C1505 C 0.74910 0.30709 -0.10605
 C1506 C 0.76053 0.28962 -0.10971
 O1507 O 0.77512 0.29047 -0.12983
 H1508 H 0.75234 0.33462 -0.12928
 H1509 H 0.73634 0.31031 -0.09109
 C1510 C 0.78702 0.82273 0.40717
 C1511 C 0.77799 0.83342 0.42880
 C1512 C 0.77008 0.81945 0.44640
 C1513 C 0.77473 0.80135 0.43393
 O1514 O 0.78501 0.80335 0.41018
 H1515 H 0.77742 0.84941 0.43152
 H1516 H 0.76167 0.82217 0.46570
 C1517 C 0.74200 0.30541 0.63298
 C1518 C 0.76319 0.30529 0.64188
 C1519 C 0.77424 0.29332 0.62383
 C1520 C 0.75903 0.28718 0.60510
 O1521 O 0.73941 0.29448 0.61057
 H1522 H 0.76965 0.31238 0.65998
 H1523 H 0.79119 0.28902 0.62467
 C1524 C 0.73229 0.80007 1.11652
 C1525 C 0.75335 0.80268 1.12511
 C1526 C 0.76573 0.79074 1.10842
 C1527 C 0.75133 0.78200 1.09056
 O1528 O 0.73092 0.78763 1.09540
 H1529 H 0.75893 0.81219 1.14158
 H1530 H 0.78325 0.78903 1.10870
 C1531 C 0.20578 0.25598 1.10934
 C1532 C 0.20695 0.23750 1.12105
 C1533 C 0.22061 0.22669 1.10448
 C1534 C 0.22665 0.23929 1.08371
 O1535 O 0.21764 0.25711 1.08653
 H1536 H 0.19916 0.23258 1.13976
 H1537 H 0.22566 0.21146 1.10723
 C1538 C 0.21554 0.80166 0.57848
 C1539 C 0.22223 0.81428 0.55805
 C1540 C 0.23228 0.80238 0.53887
 C1541 C 0.23115 0.78341 0.54922
 O1542 O 0.22098 0.78295 0.57327
 H1543 H 0.21983 0.83018 0.55710
 H1544 H 0.23981 0.80703 0.51985
 C1545 C 0.27544 0.69953 0.58779
 C1546 C 0.26740 0.68563 0.56958
 C1547 C 0.25988 0.69629 0.54839
 C1548 C 0.26366 0.71592 0.55543
 O1549 O 0.27313 0.71797 0.57936
 H1550 H 0.26727 0.66962 0.57142
 H1551 H 0.25215 0.69049 0.53024
 C1552 C 0.31809 0.19083 1.07703
 C1553 C 0.32968 0.19674 1.05417
 C1554 C 0.31513 0.20674 1.03888
 C1555 C 0.29575 0.20638 1.05373
 O1556 O 0.29755 0.19666 1.07688
 H1557 H 0.34678 0.19435 1.04948
 H1558 H 0.31858 0.21413 1.01983
 C1559 C 0.81747 0.70730 1.07774
 C1560 C 0.81736 0.69939 1.05164
 C1561 C 0.80494 0.71202 1.03707
 C1562 C 0.79823 0.72671 1.05546
 O1563 O 0.80596 0.72382 1.08013
 H1564 H 0.82489 0.68573 1.04432
 H1565 H 0.80065 0.71010 1.01589
 C1566 C 0.80102 0.19965 0.60516
 C1567 C 0.79269 0.18894 0.58353
 C1568 C 0.78443 0.20279 0.56660
 C1569 C 0.78817 0.22094 0.57932
 O1570 O 0.79826 0.21900 0.60275
 H1571 H 0.79215 0.17295 0.58083
 H1572 H 0.77559 0.19987 0.54809
 C1573 C 0.74622 0.71275 0.38443
 C1574 C 0.76322 0.70201 0.39485
 C1575 C 0.77092 0.71334 0.41586
 C1576 C 0.75824 0.73019 0.41635
 O1577 O 0.74320 0.72993 0.39740
 H1578 H 0.76887 0.68740 0.38850
 H1579 H 0.78416 0.70981 0.42921
 C1580 C 0.73314 0.19782 -0.13619
 C1581 C 0.74625 0.18605 -0.12062
 C1582 C 0.75529 0.19868 -0.10191
 C1583 C 0.74721 0.21721 -0.10780
 O1584 O 0.73374 0.21671 -0.12853
 H1585 H 0.74862 0.17014 -0.12238
 H1586 H 0.76653 0.19488 -0.08609
 C1587 C 0.23051 0.69250 -0.07856
 C1588 C 0.24258 0.68132 -0.06100
 C1589 C 0.24888 0.69428 -0.04099
 C1590 C 0.24034 0.71240 -0.04801
 O1591 O 0.22921 0.71137 -0.07082
 H1592 H 0.24581 0.66552 -0.06216
 H1593 H 0.25844 0.69090 -0.02333
 C1594 C 0.20042 0.20513 0.38691
 C1595 C 0.18435 0.20806 0.40654
 C1596 C 0.19452 0.21683 0.42806
 C1597 C 0.21606 0.21885 0.41981
 O1598 O 0.21969 0.21174 0.39471
 H1599 H 0.16723 0.20432 0.40518
 H1600 H 0.18697 0.22167 0.44716
 C1601 C 0.30340 0.42631 0.70022
 C1602 C 0.31750 0.44220 0.69809
 C1603 C 0.30595 0.45820 0.70774
 C1604 C 0.28571 0.45078 0.71529
 O1605 O 0.28418 0.43140 0.71068
 H1606 H 0.33427 0.44207 0.69081
 H1607 H 0.31196 0.47325 0.71015
 C1608 C 0.30809 0.91915 0.22314
 C1609 C 0.32239 0.93491 0.22532
 C1610 C 0.30960 0.95149 0.22673
 C1611 C 0.28839 0.94458 0.22547
 O1612 O 0.28754 0.92494 0.22322
 H1613 H 0.33998 0.93437 0.22618
 H1614 H 0.31515 0.96666 0.22944
 C1615 C 0.80879 0.42682 0.19671
 C1616 C 0.81526 0.44299 0.18166
 C1617 C 0.80322 0.45849 0.19191
 C1618 C 0.79005 0.45048 0.21219
 O1619 O 0.79351 0.43124 0.21513
 H1620 H 0.82690 0.44328 0.16479
 H1621 H 0.80309 0.47349 0.18426
 C1622 C 0.81170 0.92066 0.69860
 C1623 C 0.82494 0.93718 0.70064
 C1624 C 0.81120 0.95265 0.70629
 C1625 C 0.79054 0.94438 0.70745
 O1626 O 0.79089 0.92495 0.70272
 H1627 H 0.84253 0.93779 0.69879
 H1628 H 0.81590 0.96793 0.71018
 C1629 C 0.68713 0.58254 0.69686
 C1630 C 0.67349 0.56632 0.69924
 C1631 C 0.68642 0.55114 0.70716
 C1632 C 0.70704 0.55926 0.70934
 O1633 O 0.70747 0.57836 0.70302
 H1634 H 0.65607 0.56579 0.69622
 H1635 H 0.68112 0.53624 0.71206
 C1636 C 0.69396 0.08365 0.19138
 C1637 C 0.69029 0.06758 0.17432
 C1638 C 0.70041 0.05201 0.18612
 C1639 C 0.70985 0.05985 0.20934
 O1640 O 0.70587 0.07910 0.21255
 H1641 H 0.68183 0.06742 0.15514
 H1642 H 0.70183 0.03706 0.17782
 C1643 C 0.18514 0.56610 0.22261
 C1644 C 0.17118 0.55040 0.22749
 C1645 C 0.18417 0.53394 0.22813
 C1646 C 0.20516 0.54084 0.22377
 O1647 O 0.20569 0.56036 0.22037
 H1648 H 0.15367 0.55089 0.23044
 H1649 H 0.17891 0.51888 0.23212
 C1650 C 0.18961 0.06178 0.72858
 C1651 C 0.17519 0.04702 0.73611
 C1652 C 0.18796 0.03148 0.74356
 C1653 C 0.20918 0.03811 0.74025
 O1654 O 0.21014 0.05646 0.73113
 H1655 H 0.15757 0.04755 0.73624
 H1656 H 0.18245 0.01731 0.75131
 C1657 C 0.30608 0.56191 0.24631
 C1658 C 0.31920 0.54865 0.23195
 C1659 C 0.30563 0.53345 0.22433
 C1660 C 0.28525 0.53882 0.23433
 O1661 O 0.28557 0.55603 0.24771
 H1662 H 0.33652 0.54987 0.22768
 H1663 H 0.30996 0.52034 0.21235
 C1664 C 0.30443 0.06499 0.78074
 C1665 C 0.31913 0.04970 0.77695
 C1666 C 0.30675 0.03328 0.77124
 C1667 C 0.28543 0.03989 0.77177
 O1668 O 0.28409 0.05911 0.77759
 H1669 H 0.33671 0.05048 0.77796
 H1670 H 0.31267 0.01849 0.76633
 C1671 C 0.79547 0.58672 0.77219
 C1672 C 0.81054 0.57158 0.77007
 C1673 C 0.79956 0.55578 0.75931
 C1674 C 0.77859 0.56248 0.75552
 O1675 O 0.77610 0.58129 0.76331
 H1676 H 0.82748 0.57198 0.77577
 H1677 H 0.80622 0.54125 0.75442
 C1678 C 0.79437 0.08473 0.28196
 C1679 C 0.80941 0.07017 0.27539
 C1680 C 0.79755 0.05477 0.26501
 C1681 C 0.77620 0.06125 0.26573
 O1682 O 0.77423 0.07946 0.27603
 H1683 H 0.82687 0.07070 0.27798
 H1684 H 0.80379 0.04075 0.25709
 C1685 C 0.69648 0.42426 0.26624
 C1686 C 0.68203 0.43549 0.25182
 C1687 C 0.69409 0.45095 0.24186
 C1688 C 0.71499 0.44767 0.25060
 O1689 O 0.71647 0.43152 0.26543
 H1690 H 0.66481 0.43278 0.24909
 H1691 H 0.68852 0.46281 0.22908
 C1692 C 0.69508 0.91737 0.75365
 C1693 C 0.68020 0.93115 0.74508
 C1694 C 0.69234 0.94710 0.73694
 C1695 C 0.71372 0.94171 0.74087
 O1696 O 0.71540 0.92369 0.75106
 H1697 H 0.66263 0.92981 0.74502
 H1698 H 0.68637 0.96077 0.72850
 C1699 C 0.20743 0.43007 0.80310
 C1700 C 0.20836 0.44519 0.82235
 C1701 C 0.21980 0.46005 0.81002
 C1702 C 0.22524 0.45273 0.78428
 O1703 O 0.21772 0.43451 0.78004
 H1704 H 0.20163 0.44528 0.84294
 H1705 H 0.22429 0.47423 0.81907
 C1706 C 0.18956 0.92472 0.26281
 C1707 C 0.17558 0.93869 0.25269
 C1708 C 0.18876 0.95390 0.24406
 C1709 C 0.20974 0.94786 0.24934
 O1710 O 0.21017 0.93022 0.26074
 H1711 H 0.15800 0.93791 0.25182
 H1712 H 0.18373 0.96746 0.23441
 C1713 C 0.40953 0.30531 0.72737
 C1714 C 0.42457 0.31721 0.74042
 C1715 C 0.44042 0.30463 0.74861
 C1716 C 0.43385 0.28593 0.74010
 O1717 O 0.41505 0.28631 0.72725
 H1718 H 0.42423 0.33319 0.74328
 H1719 H 0.45500 0.30866 0.75950
 C1720 C 0.41571 0.79974 0.27754
 C1721 C 0.43217 0.81089 0.28890
 C1722 C 0.44882 0.79781 0.29249
 C1723 C 0.44122 0.77963 0.28296
 O1724 O 0.42109 0.78085 0.27406
 H1725 H 0.43227 0.82671 0.29329
 H1726 H 0.46469 0.80131 0.30051
 C1727 C 0.90223 0.30335 0.23959
 C1728 C 0.91775 0.31722 0.24688
 C1729 C 0.93507 0.30649 0.25519
 C1730 C 0.92872 0.28686 0.25273
 O1731 O 0.90876 0.28488 0.24319
 H1732 H 0.91662 0.33325 0.24594
 H1733 H 0.95032 0.31226 0.26280
 C1734 C 0.92211 0.80977 0.76105
 C1735 C 0.93866 0.82199 0.76999
 C1736 C 0.95357 0.80949 0.78088
 C1737 C 0.94486 0.79062 0.77781
 O1738 O 0.92578 0.79084 0.76585
 H1739 H 0.93994 0.83797 0.76823
 H1740 H 0.96897 0.81367 0.78972
 C1741 C 0.58649 0.30479 0.30349
 C1742 C 0.57002 0.30149 0.32239
 C1743 C 0.55462 0.29095 0.30860
 C1744 C 0.56311 0.28834 0.28248
 O1745 O 0.58248 0.29674 0.27933
 H1746 H 0.56944 0.30610 0.34366
 H1747 H 0.53950 0.28505 0.31689
 C1748 C 0.57174 0.81190 0.80783
 C1749 C 0.55351 0.81569 0.82387
 C1750 C 0.53824 0.80245 0.81511
 C1751 C 0.54847 0.79133 0.79467
 O1752 O 0.56886 0.79707 0.79021
 H1753 H 0.55170 0.82666 0.84017
 H1754 H 0.52194 0.80051 0.82349
 C1755 C 0.10072 0.30787 0.75514
 C1756 C 0.08645 0.31875 0.73994
 C1757 C 0.06938 0.30620 0.73488
 C1758 C 0.07465 0.28858 0.74721
 O1759 O 0.09365 0.28962 0.75946
 H1760 H 0.08805 0.33408 0.73383
 H1761 H 0.05489 0.30956 0.72363
 C1762 C 0.07777 0.80293 0.29703
 C1763 C 0.05950 0.81432 0.29336
 C1764 C 0.04273 0.80123 0.29163
 C1765 C 0.05182 0.78257 0.29447
 O1766 O 0.07326 0.78361 0.29768
 H1767 H 0.05850 0.83032 0.29174
 H1768 H 0.02600 0.80511 0.28783
 C1769 C 0.57852 0.70098 0.74707
 C1770 C 0.56550 0.68992 0.76439
 C1771 C 0.55026 0.70288 0.77452
 C1772 C 0.55535 0.72089 0.76290
 O1773 O 0.57246 0.71981 0.74618
 H1774 H 0.56650 0.67417 0.76835
 H1775 H 0.53682 0.69959 0.78839
 C1776 C 0.59689 0.21222 0.20969
 C1777 C 0.57914 0.19966 0.20901
 C1778 C 0.56163 0.21134 0.21507
 C1779 C 0.56996 0.23024 0.21933
 O1780 O 0.59148 0.23080 0.21605
 H1781 H 0.57905 0.18380 0.20490
 H1782 H 0.54492 0.20639 0.21744
 C1783 C 0.07382 0.68719 0.27295
 C1784 C 0.05566 0.67622 0.28009
 C1785 C 0.03971 0.68991 0.28543
 C1786 C 0.04936 0.70825 0.28112
 O1787 O 0.07010 0.70657 0.27367
 H1788 H 0.05412 0.66021 0.28088
 H1789 H 0.02306 0.68682 0.29172
 C1790 C 0.09219 0.19277 0.74818
 C1791 C 0.07707 0.18454 0.76592
 C1792 C 0.06248 0.19934 0.77179
 C1793 C 0.06989 0.21556 0.75733
 O1794 O 0.08794 0.21158 0.74305
 H1795 H 0.07646 0.16944 0.77320
 H1796 H 0.04813 0.19837 0.78489
 C1797 C 0.41842 0.68509 0.26708
 C1798 C 0.43593 0.67547 0.25487
 C1799 C 0.45226 0.68923 0.25405
 C1800 C 0.44352 0.70633 0.26584
 O1801 O 0.42292 0.70379 0.27369
 H1802 H 0.43674 0.66025 0.24745
 H1803 H 0.46847 0.68694 0.24555
 C1804 C 0.41123 0.19139 0.75969
 C1805 C 0.42724 0.18073 0.74580
 C1806 C 0.44292 0.19428 0.73917
 C1807 C 0.43530 0.21228 0.74931
 O1808 O 0.41602 0.21056 0.76177
 H1809 H 0.42755 0.16494 0.74125
 H1810 H 0.45800 0.19138 0.72801
 C1811 C 0.91147 0.70013 0.80355
 C1812 C 0.92876 0.68721 0.80065
 C1813 C 0.94659 0.69891 0.79667
 C1814 C 0.93892 0.71824 0.79745
 O1815 O 0.91752 0.71896 0.80158
 H1816 H 0.92846 0.67113 0.80121
 H1817 H 0.96307 0.69369 0.79322
 C1818 C 0.90935 0.20173 0.31081
 C1819 C 0.92780 0.19015 0.30912
 C1820 C 0.94390 0.20244 0.29997
 C1821 C 0.93405 0.22069 0.29653
 O1822 O 0.91301 0.22024 0.30318
 H1823 H 0.92922 0.17447 0.31334
 H1824 H 0.96055 0.19819 0.29524
 C1825 C 0.26542 0.29268 0.60094
 C1826 C 0.25169 0.30395 0.58549
 C1827 C 0.24421 0.29133 0.56574
 C1828 C 0.25368 0.27326 0.57090
 O1829 O 0.26662 0.27401 0.59220
 H1830 H 0.24795 0.31960 0.58799
 H1831 H 0.23299 0.29478 0.54972
 C1832 C 0.29807 0.77675 0.13071
 C1833 C 0.31338 0.76796 0.11348
 C1834 C 0.30171 0.75881 0.09351
 C1835 C 0.28019 0.76241 0.10045
 O1836 O 0.27788 0.77334 0.12300
 H1837 H 0.33093 0.76833 0.11523
 H1838 H 0.30805 0.75011 0.07636
 C1839 C 0.80173 0.30520 0.06401
 C1840 C 0.79945 0.31713 0.04165
 C1841 C 0.78899 0.30577 0.02290
 C1842 C 0.78560 0.28757 0.03504
 O1843 O 0.79328 0.28722 0.06019
 H1844 H 0.80460 0.33242 0.03932
 H1845 H 0.78402 0.31051 0.00298
 C1846 C 0.80842 0.77551 0.60873
 C1847 C 0.82334 0.76349 0.59505
 C1848 C 0.81231 0.75529 0.57378
 C1849 C 0.79145 0.76267 0.57645
 O1850 O 0.78900 0.77501 0.59756
 H1851 H 0.84033 0.76133 0.59968
 H1852 H 0.81859 0.74505 0.55829
 C1853 C 0.26860 0.68445 0.37972
 C1854 C 0.25517 0.67426 0.39761
 C1855 C 0.24730 0.68832 0.41557
 C1856 C 0.25638 0.70603 0.40710
 O1857 O 0.26927 0.70370 0.38533
 H1858 H 0.25194 0.65844 0.39797
 H1859 H 0.23641 0.68593 0.43286
 C1860 C 0.26121 0.19648 0.88267
 C1861 C 0.24114 0.18840 0.88943
 C1862 C 0.23331 0.19972 0.91069
 C1863 C 0.24912 0.21385 0.91525
 O1864 O 0.26612 0.21201 0.89834
 H1865 H 0.23323 0.17565 0.88018
 H1866 H 0.21796 0.19793 0.92164
 C1867 C 0.75342 0.71471 0.89268
 C1868 C 0.73748 0.70433 0.90675
 C1869 C 0.73139 0.71644 0.92811
 C1870 C 0.74384 0.73338 0.92521
 O1871 O 0.75730 0.73239 0.90382
 H1872 H 0.73157 0.68944 0.90255
 H1873 H 0.71956 0.71326 0.94415
 C1874 C 0.75515 0.20926 0.41390
 C1875 C 0.74138 0.19855 0.43083
 C1876 C 0.73545 0.21140 0.45143
 C1877 C 0.74581 0.22903 0.44533
 O1878 O 0.75780 0.22780 0.42261
 H1879 H 0.73696 0.18301 0.42907
 H1880 H 0.72524 0.20821 0.46909
 C1881 C 0.72548 0.32225 0.42953
 C1882 C 0.73895 0.33350 0.44590
 C1883 C 0.74773 0.32033 0.46362
 C1884 C 0.73916 0.30204 0.45633
 O1885 O 0.72562 0.30326 0.43579
 H1886 H 0.74189 0.34936 0.44509
 H1887 H 0.75933 0.32361 0.47944
 C1888 C 0.71007 0.82459 0.92370
 C1889 C 0.70585 0.83068 0.95022
 C1890 C 0.71634 0.81737 0.96597
 C1891 C 0.72591 0.80388 0.94783
 O1892 O 0.72208 0.80832 0.92210
 H1893 H 0.69563 0.84290 0.95720
 H1894 H 0.71576 0.81687 0.98803
 C1895 C 0.20995 0.30355 0.92138
 C1896 C 0.21588 0.31301 0.94528
 C1897 C 0.22612 0.29888 0.95996
 C1898 C 0.22576 0.28182 0.94384
 O1899 O 0.21593 0.28470 0.92041
 H1900 H 0.21318 0.32838 0.95124
 H1901 H 0.23329 0.30099 0.97979
 C1902 C 0.23866 0.80018 0.37639
 C1903 C 0.25437 0.81045 0.39072
 C1904 C 0.26274 0.79701 0.40815
 C1905 C 0.25168 0.77954 0.40289
 O1906 O 0.23707 0.78140 0.38364
 H1907 H 0.25856 0.82605 0.38950
 H1908 H 0.27497 0.79973 0.42340
 C1909 C 0.69535 0.71959 0.58687
 C1910 C 0.68270 0.72837 0.56751
 C1911 C 0.69694 0.73819 0.55089
 C1912 C 0.71724 0.73488 0.56155
 O1913 O 0.71634 0.72355 0.58343
 H1914 H 0.66516 0.72767 0.56573
 H1915 H 0.69294 0.74711 0.53351
 C1916 C 0.72996 0.20388 0.06768
 C1917 C 0.73890 0.19106 0.04827
 C1918 C 0.74944 0.20283 0.03009
 C1919 C 0.74632 0.22200 0.03971
 O1920 O 0.73455 0.22277 0.06268
 H1921 H 0.73756 0.17503 0.04713
 H1922 H 0.75814 0.19807 0.01170
 C1923 C 0.19385 0.70811 0.12934
 C1924 C 0.17780 0.71502 0.11269
 C1925 C 0.18845 0.72571 0.09319
 C1926 C 0.21019 0.72484 0.09978
 O1927 O 0.21354 0.71412 0.12174
 H1928 H 0.16039 0.71264 0.11472
 H1929 H 0.18121 0.73375 0.07671
 C1930 C 0.22403 0.18237 0.59883
 C1931 C 0.23636 0.17036 0.58150
 C1932 C 0.24410 0.18263 0.56161
 C1933 C 0.23617 0.20122 0.56864
 O1934 O 0.22394 0.20110 0.59117
 H1935 H 0.23912 0.15453 0.58301
 H1936 H 0.25462 0.17862 0.54442
   
