data_POSCAR
  _audit_creation_date              2014-09-24
  _audit_creation_method            'ToBaCCo'
  _symmetry_space_group_name_H-M    'P1'
  _symmetry_Int_Tables_number       1
  _symmetry_cell_setting            triclinic
  loop_
  _symmetry_equiv_pos_as_xyz
 x,y,z
_cell_length_a 41.2407
_cell_length_b 41.7896
_cell_length_c 42.3480
_cell_angle_alpha 89.416700
_cell_angle_beta 89.601700
_cell_angle_gamma 90.152900
loop_
  _atom_site_label
  _atom_site_type_symbol
  _atom_site_fract_x
  _atom_site_fract_y
  _atom_site_fract_z
C1 C 0.41257 0.01447 0.27808
 C2 C 0.38887 0.04253 0.27767
 C3 C 0.36924 0.04365 0.25212
 C4 C 0.37472 0.01580 0.22904
 C5 C 0.39119 -0.01516 0.27516
 C6 C 0.37102 -0.01477 0.24975
 C7 C 0.43092 0.01702 0.24671
 C8 C 0.41145 0.01740 0.22084
 H9 H 0.38726 0.05985 0.29650
 H10 H 0.35800 0.01658 0.20867
 H11 H 0.39350 -0.03532 0.29120
 H12 H 0.45715 0.01761 0.24513
 C13 C 0.10001 -0.00086 0.78181
 C14 C 0.12346 -0.02921 0.78349
 C15 C 0.14446 -0.03104 0.75881
 C16 C 0.14054 -0.00346 0.73462
 C17 C 0.12164 0.02873 0.77831
 C18 C 0.14326 0.02756 0.75395
 C19 C 0.08406 -0.00392 0.75133
 C20 C 0.10658 -0.00511 0.72512
 H21 H 0.12200 -0.04752 0.80177
 H22 H 0.15829 -0.00441 0.71478
 H23 H 0.11782 0.04973 0.79258
 H24 H 0.05798 -0.00383 0.74873
 C25 C 0.59247 0.49546 0.28064
 C26 C 0.61304 0.46528 0.28361
 C27 C 0.63358 0.46054 0.25903
 C28 C 0.63201 0.48680 0.23339
 C29 C 0.61671 0.52276 0.27547
 C30 C 0.63793 0.51813 0.25123
 C31 C 0.57523 0.49258 0.24901
 C32 C 0.59598 0.48842 0.22404
 H33 H 0.61186 0.44931 0.30392
 H34 H 0.64904 0.48317 0.21331
 H35 H 0.61554 0.54471 0.28880
 H36 H 0.54940 0.49614 0.24680
 C37 C 0.90583 0.50520 0.77927
 C38 C 0.87981 0.53121 0.77725
 C39 C 0.86245 0.53107 0.75013
 C40 C 0.87226 0.50424 0.72748
 C41 C 0.88750 0.47395 0.77437
 C42 C 0.86954 0.47319 0.74744
 C43 C 0.92648 0.50979 0.74943
 C44 C 0.90895 0.50927 0.72219
 H45 H 0.87561 0.54852 0.79571
 H46 H 0.85783 0.50378 0.70543
 H47 H 0.88991 0.45405 0.79067
 H48 H 0.95257 0.51216 0.75022
 C49 C 0.27377 0.38910 0.98943
 C50 C 0.27555 0.36520 1.01719
 C51 C 0.25185 0.34247 1.01728
 C52 C 0.22776 0.34594 0.98996
 C53 C 0.27298 0.36836 0.95998
 C54 C 0.24912 0.34579 0.95988
 C55 C 0.23937 0.40310 0.99173
 C56 C 0.21529 0.38057 0.99226
 H57 H 0.29175 0.36786 1.03697
 H58 H 0.20808 0.32778 0.99052
 H59 H 0.28961 0.37194 0.94031
 H60 H 0.23470 0.42834 0.99502
 C61 C 0.78491 0.11013 1.00382
 C62 C 0.78293 0.13392 0.97603
 C63 C 0.75380 0.14941 0.97395
 C64 C 0.72940 0.13969 1.00057
 C65 C 0.77671 0.12995 1.03296
 C66 C 0.74770 0.14541 1.03158
 C67 C 0.75734 0.08900 0.99953
 C68 C 0.72676 0.10486 0.99847
 H69 H 0.80071 0.13485 0.95719
 H70 H 0.70588 0.15250 0.99908
 H71 H 0.79253 0.13128 1.05324
 H72 H 0.75961 0.06322 0.99791
 C73 C 0.27946 0.62144 0.51360
 C74 C 0.27836 0.64983 0.49063
 C75 C 0.24936 0.66556 0.49048
 C76 C 0.22426 0.65167 0.51425
 C77 C 0.27032 0.63534 0.54574
 C78 C 0.24171 0.65127 0.54617
 C79 C 0.25047 0.60048 0.50478
 C80 C 0.22157 0.61603 0.50555
 H81 H 0.29740 0.65434 0.47342
 H82 H 0.20069 0.66446 0.51453
 H83 H 0.28440 0.63129 0.56692
 H84 H 0.25260 0.57535 0.49910
 C85 C 0.77738 0.88432 0.49269
 C86 C 0.77744 0.85264 0.51143
 C87 C 0.75011 0.83456 0.50770
 C88 C 0.72521 0.84979 0.48494
 C89 C 0.77133 0.87476 0.45859
 C90 C 0.74448 0.85666 0.45432
 C91 C 0.74612 0.90092 0.50308
 C92 C 0.71877 0.88327 0.49874
 H93 H 0.79490 0.84703 0.52951
 H94 H 0.70298 0.83519 0.48158
 H95 H 0.78724 0.88179 0.43922
 H96 H 0.74569 0.92483 0.51275
 C97 C -0.00065 0.27435 0.40020
 C98 C 0.02903 0.27040 0.37882
 C99 C 0.02992 0.24197 0.36324
 C100 C 0.00067 0.22024 0.37061
 C101 C -0.02830 0.26927 0.37994
 C102 C -0.02767 0.23946 0.36378
 C103 C 0.00005 0.24491 0.42244
 C104 C 0.00060 0.21644 0.40668
 H105 H 0.04671 0.28932 0.37533
 H106 H 0.00140 0.19720 0.35770
 H107 H -0.04910 0.28506 0.37982
 H108 H -0.00002 0.24678 0.44789
 C109 C 0.01746 0.78158 0.10457
 C110 C -0.01536 0.78083 0.12132
 C111 C -0.02167 0.75301 0.13710
 C112 C 0.00590 0.72860 0.13532
 C113 C 0.04223 0.77403 0.13016
 C114 C 0.03609 0.74639 0.14631
 C115 C 0.01750 0.75193 0.08351
 C116 C 0.01150 0.72408 0.09987
 H117 H -0.03190 0.80090 0.12066
 H118 H 0.00098 0.70606 0.14871
 H119 H 0.06401 0.78812 0.13356
 H120 H 0.02276 0.75317 0.05848
 C121 C 0.51198 0.27878 0.60384
 C122 C 0.47777 0.27950 0.61768
 C123 C 0.46902 0.25223 0.63337
 C124 C 0.49561 0.22667 0.63398
 C125 C 0.53392 0.27078 0.63156
 C126 C 0.52531 0.24357 0.64743
 C127 C 0.51287 0.24892 0.58319
 C128 C 0.50441 0.22159 0.59918
 H129 H 0.46265 0.30060 0.61630
 H130 H 0.48875 0.20441 0.64700
 H131 H 0.55608 0.28384 0.63630
 H132 H 0.51927 0.24958 0.55836
 C133 C 0.50607 0.77985 0.89250
 C134 C 0.53328 0.77795 0.86792
 C135 C 0.53234 0.75123 0.84995
 C136 C 0.50406 0.72839 0.85854
 C137 C 0.47491 0.77652 0.87362
 C138 C 0.47362 0.74974 0.85586
 C139 C 0.50836 0.75061 0.91094
 C140 C 0.50771 0.72220 0.89242
 H141 H 0.55196 0.79611 0.86528
 H142 H 0.50250 0.70694 0.84350
 H143 H 0.45561 0.79408 0.87410
 H144 H 0.51104 0.75022 0.93639
 C145 C -0.24383 0.66353 0.95730
 C146 C -0.21961 0.63614 0.96196
 C147 C -0.22479 0.61819 0.98833
 C148 C -0.25409 0.62919 1.00819
 C149 C -0.27722 0.64776 0.95875
 C150 C -0.28299 0.62957 0.98487
 C151 C -0.24167 0.68287 0.98786
 C152 C -0.24680 0.66494 1.01475
 H153 H -0.19978 0.63146 0.94574
 H154 H -0.25808 0.61452 1.02985
 H155 H -0.29492 0.65071 0.94014
 H156 H -0.23647 0.70824 0.98781
 C157 C -0.26248 0.34982 0.47067
 C158 C -0.28733 0.37702 0.46986
 C159 C -0.28442 0.39829 0.49361
 C160 C -0.25601 0.39100 0.51591
 C161 C -0.22958 0.36739 0.47025
 C162 C -0.22604 0.38902 0.49391
 C163 C -0.26560 0.33569 0.50224
 C164 C -0.26171 0.35836 0.52732
 H165 H -0.30599 0.37910 0.45205
 H166 H -0.25342 0.40904 0.53486
 H167 H -0.21089 0.36293 0.45291
 H168 H -0.26880 0.31025 0.50620
 C169 C 0.25194 -0.16898 -0.01792
 C170 C 0.22586 -0.14326 -0.02226
 C171 C 0.22689 -0.11951 -0.00078
 C172 C 0.25465 -0.12307 0.02303
 C173 C 0.28394 -0.14983 -0.01916
 C174 C 0.28529 -0.12559 0.00214
 C175 C 0.24838 -0.17995 0.01470
 C176 C 0.25018 -0.15469 0.03742
 H177 H 0.20806 -0.14375 -0.04097
 H178 H 0.25571 -0.10310 0.04015
 H179 H 0.30350 -0.15466 -0.03546
 H180 H 0.24641 -0.20503 0.02105
 C181 C 0.25422 1.16113 0.46475
 C182 C 0.28218 1.13750 0.46986
 C183 C 0.27647 1.11536 0.49290
 C184 C 0.24348 1.11907 0.50944
 C185 C 0.22410 1.14034 0.45955
 C186 C 0.21812 1.11834 0.48273
 C187 C 0.24886 1.17604 0.49723
 C188 C 0.24362 1.15399 0.52084
 H189 H 0.30450 1.13805 0.45621
 H190 H 0.23979 1.10148 0.52888
 H191 H 0.20814 1.14368 0.43956
 H192 H 0.24944 1.20160 0.50092
 C193 C 0.14111 0.54375 0.24879
 C194 C 0.11859 0.53685 0.22103
 C195 C 0.10453 0.50727 0.22212
 C196 C 0.11438 0.48700 0.25114
 C197 C 0.12045 0.53753 0.27834
 C198 C 0.10660 0.50786 0.27989
 C199 C 0.16551 0.51601 0.24817
 C200 C 0.15170 0.48635 0.24971
 H201 H 0.11709 0.55229 0.20043
 H202 H 0.10290 0.46293 0.25203
 H203 H 0.11762 0.55511 0.29677
 H204 H 0.19143 0.51957 0.24569
 C205 C -0.14064 1.02047 0.25410
 C206 C -0.11689 1.01664 0.28158
 C207 C -0.10182 0.98753 0.28256
 C208 C -0.11225 0.96482 0.25543
 C209 C -0.12029 1.01335 0.22458
 C210 C -0.10548 0.98432 0.22515
 C211 C -0.16282 0.99358 0.25767
 C212 C -0.14758 0.96297 0.25739
 H213 H -0.11460 1.03373 0.30040
 H214 H -0.09989 0.94124 0.25611
 H215 H -0.11932 1.02916 0.20414
 H216 H -0.18895 0.99634 0.25861
 C217 C 0.36770 0.53402 -0.24472
 C218 C 0.39348 0.52856 -0.21963
 C219 C 0.40763 0.49918 -0.22068
 C220 C 0.39466 0.47778 -0.24716
 C221 C 0.38493 0.52732 -0.27603
 C222 C 0.39885 0.49782 -0.27741
 C223 C 0.34376 0.50621 -0.24000
 C224 C 0.35771 0.47684 -0.24195
 H225 H 0.39785 0.54539 -0.20083
 H226 H 0.40620 0.45382 -0.24813
 H227 H 0.38540 0.54423 -0.29560
 H228 H 0.31791 0.50951 -0.23669
 C229 C 0.64495 0.02511 -0.25303
 C230 C 0.62004 0.02264 -0.27961
 C231 C 0.60310 -0.00551 -0.27942
 C232 C 0.61239 -0.02847 -0.25231
 C233 C 0.62576 0.01911 -0.22264
 C234 C 0.60882 -0.00889 -0.22196
 C235 C 0.66610 -0.00478 -0.25698
 C236 C 0.64922 -0.03282 -0.25649
 H237 H 0.61920 0.03955 -0.29912
 H238 H 0.59827 -0.05113 -0.25205
 H239 H 0.62569 0.03581 -0.20322
 H240 H 0.69201 -0.00369 -0.26128
 C241 C 0.02410 0.25417 0.85422
 C242 C 0.02587 0.28293 0.87616
 C243 C 0.00010 0.28564 0.89607
 C244 C -0.02538 0.25890 0.89216
 C245 C 0.01956 0.22524 0.87612
 C246 C -0.00618 0.22769 0.89620
 C247 C -0.00654 0.25726 0.83786
 C248 C -0.03394 0.25969 0.85883
 H249 H 0.04565 0.30007 0.87546
 H250 H -0.04639 0.26027 0.90861
 H251 H 0.03419 0.20383 0.87427
 H252 H -0.00824 0.25809 0.81238
 C253 C 0.53145 0.24808 0.14022
 C254 C 0.52770 0.21759 0.12103
 C255 C 0.50197 0.21793 0.10117
 C256 C 0.48235 0.24880 0.10188
 C257 C 0.53259 0.27531 0.11589
 C258 C 0.50704 0.27561 0.09582
 C259 C 0.49872 0.25207 0.15702
 C260 C 0.47289 0.25210 0.13699
 H261 H 0.54372 0.19723 0.12360
 H262 H 0.46186 0.24932 0.08506
 H263 H 0.55162 0.29323 0.11516
 H264 H 0.49615 0.25378 0.18242
 C265 C 0.03750 0.74913 0.64958
 C266 C 0.03321 0.71591 0.63550
 C267 C 0.00647 0.71301 0.61690
 C268 C -0.01342 0.74393 0.61407
 C269 C 0.03754 0.77192 0.62121
 C270 C 0.01092 0.76938 0.60266
 C271 C 0.00556 0.75615 0.66686
 C272 C -0.02121 0.75318 0.64846
 H273 H 0.05091 0.69712 0.63879
 H274 H -0.03458 0.74185 0.59822
 H275 H 0.05542 0.79075 0.61810
 H276 H 0.00427 0.76297 0.69144
 C277 C 0.53661 0.74723 0.35993
 C278 C 0.53680 0.77916 0.37727
 C279 C 0.51024 0.78392 0.39588
 C280 C 0.48593 0.75588 0.39569
 C281 C 0.53253 0.72203 0.38600
 C282 C 0.50606 0.72653 0.40466
 C283 C 0.50465 0.74668 0.34193
 C284 C 0.47800 0.75105 0.36062
 H285 H 0.55610 0.79665 0.37463
 H286 H 0.46409 0.75857 0.41078
 H287 H 0.54859 0.70173 0.38887
 H288 H 0.50375 0.74408 0.31656
 Zr289 Zr 0.03769 -0.01811 1.05618
 O290 O 0.06736 -0.00497 1.09463
 O291 O 0.02871 -0.06643 1.06632
 O292 O 0.01298 -0.01878 1.09989
 O293 O 0.10214 -0.02889 1.00476
 O294 O -0.03477 0.00673 1.08955
 O295 O 0.08400 -0.03953 1.05479
 O296 O -0.00484 -0.08251 1.02688
 O297 O -0.01101 -0.02353 1.04331
 O298 O 0.03800 -0.03831 1.01125
 O299 O 0.01775 0.02809 1.05768
 O300 O 0.06548 0.01329 1.02760
 Zr301 Zr -0.00442 0.03542 0.96830
 Zr302 Zr -0.03019 0.02285 1.04230
 Zr303 Zr 0.06300 -0.00615 0.98223
 Zr304 Zr -0.01021 -0.04177 0.99764
 O305 O 0.10618 0.01945 0.97185
 O306 O -0.05744 -0.05636 1.01183
 O307 O 0.01515 -0.01118 0.96650
 O308 O -0.03166 0.00358 0.99689
 O309 O -0.00499 0.05559 1.01334
 O310 O 0.04411 0.04003 0.98149
 C311 C 0.01154 -0.08755 1.05215
 C312 C 0.10565 -0.04067 1.03277
 C313 C -0.01501 -0.00805 1.10807
 O314 O -0.07552 -0.00048 1.04768
 O315 O -0.06692 0.05083 1.02123
 O316 O -0.04859 0.06048 0.97104
 C317 C -0.06964 0.06329 0.99339
 O318 O 0.07419 0.06114 1.06701
 Zr319 Zr 0.04347 0.05845 1.02702
 O320 O 0.00450 0.08427 0.95887
 O321 O -0.03857 0.06287 1.07140
 O322 O 0.02407 0.09439 1.05662
 O323 O 0.09003 0.07504 1.01277
 O324 O 0.03698 0.09976 0.99942
 C325 C 0.02105 0.10521 0.97407
 O326 O -0.03630 0.02335 0.93122
 O327 O 0.07415 -0.04850 0.95738
 O328 O 0.01881 0.03325 0.92353
 O329 O 0.06313 0.00234 0.93334
 O330 O 0.00870 -0.07892 0.96921
 O331 O -0.03786 -0.04638 0.95574
 C332 C 0.04434 0.01794 0.91459
 H333 H 0.04870 -0.05947 1.01064
 H334 H -0.05421 0.00170 0.98923
 H335 H 0.05673 0.05379 0.96670
 H336 H 0.01857 0.03698 1.07924
 H337 H -0.05959 -0.07943 1.00707
 H338 H -0.08854 0.01249 1.06255
 H339 H -0.06097 0.06065 1.07976
 H340 H 0.03827 0.11348 1.05460
 H341 H -0.00561 -0.09784 0.97206
 H342 H 0.09634 -0.04580 0.94860
 H343 H 0.11912 0.00594 0.95742
 H344 H 0.09179 0.09779 1.01893
 H345 H -0.04873 -0.06753 0.95573
 H346 H -0.03881 0.04266 0.91762
 H347 H 0.07050 -0.02432 1.10806
 H348 H 0.08096 0.08363 1.07015
 Zr349 Zr 0.51520 0.47757 0.54795
 O350 O 0.54048 0.49860 0.58586
 O351 O 0.51324 0.42929 0.56173
 O352 O 0.48797 0.47540 0.59048
 O353 O 0.58263 0.47126 0.49946
 O354 O 0.43818 0.49339 0.57557
 O355 O 0.56410 0.46221 0.54962
 O356 O 0.48331 0.40575 0.52314
 O357 O 0.46857 0.46406 0.53380
 O358 O 0.52043 0.45399 0.50494
 O359 O 0.48873 0.52048 0.54453
 O360 O 0.53897 0.51071 0.51766
 Zr361 Zr 0.46930 0.51594 0.45424
 Zr362 Zr 0.44305 0.50684 0.52813
 Zr363 Zr 0.54178 0.48706 0.47435
 Zr364 Zr 0.47397 0.44225 0.49003
 O365 O 0.58170 0.51770 0.46484
 O366 O 0.42866 0.42215 0.50366
 O367 O 0.49625 0.47319 0.45713
 O368 O 0.44572 0.48345 0.48480
 O369 O 0.46383 0.54018 0.49693
 O370 O 0.51586 0.52932 0.46866
 C371 C 0.49941 0.40504 0.54897
 C372 C 0.58655 0.46196 0.52826
 C373 C 0.45810 0.48244 0.59620
 O374 O 0.40066 0.47849 0.53282
 O375 O 0.40516 0.53024 0.50481
 O376 O 0.42219 0.53611 0.45375
 C377 C 0.40143 0.54023 0.47625
 O378 O 0.53825 0.56449 0.55174
 Zr379 Zr 0.51027 0.55199 0.51172
 O380 O 0.47241 0.56321 0.43860
 O381 O 0.42790 0.54651 0.55518
 O382 O 0.48346 0.58644 0.53735
 O383 O 0.55401 0.57463 0.49707
 O384 O 0.49739 0.58875 0.47924
 C385 C 0.48364 0.58823 0.45195
 O386 O 0.44106 0.49485 0.41841
 O387 O 0.55957 0.44529 0.45237
 O388 O 0.49501 0.51434 0.41097
 O389 O 0.54405 0.49401 0.42551
 O390 O 0.49933 0.40543 0.46627
 O391 O 0.44987 0.43029 0.44753
 C392 C 0.52414 0.50508 0.40492
 H393 H 0.53409 0.43459 0.50632
 H394 H 0.42391 0.47794 0.47684
 H395 H 0.52718 0.54357 0.45333
 H396 H 0.48715 0.53101 0.56531
 H397 H 0.43008 0.39872 0.50064
 H398 H 0.38526 0.49065 0.54613
 H399 H 0.40549 0.54194 0.56256
 H400 H 0.49347 0.60762 0.53295
 H401 H 0.48736 0.38515 0.47015
 H402 H 0.58158 0.45045 0.44421
 H403 H 0.59726 0.50541 0.45183
 H404 H 0.55114 0.59798 0.49987
 H405 H 0.44176 0.40800 0.44904
 H406 H 0.43610 0.51198 0.40281
 H407 H 0.54576 0.48117 0.60104
 H408 H 0.54074 0.58805 0.55244
 Zr409 Zr 0.47583 1.02512 0.54224
 O410 O 0.44229 1.00985 0.57738
 O411 O 0.48793 1.07125 0.55724
 O412 O 0.49850 1.02252 0.58649
 O413 O 0.41667 1.04577 0.48852
 O414 O 0.54204 0.98991 0.57835
 O415 O 0.43261 1.05201 0.53960
 O416 O 0.52639 1.08774 0.52161
 O417 O 0.52574 1.02680 0.53312
 O418 O 0.48149 1.04973 0.49945
 O419 O 0.49094 0.97707 0.54119
 O420 O 0.44810 0.99920 0.50945
 Zr421 Zr 0.52111 0.97744 0.45327
 Zr422 Zr 0.54039 0.97900 0.52974
 Zr423 Zr 0.45630 1.02316 0.46642
 Zr424 Zr 0.53097 1.04986 0.48954
 O425 O 0.41277 1.00232 0.45008
 O426 O 0.57769 1.05852 0.50829
 O427 O 0.50575 1.02550 0.45432
 O428 O 0.54826 1.00294 0.48658
 O429 O 0.51559 0.95223 0.49598
 O430 O 0.47127 0.97574 0.46263
 C431 C 0.50821 1.09190 0.54603
 C432 C 0.41257 1.05629 0.51675
 C433 C 0.52405 1.00776 0.59588
 O434 O 0.58724 0.99659 0.54009
 O435 O 0.57561 0.94906 0.50914
 O436 O 0.56247 0.94778 0.45688
 C437 C 0.58034 0.93977 0.48054
 O438 O 0.43070 0.94771 0.54250
 Zr439 Zr 0.46604 0.95225 0.50595
 O440 O 0.50854 0.93194 0.43746
 O441 O 0.54159 0.93574 0.55608
 O442 O 0.47901 0.91221 0.53427
 O443 O 0.42041 0.94082 0.48615
 O444 O 0.47370 0.91317 0.47548
 C445 C 0.49066 0.91004 0.45003
 O446 O 0.55735 0.99092 0.42001
 O447 O 0.45009 1.06907 0.44570
 O448 O 0.50182 0.98609 0.40768
 O449 O 0.46080 1.02140 0.41721
 O450 O 0.51865 1.09155 0.46333
 O451 O 0.56278 1.05566 0.45018
 C452 C 0.47919 1.00534 0.39867
 H453 H 0.47286 1.07180 0.49992
 H454 H 0.57156 1.00331 0.48080
 H455 H 0.45902 0.96482 0.44582
 H456 H 0.48724 0.96650 0.56195
 H457 H 0.58239 1.08164 0.50545
 H458 H 0.59735 0.98085 0.55463
 H459 H 0.56323 0.93463 0.56605
 H460 H 0.46420 0.89440 0.52888
 H461 H 0.53457 1.10843 0.46866
 H462 H 0.42871 1.06906 0.43516
 H463 H 0.40225 1.01853 0.43638
 H464 H 0.41685 0.91755 0.48936
 H465 H 0.57579 1.07539 0.45276
 H466 H 0.55947 0.97313 0.40480
 H467 H 0.43952 1.02786 0.59223
 H468 H 0.42166 0.92573 0.54261
 Zr469 Zr -0.02886 0.52629 1.04641
 O470 O -0.05885 0.51022 1.08418
 O471 O -0.01976 0.57416 1.05866
 O472 O -0.00337 0.52645 1.08929
 O473 O -0.09230 0.54118 0.99536
 O474 O 0.04145 0.49588 1.07992
 O475 O -0.07463 0.54918 1.04560
 O476 O 0.01551 0.59150 1.02041
 O477 O 0.02025 0.53109 1.03434
 O478 O -0.02761 0.54955 1.00262
 O479 O -0.01021 0.47936 1.04576
 O480 O -0.05632 0.49709 1.01612
 Zr481 Zr 0.01491 0.47870 0.95638
 Zr482 Zr 0.03831 0.48428 1.03151
 Zr483 Zr -0.05256 0.52000 0.97201
 Zr484 Zr 0.02108 0.55283 0.98979
 O485 O -0.09540 0.49538 0.95942
 O486 O 0.06797 0.56576 1.00558
 O487 O -0.00419 0.52546 0.95694
 O488 O 0.04171 0.50737 0.98737
 O489 O 0.01385 0.45444 0.99996
 O490 O -0.03411 0.47374 0.96867
 C491 C -0.00174 0.59567 1.04539
 C492 C -0.09601 0.55177 1.02363
 C493 C 0.02329 0.51313 1.09788
 O494 O 0.08380 0.50616 1.03958
 O495 O 0.07553 0.45750 1.00962
 O496 O 0.06032 0.45526 0.95793
 C497 C 0.08031 0.44957 0.98060
 O498 O -0.06713 0.44516 1.05193
 Zr499 Zr -0.03506 0.45145 1.01283
 O500 O 0.00540 0.43144 0.94339
 O501 O 0.04441 0.44157 1.05801
 O502 O -0.01685 0.41320 1.04074
 O503 O -0.08136 0.43682 0.99682
 O504 O -0.02785 0.41218 0.98250
 C505 C -0.01154 0.40918 0.95666
 O506 O 0.04708 0.49314 0.91967
 O507 O -0.06322 0.56441 0.94991
 O508 O -0.00772 0.48451 0.91186
 O509 O -0.05102 0.51662 0.92280
 O510 O 0.00418 0.59242 0.96291
 O511 O 0.04998 0.55924 0.94844
 C512 C -0.03234 0.50164 0.90367
 H513 H -0.03793 0.57090 1.00281
 H514 H 0.06454 0.50971 0.98034
 H515 H -0.04648 0.46142 0.95293
 H516 H -0.01194 0.46918 1.06692
 H517 H 0.07081 0.58898 1.00142
 H518 H 0.09598 0.49161 1.05379
 H519 H 0.06654 0.44236 1.06694
 H520 H -0.03058 0.39418 1.03678
 H521 H 0.01923 0.61054 0.96648
 H522 H -0.08518 0.56252 0.94072
 H523 H -0.10791 0.51012 0.94571
 H524 H -0.08334 0.41349 1.00085
 H525 H 0.06182 0.57983 0.94964
 H526 H 0.04961 0.47478 0.90516
 H527 H -0.06200 0.52862 1.09849
 H528 H -0.07422 0.42252 1.05322
 Zr529 Zr -0.01809 0.47461 0.45315
 O530 O -0.04575 0.49027 0.41403
 O531 O -0.00828 0.42687 0.44092
 O532 O 0.00979 0.47682 0.41064
 O533 O -0.08428 0.45868 0.50231
 O534 O 0.05536 0.50362 0.42533
 O535 O -0.06471 0.45285 0.45217
 O536 O 0.02414 0.40864 0.48067
 O537 O 0.03001 0.46920 0.46789
 O538 O -0.01990 0.45098 0.49692
 O539 O 0.00084 0.52144 0.45563
 O540 O -0.04700 0.50366 0.48275
 Zr541 Zr 0.02008 0.52127 0.54601
 Zr542 Zr 0.04807 0.51579 0.47256
 Zr543 Zr -0.04632 0.48041 0.52691
 Zr544 Zr 0.02776 0.44710 0.51224
 O545 O -0.09055 0.50430 0.53601
 O546 O 0.07562 0.43448 0.49877
 O547 O 0.00081 0.47448 0.54436
 O548 O 0.04870 0.49256 0.51650
 O549 O 0.02191 0.54566 0.50268
 O550 O -0.02792 0.52657 0.53129
 C551 C 0.00878 0.40503 0.45464
 C552 C -0.08698 0.44945 0.47359
 C553 C 0.03807 0.48903 0.40484
 O554 O 0.09432 0.49436 0.46828
 O555 O 0.08248 0.54420 0.49556
 O556 O 0.06371 0.54822 0.54612
 C557 C 0.08451 0.55452 0.52400
 O558 O -0.05548 0.55610 0.44711
 Zr559 Zr -0.02585 0.54930 0.48748
 O560 O 0.00947 0.56791 0.55971
 O561 O 0.05660 0.55767 0.44517
 O562 O -0.00531 0.58742 0.46057
 O563 O -0.07283 0.56429 0.50151
 O564 O -0.01939 0.58846 0.51851
 C565 C -0.00546 0.59083 0.54558
 O566 O 0.05070 0.50581 0.58304
 O567 O -0.05707 0.43612 0.54941
 O568 O -0.00569 0.51628 0.58906
 O569 O -0.04986 0.48630 0.57593
 O570 O 0.00833 0.40740 0.53767
 O571 O 0.05396 0.43958 0.55470
 C572 C -0.03223 0.50125 0.59586
 H573 H -0.03037 0.42967 0.49597
 H574 H 0.07105 0.49067 0.52470
 H575 H -0.04140 0.53893 0.54624
 H576 H 0.00082 0.53193 0.43457
 H577 H 0.07804 0.41116 0.50244
 H578 H 0.10768 0.50876 0.45472
 H579 H 0.07949 0.55689 0.43791
 H580 H -0.01891 0.60658 0.46408
 H581 H 0.02312 0.38905 0.53444
 H582 H -0.07967 0.43749 0.55739
 H583 H -0.10391 0.48974 0.54941
 H584 H -0.07401 0.58772 0.49788
 H585 H 0.06513 0.41866 0.55385
 H586 H 0.05251 0.52382 0.59802
 H587 H -0.04806 0.47174 0.39973
 H588 H -0.06208 0.57883 0.44565
 Zr589 Zr 0.48269 -0.02557 -0.04978
 O590 O 0.45487 -0.01251 -0.08969
 O591 O 0.49345 -0.07330 -0.05891
 O592 O 0.51063 -0.02740 -0.09199
 O593 O 0.41669 -0.03915 -0.00020
 O594 O 0.55677 -0.00049 -0.07907
 O595 O 0.43689 -0.04886 -0.04945
 O596 O 0.52537 -0.08904 -0.01780
 O597 O 0.53052 -0.03025 -0.03404
 O598 O 0.48030 -0.04579 -0.00443
 O599 O 0.50234 0.02092 -0.05133
 O600 O 0.45332 0.00565 -0.02324
 Zr601 Zr 0.51985 0.02833 0.03894
 Zr602 Zr 0.54922 0.01623 -0.03313
 Zr603 Zr 0.45354 -0.01390 0.02266
 Zr604 Zr 0.52762 -0.04870 0.01181
 O605 O 0.40875 0.01014 0.02801
 O606 O 0.57595 -0.06233 0.00127
 O607 O 0.50040 -0.01845 0.04118
 O608 O 0.54878 -0.00310 0.01260
 O609 O 0.52263 0.04883 -0.00624
 O610 O 0.47215 0.03236 0.02297
 C611 C 0.51093 -0.09393 -0.04417
 C612 C 0.41472 -0.05135 -0.02787
 C613 C 0.53933 -0.01665 -0.09832
 O614 O 0.59504 -0.00636 -0.03559
 O615 O 0.58464 0.04458 -0.01148
 O616 O 0.56315 0.05600 0.03682
 C617 C 0.58553 0.05859 0.01542
 O618 O 0.44659 0.05405 -0.06410
 Zr619 Zr 0.47507 0.05127 -0.02253
 O620 O 0.50810 0.07566 0.04846
 O621 O 0.55884 0.05602 -0.06307
 O622 O 0.49651 0.08714 -0.05171
 O623 O 0.42784 0.06781 -0.01129
 O624 O 0.48010 0.09275 0.00519
 C625 C 0.49282 0.09704 0.03248
 O626 O 0.55025 0.01673 0.07744
 O627 O 0.44318 -0.05557 0.04976
 O628 O 0.49346 0.02709 0.08203
 O629 O 0.44828 -0.00208 0.07050
 O630 O 0.50744 -0.08684 0.03897
 O631 O 0.55207 -0.05288 0.05566
 C632 C 0.46601 0.01408 0.08952
 H633 H 0.47014 -0.06728 -0.00389
 H634 H 0.57091 -0.00445 0.02143
 H635 H 0.45824 0.04593 0.03643
 H636 H 0.50278 0.02954 -0.07320
 H637 H 0.57806 -0.08535 0.00668
 H638 H 0.60874 0.00661 -0.05020
 H639 H 0.58162 0.05398 -0.07036
 H640 H 0.48262 0.10640 -0.05045
 H641 H 0.52236 -0.10530 0.03719
 H642 H 0.42039 -0.05375 0.05710
 H643 H 0.39514 -0.00321 0.04236
 H644 H 0.42667 0.09062 -0.01783
 H645 H 0.56308 -0.07388 0.05689
 H646 H 0.55174 0.03614 0.09066
 H647 H 0.45266 -0.03189 -0.10286
 H648 H 0.44064 0.07663 -0.06827
 Zr649 Zr 0.52904 0.53033 -0.04076
 O650 O 0.56428 0.51327 -0.07300
 O651 O 0.52168 0.57726 -0.05760
 O652 O 0.51082 0.52894 -0.08715
 O653 O 0.58422 0.54606 0.01909
 O654 O 0.46337 0.50091 -0.08217
 O655 O 0.57512 0.55199 -0.03374
 O656 O 0.48284 0.59669 -0.02438
 O657 O 0.47893 0.53682 -0.03541
 O658 O 0.52248 0.55447 0.00174
 O659 O 0.50839 0.48410 -0.04125
 O660 O 0.55054 0.50079 -0.00605
 Zr661 Zr 0.47110 0.48554 0.04372
 Zr662 Zr 0.45857 0.49081 -0.03361
 Zr663 Zr 0.54150 0.52450 0.03658
 Zr664 Zr 0.47267 0.55937 0.00791
 O665 O 0.58315 0.50021 0.05314
 O666 O 0.42828 0.57327 -0.01309
 O667 O 0.49182 0.53172 0.04501
 O668 O 0.44983 0.51457 0.00891
 O669 O 0.47728 0.46064 0.00149
 O670 O 0.52105 0.47894 0.03800
 C671 C 0.50211 0.59927 -0.04827
 C672 C 0.59281 0.55519 -0.00885
 C673 C 0.48507 0.51605 -0.09850
 O674 O 0.41601 0.51465 -0.04832
 O675 O 0.41779 0.46519 -0.01620
 O676 O 0.42788 0.45953 0.03650
 C677 C 0.41068 0.45461 0.01172
 O678 O 0.56431 0.44817 -0.03885
 Zr679 Zr 0.52719 0.45585 -0.00471
 O680 O 0.47786 0.43917 0.06104
 O681 O 0.45371 0.44809 -0.05956
 O682 O 0.51127 0.41805 -0.03386
 O683 O 0.56990 0.43910 0.01756
 O684 O 0.51347 0.41750 0.02574
 C685 C 0.49497 0.41603 0.05041
 O686 O 0.43376 0.50241 0.07375
 O687 O 0.54732 0.56821 0.06068
 O688 O 0.48724 0.48967 0.09056
 O689 O 0.53567 0.51590 0.08530
 O690 O 0.48783 0.59952 0.03431
 O691 O 0.43947 0.56761 0.04556
 C692 C 0.51345 0.50169 0.10177
 H693 H 0.53328 0.57565 0.00190
 H694 H 0.42631 0.51724 0.01293
 H695 H 0.53107 0.46618 0.05513
 H696 H 0.51272 0.47338 -0.06159
 H697 H 0.42596 0.59666 -0.01024
 H698 H 0.40508 0.50036 -0.06347
 H699 H 0.43312 0.44975 -0.07139
 H700 H 0.52316 0.39852 -0.02733
 H701 H 0.47408 0.61787 0.02795
 H702 H 0.56774 0.56644 0.07277
 H703 H 0.59369 0.51437 0.06867
 H704 H 0.57100 0.41567 0.01430
 H705 H 0.42913 0.58877 0.04259
 H706 H 0.42804 0.48465 0.08850
 H707 H 0.57004 0.53137 -0.08734
 H708 H 0.56993 0.42515 -0.03921
 Zr709 Zr 0.02979 1.01698 0.46040
 O710 O 0.06106 1.00368 0.42293
 O711 O 0.02260 1.06566 0.45009
 O712 O 0.00587 1.01888 0.41600
 O713 O 0.09083 1.02784 0.51550
 O714 O -0.03992 0.98878 0.42331
 O715 O 0.07648 1.03796 0.46437
 O716 O -0.01287 1.08192 0.48824
 O717 O -0.01952 1.02246 0.47110
 O718 O 0.02770 1.03690 0.50551
 O719 O 0.00984 0.97067 0.45827
 O720 O 0.05527 0.98527 0.49051
 Zr721 Zr -0.01834 0.96404 0.54651
 Zr722 Zr -0.03893 0.97596 0.47139
 Zr723 Zr 0.05045 1.00459 0.53592
 Zr724 Zr -0.02121 1.04094 0.51672
 O725 O 0.09321 0.97899 0.54680
 O726 O -0.06700 1.05609 0.49981
 O727 O 0.00176 1.01038 0.54933
 O728 O -0.04327 0.99576 0.51644
 O729 O -0.01623 0.94339 0.50174
 O730 O 0.03084 0.95864 0.53570
 C731 C 0.00519 1.08699 0.46376
 C732 C 0.09647 1.03936 0.48767
 C733 C -0.02057 1.00575 0.40603
 O734 O -0.08296 1.00024 0.46269
 O735 O -0.07734 0.94882 0.49108
 O736 O -0.06235 0.93899 0.54202
 C737 C -0.08193 0.93633 0.51871
 O738 O 0.06720 0.93710 0.45277
 Zr739 Zr 0.03290 0.94008 0.49033
 O740 O -0.01065 0.91549 0.55726
 O741 O -0.04618 0.93493 0.44339
 O742 O 0.01584 0.90477 0.45883
 O743 O 0.07742 0.92216 0.50788
 O744 O 0.02176 0.89862 0.51689
 C745 C 0.00498 0.89377 0.54222
 O746 O -0.05252 0.97702 0.58167
 O747 O 0.05955 1.04646 0.56218
 O748 O 0.00192 0.96606 0.59210
 O749 O 0.04898 0.99400 0.58476
 O750 O -0.00403 1.07796 0.54620
 O751 O -0.05180 1.04561 0.55701
 C752 C 0.02806 0.97918 0.60239
 H753 H 0.03859 1.05798 0.50677
 H754 H -0.06628 0.99784 0.52292
 H755 H 0.04222 0.94462 0.55098
 H756 H 0.01211 0.96175 0.43680
 H757 H -0.06912 1.07917 0.50451
 H758 H -0.09560 0.98669 0.44813
 H759 H -0.06812 0.93679 0.43415
 H760 H 0.02924 0.88536 0.46198
 H761 H -0.01811 1.09686 0.54286
 H762 H 0.08126 1.04387 0.57175
 H763 H 0.10548 0.99215 0.56198
 H764 H 0.07863 0.89924 0.50225
 H765 H -0.06262 1.06673 0.55633
 H766 H -0.05621 0.95799 0.59547
 H767 H 0.06483 1.02312 0.40976
 H768 H 0.07410 0.91458 0.45028
 Zr769 Zr 0.72608 0.26619 0.20413
 O770 O 0.73864 0.29463 0.16419
 O771 O 0.67762 0.25603 0.19531
 O772 O 0.72404 0.23979 0.16154
 O773 O 0.71380 0.32990 0.25438
 O774 O 0.75274 0.19468 0.17325
 O775 O 0.70371 0.31166 0.20473
 O776 O 0.66217 0.22260 0.23561
 O777 O 0.72229 0.21832 0.21882
 O778 O 0.70582 0.26661 0.24966
 O779 O 0.77342 0.24802 0.20187
 O780 O 0.75690 0.29488 0.23159
 Zr781 Zr 0.78261 0.22755 0.29161
 Zr782 Zr 0.76987 0.20097 0.21924
 Zr783 Zr 0.73781 0.29229 0.27776
 Zr784 Zr 0.70377 0.21919 0.26470
 O785 O 0.76185 0.33607 0.28663
 O786 O 0.69048 0.17190 0.25240
 O787 O 0.73459 0.24508 0.29465
 O788 O 0.75056 0.19952 0.26498
 O789 O 0.80270 0.22722 0.24619
 O790 O 0.78521 0.27539 0.27702
 C791 C 0.65684 0.23806 0.20968
 C792 C 0.70221 0.33315 0.22633
 C793 C 0.73559 0.21204 0.15452
 O794 O 0.74806 0.15522 0.21594
 O795 O 0.79939 0.16585 0.24041
 O796 O 0.80860 0.18422 0.29005
 C797 C 0.81185 0.16337 0.26812
 O798 O 0.80457 0.30421 0.18966
 Zr799 Zr 0.80339 0.27499 0.23104
 O800 O 0.83224 0.23733 0.29846
 O801 O 0.81025 0.19378 0.18908
 O802 O 0.84072 0.25613 0.20207
 O803 O 0.81806 0.32219 0.24222
 O804 O 0.84517 0.27232 0.25861
 C805 C 0.85207 0.25606 0.28346
 O806 O 0.77128 0.19715 0.33051
 O807 O 0.69463 0.30150 0.30335
 O808 O 0.78298 0.25211 0.33483
 O809 O 0.74774 0.29341 0.32679
 O810 O 0.66584 0.23756 0.29326
 O811 O 0.69971 0.19213 0.30733
 C812 C 0.76664 0.27640 0.34439
 H813 H 0.68406 0.27653 0.25031
 H814 H 0.74941 0.17734 0.27336
 H815 H 0.79888 0.28869 0.29086
 H816 H 0.78198 0.24861 0.17997
 H817 H 0.66713 0.16921 0.25747
 H818 H 0.76145 0.14262 0.20106
 H819 H 0.80874 0.17149 0.18148
 H820 H 0.85951 0.27089 0.20322
 H821 H 0.64680 0.22330 0.29081
 H822 H 0.69647 0.32358 0.31148
 H823 H 0.74760 0.34837 0.30098
 H824 H 0.84087 0.32488 0.23510
 H825 H 0.67819 0.18158 0.30831
 H826 H 0.79108 0.19526 0.34359
 H827 H 0.71885 0.29691 0.15117
 H828 H 0.82725 0.31055 0.18491
 Zr829 Zr 0.76003 0.71535 0.67819
 O830 O 0.74052 0.68435 0.64394
 O831 O 0.80644 0.72452 0.65942
 O832 O 0.75397 0.73965 0.63419
 O833 O 0.78223 0.65567 0.73098
 O834 O 0.72376 0.78351 0.64683
 O835 O 0.78357 0.67003 0.67885
 O836 O 0.82779 0.76049 0.69377
 O837 O 0.76538 0.76420 0.68773
 O838 O 0.78812 0.71831 0.71904
 O839 O 0.71259 0.73311 0.68410
 O840 O 0.73469 0.68900 0.71350
 Zr841 Zr 0.72088 0.76039 0.77196
 Zr842 Zr 0.71836 0.78133 0.69604
 Zr843 Zr 0.76218 0.69467 0.75464
 Zr844 Zr 0.79218 0.76667 0.72919
 O845 O 0.74062 0.65143 0.77081
 O846 O 0.80229 0.81260 0.70974
 O847 O 0.76851 0.74275 0.76675
 O848 O 0.74620 0.78635 0.73680
 O849 O 0.69202 0.75757 0.73160
 O850 O 0.71555 0.71174 0.76230
 C851 C 0.82936 0.74284 0.66904
 C852 C 0.78926 0.65030 0.70189
 C853 C 0.73880 0.76578 0.62698
 O854 O 0.73894 0.82612 0.68332
 O855 O 0.69368 0.81831 0.71954
 O856 O 0.69358 0.80306 0.77143
 C857 C 0.68632 0.82251 0.74881
 O858 O 0.67906 0.67612 0.68430
 Zr859 Zr 0.68860 0.70898 0.72110
 O860 O 0.67499 0.75001 0.79102
 O861 O 0.67219 0.78647 0.67514
 O862 O 0.64673 0.72548 0.69720
 O863 O 0.67669 0.66345 0.74055
 O864 O 0.65206 0.71618 0.75549
 C865 C 0.65147 0.73272 0.78097
 O866 O 0.73910 0.79417 0.80435
 O867 O 0.80933 0.68729 0.77275
 O868 O 0.73082 0.73964 0.81659
 O869 O 0.76106 0.69587 0.80427
 O870 O 0.83516 0.75100 0.75176
 O871 O 0.80353 0.79705 0.76756
 C872 C 0.74741 0.71469 0.82423
 H873 H 0.80977 0.70843 0.71670
 H874 H 0.74863 0.80910 0.74266
 H875 H 0.70501 0.69955 0.77973
 H876 H 0.69994 0.73079 0.66447
 H877 H 0.82612 0.81567 0.71007
 H878 H 0.72244 0.83785 0.67088
 H879 H 0.67155 0.80818 0.66552
 H880 H 0.62835 0.71156 0.70379
 H881 H 0.85303 0.76534 0.74470
 H882 H 0.80937 0.66577 0.78279
 H883 H 0.75716 0.64005 0.78351
 H884 H 0.65283 0.66092 0.73940
 H885 H 0.82432 0.80818 0.76316
 H886 H 0.72235 0.79701 0.82102
 H887 H 0.75761 0.68129 0.62766
 H888 H 0.65626 0.66873 0.68587
 Zr889 Zr 0.22249 0.23299 0.78951
 O890 O 0.23760 0.20487 0.82859
 O891 O 0.17329 0.23945 0.80007
 O892 O 0.21973 0.25824 0.83287
 O893 O 0.21381 0.16892 0.73812
 O894 O 0.24298 0.30633 0.82031
 O895 O 0.20403 0.18581 0.78841
 O896 O 0.15509 0.27276 0.76104
 O897 O 0.21466 0.28057 0.77588
 O898 O 0.20123 0.23180 0.74477
 O899 O 0.26851 0.25465 0.79018
 O900 O 0.25513 0.20761 0.76042
 Zr901 Zr 0.27301 0.27809 0.70059
 Zr902 Zr 0.26068 0.30154 0.77425
 Zr903 Zr 0.23441 0.20911 0.71520
 Zr904 Zr 0.19527 0.27924 0.73059
 O905 O 0.26180 0.16760 0.70525
 O906 O 0.17870 0.32525 0.74374
 O907 O 0.22682 0.25617 0.69915
 O908 O 0.24013 0.30295 0.72929
 O909 O 0.29458 0.27903 0.74506
 O910 O 0.28013 0.23030 0.71396
 C911 C 0.15120 0.25640 0.78665
 C912 C 0.20346 0.16452 0.76658
 C913 C 0.22850 0.28708 0.83953
 O914 O 0.23640 0.34593 0.77807
 O915 O 0.28893 0.33805 0.75400
 O916 O 0.29814 0.32235 0.70338
 C917 C 0.30148 0.34207 0.72641
 O918 O 0.30557 0.20095 0.79904
 Zr919 Zr 0.30006 0.23139 0.75893
 O920 O 0.32148 0.27002 0.68863
 O921 O 0.30008 0.31078 0.80463
 O922 O 0.33593 0.25271 0.78760
 O923 O 0.31887 0.18647 0.74499
 O924 O 0.34098 0.24039 0.72983
 C925 C 0.34427 0.25513 0.70317
 O926 O 0.25863 0.30999 0.66414
 O927 O 0.19153 0.19709 0.69079
 O928 O 0.27128 0.25557 0.65636
 O929 O 0.24368 0.20901 0.66613
 O930 O 0.15759 0.25859 0.70366
 O931 O 0.18884 0.30591 0.68810
 C932 C 0.25831 0.22909 0.64756
 H933 H 0.18027 0.22019 0.74472
 H934 H 0.23741 0.32522 0.72159
 H935 H 0.29423 0.21844 0.69914
 H936 H 0.27760 0.25426 0.81176
 H937 H 0.15524 0.32632 0.73896
 H938 H 0.24897 0.35916 0.79298
 H939 H 0.29730 0.33287 0.81248
 H940 H 0.35614 0.24023 0.78494
 H941 H 0.13801 0.27199 0.70652
 H942 H 0.19489 0.17545 0.68200
 H943 H 0.24855 0.15437 0.69093
 H944 H 0.34222 0.18619 0.75036
 H945 H 0.16681 0.31527 0.68789
 H946 H 0.27775 0.31345 0.65016
 H947 H 0.21817 0.20072 0.84199
 H948 H 0.32885 0.19609 0.80199
 Zr949 Zr 0.27760 0.78997 0.30841
 O950 O 0.26599 0.82318 0.34417
 O951 O 0.32684 0.78214 0.31736
 O952 O 0.28142 0.76937 0.35421
 O953 O 0.28780 0.84721 0.24840
 O954 O 0.24975 0.72459 0.35191
 O955 O 0.29894 0.83525 0.29997
 O956 O 0.34037 0.74314 0.28240
 O957 O 0.28168 0.74071 0.30103
 O958 O 0.29623 0.78494 0.26266
 O959 O 0.23056 0.77149 0.31475
 O960 O 0.24505 0.81416 0.27827
 Zr961 Zr 0.21936 0.73855 0.22928
 Zr962 Zr 0.23437 0.72263 0.30485
 Zr963 Zr 0.26274 0.80632 0.23234
 Zr964 Zr 0.29861 0.73602 0.25479
 O965 O 0.23723 0.84826 0.21936
 O966 O 0.31334 0.69069 0.27241
 O967 O 0.26663 0.75729 0.22239
 O968 O 0.25252 0.71532 0.25920
 O969 O 0.20041 0.74393 0.27488
 O970 O 0.21579 0.78788 0.23670
 C971 C 0.34689 0.76219 0.30524
 C972 C 0.29998 0.85389 0.27552
 C973 C 0.26811 0.74424 0.36670
 O974 O 0.25877 0.67951 0.31590
 O975 O 0.20642 0.68343 0.29003
 O976 O 0.19544 0.69433 0.23831
 C977 C 0.19370 0.67644 0.26333
 O978 O 0.19864 0.82893 0.31820
 Zr979 Zr 0.19899 0.79321 0.28281
 O980 O 0.16958 0.74653 0.22190
 O981 O 0.19365 0.71804 0.33523
 O982 O 0.16397 0.77896 0.31712
 O983 O 0.18164 0.83685 0.26337
 O984 O 0.15577 0.78312 0.25929
 C985 C 0.14909 0.76457 0.23632
 O986 O 0.22924 0.70330 0.19492
 O987 O 0.30444 0.81233 0.20347
 O988 O 0.21987 0.75636 0.18232
 O989 O 0.25005 0.80214 0.18430
 O990 O 0.33619 0.75113 0.22357
 O991 O 0.30121 0.70475 0.21558
 C992 C 0.23357 0.78098 0.16924
 H993 H 0.31784 0.79499 0.25987
 H994 H 0.25421 0.69228 0.25427
 H995 H 0.20119 0.79856 0.22145
 H996 H 0.22248 0.77518 0.33648
 H997 H 0.33646 0.68787 0.26658
 H998 H 0.24577 0.66845 0.33250
 H999 H 0.19594 0.69734 0.34664
 H1000 H 0.14470 0.79281 0.31436
 H1001 H 0.35507 0.73701 0.22734
 H1002 H 0.30204 0.83316 0.19235
 H1003 H 0.25033 0.85915 0.20272
 H1004 H 0.15893 0.83954 0.27065
 H1005 H 0.32266 0.69416 0.21518
 H1006 H 0.20894 0.69957 0.18301
 H1007 H 0.28624 0.82755 0.35592
 H1008 H 0.17615 0.83638 0.32174
 Zr1009 Zr 0.22895 0.78321 0.71761
 O1010 O 0.24336 0.81560 0.68132
 O1011 O 0.17862 0.78129 0.71109
 O1012 O 0.22078 0.76464 0.67185
 O1013 O 0.23175 0.83984 0.77676
 O1014 O 0.24119 0.71405 0.67516
 O1015 O 0.21441 0.83095 0.72649
 O1016 O 0.16162 0.74328 0.74662
 O1017 O 0.21809 0.73486 0.72606
 O1018 O 0.21212 0.77981 0.76426
 O1019 O 0.27240 0.75826 0.70924
 O1020 O 0.26653 0.80178 0.74577
 Zr1021 Zr 0.28331 0.72302 0.79449
 Zr1022 Zr 0.26178 0.71034 0.72013
 Zr1023 Zr 0.25009 0.79560 0.79251
 Zr1024 Zr 0.20312 0.73154 0.77309
 O1025 O 0.28239 0.83275 0.80502
 O1026 O 0.18149 0.68836 0.75770
 O1027 O 0.23958 0.74767 0.80353
 O1028 O 0.24551 0.70480 0.76674
 O1029 O 0.30023 0.72619 0.74789
 O1030 O 0.29374 0.77133 0.78608
 C1031 C 0.15679 0.76313 0.72369
 C1032 C 0.21848 0.84894 0.75078
 C1033 C 0.22693 0.73688 0.66019
 O1034 O 0.23200 0.66981 0.71271
 O1035 O 0.28670 0.66859 0.73348
 O1036 O 0.30108 0.67693 0.78466
 C1037 C 0.30005 0.65988 0.75955
 O1038 O 0.31304 0.81051 0.70341
 Zr1039 Zr 0.30883 0.77468 0.73920
 O1040 O 0.33397 0.72314 0.79972
 O1041 O 0.29811 0.70152 0.68580
 O1042 O 0.33921 0.75603 0.70325
 O1043 O 0.33382 0.81493 0.75717
 O1044 O 0.35131 0.75739 0.76081
 C1045 C 0.35634 0.73783 0.78389
 O1046 O 0.26865 0.68944 0.82960
 O1047 O 0.21092 0.80816 0.82245
 O1048 O 0.29037 0.74046 0.84055
 O1049 O 0.26250 0.78761 0.84016
 O1050 O 0.16955 0.75191 0.80524
 O1051 O 0.19782 0.70094 0.81320
 C1052 C 0.27887 0.76544 0.85414
 H1053 H 0.19235 0.79270 0.76786
 H1054 H 0.24107 0.68208 0.77208
 H1055 H 0.31058 0.77969 0.80038
 H1056 H 0.27963 0.76091 0.68702
 H1057 H 0.15852 0.68846 0.76474
 H1058 H 0.24201 0.65757 0.69527
 H1059 H 0.29227 0.68117 0.67543
 H1060 H 0.36066 0.76657 0.70505
 H1061 H 0.14857 0.74071 0.80248
 H1062 H 0.21742 0.82791 0.83355
 H1063 H 0.27175 0.84481 0.82222
 H1064 H 0.35642 0.81403 0.74912
 H1065 H 0.17491 0.69404 0.81526
 H1066 H 0.28850 0.68215 0.84063
 H1067 H 0.22341 0.82277 0.67038
 H1068 H 0.33625 0.81466 0.69880
 Zr1069 Zr 0.27179 0.23738 0.19520
 O1070 O 0.25100 0.20716 0.16095
 O1071 O 0.31821 0.24620 0.17582
 O1072 O 0.26523 0.26180 0.15167
 O1073 O 0.29397 0.17610 0.24619
 O1074 O 0.23668 0.30646 0.16503
 O1075 O 0.29428 0.19167 0.19443
 O1076 O 0.33981 0.28304 0.20916
 O1077 O 0.27862 0.28592 0.20524
 O1078 O 0.30092 0.23911 0.23532
 O1079 O 0.22490 0.25624 0.20229
 O1080 O 0.24611 0.21126 0.23040
 Zr1081 Zr 0.23614 0.28236 0.29022
 Zr1082 Zr 0.23231 0.30415 0.21442
 Zr1083 Zr 0.27496 0.21536 0.27074
 Zr1084 Zr 0.30621 0.28724 0.24632
 O1085 O 0.25259 0.17221 0.28606
 O1086 O 0.31715 0.33396 0.22925
 O1087 O 0.28295 0.26305 0.28386
 O1088 O 0.26107 0.30815 0.25476
 O1089 O 0.20616 0.28092 0.25051
 O1090 O 0.22911 0.23399 0.27980
 C1091 C 0.34088 0.26542 0.18454
 C1092 C 0.30014 0.17127 0.21679
 C1093 C 0.25059 0.28822 0.14485
 O1094 O 0.25413 0.34840 0.20183
 O1095 O 0.20875 0.34127 0.23846
 O1096 O 0.21002 0.32615 0.29039
 C1097 C 0.20218 0.34567 0.26784
 O1098 O 0.18849 0.20074 0.20278
 Zr1099 Zr 0.20077 0.23267 0.23961
 O1100 O 0.19081 0.27387 0.31040
 O1101 O 0.18600 0.31089 0.19423
 O1102 O 0.15901 0.25126 0.21708
 O1103 O 0.18780 0.18724 0.25867
 O1104 O 0.16561 0.24076 0.27565
 C1105 C 0.16652 0.25730 0.30123
 O1106 O 0.25684 0.31452 0.32272
 O1107 O 0.32213 0.20685 0.28827
 O1108 O 0.24490 0.25927 0.33424
 O1109 O 0.27376 0.21511 0.32015
 O1110 O 0.34997 0.26983 0.26606
 O1111 O 0.31888 0.31512 0.28611
 C1112 C 0.26015 0.23310 0.34081
 H1113 H 0.32231 0.22887 0.23222
 H1114 H 0.26421 0.33075 0.26085
 H1115 H 0.21839 0.22173 0.29708
 H1116 H 0.21175 0.25443 0.18292
 H1117 H 0.34102 0.33664 0.22980
 H1118 H 0.23781 0.36072 0.18973
 H1119 H 0.18590 0.33265 0.18471
 H1120 H 0.14018 0.23836 0.22444
 H1121 H 0.36763 0.28451 0.25920
 H1122 H 0.32186 0.18516 0.29795
 H1123 H 0.26898 0.16009 0.29828
 H1124 H 0.16381 0.18578 0.25859
 H1125 H 0.34002 0.32576 0.28217
 H1126 H 0.24048 0.31783 0.33965
 H1127 H 0.26765 0.20392 0.14426
 H1128 H 0.16542 0.19440 0.20498
 Zr1129 Zr 0.73109 0.71394 0.28907
 O1130 O 0.74839 0.68585 0.32729
 O1131 O 0.68208 0.71930 0.30092
 O1132 O 0.72743 0.73800 0.33239
 O1133 O 0.72311 0.65020 0.23789
 O1134 O 0.74957 0.78694 0.32138
 O1135 O 0.71321 0.66672 0.28820
 O1136 O 0.66290 0.75320 0.26283
 O1137 O 0.72133 0.76131 0.27586
 O1138 O 0.70937 0.71226 0.24469
 O1139 O 0.77616 0.73745 0.28975
 O1140 O 0.76452 0.68973 0.26007
 Zr1141 Zr 0.77920 0.76097 0.19985
 Zr1142 Zr 0.76631 0.78411 0.27424
 Zr1143 Zr 0.74330 0.69066 0.21520
 Zr1144 Zr 0.70175 0.75949 0.23069
 O1145 O 0.77194 0.64973 0.20628
 O1146 O 0.68386 0.80541 0.24247
 O1147 O 0.73383 0.73738 0.19900
 O1148 O 0.74573 0.78469 0.22911
 O1149 O 0.80068 0.76280 0.24446
 O1150 O 0.78823 0.71355 0.21341
 C1151 C 0.65983 0.73675 0.28857
 C1152 C 0.71270 0.64563 0.26628
 C1153 C 0.73545 0.76662 0.34007
 O1154 O 0.73933 0.82679 0.27920
 O1155 O 0.79172 0.82252 0.25358
 O1156 O 0.80376 0.80575 0.20376
 C1157 C 0.80544 0.82628 0.22643
 O1158 O 0.81518 0.68480 0.29799
 Zr1159 Zr 0.80837 0.71547 0.25826
 O1160 O 0.82785 0.75454 0.18762
 O1161 O 0.80613 0.79534 0.30341
 O1162 O 0.84331 0.73784 0.28724
 O1163 O 0.82940 0.67175 0.24364
 O1164 O 0.84883 0.72697 0.22949
 C1165 C 0.85145 0.74161 0.20272
 O1166 O 0.76425 0.79287 0.16370
 O1167 O 0.70107 0.67775 0.19017
 O1168 O 0.77673 0.73798 0.15509
 O1169 O 0.75344 0.68956 0.16671
 O1170 O 0.66365 0.73740 0.20546
 O1171 O 0.69415 0.78472 0.18756
 C1172 C 0.76586 0.71003 0.14730
 H1173 H 0.68868 0.70017 0.24491
 H1174 H 0.74210 0.80683 0.22140
 H1175 H 0.80277 0.70223 0.19858
 H1176 H 0.78542 0.73725 0.31126
 H1177 H 0.66029 0.80551 0.23802
 H1178 H 0.75128 0.84043 0.29423
 H1179 H 0.80198 0.81693 0.31199
 H1180 H 0.86400 0.72615 0.28454
 H1181 H 0.64390 0.75042 0.20880
 H1182 H 0.70478 0.65596 0.18189
 H1183 H 0.75915 0.63572 0.19227
 H1184 H 0.85274 0.67253 0.24904
 H1185 H 0.67173 0.79313 0.18713
 H1186 H 0.78339 0.79662 0.14982
 H1187 H 0.72957 0.68066 0.34118
 H1188 H 0.83863 0.68071 0.30078
 Zr1189 Zr 0.77844 0.27264 0.78952
 O1190 O 0.77238 0.30179 0.82976
 O1191 O 0.82765 0.26112 0.79307
 O1192 O 0.78398 0.24681 0.83251
 O1193 O 0.78684 0.33636 0.73616
 O1194 O 0.74953 0.20427 0.82815
 O1195 O 0.80167 0.31743 0.78479
 O1196 O 0.83718 0.22855 0.75121
 O1197 O 0.77927 0.22458 0.77628
 O1198 O 0.79289 0.27261 0.74206
 O1199 O 0.73103 0.25594 0.79754
 O1200 O 0.74511 0.30202 0.76516
 Zr1201 Zr 0.71123 0.23468 0.71013
 Zr1202 Zr 0.73133 0.20850 0.78193
 Zr1203 Zr 0.75842 0.29916 0.71725
 Zr1204 Zr 0.79197 0.22503 0.72841
 O1205 O 0.73418 0.34333 0.71118
 O1206 O 0.80608 0.17782 0.74081
 O1207 O 0.75877 0.25168 0.70148
 O1208 O 0.74520 0.20622 0.73430
 O1209 O 0.69654 0.23516 0.75749
 O1210 O 0.71091 0.28275 0.72332
 C1211 C 0.84630 0.24368 0.77593
 C1212 C 0.80160 0.33894 0.76276
 C1213 C 0.76988 0.22141 0.84356
 O1214 O 0.75436 0.16351 0.78620
 O1215 O 0.70020 0.17281 0.76438
 O1216 O 0.68461 0.19182 0.71612
 C1217 C 0.68423 0.17068 0.73844
 O1218 O 0.70361 0.31439 0.80995
 Zr1219 Zr 0.69840 0.28307 0.77107
 O1220 O 0.66141 0.24522 0.70843
 O1221 O 0.69249 0.20175 0.81424
 O1222 O 0.66561 0.26692 0.80666
 O1223 O 0.68186 0.32931 0.75795
 O1224 O 0.65266 0.27748 0.75081
 C1225 C 0.64305 0.26169 0.72686
 O1226 O 0.71638 0.20322 0.67149
 O1227 O 0.79811 0.30724 0.68621
 O1228 O 0.70899 0.25786 0.66548
 O1229 O 0.74234 0.30120 0.66995
 O1230 O 0.82650 0.24178 0.69472
 O1231 O 0.78927 0.19760 0.68650
 C1232 C 0.72350 0.28283 0.65397
 H1233 H 0.81467 0.28205 0.73854
 H1234 H 0.74506 0.18394 0.72657
 H1235 H 0.69568 0.29574 0.71059
 H1236 H 0.72486 0.25744 0.82010
 H1237 H 0.82843 0.17465 0.73270
 H1238 H 0.74178 0.15096 0.80206
 H1239 H 0.69442 0.17968 0.82282
 H1240 H 0.64727 0.28217 0.80732
 H1241 H 0.84486 0.22653 0.69471
 H1242 H 0.79591 0.32938 0.67790
 H1243 H 0.74659 0.35562 0.69500
 H1244 H 0.66008 0.33218 0.76754
 H1245 H 0.80979 0.18571 0.68354
 H1246 H 0.69507 0.20195 0.66080
 H1247 H 0.79383 0.30351 0.84012
 H1248 H 0.68209 0.32277 0.81616
 C1249 C 0.43326 1.01381 0.30726
 C1250 C 0.45607 0.99149 0.31264
 C1251 C 0.47169 0.98719 0.34389
 C1252 C 0.47314 1.01072 0.36500
 H1253 H 0.46088 0.97371 0.29479
 H1254 H 0.47994 0.96343 0.35035
 H1255 H 0.42618 1.02987 0.32590
 H1256 H 0.46545 1.03462 0.35861
 C1257 C -0.07609 0.50575 0.80998
 C1258 C -0.05076 0.48656 0.81631
 C1259 C -0.03622 0.48369 0.84820
 C1260 C -0.04046 0.50595 0.87030
 H1261 H -0.04204 0.47053 0.79822
 H1262 H -0.02304 0.46202 0.85389
 H1263 H -0.08701 0.51971 0.82854
 H1264 H -0.05282 0.52803 0.86469
 C1265 C 0.07893 0.00099 0.81128
 C1266 C 0.09391 0.00359 0.83923
 C1267 C 0.07873 0.00102 0.87057
 C1268 C 0.05327 0.01818 0.88057
 H1269 H 0.12020 0.00400 0.83951
 H1270 H 0.09258 -0.01285 0.88746
 H1271 H 0.05283 -0.00151 0.81003
 H1272 H 0.04007 0.03328 0.86420
 C1273 C 0.57101 0.50023 0.30901
 C1274 C 0.58492 0.50673 0.33666
 C1275 C 0.56855 0.50718 0.36735
 C1276 C 0.53643 0.50758 0.37234
 H1277 H 0.61105 0.50955 0.33751
 H1278 H 0.58486 0.50695 0.38730
 H1279 H 0.54531 0.49533 0.30741
 H1280 H 0.51951 0.50989 0.35305
 C1281 C 0.58652 0.48995 0.19055
 C1282 C 0.55590 0.49246 0.18066
 C1283 C 0.54931 0.49748 0.14701
 C1284 C 0.51914 0.49763 0.13574
 H1285 H 0.53569 0.49149 0.19704
 H1286 H 0.56974 0.50078 0.13101
 H1287 H 0.60601 0.49032 0.17324
 H1288 H 0.49871 0.49276 0.15131
 C1289 C 0.09844 0.99352 0.69303
 C1290 C 0.06757 0.98717 0.68119
 C1291 C 0.06262 0.98768 0.64853
 C1292 C 0.03371 0.97721 0.63494
 H1293 H 0.04775 0.98091 0.69700
 H1294 H 0.08220 0.99589 0.63322
 H1295 H 0.11808 0.99656 0.67607
 H1296 H 0.01507 0.96677 0.65006
 C1297 C -0.07710 0.51166 0.69007
 C1298 C -0.04593 0.51887 0.68374
 C1299 C -0.03225 0.51905 0.65138
 C1300 C -0.04443 0.50089 0.62847
 H1301 H -0.02974 0.52580 0.70243
 H1302 H -0.01101 0.53372 0.64681
 H1303 H -0.09372 0.50749 0.67090
 H1304 H -0.06469 0.48506 0.63341
 C1305 C 0.42593 0.01812 0.18874
 C1306 C 0.40933 0.01094 0.16271
 C1307 C 0.42377 0.00848 0.13070
 C1308 C 0.45372 0.01830 0.12210
 H1309 H 0.38401 0.00448 0.16464
 H1310 H 0.40815 -0.00210 0.11316
 H1311 H 0.45168 0.02285 0.18710
 H1312 H 0.46942 0.03011 0.13869
 C1313 C 0.30053 0.41425 -0.01262
 C1314 C 0.32971 0.41082 0.00094
 C1315 C 0.35633 0.43423 -0.00373
 C1316 C 0.38161 0.43427 0.01603
 H1317 H 0.33489 0.38990 0.01523
 H1318 H 0.35548 0.45101 -0.02338
 H1319 H 0.29627 0.43506 -0.02749
 H1320 H 0.38107 0.41851 0.03654
 C1321 C -0.19334 0.90605 0.49432
 C1322 C -0.16619 0.89986 0.51031
 C1323 C -0.13757 0.92054 0.50596
 C1324 C -0.11149 0.91730 0.52421
 H1325 H -0.16414 0.87913 0.52557
 H1326 H -0.13763 0.93838 0.48717
 H1327 H -0.19418 0.92749 0.47967
 H1328 H -0.11196 0.90051 0.54390
 C1329 C -0.18388 0.09171 1.00877
 C1330 C -0.15541 0.09820 0.99468
 C1331 C -0.12624 0.07962 1.00303
 C1332 C -0.09888 0.08215 0.98605
 H1333 H -0.15316 0.11733 0.97743
 H1334 H -0.12740 0.06316 1.02297
 H1335 H -0.18479 0.07258 1.02630
 H1336 H -0.09829 0.09755 0.96529
 C1337 C 0.31114 0.60367 0.51449
 C1338 C 0.32483 0.59011 0.48918
 C1339 C 0.35441 0.57098 0.49346
 C1340 C 0.37162 0.55858 0.46957
 H1341 H 0.31399 0.59263 0.46605
 H1342 H 0.36263 0.56726 0.51749
 H1343 H 0.32256 0.60052 0.53731
 H1344 H 0.36459 0.56311 0.44533
 C1345 C 0.19112 0.59916 0.49859
 C1346 C 0.16483 0.60092 0.51716
 C1347 C 0.13631 0.58080 0.51035
 C1348 C 0.11254 0.57524 0.53152
 H1349 H 0.16499 0.61586 0.53793
 H1350 H 0.13534 0.56947 0.48744
 H1351 H 0.19150 0.58223 0.47935
 H1352 H 0.11383 0.58582 0.55474
 C1353 C 0.69803 0.08712 -0.00430
 C1354 C 0.66772 0.09642 0.00749
 C1355 C 0.64087 0.07642 0.00315
 C1356 C 0.61250 0.07808 0.02156
 H1357 H 0.66554 0.11758 0.02192
 H1358 H 0.64292 0.05755 -0.01416
 H1359 H 0.70028 0.06285 -0.01293
 H1360 H 0.61196 0.09358 0.04193
 C1361 C 0.68668 0.89636 0.50712
 C1362 C 0.66089 0.89432 0.48825
 C1363 C 0.63118 0.91258 0.49577
 C1364 C 0.60847 0.91877 0.47405
 H1365 H 0.66259 0.88133 0.46627
 H1366 H 0.62885 0.92276 0.51913
 H1367 H 0.68535 0.91153 0.52772
 H1368 H 0.61139 0.90946 0.45041
 C1369 C 0.18089 0.38821 0.99901
 C1370 C 0.16493 0.41140 0.98361
 C1371 C 0.13150 0.42068 0.99266
 C1372 C 0.11176 0.43496 0.97185
 H1373 H 0.17680 0.42402 0.96422
 H1374 H 0.12341 0.41661 1.01678
 H1375 H 0.16828 0.37387 1.01669
 H1376 H 0.11951 0.43717 0.94740
 C1377 C -0.00117 0.30635 0.41642
 C1378 C -0.00354 0.33368 0.39957
 C1379 C -0.00433 0.36584 0.41353
 C1380 C 0.01041 0.37302 0.44058
 H1381 H -0.00658 0.33246 0.37422
 H1382 H -0.01644 0.38445 0.40012
 H1383 H 0.00046 0.30688 0.44191
 H1384 H 0.02410 0.35488 0.45310
 C1385 C 0.50711 -0.18990 -0.08874
 C1386 C 0.50589 -0.16160 -0.10376
 C1387 C 0.50421 -0.13069 -0.08791
 C1388 C 0.51435 -0.12555 -0.05843
 H1389 H 0.50398 -0.16101 -0.12928
 H1390 H 0.49481 -0.11105 -0.10197
 H1391 H 0.50711 -0.19133 -0.06321
 H1392 H 0.52577 -0.14437 -0.04478
 C1393 C 0.02324 -0.18707 1.08796
 C1394 C 0.02693 -0.16033 1.10480
 C1395 C 0.02797 -0.12817 1.09079
 C1396 C 0.01104 -0.12016 1.06511
 H1397 H 0.02923 -0.16192 1.13023
 H1398 H 0.04127 -0.11012 1.10358
 H1399 H 0.02162 -0.18600 1.06246
 H1400 H -0.00379 -0.13778 1.05336
 C1401 C 0.52034 0.30945 0.58720
 C1402 C 0.52361 0.33658 0.60352
 C1403 C 0.52210 0.36823 0.58846
 C1404 C 0.50242 0.37373 0.56411
 H1405 H 0.52551 0.33578 0.62901
 H1406 H 0.53529 0.38769 0.59923
 H1407 H 0.51906 0.31013 0.56166
 H1408 H 0.48789 0.35450 0.55459
 C1409 C 0.50365 1.18954 0.58549
 C1410 C 0.52315 1.18089 0.56169
 C1411 C 0.52360 1.14852 0.54819
 C1412 C 0.50962 1.12284 0.56185
 H1413 H 0.53951 1.19827 0.55105
 H1414 H 0.53599 1.14611 0.52570
 H1415 H 0.48731 1.17263 0.59668
 H1416 H 0.49761 1.12433 0.58452
 C1417 C 0.01099 0.69173 1.08664
 C1418 C 0.01194 0.68557 1.05578
 C1419 C 0.01137 0.65281 1.04347
 C1420 C -0.00151 0.62768 1.05917
 H1421 H 0.01435 0.70476 1.03863
 H1422 H 0.02095 0.64981 1.01980
 H1423 H 0.00989 0.67222 1.10358
 H1424 H -0.01345 0.63065 1.08178
 C1425 C 0.51047 0.69222 -0.09300
 C1426 C 0.51676 0.66364 -0.10887
 C1427 C 0.51685 0.63380 -0.09355
 C1428 C 0.50130 0.62832 -0.06450
 H1429 H 0.52422 0.66431 -0.13339
 H1430 H 0.52762 0.61386 -0.10592
 H1431 H 0.50969 0.69186 -0.06745
 H1432 H 0.48606 0.64678 -0.05456
 C1433 C 0.00030 1.18415 0.42102
 C1434 C -0.00490 1.17786 0.45170
 C1435 C -0.00659 1.14488 0.46467
 C1436 C 0.00692 1.11956 0.45047
 H1437 H -0.00988 1.19711 0.46787
 H1438 H -0.01868 1.14175 0.48728
 H1439 H 0.00284 1.16465 0.40464
 H1440 H 0.02100 1.12261 0.42900
 C1441 C 0.76096 0.68184 0.92656
 C1442 C 0.76368 0.66559 0.89947
 C1443 C 0.76516 0.67945 0.86741
 C1444 C 0.75006 0.70632 0.85818
 H1445 H 0.76515 0.63972 0.90052
 H1446 H 0.77618 0.66421 0.84982
 H1447 H 0.75954 0.70771 0.92631
 H1448 H 0.73754 0.72097 0.87530
 C1449 C 0.26000 0.18469 0.43792
 C1450 C 0.26986 0.17387 0.40981
 C1451 C 0.27428 0.19285 0.38064
 C1452 C 0.26043 0.22119 0.37390
 H1453 H 0.27520 0.14862 0.40751
 H1454 H 0.28730 0.18027 0.36228
 H1455 H 0.25429 0.20972 0.44109
 H1456 H 0.24654 0.23380 0.39160
 C1457 C 0.73158 0.32718 0.44336
 C1458 C 0.75509 0.31357 0.42611
 C1459 C 0.74828 0.30098 0.39429
 C1460 C 0.77109 0.28573 0.37764
 H1461 H 0.77993 0.31389 0.43417
 H1462 H 0.72486 0.30565 0.38373
 H1463 H 0.70676 0.32476 0.43538
 H1464 H 0.79390 0.27974 0.38877
 C1465 C 0.24743 0.80538 0.95737
 C1466 C 0.27109 0.79412 0.93874
 C1467 C 0.26305 0.78192 0.90719
 C1468 C 0.28553 0.76966 0.88795
 H1469 H 0.29633 0.79744 0.94463
 H1470 H 0.23875 0.78588 0.89830
 H1471 H 0.22255 0.79965 0.95136
 H1472 H 0.30948 0.76400 0.89674
 C1473 C 0.24903 0.84132 0.07046
 C1474 C 0.24064 0.81293 0.08642
 C1475 C 0.24196 0.81115 0.11946
 C1476 C 0.23040 0.78444 0.13641
 H1477 H 0.23241 0.79233 0.07338
 H1478 H 0.25199 0.83119 0.13225
 H1479 H 0.25423 0.86218 0.08462
 H1480 H 0.21839 0.76547 0.12362
 C1481 C 0.73815 0.35117 0.55993
 C1482 C 0.72866 0.32195 0.57375
 C1483 C 0.73128 0.31708 0.60651
 C1484 C 0.71865 0.28977 0.62178
 H1485 H 0.71860 0.30319 0.55931
 H1486 H 0.74332 0.33515 0.62046
 H1487 H 0.74514 0.37024 0.57570
 H1488 H 0.70463 0.27295 0.60807
 C1489 C 0.23974 0.16185 0.55464
 C1490 C 0.25070 0.18909 0.56711
 C1491 C 0.24782 0.19521 0.60122
 C1492 C 0.26064 0.22165 0.61368
 H1493 H 0.26282 0.20678 0.55234
 H1494 H 0.23524 0.17794 0.61618
 H1495 H 0.22911 0.14375 0.57004
 H1496 H 0.27321 0.23867 0.59842
 C1497 C 0.75484 0.67727 0.04759
 C1498 C 0.76713 0.70605 0.05562
 C1499 C 0.76902 0.71807 0.08868
 C1500 C 0.76735 0.69895 0.11424
 H1501 H 0.77565 0.72232 0.03737
 H1502 H 0.77197 0.74360 0.09181
 H1503 H 0.74557 0.66127 0.06571
 H1504 H 0.76514 0.67338 0.11127
 C1505 C 0.15734 0.57645 0.24905
 C1506 C 0.14460 0.60298 0.23582
 C1507 C 0.16047 0.63489 0.23687
 C1508 C 0.17717 0.64501 0.26192
 H1509 H 0.12232 0.60148 0.22263
 H1510 H 0.15672 0.65097 0.21702
 H1511 H 0.17995 0.57829 0.26177
 H1512 H 0.17887 0.62964 0.28260
 C1513 C 0.66462 0.05562 0.74826
 C1514 C 0.65262 0.08457 0.74129
 C1515 C 0.67207 0.11364 0.74671
 C1516 C 0.66434 0.14181 0.73355
 H1517 H 0.62831 0.08693 0.73202
 H1518 H 0.69360 0.11176 0.76118
 H1519 H 0.68878 0.05401 0.75810
 H1520 H 0.64407 0.14330 0.71744
 C1521 C 0.84149 0.05185 0.25009
 C1522 C 0.84721 0.07880 0.26600
 C1523 C 0.82898 0.10809 0.25811
 C1524 C 0.83088 0.13446 0.27564
 H1525 H 0.86532 0.07976 0.28427
 H1526 H 0.81315 0.10781 0.23776
 H1527 H 0.82324 0.05237 0.23174
 H1528 H 0.84568 0.13440 0.29670
 C1529 C 0.35258 0.56669 0.75684
 C1530 C 0.32872 0.57544 0.73732
 C1531 C 0.31386 0.60755 0.73696
 C1532 C 0.31526 0.62810 0.76107
 H1533 H 0.32043 0.55868 0.71974
 H1534 H 0.30036 0.61391 0.71597
 H1535 H 0.36258 0.58363 0.77330
 H1536 H 0.32716 0.62151 0.78286
 C1537 C 0.33822 0.44737 0.75983
 C1538 C 0.34316 0.42267 0.74053
 C1539 C 0.32227 0.39415 0.74327
 C1540 C 0.32151 0.37112 0.72143
 H1541 H 0.36205 0.42375 0.72261
 H1542 H 0.30694 0.39209 0.76411
 H1543 H 0.31779 0.44689 0.77608
 H1544 H 0.33594 0.37346 0.70005
 C1545 C 0.83368 0.93489 0.25695
 C1546 C 0.84263 0.90667 0.24153
 C1547 C 0.82194 0.88003 0.24281
 C1548 C 0.82398 0.85424 0.22180
 H1549 H 0.86435 0.90611 0.22701
 H1550 H 0.80264 0.87995 0.26035
 H1551 H 0.80893 0.93653 0.26563
 H1552 H 0.83975 0.85614 0.20128
 C1553 C 0.66517 0.93645 0.73668
 C1554 C 0.65461 0.90841 0.74826
 C1555 C 0.67128 0.87857 0.73963
 C1556 C 0.66864 0.85189 0.75720
 H1557 H 0.63426 0.90749 0.76457
 H1558 H 0.68697 0.87880 0.71896
 H1559 H 0.68700 0.93709 0.72226
 H1560 H 0.65473 0.85216 0.77901
 C1561 C 0.17128 0.45693 0.24676
 C1562 C 0.16441 0.42958 0.26223
 C1563 C 0.18396 0.40060 0.25629
 C1564 C 0.18414 0.37514 0.27592
 H1565 H 0.14444 0.42852 0.27899
 H1566 H 0.19865 0.40018 0.23496
 H1567 H 0.19271 0.45816 0.23181
 H1568 H 0.17101 0.37600 0.29815
 C1569 C 0.05375 0.25145 0.83360
 C1570 C 0.08263 0.24603 0.84697
 C1571 C 0.11347 0.24373 0.82975
 C1572 C 0.11900 0.25733 0.80152
 H1573 H 0.08385 0.24228 0.87230
 H1574 H 0.13307 0.23202 0.84221
 H1575 H 0.05152 0.25434 0.80828
 H1576 H 0.10016 0.27070 0.78962
 C1577 C 0.56585 0.74138 0.33962
 C1578 C 0.57525 0.76198 0.31692
 C1579 C 0.60484 0.75773 0.29763
 C1580 C 0.62911 0.73820 0.30600
 H1581 H 0.56076 0.78307 0.31229
 H1582 H 0.60740 0.77291 0.27687
 H1583 H 0.57865 0.71913 0.34323
 H1584 H 0.62780 0.72420 0.32757
 C1585 C 0.56077 0.24713 0.16110
 C1586 C 0.59007 0.24350 0.14785
 C1587 C 0.62076 0.24444 0.16493
 C1588 C 0.62466 0.23550 0.19514
 H1589 H 0.59201 0.24205 0.12236
 H1590 H 0.64162 0.25174 0.15088
 H1591 H 0.55807 0.25032 0.18632
 H1592 H 0.60461 0.22578 0.20884
 C1593 C 0.06777 0.75260 0.66878
 C1594 C 0.07061 0.74111 0.69826
 C1595 C 0.10131 0.74279 0.71594
 C1596 C 0.12430 0.76483 0.70986
 H1597 H 0.05051 0.72827 0.70910
 H1598 H 0.10514 0.72474 0.73405
 H1599 H 0.08881 0.76251 0.65674
 H1600 H 0.12015 0.78372 0.69271
 C1601 C 0.94607 0.75909 0.66143
 C1602 C 0.91877 0.75041 0.64698
 C1603 C 0.88725 0.75502 0.66268
 C1604 C 0.86007 0.74230 0.65114
 H1605 H 0.91944 0.73841 0.62449
 H1606 H 0.88664 0.76747 0.68502
 H1607 H 0.94446 0.76985 0.68459
 H1608 H 0.86094 0.72909 0.62925
 C1609 C 0.43939 0.25414 0.14893
 C1610 C 0.41359 0.24421 0.13251
 C1611 C 0.38037 0.24507 0.14567
 C1612 C 0.37124 0.26720 0.16646
 H1613 H 0.41680 0.23264 0.10999
 H1614 H 0.36351 0.22664 0.13852
 H1615 H 0.43625 0.26241 0.17291
 H1616 H 0.38780 0.28631 0.17252
 C1617 C 0.44438 0.75191 0.34900
 C1618 C 0.43578 0.74036 0.32082
 C1619 C 0.40245 0.74127 0.30849
 C1620 C 0.37966 0.76159 0.31860
 H1621 H 0.45344 0.72835 0.30620
 H1622 H 0.39715 0.72520 0.28928
 H1623 H 0.42624 0.76136 0.36490
 H1624 H 0.38499 0.77874 0.33682
 C1625 C 0.93377 0.26128 0.84934
 C1626 C 0.92339 0.25305 0.81927
 C1627 C 0.89067 0.25443 0.81195
 C1628 C 0.87882 0.24137 0.78414
 H1629 H 0.94032 0.24384 0.80197
 H1630 H 0.87401 0.26510 0.82873
 H1631 H 0.91560 0.26679 0.86711
 H1632 H 0.89521 0.22863 0.76859
 C1633 C 0.58395 0.98379 0.69328
 C1634 C 0.56788 1.00427 0.67475
 C1635 C 0.55444 0.99434 0.64423
 C1636 C 0.53393 1.01339 0.62869
 H1637 H 0.56592 1.02919 0.68140
 H1638 H 0.56265 0.97219 0.63375
 H1639 H 0.58424 0.95855 0.68765
 H1640 H 0.52479 1.03470 0.64008
 C1641 C 0.08648 0.49411 1.19506
 C1642 C 0.06872 0.51291 1.17615
 C1643 C 0.05560 0.50176 1.14586
 C1644 C 0.03401 0.51970 1.13030
 H1645 H 0.06486 0.53770 1.18246
 H1646 H 0.06467 0.47983 1.13565
 H1647 H 0.08877 0.46884 1.19007
 H1648 H 0.02414 0.54077 1.14158
 C1649 C -0.08927 -0.02827 1.19689
 C1650 C -0.06433 -0.01254 1.18378
 C1651 C -0.05402 -0.01825 1.15103
 C1652 C -0.02399 -0.01082 1.14158
 H1653 H -0.05299 0.00687 1.19651
 H1654 H -0.07178 -0.02624 1.13405
 H1655 H -0.09990 -0.04868 1.18524
 H1656 H -0.00576 -0.00487 1.15889
 C1657 C 0.41415 0.48554 0.69369
 C1658 C 0.39988 0.49058 0.66587
 C1659 C 0.41400 0.48343 0.63483
 C1660 C 0.44574 0.47938 0.62885
 H1661 H 0.37614 0.50167 0.66541
 H1662 H 0.39727 0.48583 0.61534
 H1663 H 0.43636 0.47197 0.69554
 H1664 H 0.46302 0.47712 0.64785
 C1665 C 0.42886 0.48751 -0.19522
 C1666 C 0.44831 0.50749 -0.17966
 C1667 C 0.46065 0.49924 -0.14821
 C1668 C 0.47946 0.51971 -0.13255
 H1669 H 0.45217 0.53164 -0.18857
 H1670 H 0.45168 0.47772 -0.13653
 H1671 H 0.42615 0.46289 -0.18737
 H1672 H 0.48949 0.54057 -0.14455
 C1673 C -0.08126 0.97768 0.30968
 C1674 C -0.06375 0.99886 0.32628
 C1675 C -0.04968 0.99068 0.35741
 C1676 C -0.02988 1.01095 0.37262
 H1677 H -0.06151 1.02334 0.31786
 H1678 H -0.05726 0.96856 0.36889
 H1679 H -0.08194 0.95279 0.31705
 H1680 H -0.02108 1.03232 0.36061
 C1681 C 0.08844 0.49616 0.30810
 C1682 C 0.09888 0.50378 0.33694
 C1683 C 0.08307 0.49613 0.36745
 C1684 C 0.05190 0.48762 0.37236
 H1685 H 0.12143 0.51696 0.33890
 H1686 H 0.09816 0.50127 0.38762
 H1687 H 0.06770 0.48060 0.30511
 H1688 H 0.03617 0.48220 0.35277
 C1689 C 0.59024 -0.01957 -0.19373
 C1690 C 0.60261 -0.01482 -0.16498
 C1691 C 0.58561 -0.01872 -0.13445
 C1692 C 0.55348 -0.02211 -0.13004
 H1693 H 0.62721 -0.00584 -0.16327
 H1694 H 0.60088 -0.01495 -0.11409
 H1695 H 0.56684 -0.03084 -0.19671
 H1696 H 0.53747 -0.02652 -0.14967
 C1697 C 0.68523 0.61286 -0.01193
 C1698 C 0.67827 0.58992 0.00936
 C1699 C 0.64612 0.57360 0.01145
 C1700 C 0.62493 0.57105 -0.01260
 H1701 H 0.69609 0.58337 0.02687
 H1702 H 0.64029 0.56239 0.03395
 H1703 H 0.66673 0.61985 -0.02861
 H1704 H 0.63114 0.58044 -0.03576
 C1705 C 0.18827 1.09836 0.48204
 C1706 C 0.18154 1.07524 0.50325
 C1707 C 0.15053 1.05721 0.50506
 C1708 C 0.12777 1.05616 0.48242
 H1709 H 0.19861 1.06988 0.52174
 H1710 H 0.14652 1.04404 0.52690
 H1711 H 0.17089 1.10389 0.46379
 H1712 H 0.13166 1.06795 0.45987
 C1713 C 0.20370 -0.09293 0.99764
 C1714 C 0.18729 -0.08263 1.02282
 C1715 C 0.15942 -0.06115 1.01802
 C1716 C 0.13617 -0.05764 1.03990
 H1717 H 0.19227 -0.09245 1.04608
 H1718 H 0.15657 -0.05008 0.99494
 H1719 H 0.19656 -0.08479 0.97430
 H1720 H 0.13867 -0.06915 1.06281
 C1721 C 0.69303 0.42542 0.49590
 C1722 C 0.67270 0.42898 0.52037
 C1723 C 0.64360 0.44920 0.51642
 C1724 C 0.61851 0.44833 0.53676
 H1725 H 0.67522 0.41404 0.54129
 H1726 H 0.64134 0.46272 0.49455
 H1727 H 0.68859 0.43876 0.47427
 H1728 H 0.62058 0.43507 0.55877
 C1729 C -0.19626 0.40832 0.49912
 C1730 C -0.17200 0.41160 0.47791
 C1731 C -0.14225 0.42960 0.48564
 C1732 C -0.11759 0.43320 0.46493
 H1733 H -0.17362 0.40084 0.45486
 H1734 H -0.14030 0.43947 0.50913
 H1735 H -0.19431 0.42030 0.52160
 H1736 H -0.11966 0.42348 0.44140
 C1737 C 0.31293 -0.10315 0.00511
 C1738 C 0.33510 -0.09794 -0.01775
 C1739 C 0.36263 -0.07609 -0.01254
 C1740 C 0.38554 -0.07065 -0.03466
 H1741 H 0.33327 -0.10980 -0.04026
 H1742 H 0.36466 -0.06509 0.01044
 H1743 H 0.31460 -0.08990 0.02691
 H1744 H 0.38359 -0.08179 -0.05758
 C1745 C 0.29979 1.08967 0.49998
 C1746 C 0.33034 1.09648 0.50792
 C1747 C 0.35594 1.07196 0.50742
 C1748 C 0.38383 1.07625 0.52279
 H1749 H 0.33710 1.12105 0.51274
 H1750 H 0.35279 1.05120 0.49258
 H1751 H 0.29221 1.06509 0.49679
 H1752 H 0.38621 1.09592 0.53912
 C1753 C -0.20422 0.59011 0.99476
 C1754 C -0.17963 0.59114 1.01521
 C1755 C -0.15225 0.56844 1.01214
 C1756 C -0.12620 0.56954 1.03093
 H1757 H -0.17777 0.61092 1.03147
 H1758 H -0.15233 0.55207 0.99243
 H1759 H -0.20477 0.57121 0.97742
 H1760 H -0.12633 0.58518 1.05118
 C1761 C -0.00166 0.68375 0.59923
 C1762 C 0.00858 0.65485 0.60875
 C1763 C 0.00436 0.62474 0.59141
 C1764 C -0.00637 0.62201 0.56166
 H1765 H 0.02132 0.65255 0.63090
 H1766 H 0.01261 0.60357 0.60392
 H1767 H -0.01649 0.68637 0.57843
 H1768 H -0.01483 0.64265 0.54853
 C1769 C 0.49237 0.19001 0.08284
 C1770 C 0.49511 0.16079 0.09557
 C1771 C 0.49148 0.13083 0.07845
 C1772 C 0.48947 0.12843 0.04702
 H1773 H 0.50200 0.15826 0.12012
 H1774 H 0.49352 0.10932 0.09283
 H1775 H 0.48290 0.19382 0.05938
 H1776 H 0.48656 0.14917 0.03186
 C1777 C -0.01588 0.20106 0.91717
 C1778 C 0.00692 0.18315 0.93068
 C1779 C 0.00007 0.15213 0.94562
 C1780 C 0.02379 0.13762 0.96132
 H1781 H 0.03208 0.19077 0.92903
 H1782 H -0.02331 0.14065 0.94264
 H1783 H -0.04135 0.19527 0.92009
 H1784 H 0.04634 0.15027 0.96551
 C1785 C 0.49621 0.70303 0.42882
 C1786 C 0.49411 0.67243 0.42078
 C1787 C 0.48922 0.64648 0.44378
 C1788 C 0.48221 0.61753 0.43293
 H1789 H 0.49750 0.66608 0.39616
 H1790 H 0.49355 0.65040 0.46867
 H1791 H 0.49090 0.71068 0.45265
 H1792 H 0.47690 0.61472 0.40803
 C1793 C 0.50632 0.81399 0.41326
 C1794 C 0.47992 0.82158 0.43022
 C1795 C 0.47674 0.85282 0.44579
 C1796 C 0.49042 0.87936 0.43371
 H1797 H 0.46047 0.80461 0.43394
 H1798 H 0.46251 0.85388 0.46735
 H1799 H 0.52635 0.83076 0.41171
 H1800 H 0.50307 0.87856 0.41123
 C1801 C -0.00170 0.31285 0.91777
 C1802 C -0.02883 0.32266 0.93220
 C1803 C -0.02975 0.35311 0.94964
 C1804 C -0.01184 0.37839 0.94037
 H1805 H -0.05092 0.30876 0.93106
 H1806 H -0.04660 0.35515 0.96924
 H1807 H 0.02043 0.32653 0.92057
 H1808 H 0.00301 0.37695 0.91924
 C1809 C 0.50226 0.30115 0.07230
 C1810 C 0.50622 0.33152 0.08063
 C1811 C 0.50253 0.35820 0.05834
 C1812 C 0.49471 0.38680 0.06958
 H1813 H 0.51178 0.33704 0.10500
 H1814 H 0.50691 0.35474 0.03334
 H1815 H 0.49384 0.29518 0.04890
 H1816 H 0.48844 0.38913 0.09438
 C1817 C 0.00345 0.79334 0.57819
 C1818 C 0.02708 0.80741 0.56127
 C1819 C 0.02263 0.83770 0.54403
 C1820 C 0.00420 0.86125 0.55562
 H1821 H 0.05135 0.79757 0.56156
 H1822 H 0.03859 0.84227 0.52406
 H1823 H -0.02144 0.80119 0.57591
 H1824 H -0.00997 0.85732 0.57697
 C1825 C 0.24742 0.31956 0.04373
 C1826 C 0.27285 0.30675 0.05886
 C1827 C 0.27009 0.28970 0.08948
 C1828 C 0.24937 0.29942 0.11182
 H1829 H 0.29704 0.30991 0.04917
 H1830 H 0.28860 0.27232 0.09532
 H1831 H 0.22292 0.31412 0.05146
 H1832 H 0.23294 0.31896 0.10665
 C1833 C 0.74215 0.80743 0.52929
 C1834 C 0.76527 0.78945 0.54304
 C1835 C 0.76009 0.76964 0.57195
 C1836 C 0.73843 0.77785 0.59409
 H1837 H 0.78997 0.79104 0.53433
 H1838 H 0.77813 0.75168 0.57746
 H1839 H 0.71694 0.80401 0.53577
 H1840 H 0.72223 0.79769 0.58944
 C1841 C 0.22753 0.66124 0.57641
 C1842 C 0.22035 0.69163 0.58308
 C1843 C 0.21695 0.70045 0.61661
 C1844 C 0.21875 0.73066 0.62683
 H1845 H 0.22149 0.70997 0.56482
 H1846 H 0.21712 0.68112 0.63391
 H1847 H 0.22864 0.64381 0.59554
 H1848 H 0.21773 0.75054 0.61026
 C1849 C 0.73481 0.16350 0.05881
 C1850 C 0.73733 0.15079 0.08788
 C1851 C 0.73244 0.16721 0.11822
 C1852 C 0.72995 0.19892 0.12261
 H1853 H 0.74570 0.12630 0.09012
 H1854 H 0.73506 0.15174 0.13874
 H1855 H 0.72442 0.18694 0.05498
 H1856 H 0.72652 0.21522 0.10291
 C1857 C 0.74426 0.16791 0.94534
 C1858 C 0.76597 0.18193 0.92576
 C1859 C 0.75669 0.19450 0.89433
 C1860 C 0.77766 0.21128 0.87620
 H1861 H 0.79131 0.18291 0.93225
 H1862 H 0.73270 0.18907 0.88548
 H1863 H 0.71873 0.16861 0.93949
 H1864 H 0.80099 0.21812 0.88568
 C1865 C 0.24029 0.68826 0.46503
 C1866 C 0.26218 0.70513 0.44816
 C1867 C 0.25342 0.71947 0.41748
 C1868 C 0.27458 0.73676 0.40017
 H1869 H 0.28732 0.70585 0.45540
 H1870 H 0.22997 0.71348 0.40766
 H1871 H 0.21498 0.68901 0.45836
 H1872 H 0.29749 0.74414 0.41019
 C1873 C 0.73577 0.84675 0.42227
 C1874 C 0.72845 0.81662 0.41496
 C1875 C 0.73004 0.80698 0.38155
 C1876 C 0.72854 0.77637 0.37286
 H1877 H 0.72514 0.79875 0.43345
 H1878 H 0.73485 0.82530 0.36378
 H1879 H 0.74111 0.86367 0.40331
 H1880 H 0.72313 0.75795 0.39033
 C1881 C 0.24457 0.32589 0.93154
 C1882 C 0.22388 0.30118 0.92876
 C1883 C 0.22093 0.28423 0.89816
 C1884 C 0.22241 0.30072 0.87090
 H1885 H 0.21038 0.29227 0.94900
 H1886 H 0.21910 0.25838 0.89818
 H1887 H 0.25982 0.33212 0.91143
 H1888 H 0.22312 0.32664 0.87179
 C1889 C 0.84968 0.44522 0.73787
 C1890 C 0.84238 0.42110 0.75787
 C1891 C 0.82373 0.39262 0.74852
 C1892 C 0.81992 0.36841 0.76922
 H1893 H 0.85014 0.42201 0.78217
 H1894 H 0.81352 0.39134 0.72505
 H1895 H 0.84073 0.44462 0.71390
 H1896 H 0.83085 0.37019 0.79237
 C1897 C 0.34918 0.95798 0.24205
 C1898 C 0.34016 0.93613 0.26395
 C1899 C 0.32168 0.90673 0.25674
 C1900 C 0.31676 0.88481 0.27970
 H1901 H 0.34709 0.93945 0.28829
 H1902 H 0.31314 0.90264 0.23298
 H1903 H 0.34092 0.95564 0.21796
 H1904 H 0.32605 0.88949 0.30311
 C1905 C 0.16584 0.94079 0.75598
 C1906 C 0.17440 0.92762 0.72838
 C1907 C 0.18997 0.89556 0.72638
 C1908 C 0.20673 0.88230 0.75022
 H1909 H 0.16654 0.93869 0.70653
 H1910 H 0.18664 0.88230 0.70480
 H1911 H 0.17084 0.92818 0.77782
 H1912 H 0.21160 0.89610 0.77114
 C1913 C 0.65660 0.43379 0.25990
 C1914 C 0.66413 0.41609 0.23485
 C1915 C 0.68374 0.38707 0.23977
 C1916 C 0.68549 0.36348 0.21869
 H1917 H 0.65406 0.42158 0.21186
 H1918 H 0.69558 0.38419 0.26241
 H1919 H 0.66510 0.42633 0.28302
 H1920 H 0.67354 0.36600 0.19609
 C1921 C 0.66236 0.54238 0.24177
 C1922 C 0.67402 0.56313 0.26275
 C1923 C 0.69277 0.59161 0.25332
 C1924 C 0.69826 0.61448 0.27454
 H1925 H 0.66781 0.56032 0.28753
 H1926 H 0.69991 0.59492 0.22881
 H1927 H 0.66967 0.54402 0.21718
 H1928 H 0.69018 0.61095 0.29877
 C1929 C 0.16420 0.05512 0.74474
 C1930 C 0.17093 0.07881 0.76488
 C1931 C 0.18715 0.10873 0.75489
 C1932 C 0.18953 0.13308 0.77517
 H1933 H 0.16332 0.07685 0.78933
 H1934 H 0.19588 0.11130 0.73080
 H1935 H 0.17315 0.05648 0.72066
 H1936 H 0.18032 0.13007 0.79907
 C1937 C 0.34353 0.06816 0.25035
 C1938 C 0.33886 0.08779 0.22557
 C1939 C 0.31844 0.11663 0.22997
 C1940 C 0.31610 0.14053 0.20861
 H1941 H 0.35228 0.08441 0.20378
 H1942 H 0.30652 0.11931 0.25269
 H1943 H 0.33132 0.07348 0.27245
 H1944 H 0.32732 0.13813 0.18555
 C1945 C 0.83620 0.55441 0.74520
 C1946 C 0.83048 0.56972 0.71783
 C1947 C 0.80775 0.59702 0.71816
 C1948 C 0.80629 0.61975 0.69550
 H1949 H 0.84443 0.56430 0.69679
 H1950 H 0.79360 0.60014 0.73959
 H1951 H 0.82347 0.56209 0.76630
 H1952 H 0.81968 0.61704 0.67359
 C1953 C 0.94738 0.74623 0.15328
 C1954 C 0.91990 0.76043 0.14408
 C1955 C 0.88819 0.75585 0.15937
 C1956 C 0.88383 0.74340 0.18833
 H1957 H 0.91995 0.77593 0.12345
 H1958 H 0.86760 0.76485 0.14628
 H1959 H 0.94732 0.72831 0.17186
 H1960 H 0.90410 0.73498 0.20215
 C1961 C 0.43766 0.24814 0.64971
 C1962 C 0.41163 0.26527 0.64137
 C1963 C 0.38031 0.26424 0.65796
 C1964 C 0.37626 0.25418 0.68786
 H1965 H 0.41261 0.28061 0.62065
 H1966 H 0.35993 0.27392 0.64503
 H1967 H 0.43613 0.23038 0.66841
 H1968 H 0.39644 0.24510 0.70144
 C1969 C 0.44558 0.74440 0.83544
 C1970 C 0.43220 0.71570 0.83065
 C1971 C 0.39988 0.71320 0.81588
 C1972 C 0.39030 0.73382 0.79338
 H1973 H 0.44256 0.69458 0.84159
 H1974 H 0.38320 0.69535 0.82520
 H1975 H 0.43293 0.76572 0.82762
 H1976 H 0.40781 0.75006 0.78267
 C1977 C 0.94669 0.22849 0.34558
 C1978 C 0.92598 0.24987 0.33076
 C1979 C 0.89755 0.24012 0.31658
 C1980 C 0.88297 0.26058 0.29502
 H1981 H 0.93287 0.27492 0.32906
 H1982 H 0.88733 0.21669 0.32173
 H1983 H 0.94422 0.20308 0.34120
 H1984 H 0.89679 0.28088 0.28591
 C1985 C 0.05569 0.23351 0.34041
 C1986 C 0.08525 0.24628 0.34264
 C1987 C 0.11100 0.24176 0.31895
 C1988 C 0.13855 0.25802 0.32267
 H1989 H 0.09072 0.26135 0.36259
 H1990 H 0.10737 0.22639 0.29882
 H1991 H 0.05025 0.21688 0.32171
 H1992 H 0.14106 0.27326 0.34313
 C1993 C 0.55743 0.74645 0.82572
 C1994 C 0.56593 0.71807 0.81402
 C1995 C 0.59550 0.71509 0.79436
 C1996 C 0.62201 0.73258 0.80050
 H1997 H 0.55184 0.69678 0.81921
 H1998 H 0.59568 0.69780 0.77550
 H1999 H 0.57132 0.76751 0.81890
 H2000 H 0.62229 0.74793 0.82098
 C2001 C 0.54656 0.22949 0.67129
 C2002 C 0.56079 0.24870 0.69184
 C2003 C 0.59277 0.24131 0.70445
 C2004 C 0.60861 0.26399 0.71988
 H2005 H 0.55154 0.27282 0.69474
 H2006 H 0.60476 0.21919 0.69809
 H2007 H 0.55449 0.20499 0.66841
 H2008 H 0.59611 0.28560 0.72696
 C2009 C 0.05905 0.73334 0.16925
 C2010 C 0.07283 0.75293 0.18973
 C2011 C 0.10302 0.74480 0.20571
 C2012 C 0.11574 0.76611 0.22519
 H2013 H 0.06359 0.77712 0.19198
 H2014 H 0.11626 0.72343 0.19924
 H2015 H 0.06660 0.70862 0.16739
 H2016 H 0.10164 0.78685 0.23200
   
