data_POSCAR
  _audit_creation_date              2014-09-24
  _audit_creation_method            'ToBaCCo'
  _symmetry_space_group_name_H-M    'P1'
  _symmetry_Int_Tables_number       1
  _symmetry_cell_setting            triclinic
  loop_
  _symmetry_equiv_pos_as_xyz
 x,y,z
_cell_length_a 57.8912
_cell_length_b 56.0588
_cell_length_c 57.0618
_cell_angle_alpha 90.964000
_cell_angle_beta 89.191000
_cell_angle_gamma 89.090100
loop_
  _atom_site_label
  _atom_site_type_symbol
  _atom_site_fract_x
  _atom_site_fract_y
  _atom_site_fract_z
C1 C 0.10510 0.01059 0.21926
 C2 C 0.12405 0.02910 0.22045
 C3 C 0.14006 0.02516 0.23718
 C4 C 0.13603 0.00225 0.25115
 C5 C 0.11784 -0.01328 0.21606
 C6 C 0.13349 -0.01824 0.23294
 C7 C 0.09526 0.01019 0.24446
 C8 C 0.11145 0.00577 0.26105
 H9 H 0.12327 0.04552 0.21071
 H10 H 0.14916 -0.00118 0.26473
 H11 H 0.11324 -0.02602 0.20249
 H12 H 0.07751 0.01421 0.24931
 C13 C 0.40814 -0.00304 0.73727
 C14 C 0.39299 -0.02443 0.74257
 C15 C 0.37897 -0.02160 0.76180
 C16 C 0.38172 0.00287 0.77442
 C17 C 0.39120 0.01811 0.73589
 C18 C 0.37744 0.02164 0.75528
 C19 C 0.42074 0.00088 0.75879
 C20 C 0.40652 0.00451 0.77944
 H21 H 0.39309 -0.04040 0.73162
 H22 H 0.37006 0.00542 0.78980
 H23 H 0.39040 0.02932 0.72065
 H24 H 0.43895 -0.00323 0.76006
 C25 C 0.90589 0.49155 0.23686
 C26 C 0.88879 0.47172 0.24124
 C27 C 0.87542 0.47509 0.26074
 C28 C 0.88017 0.49826 0.27436
 C29 C 0.89121 0.51455 0.23682
 C30 C 0.87772 0.51808 0.25630
 C31 C 0.91967 0.49376 0.25957
 C32 C 0.90623 0.49759 0.27915
 H33 H 0.88771 0.45599 0.23003
 H34 H 0.86905 0.50106 0.29020
 H35 H 0.89207 0.52734 0.22283
 H36 H 0.93827 0.49474 0.26003
 C37 C 0.61924 0.50426 0.73008
 C38 C 0.63282 0.52737 0.73011
 C39 C 0.64791 0.52965 0.74797
 C40 C 0.64839 0.50827 0.76444
 C41 C 0.63756 0.48431 0.73067
 C42 C 0.65273 0.48628 0.74852
 C43 C 0.60784 0.50356 0.75466
 C44 C 0.62311 0.50578 0.77261
 H45 H 0.63033 0.54102 0.71711
 H46 H 0.66086 0.50984 0.77898
 H47 H 0.63696 0.46854 0.71946
 H48 H 0.58966 0.50078 0.75789
 C49 C 0.21911 0.11411 0.99312
 C50 C 0.22231 0.12961 1.01495
 C51 C 0.24177 0.14281 1.01477
 C52 C 0.25645 0.13965 0.99219
 C53 C 0.22037 0.13129 0.97256
 C54 C 0.23993 0.14448 0.97180
 C55 C 0.24157 0.09933 0.99050
 C56 C 0.26107 0.11258 0.99019
 H57 H 0.21031 0.12959 1.02970
 H58 H 0.27235 0.15048 0.99181
 H59 H 0.20827 0.13098 0.95827
 H60 H 0.24204 0.08010 0.98842
 C61 C 0.73145 0.39390 0.99447
 C62 C 0.73139 0.37635 0.97551
 C63 C 0.74985 0.35912 0.97576
 C64 C 0.76499 0.36247 0.99596
 C65 C 0.73188 0.38034 1.01586
 C66 C 0.75024 0.36311 1.01723
 C67 C 0.75448 0.40445 0.99300
 C68 C 0.77335 0.38710 0.99371
 H69 H 0.71847 0.37661 0.96194
 H70 H 0.77885 0.34887 0.99690
 H71 H 0.71873 0.38275 1.02942
 H72 H 0.75739 0.42282 0.98875
 C73 C 0.20992 0.90001 0.50914
 C74 C 0.21484 0.88420 0.48736
 C75 C 0.23412 0.87016 0.48867
 C76 C 0.24706 0.87314 0.51188
 C77 C 0.20974 0.88291 0.52988
 C78 C 0.22917 0.86902 0.53151
 C79 C 0.23241 0.91401 0.51196
 C80 C 0.25177 0.90006 0.51370
 H81 H 0.20457 0.88501 0.47166
 H82 H 0.26277 0.86163 0.51311
 H83 H 0.19611 0.88310 0.54308
 H84 H 0.23351 0.93317 0.51085
 C85 C 0.73393 0.61971 0.50042
 C86 C 0.73801 0.63577 0.52173
 C87 C 0.75926 0.64569 0.52250
 C88 C 0.77507 0.63833 0.50141
 C89 C 0.73965 0.63494 0.47933
 C90 C 0.76107 0.64449 0.47944
 C91 C 0.75383 0.60118 0.50123
 C92 C 0.77543 0.61074 0.50134
 H93 H 0.72556 0.63763 0.53603
 H94 H 0.79235 0.64661 0.50162
 H95 H 0.72797 0.63695 0.46479
 H96 H 0.75129 0.58224 0.50278
 C97 C -0.00646 0.23129 0.13394
 C98 C 0.01434 0.23322 0.14996
 C99 C 0.01567 0.25421 0.16200
 C100 C -0.00456 0.27152 0.15751
 C101 C -0.02748 0.23653 0.14970
 C102 C -0.02681 0.25754 0.16179
 C103 C -0.00492 0.25355 0.11830
 C104 C -0.00379 0.27458 0.13076
 H105 H 0.02828 0.22007 0.14966
 H106 H -0.00395 0.28845 0.16786
 H107 H -0.04274 0.22557 0.14941
 H108 H -0.00417 0.25310 0.09940
 C109 C 0.01559 0.71737 0.37615
 C110 C -0.00429 0.71988 0.36134
 C111 C -0.00674 0.74251 0.35051
 C112 C 0.01202 0.75873 0.35621
 C113 C 0.03646 0.72346 0.36078
 C114 C 0.03493 0.74513 0.35046
 C115 C 0.01392 0.73854 0.39360
 C116 C 0.01143 0.76036 0.38341
 H117 H -0.01637 0.70553 0.35872
 H118 H 0.01073 0.77613 0.34744
 H119 H 0.05223 0.71280 0.36021
 H120 H 0.01576 0.73640 0.41226
 C121 C 0.49567 0.21348 0.87439
 C122 C 0.47616 0.21409 0.85660
 C123 C 0.47562 0.23383 0.84318
 C124 C 0.49484 0.25145 0.84849
 C125 C 0.51777 0.21719 0.86004
 C126 C 0.51750 0.23698 0.84666
 C127 C 0.49248 0.23712 0.88857
 C128 C 0.49191 0.25693 0.87485
 H129 H 0.46261 0.20096 0.85622
 H130 H 0.49457 0.26749 0.83734
 H131 H 0.53285 0.20563 0.86139
 H132 H 0.49068 0.23845 0.90740
 C133 C 0.50228 0.71500 0.63380
 C134 C 0.52140 0.71892 0.65165
 C135 C 0.52075 0.74070 0.66237
 C136 C 0.50083 0.75684 0.65459
 C137 C 0.47963 0.72063 0.64714
 C138 C 0.47881 0.74235 0.65804
 C139 C 0.50449 0.73606 0.61681
 C140 C 0.50395 0.75794 0.62779
 H141 H 0.53567 0.70643 0.65377
 H142 H 0.50014 0.77453 0.66366
 H143 H 0.46499 0.70883 0.64701
 H144 H 0.50610 0.73410 0.59798
 C145 C 0.90361 0.99651 0.76354
 C146 C 0.89426 1.02055 0.76386
 C147 C 0.88022 1.02630 0.74433
 C148 C 0.87797 1.00636 0.72765
 C149 C 0.88297 0.98036 0.76080
 C150 C 0.86964 0.98494 0.74201
 C151 C 0.91660 0.99414 0.73992
 C152 C 0.90338 0.99986 0.72105
 H153 H 0.89761 1.03310 0.77802
 H154 H 0.86703 1.01028 0.71234
 H155 H 0.88038 0.96496 0.77175
 H156 H 0.93483 0.99014 0.73812
 C157 C 0.40457 0.49803 0.27128
 C158 C 0.38693 0.51876 0.27308
 C159 C 0.37295 0.52082 0.25411
 C160 C 0.37777 0.50161 0.23496
 C161 C 0.39024 0.47600 0.26645
 C162 C 0.37622 0.47755 0.24760
 C163 C 0.41750 0.50260 0.24817
 C164 C 0.40368 0.50453 0.22913
 H165 H 0.38678 0.53179 0.28730
 H166 H 0.36641 0.50316 0.21954
 H167 H 0.39054 0.46073 0.27784
 H168 H 0.43591 0.50538 0.24709
 C169 C 0.62187 0.99840 0.27682
 C170 C 0.63748 0.97692 0.27070
 C171 C 0.64968 0.97883 0.25037
 C172 C 0.64532 1.00239 0.23775
 C173 C 0.63677 1.01885 0.27616
 C174 C 0.64955 1.02147 0.25478
 C175 C 0.60649 1.00084 0.25499
 C176 C 0.61890 1.00305 0.23450
 H177 H 0.63791 0.96094 0.28112
 H178 H 0.65511 1.00346 0.22097
 H179 H 0.63822 1.03098 0.29104
 H180 H 0.58783 1.00083 0.25537
 C181 C 0.11173 0.50668 0.77155
 C182 C 0.12978 0.48629 0.77152
 C183 C 0.14283 0.48431 0.75151
 C184 C 0.13699 0.50337 0.73333
 C185 C 0.12525 0.52898 0.76633
 C186 C 0.13839 0.52760 0.74646
 C187 C 0.09790 0.50166 0.74938
 C188 C 0.11098 0.49961 0.72937
 H189 H 0.12999 0.47256 0.78464
 H190 H 0.14784 0.50202 0.71715
 H191 H 0.12471 0.54458 0.77782
 H192 H 0.07955 0.49829 0.74977
 C193 C 0.76149 0.90469 0.00590
 C194 C 0.76145 0.88674 0.02585
 C195 C 0.74278 0.87226 0.02641
 C196 C 0.72552 0.87702 0.00659
 C197 C 0.75874 0.88974 -0.01630
 C198 C 0.74018 0.87521 -0.01627
 C199 C 0.73835 0.91812 0.00925
 C200 C 0.71947 0.90383 0.00995
 H201 H 0.77441 0.88656 0.03935
 H202 H 0.71035 0.86515 0.00693
 H203 H 0.77030 0.89127 -0.03129
 H204 H 0.73713 0.93709 0.01286
 C205 C 0.27959 0.40062 0.49814
 C206 C 0.27828 0.38220 0.51775
 C207 C 0.25927 0.36821 0.51701
 C208 C 0.24301 0.37394 0.49670
 C209 C 0.27729 0.38620 0.47539
 C210 C 0.25825 0.37235 0.47439
 C211 C 0.25670 0.41459 0.50091
 C212 C 0.23757 0.40075 0.50018
 H213 H 0.29031 0.38163 0.53211
 H214 H 0.22742 0.36267 0.49621
 H215 H 0.28999 0.38684 0.46129
 H216 H 0.25562 0.43355 0.50464
 C217 C 0.26781 0.60684 0.00485
 C218 C 0.26649 0.62363 -0.01600
 C219 C 0.24905 0.64019 -0.01462
 C220 C 0.23438 0.63864 0.00818
 C221 C 0.26906 0.62316 0.02639
 C222 C 0.25172 0.63969 0.02855
 C223 C 0.24358 0.59613 0.00591
 C224 C 0.22582 0.61253 0.00781
 H225 H 0.27758 0.62150 -0.03135
 H226 H 0.22056 0.65246 0.00984
 H227 H 0.28281 0.62159 0.03898
 H228 H 0.24080 0.57740 0.00252
 C229 C 0.74685 0.10327 0.49076
 C230 C 0.74698 0.12009 0.47175
 C231 C 0.72841 0.13730 0.47223
 C232 C 0.71307 0.13456 0.49280
 C233 C 0.74631 0.11773 0.51205
 C234 C 0.72784 0.13502 0.51360
 C235 C 0.72400 0.09261 0.49001
 C236 C 0.70508 0.10973 0.49112
 H237 H 0.76105 0.12029 0.45906
 H238 H 0.69879 0.14780 0.49357
 H239 H 0.75941 0.11601 0.52532
 H240 H 0.72104 0.07400 0.49315
 C241 C 0.99453 0.76602 0.89766
 C242 C 1.01539 0.76857 0.88126
 C243 C 1.01764 0.75127 0.86435
 C244 C 0.99806 0.73304 0.86482
 C245 C 0.97374 0.76479 0.88150
 C246 C 0.97544 0.74782 0.86426
 C247 C 0.99687 0.74059 0.90709
 C248 C 0.99875 0.72332 0.88993
 H249 H 1.02803 0.78239 0.88378
 H250 H 0.99959 0.71906 0.85086
 H251 H 0.95866 0.77634 0.88381
 H252 H 0.99584 0.73625 0.92544
 C253 C 0.49248 0.25419 0.39429
 C254 C 0.51365 0.25420 0.37807
 C255 C 0.51403 0.23687 0.36112
 C256 C 0.49263 0.22095 0.36156
 C257 C 0.47187 0.25542 0.37792
 C258 C 0.47172 0.23820 0.36084
 C259 C 0.49182 0.22871 0.40377
 C260 C 0.49192 0.21128 0.38669
 H261 H 0.52752 0.26676 0.38031
 H262 H 0.49286 0.20685 0.34766
 H263 H 0.45826 0.26880 0.38006
 H264 H 0.48976 0.22460 0.42210
 C265 C 0.99442 0.26722 0.62081
 C266 C 0.97287 0.26092 0.63496
 C267 C 0.97416 0.23970 0.64597
 C268 C 0.99740 0.22639 0.64205
 C269 C 1.01431 0.26537 0.63790
 C270 C 1.01630 0.24411 0.64871
 C271 C 0.99793 0.24554 0.60392
 C272 C 0.99956 0.22412 0.61514
 H273 H 0.95712 0.27162 0.63474
 H274 H 0.99850 0.20921 0.65140
 H275 H 1.02732 0.27900 0.63937
 H276 H 0.99824 0.24675 0.58503
 C277 C 0.51403 0.76119 0.11287
 C278 C 0.49339 0.76006 0.12984
 C279 C 0.49416 0.74170 0.14506
 C280 C 0.51596 0.72576 0.14206
 C281 C 0.53522 0.76126 0.12841
 C282 C 0.53664 0.74278 0.14348
 C283 C 0.51460 0.73644 0.10085
 C284 C 0.51541 0.71784 0.11601
 H285 H 0.47866 0.77216 0.12891
 H286 H 0.51665 0.71084 0.15458
 H287 H 0.54843 0.77465 0.12697
 H288 H 0.51369 0.73363 0.08214
 O289 O -0.02943 0.99041 0.93403
 O290 O 0.00609 1.00733 0.92574
 O291 O -0.01610 0.93923 0.98629
 O292 O 0.00115 0.93966 1.02190
 O293 O -0.07330 0.98778 0.99529
 O294 O -0.07726 1.02875 1.00663
 O295 O 0.04476 1.01299 1.03735
 O296 O 0.04971 0.97549 1.02108
 O297 O 0.03349 1.06087 0.98392
 O298 O 0.00747 1.06189 0.94980
 O299 O -0.01081 1.06230 1.04132
 O300 O -0.04408 1.03728 1.05403
 O301 O 0.01353 1.02751 1.05800
 O302 O -0.02453 1.01155 1.06766
 O303 O -0.00159 1.07740 1.00580
 O304 O -0.02044 1.07477 0.96731
 O305 O 0.05465 1.03071 0.99941
 O306 O 0.05729 0.98940 0.98219
 O307 O -0.06103 1.00548 0.95374
 O308 O -0.06799 1.04297 0.97424
 O309 O -0.05221 0.95723 1.01028
 O310 O -0.02574 0.95735 1.04361
 O311 O -0.00651 0.95558 0.95133
 O312 O 0.02855 0.97892 0.94294
 Zr313 Zr -0.00291 0.99200 0.95823
 O314 O 0.01887 1.01710 0.97354
 Zr315 Zr -0.01792 0.96919 1.00942
 O316 O 0.00369 0.99325 1.02712
 Zr317 Zr -0.04885 1.01387 0.98751
 O318 O -0.02888 1.03977 1.00450
 Zr319 Zr 0.03097 1.00338 1.00503
 O320 O 0.01116 0.97683 0.98840
 Zr321 Zr -0.00029 1.04779 0.98315
 O322 O -0.02167 1.02386 0.96510
 Zr323 Zr -0.01443 1.02532 1.03482
 O324 O -0.03696 1.00023 1.01938
 O325 O -0.03121 0.98249 0.97869
 O326 O 0.01355 1.03511 1.01412
 C327 C -0.05081 0.99677 0.93524
 C328 C -0.01186 0.93781 0.96407
 C329 C -0.07145 0.96694 1.00420
 C330 C 0.03513 1.02195 1.05594
 C331 C 0.05258 1.05171 0.99096
 C332 C -0.00591 1.07972 1.02779
 H333 H 0.03175 1.02051 0.96259
 H334 H -0.03867 1.05400 1.00809
 H335 H -0.04138 0.97099 0.97073
 H336 H 0.00965 0.98572 1.04141
 H337 H 0.04636 0.96070 1.01212
 H338 H 0.01454 0.94610 1.03035
 H339 H -0.03387 1.07839 0.97775
 H340 H -0.05878 1.04931 0.96106
 H341 H 0.07242 0.99272 0.98940
 H342 H 0.02503 0.96918 0.92879
 H343 H -0.05175 1.04988 1.04488
 H344 H -0.07575 1.02319 1.02292
 H345 H -0.00202 1.02298 0.92519
 H346 H 0.02103 1.05300 0.94321
 H347 H -0.03807 0.96812 1.05006
 H348 H -0.01512 0.99698 1.07029
 O349 O 0.51895 0.54260 0.54734
 O350 O 0.48423 0.52423 0.55670
 O351 O 0.56784 0.48389 0.54181
 O352 O 0.57056 0.44908 0.52164
 O353 O 0.56604 0.53658 0.48819
 O354 O 0.54034 0.54333 0.45560
 O355 O 0.49839 0.42512 0.48554
 O356 O 0.51902 0.42197 0.52018
 O357 O 0.44910 0.47911 0.49552
 O358 O 0.45053 0.52133 0.51103
 O359 O 0.49180 0.48104 0.43592
 O360 O 0.53281 0.49171 0.42879
 O361 O 0.50900 0.44228 0.45124
 O362 O 0.54585 0.46057 0.43948
 O363 O 0.46265 0.49825 0.45753
 O364 O 0.46064 0.53555 0.48059
 O365 O 0.46666 0.44518 0.50789
 O366 O 0.49005 0.44302 0.54367
 O367 O 0.53137 0.55795 0.51280
 O368 O 0.51465 0.56105 0.47553
 O369 O 0.58227 0.50196 0.50075
 O370 O 0.57967 0.46162 0.48669
 O371 O 0.53881 0.50258 0.56258
 O372 O 0.49916 0.48871 0.56841
 Zr373 Zr 0.51198 0.50667 0.53856
 O374 O 0.48683 0.48618 0.52151
 Zr375 Zr 0.55445 0.47981 0.50780
 O376 O 0.53108 0.45861 0.48917
 Zr377 Zr 0.53021 0.52963 0.48842
 O378 O 0.50530 0.51075 0.46935
 Zr379 Zr 0.50155 0.45349 0.50992
 O380 O 0.52598 0.47263 0.52961
 Zr381 Zr 0.47657 0.50322 0.49091
 O382 O 0.50020 0.52498 0.50905
 Zr383 Zr 0.51901 0.47706 0.45984
 O384 O 0.54488 0.49699 0.47676
 O385 O 0.54148 0.51305 0.51850
 O386 O 0.48968 0.47013 0.47985
 C387 C 0.52596 0.55996 0.53466
 C388 C 0.55904 0.49293 0.56089
 C389 C 0.58360 0.52322 0.49298
 C390 C 0.50163 0.42464 0.46317
 C391 C 0.44871 0.45723 0.50210
 C392 C 0.47115 0.48965 0.43825
 H393 H 0.47365 0.48362 0.53234
 H394 H 0.50091 0.52013 0.45555
 H395 H 0.55296 0.52264 0.52705
 H396 H 0.53849 0.44316 0.48471
 H397 H 0.52825 0.42631 0.53405
 H398 H 0.56212 0.43506 0.51574
 H399 H 0.46921 0.54128 0.46672
 H400 H 0.49953 0.56288 0.48373
 H401 H 0.48282 0.42716 0.54204
 H402 H 0.50334 0.49782 0.58276
 H403 H 0.52463 0.50704 0.42617
 H404 H 0.55067 0.53115 0.44804
 H405 H 0.47669 0.53495 0.54541
 H406 H 0.44745 0.51191 0.52520
 H407 H 0.57917 0.46888 0.47101
 H408 H 0.55179 0.44674 0.44823
 O409 O 0.44035 -0.06872 0.48998
 O410 O 0.45661 -0.07042 0.45319
 O411 O 0.49622 -0.07804 0.53684
 O412 O 0.53171 -0.05952 0.54268
 O413 O 0.44662 -0.02227 0.54934
 O414 O 0.44050 0.01601 0.53443
 O415 O 0.55428 -0.00932 0.47843
 O416 O 0.55795 -0.04918 0.48412
 O417 O 0.49950 -0.00245 0.43118
 O418 O 0.45973 -0.01179 0.43121
 O419 O 0.50524 0.04481 0.48908
 O420 O 0.49589 0.04386 0.52974
 O421 O 0.54159 0.02242 0.50051
 O422 O 0.52240 0.02345 0.54127
 O423 O 0.48660 0.03375 0.45601
 O424 O 0.44682 0.01405 0.45292
 O425 O 0.53213 -0.02231 0.44168
 O426 O 0.53611 -0.06496 0.46062
 O427 O 0.42562 -0.03660 0.51038
 O428 O 0.42508 0.00653 0.50283
 O429 O 0.47986 -0.03978 0.56190
 O430 O 0.52066 -0.02886 0.56043
 O431 O 0.47801 -0.09069 0.50399
 O432 O 0.49159 -0.08650 0.46256
 Zr433 Zr 0.47467 -0.05971 0.48353
 O434 O 0.49370 -0.03701 0.46177
 Zr435 Zr 0.50150 -0.04155 0.53164
 O436 O 0.52309 -0.01951 0.51174
 Zr437 Zr 0.45389 -0.01337 0.51459
 O438 O 0.47345 0.01123 0.49543
 Zr439 Zr 0.52610 -0.03209 0.47685
 O440 O 0.50772 -0.05634 0.49786
 Zr441 Zr 0.47869 -0.00254 0.46138
 O442 O 0.45760 -0.02639 0.48007
 Zr443 Zr 0.50695 0.01403 0.50907
 O444 O 0.48600 -0.00745 0.53063
 O445 O 0.46910 -0.04691 0.51757
 O446 O 0.51174 0.00206 0.47453
 C447 C 0.42364 -0.05720 0.50024
 C448 C 0.48713 -0.09439 0.52409
 C449 C 0.45906 -0.03179 0.56520
 C450 C 0.55727 0.01108 0.48836
 C451 C 0.51973 -0.01109 0.42675
 C452 C 0.49711 0.04918 0.46880
 H453 H 0.49493 -0.04433 0.44591
 H454 H 0.46529 0.02685 0.49545
 H455 H 0.45958 -0.05773 0.52710
 H456 H 0.53836 -0.01853 0.51922
 H457 H 0.55932 -0.04926 0.50137
 H458 H 0.53767 -0.06884 0.52893
 H459 H 0.44503 0.02881 0.46258
 H460 H 0.42129 0.00005 0.48713
 H461 H 0.52938 -0.06541 0.44478
 H462 H 0.48304 -0.10162 0.46403
 H463 H 0.47945 0.04696 0.52622
 H464 H 0.45329 0.02167 0.54432
 H465 H 0.44692 -0.05662 0.44861
 H466 H 0.46475 -0.02808 0.42626
 H467 H 0.51334 -0.01356 0.56563
 H468 H 0.53707 0.01428 0.54241
 O469 O -0.00534 0.44269 1.04573
 O470 O 0.03100 0.45640 1.05462
 O471 O -0.04815 0.50645 1.04780
 O472 O -0.04857 0.54187 1.03050
 O473 O -0.05389 0.45633 0.99090
 O474 O -0.03074 0.44899 0.95593
 O475 O 0.02557 0.55991 0.99318
 O476 O 0.00776 0.56299 1.02959
 O477 O 0.06917 0.49886 0.99583
 O478 O 0.06251 0.45617 1.00592
 O479 O 0.02519 0.50853 0.93877
 O480 O -0.01450 0.50292 0.93104
 O481 O 0.01023 0.54776 0.95858
 O482 O -0.02904 0.53112 0.94825
 O483 O 0.05262 0.48610 0.95651
 O484 O 0.05062 0.44684 0.97443
 O485 O 0.05661 0.53486 1.01033
 O486 O 0.03484 0.53699 1.04845
 O487 O -0.02026 0.43004 1.01104
 O488 O -0.00515 0.42806 0.97162
 O489 O -0.06564 0.49170 1.00739
 O490 O -0.05839 0.53302 0.99524
 O491 O -0.02094 0.48314 1.06494
 O492 O 0.02018 0.49271 1.06970
 Zr493 Zr 0.00492 0.47775 1.03929
 O494 O 0.03187 0.49570 1.02241
 Zr495 Zr -0.03532 0.51063 1.01357
 O496 O -0.01005 0.53029 0.99590
 Zr497 Zr -0.01744 0.45959 0.98874
 O498 O 0.00863 0.47707 0.96964
 Zr499 Zr 0.02079 0.53050 1.01481
 O500 O -0.00552 0.51344 1.03411
 Zr501 Zr 0.03875 0.47954 0.98972
 O502 O 0.01355 0.45971 1.00768
 Zr503 Zr -0.00129 0.51275 0.96415
 O504 O -0.02867 0.49434 0.98062
 O505 O -0.02570 0.47571 1.02076
 O506 O 0.02943 0.51466 0.98253
 C507 C -0.01423 0.42665 1.03240
 C508 C -0.04005 0.49505 1.06529
 C509 C -0.06976 0.47105 0.99845
 C510 C 0.01996 0.56339 0.97178
 C511 C 0.07269 0.52022 1.00346
 C512 C 0.04493 0.49774 0.93906
 H513 H 0.04560 0.49577 1.03253
 H514 H 0.01162 0.46843 0.95463
 H515 H -0.03779 0.46693 1.02932
 H516 H -0.01606 0.54667 0.99355
 H517 H -0.00169 0.55876 1.04346
 H518 H -0.03727 0.55459 1.02773
 H519 H 0.04114 0.44352 0.96050
 H520 H 0.00970 0.42387 0.97903
 H521 H 0.04419 0.55163 1.04762
 H522 H 0.01522 0.48356 1.08358
 H523 H -0.01217 0.48550 0.92906
 H524 H -0.03930 0.46297 0.94989
 H525 H 0.03705 0.44537 1.04220
 H526 H 0.06716 0.46372 1.02089
 H527 H -0.06157 0.52492 0.98010
 H528 H -0.03210 0.54599 0.95744
 O529 O 0.01704 0.42789 0.50926
 O530 O -0.00438 0.42948 0.47554
 O531 O 0.06951 0.47908 0.50054
 O532 O 0.07135 0.51767 0.49056
 O533 O 0.03143 0.47989 0.56468
 O534 O -0.00591 0.49195 0.57669
 O535 O -0.00120 0.54985 0.46122
 O536 O 0.03118 0.53049 0.44735
 O537 O -0.05281 0.49719 0.46756
 O538 O -0.05575 0.45983 0.48759
 O539 O -0.04170 0.54684 0.52225
 O540 O -0.01395 0.54959 0.55406
 O541 O -0.00950 0.56478 0.49776
 O542 O 0.01251 0.56273 0.53556
 O543 O -0.06187 0.51587 0.50730
 O544 O -0.06121 0.47240 0.52063
 O545 O -0.02508 0.51580 0.44646
 O546 O 0.01175 0.49553 0.43426
 O547 O 0.00777 0.44175 0.54599
 O548 O -0.02485 0.46458 0.56239
 O549 O 0.05934 0.49729 0.54276
 O550 O 0.06007 0.53531 0.52288
 O551 O 0.04997 0.44764 0.48544
 O552 O 0.02157 0.44963 0.45297
 Zr553 Zr 0.01495 0.45836 0.48881
 O554 O -0.01034 0.48087 0.47444
 Zr555 Zr 0.04373 0.50404 0.51064
 O556 O 0.02038 0.52860 0.49629
 Zr557 Zr 0.00253 0.47906 0.54258
 O558 O -0.02267 0.50329 0.53027
 Zr559 Zr 0.00481 0.51355 0.46669
 O560 O 0.03083 0.49023 0.47902
 Zr561 Zr -0.03650 0.48944 0.49921
 O562 O -0.01283 0.46420 0.51270
 Zr563 Zr -0.00705 0.53520 0.52009
 O564 O 0.01757 0.51224 0.53561
 O565 O 0.02962 0.47153 0.51940
 O566 O -0.02232 0.52190 0.48992
 C567 C 0.01301 0.42480 0.53115
 C568 C 0.06872 0.45811 0.49117
 C569 C 0.05179 0.48843 0.56190
 C570 C -0.00630 0.56711 0.47554
 C571 C -0.04554 0.50763 0.44909
 C572 C -0.06063 0.53713 0.51597
 H573 H -0.01650 0.47310 0.46020
 H574 H -0.03476 0.50619 0.54243
 H575 H 0.04103 0.46042 0.52627
 H576 H 0.02871 0.54329 0.49230
 H577 H 0.04456 0.51926 0.44667
 H578 H 0.06454 0.52887 0.47929
 H579 H -0.06420 0.48259 0.53470
 H580 H -0.03372 0.45450 0.55144
 H581 H 0.00758 0.50645 0.42143
 H582 H 0.02997 0.43407 0.45196
 H583 H -0.02511 0.53910 0.56192
 H584 H -0.00089 0.50875 0.57732
 H585 H -0.01852 0.42859 0.48542
 H586 H -0.04821 0.45351 0.47306
 H587 H 0.05223 0.54016 0.53777
 H588 H 0.02379 0.56815 0.52368
 O589 O 0.44193 1.05502 0.02764
 O590 O 0.46230 1.05578 0.06281
 O591 O 0.49292 1.05190 -0.02618
 O592 O 0.52594 1.02665 -0.03441
 O593 O 0.43745 1.00156 -0.02812
 O594 O 0.42844 0.96708 -0.00721
 O595 O 0.54932 0.97793 0.02866
 O596 O 0.55646 1.01669 0.01894
 O597 O 0.50039 0.98452 0.08422
 O598 O 0.46178 1.00296 0.08847
 O599 O 0.49431 0.93286 0.03285
 O600 O 0.47735 0.93286 -0.00773
 O601 O 0.52999 0.94770 0.01113
 O602 O 0.50632 0.94405 -0.02354
 O603 O 0.47953 0.95066 0.06590
 O604 O 0.44436 0.97631 0.07330
 O605 O 0.53353 0.99797 0.06767
 O606 O 0.54031 1.03736 0.04422
 O607 O 0.42243 1.02424 0.01098
 O608 O 0.41701 0.98351 0.02405
 O609 O 0.47017 1.01480 -0.04572
 O610 O 0.50865 0.99804 -0.04922
 O611 O 0.48006 1.06940 0.00788
 O612 O 0.49705 1.06682 0.04679
 Zr613 Zr 0.47559 1.04100 0.03087
 O614 O 0.49492 1.01759 0.05170
 Zr615 Zr 0.49485 1.01515 -0.01870
 O616 O 0.51536 0.99085 0.00001
 Zr617 Zr 0.44686 0.99614 0.00680
 O618 O 0.46511 0.97063 0.02630
 Zr619 Zr 0.52437 1.00558 0.03274
 O620 O 0.50628 1.03111 0.01264
 Zr621 Zr 0.47595 0.98668 0.05764
 O622 O 0.45545 1.01136 0.03932
 Zr623 Zr 0.49590 0.96074 0.00851
 O624 O 0.47610 0.98393 -0.01254
 O625 O 0.46511 1.02660 -0.00109
 O626 O 0.50626 0.97490 0.04064
 C627 C 0.42354 1.04566 0.01940
 C628 C 0.48711 1.07033 -0.01351
 C629 C 0.44887 1.00847 -0.04618
 C630 C 0.54845 0.95690 0.01934
 C631 C 0.52184 0.98976 0.08504
 C632 C 0.48758 0.93245 0.05441
 H633 H 0.49897 1.02587 0.06647
 H634 H 0.45525 0.95674 0.02920
 H635 H 0.45601 1.03791 -0.01056
 H636 H 0.52918 0.98661 -0.00964
 H637 H 0.55594 1.01412 0.00177
 H638 H 0.53347 1.03706 -0.02270
 H639 H 0.43816 0.96300 0.06383
 H640 H 0.41637 0.99138 0.03971
 H641 H 0.53480 1.04092 0.06042
 H642 H 0.48929 1.08271 0.04610
 H643 H 0.46438 0.92864 0.00280
 H644 H 0.43961 0.95779 -0.01715
 H645 H 0.45066 1.04459 0.06883
 H646 H 0.47128 1.01694 0.09241
 H647 H 0.50005 0.98305 -0.05130
 H648 H 0.51907 0.95345 -0.03022
 O649 O 0.43051 0.50888 -0.00190
 O650 O 0.42941 0.46872 -0.01497
 O651 O 0.47640 0.50775 0.05602
 O652 O 0.51310 0.49715 0.06287
 O653 O 0.48529 0.55917 0.00013
 O654 O 0.50198 0.55586 -0.03888
 O655 O 0.54368 0.44079 0.00306
 O656 O 0.52227 0.44174 0.03810
 O657 O 0.49640 0.43470 -0.05116
 O658 O 0.46117 0.45719 -0.06209
 O659 O 0.54738 0.48791 -0.05467
 O660 O 0.55144 0.52779 -0.03392
 O661 O 0.56178 0.47153 -0.01470
 O662 O 0.56481 0.51306 -0.00527
 O663 O 0.51681 0.46947 -0.07116
 O664 O 0.47706 0.48430 -0.07761
 O665 O 0.51061 0.42205 -0.01654
 O666 O 0.48819 0.42561 0.02059
 O667 O 0.44932 0.53886 -0.02012
 O668 O 0.47313 0.54080 -0.05438
 O669 O 0.49733 0.54547 0.03523
 O670 O 0.53255 0.52332 0.04402
 O671 O 0.44560 0.49139 0.03785
 O672 O 0.44338 0.45241 0.01866
 Zr673 Zr 0.45732 0.48356 0.00364
 O674 O 0.47881 0.45809 -0.01384
 Zr675 Zr 0.50235 0.50860 0.02956
 O676 O 0.52565 0.48441 0.01277
 Zr677 Zr 0.48425 0.52841 -0.02156
 O678 O 0.50646 0.50487 -0.04063
 Zr679 Zr 0.50898 0.45231 0.00542
 O680 O 0.48625 0.47558 0.02449
 Zr681 Zr 0.49047 0.47175 -0.04568
 O682 O 0.46712 0.49650 -0.02935
 Zr683 Zr 0.53553 0.49710 -0.02037
 O684 O 0.51443 0.52285 -0.00223
 O685 O 0.47288 0.51607 0.01065
 O686 O 0.52033 0.46431 -0.02710
 C687 C 0.43093 0.52939 -0.01179
 C688 C 0.45555 0.49999 0.05601
 C689 C 0.49106 0.56234 0.02163
 C690 C 0.56177 0.45079 -0.00540
 C691 C 0.50461 0.41841 -0.03782
 C692 C 0.53756 0.47713 -0.07187
 H693 H 0.47029 0.44309 -0.01604
 H694 H 0.51073 0.51230 -0.05563
 H695 H 0.46242 0.52741 0.01924
 H696 H 0.53913 0.48170 0.02288
 H697 H 0.51060 0.44667 0.05016
 H698 H 0.52371 0.48335 0.06025
 H699 H 0.48579 0.49862 -0.08197
 H700 H 0.46322 0.52823 -0.06104
 H701 H 0.49778 0.41089 0.02191
 H702 H 0.42755 0.45615 0.02471
 H703 H 0.54404 0.53149 -0.04898
 H704 H 0.51644 0.55844 -0.03019
 H705 H 0.43002 0.47512 -0.03102
 H706 H 0.45426 0.44563 -0.05124
 H707 H 0.53904 0.53414 0.03216
 H708 H 0.56523 0.50839 0.01135
 O709 O -0.03653 0.01709 0.54458
 O710 O 0.00039 0.00197 0.54796
 O711 O -0.02906 0.07097 0.49161
 O712 O -0.01782 0.07255 0.45424
 O713 O -0.08533 0.02100 0.48876
 O714 O -0.08787 -0.01936 0.47592
 O715 O 0.02989 0.00053 0.43113
 O716 O 0.03427 0.03778 0.44820
 O717 O 0.02611 -0.04913 0.48418
 O718 O 0.00315 -0.05307 0.52025
 O719 O -0.02150 -0.04823 0.43091
 O720 O -0.05811 -0.02595 0.42430
 O721 O -0.00296 -0.01292 0.41436
 O722 O -0.04322 0.00332 0.41106
 O723 O -0.00870 -0.06550 0.46415
 O724 O -0.02592 -0.06529 0.50541
 O725 O 0.04483 -0.01739 0.46899
 O726 O 0.04575 0.02362 0.48590
 O727 O -0.06830 0.00132 0.52752
 O728 O -0.07476 -0.03496 0.50613
 O729 O -0.06717 0.05295 0.47337
 O730 O -0.04415 0.05401 0.43590
 O731 O -0.01588 0.05486 0.52526
 O732 O 0.02027 0.03053 0.52925
 Zr733 Zr -0.01192 0.01799 0.51709
 O734 O 0.00970 -0.00612 0.49792
 Zr735 Zr -0.03254 0.04171 0.46865
 O736 O -0.01103 0.01938 0.44754
 Zr737 Zr -0.05872 -0.00455 0.49225
 O738 O -0.03903 -0.02912 0.47167
 Zr739 Zr 0.01872 0.00901 0.46570
 O740 O -0.00128 0.03425 0.48575
 Zr741 Zr -0.00821 -0.03720 0.48896
 O742 O -0.02899 -0.01443 0.51068
 Zr743 Zr -0.02831 -0.01258 0.44077
 O744 O -0.05083 0.01082 0.45984
 O745 O -0.04235 0.02721 0.50041
 O746 O 0.00206 -0.02257 0.45733
 C747 C -0.05736 0.00933 0.54537
 C748 C -0.02240 0.07273 0.51293
 C749 C -0.08523 0.04244 0.48117
 C750 C 0.01856 -0.00783 0.41361
 C751 C 0.04434 -0.03884 0.47661
 C752 C -0.01363 -0.06611 0.44226
 H753 H 0.02356 -0.00964 0.50727
 H754 H -0.04809 -0.04356 0.46842
 H755 H -0.05211 0.03822 0.51020
 H756 H -0.00686 0.02771 0.43298
 H757 H 0.03082 0.05227 0.45785
 H758 H -0.00339 0.06733 0.44611
 H759 H -0.03838 -0.07053 0.49491
 H760 H -0.06370 -0.04205 0.51721
 H761 H 0.06044 0.02132 0.47693
 H762 H 0.01758 0.04029 0.54374
 H763 H -0.06397 -0.03925 0.43374
 H764 H -0.08771 -0.01363 0.45960
 H765 H -0.00563 -0.01445 0.54805
 H766 H 0.01590 -0.04337 0.52641
 H767 H -0.05764 0.04431 0.43161
 H768 H -0.03359 0.01701 0.40666
 O769 O 0.72983 0.19278 0.25756
 O770 O 0.76651 0.19324 0.23961
 O771 O 0.73396 0.24183 0.31557
 O772 O 0.74431 0.28021 0.32069
 O773 O 0.67654 0.24610 0.26869
 O774 O 0.67214 0.26259 0.23002
 O775 O 0.78539 0.31296 0.25406
 O776 O 0.79225 0.29201 0.28775
 O777 O 0.78626 0.26282 0.19866
 O778 O 0.76541 0.22392 0.19181
 O779 O 0.73194 0.31228 0.20431
 O780 O 0.69622 0.31560 0.22988
 O781 O 0.75188 0.32881 0.24013
 O782 O 0.71278 0.32995 0.25725
 O783 O 0.74864 0.28106 0.18429
 O784 O 0.73692 0.24016 0.17942
 O785 O 0.80333 0.27868 0.23083
 O786 O 0.80739 0.25687 0.26796
 O787 O 0.69580 0.20978 0.24613
 O788 O 0.68698 0.23262 0.21183
 O789 O 0.69464 0.26053 0.30091
 O790 O 0.71399 0.29879 0.30633
 O791 O 0.74991 0.21067 0.29470
 O792 O 0.78547 0.21007 0.27020
 Zr793 Zr 0.75219 0.22199 0.25988
 O794 O 0.77176 0.24468 0.23872
 Zr795 Zr 0.72840 0.26782 0.28973
 O796 O 0.74690 0.29239 0.26961
 Zr797 Zr 0.70265 0.24620 0.24241
 O798 O 0.72016 0.26966 0.22010
 Zr799 Zr 0.77788 0.27660 0.25723
 O800 O 0.76062 0.25276 0.27958
 Zr801 Zr 0.75237 0.25478 0.20972
 O802 O 0.73347 0.23000 0.22957
 Zr803 Zr 0.72854 0.30057 0.23914
 O804 O 0.70854 0.27826 0.26084
 O805 O 0.72089 0.23652 0.27189
 O806 O 0.76009 0.28642 0.22726
 C807 C 0.70832 0.19187 0.25227
 C808 C 0.74263 0.22055 0.31397
 C809 C 0.67688 0.25217 0.29054
 C810 C 0.77298 0.33039 0.24657
 C811 C 0.80361 0.27196 0.20922
 C812 C 0.74033 0.30240 0.18545
 H813 H 0.78642 0.23649 0.23408
 H814 H 0.71040 0.27329 0.20651
 H815 H 0.71228 0.22543 0.28195
 H816 H 0.74992 0.30680 0.27923
 H817 H 0.79010 0.28037 0.30043
 H818 H 0.75538 0.29260 0.31611
 H819 H 0.72093 0.24655 0.17884
 H820 H 0.69865 0.22207 0.20390
 H821 H 0.82098 0.26737 0.26690
 H822 H 0.78408 0.19413 0.27736
 H823 H 0.69082 0.30693 0.21580
 H824 H 0.67016 0.27783 0.23890
 H825 H 0.75827 0.19295 0.22453
 H826 H 0.78018 0.21927 0.19911
 H827 H 0.70112 0.30432 0.29643
 H828 H 0.72122 0.33247 0.27201
 O829 O 0.75043 0.71658 0.69913
 O830 O 0.78329 0.70549 0.71899
 O831 O 0.69745 0.72034 0.75368
 O832 O 0.69089 0.74027 0.78728
 O833 O 0.70454 0.77691 0.70381
 O834 O 0.73039 0.81033 0.70171
 O835 O 0.76246 0.77185 0.81939
 O836 O 0.74132 0.73705 0.81844
 O837 O 0.81594 0.76434 0.77023
 O838 O 0.81808 0.75178 0.72858
 O839 O 0.77377 0.82680 0.76754
 O840 O 0.73523 0.83576 0.75652
 O841 O 0.75214 0.80822 0.80521
 O842 O 0.71758 0.82178 0.78283
 O843 O 0.80378 0.80475 0.75221
 O844 O 0.80847 0.78274 0.71475
 O845 O 0.79544 0.75022 0.80109
 O846 O 0.77136 0.71405 0.79881
 O847 O 0.73973 0.75294 0.68519
 O848 O 0.75830 0.79101 0.68637
 O849 O 0.68500 0.76223 0.73505
 O850 O 0.68470 0.77630 0.77609
 O851 O 0.72748 0.69924 0.73691
 O852 O 0.76627 0.69199 0.75214
 Zr853 Zr 0.75479 0.72349 0.73538
 O854 O 0.77844 0.73913 0.75852
 Zr855 Zr 0.71065 0.75461 0.75959
 O856 O 0.73256 0.77134 0.78370
 Zr857 Zr 0.73934 0.77623 0.71439
 O858 O 0.76251 0.79399 0.73649
 Zr859 Zr 0.76130 0.74928 0.78982
 O860 O 0.73806 0.73125 0.76783
 Zr861 Zr 0.79033 0.77112 0.74482
 O862 O 0.76848 0.75431 0.72033
 Zr863 Zr 0.74640 0.80224 0.76897
 O864 O 0.72220 0.78692 0.74565
 O865 O 0.72629 0.74494 0.72780
 O866 O 0.77491 0.78082 0.77687
 C867 C 0.74459 0.73061 0.68247
 C868 C 0.70674 0.70104 0.74516
 C869 C 0.68580 0.77073 0.71431
 C870 C 0.75817 0.79430 0.82187
 C871 C 0.81439 0.75648 0.79127
 C872 C 0.79477 0.82440 0.76005
 H873 H 0.79124 0.72774 0.76151
 H874 H 0.76766 0.80844 0.72836
 H875 H 0.71560 0.73669 0.71710
 H876 H 0.72390 0.77489 0.79843
 H877 H 0.73200 0.72370 0.81235
 H878 H 0.69925 0.74349 0.80195
 H879 H 0.80070 0.79746 0.70937
 H880 H 0.77255 0.78114 0.68439
 H881 H 0.77759 0.71457 0.81491
 H882 H 0.76244 0.67793 0.74221
 H883 H 0.74149 0.83723 0.74040
 H884 H 0.71893 0.81741 0.71295
 H885 H 0.79212 0.71761 0.71038
 H886 H 0.81921 0.73603 0.73606
 H887 H 0.68472 0.79183 0.76809
 H888 H 0.71055 0.81228 0.79544
 O889 O 0.24673 0.19285 0.78289
 O890 O 0.21505 0.18587 0.75895
 O891 O 0.30204 0.20470 0.73410
 O892 O 0.30802 0.23228 0.70242
 O893 O 0.29147 0.25184 0.79277
 O894 O 0.26543 0.28433 0.80121
 O895 O 0.23827 0.26971 0.67613
 O896 O 0.25863 0.23564 0.66970
 O897 O 0.18309 0.25304 0.72246
 O898 O 0.17943 0.23608 0.76013
 O899 O 0.22503 0.31354 0.73569
 O900 O 0.26277 0.31916 0.75252
 O901 O 0.24797 0.30170 0.69871
 O902 O 0.28188 0.30943 0.72435
 O903 O 0.19438 0.29115 0.74622
 O904 O 0.18972 0.26304 0.78055
 O905 O 0.20394 0.24488 0.68916
 O906 O 0.22985 0.20882 0.68413
 O907 O 0.25559 0.22553 0.80500
 O908 O 0.23697 0.26385 0.81077
 O909 O 0.31280 0.24301 0.75990
 O910 O 0.31535 0.26179 0.72216
 O911 O 0.27210 0.18169 0.74557
 O912 O 0.23474 0.17878 0.72456
 Zr913 Zr 0.24395 0.20614 0.74869
 O914 O 0.22073 0.22671 0.72890
 Zr915 Zr 0.28821 0.23961 0.73321
 O916 O 0.26695 0.26095 0.71225
 Zr917 Zr 0.25731 0.25366 0.78110
 O918 O 0.23512 0.27620 0.76238
 Zr919 Zr 0.23839 0.24175 0.70048
 O920 O 0.26147 0.21912 0.71892
 Zr921 Zr 0.20801 0.25612 0.74869
 O922 O 0.22898 0.23391 0.76951
 Zr923 Zr 0.25258 0.28894 0.73273
 O924 O 0.27579 0.26904 0.75330
 O925 O 0.27150 0.22514 0.76190
 O926 O 0.22434 0.27066 0.71960
 C927 C 0.25099 0.20325 0.80264
 C928 C 0.29332 0.18447 0.73928
 C929 C 0.31078 0.24772 0.78198
 C930 C 0.24267 0.29202 0.67897
 C931 C 0.18474 0.24861 0.70036
 C932 C 0.20364 0.31119 0.74118
 H933 H 0.20818 0.21629 0.72346
 H934 H 0.22945 0.28932 0.77283
 H935 H 0.28184 0.21512 0.77146
 H936 H 0.27619 0.26671 0.69884
 H937 H 0.26869 0.22163 0.67269
 H938 H 0.30056 0.21888 0.69414
 H939 H 0.19522 0.27829 0.78722
 H940 H 0.22267 0.25443 0.81000
 H941 H 0.22338 0.21233 0.66854
 H942 H 0.23852 0.16307 0.73142
 H943 H 0.25403 0.31922 0.76754
 H944 H 0.27604 0.29380 0.79145
 H945 H 0.20602 0.19579 0.77041
 H946 H 0.18015 0.22056 0.75163
 H947 H 0.31418 0.27655 0.73191
 H948 H 0.28907 0.30255 0.70987
 O949 O 0.21944 0.81113 0.25439
 O950 O 0.21278 0.78746 0.22057
 O951 O 0.22193 0.75907 0.30911
 O952 O 0.24325 0.72698 0.31820
 O953 O 0.27379 0.81356 0.30291
 O954 O 0.30860 0.81559 0.27818
 O955 O 0.28268 0.69165 0.24901
 O956 O 0.24686 0.69140 0.26800
 O957 O 0.27342 0.73869 0.19158
 O958 O 0.26055 0.77993 0.18808
 O959 O 0.33121 0.74558 0.23695
 O960 O 0.33572 0.76446 0.27649
 O961 O 0.31506 0.71095 0.26015
 O962 O 0.32448 0.73593 0.29380
 O963 O 0.31154 0.75755 0.20498
 O964 O 0.28929 0.79594 0.19864
 O965 O 0.26273 0.70669 0.21286
 O966 O 0.22584 0.70736 0.23575
 O967 O 0.25314 0.82841 0.26490
 O968 O 0.29089 0.82903 0.24918
 O969 O 0.26010 0.78221 0.32338
 O970 O 0.27645 0.74151 0.32578
 O971 O 0.20299 0.77367 0.27769
 O972 O 0.20013 0.75428 0.23923
 Zr973 Zr 0.22865 0.77432 0.25111
 O974 O 0.24724 0.75026 0.22873
 Zr975 Zr 0.25662 0.75490 0.29786
 O976 O 0.27638 0.73036 0.27728
 Zr977 Zr 0.27699 0.80038 0.26808
 O978 O 0.29741 0.77800 0.24585
 Zr979 Zr 0.25816 0.72009 0.24732
 O980 O 0.23718 0.74280 0.26924
 Zr981 Zr 0.27793 0.76585 0.21728
 O982 O 0.25841 0.79087 0.23793
 Zr983 Zr 0.30600 0.74702 0.26405
 O984 O 0.28773 0.77071 0.28723
 O985 O 0.24663 0.78547 0.28047
 O986 O 0.28839 0.73519 0.23456
 C987 C 0.23172 0.82951 0.25952
 C988 C 0.20348 0.76642 0.29893
 C989 C 0.26690 0.80388 0.32204
 C990 C 0.30420 0.69194 0.25458
 C991 C 0.26798 0.71662 0.19340
 C992 C 0.32999 0.75008 0.21498
 H993 H 0.23735 0.74563 0.21546
 H994 H 0.31129 0.78660 0.24067
 H995 H 0.23712 0.79650 0.29049
 H996 H 0.28030 0.71635 0.28683
 H997 H 0.23280 0.69717 0.27657
 H998 H 0.24792 0.71182 0.31026
 H999 H 0.30409 0.80107 0.20538
 H1000 H 0.28434 0.82796 0.23327
 H1001 H 0.22817 0.69069 0.23000
 H1002 H 0.18576 0.76396 0.24159
 H1003 H 0.33885 0.77801 0.26609
 H1004 H 0.31494 0.80544 0.29066
 H1005 H 0.22397 0.79810 0.21290
 H1006 H 0.24527 0.77233 0.18732
 H1007 H 0.29082 0.75085 0.32625
 H1008 H 0.31476 0.72450 0.30233
 O1009 O 0.22597 0.69173 0.76039
 O1010 O 0.26145 0.68620 0.74380
 O1011 O 0.24025 0.73456 0.82322
 O1012 O 0.25552 0.76980 0.83124
 O1013 O 0.18313 0.75294 0.77854
 O1014 O 0.18026 0.77320 0.74271
 O1015 O 0.30313 0.79776 0.76457
 O1016 O 0.30638 0.77335 0.79643
 O1017 O 0.29201 0.75583 0.70575
 O1018 O 0.26614 0.72379 0.69543
 O1019 O 0.24723 0.81398 0.71849
 O1020 O 0.21672 0.82362 0.74511
 O1021 O 0.27316 0.82251 0.75548
 O1022 O 0.23356 0.82817 0.77519
 O1023 O 0.25634 0.78206 0.69497
 O1024 O 0.23753 0.74268 0.68907
 O1025 O 0.31299 0.76342 0.73827
 O1026 O 0.31369 0.73768 0.77323
 O1027 O 0.19555 0.71581 0.75102
 O1028 O 0.19022 0.74491 0.72035
 O1029 O 0.20364 0.76155 0.81115
 O1030 O 0.23088 0.79492 0.81847
 O1031 O 0.24884 0.70228 0.79989
 O1032 O 0.28403 0.69760 0.77381
 Zr1033 Zr 0.25285 0.71595 0.76574
 O1034 O 0.27551 0.73613 0.74506
 Zr1035 Zr 0.23830 0.76287 0.79949
 O1036 O 0.26134 0.78469 0.78095
 Zr1037 Zr 0.20839 0.75084 0.75176
 O1038 O 0.22936 0.77305 0.73139
 Zr1039 Zr 0.28829 0.76409 0.76568
 O1040 O 0.26717 0.74271 0.78714
 Zr1041 Zr 0.25773 0.75309 0.71802
 O1042 O 0.23556 0.73028 0.73672
 Zr1043 Zr 0.24428 0.79978 0.75240
 O1044 O 0.22039 0.77958 0.77227
 O1045 O 0.22475 0.73506 0.77980
 O1046 O 0.27209 0.78064 0.73763
 C1047 C 0.20487 0.69514 0.75435
 C1048 C 0.24451 0.71214 0.82009
 C1049 C 0.18457 0.75755 0.80059
 C1050 C 0.29458 0.81846 0.76021
 C1051 C 0.31120 0.75970 0.71610
 C1052 C 0.25144 0.80432 0.69822
 H1053 H 0.28824 0.72570 0.73896
 H1054 H 0.21980 0.77984 0.71885
 H1055 H 0.21435 0.72480 0.78899
 H1056 H 0.26749 0.79700 0.79168
 H1057 H 0.30253 0.76121 0.80821
 H1058 H 0.27068 0.77647 0.82697
 H1059 H 0.22469 0.75443 0.68776
 H1060 H 0.19885 0.73228 0.71142
 H1061 H 0.32907 0.74518 0.77231
 H1062 H 0.28018 0.68209 0.78090
 H1063 H 0.20606 0.81502 0.73468
 H1064 H 0.18162 0.78802 0.75225
 H1065 H 0.25603 0.69018 0.72794
 H1066 H 0.27812 0.71400 0.70309
 H1067 H 0.21792 0.80297 0.81049
 H1068 H 0.24503 0.82953 0.78781
 O1069 O 0.20554 0.25965 0.19340
 O1070 O 0.23040 0.29121 0.18647
 O1071 O 0.25065 0.19938 0.20254
 O1072 O 0.28032 0.18962 0.22536
 O1073 O 0.19535 0.21378 0.25218
 O1074 O 0.19048 0.24196 0.28435
 O1075 O 0.31454 0.25833 0.26408
 O1076 O 0.31694 0.23728 0.22897
 O1077 O 0.27365 0.31991 0.25067
 O1078 O 0.23540 0.32667 0.23410
 O1079 O 0.25775 0.27796 0.31001
 O1080 O 0.23888 0.23947 0.31542
 O1081 O 0.29267 0.25212 0.29681
 O1082 O 0.26615 0.21915 0.30602
 O1083 O 0.25052 0.31056 0.28800
 O1084 O 0.21634 0.31891 0.26246
 O1085 O 0.30403 0.29499 0.24203
 O1086 O 0.30506 0.27021 0.20540
 O1087 O 0.18474 0.25299 0.22677
 O1088 O 0.18147 0.27092 0.26426
 O1089 O 0.22579 0.18972 0.24156
 O1090 O 0.26354 0.18484 0.25897
 O1091 O 0.24171 0.23176 0.18076
 O1092 O 0.26273 0.26920 0.17722
 Zr1093 Zr 0.23998 0.26034 0.20517
 O1094 O 0.26251 0.28219 0.22438
 Zr1095 Zr 0.25337 0.21305 0.23695
 O1096 O 0.27643 0.23288 0.25733
 Zr1097 Zr 0.20925 0.24839 0.25309
 O1098 O 0.23030 0.26993 0.27421
 Zr1099 Zr 0.28943 0.26122 0.23790
 O1100 O 0.26839 0.23966 0.21644
 Zr1101 Zr 0.24536 0.29678 0.25400
 O1102 O 0.22200 0.27694 0.23351
 Zr1103 Zr 0.25845 0.24939 0.28562
 O1104 O 0.23583 0.22712 0.26679
 O1105 O 0.22570 0.23260 0.22407
 O1106 O 0.27300 0.27719 0.26705
 C1107 C 0.18632 0.25733 0.20477
 C1108 C 0.24642 0.20944 0.18293
 C1109 C 0.20463 0.19310 0.24790
 C1110 C 0.31212 0.25520 0.28626
 C1111 C 0.29525 0.31578 0.24647
 C1112 C 0.25474 0.30053 0.30759
 H1113 H 0.26864 0.29471 0.21410
 H1114 H 0.22095 0.27659 0.28745
 H1115 H 0.21522 0.22270 0.21455
 H1116 H 0.28909 0.22230 0.26258
 H1117 H 0.31219 0.22838 0.21474
 H1118 H 0.29494 0.19638 0.23098
 H1119 H 0.20935 0.31310 0.27717
 H1120 H 0.18393 0.28647 0.25673
 H1121 H 0.32124 0.27476 0.20844
 H1122 H 0.25486 0.26637 0.16211
 H1123 H 0.22536 0.25044 0.31677
 H1124 H 0.19924 0.22957 0.29282
 H1125 H 0.22034 0.30110 0.19706
 H1126 H 0.24458 0.32615 0.21934
 H1127 H 0.25429 0.18664 0.27363
 H1128 H 0.27914 0.21030 0.29829
 O1129 O 0.76444 0.69581 0.29204
 O1130 O 0.73227 0.68846 0.26873
 O1131 O 0.81911 0.70772 0.24246
 O1132 O 0.82626 0.73216 0.21283
 O1133 O 0.80838 0.75464 0.30146
 O1134 O 0.78192 0.78799 0.30891
 O1135 O 0.75368 0.77083 0.18440
 O1136 O 0.77596 0.73621 0.17873
 O1137 O 0.69956 0.75400 0.23057
 O1138 O 0.69712 0.73665 0.26959
 O1139 O 0.74055 0.81497 0.24253
 O1140 O 0.77752 0.82223 0.25960
 O1141 O 0.76341 0.80319 0.20645
 O1142 O 0.79802 0.81149 0.23236
 O1143 O 0.71015 0.79200 0.25260
 O1144 O 0.70539 0.76616 0.28803
 O1145 O 0.72089 0.74623 0.19749
 O1146 O 0.74658 0.71003 0.19311
 O1147 O 0.77274 0.72876 0.31403
 O1148 O 0.75370 0.76698 0.31930
 O1149 O 0.82968 0.74640 0.26838
 O1150 O 0.83048 0.76630 0.22982
 O1151 O 0.78913 0.68499 0.25445
 O1152 O 0.75187 0.68068 0.23444
 Zr1153 Zr 0.76091 0.70878 0.25781
 O1154 O 0.73749 0.72835 0.23749
 Zr1155 Zr 0.80501 0.74251 0.24179
 O1156 O 0.78347 0.76311 0.22029
 Zr1157 Zr 0.77405 0.75666 0.28969
 O1158 O 0.75137 0.77842 0.27046
 Zr1159 Zr 0.75518 0.74318 0.20898
 O1160 O 0.77843 0.72145 0.22792
 Zr1161 Zr 0.72448 0.75772 0.25697
 O1162 O 0.74580 0.73652 0.27839
 Zr1163 Zr 0.76868 0.79101 0.24063
 O1164 O 0.79223 0.77194 0.26163
 O1165 O 0.78840 0.72818 0.27065
 O1166 O 0.74086 0.77197 0.22783
 C1167 C 0.76872 0.70631 0.31174
 C1168 C 0.81028 0.68765 0.24806
 C1169 C 0.82769 0.75067 0.29053
 C1170 C 0.75745 0.79329 0.18700
 C1171 C 0.70154 0.74999 0.20838
 C1172 C 0.71899 0.81198 0.24686
 H1173 H 0.72511 0.71767 0.23216
 H1174 H 0.74542 0.79169 0.28056
 H1175 H 0.79887 0.71829 0.28019
 H1176 H 0.79245 0.76900 0.20677
 H1177 H 0.78563 0.72200 0.18216
 H1178 H 0.81787 0.73675 0.19860
 H1179 H 0.71124 0.78132 0.29457
 H1180 H 0.73909 0.75813 0.31808
 H1181 H 0.74038 0.71332 0.17736
 H1182 H 0.75572 0.66519 0.24173
 H1183 H 0.76992 0.82152 0.27519
 H1184 H 0.79310 0.79685 0.29922
 H1185 H 0.72343 0.69835 0.28038
 H1186 H 0.69684 0.72191 0.25983
 H1187 H 0.83047 0.77999 0.24101
 H1188 H 0.80432 0.80565 0.21708
 O1189 O 0.69867 0.29587 0.74684
 O1190 O 0.68970 0.27565 0.71248
 O1191 O 0.70309 0.24330 0.79905
 O1192 O 0.72357 0.21043 0.80656
 O1193 O 0.75628 0.29576 0.79120
 O1194 O 0.78886 0.29890 0.76516
 O1195 O 0.75565 0.17613 0.73124
 O1196 O 0.72183 0.17613 0.75287
 O1197 O 0.74882 0.22566 0.67826
 O1198 O 0.73796 0.26674 0.67588
 O1199 O 0.80787 0.22779 0.72204
 O1200 O 0.81595 0.24101 0.75986
 O1201 O 0.79009 0.19183 0.74160
 O1202 O 0.80024 0.21587 0.77961
 O1203 O 0.78831 0.24257 0.69114
 O1204 O 0.76670 0.28241 0.68770
 O1205 O 0.73584 0.19374 0.69843
 O1206 O 0.69961 0.19589 0.72333
 O1207 O 0.73283 0.31296 0.75613
 O1208 O 0.77070 0.31193 0.73616
 O1209 O 0.74312 0.26411 0.81167
 O1210 O 0.75791 0.22156 0.81084
 O1211 O 0.68308 0.25887 0.76875
 O1212 O 0.67770 0.24123 0.72920
 Zr1213 Zr 0.70716 0.25990 0.74086
 O1214 O 0.72378 0.23691 0.71633
 Zr1215 Zr 0.73674 0.23789 0.78554
 O1216 O 0.75353 0.21283 0.76297
 Zr1217 Zr 0.75683 0.28397 0.75609
 O1218 O 0.77583 0.26097 0.73310
 Zr1219 Zr 0.73335 0.20563 0.73346
 O1220 O 0.71499 0.22776 0.75779
 Zr1221 Zr 0.75503 0.25144 0.70466
 O1222 O 0.73666 0.27619 0.72669
 Zr1223 Zr 0.78340 0.22839 0.74938
 O1224 O 0.76768 0.25299 0.77362
 O1225 O 0.72690 0.26932 0.76960
 O1226 O 0.76403 0.21941 0.72022
 C1227 C 0.71089 0.31394 0.75254
 C1228 C 0.68447 0.25143 0.78986
 C1229 C 0.75038 0.28563 0.81037
 C1230 C 0.77742 0.17439 0.73474
 C1231 C 0.74187 0.20405 0.67942
 C1232 C 0.80664 0.23388 0.70054
 H1233 H 0.71322 0.23354 0.70325
 H1234 H 0.79006 0.26905 0.72801
 H1235 H 0.71837 0.28012 0.78068
 H1236 H 0.75698 0.19802 0.77151
 H1237 H 0.70859 0.18196 0.76266
 H1238 H 0.72366 0.19585 0.79658
 H1239 H 0.78204 0.28632 0.69398
 H1240 H 0.76075 0.31367 0.72230
 H1241 H 0.70062 0.17965 0.71621
 H1242 H 0.66361 0.25074 0.73345
 H1243 H 0.81667 0.25791 0.75525
 H1244 H 0.79632 0.28759 0.77597
 H1245 H 0.70110 0.28543 0.70404
 H1246 H 0.72169 0.26166 0.67662
 H1247 H 0.77194 0.23132 0.81222
 H1248 H 0.79376 0.20018 0.78352
 C1249 C 0.09771 1.01844 1.17682
 C1250 C 0.08335 1.02148 1.15760
 C1251 C 0.05913 1.02101 1.16076
 C1252 C 0.04974 1.01777 1.18321
 C1253 C 0.06420 1.01462 1.20233
 C1254 C 0.08842 1.01504 1.19941
 C1255 C 0.04474 1.02305 1.14135
 C1256 C 0.05435 1.02500 1.11879
 C1257 C 0.07862 1.02581 1.11572
 C1258 C 0.09295 1.02433 1.13518
 C1259 C 0.08820 1.02725 1.09313
 C1260 C 0.07394 1.02680 1.07366
 C1261 C 0.04985 1.02531 1.07650
 C1262 C 0.04012 1.02514 1.09916
 H1263 H 0.11630 1.01828 1.17418
 H1264 H 0.03119 1.01715 1.18591
 H1265 H 0.05611 1.01131 1.21906
 H1266 H 0.02613 1.02238 1.14371
 H1267 H 0.11157 1.02467 1.13280
 H1268 H 0.10675 1.02800 1.09048
 H1269 H 0.08179 1.02719 1.05632
 H1270 H 0.02156 1.02384 1.10150
 C1271 C 0.61464 0.49877 0.68644
 C1272 C 0.60161 0.49783 0.66597
 C1273 C 0.57741 0.50119 0.66742
 C1274 C 0.56671 0.50521 0.68936
 C1275 C 0.57983 0.50593 0.70974
 C1276 C 0.60397 0.50246 0.70861
 C1277 C 0.56435 0.50074 0.64691
 C1278 C 0.57522 0.49683 0.62500
 C1279 C 0.59941 0.49310 0.62359
 C1280 C 0.61247 0.49373 0.64409
 C1281 C 0.61011 0.48888 0.60167
 C1282 C 0.59701 0.48854 0.58127
 C1283 C 0.57301 0.49262 0.58243
 C1284 C 0.56225 0.49666 0.60445
 H1285 H 0.63328 0.49677 0.68513
 H1286 H 0.54817 0.50804 0.69075
 H1287 H 0.57091 0.50976 0.72614
 H1288 H 0.54578 0.50351 0.64799
 H1289 H 0.63105 0.49104 0.64302
 H1290 H 0.62863 0.48592 0.60029
 H1291 H 0.60572 0.48541 0.56455
 H1292 H 0.54372 0.49961 0.60567
 C1293 C 0.41149 -0.01499 0.69436
 C1294 C 0.42378 -0.01857 0.67323
 C1295 C 0.44744 -0.01292 0.67188
 C1296 C 0.45830 -0.00360 0.69174
 C1297 C 0.44594 -0.00012 0.71279
 C1298 C 0.42244 -0.00634 0.71463
 C1299 C 0.45969 -0.01619 0.65059
 C1300 C 0.44841 -0.02468 0.63055
 C1301 C 0.42470 -0.03036 0.63203
 C1302 C 0.41262 -0.02747 0.65337
 C1303 C 0.41321 -0.03819 0.61196
 C1304 C 0.42481 -0.03947 0.59039
 C1305 C 0.44823 -0.03352 0.58859
 C1306 C 0.46017 -0.02673 0.60884
 H1307 H 0.39323 -0.01895 0.69507
 H1308 H 0.47633 0.00127 0.69093
 H1309 H 0.45492 0.00785 0.72734
 H1310 H 0.47781 -0.01166 0.64951
 H1311 H 0.39443 -0.03174 0.65440
 H1312 H 0.39507 -0.04262 0.61279
 H1313 H 0.41535 -0.04471 0.57493
 H1314 H 0.47816 -0.02178 0.60743
 C1315 C -0.09214 0.49108 1.19292
 C1316 C -0.08019 0.48941 1.17157
 C1317 C -0.05662 0.48252 1.17114
 C1318 C -0.04555 0.47709 1.19210
 C1319 C -0.05747 0.47950 1.21345
 C1320 C -0.08068 0.48740 1.21415
 C1321 C -0.04444 0.48151 1.14983
 C1322 C -0.05542 0.48798 1.12912
 C1323 C -0.07900 0.49493 1.12954
 C1324 C -0.09135 0.49525 1.15076
 C1325 C -0.08969 0.50186 1.10878
 C1326 C -0.07703 0.50209 1.08779
 C1327 C -0.05361 0.49514 1.08727
 C1328 C -0.04299 0.48797 1.10802
 H1329 H -0.11032 0.49606 1.19310
 H1330 H -0.02759 0.47135 1.19201
 H1331 H -0.04836 0.47499 1.22920
 H1332 H -0.02632 0.47624 1.14944
 H1333 H -0.10944 0.50066 1.15118
 H1334 H -0.10774 0.50726 1.10882
 H1335 H -0.08561 0.50753 1.07196
 H1336 H -0.02488 0.48271 1.10787
 C1337 C -0.09494 0.49833 0.32287
 C1338 C -0.08576 0.50527 0.34447
 C1339 C -0.06565 0.51928 0.34498
 C1340 C -0.05541 0.52659 0.32401
 C1341 C -0.06459 0.51953 0.30264
 C1342 C -0.08416 0.50502 0.30187
 C1343 C -0.05563 0.52514 0.36639
 C1344 C -0.06499 0.51650 0.38725
 C1345 C -0.08545 0.50307 0.38693
 C1346 C -0.09594 0.49784 0.36551
 C1347 C -0.09437 0.49414 0.40794
 C1348 C -0.08216 0.49694 0.42874
 C1349 C -0.06104 0.50901 0.42883
 C1350 C -0.05325 0.51980 0.40823
 H1351 H -0.11005 0.48718 0.32244
 H1352 H -0.04014 0.53753 0.32414
 H1353 H -0.05645 0.52568 0.28670
 H1354 H -0.03995 0.53549 0.36672
 H1355 H -0.11141 0.48717 0.36515
 H1356 H -0.11014 0.48399 0.40808
 H1357 H -0.08868 0.48863 0.44444
 H1358 H -0.03715 0.52943 0.40806
 C1359 C 0.40391 1.00491 -0.17695
 C1360 C 0.41454 1.00815 -0.15504
 C1361 C 0.43772 1.01560 -0.15408
 C1362 C 0.44973 1.02017 -0.17486
 C1363 C 0.43922 1.01685 -0.19645
 C1364 C 0.41627 1.00873 -0.19811
 C1365 C 0.44870 1.01811 -0.13242
 C1366 C 0.43689 1.01304 -0.11153
 C1367 C 0.41359 1.00594 -0.11234
 C1368 C 0.40253 1.00361 -0.13404
 C1369 C 0.40183 1.00092 -0.09141
 C1370 C 0.41318 1.00232 -0.06998
 C1371 C 0.43657 1.00882 -0.06892
 C1372 C 0.44819 1.01452 -0.08988
 H1373 H 0.38646 0.99833 -0.17720
 H1374 H 0.46740 1.02626 -0.17444
 H1375 H 0.44926 1.02133 -0.21184
 H1376 H 0.46656 1.02363 -0.13187
 H1377 H 0.38472 0.99793 -0.13460
 H1378 H 0.38394 0.99556 -0.09163
 H1379 H 0.40364 0.99792 -0.05422
 H1380 H 0.46618 1.01959 -0.08946
 C1381 C 0.60014 0.48803 -0.19474
 C1382 C 0.59305 0.48753 -0.17113
 C1383 C 0.60186 0.50431 -0.15491
 C1384 C 0.61818 0.52084 -0.16253
 C1385 C 0.62534 0.52103 -0.18606
 C1386 C 0.61611 0.50492 -0.20239
 C1387 C 0.59393 0.50452 -0.13149
 C1388 C 0.57721 0.48823 -0.12415
 C1389 C 0.56901 0.47102 -0.14032
 C1390 C 0.57704 0.47072 -0.16361
 C1391 C 0.55235 0.45477 -0.13313
 C1392 C 0.54302 0.45621 -0.11050
 C1393 C 0.55027 0.47379 -0.09445
 C1394 C 0.56794 0.48934 -0.10118
 H1395 H 0.59330 0.47522 -0.20718
 H1396 H 0.62523 0.53376 -0.15037
 H1397 H 0.63768 0.53418 -0.19163
 H1398 H 0.60038 0.51766 -0.11915
 H1399 H 0.57043 0.45773 -0.17602
 H1400 H 0.54602 0.44137 -0.14524
 H1401 H 0.52962 0.44384 -0.10572
 H1402 H 0.57361 0.50302 -0.08901
 C1403 C 0.08574 -0.00805 0.29287
 C1404 C 0.07838 -0.00791 0.31627
 C1405 C 0.09096 0.00468 0.33342
 C1406 C 0.11133 0.01622 0.32676
 C1407 C 0.11857 0.01601 0.30322
 C1408 C 0.10545 0.00436 0.28613
 C1409 C 0.08259 0.00598 0.35667
 C1410 C 0.06162 -0.00483 0.36271
 C1411 C 0.04958 -0.01790 0.34543
 C1412 C 0.05815 -0.01957 0.32249
 C1413 C 0.02864 -0.02851 0.35108
 C1414 C 0.01909 -0.02547 0.37337
 C1415 C 0.03040 -0.01206 0.39074
 C1416 C 0.05203 -0.00221 0.38545
 H1417 H 0.07584 -0.01746 0.27973
 H1418 H 0.12133 0.02586 0.33962
 H1419 H 0.13390 0.02564 0.29824
 H1420 H 0.09197 0.01594 0.36981
 H1421 H 0.04863 -0.02930 0.30926
 H1422 H 0.01929 -0.03862 0.33804
 H1423 H 0.00246 -0.03333 0.37681
 H1424 H 0.06091 0.00818 0.39863
 C1425 C 0.17595 1.10923 0.98752
 C1426 C 0.15555 1.09640 0.99014
 C1427 C 0.15619 1.07386 1.00086
 C1428 C 0.17712 1.06474 1.00914
 C1429 C 0.19734 1.07765 1.00651
 C1430 C 0.19721 1.09967 0.99495
 C1431 C 0.13588 1.06091 1.00339
 C1432 C 0.11493 1.07021 0.99528
 C1433 C 0.11420 1.09284 0.98474
 C1434 C 0.13452 1.10584 0.98228
 C1435 C 0.09314 1.10202 0.97673
 C1436 C 0.07302 1.08877 0.97891
 C1437 C 0.07365 1.06612 0.98916
 C1438 C 0.09471 1.05708 0.99746
 H1439 H 0.17510 1.12682 0.98000
 H1440 H 0.17782 1.04773 1.01786
 H1441 H 0.21302 1.07045 1.01389
 H1442 H 0.13639 1.04359 1.01159
 H1443 H 0.13401 1.12318 0.97413
 H1444 H 0.09224 1.11936 0.96865
 H1445 H 0.05701 1.09621 0.97241
 H1446 H 0.09549 1.03971 1.00552
 C1447 C 0.70396 0.58701 0.49370
 C1448 C 0.68093 0.57964 0.49278
 C1449 C 0.66271 0.59630 0.49709
 C1450 C 0.66785 0.62018 0.50185
 C1451 C 0.69079 0.62737 0.50278
 C1452 C 0.70920 0.61084 0.49934
 C1453 C 0.63969 0.58880 0.49666
 C1454 C 0.63469 0.56475 0.49227
 C1455 C 0.65300 0.54818 0.48772
 C1456 C 0.67592 0.55576 0.48779
 C1457 C 0.64814 0.52412 0.48369
 C1458 C 0.62545 0.51634 0.48488
 C1459 C 0.60711 0.53248 0.48978
 C1460 C 0.61177 0.55683 0.49295
 H1461 H 0.71750 0.57406 0.48969
 H1462 H 0.65415 0.63330 0.50491
 H1463 H 0.69422 0.64602 0.50630
 H1464 H 0.62574 0.60157 0.50013
 H1465 H 0.68988 0.54296 0.48444
 H1466 H 0.66194 0.51122 0.48011
 H1467 H 0.62224 0.49751 0.48215
 H1468 H 0.59773 0.56935 0.49690
 C1469 C 0.68902 0.39789 -0.00449
 C1470 C 0.66825 0.41085 -0.00494
 C1471 C 0.66856 0.43580 -0.00743
 C1472 C 0.68989 0.44730 -0.00908
 C1473 C 0.71075 0.43421 -0.00833
 C1474 C 0.71074 0.40911 -0.00615
 C1475 C 0.64755 0.44873 -0.00816
 C1476 C 0.62636 0.43687 -0.00617
 C1477 C 0.62628 0.41187 -0.00332
 C1478 C 0.64719 0.39904 -0.00286
 C1479 C 0.60526 0.40002 -0.00092
 C1480 C 0.58439 0.41275 -0.00138
 C1481 C 0.58409 0.43756 -0.00450
 C1482 C 0.60522 0.44953 -0.00691
 H1483 H 0.68836 0.37865 -0.00275
 H1484 H 0.69047 0.46649 -0.01088
 H1485 H 0.72653 0.44410 -0.00949
 H1486 H 0.64768 0.46792 -0.01021
 H1487 H 0.64707 0.37983 -0.00080
 H1488 H 0.60497 0.38087 0.00133
 H1489 H 0.56843 0.40309 0.00040
 H1490 H 0.60524 0.46869 -0.00916
 C1491 C 0.16742 -0.09606 0.49903
 C1492 C 0.14707 -0.08261 0.49571
 C1493 C 0.14658 -0.05797 0.50134
 C1494 C 0.16614 -0.04742 0.51092
 C1495 C 0.18628 -0.06090 0.51421
 C1496 C 0.18758 -0.08522 0.50745
 C1497 C 0.12651 -0.04430 0.49753
 C1498 C 0.10673 -0.05504 0.48851
 C1499 C 0.10702 -0.07982 0.48334
 C1500 C 0.12725 -0.09340 0.48677
 C1501 C 0.08694 -0.09066 0.47515
 C1502 C 0.06664 -0.07719 0.47257
 C1503 C 0.06624 -0.05256 0.47751
 C1504 C 0.08646 -0.04150 0.48513
 H1505 H 0.16772 -0.11496 0.49466
 H1506 H 0.16587 -0.02867 0.51591
 H1507 H 0.20061 -0.05201 0.52225
 H1508 H 0.12623 -0.02536 0.50179
 H1509 H 0.12750 -0.11236 0.48264
 H1510 H 0.08681 -0.10963 0.47119
 H1511 H 0.05118 -0.08602 0.46676
 H1512 H 0.08611 -0.02256 0.48937
 C1513 C 0.29444 -0.10075 0.50587
 C1514 C 0.31632 -0.09056 0.50792
 C1515 C 0.31885 -0.06912 0.52101
 C1516 C 0.29951 -0.05846 0.53213
 C1517 C 0.27780 -0.06869 0.52997
 C1518 C 0.27501 -0.08976 0.51665
 C1519 C 0.34061 -0.05856 0.52257
 C1520 C 0.35986 -0.06911 0.51108
 C1521 C 0.35732 -0.09071 0.49826
 C1522 C 0.33562 -0.10130 0.49679
 C1523 C 0.37652 -0.10130 0.48687
 C1524 C 0.39798 -0.09047 0.48785
 C1525 C 0.40078 -0.06876 0.50022
 C1526 C 0.38157 -0.05827 0.51199
 H1527 H 0.29247 -0.11683 0.49532
 H1528 H 0.30112 -0.04213 0.54237
 H1529 H 0.26316 -0.06010 0.53883
 H1530 H 0.34249 -0.04204 0.53248
 H1531 H 0.33371 -0.11777 0.48679
 H1532 H 0.37490 -0.11787 0.47703
 H1533 H 0.41239 -0.09908 0.47861
 H1534 H 0.38343 -0.04162 0.52167
 C1535 C -0.19562 0.41679 0.99615
 C1536 C -0.17215 0.42283 0.99465
 C1537 C -0.15536 0.40527 0.98833
 C1538 C -0.16241 0.38200 0.98332
 C1539 C -0.18576 0.37606 0.98482
 C1540 C -0.20290 0.39323 0.99153
 C1541 C -0.13182 0.41121 0.98722
 C1542 C -0.12485 0.43459 0.99246
 C1543 C -0.14179 0.45215 0.99860
 C1544 C -0.16523 0.44620 0.99964
 C1545 C -0.13505 0.47545 1.00384
 C1546 C -0.11176 0.48135 1.00337
 C1547 C -0.09450 0.46414 0.99762
 C1548 C -0.10126 0.44070 0.99193
 H1549 H -0.20793 0.43047 1.00187
 H1550 H -0.14985 0.36833 0.97809
 H1551 H -0.19006 0.35805 0.97977
 H1552 H -0.11896 0.39764 0.98247
 H1553 H -0.17809 0.45976 1.00448
 H1554 H -0.14780 0.48914 1.00850
 H1555 H -0.10731 0.49957 1.00770
 H1556 H -0.08825 0.42719 0.98750
 C1557 C -0.18248 0.60334 0.51051
 C1558 C -0.16256 0.58860 0.51001
 C1559 C -0.16309 0.56596 0.49875
 C1560 C -0.18346 0.55848 0.48815
 C1561 C -0.20321 0.57311 0.48892
 C1562 C -0.20313 0.59560 0.50032
 C1563 C -0.14327 0.55118 0.49817
 C1564 C -0.12285 0.55869 0.50878
 C1565 C -0.12231 0.58129 0.52013
 C1566 C -0.14214 0.59609 0.52068
 C1567 C -0.10187 0.58878 0.53063
 C1568 C -0.08205 0.57423 0.52964
 C1569 C -0.08223 0.55177 0.51822
 C1570 C -0.10287 0.54406 0.50798
 H1571 H -0.18188 0.62061 0.51912
 H1572 H -0.18415 0.54128 0.47925
 H1573 H -0.21852 0.56682 0.48024
 H1574 H -0.14374 0.53386 0.48943
 H1575 H -0.14166 0.61344 0.52937
 H1576 H -0.10113 0.60603 0.53943
 H1577 H -0.06647 0.58071 0.53768
 H1578 H -0.10332 0.52690 0.49896
 C1579 C 0.30232 1.10888 0.00201
 C1580 C 0.32348 1.09627 0.00157
 C1581 C 0.32664 1.07643 -0.01389
 C1582 C 0.30891 1.06990 -0.02902
 C1583 C 0.28785 1.08227 -0.02819
 C1584 C 0.28424 1.10149 -0.01240
 C1585 C 0.34723 1.06303 -0.01362
 C1586 C 0.36465 1.06898 0.00209
 C1587 C 0.36181 1.08907 0.01724
 C1588 C 0.34125 1.10266 0.01683
 C1589 C 0.37951 1.09501 0.03272
 C1590 C 0.39968 1.08099 0.03338
 C1591 C 0.40239 1.06070 0.01873
 C1592 C 0.38480 1.05493 0.00301
 H1593 H 0.29952 1.12363 0.01431
 H1594 H 0.31113 1.05488 -0.04109
 H1595 H 0.27421 1.07659 -0.03972
 H1596 H 0.34949 1.04768 -0.02531
 H1597 H 0.33891 1.11790 0.02865
 H1598 H 0.37770 1.11038 0.04440
 H1599 H 0.41305 1.08585 0.04558
 H1600 H 0.38684 1.03954 -0.00865
 C1601 C -0.00536 1.20224 1.09842
 C1602 C -0.00602 1.17886 1.08926
 C1603 C -0.00896 1.15945 1.10448
 C1604 C -0.01107 1.16369 1.12862
 C1605 C -0.01025 1.18690 1.13760
 C1606 C -0.00754 1.20653 1.12272
 C1607 C -0.00962 1.13610 1.09539
 C1608 C -0.00724 1.13184 1.07122
 C1609 C -0.00415 1.15124 1.05599
 C1610 C -0.00362 1.17459 1.06508
 C1611 C -0.00160 1.14697 1.03188
 C1612 C -0.00212 1.12373 1.02288
 C1613 C -0.00527 1.10423 1.03779
 C1614 C -0.00783 1.10848 1.06203
 H1615 H -0.00290 1.21672 1.08647
 H1616 H -0.01324 1.14906 1.14058
 H1617 H -0.01171 1.18963 1.15641
 H1618 H -0.01191 1.12126 1.10711
 H1619 H -0.00128 1.18942 1.05335
 H1620 H 0.00080 1.16160 1.01996
 H1621 H -0.00013 1.12110 1.00411
 H1622 H -0.01020 1.09367 1.07375
 C1623 C 0.51420 0.68415 0.60190
 C1624 C 0.51579 0.66041 0.59359
 C1625 C 0.50667 0.64184 0.60720
 C1626 C 0.49674 0.64719 0.62917
 C1627 C 0.49549 0.67072 0.63744
 C1628 C 0.50346 0.68966 0.62367
 C1629 C 0.50773 0.61820 0.59873
 C1630 C 0.51787 0.61283 0.57679
 C1631 C 0.52749 0.63133 0.56341
 C1632 C 0.52641 0.65497 0.57188
 C1633 C 0.53774 0.62595 0.54157
 C1634 C 0.53784 0.60262 0.53269
 C1635 C 0.52774 0.58410 0.54548
 C1636 C 0.51815 0.58932 0.56780
 H1637 H 0.52175 0.69806 0.59153
 H1638 H 0.49007 0.63315 0.64007
 H1639 H 0.48828 0.67411 0.65480
 H1640 H 0.50051 0.60403 0.60913
 H1641 H 0.53361 0.66914 0.56147
 H1642 H 0.54533 0.63987 0.53114
 H1643 H 0.54553 0.59921 0.51553
 H1644 H 0.51030 0.57528 0.57787
 C1645 C 0.00468 0.68825 0.40818
 C1646 C 0.00415 0.66518 0.41728
 C1647 C 0.01515 0.64611 0.40479
 C1648 C 0.02640 0.65038 0.38344
 C1649 C 0.02689 0.67336 0.37454
 C1650 C 0.01658 0.69276 0.38701
 C1651 C 0.01451 0.62301 0.41365
 C1652 C 0.00318 0.61874 0.43498
 C1653 C -0.00775 0.63776 0.44762
 C1654 C -0.00733 0.66088 0.43860
 C1655 C -0.01869 0.63331 0.46918
 C1656 C -0.01851 0.61029 0.47826
 C1657 C -0.00768 0.59131 0.46575
 C1658 C 0.00293 0.59571 0.44399
 H1659 H -0.00463 0.70252 0.41740
 H1660 H 0.03459 0.63587 0.37346
 H1661 H 0.03498 0.67580 0.35756
 H1662 H 0.02291 0.60838 0.40400
 H1663 H -0.01576 0.67550 0.44824
 H1664 H -0.02715 0.64767 0.47913
 H1665 H -0.02683 0.60733 0.49506
 H1666 H 0.01159 0.58130 0.43427
 C1667 C 0.49261 1.18753 -0.08872
 C1668 C 0.49284 1.16489 -0.07842
 C1669 C 0.49693 1.14422 -0.09253
 C1670 C 0.50068 1.14643 -0.11662
 C1671 C 0.50028 1.16886 -0.12671
 C1672 C 0.49633 1.18974 -0.11303
 C1673 C 0.49700 1.12161 -0.08242
 C1674 C 0.49286 1.11930 -0.05834
 C1675 C 0.48874 1.13992 -0.04417
 C1676 C 0.48884 1.16258 -0.05427
 C1677 C 0.48444 1.13751 -0.02014
 C1678 C 0.48404 1.11491 -0.01025
 C1679 C 0.48803 1.09423 -0.02417
 C1680 C 0.49257 1.09664 -0.04826
 H1681 H 0.48925 1.20306 -0.07769
 H1682 H 0.50376 1.13079 -0.12772
 H1683 H 0.50300 1.16996 -0.14549
 H1684 H 0.50010 1.10582 -0.09333
 H1685 H 0.48565 1.17836 -0.04336
 H1686 H 0.48126 1.15309 -0.00899
 H1687 H 0.48056 1.11369 0.00839
 H1688 H 0.49560 1.08091 -0.05925
 C1689 C 0.50100 0.28946 -0.09622
 C1690 C 0.49946 0.31347 -0.08878
 C1691 C 0.48528 0.32972 -0.10098
 C1692 C 0.47284 0.32166 -0.12038
 C1693 C 0.47472 0.29785 -0.12785
 C1694 C 0.48887 0.28161 -0.11595
 C1695 C 0.48387 0.35377 -0.09371
 C1696 C 0.49653 0.36182 -0.07441
 C1697 C 0.51075 0.34554 -0.06229
 C1698 C 0.51212 0.32151 -0.06953
 C1699 C 0.52330 0.35350 -0.04298
 C1700 C 0.52152 0.37725 -0.03544
 C1701 C 0.50727 0.39365 -0.04713
 C1702 C 0.49501 0.38583 -0.06686
 H1703 H 0.51218 0.27709 -0.08715
 H1704 H 0.46184 0.33381 -0.12991
 H1705 H 0.46506 0.29209 -0.14299
 H1706 H 0.47296 0.36619 -0.10306
 H1707 H 0.52304 0.30909 -0.06018
 H1708 H 0.53434 0.34130 -0.03354
 H1709 H 0.53130 0.38276 -0.02030
 H1710 H 0.48388 0.39823 -0.07596
 C1711 C 0.01087 -0.19468 0.38763
 C1712 C 0.00556 -0.17366 0.40050
 C1713 C -0.00272 -0.17505 0.42386
 C1714 C -0.00616 -0.19738 0.43372
 C1715 C -0.00164 -0.21817 0.42058
 C1716 C 0.00714 -0.21721 0.39741
 C1717 C -0.00774 -0.15412 0.43689
 C1718 C -0.00530 -0.13176 0.42662
 C1719 C 0.00229 -0.13038 0.40300
 C1720 C 0.00804 -0.15129 0.39023
 C1721 C 0.00385 -0.10808 0.39246
 C1722 C -0.00195 -0.08734 0.40520
 C1723 C -0.00897 -0.08843 0.42883
 C1724 C -0.01052 -0.11074 0.43951
 H1725 H 0.01790 -0.19324 0.37007
 H1726 H -0.01280 -0.19880 0.45149
 H1727 H -0.00557 -0.23495 0.42865
 H1728 H -0.01386 -0.15526 0.45489
 H1729 H 0.01407 -0.15015 0.37220
 H1730 H 0.00953 -0.10666 0.37437
 H1731 H -0.00039 -0.07033 0.39671
 H1732 H -0.01604 -0.11172 0.45770
 C1733 C 0.49538 -0.21500 0.59412
 C1734 C 0.49667 -0.19253 0.58358
 C1735 C 0.50951 -0.17424 0.59445
 C1736 C 0.52101 -0.17874 0.61538
 C1737 C 0.51943 -0.20097 0.62582
 C1738 C 0.50647 -0.21919 0.61549
 C1739 C 0.51043 -0.15163 0.58444
 C1740 C 0.49852 -0.14688 0.56378
 C1741 C 0.48583 -0.16509 0.55271
 C1742 C 0.48504 -0.18786 0.56265
 C1743 C 0.47399 -0.16009 0.53201
 C1744 C 0.47453 -0.13722 0.52253
 C1745 C 0.48688 -0.11889 0.53359
 C1746 C 0.49897 -0.12403 0.55418
 H1747 H 0.48519 -0.22891 0.58613
 H1748 H 0.53102 -0.16497 0.62384
 H1749 H 0.52844 -0.20393 0.64205
 H1750 H 0.52019 -0.13763 0.59290
 H1751 H 0.47518 -0.20182 0.55425
 H1752 H 0.46420 -0.17383 0.52324
 H1753 H 0.46507 -0.13384 0.50666
 H1754 H 0.50871 -0.11021 0.56290
 C1755 C -0.01309 0.30413 1.09940
 C1756 C -0.01131 0.32709 1.09002
 C1757 C 0.00268 0.34418 1.10124
 C1758 C 0.01477 0.33805 1.12140
 C1759 C 0.01284 0.31529 1.13062
 C1760 C -0.00120 0.29820 1.11990
 C1761 C 0.00435 0.36718 1.09221
 C1762 C -0.00769 0.37337 1.07202
 C1763 C -0.02158 0.35635 1.06064
 C1764 C -0.02337 0.33330 1.06975
 C1765 C -0.03333 0.36268 1.04025
 C1766 C -0.03116 0.38558 1.03113
 C1767 C -0.01740 0.40264 1.04236
 C1768 C -0.00584 0.39635 1.06294
 H1769 H -0.02411 0.29112 1.09111
 H1770 H 0.02568 0.35089 1.13010
 H1771 H 0.02253 0.31101 1.14613
 H1772 H 0.01507 0.38025 1.10088
 H1773 H -0.03407 0.32024 1.06108
 H1774 H -0.04405 0.34988 1.03126
 H1775 H -0.04026 0.38992 1.01527
 H1776 H 0.00502 0.40920 1.07170
 C1777 C 0.74569 0.35956 0.05981
 C1778 C 0.74770 0.34677 0.08051
 C1779 C 0.75881 0.32422 0.08012
 C1780 C 0.76830 0.31523 0.05888
 C1781 C 0.76616 0.32816 0.03812
 C1782 C 0.75421 0.35029 0.03810
 C1783 C 0.76003 0.31109 0.10090
 C1784 C 0.75016 0.32036 0.12193
 C1785 C 0.73947 0.34321 0.12219
 C1786 C 0.73841 0.35627 0.10155
 C1787 C 0.72973 0.35260 0.14305
 C1788 C 0.73020 0.33939 0.16353
 C1789 C 0.74041 0.31647 0.16362
 C1790 C 0.75058 0.30715 0.14268
 H1791 H 0.73785 0.37719 0.06104
 H1792 H 0.77702 0.29798 0.05822
 H1793 H 0.77289 0.32007 0.02205
 H1794 H 0.76838 0.29363 0.10065
 H1795 H 0.72999 0.37371 0.10178
 H1796 H 0.72155 0.37013 0.14349
 H1797 H 0.72235 0.34711 0.17930
 H1798 H 0.75868 0.28958 0.14244
 C1799 C 0.23090 0.86412 0.57510
 C1800 C 0.23687 0.85085 0.59490
 C1801 C 0.24598 0.82742 0.59195
 C1802 C 0.24943 0.81791 0.56922
 C1803 C 0.24391 0.83145 0.54961
 C1804 C 0.23437 0.85450 0.55235
 C1805 C 0.25148 0.81392 0.61173
 C1806 C 0.24823 0.82363 0.63445
 C1807 C 0.23973 0.84730 0.63731
 C1808 C 0.23403 0.86070 0.61756
 C1809 C 0.23676 0.85709 0.65994
 C1810 C 0.24147 0.84341 0.67962
 C1811 C 0.24923 0.81956 0.67717
 C1812 C 0.25295 0.80995 0.65437
 H1813 H 0.22405 0.88213 0.57735
 H1814 H 0.25653 0.80005 0.56660
 H1815 H 0.24688 0.82381 0.53226
 H1816 H 0.25819 0.79584 0.60945
 H1817 H 0.22727 0.87877 0.61984
 H1818 H 0.23039 0.87525 0.66245
 H1819 H 0.23840 0.85139 0.69681
 H1820 H 0.25895 0.79163 0.65207
 C1821 C 0.74984 0.67553 0.55416
 C1822 C 0.75301 0.68433 0.57700
 C1823 C 0.77309 0.67789 0.58934
 C1824 C 0.79008 0.66344 0.57808
 C1825 C 0.78651 0.65430 0.55540
 C1826 C 0.76603 0.65965 0.54357
 C1827 C 0.77545 0.68539 0.61286
 C1828 C 0.75787 0.69914 0.62412
 C1829 C 0.73809 0.70598 0.61138
 C1830 C 0.73583 0.69859 0.58797
 C1831 C 0.72073 0.72007 0.62225
 C1832 C 0.72293 0.72757 0.64549
 C1833 C 0.74228 0.72079 0.65849
 C1834 C 0.75968 0.70635 0.64783
 H1835 H 0.73404 0.67991 0.54508
 H1836 H 0.80566 0.65837 0.58717
 H1837 H 0.79907 0.64190 0.54781
 H1838 H 0.79072 0.68024 0.62245
 H1839 H 0.72047 0.70358 0.57841
 H1840 H 0.70552 0.72549 0.61271
 H1841 H 0.70941 0.73876 0.65341
 H1842 H 0.77483 0.70140 0.65772
 C1843 C 0.24593 0.14688 0.05797
 C1844 C 0.24864 0.16082 0.07828
 C1845 C 0.25427 0.18515 0.07640
 C1846 C 0.25808 0.19476 0.05409
 C1847 C 0.25524 0.18066 0.03384
 C1848 C 0.24845 0.15686 0.03567
 C1849 C 0.25542 0.19950 0.09678
 C1850 C 0.25096 0.18975 0.11892
 C1851 C 0.24613 0.16519 0.12070
 C1852 C 0.24503 0.15090 0.10039
 C1853 C 0.24212 0.15533 0.14277
 C1854 C 0.24252 0.16970 0.16297
 C1855 C 0.24666 0.19425 0.16146
 C1856 C 0.25101 0.20416 0.13933
 H1857 H 0.24112 0.12834 0.05946
 H1858 H 0.26260 0.21333 0.05230
 H1859 H 0.25728 0.18861 0.01678
 H1860 H 0.25935 0.21828 0.09539
 H1861 H 0.24090 0.13216 0.10176
 H1862 H 0.23849 0.13652 0.14441
 H1863 H 0.23914 0.16166 0.17978
 H1864 H 0.25452 0.22303 0.13799
 C1865 C 0.24316 0.14681 0.92830
 C1866 C 0.24760 0.15935 0.90777
 C1867 C 0.25590 0.18289 0.90925
 C1868 C 0.26030 0.19311 0.93138
 C1869 C 0.25577 0.18041 0.95185
 C1870 C 0.24661 0.15744 0.95044
 C1871 C 0.25922 0.19586 0.88863
 C1872 C 0.25415 0.18558 0.86667
 C1873 C 0.24642 0.16181 0.86530
 C1874 C 0.24332 0.14882 0.88583
 C1875 C 0.24144 0.15153 0.84344
 C1876 C 0.24344 0.16483 0.82307
 C1877 C 0.25049 0.18871 0.82414
 C1878 C 0.25619 0.19884 0.84608
 H1879 H 0.23671 0.12878 0.92706
 H1880 H 0.26684 0.21107 0.93286
 H1881 H 0.25872 0.18877 0.96877
 H1882 H 0.26528 0.21404 0.88972
 H1883 H 0.23707 0.13070 0.88477
 H1884 H 0.23560 0.13329 0.84211
 H1885 H 0.23902 0.15650 0.80651
 H1886 H 0.26181 0.21717 0.84724
 C1887 C 0.76637 0.64654 0.43620
 C1888 C 0.77054 0.65949 0.41585
 C1889 C 0.77909 0.68290 0.41761
 C1890 C 0.78429 0.69245 0.43986
 C1891 C 0.77980 0.67941 0.46019
 C1892 C 0.77009 0.65671 0.45849
 C1893 C 0.78154 0.69651 0.39723
 C1894 C 0.77521 0.68703 0.37525
 C1895 C 0.76735 0.66330 0.37363
 C1896 C 0.76525 0.64967 0.39387
 C1897 C 0.76112 0.65371 0.35185
 C1898 C 0.76199 0.66762 0.33184
 C1899 C 0.76911 0.69147 0.33310
 C1900 C 0.77606 0.70096 0.35494
 H1901 H 0.75920 0.62882 0.43478
 H1902 H 0.79104 0.71030 0.44159
 H1903 H 0.78279 0.68752 0.47722
 H1904 H 0.78771 0.71464 0.39855
 H1905 H 0.75879 0.63163 0.39259
 H1906 H 0.75518 0.63552 0.35034
 H1907 H 0.75665 0.65971 0.31537
 H1908 H 0.78180 0.71924 0.35622
 C1909 C 0.24434 0.86590 0.44604
 C1910 C 0.25075 0.85193 0.42625
 C1911 C 0.25541 0.82728 0.42872
 C1912 C 0.25463 0.81732 0.45116
 C1913 C 0.24857 0.83149 0.47084
 C1914 C 0.24282 0.85569 0.46835
 C1915 C 0.26038 0.81299 0.40871
 C1916 C 0.26099 0.82311 0.38631
 C1917 C 0.25737 0.84797 0.38408
 C1918 C 0.25217 0.86218 0.40402
 C1919 C 0.25859 0.85820 0.36185
 C1920 C 0.26264 0.84390 0.34187
 C1921 C 0.26530 0.81903 0.34364
 C1922 C 0.26475 0.80878 0.36605
 H1923 H 0.24030 0.88471 0.44408
 H1924 H 0.25836 0.79851 0.45344
 H1925 H 0.24755 0.82335 0.48789
 H1926 H 0.26346 0.79398 0.41053
 H1927 H 0.24891 0.88116 0.40218
 H1928 H 0.25601 0.87724 0.35985
 H1929 H 0.26284 0.85227 0.32490
 H1930 H 0.26695 0.78964 0.36768
 C1931 C 0.74815 0.35161 0.93359
 C1932 C 0.75135 0.33691 0.91379
 C1933 C 0.76104 0.31385 0.91596
 C1934 C 0.76857 0.30653 0.93810
 C1935 C 0.76583 0.32168 0.95790
 C1936 C 0.75472 0.34411 0.95604
 C1937 C 0.76292 0.29870 0.89599
 C1938 C 0.75569 0.30678 0.87393
 C1939 C 0.74712 0.33045 0.87194
 C1940 C 0.74482 0.34519 0.89183
 C1941 C 0.74076 0.33911 0.85008
 C1942 C 0.74251 0.32446 0.83022
 C1943 C 0.75020 0.30068 0.83184
 C1944 C 0.75679 0.29181 0.85379
 H1945 H 0.74109 0.36939 0.93115
 H1946 H 0.77637 0.28901 0.94016
 H1947 H 0.77125 0.31522 0.97475
 H1948 H 0.76993 0.28077 0.89761
 H1949 H 0.73778 0.36313 0.89022
 H1950 H 0.73432 0.35725 0.84833
 H1951 H 0.73720 0.33157 0.81356
 H1952 H 0.76291 0.27351 0.85508
 C1953 C 0.84248 0.44953 0.25101
 C1954 C 0.82971 0.42899 0.25486
 C1955 C 0.83271 0.41616 0.27576
 C1956 C 0.84746 0.42504 0.29307
 C1957 C 0.86026 0.44557 0.28899
 C1958 C 0.85839 0.45733 0.26761
 C1959 C 0.82164 0.39428 0.27855
 C1960 C 0.80771 0.38517 0.26066
 C1961 C 0.80388 0.39871 0.24031
 C1962 C 0.81489 0.42051 0.23756
 C1963 C 0.78944 0.38999 0.22275
 C1964 C 0.77918 0.36783 0.22508
 C1965 C 0.78356 0.35388 0.24477
 C1966 C 0.79775 0.36262 0.26259
 H1967 H 0.84105 0.45876 0.23452
 H1968 H 0.84984 0.41558 0.30928
 H1969 H 0.87264 0.45137 0.30185
 H1970 H 0.82434 0.38409 0.29429
 H1971 H 0.81243 0.43056 0.22168
 H1972 H 0.78622 0.40022 0.20715
 H1973 H 0.76820 0.36131 0.21123
 H1974 H 0.80082 0.35197 0.27796
 C1975 C 0.36939 0.93536 0.76554
 C1976 C 0.35317 0.91712 0.76685
 C1977 C 0.32975 0.92275 0.77194
 C1978 C 0.32323 0.94669 0.77645
 C1979 C 0.33953 0.96488 0.77466
 C1980 C 0.36259 0.95943 0.76846
 C1981 C 0.31330 0.90447 0.77182
 C1982 C 0.32007 0.88072 0.76645
 C1983 C 0.34368 0.87529 0.76183
 C1984 C 0.36001 0.89344 0.76218
 C1985 C 0.35068 0.85178 0.75666
 C1986 C 0.33455 0.83365 0.75605
 C1987 C 0.31096 0.83856 0.76044
 C1988 C 0.30376 0.86226 0.76553
 H1989 H 0.38725 0.93087 0.76121
 H1990 H 0.30539 0.95142 0.78053
 H1991 H 0.33382 0.98322 0.77691
 H1992 H 0.29527 0.90878 0.77548
 H1993 H 0.37803 0.88918 0.75832
 H1994 H 0.36869 0.84738 0.75305
 H1995 H 0.34059 0.81565 0.75193
 H1996 H 0.28565 0.86624 0.76910
 C1997 C 0.16450 0.95266 0.24519
 C1998 C 0.17283 0.92908 0.24755
 C1999 C 0.15887 0.90966 0.24089
 C2000 C 0.13667 0.91408 0.23253
 C2001 C 0.12851 0.93744 0.23031
 C2002 C 0.14243 0.95702 0.23614
 C2003 C 0.16733 0.88614 0.24253
 C2004 C 0.18966 0.88167 0.25075
 C2005 C 0.20343 0.90108 0.25784
 C2006 C 0.19496 0.92459 0.25622
 C2007 C 0.22562 0.89670 0.26622
 C2008 C 0.23435 0.87345 0.26710
 C2009 C 0.22114 0.85387 0.25958
 C2010 C 0.19857 0.85816 0.25169
 H2011 H 0.17534 0.96753 0.24990
 H2012 H 0.12559 0.89946 0.22765
 H2013 H 0.11107 0.94008 0.22417
 H2014 H 0.15663 0.87135 0.23719
 H2015 H 0.20569 0.93938 0.26147
 H2016 H 0.23637 0.91131 0.27187
 H2017 H 0.25171 0.87091 0.27351
 H2018 H 0.18814 0.84335 0.24591
 C2019 C 0.65691 0.44376 0.75828
 C2020 C 0.67025 0.42291 0.75990
 C2021 C 0.69462 0.42400 0.75868
 C2022 C 0.70514 0.44636 0.75684
 C2023 C 0.69155 0.46718 0.75485
 C2024 C 0.66740 0.46577 0.75484
 C2025 C 0.70785 0.40270 0.75842
 C2026 C 0.69686 0.38047 0.75880
 C2027 C 0.67246 0.37977 0.76062
 C2028 C 0.65940 0.40092 0.76149
 C2029 C 0.66130 0.35787 0.76079
 C2030 C 0.67401 0.33673 0.75840
 C2031 C 0.69823 0.33693 0.75596
 C2032 C 0.70967 0.35893 0.75671
 H2033 H 0.63820 0.44278 0.75848
 H2034 H 0.72378 0.44764 0.75602
 H2035 H 0.69984 0.48413 0.75223
 H2036 H 0.72653 0.40340 0.75709
 H2037 H 0.64069 0.40023 0.76248
 H2038 H 0.64264 0.35709 0.76232
 H2039 H 0.66470 0.32012 0.75836
 H2040 H 0.72832 0.35932 0.75498
 C2041 C 0.65079 0.57389 0.74822
 C2042 C 0.66374 0.59473 0.74919
 C2043 C 0.68770 0.59322 0.75348
 C2044 C 0.69808 0.57088 0.75757
 C2045 C 0.68495 0.55015 0.75667
 C2046 C 0.66139 0.55149 0.75144
 C2047 C 0.70088 0.61400 0.75332
 C2048 C 0.69032 0.63622 0.74915
 C2049 C 0.66621 0.63775 0.74562
 C2050 C 0.65310 0.61697 0.74555
 C2051 C 0.65561 0.66007 0.74215
 C2052 C 0.66878 0.68072 0.74210
 C2053 C 0.69279 0.67931 0.74504
 C2054 C 0.70347 0.65698 0.74852
 H2055 H 0.63246 0.57504 0.74466
 H2056 H 0.71639 0.56941 0.76106
 H2057 H 0.69336 0.53301 0.75920
 H2058 H 0.71933 0.61287 0.75630
 H2059 H 0.63466 0.61809 0.74250
 H2060 H 0.63714 0.66155 0.73955
 H2061 H 0.66026 0.69779 0.73946
 H2062 H 0.72196 0.65585 0.75120
 C2063 C 0.14506 0.06758 0.24868
 C2064 C 0.15890 0.08767 0.25095
 C2065 C 0.18320 0.08495 0.25014
 C2066 C 0.19314 0.06192 0.24807
 C2067 C 0.17909 0.04194 0.24531
 C2068 C 0.15503 0.04482 0.24478
 C2069 C 0.19704 0.10532 0.25053
 C2070 C 0.18678 0.12826 0.25123
 C2071 C 0.16247 0.13081 0.25268
 C2072 C 0.14871 0.11050 0.25278
 C2073 C 0.15227 0.15368 0.25340
 C2074 C 0.16596 0.17392 0.25213
 C2075 C 0.19011 0.17168 0.25008
 C2076 C 0.20041 0.14870 0.24996
 H2077 H 0.12641 0.06977 0.24863
 H2078 H 0.21174 0.05948 0.24760
 H2079 H 0.18699 0.02448 0.24240
 H2080 H 0.21569 0.10334 0.24951
 H2081 H 0.13003 0.11248 0.25345
 H2082 H 0.13366 0.15590 0.25458
 H2083 H 0.15757 0.19133 0.25237
 H2084 H 0.21903 0.14666 0.24866
 C2085 C 0.36640 0.06414 0.74677
 C2086 C 0.35082 0.08357 0.74779
 C2087 C 0.32965 0.08167 0.76017
 C2088 C 0.32468 0.06034 0.77163
 C2089 C 0.34032 0.04098 0.77046
 C2090 C 0.36118 0.04249 0.75770
 C2091 C 0.31389 0.10108 0.76083
 C2092 C 0.31912 0.12235 0.74925
 C2093 C 0.34046 0.12415 0.73708
 C2094 C 0.35612 0.10481 0.73643
 C2095 C 0.34591 0.14531 0.72573
 C2096 C 0.33047 0.16465 0.72643
 C2097 C 0.30911 0.16329 0.73837
 C2098 C 0.30348 0.14192 0.74969
 H2099 H 0.38270 0.06601 0.73748
 H2100 H 0.30860 0.05854 0.78134
 H2101 H 0.33577 0.02472 0.77916
 H2102 H 0.29760 0.09961 0.77028
 H2103 H 0.37242 0.10626 0.72698
 H2104 H 0.36219 0.14695 0.71633
 H2105 H 0.33529 0.18076 0.71748
 H2106 H 0.28717 0.14063 0.75911
 C2107 C 0.87270 0.56202 0.25278
 C2108 C 0.85925 0.58287 0.25467
 C2109 C 0.83680 0.58204 0.26466
 C2110 C 0.82844 0.56035 0.27301
 C2111 C 0.84196 0.53953 0.27082
 C2112 C 0.86397 0.54016 0.26028
 C2113 C 0.82300 0.60279 0.26576
 C2114 C 0.83133 0.62420 0.25675
 C2115 C 0.85390 0.62505 0.24708
 C2116 C 0.86778 0.60439 0.24623
 C2117 C 0.86213 0.64649 0.23813
 C2118 C 0.84800 0.66691 0.23849
 C2119 C 0.82542 0.66619 0.24778
 C2120 C 0.81729 0.64474 0.25705
 H2121 H 0.88996 0.56278 0.24521
 H2122 H 0.81131 0.55942 0.28079
 H2123 H 0.83495 0.52283 0.27669
 H2124 H 0.80570 0.60218 0.27325
 H2125 H 0.88504 0.60496 0.23862
 H2126 H 0.87941 0.64743 0.23070
 H2127 H 0.85472 0.68321 0.23132
 H2128 H 0.79999 0.64393 0.26448
 C2129 C 0.93126 0.26718 0.16043
 C2130 C 0.91014 0.27258 0.17163
 C2131 C 0.90969 0.27927 0.19562
 C2132 C 0.93063 0.28149 0.20763
 C2133 C 0.95169 0.27570 0.19631
 C2134 C 0.95199 0.26771 0.17291
 C2135 C 0.88833 0.28261 0.20732
 C2136 C 0.86757 0.27872 0.19542
 C2137 C 0.86818 0.27278 0.17124
 C2138 C 0.88945 0.27011 0.15943
 C2139 C 0.84754 0.26864 0.15942
 C2140 C 0.82648 0.26918 0.17163
 C2141 C 0.82562 0.27414 0.19586
 C2142 C 0.84625 0.27961 0.20750
 H2143 H 0.93152 0.26143 0.14218
 H2144 H 0.93064 0.28680 0.22597
 H2145 H 0.96757 0.27633 0.20610
 H2146 H 0.88789 0.28725 0.22586
 H2147 H 0.88991 0.26504 0.14099
 H2148 H 0.84774 0.26423 0.14085
 H2149 H 0.81090 0.26516 0.16214
 H2150 H 0.84591 0.28352 0.22617
 C2151 C 0.43608 0.74805 0.65975
 C2152 C 0.41562 0.75401 0.67200
 C2153 C 0.41664 0.76373 0.69497
 C2154 C 0.43828 0.76824 0.70485
 C2155 C 0.45866 0.76222 0.69244
 C2156 C 0.45765 0.75147 0.67012
 C2157 C 0.39608 0.76812 0.70783
 C2158 C 0.37461 0.76271 0.69800
 C2159 C 0.37371 0.75382 0.67469
 C2160 C 0.39418 0.74965 0.66182
 C2161 C 0.35235 0.74858 0.66479
 C2162 C 0.33205 0.75124 0.67808
 C2163 C 0.33266 0.75918 0.70158
 C2164 C 0.35406 0.76538 0.71128
 H2165 H 0.43523 0.74020 0.64229
 H2166 H 0.43943 0.77586 0.72236
 H2167 H 0.47518 0.76505 0.70064
 H2168 H 0.39682 0.77514 0.72563
 H2169 H 0.39346 0.74238 0.64411
 H2170 H 0.35138 0.74191 0.64690
 H2171 H 0.31589 0.74642 0.67007
 H2172 H 0.35482 0.77173 0.72929
 C2173 C 0.43333 0.23892 0.83957
 C2174 C 0.41358 0.24289 0.82634
 C2175 C 0.41577 0.24790 0.80222
 C2176 C 0.43791 0.24976 0.79204
 C2177 C 0.45762 0.24592 0.80551
 C2178 C 0.45533 0.23987 0.82915
 C2179 C 0.39583 0.25056 0.78872
 C2180 C 0.37385 0.24830 0.79913
 C2181 C 0.37184 0.24412 0.82346
 C2182 C 0.39169 0.24144 0.83688
 C2183 C 0.34997 0.24227 0.83398
 C2184 C 0.33018 0.24401 0.82048
 C2185 C 0.33189 0.24745 0.79618
 C2186 C 0.35382 0.24982 0.78562
 H2187 H 0.43163 0.23476 0.85801
 H2188 H 0.43996 0.25381 0.77363
 H2189 H 0.47458 0.24691 0.79736
 H2190 H 0.39743 0.25401 0.77012
 H2191 H 0.39011 0.23783 0.85545
 H2192 H 0.34817 0.23917 0.85260
 H2193 H 0.31351 0.24205 0.82903
 H2194 H 0.35531 0.25269 0.76692
 C2195 C 0.95155 0.73916 0.34543
 C2196 C 0.93108 0.74502 0.33392
 C2197 C 0.93168 0.76035 0.31457
 C2198 C 0.95270 0.77076 0.30810
 C2199 C 0.97298 0.76562 0.32037
 C2200 C 0.97284 0.74913 0.33874
 C2201 C 0.91128 0.76491 0.30212
 C2202 C 0.89024 0.75494 0.30939
 C2203 C 0.88958 0.74090 0.32976
 C2204 C 0.91001 0.73575 0.34164
 C2205 C 0.86850 0.73195 0.33783
 C2206 C 0.84827 0.73625 0.32551
 C2207 C 0.84881 0.74905 0.30460
 C2208 C 0.86984 0.75854 0.29665
 H2209 H 0.95056 0.72746 0.36032
 H2210 H 0.95349 0.78281 0.29347
 H2211 H 0.98892 0.77359 0.31455
 H2212 H 0.91179 0.77616 0.28685
 H2213 H 0.90952 0.72445 0.35689
 H2214 H 0.86770 0.72138 0.35354
 H2215 H 0.83227 0.72869 0.33181
 H2216 H 0.87028 0.76860 0.28059
 C2217 C 0.07695 0.75410 0.35067
 C2218 C 0.09748 0.76020 0.33911
 C2219 C 0.09675 0.76854 0.31590
 C2220 C 0.07520 0.77160 0.30512
 C2221 C 0.05474 0.76525 0.31680
 C2222 C 0.05558 0.75573 0.33934
 C2223 C 0.11757 0.77293 0.30374
 C2224 C 0.13901 0.76873 0.31446
 C2225 C 0.13949 0.76110 0.33794
 C2226 C 0.11877 0.75711 0.35015
 C2227 C 0.16071 0.75689 0.34873
 C2228 C 0.18138 0.75931 0.33619
 C2229 C 0.18135 0.76611 0.31257
 C2230 C 0.15998 0.77130 0.30195
 H2231 H 0.07766 0.74718 0.36828
 H2232 H 0.07424 0.77817 0.28741
 H2233 H 0.03841 0.76671 0.30784
 H2234 H 0.11709 0.77892 0.28577
 H2235 H 0.11924 0.75083 0.36802
 H2236 H 0.16133 0.75118 0.36676
 H2237 H 0.19742 0.75537 0.34496
 H2238 H 0.15959 0.77663 0.28379
 C2239 C 0.55988 0.24312 0.84525
 C2240 C 0.58022 0.24845 0.83313
 C2241 C 0.57914 0.25635 0.80977
 C2242 C 0.55752 0.25953 0.79928
 C2243 C 0.53725 0.25395 0.81151
 C2244 C 0.53839 0.24510 0.83431
 C2245 C 0.59967 0.26022 0.79715
 C2246 C 0.62115 0.25579 0.80752
 C2247 C 0.62210 0.24849 0.83109
 C2248 C 0.60163 0.24516 0.84382
 C2249 C 0.64351 0.24387 0.84134
 C2250 C 0.66383 0.24547 0.82811
 C2251 C 0.66313 0.25196 0.80443
 C2252 C 0.64169 0.25770 0.79443
 H2253 H 0.56080 0.23692 0.86311
 H2254 H 0.55635 0.26573 0.78144
 H2255 H 0.52077 0.25573 0.80290
 H2256 H 0.59894 0.26590 0.77910
 H2257 H 0.60236 0.23918 0.86179
 H2258 H 0.64450 0.23839 0.85943
 H2259 H 0.68008 0.24117 0.83634
 H2260 H 0.64085 0.26280 0.77622
 C2261 C 0.56110 0.75473 0.66353
 C2262 C 0.58110 0.76032 0.67592
 C2263 C 0.58045 0.76070 0.70072
 C2264 C 0.55955 0.75643 0.71262
 C2265 C 0.53970 0.75085 0.70008
 C2266 C 0.54057 0.74948 0.67558
 C2267 C 0.60083 0.76459 0.71316
 C2268 C 0.62184 0.76786 0.70112
 C2269 C 0.62229 0.76837 0.67636
 C2270 C 0.60188 0.76472 0.66391
 C2271 C 0.64330 0.77179 0.66443
 C2272 C 0.66386 0.77365 0.67684
 C2273 C 0.66379 0.77208 0.70140
 C2274 C 0.64255 0.76979 0.71344
 H2275 H 0.56161 0.75370 0.64453
 H2276 H 0.55872 0.75680 0.73161
 H2277 H 0.52389 0.74683 0.70948
 H2278 H 0.60045 0.76438 0.73217
 H2279 H 0.60231 0.76460 0.64490
 H2280 H 0.64393 0.77237 0.64546
 H2281 H 0.67993 0.77540 0.66712
 H2282 H 0.64219 0.76877 0.73240
 C2283 C 0.05831 0.25847 0.15977
 C2284 C 0.07967 0.26190 0.17040
 C2285 C 0.08037 0.26863 0.19436
 C2286 C 0.05958 0.27286 0.20691
 C2287 C 0.03829 0.26930 0.19611
 C2288 C 0.03760 0.26136 0.17274
 C2289 C 0.10177 0.27029 0.20547
 C2290 C 0.12238 0.26511 0.19294
 C2291 C 0.12166 0.25931 0.16876
 C2292 C 0.10030 0.25785 0.15762
 C2293 C 0.14232 0.25446 0.15628
 C2294 C 0.16350 0.25453 0.16778
 C2295 C 0.16432 0.25929 0.19199
 C2296 C 0.14368 0.26503 0.20435
 H2297 H 0.05776 0.25277 0.14153
 H2298 H 0.05980 0.27824 0.22523
 H2299 H 0.02244 0.27175 0.20623
 H2300 H 0.10236 0.27496 0.22397
 H2301 H 0.09969 0.25289 0.13918
 H2302 H 0.14207 0.25013 0.13770
 H2303 H 0.17914 0.25013 0.15789
 H2304 H 0.14413 0.26909 0.22298
 C2305 C -0.09649 0.99359 0.80711
 C2306 C -0.08600 0.99023 0.82859
 C2307 C -0.06243 0.98349 0.82921
 C2308 C -0.04992 0.97985 0.80822
 C2309 C -0.06047 0.98368 0.78672
 C2310 C -0.08381 0.99102 0.78597
 C2311 C -0.05161 0.98126 0.85078
 C2312 C -0.06391 0.98661 0.87157
 C2313 C -0.08758 0.99308 0.87097
 C2314 C -0.09862 0.99440 0.84943
 C2315 C -0.09953 0.99903 0.89186
 C2316 C -0.08781 0.99966 0.91307
 C2317 C -0.06412 0.99395 0.91364
 C2318 C -0.05252 0.98668 0.89287
 H2319 H -0.11457 0.99897 0.80674
 H2320 H -0.03184 0.97454 0.80844
 H2321 H -0.05009 0.98098 0.77105
 H2322 H -0.03342 0.97636 0.85135
 H2323 H -0.11672 0.99964 0.84883
 H2324 H -0.11770 1.00395 0.89168
 H2325 H -0.09716 1.00510 0.92889
 H2326 H -0.03426 0.98208 0.89300
 C2327 C 0.41036 0.49843 0.31541
 C2328 C 0.42383 0.49461 0.33531
 C2329 C 0.44698 0.48654 0.33262
 C2330 C 0.45605 0.48186 0.31013
 C2331 C 0.44250 0.48555 0.29043
 C2332 C 0.41972 0.49473 0.29269
 C2333 C 0.46063 0.48310 0.35244
 C2334 C 0.45144 0.48770 0.37497
 C2335 C 0.42815 0.49541 0.37765
 C2336 C 0.41449 0.49874 0.35784
 C2337 C 0.41897 0.49998 0.40014
 C2338 C 0.43285 0.49753 0.41977
 C2339 C 0.45620 0.49038 0.41737
 C2340 C 0.46526 0.48510 0.39483
 H2341 H 0.39248 0.50411 0.31767
 H2342 H 0.47358 0.47511 0.30775
 H2343 H 0.44992 0.48074 0.27350
 H2344 H 0.47845 0.47705 0.35033
 H2345 H 0.39668 0.50482 0.35995
 H2346 H 0.40114 0.50578 0.40254
 H2347 H 0.42529 0.50157 0.43688
 H2348 H 0.48320 0.47957 0.39266
 C2349 C 0.58707 -0.00129 0.30576
 C2350 C 0.57829 -0.00370 0.32872
 C2351 C 0.59346 -0.00921 0.34717
 C2352 C 0.61711 -0.01182 0.34256
 C2353 C 0.62570 -0.00914 0.31991
 C2354 C 0.61091 -0.00421 0.30108
 C2355 C 0.58486 -0.01189 0.37001
 C2356 C 0.56123 -0.00885 0.37483
 C2357 C 0.54602 -0.00296 0.35654
 C2358 C 0.55461 -0.00054 0.33359
 C2359 C 0.52245 0.00046 0.36156
 C2360 C 0.51403 -0.00201 0.38441
 C2361 C 0.52898 -0.00815 0.40269
 C2362 C 0.55262 -0.01155 0.39772
 H2363 H 0.57530 0.00312 0.29191
 H2364 H 0.62901 -0.01582 0.35650
 H2365 H 0.64418 -0.01100 0.31698
 H2366 H 0.59657 -0.01623 0.38405
 H2367 H 0.54290 0.00386 0.31957
 H2368 H 0.51052 0.00503 0.34781
 H2369 H 0.49569 0.00063 0.38771
 H2370 H 0.56435 -0.01610 0.41166
 C2371 C 0.10655 0.50333 0.81557
 C2372 C 0.09316 0.50537 0.83608
 C2373 C 0.07041 0.51479 0.83520
 C2374 C 0.06171 0.52265 0.81386
 C2375 C 0.07513 0.52033 0.79342
 C2376 C 0.09731 0.50964 0.79385
 C2377 C 0.05672 0.51607 0.85562
 C2378 C 0.06543 0.50767 0.87679
 C2379 C 0.08832 0.49855 0.87766
 C2380 C 0.10211 0.49769 0.85736
 C2381 C 0.09694 0.49001 0.89876
 C2382 C 0.08285 0.48999 0.91874
 C2383 C 0.05993 0.49866 0.91801
 C2384 C 0.05144 0.50781 0.89700
 H2385 H 0.12416 0.49668 0.81664
 H2386 H 0.04451 0.53044 0.81294
 H2387 H 0.06804 0.52690 0.77728
 H2388 H 0.03919 0.52315 0.85495
 H2389 H 0.11961 0.49051 0.85801
 H2390 H 0.11447 0.48305 0.89974
 H2391 H 0.08993 0.48304 0.93476
 H2392 H 0.03382 0.51457 0.89620
 C2393 C 0.10940 0.49933 0.68550
 C2394 C 0.09868 0.49250 0.66455
 C2395 C 0.07960 0.47702 0.66522
 C2396 C 0.07227 0.46774 0.68660
 C2397 C 0.08300 0.47456 0.70728
 C2398 C 0.10116 0.49097 0.70704
 C2399 C 0.06773 0.47158 0.64466
 C2400 C 0.07449 0.48163 0.62341
 C2401 C 0.09417 0.49625 0.62249
 C2402 C 0.10622 0.50151 0.64304
 C2403 C 0.10100 0.50604 0.60114
 C2404 C 0.08778 0.50245 0.58118
 C2405 C 0.06744 0.48902 0.58217
 C2406 C 0.06131 0.47804 0.60326
 H2407 H 0.12345 0.51186 0.68509
 H2408 H 0.05795 0.45554 0.68740
 H2409 H 0.07690 0.46702 0.72353
 H2410 H 0.05278 0.46016 0.64535
 H2411 H 0.12097 0.51318 0.64241
 H2412 H 0.11616 0.51709 0.60003
 H2413 H 0.09306 0.51104 0.56516
 H2414 H 0.04582 0.46746 0.60425
 C2415 C 0.58920 0.99221 0.20470
 C2416 C 0.58020 0.99384 0.18203
 C2417 C 0.59029 1.00947 0.16573
 C2418 C 0.60922 1.02317 0.17239
 C2419 C 0.61821 1.02125 0.19489
 C2420 C 0.60836 1.00575 0.21119
 C2421 C 0.58134 1.01114 0.14305
 C2422 C 0.56236 0.99741 0.13645
 C2423 C 0.55238 0.98170 0.15276
 C2424 C 0.56138 0.97998 0.17537
 C2425 C 0.53334 0.96813 0.14628
 C2426 C 0.52388 0.97047 0.12408
 C2427 C 0.53338 0.98626 0.10776
 C2428 C 0.55293 0.99941 0.11395
 H2429 H 0.58170 0.97997 0.21708
 H2430 H 0.61715 1.03529 0.16019
 H2431 H 0.63284 1.03205 0.19959
 H2432 H 0.58905 1.02320 0.13061
 H2433 H 0.55365 0.96795 0.18783
 H2434 H 0.52554 0.95594 0.15850
 H2435 H 0.50894 0.95998 0.11973
 H2436 H 0.56032 1.01173 0.10158
 C2437 C 0.40395 0.50060 0.18518
 C2438 C 0.41451 0.50460 0.16326
 C2439 C 0.43434 0.51898 0.16184
 C2440 C 0.44271 0.52990 0.18217
 C2441 C 0.43216 0.52585 0.20383
 C2442 C 0.41310 0.51067 0.20569
 C2443 C 0.44580 0.52183 0.14025
 C2444 C 0.43774 0.51042 0.11997
 C2445 C 0.41744 0.49674 0.12123
 C2446 C 0.40596 0.49393 0.14282
 C2447 C 0.40919 0.48566 0.10093
 C2448 C 0.42127 0.48745 0.07973
 C2449 C 0.44199 0.50025 0.07832
 C2450 C 0.44993 0.51204 0.09854
 H2451 H 0.38928 0.48889 0.18636
 H2452 H 0.45766 0.54127 0.18140
 H2453 H 0.43913 0.53452 0.21922
 H2454 H 0.46123 0.53252 0.13932
 H2455 H 0.39065 0.48305 0.14378
 H2456 H 0.39359 0.47524 0.10152
 H2457 H 0.41461 0.47818 0.06453
 H2458 H 0.46574 0.52211 0.09774
 C2459 C -0.09889 -0.00019 0.67716
 C2460 C -0.08903 0.00424 0.65505
 C2461 C -0.06628 0.01300 0.65344
 C2462 C -0.05393 0.01757 0.67385
 C2463 C -0.06385 0.01326 0.69570
 C2464 C -0.08628 0.00406 0.69761
 C2465 C -0.05611 0.01691 0.63147
 C2466 C -0.06830 0.01202 0.61099
 C2467 C -0.09119 0.00365 0.61250
 C2468 C -0.10145 -0.00012 0.63453
 C2469 C -0.10325 -0.00124 0.59191
 C2470 C -0.09249 0.00137 0.57007
 C2471 C -0.06949 0.00903 0.56838
 C2472 C -0.05769 0.01480 0.58900
 H2473 H -0.11616 -0.00728 0.67839
 H2474 H -0.03658 0.02453 0.67294
 H2475 H -0.05399 0.01756 0.71113
 H2476 H -0.03858 0.02340 0.63031
 H2477 H -0.11893 -0.00674 0.63568
 H2478 H -0.12084 -0.00754 0.59270
 H2479 H -0.10210 -0.00312 0.55450
 H2480 H -0.03997 0.02073 0.58804
 C2481 C -0.19517 0.90956 1.00926
 C2482 C -0.17500 0.92295 1.00760
 C2483 C -0.17635 0.94693 1.00048
 C2484 C -0.19784 0.95703 0.99501
 C2485 C -0.21789 0.94361 0.99684
 C2486 C -0.21695 0.91990 1.00465
 C2487 C -0.15617 0.96031 0.99863
 C2488 C -0.13467 0.95000 1.00387
 C2489 C -0.13333 0.92603 1.01111
 C2490 C -0.15349 0.91263 1.01287
 C2491 C -0.11181 0.91583 1.01639
 C2492 C -0.09174 0.92919 1.01438
 C2493 C -0.09280 0.95300 1.00700
 C2494 C -0.11444 0.96328 1.00187
 H2495 H -0.19383 0.89096 1.01398
 H2496 H -0.19914 0.97526 0.98909
 H2497 H -0.23398 0.95183 0.99164
 H2498 H -0.15721 0.97870 0.99305
 H2499 H -0.15246 0.89421 1.01835
 H2500 H -0.11048 0.89749 1.02199
 H2501 H -0.07535 0.92076 1.01842
 H2502 H -0.11561 0.98162 0.99621
 C2503 C 0.32279 0.40459 0.50293
 C2504 C 0.34331 0.41743 0.50170
 C2505 C 0.34280 0.44153 0.49484
 C2506 C 0.32166 0.45225 0.48909
 C2507 C 0.30125 0.43930 0.49031
 C2508 C 0.30142 0.41547 0.49790
 C2509 C 0.36343 0.45434 0.49350
 C2510 C 0.38457 0.44326 0.49893
 C2511 C 0.38491 0.41909 0.50574
 C2512 C 0.36436 0.40637 0.50706
 C2513 C 0.40585 0.40790 0.51113
 C2514 C 0.42634 0.42044 0.50987
 C2515 C 0.42645 0.44453 0.50317
 C2516 C 0.40539 0.45586 0.49766
 H2517 H 0.32354 0.38592 0.50755
 H2518 H 0.32093 0.47057 0.48334
 H2519 H 0.28549 0.44798 0.48477
 H2520 H 0.36304 0.47282 0.48818
 H2521 H 0.36475 0.38785 0.51229
 H2522 H 0.40639 0.38940 0.51635
 H2523 H 0.44219 0.41109 0.51418
 H2524 H 0.40516 0.47436 0.49244
 C2525 C 0.30972 0.59659 -0.00488
 C2526 C 0.32903 0.58121 -0.00511
 C2527 C 0.32726 0.55810 0.00417
 C2528 C 0.30599 0.55081 0.01341
 C2529 C 0.28670 0.56621 0.01337
 C2530 C 0.28814 0.58915 0.00373
 C2531 C 0.34686 0.54292 0.00439
 C2532 C 0.36814 0.55063 -0.00466
 C2533 C 0.36961 0.57370 -0.01422
 C2534 C 0.35014 0.58880 -0.01431
 C2535 C 0.39060 0.58149 -0.02342
 C2536 C 0.41017 0.56680 -0.02292
 C2537 C 0.40931 0.54392 -0.01313
 C2538 C 0.38806 0.53585 -0.00415
 H2539 H 0.31165 0.61458 -0.01119
 H2540 H 0.30433 0.53329 0.02094
 H2541 H 0.27085 0.56021 0.02141
 H2542 H 0.34558 0.52526 0.01172
 H2543 H 0.35144 0.60654 -0.02150
 H2544 H 0.39197 0.59908 -0.03087
 H2545 H 0.42615 0.57366 -0.03001
 H2546 H 0.38706 0.51829 0.00343
 C2547 C -0.21080 0.09846 0.49049
 C2548 C -0.19035 0.08502 0.48847
 C2549 C -0.19126 0.06000 0.48599
 C2550 C -0.21279 0.04897 0.48508
 C2551 C -0.23329 0.06258 0.48651
 C2552 C -0.23273 0.08769 0.48948
 C2553 C -0.17063 0.04652 0.48422
 C2554 C -0.14920 0.05795 0.48442
 C2555 C -0.14846 0.08312 0.48635
 C2556 C -0.16901 0.09645 0.48860
 C2557 C -0.12716 0.09461 0.48592
 C2558 C -0.10667 0.08132 0.48377
 C2559 C -0.10710 0.05629 0.48233
 C2560 C -0.12847 0.04468 0.48266
 H2561 H -0.20973 0.11770 0.49247
 H2562 H -0.21381 0.02977 0.48292
 H2563 H -0.24921 0.05302 0.48498
 H2564 H -0.17126 0.02725 0.48250
 H2565 H -0.16840 0.11574 0.49026
 H2566 H -0.12634 0.11388 0.48730
 H2567 H -0.09042 0.09064 0.48373
 H2568 H -0.12896 0.02538 0.48137
 C2569 C 0.67560 0.07983 0.48337
 C2570 C 0.65296 0.07157 0.48537
 C2571 C 0.63559 0.08613 0.49606
 C2572 C 0.64123 0.10905 0.50412
 C2573 C 0.66394 0.11723 0.50210
 C2574 C 0.68166 0.10255 0.49209
 C2575 C 0.61301 0.07740 0.49863
 C2576 C 0.60775 0.05424 0.49061
 C2577 C 0.62527 0.04001 0.47956
 C2578 C 0.64764 0.04875 0.47696
 C2579 C 0.62029 0.01706 0.47137
 C2580 C 0.59822 0.00802 0.47425
 C2581 C 0.58050 0.02166 0.48543
 C2582 C 0.58540 0.04494 0.49352
 H2583 H 0.68835 0.06844 0.47450
 H2584 H 0.62816 0.12054 0.51239
 H2585 H 0.66752 0.13459 0.50958
 H2586 H 0.59967 0.08849 0.50701
 H2587 H 0.66101 0.03764 0.46864
 H2588 H 0.63353 0.00600 0.46283
 H2589 H 0.59515 -0.00990 0.46777
 H2590 H 0.57194 0.05575 0.50204
 C2591 C 0.19441 0.58195 1.01216
 C2592 C 0.17148 0.57461 1.00968
 C2593 C 0.15430 0.59124 1.00312
 C2594 C 0.16054 0.61481 0.99859
 C2595 C 0.18362 0.62176 1.00018
 C2596 C 0.20095 0.60548 1.00698
 C2597 C 0.13126 0.58394 1.00093
 C2598 C 0.12539 0.56000 1.00450
 C2599 C 0.14284 0.54324 1.01027
 C2600 C 0.16564 0.55073 1.01323
 C2601 C 0.13724 0.51918 1.01286
 C2602 C 0.11454 0.51173 1.00999
 C2603 C 0.09687 0.52826 1.00499
 C2604 C 0.10242 0.55245 1.00226
 H2605 H 0.20709 0.56908 1.01805
 H2606 H 0.14764 0.62779 0.99330
 H2607 H 0.18774 0.63982 0.99553
 H2608 H 0.11800 0.59678 0.99616
 H2609 H 0.17892 0.53786 1.01791
 H2610 H 0.15044 0.50610 1.01711
 H2611 H 0.11066 0.49307 1.01228
 H2612 H 0.08893 0.56529 0.99816
 C2613 C 0.19535 0.40332 0.49118
 C2614 C 0.17357 0.41454 0.49420
 C2615 C 0.17068 0.43315 0.51113
 C2616 C 0.18924 0.43983 0.52507
 C2617 C 0.21076 0.42877 0.52183
 C2618 C 0.21414 0.41080 0.50461
 C2619 C 0.14938 0.44507 0.51369
 C2620 C 0.13084 0.43877 0.49954
 C2621 C 0.13338 0.41989 0.48292
 C2622 C 0.15479 0.40787 0.48033
 C2623 C 0.11446 0.41351 0.46916
 C2624 C 0.09331 0.42583 0.47178
 C2625 C 0.09088 0.44493 0.48795
 C2626 C 0.10977 0.45119 0.50181
 H2627 H 0.19787 0.38947 0.47786
 H2628 H 0.18722 0.45387 0.53826
 H2629 H 0.22487 0.43440 0.53278
 H2630 H 0.14731 0.45946 0.52655
 H2631 H 0.15688 0.39354 0.46742
 H2632 H 0.11600 0.39902 0.45641
 H2633 H 0.07894 0.42060 0.46100
 H2634 H 0.10800 0.46560 0.51466
 C2635 C 0.67594 0.90427 0.00765
 C2636 C 0.65429 0.91474 0.01362
 C2637 C 0.65307 0.93432 0.02961
 C2638 C 0.67325 0.94255 0.03996
 C2639 C 0.69457 0.93213 0.03397
 C2640 C 0.69630 0.91333 0.01731
 C2641 C 0.63179 0.94567 0.03474
 C2642 C 0.61159 0.93784 0.02403
 C2643 C 0.61258 0.91783 0.00860
 C2644 C 0.63390 0.90637 0.00351
 C2645 C 0.59225 0.90993 -0.00184
 C2646 C 0.57132 0.92216 0.00233
 C2647 C 0.57025 0.94263 0.01697
 C2648 C 0.59049 0.95009 0.02810
 H2649 H 0.67698 0.88968 -0.00502
 H2650 H 0.67259 0.95727 0.05253
 H2651 H 0.70979 0.93892 0.04244
 H2652 H 0.63104 0.96090 0.04673
 H2653 H 0.63468 0.89127 -0.00862
 H2654 H 0.59261 0.89454 -0.01360
 H2655 H 0.55607 0.91592 -0.00651
 H2656 H 0.58997 0.96571 0.03957
 C2657 C -0.01215 0.80956 0.90583
 C2658 C -0.01284 0.82994 0.92018
 C2659 C -0.00823 0.82820 0.94432
 C2660 C -0.00340 0.80567 0.95366
 C2661 C -0.00285 0.78522 0.93912
 C2662 C -0.00728 0.78696 0.91496
 C2663 C -0.00807 0.84904 0.95844
 C2664 C -0.01231 0.87147 0.94848
 C2665 C -0.01731 0.87277 0.92430
 C2666 C -0.01765 0.85208 0.91042
 C2667 C -0.02149 0.89482 0.91408
 C2668 C -0.02003 0.91563 0.92740
 C2669 C -0.01447 0.91492 0.95132
 C2670 C -0.01114 0.89270 0.96200
 H2671 H -0.01505 0.81133 0.88719
 H2672 H 0.00030 0.80391 0.97211
 H2673 H 0.00160 0.76838 0.94690
 H2674 H -0.00426 0.84786 0.97694
 H2675 H -0.02127 0.85326 0.89186
 H2676 H -0.02553 0.89602 0.89564
 H2677 H -0.02319 0.93245 0.91883
 H2678 H -0.00695 0.89200 0.98043
 C2679 C 0.49044 0.29826 0.40252
 C2680 C 0.49128 0.31848 0.41708
 C2681 C 0.49493 0.31600 0.44133
 C2682 C 0.49734 0.29305 0.45054
 C2683 C 0.49632 0.27282 0.43583
 C2684 C 0.49274 0.27519 0.41159
 C2685 C 0.49655 0.33649 0.45574
 C2686 C 0.49469 0.35933 0.44603
 C2687 C 0.49062 0.36152 0.42174
 C2688 C 0.48884 0.34114 0.40751
 C2689 C 0.48885 0.38409 0.41185
 C2690 C 0.49188 0.40443 0.42564
 C2691 C 0.49658 0.40268 0.44967
 C2692 C 0.49743 0.38004 0.45995
 H2693 H 0.48822 0.30046 0.38383
 H2694 H 0.50030 0.29075 0.46908
 H2695 H 0.49885 0.25557 0.44360
 H2696 H 0.49964 0.33468 0.47433
 H2697 H 0.48595 0.34293 0.38887
 H2698 H 0.48557 0.38602 0.39332
 H2699 H 0.49077 0.42166 0.41736
 H2700 H 0.50104 0.37852 0.47846
 C2701 C 0.00253 0.29807 0.58902
 C2702 C 0.00316 0.32199 0.58190
 C2703 C -0.00590 0.34031 0.59690
 C2704 C -0.01515 0.33458 0.61876
 C2705 C -0.01531 0.31098 0.62587
 C2706 C -0.00695 0.29229 0.61102
 C2707 C -0.00521 0.36417 0.59005
 C2708 C 0.00457 0.37009 0.56841
 C2709 C 0.01384 0.35188 0.55342
 C2710 C 0.01306 0.32795 0.56024
 C2711 C 0.02361 0.35792 0.53179
 C2712 C 0.02380 0.38169 0.52487
 C2713 C 0.01432 0.39994 0.53949
 C2714 C 0.00499 0.39397 0.56143
 H2715 H 0.01013 0.28428 0.57774
 H2716 H -0.02182 0.34842 0.63063
 H2717 H -0.02166 0.30738 0.64337
 H2718 H -0.01223 0.37812 0.60161
 H2719 H 0.02014 0.31401 0.54871
 H2720 H 0.03088 0.34425 0.52010
 H2721 H 0.03122 0.38572 0.50789
 H2722 H -0.00248 0.40780 0.57283
 C2723 C 0.50817 0.80537 0.10849
 C2724 C 0.50554 0.82604 0.09539
 C2725 C 0.50865 0.82499 0.07081
 C2726 C 0.51446 0.80310 0.05984
 C2727 C 0.51655 0.78236 0.07302
 C2728 C 0.51287 0.78314 0.09751
 C2729 C 0.50583 0.84579 0.05770
 C2730 C 0.49951 0.86747 0.06893
 C2731 C 0.49619 0.86826 0.09355
 C2732 C 0.49943 0.84764 0.10661
 C2733 C 0.48959 0.88967 0.10481
 C2734 C 0.48639 0.91026 0.09190
 C2735 C 0.48989 0.90995 0.06743
 C2736 C 0.49644 0.88839 0.05601
 H2737 H 0.50600 0.80646 0.12739
 H2738 H 0.51722 0.80198 0.04103
 H2739 H 0.52125 0.76601 0.06381
 H2740 H 0.50832 0.84507 0.03882
 H2741 H 0.49692 0.84835 0.12549
 H2742 H 0.48694 0.89053 0.12365
 H2743 H 0.48149 0.92656 0.10126
 H2744 H 0.49919 0.88787 0.03718
 C2745 C 0.50149 0.68659 0.08784
 C2746 C 0.50108 0.66302 0.07933
 C2747 C 0.51310 0.64490 0.09129
 C2748 C 0.52526 0.65076 0.11165
 C2749 C 0.52585 0.67442 0.11984
 C2750 C 0.51419 0.69259 0.10790
 C2751 C 0.51294 0.62134 0.08256
 C2752 C 0.50119 0.61579 0.06183
 C2753 C 0.48923 0.63399 0.04989
 C2754 C 0.48908 0.65743 0.05882
 C2755 C 0.47783 0.62851 0.02901
 C2756 C 0.47842 0.60524 0.01987
 C2757 C 0.49022 0.58695 0.03154
 C2758 C 0.50145 0.59238 0.05267
 H2759 H 0.49185 0.70025 0.07878
 H2760 H 0.53460 0.63711 0.12104
 H2761 H 0.53588 0.67855 0.13521
 H2762 H 0.52218 0.60741 0.09170
 H2763 H 0.47993 0.67138 0.04962
 H2764 H 0.46860 0.64226 0.01965
 H2765 H 0.46953 0.60156 0.00366
 H2766 H 0.51075 0.57850 0.06181
 C2767 C -0.01064 0.19548 0.58261
 C2768 C -0.01009 0.17235 0.57260
 C2769 C 0.00338 0.15417 0.58293
 C2770 C 0.01630 0.15952 0.60287
 C2771 C 0.01548 0.18246 0.61283
 C2772 C 0.00186 0.20058 0.60300
 C2773 C 0.00353 0.13091 0.57333
 C2774 C -0.00967 0.12552 0.55353
 C2775 C -0.02296 0.14378 0.54311
 C2776 C -0.02310 0.16702 0.55269
 C2777 C -0.03597 0.13850 0.52323
 C2778 C -0.03576 0.11542 0.51365
 C2779 C -0.02269 0.09700 0.52380
 C2780 C -0.00974 0.10221 0.54392
 H2781 H -0.02144 0.20923 0.57505
 H2782 H 0.02683 0.14587 0.61095
 H2783 H 0.02550 0.18603 0.62835
 H2784 H 0.01380 0.11699 0.58135
 H2785 H -0.03343 0.18093 0.54472
 H2786 H -0.04627 0.15224 0.51502
 H2787 H -0.04601 0.11197 0.49826
 H2788 H 0.00052 0.08825 0.55186
 C2789 C 0.50174 0.17669 0.41188
 C2790 C 0.49940 0.15282 0.41819
 C2791 C 0.48575 0.13736 0.40454
 C2792 C 0.47498 0.14615 0.38447
 C2793 C 0.47733 0.17009 0.37834
 C2794 C 0.49047 0.18562 0.39218
 C2795 C 0.48290 0.11358 0.41138
 C2796 C 0.49344 0.10520 0.43178
 C2797 C 0.50731 0.12077 0.44513
 C2798 C 0.51027 0.14435 0.43821
 C2799 C 0.51786 0.11266 0.46542
 C2800 C 0.51451 0.08943 0.47278
 C2801 C 0.50054 0.07366 0.46001
 C2802 C 0.49019 0.08164 0.43928
 H2803 H 0.51228 0.18841 0.42243
 H2804 H 0.46446 0.13461 0.37374
 H2805 H 0.46833 0.17659 0.36316
 H2806 H 0.47229 0.10174 0.40103
 H2807 H 0.52079 0.15624 0.44862
 H2808 H 0.52861 0.12435 0.47576
 H2809 H 0.52296 0.08388 0.48864
 H2810 H 0.47946 0.06971 0.42920
 C2811 C 0.01396 0.69009 0.91432
 C2812 C 0.01493 0.66594 0.92028
 C2813 C 0.00269 0.64902 0.90686
 C2814 C -0.00982 0.65652 0.88736
 C2815 C -0.01073 0.68065 0.88158
 C2816 C 0.00083 0.69765 0.89521
 C2817 C 0.00273 0.62503 0.91347
 C2818 C 0.01457 0.61783 0.93353
 C2819 C 0.02724 0.63468 0.94660
 C2820 C 0.02751 0.65858 0.93977
 C2821 C 0.03889 0.62748 0.96671
 C2822 C 0.03721 0.60406 0.97442
 C2823 C 0.02403 0.58732 0.96203
 C2824 C 0.01326 0.59423 0.94119
 H2825 H 0.02329 0.70304 0.92468
 H2826 H -0.01926 0.64380 0.87686
 H2827 H -0.02105 0.68609 0.86687
 H2828 H -0.00694 0.61211 0.90339
 H2829 H 0.03696 0.67155 0.95000
 H2830 H 0.04880 0.64013 0.97684
 H2831 H 0.04585 0.59920 0.99040
 H2832 H 0.00300 0.58156 0.93145
 C2833 C 0.24613 0.64627 0.94206
 C2834 C 0.24346 0.66094 0.92257
 C2835 C 0.23755 0.68531 0.92591
 C2836 C 0.23379 0.69432 0.94884
 C2837 C 0.23669 0.67953 0.96825
 C2838 C 0.24345 0.65552 0.96507
 C2839 C 0.23588 0.70021 0.90631
 C2840 C 0.24025 0.69100 0.88350
 C2841 C 0.24577 0.66649 0.88035
 C2842 C 0.24720 0.65164 0.89984
 C2843 C 0.25012 0.65718 0.85776
 C2844 C 0.24943 0.67200 0.83836
 C2845 C 0.24434 0.69653 0.84103
 C2846 C 0.23954 0.70587 0.86379
 H2847 H 0.25066 0.62759 0.93926
 H2848 H 0.22909 0.71292 0.95179
 H2849 H 0.23444 0.68706 0.98574
 H2850 H 0.23155 0.71898 0.90885
 H2851 H 0.25168 0.63289 0.89733
 H2852 H 0.25430 0.63842 0.85508
 H2853 H 0.25313 0.66418 0.82121
 H2854 H 0.23550 0.72470 0.86624
 C2855 C 0.73583 0.14840 0.43153
 C2856 C 0.73460 0.16434 0.41308
 C2857 C 0.72167 0.18573 0.41563
 C2858 C 0.71005 0.19059 0.43704
 C2859 C 0.71174 0.17464 0.45577
 C2860 C 0.72516 0.15344 0.45350
 C2861 C 0.72067 0.20165 0.39673
 C2862 C 0.73272 0.19626 0.37555
 C2863 C 0.74574 0.17473 0.37351
 C2864 C 0.74644 0.15894 0.39211
 C2865 C 0.75796 0.16908 0.35284
 C2866 C 0.75715 0.18437 0.33400
 C2867 C 0.74405 0.20572 0.33524
 C2868 C 0.73198 0.21175 0.35628
 H2869 H 0.74480 0.13162 0.42811
 H2870 H 0.69994 0.20690 0.43944
 H2871 H 0.70322 0.17961 0.47214
 H2872 H 0.71066 0.21810 0.39850
 H2873 H 0.75642 0.14244 0.39031
 H2874 H 0.76808 0.15269 0.35117
 H2875 H 0.76678 0.17924 0.31826
 H2876 H 0.72176 0.22811 0.35750
 C2877 C 0.25793 0.36641 0.43091
 C2878 C 0.25530 0.35194 0.41090
 C2879 C 0.24755 0.32831 0.41326
 C2880 C 0.24183 0.31990 0.43562
 C2881 C 0.24448 0.33452 0.45550
 C2882 C 0.25307 0.35766 0.45336
 C2883 C 0.24592 0.31346 0.39329
 C2884 C 0.25181 0.32205 0.37103
 C2885 C 0.25893 0.34593 0.36871
 C2886 C 0.26068 0.36068 0.38864
 C2887 C 0.26429 0.35468 0.34645
 C2888 C 0.26275 0.33991 0.32662
 C2889 C 0.25614 0.31602 0.32870
 C2890 C 0.25071 0.30718 0.35102
 H2891 H 0.26404 0.38447 0.42901
 H2892 H 0.23570 0.30190 0.43776
 H2893 H 0.24058 0.32743 0.47260
 H2894 H 0.24024 0.29523 0.39509
 H2895 H 0.26644 0.37889 0.38686
 H2896 H 0.26969 0.37295 0.34438
 H2897 H 0.26706 0.34709 0.30963
 H2898 H 0.24533 0.28884 0.35276
 C2899 C 0.75356 0.84918 0.95020
 C2900 C 0.75028 0.83928 0.92780
 C2901 C 0.72807 0.83979 0.91788
 C2902 C 0.70935 0.84943 0.93110
 C2903 C 0.71288 0.85962 0.95339
 C2904 C 0.73514 0.86025 0.96277
 C2905 C 0.72513 0.83122 0.89478
 C2906 C 0.74419 0.82224 0.88157
 C2907 C 0.76626 0.82123 0.89192
 C2908 C 0.76913 0.82972 0.91491
 C2909 C 0.78522 0.81184 0.87907
 C2910 C 0.78243 0.80342 0.85617
 C2911 C 0.76078 0.80460 0.84556
 C2912 C 0.74166 0.81413 0.85823
 H2913 H 0.77077 0.84924 0.95747
 H2914 H 0.69214 0.84985 0.92389
 H2915 H 0.69848 0.86813 0.96269
 H2916 H 0.70816 0.83185 0.88700
 H2917 H 0.78614 0.82924 0.92265
 H2918 H 0.80220 0.81089 0.88679
 H2919 H 0.79725 0.79605 0.84660
 H2920 H 0.72483 0.81469 0.85012
 C2921 C 0.74357 0.86427 0.06916
 C2922 C 0.74322 0.84867 0.08803
 C2923 C 0.73741 0.82452 0.08439
 C2924 C 0.73128 0.81673 0.06177
 C2925 C 0.73193 0.83248 0.04287
 C2926 C 0.73873 0.85617 0.04636
 C2927 C 0.73837 0.80865 0.10329
 C2928 C 0.74533 0.81671 0.12560
 C2929 C 0.75064 0.84107 0.12901
 C2930 C 0.74938 0.85684 0.11033
 C2931 C 0.75755 0.84937 0.15100
 C2932 C 0.75960 0.83373 0.16953
 C2933 C 0.75478 0.80932 0.16663
 C2934 C 0.74741 0.80092 0.14453
 H2935 H 0.74828 0.88272 0.07212
 H2936 H 0.72661 0.79833 0.05858
 H2937 H 0.72807 0.82592 0.02543
 H2938 H 0.73417 0.79004 0.10053
 H2939 H 0.75376 0.87543 0.11303
 H2940 H 0.76159 0.86800 0.15385
 H2941 H 0.76515 0.84092 0.18623
 H2942 H 0.74345 0.78223 0.14201
 C2943 C 0.25353 0.36081 0.55958
 C2944 C 0.24902 0.34564 0.57832
 C2945 C 0.24427 0.32132 0.57391
 C2946 C 0.24326 0.31291 0.55061
 C2947 C 0.24752 0.32830 0.53197
 C2948 C 0.25317 0.35218 0.53637
 C2949 C 0.24096 0.30588 0.59285
 C2950 C 0.24230 0.31456 0.61609
 C2951 C 0.24624 0.33911 0.62023
 C2952 C 0.24955 0.35443 0.60139
 C2953 C 0.24729 0.34800 0.64320
 C2954 C 0.24532 0.33268 0.66203
 C2955 C 0.24230 0.30801 0.65842
 C2956 C 0.24029 0.29911 0.63527
 H2957 H 0.25746 0.37938 0.56302
 H2958 H 0.23947 0.29439 0.54682
 H2959 H 0.24709 0.32139 0.51416
 H2960 H 0.23773 0.28714 0.58952
 H2961 H 0.25296 0.37315 0.60471
 H2962 H 0.25008 0.36681 0.64664
 H2963 H 0.24664 0.34025 0.67954
 H2964 H 0.23786 0.28020 0.63216
 C2965 C 0.73203 0.14073 0.55575
 C2966 C 0.73118 0.15506 0.57597
 C2967 C 0.72216 0.17852 0.57509
 C2968 C 0.71302 0.18671 0.55391
 C2969 C 0.71375 0.17208 0.53364
 C2970 C 0.72419 0.14922 0.53409
 C2971 C 0.72262 0.19326 0.59533
 C2972 C 0.73174 0.18449 0.61635
 C2973 C 0.73988 0.16057 0.61714
 C2974 C 0.73963 0.14613 0.59699
 C2975 C 0.74827 0.15138 0.63808
 C2976 C 0.74870 0.16570 0.65821
 C2977 C 0.74120 0.18959 0.65768
 C2978 C 0.73281 0.19904 0.63667
 H2979 H 0.73857 0.12262 0.55720
 H2980 H 0.70573 0.20457 0.55290
 H2981 H 0.70743 0.17935 0.51746
 H2982 H 0.71603 0.21144 0.59470
 H2983 H 0.74627 0.12793 0.59760
 H2984 H 0.75445 0.13307 0.63892
 H2985 H 0.75524 0.15818 0.67423
 H2986 H 0.72674 0.21742 0.63632
 C2987 C 0.25636 0.64775 0.07163
 C2988 C 0.25711 0.66329 0.09115
 C2989 C 0.25111 0.68763 0.08875
 C2990 C 0.24391 0.69577 0.06678
 C2991 C 0.24327 0.68010 0.04732
 C2992 C 0.24994 0.65604 0.04943
 C2993 C 0.25256 0.70332 0.10827
 C2994 C 0.25978 0.69484 0.13017
 C2995 C 0.26534 0.67032 0.13243
 C2996 C 0.26406 0.65480 0.11297
 C2997 C 0.27203 0.66157 0.15420
 C2998 C 0.27302 0.67681 0.17372
 C2999 C 0.26771 0.70125 0.17192
 C3000 C 0.26131 0.71027 0.14993
 H3001 H 0.26103 0.62911 0.07370
 H3002 H 0.23911 0.71435 0.06456
 H3003 H 0.23832 0.68698 0.03048
 H3004 H 0.24809 0.72204 0.10642
 H3005 H 0.26853 0.63606 0.11480
 H3006 H 0.27632 0.64284 0.15621
 H3007 H 0.27806 0.66943 0.19035
 H3008 H 0.25693 0.72904 0.14839
 C3009 C 0.14286 0.57123 0.74138
 C3010 C 0.15690 0.59131 0.74064
 C3011 C 0.18100 0.58839 0.73716
 C3012 C 0.19038 0.56533 0.73332
 C3013 C 0.17621 0.54529 0.73449
 C3014 C 0.15251 0.54811 0.73940
 C3015 C 0.19528 0.60845 0.73848
 C3016 C 0.18569 0.63124 0.74349
 C3017 C 0.16147 0.63407 0.74615
 C3018 C 0.14725 0.61414 0.74456
 C3019 C 0.15181 0.65675 0.75085
 C3020 C 0.16597 0.67650 0.75330
 C3021 C 0.19011 0.67398 0.75131
 C3022 C 0.19988 0.65124 0.74625
 H3023 H 0.12449 0.57350 0.74491
 H3024 H 0.20879 0.56273 0.73044
 H3025 H 0.18396 0.52761 0.73302
 H3026 H 0.21382 0.60623 0.73625
 H3027 H 0.12872 0.61631 0.74710
 H3028 H 0.13327 0.65918 0.75285
 H3029 H 0.15800 0.69376 0.75718
 H3030 H 0.21847 0.64911 0.74439
 C3031 C 0.65605 0.06384 0.26133
 C3032 C 0.66812 0.08467 0.25703
 C3033 C 0.68741 0.08413 0.24165
 C3034 C 0.69371 0.06262 0.23013
 C3035 C 0.68106 0.04189 0.23400
 C3036 C 0.66233 0.04211 0.25006
 C3037 C 0.69983 0.10512 0.23795
 C3038 C 0.69257 0.12667 0.24893
 C3039 C 0.67259 0.12712 0.26356
 C3040 C 0.66076 0.10611 0.26777
 C3041 C 0.66457 0.14862 0.27372
 C3042 C 0.67622 0.16963 0.26949
 C3043 C 0.69636 0.16938 0.25555
 C3044 C 0.70468 0.14788 0.24539
 H3045 H 0.64094 0.06507 0.27272
 H3046 H 0.70837 0.06183 0.21812
 H3047 H 0.68671 0.02557 0.22513
 H3048 H 0.71486 0.10476 0.22639
 H3049 H 0.64565 0.10649 0.27926
 H3050 H 0.64923 0.14922 0.28483
 H3051 H 0.66975 0.18614 0.27750
 H3052 H 0.72016 0.14782 0.23447
 C3053 C 0.85074 0.05438 0.73001
 C3054 C 0.84134 0.07770 0.73008
 C3055 C 0.85395 0.09673 0.73996
 C3056 C 0.87570 0.09235 0.74927
 C3057 C 0.88443 0.06917 0.75010
 C3058 C 0.87191 0.04975 0.74107
 C3059 C 0.84433 0.11975 0.74125
 C3060 C 0.82180 0.12396 0.73371
 C3061 C 0.80909 0.10511 0.72369
 C3062 C 0.81909 0.08217 0.72154
 C3063 C 0.78636 0.10943 0.71663
 C3064 C 0.77613 0.13198 0.72009
 C3065 C 0.78854 0.15073 0.73044
 C3066 C 0.81156 0.14663 0.73679
 H3067 H 0.84066 0.03978 0.72316
 H3068 H 0.88571 0.10677 0.75661
 H3069 H 0.90135 0.06665 0.75759
 H3070 H 0.85404 0.13421 0.74901
 H3071 H 0.80926 0.06766 0.71408
 H3072 H 0.77633 0.09526 0.70886
 H3073 H 0.75842 0.13466 0.71476
 H3074 H 0.82138 0.16088 0.74473
 C3075 C 0.36558 0.56472 0.25743
 C3076 C 0.35163 0.58507 0.25463
 C3077 C 0.32940 0.58305 0.24495
 C3078 C 0.32178 0.56042 0.23781
 C3079 C 0.33596 0.54012 0.24052
 C3080 C 0.35782 0.54207 0.25069
 C3081 C 0.31533 0.60364 0.24266
 C3082 C 0.32339 0.62616 0.24985
 C3083 C 0.34588 0.62784 0.25912
 C3084 C 0.35974 0.60741 0.26146
 C3085 C 0.35431 0.64995 0.26612
 C3086 C 0.34066 0.67037 0.26427
 C3087 C 0.31806 0.66936 0.25541
 C3088 C 0.30950 0.64704 0.24809
 H3089 H 0.38269 0.56660 0.26464
 H3090 H 0.30487 0.55840 0.23021
 H3091 H 0.32965 0.52289 0.23504
 H3092 H 0.29820 0.60212 0.23539
 H3093 H 0.37689 0.60891 0.26875
 H3094 H 0.37152 0.65149 0.27319
 H3095 H 0.34796 0.68707 0.27012
 H3096 H 0.29221 0.64590 0.24116
 C3097 C 0.36767 0.43410 0.24452
 C3098 C 0.35201 0.41541 0.24272
 C3099 C 0.32875 0.42031 0.23708
 C3100 C 0.32186 0.44392 0.23252
 C3101 C 0.33761 0.46256 0.23467
 C3102 C 0.36045 0.45788 0.24137
 C3103 C 0.31278 0.40164 0.23659
 C3104 C 0.31986 0.37820 0.24179
 C3105 C 0.34332 0.37343 0.24689
 C3106 C 0.35919 0.39200 0.24726
 C3107 C 0.35058 0.35013 0.25177
 C3108 C 0.33483 0.33161 0.25164
 C3109 C 0.31140 0.33599 0.24686
 C3110 C 0.30396 0.35943 0.24202
 H3111 H 0.38542 0.43020 0.24916
 H3112 H 0.30415 0.44805 0.22800
 H3113 H 0.33162 0.48067 0.23214
 H3114 H 0.29486 0.40539 0.23252
 H3115 H 0.37710 0.38828 0.25149
 H3116 H 0.36849 0.34621 0.25570
 H3117 H 0.34099 0.31379 0.25553
 H3118 H 0.28597 0.36296 0.23811
 C3119 C 0.86056 0.94306 0.73371
 C3120 C 0.84528 0.92444 0.73735
 C3121 C 0.82132 0.92928 0.73956
 C3122 C 0.81322 0.95300 0.73767
 C3123 C 0.82893 0.97179 0.73584
 C3124 C 0.85276 0.96687 0.73480
 C3125 C 0.80623 0.91056 0.74483
 C3126 C 0.81509 0.88745 0.74902
 C3127 C 0.83921 0.88311 0.74724
 C3128 C 0.85400 0.90141 0.74086
 C3129 C 0.84836 0.86053 0.75205
 C3130 C 0.83378 0.84199 0.75778
 C3131 C 0.80969 0.84554 0.75870
 C3132 C 0.80040 0.86853 0.75481
 H3133 H 0.87901 0.93927 0.73303
 H3134 H 0.79493 0.95715 0.73934
 H3135 H 0.82263 0.99007 0.73701
 H3136 H 0.78781 0.91411 0.74645
 H3137 H 0.87247 0.89794 0.73955
 H3138 H 0.86682 0.85707 0.75102
 H3139 H 0.84138 0.82454 0.76078
 H3140 H 0.78184 0.87142 0.75527
 C3141 C 0.65387 0.93564 0.24187
 C3142 C 0.66787 0.91539 0.23846
 C3143 C 0.69152 0.91791 0.23268
 C3144 C 0.70039 0.94083 0.22936
 C3145 C 0.68634 0.96108 0.23355
 C3146 C 0.66329 0.95848 0.24076
 C3147 C 0.70601 0.89762 0.23156
 C3148 C 0.69721 0.87512 0.23701
 C3149 C 0.67341 0.87271 0.24218
 C3150 C 0.65882 0.89279 0.24240
 C3151 C 0.66468 0.85038 0.24793
 C3152 C 0.67950 0.83065 0.24933
 C3153 C 0.70330 0.83286 0.24482
 C3154 C 0.71195 0.85513 0.23820
 H3155 H 0.63589 0.93366 0.24698
 H3156 H 0.71843 0.94312 0.22475
 H3157 H 0.69377 0.97864 0.23253
 H3158 H 0.72426 0.89948 0.22755
 H3159 H 0.64064 0.89100 0.24682
 H3160 H 0.64646 0.84827 0.25185
 H3161 H 0.67229 0.81369 0.25419
 H3162 H 0.73023 0.85708 0.23443
 C3163 C 0.14645 0.43989 0.75047
 C3164 C 0.15895 0.41872 0.74582
 C3165 C 0.18143 0.41971 0.73595
 C3166 C 0.19071 0.44196 0.73034
 C3167 C 0.17804 0.46305 0.73502
 C3168 C 0.15606 0.46218 0.74558
 C3169 C 0.19429 0.39851 0.73214
 C3170 C 0.18494 0.37641 0.73822
 C3171 C 0.16225 0.37548 0.74758
 C3172 C 0.14937 0.39662 0.75123
 C3173 C 0.15293 0.35342 0.75356
 C3174 C 0.16617 0.33248 0.75094
 C3175 C 0.18899 0.33316 0.74224
 C3176 C 0.19810 0.35526 0.73554
 H3177 H 0.12917 0.43902 0.75795
 H3178 H 0.20785 0.44306 0.72260
 H3179 H 0.18558 0.48005 0.73090
 H3180 H 0.21165 0.39923 0.72483
 H3181 H 0.13205 0.39591 0.75867
 H3182 H 0.13552 0.35242 0.76066
 H3183 H 0.15865 0.31579 0.75618
 H3184 H 0.21561 0.35612 0.72865
 C3185 C 0.06042 0.75396 0.85965
 C3186 C 0.08072 0.75274 0.84608
 C3187 C 0.07980 0.74567 0.82224
 C3188 C 0.05844 0.73959 0.81255
 C3189 C 0.03817 0.74100 0.82627
 C3190 C 0.03895 0.74860 0.84980
 C3191 C 0.10018 0.74498 0.80855
 C3192 C 0.12136 0.75140 0.81847
 C3193 C 0.12214 0.75823 0.84241
 C3194 C 0.10186 0.75878 0.85605
 C3195 C 0.14319 0.76459 0.85235
 C3196 C 0.16338 0.76434 0.83873
 C3197 C 0.16295 0.75774 0.81486
 C3198 C 0.14178 0.75120 0.80486
 H3199 H 0.06140 0.75911 0.87800
 H3200 H 0.05739 0.73402 0.79433
 H3201 H 0.02184 0.73669 0.81835
 H3202 H 0.09954 0.73966 0.79021
 H3203 H 0.10249 0.76415 0.87438
 H3204 H 0.14404 0.76984 0.87068
 H3205 H 0.17936 0.76942 0.84696
 H3206 H 0.14115 0.74595 0.78651
 C3207 C 0.55658 0.23606 0.35471
 C3208 C 0.57607 0.23619 0.34002
 C3209 C 0.57373 0.23264 0.31561
 C3210 C 0.55171 0.22827 0.30651
 C3211 C 0.53217 0.22856 0.32138
 C3212 C 0.53444 0.23316 0.34548
 C3213 C 0.59331 0.23416 0.30081
 C3214 C 0.61500 0.23962 0.31023
 C3215 C 0.61708 0.24277 0.33477
 C3216 C 0.59773 0.24076 0.34946
 C3217 C 0.63842 0.24840 0.34435
 C3218 C 0.65759 0.25138 0.32983
 C3219 C 0.65597 0.24867 0.30534
 C3220 C 0.63457 0.24245 0.29562
 H3221 H 0.55857 0.23898 0.37341
 H3222 H 0.54951 0.22536 0.28787
 H3223 H 0.51526 0.22619 0.31392
 H3224 H 0.59158 0.23168 0.28203
 H3225 H 0.59941 0.24346 0.36823
 H3226 H 0.64026 0.25077 0.36312
 H3227 H 0.67380 0.25582 0.33795
 H3228 H 0.63306 0.24018 0.27681
 C3229 C 0.57942 0.74361 0.14821
 C3230 C 0.59920 0.74288 0.16204
 C3231 C 0.59728 0.73710 0.18598
 C3232 C 0.57550 0.73143 0.19540
 C3233 C 0.55575 0.73229 0.18141
 C3234 C 0.55749 0.73897 0.15787
 C3235 C 0.61709 0.73740 0.20003
 C3236 C 0.63872 0.74336 0.19034
 C3237 C 0.64051 0.74860 0.16622
 C3238 C 0.62079 0.74834 0.15228
 C3239 C 0.66200 0.75414 0.15634
 C3240 C 0.68168 0.75453 0.17015
 C3241 C 0.68027 0.74965 0.19420
 C3242 C 0.65864 0.74415 0.20425
 H3243 H 0.58105 0.74820 0.12989
 H3244 H 0.57366 0.72679 0.21368
 H3245 H 0.53904 0.72862 0.18919
 H3246 H 0.61565 0.73319 0.21847
 H3247 H 0.62220 0.75264 0.13385
 H3248 H 0.66362 0.75818 0.13789
 H3249 H 0.69804 0.75892 0.16199
 H3250 H 0.65738 0.74015 0.22274
 C3251 C 0.05913 0.24153 0.64890
 C3252 C 0.08001 0.23989 0.66086
 C3253 C 0.07989 0.23385 0.68480
 C3254 C 0.05883 0.22853 0.69601
 C3255 C 0.03797 0.23044 0.68391
 C3256 C 0.03799 0.23767 0.66053
 C3257 C 0.10070 0.23393 0.69721
 C3258 C 0.12150 0.24008 0.68594
 C3259 C 0.12159 0.24532 0.66179
 C3260 C 0.10087 0.24514 0.64941
 C3261 C 0.14239 0.25103 0.65045
 C3262 C 0.16293 0.25189 0.66295
 C3263 C 0.16301 0.24736 0.68707
 C3264 C 0.14219 0.24132 0.69845
 H3265 H 0.05917 0.24684 0.63071
 H3266 H 0.05842 0.22368 0.71431
 H3267 H 0.02180 0.22740 0.69307
 H3268 H 0.10063 0.22969 0.71569
 H3269 H 0.10089 0.24960 0.63098
 H3270 H 0.14274 0.25498 0.63192
 H3271 H 0.17873 0.25650 0.65381
 H3272 H 0.14212 0.23743 0.71699
 C3273 C 0.93208 0.23164 0.64555
 C3274 C 0.91131 0.22735 0.65743
 C3275 C 0.91172 0.21991 0.68096
 C3276 C 0.93310 0.21588 0.69176
 C3277 C 0.95381 0.22080 0.67987
 C3278 C 0.95333 0.22959 0.65703
 C3279 C 0.89082 0.21774 0.69352
 C3280 C 0.86970 0.22365 0.68299
 C3281 C 0.86939 0.23042 0.65925
 C3282 C 0.89016 0.23182 0.64652
 C3283 C 0.84837 0.23662 0.64886
 C3284 C 0.82790 0.23714 0.66210
 C3285 C 0.82799 0.23124 0.68594
 C3286 C 0.84897 0.22388 0.69609
 H3287 H 0.93166 0.23796 0.62770
 H3288 H 0.93377 0.20999 0.70972
 H3289 H 0.97006 0.21904 0.68892
 H3290 H 0.89108 0.21250 0.71172
 H3291 H 0.88994 0.23750 0.62843
 H3292 H 0.84787 0.24173 0.63064
 H3293 H 0.81205 0.24266 0.65375
 H3294 H 0.84939 0.21916 0.71442
 C3295 C 0.45166 0.73836 0.15082
 C3296 C 0.43201 0.73739 0.16531
 C3297 C 0.43441 0.73378 0.18960
 C3298 C 0.45666 0.73029 0.19872
 C3299 C 0.47630 0.73161 0.18407
 C3300 C 0.47392 0.73639 0.16017
 C3301 C 0.41462 0.73441 0.20429
 C3302 C 0.39262 0.73899 0.19493
 C3303 C 0.39046 0.74205 0.17049
 C3304 C 0.41007 0.74098 0.15587
 C3305 C 0.36874 0.74671 0.16099
 C3306 C 0.34929 0.74898 0.17552
 C3307 C 0.35100 0.74654 0.19994
 C3308 C 0.37279 0.74114 0.20952
 H3309 H 0.44966 0.74153 0.13226
 H3310 H 0.45890 0.72732 0.21726
 H3311 H 0.49331 0.72997 0.19158
 H3312 H 0.41641 0.73197 0.22300
 H3313 H 0.40832 0.74369 0.13719
 H3314 H 0.36684 0.74897 0.14229
 H3315 H 0.33283 0.75286 0.16751
 H3316 H 0.37443 0.73911 0.22829
 C3317 C 0.42965 0.24156 0.35311
 C3318 C 0.41104 0.24261 0.33788
 C3319 C 0.41441 0.23708 0.31383
 C3320 C 0.43658 0.23017 0.30562
 C3321 C 0.45528 0.22963 0.32099
 C3322 C 0.45202 0.23591 0.34474
 C3323 C 0.39564 0.23884 0.29852
 C3324 C 0.37370 0.24623 0.30709
 C3325 C 0.37062 0.25165 0.33127
 C3326 C 0.38923 0.24971 0.34645
 C3327 C 0.34893 0.25895 0.34003
 C3328 C 0.33021 0.26052 0.32513
 C3329 C 0.33279 0.25495 0.30111
 C3330 C 0.35471 0.24812 0.29206
 H3331 H 0.42675 0.24566 0.37157
 H3332 H 0.43954 0.22573 0.28726
 H3333 H 0.47235 0.22513 0.31416
 H3334 H 0.39811 0.23463 0.28002
 H3335 H 0.38677 0.25396 0.36495
 H3336 H 0.34638 0.26326 0.35848
 H3337 H 0.31358 0.26602 0.33249
 H3338 H 0.35682 0.24368 0.27359
 C3339 C 0.93346 0.74483 0.85660
 C3340 C 0.91474 0.74551 0.84141
 C3341 C 0.91856 0.74470 0.81691
 C3342 C 0.94135 0.74235 0.80815
 C3343 C 0.96008 0.74197 0.82355
 C3344 C 0.95623 0.74393 0.84785
 C3345 C 0.89961 0.74675 0.80177
 C3346 C 0.87700 0.74969 0.81099
 C3347 C 0.87350 0.74997 0.83561
 C3348 C 0.89229 0.74783 0.85056
 C3349 C 0.85122 0.75253 0.84508
 C3350 C 0.83238 0.75474 0.83044
 C3351 C 0.83530 0.75473 0.80591
 C3352 C 0.85778 0.75233 0.79620
 H3353 H 0.93035 0.74589 0.87538
 H3354 H 0.94472 0.74153 0.78943
 H3355 H 0.97753 0.74130 0.81647
 H3356 H 0.90247 0.74637 0.78294
 H3357 H 0.88946 0.74835 0.86941
 H3358 H 0.84831 0.75276 0.86389
 H3359 H 0.81537 0.75653 0.83846
 H3360 H 0.86023 0.75208 0.77734
   
