data_POSCAR
  _audit_creation_date              2014-09-24
  _audit_creation_method            'ToBaCCo'
  _symmetry_space_group_name_H-M    'P1'
  _symmetry_Int_Tables_number       1
  _symmetry_cell_setting            triclinic
  loop_
  _symmetry_equiv_pos_as_xyz
 x,y,z
_cell_length_a 44.6982
_cell_length_b 46.0842
_cell_length_c 44.2579
_cell_angle_alpha 90.063500
_cell_angle_beta 89.713800
_cell_angle_gamma 90.942600
loop_
  _atom_site_label
  _atom_site_type_symbol
  _atom_site_fract_x
  _atom_site_fract_y
  _atom_site_fract_z
C1 C 0.28531 0.46091 0.93102
 N2 N 0.31149 0.46581 0.94543
 C3 C 0.32048 0.44802 0.96797
 N4 N 0.30268 0.42502 0.97598
 C5 C 0.27634 0.41980 0.96126
 N6 N 0.26807 0.43755 0.93862
 C7 C 0.44313 0.84740 0.45275
 N8 N 0.42223 0.83013 0.46622
 C9 C 0.41355 0.80456 0.45347
 N10 N 0.42551 0.79643 0.42661
 C11 C 0.44660 0.81338 0.41274
 N12 N 0.45541 0.83885 0.42592
 C13 C 0.94969 0.90789 0.79377
 N14 N 0.92735 0.92005 0.77721
 C15 C 0.91867 0.94776 0.78358
 N16 N 0.93153 0.96245 0.80678
 C17 C 0.95342 0.95035 0.82315
 N18 N 0.96252 0.92327 0.81629
 C19 C 0.44327 -0.09066 0.30618
 N20 N 0.45444 -0.07252 0.32766
 C21 C 0.43924 -0.04846 0.33613
 N22 N 0.41233 -0.04295 0.32345
 C23 C 0.40077 -0.06089 0.30193
 N24 N 0.41638 -0.08462 0.29331
 C25 C 0.80143 0.30556 0.32919
 N26 N 0.78939 0.33045 0.31897
 C27 C 0.80222 0.34512 0.29567
 N28 N 0.82771 0.33486 0.28266
 C29 C 0.83990 0.30976 0.29278
 N30 N 0.82661 0.29532 0.31609
 C31 C -0.21614 0.83563 0.78418
 N32 N -0.19281 0.82344 0.76950
 C33 C -0.17986 0.79943 0.78042
 N34 N -0.18997 0.78766 0.80687
 C35 C -0.21354 0.79970 0.82162
 N36 N -0.22653 0.82358 0.81007
 C37 C 0.95187 0.34031 0.45594
 N38 N 0.92892 0.32547 0.46888
 C39 C 0.91982 0.29958 0.45744
 N40 N 0.93399 0.28827 0.43290
 C41 C 0.95785 0.30277 0.42049
 N42 N 0.96634 0.32882 0.43188
 C43 C 0.44103 0.44565 0.84572
 N44 N 0.45489 0.42189 0.83383
 C45 C 0.44464 0.40997 0.80736
 N46 N 0.42061 0.42143 0.79356
 C47 C 0.40691 0.44477 0.80525
 N48 N 0.41721 0.45677 0.83120
 C49 C 0.81425 0.89888 0.92345
 N50 N 0.80216 0.91037 0.89819
 C51 C 0.81469 0.93353 0.88400
 N52 N 0.84027 0.94562 0.89535
 C53 C 0.85320 0.93472 0.92082
 N54 N 0.84004 0.91109 0.93495
 C55 C 0.29632 0.83279 0.30791
 N56 N 0.31946 0.81727 0.29712
 C57 C 0.33092 0.79517 0.31337
 N58 N 0.31944 0.78893 0.34119
 C59 C 0.29619 0.80438 0.35250
 N60 N 0.28467 0.82621 0.33568
 C61 C 0.80297 0.41982 0.44465
 N62 N 0.79277 0.43470 0.42030
 C63 C 0.80768 0.45889 0.41027
 N64 N 0.83286 0.46786 0.42448
 C65 C 0.84339 0.45316 0.44857
 N66 N 0.82849 0.42906 0.45856
 C67 C 0.95735 0.82653 -0.04255
 N68 N 0.93499 0.81304 -0.02708
 C69 C 0.92021 0.79001 -0.03917
 N70 N 0.92748 0.78060 -0.06741
 C71 C 0.94997 0.79387 -0.08316
 N72 N 0.96484 0.81682 -0.07057
 C73 C 0.30884 0.34740 0.80978
 N74 N 0.33426 0.33633 0.79767
 C75 C 0.34768 0.31311 0.81021
 N76 N 0.33575 0.30093 0.83537
 C77 C 0.31049 0.31136 0.84811
 N78 N 0.29683 0.33488 0.83536
 C79 C 0.17344 0.55370 0.54465
 N80 N 0.18020 0.54067 0.57132
 C81 C 0.19945 0.55379 0.59109
 N82 N 0.21128 0.58057 0.58423
 C83 C 0.20425 0.59357 0.55755
 N84 N 0.18550 0.57996 0.53816
 C85 C 0.58432 0.70409 0.04728
 N86 N 0.57694 0.67909 0.03225
 C87 C 0.55305 0.66258 0.04140
 N88 N 0.53689 0.67106 0.06589
 C89 C 0.54416 0.69568 0.08110
 N90 N 0.56810 0.71198 0.07184
 C91 C 0.70091 0.19910 0.66219
 N92 N 0.67877 0.20970 0.67997
 C93 C 0.66985 0.19537 0.70535
 N94 N 0.68315 0.17031 0.71286
 C95 C 0.70512 0.15923 0.69535
 N96 N 0.71397 0.17352 0.66976
 C97 C 1.07561 0.04812 0.19635
 N98 N 1.06198 0.07216 0.20715
 C99 C 1.03894 0.08420 0.19195
 N100 N 1.02962 0.07218 0.16574
 C101 C 1.04304 0.04841 0.15433
 N102 N 1.06620 0.03632 0.16964
 C103 C 0.04330 0.15035 1.05258
 N104 N 0.02891 0.16163 1.07692
 C105 C 0.03835 0.18688 1.08961
 N106 N 0.06248 0.20095 1.07787
 C107 C 0.07755 0.19021 1.05394
 N108 N 0.06809 0.16460 1.04109
 C109 C 0.16154 0.70997 0.71894
 N110 N 0.16836 0.68441 0.73261
 C111 C 0.19469 0.67119 0.72642
 N112 N 0.21397 0.68350 0.70618
 C113 C 0.20738 0.70890 0.69260
 N114 N 0.18106 0.72190 0.69892
 C115 C 1.20741 0.15267 0.20879
 N116 N 1.18264 0.16316 0.22257
 C117 C 1.16974 0.18767 0.21251
 N118 N 1.18131 0.20123 0.18756
 C119 C 1.20640 0.19073 0.17384
 N120 N 1.21938 0.16672 0.18486
 C121 C 0.66944 1.05966 0.52945
 N122 N 0.68257 1.08427 0.51887
 C123 C 0.71050 1.09219 0.52772
 N124 N 0.72560 1.07500 0.54685
 C125 C 0.71274 1.05036 0.55776
 N126 N 0.68439 1.04284 0.54940
 C127 C 0.54947 0.55161 0.17463
 N128 N 0.53719 0.57571 0.18727
 C129 C 0.55122 0.58936 0.21081
 N130 N 0.57748 0.57905 0.22111
 C131 C 0.59000 0.55544 0.20837
 N132 N 0.57595 0.54179 0.18516
 C133 C 0.65509 0.70185 0.19118
 N134 N 0.66429 0.67876 0.20780
 C135 C 0.68815 0.66298 0.19864
 N136 N 0.70242 0.67013 0.17232
 C137 C 0.69326 0.69286 0.15538
 N138 N 0.66952 0.70859 0.16494
 C139 C 0.17309 0.04208 1.04776
 N140 N 0.18549 0.03431 1.07428
 C141 C 0.20575 0.05183 1.08843
 N142 N 0.21360 0.07782 1.07542
 C143 C 0.20133 0.08579 1.04839
 N144 N 0.18108 0.06784 1.03496
 C145 C 0.58521 0.20381 0.55104
 N146 N 0.57744 0.21741 0.57707
 C147 C 0.55363 0.20797 0.59361
 N148 N 0.53750 0.18430 0.58410
 C149 C 0.54496 0.17052 0.55796
 N150 N 0.56896 0.18038 0.54163
 C151 C 0.08413 0.54674 0.69414
 N152 N 0.07028 0.53821 0.66850
 C153 C 0.04557 0.55204 0.65878
 N154 N 0.03486 0.57482 0.67496
 C155 C 0.04859 0.58334 0.70105
 N156 N 0.07324 0.56934 0.71026
 C157 C 0.65790 0.55363 0.04536
 N158 N 0.67112 0.57795 0.03387
 C159 C 0.69811 0.58724 0.04439
 N160 N 0.71177 0.57220 0.06649
 C161 C 0.69881 0.54781 0.07801
 N162 N 0.67176 0.53867 0.06756
 C163 C 0.04327 0.69903 0.58190
 N164 N 0.03199 0.67590 0.56685
 C165 C 0.04770 0.66331 0.54452
 N166 N 0.07506 0.67418 0.53675
 C167 C 0.08666 0.69778 0.55116
 N168 N 0.07089 0.71003 0.57428
 C169 C 0.55591 1.05596 0.66068
 N170 N 0.54147 1.07963 0.67163
 C171 C 0.55259 1.09457 0.69579
 N172 N 0.57860 1.08587 0.70875
 C173 C 0.59307 1.06222 0.69814
 N174 N 0.58157 1.04751 0.67410
 C175 C 0.45033 0.33472 0.96324
 N176 N 0.46501 0.31920 0.94182
 C177 C 0.45346 0.29361 0.93166
 N178 N 0.42695 0.28370 0.94290
 C179 C 0.41192 0.29893 0.96422
 N180 N 0.42358 0.32459 0.97431
 C181 C 0.95907 0.44570 0.32451
 N182 N 0.93632 0.46100 0.31193
 C183 C 0.92146 0.44994 0.28747
 N184 N 0.92910 0.42377 0.27611
 C185 C 0.95110 0.40835 0.28885
 N186 N 0.96601 0.41942 0.31294
 C187 C 0.29547 0.95528 0.42008
 N188 N 0.28257 0.93100 0.43195
 C189 C 0.29629 0.91622 0.45413
 N190 N 0.32334 0.92570 0.46441
 C191 C 0.33675 0.94980 0.45258
 N192 N 0.32272 0.96454 0.43021
 O193 O 0.31892 0.50136 0.80916
 O194 O 0.31145 0.55103 0.80965
 O195 O 0.23078 0.47022 0.84115
 O196 O 0.18457 0.46599 0.82382
 O197 O 0.28027 0.42809 0.76910
 O198 O 0.28110 0.43790 0.71486
 O199 O 0.17000 0.54809 0.75544
 O200 O 0.17276 0.54247 0.80684
 O201 O 0.25231 0.58427 0.72766
 O202 O 0.30591 0.56922 0.73524
 O203 O 0.21440 0.51575 0.67999
 O204 O 0.21310 0.46601 0.68416
 O205 O 0.17050 0.51421 0.71798
 O206 O 0.18085 0.45922 0.71854
 O207 O 0.25304 0.54795 0.68553
 O208 O 0.30556 0.54092 0.70061
 O209 O 0.21164 0.58473 0.75871
 O210 O 0.21057 0.57253 0.81417
 O211 O 0.32228 0.46888 0.77053
 O212 O 0.31515 0.46999 0.71632
 O213 O 0.23996 0.42857 0.80059
 O214 O 0.18690 0.44118 0.78392
 O215 O 0.27126 0.50043 0.84635
 O216 O 0.27349 0.55259 0.83683
 Zr217 Zr 0.27688 0.51976 0.80360
 O218 O 0.25659 0.54991 0.77521
 Zr219 Zr 0.22210 0.47060 0.79485
 O220 O 0.19855 0.49948 0.76723
 Zr221 Zr 0.28046 0.47007 0.74895
 O222 O 0.25906 0.49805 0.71815
 Zr223 Zr 0.21028 0.54277 0.77753
 O224 O 0.23033 0.51412 0.80812
 Zr225 Zr 0.26804 0.54151 0.72999
 O226 O 0.29191 0.51365 0.75883
 Zr227 Zr 0.21233 0.49386 0.72208
 O228 O 0.23390 0.46253 0.74957
 O229 O 0.26825 0.47642 0.79371
 O230 O 0.22167 0.53715 0.73218
 C231 C 0.33293 0.48237 0.79367
 C232 C 0.25170 0.48217 0.85670
 C233 C 0.26304 0.41612 0.78924
 C234 C 0.15825 0.53486 0.73299
 C235 C 0.22984 0.59687 0.73985
 C236 C 0.23162 0.53645 0.67019
 H237 H 0.26256 0.56976 0.78141
 H238 H 0.26555 0.49371 0.69727
 H239 H 0.27907 0.46409 0.80815
 H240 H 0.17688 0.49575 0.77004
 H241 H 0.17818 0.53065 0.82460
 H242 H 0.17150 0.48264 0.81988
 H243 H 0.30274 0.52460 0.68631
 H244 H 0.32555 0.48905 0.71800
 H245 H 0.22746 0.58641 0.81138
 H246 H 0.25310 0.55092 0.84555
 H247 H 0.23223 0.45562 0.68508
 H248 H 0.26178 0.42715 0.71623
 H249 H 0.32202 0.55265 0.79001
 H250 H 0.30165 0.58286 0.75194
 H251 H 0.19466 0.42780 0.76833
 H252 H 0.16453 0.46297 0.73314
 O253 O 0.22784 -0.04726 0.33696
 O254 O 0.17444 -0.04596 0.31950
 O255 O 0.27156 -0.08839 0.26508
 O256 O 0.27340 -0.08183 0.21286
 O257 O 0.30773 -0.00928 0.30018
 O258 O 0.29194 0.04293 0.29536
 O259 O 0.20323 -0.01283 0.17235
 O260 O 0.20943 -0.06477 0.18401
 O261 O 0.15296 0.02026 0.24201
 O262 O 0.15697 0.01398 0.30036
 O263 O 0.23094 0.06388 0.21997
 O264 O 0.28415 0.05461 0.22789
 O265 O 0.23394 0.02672 0.17702
 O266 O 0.28238 0.02434 0.18574
 O267 O 0.19012 0.06030 0.25084
 O268 O 0.18451 0.05012 0.30245
 O269 O 0.15878 -0.01475 0.20636
 O270 O 0.16605 -0.06289 0.21283
 O271 O 0.26300 -0.01102 0.33855
 O272 O 0.25956 0.03828 0.32799
 O273 O 0.31223 -0.04616 0.26635
 O274 O 0.30640 -0.04521 0.21224
 O275 O 0.23189 -0.08840 0.29758
 O276 O 0.18016 -0.08149 0.29117
 Zr277 Zr 0.21291 -0.04784 0.29157
 O278 O 0.18605 -0.02559 0.26054
 Zr279 Zr 0.27065 -0.04695 0.24385
 O280 O 0.24693 -0.02231 0.21171
 Zr281 Zr 0.26364 0.00562 0.29471
 O282 O 0.23784 0.03100 0.26597
 Zr283 Zr 0.20106 -0.03163 0.21592
 O284 O 0.22476 -0.05836 0.24651
 Zr285 Zr 0.19224 0.01877 0.26850
 O286 O 0.21755 -0.00343 0.30112
 Zr287 Zr 0.25047 0.02246 0.22117
 O288 O 0.27846 -0.00184 0.25018
 O289 O 0.25850 -0.03867 0.28815
 O290 O 0.20494 0.01274 0.22366
 C291 C 0.24797 -0.03191 0.35066
 C292 C 0.25483 -0.10020 0.28577
 C293 C 0.32262 -0.02955 0.28734
 C294 C 0.21596 0.01038 0.16185
 C295 C 0.14412 0.00595 0.21857
 C296 C 0.20756 0.07428 0.23298
 H297 H 0.16489 -0.03188 0.26269
 H298 H 0.24146 0.05150 0.27173
 H299 H 0.27066 -0.04990 0.30245
 H300 H 0.25422 -0.02655 0.19106
 H301 H 0.21442 -0.08239 0.19562
 H302 H 0.26531 -0.07511 0.19336
 H303 H 0.20384 0.06020 0.30622
 H304 H 0.23867 0.03714 0.33549
 H305 H 0.17065 -0.07816 0.22763
 H306 H 0.18393 -0.09337 0.27296
 H307 H 0.30317 0.04445 0.23138
 H308 H 0.30896 0.03927 0.28160
 H309 H 0.17667 -0.02839 0.33222
 H310 H 0.14178 0.00047 0.29186
 H311 H 0.31765 -0.02688 0.21594
 H312 H 0.29584 0.00787 0.18889
 O313 O 0.56818 0.71212 0.25272
 O314 O 0.55430 0.70863 0.30070
 O315 O 0.49094 0.67408 0.20655
 O316 O 0.44425 0.68407 0.19863
 O317 O 0.53608 0.75201 0.17057
 O318 O 0.53739 0.80082 0.18372
 O319 O 0.40989 0.75390 0.28146
 O320 O 0.41543 0.70432 0.27629
 O321 O 0.48241 0.78830 0.32617
 O322 O 0.53298 0.78655 0.32222
 O323 O 0.45223 0.82629 0.24508
 O324 O 0.45813 0.81721 0.19278
 O325 O 0.41310 0.78811 0.24454
 O326 O 0.42928 0.78262 0.18810
 O327 O 0.48277 0.82655 0.28603
 O328 O 0.54060 0.81601 0.28347
 O329 O 0.44633 0.75302 0.32323
 O330 O 0.45060 0.69912 0.31091
 O331 O 0.57316 0.74596 0.21555
 O332 O 0.56396 0.79921 0.22282
 O333 O 0.50040 0.71650 0.16581
 O334 O 0.44379 0.72314 0.17371
 O335 O 0.52435 0.67251 0.24509
 O336 O 0.51423 0.68422 0.30090
 Zr337 Zr 0.52305 0.71420 0.26564
 O338 O 0.49625 0.74116 0.29283
 Zr339 Zr 0.47652 0.71697 0.20741
 O340 O 0.44591 0.74109 0.23324
 Zr341 Zr 0.53104 0.76660 0.21496
 O342 O 0.50174 0.79455 0.23801
 Zr343 Zr 0.45164 0.73419 0.27990
 O344 O 0.47827 0.70579 0.25378
 Zr345 Zr 0.50442 0.78563 0.28431
 O346 O 0.53541 0.75858 0.26147
 Zr347 Zr 0.45690 0.78499 0.22680
 O348 O 0.48661 0.76096 0.19956
 O349 O 0.52096 0.72265 0.21971
 O350 O 0.45993 0.77821 0.27313
 C351 C 0.58327 0.72517 0.23193
 C352 C 0.51022 0.66094 0.22259
 C353 C 0.52254 0.73199 0.15563
 C354 C 0.39928 0.77502 0.26628
 C355 C 0.46003 0.77389 0.33709
 C356 C 0.46301 0.83819 0.26882
 H357 H 0.49966 0.73668 0.31438
 H358 H 0.50714 0.81497 0.23347
 H359 H 0.53427 0.71011 0.20768
 H360 H 0.42514 0.73634 0.22715
 H361 H 0.42292 0.68759 0.26463
 H362 H 0.42883 0.68568 0.21459
 H363 H 0.53458 0.83304 0.27151
 H364 H 0.57451 0.79383 0.24157
 H365 H 0.46452 0.70377 0.32759
 H366 H 0.49794 0.67109 0.29387
 H367 H 0.47783 0.82719 0.19401
 H368 H 0.51798 0.80317 0.17342
 H369 H 0.55285 0.72599 0.31371
 H370 H 0.55023 0.77431 0.31698
 H371 H 0.45145 0.73863 0.16011
 H372 H 0.41178 0.77002 0.19296
 O373 O 0.06328 0.70438 0.75879
 O374 O 0.04563 0.69918 0.80585
 O375 O -0.00929 0.66761 0.70459
 O376 O -0.05618 0.67686 0.69444
 O377 O 0.03724 0.74739 0.67683
 O378 O 0.03525 0.79449 0.69005
 O379 O -0.09724 0.73724 0.77944
 O380 O -0.08870 0.69027 0.77763
 O381 O -0.02741 0.77576 0.82855
 O382 O 0.02212 0.77942 0.82726
 O383 O -0.05667 0.81545 0.74659
 O384 O -0.05013 0.80845 0.69691
 O385 O -0.09409 0.77462 0.74607
 O386 O -0.07492 0.77087 0.68893
 O387 O -0.02547 0.81683 0.78697
 O388 O 0.03234 0.80517 0.79112
 O389 O -0.06086 0.73840 0.82453
 O390 O -0.05336 0.68416 0.80721
 O391 O 0.07032 0.74171 0.72582
 O392 O 0.05621 0.79500 0.73196
 O393 O 0.00122 0.71325 0.66716
 O394 O -0.05652 0.71550 0.67235
 O395 O 0.02182 0.66426 0.74490
 O396 O 0.00850 0.67261 0.80084
 Zr397 Zr 0.01779 0.70486 0.76796
 O398 O -0.01058 0.73032 0.79490
 Zr399 Zr -0.02511 0.70954 0.70733
 O400 O -0.05817 0.73023 0.73323
 Zr401 Zr 0.02707 0.76005 0.72061
 O402 O -0.00530 0.78575 0.74207
 Zr403 Zr -0.05404 0.72188 0.77999
 O404 O -0.02576 0.69581 0.75311
 Zr405 Zr -0.00414 0.77547 0.78788
 O406 O 0.02897 0.74987 0.76660
 Zr407 Zr -0.04950 0.77460 0.72904
 O408 O -0.01652 0.75397 0.70243
 O409 O 0.01845 0.71566 0.72247
 O410 O -0.04810 0.76668 0.77537
 C411 C 0.07979 0.72032 0.74185
 C412 C 0.00907 0.65383 0.72094
 C413 C 0.02430 0.72899 0.65959
 C414 C -0.10835 0.75863 0.76549
 C415 C -0.04820 0.75937 0.83932
 C416 C -0.04500 0.82828 0.76920
 H417 H -0.00775 0.72501 0.81634
 H418 H -0.00053 0.80644 0.73811
 H419 H 0.03318 0.70431 0.71082
 H420 H -0.07829 0.72460 0.72582
 H421 H -0.08834 0.68265 0.75676
 H422 H -0.06535 0.66953 0.71340
 H423 H 0.02795 0.82206 0.77820
 H424 H 0.06792 0.78890 0.74972
 H425 H -0.04291 0.68918 0.82622
 H426 H -0.00574 0.65848 0.79173
 H427 H -0.02913 0.81508 0.69424
 H428 H 0.01611 0.79771 0.67951
 H429 H 0.05127 0.71893 0.81280
 H430 H 0.02962 0.75979 0.83154
 H431 H -0.04865 0.73132 0.65927
 H432 H -0.09369 0.76013 0.69375
 O433 O 0.01471 0.06591 0.02517
 O434 O -0.03811 0.05221 0.02460
 O435 O 0.05497 -0.00804 0.06555
 O436 O 0.06113 -0.05395 0.05637
 O437 O 0.09101 0.03212 -0.01705
 O438 O 0.07693 0.02832 -0.06922
 O439 O -0.01722 -0.09101 -0.01331
 O440 O -0.01229 -0.08075 0.03946
 O441 O -0.06431 -0.02410 -0.05100
 O442 O -0.06248 0.02600 -0.04824
 O443 O 0.01415 -0.05012 -0.09149
 O444 O 0.06724 -0.04340 -0.08284
 O445 O 0.01687 -0.08796 -0.05155
 O446 O 0.07107 -0.07257 -0.04897
 O447 O -0.02394 -0.01797 -0.09168
 O448 O -0.02667 0.03631 -0.07769
 O449 O -0.06053 -0.05756 -0.01361
 O450 O -0.04989 -0.05050 0.04102
 O451 O 0.04823 0.06853 -0.01363
 O452 O 0.04080 0.05750 -0.06665
 O453 O 0.09518 -0.00119 0.02058
 O454 O 0.08735 -0.05533 0.01559
 O455 O 0.01671 0.02393 0.06711
 O456 O -0.03639 0.01954 0.05702
 Zr457 Zr -0.00256 0.02252 0.02360
 O458 O -0.03055 -0.00594 -0.00169
 Zr459 Zr 0.05375 -0.02387 0.02125
 O460 O 0.02805 -0.05446 -0.00305
 Zr461 Zr 0.04696 0.02651 -0.03212
 O462 O 0.02200 -0.00221 -0.05936
 Zr463 Zr -0.01786 -0.04911 0.00547
 O464 O 0.00807 -0.02096 0.03330
 Zr465 Zr -0.02370 0.00041 -0.04814
 O466 O 0.00105 0.03189 -0.02287
 Zr467 Zr 0.03349 -0.04517 -0.04915
 O468 O 0.06141 -0.01620 -0.02493
 O469 O 0.04263 0.01910 0.01406
 O470 O -0.01237 -0.04255 -0.04070
 C471 C 0.03451 0.07968 0.00900
 C472 C 0.03874 0.01053 0.07924
 C473 C 0.10550 0.01977 0.00413
 C474 C -0.00282 -0.10179 -0.03581
 C475 C -0.07455 -0.04608 -0.03584
 C476 C -0.00779 -0.03757 -0.10404
 H477 H -0.05178 -0.00286 0.00359
 H478 H 0.02599 0.00279 -0.08073
 H479 H 0.05498 0.03226 0.02674
 H480 H 0.03434 -0.07431 0.00213
 H481 H -0.00262 -0.07078 0.05677
 H482 H 0.04747 -0.07068 0.05283
 H483 H -0.01085 0.03428 -0.09323
 H484 H 0.02135 0.06677 -0.06263
 H485 H -0.06497 -0.03550 0.03722
 H486 H -0.03475 0.00002 0.06612
 H487 H 0.06390 -0.02591 -0.09523
 H488 H 0.08907 0.01057 -0.06824
 H489 H -0.03687 0.06342 0.00555
 H490 H -0.06357 0.03534 -0.02818
 H491 H 0.09926 -0.04968 -0.00245
 H492 H 0.06840 -0.08675 -0.03238
 O493 O 0.09577 0.52927 0.49480
 O494 O 0.08499 0.52605 0.43726
 O495 O 0.02172 0.57735 0.52519
 O496 O -0.02838 0.57307 0.52741
 O497 O 0.04662 0.49545 0.56771
 O498 O 0.03703 0.44289 0.54985
 O499 O -0.06554 0.51012 0.44798
 O500 O -0.04944 0.55988 0.45749
 O501 O 0.00302 0.47022 0.40519
 O502 O 0.06150 0.47135 0.41588
 O503 O -0.03186 0.42924 0.47923
 O504 O -0.02814 0.43665 0.53335
 O505 O -0.06908 0.47155 0.47992
 O506 O -0.06480 0.47029 0.52975
 O507 O 0.00386 0.42919 0.44238
 O508 O 0.05534 0.43428 0.44150
 O509 O -0.02725 0.50930 0.40754
 O510 O -0.01456 0.55671 0.41806
 O511 O 0.08962 0.49214 0.52817
 O512 O 0.07427 0.44473 0.52247
 O513 O 0.01753 0.53544 0.56835
 O514 O -0.03502 0.53666 0.55736
 O515 O 0.05909 0.57475 0.49018
 O516 O 0.06498 0.56685 0.44223
 Zr517 Zr 0.05388 0.53302 0.47266
 O518 O 0.02396 0.51397 0.44134
 Zr519 Zr -0.00027 0.53662 0.52461
 O520 O -0.03139 0.51526 0.49661
 Zr521 Zr 0.04482 0.48015 0.52273
 O522 O 0.01695 0.45739 0.49260
 Zr523 Zr -0.02062 0.52433 0.45150
 O524 O 0.00954 0.54757 0.47939
 Zr525 Zr 0.02565 0.46908 0.44732
 O526 O 0.05733 0.48799 0.47733
 Zr527 Zr -0.02721 0.46998 0.50047
 O528 O 0.00043 0.49144 0.53258
 O529 O 0.04388 0.52498 0.51780
 O530 O -0.01878 0.47937 0.45522
 C531 C 0.10524 0.51241 0.51589
 C532 C 0.04400 0.58824 0.51020
 C533 C 0.03483 0.51726 0.58110
 C534 C -0.08000 0.48885 0.46034
 C535 C -0.01686 0.48710 0.39398
 C536 C -0.01761 0.41732 0.45727
 H537 H 0.02927 0.51979 0.42047
 H538 H 0.01973 0.43643 0.49620
 H539 H 0.05734 0.53592 0.53155
 H540 H -0.05188 0.52146 0.50173
 H541 H -0.03711 0.57610 0.46565
 H542 H -0.04653 0.56875 0.51542
 H543 H 0.05763 0.42522 0.46158
 H544 H 0.08335 0.44419 0.50203
 H545 H -0.00171 0.57203 0.42716
 H546 H 0.04817 0.56803 0.42788
 H547 H -0.02418 0.44585 0.55320
 H548 H 0.02419 0.44859 0.56705
 H549 H 0.09721 0.50926 0.44312
 H550 H 0.05528 0.48356 0.39871
 H551 H -0.03403 0.51811 0.56855
 H552 H -0.06435 0.48918 0.54026
 O553 O 0.58173 0.04291 0.50251
 O554 O 0.57521 0.04097 0.44808
 O555 O 0.50253 0.08817 0.52996
 O556 O 0.45205 0.08040 0.52154
 O557 O 0.53147 0.01547 0.57804
 O558 O 0.52443 -0.03714 0.56951
 O559 O 0.42657 0.00752 0.44829
 O560 O 0.43785 0.05704 0.45006
 O561 O 0.50701 -0.03112 0.41671
 O562 O 0.56091 -0.02606 0.43398
 O563 O 0.46210 -0.06694 0.48729
 O564 O 0.46067 -0.05390 0.54512
 O565 O 0.42246 -0.02725 0.48459
 O566 O 0.42612 -0.02640 0.53758
 O567 O 0.50280 -0.06746 0.45628
 O568 O 0.55596 -0.05739 0.46594
 O569 O 0.46910 0.00095 0.41279
 O570 O 0.47683 0.05575 0.41915
 O571 O 0.57687 0.00882 0.53949
 O572 O 0.56236 -0.04016 0.54168
 O573 O 0.49607 0.05000 0.57272
 O574 O 0.44455 0.04529 0.55632
 O575 O 0.54167 0.08581 0.49697
 O576 O 0.54503 0.07443 0.44562
 Zr577 Zr 0.54019 0.04319 0.48027
 O578 O 0.51644 0.01717 0.44925
 Zr579 Zr 0.48246 0.04616 0.52742
 O580 O 0.45619 0.01926 0.49882
 Zr581 Zr 0.53237 -0.00571 0.53549
 O582 O 0.50915 -0.03445 0.50641
 Zr583 Zr 0.47030 0.02437 0.45376
 O584 O 0.49448 0.05362 0.48196
 Zr585 Zr 0.52191 -0.02630 0.46137
 O586 O 0.54804 -0.00051 0.49069
 Zr587 Zr 0.46338 -0.02504 0.50796
 O588 O 0.48634 0.00207 0.53957
 O589 O 0.52794 0.03797 0.52524
 O590 O 0.47595 -0.01940 0.46318
 C591 C 0.59207 0.02772 0.52440
 C592 C 0.52558 0.09932 0.51635
 C593 C 0.51591 0.03676 0.58814
 C594 C 0.41210 -0.01282 0.46217
 C595 C 0.48508 -0.01989 0.40256
 C596 C 0.47919 -0.07917 0.46753
 H597 H 0.52369 0.02105 0.42850
 H598 H 0.51294 -0.05472 0.51234
 H599 H 0.54027 0.05057 0.53854
 H600 H 0.43490 0.02426 0.50129
 H601 H 0.44626 0.07455 0.46011
 H602 H 0.43478 0.07264 0.51002
 H603 H 0.55064 -0.07007 0.48323
 H604 H 0.57282 -0.04271 0.52213
 H605 H 0.49184 0.04850 0.40462
 H606 H 0.52462 0.08115 0.44111
 H607 H 0.47462 -0.06994 0.54128
 H608 H 0.50460 -0.03300 0.57844
 H609 H 0.58510 0.02217 0.45122
 H610 H 0.55828 -0.01170 0.41765
 H611 H 0.44540 0.02706 0.56809
 H612 H 0.41825 -0.00650 0.53857
 O613 O 0.48980 0.57957 0.03909
 O614 O 0.43797 0.56997 0.03466
 O615 O 0.51857 0.50979 0.09498
 O616 O 0.51532 0.46143 0.09427
 O617 O 0.56974 0.53210 0.01674
 O618 O 0.56427 0.52595 -0.03548
 O619 O 0.44391 0.42440 0.01549
 O620 O 0.44395 0.43859 0.06615
 O621 O 0.41488 0.49461 -0.03445
 O622 O 0.42833 0.54305 -0.04219
 O623 O 0.49421 0.44983 -0.06077
 O624 O 0.54480 0.45084 -0.04372
 O625 O 0.48395 0.41797 -0.01555
 O626 O 0.53985 0.42746 -0.00532
 O627 O 0.46004 0.48463 -0.06996
 O628 O 0.46691 0.54072 -0.06545
 O629 O 0.40744 0.46468 0.00583
 O630 O 0.41268 0.47495 0.06016
 O631 O 0.53073 0.57464 0.00881
 O632 O 0.53121 0.55670 -0.04398
 O633 O 0.56408 0.50194 0.05711
 O634 O 0.54806 0.45034 0.05929
 O635 O 0.48546 0.54584 0.08659
 O636 O 0.43276 0.54074 0.07067
 Zr637 Zr 0.47054 0.53800 0.04191
 O638 O 0.44365 0.51069 0.01487
 Zr639 Zr 0.51956 0.48627 0.05428
 O640 O 0.49365 0.45596 0.02947
 Zr641 Zr 0.52815 0.53040 -0.00493
 O642 O 0.50443 0.50096 -0.03286
 Zr643 Zr 0.44836 0.46769 0.02943
 O644 O 0.47357 0.49537 0.05841
 Zr645 Zr 0.45885 0.51047 -0.03024
 O646 O 0.48275 0.54165 -0.00411
 Zr647 Zr 0.50698 0.45834 -0.01604
 O648 O 0.53461 0.48716 0.00916
 O649 O 0.51588 0.52905 0.04028
 O650 O 0.46149 0.46763 -0.01592
 C651 C 0.51331 0.58968 0.02585
 C652 C 0.50456 0.53270 0.10318
 C653 C 0.57962 0.51935 0.04038
 C654 C 0.45982 0.40897 -0.00233
 C655 C 0.39869 0.47720 -0.01847
 C656 C 0.47512 0.46214 -0.07778
 H657 H 0.42276 0.51727 0.01628
 H658 H 0.51219 0.50242 -0.05376
 H659 H 0.52829 0.54261 0.05244
 H660 H 0.49598 0.43628 0.03794
 H661 H 0.45256 0.44858 0.08400
 H662 H 0.50187 0.44478 0.08967
 H663 H 0.48270 0.53288 -0.07875
 H664 H 0.51310 0.56877 -0.04422
 H665 H 0.40193 0.49241 0.05359
 H666 H 0.43385 0.52433 0.08502
 H667 H 0.54743 0.46789 -0.05708
 H668 H 0.57169 0.50600 -0.03280
 H669 H 0.44050 0.57647 0.01348
 H670 H 0.41798 0.54892 -0.02341
 H671 H 0.56226 0.45080 0.04206
 H672 H 0.53170 0.41468 0.01078
 O673 O 0.74647 0.30615 0.42271
 O674 O 0.69576 0.30823 0.44341
 O675 O 0.79960 0.32908 0.49930
 O676 O 0.80279 0.31375 0.54784
 O677 O 0.82300 0.25511 0.44602
 O678 O 0.80302 0.20680 0.44153
 O679 O 0.72232 0.24440 0.57893
 O680 O 0.73528 0.29685 0.57720
 O681 O 0.66752 0.22857 0.50590
 O682 O 0.66993 0.24114 0.45143
 O683 O 0.74098 0.17671 0.51872
 O684 O 0.79661 0.18326 0.51038
 O685 O 0.75153 0.20632 0.56625
 O686 O 0.80258 0.20480 0.54920
 O687 O 0.70071 0.18704 0.48970
 O688 O 0.69645 0.20832 0.43896
 O689 O 0.67779 0.25722 0.54652
 O690 O 0.69281 0.30448 0.55208
 O691 O 0.77660 0.26816 0.41196
 O692 O 0.76690 0.21726 0.41421
 O693 O 0.83336 0.28240 0.48764
 O694 O 0.82814 0.27389 0.54106
 O695 O 0.76008 0.33900 0.46899
 O696 O 0.70746 0.33552 0.47988
 Zr697 Zr 0.73478 0.30004 0.46859
 O698 O 0.70609 0.27386 0.49546
 Zr699 Zr 0.79289 0.28512 0.51173
 O700 O 0.76697 0.25783 0.54025
 Zr701 Zr 0.77758 0.24388 0.45171
 O702 O 0.75065 0.21539 0.47711
 Zr703 Zr 0.72232 0.27094 0.53986
 O704 O 0.74885 0.30071 0.51408
 Zr705 Zr 0.70672 0.23105 0.47928
 O706 O 0.73296 0.25782 0.45039
 Zr707 Zr 0.76557 0.21567 0.52203
 O708 O 0.79464 0.24206 0.49583
 O709 O 0.77886 0.28642 0.46716
 O710 O 0.72108 0.22841 0.52397
 C711 C 0.76330 0.29159 0.40479
 C712 C 0.78471 0.34615 0.48214
 C713 C 0.84095 0.26974 0.46290
 C714 C 0.73461 0.21990 0.58472
 C715 C 0.66050 0.24027 0.53129
 C716 C 0.71667 0.16964 0.50503
 H717 H 0.68571 0.28183 0.49526
 H718 H 0.75168 0.19599 0.46766
 H719 H 0.79205 0.29880 0.45439
 H720 H 0.77506 0.25823 0.56100
 H721 H 0.74310 0.31548 0.56896
 H722 H 0.79259 0.30593 0.56605
 H723 H 0.71239 0.19403 0.43552
 H724 H 0.74662 0.22270 0.40761
 H725 H 0.68826 0.31520 0.53340
 H726 H 0.71455 0.34299 0.49962
 H727 H 0.78884 0.17282 0.49244
 H728 H 0.81631 0.20359 0.45899
 H729 H 0.69255 0.29120 0.43009
 H730 H 0.66027 0.25857 0.45981
 H731 H 0.83432 0.25410 0.53532
 H732 H 0.80570 0.22062 0.56402
 O733 O 0.76203 0.78118 -0.09073
 O734 O 0.71107 0.79069 -0.08287
 O735 O 0.80114 0.81695 -0.00893
 O736 O 0.79368 0.80943 0.04073
 O737 O 0.83053 0.73588 -0.04387
 O738 O 0.81235 0.68831 -0.04301
 O739 O 0.70405 0.75002 0.06475
 O740 O 0.71196 0.79813 0.05557
 O741 O 0.66642 0.71779 -0.01844
 O742 O 0.68126 0.71876 -0.06977
 O743 O 0.73208 0.67097 0.02535
 O744 O 0.78656 0.67459 0.02991
 O745 O 0.73277 0.70980 0.06706
 O746 O 0.78837 0.70588 0.06124
 O747 O 0.70016 0.67518 -0.01419
 O748 O 0.71203 0.68705 -0.06970
 O749 O 0.66830 0.74780 0.02228
 O750 O 0.68538 0.80301 0.01391
 O751 O 0.79265 0.74227 -0.08894
 O752 O 0.78057 0.69152 -0.07744
 O753 O 0.83366 0.76976 -0.00650
 O754 O 0.81552 0.76804 0.04740
 O755 O 0.76915 0.82211 -0.04828
 O756 O 0.71365 0.81987 -0.04723
 Zr757 Zr 0.74211 0.78367 -0.04788
 O758 O 0.70702 0.76104 -0.02548
 Zr759 Zr 0.78924 0.77568 0.00863
 O760 O 0.75568 0.75453 0.03474
 Zr761 Zr 0.78511 0.72530 -0.04528
 O762 O 0.75313 0.70114 -0.02083
 Zr763 Zr 0.71239 0.76625 0.02121
 O764 O 0.74624 0.79135 -0.00125
 Zr765 Zr 0.71078 0.71615 -0.03267
 O766 O 0.74268 0.73906 -0.05895
 Zr767 Zr 0.75707 0.70982 0.02579
 O768 O 0.79226 0.73067 0.00151
 O769 O 0.78475 0.76981 -0.03760
 O770 O 0.71406 0.72177 0.01399
 C771 C 0.78090 0.76376 -0.10271
 C772 C 0.79113 0.83116 -0.03166
 C773 C 0.84519 0.75375 -0.02729
 C774 C 0.71344 0.72732 0.07827
 C775 C 0.65464 0.72947 0.00481
 C776 C 0.71106 0.66131 0.00821
 H777 H 0.68746 0.76822 -0.03227
 H778 H 0.75554 0.68034 -0.02556
 H779 H 0.80043 0.77996 -0.04962
 H780 H 0.75883 0.75901 0.05635
 H781 H 0.72674 0.81327 0.04947
 H782 H 0.77643 0.80742 0.05468
 H783 H 0.72376 0.67001 -0.06364
 H784 H 0.76405 0.69684 -0.09105
 H785 H 0.66675 0.79654 0.00378
 H786 H 0.71712 0.82998 -0.02778
 H787 H 0.78531 0.66313 0.01103
 H788 H 0.81901 0.68681 -0.02178
 H789 H 0.70698 0.77148 -0.09213
 H790 H 0.67369 0.73878 -0.07043
 H791 H 0.82498 0.74897 0.04448
 H792 H 0.78617 0.72283 0.07476
 O793 O 1.00728 0.16854 0.21644
 O794 O 0.95288 0.17899 0.21897
 O795 O 1.04028 0.24795 0.17514
 O796 O 1.03870 0.29589 0.18636
 O797 O 1.08408 0.21093 0.25092
 O798 O 1.07218 0.21390 0.30655
 O799 O 0.96687 0.32082 0.26071
 O800 O 0.97126 0.31166 0.20618
 O801 O 0.92422 0.24506 0.29338
 O802 O 0.93651 0.19042 0.28497
 O803 O 0.99728 0.27758 0.33648
 O804 O 1.05464 0.27448 0.32561
 O805 O 1.00118 0.31868 0.29841
 O806 O 1.05240 0.31050 0.29916
 O807 O 0.96281 0.24083 0.33430
 O808 O 0.96391 0.19138 0.32156
 O809 O 0.92550 0.28256 0.26009
 O810 O 0.93133 0.28024 0.21011
 O811 O 1.04290 0.16900 0.25302
 O812 O 1.04303 0.17792 0.30431
 O813 O 1.08279 0.24706 0.21597
 O814 O 1.07150 0.29736 0.22366
 O815 O 1.00662 0.21037 0.17458
 O816 O 0.95484 0.20801 0.18432
 Zr817 Zr 0.98807 0.21025 0.21814
 O818 O 0.95850 0.23488 0.24459
 Zr819 Zr 1.03942 0.26321 0.21992
 O820 O 1.01311 0.28903 0.24843
 Zr821 Zr 1.04074 0.21069 0.27108
 O822 O 1.01232 0.23301 0.30094
 Zr823 Zr 0.96789 0.27954 0.24021
 O824 O 0.99405 0.25514 0.20962
 Zr825 Zr 0.96691 0.22580 0.29006
 O826 O 0.99526 0.19946 0.26360
 Zr827 Zr 1.01937 0.27751 0.29405
 O828 O 1.04956 0.25517 0.26564
 O829 O 1.03315 0.21879 0.22568
 O830 O 0.97406 0.27038 0.28578
 C831 C 1.02808 0.15653 0.23192
 C832 C 1.02637 0.22690 0.16195
 C833 C 1.09611 0.22656 0.22973
 C834 C 0.98133 0.33183 0.28317
 C835 C 0.91244 0.26715 0.28049
 C836 C 0.97595 0.26188 0.34792
 H837 H 0.93757 0.23038 0.23885
 H838 H 1.01665 0.22722 0.32195
 H839 H 1.04594 0.20707 0.21222
 H840 H 1.01816 0.30968 0.24465
 H841 H 0.97703 0.30169 0.18723
 H842 H 1.02757 0.31250 0.19465
 H843 H 0.98364 0.19008 0.33144
 H844 H 1.02267 0.16928 0.30588
 H845 H 0.93510 0.26501 0.19493
 H846 H 0.95558 0.22673 0.17339
 H847 H 1.04853 0.26024 0.34127
 H848 H 1.08452 0.23156 0.30272
 H849 H 0.95610 0.16662 0.23690
 H850 H 0.92034 0.19653 0.27130
 H851 H 1.08236 0.29431 0.24281
 H852 H 1.05526 0.31962 0.27912
 O853 O 0.71061 0.99350 0.64769
 O854 O 0.71099 0.94351 0.66221
 O855 O 0.68263 1.03659 0.72761
 O856 O 0.69745 1.03723 0.77667
 O857 O 0.75815 1.06971 0.67790
 O858 O 0.80888 1.05665 0.67414
 O859 O 0.77232 0.96024 0.80115
 O860 O 0.71987 0.96866 0.80163
 O861 O 0.79057 0.91649 0.72075
 O862 O 0.78296 0.92633 0.66680
 O863 O 0.84107 0.98746 0.75007
 O864 O 0.83440 1.04286 0.74288
 O865 O 0.80871 0.99473 0.79470
 O866 O 0.80893 1.04580 0.78096
 O867 O 0.83337 0.95037 0.71701
 O868 O 0.81784 0.95505 0.66258
 O869 O 0.76123 0.92036 0.76271
 O870 O 0.70897 0.93401 0.76888
 O871 O 0.74947 1.02516 0.63968
 O872 O 0.80331 1.02191 0.64413
 O873 O 0.72819 1.07387 0.71934
 O874 O 0.73794 1.06561 0.77275
 O875 O 0.67572 0.99887 0.69501
 O876 O 0.68327 0.94768 0.70020
 Zr877 Zr 0.71744 0.97900 0.69194
 O878 O 0.74543 0.95135 0.71591
 Zr879 Zr 0.72815 1.03291 0.74045
 O880 O 0.75659 1.00726 0.76726
 Zr881 Zr 0.77313 1.02670 0.68065
 O882 O 0.80365 1.00117 0.70463
 Zr883 Zr 0.74561 0.96310 0.76189
 O884 O 0.71450 0.98891 0.73834
 Zr885 Zr 0.78987 0.95758 0.70126
 O886 O 0.76130 0.98275 0.67455
 Zr887 Zr 0.80083 1.01080 0.75095
 O888 O 0.77295 1.03911 0.72646
 O889 O 0.72884 1.02279 0.69479
 O890 O 0.78972 0.96699 0.74737
 C891 C 0.72573 1.01127 0.63115
 C892 C 0.66638 1.02107 0.70953
 C893 C 0.74093 1.08421 0.69540
 C894 C 0.79592 0.97429 0.80995
 C895 C 0.77823 0.90619 0.74463
 C896 C 0.84920 0.96402 0.73664
 H897 H 0.73821 0.93122 0.71260
 H898 H 0.82416 1.00433 0.69675
 H899 H 0.71542 1.03512 0.68280
 H900 H 0.75511 1.01301 0.78874
 H901 H 0.70167 0.97913 0.79562
 H902 H 0.70607 1.02740 0.79439
 H903 H 0.83461 0.96912 0.66499
 H904 H 0.80002 1.00207 0.63610
 H905 H 0.70708 0.92151 0.75079
 H906 H 0.67590 0.95110 0.72101
 H907 H 0.84802 1.03553 0.72704
 H908 H 0.81276 1.06566 0.69407
 H909 H 0.72859 0.94327 0.64855
 H910 H 0.76465 0.91502 0.67201
 H911 H 0.75747 1.07444 0.76695
 H912 H 0.79186 1.04647 0.79524
 O913 O 0.67769 0.53638 0.23629
 O914 O 0.68372 0.53456 0.28875
 O915 O 0.75686 0.58643 0.21018
 O916 O 0.80584 0.58216 0.21228
 O917 O 0.72876 0.51133 0.15917
 O918 O 0.73344 0.46129 0.16513
 O919 O 0.83262 0.50807 0.29108
 O920 O 0.82100 0.55619 0.29115
 O921 O 0.75442 0.46207 0.31722
 O922 O 0.70529 0.45834 0.30167
 O923 O 0.80496 0.43504 0.24100
 O924 O 0.80926 0.44878 0.19055
 O925 O 0.83987 0.47765 0.25136
 O926 O 0.83371 0.48626 0.19375
 O927 O 0.76584 0.42818 0.27336
 O928 O 0.70874 0.43529 0.26264
 O929 O 0.78786 0.49899 0.32508
 O930 O 0.77959 0.55363 0.31813
 O931 O 0.68343 0.50474 0.19728
 O932 O 0.69987 0.45378 0.19735
 O933 O 0.76194 0.54886 0.16497
 O934 O 0.81596 0.54682 0.18317
 O935 O 0.71552 0.58093 0.24000
 O936 O 0.71678 0.56672 0.29469
 Zr937 Zr 0.71946 0.53806 0.25746
 O938 O 0.74350 0.51102 0.28677
 Zr939 Zr 0.77672 0.54564 0.21018
 O940 O 0.80428 0.52143 0.23893
 Zr941 Zr 0.72812 0.49087 0.20122
 O942 O 0.75488 0.46337 0.22712
 Zr943 Zr 0.78897 0.52267 0.28401
 O944 O 0.76470 0.55133 0.25604
 Zr945 Zr 0.74172 0.46742 0.27233
 O946 O 0.71330 0.49369 0.24623
 Zr947 Zr 0.79985 0.47773 0.22633
 O948 O 0.77382 0.50217 0.19606
 O949 O 0.73155 0.53457 0.21237
 O950 O 0.78692 0.47907 0.27159
 C951 C 0.66780 0.52231 0.21326
 C952 C 0.73256 0.59580 0.22189
 C953 C 0.74305 0.53379 0.14938
 C954 C 0.84851 0.49027 0.27587
 C955 C 0.77310 0.47613 0.33366
 C956 C 0.78975 0.41965 0.25977
 H957 H 0.73545 0.51302 0.30749
 H958 H 0.75266 0.44322 0.21966
 H959 H 0.71894 0.54666 0.19928
 H960 H 0.82518 0.52870 0.23742
 H961 H 0.81402 0.57324 0.27975
 H962 H 0.81884 0.57927 0.22998
 H963 H 0.71764 0.42099 0.24869
 H964 H 0.68562 0.45434 0.21453
 H965 H 0.76340 0.54575 0.33121
 H966 H 0.73421 0.58018 0.29319
 H967 H 0.79017 0.43906 0.18505
 H968 H 0.75442 0.46353 0.15811
 H969 H 0.67628 0.51424 0.28761
 H970 H 0.69978 0.47690 0.31126
 H971 H 0.81343 0.53183 0.16730
 H972 H 0.84793 0.50065 0.20242
 O973 O 0.43592 0.25331 0.81250
 O974 O 0.44905 0.20119 0.80996
 O975 O 0.51807 0.29146 0.84458
 O976 O 0.56746 0.28875 0.82937
 O977 O 0.47285 0.32852 0.77196
 O978 O 0.47075 0.31602 0.71658
 O979 O 0.58965 0.21937 0.75232
 O980 O 0.58621 0.22568 0.80778
 O981 O 0.51216 0.17504 0.72805
 O982 O 0.45658 0.18342 0.74274
 O983 O 0.53768 0.24638 0.68154
 O984 O 0.53222 0.30211 0.69222
 O985 O 0.58303 0.25283 0.71530
 O986 O 0.57215 0.30186 0.71470
 O987 O 0.50161 0.21156 0.68812
 O988 O 0.45144 0.21066 0.70671
 O989 O 0.55223 0.17835 0.75938
 O990 O 0.55534 0.18576 0.80916
 O991 O 0.43163 0.28726 0.77554
 O992 O 0.43564 0.28584 0.72327
 O993 O 0.51288 0.33011 0.80357
 O994 O 0.56425 0.32148 0.79106
 O995 O 0.48196 0.25636 0.84954
 O996 O 0.48313 0.20508 0.84123
 Zr997 Zr 0.47960 0.23659 0.80677
 O998 O 0.50392 0.20865 0.77833
 Zr999 Zr 0.53122 0.28879 0.79874
 O1000 O 0.55648 0.26400 0.76807
 Zr1001 Zr 0.47265 0.28621 0.75280
 O1002 O 0.49433 0.25933 0.72131
 Zr1003 Zr 0.54968 0.21996 0.77802
 O1004 O 0.52617 0.24471 0.81064
 Zr1005 Zr 0.49015 0.21525 0.73372
 O1006 O 0.46409 0.24187 0.76236
 Zr1007 Zr 0.54027 0.26853 0.72362
 O1008 O 0.51834 0.29714 0.75371
 O1009 O 0.48549 0.28030 0.79721
 O1010 O 0.53589 0.22453 0.73348
 C1011 C 0.42139 0.27299 0.79829
 C1012 C 0.49793 0.27756 0.85991
 C1013 C 0.48982 0.34143 0.79158
 C1014 C 0.59832 0.23348 0.72862
 C1015 C 0.53614 0.16486 0.73984
 C1016 C 0.52132 0.22491 0.67209
 H1017 H 0.50092 0.18829 0.78488
 H1018 H 0.48625 0.26289 0.70092
 H1019 H 0.47388 0.29251 0.81124
 H1020 H 0.57784 0.26971 0.76955
 H1021 H 0.57778 0.23126 0.82767
 H1022 H 0.58502 0.28081 0.81869
 H1023 H 0.44896 0.22915 0.69577
 H1024 H 0.42734 0.26579 0.72364
 H1025 H 0.53996 0.18837 0.82496
 H1026 H 0.50275 0.20832 0.85104
 H1027 H 0.51693 0.29502 0.67779
 H1028 H 0.48856 0.32896 0.71826
 H1029 H 0.43519 0.20285 0.79269
 H1030 H 0.46520 0.16851 0.75604
 H1031 H 0.55893 0.33131 0.77199
 H1032 H 0.58290 0.30566 0.73380
 O1033 O 0.21510 0.76561 0.60467
 O1034 O 0.21680 0.81462 0.58792
 O1035 O 0.17714 0.72161 0.52838
 O1036 O 0.18799 0.71578 0.47951
 O1037 O 0.25431 0.68614 0.57354
 O1038 O 0.30526 0.69736 0.57263
 O1039 O 0.26385 0.79009 0.44405
 O1040 O 0.21232 0.78671 0.45023
 O1041 O 0.29649 0.83520 0.52057
 O1042 O 0.29101 0.82963 0.57482
 O1043 O 0.33643 0.76106 0.49021
 O1044 O 0.32673 0.70796 0.49838
 O1045 O 0.29866 0.75502 0.44901
 O1046 O 0.29550 0.70347 0.46587
 O1047 O 0.33528 0.79749 0.52487
 O1048 O 0.32112 0.79799 0.58014
 O1049 O 0.26340 0.83211 0.48175
 O1050 O 0.20784 0.82164 0.48354
 O1051 O 0.25056 0.73114 0.61035
 O1052 O 0.30469 0.73418 0.60104
 O1053 O 0.22110 0.68172 0.53498
 O1054 O 0.22654 0.68896 0.47954
 O1055 O 0.17513 0.75950 0.56126
 O1056 O 0.18631 0.81028 0.55231
 Zr1057 Zr 0.21858 0.77796 0.55926
 O1058 O 0.24701 0.80373 0.53203
 Zr1059 Zr 0.22172 0.72212 0.51228
 O1060 O 0.24922 0.74602 0.48195
 Zr1061 Zr 0.27136 0.72840 0.56771
 O1062 O 0.30160 0.75135 0.53970
 Zr1063 Zr 0.24248 0.79086 0.48669
 O1064 O 0.21155 0.76669 0.51368
 Zr1065 Zr 0.29180 0.79553 0.54274
 O1066 O 0.26331 0.77291 0.57294
 Zr1067 Zr 0.29419 0.74057 0.49407
 O1068 O 0.26676 0.71437 0.52259
 O1069 O 0.22645 0.73362 0.55727
 O1070 O 0.28727 0.78500 0.49708
 C1071 C 0.22920 0.74693 0.62034
 C1072 C 0.16318 0.73770 0.54748
 C1073 C 0.23527 0.67159 0.55790
 C1074 C 0.28526 0.77456 0.43367
 C1075 C 0.28386 0.84540 0.49712
 C1076 C 0.34810 0.78309 0.50384
 H1077 H 0.24218 0.82437 0.53505
 H1078 H 0.32234 0.74740 0.54590
 H1079 H 0.21304 0.72214 0.57071
 H1080 H 0.24514 0.73965 0.46101
 H1081 H 0.19426 0.77657 0.45822
 H1082 H 0.19326 0.72848 0.46223
 H1083 H 0.33586 0.78232 0.57811
 H1084 H 0.30129 0.75332 0.61053
 H1085 H 0.21118 0.83674 0.49911
 H1086 H 0.17736 0.80643 0.53226
 H1087 H 0.33967 0.71310 0.51570
 H1088 H 0.30780 0.68828 0.55252
 H1089 H 0.23616 0.81565 0.59866
 H1090 H 0.27292 0.84114 0.57105
 H1091 H 0.24484 0.67827 0.48475
 H1092 H 0.27874 0.70472 0.45144
 O1093 O 0.32367 0.26942 0.98014
 O1094 O 0.32115 0.22257 0.96999
 O1095 O 0.24268 0.29859 0.93266
 O1096 O 0.19281 0.28883 0.93812
 O1097 O 0.26680 0.33677 1.01867
 O1098 O 0.26720 0.32513 1.06651
 O1099 O 0.17175 0.20277 1.00062
 O1100 O 0.18690 0.20642 0.95158
 O1101 O 0.24903 0.17939 1.04980
 O1102 O 0.29624 0.19344 1.04905
 O1103 O 0.19580 0.24519 1.08481
 O1104 O 0.18558 0.29164 1.07598
 O1105 O 0.16162 0.23436 1.03861
 O1106 O 0.16411 0.29212 1.03524
 O1107 O 0.23759 0.21793 1.08879
 O1108 O 0.28980 0.23190 1.08372
 O1109 O 0.21751 0.17303 1.01012
 O1110 O 0.22917 0.18782 0.95244
 O1111 O 0.31528 0.30337 1.01629
 O1112 O 0.29665 0.29285 1.07181
 O1113 O 0.23627 0.33450 0.97772
 O1114 O 0.18279 0.31321 0.97723
 O1115 O 0.28426 0.27084 0.93330
 O1116 O 0.28559 0.21479 0.94237
 Zr1117 Zr 0.28252 0.24786 0.97540
 O1118 O 0.26065 0.21451 1.00035
 Zr1119 Zr 0.22307 0.28984 0.97463
 O1120 O 0.19713 0.25636 0.99512
 Zr1121 Zr 0.27097 0.29397 1.03171
 O1122 O 0.24447 0.26442 1.05635
 Zr1123 Zr 0.21545 0.21471 0.98860
 O1124 O 0.23747 0.24771 0.96253
 Zr1125 Zr 0.26066 0.22309 1.04716
 O1126 O 0.28837 0.25281 1.02283
 Zr1127 Zr 0.19956 0.26288 1.04171
 O1128 O 0.22483 0.29704 1.02139
 O1129 O 0.26833 0.28939 0.98513
 O1130 O 0.21565 0.22124 1.03511
 C1131 C 0.33216 0.29084 0.99669
 C1132 C 0.26686 0.28950 0.92069
 C1133 C 0.25328 0.34836 0.99662
 C1134 C 0.15471 0.21259 1.02138
 C1135 C 0.23149 0.16373 1.03373
 C1136 C 0.21297 0.22835 1.09931
 H1137 H 0.26991 0.19559 0.99604
 H1138 H 0.24602 0.26961 1.07799
 H1139 H 0.28030 0.30450 0.97447
 H1140 H 0.17634 0.25710 0.98767
 H1141 H 0.17791 0.22519 0.94628
 H1142 H 0.19461 0.26940 0.92879
 H1143 H 0.30929 0.23826 1.07510
 H1144 H 0.31699 0.28639 1.06641
 H1145 H 0.24122 0.17198 0.96093
 H1146 H 0.27095 0.21930 0.92641
 H1147 H 0.20394 0.30129 1.08366
 H1148 H 0.24554 0.32693 1.07065
 H1149 H 0.32407 0.21263 0.98950
 H1150 H 0.31307 0.20252 1.03778
 H1151 H 0.18466 0.32671 0.99456
 H1152 H 0.14920 0.28269 1.02182
 C1153 C 0.29694 0.37411 0.79528
 C1154 C 0.27124 0.38733 0.80233
 H1155 H 0.31105 0.38381 0.77792
 H1156 H 0.25682 0.37793 0.81959
 C1157 C 0.28638 -0.14360 0.29105
 C1158 C 0.26287 -0.12805 0.29952
 H1159 H 0.29882 -0.13739 0.27091
 H1160 H 0.24969 -0.13488 0.31898
 C1161 C 0.77297 0.86213 0.77499
 C1162 C 0.78495 0.87618 0.75141
 H1163 H 0.75587 0.87229 0.78866
 H1164 H 0.80168 0.86602 0.73725
 C1165 C 0.45889 0.88411 0.29862
 C1166 C 0.44978 0.86643 0.27637
 H1167 H 0.47871 0.87879 0.31136
 H1168 H 0.43067 0.87244 0.26287
 C1169 C -0.04019 0.87784 0.78965
 C1170 C -0.05534 0.85818 0.77373
 H1171 H -0.01996 0.87151 0.80115
 H1172 H -0.07547 0.86457 0.76207
 C1173 C -0.03030 -0.14801 -0.03065
 C1174 C -0.01018 -0.13156 -0.04551
 H1175 H -0.03920 -0.14044 -0.00926
 H1176 H -0.00061 -0.13900 -0.06664
 C1177 C -0.04136 0.36989 0.46593
 C1178 C -0.02525 0.38774 0.44843
 H1179 H -0.05067 0.37735 0.48716
 H1180 H -0.01612 0.38014 0.42716
 C1181 C 0.45053 -0.12590 0.46628
 C1182 C 0.47173 -0.10813 0.45514
 H1183 H 0.43848 -0.11955 0.48649
 H1184 H 0.48457 -0.11486 0.43556
 C1185 C 0.46225 0.36164 -0.02809
 C1186 C 0.44871 0.37927 -0.00841
 H1187 H 0.48295 0.36878 -0.03882
 H1188 H 0.42801 0.37245 0.00254
 C1189 C 0.78746 0.39267 0.45415
 C1190 C 0.79794 0.37522 0.47588
 H1191 H 0.76770 0.38615 0.44161
 H1192 H 0.81807 0.38141 0.48798
 C1193 C 0.79943 0.87417 -0.06450
 C1194 C 0.80725 0.85881 -0.04007
 H1195 H 0.77993 0.86665 -0.07692
 H1196 H 0.82650 0.86563 -0.02690
 C1197 C 0.78951 0.29112 0.35621
 C1198 C 0.76939 0.30345 0.37455
 H1199 H 0.79994 0.27099 0.36263
 H1200 H 0.75940 0.32390 0.36853
 C1201 C 0.77680 0.79010 -0.15020
 C1202 C 0.79015 0.76940 -0.13416
 H1203 H 0.75821 0.80162 -0.14026
 H1204 H 0.80864 0.75737 -0.14357
 C1205 C 0.27829 0.47830 0.90447
 C1206 C 0.25413 0.47236 0.88790
 H1207 H 0.29508 0.49377 0.89655
 H1208 H 0.23749 0.45673 0.89583
 C1209 C 0.28173 -0.03040 0.39412
 C1210 C 0.25647 -0.04066 0.38130
 H1211 H 0.29443 -0.01291 0.38356
 H1212 H 0.24402 -0.05846 0.39161
 C1213 C -0.03588 -0.03561 -0.15129
 C1214 C -0.01497 -0.04770 -0.13424
 H1215 H -0.04613 -0.01551 -0.14429
 H1216 H -0.00370 -0.06712 -0.14172
 C1217 C -0.02528 0.45518 0.35008
 C1218 C -0.03032 0.48021 0.36433
 H1219 H -0.00887 0.44060 0.35933
 H1220 H -0.04667 0.49505 0.35547
 C1221 C 0.45033 -0.02961 0.36068
 C1222 C 0.47692 -0.03359 0.37366
 H1223 H 0.43528 -0.01348 0.36962
 H1224 H 0.49174 -0.04999 0.36486
 C1225 C 0.44902 0.45851 -0.12667
 C1226 C 0.47012 0.44889 -0.10800
 H1227 H 0.43608 0.47706 -0.11963
 H1228 H 0.48315 0.43015 -0.11424
 C1229 C 0.45907 0.80495 0.38299
 C1230 C 0.44886 0.78171 0.36751
 H1231 H 0.47647 0.81875 0.37330
 H1232 H 0.43101 0.76832 0.37697
 C1233 C -0.04287 0.78582 0.88730
 C1234 C -0.05740 0.76526 0.87097
 H1235 H -0.02452 0.79792 0.87694
 H1236 H -0.07584 0.75283 0.88070
 C1237 C 0.35710 0.77954 0.30190
 C1238 C 0.36998 0.78626 0.27526
 H1239 H 0.36708 0.76362 0.31658
 H1240 H 0.36031 0.80265 0.26093
 C1241 C -0.15261 0.78931 0.76546
 C1242 C -0.13903 0.76544 0.77442
 H1243 H -0.14237 0.80307 0.74832
 H1244 H -0.14955 0.75172 0.79144
 C1245 C 0.89234 0.28675 0.46982
 C1246 C 0.87201 0.27347 0.45241
 H1247 H 0.88650 0.29302 0.49268
 H1248 H 0.87740 0.26786 0.42924
 C1249 C 0.89340 0.77903 -0.02358
 C1250 C 0.87680 0.75759 -0.03517
 H1251 H 0.88523 0.79139 -0.00447
 H1252 H 0.88516 0.74522 -0.05419
 C1253 C -0.11986 -0.05187 -0.06893
 C1254 C -0.10397 -0.05996 -0.04456
 H1255 H -0.11123 -0.03382 -0.08223
 H1256 H -0.11205 -0.07804 -0.03099
 C1257 C -0.12766 0.46147 0.46180
 C1258 C -0.11094 0.48346 0.45063
 H1259 H -0.11916 0.44800 0.47977
 H1260 H -0.11947 0.49693 0.43267
 C1261 C 0.36520 -0.04200 0.46295
 C1262 C 0.38152 -0.01988 0.45141
 H1263 H 0.37464 -0.05497 0.48085
 H1264 H 0.37270 -0.00695 0.43317
 C1265 C 0.34873 0.45211 -0.01887
 C1266 C 0.36802 0.47240 -0.02943
 H1267 H 0.35547 0.43779 -0.00083
 H1268 H 0.36161 0.48611 -0.04814
 C1269 C 0.37931 0.45484 0.79132
 C1270 C 0.36280 0.47523 0.80437
 H1271 H 0.37145 0.44379 0.77116
 H1272 H 0.37063 0.48607 0.82466
 C1273 C 0.37085 -0.05569 0.28889
 C1274 C 0.35334 -0.03410 0.29850
 H1275 H 0.36276 -0.07058 0.27171
 H1276 H 0.36140 -0.01950 0.31597
 C1277 C 0.11244 0.53350 0.70253
 C1278 C 0.12870 0.54489 0.72480
 H1279 H 0.12066 0.51545 0.68935
 H1280 H 0.12032 0.56312 0.73765
 C1281 C 0.10010 0.03732 0.21228
 C1282 C 0.11601 0.01433 0.20345
 H1283 H 0.10695 0.04904 0.23242
 H1284 H 0.10945 0.00229 0.18343
 C1285 C 0.62828 0.71844 0.19991
 C1286 C 0.61330 0.71351 0.22573
 H1287 H 0.61971 0.73383 0.18375
 H1288 H 0.62175 0.69776 0.24159
 C1289 C 0.13190 0.72320 0.72256
 C1290 C 0.11123 0.71152 0.74076
 H1291 H 0.12646 0.74166 0.70859
 H1292 H 0.11705 0.69305 0.75458
 C1293 C 0.61250 0.21278 0.53433
 C1294 C 0.63105 0.23356 0.54486
 H1295 H 0.61829 0.20087 0.51407
 H1296 H 0.62544 0.24496 0.56550
 C1297 C 0.61128 0.72137 0.03901
 C1298 C 0.62413 0.71886 0.01189
 H1299 H 0.62150 0.73512 0.05608
 H1300 H 0.61339 0.70515 -0.00493
 C1301 C 0.15001 0.02495 0.03595
 C1302 C 0.13489 0.03254 0.01126
 H1303 H 0.14266 0.00617 0.04892
 H1304 H 0.14223 0.05107 -0.00209
 C1305 C 0.15015 0.54236 0.52423
 C1306 C 0.13466 0.51802 0.52970
 H1307 H 0.14330 0.55647 0.50603
 H1308 H 0.14133 0.50404 0.54808
 C1309 C 0.64011 0.05358 0.52103
 C1310 C 0.62345 0.03222 0.53314
 H1311 H 0.63021 0.06794 0.50459
 H1312 H 0.63259 0.01817 0.55030
 C1313 C 0.62783 0.54520 0.03501
 C1314 C 0.61067 0.52556 0.04953
 H1315 H 0.61905 0.55678 0.01578
 H1316 H 0.61914 0.51452 0.06925
 C1317 C 0.03369 0.03852 0.12609
 C1318 C 0.04703 0.01736 0.11069
 H1319 H 0.01544 0.04995 0.11561
 H1320 H 0.06559 0.00591 0.12052
 C1321 C 0.03263 0.54444 0.62921
 C1322 C 0.04325 0.52236 0.61273
 H1323 H 0.01553 0.55830 0.62014
 H1324 H 0.06006 0.50833 0.62210
 C1325 C 0.54628 0.04118 0.63465
 C1326 C 0.52226 0.04874 0.61856
 H1327 H 0.56010 0.02372 0.62640
 H1328 H 0.50833 0.06627 0.62642
 C1329 C 0.53613 0.53656 0.14836
 C1330 C 0.51267 0.54606 0.13260
 H1331 H 0.54789 0.51760 0.14047
 H1332 H 0.50114 0.56538 0.13982
 C1333 C 0.20554 0.53944 0.62048
 C1334 C 0.22654 0.54909 0.63978
 H1335 H 0.19209 0.52049 0.62639
 H1336 H 0.24032 0.56769 0.63344
 C1337 C 0.21678 0.04382 0.11699
 C1338 C 0.20827 0.01866 0.13053
 H1339 H 0.23163 0.05881 0.12870
 H1340 H 0.19346 0.00364 0.11881
 C1341 C 0.70891 0.21505 0.63421
 C1342 C 0.72883 0.20545 0.61407
 H1343 H 0.69701 0.23485 0.62961
 H1344 H 0.74039 0.18541 0.61846
 C1345 C 0.70823 0.69914 0.12607
 C1346 C 0.70036 0.72141 0.10848
 H1347 H 0.72569 0.68471 0.11861
 H1348 H 0.68306 0.73589 0.11622
 C1349 C 0.52751 0.70302 0.10886
 C1350 C 0.53485 0.72631 0.12538
 H1351 H 0.51021 0.68806 0.11670
 H1352 H 0.55247 0.74093 0.11752
 C1353 C 0.02649 0.70850 0.60861
 C1354 C 0.03858 0.72512 0.62993
 H1355 H 0.00456 0.69873 0.61235
 H1356 H 0.06055 0.73488 0.62636
 C1357 C 0.54026 0.61660 0.22410
 C1358 C 0.51724 0.63113 0.21291
 H1359 H 0.55322 0.62608 0.24236
 H1360 H 0.50467 0.62198 0.19420
 C1361 C 0.03935 0.60940 0.71793
 C1362 C 0.01588 0.62472 0.70943
 H1363 H 0.05337 0.61716 0.73623
 H1364 H 0.00231 0.61685 0.69081
 C1365 C 0.03270 0.12353 0.04145
 C1366 C 0.04416 0.10959 0.01760
 H1367 H 0.01422 0.11330 0.05358
 H1368 H 0.06230 0.11962 0.00481
 C1369 C 0.03641 0.63578 0.53253
 C1370 C 0.05365 0.61801 0.51671
 H1371 H 0.01419 0.62873 0.53959
 H1372 H 0.07579 0.62496 0.50933
 C1373 C 0.52871 0.14353 0.54889
 C1374 C 0.53616 0.12904 0.52372
 H1375 H 0.51199 0.13449 0.56415
 H1376 H 0.55335 0.13809 0.50899
 C1377 C 0.54615 0.63427 0.02678
 C1378 C 0.52032 0.62030 0.03297
 H1379 H 0.56296 0.62418 0.01273
 H1380 H 0.50377 0.63118 0.04672
 C1381 C 0.72224 0.11938 0.52085
 C1382 C 0.70613 0.13958 0.50702
 H1383 H 0.74429 0.12487 0.52947
 H1384 H 0.68405 0.13450 0.49821
 C1385 C 0.71158 0.61479 0.03447
 C1386 C 0.69840 0.63243 0.01482
 H1387 H 0.73252 0.62129 0.04494
 H1388 H 0.67776 0.62588 0.00383
 C1389 C 0.20079 0.64229 0.73922
 C1390 C 0.22477 0.62711 0.73066
 H1391 H 0.18443 0.63276 0.75456
 H1392 H 0.24082 0.63664 0.71497
 C1393 C 0.21817 0.12378 0.21582
 C1394 C 0.19960 0.10431 0.22812
 H1395 H 0.24021 0.11763 0.20807
 H1396 H 0.17735 0.11056 0.23524
 C1397 C 0.71689 1.13086 0.70413
 C1398 C 0.73424 1.11438 0.68665
 H1399 H 0.70891 1.12238 0.72559
 H1400 H 0.74228 1.12247 0.66506
 C1401 C 0.69709 0.63689 0.21588
 C1402 C 0.72383 0.62488 0.21130
 H1403 H 0.68104 0.62678 0.23116
 H1404 H 0.73964 0.63580 0.19633
 C1405 C 0.53738 0.12111 0.70651
 C1406 C 0.54743 0.13624 0.73039
 H1407 H 0.51852 0.12892 0.69377
 H1408 H 0.56650 0.12828 0.74274
 C1409 C 1.02587 0.11174 0.20168
 C1410 C 1.03705 0.12682 0.22482
 H1411 H 1.00821 0.12075 0.18806
 H1412 H 1.05499 0.11786 0.23812
 C1413 C 0.21416 0.62309 0.54928
 C1414 C 0.22893 0.64139 0.56743
 H1415 H 0.20744 0.63051 0.52712
 H1416 H 0.23630 0.63428 0.58946
 C1417 C 0.20741 0.11448 1.03409
 C1418 C 0.22734 0.13359 1.04496
 H1419 H 0.19422 0.12031 1.01459
 H1420 H 0.24036 0.12753 1.06450
 C1421 C 0.22615 0.71934 0.66751
 C1422 C 0.21810 0.74218 0.65108
 H1423 H 0.24434 0.70576 0.66008
 H1424 H 0.19974 0.75556 0.65851
 C1425 C 0.21753 0.20165 1.14670
 C1426 C 0.20311 0.22089 1.13006
 H1427 H 0.23763 0.19194 1.13766
 H1428 H 0.18249 0.23023 1.13828
 C1429 C 0.71196 0.53317 0.10403
 C1430 C 0.73542 0.54435 0.11913
 H1431 H 0.69996 0.51430 0.11272
 H1432 H 0.74701 0.56361 0.11085
 C1433 C 0.72803 1.03549 0.58226
 C1434 C 0.71360 1.01759 0.60120
 H1435 H 0.75054 1.04299 0.58747
 H1436 H 0.69103 1.01013 0.59624
 C1437 C 0.54737 0.22241 0.62273
 C1438 C 0.52534 0.21357 0.64117
 H1439 H 0.56234 0.23986 0.62974
 H1440 H 0.51061 0.19591 0.63417
 C1441 C 1.02508 0.19668 0.11616
 C1442 C 1.03533 0.22033 0.13083
 H1443 H 1.00734 0.18342 0.12608
 H1444 H 1.05289 0.23388 0.12103
 C1445 C 0.64403 0.20488 0.72328
 C1446 C 0.62727 0.22701 0.71459
 H1447 H 0.63735 0.19188 0.74264
 H1448 H 0.63376 0.23962 0.69489
 C1449 C 1.14165 0.19685 0.22721
 C1450 C 1.12648 0.22007 0.21847
 H1451 H 1.13245 0.18301 0.24486
 H1452 H 1.13563 0.23378 0.20068
 C1453 C 0.11714 0.70775 0.54252
 C1454 C 0.13167 0.73023 0.55527
 H1455 H 0.12833 0.69526 0.52519
 H1456 H 0.12061 0.74293 0.57251
 C1457 C 0.10500 0.20642 1.04495
 C1458 C 0.12574 0.19690 1.02578
 H1459 H 0.10915 0.22676 1.05664
 H1460 H 0.12199 0.17662 1.01386
 C1461 C 0.61962 0.54654 0.21878
 C1462 C 0.63670 0.52750 0.20395
 H1463 H 0.62837 0.55770 0.23850
 H1464 H 0.62831 0.51665 0.18390
 C1465 C 0.62232 1.05391 0.71102
 C1466 C 0.63526 1.02906 0.70281
 H1467 H 0.63387 1.06894 0.72595
 H1468 H 0.62312 1.01427 0.68806
 C1469 C 0.89567 0.46410 0.27371
 C1470 C 0.87817 0.48293 0.28809
 H1471 H 0.88879 0.45564 0.25192
 H1472 H 0.88439 0.49100 0.31023
 C1473 C 0.89380 0.96211 0.76827
 C1474 C 0.87757 0.95060 0.74589
 H1475 H 0.88752 0.98293 0.77757
 H1476 H 0.88352 0.92981 0.73632
 C1477 C 0.37596 0.30255 0.79738
 C1478 C 0.39144 0.28074 0.80965
 H1479 H 0.38483 0.31404 0.77787
 H1480 H 0.38274 0.26933 0.82928
 C1481 C 0.86854 0.29949 0.28006
 C1482 C 0.88225 0.27574 0.29058
 H1483 H 0.87914 0.31254 0.26257
 H1484 H 0.87168 0.26280 0.30818
 C1485 C 0.38921 0.78712 0.46707
 C1486 C 0.37732 0.79430 0.49378
 H1487 H 0.37923 0.76986 0.45364
 H1488 H 0.38727 0.81178 0.50693
 C1489 C 0.38217 0.28798 0.97375
 C1490 C 0.36312 0.30210 0.99196
 H1491 H 0.37516 0.26752 0.96372
 H1492 H 0.36984 0.32241 1.00245
 C1493 C 0.79909 0.47419 0.38252
 C1494 C 0.77799 0.46401 0.36397
 H1495 H 0.81229 0.49314 0.37605
 H1496 H 0.76521 0.44471 0.37020
 C1497 C 0.80019 0.94392 0.85596
 C1498 C 0.81010 0.96628 0.83910
 H1499 H 0.78055 0.93182 0.84858
 H1500 H 0.82983 0.97841 0.84617
 C1501 C 0.28424 0.79889 0.38340
 C1502 C 0.29583 0.77916 0.40215
 H1503 H 0.26589 0.81212 0.39111
 H1504 H 0.31428 0.76607 0.39442
 C1505 C 0.30036 0.29712 0.87653
 C1506 C 0.27504 0.30296 0.89118
 H1507 H 0.31502 0.28097 0.88591
 H1508 H 0.26013 0.31892 0.88187
 C1509 C 0.46705 0.27816 0.90600
 C1510 C 0.49073 0.28854 0.89041
 H1511 H 0.45499 0.25915 0.89780
 H1512 H 0.50266 0.30771 0.89834
 C1513 C 0.97304 0.29258 0.39305
 C1514 C 0.96441 0.26875 0.37821
 H1515 H 0.99062 0.30642 0.38372
 H1516 H 0.94654 0.25511 0.38730
 C1517 C 0.45668 0.38328 0.79397
 C1518 C 0.48144 0.37032 0.80315
 H1519 H 0.44366 0.37346 0.77594
 H1520 H 0.49482 0.38011 0.82092
 C1521 C 0.95712 0.37903 0.27775
 C1522 C 0.97550 0.36161 0.29258
 H1523 H 0.94546 0.37137 0.25779
 H1524 H 0.98694 0.36938 0.31263
 C1525 C 0.28274 0.88887 0.46492
 C1526 C 0.29480 0.87407 0.48750
 H1527 H 0.26306 0.88042 0.45348
 H1528 H 0.31410 0.88299 0.49925
 C1529 C 0.25884 0.39298 0.96660
 C1530 C 0.26066 0.37923 0.99282
 H1531 H 0.24663 0.38330 0.94794
 H1532 H 0.27281 0.38964 1.01114
 C1533 C 0.78897 0.37286 0.28666
 C1534 C 0.80144 0.39056 0.26617
 H1535 H 0.76890 0.37944 0.29848
 H1536 H 0.82170 0.38415 0.25457
   
