data_POSCAR
  _audit_creation_date              2014-09-24
  _audit_creation_method            'ToBaCCo'
  _symmetry_space_group_name_H-M    'P1'
  _symmetry_Int_Tables_number       1
  _symmetry_cell_setting            triclinic
  loop_
  _symmetry_equiv_pos_as_xyz
 x,y,z
_cell_length_a 35.9829
_cell_length_b 35.8843
_cell_length_c 25.1666
_cell_angle_alpha 90.088300
_cell_angle_beta 90.011200
_cell_angle_gamma 89.979400
loop_
  _atom_site_label
  _atom_site_type_symbol
  _atom_site_fract_x
  _atom_site_fract_y
  _atom_site_fract_z
Zr1 Zr -0.06575 0.00333 -0.00157
 O2 O -0.10843 -0.02455 -0.04378
 O3 O -0.09638 0.03711 0.05086
 O4 O -0.09610 -0.03362 0.04773
 O5 O -0.05144 0.07242 -0.09474
 O6 O -0.05087 -0.06949 0.08553
 O7 O -0.09644 0.04006 -0.05034
 O8 O -0.05118 0.06781 0.09726
 O9 O -0.03395 -0.00042 0.06806
 O10 O -0.03292 0.05144 0.00137
 O11 O -0.03429 -0.04574 -0.01013
 O12 O -0.03496 0.00426 -0.07331
 Zr13 Zr 0.06478 0.00035 -0.00723
 Zr14 Zr -0.00055 -0.04770 0.05751
 Zr15 Zr -0.00052 0.05118 -0.06694
 Zr16 Zr -0.00014 0.04688 0.06885
 O17 O 0.00014 0.04910 -0.15093
 O18 O -0.00218 0.03328 0.15075
 O19 O 0.03361 0.04989 0.00074
 O20 O 0.03344 -0.00055 0.06353
 O21 O 0.03242 -0.04813 -0.01062
 O22 O 0.03259 0.00392 -0.07637
 C23 C -0.08532 0.06141 0.08496
 C24 C -0.08558 0.06528 -0.08324
 C25 C -0.08502 -0.06095 0.07697
 O26 O 0.00231 -0.04676 0.14144
 O27 O 0.04996 -0.07239 0.07989
 O28 O 0.09533 -0.03828 0.03922
 C29 C 0.08417 -0.06501 0.06951
 O30 O -0.05077 -0.05882 -0.11737
 Zr31 Zr -0.00087 -0.04325 -0.07795
 O32 O 0.09532 -0.03417 -0.05851
 O33 O -0.00302 -0.10605 0.04531
 O34 O -0.00654 -0.10197 -0.07237
 O35 O 0.00534 -0.03323 -0.16052
 O36 O 0.04994 -0.06844 -0.09896
 C37 C 0.08412 -0.06109 -0.08817
 O38 O 0.10726 0.02715 0.03674
 O39 O -0.00142 0.10980 -0.05701
 O40 O 0.09525 0.03875 -0.05425
 O41 O 0.04990 0.07570 -0.08964
 O42 O 0.00157 0.10584 0.06346
 O43 O 0.04932 0.06827 0.10361
 C44 C 0.08411 0.06695 -0.08181
 H45 H -0.04739 0.07487 0.00243
 H46 H 0.04969 -0.00190 0.09522
 H47 H 0.04801 0.00541 -0.10886
 H48 H -0.05063 -0.06782 -0.01301
 H49 H -0.00902 0.05625 0.17033
 H50 H 0.00135 -0.07306 0.15330
 H51 H -0.00177 -0.11798 0.08078
 H52 H -0.00026 -0.11266 -0.10758
 H53 H -0.00482 0.11610 0.09890
 H54 H -0.00251 0.12097 -0.09299
 H55 H 0.00137 0.07525 -0.16337
 H56 H 0.01163 -0.05740 -0.17738
 H57 H 0.04296 0.08284 0.13580
 H58 H 0.13137 0.01814 0.02253
 H59 H -0.13251 -0.01545 -0.02957
 H60 H -0.04514 -0.07732 -0.14547
 Zr61 Zr 0.56467 0.50017 0.49249
 O62 O 0.60705 0.52732 0.53622
 O63 O 0.59526 0.46536 0.44176
 O64 O 0.59514 0.46183 0.53953
 O65 O 0.55009 0.57472 0.40858
 O66 O 0.54970 0.42815 0.58076
 O67 O 0.59530 0.53803 0.44486
 O68 O 0.54993 0.43088 0.40154
 O69 O 0.53231 0.45168 0.48979
 O70 O 0.53257 0.50319 0.42321
 O71 O 0.53326 0.49988 0.56316
 O72 O 0.53355 0.54981 0.49949
 Zr73 Zr 0.43417 0.50326 0.49772
 Zr74 Zr 0.49926 0.45270 0.55783
 Zr75 Zr 0.49953 0.55057 0.43169
 Zr76 Zr 0.49909 0.45604 0.42230
 O77 O 0.49861 0.60925 0.44075
 O78 O 0.49359 0.39736 0.42894
 O79 O 0.46506 0.50360 0.42606
 O80 O 0.46561 0.45412 0.49007
 O81 O 0.46587 0.50008 0.56748
 O82 O 0.46699 0.55140 0.49991
 C83 C 0.58410 0.43833 0.41229
 C84 C 0.58428 0.56595 0.41666
 C85 C 0.58392 0.43537 0.57026
 O86 O 0.49679 0.39425 0.54665
 O87 O 0.44892 0.43111 0.58602
 O88 O 0.40375 0.46663 0.54742
 C89 C 0.41479 0.43953 0.57710
 O90 O 0.54915 0.56908 0.60194
 Zr91 Zr 0.49970 0.54738 0.56754
 O92 O 0.40348 0.53742 0.54960
 O93 O 0.50198 0.45439 0.64175
 O94 O 0.49765 0.53452 0.64968
 O95 O 0.50134 0.60630 0.56114
 O96 O 0.44865 0.56847 0.59558
 C97 C 0.41451 0.56194 0.58341
 O98 O 0.39149 0.47508 0.45589
 O99 O 0.50033 0.54789 0.34773
 O100 O 0.40355 0.53946 0.44812
 O101 O 0.44861 0.57141 0.40321
 O102 O 0.50521 0.46542 0.33957
 O103 O 0.44923 0.44004 0.38315
 C104 C 0.41444 0.56430 0.41466
 H105 H 0.54801 0.50440 0.39070
 H106 H 0.44928 0.43201 0.48749
 H107 H 0.45249 0.57482 0.50052
 H108 H 0.54947 0.49878 0.59491
 H109 H 0.49990 0.38637 0.39392
 H110 H 0.49799 0.38263 0.58233
 H111 H 0.50101 0.42820 0.65407
 H112 H 0.49083 0.55768 0.66884
 H113 H 0.51151 0.44114 0.32306
 H114 H 0.50157 0.57395 0.33491
 H115 H 0.49760 0.62012 0.40459
 H116 H 0.49494 0.61684 0.59640
 H117 H 0.45488 0.42123 0.35547
 H118 H 0.36739 0.48429 0.46993
 H119 H 0.63119 0.51817 0.52230
 H120 H 0.54277 0.58398 0.63382
 Zr121 Zr 0.56573 -0.00351 0.50061
 O122 O 0.60869 0.02456 0.45936
 O123 O 0.59613 -0.03784 0.55263
 O124 O 0.59595 0.03328 0.55071
 O125 O 0.55152 -0.07167 0.40557
 O126 O 0.55060 0.06874 0.58912
 O127 O 0.59648 -0.03981 0.45095
 O128 O 0.55070 -0.06889 0.59792
 O129 O 0.53368 -0.00029 0.57008
 O130 O 0.53278 -0.05158 0.50218
 O131 O 0.53429 0.04567 0.49291
 O132 O 0.53506 -0.00371 0.42868
 Zr133 Zr 0.43506 -0.00013 0.49406
 Zr134 Zr 0.50033 0.04715 0.56036
 Zr135 Zr 0.50050 -0.05064 0.43367
 Zr136 Zr 0.49979 -0.04754 0.56952
 O137 O 0.50014 -0.04785 0.34973
 O138 O 0.50158 -0.03469 0.65173
 O139 O 0.46617 -0.04981 0.50114
 O140 O 0.46625 -0.00000 0.56503
 O141 O 0.46754 0.04829 0.49202
 O142 O 0.46751 -0.00320 0.42512
 C143 C 0.58493 -0.06242 0.58619
 C144 C 0.58568 -0.06466 0.41729
 C145 C 0.58480 0.06040 0.58044
 O146 O 0.49729 0.04536 0.64424
 O147 O 0.44980 0.07176 0.58311
 O148 O 0.40446 0.03827 0.54118
 C149 C 0.41559 0.06467 0.57225
 O150 O 0.55111 0.05988 0.38623
 Zr151 Zr 0.50106 0.04391 0.42483
 O152 O 0.40477 0.03490 0.44322
 O153 O 0.50291 0.10559 0.54950
 O154 O 0.50665 0.10256 0.43194
 O155 O 0.49533 0.03453 0.34199
 O156 O 0.45036 0.06926 0.40358
 C157 C 0.41611 0.06191 0.41391
 O158 O 0.39238 -0.02719 0.53717
 O159 O 0.50121 -0.10932 0.44246
 O160 O 0.40464 -0.03811 0.44592
 O161 O 0.45002 -0.07478 0.40989
 O162 O 0.49794 -0.10644 0.56258
 O163 O 0.45021 -0.06916 0.60355
 C164 C 0.41578 -0.06605 0.41767
 H165 H 0.54724 -0.07502 0.50279
 H166 H 0.44991 0.00110 0.59663
 H167 H 0.45221 -0.00438 0.39246
 H168 H 0.55065 0.06777 0.49059
 H169 H 0.50831 -0.05785 0.67085
 H170 H 0.49827 0.07153 0.65676
 H171 H 0.50155 0.11721 0.58522
 H172 H 0.50055 0.11362 0.39694
 H173 H 0.50426 -0.11709 0.59776
 H174 H 0.50243 -0.12020 0.40627
 H175 H 0.49887 -0.07389 0.33672
 H176 H 0.48913 0.05882 0.32552
 H177 H 0.45650 -0.08415 0.63532
 H178 H 0.36835 -0.01798 0.52298
 H179 H 0.63268 0.01526 0.47362
 H180 H 0.54559 0.07870 0.35860
 Zr181 Zr -0.06515 0.49970 -0.01146
 O182 O -0.10806 0.47272 0.03125
 O183 O -0.09526 0.53482 -0.06253
 O184 O -0.09573 0.53807 0.03580
 O185 O -0.05003 0.42499 -0.09531
 O186 O -0.05037 0.57140 0.07795
 O187 O -0.09545 0.46174 -0.05991
 O188 O -0.04959 0.56979 -0.10052
 O189 O -0.03258 0.54808 -0.01313
 O190 O -0.03258 0.49669 -0.08027
 O191 O -0.03405 0.49967 0.05962
 O192 O -0.03411 0.44998 -0.00434
 Zr193 Zr 0.06554 0.49610 -0.00443
 Zr194 Zr 0.00015 0.54677 0.05527
 Zr195 Zr 0.00037 0.44922 -0.07163
 Zr196 Zr 0.00100 0.54378 -0.08022
 O197 O 0.00114 0.39050 -0.06320
 O198 O 0.00721 0.60238 -0.07321
 O199 O 0.03497 0.49611 -0.07644
 O200 O 0.03419 0.54534 -0.01208
 O201 O 0.03339 0.49926 0.06495
 O202 O 0.03254 0.44808 -0.00308
 C203 C -0.08402 0.56242 -0.09095
 C204 C -0.08440 0.43367 -0.08813
 C205 C -0.08458 0.56439 0.06701
 O206 O 0.00278 0.60522 0.04453
 O207 O 0.05040 0.56833 0.08417
 O208 O 0.09575 0.53281 0.04582
 C209 C 0.08461 0.55994 0.07557
 O210 O -0.05022 0.43052 0.09809
 Zr211 Zr -0.00059 0.45207 0.06414
 O212 O 0.09578 0.46164 0.04761
 O213 O -0.00300 0.54486 0.13914
 O214 O 0.00112 0.46480 0.14639
 O215 O -0.00260 0.39321 0.05685
 O216 O 0.05023 0.43055 0.09259
 C217 C 0.08449 0.43701 0.08100
 O218 O 0.10868 0.52408 -0.04541
 O219 O -0.00001 0.45217 -0.15557
 O220 O 0.09625 0.45980 -0.05420
 O221 O 0.05136 0.42820 -0.09981
 O222 O -0.00522 0.53474 -0.16307
 O223 O 0.05111 0.55937 -0.11899
 C224 C 0.08563 0.43496 -0.08814
 H225 H -0.04787 0.49558 -0.11295
 H226 H 0.05060 0.56741 -0.01430
 H227 H 0.04696 0.42462 -0.00255
 H228 H -0.05044 0.50075 0.09117
 H229 H 0.00111 0.61348 -0.10820
 H230 H 0.00139 0.61681 0.08027
 H231 H -0.00199 0.57101 0.15172
 H232 H 0.00782 0.44161 0.16546
 H233 H -0.01142 0.55912 -0.17925
 H234 H -0.00133 0.42616 -0.16868
 H235 H 0.00235 0.37971 -0.09945
 H236 H 0.00372 0.38243 0.09196
 H237 H 0.04566 0.57805 -0.14685
 H238 H 0.13260 0.51467 -0.03109
 H239 H -0.13201 0.48199 0.01684
 H240 H -0.04396 0.41536 0.12971
 Zr241 Zr 0.06602 0.50304 0.50165
 O242 O 0.10878 0.47480 0.54316
 O243 O 0.09663 0.53742 0.45008
 O244 O 0.09646 0.46654 0.45161
 O245 O 0.05152 0.57086 0.59694
 O246 O 0.05129 0.43116 0.41264
 O247 O 0.09661 0.53918 0.55153
 O248 O 0.05139 0.56867 0.40460
 O249 O 0.03429 0.50007 0.43189
 O250 O 0.03313 0.55115 0.50005
 O251 O 0.03462 0.45386 0.50880
 O252 O 0.03516 0.50305 0.57336
 Zr253 Zr -0.06446 0.49981 0.50700
 Zr254 Zr 0.00094 0.45264 0.44105
 Zr255 Zr 0.00065 0.55002 0.56830
 Zr256 Zr 0.00040 0.54735 0.43241
 O257 O -0.00012 0.54701 0.65222
 O258 O 0.00248 0.53477 0.35013
 O259 O -0.03340 0.54949 0.50054
 O260 O -0.03310 0.49982 0.43628
 O261 O -0.03208 0.45131 0.50911
 O262 O -0.03235 0.50261 0.57629
 C263 C 0.08555 0.56210 0.41661
 C264 C 0.08569 0.56391 0.58526
 C265 C 0.08542 0.43952 0.42170
 O266 O -0.00179 0.45463 0.35715
 O267 O -0.04949 0.42818 0.41786
 O268 O -0.09492 0.46162 0.45968
 C269 C -0.08370 0.43530 0.42860
 O270 O 0.05102 0.43922 0.61551
 Zr271 Zr 0.00115 0.45546 0.57662
 O272 O -0.09505 0.46490 0.55746
 O273 O 0.00349 0.39415 0.45148
 O274 O 0.00664 0.39681 0.56917
 O275 O -0.00485 0.46459 0.65947
 O276 O -0.04971 0.43027 0.59730
 C277 C -0.08390 0.43781 0.58674
 O278 O -0.10687 0.52707 0.46354
 O279 O 0.00149 0.60874 0.56004
 O280 O -0.09511 0.53751 0.55494
 O281 O -0.04991 0.57410 0.59156
 O282 O -0.00141 0.60623 0.43955
 O283 O -0.04909 0.56911 0.39825
 C284 C -0.08409 0.56536 0.58333
 H285 H 0.04758 0.57459 0.49969
 H286 H -0.04934 0.49881 0.40455
 H287 H -0.04778 0.50372 0.60882
 H288 H 0.05098 0.43174 0.51113
 H289 H 0.00925 0.55800 0.33122
 H290 H -0.00079 0.42849 0.34452
 H291 H 0.00226 0.38267 0.41566
 H292 H 0.00031 0.38567 0.60403
 H293 H 0.00498 0.61693 0.40442
 H294 H 0.00246 0.61947 0.59634
 H295 H -0.00146 0.57301 0.66537
 H296 H -0.01116 0.44027 0.67573
 H297 H -0.04274 0.58411 0.36653
 H298 H -0.13101 0.51789 0.47737
 H299 H 0.13285 0.48409 0.52920
 H300 H 0.04536 0.42029 0.64294
 Zr301 Zr 0.43578 -0.00031 0.00674
 O302 O 0.39346 0.02699 -0.03687
 O303 O 0.40508 -0.03546 0.05677
 O304 O 0.40551 -0.03840 -0.04096
 O305 O 0.44999 0.07383 0.09174
 O306 O 0.45108 -0.07167 -0.08278
 O307 O 0.40494 0.03732 0.05461
 O308 O 0.45035 -0.07021 0.09656
 O309 O 0.46822 -0.04877 0.00875
 O310 O 0.46764 0.00232 0.07626
 O311 O 0.46739 -0.00011 -0.06378
 O312 O 0.46682 0.04940 0.00072
 Zr313 Zr 0.56626 0.00304 0.00222
 Zr314 Zr 0.50146 -0.04728 -0.05910
 Zr315 Zr 0.50063 0.04977 0.06874
 Zr316 Zr 0.50120 -0.04479 0.07652
 O317 O 0.50149 0.10852 0.06088
 O318 O 0.50687 -0.10341 0.06889
 O319 O 0.53518 0.00283 0.07374
 O320 O 0.53488 -0.04619 0.00892
 O321 O 0.53480 0.00022 -0.06781
 O322 O 0.53331 0.05111 0.00072
 C323 C 0.41619 -0.06269 0.08584
 C324 C 0.41585 0.06514 0.08319
 C325 C 0.41683 -0.06461 -0.07215
 O326 O 0.50387 -0.10580 -0.04900
 O327 O 0.55198 -0.06884 -0.08695
 O328 O 0.59693 -0.03334 -0.04766
 C329 C 0.58607 -0.06046 -0.07754
 O330 O 0.45148 0.06914 -0.10181
 Zr331 Zr 0.50086 0.04747 -0.06720
 O332 O 0.59701 0.03774 -0.04878
 O333 O 0.49914 -0.04504 -0.14300
 O334 O 0.50347 0.03508 -0.14951
 O335 O 0.49873 0.10633 -0.05976
 O336 O 0.55191 0.06920 -0.09423
 C337 C 0.58603 0.06266 -0.08195
 O338 O 0.60892 -0.02527 0.04386
 O339 O 0.49955 0.04650 0.15264
 O340 O 0.59663 0.03900 0.05250
 O341 O 0.55141 0.07053 0.09784
 O342 O 0.49483 -0.03591 0.15937
 O343 O 0.55098 -0.06098 0.11570
 C344 C 0.58560 0.06362 0.08629
 H345 H 0.45207 0.00333 0.10868
 H346 H 0.55124 -0.06830 0.01131
 H347 H 0.54771 0.07459 0.00066
 H348 H 0.45126 -0.00104 -0.09564
 H349 H 0.50049 -0.11464 0.10368
 H350 H 0.50280 -0.11718 -0.08489
 H351 H 0.50019 -0.07115 -0.15576
 H352 H 0.51031 0.05837 -0.16822
 H353 H 0.48851 -0.06029 0.17543
 H354 H 0.49818 0.07246 0.16593
 H355 H 0.50237 0.11914 0.09725
 H356 H 0.50521 0.11716 -0.09476
 H357 H 0.54527 -0.07994 0.14306
 H358 H 0.63303 -0.01591 0.03015
 H359 H 0.36930 0.01777 -0.02321
 H360 H 0.45795 0.08416 -0.13346
 Zr361 Zr 0.43412 0.49703 0.00189
 O362 O 0.39148 0.52514 0.04391
 O363 O 0.40342 0.46335 -0.05055
 O364 O 0.40392 0.53395 -0.04765
 O365 O 0.44812 0.42804 0.09534
 O366 O 0.44925 0.56955 -0.08565
 O367 O 0.40326 0.46050 0.05072
 O368 O 0.44858 0.43239 -0.09671
 O369 O 0.46600 0.50054 -0.06767
 O370 O 0.46682 0.44881 -0.00074
 O371 O 0.46565 0.54605 0.01021
 O372 O 0.46480 0.49617 0.07372
 Zr373 Zr 0.56457 0.49970 0.00784
 Zr374 Zr 0.49951 0.54777 -0.05734
 Zr375 Zr 0.49917 0.44913 0.06767
 Zr376 Zr 0.49967 0.45313 -0.06816
 O377 O 0.49961 0.45137 0.15166
 O378 O 0.49783 0.46652 -0.15014
 O379 O 0.53335 0.45019 0.00007
 O380 O 0.53336 0.50049 -0.06303
 O381 O 0.53234 0.54827 0.01092
 O382 O 0.53229 0.49638 0.07690
 C383 C 0.41444 0.43899 -0.08460
 C384 C 0.41400 0.43528 0.08375
 C385 C 0.41508 0.56113 -0.07706
 O386 O 0.50252 0.54660 -0.14125
 O387 O 0.55014 0.57233 -0.07957
 O388 O 0.59533 0.53808 -0.03866
 C389 C 0.58432 0.56483 -0.06903
 O390 O 0.44898 0.55942 0.11727
 Zr391 Zr 0.49893 0.54363 0.07817
 O392 O 0.59511 0.53431 0.05894
 O393 O 0.49706 0.60615 -0.04548
 O394 O 0.49339 0.60235 0.07231
 O395 O 0.50501 0.53383 0.16082
 O396 O 0.54975 0.56871 0.09925
 C397 C 0.58393 0.56129 0.08850
 O398 O 0.60697 0.47254 -0.03586
 O399 O 0.49832 0.39050 0.05794
 O400 O 0.59499 0.46158 0.05532
 O401 O 0.54962 0.42478 0.09090
 O402 O 0.50115 0.39417 -0.06255
 O403 O 0.54915 0.43145 -0.10255
 C404 C 0.58384 0.43355 0.08316
 H405 H 0.45229 0.42543 -0.00177
 H406 H 0.54967 0.50171 -0.09466
 H407 H 0.54767 0.49497 0.10947
 H408 H 0.44935 0.56818 0.01293
 H409 H 0.49097 0.44351 -0.16962
 H410 H 0.50164 0.57287 -0.15324
 H411 H 0.49840 0.61797 -0.08101
 H412 H 0.49963 0.61310 0.10750
 H413 H 0.49477 0.38388 -0.09798
 H414 H 0.49718 0.37941 0.09396
 H415 H 0.50080 0.42524 0.16421
 H416 H 0.51128 0.55803 0.17758
 H417 H 0.54281 0.41685 -0.13472
 H418 H 0.63111 0.48153 -0.02174
 H419 H 0.36738 0.51611 0.02966
 H420 H 0.45459 0.57796 0.14533
 Zr421 Zr 0.06461 0.00008 0.50796
 O422 O 0.10719 -0.02696 0.46445
 O423 O 0.09500 0.03495 0.55892
 O424 O 0.09515 0.03845 0.46110
 O425 O 0.04991 -0.07468 0.59142
 O426 O 0.04977 0.07219 0.41979
 O427 O 0.09516 -0.03788 0.55554
 O428 O 0.04948 0.06932 0.59892
 O429 O 0.03215 0.04851 0.51066
 O430 O 0.03235 -0.00315 0.57706
 O431 O 0.03337 0.00040 0.43711
 O432 O 0.03358 -0.04959 0.50062
 Zr433 Zr -0.06589 -0.00327 0.50204
 Zr434 Zr -0.00071 0.04753 0.44244
 Zr435 Zr -0.00062 -0.05055 0.56822
 Zr436 Zr -0.00123 0.04396 0.57796
 O437 O -0.00128 -0.10923 0.55905
 O438 O -0.00700 0.10263 0.57159
 O439 O -0.03519 -0.00365 0.57388
 O440 O -0.03454 0.04590 0.51001
 O441 O -0.03402 0.00011 0.43245
 O442 O -0.03295 -0.05133 0.49982
 C443 C 0.08370 0.06198 0.58831
 C444 C 0.08409 -0.06588 0.58349
 C445 C 0.08399 0.06495 0.43039
 O446 O -0.00333 0.10595 0.45384
 O447 O -0.05103 0.06907 0.41411
 O448 O -0.09624 0.03344 0.45235
 C449 C -0.08517 0.06062 0.42286
 O450 O 0.04948 -0.06867 0.39809
 Zr451 Zr -0.00010 -0.04713 0.43238
 O452 O -0.09637 -0.03742 0.44988
 O453 O 0.00218 0.04601 0.35852
 O454 O -0.00207 -0.03408 0.35029
 O455 O 0.00177 -0.10605 0.43857
 O456 O -0.05103 -0.06835 0.40406
 C457 C -0.08521 -0.06191 0.41610
 O458 O -0.10875 0.02474 0.54375
 O459 O -0.00009 -0.04794 0.65219
 O460 O -0.09657 -0.03971 0.55129
 O461 O -0.05154 -0.07175 0.59617
 O462 O 0.00485 0.03444 0.66068
 O463 O -0.05123 0.05975 0.61693
 C464 C -0.08570 -0.06471 0.58456
 H465 H 0.04774 -0.00438 0.60963
 H466 H -0.05093 0.06799 0.51260
 H467 H -0.04736 -0.07479 0.49903
 H468 H 0.04966 0.00158 0.40545
 H469 H -0.00080 0.11356 0.60669
 H470 H -0.00208 0.11764 0.41822
 H471 H 0.00118 0.07223 0.34630
 H472 H -0.00879 -0.05721 0.33099
 H473 H 0.01105 0.05871 0.67728
 H474 H 0.00125 -0.07400 0.66496
 H475 H -0.00234 -0.12016 0.59517
 H476 H -0.00455 -0.11655 0.40326
 H477 H -0.04567 0.07840 0.64487
 H478 H -0.13278 0.01550 0.52955
 H479 H 0.13127 -0.01779 0.47855
 H480 H 0.04320 -0.08344 0.36606
 Zr481 Zr 0.75327 0.18395 0.25233
 O482 O 0.72558 0.14109 0.29443
 O483 O 0.78719 0.15323 0.20019
 O484 O 0.71655 0.15325 0.20310
 O485 O 0.82185 0.19878 0.34597
 O486 O 0.68055 0.19835 0.16515
 O487 O 0.78975 0.15344 0.30155
 O488 O 0.81764 0.19857 0.15378
 O489 O 0.74943 0.21561 0.18258
 O490 O 0.80113 0.21703 0.24949
 O491 O 0.70421 0.21531 0.26064
 O492 O 0.75404 0.21499 0.32398
 Zr493 Zr 0.74972 0.31478 0.25756
 Zr494 Zr 0.70213 0.24895 0.19289
 Zr495 Zr 0.80069 0.24971 0.31769
 Zr496 Zr 0.79647 0.24970 0.18189
 O497 O 0.79864 0.25076 0.40168
 O498 O 0.78298 0.24732 0.09994
 O499 O 0.79927 0.28373 0.24990
 O500 O 0.74901 0.28319 0.18690
 O501 O 0.70151 0.28216 0.26093
 O502 O 0.75341 0.28271 0.32682
 C503 C 0.81143 0.16434 0.16618
 C504 C 0.81475 0.16449 0.33466
 C505 C 0.68918 0.16418 0.17394
 O506 O 0.70314 0.25152 0.10895
 O507 O 0.67727 0.29939 0.17025
 O508 O 0.71106 0.34512 0.21095
 C509 C 0.68446 0.33374 0.18060
 O510 O 0.69111 0.19894 0.36777
 Zr511 Zr 0.70652 0.24896 0.32837
 O512 O 0.71522 0.34539 0.30870
 O513 O 0.64394 0.24630 0.20485
 O514 O 0.64798 0.24314 0.32261
 O515 O 0.71652 0.25532 0.41096
 O516 O 0.68133 0.29984 0.34937
 C517 C 0.68850 0.33411 0.33846
 O518 O 0.77627 0.35736 0.21351
 O519 O 0.85915 0.24888 0.30799
 O520 O 0.78781 0.34567 0.30454
 O521 O 0.82491 0.30048 0.34012
 O522 O 0.85525 0.25175 0.18752
 O523 O 0.81757 0.29930 0.14703
 C524 C 0.81600 0.33471 0.33213
 H525 H 0.82454 0.20259 0.24865
 H526 H 0.74761 0.29940 0.15515
 H527 H 0.75482 0.29828 0.35928
 H528 H 0.68224 0.19885 0.26354
 H529 H 0.80595 0.24053 0.08048
 H530 H 0.67693 0.25041 0.09699
 H531 H 0.63206 0.24737 0.16933
 H532 H 0.63729 0.24945 0.35779
 H533 H 0.86555 0.24529 0.15215
 H534 H 0.87025 0.24799 0.34403
 H535 H 0.82472 0.25212 0.41416
 H536 H 0.69241 0.26156 0.42779
 H537 H 0.83215 0.29290 0.11491
 H538 H 0.76715 0.38155 0.22757
 H539 H 0.73479 0.11694 0.28032
 H540 H 0.67263 0.20459 0.39580
 Zr541 Zr 0.74772 0.81539 0.75337
 O542 O 0.77600 0.85832 0.79469
 O543 O 0.71301 0.84598 0.70200
 O544 O 0.78394 0.84584 0.70307
 O545 O 0.68041 0.80110 0.84900
 O546 O 0.81903 0.80047 0.66389
 O547 O 0.71179 0.84618 0.80323
 O548 O 0.68162 0.80050 0.65696
 O549 O 0.75032 0.78346 0.68362
 O550 O 0.69978 0.78237 0.75225
 O551 O 0.79680 0.78385 0.76031
 O552 O 0.74814 0.78452 0.82516
 Zr553 Zr 0.75094 0.68445 0.75907
 Zr554 Zr 0.79768 0.75003 0.69256
 Zr555 Zr 0.70125 0.74998 0.82060
 Zr556 Zr 0.70321 0.74945 0.68463
 O557 O 0.70495 0.74945 0.90447
 O558 O 0.71541 0.75145 0.60227
 O559 O 0.70142 0.71571 0.75288
 O560 O 0.75064 0.71583 0.68828
 O561 O 0.79928 0.71696 0.76058
 O562 O 0.74852 0.71674 0.82836
 C563 C 0.68816 0.83479 0.66883
 C564 C 0.68718 0.83532 0.83699
 C565 C 0.81078 0.83473 0.67297
 O566 O 0.79530 0.74702 0.60870
 O567 O 0.82211 0.69944 0.66957
 O568 O 0.78902 0.65391 0.71168
 C569 C 0.81518 0.66516 0.68053
 O570 O 0.81122 0.80027 0.86766
 Zr571 Zr 0.79561 0.75027 0.82814
 O572 O 0.78584 0.65384 0.80970
 O573 O 0.85605 0.75265 0.70265
 O574 O 0.85399 0.75684 0.82091
 O575 O 0.78725 0.74314 0.91094
 O576 O 0.82198 0.69933 0.84653
 C577 C 0.81388 0.66501 0.83704
 O578 O 0.72385 0.64176 0.71572
 O579 O 0.64262 0.75087 0.81313
 O580 O 0.71307 0.65390 0.80684
 O581 O 0.67706 0.69943 0.84397
 O582 O 0.64453 0.74754 0.69224
 O583 O 0.68145 0.69975 0.65065
 C584 C 0.68541 0.66510 0.83539
 H585 H 0.67636 0.79682 0.75200
 H586 H 0.75152 0.69948 0.65657
 H587 H 0.74752 0.70121 0.86081
 H588 H 0.81884 0.80027 0.76244
 H589 H 0.69216 0.75821 0.58351
 H590 H 0.82132 0.74802 0.59589
 H591 H 0.86737 0.75131 0.66677
 H592 H 0.86522 0.75043 0.85569
 H593 H 0.63366 0.75383 0.65718
 H594 H 0.63217 0.75198 0.84955
 H595 H 0.67913 0.74812 0.91796
 H596 H 0.81169 0.73669 0.92657
 H597 H 0.66637 0.70606 0.61900
 H598 H 0.73305 0.61762 0.72969
 H599 H 0.76669 0.88243 0.78072
 H600 H 0.82981 0.79462 0.89553
 Zr601 Zr 0.25246 0.31712 0.74758
 O602 O 0.22500 0.35992 0.70499
 O603 O 0.28641 0.34793 0.79965
 O604 O 0.21564 0.34811 0.79645
 O605 O 0.32144 0.30178 0.65462
 O606 O 0.17866 0.30343 0.83347
 O607 O 0.28918 0.34735 0.69835
 O608 O 0.31653 0.30265 0.84665
 O609 O 0.24826 0.28575 0.81753
 O610 O 0.30024 0.28391 0.75097
 O611 O 0.20337 0.28585 0.73900
 O612 O 0.25344 0.28576 0.67616
 Zr613 Zr 0.24883 0.18625 0.74320
 Zr614 Zr 0.20088 0.25253 0.80705
 Zr615 Zr 0.30005 0.25097 0.68300
 Zr616 Zr 0.29526 0.25153 0.81880
 O617 O 0.29825 0.24977 0.59900
 O618 O 0.28147 0.25428 0.90061
 O619 O 0.29837 0.21723 0.75106
 O620 O 0.24776 0.21820 0.81360
 O621 O 0.20062 0.21895 0.73929
 O622 O 0.25275 0.21803 0.67373
 C623 C 0.31053 0.33684 0.83388
 C624 C 0.31432 0.33613 0.66558
 C625 C 0.18776 0.33753 0.82486
 O626 O 0.20158 0.25083 0.89103
 O627 O 0.17631 0.20203 0.83038
 O628 O 0.21020 0.15616 0.79005
 C629 C 0.18366 0.16762 0.82042
 O630 O 0.19077 0.30171 0.63154
 Zr631 Zr 0.20590 0.25185 0.67160
 O632 O 0.21437 0.15548 0.69219
 O633 O 0.14275 0.25467 0.79442
 O634 O 0.14735 0.25785 0.67690
 O635 O 0.21612 0.24510 0.58914
 O636 O 0.18064 0.20091 0.65091
 C637 C 0.18775 0.16666 0.66215
 O638 O 0.27532 0.14383 0.78769
 O639 O 0.35847 0.25163 0.69324
 O640 O 0.28704 0.15508 0.69651
 O641 O 0.32427 0.20006 0.66081
 O642 O 0.35406 0.24929 0.81380
 O643 O 0.31606 0.20195 0.85417
 C644 C 0.31530 0.16585 0.66888
 H645 H 0.32369 0.29827 0.75190
 H646 H 0.24627 0.20216 0.84550
 H647 H 0.25425 0.20234 0.64141
 H648 H 0.18146 0.30236 0.73567
 H649 H 0.30438 0.26105 0.92021
 H650 H 0.17530 0.25186 0.90271
 H651 H 0.13071 0.25379 0.82983
 H652 H 0.13675 0.25139 0.64171
 H653 H 0.36421 0.25571 0.84928
 H654 H 0.36973 0.25244 0.65730
 H655 H 0.32436 0.24833 0.58670
 H656 H 0.19205 0.23882 0.57222
 H657 H 0.33046 0.20840 0.88644
 H658 H 0.26626 0.11960 0.77375
 H659 H 0.23420 0.38408 0.71902
 H660 H 0.17226 0.29601 0.60356
 Zr661 Zr 0.24652 0.68370 0.24734
 O662 O 0.27408 0.64052 0.20553
 O663 O 0.21258 0.65339 0.29984
 O664 O 0.28331 0.65323 0.29679
 O665 O 0.17778 0.69819 0.15368
 O666 O 0.31924 0.69853 0.33460
 O667 O 0.20984 0.65299 0.19828
 O668 O 0.18224 0.69908 0.34592
 O669 O 0.25041 0.71581 0.31684
 O670 O 0.19873 0.71693 0.24992
 O671 O 0.29564 0.71497 0.23892
 O672 O 0.24590 0.71439 0.17549
 Zr673 Zr 0.25039 0.81462 0.24125
 Zr674 Zr 0.29777 0.74902 0.30643
 Zr675 Zr 0.19928 0.74924 0.18147
 Zr676 Zr 0.20343 0.75001 0.31727
 O677 O 0.20144 0.74961 0.09749
 O678 O 0.21686 0.74816 0.39925
 O679 O 0.20077 0.78367 0.24902
 O680 O 0.25093 0.78339 0.31211
 O681 O 0.29854 0.78187 0.23817
 O682 O 0.24665 0.78212 0.17224
 C683 C 0.18842 0.66476 0.33387
 C684 C 0.18478 0.66390 0.16514
 C685 C 0.31063 0.66430 0.32601
 O686 O 0.29671 0.75200 0.39036
 O687 O 0.32268 0.79956 0.32903
 O688 O 0.28900 0.84516 0.28801
 C689 C 0.31552 0.83391 0.31861
 O690 O 0.30892 0.69800 0.13198
 Zr691 Zr 0.29348 0.74827 0.17096
 O692 O 0.28506 0.84483 0.18998
 O693 O 0.35596 0.74619 0.29448
 O694 O 0.35200 0.74236 0.17693
 O695 O 0.28351 0.75412 0.08831
 O696 O 0.31877 0.79898 0.14946
 C697 C 0.31171 0.83334 0.16017
 O698 O 0.22382 0.85754 0.28483
 O699 O 0.14082 0.74885 0.19121
 O700 O 0.21236 0.84530 0.19391
 O701 O 0.17532 0.79998 0.15838
 O702 O 0.14465 0.75209 0.31150
 O703 O 0.18230 0.79986 0.35163
 C704 C 0.18425 0.83424 0.16618
 H705 H 0.17529 0.70255 0.25090
 H706 H 0.25232 0.79975 0.34376
 H707 H 0.24530 0.79748 0.13965
 H708 H 0.31759 0.69845 0.23617
 H709 H 0.19387 0.74158 0.41876
 H710 H 0.32290 0.75088 0.40238
 H711 H 0.36783 0.74742 0.32999
 H712 H 0.36276 0.74846 0.14174
 H713 H 0.13432 0.74585 0.34690
 H714 H 0.12971 0.74775 0.15519
 H715 H 0.17538 0.75103 0.08494
 H716 H 0.30763 0.76020 0.07143
 H717 H 0.16769 0.79368 0.38377
 H718 H 0.23302 0.88161 0.27062
 H719 H 0.26482 0.61649 0.21985
 H720 H 0.32742 0.70346 0.10392
 Zr721 Zr 0.24982 0.81506 0.75734
 O722 O 0.27636 0.85766 0.71330
 O723 O 0.21532 0.84569 0.80849
 O724 O 0.21121 0.84544 0.71077
 O725 O 0.32514 0.80068 0.83963
 O726 O 0.17737 0.79975 0.67008
 O727 O 0.28801 0.84590 0.80423
 O728 O 0.18131 0.80016 0.84898
 O729 O 0.20160 0.78246 0.76070
 O730 O 0.25353 0.78298 0.82658
 O731 O 0.24905 0.78349 0.68665
 O732 O 0.29935 0.78400 0.74957
 Zr733 Zr 0.25332 0.68420 0.75195
 Zr734 Zr 0.20217 0.74925 0.69265
 Zr735 Zr 0.30079 0.74995 0.81733
 Zr736 Zr 0.20662 0.74926 0.82812
 O737 O 0.35925 0.74905 0.80762
 O738 O 0.14808 0.74334 0.82245
 O739 O 0.25412 0.71525 0.82363
 O740 O 0.20428 0.71559 0.76037
 O741 O 0.24945 0.71592 0.68226
 O742 O 0.30118 0.71729 0.74909
 C743 C 0.18852 0.83444 0.83813
 C744 C 0.31626 0.83492 0.83166
 C745 C 0.18461 0.83409 0.68043
 O746 O 0.14399 0.74661 0.70470
 O747 O 0.18057 0.69867 0.66481
 O748 O 0.21656 0.65353 0.70268
 C749 C 0.18921 0.66448 0.67349
 O750 O 0.31763 0.79964 0.64679
 Zr751 Zr 0.29649 0.75001 0.68154
 O752 O 0.28722 0.65352 0.69969
 O753 O 0.20310 0.75187 0.60871
 O754 O 0.28296 0.74776 0.59960
 O755 O 0.35528 0.75196 0.68712
 O756 O 0.31756 0.69890 0.65322
 C757 C 0.31137 0.66467 0.66557
 O758 O 0.22568 0.64131 0.79404
 O759 O 0.29874 0.75101 0.90132
 O760 O 0.28989 0.65369 0.80112
 O761 O 0.32198 0.69903 0.84556
 O762 O 0.21663 0.75571 0.91070
 O763 O 0.19128 0.69925 0.86760
 C764 C 0.31490 0.66474 0.83422
 H765 H 0.25498 0.79856 0.85902
 H766 H 0.18231 0.69913 0.76326
 H767 H 0.32459 0.70284 0.74818
 H768 H 0.24765 0.79971 0.65492
 H769 H 0.13740 0.74967 0.85762
 H770 H 0.13209 0.74774 0.66920
 H771 H 0.17688 0.75080 0.59679
 H772 H 0.30592 0.74100 0.58009
 H773 H 0.19252 0.76198 0.92751
 H774 H 0.32482 0.75239 0.91379
 H775 H 0.37037 0.74817 0.84365
 H776 H 0.36555 0.74554 0.65172
 H777 H 0.17283 0.70490 0.89569
 H778 H 0.23488 0.61718 0.77989
 H779 H 0.26728 0.88184 0.72740
 H780 H 0.33222 0.79325 0.61468
 Zr781 Zr 0.25009 0.18460 0.25721
 O782 O 0.22331 0.14161 0.21404
 O783 O 0.28506 0.15442 0.30825
 O784 O 0.28845 0.15396 0.21040
 O785 O 0.17548 0.19955 0.34078
 O786 O 0.32183 0.19943 0.16865
 O787 O 0.21223 0.15407 0.30506
 O788 O 0.31924 0.20030 0.34784
 O789 O 0.29827 0.21731 0.25936
 O790 O 0.24692 0.21723 0.32611
 O791 O 0.25017 0.21568 0.18617
 O792 O 0.20046 0.21559 0.24988
 Zr793 Zr 0.24634 0.31550 0.25032
 Zr794 Zr 0.29706 0.25004 0.19095
 Zr795 Zr 0.19955 0.25014 0.31727
 Zr796 Zr 0.29379 0.25102 0.32648
 O797 O 0.14101 0.25082 0.30847
 O798 O 0.35227 0.25681 0.31956
 O799 O 0.24622 0.28495 0.32235
 O800 O 0.29548 0.28420 0.25833
 O801 O 0.24966 0.28327 0.18092
 O802 O 0.19851 0.28233 0.24870
 C803 C 0.31199 0.16591 0.33756
 C804 C 0.18426 0.16524 0.33299
 C805 C 0.31482 0.16516 0.17958
 O806 O 0.35535 0.25289 0.20190
 O807 O 0.31845 0.30043 0.16221
 O808 O 0.28287 0.34585 0.20035
 C809 C 0.31000 0.33470 0.17084
 O810 O 0.18135 0.19924 0.14737
 Zr811 Zr 0.20265 0.24912 0.18143
 O812 O 0.21192 0.34575 0.19822
 O813 O 0.29535 0.24672 0.10707
 O814 O 0.21549 0.25085 0.09925
 O815 O 0.14392 0.24699 0.18819
 O816 O 0.18108 0.29999 0.15297
 C817 C 0.18740 0.33435 0.16470
 O818 O 0.27419 0.35880 0.29150
 O819 O 0.20229 0.24983 0.40123
 O820 O 0.21017 0.34632 0.29979
 O821 O 0.17854 0.30127 0.34526
 O822 O 0.28442 0.24540 0.40929
 O823 O 0.30953 0.30133 0.36507
 C824 C 0.18546 0.33548 0.33341
 H825 H 0.24575 0.20192 0.35877
 H826 H 0.31746 0.30069 0.26070
 H827 H 0.17507 0.29673 0.24802
 H828 H 0.25136 0.19922 0.15460
 H829 H 0.36330 0.25079 0.35461
 H830 H 0.36693 0.25145 0.16621
 H831 H 0.32145 0.24776 0.09466
 H832 H 0.19237 0.25747 0.08006
 H833 H 0.30865 0.23927 0.42585
 H834 H 0.17633 0.24852 0.41416
 H835 H 0.13018 0.25205 0.34465
 H836 H 0.13327 0.25318 0.15296
 H837 H 0.32831 0.29591 0.39277
 H838 H 0.26484 0.38279 0.27719
 H839 H 0.23254 0.11756 0.22832
 H840 H 0.16640 0.20542 0.11553
 Zr841 Zr 0.75007 0.68482 0.24201
 O842 O 0.77695 0.64216 0.28554
 O843 O 0.71532 0.65436 0.19107
 O844 O 0.71161 0.65432 0.28879
 O845 O 0.82467 0.69940 0.15835
 O846 O 0.67795 0.69994 0.33002
 O847 O 0.78792 0.65407 0.19419
 O848 O 0.68109 0.70000 0.15113
 O849 O 0.70180 0.71746 0.23936
 O850 O 0.75333 0.71714 0.17295
 O851 O 0.74961 0.71623 0.31287
 O852 O 0.79961 0.71588 0.24945
 Zr853 Zr 0.75339 0.81576 0.24815
 Zr854 Zr 0.70265 0.75050 0.30759
 Zr855 Zr 0.80062 0.75012 0.18187
 Zr856 Zr 0.70639 0.75087 0.17209
 O857 O 0.85912 0.75076 0.19121
 O858 O 0.64788 0.75667 0.17848
 O859 O 0.75389 0.78486 0.17630
 O860 O 0.70435 0.78436 0.24004
 O861 O 0.74995 0.78383 0.31769
 O862 O 0.80130 0.78264 0.25028
 C863 C 0.68839 0.66570 0.16172
 C864 C 0.81585 0.66510 0.16610
 C865 C 0.68511 0.66562 0.31939
 O866 O 0.64440 0.75315 0.29614
 O867 O 0.68104 0.80098 0.33599
 O868 O 0.71665 0.84629 0.29789
 C869 C 0.68947 0.83523 0.32738
 O870 O 0.81839 0.70004 0.35203
 Zr871 Zr 0.79703 0.74974 0.31770
 O872 O 0.78747 0.84629 0.30031
 O873 O 0.70409 0.74760 0.39149
 O874 O 0.78394 0.75178 0.39978
 O875 O 0.85580 0.74782 0.31149
 O876 O 0.81824 0.80080 0.34604
 C877 C 0.81188 0.83507 0.33403
 O878 O 0.72557 0.85877 0.20649
 O879 O 0.79815 0.74959 0.09789
 O880 O 0.78979 0.84638 0.19882
 O881 O 0.82172 0.80115 0.15388
 O882 O 0.71594 0.74473 0.08937
 O883 O 0.69077 0.80098 0.13307
 C884 C 0.81470 0.83541 0.16548
 H885 H 0.75458 0.70170 0.14036
 H886 H 0.68234 0.80081 0.23747
 H887 H 0.82470 0.79708 0.25107
 H888 H 0.74837 0.69993 0.34452
 H889 H 0.63701 0.75044 0.14338
 H890 H 0.63268 0.75190 0.33175
 H891 H 0.67793 0.74860 0.40371
 H892 H 0.80698 0.75853 0.41909
 H893 H 0.69175 0.73849 0.07277
 H894 H 0.82416 0.74827 0.08514
 H895 H 0.87009 0.75184 0.15511
 H896 H 0.86625 0.75415 0.34682
 H897 H 0.67209 0.79542 0.10527
 H898 H 0.73482 0.88285 0.22075
 H899 H 0.76780 0.61802 0.27142
 H900 H 0.83317 0.70637 0.38399
 Zr901 Zr 0.75007 0.31595 0.74330
 O902 O 0.72331 0.35891 0.78657
 O903 O 0.78468 0.34603 0.69171
 O904 O 0.78850 0.34696 0.78945
 O905 O 0.67482 0.30075 0.66108
 O906 O 0.82345 0.30181 0.82938
 O907 O 0.71197 0.34631 0.69572
 O908 O 0.81838 0.30007 0.65142
 O909 O 0.79834 0.28337 0.74015
 O910 O 0.74625 0.28314 0.67462
 O911 O 0.75110 0.28511 0.81452
 O912 O 0.70061 0.28490 0.75183
 Zr913 Zr 0.74676 0.18516 0.75069
 Zr914 Zr 0.79810 0.25094 0.80880
 Zr915 Zr 0.69902 0.25020 0.68458
 Zr916 Zr 0.79319 0.24942 0.67334
 O917 O 0.64060 0.24966 0.69482
 O918 O 0.85174 0.24360 0.67882
 O919 O 0.74572 0.21547 0.67854
 O920 O 0.79577 0.21651 0.74165
 O921 O 0.75087 0.21759 0.81987
 O922 O 0.69887 0.21822 0.75334
 C923 C 0.81133 0.33445 0.66196
 C924 C 0.68378 0.33507 0.66831
 C925 C 0.81574 0.33605 0.81891
 O926 O 0.85624 0.24770 0.79663
 O927 O 0.81956 0.20057 0.83764
 O928 O 0.78365 0.15505 0.80033
 C929 C 0.81095 0.16628 0.82944
 O930 O 0.68267 0.30147 0.85465
 Zr931 Zr 0.70373 0.25155 0.82041
 O932 O 0.71306 0.15489 0.80349
 O933 O 0.79741 0.25495 0.89264
 O934 O 0.71759 0.24990 0.90225
 O935 O 0.64492 0.25352 0.81530
 O936 O 0.68268 0.20061 0.84947
 C937 C 0.68892 0.16626 0.83753
 O938 O 0.77446 0.14195 0.70912
 O939 O 0.70081 0.25017 0.60057
 O940 O 0.71008 0.15408 0.70211
 O941 O 0.67763 0.19896 0.65744
 O942 O 0.78300 0.25501 0.59071
 O943 O 0.80846 0.19898 0.63470
 C944 C 0.68485 0.16476 0.66911
 H945 H 0.74476 0.29835 0.64190
 H946 H 0.81774 0.20002 0.73894
 H947 H 0.67548 0.20377 0.75460
 H948 H 0.75261 0.30167 0.84595
 H949 H 0.86233 0.24951 0.64347
 H950 H 0.86821 0.24935 0.83204
 H951 H 0.82366 0.25394 0.90439
 H952 H 0.69471 0.24329 0.92201
 H953 H 0.80708 0.26102 0.57366
 H954 H 0.67470 0.25142 0.58823
 H955 H 0.62934 0.24835 0.65891
 H956 H 0.63480 0.24741 0.85088
 H957 H 0.82683 0.20431 0.60642
 H958 H 0.76533 0.11794 0.72364
 H959 H 0.73233 0.38298 0.77212
 H960 H 0.66836 0.29537 0.88710
 N961 N 0.14849 0.41849 0.89666
 C962 C 0.11138 0.41342 0.88832
 N963 N 0.10039 0.38431 0.85757
 N964 N 0.12509 0.36076 0.83717
 C965 C 0.16194 0.36559 0.84573
 N966 N 0.17338 0.39514 0.87537
 N967 N 0.39711 0.62315 0.37443
 C968 C 0.38661 0.58862 0.38997
 N969 N 0.35036 0.57845 0.38443
 N970 N 0.32566 0.60211 0.36348
 C971 C 0.33638 0.63690 0.34860
 N972 N 0.37248 0.64683 0.35446
 N973 N 0.85040 0.92106 0.61569
 C974 C 0.88648 0.91068 0.60877
 N975 N 0.89686 0.87577 0.62275
 N976 N 0.87230 0.85196 0.64260
 C977 C 0.83638 0.86213 0.64993
 N978 N 0.82579 0.89728 0.63655
 N979 N 0.60265 0.12244 0.12695
 C980 C 0.61331 0.08799 0.11109
 N981 N 0.64967 0.07809 0.11597
 N982 N 0.67434 0.10192 0.13660
 C983 C 0.66346 0.13664 0.15175
 N984 N 0.62724 0.14631 0.14659
 N985 N 0.89756 0.12245 0.39352
 C986 C 0.88752 0.08636 0.40013
 N987 N 0.85260 0.07569 0.38615
 N988 N 0.82891 0.10042 0.36534
 C989 C 0.83918 0.13665 0.35908
 N990 N 0.87385 0.14712 0.37370
 N991 N 0.35241 0.42464 0.61346
 C992 C 0.38741 0.41389 0.59995
 N993 N 0.39745 0.37785 0.60713
 N994 N 0.37366 0.35330 0.62702
 C995 C 0.33890 0.36384 0.64115
 N996 N 0.32864 0.40004 0.63434
 N997 N 0.64856 0.92444 0.88660
 C998 C 0.61362 0.91372 0.90032
 N999 N 0.60385 0.87749 0.89437
 N1000 N 0.62786 0.85273 0.87539
 C1001 C 0.66256 0.86324 0.86101
 N1002 N 0.67254 0.89962 0.86659
 N1003 N 0.10175 0.62171 0.10633
 C1004 C 0.11192 0.58569 0.09889
 N1005 N 0.14694 0.57510 0.11254
 N1006 N 0.17059 0.59978 0.13372
 C1007 C 0.16020 0.63595 0.14076
 N1008 N 0.12541 0.64634 0.12652
 N1009 N 0.35269 0.92176 0.11477
 C1010 C 0.38848 0.91130 0.10610
 N1011 N 0.39828 0.87527 0.11392
 N1012 N 0.37333 0.85047 0.12996
 C1013 C 0.33770 0.86082 0.13916
 N1014 N 0.32777 0.89698 0.13176
 N1015 N 0.64761 0.42269 0.38363
 C1016 C 0.61174 0.41236 0.39177
 N1017 N 0.60184 0.37640 0.38359
 N1018 N 0.62679 0.35151 0.36773
 C1019 C 0.66252 0.36171 0.35911
 N1020 N 0.67255 0.39781 0.36681
 N1021 N 0.90179 0.61815 0.86600
 C1022 C 0.89063 0.58600 0.88949
 N1023 N 0.85354 0.57971 0.89539
 N1024 N 0.82873 0.60462 0.87831
 C1025 C 0.84021 0.63708 0.85606
 N1026 N 0.87709 0.64329 0.84999
 N1027 N 0.10122 0.12405 0.61686
 C1028 C 0.11124 0.08808 0.60888
 N1029 N 0.14713 0.07787 0.61721
 N1030 N 0.17196 0.10285 0.63403
 C1031 C 0.16182 0.13895 0.64154
 N1032 N 0.12607 0.14904 0.63271
 N1033 N 0.14762 0.42443 0.38480
 C1034 C 0.11274 0.41376 0.39891
 N1035 N 0.10272 0.37765 0.39239
 N1036 N 0.12642 0.35295 0.37254
 C1037 C 0.16106 0.36340 0.35779
 N1038 N 0.17130 0.39967 0.36394
 N1039 N 0.39783 0.62287 0.89308
 C1040 C 0.38778 0.58682 0.89999
 N1041 N 0.35285 0.57610 0.88612
 N1042 N 0.32914 0.60074 0.86516
 C1043 C 0.33940 0.63695 0.85862
 N1044 N 0.37410 0.64746 0.87310
 N1045 N 0.60175 0.12216 0.61124
 C1046 C 0.61207 0.08621 0.60365
 N1047 N 0.64720 0.07577 0.61697
 N1048 N 0.67082 0.10055 0.63795
 C1049 C 0.66029 0.13666 0.64511
 N1050 N 0.62538 0.14689 0.63122
 N1051 N 0.85277 0.92416 0.11402
 C1052 C 0.88760 0.91336 0.09976
 N1053 N 0.89753 0.87722 0.10628
 N1054 N 0.87379 0.85265 0.12622
 C1055 C 0.83919 0.86324 0.14110
 N1056 N 0.82905 0.89953 0.13495
 N1057 N 0.89704 0.12497 0.87914
 C1058 C 0.88661 0.09004 0.89291
 N1059 N 0.85050 0.07979 0.88617
 N1060 N 0.82590 0.10372 0.86562
 C1061 C 0.83654 0.13887 0.85242
 N1062 N 0.87249 0.14892 0.85959
 N1063 N 0.10280 0.62284 0.62563
 C1064 C 0.11345 0.58835 0.60994
 N1065 N 0.14977 0.57838 0.61519
 N1066 N 0.17440 0.60219 0.63603
 C1067 C 0.16353 0.63694 0.65105
 N1068 N 0.12735 0.64668 0.64547
 N1069 N 0.64977 0.92115 0.38654
 C1070 C 0.61358 0.91092 0.39254
 N1071 N 0.60311 0.87631 0.37707
 N1072 N 0.62769 0.85266 0.35675
 C1073 C 0.66373 0.86266 0.35039
 N1074 N 0.67442 0.89752 0.36523
 N1075 N 0.34996 0.42108 0.11425
 C1076 C 0.38606 0.41067 0.10762
 N1077 N 0.39633 0.37570 0.12149
 N1078 N 0.37165 0.35189 0.14099
 C1079 C 0.33572 0.36209 0.14803
 N1080 N 0.32523 0.39728 0.13476
 N1081 N 0.60157 0.62322 0.11745
 C1082 C 0.61156 0.58730 0.10902
 N1083 N 0.64752 0.57708 0.11667
 N1084 N 0.67246 0.60201 0.13329
 C1085 C 0.66235 0.63807 0.14124
 N1086 N 0.62653 0.64817 0.13310
 N1087 N 0.14769 0.92310 0.88336
 C1088 C 0.11176 0.91289 0.89121
 N1089 N 0.10178 0.87697 0.88280
 N1090 N 0.12671 0.85202 0.86701
 C1091 C 0.16251 0.86211 0.85868
 N1092 N 0.17261 0.89817 0.86660
 N1093 N 0.39855 0.12375 0.38407
 C1094 C 0.38853 0.08788 0.39285
 N1095 N 0.35265 0.07760 0.38451
 N1096 N 0.32785 0.10237 0.36699
 C1097 C 0.33799 0.13837 0.35868
 N1098 N 0.37372 0.14854 0.36750
 N1099 N 0.85258 0.42260 0.61592
 C1100 C 0.88836 0.41201 0.60744
 N1101 N 0.89807 0.37600 0.61568
 N1102 N 0.87304 0.35135 0.63190
 C1103 C 0.83741 0.36182 0.64088
 N1104 N 0.82757 0.39796 0.63311
 N1105 N 0.89939 0.62418 0.10645
 C1106 C 0.88812 0.58960 0.09189
 N1107 N 0.85248 0.57922 0.10241
 N1108 N 0.82916 0.60276 0.12682
 C1109 C 0.84067 0.63753 0.14101
 N1110 N 0.87612 0.64770 0.13004
 N1111 N 0.64687 0.42070 0.60516
 C1112 C 0.61119 0.41028 0.59501
 N1113 N 0.59998 0.37573 0.60960
 N1114 N 0.62337 0.35226 0.63290
 C1115 C 0.65886 0.36248 0.64349
 N1116 N 0.67031 0.39721 0.62927
 N1117 N 0.10028 0.12468 0.39139
 C1118 C 0.11136 0.09004 0.40576
 N1119 N 0.14701 0.07951 0.39558
 N1120 N 0.17055 0.10297 0.37164
 C1121 C 0.15925 0.13781 0.35766
 N1122 N 0.12378 0.14814 0.36828
 N1123 N 0.35361 0.92059 0.89426
 C1124 C 0.38955 0.91042 0.90287
 N1125 N 0.40083 0.87608 0.88724
 N1126 N 0.37723 0.85255 0.86445
 C1127 C 0.34144 0.86250 0.85547
 N1128 N 0.32995 0.89705 0.87064
 N1129 N 0.14633 0.92057 0.62163
 C1130 C 0.11153 0.90916 0.60806
 N1131 N 0.10130 0.87365 0.61900
 N1132 N 0.12483 0.85020 0.64203
 C1133 C 0.15945 0.86138 0.65598
 N1134 N 0.16988 0.89708 0.64548
 N1135 N 0.60159 0.62626 0.38061
 C1136 C 0.61179 0.59079 0.39192
 N1137 N 0.64662 0.57930 0.37859
 N1138 N 0.67024 0.60267 0.35464
 C1139 C 0.65985 0.63834 0.34379
 N1140 N 0.62519 0.64959 0.35749
 N1141 N 0.39842 0.12557 0.11884
 C1142 C 0.38828 0.09004 0.10770
 N1143 N 0.35343 0.07861 0.12093
 N1144 N 0.32975 0.10209 0.14466
 C1145 C 0.34010 0.13781 0.15533
 N1146 N 0.37476 0.14901 0.14173
 N1147 N 0.85330 0.41868 0.88918
 C1148 C 0.89047 0.41140 0.88813
 N1149 N 0.90228 0.38010 0.86274
 N1150 N 0.87828 0.35672 0.84037
 C1151 C 0.84135 0.36389 0.84130
 N1152 N 0.82918 0.39544 0.86585
 N1153 N 0.60367 0.12436 0.88853
 C1154 C 0.61356 0.08833 0.89612
 N1155 N 0.64921 0.07786 0.88625
 N1156 N 0.67381 0.10262 0.86804
 C1157 C 0.66376 0.13880 0.86090
 N1158 N 0.62831 0.14912 0.87144
 N1159 N 0.39693 0.62304 0.61534
 C1160 C 0.38700 0.58719 0.60632
 N1161 N 0.35127 0.57666 0.61538
 N1162 N 0.32659 0.60122 0.63408
 C1163 C 0.33669 0.63724 0.64255
 N1164 N 0.37224 0.64760 0.63292
 N1165 N 0.14768 0.42214 0.11336
 C1166 C 0.11190 0.41171 0.10431
 N1167 N 0.10183 0.37597 0.11385
 N1168 N 0.12642 0.35145 0.13185
 C1169 C 0.16202 0.36173 0.14145
 N1170 N 0.17224 0.39765 0.13247
 N1171 N 0.85153 0.92312 0.38442
 C1172 C 0.88737 0.91276 0.39310
 N1173 N 0.89748 0.87699 0.38376
 N1174 N 0.87285 0.85234 0.36625
 C1175 C 0.83719 0.86253 0.35701
 N1176 N 0.82693 0.89849 0.36578
 N1177 N 0.89853 0.62578 0.61895
 C1178 C 0.88842 0.59022 0.60801
 N1179 N 0.85368 0.57870 0.62161
 N1180 N 0.83005 0.60213 0.64552
 C1181 C 0.84035 0.63789 0.65600
 N1182 N 0.87492 0.64918 0.64202
 N1183 N 0.64607 0.42008 0.12142
 C1184 C 0.61126 0.40863 0.10792
 N1185 N 0.60105 0.37315 0.11908
 N1186 N 0.62461 0.34977 0.14224
 C1187 C 0.65924 0.36100 0.15610
 N1188 N 0.66964 0.39667 0.14539
 N1189 N 0.35358 0.92037 0.37879
 C1190 C 0.38838 0.90900 0.39248
 N1191 N 0.39871 0.87355 0.38103
 N1192 N 0.37530 0.85015 0.35748
 C1193 C 0.34067 0.86129 0.34342
 N1194 N 0.33015 0.89694 0.35441
 N1195 N 0.10115 0.12784 0.88392
 C1196 C 0.11143 0.09218 0.89389
 N1197 N 0.14601 0.08082 0.87918
 N1198 N 0.16929 0.10447 0.85513
 C1199 C 0.15880 0.14029 0.84552
 N1200 N 0.12442 0.15145 0.86067
 N1201 N 0.14715 0.92025 0.10425
 C1202 C 0.11151 0.90979 0.09388
 N1203 N 0.10040 0.87510 0.10791
 N1204 N 0.12385 0.85153 0.13089
 C1205 C 0.15930 0.86178 0.14170
 N1206 N 0.17065 0.89666 0.12804
 N1207 N 0.85315 0.42049 0.39469
 C1208 C 0.88901 0.41026 0.40382
 N1209 N 0.90028 0.37583 0.38859
 N1210 N 0.87676 0.35228 0.36568
 C1211 C 0.84107 0.36230 0.35616
 N1212 N 0.82957 0.39693 0.37095
 N1213 N 0.39952 0.12435 0.61207
 C1214 C 0.38822 0.08990 0.59696
 N1215 N 0.35235 0.07976 0.60632
 N1216 N 0.32883 0.10341 0.63011
 C1217 C 0.34037 0.13806 0.64480
 N1218 N 0.37606 0.14799 0.63503
 N1219 N 0.60114 0.62482 0.89326
 C1220 C 0.61188 0.58990 0.90679
 N1221 N 0.64741 0.57913 0.89629
 N1222 N 0.67116 0.60261 0.87282
 C1223 C 0.66020 0.63771 0.85969
 N1224 N 0.62485 0.64829 0.87064
 N1225 N 0.35102 0.42462 0.88385
 C1226 C 0.38682 0.41399 0.89220
 N1227 N 0.39664 0.37817 0.88264
 N1228 N 0.37176 0.35373 0.86528
 C1229 C 0.33612 0.36419 0.85642
 N1230 N 0.32615 0.40020 0.86535
 N1231 N 0.89723 0.12243 0.11732
 C1232 C 0.88719 0.08665 0.10793
 N1233 N 0.85133 0.07629 0.11628
 N1234 N 0.82662 0.10092 0.13468
 C1235 C 0.83682 0.13687 0.14347
 N1236 N 0.87251 0.14708 0.13457
 N1237 N 0.64832 0.92264 0.61775
 C1238 C 0.61241 0.91234 0.60948
 N1239 N 0.60226 0.87671 0.61963
 N1240 N 0.62690 0.85216 0.63741
 C1241 C 0.66265 0.86230 0.64618
 N1242 N 0.67296 0.89812 0.63663
 N1243 N 0.10311 0.62331 0.38522
 C1244 C 0.11303 0.58742 0.39384
 N1245 N 0.14869 0.57683 0.38422
 N1246 N 0.17328 0.60135 0.36536
 C1247 C 0.16320 0.63742 0.35725
 N1248 N 0.12773 0.64785 0.36748
   
