data_POSCAR
  _audit_creation_date              2014-09-24
  _audit_creation_method            'ToBaCCo'
  _symmetry_space_group_name_H-M    'P1'
  _symmetry_Int_Tables_number       1
  _symmetry_cell_setting            triclinic
  loop_
  _symmetry_equiv_pos_as_xyz
 x,y,z
_cell_length_a 65.3340
_cell_length_b 65.6520
_cell_length_c 64.6707
_cell_angle_alpha 90.188600
_cell_angle_beta 90.692500
_cell_angle_gamma 90.251500
loop_
  _atom_site_label
  _atom_site_type_symbol
  _atom_site_fract_x
  _atom_site_fract_y
  _atom_site_fract_z
C1 C 0.20369 0.19079 0.22400
 C2 C 0.18726 0.19374 0.23744
 C3 C 0.17389 0.21027 0.23476
 C4 C 0.17717 0.22396 0.21844
 C5 C 0.19351 0.22118 0.20486
 C6 C 0.20686 0.20456 0.20764
 C7 C 0.21693 0.17423 0.22661
 C8 C 0.23328 0.17110 0.21302
 C9 C 0.23639 0.18495 0.19678
 C10 C 0.22331 0.20166 0.19402
 C11 C 0.22628 0.21538 0.17771
 C12 C 0.21293 0.23189 0.17477
 C13 C 0.19661 0.23470 0.18845
 H14 H 0.18497 0.18324 0.25012
 H15 H 0.16676 0.23658 0.21610
 H16 H 0.21460 0.16383 0.23936
 H17 H 0.24877 0.18253 0.18606
 H18 H 0.23875 0.21302 0.16708
 H19 H 0.18642 0.24754 0.18640
 C20 C 0.70662 0.69315 0.72523
 C21 C 0.68989 0.69615 0.73826
 C22 C 0.67684 0.71292 0.73546
 C23 C 0.68073 0.72678 0.71944
 C24 C 0.69737 0.72394 0.70624
 C25 C 0.71040 0.70708 0.70915
 C26 C 0.71964 0.67644 0.72805
 C27 C 0.73635 0.67330 0.71492
 C28 C 0.73999 0.68725 0.69889
 C29 C 0.72717 0.70412 0.69596
 C30 C 0.73079 0.71801 0.67996
 C31 C 0.71783 0.73481 0.67691
 C32 C 0.70115 0.73766 0.69013
 H33 H 0.68712 0.68554 0.75073
 H34 H 0.67059 0.73962 0.71706
 H35 H 0.71686 0.66597 0.74064
 H36 H 0.75264 0.68483 0.68849
 H37 H 0.74354 0.71560 0.66967
 H38 H 0.69124 0.75070 0.68801
 C39 C 0.29629 0.80574 0.72583
 C40 C 0.31331 0.80346 0.73906
 C41 C 0.32705 0.78729 0.73631
 C42 C 0.32370 0.77339 0.72003
 C43 C 0.30678 0.77548 0.70667
 C44 C 0.29297 0.79167 0.70963
 C45 C 0.28246 0.82176 0.72872
 C46 C 0.26509 0.82408 0.71567
 C47 C 0.26209 0.80978 0.69949
 C48 C 0.27584 0.79375 0.69640
 C49 C 0.27272 0.77979 0.68018
 C50 C 0.28650 0.76372 0.67699
 C51 C 0.30350 0.76167 0.69037
 H52 H 0.31572 0.81411 0.75172
 H53 H 0.33439 0.76104 0.71765
 H54 H 0.28495 0.83182 0.74181
 H55 H 0.24951 0.81143 0.68859
 H56 H 0.25940 0.78129 0.67016
 H57 H 0.31434 0.74947 0.68792
 C58 C 0.79370 0.30518 0.22584
 C59 C 0.81000 0.30158 0.23963
 C60 C 0.82427 0.28584 0.23603
 C61 C 0.82166 0.27383 0.21797
 C62 C 0.80538 0.27726 0.20408
 C63 C 0.79136 0.29300 0.20800
 C64 C 0.77976 0.32091 0.22960
 C65 C 0.76341 0.32459 0.21580
 C66 C 0.76111 0.31231 0.19807
 C67 C 0.77495 0.29653 0.19410
 C68 C 0.77257 0.28417 0.17651
 C69 C 0.78643 0.26834 0.17251
 C70 C 0.80284 0.26506 0.18637
 H71 H 0.81186 0.31174 0.25274
 H72 H 0.83168 0.26110 0.21498
 H73 H 0.78176 0.33048 0.24317
 H74 H 0.74838 0.31488 0.18750
 H75 H 0.75972 0.28668 0.16608
 H76 H 0.81379 0.25311 0.18326
 C77 C 0.79224 0.69525 0.27799
 C78 C 0.80863 0.69924 0.26476
 C79 C 0.82123 0.71663 0.26756
 C80 C 0.81688 0.72994 0.28417
 C81 C 0.80065 0.72601 0.29761
 C82 C 0.78824 0.70865 0.29449
 C83 C 0.77970 0.67809 0.27484
 C84 C 0.76327 0.67400 0.28809
 C85 C 0.75950 0.68739 0.30463
 C86 C 0.77185 0.70466 0.30790
 C87 C 0.76808 0.71796 0.32441
 C88 C 0.78053 0.73521 0.32783
 C89 C 0.79678 0.73912 0.31430
 H90 H 0.81090 0.68909 0.25177
 H91 H 0.82661 0.74300 0.28735
 H92 H 0.78257 0.66803 0.26189
 H93 H 0.74711 0.68421 0.31516
 H94 H 0.75530 0.71498 0.33452
 H95 H 0.80666 0.75220 0.31694
 C96 C 0.29330 0.19506 -0.22194
 C97 C 0.30979 0.19903 -0.23505
 C98 C 0.32213 0.21663 -0.23241
 C99 C 0.31746 0.23013 -0.21608
 C100 C 0.30116 0.22620 -0.20272
 C101 C 0.28898 0.20865 -0.20569
 C102 C 0.28096 0.17774 -0.22497
 C103 C 0.26443 0.17367 -0.21183
 C104 C 0.26037 0.18723 -0.19551
 C105 C 0.27247 0.20470 -0.19240
 C106 C 0.26835 0.21824 -0.17617
 C107 C 0.28057 0.23567 -0.17299
 C108 C 0.29694 0.23954 -0.18635
 H109 H 0.31233 0.18871 -0.24785
 H110 H 0.32699 0.24336 -0.21301
 H111 H 0.28405 0.16755 -0.23776
 H112 H 0.24790 0.18409 -0.18507
 H113 H 0.25582 0.21508 -0.16581
 H114 H 0.30624 0.25311 -0.18411
 C115 C 0.70773 0.30494 -0.23281
 C116 C 0.69020 0.30219 -0.24524
 C117 C 0.67674 0.28559 -0.24213
 C118 C 0.68140 0.27177 -0.22604
 C119 C 0.69875 0.27452 -0.21331
 C120 C 0.71199 0.29113 -0.21672
 C121 C 0.72113 0.32130 -0.23630
 C122 C 0.73864 0.32417 -0.22378
 C123 C 0.74267 0.31047 -0.20759
 C124 C 0.72950 0.29395 -0.20402
 C125 C 0.73356 0.28022 -0.18794
 C126 C 0.72032 0.26371 -0.18431
 C127 C 0.70296 0.26096 -0.19710
 H128 H 0.68767 0.31265 -0.25792
 H129 H 0.67111 0.25929 -0.22263
 H130 H 0.71781 0.33199 -0.24862
 H131 H 0.75624 0.31250 -0.19798
 H132 H 0.74686 0.28256 -0.17801
 H133 H 0.69284 0.24810 -0.19454
 C134 C 0.20767 0.80462 0.27050
 C135 C 0.18999 0.80204 0.25820
 C136 C 0.17612 0.78612 0.26211
 C137 C 0.18007 0.77272 0.27858
 C138 C 0.19765 0.77511 0.29102
 C139 C 0.21155 0.79106 0.28691
 C140 C 0.22156 0.82044 0.26649
 C141 C 0.23954 0.82310 0.27864
 C142 C 0.24310 0.80931 0.29506
 C143 C 0.22932 0.79346 0.29922
 C144 C 0.23301 0.78004 0.31567
 C145 C 0.21921 0.76416 0.31995
 C146 C 0.20155 0.76179 0.30751
 H147 H 0.18715 0.81229 0.24538
 H148 H 0.16931 0.76057 0.28187
 H149 H 0.21859 0.83010 0.25327
 H150 H 0.25617 0.81125 0.30533
 H151 H 0.24653 0.78210 0.32534
 H152 H 0.19097 0.74942 0.31052
 C153 C 0.44303 0.45442 0.47479
 C154 C 0.44538 0.43762 0.48793
 C155 C 0.46103 0.42338 0.48466
 C156 C 0.47443 0.42613 0.46804
 C157 C 0.47226 0.44284 0.45475
 C158 C 0.45652 0.45706 0.45813
 C159 C 0.42743 0.46864 0.47807
 C160 C 0.42500 0.48544 0.46484
 C161 C 0.43849 0.48794 0.44824
 C162 C 0.45424 0.47392 0.44485
 C163 C 0.46770 0.47644 0.42830
 C164 C 0.48340 0.46232 0.42481
 C165 C 0.48556 0.44554 0.43811
 H166 H 0.43515 0.43573 0.50086
 H167 H 0.48638 0.41508 0.46527
 H168 H 0.41731 0.46673 0.49109
 H169 H 0.43658 0.50067 0.43777
 H170 H 0.46579 0.48928 0.41796
 H171 H 0.49778 0.43471 0.43564
 C172 C -0.05451 -0.04448 0.97629
 C173 C -0.05251 -0.06128 0.98953
 C174 C -0.03683 -0.07557 0.98667
 C175 C -0.02311 -0.07297 0.97030
 C176 C -0.02493 -0.05628 0.95694
 C177 C -0.04062 -0.04192 0.96001
 C178 C -0.07011 -0.03018 0.97922
 C179 C -0.07222 -0.01310 0.96609
 C180 C -0.05807 -0.01083 0.94985
 C181 C -0.04243 -0.02503 0.94676
 C182 C -0.02869 -0.02269 0.93042
 C183 C -0.01312 -0.03702 0.92715
 C184 C -0.01132 -0.05376 0.94053
 H185 H -0.06302 -0.06310 1.00225
 H186 H -0.01117 -0.08409 0.96782
 H187 H -0.08003 -0.03211 0.99236
 H188 H -0.05958 0.00151 0.93889
 H189 H -0.03029 -0.00987 0.92001
 H190 H 0.00081 -0.06473 0.93828
 C191 C 1.05380 0.54550 0.97839
 C192 C 1.05062 0.56242 0.99124
 C193 C 1.03345 0.57521 0.98845
 C194 C 1.01951 0.57052 0.97222
 C195 C 1.02266 0.55378 0.95910
 C196 C 1.03979 0.54113 0.96230
 C197 C 1.07075 0.53280 0.98162
 C198 C 1.07414 0.51557 0.96893
 C199 C 1.05991 0.51154 0.95275
 C200 C 1.04293 0.52415 0.94937
 C201 C 1.02915 0.52014 0.93305
 C202 C 1.01222 0.53286 0.92949
 C203 C 1.00903 0.54960 0.94267
 H204 H 1.06122 0.56498 1.00399
 H205 H 1.00659 0.58035 0.96904
 H206 H 1.08077 0.53605 0.99467
 H207 H 1.06234 0.49907 0.94208
 H208 H 1.03180 0.50732 0.92284
 H209 H 0.99584 0.55929 0.94019
 C210 C 0.54963 0.04267 0.47854
 C211 C 0.54571 0.05912 0.49183
 C212 C 0.52852 0.07158 0.48861
 C213 C 0.51528 0.06750 0.47180
 C214 C 0.51899 0.05112 0.45843
 C215 C 0.53618 0.03859 0.46185
 C216 C 0.56670 0.03019 0.48186
 C217 C 0.57073 0.01340 0.46876
 C218 C 0.55697 0.00953 0.45212
 C219 C 0.53989 0.02199 0.44857
 C220 C 0.52649 0.01814 0.43184
 C221 C 0.50939 0.03066 0.42825
 C222 C 0.50579 0.04713 0.44166
 H223 H 0.55588 0.06207 0.50488
 H224 H 0.50217 0.07723 0.46902
 H225 H 0.57630 0.03322 0.49528
 H226 H 0.55987 -0.00263 0.44122
 H227 H 0.52923 0.00525 0.42175
 H228 H 0.49283 0.05704 0.43887
 C229 C -0.05681 0.04671 0.52715
 C230 C -0.05321 0.06334 0.51409
 C231 C -0.03647 0.07648 0.51771
 C232 C -0.02326 0.07272 0.53459
 C233 C -0.02673 0.05623 0.54782
 C234 C -0.04354 0.04313 0.54410
 C235 C -0.07356 0.03369 0.52360
 C236 C -0.07735 0.01714 0.53682
 C237 C -0.06400 0.01366 0.55367
 C238 C -0.04712 0.02650 0.55738
 C239 C -0.03387 0.02313 0.57427
 C240 C -0.01716 0.03624 0.57812
 C241 C -0.01368 0.05270 0.56477
 H242 H -0.06366 0.06626 0.50131
 H243 H -0.01013 0.08256 0.53734
 H244 H -0.08357 0.03633 0.51040
 H245 H -0.06694 0.00114 0.56412
 H246 H -0.03674 0.01051 0.58463
 H247 H -0.00067 0.06271 0.56751
 C248 C 0.44396 0.54577 0.02352
 C249 C 0.44749 0.56192 0.00985
 C250 C 0.46410 0.57555 0.01291
 C251 C 0.47719 0.57234 0.03017
 C252 C 0.47386 0.55620 0.04390
 C253 C 0.45721 0.54284 0.04058
 C254 C 0.42723 0.53258 0.02046
 C255 C 0.42353 0.51647 0.03424
 C256 C 0.43695 0.51355 0.05112
 C257 C 0.45377 0.52659 0.05436
 C258 C 0.46711 0.52372 0.07125
 C259 C 0.48379 0.53695 0.07463
 C260 C 0.48705 0.55316 0.06088
 H261 H 0.43658 0.56425 -0.00263
 H262 H 0.49059 0.58182 0.03266
 H263 H 0.41717 0.53474 0.00721
 H264 H 0.43411 0.50135 0.06198
 H265 H 0.46436 0.51135 0.08194
 H266 H 0.50002 0.56328 0.06330
 C267 C 0.56227 -0.04197 0.02395
 C268 C 0.55939 -0.05899 0.01107
 C269 C 0.54298 -0.07252 0.01424
 C270 C 0.52938 -0.06884 0.03051
 C271 C 0.53210 -0.05192 0.04357
 C272 C 0.54860 -0.03843 0.04030
 C273 C 0.57866 -0.02849 0.02083
 C274 C 0.58168 -0.01158 0.03392
 C275 C 0.56799 -0.00815 0.05016
 C276 C 0.55150 -0.02144 0.05343
 C277 C 0.53789 -0.01803 0.06967
 C278 C 0.52146 -0.03146 0.07313
 C279 C 0.51868 -0.04838 0.05997
 H280 H 0.56979 -0.06162 -0.00158
 H281 H 0.51684 -0.07934 0.03318
 H282 H 0.58929 -0.03135 0.00842
 H283 H 0.57010 0.00500 0.06017
 H284 H 0.54000 -0.00478 0.07953
 H285 H 0.50626 -0.05900 0.06268
 C286 C 1.05689 0.45689 0.52082
 C287 C 1.05414 0.43956 0.50837
 C288 C 1.03756 0.42603 0.51143
 C289 C 1.02374 0.43043 0.52750
 C290 C 1.02653 0.44757 0.54029
 C291 C 1.04313 0.46088 0.53692
 C292 C 1.07318 0.47036 0.51731
 C293 C 1.07606 0.48770 0.52982
 C294 C 1.06246 0.49145 0.54606
 C295 C 1.04598 0.47819 0.54964
 C296 C 1.03232 0.48199 0.56573
 C297 C 1.01581 0.46870 0.56934
 C298 C 1.01301 0.45154 0.55652
 H299 H 1.06456 0.43724 0.49569
 H300 H 1.01125 0.42010 0.53081
 H301 H 1.08381 0.46725 0.50496
 H302 H 1.06452 0.50487 0.55568
 H303 H 1.03470 0.49513 0.57568
 H304 H 1.00017 0.44138 0.55905
 C305 C 0.40821 0.01034 0.21837
 H306 H 0.40876 0.02358 0.22836
 C307 C 0.42233 0.00831 0.20246
 H308 H 0.43358 0.02021 0.20012
 C309 C 0.39293 -0.02135 0.20944
 H310 H 0.38174 -0.03308 0.21246
 C311 C 0.40667 -0.02393 0.19328
 H312 H 0.40589 -0.03767 0.18399
 N313 N 0.39383 -0.00434 0.22150
 C314 C 0.34277 0.02394 0.25331
 H315 H 0.34151 0.01385 0.26643
 C316 C 0.32873 0.03970 0.25061
 H317 H 0.31680 0.04182 0.26189
 C318 C 0.35995 0.03341 0.22271
 H319 H 0.37194 0.03071 0.21169
 C320 C 0.34630 0.04944 0.21948
 H321 H 0.34792 0.05894 0.20594
 Zn322 Zn 0.37605 -0.00094 0.24414
 N323 N 0.35808 0.02118 0.23953
 C324 C 0.38946 0.02032 0.28031
 N325 N 0.39257 0.00385 0.26794
 C326 C 0.40788 -0.00958 0.27202
 C327 C 0.42050 -0.00698 0.28942
 C328 C 0.40165 0.02343 0.29793
 C329 C 0.34566 -0.02949 0.23306
 C330 C 0.33301 -0.04651 0.23542
 C331 C 0.34934 -0.05285 0.26848
 C332 C 0.36165 -0.03572 0.26550
 N333 N 0.35978 -0.02456 0.24790
 H334 H 0.37752 0.03106 0.27659
 H335 H 0.41014 -0.02243 0.26180
 H336 H 0.43236 -0.01804 0.29263
 H337 H 0.39897 0.03662 0.30761
 H338 H 0.34428 -0.02016 0.21936
 H339 H 0.32209 -0.05038 0.22330
 H340 H 0.35092 -0.06140 0.28270
 H341 H 0.37254 -0.03128 0.27738
 C342 C 0.33043 0.05273 0.23353
 C343 C 0.42166 -0.00901 0.18968
 C344 C 0.33481 -0.05849 0.25331
 C345 C 0.41735 0.00962 0.30272
 C346 C 0.09402 -0.01117 0.72480
 H347 H 0.09273 -0.02483 0.73400
 C348 C 0.08009 -0.00762 0.70867
 H349 H 0.06801 -0.01861 0.70566
 C350 C 0.11088 0.02014 0.71824
 H351 H 0.12273 0.03105 0.72217
 C352 C 0.09733 0.02426 0.70194
 H353 H 0.09921 0.03819 0.69324
 N354 N 0.10907 0.00260 0.72920
 C355 C 0.15797 -0.03037 0.76082
 H356 H 0.15943 -0.02143 0.77485
 C357 C 0.17097 -0.04685 0.75753
 H358 H 0.18222 -0.05070 0.76930
 C359 C 0.14133 -0.03621 0.72857
 H360 H 0.12997 -0.03183 0.71718
 C361 C 0.15402 -0.05280 0.72464
 H362 H 0.15230 -0.06101 0.71017
 Zn363 Zn 0.12659 -0.00277 0.75203
 N364 N 0.14336 -0.02553 0.74654
 C365 C 0.11140 -0.02555 0.78592
 N366 N 0.10976 -0.00790 0.77508
 C367 C 0.09533 0.00617 0.77980
 C368 C 0.08203 0.00292 0.79622
 C369 C 0.09846 -0.02941 0.80248
 C370 C 0.15890 0.02367 0.74316
 C371 C 0.17258 0.03982 0.74622
 C372 C 0.15573 0.04758 0.77833
 C373 C 0.14246 0.03117 0.77474
 N374 N 0.14412 0.01975 0.75725
 H375 H 0.12265 -0.03677 0.78169
 H376 H 0.09407 0.01990 0.77066
 H377 H 0.07047 0.01420 0.79954
 H378 H 0.10022 -0.04342 0.81109
 H379 H 0.16001 0.01420 0.72950
 H380 H 0.18410 0.04286 0.73472
 H381 H 0.15426 0.05648 0.79236
 H382 H 0.13093 0.02757 0.78598
 C383 C 0.16905 -0.05836 0.73926
 C384 C 0.08162 0.01033 0.69701
 C385 C 0.17103 0.05206 0.76397
 C386 C 0.08350 -0.01508 0.80781
 C387 C 0.59244 0.49014 0.22328
 H388 H 0.59078 0.47655 0.23253
 C389 C 0.57892 0.49374 0.20681
 H390 H 0.56679 0.48286 0.20358
 C391 C 0.60976 0.52124 0.21693
 H392 H 0.62162 0.53206 0.22108
 C393 C 0.59665 0.52540 0.20030
 H394 H 0.59888 0.53925 0.19156
 N395 N 0.60753 0.50378 0.22795
 C396 C 0.65594 0.47124 0.26068
 H397 H 0.65743 0.48072 0.27434
 C398 C 0.66896 0.45467 0.25802
 H399 H 0.68057 0.45159 0.26966
 C400 C 0.63933 0.46425 0.22865
 H401 H 0.62787 0.46812 0.21717
 C402 C 0.65203 0.44751 0.22536
 H403 H 0.64995 0.43845 0.21147
 Zn404 Zn 0.62454 0.49842 0.25118
 N405 N 0.64134 0.47556 0.24622
 C406 C 0.60877 0.47569 0.28473
 N407 N 0.60727 0.49337 0.27392
 C408 C 0.59273 0.50741 0.27845
 C409 C 0.57914 0.50405 0.29460
 C410 C 0.59554 0.47173 0.30102
 C411 C 0.65714 0.52460 0.24281
 C412 C 0.67088 0.54067 0.24603
 C413 C 0.65349 0.54875 0.27776
 C414 C 0.64015 0.53242 0.27400
 N415 N 0.64207 0.52088 0.25663
 H416 H 0.62012 0.46452 0.28068
 H417 H 0.59161 0.52116 0.26934
 H418 H 0.56750 0.51528 0.29777
 H419 H 0.59719 0.45769 0.30960
 H420 H 0.65844 0.51504 0.22923
 H421 H 0.68262 0.54355 0.23472
 H422 H 0.65184 0.55773 0.29171
 H423 H 0.62837 0.52897 0.28504
 C424 C 0.66704 0.44249 0.24021
 C425 C 0.58091 0.51160 0.19507
 C426 C 0.66911 0.55302 0.26367
 C427 C 0.58043 0.48598 0.30613
 C428 C 0.90940 0.51079 0.71968
 H429 H 0.91070 0.52393 0.72976
 C430 C 0.92263 0.50866 0.70302
 H431 H 0.93421 0.52020 0.70046
 C432 C 0.89311 0.47948 0.71127
 H433 H 0.88172 0.46803 0.71462
 C434 C 0.90600 0.47675 0.69443
 H435 H 0.90408 0.46336 0.68478
 N436 N 0.89486 0.49641 0.72336
 C437 C 0.84495 0.52560 0.75611
 H438 H 0.84364 0.51545 0.76918
 C439 C 0.83109 0.54154 0.75359
 H440 H 0.81925 0.54375 0.76495
 C441 C 0.86201 0.53496 0.72541
 H442 H 0.87383 0.53214 0.71425
 C443 C 0.84855 0.55118 0.72236
 H444 H 0.85017 0.56071 0.70884
 Zn445 Zn 0.87761 0.50012 0.74639
 N446 N 0.86010 0.52267 0.74218
 C447 C 0.89199 0.52101 0.78233
 N448 N 0.89448 0.50437 0.77004
 C449 C 0.90941 0.49053 0.77408
 C450 C 0.92225 0.49286 0.79134
 C451 C 0.90448 0.52393 0.79977
 C452 C 0.84587 0.47330 0.73554
 C453 C 0.83262 0.45670 0.73753
 C454 C 0.85000 0.44792 0.76944
 C455 C 0.86286 0.46474 0.76688
 N456 N 0.86072 0.47691 0.75001
 H457 H 0.88028 0.53204 0.77870
 H458 H 0.91128 0.47761 0.76385
 H459 H 0.93412 0.48173 0.79421
 H460 H 0.90195 0.53705 0.80959
 H461 H 0.84428 0.48342 0.72246
 H462 H 0.82075 0.45426 0.72596
 H463 H 0.85222 0.43821 0.78277
 H464 H 0.87450 0.46804 0.77841
 C465 C 0.83281 0.55459 0.73654
 C466 C 0.92100 0.49148 0.69009
 C467 C 0.83461 0.44369 0.75464
 C468 C 0.91981 0.50970 0.80453
 C469 C 0.22129 0.40769 0.01325
 H470 H 0.23083 0.40851 0.02702
 C471 C 0.20516 0.42134 0.01058
 H472 H 0.20219 0.43245 0.02258
 C473 C 0.21367 0.39211 -0.01906
 H474 H 0.21727 0.38095 -0.03075
 C475 C 0.19740 0.40549 -0.02237
 H476 H 0.18866 0.40447 -0.03667
 N477 N 0.22512 0.39334 -0.00139
 C478 C 0.25751 0.34420 0.03017
 H479 H 0.27099 0.34300 0.02070
 C480 C 0.25441 0.33040 0.04624
 H481 H 0.26557 0.31854 0.04897
 C482 C 0.22611 0.36054 0.03734
 H483 H 0.21492 0.37204 0.03363
 C484 C 0.22244 0.34712 0.05360
 H485 H 0.20862 0.34883 0.06250
 Zn486 Zn 0.24787 0.37606 0.00302
 N487 N 0.24347 0.35892 0.02607
 C488 C 0.28317 0.39130 0.02452
 N489 N 0.27098 0.39306 0.00741
 C490 C 0.27433 0.40783 -0.00685
 C491 C 0.29057 0.42151 -0.00432
 C492 C 0.29968 0.40462 0.02761
 C493 C 0.23736 0.34447 -0.02421
 C494 C 0.23956 0.33110 -0.04086
 C495 C 0.27145 0.34784 -0.04902
 C496 C 0.26868 0.36082 -0.03215
 N497 N 0.25175 0.35904 -0.02026
 H498 H 0.28001 0.37974 0.03590
 H499 H 0.26425 0.40901 -0.02019
 H500 H 0.29307 0.43306 -0.01594
 H501 H 0.30910 0.40318 0.04141
 H502 H 0.22420 0.34319 -0.01430
 H503 H 0.22807 0.31944 -0.04354
 H504 H 0.28486 0.34976 -0.05851
 H505 H 0.28011 0.37227 -0.02858
 C506 C 0.23661 0.33170 0.05816
 C507 C 0.19297 0.42037 -0.00744
 C508 C 0.25679 0.33270 -0.05356
 C509 C 0.30348 0.42003 0.01312
 C510 C 0.72812 0.09604 -0.01329
 H511 H 0.73746 0.09416 -0.02687
 C512 C 0.71192 0.08262 -0.00970
 H513 H 0.70897 0.07033 -0.02055
 C514 C 0.72131 0.11386 0.01777
 H515 H 0.72516 0.12586 0.02860
 C516 C 0.70493 0.10085 0.02193
 H517 H 0.69610 0.10330 0.03577
 N518 N 0.73244 0.11134 0.00032
 C519 C 0.76495 0.15870 -0.03327
 H520 H 0.77835 0.16037 -0.02340
 C521 C 0.76240 0.17131 -0.05041
 H522 H 0.77387 0.18281 -0.05355
 C523 C 0.73342 0.14206 -0.04061
 H524 H 0.72207 0.13077 -0.03663
 C525 C 0.73026 0.15435 -0.05795
 H526 H 0.71661 0.15211 -0.06736
 Zn527 Zn 0.75531 0.12824 -0.00499
 N528 N 0.75066 0.14430 -0.02881
 C529 C 0.78912 0.11194 -0.02661
 N530 N 0.77816 0.11107 -0.00888
 C531 C 0.78278 0.09738 0.00619
 C532 C 0.79933 0.08420 0.00398
 C533 C 0.80578 0.09904 -0.02946
 C534 C 0.74599 0.16114 0.02071
 C535 C 0.74867 0.17511 0.03685
 C536 C 0.78052 0.15859 0.04581
 C537 C 0.77729 0.14501 0.02941
 N538 N 0.76009 0.14634 0.01743
 H539 H 0.78489 0.12251 -0.03866
 H540 H 0.77361 0.09680 0.02000
 H541 H 0.80300 0.07368 0.01633
 H542 H 0.81420 0.09985 -0.04375
 H543 H 0.73258 0.16202 0.01077
 H544 H 0.73711 0.18658 0.03943
 H545 H 0.79432 0.15735 0.05516
 H546 H 0.78859 0.13350 0.02628
 C547 C 0.74489 0.16920 -0.06307
 C548 C 0.70008 0.08490 0.00815
 C549 C 0.76607 0.17385 0.04972
 C550 C 0.81113 0.08498 -0.01401
 C551 C 0.22496 0.59478 0.48745
 H552 H 0.23481 0.59334 0.47420
 C553 C 0.20832 0.58160 0.48969
 H554 H 0.20558 0.56990 0.47813
 C555 C 0.21714 0.61138 0.51895
 H556 H 0.22073 0.62286 0.53044
 C557 C 0.20028 0.59858 0.52175
 H558 H 0.19084 0.60068 0.53523
 N559 N 0.22895 0.60941 0.50189
 C560 C 0.26211 0.65830 0.47131
 H561 H 0.27546 0.65952 0.48131
 C562 C 0.25976 0.67156 0.45463
 H563 H 0.27133 0.68309 0.45197
 C564 C 0.23057 0.64209 0.46304
 H565 H 0.21915 0.63069 0.46645
 C566 C 0.22759 0.65505 0.44621
 H567 H 0.21402 0.65322 0.43660
 Zn568 Zn 0.25209 0.62632 0.49790
 N569 N 0.24776 0.64375 0.47503
 C570 C 0.28660 0.61149 0.47620
 N571 N 0.27479 0.60914 0.49321
 C572 C 0.27852 0.59403 0.50708
 C573 C 0.29494 0.58079 0.50433
 C574 C 0.30325 0.59868 0.47292
 C575 C 0.24315 0.65778 0.52566
 C576 C 0.24607 0.67063 0.54270
 C577 C 0.27749 0.65286 0.55064
 C578 C 0.27401 0.64042 0.53340
 N579 N 0.25693 0.64291 0.52146
 H580 H 0.28313 0.62323 0.46507
 H581 H 0.26873 0.59234 0.52034
 H582 H 0.29787 0.56904 0.51569
 H583 H 0.31245 0.60073 0.45926
 H584 H 0.22982 0.65960 0.51575
 H585 H 0.23478 0.68219 0.54598
 H586 H 0.29122 0.65073 0.55991
 H587 H 0.28504 0.62885 0.52956
 C588 C 0.24236 0.66997 0.44175
 C589 C 0.19566 0.58343 0.50700
 C590 C 0.26339 0.66818 0.55550
 C591 C 0.30763 0.58313 0.48712
 C592 C 0.71989 0.90808 0.51302
 H593 H 0.72944 0.90904 0.52678
 C594 C 0.70345 0.92138 0.51046
 H595 H 0.70023 0.93232 0.52254
 C596 C 0.71258 0.89254 0.48063
 H597 H 0.71642 0.88153 0.46886
 C598 C 0.69603 0.90559 0.47740
 H599 H 0.68732 0.90447 0.46309
 N600 N 0.72403 0.89391 0.49829
 C601 C 0.75805 0.84556 0.52926
 H602 H 0.77111 0.84451 0.51919
 C603 C 0.75613 0.83210 0.54580
 H604 H 0.76774 0.82062 0.54825
 C605 C 0.72669 0.86135 0.53768
 H606 H 0.71511 0.87258 0.53433
 C607 C 0.72418 0.84823 0.55443
 H608 H 0.71083 0.84985 0.56405
 Zn609 Zn 0.74717 0.87708 0.50244
 N610 N 0.74355 0.85994 0.52563
 C611 C 0.78225 0.89275 0.52372
 N612 N 0.77011 0.89441 0.50657
 C613 C 0.77348 0.90914 0.49226
 C614 C 0.78974 0.92283 0.49478
 C615 C 0.79877 0.90605 0.52679
 C616 C 0.73687 0.84506 0.47577
 C617 C 0.73923 0.83127 0.45951
 C618 C 0.77065 0.84845 0.45052
 C619 C 0.76777 0.86183 0.46707
 N620 N 0.75102 0.85997 0.47922
 H621 H 0.77907 0.88128 0.53518
 H622 H 0.76344 0.91027 0.47890
 H623 H 0.79229 0.93435 0.48314
 H624 H 0.80815 0.90465 0.54063
 H625 H 0.72380 0.84380 0.48582
 H626 H 0.72776 0.81954 0.45695
 H627 H 0.78419 0.84998 0.44115
 H628 H 0.77906 0.87350 0.47031
 C629 C 0.73902 0.83335 0.55869
 C630 C 0.69126 0.92027 0.49243
 C631 C 0.75632 0.83286 0.44666
 C632 C 0.80265 0.92136 0.51223
 C633 C 0.00995 0.22227 0.40809
 H634 H 0.02353 0.23170 0.40930
 C635 C 0.00696 0.20641 0.42207
 H636 H 0.01845 0.20355 0.43391
 C637 C -0.02155 0.21462 0.39118
 H638 H -0.03281 0.21808 0.37937
 C639 C -0.02509 0.19852 0.40475
 H640 H -0.03908 0.18972 0.40323
 N641 N -0.00416 0.22599 0.39296
 C642 C 0.02713 0.25608 0.34222
 H643 H 0.01782 0.26956 0.34041
 C644 C 0.04318 0.25244 0.32864
 H645 H 0.04605 0.26316 0.31632
 C646 C 0.03413 0.22538 0.36005
 H647 H 0.03044 0.21475 0.37217
 C648 C 0.05032 0.22115 0.34685
 H649 H 0.05917 0.20743 0.34924
 Zn650 Zn 0.00073 0.24833 0.37520
 N651 N 0.02304 0.24272 0.35767
 C652 C 0.02301 0.28338 0.38885
 N653 N 0.00641 0.27130 0.39214
 C654 C -0.00641 0.27491 0.40813
 C655 C -0.00284 0.29129 0.42153
 C656 C 0.02701 0.30008 0.40172
 C657 C -0.02760 0.23931 0.34352
 C658 C -0.04448 0.24244 0.33048
 C659 C -0.05030 0.27458 0.34770
 C660 C -0.03332 0.27083 0.36040
 N661 N -0.02250 0.25332 0.35825
 H662 H 0.03317 0.28016 0.37623
 H663 H -0.01935 0.26490 0.41056
 H664 H -0.01303 0.29358 0.43440
 H665 H 0.04004 0.30974 0.39850
 H666 H -0.01857 0.22562 0.34199
 H667 H -0.04852 0.23094 0.31910
 H668 H -0.05862 0.28869 0.34953
 H669 H -0.02877 0.28198 0.37190
 C670 C 0.05505 0.23478 0.33089
 C671 C -0.01074 0.19428 0.42046
 C672 C -0.05613 0.26026 0.33253
 C673 C 0.01404 0.30422 0.41840
 C674 C -0.01340 0.72274 0.09432
 H675 H -0.02637 0.73265 0.09174
 C676 C -0.00987 0.70653 0.08079
 H677 H -0.02016 0.70421 0.06774
 C678 C 0.01629 0.71453 0.11389
 H679 H 0.02663 0.71782 0.12661
 C680 C 0.02027 0.69804 0.10090
 H681 H 0.03345 0.68859 0.10416
 N682 N -0.00037 0.72645 0.11047
 C683 C -0.03071 0.75855 0.16034
 H684 H -0.02005 0.77105 0.16258
 C685 C -0.04709 0.75613 0.17377
 H686 H -0.04873 0.76674 0.18649
 C687 C -0.04091 0.72921 0.14137
 H688 H -0.03840 0.71872 0.12876
 C689 C -0.05763 0.72632 0.15433
 H690 H -0.06802 0.71375 0.15127
 Zn691 Zn -0.00520 0.74961 0.12725
 N692 N -0.02797 0.74524 0.14449
 C693 C -0.02723 0.78362 0.11191
 N694 N -0.01028 0.77194 0.10952
 C695 C 0.00316 0.77557 0.09406
 C696 C 0.00000 0.79173 0.08044
 C697 C -0.03097 0.79997 0.09866
 C698 C 0.02205 0.74203 0.16023
 C699 C 0.03870 0.74559 0.17351
 C700 C 0.04615 0.77631 0.15452
 C701 C 0.02935 0.77217 0.14162
 N702 N 0.01783 0.75514 0.14451
 H703 H -0.03786 0.78035 0.12413
 H704 H 0.01636 0.76583 0.09233
 H705 H 0.01078 0.79425 0.06812
 H706 H -0.04434 0.80932 0.10107
 H707 H 0.01240 0.72880 0.16244
 H708 H 0.04170 0.73506 0.18602
 H709 H 0.05535 0.78974 0.15169
 H710 H 0.02559 0.78261 0.12931
 C711 C -0.06091 0.73989 0.17082
 C712 C 0.00722 0.69392 0.08395
 C713 C 0.05106 0.76290 0.17070
 C714 C -0.01723 0.80424 0.08269
 C715 C 0.48440 0.22143 0.59386
 H716 H 0.47125 0.23122 0.59190
 C717 C 0.48685 0.20459 0.58090
 H718 H 0.47553 0.20158 0.56889
 C719 C 0.51548 0.21396 0.61146
 H720 H 0.52668 0.21775 0.62329
 C721 C 0.51853 0.19696 0.59886
 H722 H 0.53194 0.18763 0.60138
 N723 N 0.49853 0.22568 0.60889
 C724 C 0.46947 0.25871 0.65897
 H725 H 0.47998 0.27141 0.66065
 C726 C 0.45341 0.25641 0.67283
 H727 H 0.45184 0.26732 0.68528
 C728 C 0.45936 0.22871 0.64108
 H729 H 0.46179 0.21786 0.62879
 C730 C 0.44297 0.22593 0.65444
 H731 H 0.43274 0.21312 0.65193
 Zn732 Zn 0.49445 0.24905 0.62550
 N733 N 0.47209 0.24502 0.64342
 C734 C 0.47247 0.28321 0.61038
 N735 N 0.48918 0.27125 0.60765
 C736 C 0.50219 0.27448 0.59172
 C737 C 0.49887 0.29055 0.57800
 C738 C 0.46859 0.29945 0.59704
 C739 C 0.52188 0.24177 0.65828
 C740 C 0.53874 0.24529 0.67130
 C741 C 0.54737 0.27463 0.65066
 C742 C 0.53023 0.27066 0.63818
 N743 N 0.51799 0.25435 0.64206
 H744 H 0.46215 0.28024 0.62294
 H745 H 0.51516 0.26452 0.58970
 H746 H 0.50932 0.29276 0.56533
 H747 H 0.45543 0.30903 0.59972
 H748 H 0.51173 0.22906 0.66119
 H749 H 0.54129 0.23530 0.68435
 H750 H 0.55713 0.28745 0.64698
 H751 H 0.52680 0.28065 0.62539
 C752 C 0.43980 0.23987 0.67062
 C753 C 0.50409 0.19206 0.58334
 C754 C 0.55181 0.26191 0.66755
 C755 C 0.48191 0.30334 0.58061
 C756 C 0.51233 0.72244 0.90762
 H757 H 0.52656 0.73085 0.90895
 C758 C 0.50876 0.70578 0.92047
 H759 H 0.52048 0.70128 0.93150
 C760 C 0.47990 0.71802 0.89139
 H761 H 0.46855 0.72300 0.88026
 C762 C 0.47569 0.70129 0.90394
 H763 H 0.46106 0.69360 0.90232
 N764 N 0.49810 0.72804 0.89323
 C765 C 0.53100 0.75906 0.84410
 H766 H 0.52225 0.77298 0.84301
 C767 C 0.54696 0.75550 0.83040
 H768 H 0.55031 0.76674 0.81869
 C769 C 0.53662 0.72718 0.86022
 H770 H 0.53240 0.71604 0.87166
 C771 C 0.55273 0.72303 0.84688
 H772 H 0.56100 0.70887 0.84856
 Zn773 Zn 0.50396 0.75076 0.87628
 N774 N 0.52627 0.74506 0.85876
 C775 C 0.52799 0.78371 0.89197
 N776 N 0.51019 0.77310 0.89389
 C777 C 0.49653 0.77783 0.90884
 C778 C 0.50033 0.79409 0.92235
 C779 C 0.53237 0.80013 0.90510
 C780 C 0.47619 0.74310 0.84398
 C781 C 0.45974 0.74673 0.83055
 C782 C 0.45395 0.77866 0.84817
 C783 C 0.47057 0.77445 0.86123
 N784 N 0.48116 0.75679 0.85907
 H785 H 0.53883 0.77952 0.88025
 H786 H 0.48266 0.76891 0.91025
 H787 H 0.48933 0.79748 0.93425
 H788 H 0.54642 0.80864 0.90302
 H789 H 0.48510 0.72935 0.84239
 H790 H 0.45620 0.73573 0.81852
 H791 H 0.44547 0.79261 0.85041
 H792 H 0.47496 0.78531 0.87306
 C793 C 0.55811 0.73729 0.83171
 C794 C 0.49027 0.69488 0.91865
 C795 C 0.44830 0.76468 0.83260
 C796 C 0.51841 0.80556 0.92051
 C797 C 0.12272 0.21848 0.27556
 C798 C 0.13492 0.23534 0.26972
 C799 C 0.15154 0.23256 0.25644
 C800 C 0.15638 0.21313 0.24887
 C801 C 0.14435 0.19644 0.25477
 C802 C 0.12775 0.19902 0.26790
 C803 C 0.10505 0.22213 0.28970
 C804 C 0.09183 0.20646 0.29623
 C805 C 0.07566 0.21063 0.30949
 C806 C 0.07219 0.23050 0.31663
 C807 C 0.08520 0.24624 0.31012
 C808 C 0.10150 0.24223 0.29676
 C809 C 0.13053 0.25486 0.27720
 C810 C 0.11422 0.25822 0.29047
 H811 H 0.13988 0.26776 0.27277
 H812 H 0.11150 0.27361 0.29585
 H813 H 0.16092 0.24552 0.25220
 H814 H 0.14763 0.18132 0.24897
 H815 H 0.06567 0.19825 0.31397
 H816 H 0.08283 0.26163 0.31571
 H817 H 0.11910 0.18559 0.27181
 H818 H 0.09362 0.19088 0.29126
 C819 C 0.62535 0.72122 0.77578
 C820 C 0.63805 0.73794 0.77062
 C821 C 0.65469 0.73517 0.75736
 C822 C 0.65910 0.71586 0.74924
 C823 C 0.64657 0.69930 0.75445
 C824 C 0.62991 0.70190 0.76750
 C825 C 0.60773 0.72485 0.78999
 C826 C 0.59399 0.70934 0.79580
 C827 C 0.57795 0.71345 0.80922
 C828 C 0.57512 0.73310 0.81726
 C829 C 0.58864 0.74869 0.81144
 C830 C 0.60479 0.74475 0.79789
 C831 C 0.63419 0.75729 0.77883
 C832 C 0.61798 0.76060 0.79224
 H833 H 0.64393 0.77009 0.77492
 H834 H 0.61572 0.77585 0.79825
 H835 H 0.66446 0.74800 0.75364
 H836 H 0.64955 0.68429 0.74822
 H837 H 0.56754 0.70120 0.81312
 H838 H 0.58677 0.76389 0.81770
 H839 H 0.62089 0.68857 0.77090
 H840 H 0.59527 0.69394 0.79013
 C841 C 0.37904 0.78008 0.77742
 C842 C 0.36678 0.76308 0.77173
 C843 C 0.34993 0.76555 0.75831
 C844 C 0.34488 0.78482 0.75050
 C845 C 0.35688 0.80169 0.75632
 C846 C 0.37376 0.79940 0.76956
 C847 C 0.39704 0.77672 0.79163
 C848 C 0.41048 0.79249 0.79788
 C849 C 0.42703 0.78855 0.81112
 C850 C 0.43064 0.76881 0.81854
 C851 C 0.41734 0.75300 0.81239
 C852 C 0.40073 0.75677 0.79899
 C853 C 0.37133 0.74372 0.77951
 C854 C 0.38787 0.74065 0.79291
 H855 H 0.36190 0.73072 0.77520
 H856 H 0.39070 0.72537 0.79853
 H857 H 0.34053 0.75248 0.75415
 H858 H 0.35337 0.81669 0.75037
 H859 H 0.43722 0.80098 0.81532
 H860 H 0.41979 0.73773 0.81821
 H861 H 0.38241 0.81293 0.77342
 H862 H 0.40861 0.80795 0.79264
 C863 C -0.12647 0.27522 0.27873
 C864 C -0.12453 0.26994 0.25763
 C865 C -0.14079 0.27339 0.24367
 C866 C -0.15931 0.28221 0.25021
 C867 C -0.16098 0.28734 0.27133
 C868 C -0.14493 0.28391 0.28529
 C869 C -0.10870 0.27139 0.29310
 C870 C -0.10909 0.27610 0.31438
 C871 C -0.09208 0.27242 0.32706
 C872 C -0.07421 0.26393 0.31894
 C873 C -0.07369 0.25909 0.29780
 C874 C -0.09071 0.26275 0.28488
 C875 C -0.10630 0.26140 0.25050
 C876 C -0.08977 0.25789 0.26382
 H877 H -0.10476 0.25737 0.23433
 H878 H -0.07600 0.25127 0.25750
 H879 H -0.13843 0.26994 0.22750
 H880 H -0.17503 0.29332 0.27754
 H881 H -0.09301 0.27603 0.34337
 H882 H -0.05988 0.25276 0.29129
 H883 H -0.14743 0.28808 0.30119
 H884 H -0.12234 0.28262 0.32159
 C885 C -0.12928 0.72869 0.22672
 C886 C -0.13543 0.70845 0.23081
 C887 C -0.15183 0.70458 0.24411
 C888 C -0.16222 0.72061 0.25404
 C889 C -0.15559 0.74070 0.25018
 C890 C -0.13952 0.74468 0.23673
 C891 C -0.11191 0.73215 0.21215
 C892 C -0.10535 0.75172 0.20617
 C893 C -0.08898 0.75413 0.19271
 C894 C -0.07858 0.73715 0.18489
 C895 C -0.08517 0.71758 0.19058
 C896 C -0.10179 0.71498 0.20391
 C897 C -0.12496 0.69211 0.22189
 C898 C -0.10838 0.69530 0.20891
 H899 H -0.12955 0.67656 0.22512
 H900 H -0.10071 0.68213 0.20255
 H901 H -0.15573 0.68888 0.24739
 H902 H -0.16332 0.75366 0.25682
 H903 H -0.08461 0.76940 0.18823
 H904 H -0.07722 0.70430 0.18484
 H905 H -0.13538 0.76041 0.23442
 H906 H -0.11274 0.76537 0.21153
 C907 C 0.37184 0.22873 0.72704
 C908 C 0.36597 0.20847 0.73145
 C909 C 0.34949 0.20459 0.74465
 C910 C 0.33876 0.22062 0.75418
 C911 C 0.34513 0.24074 0.75003
 C912 C 0.36127 0.24473 0.73667
 C913 C 0.38925 0.23220 0.71252
 C914 C 0.39554 0.25175 0.70620
 C915 C 0.41184 0.25416 0.69264
 C916 C 0.42243 0.23719 0.68508
 C917 C 0.41621 0.21765 0.69125
 C918 C 0.39965 0.21504 0.70463
 C919 C 0.37675 0.19214 0.72292
 C920 C 0.39335 0.19535 0.70998
 H921 H 0.37238 0.17659 0.72640
 H922 H 0.40126 0.18219 0.70389
 H923 H 0.34578 0.18889 0.74817
 H924 H 0.33713 0.25369 0.75635
 H925 H 0.41594 0.26940 0.68783
 H926 H 0.42434 0.20438 0.68575
 H927 H 0.36519 0.26048 0.73411
 H928 H 0.38795 0.26539 0.71131
 C929 C 0.62336 0.27773 0.71985
 C930 C 0.63343 0.26065 0.72842
 C931 C 0.65084 0.26333 0.74112
 C932 C 0.65899 0.28291 0.74519
 C933 C 0.64902 0.29975 0.73616
 C934 C 0.63152 0.29724 0.72382
 C935 C 0.60465 0.27422 0.70662
 C936 C 0.59286 0.29023 0.69834
 C937 C 0.57573 0.28617 0.68589
 C938 C 0.56988 0.26607 0.68119
 C939 C 0.58138 0.25000 0.68962
 C940 C 0.59849 0.25392 0.70240
 C941 C 0.62631 0.24094 0.72396
 C942 C 0.60938 0.23764 0.71105
 H943 H 0.63409 0.22781 0.73039
 H944 H 0.60462 0.22208 0.70792
 H945 H 0.65853 0.24991 0.74695
 H946 H 0.65413 0.31518 0.73922
 H947 H 0.56689 0.29889 0.68010
 H948 H 0.57718 0.23438 0.68605
 H949 H 0.62467 0.31082 0.71754
 H950 H 0.59645 0.30600 0.70143
 C951 C 0.12206 0.77845 0.22377
 C952 C 0.13396 0.76139 0.22959
 C953 C 0.15148 0.76399 0.24213
 C954 C 0.15752 0.78345 0.24896
 C955 C 0.14575 0.80034 0.24312
 C956 C 0.12826 0.79793 0.23073
 C957 C 0.10347 0.77499 0.21032
 C958 C 0.09048 0.79088 0.20383
 C959 C 0.07350 0.78689 0.19112
 C960 C 0.06896 0.76698 0.18452
 C961 C 0.08170 0.75103 0.19104
 C962 C 0.09881 0.75486 0.20385
 C963 C 0.12843 0.74184 0.22276
 C964 C 0.11127 0.73866 0.21012
 H965 H 0.13756 0.72878 0.22719
 H966 H 0.10770 0.72324 0.20520
 H967 H 0.16064 0.75087 0.24632
 H968 H 0.14998 0.81548 0.24837
 H969 H 0.06374 0.79945 0.18662
 H970 H 0.07850 0.73560 0.18586
 H971 H 0.11987 0.81150 0.22680
 H972 H 0.09309 0.80650 0.20839
 C973 C 0.27286 0.11914 0.22147
 C974 C 0.28112 0.13828 0.21584
 C975 C 0.26818 0.15512 0.21308
 C976 C 0.24696 0.15324 0.21573
 C977 C 0.23881 0.13418 0.22103
 C978 C 0.25152 0.11736 0.22389
 C979 C 0.28725 0.10162 0.22459
 C980 C 0.28065 0.08211 0.23075
 C981 C 0.29467 0.06635 0.23360
 C982 C 0.31562 0.06955 0.23035
 C983 C 0.32236 0.08890 0.22418
 C984 C 0.30841 0.10491 0.22140
 C985 C 0.30223 0.14053 0.21301
 C986 C 0.31556 0.12420 0.21564
 H987 H 0.30856 0.15517 0.20866
 H988 H 0.33176 0.12674 0.21324
 H989 H 0.27470 0.16980 0.20916
 H990 H 0.22246 0.13218 0.22279
 H991 H 0.28906 0.05150 0.23816
 H992 H 0.33856 0.09160 0.22190
 H993 H 0.24428 0.10316 0.22790
 H994 H 0.26478 0.07866 0.23351
 C995 C 0.77565 0.62126 0.72416
 C996 C 0.78405 0.64039 0.71870
 C997 C 0.77120 0.65725 0.71574
 C998 C 0.74992 0.65540 0.71793
 C999 C 0.74163 0.63635 0.72305
 C1000 C 0.75426 0.61952 0.72615
 C1001 C 0.78995 0.60370 0.72750
 C1002 C 0.78322 0.58422 0.73361
 C1003 C 0.79715 0.56841 0.73656
 C1004 C 0.81813 0.57152 0.73344
 C1005 C 0.82501 0.59085 0.72740
 C1006 C 0.81116 0.60693 0.72455
 C1007 C 0.80521 0.64259 0.71620
 C1008 C 0.81845 0.62620 0.71894
 H1009 H 0.81164 0.65722 0.71198
 H1010 H 0.83469 0.62870 0.71674
 H1011 H 0.77783 0.67193 0.71199
 H1012 H 0.72524 0.63437 0.72445
 H1013 H 0.79144 0.55357 0.74106
 H1014 H 0.84124 0.59348 0.72525
 H1015 H 0.74692 0.60531 0.72997
 H1016 H 0.76730 0.58085 0.73625
 C1017 C 0.77966 0.37447 0.76476
 C1018 C 0.77352 0.36989 0.78515
 C1019 C 0.76027 0.35342 0.78879
 C1020 C 0.75275 0.34146 0.77234
 C1021 C 0.75869 0.34613 0.75213
 C1022 C 0.77198 0.36236 0.74835
 C1023 C 0.79393 0.39213 0.76157
 C1024 C 0.80137 0.39765 0.74199
 C1025 C 0.81455 0.41429 0.73984
 C1026 C 0.82067 0.42592 0.75709
 C1027 C 0.81342 0.42047 0.77667
 C1028 C 0.80026 0.40370 0.77904
 C1029 C 0.78048 0.38186 0.80179
 C1030 C 0.79347 0.39845 0.79879
 H1031 H 0.77573 0.37839 0.81740
 H1032 H 0.79834 0.40728 0.81217
 H1033 H 0.75551 0.35009 0.80443
 H1034 H 0.75320 0.33701 0.73920
 H1035 H 0.82018 0.41789 0.72459
 H1036 H 0.81782 0.42946 0.79011
 H1037 H 0.77596 0.36516 0.73248
 H1038 H 0.79733 0.38929 0.72815
 C1039 C 0.28189 -0.12852 0.26714
 C1040 C 0.26102 -0.12651 0.26154
 C1041 C 0.24719 -0.14252 0.26516
 C1042 C 0.25363 -0.16084 0.27456
 C1043 C 0.27454 -0.16263 0.27991
 C1044 C 0.28839 -0.14685 0.27627
 C1045 C 0.29609 -0.11094 0.26331
 C1046 C 0.31712 -0.11140 0.26842
 C1047 C 0.32960 -0.09447 0.26497
 C1048 C 0.32152 -0.07662 0.25632
 C1049 C 0.30066 -0.07609 0.25091
 C1050 C 0.28794 -0.09302 0.25436
 C1051 C 0.25396 -0.10840 0.25258
 C1052 C 0.26712 -0.09203 0.24909
 H1053 H 0.23797 -0.10681 0.24828
 H1054 H 0.26086 -0.07834 0.24221
 H1055 H 0.23118 -0.14009 0.26149
 H1056 H 0.28067 -0.17657 0.28629
 H1057 H 0.34571 -0.09541 0.26898
 H1058 H 0.29418 -0.06230 0.24443
 H1059 H 0.30412 -0.14940 0.28068
 H1060 H 0.32428 -0.12462 0.27513
 C1061 C 0.22271 -0.12736 0.72478
 C1062 C 0.24343 -0.12514 0.73096
 C1063 C 0.25728 -0.14116 0.72798
 C1064 C 0.25102 -0.15972 0.71873
 C1065 C 0.23030 -0.16164 0.71259
 C1066 C 0.21643 -0.14583 0.71558
 C1067 C 0.20841 -0.10988 0.72828
 C1068 C 0.18745 -0.11062 0.72285
 C1069 C 0.17480 -0.09393 0.72641
 C1070 C 0.18264 -0.07603 0.73546
 C1071 C 0.20349 -0.07514 0.74092
 C1072 C 0.21635 -0.09185 0.73744
 C1073 C 0.25030 -0.10686 0.73995
 C1074 C 0.23707 -0.09058 0.74309
 H1075 H 0.26620 -0.10510 0.74464
 H1076 H 0.24317 -0.07679 0.75010
 H1077 H 0.27318 -0.13861 0.73215
 H1078 H 0.22430 -0.17572 0.70619
 H1079 H 0.15872 -0.09514 0.72232
 H1080 H 0.20979 -0.06130 0.74767
 H1081 H 0.20082 -0.14851 0.71066
 H1082 H 0.18046 -0.12393 0.71593
 C1083 C 0.72135 0.37355 0.22817
 C1084 C 0.72880 0.37037 0.20794
 C1085 C 0.74234 0.35430 0.20398
 C1086 C 0.74877 0.34129 0.21994
 C1087 C 0.74134 0.34444 0.23994
 C1088 C 0.72781 0.36030 0.24404
 C1089 C 0.70707 0.39101 0.23177
 C1090 C 0.69876 0.39545 0.25128
 C1091 C 0.68576 0.41204 0.25389
 C1092 C 0.68064 0.42468 0.23718
 C1093 C 0.68869 0.42029 0.21764
 C1094 C 0.70179 0.40363 0.21483
 C1095 C 0.72286 0.38334 0.19182
 C1096 C 0.70969 0.39963 0.19520
 H1097 H 0.72857 0.38092 0.17634
 H1098 H 0.70563 0.40926 0.18221
 H1099 H 0.74820 0.35215 0.18852
 H1100 H 0.74588 0.33445 0.25247
 H1101 H 0.67950 0.41487 0.26906
 H1102 H 0.68504 0.43008 0.20465
 H1103 H 0.72267 0.36190 0.25974
 H1104 H 0.70205 0.38633 0.26473
 C1105 C 0.72504 0.62097 0.27773
 C1106 C 0.71631 0.63968 0.28393
 C1107 C 0.72882 0.65687 0.28723
 C1108 C 0.75009 0.65575 0.28466
 C1109 C 0.75873 0.63711 0.27877
 C1110 C 0.74643 0.61996 0.27533
 C1111 C 0.71109 0.60306 0.27405
 C1112 C 0.71815 0.58395 0.26724
 C1113 C 0.70451 0.56780 0.26391
 C1114 C 0.68351 0.57021 0.26736
 C1115 C 0.67632 0.58916 0.27416
 C1116 C 0.68986 0.60556 0.27739
 C1117 C 0.69516 0.64117 0.28681
 C1118 C 0.68224 0.62445 0.28372
 H1119 H 0.68847 0.65548 0.29160
 H1120 H 0.66599 0.62639 0.28622
 H1121 H 0.72192 0.67122 0.29156
 H1122 H 0.77513 0.63570 0.27705
 H1123 H 0.71046 0.55327 0.25883
 H1124 H 0.66006 0.59125 0.27657
 H1125 H 0.75402 0.60610 0.27092
 H1126 H 0.73409 0.58112 0.26430
 C1127 C 0.22654 0.12037 0.77782
 C1128 C 0.21768 0.13905 0.78397
 C1129 C 0.23008 0.15631 0.78725
 C1130 C 0.25138 0.15531 0.78478
 C1131 C 0.26014 0.13670 0.77900
 C1132 C 0.24795 0.11947 0.77554
 C1133 C 0.21270 0.10239 0.77411
 C1134 C 0.21985 0.08335 0.76719
 C1135 C 0.20631 0.06711 0.76389
 C1136 C 0.18533 0.06936 0.76750
 C1137 C 0.17803 0.08825 0.77435
 C1138 C 0.19146 0.10475 0.77751
 C1139 C 0.19652 0.14040 0.78685
 C1140 C 0.18372 0.12359 0.78384
 H1141 H 0.18974 0.15467 0.79162
 H1142 H 0.16746 0.12542 0.78638
 H1143 H 0.22307 0.17064 0.79149
 H1144 H 0.27655 0.13536 0.77737
 H1145 H 0.21233 0.05264 0.75872
 H1146 H 0.16177 0.09020 0.77686
 H1147 H 0.25563 0.10563 0.77122
 H1148 H 0.23580 0.08066 0.76413
 C1149 C 0.22102 0.27375 0.12416
 C1150 C 0.23805 0.26752 0.13630
 C1151 C 0.23536 0.25372 0.15262
 C1152 C 0.21584 0.24615 0.15728
 C1153 C 0.19901 0.25239 0.14528
 C1154 C 0.20151 0.26596 0.12893
 C1155 C 0.22454 0.28853 0.10689
 C1156 C 0.20870 0.29538 0.09370
 C1157 C 0.21271 0.30928 0.07797
 C1158 C 0.23258 0.31681 0.07492
 C1159 C 0.24850 0.30994 0.08787
 C1160 C 0.24466 0.29588 0.10371
 C1161 C 0.25760 0.27524 0.13222
 C1162 C 0.26082 0.28917 0.11635
 H1163 H 0.27063 0.27051 0.14153
 H1164 H 0.27624 0.29475 0.11390
 H1165 H 0.24843 0.24917 0.16199
 H1166 H 0.18382 0.24659 0.14844
 H1167 H 0.20020 0.31395 0.06796
 H1168 H 0.26390 0.31576 0.08581
 H1169 H 0.18795 0.27017 0.12034
 H1170 H 0.19313 0.29016 0.09515
 C1171 C 0.72913 0.77708 0.62729
 C1172 C 0.70905 0.76995 0.63112
 C1173 C 0.70548 0.75628 0.64735
 C1174 C 0.72169 0.74935 0.65986
 C1175 C 0.74159 0.75630 0.65597
 C1176 C 0.74531 0.76999 0.63995
 C1177 C 0.73225 0.79174 0.60983
 C1178 C 0.75153 0.80002 0.60495
 C1179 C 0.75364 0.81351 0.58846
 C1180 C 0.73663 0.81912 0.57634
 C1181 C 0.71734 0.81103 0.58115
 C1182 C 0.71503 0.79752 0.59776
 C1183 C 0.69265 0.77638 0.61866
 C1184 C 0.69558 0.78979 0.60229
 H1185 H 0.67728 0.77089 0.62155
 H1186 H 0.68239 0.79424 0.59307
 H1187 H 0.69008 0.75075 0.65005
 H1188 H 0.75432 0.75131 0.66552
 H1189 H 0.76864 0.81977 0.58533
 H1190 H 0.70411 0.81503 0.57177
 H1191 H 0.76093 0.77478 0.63776
 H1192 H 0.76518 0.79639 0.61369
 C1193 C 0.76940 0.77514 0.37974
 C1194 C 0.77525 0.78326 0.36043
 C1195 C 0.77870 0.77022 0.34357
 C1196 C 0.77668 0.74901 0.34564
 C1197 C 0.77111 0.74102 0.36487
 C1198 C 0.76748 0.75384 0.38168
 C1199 C 0.76569 0.78961 0.39730
 C1200 C 0.75917 0.78315 0.41693
 C1201 C 0.75605 0.79722 0.43280
 C1202 C 0.75940 0.81807 0.42960
 C1203 C 0.76577 0.82470 0.41009
 C1204 C 0.76879 0.81070 0.39395
 C1205 C 0.77777 0.80432 0.35806
 C1206 C 0.77474 0.81772 0.37449
 H1207 H 0.78229 0.81054 0.34330
 H1208 H 0.77703 0.83387 0.37189
 H1209 H 0.78279 0.77663 0.32875
 H1210 H 0.76983 0.72472 0.36705
 H1211 H 0.75128 0.79171 0.44777
 H1212 H 0.76810 0.84083 0.40740
 H1213 H 0.76338 0.74672 0.39605
 H1214 H 0.75636 0.76734 0.42038
 C1215 C 0.26809 0.27697 -0.12269
 C1216 C 0.28837 0.27063 -0.12663
 C1217 C 0.29230 0.25726 -0.14309
 C1218 C 0.27629 0.24983 -0.15567
 C1219 C 0.25619 0.25591 -0.15160
 C1220 C 0.25210 0.26933 -0.13538
 C1221 C 0.26459 0.29143 -0.10507
 C1222 C 0.24513 0.29913 -0.10019
 C1223 C 0.24268 0.31250 -0.08357
 C1224 C 0.25952 0.31856 -0.07132
 C1225 C 0.27898 0.31103 -0.07612
 C1226 C 0.28165 0.29768 -0.09288
 C1227 C 0.30458 0.27752 -0.11406
 C1228 C 0.30128 0.29065 -0.09748
 H1229 H 0.32009 0.27260 -0.11703
 H1230 H 0.31435 0.29547 -0.08818
 H1231 H 0.30785 0.25236 -0.14592
 H1232 H 0.24360 0.25047 -0.16119
 H1233 H 0.22754 0.31834 -0.08048
 H1234 H 0.29210 0.31536 -0.06665
 H1235 H 0.23634 0.27346 -0.13306
 H1236 H 0.23160 0.29516 -0.10905
 C1237 C 0.73285 0.22254 -0.13385
 C1238 C 0.71273 0.22970 -0.13757
 C1239 C 0.70874 0.24295 -0.15412
 C1240 C 0.72456 0.24941 -0.16707
 C1241 C 0.74448 0.24234 -0.16335
 C1242 C 0.74861 0.22907 -0.14702
 C1243 C 0.73647 0.20849 -0.11593
 C1244 C 0.75586 0.20038 -0.11098
 C1245 C 0.75847 0.18760 -0.09396
 C1246 C 0.74188 0.18252 -0.08138
 C1247 C 0.72247 0.19036 -0.08628
 C1248 C 0.71965 0.20321 -0.10339
 C1249 C 0.69673 0.22375 -0.12467
 C1250 C 0.70013 0.21084 -0.10792
 H1251 H 0.68134 0.22924 -0.12750
 H1252 H 0.68724 0.20678 -0.09835
 H1253 H 0.69334 0.24857 -0.15670
 H1254 H 0.75691 0.24694 -0.17326
 H1255 H 0.77355 0.18150 -0.09075
 H1256 H 0.70957 0.18674 -0.07655
 H1257 H 0.76424 0.22419 -0.14498
 H1258 H 0.76921 0.20367 -0.12004
 C1259 C 0.23124 0.72361 0.37107
 C1260 C 0.21125 0.73114 0.36738
 C1261 C 0.20742 0.74423 0.35066
 C1262 C 0.22326 0.75008 0.33744
 C1263 C 0.24303 0.74257 0.34108
 C1264 C 0.24701 0.72951 0.35763
 C1265 C 0.23468 0.70975 0.38917
 C1266 C 0.25398 0.70148 0.39424
 C1267 C 0.25639 0.68867 0.41127
 C1268 C 0.23968 0.68372 0.42373
 C1269 C 0.22040 0.69187 0.41884
 C1270 C 0.21779 0.70478 0.40174
 C1271 C 0.19520 0.72563 0.38043
 C1272 C 0.19840 0.71275 0.39723
 H1273 H 0.17990 0.73140 0.37761
 H1274 H 0.18547 0.70896 0.40685
 H1275 H 0.19213 0.75016 0.34813
 H1276 H 0.25546 0.74664 0.33095
 H1277 H 0.27137 0.68237 0.41452
 H1278 H 0.20742 0.68838 0.42852
 H1279 H 0.26251 0.72425 0.35957
 H1280 H 0.26741 0.70464 0.38525
 C1281 C 0.27696 0.72114 0.62668
 C1282 C 0.27336 0.74220 0.62378
 C1283 C 0.27653 0.75595 0.64019
 C1284 C 0.28316 0.74909 0.65968
 C1285 C 0.28658 0.72821 0.66255
 C1286 C 0.28355 0.71441 0.64633
 C1287 C 0.27357 0.70700 0.60867
 C1288 C 0.27710 0.68586 0.60979
 C1289 C 0.27378 0.67337 0.59256
 C1290 C 0.26681 0.68155 0.57376
 C1291 C 0.26323 0.70257 0.57247
 C1292 C 0.26663 0.71531 0.58967
 C1293 C 0.26661 0.74944 0.60454
 C1294 C 0.26325 0.73628 0.58788
 H1295 H 0.26382 0.76555 0.60232
 H1296 H 0.25798 0.74265 0.57333
 H1297 H 0.27407 0.77208 0.63770
 H1298 H 0.29138 0.72246 0.67751
 H1299 H 0.27647 0.65717 0.59401
 H1300 H 0.25813 0.70909 0.55792
 H1301 H 0.28637 0.69856 0.64956
 H1302 H 0.28244 0.67864 0.62378
 C1303 C 0.77781 0.23003 0.11862
 C1304 C 0.78416 0.22153 0.13773
 C1305 C 0.78694 0.23408 0.15517
 C1306 C 0.78366 0.25517 0.15394
 C1307 C 0.77762 0.26358 0.13492
 C1308 C 0.77472 0.25123 0.11750
 C1309 C 0.77470 0.21602 0.10045
 C1310 C 0.76782 0.22282 0.08092
 C1311 C 0.76504 0.20913 0.06455
 C1312 C 0.76912 0.18834 0.06714
 C1313 C 0.77598 0.18141 0.08651
 C1314 C 0.77867 0.19500 0.10313
 C1315 C 0.78770 0.20057 0.13936
 C1316 C 0.78512 0.18762 0.12242
 H1317 H 0.79261 0.19408 0.15398
 H1318 H 0.78811 0.17152 0.12448
 H1319 H 0.79138 0.22735 0.16983
 H1320 H 0.77533 0.27983 0.13343
 H1321 H 0.75990 0.21488 0.04970
 H1322 H 0.77886 0.16531 0.08875
 H1323 H 0.77014 0.25864 0.10334
 H1324 H 0.76442 0.23860 0.07794
 C1325 C 0.46764 0.37164 0.52520
 C1326 C 0.48506 0.38282 0.51890
 C1327 C 0.48279 0.39960 0.50566
 C1328 C 0.46335 0.40559 0.49859
 C1329 C 0.44612 0.39454 0.50491
 C1330 C 0.44818 0.37779 0.51800
 C1331 C 0.47074 0.35381 0.53935
 C1332 C 0.45448 0.34158 0.54639
 C1333 C 0.45817 0.32524 0.55967
 C1334 C 0.47813 0.32062 0.56631
 C1335 C 0.49444 0.33264 0.55930
 C1336 C 0.49092 0.34909 0.54592
 C1337 C 0.50461 0.37729 0.52590
 C1338 C 0.50748 0.36082 0.53915
 H1339 H 0.51794 0.38587 0.52110
 H1340 H 0.52292 0.35721 0.54417
 H1341 H 0.49619 0.40821 0.50109
 H1342 H 0.43097 0.39873 0.49949
 H1343 H 0.44533 0.31604 0.56457
 H1344 H 0.50991 0.32938 0.56452
 H1345 H 0.43435 0.36993 0.52226
 H1346 H 0.43881 0.34429 0.54182
 C1347 C -0.03084 0.87283 0.02747
 C1348 C -0.01337 0.88414 0.02158
 C1349 C -0.01544 0.90089 0.00829
 C1350 C -0.03476 0.90674 0.00076
 C1351 C -0.05207 0.89563 0.00674
 C1352 C -0.05019 0.87889 0.01988
 C1353 C -0.02792 0.85496 0.04160
 C1354 C -0.04423 0.84251 0.04814
 C1355 C -0.04070 0.82611 0.06137
 C1356 C -0.02086 0.82163 0.06848
 C1357 C -0.00450 0.83388 0.06199
 C1358 C -0.00786 0.85039 0.04863
 C1359 C 0.00607 0.87875 0.02903
 C1360 C 0.00876 0.86229 0.04232
 H1361 H 0.01944 0.88744 0.02456
 H1362 H 0.02412 0.85878 0.04769
 H1363 H -0.00200 0.90957 0.00400
 H1364 H -0.06713 0.89974 0.00099
 H1365 H -0.05357 0.81672 0.06586
 H1366 H 0.01087 0.83075 0.06757
 H1367 H -0.06407 0.87096 0.02385
 H1368 H -0.05981 0.84509 0.04317
 C1369 C 0.02442 0.62629 0.02835
 C1370 C 0.00746 0.61599 0.01936
 C1371 C 0.01051 0.59941 0.00595
 C1372 C 0.03037 0.59228 0.00162
 C1373 C 0.04710 0.60254 0.01098
 C1374 C 0.04421 0.61924 0.02399
 C1375 C 0.02051 0.64403 0.04244
 C1376 C 0.03636 0.65594 0.05126
 C1377 C 0.03196 0.67210 0.06452
 C1378 C 0.01167 0.67683 0.06951
 C1379 C -0.00425 0.66522 0.06053
 C1380 C 0.00000 0.64907 0.04695
 C1381 C -0.01249 0.62202 0.02413
 C1382 C -0.01614 0.63804 0.03780
 H1383 H -0.02553 0.61407 0.01737
 H1384 H -0.03186 0.64194 0.04114
 H1385 H -0.00281 0.59147 -0.00019
 H1386 H 0.06271 0.59829 0.00770
 H1387 H 0.04456 0.68109 0.07069
 H1388 H -0.02000 0.66857 0.06429
 H1389 H 0.05773 0.62633 0.03052
 H1390 H 0.05225 0.65320 0.04800
 C1391 C 0.51600 0.12198 0.52954
 C1392 C 0.53618 0.11831 0.52274
 C1393 C 0.54018 0.10181 0.50954
 C1394 C 0.52432 0.08883 0.50280
 C1395 C 0.50435 0.09248 0.50956
 C1396 C 0.50020 0.10878 0.52275
 C1397 C 0.51237 0.13983 0.54355
 C1398 C 0.49290 0.14477 0.55123
 C1399 C 0.49031 0.16164 0.56411
 C1400 C 0.50700 0.17407 0.56972
 C1401 C 0.52647 0.16923 0.56222
 C1402 C 0.52927 0.15229 0.54927
 C1403 C 0.55224 0.13119 0.52905
 C1404 C 0.54886 0.14782 0.54199
 H1405 H 0.56769 0.12840 0.52384
 H1406 H 0.56180 0.15735 0.54637
 H1407 H 0.55563 0.09927 0.50419
 H1408 H 0.49188 0.08254 0.50479
 H1409 H 0.47517 0.16483 0.56991
 H1410 H 0.53946 0.17887 0.56622
 H1411 H 0.48454 0.11074 0.52739
 H1412 H 0.47947 0.13582 0.54755
 C1413 C -0.02532 0.12811 0.47806
 C1414 C -0.03205 0.10930 0.46955
 C1415 C -0.03564 0.09257 0.48251
 C1416 C -0.03282 0.09424 0.50401
 C1417 C -0.02646 0.11299 0.51241
 C1418 C -0.02273 0.12968 0.49967
 C1419 C -0.02134 0.14551 0.46365
 C1420 C -0.01392 0.16461 0.47048
 C1421 C -0.01045 0.18031 0.45644
 C1422 C -0.01433 0.17747 0.43526
 C1423 C -0.02166 0.15850 0.42827
 C1424 C -0.02504 0.14253 0.44223
 C1425 C -0.03522 0.10731 0.44818
 C1426 C -0.03192 0.12360 0.43484
 H1427 H -0.04043 0.09294 0.44166
 H1428 H -0.03468 0.12128 0.41844
 H1429 H -0.04037 0.07812 0.47580
 H1430 H -0.02457 0.11486 0.52897
 H1431 H -0.00494 0.19487 0.46222
 H1432 H -0.02441 0.15607 0.41188
 H1433 H -0.01797 0.14367 0.50711
 H1434 H -0.01063 0.16776 0.48654
 C1435 C 0.47434 0.62489 0.97121
 C1436 C 0.48089 0.62630 0.99207
 C1437 C 0.47753 0.61003 1.00569
 C1438 C 0.46753 0.59200 0.99905
 C1439 C 0.46100 0.59088 0.97820
 C1440 C 0.46436 0.60695 0.96455
 C1441 C 0.47825 0.64262 0.95717
 C1442 C 0.47251 0.64266 0.93609
 C1443 C 0.47644 0.65958 0.92371
 C1444 C 0.48619 0.67693 0.93195
 C1445 C 0.49202 0.67702 0.95291
 C1446 C 0.48816 0.66008 0.96551
 C1447 C 0.49063 0.64403 0.99934
 C1448 C 0.49416 0.66055 0.98636
 H1449 H 0.49562 0.64518 1.01535
 H1450 H 0.50175 0.67391 0.99276
 H1451 H 0.48202 0.61201 1.02174
 H1452 H 0.45397 0.57723 0.97190
 H1453 H 0.47205 0.65896 0.90752
 H1454 H 0.49933 0.69043 0.95953
 H1455 H 0.45910 0.60490 0.94882
 H1456 H 0.46504 0.62980 0.92879
 C1457 C 0.53476 0.87490 0.97471
 C1458 C 0.51782 0.88716 0.98003
 C1459 C 0.52060 0.90419 0.99297
 C1460 C 0.54011 0.90944 1.00062
 C1461 C 0.55689 0.89740 0.99518
 C1462 C 0.55430 0.88034 0.98244
 C1463 C 0.53109 0.85677 0.96093
 C1464 C 0.54679 0.84335 0.95507
 C1465 C 0.54261 0.82677 0.94208
 C1466 C 0.52271 0.82309 0.93455
 C1467 C 0.50694 0.83629 0.94042
 C1468 C 0.51094 0.85296 0.95355
 C1469 C 0.49824 0.88245 0.97232
 C1470 C 0.49489 0.86578 0.95929
 H1471 H 0.48529 0.89186 0.97635
 H1472 H 0.47946 0.86285 0.95367
 H1473 H 0.50758 0.91360 0.99685
 H1474 H 0.57208 0.90104 1.00103
 H1475 H 0.55502 0.81665 0.93812
 H1476 H 0.49153 0.83377 0.93453
 H1477 H 0.56780 0.87170 0.97885
 H1478 H 0.56239 0.84528 0.96038
 C1479 C 0.02978 0.37373 0.47262
 C1480 C 0.01259 0.38349 0.48122
 C1481 C 0.01524 0.40046 0.49431
 C1482 C 0.03490 0.40854 0.49864
 C1483 C 0.05185 0.39884 0.48965
 C1484 C 0.04937 0.38174 0.47699
 C1485 C 0.02630 0.35555 0.45889
 C1486 C 0.04241 0.34407 0.45055
 C1487 C 0.03837 0.32744 0.43761
 C1488 C 0.01818 0.32181 0.43247
 C1489 C 0.00202 0.33302 0.44095
 C1490 C 0.00591 0.34960 0.45424
 C1491 C -0.00721 0.37655 0.47635
 C1492 C -0.01048 0.36014 0.46296
 H1493 H -0.02042 0.38408 0.48280
 H1494 H -0.02610 0.35553 0.45951
 H1495 H 0.00175 0.40794 0.50016
 H1496 H 0.06734 0.40387 0.49296
 H1497 H 0.05118 0.31880 0.43182
 H1498 H -0.01367 0.32901 0.43705
 H1499 H 0.06303 0.37511 0.47072
 H1500 H 0.05825 0.34751 0.45396
 C1501 C 0.37652 0.52891 0.47442
 C1502 C 0.37295 0.50783 0.47730
 C1503 C 0.38877 0.49378 0.47414
 C1504 C 0.40833 0.50037 0.46830
 C1505 C 0.41189 0.52129 0.46572
 C1506 C 0.39626 0.53538 0.46871
 C1507 C 0.35911 0.54337 0.47764
 C1508 C 0.36088 0.56455 0.47455
 C1509 C 0.34418 0.57734 0.47763
 C1510 C 0.32531 0.56942 0.48395
 C1511 C 0.32336 0.54837 0.48708
 C1512 C 0.34001 0.53533 0.48386
 C1513 C 0.35364 0.50086 0.48333
 C1514 C 0.33756 0.51432 0.48664
 H1515 H 0.35091 0.48473 0.48559
 H1516 H 0.32293 0.50815 0.49135
 H1517 H 0.38575 0.47764 0.47597
 H1518 H 0.42693 0.52684 0.46158
 H1519 H 0.34610 0.59356 0.47528
 H1520 H 0.30874 0.54208 0.49167
 H1521 H 0.40001 0.55123 0.46655
 H1522 H 0.37496 0.57157 0.46969
 C1523 C 0.87996 0.03030 -0.02552
 C1524 C 0.87742 0.00992 -0.01900
 C1525 C 0.89323 -0.00425 -0.02167
 C1526 C 0.91188 0.00135 -0.03095
 C1527 C 0.91417 0.02176 -0.03731
 C1528 C 0.89857 0.03594 -0.03463
 C1529 C 0.86262 0.04490 -0.02255
 C1530 C 0.86362 0.06552 -0.02850
 C1531 C 0.84697 0.07842 -0.02562
 C1532 C 0.82887 0.07120 -0.01674
 C1533 C 0.82776 0.05073 -0.01063
 C1534 C 0.84441 0.03760 -0.01346
 C1535 C 0.85901 0.00369 -0.01004
 C1536 C 0.84287 0.01721 -0.00734
 H1537 H 0.85701 -0.01193 -0.00506
 H1538 H 0.82894 0.01160 -0.00038
 H1539 H 0.89039 -0.01990 -0.01729
 H1540 H 0.92836 0.02727 -0.04371
 H1541 H 0.84836 0.09422 -0.03019
 H1542 H 0.81376 0.04489 -0.00398
 H1543 H 0.90152 0.05128 -0.03974
 H1544 H 0.87708 0.07203 -0.03538
 C1545 C 0.63279 0.02922 0.02510
 C1546 C 0.62078 0.02258 0.00798
 C1547 C 0.60424 0.00919 0.01093
 C1548 C 0.59925 0.00242 0.03080
 C1549 C 0.61108 0.00912 0.04775
 C1550 C 0.62763 0.02231 0.04499
 C1551 C 0.65036 0.04346 0.02127
 C1552 C 0.66349 0.05063 0.03718
 C1553 C 0.67955 0.06397 0.03284
 C1554 C 0.68299 0.07060 0.01257
 C1555 C 0.67009 0.06344 -0.00341
 C1556 C 0.65393 0.04993 0.00076
 C1557 C 0.62523 0.02943 -0.01196
 C1558 C 0.64137 0.04288 -0.01548
 H1559 H 0.61601 0.02439 -0.02507
 H1560 H 0.64412 0.04780 -0.03119
 H1561 H 0.59501 0.00430 -0.00223
 H1562 H 0.60765 0.00395 0.06322
 H1563 H 0.68949 0.06890 0.04542
 H1564 H 0.67245 0.06859 -0.01911
 H1565 H 0.63610 0.02689 0.05865
 H1566 H 0.66173 0.04607 0.05305
 C1567 C 0.12619 0.52885 0.51791
 C1568 C 0.12198 0.52254 0.53836
 C1569 C 0.10552 0.50930 0.54215
 C1570 C 0.09323 0.50193 0.52582
 C1571 C 0.09751 0.50806 0.50557
 C1572 C 0.11371 0.52136 0.50163
 C1573 C 0.14387 0.54306 0.51454
 C1574 C 0.14903 0.55065 0.49490
 C1575 C 0.16574 0.56373 0.49255
 C1576 C 0.17781 0.56960 0.50966
 C1577 C 0.17272 0.56222 0.52931
 C1578 C 0.15587 0.54916 0.53187
 C1579 C 0.13434 0.52931 0.55486
 C1580 C 0.15098 0.54223 0.55167
 H1581 H 0.13117 0.52443 0.57050
 H1582 H 0.16012 0.54693 0.56496
 H1583 H 0.10249 0.50439 0.55782
 H1584 H 0.08812 0.50270 0.49273
 H1585 H 0.16905 0.56947 0.47727
 H1586 H 0.18204 0.56644 0.54264
 H1587 H 0.11620 0.52548 0.48574
 H1588 H 0.14033 0.54680 0.48116
 C1589 C 0.12579 0.47704 -0.02050
 C1590 C 0.10769 0.46916 -0.02973
 C1591 C 0.09079 0.48191 -0.03327
 C1592 C 0.09134 0.50272 -0.02764
 C1593 C 0.10951 0.51031 -0.01840
 C1594 C 0.12639 0.49777 -0.01493
 C1595 C 0.14347 0.46289 -0.01697
 C1596 C 0.16224 0.46927 -0.00807
 C1597 C 0.17819 0.45548 -0.00503
 C1598 C 0.17591 0.43495 -0.01074
 C1599 C 0.15730 0.42845 -0.01967
 C1600 C 0.14116 0.44220 -0.02284
 C1601 C 0.10642 0.44853 -0.03522
 C1602 C 0.12277 0.43534 -0.03182
 H1603 H 0.09254 0.44244 -0.04225
 H1604 H 0.12098 0.41951 -0.03632
 H1605 H 0.07692 0.47517 -0.03961
 H1606 H 0.11125 0.52626 -0.01449
 H1607 H 0.19249 0.46099 0.00157
 H1608 H 0.15525 0.41258 -0.02393
 H1609 H 0.13978 0.50470 -0.00796
 H1610 H 0.16501 0.48483 -0.00341
 C1611 C 0.62299 0.97572 0.47949
 C1612 C 0.60523 0.96767 0.46974
 C1613 C 0.58814 0.98015 0.46612
 C1614 C 0.58812 1.00082 0.47226
 C1615 C 0.60593 1.00856 0.48207
 C1616 C 0.62302 0.99631 0.48558
 C1617 C 0.64092 0.96188 0.48302
 C1618 C 0.65945 0.96851 0.49225
 C1619 C 0.67566 0.95501 0.49525
 C1620 C 0.67390 0.93453 0.48920
 C1621 C 0.65552 0.92780 0.47994
 C1622 C 0.63914 0.94126 0.47676
 C1623 C 0.60449 0.94712 0.46384
 C1624 C 0.62104 0.93420 0.46733
 H1625 H 0.59086 0.94089 0.45643
 H1626 H 0.61965 0.91842 0.46251
 H1627 H 0.57454 0.97327 0.45932
 H1628 H 0.60724 1.02444 0.48641
 H1629 H 0.68977 0.96074 0.50209
 H1630 H 0.65384 0.91196 0.47540
 H1631 H 0.63611 1.00336 0.49301
 H1632 H 0.66184 0.98405 0.49716
 C1633 C 0.87021 0.97806 0.52570
 C1634 C 0.88915 0.96971 0.53224
 C1635 C 0.90615 0.98248 0.53577
 C1636 C 0.90463 1.00364 0.53308
 C1637 C 0.88577 1.01188 0.52685
 C1638 C 0.86881 0.99933 0.52318
 C1639 C 0.85248 0.96387 0.52190
 C1640 C 0.83317 0.97056 0.51480
 C1641 C 0.81713 0.95674 0.51158
 C1642 C 0.81985 0.93591 0.51541
 C1643 C 0.83905 0.92906 0.52236
 C1644 C 0.85534 0.94280 0.52551
 C1645 C 0.89101 0.94869 0.53530
 C1646 C 0.87444 0.93555 0.53212
 H1647 H 0.90548 0.94229 0.54034
 H1648 H 0.87666 0.91941 0.53481
 H1649 H 0.92068 0.97589 0.54038
 H1650 H 0.88403 1.02818 0.52504
 H1651 H 0.80242 0.96242 0.50637
 H1652 H 0.84139 0.91294 0.52506
 H1653 H 0.85475 1.00663 0.51852
 H1654 H 0.83008 0.98636 0.51161
 C1655 C 0.37098 0.47712 0.02502
 C1656 C 0.39002 0.46894 0.03148
 C1657 C 0.40707 0.48180 0.03439
 C1658 C 0.40550 0.50287 0.03109
 C1659 C 0.38656 0.51094 0.02487
 C1660 C 0.36955 0.49830 0.02185
 C1661 C 0.35320 0.46284 0.02190
 C1662 C 0.33375 0.46938 0.01507
 C1663 C 0.31773 0.45547 0.01228
 C1664 C 0.32060 0.43469 0.01626
 C1665 C 0.33988 0.42800 0.02313
 C1666 C 0.35616 0.44185 0.02585
 C1667 C 0.39194 0.44800 0.03502
 C1668 C 0.37537 0.43476 0.03235
 H1669 H 0.40650 0.44173 0.04000
 H1670 H 0.37766 0.41869 0.03534
 H1671 H 0.42166 0.47534 0.03899
 H1672 H 0.38480 0.52717 0.02258
 H1673 H 0.30294 0.46105 0.00719
 H1674 H 0.34232 0.41193 0.02599
 H1675 H 0.35544 0.50548 0.01715
 H1676 H 0.33054 0.48513 0.01174
 C1677 C 0.52439 0.47022 0.37357
 C1678 C 0.51917 0.48700 0.38625
 C1679 C 0.50578 0.48432 0.40286
 C1680 C 0.49753 0.46507 0.40723
 C1681 C 0.50282 0.44845 0.39476
 C1682 C 0.51604 0.45094 0.37815
 C1683 C 0.53868 0.47376 0.35593
 C1684 C 0.54456 0.45819 0.34221
 C1685 C 0.55800 0.46224 0.32611
 C1686 C 0.56599 0.48188 0.32321
 C1687 C 0.56011 0.49753 0.33671
 C1688 C 0.54655 0.49365 0.35294
 C1689 C 0.52742 0.50632 0.38237
 C1690 C 0.54086 0.50956 0.36612
 H1691 H 0.52346 0.51915 0.39209
 H1692 H 0.54686 0.52479 0.36382
 H1693 H 0.50201 0.49721 0.41260
 H1694 H 0.49650 0.43347 0.39771
 H1695 H 0.56196 0.44994 0.31572
 H1696 H 0.56634 0.51273 0.33478
 H1697 H 0.51948 0.43757 0.36914
 H1698 H 0.53893 0.44280 0.34354
 C1699 C 0.02810 -0.02997 0.87599
 C1700 C 0.02308 -0.01305 0.88854
 C1701 C 0.00966 -0.01545 0.90517
 C1702 C 0.00117 -0.03457 0.90967
 C1703 C 0.00630 -0.05135 0.89733
 C1704 C 0.01955 -0.04913 0.88071
 C1705 C 0.04234 -0.02670 0.85826
 C1706 C 0.04801 -0.04243 0.84462
 C1707 C 0.06131 -0.03859 0.82834
 C1708 C 0.06936 -0.01902 0.82519
 C1709 C 0.06377 -0.00324 0.83867
 C1710 C 0.05035 -0.00690 0.85505
 C1711 C 0.03150 0.00616 0.88450
 C1712 C 0.04489 0.00915 0.86816
 H1713 H 0.02770 0.01911 0.89414
 H1714 H 0.05101 0.02431 0.86571
 H1715 H 0.00602 -0.00245 0.91481
 H1716 H -0.00022 -0.06623 0.90037
 H1717 H 0.06507 -0.05099 0.81799
 H1718 H 0.07007 0.01191 0.83655
 H1719 H 0.02283 -0.06260 0.87180
 H1720 H 0.04229 -0.05777 0.84613
 C1721 C 0.02384 0.02709 0.63004
 C1722 C 0.01757 0.01039 0.61753
 C1723 C 0.00396 0.01339 0.60083
 C1724 C -0.00336 0.03292 0.59617
 C1725 C 0.00283 0.04942 0.60859
 C1726 C 0.01620 0.04659 0.62532
 C1727 C 0.03853 0.02327 0.64760
 C1728 C 0.04550 0.03879 0.66109
 C1729 C 0.05938 0.03451 0.67704
 C1730 C 0.06673 0.01468 0.68004
 C1731 C 0.05974 -0.00093 0.66680
 C1732 C 0.04572 0.00319 0.65072
 C1733 C 0.02511 -0.00915 0.62159
 C1734 C 0.03893 -0.01266 0.63777
 H1735 H 0.02034 -0.02194 0.61201
 H1736 H 0.04439 -0.02805 0.64017
 H1737 H -0.00057 0.00059 0.59115
 H1738 H -0.00280 0.06460 0.60543
 H1739 H 0.06417 0.04678 0.68726
 H1740 H 0.06545 -0.01629 0.66881
 H1741 H 0.02040 0.05991 0.63422
 H1742 H 0.04042 0.05432 0.65967
 C1743 C 0.52479 0.52830 0.12666
 C1744 C 0.51847 0.51150 0.11433
 C1745 C 0.50500 0.51440 0.09752
 C1746 C 0.49782 0.53391 0.09255
 C1747 C 0.50419 0.55055 0.10469
 C1748 C 0.51745 0.54783 0.12153
 C1749 C 0.53914 0.52453 0.14452
 C1750 C 0.54601 0.54012 0.15798
 C1751 C 0.55946 0.53585 0.17430
 C1752 C 0.56651 0.51597 0.17769
 C1753 C 0.55966 0.50031 0.16444
 C1754 C 0.54604 0.50441 0.14802
 C1755 C 0.52574 0.49193 0.11873
 C1756 C 0.53930 0.48848 0.13514
 H1757 H 0.52095 0.47908 0.10927
 H1758 H 0.54454 0.47307 0.13783
 H1759 H 0.50037 0.50149 0.08803
 H1760 H 0.49871 0.56573 0.10127
 H1761 H 0.56416 0.54817 0.18450
 H1762 H 0.56514 0.48491 0.16674
 H1763 H 0.52177 0.56123 0.13024
 H1764 H 0.54112 0.55569 0.15629
 C1765 C 0.48059 -0.02095 0.12409
 C1766 C 0.47285 -0.02793 0.10478
 C1767 C 0.48620 -0.03123 0.08824
 C1768 C 0.50734 -0.02789 0.09063
 C1769 C 0.51498 -0.02120 0.10986
 C1770 C 0.50185 -0.01774 0.12636
 C1771 C 0.46579 -0.01747 0.14130
 C1772 C 0.47184 -0.01000 0.16092
 C1773 C 0.45749 -0.00716 0.17647
 C1774 C 0.43675 -0.01171 0.17294
 C1775 C 0.43053 -0.01900 0.15343
 C1776 C 0.44481 -0.02179 0.13762
 C1777 C 0.45187 -0.03166 0.10208
 C1778 C 0.43817 -0.02878 0.11817
 H1779 H 0.44594 -0.03704 0.08731
 H1780 H 0.42210 -0.03201 0.11532
 H1781 H 0.48007 -0.03620 0.07341
 H1782 H 0.53126 -0.01888 0.11228
 H1783 H 0.46270 -0.00167 0.19145
 H1784 H 0.41447 -0.02226 0.15046
 H1785 H 0.50870 -0.01272 0.14075
 H1786 H 0.48755 -0.00627 0.16463
 C1787 C 0.97499 0.48062 0.61995
 C1788 C 0.98209 0.46063 0.61612
 C1789 C 0.99523 0.45684 0.59953
 C1790 C 1.00159 0.47272 0.58661
 C1791 C 0.99453 0.49251 0.59041
 C1792 C 0.98140 0.49645 0.60681
 C1793 C 0.96103 0.48402 0.63790
 C1794 C 0.95303 0.50328 0.64300
 C1795 C 0.94013 0.50563 0.65990
 C1796 C 0.93484 0.48889 0.67220
 C1797 C 0.94275 0.46965 0.66725
 C1798 C 0.95570 0.46710 0.65027
 C1799 C 0.97618 0.44455 0.62894
 C1800 C 0.96330 0.44772 0.64566
 H1801 H 0.98163 0.42925 0.62603
 H1802 H 0.95921 0.43476 0.65512
 H1803 H 1.00082 0.44153 0.59688
 H1804 H 0.99904 0.50499 0.58052
 H1805 H 0.93402 0.52059 0.66317
 H1806 H 0.93902 0.45664 0.67680
 H1807 H 0.97651 0.51197 0.60890
 H1808 H 0.95643 0.51672 0.63413
 C1809 C 0.97204 0.52082 0.87733
 C1810 C 0.97853 0.54095 0.88193
 C1811 C 0.99138 0.54478 0.89909
 C1812 C 0.99809 0.52880 0.91179
 C1813 C 0.99159 0.50888 0.90725
 C1814 C 0.97872 0.50490 0.89031
 C1815 C 0.95847 0.51737 0.85873
 C1816 C 0.95111 0.49797 0.85282
 C1817 C 0.93863 0.49556 0.83529
 C1818 C 0.93313 0.51239 0.82315
 C1819 C 0.94035 0.53179 0.82894
 C1820 C 0.95288 0.53440 0.84656
 C1821 C 0.97235 0.55713 0.86930
 C1822 C 0.95983 0.55392 0.85198
 H1823 H 0.97733 0.57254 0.87281
 H1824 H 0.95554 0.56696 0.84268
 H1825 H 0.99655 0.56020 0.90231
 H1826 H 0.99638 0.49631 0.91695
 H1827 H 0.93303 0.48047 0.83139
 H1828 H 0.93644 0.54488 0.81954
 H1829 H 0.97429 0.48927 0.88765
 H1830 H 0.95472 0.48445 0.86152
 C1831 C 0.46827 0.02071 0.37634
 C1832 C 0.48963 0.01818 0.37405
 C1833 C 0.50293 0.02123 0.39104
 C1834 C 0.49528 0.02670 0.41047
 C1835 C 0.47406 0.02875 0.41278
 C1836 C 0.46073 0.02581 0.39601
 C1837 C 0.45465 0.01787 0.35769
 C1838 C 0.43329 0.02076 0.35816
 C1839 C 0.42131 0.01811 0.34033
 C1840 C 0.43024 0.01244 0.32157
 C1841 C 0.45149 0.00951 0.32092
 C1842 C 0.46372 0.01230 0.33873
 C1843 C 0.49763 0.01274 0.35482
 C1844 C 0.48495 0.00975 0.33758
 H1845 H 0.51398 0.01073 0.35307
 H1846 H 0.49191 0.00552 0.32306
 H1847 H 0.51930 0.01975 0.38901
 H1848 H 0.46771 0.03254 0.42768
 H1849 H 0.40493 0.02027 0.34128
 H1850 H 0.45856 0.00542 0.30642
 H1851 H 0.44461 0.02761 0.39882
 H1852 H 0.42550 0.02514 0.37207
   
