data_POSCAR
  _audit_creation_date              2014-09-24
  _audit_creation_method            'ToBaCCo'
  _symmetry_space_group_name_H-M    'P1'
  _symmetry_Int_Tables_number       1
  _symmetry_cell_setting            triclinic
  loop_
  _symmetry_equiv_pos_as_xyz
 x,y,z
_cell_length_a 55.5609
_cell_length_b 61.3326
_cell_length_c 60.1100
_cell_angle_alpha 90.028600
_cell_angle_beta 90.044400
_cell_angle_gamma 90.004600
loop_
  _atom_site_label
  _atom_site_type_symbol
  _atom_site_fract_x
  _atom_site_fract_y
  _atom_site_fract_z
C1 C 0.31189 0.31475 -0.02038
 C2 C 0.31238 0.31327 0.00225
 C3 C 0.29844 0.32841 0.01672
 C4 C 0.32788 0.29715 0.01387
 C5 C 0.32609 0.29981 -0.03483
 C6 C 0.29871 0.33251 -0.03184
 C7 C 0.31038 0.33973 0.03375
 C8 C 0.29774 0.35374 0.04780
 C9 C 0.27282 0.35674 0.04521
 C10 C 0.26082 0.34542 0.02812
 C11 C 0.27349 0.33124 0.01411
 C12 C 0.35279 0.29641 0.01001
 C13 C 0.36715 0.28128 0.02120
 C14 C 0.35694 0.26697 0.03681
 C15 C 0.33210 0.26805 0.04098
 C16 C 0.31770 0.28301 0.02960
 C17 C 0.32384 0.27712 -0.03333
 C18 C 0.33838 0.26342 -0.04622
 C19 C 0.35562 0.27196 -0.06136
 C20 C 0.35700 0.29504 -0.06294
 C21 C 0.34249 0.30858 -0.04999
 C22 C 0.28080 0.32740 -0.04742
 C23 C 0.26887 0.34398 -0.05893
 C24 C 0.27497 0.36593 -0.05530
 C25 C 0.29300 0.37100 -0.03971
 C26 C 0.30477 0.35442 -0.02807
 H27 H 0.32960 0.33783 0.03607
 H28 H 0.30755 0.36246 0.06059
 H29 H 0.24158 0.34721 0.02590
 H30 H 0.26382 0.32234 0.00136
 H31 H 0.36112 0.30761 -0.00158
 H32 H 0.38633 0.28105 0.01798
 H33 H 0.29856 0.28350 0.03296
 H34 H 0.31081 0.26999 -0.02208
 H35 H 0.33506 0.24615 -0.04466
 H36 H 0.37023 0.30323 -0.07307
 H37 H 0.34470 0.32608 -0.05129
 H38 H 0.27609 0.31056 -0.05067
 H39 H 0.25528 0.33961 -0.07106
 H40 H 0.29795 0.38779 -0.03652
 H41 H 0.31882 0.35863 -0.01633
 H42 H 0.32377 0.25713 0.05286
 C43 C 0.69097 0.68737 -0.00912
 C44 C 0.68913 0.68668 0.01349
 C45 C 0.70250 0.67038 0.02708
 C46 C 0.67277 0.70160 0.02573
 C47 C 0.67854 0.70439 -0.02255
 C48 C 0.70377 0.67011 -0.02168
 C49 C 0.69003 0.65777 0.04276
 C50 C 0.70224 0.64265 0.05594
 C51 C 0.72724 0.63984 0.05379
 C52 C 0.73975 0.65247 0.03807
 C53 C 0.72752 0.66772 0.02495
 C54 C 0.64824 0.70283 0.02022
 C55 C 0.63309 0.71720 0.03153
 C56 C 0.64207 0.73023 0.04888
 C57 C 0.66645 0.72847 0.05484
 C58 C 0.68167 0.71426 0.04335
 C59 C 0.68167 0.72668 -0.01800
 C60 C 0.66842 0.74234 -0.02968
 C61 C 0.65203 0.73602 -0.04633
 C62 C 0.64964 0.71374 -0.05138
 C63 C 0.66279 0.69811 -0.03965
 C64 C 0.72216 0.67573 -0.03658
 C65 C 0.73363 0.65963 -0.04914
 C66 C 0.72661 0.63769 -0.04725
 C67 C 0.70817 0.63213 -0.03231
 C68 C 0.69682 0.64821 -0.01966
 H69 H 0.67075 0.65951 0.04469
 H70 H 0.69206 0.63297 0.06769
 H71 H 0.75906 0.65087 0.03626
 H72 H 0.73759 0.67759 0.01328
 H73 H 0.64087 0.69272 0.00711
 H74 H 0.61426 0.71794 0.02690
 H75 H 0.70049 0.71336 0.04798
 H76 H 0.69407 0.73190 -0.00515
 H77 H 0.67095 0.75940 -0.02565
 H78 H 0.63698 0.70830 -0.06391
 H79 H 0.66008 0.68102 -0.04345
 H80 H 0.72755 0.69259 -0.03849
 H81 H 0.74756 0.66439 -0.06075
 H82 H 0.70252 0.61533 -0.03042
 H83 H 0.68238 0.64362 -0.00850
 H84 H 0.67382 0.73840 0.06809
 C85 C 0.69131 0.30772 1.01412
 C86 C 0.69282 0.30825 0.99150
 C87 C 0.70578 0.32586 0.97957
 C88 C 0.67981 0.29217 0.97745
 C89 C 0.67503 0.29215 1.02555
 C90 C 0.70447 0.32342 1.02852
 C91 C 0.69910 0.34776 0.98235
 C92 C 0.71027 0.36409 0.96986
 C93 C 0.72831 0.35878 0.95438
 C94 C 0.73513 0.33685 0.95184
 C95 C 0.72381 0.32053 0.96420
 C96 C 0.66360 0.29955 0.96122
 C97 C 0.65006 0.28471 0.94884
 C98 C 0.65250 0.26218 0.95242
 C99 C 0.66929 0.25478 0.96821
 C100 C 0.68297 0.26965 0.98050
 C101 C 0.68448 0.27671 1.04035
 C102 C 0.66921 0.26210 1.05127
 C103 C 0.64420 0.26303 1.04787
 C104 C 0.63477 0.27871 1.03321
 C105 C 0.65007 0.29313 1.02212
 C106 C 0.72923 0.32710 1.02601
 C107 C 0.74115 0.34220 1.03955
 C108 C 0.72871 0.35370 1.05639
 C109 C 0.70386 0.34947 1.05896
 C110 C 0.69200 0.33462 1.04523
 H111 H 0.68493 0.35214 0.99389
 H112 H 0.70477 0.38086 0.97224
 H113 H 0.74874 0.33228 0.93983
 H114 H 0.72899 0.30368 0.96168
 H115 H 0.66090 0.31685 0.95860
 H116 H 0.63709 0.29090 0.93696
 H117 H 0.69576 0.26362 0.99262
 H118 H 0.70369 0.27589 1.04331
 H119 H 0.67688 0.25034 1.06267
 H120 H 0.61558 0.27967 1.03021
 H121 H 0.64247 0.30514 1.01093
 H122 H 0.73941 0.31817 1.01364
 H123 H 0.76035 0.34403 1.03726
 H124 H 0.69302 0.35829 1.07087
 H125 H 0.67284 0.33217 1.04742
 H126 H 0.67180 0.23749 0.97106
 C127 C 0.31247 0.68822 1.01649
 C128 C 0.31316 0.68948 0.99390
 C129 C 0.29920 0.67438 0.97944
 C130 C 0.32891 0.70554 0.98251
 C131 C 0.32615 0.70371 1.03053
 C132 C 0.29966 0.67046 1.02820
 C133 C 0.31098 0.66314 0.96228
 C134 C 0.29823 0.64909 0.94833
 C135 C 0.27335 0.64600 0.95117
 C136 C 0.26151 0.65728 0.96834
 C137 C 0.27429 0.67148 0.98225
 C138 C 0.35392 0.70516 0.98579
 C139 C 0.36868 0.72025 0.97506
 C140 C 0.35877 0.73566 0.96041
 C141 C 0.33380 0.73564 0.95664
 C142 C 0.31898 0.72070 0.96764
 C143 C 0.31861 0.72537 1.03288
 C144 C 0.33249 0.74020 1.04508
 C145 C 0.35470 0.73384 1.05457
 C146 C 0.36183 0.71184 1.05226
 C147 C 0.34749 0.69692 1.04077
 C148 C 0.28102 0.67537 1.04300
 C149 C 0.26903 0.65873 1.05434
 C150 C 0.27579 0.63667 1.05158
 C151 C 0.29478 0.63202 1.03664
 C152 C 0.30646 0.64870 1.02508
 H153 H 0.33017 0.66511 0.95981
 H154 H 0.30791 0.64041 0.93545
 H155 H 0.24230 0.65545 0.97073
 H156 H 0.26471 0.68035 0.99506
 H157 H 0.36204 0.69303 0.99649
 H158 H 0.38792 0.71961 0.97787
 H159 H 0.29975 0.72102 0.96467
 H160 H 0.30214 0.73083 1.02499
 H161 H 0.32636 0.75693 1.04591
 H162 H 0.37817 0.70583 1.05991
 H163 H 0.35343 0.68017 1.03922
 H164 H 0.27572 0.69216 1.04575
 H165 H 0.25524 0.66349 1.06607
 H166 H 0.30027 0.61546 1.03313
 H167 H 0.32091 0.64464 1.01373
 H168 H 0.32575 0.74736 0.94541
 C169 C -0.00973 0.31464 0.31494
 C170 C 0.01481 0.31408 0.31532
 C171 C 0.02778 0.30026 0.33169
 C172 C 0.02991 0.32790 0.30057
 C173 C -0.02358 0.33045 0.30119
 C174 C -0.02393 0.29962 0.32917
 C175 C 0.02540 0.30421 0.35458
 C176 C 0.03772 0.29130 0.36996
 C177 C 0.05257 0.27416 0.36273
 C178 C 0.05488 0.27021 0.33979
 C179 C 0.04275 0.28331 0.32438
 C180 C 0.04843 0.34051 0.30987
 C181 C 0.06251 0.35399 0.29649
 C182 C 0.05840 0.35515 0.27346
 C183 C 0.04008 0.34229 0.26404
 C184 C 0.02611 0.32860 0.27745
 C185 C -0.04295 0.32308 0.28829
 C186 C -0.05666 0.33768 0.27575
 C187 C -0.05133 0.36022 0.27562
 C188 C -0.03175 0.36745 0.28874
 C189 C -0.01836 0.35282 0.30158
 C190 C -0.02161 0.27700 0.32694
 C191 C -0.03370 0.26297 0.34141
 C192 C -0.04855 0.27118 0.35861
 C193 C -0.05133 0.29409 0.36007
 C194 C -0.03924 0.30804 0.34550
 H195 H 0.01407 0.31737 0.36048
 H196 H 0.03551 0.29461 0.38754
 H197 H 0.06642 0.25725 0.33379
 H198 H 0.04486 0.28014 0.30676
 H199 H 0.05172 0.34024 0.32764
 H200 H 0.07630 0.36389 0.30424
 H201 H 0.01226 0.31866 0.26984
 H202 H -0.04736 0.30588 0.28774
 H203 H -0.07082 0.33093 0.26550
 H204 H -0.02733 0.38457 0.29010
 H205 H -0.00407 0.35905 0.31206
 H206 H -0.01025 0.27021 0.31404
 H207 H -0.03168 0.24568 0.33851
 H208 H -0.06173 0.30164 0.37315
 H209 H -0.04116 0.32551 0.34749
 H210 H 0.03675 0.34267 0.24629
 C211 C -0.01975 0.68311 0.68411
 C212 C 0.00465 0.68536 0.68465
 C213 C 0.01720 0.70034 0.66913
 C214 C 0.02023 0.67240 0.69977
 C215 C -0.03286 0.66702 0.69809
 C216 C -0.03468 0.69639 0.66874
 C217 C 0.01627 0.69688 0.64606
 C218 C 0.02825 0.71101 0.63159
 C219 C 0.04130 0.72886 0.63995
 C220 C 0.04228 0.73221 0.66307
 C221 C 0.03049 0.71794 0.67754
 C222 C 0.03973 0.66082 0.69082
 C223 C 0.05441 0.64815 0.70448
 C224 C 0.04993 0.64678 0.72742
 C225 C 0.03061 0.65861 0.73650
 C226 C 0.01602 0.67151 0.72281
 C227 C -0.05273 0.67389 0.71057
 C228 C -0.06597 0.65904 0.72317
 C229 C -0.05971 0.63671 0.72373
 C230 C -0.03955 0.62998 0.71112
 C231 C -0.02656 0.64488 0.69824
 C232 C -0.03453 0.71919 0.66979
 C233 C -0.04797 0.73147 0.65465
 C234 C -0.06215 0.72124 0.63808
 C235 C -0.06252 0.69817 0.63769
 C236 C -0.04904 0.68600 0.65284
 H237 H 0.00630 0.68321 0.63932
 H238 H 0.02710 0.70813 0.61385
 H239 H 0.05246 0.74568 0.66995
 H240 H 0.03152 0.72072 0.69531
 H241 H 0.04334 0.66125 0.67312
 H242 H 0.06897 0.63900 0.69699
 H243 H 0.00139 0.68069 0.73014
 H244 H -0.05792 0.69092 0.71070
 H245 H -0.08058 0.66546 0.73308
 H246 H -0.03433 0.61302 0.71015
 H247 H -0.01177 0.63905 0.68814
 H248 H -0.02397 0.72749 0.68235
 H249 H -0.04768 0.74898 0.65663
 H250 H -0.07220 0.68919 0.62506
 H251 H -0.04930 0.66836 0.65176
 H252 H 0.02695 0.65803 0.75418
 C253 C 1.01622 0.67772 0.31765
 C254 C 0.99184 0.67903 0.31509
 C255 C 0.97693 0.69475 0.32807
 C256 C 0.97852 0.66388 0.30021
 C257 C 1.03121 0.66278 0.30390
 C258 C 1.02908 0.69078 0.33476
 C259 C 0.95708 0.68705 0.34018
 C260 C 0.94331 0.70128 0.35307
 C261 C 0.94908 0.72356 0.35419
 C262 C 0.96872 0.73138 0.34181
 C263 C 0.98235 0.71715 0.32864
 C264 C 0.98108 0.64119 0.30235
 C265 C 0.96771 0.62711 0.28890
 C266 C 0.95114 0.63546 0.27343
 C267 C 0.94845 0.65814 0.27144
 C268 C 0.96203 0.67222 0.28471
 C269 C 1.03042 0.66336 0.28060
 C270 C 1.04435 0.64893 0.26797
 C271 C 1.05973 0.63354 0.27829
 C272 C 1.06048 0.63343 0.30184
 C273 C 1.04655 0.64786 0.31435
 C274 C 1.04864 0.70383 0.32860
 C275 C 1.06005 0.71712 0.34425
 C276 C 1.05203 0.71786 0.36656
 C277 C 1.03287 0.70395 0.37270
 C278 C 1.02182 0.69040 0.35708
 H279 H 0.95252 0.66988 0.34000
 H280 H 0.92843 0.69475 0.36260
 H281 H 0.97338 0.74852 0.34215
 H282 H 0.99727 0.72355 0.31909
 H283 H 0.99315 0.63438 0.31467
 H284 H 0.96980 0.60968 0.29102
 H285 H 0.95963 0.68966 0.28296
 H286 H 1.01908 0.67512 0.27217
 H287 H 1.04353 0.65062 0.25009
 H288 H 1.07097 0.62161 0.31099
 H289 H 1.04732 0.64703 0.33234
 H290 H 1.05462 0.70423 0.31146
 H291 H 1.07424 0.72770 0.33834
 H292 H 1.02670 0.70291 0.38973
 H293 H 1.00733 0.67979 0.36237
 H294 H 0.93588 0.66498 0.25956
 C295 C 1.01444 0.32263 0.68220
 C296 C 0.99009 0.32047 0.68404
 C297 C 0.97649 0.30364 0.67133
 C298 C 0.97563 0.33593 0.69745
 C299 C 1.02831 0.33843 0.69601
 C300 C 1.02831 0.30971 0.66569
 C301 C 0.95742 0.31000 0.65745
 C302 C 0.94563 0.29470 0.64412
 C303 C 0.95256 0.27265 0.64446
 C304 C 0.97115 0.26618 0.65891
 C305 C 0.98289 0.28150 0.67234
 C306 C 0.97611 0.35833 0.69272
 C307 C 0.96186 0.37277 0.70491
 C308 C 0.94692 0.36504 0.72203
 C309 C 0.94651 0.34261 0.72674
 C310 C 0.96060 0.32814 0.71439
 C311 C 1.02589 0.33898 0.71928
 C312 C 1.03924 0.35380 0.73199
 C313 C 1.05556 0.36811 0.72169
 C314 C 1.05810 0.36738 0.69844
 C315 C 1.04464 0.35270 0.68576
 C316 C 1.04810 0.29729 0.67254
 C317 C 1.06050 0.28424 0.65733
 C318 C 1.05327 0.28317 0.63479
 C319 C 1.03387 0.29650 0.62798
 C320 C 1.02180 0.30975 0.64317
 H321 H 0.95218 0.32698 0.65639
 H322 H 0.93159 0.30029 0.63300
 H323 H 0.97663 0.24926 0.65982
 H324 H 0.99726 0.27617 0.68323
 H325 H 0.98736 0.36457 0.67947
 H326 H 0.96260 0.39000 0.70105
 H327 H 0.95987 0.31087 0.71808
 H328 H 1.01383 0.32778 0.72763
 H329 H 1.03717 0.35378 0.74990
 H330 H 1.07032 0.37836 0.69001
 H331 H 1.04683 0.35258 0.66786
 H332 H 1.05351 0.29719 0.68986
 H333 H 1.07485 0.27412 0.66373
 H334 H 1.02828 0.29734 0.61077
 H335 H 1.00713 0.31991 0.63737
 H336 H 0.93494 0.33624 0.73969
 C337 C 0.30469 -0.01215 0.31139
 C338 C 0.30415 0.01006 0.31189
 C339 C 0.31775 0.02319 0.29532
 C340 C 0.29114 0.02229 0.32950
 C341 C 0.29003 -0.02589 0.32661
 C342 C 0.32140 -0.02380 0.29633
 C343 C 0.33463 0.03866 0.30254
 C344 C 0.34829 0.05037 0.28713
 C345 C 0.34525 0.04688 0.26417
 C346 C 0.32787 0.03178 0.25697
 C347 C 0.31414 0.02015 0.27240
 C348 C 0.29486 0.01758 0.35211
 C349 C 0.28266 0.02930 0.36851
 C350 C 0.26696 0.04630 0.36261
 C351 C 0.26371 0.05136 0.34002
 C352 C 0.27569 0.03945 0.32361
 C353 C 0.26509 -0.02276 0.32885
 C354 C 0.25171 -0.03582 0.34339
 C355 C 0.26298 -0.05244 0.35571
 C356 C 0.28788 -0.05565 0.35320
 C357 C 0.30121 -0.04257 0.33879
 C358 C 0.31242 -0.03720 0.27944
 C359 C 0.32816 -0.04810 0.26513
 C360 C 0.35337 -0.04630 0.26780
 C361 C 0.36210 -0.03292 0.28518
 C362 C 0.34630 -0.02174 0.29914
 H363 H 0.33765 0.04127 0.32015
 H364 H 0.36169 0.06173 0.29320
 H365 H 0.32485 0.02902 0.23940
 H366 H 0.30081 0.00864 0.26648
 H367 H 0.30730 0.00488 0.35707
 H368 H 0.28578 0.02534 0.38582
 H369 H 0.27277 0.04350 0.30628
 H370 H 0.25599 -0.01027 0.31930
 H371 H 0.23251 -0.03315 0.34477
 H372 H 0.29715 -0.06809 0.36269
 H373 H 0.32042 -0.04528 0.33740
 H374 H 0.29318 -0.03911 0.27725
 H375 H 0.32035 -0.05866 0.25266
 H376 H 0.38116 -0.03025 0.28762
 H377 H 0.35348 -0.01143 0.31220
 H378 H 0.25162 0.06432 0.33505
 C379 C 0.69298 -0.01404 0.68667
 C380 C 0.69537 0.00807 0.68784
 C381 C 0.68254 0.02129 0.70491
 C382 C 0.70923 0.02040 0.67093
 C383 C 0.70675 -0.02733 0.67029
 C384 C 0.67578 -0.02600 0.70118
 C385 C 0.66787 0.03869 0.69813
 C386 C 0.65443 0.05041 0.71367
 C387 C 0.65539 0.04504 0.73638
 C388 C 0.67060 0.02800 0.74327
 C389 C 0.68422 0.01636 0.72770
 C390 C 0.70292 0.01924 0.64835
 C391 C 0.71499 0.03199 0.63267
 C392 C 0.73357 0.04611 0.63932
 C393 C 0.74002 0.04706 0.66192
 C394 C 0.72779 0.03444 0.67761
 C395 C 0.73191 -0.02569 0.66857
 C396 C 0.74452 -0.03855 0.65326
 C397 C 0.73223 -0.05351 0.63962
 C398 C 0.70708 -0.05515 0.64148
 C399 C 0.69450 -0.04224 0.65666
 C400 C 0.68366 -0.04389 0.71368
 C401 C 0.66782 -0.05494 0.72776
 C402 C 0.64357 -0.04826 0.72986
 C403 C 0.63573 -0.03055 0.71668
 C404 C 0.65152 -0.01983 0.70233
 H405 H 0.66626 0.04280 0.68067
 H406 H 0.64267 0.06326 0.70778
 H407 H 0.67195 0.02369 0.76069
 H408 H 0.69576 0.00325 0.73336
 H409 H 0.68836 0.00875 0.64294
 H410 H 0.70978 0.03085 0.61535
 H411 H 0.73269 0.03570 0.69501
 H412 H 0.74181 -0.01463 0.67923
 H413 H 0.76393 -0.03714 0.65241
 H414 H 0.69706 -0.06629 0.63100
 H415 H 0.67511 -0.04377 0.65767
 H416 H 0.70230 -0.04902 0.71290
 H417 H 0.67513 -0.06800 0.73777
 H418 H 0.61714 -0.02532 0.71666
 H419 H 0.64480 -0.00659 0.69216
 H420 H 0.75408 0.05800 0.66751
 C421 C 0.30679 1.00834 0.69195
 C422 C 0.30596 0.98611 0.69171
 C423 C 0.32006 0.97297 0.70794
 C424 C 0.29206 0.97394 0.67462
 C425 C 0.29168 1.02204 0.67699
 C426 C 0.32433 1.02014 0.70616
 C427 C 0.33618 0.95703 0.70030
 C428 C 0.35064 0.94556 0.71531
 C429 C 0.34918 0.94974 0.73828
 C430 C 0.33244 0.96521 0.74593
 C431 C 0.31792 0.97662 0.73092
 C432 C 0.29511 0.97839 0.65187
 C433 C 0.28166 0.96713 0.63596
 C434 C 0.26534 0.95085 0.64246
 C435 C 0.26286 0.94593 0.66517
 C436 C 0.27611 0.95739 0.68111
 C437 C 0.26663 1.01911 0.67545
 C438 C 0.25287 1.03229 0.66128
 C439 C 0.26388 1.04888 0.64877
 C440 C 0.28888 1.05185 0.65050
 C441 C 0.30260 1.03860 0.66443
 C442 C 0.31627 1.03570 0.72154
 C443 C 0.33279 1.04765 0.73415
 C444 C 0.35764 1.04448 0.73126
 C445 C 0.36565 1.02884 0.71586
 C446 C 0.34913 1.01678 0.70342
 H447 H 0.33808 0.95393 0.68265
 H448 H 0.36350 0.93390 0.70887
 H449 H 0.33058 0.96851 0.76354
 H450 H 0.30523 0.98852 0.73719
 H451 H 0.30787 0.99062 0.64644
 H452 H 0.28425 0.97093 0.61853
 H453 H 0.27369 0.95356 0.69855
 H454 H 0.25774 1.00672 0.68528
 H455 H 0.23360 1.02980 0.66042
 H456 H 0.29790 1.06429 0.64082
 H457 H 0.32187 1.04115 0.66526
 H458 H 0.29718 1.03863 0.72368
 H459 H 0.32617 1.05977 0.74573
 H460 H 0.38470 1.02600 0.71343
 H461 H 0.35566 1.00506 0.69136
 H462 H 0.25034 0.93350 0.67060
 C463 C 0.69064 1.01634 0.31164
 C464 C 0.69372 0.99431 0.31063
 C465 C 0.68026 0.98033 0.29461
 C466 C 0.70936 0.98277 0.32680
 C467 C 0.70444 1.03007 0.32758
 C468 C 0.67264 1.02777 0.29759
 C469 C 0.66749 0.96221 0.30260
 C470 C 0.65418 0.94915 0.28812
 C471 C 0.65328 0.95390 0.26528
 C472 C 0.66629 0.97187 0.25716
 C473 C 0.67990 0.98483 0.27168
 C474 C 0.70439 0.98365 0.34966
 C475 C 0.71827 0.97165 0.36467
 C476 C 0.73732 0.95855 0.35706
 C477 C 0.74237 0.95788 0.33416
 C478 C 0.72837 0.96976 0.31914
 C479 C 0.72966 1.03009 0.32779
 C480 C 0.74231 1.04299 0.34303
 C481 C 0.73006 1.05645 0.35848
 C482 C 0.70459 1.05628 0.35787
 C483 C 0.69207 1.04340 0.34260
 C484 C 0.67985 1.04539 0.28431
 C485 C 0.66323 1.05602 0.27066
 C486 C 0.63909 1.04923 0.27010
 C487 C 0.63177 1.03191 0.28383
 C488 C 0.64835 1.02143 0.29763
 H489 H 0.66744 0.95839 0.32019
 H490 H 0.64411 0.93557 0.29490
 H491 H 0.66611 0.97575 0.23959
 H492 H 0.69000 0.99845 0.26505
 H493 H 0.68952 0.99334 0.35582
 H494 H 0.71409 0.97256 0.38224
 H495 H 0.73224 0.96873 0.30151
 H496 H 0.73957 1.02023 0.31598
 H497 H 0.76171 1.04289 0.34189
 H498 H 0.69391 1.06532 0.36971
 H499 H 0.67257 1.04348 0.34283
 H500 H 0.69847 1.05064 0.28422
 H501 H 0.66937 1.06925 0.26017
 H502 H 0.61318 1.02662 0.28401
 H503 H 0.64229 1.00826 0.30823
 H504 H 0.75674 0.94769 0.32782
 O505 O 0.87032 0.83192 0.47355
 O506 O 0.83941 0.86362 0.51755
 O507 O 0.86824 0.83005 0.51690
 O508 O 0.84208 0.86596 0.47427
 O509 O 0.81048 0.84430 0.47185
 O510 O 0.83674 0.80830 0.51437
 O511 O 0.80811 0.84166 0.51481
 O512 O 0.83868 0.81034 0.47116
 Cu513 Cu 0.85819 0.85007 0.49580
 Cu514 Cu 0.82039 0.82396 0.49274
 C515 C 0.85970 0.81563 0.46487
 C516 C 0.81840 0.85798 0.52368
 C517 C 0.85695 0.81306 0.52299
 C518 C 0.82172 0.86136 0.46587
 O519 O 0.15820 0.13257 0.52635
 O520 O 0.12985 0.16390 0.48068
 O521 O 0.15925 0.13069 0.48308
 O522 O 0.12803 0.16514 0.52376
 O523 O 0.15893 0.18774 0.52439
 O524 O 0.18966 0.15381 0.48250
 O525 O 0.16032 0.18696 0.48137
 O526 O 0.18895 0.15530 0.52581
 Cu527 Cu 0.14079 0.14574 0.50345
 Cu528 Cu 0.17758 0.17318 0.50350
 C529 C 0.17855 0.13864 0.53383
 C530 C 0.14013 0.18106 0.47352
 C531 C 0.17974 0.13633 0.47577
 C532 C 0.13803 0.18236 0.53098
 O533 O 0.15379 0.86834 0.47786
 O534 O 0.12187 0.83952 0.52287
 O535 O 0.15351 0.87089 0.52111
 O536 O 0.12233 0.83672 0.47981
 O537 O 0.15221 0.81304 0.48095
 O538 O 0.18245 0.84637 0.52346
 O539 O 0.15084 0.81495 0.52398
 O540 O 0.18344 0.84453 0.48013
 Cu541 Cu 0.13495 0.85633 0.50023
 Cu542 Cu 0.17023 0.82736 0.50234
 C543 C 0.17416 0.86140 0.47136
 C544 C 0.13073 0.82211 0.53088
 C545 C 0.17327 0.86441 0.52945
 C546 C 0.13193 0.81902 0.47334
 O547 O 0.84211 0.13322 0.47953
 O548 O 0.87573 0.16204 0.52375
 O549 O 0.84232 0.13215 0.52283
 O550 O 0.87587 0.16280 0.48037
 O551 O 0.84824 0.18861 0.48102
 O552 O 0.81434 0.15766 0.52308
 O553 O 0.84779 0.18757 0.52437
 O554 O 0.81471 0.15925 0.47994
 Cu555 Cu 0.86181 0.14499 0.50158
 Cu556 Cu 0.82853 0.17587 0.50222
 C557 C 0.82264 0.14138 0.47215
 C558 C 0.86747 0.17976 0.53162
 C559 C 0.82247 0.13955 0.53007
 C560 C 0.86779 0.18092 0.47338
 O561 O 0.52703 0.84961 0.88011
 O562 O 0.47790 0.87824 0.85102
 O563 O 0.48029 0.84869 0.88211
 O564 O 0.52454 0.87926 0.84894
 O565 O 0.52450 0.85308 0.82376
 O566 O 0.47904 0.82321 0.85622
 O567 O 0.47773 0.85275 0.82512
 O568 O 0.52589 0.82350 0.85489
 Cu569 Cu 0.50254 0.86653 0.86812
 Cu570 Cu 0.50174 0.83554 0.83745
 C571 C 0.53470 0.83152 0.87261
 C572 C 0.46956 0.87051 0.83297
 C573 C 0.47203 0.83075 0.87481
 C574 C 0.53203 0.87144 0.83064
 O575 O 0.51909 0.15077 0.12173
 O576 O 0.46979 0.12150 0.14986
 O577 O 0.47246 0.15131 0.11889
 O578 O 0.51644 0.12088 0.15247
 O579 O 0.51568 0.14684 0.17787
 O580 O 0.47047 0.17658 0.14496
 O581 O 0.46897 0.14683 0.17591
 O582 O 0.51706 0.17676 0.14705
 Cu583 Cu 0.49456 0.13353 0.13316
 Cu584 Cu 0.49291 0.16431 0.16404
 C585 C 0.52627 0.16894 0.12943
 C586 C 0.46117 0.12902 0.16787
 C587 C 0.46401 0.16920 0.12613
 C588 C 0.52360 0.12864 0.17091
 O589 O 0.47845 0.15768 0.86956
 O590 O 0.52593 0.12376 0.84374
 O591 O 0.52512 0.15467 0.87348
 O592 O 0.47926 0.12624 0.84014
 O593 O 0.48404 0.15026 0.81320
 O594 O 0.52893 0.17935 0.84703
 O595 O 0.53037 0.14849 0.81744
 O596 O 0.48239 0.18158 0.84241
 Cu597 Cu 0.50173 0.13815 0.85943
 Cu598 Cu 0.50682 0.16739 0.82739
 C599 C 0.47228 0.17545 0.86029
 C600 C 0.53628 0.13041 0.82614
 C601 C 0.53486 0.17190 0.86597
 C602 C 0.47403 0.13322 0.82084
 O603 O 0.47791 0.84719 0.12682
 O604 O 0.52567 0.87670 0.15733
 O605 O 0.52437 0.84653 0.12665
 O606 O 0.47853 0.87778 0.15708
 O607 O 0.47910 0.85332 0.18400
 O608 O 0.52296 0.82085 0.15230
 O609 O 0.52565 0.85088 0.18285
 O610 O 0.47609 0.82301 0.15400
 Cu611 Cu 0.50169 0.86466 0.13939
 Cu612 Cu 0.50093 0.83448 0.17090
 C613 C 0.46880 0.83013 0.13535
 C614 C 0.53396 0.86867 0.17527
 C615 C 0.53119 0.82816 0.13404
 C616 C 0.47112 0.87099 0.17582
 O617 O 0.82946 0.47704 0.86376
 O618 O 0.86019 0.51919 0.83061
 O619 O 0.82944 0.51951 0.86348
 O620 O 0.85984 0.47685 0.83074
 O621 O 0.82989 0.47727 0.80662
 O622 O 0.79911 0.51909 0.83977
 O623 O 0.82967 0.51962 0.80710
 O624 O 0.79943 0.47691 0.83973
 Cu625 Cu 0.84776 0.49815 0.84956
 Cu626 Cu 0.81152 0.49818 0.82089
 C627 C 0.80912 0.46984 0.85746
 C628 C 0.85017 0.52662 0.81318
 C629 C 0.80894 0.52645 0.85730
 C630 C 0.85016 0.46996 0.81292
 O631 O 0.16923 0.47505 0.13484
 O632 O 0.13929 0.51753 0.16859
 O633 O 0.16998 0.51762 0.13559
 O634 O 0.13874 0.47493 0.16782
 O635 O 0.16873 0.47467 0.19188
 O636 O 0.20044 0.51621 0.15912
 O637 O 0.16986 0.51713 0.19201
 O638 O 0.19902 0.47406 0.15909
 Cu639 Cu 0.15126 0.49640 0.14932
 Cu640 Cu 0.18748 0.49549 0.17794
 C641 C 0.18925 0.46724 0.14129
 C642 C 0.14953 0.52462 0.18607
 C643 C 0.19073 0.52397 0.14172
 C644 C 0.14846 0.46750 0.18540
 O645 O 0.83265 0.51840 0.13685
 O646 O 0.86499 0.47647 0.16927
 O647 O 0.83283 0.47572 0.13757
 O648 O 0.86492 0.51876 0.16844
 O649 O 0.83594 0.51908 0.19352
 O650 O 0.80380 0.47642 0.16257
 O651 O 0.83576 0.47661 0.19410
 O652 O 0.80388 0.51872 0.16211
 Cu653 Cu 0.85172 0.49729 0.15046
 Cu654 Cu 0.81696 0.49774 0.18059
 C655 C 0.81274 0.52580 0.14403
 C656 C 0.85585 0.46939 0.18725
 C657 C 0.81279 0.46871 0.14482
 C658 C 0.85592 0.52622 0.18631
 O659 O 0.16721 0.52831 0.86322
 O660 O 0.13627 0.48595 0.83002
 O661 O 0.16794 0.48580 0.86219
 O662 O 0.13536 0.52856 0.83132
 O663 O 0.16465 0.52949 0.80659
 O664 O 0.19729 0.48716 0.83754
 O665 O 0.16569 0.48712 0.80544
 O666 O 0.19629 0.52936 0.83829
 Cu667 Cu 0.14873 0.50701 0.84916
 Cu668 Cu 0.18387 0.50834 0.81947
 C669 C 0.18709 0.53607 0.85637
 C670 C 0.14574 0.47933 0.81199
 C671 C 0.18831 0.47932 0.85523
 C672 C 0.14451 0.53638 0.81368
 C673 C 0.23657 0.40127 0.08872
 C674 C 0.25342 0.38647 0.09743
 C675 C 0.26492 0.37179 0.08328
 C676 C 0.25960 0.37155 0.06047
 C677 C 0.24199 0.38601 0.05252
 N678 N 0.23117 0.40036 0.06662
 C679 C 0.22465 0.41792 0.10285
 N680 N 0.20335 0.42671 0.09609
 C681 C 0.19164 0.44231 0.10804
 C682 C 0.20148 0.45011 0.12806
 C683 C 0.22352 0.44142 0.13521
 C684 C 0.23516 0.42545 0.12269
 H685 H 0.27791 0.36052 0.09022
 H686 H 0.23734 0.38636 0.03504
 H687 H 0.17474 0.44864 0.10183
 H688 H 0.23193 0.44707 0.15041
 H689 H 0.25763 0.38598 0.11499
 H690 H 0.25244 0.41956 0.12837
 C691 C 0.76305 0.59260 0.09456
 C692 C 0.74562 0.60642 0.10397
 C693 C 0.73415 0.62189 0.09071
 C694 C 0.74007 0.62391 0.06812
 C695 C 0.75810 0.61028 0.05949
 N696 N 0.76892 0.59516 0.07271
 C697 C 0.77534 0.57544 0.10775
 N698 N 0.79693 0.56758 0.10060
 C699 C 0.80917 0.55177 0.11177
 C700 C 0.79967 0.54283 0.13140
 C701 C 0.77730 0.55049 0.13889
 C702 C 0.76507 0.56664 0.12712
 H703 H 0.72079 0.63245 0.09818
 H704 H 0.76321 0.61128 0.04215
 H705 H 0.82630 0.54627 0.10532
 H706 H 0.76913 0.54392 0.15380
 H707 H 0.74100 0.60561 0.12142
 H708 H 0.74759 0.57175 0.13305
 C709 C 0.76039 0.40707 0.91249
 C710 C 0.73546 0.40754 0.91635
 C711 C 0.72505 0.39197 0.93025
 C712 C 0.73935 0.37591 0.94031
 C713 C 0.76424 0.37619 0.93629
 N714 N 0.77400 0.39160 0.92277
 C715 C 0.77234 0.42314 0.89786
 N716 N 0.79577 0.42841 0.90176
 C717 C 0.80789 0.44311 0.88906
 C718 C 0.79643 0.45334 0.87104
 C719 C 0.77242 0.44782 0.86646
 C720 C 0.76033 0.43278 0.87980
 H721 H 0.70577 0.39228 0.93285
 H722 H 0.77593 0.36425 0.94398
 H723 H 0.82644 0.44677 0.89309
 H724 H 0.76291 0.45522 0.85267
 H725 H 0.72410 0.41991 0.90897
 H726 H 0.74193 0.42856 0.87575
 C727 C 0.23628 0.60147 0.90821
 C728 C 0.25311 0.61614 0.89925
 C729 C 0.26495 0.63078 0.91323
 C730 C 0.25997 0.63111 0.93610
 C731 C 0.24242 0.61672 0.94430
 N732 N 0.23126 0.60243 0.93037
 C733 C 0.22390 0.58495 0.89426
 N734 N 0.20266 0.57633 0.90139
 C735 C 0.19052 0.56086 0.88963
 C736 C 0.19982 0.55303 0.86943
 C737 C 0.22179 0.56153 0.86190
 C738 C 0.23389 0.57736 0.87423
 H739 H 0.27789 0.64199 0.90612
 H740 H 0.23804 0.61643 0.96184
 H741 H 0.17370 0.55468 0.89613
 H742 H 0.22979 0.55584 0.84654
 H743 H 0.25704 0.61659 0.88165
 H744 H 0.25110 0.58311 0.86826
 C745 C 0.09161 0.23542 0.40964
 C746 C 0.09112 0.25820 0.41201
 C747 C 0.07830 0.27079 0.39676
 C748 C 0.06603 0.26081 0.37909
 C749 C 0.06682 0.23798 0.37736
 N750 N 0.07928 0.22601 0.39257
 C751 C 0.10487 0.22148 0.42555
 N752 N 0.09643 0.20115 0.43030
 C753 C 0.10748 0.18781 0.44526
 C754 C 0.12840 0.19471 0.45633
 C755 C 0.13771 0.21538 0.45120
 C756 C 0.12603 0.22877 0.43591
 H757 H 0.07817 0.28835 0.39864
 H758 H 0.05732 0.22967 0.36412
 H759 H 0.09980 0.17192 0.44858
 H760 H 0.15387 0.22137 0.45923
 H761 H 0.10019 0.26624 0.42568
 H762 H 0.13365 0.24458 0.43212
 C763 C 0.07829 0.77164 0.59535
 C764 C 0.06491 0.78047 0.61301
 C765 C 0.05287 0.76653 0.62761
 C766 C 0.05402 0.74386 0.62461
 C767 C 0.06766 0.73571 0.60682
 N768 N 0.07939 0.74959 0.59294
 C769 C 0.09166 0.78553 0.57947
 N770 N 0.11141 0.77714 0.56918
 C771 C 0.12435 0.78863 0.55402
 C772 C 0.11736 0.80985 0.54809
 C773 C 0.09697 0.81881 0.55841
 C774 C 0.08412 0.80675 0.57412
 H775 H 0.04250 0.77345 0.64113
 H776 H 0.06928 0.71833 0.60413
 H777 H 0.13984 0.78102 0.54636
 H778 H 0.09087 0.83507 0.55423
 H779 H 0.06405 0.79787 0.61583
 H780 H 0.06816 0.81381 0.58149
 C781 C 0.90797 0.76416 0.39800
 C782 C 0.89612 0.74965 0.38354
 C783 C 0.90952 0.73673 0.36902
 C784 C 0.93468 0.73835 0.36851
 C785 C 0.94581 0.75368 0.38250
 N786 N 0.93239 0.76591 0.39677
 C787 C 0.89475 0.77737 0.41474
 N788 N 0.90559 0.79528 0.42371
 C789 C 0.89481 0.80783 0.43953
 C790 C 0.87175 0.80250 0.44740
 C791 C 0.86034 0.78405 0.43848
 C792 C 0.87174 0.77144 0.42232
 H793 H 0.90019 0.72548 0.35813
 H794 H 0.96519 0.75544 0.38262
 H795 H 0.90433 0.82186 0.44600
 H796 H 0.84266 0.77915 0.44418
 H797 H 0.87674 0.74824 0.38322
 H798 H 0.86269 0.75697 0.41638
 C799 C 0.91876 0.22857 0.59865
 C800 C 0.94361 0.22682 0.60276
 C801 C 0.95454 0.24086 0.61806
 C802 C 0.94089 0.25672 0.62923
 C803 C 0.91610 0.25775 0.62482
 N804 N 0.90589 0.24396 0.60983
 C805 C 0.90616 0.21506 0.58176
 N806 N 0.88457 0.22217 0.57385
 C807 C 0.87192 0.21113 0.55810
 C808 C 0.88088 0.19157 0.54924
 C809 C 0.90291 0.18369 0.55738
 C810 C 0.91556 0.19530 0.57364
 H811 H 0.97380 0.23977 0.62059
 H812 H 0.90482 0.26954 0.63321
 H813 H 0.85494 0.21778 0.55245
 H814 H 0.91040 0.16857 0.55117
 H815 H 0.95477 0.21534 0.59385
 H816 H 0.93228 0.18865 0.57981
 C817 C 0.39127 0.08049 0.21842
 C818 C 0.38566 0.05841 0.21476
 C819 C 0.37031 0.04758 0.22945
 C820 C 0.36062 0.05855 0.24787
 C821 C 0.36653 0.08060 0.25086
 N822 N 0.38151 0.09079 0.23635
 C823 C 0.40841 0.09276 0.20422
 N824 N 0.41775 0.11173 0.21224
 C825 C 0.43412 0.12374 0.20079
 C826 C 0.44227 0.11674 0.17988
 C827 C 0.43254 0.09749 0.17100
 C828 C 0.41556 0.08553 0.18301
 H829 H 0.36660 0.03045 0.22676
 H830 H 0.35927 0.08974 0.26472
 H831 H 0.44101 0.13854 0.20824
 H832 H 0.43813 0.09161 0.15482
 H833 H 0.39346 0.04924 0.20122
 H834 H 0.40821 0.07095 0.17556
 C835 C 0.60794 0.07915 0.78053
 C836 C 0.61146 0.05659 0.78328
 C837 C 0.62747 0.04555 0.76932
 C838 C 0.63992 0.05682 0.75257
 C839 C 0.63628 0.07938 0.75071
 N840 N 0.62056 0.08974 0.76440
 C841 C 0.58998 0.09179 0.79351
 N842 N 0.58323 0.11167 0.78562
 C843 C 0.56648 0.12426 0.79588
 C844 C 0.55520 0.11701 0.81541
 C845 C 0.56211 0.09673 0.82415
 C846 C 0.57951 0.08410 0.81333
 H847 H 0.62945 0.02807 0.77109
 H848 H 0.64573 0.08878 0.73823
 H849 H 0.56186 0.13984 0.78858
 H850 H 0.55402 0.09059 0.83928
 H851 H 0.60147 0.04729 0.79542
 H852 H 0.58464 0.06869 0.82061
 C853 C 0.39797 0.91747 0.78269
 C854 C 0.39254 0.93964 0.78592
 C855 C 0.37635 0.95003 0.77168
 C856 C 0.36561 0.93854 0.75408
 C857 C 0.37148 0.91643 0.75142
 N858 N 0.38729 0.90665 0.76552
 C859 C 0.41575 0.90564 0.79664
 N860 N 0.42541 0.88678 0.78866
 C861 C 0.44222 0.87517 0.80004
 C862 C 0.45046 0.88246 0.82084
 C863 C 0.44044 0.90162 0.82963
 C864 C 0.42306 0.91317 0.81769
 H865 H 0.37277 0.96723 0.77404
 H866 H 0.36348 0.90689 0.73819
 H867 H 0.44933 0.86042 0.79267
 H868 H 0.44606 0.90772 0.84572
 H869 H 0.40110 0.94918 0.79881
 H870 H 0.41543 0.92766 0.82510
 C871 C 0.60708 0.91472 0.22462
 C872 C 0.62296 0.90466 0.23966
 C873 C 0.63840 0.91742 0.25250
 C874 C 0.63842 0.94018 0.25026
 C875 C 0.62317 0.94956 0.23427
 N876 N 0.60798 0.93680 0.22215
 C877 C 0.58900 0.90207 0.21181
 N878 N 0.57951 0.91075 0.19287
 C879 C 0.56224 0.90036 0.18075
 C880 C 0.55329 0.88005 0.18770
 C881 C 0.56276 0.87088 0.20721
 C882 C 0.58046 0.88179 0.21929
 H883 H 0.65031 0.90951 0.26426
 H884 H 0.62266 0.96706 0.23201
 H885 H 0.55538 0.90809 0.16586
 H886 H 0.55628 0.85535 0.21334
 H887 H 0.62359 0.88715 0.24160
 H888 H 0.58676 0.87457 0.23463
 C889 C 0.40216 0.23152 0.90191
 C890 C 0.39853 0.25316 0.89533
 C891 C 0.38283 0.26645 0.90726
 C892 C 0.37047 0.25867 0.92630
 C893 C 0.37471 0.23654 0.93205
 N894 N 0.39024 0.22401 0.92009
 C895 C 0.41936 0.21689 0.89024
 N896 N 0.42815 0.19911 0.90115
 C897 C 0.44460 0.18540 0.89186
 C898 C 0.45339 0.18937 0.87034
 C899 C 0.44415 0.20728 0.85861
 C900 C 0.42708 0.22092 0.86836
 H901 H 0.38002 0.28259 0.90062
 H902 H 0.36698 0.22921 0.94670
 H903 H 0.45111 0.17169 0.90146
 H904 H 0.45011 0.21078 0.84183
 H905 H 0.40790 0.26015 0.88129
 H906 H 0.42004 0.23429 0.85864
 C907 C 0.60565 0.78149 0.92051
 C908 C 0.61066 0.78419 0.94329
 C909 C 0.62624 0.76969 0.95397
 C910 C 0.63678 0.75242 0.94214
 C911 C 0.63154 0.75046 0.91937
 N912 N 0.61627 0.76473 0.90936
 C913 C 0.58816 0.79544 0.90842
 N914 N 0.57849 0.78779 0.88911
 C915 C 0.56182 0.79912 0.87727
 C916 C 0.55374 0.81952 0.88478
 C917 C 0.56381 0.82798 0.90439
 C918 C 0.58104 0.81608 0.91619
 H919 H 0.62936 0.77155 0.97165
 H920 H 0.63946 0.73754 0.90954
 H921 H 0.55469 0.79200 0.86216
 H922 H 0.55830 0.84375 0.91069
 H923 H 0.60212 0.79678 0.95308
 H924 H 0.58869 0.82317 0.93107
 C925 C 0.39967 0.77834 0.08849
 C926 C 0.37471 0.78123 0.08926
 C927 C 0.35976 0.76685 0.07765
 C928 C 0.36957 0.74904 0.06587
 C929 C 0.39487 0.74690 0.06572
 N930 N 0.40900 0.76151 0.07661
 C931 C 0.41609 0.79297 0.10058
 N932 N 0.43530 0.80176 0.08977
 C933 C 0.45178 0.81445 0.10038
 C934 C 0.44989 0.81811 0.12334
 C935 C 0.43030 0.80912 0.13482
 C936 C 0.41312 0.79681 0.12340
 H937 H 0.34050 0.76920 0.07886
 H938 H 0.40362 0.73415 0.05629
 H939 H 0.46682 0.82098 0.09108
 H940 H 0.42836 0.81160 0.15257
 H941 H 0.36689 0.79454 0.09863
 H942 H 0.39817 0.78972 0.13240
 C943 C 0.59664 0.21986 0.08232
 C944 C 0.61757 0.21148 0.07239
 C945 C 0.63319 0.22556 0.06122
 C946 C 0.62793 0.24788 0.05978
 C947 C 0.60691 0.25560 0.07002
 N948 N 0.59211 0.24163 0.08098
 C949 C 0.57950 0.20586 0.09455
 N950 N 0.56614 0.21488 0.11115
 C951 C 0.54952 0.20330 0.12276
 C952 C 0.54518 0.18133 0.11760
 C953 C 0.55865 0.17170 0.10047
 C954 C 0.57588 0.18386 0.08897
 H955 H 0.64925 0.21899 0.05352
 H956 H 0.60240 0.27277 0.06956
 H957 H 0.53941 0.21143 0.13572
 H958 H 0.55578 0.15482 0.09587
 H959 H 0.62209 0.19436 0.07353
 H960 H 0.58569 0.17625 0.07551
 C961 C 0.22543 0.08975 0.60333
 C962 C 0.24214 0.09899 0.61814
 C963 C 0.25425 0.08571 0.63323
 C964 C 0.24961 0.06325 0.63392
 C965 C 0.23193 0.05477 0.61963
 N966 N 0.22056 0.06801 0.60479
 C967 C 0.21343 0.10294 0.58588
 N968 N 0.19203 0.09611 0.57725
 C969 C 0.18041 0.10722 0.56082
 C970 C 0.19050 0.12634 0.55194
 C971 C 0.21263 0.13351 0.56048
 C972 C 0.22414 0.12190 0.57730
 H973 H 0.26730 0.09299 0.64438
 H974 H 0.22777 0.03753 0.61970
 H975 H 0.16344 0.10104 0.55464
 H976 H 0.22124 0.14803 0.55403
 H977 H 0.24590 0.11629 0.61820
 H978 H 0.24152 0.12753 0.58302
 C979 C 0.76805 0.09537 0.40530
 C980 C 0.74442 0.10089 0.39933
 C981 C 0.73204 0.08823 0.38382
 C982 C 0.74279 0.06968 0.37408
 C983 C 0.76662 0.06479 0.38071
 N984 N 0.77825 0.07743 0.39591
 C985 C 0.78200 0.10802 0.42201
 N986 N 0.80149 0.09855 0.43183
 C987 C 0.81492 0.10889 0.44758
 C988 C 0.80887 0.13006 0.45447
 C989 C 0.78915 0.14029 0.44430
 C990 C 0.77582 0.12945 0.42803
 H991 H 0.71426 0.09370 0.37914
 H992 H 0.77586 0.05047 0.37471
 H993 H 0.83008 0.10042 0.45488
 H994 H 0.78403 0.15673 0.44884
 H995 H 0.73519 0.11463 0.40665
 H996 H 0.76109 0.13805 0.42023
 C997 C 0.76899 0.90646 0.59207
 C998 C 0.75071 0.89744 0.60534
 C999 C 0.73897 0.91044 0.62095
 C1000 C 0.74544 0.93239 0.62365
 C1001 C 0.76437 0.94061 0.61064
 N1002 N 0.77544 0.92766 0.59535
 C1003 C 0.78135 0.89355 0.57459
 N1004 N 0.80373 0.89963 0.56770
 C1005 C 0.81596 0.88862 0.55159
 C1006 C 0.80558 0.87034 0.54127
 C1007 C 0.78242 0.86399 0.54793
 C1008 C 0.77026 0.87552 0.56443
 H1009 H 0.72492 0.90327 0.63106
 H1010 H 0.76995 0.95745 0.61219
 H1011 H 0.83372 0.89418 0.54688
 H1012 H 0.77356 0.85014 0.54030
 H1013 H 0.74559 0.88048 0.60396
 H1014 H 0.75220 0.87052 0.56874
 C1015 C 0.22470 0.90797 0.40249
 C1016 C 0.24168 0.89833 0.38824
 C1017 C 0.25384 0.91119 0.37278
 C1018 C 0.24906 0.93360 0.37124
 C1019 C 0.23134 0.94247 0.38522
 N1020 N 0.21985 0.92964 0.40031
 C1021 C 0.21198 0.89528 0.41987
 N1022 N 0.19058 0.90279 0.42782
 C1023 C 0.17813 0.89225 0.44407
 C1024 C 0.18728 0.87300 0.45349
 C1025 C 0.20941 0.86510 0.44569
 C1026 C 0.22181 0.87616 0.42899
 H1027 H 0.26692 0.90356 0.36193
 H1028 H 0.22712 0.95968 0.38461
 H1029 H 0.16119 0.89901 0.44966
 H1030 H 0.21727 0.85042 0.45260
 H1031 H 0.24548 0.88105 0.38877
 H1032 H 0.23913 0.86996 0.42377
 C1033 C 0.09702 0.41403 0.75947
 C1034 C 0.10803 0.40204 0.74232
 C1035 C 0.09453 0.38703 0.73014
 C1036 C 0.07015 0.38363 0.73506
 C1037 C 0.05997 0.39543 0.75272
 N1038 N 0.07343 0.41015 0.76424
 C1039 C 0.11027 0.43069 0.77261
 N1040 N 0.10120 0.43716 0.79261
 C1041 C 0.11213 0.45253 0.80548
 C1042 C 0.13354 0.46248 0.79835
 C1043 C 0.14309 0.45621 0.77772
 C1044 C 0.13152 0.44049 0.76479
 H1045 H 0.10325 0.37788 0.71701
 H1046 H 0.04121 0.39333 0.75705
 H1047 H 0.10405 0.45693 0.82123
 H1048 H 0.15941 0.46361 0.77141
 H1049 H 0.12690 0.40386 0.73840
 H1050 H 0.13904 0.43654 0.74872
 C1051 C 0.10125 0.58878 0.24032
 C1052 C 0.10829 0.59405 0.26208
 C1053 C 0.09481 0.60890 0.27446
 C1054 C 0.07389 0.61867 0.26556
 C1055 C 0.06756 0.61277 0.24357
 N1056 N 0.08104 0.59820 0.23190
 C1057 C 0.11459 0.57274 0.22647
 N1058 N 0.10329 0.56358 0.20864
 C1059 C 0.11408 0.54848 0.19537
 C1060 C 0.13771 0.54161 0.19981
 C1061 C 0.14986 0.55110 0.21785
 C1062 C 0.13850 0.56670 0.23108
 H1063 H 0.10153 0.61304 0.29079
 H1064 H 0.05138 0.61885 0.23577
 H1065 H 0.10406 0.54169 0.18156
 H1066 H 0.16822 0.54653 0.22172
 H1067 H 0.12385 0.58669 0.26982
 H1068 H 0.14861 0.57397 0.24453
 C1069 C 0.90714 0.40503 0.23823
 C1070 C 0.89662 0.38560 0.24563
 C1071 C 0.91032 0.37073 0.25777
 C1072 C 0.93464 0.37510 0.26293
 C1073 C 0.94439 0.39489 0.25497
 N1074 N 0.93069 0.40894 0.24289
 C1075 C 0.89334 0.42124 0.22523
 N1076 N 0.90488 0.43332 0.20952
 C1077 C 0.89328 0.44856 0.19705
 C1078 C 0.86867 0.45262 0.20038
 C1079 C 0.85652 0.44055 0.21670
 C1080 C 0.86874 0.42480 0.22907
 H1081 H 0.90132 0.35627 0.26381
 H1082 H 0.96312 0.39898 0.25751
 H1083 H 0.90336 0.45766 0.18477
 H1084 H 0.83756 0.44321 0.21986
 H1085 H 0.87803 0.38177 0.24191
 H1086 H 0.85911 0.41587 0.24178
 C1087 C 0.89971 0.59122 0.76112
 C1088 C 0.88864 0.61022 0.75323
 C1089 C 0.90201 0.62527 0.74103
 C1090 C 0.92657 0.62155 0.73635
 C1091 C 0.93686 0.60216 0.74475
 N1092 N 0.92346 0.58792 0.75686
 C1093 C 0.88633 0.57491 0.77432
 N1094 N 0.89825 0.56317 0.79007
 C1095 C 0.88707 0.54789 0.80279
 C1096 C 0.86249 0.54346 0.79975
 C1097 C 0.84994 0.55516 0.78339
 C1098 C 0.86174 0.57092 0.77072
 H1099 H 0.89259 0.63935 0.73461
 H1100 H 0.95576 0.59858 0.74257
 H1101 H 0.89747 0.53908 0.81508
 H1102 H 0.83100 0.55218 0.78041
 H1103 H 0.86988 0.61362 0.75663
 H1104 H 0.85181 0.57953 0.75797
 C1105 C 0.75957 0.58959 0.91129
 C1106 C 0.73454 0.58924 0.91451
 C1107 C 0.72384 0.60482 0.92817
 C1108 C 0.73795 0.62076 0.93866
 C1109 C 0.76293 0.62040 0.93525
 N1110 N 0.77299 0.60498 0.92192
 C1111 C 0.77178 0.57347 0.89693
 N1112 N 0.79503 0.56797 0.90138
 C1113 C 0.80731 0.55315 0.88896
 C1114 C 0.79617 0.54302 0.87070
 C1115 C 0.77236 0.54877 0.86558
 C1116 C 0.76013 0.56395 0.87861
 H1117 H 0.70448 0.60459 0.93030
 H1118 H 0.77447 0.63224 0.94330
 H1119 H 0.82571 0.54931 0.89339
 H1120 H 0.76311 0.54148 0.85157
 H1121 H 0.72331 0.57692 0.90685
 H1122 H 0.74191 0.56836 0.87411
 C1123 C 0.24034 0.41548 0.90624
 C1124 C 0.26533 0.41646 0.90968
 C1125 C 0.27658 0.40043 0.92244
 C1126 C 0.26306 0.38342 0.93175
 C1127 C 0.23809 0.38321 0.92819
 N1128 N 0.22749 0.39907 0.91579
 C1129 C 0.22755 0.43197 0.89275
 N1130 N 0.20408 0.43646 0.89738
 C1131 C 0.19120 0.45141 0.88567
 C1132 C 0.20187 0.46271 0.86792
 C1133 C 0.22592 0.45804 0.86262
 C1134 C 0.23880 0.44274 0.87497
 H1135 H 0.29590 0.40114 0.92473
 H1136 H 0.22699 0.37053 0.93536
 H1137 H 0.17264 0.45440 0.89021
 H1138 H 0.23483 0.46628 0.84899
 H1139 H 0.27608 0.42955 0.90287
 H1140 H 0.25720 0.43918 0.87035
 C1141 C 0.24137 0.58726 0.08899
 C1142 C 0.26503 0.58411 0.08163
 C1143 C 0.27627 0.60021 0.06899
 C1144 C 0.26420 0.61979 0.06372
 C1145 C 0.24024 0.62198 0.07127
 N1146 N 0.22963 0.60588 0.08333
 C1147 C 0.22888 0.57078 0.10268
 N1148 N 0.20466 0.56815 0.10043
 C1149 C 0.19210 0.55332 0.11261
 C1150 C 0.20394 0.54032 0.12842
 C1151 C 0.22883 0.54307 0.13125
 C1152 C 0.24135 0.55817 0.11837
 H1153 H 0.29483 0.59752 0.06435
 H1154 H 0.22950 0.63608 0.06707
 H1155 H 0.17289 0.55183 0.11004
 H1156 H 0.23866 0.53342 0.14329
 H1157 H 0.27478 0.56930 0.08548
 H1158 H 0.26050 0.56021 0.12100
 C1159 C 0.76311 0.40106 0.09668
 C1160 C 0.74310 0.38969 0.10489
 C1161 C 0.73190 0.37402 0.09169
 C1162 C 0.74058 0.36913 0.07021
 C1163 C 0.76134 0.38040 0.06305
 N1164 N 0.77169 0.39587 0.07616
 C1165 C 0.77531 0.41844 0.10963
 N1166 N 0.79787 0.42475 0.10352
 C1167 C 0.81016 0.44072 0.11438
 C1168 C 0.79972 0.45143 0.13262
 C1169 C 0.77641 0.44537 0.13906
 C1170 C 0.76412 0.42906 0.12759
 H1171 H 0.71695 0.36522 0.09891
 H1172 H 0.76880 0.37789 0.04666
 H1173 H 0.82808 0.44493 0.10879
 H1174 H 0.76754 0.45337 0.15287
 H1175 H 0.73623 0.39242 0.12147
 H1176 H 0.74594 0.42528 0.13264
 C1177 C 0.89965 0.75829 0.59008
 C1178 C 0.89211 0.73703 0.59508
 C1179 C 0.90448 0.72492 0.61103
 C1180 C 0.92468 0.73366 0.62219
 C1181 C 0.93148 0.75515 0.61656
 N1182 N 0.91912 0.76654 0.60089
 C1183 C 0.88775 0.77190 0.57290
 N1184 N 0.89986 0.78945 0.56473
 C1185 C 0.89044 0.80277 0.54891
 C1186 C 0.86739 0.79875 0.54028
 C1187 C 0.85443 0.78089 0.54858
 C1188 C 0.86444 0.76752 0.56493
 H1189 H 0.89750 0.70892 0.61489
 H1190 H 0.94723 0.76277 0.62366
 H1191 H 0.90104 0.81642 0.54307
 H1192 H 0.83647 0.77733 0.54258
 H1193 H 0.87706 0.72950 0.58666
 H1194 H 0.85374 0.75422 0.57132
 C1195 C 0.91825 0.22972 0.40606
 C1196 C 0.93837 0.22232 0.39415
 C1197 C 0.94918 0.23587 0.37844
 C1198 C 0.94010 0.25697 0.37414
 C1199 C 0.91948 0.26340 0.38622
 N1200 N 0.90938 0.24988 0.40148
 C1201 C 0.90601 0.21641 0.42330
 N1202 N 0.88402 0.22303 0.43069
 C1203 C 0.87158 0.21207 0.44660
 C1204 C 0.88121 0.19312 0.45616
 C1205 C 0.90391 0.18602 0.44896
 C1206 C 0.91640 0.19762 0.43268
 H1207 H 0.96529 0.22984 0.37048
 H1208 H 0.91070 0.27883 0.38324
 H1209 H 0.85414 0.21817 0.45166
 H1210 H 0.91212 0.17158 0.45603
 H1211 H 0.94589 0.20628 0.39671
 H1212 H 0.93407 0.19194 0.42796
 C1213 C 0.08741 0.23965 0.59032
 C1214 C 0.06349 0.24580 0.58655
 C1215 C 0.05233 0.26036 0.60102
 C1216 C 0.06477 0.26886 0.61957
 C1217 C 0.08894 0.26229 0.62249
 N1218 N 0.09946 0.24827 0.60793
 C1219 C 0.09999 0.22436 0.57535
 N1220 N 0.12408 0.22671 0.57202
 C1221 C 0.13666 0.21342 0.55814
 C1222 C 0.12494 0.19644 0.54681
 C1223 C 0.10022 0.19343 0.55045
 C1224 C 0.08769 0.20735 0.56463
 H1225 H 0.03357 0.26406 0.59802
 H1226 H 0.09989 0.26879 0.63579
 H1227 H 0.15575 0.21618 0.55595
 H1228 H 0.09048 0.18048 0.54212
 H1229 H 0.05348 0.23961 0.57244
 H1230 H 0.06867 0.20464 0.56733
 C1231 C 0.08349 0.76190 0.41224
 C1232 C 0.05959 0.75530 0.41523
 C1233 C 0.04929 0.74054 0.40036
 C1234 C 0.06258 0.73236 0.38218
 C1235 C 0.08665 0.73944 0.38003
 N1236 N 0.09633 0.75358 0.39497
 C1237 C 0.09535 0.77715 0.42775
 N1238 N 0.11937 0.77500 0.43164
 C1239 C 0.13142 0.78825 0.44594
 C1240 C 0.11924 0.80504 0.45713
 C1241 C 0.09460 0.80788 0.45296
 C1242 C 0.08257 0.79393 0.43836
 H1243 H 0.03055 0.73639 0.40277
 H1244 H 0.09823 0.73322 0.36706
 H1245 H 0.15048 0.78564 0.44853
 H1246 H 0.08455 0.82067 0.46120
 H1247 H 0.04897 0.76124 0.42905
 H1248 H 0.06359 0.79645 0.43525
 C1249 C 0.59652 0.91983 0.77459
 C1250 C 0.59249 0.94173 0.76913
 C1251 C 0.60787 0.95222 0.75428
 C1252 C 0.62762 0.94111 0.74481
 C1253 C 0.63086 0.91906 0.75088
 N1254 N 0.61535 0.90915 0.76513
 C1255 C 0.58032 0.90783 0.78972
 N1256 N 0.57669 0.88613 0.78633
 C1257 C 0.56162 0.87417 0.79929
 C1258 C 0.54929 0.88400 0.81703
 C1259 C 0.55326 0.90623 0.82117
 C1260 C 0.56867 0.91821 0.80754
 H1261 H 0.60460 0.96930 0.75100
 H1262 H 0.64503 0.90927 0.74368
 H1263 H 0.55924 0.85701 0.79565
 H1264 H 0.54418 0.91444 0.83474
 H1265 H 0.57741 0.95064 0.77599
 H1266 H 0.57158 0.93531 0.81106
 C1267 C 0.40169 0.91971 0.22604
 C1268 C 0.37913 0.92587 0.21776
 C1269 C 0.36306 0.93695 0.23154
 C1270 C 0.36944 0.94232 0.25360
 C1271 C 0.39243 0.93578 0.26106
 N1272 N 0.40751 0.92464 0.24741
 C1273 C 0.41907 0.90739 0.21245
 N1274 N 0.43362 0.89259 0.22263
 C1275 C 0.45016 0.88071 0.21125
 C1276 C 0.45309 0.88373 0.18827
 C1277 C 0.43854 0.89915 0.17748
 C1278 C 0.42140 0.91091 0.18948
 H1279 H 0.34603 0.94194 0.22445
 H1280 H 0.39820 0.93856 0.27800
 H1281 H 0.46119 0.86912 0.22022
 H1282 H 0.44030 0.90199 0.15978
 H1283 H 0.37377 0.92188 0.20092
 H1284 H 0.41047 0.92290 0.18096
 C1285 C 0.58954 0.08077 0.22619
 C1286 C 0.58922 0.05794 0.22809
 C1287 C 0.60528 0.04766 0.24252
 C1288 C 0.62166 0.06001 0.25503
 C1289 C 0.62126 0.08278 0.25281
 N1290 N 0.60535 0.09245 0.23875
 C1291 C 0.57276 0.09257 0.21138
 N1292 N 0.56652 0.11342 0.21656
 C1293 C 0.55107 0.12527 0.20387
 C1294 C 0.54101 0.11621 0.18453
 C1295 C 0.54756 0.09488 0.17863
 C1296 C 0.56339 0.08302 0.19197
 H1297 H 0.60509 0.03004 0.24370
 H1298 H 0.63337 0.09291 0.26242
 H1299 H 0.54665 0.14172 0.20895
 H1300 H 0.54035 0.08730 0.16378
 H1301 H 0.57651 0.04809 0.21887
 H1302 H 0.56843 0.06673 0.18690
 C1303 C 0.40762 0.08387 0.76744
 C1304 C 0.41124 0.08019 0.74463
 C1305 C 0.39502 0.06721 0.73288
 C1306 C 0.37518 0.05794 0.74374
 C1307 C 0.37228 0.06188 0.76658
 N1308 N 0.38844 0.07445 0.77773
 C1309 C 0.42448 0.09722 0.78072
 N1310 N 0.42735 0.09269 0.80273
 C1311 C 0.44283 0.10405 0.81588
 C1312 C 0.45645 0.12124 0.80699
 C1313 C 0.45335 0.12651 0.78445
 C1314 C 0.43744 0.11456 0.77128
 H1315 H 0.39783 0.06463 0.71525
 H1316 H 0.35736 0.05478 0.77559
 H1317 H 0.44451 0.09956 0.83322
 H1318 H 0.46339 0.13973 0.77694
 H1319 H 0.42661 0.08691 0.73598
 H1320 H 0.43515 0.11906 0.75401
 C1321 C 0.59575 0.77449 0.08323
 C1322 C 0.59474 0.77321 0.05991
 C1323 C 0.60987 0.75878 0.04871
 C1324 C 0.62603 0.74567 0.06063
 C1325 C 0.62648 0.74741 0.08390
 N1326 N 0.61142 0.76146 0.09448
 C1327 C 0.57964 0.78903 0.09596
 N1328 N 0.57334 0.78335 0.11706
 C1329 C 0.55819 0.79565 0.12962
 C1330 C 0.54850 0.81504 0.12103
 C1331 C 0.55521 0.82146 0.09951
 C1332 C 0.57075 0.80854 0.08695
 H1333 H 0.60904 0.75796 0.03073
 H1334 H 0.63849 0.73736 0.09369
 H1335 H 0.55366 0.79019 0.14621
 H1336 H 0.54830 0.83637 0.09227
 H1337 H 0.58209 0.78284 0.05039
 H1338 H 0.57586 0.81396 0.07049
 C1339 C 0.40127 0.22197 0.07245
 C1340 C 0.40439 0.22441 0.04939
 C1341 C 0.38988 0.23904 0.03773
 C1342 C 0.37223 0.25116 0.04892
 C1343 C 0.36965 0.24820 0.07194
 N1344 N 0.38415 0.23403 0.08299
 C1345 C 0.41682 0.20747 0.08583
 N1346 N 0.42077 0.21249 0.10759
 C1347 C 0.43537 0.20034 0.12083
 C1348 C 0.44698 0.18181 0.11230
 C1349 C 0.44265 0.17600 0.09006
 C1350 C 0.42762 0.18876 0.07679
 H1351 H 0.39238 0.24085 0.01996
 H1352 H 0.35646 0.25746 0.08122
 H1353 H 0.43803 0.20531 0.13794
 H1354 H 0.45113 0.16177 0.08283
 H1355 H 0.41822 0.21560 0.04049
 H1356 H 0.42441 0.18389 0.05974
 C1357 C 0.60504 0.21912 0.91754
 C1358 C 0.61001 0.21541 0.94018
 C1359 C 0.62598 0.22912 0.95140
 C1360 C 0.63690 0.24661 0.94027
 C1361 C 0.63168 0.24962 0.91765
 N1362 N 0.61608 0.23607 0.90707
 C1363 C 0.58735 0.20600 0.90478
 N1364 N 0.57921 0.21404 0.88504
 C1365 C 0.56270 0.20343 0.87237
 C1366 C 0.55319 0.18341 0.87942
 C1367 C 0.56150 0.17462 0.89955
 C1368 C 0.57862 0.18575 0.91221
 H1369 H 0.62917 0.22648 0.96897
 H1370 H 0.63988 0.26280 0.90839
 H1371 H 0.55691 0.21078 0.85690
 H1372 H 0.55485 0.15908 0.90550
 H1373 H 0.60125 0.20261 0.94948
 H1374 H 0.58494 0.17831 0.92741
 C1375 C 0.40548 0.77980 0.92636
 C1376 C 0.40819 0.77669 0.94937
 C1377 C 0.39278 0.76246 0.96053
 C1378 C 0.37460 0.75143 0.94888
 C1379 C 0.37232 0.75514 0.92594
 N1380 N 0.38775 0.76886 0.91537
 C1381 C 0.42215 0.79374 0.91353
 N1382 N 0.42657 0.78872 0.89185
 C1383 C 0.44218 0.80039 0.87915
 C1384 C 0.45435 0.81840 0.88818
 C1385 C 0.44962 0.82418 0.91034
 C1386 C 0.43359 0.81189 0.92307
 H1387 H 0.39508 0.76003 0.97825
 H1388 H 0.35870 0.74672 0.91634
 H1389 H 0.44511 0.79550 0.86207
 H1390 H 0.45850 0.83803 0.91793
 H1391 H 0.42245 0.78462 0.95860
 H1392 H 0.43008 0.81673 0.94007
 C1393 C 0.77698 0.91866 0.40244
 C1394 C 0.78936 0.93037 0.38594
 C1395 C 0.77647 0.94350 0.37118
 C1396 C 0.75135 0.94506 0.37285
 C1397 C 0.73968 0.93309 0.38955
 N1398 N 0.75258 0.92028 0.40360
 C1399 C 0.78946 0.90409 0.41826
 N1400 N 0.77698 0.88719 0.42731
 C1401 C 0.78697 0.87324 0.44224
 C1402 C 0.81089 0.87608 0.44916
 C1403 C 0.82408 0.89350 0.44019
 C1404 C 0.81347 0.90751 0.42473
 H1405 H 0.78613 0.95249 0.35851
 H1406 H 0.72029 0.93357 0.39116
 H1407 H 0.77608 0.86012 0.44885
 H1408 H 0.84254 0.89637 0.44518
 H1409 H 0.80867 0.92910 0.38408
 H1410 H 0.82382 0.92109 0.41840
 C1411 C 0.22392 0.91640 0.59388
 C1412 C 0.22614 0.93917 0.59233
 C1413 C 0.23968 0.95041 0.60817
 C1414 C 0.25092 0.93908 0.62557
 C1415 C 0.24832 0.91634 0.62650
 N1416 N 0.23523 0.90572 0.61076
 C1417 C 0.21030 0.90359 0.57728
 N1418 N 0.21695 0.88259 0.57330
 C1419 C 0.20542 0.86982 0.55820
 C1420 C 0.18575 0.87802 0.54615
 C1421 C 0.17831 0.89951 0.55028
 C1422 C 0.19054 0.91235 0.56577
 H1423 H 0.24122 0.96797 0.60692
 H1424 H 0.25699 0.90700 0.63950
 H1425 H 0.21162 0.85328 0.55568
 H1426 H 0.16314 0.90645 0.54145
 H1427 H 0.21796 0.94819 0.57884
 H1428 H 0.18429 0.92877 0.56890
 C1429 C 0.22904 0.08250 0.41217
 C1430 C 0.23022 0.05968 0.41377
 C1431 C 0.24273 0.04786 0.39768
 C1432 C 0.25397 0.05869 0.37997
 C1433 C 0.25258 0.08152 0.37909
 N1434 N 0.24044 0.09270 0.39505
 C1435 C 0.21604 0.09579 0.42874
 N1436 N 0.22371 0.11648 0.43295
 C1437 C 0.21253 0.12967 0.44789
 C1438 C 0.19214 0.12228 0.45942
 C1439 C 0.18373 0.10113 0.45508
 C1440 C 0.19563 0.08784 0.43982
 H1441 H 0.24339 0.03026 0.39891
 H1442 H 0.26134 0.09047 0.36586
 H1443 H 0.21949 0.14593 0.45062
 H1444 H 0.16800 0.09480 0.46352
 H1445 H 0.22190 0.05103 0.42744
 H1446 H 0.18860 0.07171 0.43648
 C1447 C 0.76901 0.08758 0.59248
 C1448 C 0.74387 0.08529 0.59163
 C1449 C 0.73234 0.07163 0.60680
 C1450 C 0.74573 0.06030 0.62285
 C1451 C 0.77082 0.06290 0.62305
 N1452 N 0.78168 0.07617 0.60799
 C1453 C 0.78220 0.10157 0.57660
 N1454 N 0.80533 0.09639 0.57135
 C1455 C 0.81853 0.10832 0.55673
 C1456 C 0.80856 0.12683 0.54653
 C1457 C 0.78491 0.13273 0.55206
 C1458 C 0.77168 0.12016 0.56704
 H1459 H 0.71293 0.07013 0.60615
 H1460 H 0.78180 0.05422 0.63500
 H1461 H 0.83678 0.10328 0.55308
 H1462 H 0.77656 0.14696 0.54469
 H1463 H 0.73321 0.09362 0.57919
 H1464 H 0.75358 0.12518 0.57126
 C1465 C 0.90800 0.59121 0.23563
 C1466 C 0.89725 0.60960 0.24537
 C1467 C 0.91138 0.62420 0.25747
 C1468 C 0.93615 0.62050 0.25994
 C1469 C 0.94627 0.60212 0.24966
 N1470 N 0.93216 0.58818 0.23785
 C1471 C 0.89383 0.57506 0.22294
 N1472 N 0.90473 0.56369 0.20631
 C1473 C 0.89294 0.54828 0.19424
 C1474 C 0.86882 0.54329 0.19893
 C1475 C 0.85731 0.55467 0.21615
 C1476 C 0.86970 0.57058 0.22814
 H1477 H 0.90290 0.63817 0.26520
 H1478 H 0.96537 0.59889 0.25093
 H1479 H 0.90255 0.53976 0.18121
 H1480 H 0.83874 0.55126 0.22039
 H1481 H 0.87821 0.61285 0.24353
 H1482 H 0.86061 0.57884 0.24164
 C1483 C 0.90272 0.40903 0.75898
 C1484 C 0.90380 0.41082 0.73571
 C1485 C 0.91825 0.39648 0.72366
 C1486 C 0.93154 0.38033 0.73468
 C1487 C 0.92999 0.37908 0.75794
 N1488 N 0.91597 0.39338 0.76936
 C1489 C 0.88829 0.42424 0.77257
 N1490 N 0.89571 0.42898 0.79360
 C1491 C 0.88370 0.44324 0.80687
 C1492 C 0.86278 0.45361 0.79914
 C1493 C 0.85447 0.44853 0.77770
 C1494 C 0.86715 0.43389 0.76438
 H1495 H 0.91893 0.39791 0.70571
 H1496 H 0.94022 0.36700 0.76706
 H1497 H 0.89061 0.44655 0.82337
 H1498 H 0.83834 0.45605 0.77111
 H1499 H 0.89405 0.42341 0.72689
 H1500 H 0.86032 0.43008 0.74797
 C1501 C 0.09347 0.60315 0.76559
 C1502 C 0.10443 0.61763 0.75058
 C1503 C 0.09027 0.63220 0.73854
 C1504 C 0.06525 0.63265 0.74155
 C1505 C 0.05509 0.61865 0.75743
 N1506 N 0.06923 0.60437 0.76879
 C1507 C 0.10741 0.58639 0.77780
 N1508 N 0.09800 0.57766 0.79673
 C1509 C 0.10947 0.56181 0.80849
 C1510 C 0.13174 0.55368 0.80122
 C1511 C 0.14166 0.56231 0.78166
 C1512 C 0.12958 0.57854 0.76990
 H1513 H 0.09887 0.64310 0.72682
 H1514 H 0.03585 0.61850 0.76025
 H1515 H 0.10112 0.55556 0.82345
 H1516 H 0.15869 0.55640 0.77531
 H1517 H 0.12370 0.61787 0.74811
 H1518 H 0.13737 0.58437 0.75454
 C1519 C 0.09995 0.40048 0.23539
 C1520 C 0.11146 0.38688 0.25091
 C1521 C 0.09796 0.37184 0.26301
 C1522 C 0.07307 0.37004 0.25956
 C1523 C 0.06239 0.38328 0.24327
 N1524 N 0.07587 0.39802 0.23185
 C1525 C 0.11315 0.41751 0.22283
 N1526 N 0.10339 0.42546 0.20368
 C1527 C 0.11423 0.44134 0.19148
 C1528 C 0.13623 0.45031 0.19847
 C1529 C 0.14647 0.44253 0.21827
 C1530 C 0.13500 0.42628 0.23051
 H1531 H 0.10699 0.36157 0.27505
 H1532 H 0.04323 0.38241 0.24011
 H1533 H 0.10563 0.44691 0.17635
 H1534 H 0.16329 0.44911 0.22443
 H1535 H 0.13066 0.38760 0.25370
 H1536 H 0.14306 0.42111 0.24601
   
