data_POSCAR
  _audit_creation_date              2014-09-24
  _audit_creation_method            'ToBaCCo'
  _symmetry_space_group_name_H-M    'P1'
  _symmetry_Int_Tables_number       1
  _symmetry_cell_setting            triclinic
  loop_
  _symmetry_equiv_pos_as_xyz
 x,y,z
_cell_length_a 67.7861
_cell_length_b 67.7861
_cell_length_c 67.7861
_cell_angle_alpha 90.000000
_cell_angle_beta 90.000000
_cell_angle_gamma 90.000000
loop_
  _atom_site_label
  _atom_site_type_symbol
  _atom_site_fract_x
  _atom_site_fract_y
  _atom_site_fract_z
C1 C 0.20478 0.19513 0.22717
 C2 C 0.18820 0.19771 0.24019
 C3 C 0.17393 0.21325 0.23826
 C4 C 0.17775 0.22676 0.22234
 C5 C 0.19442 0.22461 0.20893
 C6 C 0.20782 0.20861 0.21145
 C7 C 0.21809 0.17888 0.22968
 C8 C 0.23447 0.17487 0.21687
 C9 C 0.23725 0.18913 0.20124
 C10 C 0.22413 0.20598 0.19827
 C11 C 0.22692 0.22018 0.18238
 C12 C 0.21405 0.23690 0.17932
 C13 C 0.19772 0.23820 0.19296
 H14 H 0.18640 0.18721 0.25209
 H15 H 0.16747 0.23875 0.22002
 H16 H 0.21546 0.16903 0.24196
 H17 H 0.24933 0.18688 0.19104
 H18 H 0.23942 0.21839 0.17261
 H19 H 0.18712 0.24998 0.19112
 C20 C 0.70617 0.69635 0.72464
 C21 C 0.68961 0.69904 0.73767
 C22 C 0.67538 0.71461 0.73564
 C23 C 0.67918 0.72798 0.71964
 C24 C 0.69579 0.72571 0.70622
 C25 C 0.70918 0.70971 0.70881
 C26 C 0.71947 0.68011 0.72725
 C27 C 0.73583 0.67597 0.71446
 C28 C 0.73858 0.69012 0.69870
 C29 C 0.72546 0.70698 0.69561
 C30 C 0.72819 0.72110 0.67961
 C31 C 0.71528 0.73780 0.67648
 C32 C 0.69902 0.73918 0.69016
 H33 H 0.68779 0.68863 0.74964
 H34 H 0.66891 0.73998 0.71725
 H35 H 0.71685 0.67036 0.73962
 H36 H 0.75064 0.68779 0.68849
 H37 H 0.74066 0.71926 0.66980
 H38 H 0.68842 0.75096 0.68829
 C39 C 0.29270 0.80294 0.72407
 C40 C 0.30994 0.79928 0.73635
 C41 C 0.32356 0.78329 0.73276
 C42 C 0.31852 0.77075 0.71633
 C43 C 0.30175 0.77383 0.70374
 C44 C 0.28899 0.79004 0.70775
 C45 C 0.27901 0.81916 0.72779
 C46 C 0.26175 0.82276 0.71578
 C47 C 0.25939 0.80945 0.69948
 C48 C 0.27240 0.79326 0.69542
 C49 C 0.26863 0.78006 0.67921
 C50 C 0.28071 0.76327 0.67460
 C51 C 0.29752 0.76076 0.68726
 H52 H 0.31296 0.80919 0.74850
 H53 H 0.32775 0.75811 0.71322
 H54 H 0.28157 0.82867 0.74037
 H55 H 0.24702 0.81161 0.68962
 H56 H 0.25587 0.78295 0.67004
 H57 H 0.30714 0.74828 0.68462
 C58 C 0.79568 0.30152 0.22462
 C59 C 0.81223 0.29681 0.23754
 C60 C 0.82455 0.27968 0.23484
 C61 C 0.81964 0.26819 0.21761
 C62 C 0.80363 0.27260 0.20445
 C63 C 0.79150 0.28922 0.20810
 C64 C 0.78326 0.31841 0.22804
 C65 C 0.76691 0.32395 0.21554
 C66 C 0.76333 0.31084 0.19914
 C67 C 0.77542 0.29358 0.19511
 C68 C 0.77207 0.28082 0.17808
 C69 C 0.78442 0.26404 0.17361
 C70 C 0.79995 0.26049 0.18749
 H71 H 0.81502 0.30626 0.25011
 H72 H 0.82883 0.25583 0.21357
 H73 H 0.78644 0.32729 0.24091
 H74 H 0.75138 0.31434 0.18915
 H75 H 0.76024 0.28439 0.16797
 H76 H 0.80958 0.24799 0.18495
 C77 C 0.79544 0.69670 0.27413
 C78 C 0.81262 0.70099 0.26182
 C79 C 0.82636 0.71688 0.26594
 C80 C 0.82098 0.72882 0.28286
 C81 C 0.80426 0.72520 0.29535
 C82 C 0.79166 0.70903 0.29088
 C83 C 0.78187 0.68039 0.27008
 C84 C 0.76470 0.67625 0.28215
 C85 C 0.76225 0.68917 0.29872
 C86 C 0.77514 0.70533 0.30318
 C87 C 0.77145 0.71785 0.31993
 C88 C 0.78376 0.73422 0.32546
 C89 C 0.80011 0.73761 0.31240
 H90 H 0.81551 0.69149 0.24932
 H91 H 0.82942 0.74184 0.28638
 H92 H 0.78444 0.67125 0.25725
 H93 H 0.74989 0.68664 0.30852
 H94 H 0.75847 0.71476 0.32868
 H95 H 0.81002 0.74968 0.31576
 C96 C 0.29398 0.19501 -0.22369
 C97 C 0.31001 0.19949 -0.23674
 C98 C 0.32290 0.21607 -0.23443
 C99 C 0.31897 0.22806 -0.21723
 C100 C 0.30278 0.22399 -0.20357
 C101 C 0.29030 0.20733 -0.20725
 C102 C 0.28156 0.17826 -0.22729
 C103 C 0.26515 0.17252 -0.21500
 C104 C 0.26157 0.18590 -0.19881
 C105 C 0.27404 0.20298 -0.19465
 C106 C 0.27058 0.21563 -0.17793
 C107 C 0.28280 0.23237 -0.17283
 C108 C 0.29876 0.23624 -0.18640
 H109 H 0.31247 0.18969 -0.24912
 H110 H 0.32815 0.24088 -0.21470
 H111 H 0.28461 0.17013 -0.24063
 H112 H 0.24945 0.18275 -0.18890
 H113 H 0.25796 0.21226 -0.16878
 H114 H 0.30839 0.24862 -0.18340
 C115 C 0.70535 0.30740 -0.22644
 C116 C 0.68872 0.30510 -0.23935
 C117 C 0.67414 0.28973 -0.23758
 C118 C 0.67809 0.27600 -0.22181
 C119 C 0.69468 0.27816 -0.20823
 C120 C 0.70822 0.29407 -0.21068
 C121 C 0.71913 0.32310 -0.22951
 C122 C 0.73632 0.32661 -0.21756
 C123 C 0.73820 0.31319 -0.20096
 C124 C 0.72458 0.29668 -0.19753
 C125 C 0.72716 0.28248 -0.18156
 C126 C 0.71412 0.26583 -0.17852
 C127 C 0.69785 0.26460 -0.19223
 H128 H 0.68784 0.31528 -0.25157
 H129 H 0.66789 0.26392 -0.21954
 H130 H 0.71571 0.33326 -0.24133
 H131 H 0.75071 0.31493 -0.19120
 H132 H 0.73970 0.28412 -0.17181
 H133 H 0.68720 0.25286 -0.19043
 C134 C 0.20731 0.80444 0.27536
 C135 C 0.19016 0.80098 0.26274
 C136 C 0.17649 0.78480 0.26574
 C137 C 0.18136 0.77195 0.28200
 C138 C 0.19795 0.77479 0.29490
 C139 C 0.21078 0.79109 0.29138
 C140 C 0.22111 0.82090 0.27235
 C141 C 0.23847 0.82405 0.28457
 C142 C 0.24018 0.81023 0.30065
 C143 C 0.22711 0.79402 0.30406
 C144 C 0.23057 0.78059 0.32016
 C145 C 0.21848 0.76373 0.32431
 C146 C 0.20191 0.76141 0.31127
 H147 H 0.18726 0.81117 0.25080
 H148 H 0.17209 0.75925 0.28474
 H149 H 0.21859 0.83079 0.26007
 H150 H 0.25164 0.81225 0.31153
 H151 H 0.24314 0.78334 0.32961
 H152 H 0.19227 0.74888 0.31352
 C153 C 0.44731 0.45641 0.47326
 C154 C 0.45060 0.44016 0.48700
 C155 C 0.46686 0.42651 0.48511
 C156 C 0.47931 0.42980 0.46832
 C157 C 0.47660 0.44561 0.45449
 C158 C 0.46065 0.45891 0.45706
 C159 C 0.43128 0.47049 0.47568
 C160 C 0.42823 0.48700 0.46257
 C161 C 0.44207 0.48825 0.44640
 C162 C 0.45823 0.47477 0.44347
 C163 C 0.47223 0.47722 0.42734
 C164 C 0.48885 0.46433 0.42440
 C165 C 0.49010 0.44838 0.43834
 H166 H 0.44083 0.43857 0.49953
 H167 H 0.49165 0.41991 0.46602
 H168 H 0.42144 0.46884 0.48815
 H169 H 0.44033 0.49994 0.43569
 H170 H 0.47045 0.48958 0.41740
 H171 H 0.50187 0.43773 0.43672
 C172 C -0.05768 -0.04246 0.97632
 C173 C -0.05607 -0.05855 0.99023
 C174 C -0.04070 -0.07354 0.98975
 C175 C -0.02653 -0.07080 0.97414
 C176 C -0.02780 -0.05503 0.95972
 C177 C -0.04337 -0.04095 0.96105
 C178 C -0.07342 -0.02784 0.97758
 C179 C -0.07528 -0.01141 0.96414
 C180 C -0.06041 -0.01124 0.94874
 C181 C -0.04466 -0.02540 0.94703
 C182 C -0.03032 -0.02421 0.93121
 C183 C -0.01460 -0.03816 0.92881
 C184 C -0.01379 -0.05333 0.94375
 H185 H -0.06687 -0.05869 1.00191
 H186 H -0.01467 -0.08137 0.97266
 H187 H -0.08399 -0.02916 0.98947
 H188 H -0.06109 -0.00037 0.93716
 H189 H -0.03171 -0.01252 0.92041
 H190 H -0.00202 -0.06408 0.94307
 C191 C 1.05694 0.54170 0.97561
 C192 C 1.05406 0.55783 0.98917
 C193 C 1.03806 0.57192 0.98787
 C194 C 1.02515 0.56920 0.97111
 C195 C 1.02753 0.55324 0.95692
 C196 C 1.04343 0.53958 0.95963
 C197 C 1.07305 0.52754 0.97796
 C198 C 1.07584 0.51079 0.96506
 C199 C 1.06184 0.51003 0.94902
 C200 C 1.04597 0.52378 0.94623
 C201 C 1.03275 0.52173 0.92983
 C202 C 1.01678 0.53496 0.92572
 C203 C 1.01438 0.55066 0.93999
 H204 H 1.06470 0.55936 1.00094
 H205 H 1.01294 0.57931 0.96928
 H206 H 1.08298 0.52931 0.99033
 H207 H 1.06347 0.49898 0.93768
 H208 H 1.03505 0.50938 0.91996
 H209 H 1.00262 0.56121 0.93769
 C210 C 0.55459 0.04576 0.47677
 C211 C 0.55101 0.06170 0.49032
 C212 C 0.53475 0.07518 0.48878
 C213 C 0.52225 0.07187 0.47193
 C214 C 0.52548 0.05585 0.45792
 C215 C 0.54172 0.04273 0.46062
 C216 C 0.57107 0.03286 0.47955
 C217 C 0.57613 0.01670 0.46668
 C218 C 0.56213 0.01370 0.45073
 C219 C 0.54511 0.02665 0.44732
 C220 C 0.53164 0.02415 0.43071
 C221 C 0.51520 0.03726 0.42695
 C222 C 0.51267 0.05281 0.44127
 H223 H 0.56138 0.06368 0.50230
 H224 H 0.50967 0.08150 0.46988
 H225 H 0.57963 0.03533 0.49276
 H226 H 0.56479 0.00176 0.44047
 H227 H 0.53435 0.01230 0.42036
 H228 H 0.50040 0.06287 0.43946
 C229 C -0.05455 0.04283 0.52797
 C230 C -0.05198 0.05979 0.51488
 C231 C -0.03628 0.07408 0.51731
 C232 C -0.02307 0.07006 0.53334
 C233 C -0.02509 0.05367 0.54654
 C234 C -0.04082 0.04014 0.54381
 C235 C -0.07054 0.02858 0.52562
 C236 C -0.07303 0.01154 0.53831
 C237 C -0.05875 0.01039 0.55421
 C238 C -0.04281 0.02403 0.55711
 C239 C -0.02872 0.02160 0.57316
 C240 C -0.01236 0.03473 0.57627
 C241 C -0.01140 0.05085 0.56253
 H242 H -0.06252 0.06210 0.50312
 H243 H -0.01078 0.07998 0.53570
 H244 H -0.08071 0.03060 0.51349
 H245 H -0.06010 -0.00093 0.56530
 H246 H -0.03028 0.00909 0.58296
 H247 H 0.00014 0.06173 0.56431
 C248 C 0.44737 0.54648 0.02316
 C249 C 0.45103 0.56356 0.01063
 C250 C 0.46721 0.57693 0.01378
 C251 C 0.47986 0.57170 0.02997
 C252 C 0.47666 0.55496 0.04261
 C253 C 0.46029 0.54238 0.03923
 C254 C 0.43077 0.53363 0.01997
 C255 C 0.42605 0.51689 0.03229
 C256 C 0.43985 0.51329 0.04814
 C257 C 0.45692 0.52579 0.05188
 C258 C 0.47073 0.52207 0.06800
 C259 C 0.48780 0.53432 0.07171
 C260 C 0.48985 0.55082 0.05862
 H261 H 0.44088 0.56670 -0.00129
 H262 H 0.49269 0.58075 0.03284
 H263 H 0.42142 0.53683 0.00745
 H264 H 0.43710 0.50095 0.05789
 H265 H 0.46842 0.50933 0.07734
 H266 H 0.50207 0.56085 0.06091
 C267 C 0.55155 -0.04473 0.02277
 C268 C 0.54722 -0.06159 0.01007
 C269 C 0.53031 -0.07421 0.01290
 C270 C 0.51882 -0.06941 0.03014
 C271 C 0.52280 -0.05309 0.04303
 C272 C 0.53912 -0.04062 0.03925
 C273 C 0.56787 -0.03167 0.01894
 C274 C 0.57242 -0.01449 0.03070
 C275 C 0.55956 -0.01136 0.04740
 C276 C 0.54288 -0.02410 0.05188
 C277 C 0.52953 -0.02039 0.06841
 C278 C 0.51258 -0.03266 0.07259
 C279 C 0.51018 -0.04910 0.05953
 H280 H 0.55665 -0.06426 -0.00253
 H281 H 0.50664 -0.07880 0.03428
 H282 H 0.57719 -0.03499 0.00641
 H283 H 0.56217 0.00140 0.05664
 H284 H 0.53206 -0.00761 0.07764
 H285 H 0.49797 -0.05907 0.06209
 C286 C 1.05414 0.45502 0.52427
 C287 C 1.05165 0.43864 0.51109
 C288 C 1.03633 0.42398 0.51287
 C289 C 1.02280 0.42761 0.52891
 C290 C 1.02510 0.44396 0.54275
 C291 C 1.04093 0.45758 0.54025
 C292 C 1.06981 0.46894 0.52130
 C293 C 1.07325 0.48566 0.53373
 C294 C 1.05976 0.48755 0.55012
 C295 C 1.04353 0.47379 0.55355
 C296 C 1.02986 0.47594 0.56994
 C297 C 1.01384 0.46238 0.57355
 C298 C 1.01195 0.44669 0.55924
 H299 H 1.06168 0.43802 0.49873
 H300 H 1.01082 0.41730 0.53121
 H301 H 1.07959 0.46670 0.50886
 H302 H 1.06150 0.50003 0.55993
 H303 H 1.03201 0.48798 0.58021
 H304 H 0.99997 0.43627 0.56090
 C305 C 0.41056 0.00819 0.22037
 H306 H 0.41371 0.02064 0.22985
 C307 C 0.42315 0.00487 0.20339
 H308 H 0.43509 0.01508 0.20059
 C309 C 0.39160 -0.01945 0.21249
 H310 H 0.37950 -0.02940 0.21555
 C311 C 0.40359 -0.02305 0.19532
 H312 H 0.39993 -0.03565 0.18623
 N313 N 0.39473 -0.00380 0.22501
 C314 C 0.34172 0.02951 0.25868
 H315 H 0.33996 0.01976 0.27118
 C316 C 0.32773 0.04528 0.25607
 H317 H 0.31609 0.04673 0.26689
 C318 C 0.35839 0.03903 0.23010
 H319 H 0.37011 0.03690 0.21947
 C320 C 0.34474 0.05527 0.22712
 H321 H 0.34661 0.06460 0.21431
 Zn322 Zn 0.37601 0.00086 0.25044
 N323 N 0.35695 0.02604 0.24575
 C324 C 0.39354 0.02332 0.28637
 N325 N 0.39494 0.00599 0.27591
 C326 C 0.40924 -0.00702 0.28245
 C327 C 0.42226 -0.00285 0.29899
 C328 C 0.40618 0.02798 0.30284
 C329 C 0.34246 -0.03049 0.24214
 C330 C 0.32966 -0.04734 0.24560
 C331 C 0.34613 -0.05257 0.27602
 C332 C 0.35848 -0.03569 0.27212
 N333 N 0.35700 -0.02460 0.25521
 H334 H 0.38254 0.03401 0.28197
 H335 H 0.41100 -0.02089 0.27475
 H336 H 0.43330 -0.01368 0.30292
 H337 H 0.40367 0.04191 0.31016
 H338 H 0.34054 -0.02216 0.22866
 H339 H 0.31886 -0.05115 0.23447
 H340 H 0.34840 -0.06024 0.28982
 H341 H 0.36942 -0.03160 0.28300
 C342 C 0.32854 0.05885 0.24000
 C343 C 0.41995 -0.01093 0.18994
 C344 C 0.33116 -0.05934 0.26279
 C345 C 0.42143 0.01517 0.30981
 C346 C 0.09060 -0.00846 0.72257
 H347 H 0.08823 -0.02183 0.73096
 C348 C 0.07809 -0.00472 0.70560
 H349 H 0.06698 -0.01552 0.70175
 C350 C 0.10760 0.02099 0.71727
 H351 H 0.11885 0.03154 0.72137
 C352 C 0.09562 0.02512 0.70023
 H353 H 0.09844 0.03870 0.69235
 N354 N 0.10545 0.00421 0.72845
 C355 C 0.15902 -0.03104 0.76003
 H356 H 0.16224 -0.02181 0.77264
 C357 C 0.17166 -0.04788 0.75624
 H358 H 0.18371 -0.05083 0.76628
 C359 C 0.13985 -0.03845 0.73240
 H360 H 0.12765 -0.03523 0.72263
 C361 C 0.15190 -0.05546 0.72832
 H362 H 0.14818 -0.06427 0.71555
 Zn363 Zn 0.12432 -0.00099 0.75367
 N364 N 0.14306 -0.02625 0.74828
 C365 C 0.10804 -0.02346 0.78973
 N366 N 0.10581 -0.00641 0.77903
 C367 C 0.09095 0.00608 0.78527
 C368 C 0.07810 0.00158 0.80179
 C369 C 0.09566 -0.02838 0.80625
 C370 C 0.15652 0.02924 0.74377
 C371 C 0.17030 0.04524 0.74578
 C372 C 0.15762 0.05189 0.77774
 C373 C 0.14393 0.03562 0.77516
 N374 N 0.14337 0.02415 0.75831
 H375 H 0.11955 -0.03368 0.78552
 H376 H 0.08860 0.01970 0.77730
 H377 H 0.06654 0.01194 0.80550
 H378 H 0.09891 -0.04200 0.81387
 H379 H 0.15661 0.02076 0.73025
 H380 H 0.17992 0.04816 0.73340
 H381 H 0.15744 0.05994 0.79153
 H382 H 0.13387 0.03219 0.78707
 C383 C 0.16839 -0.06101 0.74019
 C384 C 0.08033 0.01229 0.69351
 C385 C 0.17170 0.05719 0.76307
 C386 C 0.07979 -0.01618 0.81289
 C387 C 0.59187 0.49205 0.21754
 H388 H 0.58877 0.47955 0.22696
 C389 C 0.57910 0.49556 0.20073
 H390 H 0.56709 0.48540 0.19798
 C391 C 0.61080 0.51973 0.20969
 H392 H 0.62293 0.52963 0.21274
 C393 C 0.59862 0.52352 0.19271
 H394 H 0.60219 0.53622 0.18372
 N395 N 0.60776 0.50398 0.22210
 C396 C 0.66002 0.47008 0.25678
 H397 H 0.66109 0.47944 0.26966
 C398 C 0.67392 0.45418 0.25462
 H399 H 0.68472 0.45222 0.26620
 C400 C 0.64503 0.46156 0.22698
 H401 H 0.63400 0.46412 0.21574
 C402 C 0.65868 0.44526 0.22437
 H403 H 0.65749 0.43631 0.21121
 Zn404 Zn 0.62655 0.49931 0.24744
 N405 N 0.64565 0.47410 0.24306
 C406 C 0.61023 0.47799 0.28445
 N407 N 0.60774 0.49441 0.27280
 C408 C 0.59249 0.50682 0.27821
 C409 C 0.57988 0.50317 0.29513
 C410 C 0.59816 0.47398 0.30147
 C411 C 0.66160 0.52906 0.24064
 C412 C 0.67432 0.54595 0.24406
 C413 C 0.65406 0.55472 0.27123
 C414 C 0.64194 0.53764 0.26755
 N415 N 0.64535 0.52480 0.25221
 H416 H 0.62181 0.46766 0.28074
 H417 H 0.58982 0.51987 0.26943
 H418 H 0.56843 0.51374 0.29856
 H419 H 0.60126 0.46069 0.30973
 H420 H 0.66503 0.51933 0.22846
 H421 H 0.68661 0.54841 0.23417
 H422 H 0.65014 0.56404 0.28358
 H423 H 0.62952 0.53489 0.27719
 C424 C 0.67401 0.44109 0.23812
 C425 C 0.58217 0.51148 0.18740
 C426 C 0.67086 0.55972 0.25954
 C427 C 0.58243 0.48653 0.30769
 C428 C 0.90968 0.50862 0.71828
 H429 H 0.91180 0.52245 0.72596
 C430 C 0.92247 0.50411 0.70168
 H431 H 0.93374 0.51467 0.69765
 C432 C 0.89325 0.47863 0.71453
 H433 H 0.88204 0.46821 0.71903
 C434 C 0.90562 0.47367 0.69798
 H435 H 0.90269 0.45980 0.69068
 N436 N 0.89514 0.49593 0.72493
 C437 C 0.84234 0.53045 0.75831
 H438 H 0.84045 0.52083 0.77090
 C439 C 0.82845 0.54628 0.75546
 H440 H 0.81675 0.54789 0.76620
 C441 C 0.85920 0.53958 0.72972
 H442 H 0.87094 0.53728 0.71916
 C443 C 0.84566 0.55587 0.72652
 H444 H 0.84765 0.56506 0.71361
 Zn445 Zn 0.87652 0.50139 0.75041
 N446 N 0.85763 0.52675 0.74550
 C447 C 0.89390 0.52168 0.78875
 N448 N 0.89552 0.50608 0.77571
 C449 C 0.91082 0.49325 0.77927
 C450 C 0.92469 0.49591 0.79515
 C451 C 0.90740 0.52469 0.80511
 C452 C 0.84262 0.47239 0.74191
 C453 C 0.82907 0.45617 0.74388
 C454 C 0.84507 0.44661 0.77349
 C455 C 0.85839 0.46327 0.77107
 N456 N 0.85741 0.47612 0.75524
 H457 H 0.88212 0.53223 0.78659
 H458 H 0.91274 0.48078 0.76949
 H459 H 0.93639 0.48516 0.79665
 H460 H 0.90537 0.53745 0.81447
 H461 H 0.84099 0.48219 0.72941
 H462 H 0.81773 0.45493 0.73276
 H463 H 0.84705 0.43703 0.78610
 H464 H 0.86967 0.46563 0.78211
 C465 C 0.82940 0.55970 0.73926
 C466 C 0.92112 0.48610 0.69091
 C467 C 0.82982 0.44219 0.75968
 C468 C 0.92367 0.51191 0.80879
 C469 C 0.22016 0.40718 0.00999
 H470 H 0.22795 0.40900 0.02380
 C471 C 0.20328 0.41978 0.00608
 H472 H 0.19890 0.43037 0.01720
 C473 C 0.21632 0.39154 -0.02041
 H474 H 0.22100 0.38083 -0.03128
 C475 C 0.19950 0.40375 -0.02481
 H476 H 0.19250 0.40164 -0.03898
 N477 N 0.22670 0.39293 -0.00306
 C478 C 0.25923 0.34039 0.03351
 H479 H 0.27241 0.33765 0.02493
 C480 C 0.25529 0.32783 0.05042
 H481 H 0.26580 0.31638 0.05406
 C482 C 0.23031 0.35813 0.03920
 H483 H 0.22001 0.36966 0.03525
 C484 C 0.22602 0.34612 0.05621
 H485 H 0.21258 0.34925 0.06422
 Zn486 Zn 0.25203 0.37409 0.00214
 N487 N 0.24691 0.35562 0.02781
 C488 C 0.28987 0.39288 0.02235
 N489 N 0.27733 0.39322 0.00626
 C490 C 0.28128 0.40749 -0.00761
 C491 C 0.29705 0.42157 -0.00555
 C492 C 0.30608 0.40668 0.02483
 C493 C 0.24261 0.34030 -0.02686
 C494 C 0.24468 0.32630 -0.04271
 C495 C 0.27482 0.34152 -0.05193
 C496 C 0.27232 0.35526 -0.03566
 N497 N 0.25634 0.35471 -0.02299
 H498 H 0.28738 0.38197 0.03372
 H499 H 0.27190 0.40838 -0.02049
 H500 H 0.29890 0.43234 -0.01719
 H501 H 0.31502 0.40570 0.03802
 H502 H 0.22978 0.33927 -0.01742
 H503 H 0.23310 0.31547 -0.04451
 H504 H 0.28791 0.34269 -0.06099
 H505 H 0.28357 0.36633 -0.03328
 C506 C 0.23844 0.33038 0.06270
 C507 C 0.19201 0.41838 -0.01160
 C508 C 0.26106 0.32615 -0.05595
 C509 C 0.31014 0.42193 0.01094
 C510 C 0.71814 0.09313 -0.01207
 H511 H 0.72721 0.09246 -0.02519
 C512 C 0.70182 0.07966 -0.01033
 H513 H 0.69967 0.06933 -0.02228
 C514 C 0.71086 0.10657 0.01874
 H515 H 0.71397 0.11689 0.03051
 C516 C 0.69423 0.09321 0.02103
 H517 H 0.68541 0.09421 0.03430
 N518 N 0.72280 0.10676 0.00220
 C519 C 0.75556 0.16035 -0.03283
 H520 H 0.76859 0.16287 -0.02396
 C521 C 0.75206 0.17318 -0.04964
 H522 H 0.76270 0.18463 -0.05286
 C523 C 0.72673 0.14279 -0.03944
 H524 H 0.71634 0.13120 -0.03595
 C525 C 0.72288 0.15507 -0.05638
 H526 H 0.70964 0.15209 -0.06478
 Zn527 Zn 0.74803 0.12596 -0.00231
 N528 N 0.74308 0.14506 -0.02764
 C529 C 0.78379 0.10821 -0.02485
 N530 N 0.77352 0.10721 -0.00739
 C531 C 0.78027 0.09333 0.00597
 C532 C 0.79720 0.08073 0.00225
 C533 C 0.80065 0.09597 -0.02906
 C534 C 0.73963 0.15828 0.03003
 C535 C 0.74376 0.17134 0.04648
 C536 C 0.77540 0.15658 0.04925
 C537 C 0.77075 0.14385 0.03291
 N538 N 0.75307 0.14461 0.02305
 H539 H 0.77896 0.11861 -0.03594
 H540 H 0.77261 0.09183 0.01989
 H541 H 0.80172 0.07046 0.01361
 H542 H 0.80749 0.09774 -0.04335
 H543 H 0.72549 0.15948 0.02273
 H544 H 0.73262 0.18191 0.05083
 H545 H 0.78968 0.15474 0.05610
 H546 H 0.78176 0.13336 0.02806
 C547 C 0.73549 0.17087 -0.06236
 C548 C 0.68885 0.07920 0.00629
 C549 C 0.76214 0.17119 0.05665
 C550 C 0.80834 0.08170 -0.01555
 C551 C 0.21886 0.59165 0.48920
 H552 H 0.22712 0.59146 0.47554
 C553 C 0.20216 0.57869 0.49115
 H554 H 0.19879 0.56920 0.47879
 C555 C 0.21379 0.60361 0.52108
 H556 H 0.21793 0.61317 0.53316
 C557 C 0.19692 0.59068 0.52364
 H558 H 0.18890 0.59121 0.53743
 N559 N 0.22476 0.60429 0.50390
 C560 C 0.26004 0.65582 0.46968
 H561 H 0.27317 0.65644 0.47873
 C562 C 0.25837 0.66924 0.45332
 H563 H 0.27039 0.67947 0.45105
 C564 C 0.22914 0.64251 0.46243
 H565 H 0.21733 0.63225 0.46558
 C566 C 0.22690 0.65584 0.44580
 H567 H 0.21363 0.65491 0.43698
 Zn568 Zn 0.25014 0.62308 0.49947
 N569 N 0.24570 0.64228 0.47434
 C570 C 0.28696 0.60686 0.47770
 N571 N 0.27571 0.60450 0.49441
 C572 C 0.28162 0.58952 0.50693
 C573 C 0.29863 0.57707 0.50309
 C574 C 0.30405 0.59495 0.47348
 C575 C 0.23973 0.65511 0.52952
 C576 C 0.24122 0.66853 0.54586
 C577 C 0.27296 0.65567 0.55326
 C578 C 0.27091 0.64235 0.53661
 N579 N 0.25431 0.64188 0.52478
 H580 H 0.28285 0.61820 0.46725
 H581 H 0.27318 0.58694 0.52023
 H582 H 0.30246 0.56583 0.51376
 H583 H 0.31194 0.59794 0.45994
 H584 H 0.22657 0.65551 0.52049
 H585 H 0.22904 0.67856 0.54815
 H586 H 0.28627 0.65496 0.56202
 H587 H 0.28289 0.63233 0.53336
 C588 C 0.24173 0.66973 0.44040
 C589 C 0.19024 0.57774 0.50850
 C590 C 0.25790 0.66928 0.55871
 C591 C 0.31077 0.57950 0.48611
 C592 C 0.71999 0.90866 0.50863
 H593 H 0.72863 0.90924 0.52204
 C594 C 0.70395 0.92239 0.50631
 H595 H 0.70120 0.93250 0.51835
 C596 C 0.71324 0.89498 0.47780
 H597 H 0.71651 0.88452 0.46620
 C598 C 0.69689 0.90857 0.47494
 H599 H 0.68867 0.90788 0.46128
 N600 N 0.72496 0.89500 0.49450
 C601 C 0.75749 0.84174 0.53011
 H602 H 0.77053 0.83909 0.52129
 C603 C 0.75388 0.82909 0.54701
 H604 H 0.76446 0.81762 0.55038
 C605 C 0.72871 0.85949 0.53647
 H606 H 0.71837 0.87108 0.53284
 C607 C 0.72475 0.84738 0.55350
 H608 H 0.71150 0.85049 0.56183
 Zn609 Zn 0.75022 0.87586 0.49932
 N610 N 0.74508 0.85703 0.52475
 C611 C 0.78585 0.89314 0.52212
 N612 N 0.77574 0.89446 0.50459
 C613 C 0.78262 0.90855 0.49153
 C614 C 0.79953 0.92107 0.49563
 C615 C 0.80270 0.90525 0.52669
 C616 C 0.74088 0.84267 0.46985
 C617 C 0.74319 0.82867 0.45407
 C618 C 0.77392 0.84333 0.44585
 C619 C 0.77116 0.85708 0.46204
 N620 N 0.75478 0.85679 0.47417
 H621 H 0.78091 0.88256 0.53300
 H622 H 0.77508 0.91031 0.47757
 H623 H 0.80417 0.93154 0.48450
 H624 H 0.80948 0.90319 0.54097
 H625 H 0.72776 0.84186 0.47891
 H626 H 0.73149 0.81804 0.45187
 H627 H 0.78732 0.84424 0.43723
 H628 H 0.78255 0.86790 0.46485
 C629 C 0.73729 0.83160 0.55965
 C630 C 0.69173 0.92318 0.48915
 C631 C 0.76000 0.82824 0.44140
 C632 C 0.81050 0.91975 0.51351
 C633 C 0.00530 0.22017 0.41097
 H634 H 0.01765 0.23008 0.41296
 C635 C 0.00263 0.20438 0.42493
 H636 H 0.01325 0.20308 0.43677
 C637 C -0.02281 0.21024 0.39375
 H638 H -0.03322 0.21219 0.38181
 C639 C -0.02582 0.19398 0.40736
 H640 H -0.03847 0.18446 0.40523
 N641 N -0.00736 0.22345 0.39548
 C642 C 0.02908 0.25623 0.34314
 H643 H 0.02113 0.26992 0.34115
 C644 C 0.04566 0.25212 0.33024
 H645 H 0.04944 0.26282 0.31901
 C646 C 0.03345 0.22619 0.35935
 H647 H 0.02918 0.21563 0.37053
 C648 C 0.04997 0.22158 0.34683
 H649 H 0.05751 0.20780 0.34952
 Zn650 Zn -0.00261 0.24855 0.37630
 N651 N 0.02277 0.24334 0.35763
 C652 C 0.01853 0.28594 0.39130
 N653 N 0.00251 0.27405 0.39475
 C654 C -0.00906 0.27923 0.41073
 C655 C -0.00459 0.29584 0.42349
 C656 C 0.02331 0.30264 0.40347
 C657 C -0.03078 0.23945 0.34231
 C658 C -0.04672 0.24113 0.32845
 C659 C -0.05721 0.27052 0.34436
 C660 C -0.04078 0.26843 0.35795
 N661 N -0.02764 0.25285 0.35715
 H662 H 0.02801 0.28261 0.37891
 H663 H -0.02184 0.27028 0.41409
 H664 H -0.01414 0.29865 0.43597
 H665 H 0.03598 0.31126 0.39911
 H666 H -0.02067 0.22718 0.34086
 H667 H -0.04744 0.23005 0.31704
 H668 H -0.06707 0.28294 0.34615
 H669 H -0.03881 0.27950 0.36927
 C670 C 0.05672 0.23429 0.33141
 C671 C -0.01322 0.19057 0.42381
 C672 C -0.06099 0.25666 0.32900
 C673 C 0.01214 0.30820 0.42050
 C674 C -0.00657 0.71832 0.09122
 H675 H -0.01990 0.72672 0.08867
 C676 C -0.00265 0.70137 0.07867
 H677 H -0.01331 0.69759 0.06740
 C678 C 0.02265 0.71297 0.10855
 H679 H 0.03306 0.71702 0.11996
 C680 C 0.02693 0.69594 0.09654
 H681 H 0.04049 0.68807 0.09952
 N682 N 0.00592 0.72421 0.10625
 C683 C -0.02927 0.75885 0.15814
 H684 H -0.02049 0.77216 0.15875
 C685 C -0.04530 0.75666 0.17191
 H686 H -0.04790 0.76873 0.18200
 C687 C -0.03639 0.72815 0.14436
 H688 H -0.03329 0.71657 0.13383
 C689 C -0.05271 0.72541 0.15803
 H690 H -0.06107 0.71183 0.15732
 Zn691 Zn 0.00069 0.74971 0.12510
 N692 N -0.02452 0.74476 0.14436
 C693 C -0.02117 0.78697 0.11040
 N694 N -0.00510 0.77525 0.10654
 C695 C 0.00608 0.78081 0.09039
 C696 C 0.00119 0.79759 0.07794
 C697 C -0.02633 0.80384 0.09859
 C698 C 0.03025 0.74155 0.15897
 C699 C 0.04617 0.74419 0.17283
 C700 C 0.05512 0.77383 0.15655
 C701 C 0.03876 0.77079 0.14300
 N702 N 0.02617 0.75476 0.14411
 H703 H -0.03039 0.78342 0.12292
 H704 H 0.01892 0.77209 0.08667
 H705 H 0.01052 0.80069 0.06536
 H706 H -0.03895 0.81224 0.10343
 H707 H 0.02088 0.72872 0.16052
 H708 H 0.04808 0.73303 0.18407
 H709 H 0.06408 0.78694 0.15489
 H710 H 0.03622 0.78168 0.13161
 C711 C -0.05770 0.73963 0.17271
 C712 C 0.01435 0.68923 0.08101
 C713 C 0.05935 0.76063 0.17237
 C714 C -0.01557 0.80984 0.08143
 C715 C 0.49107 0.22117 0.59219
 H716 H 0.47817 0.23010 0.58927
 C717 C 0.49483 0.20428 0.57959
 H718 H 0.48448 0.20100 0.56788
 C719 C 0.51944 0.21457 0.61053
 H720 H 0.52954 0.21815 0.62236
 C721 C 0.52354 0.19755 0.59849
 H722 H 0.53666 0.18912 0.60185
 N723 N 0.50320 0.22639 0.60773
 C724 C 0.46850 0.25871 0.66133
 H725 H 0.47814 0.27100 0.66462
 C726 C 0.45175 0.25518 0.67416
 H727 H 0.44925 0.26511 0.68641
 C728 C 0.46010 0.23158 0.64187
 H729 H 0.46290 0.22190 0.62950
 C730 C 0.44315 0.22778 0.65410
 H731 H 0.43393 0.21531 0.65032
 Zn732 Zn 0.49805 0.25185 0.62631
 N733 N 0.47276 0.24708 0.64514
 C734 C 0.47685 0.28864 0.60670
 N735 N 0.49354 0.27692 0.60706
 C736 C 0.50794 0.28174 0.59364
 C737 C 0.50624 0.29813 0.58026
 C738 C 0.47455 0.30525 0.59337
 C739 C 0.52876 0.24524 0.66072
 C740 C 0.54541 0.24960 0.67348
 C741 C 0.55177 0.27803 0.65407
 C742 C 0.53504 0.27335 0.64191
 N743 N 0.52335 0.25711 0.64504
 H744 H 0.46500 0.28535 0.61686
 H745 H 0.52117 0.27282 0.59311
 H746 H 0.51834 0.30062 0.57018
 H747 H 0.46119 0.31394 0.59420
 H748 H 0.52002 0.23225 0.66381
 H749 H 0.54844 0.23979 0.68570
 H750 H 0.56021 0.29089 0.64994
 H751 H 0.53155 0.28307 0.62975
 C752 C 0.43816 0.23953 0.67085
 C753 C 0.51129 0.19155 0.58244
 C754 C 0.55758 0.26653 0.67078
 C755 C 0.48946 0.31085 0.57964
 C756 C 0.50807 0.72270 0.90657
 H757 H 0.52085 0.73219 0.90776
 C758 C 0.50586 0.70686 0.92052
 H759 H 0.51729 0.70507 0.93151
 C760 C 0.47855 0.71384 0.89121
 H761 H 0.46744 0.71623 0.88001
 C762 C 0.47591 0.69759 0.90490
 H763 H 0.46284 0.68850 0.90358
 N764 N 0.49450 0.72652 0.89199
 C765 C 0.53090 0.75947 0.83999
 H766 H 0.52313 0.77326 0.83801
 C767 C 0.54748 0.75516 0.82714
 H768 H 0.55144 0.76583 0.81595
 C769 C 0.53483 0.72932 0.85613
 H770 H 0.53037 0.71877 0.86724
 C771 C 0.55134 0.72454 0.84369
 H772 H 0.55870 0.71066 0.84642
 Zn773 Zn 0.49893 0.75165 0.87289
 N774 N 0.52437 0.74659 0.85439
 C775 C 0.51876 0.79011 0.89074
 N776 N 0.50320 0.77696 0.89174
 C777 C 0.48989 0.78022 0.90663
 C778 C 0.49164 0.79628 0.92035
 C779 C 0.52092 0.80666 0.90418
 C780 C 0.46973 0.74223 0.83939
 C781 C 0.45382 0.74445 0.82551
 C782 C 0.44472 0.77448 0.84109
 C783 C 0.46106 0.77184 0.85467
 N784 N 0.47369 0.75585 0.85387
 H785 H 0.52978 0.78805 0.87938
 H786 H 0.47766 0.77009 0.90827
 H787 H 0.48063 0.79708 0.93183
 H788 H 0.53332 0.81652 0.90223
 H789 H 0.47918 0.72942 0.83818
 H790 H 0.45194 0.73302 0.81454
 H791 H 0.43569 0.78758 0.84241
 H792 H 0.46356 0.78300 0.86581
 C793 C 0.55828 0.73718 0.82832
 C794 C 0.48949 0.69363 0.92043
 C795 C 0.44063 0.76086 0.82563
 C796 C 0.50715 0.81057 0.91959
 C797 C 0.12781 0.22883 0.27334
 C798 C 0.12102 0.21039 0.27822
 C799 C 0.12997 0.19341 0.27064
 C800 C 0.14651 0.19511 0.25782
 C801 C 0.15486 0.21360 0.25204
 C802 C 0.14475 0.23092 0.26008
 O803 O 0.11688 0.24300 0.28246
 C804 C 0.10301 0.23324 0.29323
 C805 C 0.10507 0.21323 0.29100
 C806 C 0.09242 0.20010 0.30069
 C807 C 0.07723 0.20744 0.31319
 C808 C 0.07401 0.22800 0.31670
 C809 C 0.08744 0.24112 0.30598
 H810 H 0.12435 0.17898 0.27452
 H811 H 0.15273 0.18155 0.25215
 H812 H 0.15009 0.24551 0.25645
 H813 H 0.09414 0.18436 0.29864
 H814 H 0.06765 0.19665 0.31995
 H815 H 0.08604 0.25692 0.30770
 C816 C 0.62941 0.73074 0.77052
 C817 C 0.62243 0.71239 0.77547
 C818 C 0.63125 0.69528 0.76803
 C819 C 0.64785 0.69677 0.75526
 C820 C 0.65635 0.71515 0.74941
 C821 C 0.64638 0.73261 0.75730
 O822 O 0.61860 0.74507 0.77954
 C823 C 0.60461 0.73550 0.79030
 C824 C 0.60647 0.71546 0.78817
 C825 C 0.59366 0.70249 0.79784
 C826 C 0.57850 0.71004 0.81024
 C827 C 0.57551 0.73065 0.81368
 C828 C 0.58910 0.74359 0.80297
 H829 H 0.62549 0.68093 0.77198
 H830 H 0.65399 0.68313 0.74970
 H831 H 0.65186 0.74713 0.75360
 H832 H 0.59521 0.68673 0.79585
 H833 H 0.56876 0.69937 0.81698
 H834 H 0.58786 0.75941 0.80463
 C835 C 0.36634 0.77864 0.77462
 C836 C 0.38099 0.77024 0.76345
 C837 C 0.37823 0.76655 0.74334
 C838 C 0.35994 0.77131 0.73423
 C839 C 0.34357 0.77965 0.74465
 C840 C 0.34736 0.78360 0.76555
 O841 O 0.37243 0.78094 0.79362
 C842 C 0.39121 0.77381 0.79433
 C843 C 0.39695 0.76706 0.77613
 C844 C 0.41567 0.75883 0.77324
 C845 C 0.42903 0.75725 0.78936
 C846 C 0.42445 0.76381 0.80886
 C847 C 0.40481 0.77255 0.81105
 H848 H 0.39002 0.76016 0.73468
 H849 H 0.35880 0.76857 0.71857
 H850 H 0.33584 0.78999 0.77456
 H851 H 0.41998 0.75362 0.75878
 H852 H 0.44340 0.75099 0.78635
 H853 H 0.40013 0.77788 0.82535
 C854 C -0.13193 0.27783 0.27434
 C855 C -0.12726 0.25819 0.27309
 C856 C -0.13759 0.24557 0.26056
 C857 C -0.15307 0.25304 0.24862
 C858 C -0.15909 0.27336 0.24851
 C859 C -0.14810 0.28585 0.26240
 O860 O -0.11973 0.28709 0.28737
 C861 C -0.10731 0.27292 0.29438
 C862 C -0.11157 0.25501 0.28602
 C863 C -0.10102 0.23806 0.29110
 C864 C -0.08540 0.23924 0.30501
 C865 C -0.07932 0.25726 0.31420
 C866 C -0.09113 0.27452 0.30863
 H867 H -0.13387 0.23005 0.25999
 H868 H -0.16088 0.24218 0.23998
 H869 H -0.15153 0.30139 0.26349
 H870 H -0.10483 0.22399 0.28458
 H871 H -0.07824 0.22551 0.30877
 H872 H -0.08773 0.28876 0.31497
 C873 C -0.13144 0.72038 0.22472
 C874 C -0.11822 0.73206 0.23460
 C875 C -0.12193 0.73835 0.25382
 C876 C -0.13975 0.73291 0.26342
 C877 C -0.15496 0.72115 0.25443
 C878 C -0.14997 0.71446 0.23437
 O879 O -0.12451 0.71611 0.20631
 C880 C -0.10665 0.72530 0.20475
 C881 C -0.10233 0.73520 0.22184
 C882 C -0.08472 0.74577 0.22388
 C883 C -0.07101 0.74654 0.20801
 C884 C -0.07416 0.73701 0.18944
 C885 C -0.09269 0.72585 0.18819
 H886 H -0.11114 0.74724 0.26154
 H887 H -0.14087 0.73757 0.27858
 H888 H -0.16029 0.70538 0.22628
 H889 H -0.08147 0.75334 0.23756
 H890 H -0.05748 0.75458 0.21058
 H891 H -0.09627 0.71809 0.17472
 C892 C 0.37208 0.22938 0.73383
 C893 C 0.36520 0.22502 0.71529
 C894 C 0.34572 0.21896 0.71233
 C895 C 0.33279 0.21695 0.72873
 C896 C 0.33862 0.22064 0.74867
 C897 C 0.35902 0.22737 0.75095
 O898 O 0.39136 0.23500 0.73303
 C899 C 0.39659 0.23409 0.71364
 C900 C 0.38098 0.22795 0.70232
 C901 C 0.38289 0.22560 0.68189
 C902 C 0.40130 0.22950 0.67257
 C903 C 0.41841 0.23597 0.68304
 C904 C 0.41557 0.23844 0.70431
 H905 H 0.34046 0.21576 0.69760
 H906 H 0.31780 0.21241 0.72563
 H907 H 0.36468 0.23049 0.76554
 H908 H 0.37042 0.22076 0.67318
 H909 H 0.40203 0.22765 0.65673
 H910 H 0.42781 0.24325 0.71336
 C911 C 0.62789 0.27354 0.72982
 C912 C 0.62354 0.29138 0.72135
 C913 C 0.63436 0.30826 0.72592
 C914 C 0.65038 0.30710 0.73934
 C915 C 0.65650 0.28919 0.74888
 C916 C 0.64420 0.27202 0.74399
 O917 O 0.61542 0.25934 0.72294
 C918 C 0.60306 0.26856 0.71002
 C919 C 0.60756 0.28823 0.70876
 C920 C 0.59676 0.30092 0.69663
 C921 C 0.58090 0.29344 0.68515
 C922 C 0.57527 0.27309 0.68492
 C923 C 0.58685 0.26050 0.69819
 H924 H 0.63049 0.32228 0.71932
 H925 H 0.65742 0.32097 0.74276
 H926 H 0.64752 0.25782 0.75047
 H927 H 0.60036 0.31646 0.69608
 H928 H 0.57276 0.30411 0.67657
 H929 H 0.58354 0.24492 0.69913
 C930 C 0.13374 0.77960 0.22350
 C931 C 0.11901 0.77144 0.23475
 C932 C 0.12170 0.76818 0.25495
 C933 C 0.13997 0.77310 0.26407
 C934 C 0.15646 0.78120 0.25365
 C935 C 0.15274 0.78473 0.23260
 O936 O 0.12770 0.78149 0.20439
 C937 C 0.10890 0.77435 0.20371
 C938 C 0.10308 0.76799 0.22202
 C939 C 0.08433 0.75981 0.22495
 C940 C 0.07101 0.75787 0.20880
 C941 C 0.07561 0.76402 0.18915
 C942 C 0.09531 0.77272 0.18692
 H943 H 0.10987 0.76197 0.26368
 H944 H 0.14103 0.77062 0.27980
 H945 H 0.16433 0.79089 0.22353
 H946 H 0.07994 0.75490 0.23950
 H947 H 0.05665 0.75165 0.21190
 H948 H 0.10006 0.77775 0.17254
 C949 C 0.27711 0.13283 0.22189
 C950 C 0.26572 0.11748 0.22858
 C951 C 0.24532 0.11956 0.23079
 C952 C 0.23612 0.13788 0.22635
 C953 C 0.24669 0.15494 0.21980
 C954 C 0.26794 0.15188 0.21729
 O955 O 0.29640 0.12731 0.22083
 C956 C 0.29705 0.10819 0.22700
 C957 C 0.27854 0.10167 0.23196
 C958 C 0.27553 0.08250 0.23902
 C959 C 0.29183 0.06946 0.24125
 C960 C 0.31165 0.07481 0.23648
 C961 C 0.31399 0.09492 0.22892
 H962 H 0.23652 0.10724 0.23586
 H963 H 0.22027 0.13858 0.22801
 H964 H 0.27708 0.16399 0.21235
 H965 H 0.26082 0.07759 0.24285
 H966 H 0.28876 0.05474 0.24661
 H967 H 0.32853 0.10019 0.22500
 C968 C 0.77835 0.63379 0.72010
 C969 C 0.76685 0.61853 0.72683
 C970 C 0.74645 0.62071 0.72886
 C971 C 0.73734 0.63902 0.72419
 C972 C 0.74800 0.65601 0.71758
 C973 C 0.76927 0.65284 0.71527
 O974 O 0.79763 0.62817 0.71924
 C975 C 0.79818 0.60910 0.72558
 C976 C 0.77960 0.60270 0.73046
 C977 C 0.77648 0.58360 0.73768
 C978 C 0.79272 0.57051 0.74016
 C979 C 0.81260 0.57572 0.73547
 C980 C 0.81506 0.59576 0.72775
 H981 H 0.73756 0.60847 0.73397
 H982 H 0.72148 0.63979 0.72573
 H983 H 0.77850 0.66488 0.71031
 H984 H 0.76173 0.57878 0.74145
 H985 H 0.78955 0.55585 0.74563
 H986 H 0.82965 0.60094 0.72388
 C987 C 0.77588 0.37044 0.78126
 C988 C 0.77546 0.37444 0.76143
 C989 C 0.76377 0.36342 0.74860
 C990 C 0.75175 0.34800 0.75604
 C991 C 0.75060 0.34268 0.77654
 C992 C 0.76380 0.35426 0.78929
 O993 O 0.78824 0.38329 0.79063
 C994 C 0.79564 0.39542 0.77633
 C995 C 0.78816 0.39034 0.75826
 C996 C 0.79368 0.40048 0.74117
 C997 C 0.80711 0.41653 0.74236
 C998 C 0.81544 0.42345 0.76048
 C999 C 0.80945 0.41204 0.77793
 H1000 H 0.76389 0.36659 0.73295
 H1001 H 0.74378 0.33964 0.74505
 H1002 H 0.76413 0.35135 0.80497
 H1003 H 0.78782 0.39605 0.72699
 H1004 H 0.81121 0.42337 0.72856
 H1005 H 0.81513 0.41609 0.79228
 C1006 C 0.26931 -0.12744 0.27052
 C1007 C 0.28680 -0.13212 0.27956
 C1008 C 0.28931 -0.15015 0.28908
 C1009 C 0.27354 -0.16389 0.28987
 C1010 C 0.25429 -0.16043 0.28160
 C1011 C 0.25272 -0.14149 0.27108
 O1012 O 0.27058 -0.10916 0.26214
 C1013 C 0.28917 -0.10243 0.26607
 C1014 C 0.29951 -0.11614 0.27673
 C1015 C 0.31898 -0.11263 0.28263
 C1016 C 0.32836 -0.09451 0.27772
 C1017 C 0.31892 -0.07912 0.26684
 C1018 C 0.29862 -0.08367 0.26073
 H1019 H 0.30338 -0.15380 0.29571
 H1020 H 0.27716 -0.17787 0.29655
 H1021 H 0.23894 -0.13749 0.26409
 H1022 H 0.32694 -0.12371 0.29093
 H1023 H 0.34352 -0.09274 0.28237
 H1024 H 0.29034 -0.07287 0.25238
 C1025 C 0.23051 -0.12782 0.72942
 C1026 C 0.21195 -0.13425 0.72446
 C1027 C 0.20881 -0.15352 0.71781
 C1028 C 0.22502 -0.16668 0.71584
 C1029 C 0.24499 -0.16129 0.72011
 C1030 C 0.24744 -0.14112 0.72744
 O1031 O 0.22989 -0.10870 0.73557
 C1032 C 0.21062 -0.10311 0.73440
 C1033 C 0.19918 -0.11835 0.72758
 C1034 C 0.17884 -0.11603 0.72486
 C1035 C 0.16973 -0.09759 0.72911
 C1036 C 0.18034 -0.08085 0.73629
 C1037 C 0.20151 -0.08411 0.73911
 H1038 H 0.19406 -0.15844 0.71419
 H1039 H 0.22172 -0.18151 0.71096
 H1040 H 0.26204 -0.13580 0.73107
 H1041 H 0.17003 -0.12821 0.71949
 H1042 H 0.15395 -0.09656 0.72697
 H1043 H 0.21065 -0.07218 0.74447
 C1044 C 0.72519 0.36688 0.22018
 C1045 C 0.73616 0.38121 0.22936
 C1046 C 0.75611 0.37819 0.23367
 C1047 C 0.76526 0.35996 0.22872
 C1048 C 0.75505 0.34392 0.21954
 C1049 C 0.73431 0.34798 0.21500
 O1050 O 0.70631 0.37316 0.21740
 C1051 C 0.70547 0.39175 0.22499
 C1052 C 0.72347 0.39719 0.23250
 C1053 C 0.72619 0.41569 0.24126
 C1054 C 0.71012 0.42913 0.24260
 C1055 C 0.69079 0.42485 0.23532
 C1056 C 0.68879 0.40543 0.22604
 H1057 H 0.76462 0.38973 0.24068
 H1058 H 0.78082 0.35864 0.23196
 H1059 H 0.72546 0.33673 0.20796
 H1060 H 0.74050 0.41978 0.24703
 H1061 H 0.71305 0.44333 0.24926
 H1062 H 0.67465 0.40098 0.22013
 C1063 C 0.73337 0.62657 0.26917
 C1064 C 0.71476 0.63329 0.27353
 C1065 C 0.71165 0.65279 0.27948
 C1066 C 0.72793 0.66591 0.28136
 C1067 C 0.74794 0.66028 0.27767
 C1068 C 0.75038 0.63983 0.27106
 O1069 O 0.73271 0.60724 0.26367
 C1070 C 0.71337 0.60180 0.26466
 C1071 C 0.70193 0.61735 0.27072
 C1072 C 0.68152 0.61523 0.27313
 C1073 C 0.67234 0.59671 0.26936
 C1074 C 0.68293 0.57964 0.26296
 C1075 C 0.70419 0.58269 0.26044
 H1076 H 0.69688 0.65793 0.28268
 H1077 H 0.72469 0.68089 0.28582
 H1078 H 0.76501 0.63429 0.26795
 H1079 H 0.67269 0.62765 0.27791
 H1080 H 0.65652 0.59586 0.27125
 H1081 H 0.71335 0.57052 0.25568
 C1082 C 0.22406 0.13042 0.78203
 C1083 C 0.23364 0.11741 0.76986
 C1084 C 0.25266 0.12123 0.76308
 C1085 C 0.26236 0.13896 0.76853
 C1086 C 0.25364 0.15393 0.78077
 C1087 C 0.23382 0.14883 0.78796
 O1088 O 0.20579 0.12343 0.78670
 C1089 C 0.20402 0.10575 0.77727
 C1090 C 0.22083 0.10159 0.76682
 C1091 C 0.22261 0.08418 0.75590
 C1092 C 0.20674 0.07049 0.75535
 C1093 C 0.18847 0.07352 0.76545
 C1094 C 0.18749 0.09182 0.77696
 H1095 H 0.26013 0.11058 0.75381
 H1096 H 0.27738 0.14021 0.76347
 H1097 H 0.22597 0.15901 0.79742
 H1098 H 0.23608 0.08108 0.74790
 H1099 H 0.20906 0.05710 0.74702
 H1100 H 0.17423 0.09526 0.78513
 C1101 C 0.22790 0.26856 0.13007
 C1102 C 0.22074 0.28666 0.13563
 C1103 C 0.21230 0.28945 0.15425
 C1104 C 0.21085 0.27335 0.16766
 C1105 C 0.21743 0.25379 0.16316
 C1106 C 0.22650 0.25175 0.14363
 O1107 O 0.23551 0.26943 0.11148
 C1108 C 0.23303 0.28841 0.10532
 C1109 C 0.22397 0.29941 0.11970
 C1110 C 0.21970 0.31939 0.11667
 C1111 C 0.22465 0.32857 0.09843
 C1112 C 0.23404 0.31841 0.08251
 C1113 C 0.23844 0.29762 0.08652
 H1114 H 0.20695 0.30388 0.15852
 H1115 H 0.20464 0.27652 0.18200
 H1116 H 0.23200 0.23751 0.13899
 H1117 H 0.21262 0.32789 0.12819
 H1118 H 0.22126 0.34409 0.09693
 H1119 H 0.24553 0.28879 0.07527
 C1120 C 0.72820 0.76954 0.62702
 C1121 C 0.72137 0.78768 0.63286
 C1122 C 0.71351 0.79047 0.65173
 C1123 C 0.71229 0.77433 0.66510
 C1124 C 0.71853 0.75472 0.66033
 C1125 C 0.72703 0.75267 0.64054
 O1126 O 0.73528 0.77044 0.60822
 C1127 C 0.73278 0.78947 0.60222
 C1128 C 0.72424 0.80047 0.61690
 C1129 C 0.72002 0.82050 0.61408
 C1130 C 0.72449 0.82972 0.59573
 C1131 C 0.73336 0.81956 0.57951
 C1132 C 0.73771 0.79872 0.58330
 H1133 H 0.70841 0.80492 0.65621
 H1134 H 0.70650 0.77747 0.67962
 H1135 H 0.73224 0.73840 0.63568
 H1136 H 0.71333 0.82899 0.62583
 H1137 H 0.72116 0.84526 0.59438
 H1138 H 0.74442 0.78989 0.57182
 C1139 C 0.77874 0.77634 0.36794
 C1140 C 0.76929 0.76556 0.38223
 C1141 C 0.76491 0.74561 0.37932
 C1142 C 0.77008 0.73626 0.36126
 C1143 C 0.77954 0.74628 0.34526
 C1144 C 0.78415 0.76703 0.34920
 O1145 O 0.78156 0.79526 0.37411
 C1146 C 0.77369 0.79630 0.39257
 C1147 C 0.76597 0.77840 0.39804
 C1148 C 0.75690 0.77589 0.41641
 C1149 C 0.75545 0.79209 0.42969
 C1150 C 0.76294 0.81131 0.42536
 C1151 C 0.77254 0.81310 0.40609
 H1152 H 0.75768 0.73724 0.39084
 H1153 H 0.76678 0.72071 0.36005
 H1154 H 0.79141 0.77574 0.33798
 H1155 H 0.75095 0.76166 0.42053
 H1156 H 0.74852 0.78935 0.44380
 H1157 H 0.77863 0.82716 0.40161
 C1158 C 0.27836 0.27449 -0.13012
 C1159 C 0.26940 0.26359 -0.11560
 C1160 C 0.26516 0.24360 -0.11843
 C1161 C 0.26996 0.23431 -0.13665
 C1162 C 0.27890 0.24442 -0.15290
 C1163 C 0.28337 0.26524 -0.14902
 O1164 O 0.28114 0.29343 -0.12398
 C1165 C 0.27375 0.29438 -0.10530
 C1166 C 0.26638 0.27639 -0.09966
 C1167 C 0.25784 0.27378 -0.08104
 C1168 C 0.25658 0.28994 -0.06768
 C1169 C 0.26375 0.30927 -0.07215
 C1170 C 0.27280 0.31116 -0.09170
 H1171 H 0.25834 0.23513 -0.10674
 H1172 H 0.26681 0.21872 -0.13776
 H1173 H 0.29025 0.27404 -0.16041
 H1174 H 0.25216 0.25947 -0.07678
 H1175 H 0.25008 0.28709 -0.05339
 H1176 H 0.27862 0.32528 -0.09631
 C1177 C 0.72682 0.23360 -0.12925
 C1178 C 0.71990 0.21554 -0.13525
 C1179 C 0.71206 0.21296 -0.15416
 C1180 C 0.71095 0.22922 -0.16740
 C1181 C 0.71728 0.24876 -0.16248
 C1182 C 0.72576 0.25059 -0.14264
 O1183 O 0.73387 0.23250 -0.11044
 C1184 C 0.73126 0.21343 -0.10460
 C1185 C 0.72268 0.20259 -0.11939
 C1186 C 0.71836 0.18256 -0.11674
 C1187 C 0.72275 0.17316 -0.09846
 C1188 C 0.73165 0.18312 -0.08213
 C1189 C 0.73612 0.20398 -0.08575
 H1190 H 0.70690 0.19857 -0.15878
 H1191 H 0.70517 0.22622 -0.18196
 H1192 H 0.73103 0.26480 -0.13766
 H1193 H 0.71164 0.17420 -0.12857
 H1194 H 0.71934 0.15762 -0.09725
 H1195 H 0.74285 0.21267 -0.07418
 C1196 C 0.22025 0.72508 0.37017
 C1197 C 0.24030 0.72260 0.37158
 C1198 C 0.25314 0.73212 0.35852
 C1199 C 0.24546 0.74476 0.34362
 C1200 C 0.22487 0.74850 0.34105
 C1201 C 0.21203 0.73793 0.35485
 O1202 O 0.21083 0.71450 0.38441
 C1203 C 0.22525 0.70524 0.39491
 C1204 C 0.24350 0.70984 0.38747
 C1205 C 0.26067 0.70204 0.39587
 C1206 C 0.25936 0.68925 0.41247
 C1207 C 0.24109 0.68376 0.42149
 C1208 C 0.22356 0.69207 0.41195
 H1209 H 0.26890 0.72992 0.35976
 H1210 H 0.25598 0.75161 0.33376
 H1211 H 0.19622 0.73992 0.35397
 H1212 H 0.27495 0.70568 0.38972
 H1213 H 0.27306 0.68335 0.41810
 H1214 H 0.20910 0.68865 0.41776
 C1215 C 0.27898 0.72478 0.62877
 C1216 C 0.25894 0.72234 0.62726
 C1217 C 0.24604 0.73194 0.64020
 C1218 C 0.25366 0.74459 0.65510
 C1219 C 0.27426 0.74824 0.65777
 C1220 C 0.28715 0.73761 0.64409
 O1221 O 0.28848 0.71416 0.61462
 C1222 C 0.27410 0.70489 0.60410
 C1223 C 0.25581 0.70953 0.61141
 C1224 C 0.23868 0.70169 0.60300
 C1225 C 0.24008 0.68882 0.58648
 C1226 C 0.25840 0.68334 0.57755
 C1227 C 0.27588 0.69168 0.58712
 H1228 H 0.23028 0.72977 0.63888
 H1229 H 0.24312 0.75149 0.66491
 H1230 H 0.30296 0.73954 0.64508
 H1231 H 0.22438 0.70534 0.60908
 H1232 H 0.22640 0.68285 0.58086
 H1233 H 0.29037 0.68825 0.58139
 C1234 C 0.76804 0.22906 0.12779
 C1235 C 0.78627 0.22572 0.11963
 C1236 C 0.80323 0.23446 0.12750
 C1237 C 0.80173 0.24686 0.14436
 C1238 C 0.78350 0.25109 0.15405
 C1239 C 0.76615 0.24189 0.14508
 O1240 O 0.75388 0.21892 0.11779
 C1241 C 0.76344 0.20907 0.10311
 C1242 C 0.78331 0.21286 0.10377
 C1243 C 0.79624 0.20430 0.09015
 C1244 C 0.78884 0.19133 0.07539
 C1245 C 0.76844 0.18626 0.07358
 C1246 C 0.75550 0.19584 0.08800
 H1247 H 0.81749 0.23172 0.12086
 H1248 H 0.81523 0.25332 0.14995
 H1249 H 0.75177 0.24421 0.15159
 H1250 H 0.81186 0.20756 0.09079
 H1251 H 0.79941 0.18544 0.06501
 H1252 H 0.73983 0.19288 0.08769
 C1253 C 0.46817 0.38082 0.52394
 C1254 C 0.48813 0.37998 0.52725
 C1255 C 0.50097 0.39345 0.51834
 C1256 C 0.49340 0.40816 0.50544
 C1257 C 0.47291 0.41013 0.50083
 C1258 C 0.46004 0.39593 0.51079
 O1259 O 0.45874 0.36623 0.53404
 C1260 C 0.47307 0.35611 0.54384
 C1261 C 0.49128 0.36409 0.54004
 C1262 C 0.50836 0.35611 0.54843
 C1263 C 0.50703 0.33937 0.56102
 C1264 C 0.48882 0.32983 0.56575
 C1265 C 0.47135 0.33893 0.55684
 H1266 H 0.51666 0.39265 0.52117
 H1267 H 0.50389 0.41831 0.49896
 H1268 H 0.44432 0.39632 0.50807
 H1269 H 0.52260 0.36267 0.54538
 H1270 H 0.52064 0.33401 0.56739
 H1271 H 0.45694 0.33269 0.55964
 C1272 C -0.02440 0.88029 0.02252
 C1273 C -0.04159 0.87708 0.03264
 C1274 C -0.05815 0.88892 0.02942
 C1275 C -0.05734 0.90467 0.01555
 C1276 C -0.04012 0.90944 0.00416
 C1277 C -0.02328 0.89626 0.00796
 O1278 O -0.01033 0.86708 0.02821
 C1279 C -0.01895 0.85537 0.04211
 C1280 C -0.03814 0.86101 0.04513
 C1281 C -0.05017 0.85093 0.05851
 C1282 C -0.04251 0.83470 0.06940
 C1283 C -0.02255 0.82791 0.06782
 C1284 C -0.01068 0.83879 0.05332
 H1285 H -0.07168 0.88605 0.03741
 H1286 H -0.07097 0.91258 0.01346
 H1287 H -0.00952 0.89852 0.00021
 H1288 H -0.06538 0.85536 0.06048
 H1289 H -0.05280 0.82723 0.07896
 H1290 H 0.00454 0.83465 0.05092
 C1291 C 0.02452 0.62143 0.01943
 C1292 C 0.03208 0.61610 0.03744
 C1293 C 0.04074 0.59757 0.04021
 C1294 C 0.04200 0.58402 0.02420
 C1295 C 0.03501 0.58826 0.00471
 C1296 C 0.02573 0.60772 0.00271
 O1297 O 0.01671 0.63994 0.02032
 C1298 C 0.01948 0.64629 0.03920
 C1299 C 0.02890 0.63210 0.05013
 C1300 C 0.03350 0.63535 0.07002
 C1301 C 0.02852 0.65362 0.07915
 C1302 C 0.01876 0.66936 0.06907
 C1303 C 0.01403 0.66513 0.04838
 H1304 H 0.04640 0.59346 0.05456
 H1305 H 0.04836 0.56976 0.02742
 H1306 H 0.01988 0.61219 -0.01145
 H1307 H 0.04087 0.62398 0.07847
 H1308 H 0.03218 0.65526 0.09459
 H1309 H 0.00664 0.67622 0.03960
 C1310 C 0.52132 0.12448 0.52039
 C1311 C 0.52762 0.11847 0.53867
 C1312 C 0.53524 0.09953 0.54158
 C1313 C 0.53677 0.08625 0.52540
 C1314 C 0.53109 0.09120 0.50568
 C1315 C 0.52282 0.11106 0.50349
 O1316 O 0.51441 0.14333 0.52118
 C1317 C 0.51646 0.14920 0.54030
 C1318 C 0.52457 0.13438 0.55146
 C1319 C 0.52829 0.13705 0.57160
 C1320 C 0.52377 0.15539 0.58078
 C1321 C 0.51534 0.17172 0.57046
 C1322 C 0.51148 0.16810 0.54950
 H1323 H 0.53991 0.09493 0.55613
 H1324 H 0.54239 0.07166 0.52858
 H1325 H 0.51806 0.11604 0.48910
 H1326 H 0.53464 0.12519 0.58020
 H1327 H 0.52670 0.15664 0.59641
 H1328 H 0.50513 0.17970 0.54057
 C1329 C -0.03133 0.11628 0.47484
 C1330 C -0.02505 0.13170 0.48636
 C1331 C -0.02314 0.12961 0.50679
 C1332 C -0.02747 0.11121 0.51588
 C1333 C -0.03363 0.09409 0.50517
 C1334 C -0.03583 0.09715 0.48389
 O1335 O -0.03211 0.12183 0.45553
 C1336 C -0.02617 0.14103 0.45501
 C1337 C -0.02164 0.14758 0.47362
 C1338 C -0.01486 0.16683 0.47678
 C1339 C -0.01249 0.17993 0.46053
 C1340 C -0.01685 0.17455 0.44062
 C1341 C -0.02411 0.15435 0.43813
 H1342 H -0.01836 0.14197 0.51570
 H1343 H -0.02598 0.11044 0.53175
 H1344 H -0.04041 0.08499 0.47464
 H1345 H -0.01136 0.17176 0.49155
 H1346 H -0.00738 0.19470 0.46372
 H1347 H -0.02770 0.14905 0.42351
 C1348 C 0.47172 0.61958 0.97179
 C1349 C 0.48035 0.63418 0.98284
 C1350 C 0.48427 0.63143 1.00290
 C1351 C 0.47950 0.61318 1.01209
 C1352 C 0.47089 0.59687 1.00182
 C1353 C 0.46671 0.60065 0.98095
 O1354 O 0.46926 0.62564 0.95280
 C1355 C 0.47651 0.64436 0.95198
 C1356 C 0.48349 0.65009 0.97009
 C1357 C 0.49186 0.66877 0.97286
 C1358 C 0.49333 0.68209 0.95671
 C1359 C 0.48657 0.67750 0.93727
 C1360 C 0.47770 0.65791 0.93521
 H1361 H 0.49087 0.64318 1.01146
 H1362 H 0.48245 0.61202 1.02772
 H1363 H 0.46012 0.58917 0.97205
 H1364 H 0.49722 0.67308 0.98727
 H1365 H 0.49968 0.69643 0.95965
 H1366 H 0.47220 0.65324 0.92098
 C1367 C 0.52849 0.88198 0.97365
 C1368 C 0.50887 0.87730 0.97498
 C1369 C 0.49625 0.88770 0.98745
 C1370 C 0.50374 0.90328 0.99926
 C1371 C 0.52405 0.90932 0.99932
 C1372 C 0.53652 0.89826 0.98546
 O1373 O 0.53773 0.86968 0.96068
 C1374 C 0.52354 0.85719 0.95380
 C1375 C 0.50566 0.86151 0.96218
 C1376 C 0.48869 0.85091 0.95724
 C1377 C 0.48983 0.83517 0.94345
 C1378 C 0.50782 0.82903 0.93425
 C1379 C 0.52510 0.84089 0.93967
 H1380 H 0.48074 0.88398 0.98807
 H1381 H 0.49287 0.91115 1.00783
 H1382 H 0.55205 0.90172 0.98431
 H1383 H 0.47464 0.85476 0.96378
 H1384 H 0.47609 0.82798 0.93980
 H1385 H 0.53932 0.83744 0.93330
 C1386 C 0.01984 0.37798 0.48006
 C1387 C 0.03752 0.37389 0.47115
 C1388 C 0.05440 0.38482 0.47546
 C1389 C 0.05340 0.40067 0.48909
 C1390 C 0.03565 0.40652 0.49910
 C1391 C 0.01849 0.39411 0.49445
 O1392 O 0.00560 0.36544 0.47339
 C1393 C 0.01465 0.35330 0.46013
 C1394 C 0.03424 0.35802 0.45846
 C1395 C 0.04674 0.34747 0.44593
 C1396 C 0.03916 0.33165 0.43446
 C1397 C 0.01886 0.32582 0.43465
 C1398 C 0.00647 0.33714 0.44832
 H1399 H 0.06830 0.38116 0.46850
 H1400 H 0.06728 0.40778 0.49228
 H1401 H 0.00441 0.39722 0.50128
 H1402 H 0.06224 0.35122 0.44505
 H1403 H 0.04969 0.32371 0.42554
 H1404 H -0.00905 0.33366 0.44959
 C1405 C 0.37872 0.51831 0.47608
 C1406 C 0.38405 0.53636 0.46863
 C1407 C 0.40259 0.53924 0.46005
 C1408 C 0.41617 0.52328 0.45877
 C1409 C 0.41191 0.50377 0.46566
 C1410 C 0.39245 0.50164 0.47486
 O1411 O 0.36017 0.51908 0.48379
 C1412 C 0.35380 0.53796 0.48107
 C1413 C 0.36800 0.54898 0.47178
 C1414 C 0.36474 0.56887 0.46725
 C1415 C 0.34643 0.57791 0.47217
 C1416 C 0.33068 0.56770 0.48179
 C1417 C 0.33493 0.54702 0.48645
 H1418 H 0.40667 0.55364 0.45448
 H1419 H 0.43044 0.52653 0.45246
 H1420 H 0.38800 0.48744 0.48061
 H1421 H 0.37613 0.57739 0.45998
 H1422 H 0.34474 0.59336 0.46858
 H1423 H 0.32382 0.53818 0.49373
 C1424 C 0.87674 0.02032 -0.02268
 C1425 C 0.88036 0.03671 -0.03395
 C1426 C 0.89752 0.03822 -0.04522
 C1427 C 0.91148 0.02257 -0.04531
 C1428 C 0.90911 0.00451 -0.03440
 C1429 C 0.89096 0.00397 -0.02248
 O1430 O 0.85922 0.02227 -0.01298
 C1431 C 0.85183 0.04022 -0.01831
 C1432 C 0.86441 0.04950 -0.03114
 C1433 C 0.86006 0.06822 -0.03866
 C1434 C 0.84225 0.07789 -0.03315
 C1435 C 0.82798 0.06943 -0.02012
 C1436 C 0.83341 0.04993 -0.01240
 H1437 H 0.90030 0.05141 -0.05377
 H1438 H 0.92466 0.02544 -0.05370
 H1439 H 0.88770 -0.00886 -0.01359
 H1440 H 0.87026 0.07541 -0.04862
 H1441 H 0.83990 0.09250 -0.03908
 H1442 H 0.82354 0.04244 -0.00236
 C1443 C 0.61841 0.02409 0.02832
 C1444 C 0.62032 0.02573 0.00824
 C1445 C 0.60764 0.01556 -0.00450
 C1446 C 0.59259 0.00317 0.00333
 C1447 C 0.58948 0.00032 0.02400
 C1448 C 0.60292 0.01154 0.03670
 O1449 O 0.63236 0.03518 0.03765
 C1450 C 0.64317 0.04391 0.02312
 C1451 C 0.63622 0.03849 0.00489
 C1452 C 0.64497 0.04569 -0.01236
 C1453 C 0.66142 0.05870 -0.01118
 C1454 C 0.67001 0.06500 0.00705
 C1455 C 0.66009 0.05729 0.02467
 H1456 H 0.60927 0.01709 -0.02031
 H1457 H 0.58302 -0.00414 -0.00714
 H1458 H 0.60161 0.01028 0.05255
 H1459 H 0.63919 0.04144 -0.02662
 H1460 H 0.66725 0.06412 -0.02499
 H1461 H 0.66551 0.06133 0.03913
 C1462 C 0.11974 0.52342 0.53143
 C1463 C 0.11971 0.52734 0.51156
 C1464 C 0.10539 0.51920 0.49913
 C1465 C 0.09070 0.50646 0.50702
 C1466 C 0.08959 0.50130 0.52743
 C1467 C 0.10467 0.51044 0.53989
 O1468 O 0.13506 0.53279 0.54043
 C1469 C 0.14477 0.54274 0.52592
 C1470 C 0.13581 0.53975 0.50802
 C1471 C 0.14324 0.54842 0.49082
 C1472 C 0.16041 0.56047 0.49172
 C1473 C 0.17092 0.56435 0.50959
 C1474 C 0.16239 0.55516 0.52720
 H1475 H 0.10554 0.52248 0.48350
 H1476 H 0.07993 0.50049 0.49686
 H1477 H 0.10499 0.50720 0.55551
 H1478 H 0.13592 0.54601 0.47684
 H1479 H 0.16530 0.56711 0.47807
 H1480 H 0.16939 0.55734 0.54137
 C1481 C 0.12379 0.47966 -0.02039
 C1482 C 0.11990 0.46271 -0.03071
 C1483 C 0.10256 0.46062 -0.04155
 C1484 C 0.08869 0.47630 -0.04227
 C1485 C 0.09136 0.49495 -0.03251
 C1486 C 0.10962 0.49607 -0.02083
 O1487 O 0.14149 0.47814 -0.01094
 C1488 C 0.14869 0.45989 -0.01547
 C1489 C 0.13583 0.45002 -0.02755
 C1490 C 0.13993 0.43092 -0.03420
 C1491 C 0.15780 0.42147 -0.02859
 C1492 C 0.17236 0.43051 -0.01630
 C1493 C 0.16718 0.45040 -0.00946
 H1494 H 0.09955 0.44697 -0.04927
 H1495 H 0.07527 0.47300 -0.05014
 H1496 H 0.11302 0.50940 -0.01274
 H1497 H 0.12950 0.42330 -0.04358
 H1498 H 0.16000 0.40657 -0.03383
 H1499 H 0.17731 0.45833 -0.00002
 C1500 C 0.61812 0.97523 0.46966
 C1501 C 0.63164 0.98526 0.48089
 C1502 C 0.62825 1.00465 0.48677
 C1503 C 0.61043 1.01424 0.48147
 C1504 C 0.59485 1.00509 0.47033
 C1505 C 0.59954 0.98490 0.46388
 O1506 O 0.62485 0.95666 0.46573
 C1507 C 0.64284 0.95518 0.47468
 C1508 C 0.64746 0.97246 0.48410
 C1509 C 0.66520 0.97461 0.49442
 C1510 C 0.67878 0.95865 0.49542
 C1511 C 0.67536 0.93993 0.48634
 C1512 C 0.65669 0.93854 0.47543
 H1513 H 0.63930 1.01248 0.49523
 H1514 H 0.60952 1.02956 0.48571
 H1515 H 0.58892 0.97673 0.45522
 H1516 H 0.66864 0.98843 0.50164
 H1517 H 0.69240 0.96125 0.50328
 H1518 H 0.65291 0.92491 0.46805
 C1519 C 0.87892 0.98069 0.52332
 C1520 C 0.88267 0.96364 0.53352
 C1521 C 0.89995 0.96140 0.54444
 C1522 C 0.91390 0.97700 0.54535
 C1523 C 0.91137 0.99576 0.53574
 C1524 C 0.89315 0.99705 0.52400
 O1525 O 0.86128 0.97931 0.51373
 C1526 C 0.85397 0.96106 0.51804
 C1527 C 0.86671 0.95104 0.53014
 C1528 C 0.86246 0.93191 0.53662
 C1529 C 0.84458 0.92257 0.53080
 C1530 C 0.83017 0.93177 0.51845
 C1531 C 0.83549 0.95168 0.51180
 H1532 H 0.90286 0.94767 0.55206
 H1533 H 0.92725 0.97355 0.55326
 H1534 H 0.88983 1.01045 0.51601
 H1535 H 0.87277 0.92416 0.54603
 H1536 H 0.84224 0.90766 0.53593
 H1537 H 0.82547 0.95973 0.50234
 C1538 C 0.38381 0.47430 0.02805
 C1539 C 0.36906 0.48510 0.01935
 C1540 C 0.37159 0.50517 0.01530
 C1541 C 0.38973 0.51463 0.02000
 C1542 C 0.40621 0.50463 0.02862
 C1543 C 0.40266 0.48373 0.03294
 O1544 O 0.37793 0.45526 0.03071
 C1545 C 0.35920 0.45415 0.02350
 C1546 C 0.35326 0.47214 0.01636
 C1547 C 0.33454 0.47460 0.00799
 C1548 C 0.32138 0.45828 0.00668
 C1549 C 0.32615 0.43896 0.01366
 C1550 C 0.34579 0.43722 0.02253
 H1551 H 0.35971 0.51355 0.00869
 H1552 H 0.39061 0.53026 0.01701
 H1553 H 0.41424 0.47500 0.03958
 H1554 H 0.33006 0.48890 0.00246
 H1555 H 0.30701 0.46099 0.00029
 H1556 H 0.35062 0.42310 0.02817
 C1557 C 0.52053 0.47723 0.37501
 C1558 C 0.53864 0.47025 0.38078
 C1559 C 0.54143 0.46222 0.39957
 C1560 C 0.52531 0.46100 0.41295
 C1561 C 0.50575 0.46741 0.40825
 C1562 C 0.50371 0.47606 0.38854
 O1563 O 0.52142 0.48445 0.35628
 C1564 C 0.54042 0.48190 0.35024
 C1565 C 0.55142 0.47319 0.36483
 C1566 C 0.57142 0.46892 0.36197
 C1567 C 0.58062 0.47350 0.34365
 C1568 C 0.57045 0.48251 0.32753
 C1569 C 0.54964 0.48693 0.33136
 H1570 H 0.55587 0.45702 0.40399
 H1571 H 0.52846 0.45511 0.42743
 H1572 H 0.48946 0.48142 0.38375
 H1573 H 0.57990 0.46212 0.37366
 H1574 H 0.59615 0.47014 0.34226
 H1575 H 0.54083 0.49375 0.31994
 C1576 C 0.02097 -0.02268 0.88319
 C1577 C 0.02749 -0.04100 0.87759
 C1578 C 0.02111 -0.05802 0.88740
 C1579 C 0.00774 -0.05645 0.90352
 C1580 C 0.00020 -0.03805 0.91055
 C1581 C 0.00712 -0.02075 0.89962
 O1582 O 0.02914 -0.00842 0.87166
 C1583 C 0.04098 -0.01800 0.85858
 C1584 C 0.04033 -0.03798 0.86171
 C1585 C 0.05123 -0.05093 0.84991
 C1586 C 0.06333 -0.04341 0.83449
 C1587 C 0.06533 -0.02281 0.83027
 C1588 C 0.05337 -0.00993 0.84284
 H1589 H 0.02630 -0.07238 0.88271
 H1590 H 0.00298 -0.07006 0.91035
 H1591 H 0.00212 -0.00622 0.90391
 H1592 H 0.05037 -0.06668 0.85241
 H1593 H 0.07098 -0.05416 0.82556
 H1594 H 0.05384 0.00586 0.84064
 C1595 C 0.01908 0.02158 0.62568
 C1596 C 0.03706 0.02917 0.62030
 C1597 C 0.03987 0.03771 0.60174
 C1598 C 0.02388 0.03882 0.58819
 C1599 C 0.00445 0.03178 0.59251
 C1600 C 0.00240 0.02262 0.61198
 O1601 O 0.01993 0.01394 0.64424
 C1602 C 0.03878 0.01684 0.65057
 C1603 C 0.04972 0.02618 0.63633
 C1604 C 0.06956 0.03090 0.63954
 C1605 C 0.07865 0.02612 0.65785
 C1606 C 0.06852 0.01647 0.67362
 C1607 C 0.04789 0.01160 0.66943
 H1608 H 0.05421 0.04340 0.59762
 H1609 H 0.02703 0.04513 0.57389
 H1610 H -0.01175 0.01677 0.61647
 H1611 H 0.07800 0.03821 0.62812
 H1612 H 0.09407 0.02985 0.65953
 H1613 H 0.03913 0.00428 0.68058
 C1614 C 0.51950 0.52119 0.12096
 C1615 C 0.53797 0.52619 0.11433
 C1616 C 0.54092 0.53270 0.09499
 C1617 C 0.52459 0.53447 0.08195
 C1618 C 0.50471 0.53012 0.08753
 C1619 C 0.50245 0.52295 0.10778
 O1620 O 0.52030 0.51522 0.14013
 C1621 C 0.53960 0.51657 0.14556
 C1622 C 0.55088 0.52331 0.13017
 C1623 C 0.57122 0.52617 0.13231
 C1624 C 0.58049 0.52216 0.15072
 C1625 C 0.57006 0.51509 0.16761
 C1626 C 0.54888 0.51210 0.16454
 H1627 H 0.55561 0.53638 0.08993
 H1628 H 0.52772 0.53930 0.06706
 H1629 H 0.48791 0.51929 0.11324
 H1630 H 0.57990 0.53148 0.12001
 H1631 H 0.59627 0.52441 0.15161
 H1632 H 0.53987 0.50682 0.17659
 C1633 C 0.48169 -0.01997 0.12250
 C1634 C 0.46308 -0.02467 0.11603
 C1635 C 0.45981 -0.03078 0.09661
 C1636 C 0.47594 -0.03248 0.08332
 C1637 C 0.49595 -0.02845 0.08871
 C1638 C 0.49855 -0.02168 0.10906
 O1639 O 0.48119 -0.01436 0.14179
 C1640 C 0.46195 -0.01562 0.14745
 C1641 C 0.45040 -0.02197 0.13208
 C1642 C 0.43007 -0.02470 0.13445
 C1643 C 0.42107 -0.02096 0.15306
 C1644 C 0.43179 -0.01428 0.16993
 C1645 C 0.45295 -0.01142 0.16663
 H1646 H 0.44502 -0.03423 0.09167
 H1647 H 0.47258 -0.03703 0.06840
 H1648 H 0.51320 -0.01829 0.11440
 H1649 H 0.42118 -0.02970 0.12217
 H1650 H 0.40529 -0.02311 0.15413
 H1651 H 0.46217 -0.00644 0.17866
 C1652 C 0.97898 0.47890 0.61961
 C1653 C 0.97345 0.46062 0.62631
 C1654 C 0.98042 0.44343 0.61724
 C1655 C 0.99331 0.44475 0.60071
 C1656 C 0.99981 0.46306 0.59247
 C1657 C 0.99236 0.48060 0.60270
 O1658 O 0.97036 0.49335 0.63062
 C1659 C 0.95925 0.48391 0.64447
 C1660 C 0.96078 0.46385 0.64231
 C1661 C 0.95068 0.45102 0.65495
 C1662 C 0.93849 0.45873 0.67022
 C1663 C 0.93563 0.47939 0.67353
 C1664 C 0.94677 0.49217 0.66009
 H1665 H 0.97602 0.42912 0.62278
 H1666 H 0.99851 0.43102 0.59445
 H1667 H 0.99654 0.49509 0.59748
 H1668 H 0.95221 0.43523 0.65319
 H1669 H 0.93145 0.44811 0.67979
 H1670 H 0.94560 0.50801 0.66155
 C1671 C 0.97444 0.53008 0.88330
 C1672 C 0.98600 0.52360 0.86798
 C1673 C 1.00640 0.52156 0.87020
 C1674 C 1.01542 0.52595 0.88862
 C1675 C 1.00469 0.53228 0.90566
 C1676 C 0.98343 0.53462 0.90246
 O1677 O 0.95517 0.53098 0.87764
 C1678 C 0.95470 0.52492 0.85847
 C1679 C 0.97331 0.52019 0.85206
 C1680 C 0.97651 0.51326 0.83286
 C1681 C 0.96032 0.51094 0.81969
 C1682 C 0.94042 0.51550 0.82491
 C1683 C 0.93787 0.52292 0.84506
 H1684 H 1.01534 0.51665 0.85791
 H1685 H 1.03128 0.52436 0.88947
 H1686 H 0.97415 0.53935 0.91455
 H1687 H 0.99129 0.50960 0.82804
 H1688 H 0.96354 0.50568 0.80496
 H1689 H 0.92326 0.52667 0.85024
 C1690 C 0.47996 0.02115 0.38087
 C1691 C 0.47502 0.03952 0.37395
 C1692 C 0.48260 0.05657 0.38280
 C1693 C 0.49548 0.05502 0.39933
 C1694 C 0.50138 0.03662 0.40782
 C1695 C 0.49332 0.01921 0.39781
 O1696 O 0.47079 0.00688 0.37004
 C1697 C 0.45993 0.01653 0.35612
 C1698 C 0.46215 0.03655 0.35805
 C1699 C 0.45239 0.04956 0.34532
 C1700 C 0.43983 0.04212 0.33020
 C1701 C 0.43627 0.02154 0.32709
 C1702 C 0.44708 0.00853 0.34062
 H1703 H 0.47866 0.07096 0.37711
 H1704 H 0.50109 0.06864 0.40547
 H1705 H 0.49698 0.00466 0.40324
 H1706 H 0.45444 0.06532 0.34692
 H1707 H 0.43306 0.05287 0.32058
 H1708 H 0.44538 -0.00728 0.33933
   
