data_POSCAR
  _audit_creation_date              2014-09-24
  _audit_creation_method            'ToBaCCo'
  _symmetry_space_group_name_H-M    'P1'
  _symmetry_Int_Tables_number       1
  _symmetry_cell_setting            triclinic
  loop_
  _symmetry_equiv_pos_as_xyz
 x,y,z
_cell_length_a 79.7205
_cell_length_b 79.7260
_cell_length_c 79.7248
_cell_angle_alpha 90.108900
_cell_angle_beta 90.137500
_cell_angle_gamma 89.870300
loop_
  _atom_site_label
  _atom_site_type_symbol
  _atom_site_fract_x
  _atom_site_fract_y
  _atom_site_fract_z
C1 C 0.13181 -0.02297 0.25483
 C2 C 0.12462 -0.00723 0.25817
 C3 C 0.11712 -0.00417 0.27376
 C4 C 0.11647 -0.01680 0.28593
 C5 C 0.12396 -0.03240 0.28256
 C6 C 0.13195 -0.03576 0.26710
 C7 C 0.12504 0.00615 0.24536
 C8 C 0.11806 0.00339 0.22941
 C9 C 0.11772 0.01624 0.21721
 C10 C 0.12522 0.03174 0.22141
 C11 C 0.13236 0.03461 0.23727
 C12 C 0.13207 0.02177 0.24924
 H13 H 0.13812 -0.02468 0.24295
 H14 H 0.11132 0.00790 0.27619
 H15 H 0.11205 -0.00855 0.22709
 H16 H 0.13737 0.02389 0.26160
 H17 H 0.12305 -0.04203 0.29203
 H18 H 0.12641 0.04150 0.21208
 C19 C 0.36773 -0.02125 0.74610
 C20 C 0.37510 -0.00557 0.74310
 C21 C 0.38286 -0.00246 0.72763
 C22 C 0.38350 -0.01497 0.71523
 C23 C 0.37584 -0.03050 0.71831
 C24 C 0.36779 -0.03372 0.73362
 C25 C 0.37458 0.00768 0.75608
 C26 C 0.38128 0.00470 0.77210
 C27 C 0.38151 0.01745 0.78446
 C28 C 0.37417 0.03307 0.78034
 C29 C 0.36731 0.03614 0.76440
 C30 C 0.36771 0.02340 0.75228
 H31 H 0.36146 -0.02350 0.75793
 H32 H 0.38879 0.00956 0.72547
 H33 H 0.38718 -0.00732 0.77436
 H34 H 0.36265 0.02568 0.73986
 H35 H 0.37610 -0.04012 0.70871
 H36 H 0.37290 0.04277 0.78976
 C37 C 0.86797 0.47759 0.24528
 C38 C 0.87514 0.49333 0.24211
 C39 C 0.88283 0.49637 0.22660
 C40 C 0.88360 0.48375 0.21432
 C41 C 0.87614 0.46816 0.21757
 C42 C 0.86816 0.46499 0.23293
 C43 C 0.87458 0.50667 0.25500
 C44 C 0.88131 0.50381 0.27103
 C45 C 0.88157 0.51665 0.28329
 C46 C 0.87425 0.53224 0.27907
 C47 C 0.86737 0.53521 0.26312
 C48 C 0.86773 0.52238 0.25109
 H49 H 0.86176 0.47538 0.25715
 H50 H 0.88863 0.50843 0.22432
 H51 H 0.88721 0.49180 0.27337
 H52 H 0.86264 0.52457 0.23867
 H53 H 0.87651 0.45844 0.20807
 H54 H 0.87302 0.54201 0.28842
 C55 C 0.63277 0.47792 0.75416
 C56 C 0.62578 0.49382 0.75716
 C57 C 0.61880 0.49745 0.77291
 C58 C 0.61862 0.48526 0.78561
 C59 C 0.62580 0.46947 0.78245
 C60 C 0.63304 0.46572 0.76684
 C61 C 0.62599 0.50673 0.74390
 C62 C 0.61904 0.50330 0.72807
 C63 C 0.61925 0.51549 0.71536
 C64 C 0.62680 0.53106 0.71860
 C65 C 0.63403 0.53460 0.73430
 C66 C 0.63335 0.52241 0.74698
 H67 H 0.63848 0.47529 0.74212
 H68 H 0.61349 0.50976 0.77522
 H69 H 0.61344 0.49115 0.72569
 H70 H 0.63903 0.52488 0.75909
 H71 H 0.62539 0.45989 0.79206
 H72 H 0.62670 0.54065 0.70899
 C73 C 0.24644 0.13208 1.02163
 C74 C 0.24271 0.12465 1.00613
 C75 C 0.22675 0.11778 1.00332
 C76 C 0.21431 0.11811 1.01592
 C77 C 0.21840 0.12585 1.03135
 C78 C 0.23425 0.13296 1.03424
 C79 C 0.25541 0.12445 0.99264
 C80 C 0.27119 0.11708 0.99539
 C81 C 0.28333 0.11634 0.98250
 C82 C 0.27924 0.12379 0.96694
 C83 C 0.26356 0.13133 0.96409
 C84 C 0.25165 0.13146 0.97698
 H85 H 0.25866 0.13768 1.02362
 H86 H 0.22408 0.11261 0.99105
 H87 H 0.27341 0.11115 1.00739
 H88 H 0.23944 0.13709 0.97489
 H89 H 0.20962 0.12568 1.04167
 H90 H 0.28855 0.12466 0.95713
 C91 C 0.75375 0.36849 1.02315
 C92 C 0.75693 0.37536 1.00728
 C93 C 0.77242 0.38296 1.00408
 C94 C 0.78467 0.38396 1.01667
 C95 C 0.78143 0.37686 1.03243
 C96 C 0.76599 0.36896 1.03601
 C97 C 0.74391 0.37486 0.99404
 C98 C 0.72794 0.38167 0.99705
 C99 C 0.71552 0.38191 0.98436
 C100 C 0.71955 0.37455 0.96873
 C101 C 0.73545 0.36762 0.96561
 C102 C 0.74762 0.36796 0.97831
 H103 H 0.74149 0.36318 1.02540
 H104 H 0.77469 0.38856 0.99193
 H105 H 0.72577 0.38763 1.00905
 H106 H 0.76000 0.36283 0.97601
 H107 H 0.79150 0.37678 1.04154
 H108 H 0.71008 0.37334 0.95907
 C109 C 0.25412 0.86787 0.52100
 C110 C 0.25744 0.87520 0.50540
 C111 C 0.27313 0.88255 0.50241
 C112 C 0.28564 0.88297 0.51500
 C113 C 0.28204 0.87517 0.53048
 C114 C 0.26649 0.86752 0.53352
 C115 C 0.24443 0.87527 0.49216
 C116 C 0.22865 0.88248 0.49525
 C117 C 0.21641 0.88305 0.48256
 C118 C 0.21999 0.87585 0.46687
 C119 C 0.23565 0.86844 0.46363
 C120 C 0.24789 0.86834 0.47634
 H121 H 0.24209 0.86195 0.52316
 H122 H 0.27500 0.88874 0.49050
 H123 H 0.22615 0.88812 0.50737
 H124 H 0.26010 0.86286 0.47396
 H125 H 0.29148 0.87449 0.54022
 H126 H 0.21036 0.87565 0.45726
 C127 C 0.74695 0.63126 0.52273
 C128 C 0.74284 0.62431 0.50706
 C129 C 0.72697 0.61711 0.50461
 C130 C 0.71527 0.61661 0.51774
 C131 C 0.71950 0.62382 0.53327
 C132 C 0.73527 0.63120 0.53590
 C133 C 0.75525 0.62433 0.49330
 C134 C 0.77120 0.61725 0.49576
 C135 C 0.78308 0.61662 0.48263
 C136 C 0.77854 0.62388 0.46711
 C137 C 0.76267 0.63112 0.46453
 C138 C 0.75102 0.63115 0.47767
 H139 H 0.75924 0.63673 0.52463
 H140 H 0.72397 0.61143 0.49262
 H141 H 0.77378 0.61140 0.50773
 H142 H 0.73867 0.63655 0.47579
 H143 H 0.71029 0.62406 0.54324
 H144 H 0.78762 0.62483 0.45710
 C145 C -0.02086 0.25485 0.13185
 C146 C -0.00525 0.25787 0.12443
 C147 C -0.00200 0.27354 0.11713
 C148 C -0.01424 0.28639 0.11704
 C149 C -0.02980 0.28301 0.12477
 C150 C -0.03314 0.26746 0.13230
 C151 C 0.00793 0.24479 0.12474
 C152 C 0.00482 0.22885 0.11790
 C153 C 0.01747 0.21639 0.11756
 C154 C 0.03313 0.22032 0.12492
 C155 C 0.03633 0.23616 0.13193
 C156 C 0.02369 0.24838 0.13166
 H157 H -0.02319 0.24287 0.13780
 H158 H 0.01036 0.27567 0.11200
 H159 H -0.00723 0.22674 0.11201
 H160 H 0.02606 0.26071 0.13688
 H161 H -0.03986 0.29211 0.12429
 H162 H 0.04275 0.21081 0.12610
 C163 C -0.02285 0.74729 0.36875
 C164 C -0.00709 0.74324 0.37553
 C165 C -0.00437 0.72723 0.38234
 C166 C -0.01736 0.71535 0.38265
 C167 C -0.03298 0.71953 0.37560
 C168 C -0.03586 0.73543 0.36860
 C169 C 0.00646 0.75586 0.37579
 C170 C 0.00377 0.77156 0.38333
 C171 C 0.01668 0.78350 0.38403
 C172 C 0.03222 0.77970 0.37666
 C173 C 0.03508 0.76411 0.36894
 C174 C 0.02214 0.75217 0.36869
 H175 H -0.02495 0.75968 0.36357
 H176 H 0.00768 0.72427 0.38792
 H177 H -0.00823 0.77425 0.38912
 H178 H 0.02422 0.74003 0.36292
 H179 H -0.04283 0.71020 0.37520
 H180 H 0.04200 0.78911 0.37656
 C181 C 0.47702 0.24545 0.86767
 C182 C 0.49249 0.24185 0.87522
 C183 C 0.49536 0.22592 0.88215
 C184 C 0.48285 0.21339 0.88176
 C185 C 0.46744 0.21735 0.87390
 C186 C 0.46449 0.23317 0.86673
 C187 C 0.50588 0.25466 0.87552
 C188 C 0.50288 0.27047 0.88271
 C189 C 0.51565 0.28273 0.88353
 C190 C 0.53136 0.27872 0.87635
 C191 C 0.53446 0.26300 0.86900
 C192 C 0.52167 0.25098 0.86878
 H193 H 0.47498 0.25764 0.86203
 H194 H 0.50762 0.22336 0.88742
 H195 H 0.49079 0.27264 0.88845
 H196 H 0.52394 0.23874 0.86328
 H197 H 0.45719 0.20850 0.87401
 H198 H 0.54110 0.28810 0.87556
 C199 C 0.47801 0.75339 0.63152
 C200 C 0.49408 0.75666 0.62519
 C201 C 0.49766 0.77250 0.61846
 C202 C 0.48528 0.78505 0.61790
 C203 C 0.46930 0.78163 0.62443
 C204 C 0.46555 0.76588 0.63133
 C205 C 0.50717 0.74352 0.62559
 C206 C 0.50419 0.72780 0.61820
 C207 C 0.51671 0.71538 0.61820
 C208 C 0.53208 0.71868 0.62618
 C209 C 0.53517 0.73425 0.63385
 C210 C 0.52270 0.74671 0.63328
 H211 H 0.47526 0.74113 0.63667
 H212 H 0.51009 0.77501 0.61362
 H213 H 0.49232 0.72549 0.61197
 H214 H 0.52486 0.75875 0.63923
 H215 H 0.45973 0.79129 0.62414
 H216 H 0.54172 0.70909 0.62639
 C217 C 0.86817 1.02216 0.75494
 C218 C 0.87543 1.00653 0.75827
 C219 C 0.88237 1.00333 0.77413
 C220 C 0.88237 1.01571 0.78684
 C221 C 0.87476 1.03133 0.78316
 C222 C 0.86759 1.03460 0.76737
 C223 C 0.87559 0.99338 0.74519
 C224 C 0.88278 0.99660 0.72950
 C225 C 0.88303 0.98425 0.71676
 C226 C 0.87543 0.96863 0.72026
 C227 C 0.86800 0.96534 0.73587
 C228 C 0.86832 0.97775 0.74835
 H229 H 0.86250 1.02442 0.74278
 H230 H 0.88736 0.99092 0.77647
 H231 H 0.88777 1.00901 0.72729
 H232 H 0.86245 0.97547 0.76037
 H233 H 0.87512 1.04147 0.79217
 H234 H 0.87598 0.95850 0.71123
 C235 C 0.36750 0.52118 0.25328
 C236 C 0.37506 0.50562 0.25654
 C237 C 0.38239 0.50262 0.27226
 C238 C 0.38243 0.51513 0.28468
 C239 C 0.37459 0.53058 0.28132
 C240 C 0.36699 0.53368 0.26571
 C241 C 0.37528 0.49246 0.24351
 C242 C 0.38231 0.49572 0.22775
 C243 C 0.38282 0.48318 0.21536
 C244 C 0.37574 0.46743 0.21880
 C245 C 0.36844 0.46406 0.23447
 C246 C 0.36848 0.47661 0.24684
 H247 H 0.36156 0.52331 0.24123
 H248 H 0.38851 0.49069 0.27460
 H249 H 0.38786 0.50788 0.22537
 H250 H 0.36275 0.47428 0.25893
 H251 H 0.37441 0.54022 0.29091
 H252 H 0.37592 0.45775 0.20925
 C253 C 0.63185 1.02250 0.24643
 C254 C 0.62433 1.00693 0.24325
 C255 C 0.61691 1.00385 0.22758
 C256 C 0.61674 1.01631 0.21514
 C257 C 0.62450 1.03178 0.21845
 C258 C 0.63215 1.03498 0.23403
 C259 C 0.62414 0.99389 0.25637
 C260 C 0.61730 0.99739 0.27218
 C261 C 0.61712 0.98516 0.28499
 C262 C 0.62442 0.96937 0.28144
 C263 C 0.63150 0.96579 0.26569
 C264 C 0.63110 0.97808 0.25315
 H265 H 0.63750 1.02485 0.25859
 H266 H 0.61082 0.99192 0.22532
 H267 H 0.61256 1.00991 0.27443
 H268 H 0.63670 0.97559 0.24103
 H269 H 0.62495 1.04122 0.20871
 H270 H 0.62393 0.95934 0.29053
 C271 C 0.13198 0.52367 0.74520
 C272 C 0.12446 0.50810 0.74205
 C273 C 0.11705 0.50496 0.72640
 C274 C 0.11690 0.51736 0.71391
 C275 C 0.12470 0.53283 0.71715
 C276 C 0.13238 0.53606 0.73271
 C277 C 0.12432 0.49507 0.75516
 C278 C 0.11708 0.49842 0.77082
 C279 C 0.11663 0.48600 0.78328
 C280 C 0.12397 0.47028 0.78001
 C281 C 0.13148 0.46683 0.76444
 C282 C 0.13138 0.47926 0.75198
 H283 H 0.13798 0.52589 0.75721
 H284 H 0.11095 0.49303 0.72417
 H285 H 0.11133 0.51055 0.77307
 H286 H 0.13725 0.47686 0.73997
 H287 H 0.12479 0.54240 0.70752
 H288 H 0.12382 0.46070 0.78962
 C289 C 0.74759 0.86901 -0.02172
 C290 C 0.74361 0.87607 -0.00610
 C291 C 0.72772 0.88321 -0.00359
 C292 C 0.71583 0.88350 -0.01661
 C293 C 0.71992 0.87619 -0.03213
 C294 C 0.73574 0.86884 -0.03479
 C295 C 0.75614 0.87611 0.00758
 C296 C 0.77202 0.88316 0.00501
 C297 C 0.78408 0.88371 0.01802
 C298 C 0.77977 0.87646 0.03360
 C299 C 0.76394 0.86921 0.03626
 C300 C 0.75213 0.86928 0.02321
 H301 H 0.75992 0.86359 -0.02364
 H302 H 0.72485 0.88898 0.00838
 H303 H 0.77439 0.88905 -0.00697
 H304 H 0.73981 0.86392 0.02515
 H305 H 0.71060 0.87582 -0.04203
 H306 H 0.78897 0.87553 0.04355
 C307 C 0.24649 0.36786 0.47767
 C308 C 0.24285 0.37520 0.49324
 C309 C 0.22700 0.38235 0.49600
 C310 C 0.21484 0.38243 0.48322
 C311 C 0.21859 0.37482 0.46776
 C312 C 0.23434 0.36740 0.46490
 C313 C 0.25562 0.37543 0.50667
 C314 C 0.27136 0.38267 0.50378
 C315 C 0.28351 0.38319 0.51656
 C316 C 0.27985 0.37592 0.53217
 C317 C 0.26421 0.36840 0.53517
 C318 C 0.25207 0.36843 0.52238
 H319 H 0.25864 0.36206 0.47573
 H320 H 0.22438 0.38831 0.50793
 H321 H 0.27391 0.38836 0.49172
 H322 H 0.24000 0.36255 0.52443
 H323 H 0.20921 0.37468 0.45791
 H324 H 0.28922 0.37611 0.54203
 C325 C 0.25399 0.63195 -0.02360
 C326 C 0.25686 0.62451 -0.00793
 C327 C 0.27248 0.61717 -0.00447
 C328 C 0.28520 0.61700 -0.01664
 C329 C 0.28220 0.62468 -0.03222
 C330 C 0.26667 0.63226 -0.03579
 C331 C 0.24346 0.62437 0.00482
 C332 C 0.22776 0.61741 0.00103
 C333 C 0.21466 0.61736 0.01295
 C334 C 0.21782 0.62488 0.02872
 C335 C 0.23345 0.63207 0.03257
 C336 C 0.24628 0.63154 0.02060
 H337 H 0.24187 0.63754 -0.02624
 H338 H 0.27451 0.61115 0.00755
 H339 H 0.22582 0.61250 -0.01148
 H340 H 0.25832 0.63724 0.02330
 H341 H 0.29215 0.62514 -0.04144
 H342 H 0.20849 0.62448 0.03853
 C343 C 0.75327 0.13135 0.47747
 C344 C 0.75666 0.12440 0.49322
 C345 C 0.77234 0.11703 0.49637
 C346 C 0.78481 0.11629 0.48381
 C347 C 0.78112 0.12367 0.46811
 C348 C 0.76550 0.13122 0.46488
 C349 C 0.74367 0.12457 0.50639
 C350 C 0.72782 0.11764 0.50323
 C351 C 0.71550 0.11740 0.51579
 C352 C 0.71913 0.12457 0.53150
 C353 C 0.73490 0.13171 0.53481
 C354 C 0.74717 0.13148 0.52220
 H355 H 0.74109 0.13694 0.47508
 H356 H 0.77422 0.11106 0.50840
 H357 H 0.72531 0.11196 0.49113
 H358 H 0.75948 0.13672 0.52462
 H359 H 0.79066 0.12446 0.45852
 H360 H 0.70949 0.12497 0.54105
 C361 C 1.02375 0.75387 0.86918
 C362 C 1.00810 0.75732 0.87630
 C363 C 1.00515 0.77296 0.88383
 C364 C 1.01781 0.78533 0.88455
 C365 C 1.03342 0.78158 0.87701
 C366 C 1.03645 0.76600 0.86930
 C367 C 0.99478 0.74446 0.87604
 C368 C 0.99784 0.72848 0.88271
 C369 C 0.98518 0.71610 0.88297
 C370 C 0.96944 0.72022 0.87582
 C371 C 0.96630 0.73615 0.86896
 C372 C 0.97901 0.74826 0.86931
 H373 H 1.02599 0.74174 0.86346
 H374 H 0.99318 0.77489 0.88991
 H375 H 1.00991 0.72626 0.88854
 H376 H 0.97669 0.76066 0.86426
 H377 H 1.04307 0.79104 0.87622
 H378 H 0.95976 0.71081 0.87467
 C379 C 0.52408 0.25309 0.36774
 C380 C 0.50846 0.25617 0.37519
 C381 C 0.50527 0.27176 0.38271
 C382 C 0.51768 0.28423 0.38305
 C383 C 0.53319 0.28106 0.37533
 C384 C 0.53647 0.26557 0.36753
 C385 C 0.49541 0.24308 0.37510
 C386 C 0.49871 0.22732 0.38218
 C387 C 0.48627 0.21488 0.38240
 C388 C 0.47061 0.21826 0.37499
 C389 C 0.46722 0.23392 0.36765
 C390 C 0.47966 0.24636 0.36797
 H391 H 0.52633 0.24113 0.36165
 H392 H 0.49329 0.27394 0.38874
 H393 H 0.51079 0.22499 0.38798
 H394 H 0.47731 0.25845 0.36223
 H395 H 0.54276 0.29069 0.37538
 H396 H 0.46101 0.20866 0.37496
 C397 C 1.02059 0.24707 0.63251
 C398 C 1.00499 0.24371 0.62517
 C399 C 1.00186 0.22786 0.61820
 C400 C 1.01428 0.21518 0.61824
 C401 C 1.02986 0.21889 0.62591
 C402 C 1.03305 0.23466 0.63312
 C403 C 0.99180 0.25675 0.62498
 C404 C 0.99496 0.27243 0.61772
 C405 C 0.98254 0.28510 0.61739
 C406 C 0.96693 0.28158 0.62501
 C407 C 0.96371 0.26597 0.63250
 C408 C 0.97618 0.25356 0.63224
 H409 H 1.02280 0.25923 0.63820
 H410 H 0.98948 0.22550 0.61315
 H411 H 1.00736 0.27467 0.61275
 H412 H 0.97396 0.24154 0.63816
 H413 H 1.04003 0.20990 0.62558
 H414 H 0.95676 0.29056 0.62442
 C415 C 0.52174 0.74550 0.13148
 C416 C 0.50594 0.74209 0.12451
 C417 C 0.50270 0.72621 0.11767
 C418 C 0.51520 0.71377 0.11752
 C419 C 0.53091 0.71730 0.12476
 C420 C 0.53426 0.73309 0.13187
 C421 C 0.49280 0.75516 0.12437
 C422 C 0.49593 0.77076 0.11692
 C423 C 0.48343 0.78320 0.11654
 C424 C 0.46788 0.77999 0.12414
 C425 C 0.46466 0.76450 0.13186
 C426 C 0.47714 0.75204 0.13170
 H427 H 0.52405 0.75769 0.13706
 H428 H 0.49059 0.72376 0.11199
 H429 H 0.50793 0.77298 0.11099
 H430 H 0.47492 0.74009 0.13773
 H431 H 0.54056 0.70771 0.12485
 H432 H 0.45825 0.78959 0.12405
 O433 O -0.01279 0.99268 0.95488
 O434 O 0.01383 1.00403 0.95273
 O435 O -0.00691 0.95270 0.99050
 O436 O 0.00144 0.94962 1.01699
 O437 O -0.04798 0.98811 0.99548
 O438 O -0.04989 1.01601 1.00579
 O439 O 0.03587 0.99761 1.03550
 O440 O 0.03894 0.97272 1.02120
 O441 O 0.03303 1.03588 0.99972
 O442 O 0.01636 1.04080 0.97448
 O443 O -0.00284 1.03399 1.03791
 O444 O -0.02763 1.01756 1.04334
 O445 O 0.01274 1.00779 1.04873
 O446 O -0.01665 0.99632 1.05107
 O447 O 0.00688 1.04711 1.01465
 O448 O -0.00473 1.04889 0.98547
 O449 O 0.04625 1.01290 1.01019
 O450 O 0.04737 0.98546 0.99529
 O451 O -0.03585 1.00323 0.96803
 O452 O -0.04040 1.02817 0.98470
 O453 O -0.03476 0.96492 1.00550
 O454 O -0.01755 0.96183 1.03128
 O455 O 0.00232 0.96581 0.96700
 O456 O 0.02841 0.98242 0.96450
 Zr457 Zr 0.00515 0.99107 0.97418
 O458 O 0.02099 1.00668 0.98845
 Zr459 Zr -0.00951 0.97213 1.00821
 O460 O 0.00617 0.98656 1.02383
 Zr461 Zr -0.02872 1.00597 0.99337
 O462 O -0.01427 1.02192 1.00874
 Zr463 Zr 0.02757 0.99434 1.01073
 O464 O 0.01301 0.97791 0.99573
 Zr465 Zr 0.00801 1.02821 0.99626
 O466 O -0.00729 1.01364 0.98018
 Zr467 Zr -0.00620 1.00895 1.03024
 O468 O -0.02267 0.99369 1.01595
 O469 O -0.01682 0.98393 0.98620
 O470 O 0.01570 1.01643 1.01827
 C471 C -0.02803 0.99805 0.95487
 C472 C -0.00213 0.95264 0.97511
 C473 C -0.04796 0.97284 1.00064
 C474 C 0.02818 1.00302 1.04860
 C475 C 0.04612 1.02825 1.00530
 C476 C 0.00231 1.04707 1.03009
 H477 H 0.03107 1.00947 0.98181
 H478 H -0.02099 1.03194 1.01163
 H479 H -0.02399 0.97669 0.97908
 H480 H 0.00931 0.97991 1.03382
 H481 H 0.03652 0.96333 1.01342
 H482 H 0.01194 0.95276 1.02280
 H483 H -0.01457 1.05146 0.99257
 H484 H -0.03267 1.03321 0.97643
 H485 H 0.05799 0.98641 1.00173
 H486 H 0.02637 0.97670 0.95362
 H487 H -0.03334 1.02590 1.03615
 H488 H -0.05006 1.01087 1.01709
 H489 H 0.00881 1.01539 0.95312
 H490 H 0.02533 1.03393 0.96936
 H491 H -0.02692 0.96892 1.03532
 H492 H -0.00929 0.98669 1.05379
 O493 O 0.48744 0.49202 0.45328
 O494 O 0.51412 0.50325 0.45126
 O495 O 0.49283 0.45213 0.48902
 O496 O 0.50101 0.44904 0.51556
 O497 O 0.45196 0.48776 0.49363
 O498 O 0.45013 0.51569 0.50387
 O499 O 0.53562 0.49694 0.53416
 O500 O 0.53864 0.47196 0.51995
 O501 O 0.53318 0.53513 0.49837
 O502 O 0.51674 0.54008 0.47299
 O503 O 0.49709 0.53345 0.53629
 O504 O 0.47216 0.51717 0.54159
 O505 O 0.51246 0.50726 0.54724
 O506 O 0.48299 0.49587 0.54943
 O507 O 0.50701 0.54649 0.51307
 O508 O 0.49556 0.54826 0.48379
 O509 O 0.54620 0.51209 0.50895
 O510 O 0.54730 0.48461 0.49407
 O511 O 0.46435 0.50272 0.46624
 O512 O 0.45985 0.52776 0.48282
 O513 O 0.46498 0.46452 0.50380
 O514 O 0.48202 0.46140 0.52971
 O515 O 0.50232 0.46513 0.46555
 O516 O 0.52853 0.48160 0.46319
 Zr517 Zr 0.50525 0.49039 0.47269
 O518 O 0.52108 0.50595 0.48702
 Zr519 Zr 0.49026 0.47160 0.50666
 O520 O 0.50592 0.48597 0.52236
 Zr521 Zr 0.47133 0.50551 0.49163
 O522 O 0.48576 0.52141 0.50707
 Zr523 Zr 0.52744 0.49361 0.50936
 O524 O 0.51289 0.47723 0.49432
 Zr525 Zr 0.50815 0.52756 0.49472
 O526 O 0.49289 0.51304 0.47855
 Zr527 Zr 0.49362 0.50843 0.52864
 O528 O 0.47715 0.49324 0.51427
 O529 O 0.48316 0.48339 0.48459
 O530 O 0.51563 0.51577 0.51678
 C531 C 0.47222 0.49744 0.45316
 C532 C 0.49771 0.45200 0.47365
 C533 C 0.45186 0.47251 0.49882
 C534 C 0.52789 0.50245 0.54719
 C535 C 0.54618 0.52745 0.50408
 C536 C 0.50236 0.54649 0.52849
 H537 H 0.53121 0.50868 0.48044
 H538 H 0.47908 0.53147 0.50990
 H539 H 0.47600 0.47618 0.47745
 H540 H 0.50897 0.47933 0.53237
 H541 H 0.53622 0.46256 0.51218
 H542 H 0.51152 0.45213 0.52139
 H543 H 0.48573 0.55094 0.49086
 H544 H 0.46765 0.53271 0.47456
 H545 H 0.55788 0.48554 0.50057
 H546 H 0.52653 0.47585 0.45232
 H547 H 0.46655 0.52555 0.53436
 H548 H 0.44987 0.51061 0.51519
 H549 H 0.50918 0.51464 0.45161
 H550 H 0.52569 0.53313 0.46792
 H551 H 0.47264 0.46854 0.53367
 H552 H 0.49033 0.48625 0.55224
 O553 O 0.50384 -0.03365 0.53567
 O554 O 0.52840 -0.01862 0.53935
 O555 O 0.46538 0.00407 0.53373
 O556 O 0.45911 0.02653 0.51836
 O557 O 0.46676 -0.03545 0.49634
 O558 O 0.48323 -0.04010 0.47199
 O559 O 0.50887 0.04729 0.48799
 O560 O 0.49657 0.04960 0.51401
 O561 O 0.54775 0.01231 0.49200
 O562 O 0.55024 -0.01628 0.50273
 O563 O 0.51305 0.00780 0.45282
 O564 O 0.48460 -0.00247 0.45018
 O565 O 0.49882 0.03415 0.46471
 O566 O 0.47249 0.01725 0.46004
 O567 O 0.53624 -0.00242 0.46587
 O568 O 0.54058 -0.02844 0.48293
 O569 O 0.53459 0.03571 0.50162
 O570 O 0.51958 0.03698 0.52893
 O571 O 0.49417 -0.04692 0.51227
 O572 O 0.50480 -0.04897 0.48396
 O573 O 0.45362 -0.01222 0.50638
 O574 O 0.45263 0.01647 0.49444
 O575 O 0.48837 -0.00659 0.54685
 O576 O 0.51668 0.00613 0.54763
 Zr577 Zr 0.50658 -0.00863 0.52787
 O578 O 0.52267 0.00633 0.51332
 Zr579 Zr 0.47263 0.00596 0.50845
 O580 O 0.48728 0.02196 0.49351
 Zr581 Zr 0.49194 -0.02800 0.49394
 O582 O 0.50711 -0.01356 0.47791
 Zr583 Zr 0.50976 0.02801 0.50582
 O584 O 0.49405 0.01387 0.52180
 Zr585 Zr 0.52878 -0.00598 0.49088
 O586 O 0.51439 -0.02192 0.50638
 Zr587 Zr 0.49486 0.00901 0.47185
 O588 O 0.47869 -0.00656 0.48600
 O589 O 0.48460 -0.01595 0.51583
 O590 O 0.51702 0.01619 0.48364
 C591 C 0.49907 -0.04685 0.52768
 C592 C 0.47320 -0.00109 0.54688
 C593 C 0.45359 -0.02751 0.50123
 C594 C 0.50421 0.04721 0.47254
 C595 C 0.54767 0.02782 0.49644
 C596 C 0.52843 0.00298 0.45283
 H597 H 0.53275 0.00920 0.51998
 H598 H 0.50982 -0.02022 0.46781
 H599 H 0.47740 -0.02304 0.52300
 H600 H 0.48080 0.03220 0.49084
 H601 H 0.49072 0.04642 0.52447
 H602 H 0.46555 0.03672 0.51557
 H603 H 0.53450 -0.03261 0.47294
 H604 H 0.51577 -0.04951 0.48978
 H605 H 0.52424 0.04833 0.52699
 H606 H 0.51481 0.00026 0.55843
 H607 H 0.49014 -0.01349 0.44881
 H608 H 0.47557 -0.03209 0.46636
 H609 H 0.53391 -0.02588 0.53091
 H610 H 0.55195 -0.01020 0.51342
 H611 H 0.45125 0.00946 0.48427
 H612 H 0.46861 0.02748 0.46593
 O613 O -0.03521 0.50390 1.03273
 O614 O -0.03907 0.52849 1.01775
 O615 O -0.03392 0.46549 0.99493
 O616 O -0.01889 0.45924 0.97223
 O617 O 0.00398 0.46672 1.03393
 O618 O 0.02849 0.48308 1.03825
 O619 O 0.01133 0.50895 0.95113
 O620 O -0.01476 0.49673 0.94917
 O621 O 0.00792 0.54776 0.98623
 O622 O -0.00241 0.55024 1.01495
 O623 O 0.04705 0.51296 0.99015
 O624 O 0.04976 0.48449 1.00035
 O625 O 0.03476 0.49882 0.96395
 O626 O 0.03959 0.47245 0.98073
 O627 O 0.03421 0.53616 1.00057
 O628 O 0.01752 0.54048 1.02685
 O629 O -0.00207 0.53470 0.96294
 O630 O -0.02944 0.51975 0.96201
 O631 O -0.01164 0.49416 1.04565
 O632 O 0.01673 0.50468 1.04731
 O633 O -0.00641 0.45364 1.01082
 O634 O 0.00517 0.45267 0.98197
 O635 O -0.04683 0.48848 1.00582
 O636 O -0.04773 0.51681 0.99311
 Zr637 Zr -0.02778 0.50665 1.00760
 O638 O -0.01340 0.52273 0.99246
 Zr639 Zr -0.00866 0.47269 0.99269
 O640 O 0.00610 0.48733 0.97651
 Zr641 Zr 0.00640 0.49190 1.02647
 O642 O 0.02225 0.50705 1.01184
 Zr643 Zr -0.00624 0.50986 0.97066
 O644 O -0.02206 0.49415 0.98499
 Zr645 Zr 0.00923 0.52876 1.00448
 O646 O -0.00608 0.51439 1.02060
 Zr647 Zr 0.02797 0.49482 0.98917
 O648 O 0.01399 0.47866 1.00491
 O649 O -0.01568 0.48464 1.01472
 O650 O 0.01613 0.51703 0.98219
 C651 C -0.02704 0.49910 1.04581
 C652 C -0.04697 0.47332 1.00031
 C653 C -0.00107 0.45358 1.02605
 C654 C 0.02677 0.50425 0.95100
 C655 C 0.00327 0.54773 0.97078
 C656 C 0.04715 0.52834 0.99498
 H657 H -0.02007 0.53284 0.98970
 H658 H 0.03246 0.50973 1.01836
 H659 H -0.02277 0.47745 1.02190
 H660 H 0.00861 0.48086 0.96622
 H661 H -0.02519 0.49089 0.95247
 H662 H -0.01620 0.46568 0.96201
 H663 H 0.02759 0.53441 1.03084
 H664 H 0.01096 0.51567 1.04795
 H665 H -0.02765 0.52443 0.95064
 H666 H -0.05844 0.51496 0.99913
 H667 H 0.05130 0.49000 1.01137
 H668 H 0.03396 0.47540 1.03015
 H669 H -0.03051 0.53397 1.02490
 H670 H -0.01318 0.55198 1.00903
 H671 H 0.01542 0.45125 0.98886
 H672 H 0.03354 0.46859 0.97059
 O673 O 0.00591 0.45177 0.51099
 O674 O -0.00540 0.44958 0.48429
 O675 O 0.04599 0.48728 0.50539
 O676 O 0.04915 0.51373 0.49705
 O677 O 0.01060 0.49244 0.54625
 O678 O -0.01727 0.50286 0.54805
 O679 O 0.00117 0.53229 0.46242
 O680 O 0.02606 0.51791 0.45946
 O681 O -0.03716 0.49662 0.46503
 O682 O -0.04214 0.47143 0.48164
 O683 O -0.03515 0.53490 0.50093
 O684 O -0.01872 0.54033 0.52585
 O685 O -0.00897 0.54559 0.48554
 O686 O 0.00254 0.54799 0.51498
 O687 O -0.04834 0.51167 0.49111
 O688 O -0.05020 0.48252 0.50272
 O689 O -0.01415 0.50699 0.45195
 O690 O 0.01326 0.49202 0.45092
 O691 O -0.00460 0.46503 0.53400
 O692 O -0.02950 0.48179 0.53845
 O693 O 0.03381 0.50237 0.53315
 O694 O 0.03696 0.52811 0.51602
 O695 O 0.03285 0.46377 0.49605
 O696 O 0.01624 0.46127 0.46985
 Zr697 Zr 0.00760 0.47102 0.49308
 O698 O -0.00798 0.48530 0.47719
 Zr699 Zr 0.02661 0.50504 0.50788
 O700 O 0.01222 0.52067 0.49216
 Zr701 Zr -0.00727 0.49035 0.52690
 O702 O -0.02318 0.50573 0.51241
 Zr703 Zr 0.00442 0.50752 0.47071
 O704 O 0.02081 0.49252 0.48531
 Zr705 Zr -0.02950 0.49320 0.49008
 O706 O -0.01496 0.47712 0.50542
 Zr707 Zr -0.01014 0.52716 0.50444
 O708 O 0.00507 0.51287 0.52096
 O709 O 0.01476 0.48309 0.51510
 O710 O -0.01765 0.51515 0.48249
 C711 C 0.00055 0.45183 0.52621
 C712 C 0.04604 0.47186 0.50061
 C713 C 0.02588 0.49755 0.54631
 C714 C -0.00422 0.54541 0.47012
 C715 C -0.02952 0.50215 0.45200
 C716 C -0.04825 0.52712 0.49568
 H717 H -0.01078 0.47863 0.46709
 H718 H -0.03320 0.50867 0.51908
 H719 H 0.02197 0.47597 0.52230
 H720 H 0.01890 0.53062 0.48907
 H721 H 0.03544 0.51012 0.46191
 H722 H 0.04602 0.51953 0.48656
 H723 H -0.05280 0.48969 0.51251
 H724 H -0.03456 0.47351 0.53069
 H725 H 0.01232 0.49843 0.44030
 H726 H 0.02195 0.45038 0.47190
 H727 H -0.02713 0.53320 0.53148
 H728 H -0.01212 0.51415 0.54825
 H729 H -0.01677 0.45002 0.48924
 H730 H -0.03528 0.46627 0.47269
 H731 H 0.02989 0.53219 0.52537
 H732 H 0.01216 0.55067 0.50766
 O733 O 0.50656 0.95132 0.01153
 O734 O 0.49513 0.94922 -0.01511
 O735 O 0.54626 0.98721 0.00609
 O736 O 0.54916 1.01377 -0.00197
 O737 O 0.51092 0.99173 0.04712
 O738 O 0.48296 1.00186 0.04908
 O739 O 0.50091 1.03214 -0.03636
 O740 O 0.52592 1.01803 -0.03951
 O741 O 0.46290 0.99615 -0.03394
 O742 O 0.45817 0.97080 -0.01752
 O743 O 0.46469 1.03417 0.00225
 O744 O 0.48113 1.03953 0.02718
 O745 O 0.49074 1.04521 -0.01312
 O746 O 0.50231 1.04745 0.01632
 O747 O 0.45166 1.01089 -0.00771
 O748 O 0.45010 0.98163 0.00369
 O749 O 0.48579 1.00682 -0.04699
 O750 O 0.51333 0.99208 -0.04821
 O751 O 0.49598 0.96427 0.03469
 O752 O 0.47090 0.98075 0.03932
 O753 O 0.53401 1.00196 0.03405
 O754 O 0.53689 1.02787 0.01711
 O755 O 0.53329 0.96368 -0.00343
 O756 O 0.51659 0.96123 -0.02957
 Zr757 Zr 0.50797 0.97072 -0.00622
 O758 O 0.49221 0.98498 -0.02195
 Zr759 Zr 0.52673 1.00478 0.00881
 O760 O 0.51216 1.02040 -0.00674
 Zr761 Zr 0.49302 0.98963 0.02780
 O762 O 0.47694 1.00499 0.01348
 Zr763 Zr 0.50441 1.00735 -0.02828
 O764 O 0.52097 0.99239 -0.01384
 Zr765 Zr 0.47066 0.99260 -0.00893
 O766 O 0.48539 0.97651 0.00622
 Zr767 Zr 0.48977 1.02661 0.00564
 O768 O 0.50515 1.01231 0.02201
 O769 O 0.51509 0.98267 0.01588
 O770 O 0.48230 1.01471 -0.01638
 C771 C 0.50126 0.95120 0.02676
 C772 C 0.54642 0.97185 0.00116
 C773 C 0.52616 0.99697 0.04719
 C774 C 0.49543 1.04517 -0.02856
 C775 C 0.47047 1.00186 -0.04694
 C776 C 0.45164 1.02632 -0.00303
 H777 H 0.48943 0.97837 -0.03209
 H778 H 0.46691 1.00780 0.02019
 H779 H 0.52239 0.97556 0.02299
 H780 H 0.51874 1.03044 -0.00978
 H781 H 0.53537 1.01030 -0.03715
 H782 H 0.54596 1.01957 -0.01245
 H783 H 0.44747 0.98871 0.01354
 H784 H 0.46592 0.97247 0.03151
 H785 H 0.51230 0.99857 -0.05877
 H786 H 0.52241 0.95038 -0.02763
 H787 H 0.47280 1.03229 0.03277
 H788 H 0.48798 1.01320 0.04934
 H789 H 0.48378 0.94953 -0.01012
 H790 H 0.46508 0.96574 -0.02651
 H791 H 0.52981 1.03180 0.02652
 H792 H 0.51188 1.05028 0.00899
 O793 O 0.53562 0.50149 -0.03323
 O794 O 0.53932 0.52596 -0.01800
 O795 O 0.53372 0.46292 0.00429
 O796 O 0.51836 0.45674 0.02674
 O797 O 0.49640 0.46448 -0.03525
 O798 O 0.47200 0.48099 -0.03983
 O799 O 0.48790 0.50653 0.04771
 O800 O 0.51394 0.49419 0.04998
 O801 O 0.49187 0.54544 0.01290
 O802 O 0.50265 0.54790 -0.01568
 O803 O 0.45274 0.51089 0.00817
 O804 O 0.45012 0.48250 -0.00220
 O805 O 0.46464 0.49657 0.03449
 O806 O 0.46002 0.47029 0.01741
 O807 O 0.46578 0.53404 -0.00192
 O808 O 0.48286 0.53833 -0.02789
 O809 O 0.50149 0.53226 0.03625
 O810 O 0.52882 0.51716 0.03749
 O811 O 0.51224 0.49191 -0.04657
 O812 O 0.48390 0.50255 -0.04858
 O813 O 0.50641 0.45129 -0.01205
 O814 O 0.49444 0.45032 0.01661
 O815 O 0.54682 0.48586 -0.00626
 O816 O 0.54757 0.51415 0.00668
 Zr817 Zr 0.52783 0.50416 -0.00819
 O818 O 0.51325 0.52029 0.00683
 Zr819 Zr 0.50844 0.47028 0.00622
 O820 O 0.49346 0.48498 0.02227
 Zr821 Zr 0.49392 0.48966 -0.02767
 O822 O 0.47787 0.50487 -0.01318
 Zr823 Zr 0.50574 0.50742 0.02845
 O824 O 0.52175 0.49165 0.01425
 Zr825 Zr 0.49081 0.52648 -0.00548
 O826 O 0.50634 0.51206 -0.02146
 Zr827 Zr 0.47179 0.49263 0.00933
 O828 O 0.48598 0.47643 -0.00630
 O829 O 0.51581 0.48224 -0.01563
 O830 O 0.48355 0.51476 0.01663
 C831 C 0.52763 0.49681 -0.04647
 C832 C 0.54686 0.47068 -0.00085
 C833 C 0.50129 0.45129 -0.02736
 C834 C 0.47246 0.50190 0.04760
 C835 C 0.49629 0.54535 0.02841
 C836 C 0.45274 0.52628 0.00342
 H837 H 0.51988 0.53036 0.00975
 H838 H 0.46776 0.50762 -0.01983
 H839 H 0.52300 0.47503 -0.02277
 H840 H 0.49079 0.47849 0.03247
 H841 H 0.52441 0.48831 0.04678
 H842 H 0.51552 0.46317 0.03696
 H843 H 0.47286 0.53229 -0.03210
 H844 H 0.48968 0.51351 -0.04905
 H845 H 0.52687 0.52183 0.04887
 H846 H 0.55838 0.51223 0.00082
 H847 H 0.44880 0.48797 -0.01325
 H848 H 0.46639 0.47333 -0.03186
 H849 H 0.53087 0.53154 -0.02520
 H850 H 0.51329 0.54962 -0.00952
 H851 H 0.48428 0.44898 0.00957
 H852 H 0.46589 0.46638 0.02763
 O853 O -0.01169 0.00679 0.54932
 O854 O 0.01511 -0.00439 0.55126
 O855 O -0.00678 0.04675 0.51363
 O856 O 0.00129 0.04988 0.48710
 O857 O -0.04744 0.01106 0.50897
 O858 O -0.04914 -0.01688 0.49872
 O859 O 0.03599 0.00214 0.46830
 O860 O 0.03896 0.02706 0.48258
 O861 O 0.03407 -0.03614 0.50413
 O862 O 0.01779 -0.04115 0.52952
 O863 O -0.00226 -0.03450 0.46624
 O864 O -0.02739 -0.01827 0.46104
 O865 O 0.01279 -0.00822 0.45528
 O866 O -0.01674 0.00301 0.45316
 O867 O 0.00789 -0.04756 0.48942
 O868 O -0.00336 -0.04940 0.51869
 O869 O 0.04686 -0.01308 0.49351
 O870 O 0.04789 0.01437 0.50841
 O871 O -0.03479 -0.00392 0.53635
 O872 O -0.03924 -0.02892 0.51977
 O873 O -0.03460 0.03433 0.49884
 O874 O -0.01776 0.03754 0.47294
 O875 O 0.00294 0.03375 0.53707
 O876 O 0.02927 0.01734 0.53936
 Zr877 Zr 0.00600 0.00850 0.52988
 O878 O 0.02184 -0.00701 0.51549
 Zr879 Zr -0.00931 0.02730 0.49595
 O880 O 0.00632 0.01297 0.48021
 Zr881 Zr -0.02794 -0.00666 0.51096
 O882 O -0.01351 -0.02252 0.49549
 Zr883 Zr 0.02798 0.00537 0.49315
 O884 O 0.01344 0.02170 0.50825
 Zr885 Zr 0.00901 -0.02864 0.50779
 O886 O -0.00625 -0.01416 0.52399
 Zr887 Zr -0.00587 -0.00950 0.47393
 O888 O -0.02233 0.00565 0.48834
 O889 O -0.01621 0.01547 0.51801
 O890 O 0.01627 -0.01681 0.48572
 C891 C -0.02688 0.00135 0.54944
 C892 C -0.00183 0.04687 0.52900
 C893 C -0.04765 0.02632 0.50380
 C894 C 0.02818 -0.00334 0.45527
 C895 C 0.04698 -0.02842 0.49840
 C896 C 0.00315 -0.04755 0.47401
 H897 H 0.03203 -0.00972 0.52205
 H898 H -0.02014 -0.03260 0.49266
 H899 H -0.02338 0.02266 0.52518
 H900 H 0.00925 0.01964 0.47020
 H901 H 0.03655 0.03644 0.49038
 H902 H 0.01172 0.04680 0.48116
 H903 H -0.01324 -0.05207 0.51166
 H904 H -0.03134 -0.03390 0.52798
 H905 H 0.05843 0.01348 0.50188
 H906 H 0.02730 0.02305 0.55025
 H907 H -0.03283 -0.02674 0.46823
 H908 H -0.04950 -0.01178 0.48741
 H909 H 0.01020 -0.01577 0.55093
 H910 H 0.02674 -0.03420 0.53456
 H911 H -0.02709 0.03038 0.46897
 H912 H -0.00955 0.01272 0.45040
 O913 O 0.73965 0.20188 0.25668
 O914 O 0.76637 0.19989 0.24545
 O915 O 0.74496 0.23726 0.29702
 O916 O 0.75319 0.26373 0.30043
 O917 O 0.70412 0.24229 0.26148
 O918 O 0.70225 0.25280 0.23368
 O919 O 0.78768 0.28271 0.25275
 O920 O 0.79075 0.26827 0.27755
 O921 O 0.78530 0.24716 0.21414
 O922 O 0.76888 0.22192 0.20887
 O923 O 0.74911 0.28520 0.21630
 O924 O 0.72419 0.29043 0.23265
 O925 O 0.76446 0.29590 0.24262
 O926 O 0.73502 0.29807 0.25402
 O927 O 0.75909 0.26209 0.20294
 O928 O 0.74769 0.23286 0.20083
 O929 O 0.79832 0.25752 0.23729
 O930 O 0.79945 0.24247 0.26460
 O931 O 0.71654 0.21502 0.24616
 O932 O 0.71199 0.23182 0.22135
 O933 O 0.71714 0.25224 0.28483
 O934 O 0.73413 0.27807 0.28827
 O935 O 0.75449 0.21387 0.28375
 O936 O 0.78073 0.21160 0.26726
 Zr937 Zr 0.75743 0.22123 0.25857
 O938 O 0.77322 0.23566 0.24318
 Zr939 Zr 0.74241 0.25509 0.27778
 O940 O 0.75802 0.27086 0.26359
 Zr941 Zr 0.72348 0.24040 0.24369
 O942 O 0.73786 0.25592 0.22797
 Zr943 Zr 0.77956 0.25788 0.25578
 O944 O 0.76506 0.24273 0.27199
 Zr945 Zr 0.76028 0.24357 0.22166
 O946 O 0.74506 0.22733 0.23600
 Zr947 Zr 0.74569 0.27736 0.24122
 O948 O 0.72926 0.26291 0.25624
 O949 O 0.73533 0.23314 0.26572
 O950 O 0.76772 0.26552 0.23371
 C951 C 0.72443 0.20186 0.25127
 C952 C 0.74983 0.22187 0.29697
 C953 C 0.70402 0.24735 0.27680
 C954 C 0.77989 0.29580 0.24743
 C955 C 0.79831 0.25274 0.22189
 C956 C 0.75439 0.27751 0.20315
 H957 H 0.78337 0.22907 0.24037
 H958 H 0.73117 0.25886 0.21795
 H959 H 0.72818 0.22595 0.27284
 H960 H 0.76105 0.28081 0.27035
 H961 H 0.78835 0.26043 0.28685
 H962 H 0.76364 0.26964 0.29740
 H963 H 0.73785 0.23997 0.19825
 H964 H 0.71980 0.22359 0.21628
 H965 H 0.81002 0.24895 0.26376
 H966 H 0.77875 0.20069 0.27288
 H967 H 0.71859 0.28329 0.22418
 H968 H 0.70196 0.26406 0.23893
 H969 H 0.76139 0.20033 0.23408
 H970 H 0.77782 0.21674 0.21577
 H971 H 0.72475 0.28211 0.28119
 H972 H 0.74233 0.30076 0.26369
 O973 O 0.75454 0.71422 0.71707
 O974 O 0.77909 0.71058 0.73223
 O975 O 0.71606 0.71610 0.75465
 O976 O 0.70986 0.73143 0.77719
 O977 O 0.71729 0.75341 0.71527
 O978 O 0.73367 0.77781 0.71074
 O979 O 0.75948 0.76202 0.79818
 O980 O 0.74730 0.73594 0.80036
 O981 O 0.79835 0.75809 0.76329
 O982 O 0.80082 0.74728 0.73468
 O983 O 0.76355 0.79713 0.75877
 O984 O 0.73510 0.79969 0.74841
 O985 O 0.74936 0.78524 0.78504
 O986 O 0.72302 0.78982 0.76804
 O987 O 0.78675 0.78413 0.74857
 O988 O 0.79110 0.76703 0.72253
 O989 O 0.78526 0.74848 0.78664
 O990 O 0.77036 0.72111 0.78780
 O991 O 0.74477 0.73757 0.70383
 O992 O 0.75527 0.76591 0.70190
 O993 O 0.70423 0.74339 0.73846
 O994 O 0.70325 0.75534 0.76716
 O995 O 0.73906 0.70301 0.74402
 O996 O 0.76738 0.70232 0.75691
 Zr997 Zr 0.75724 0.72203 0.74213
 O998 O 0.77332 0.73665 0.75719
 Zr999 Zr 0.72328 0.74138 0.75668
 O1000 O 0.73791 0.75640 0.77275
 Zr1001 Zr 0.74249 0.75590 0.72280
 O1002 O 0.75764 0.77199 0.73732
 Zr1003 Zr 0.76044 0.74416 0.77885
 O1004 O 0.74475 0.72811 0.76462
 Zr1005 Zr 0.77935 0.75909 0.74494
 O1006 O 0.76498 0.74353 0.72892
 Zr1007 Zr 0.74541 0.77806 0.75987
 O1008 O 0.72925 0.76383 0.74423
 O1009 O 0.73523 0.73401 0.73478
 O1010 O 0.76762 0.76635 0.76710
 C1011 C 0.74975 0.72219 0.70387
 C1012 C 0.72388 0.70296 0.74944
 C1013 C 0.70416 0.74851 0.72318
 C1014 C 0.75476 0.77745 0.79812
 C1015 C 0.79830 0.75370 0.77880
 C1016 C 0.77893 0.79715 0.75399
 H1017 H 0.78342 0.73004 0.76007
 H1018 H 0.76032 0.78210 0.73070
 H1019 H 0.72804 0.72682 0.72763
 H1020 H 0.73143 0.75906 0.78297
 H1021 H 0.74149 0.72545 0.79714
 H1022 H 0.71627 0.73433 0.78742
 H1023 H 0.78499 0.77701 0.71837
 H1024 H 0.76627 0.76014 0.70139
 H1025 H 0.77503 0.72309 0.79918
 H1026 H 0.76552 0.69151 0.75101
 H1027 H 0.74060 0.80105 0.73740
 H1028 H 0.72601 0.78342 0.71874
 H1029 H 0.78459 0.71904 0.72504
 H1030 H 0.80260 0.73663 0.74079
 H1031 H 0.70184 0.76551 0.76019
 H1032 H 0.71916 0.78394 0.77824
 O1033 O 0.28444 0.21748 0.74644
 O1034 O 0.28798 0.23264 0.72198
 O1035 O 0.28276 0.25505 0.78512
 O1036 O 0.26738 0.27750 0.79154
 O1037 O 0.24543 0.21562 0.78361
 O1038 O 0.22093 0.21115 0.76724
 O1039 O 0.23668 0.29861 0.74191
 O1040 O 0.26279 0.30078 0.75414
 O1041 O 0.24039 0.26380 0.70289
 O1042 O 0.25114 0.23521 0.70023
 O1043 O 0.20149 0.25925 0.73766
 O1044 O 0.19905 0.24890 0.76604
 O1045 O 0.21348 0.28552 0.75197
 O1046 O 0.20903 0.26849 0.77824
 O1047 O 0.21438 0.24909 0.71440
 O1048 O 0.23147 0.22303 0.70992
 O1049 O 0.25012 0.28710 0.71609
 O1050 O 0.27755 0.28821 0.73105
 O1051 O 0.26111 0.20425 0.75609
 O1052 O 0.23270 0.20237 0.74556
 O1053 O 0.25554 0.23875 0.79686
 O1054 O 0.24352 0.26748 0.79800
 O1055 O 0.29573 0.24443 0.76206
 O1056 O 0.29630 0.25731 0.73380
 Zr1057 Zr 0.27662 0.24255 0.74387
 O1058 O 0.26194 0.25763 0.72788
 Zr1059 Zr 0.25742 0.25703 0.77793
 O1060 O 0.24237 0.27316 0.76338
 Zr1061 Zr 0.24280 0.22323 0.75849
 O1062 O 0.22665 0.23779 0.74344
 Zr1063 Zr 0.25452 0.27927 0.74089
 O1064 O 0.27061 0.26501 0.75651
 Zr1065 Zr 0.23946 0.24542 0.72178
 O1066 O 0.25508 0.22937 0.73605
 Zr1067 Zr 0.22065 0.26033 0.75580
 O1068 O 0.23494 0.24462 0.77186
 O1069 O 0.26473 0.23516 0.76584
 O1070 O 0.23228 0.26757 0.73364
 C1071 C 0.27647 0.20428 0.75113
 C1072 C 0.29586 0.24987 0.77725
 C1073 C 0.25041 0.22346 0.79681
 C1074 C 0.22127 0.29858 0.74662
 C1075 C 0.24482 0.27929 0.70301
 C1076 C 0.20140 0.25450 0.72226
 H1077 H 0.26851 0.26052 0.71779
 H1078 H 0.21652 0.23118 0.74072
 H1079 H 0.27197 0.22800 0.77298
 H1080 H 0.23975 0.28338 0.76991
 H1081 H 0.27329 0.29753 0.75996
 H1082 H 0.26460 0.28773 0.78511
 H1083 H 0.22148 0.21889 0.71597
 H1084 H 0.23845 0.20184 0.73458
 H1085 H 0.27557 0.29958 0.72642
 H1086 H 0.30712 0.25140 0.73563
 H1087 H 0.19770 0.23787 0.76053
 H1088 H 0.21537 0.21915 0.77496
 H1089 H 0.27949 0.22548 0.71643
 H1090 H 0.26182 0.24126 0.69852
 H1091 H 0.23339 0.26046 0.79939
 H1092 H 0.21492 0.27870 0.78214
 O1093 O 0.26090 0.70153 0.24132
 O1094 O 0.23422 0.69968 0.25264
 O1095 O 0.25555 0.73706 0.20126
 O1096 O 0.24740 0.76360 0.19804
 O1097 O 0.29649 0.74172 0.23674
 O1098 O 0.29846 0.75212 0.26459
 O1099 O 0.21301 0.78263 0.24591
 O1100 O 0.20983 0.76828 0.22108
 O1101 O 0.21545 0.74693 0.28431
 O1102 O 0.23185 0.72163 0.28941
 O1103 O 0.25166 0.78481 0.28230
 O1104 O 0.27651 0.78997 0.26597
 O1105 O 0.23628 0.79567 0.25603
 O1106 O 0.26575 0.79764 0.24460
 O1107 O 0.24170 0.76172 0.29553
 O1108 O 0.25308 0.73241 0.29742
 O1109 O 0.20234 0.75743 0.26127
 O1110 O 0.20115 0.74248 0.23386
 O1111 O 0.28406 0.71448 0.25189
 O1112 O 0.28867 0.73120 0.27684
 O1113 O 0.28344 0.75182 0.21349
 O1114 O 0.26647 0.77778 0.21027
 O1115 O 0.24600 0.71369 0.21440
 O1116 O 0.21981 0.71154 0.23095
 Zr1117 Zr 0.24315 0.72100 0.23963
 O1118 O 0.22743 0.73548 0.25518
 Zr1119 Zr 0.25819 0.75481 0.22062
 O1120 O 0.24263 0.77063 0.23495
 Zr1121 Zr 0.27717 0.73990 0.25456
 O1122 O 0.26286 0.75549 0.27041
 Zr1123 Zr 0.22108 0.75776 0.24274
 O1124 O 0.23553 0.74258 0.22639
 Zr1125 Zr 0.24045 0.74325 0.27670
 O1126 O 0.25559 0.72694 0.26222
 Zr1127 Zr 0.25502 0.77700 0.25732
 O1128 O 0.27140 0.76249 0.24218
 O1129 O 0.26525 0.73279 0.23252
 O1130 O 0.23299 0.76528 0.26482
 C1131 C 0.27613 0.70140 0.24670
 C1132 C 0.25064 0.72170 0.20123
 C1133 C 0.29657 0.74682 0.22146
 C1134 C 0.22085 0.79568 0.25125
 C1135 C 0.20241 0.75257 0.27663
 C1136 C 0.24642 0.77712 0.29542
 H1137 H 0.21729 0.72893 0.25797
 H1138 H 0.26958 0.75836 0.28043
 H1139 H 0.27237 0.72557 0.22533
 H1140 H 0.23959 0.78061 0.22825
 H1141 H 0.21221 0.76047 0.21170
 H1142 H 0.23692 0.76948 0.20113
 H1143 H 0.26293 0.73949 0.30005
 H1144 H 0.28088 0.72297 0.28184
 H1145 H 0.19059 0.74901 0.23477
 H1146 H 0.22175 0.70063 0.22525
 H1147 H 0.28220 0.78272 0.27429
 H1148 H 0.29875 0.76341 0.25944
 H1149 H 0.23925 0.70003 0.26399
 H1150 H 0.22294 0.71648 0.28246
 H1151 H 0.27592 0.78172 0.21732
 H1152 H 0.25839 0.80044 0.23499
 O1153 O 0.23870 0.70344 0.75672
 O1154 O 0.26523 0.70140 0.74509
 O1155 O 0.24461 0.73910 0.79674
 O1156 O 0.25280 0.76562 0.79983
 O1157 O 0.20320 0.74386 0.76175
 O1158 O 0.20092 0.75417 0.73391
 O1159 O 0.28656 0.78428 0.75162
 O1160 O 0.29002 0.76997 0.77641
 O1161 O 0.28369 0.74849 0.71321
 O1162 O 0.26722 0.72315 0.70838
 O1163 O 0.24752 0.78649 0.71558
 O1164 O 0.22281 0.79180 0.73226
 O1165 O 0.26321 0.79739 0.74169
 O1166 O 0.23392 0.79961 0.75341
 O1167 O 0.25729 0.76326 0.70229
 O1168 O 0.24594 0.73402 0.70053
 O1169 O 0.29701 0.75905 0.73609
 O1170 O 0.29857 0.74412 0.76346
 O1171 O 0.21543 0.71649 0.74645
 O1172 O 0.21049 0.73311 0.72158
 O1173 O 0.21655 0.75395 0.78485
 O1174 O 0.23353 0.77982 0.78787
 O1175 O 0.25395 0.71563 0.78347
 O1176 O 0.27992 0.71326 0.76660
 Zr1177 Zr 0.25649 0.72282 0.75821
 O1178 O 0.27205 0.73715 0.74249
 Zr1179 Zr 0.24170 0.75679 0.77741
 O1180 O 0.25708 0.77248 0.76287
 Zr1181 Zr 0.22230 0.74185 0.74370
 O1182 O 0.23644 0.75727 0.72766
 Zr1183 Zr 0.27853 0.75946 0.75485
 O1184 O 0.26428 0.74441 0.77137
 Zr1185 Zr 0.25878 0.74489 0.72112
 O1186 O 0.24377 0.72875 0.73578
 Zr1187 Zr 0.24444 0.77882 0.74062
 O1188 O 0.22825 0.76446 0.75600
 O1189 O 0.23448 0.73475 0.76560
 O1190 O 0.26638 0.76694 0.73290
 C1191 C 0.22340 0.70337 0.75152
 C1192 C 0.24951 0.72372 0.79671
 C1193 C 0.20332 0.74901 0.77704
 C1194 C 0.27869 0.79734 0.74634
 C1195 C 0.29678 0.75417 0.72073
 C1196 C 0.25260 0.77868 0.70242
 H1197 H 0.28216 0.73056 0.73958
 H1198 H 0.22961 0.76013 0.71770
 H1199 H 0.22744 0.72761 0.77288
 H1200 H 0.26019 0.78247 0.76953
 H1201 H 0.28776 0.76218 0.78579
 H1202 H 0.26320 0.77151 0.79660
 H1203 H 0.23601 0.74107 0.69807
 H1204 H 0.21824 0.72486 0.71646
 H1205 H 0.30912 0.75061 0.76242
 H1206 H 0.27803 0.70237 0.77231
 H1207 H 0.21711 0.78459 0.72391
 H1208 H 0.20070 0.76547 0.73908
 H1209 H 0.26010 0.70176 0.73378
 H1210 H 0.27631 0.71808 0.71514
 H1211 H 0.22406 0.78382 0.78088
 H1212 H 0.24132 0.80234 0.76301
 O1213 O 0.21795 0.25231 0.21461
 O1214 O 0.23310 0.27674 0.21093
 O1215 O 0.25557 0.21365 0.21645
 O1216 O 0.27802 0.20729 0.23184
 O1217 O 0.21618 0.21531 0.25386
 O1218 O 0.21170 0.23183 0.27823
 O1219 O 0.29915 0.25706 0.26227
 O1220 O 0.30128 0.24471 0.23623
 O1221 O 0.26430 0.29607 0.25836
 O1222 O 0.23569 0.29867 0.24763
 O1223 O 0.25981 0.26150 0.29746
 O1224 O 0.24945 0.23309 0.30004
 O1225 O 0.28607 0.24712 0.28553
 O1226 O 0.26908 0.22090 0.29017
 O1227 O 0.24963 0.28469 0.28445
 O1228 O 0.22355 0.28909 0.26738
 O1229 O 0.28761 0.28282 0.24869
 O1230 O 0.28869 0.26772 0.22135
 O1231 O 0.20475 0.24276 0.23800
 O1232 O 0.20289 0.25342 0.26634
 O1233 O 0.23929 0.20201 0.24378
 O1234 O 0.26804 0.20095 0.25574
 O1235 O 0.24493 0.23665 0.20338
 O1236 O 0.25777 0.26491 0.20265
 Zr1237 Zr 0.24303 0.25491 0.22239
 O1238 O 0.25812 0.27097 0.23697
 Zr1239 Zr 0.25755 0.22095 0.24175
 O1240 O 0.27369 0.23557 0.25671
 Zr1241 Zr 0.22375 0.24045 0.25630
 O1242 O 0.23833 0.25559 0.27236
 Zr1243 Zr 0.27978 0.25800 0.24444
 O1244 O 0.26551 0.24230 0.22844
 Zr1245 Zr 0.24593 0.27719 0.25942
 O1246 O 0.22987 0.26284 0.24390
 Zr1247 Zr 0.26088 0.24326 0.27840
 O1248 O 0.24517 0.22713 0.26421
 O1249 O 0.23566 0.23299 0.23439
 O1250 O 0.26810 0.26537 0.26665
 C1251 C 0.20476 0.24766 0.22261
 C1252 C 0.25039 0.22146 0.20331
 C1253 C 0.22403 0.20208 0.24896
 C1254 C 0.29912 0.25242 0.27770
 C1255 C 0.27979 0.29593 0.25391
 C1256 C 0.25505 0.27691 0.29748
 H1257 H 0.26100 0.28103 0.23034
 H1258 H 0.23173 0.25835 0.28247
 H1259 H 0.22850 0.22582 0.22721
 H1260 H 0.28391 0.22905 0.25936
 H1261 H 0.29804 0.23884 0.22576
 H1262 H 0.28825 0.21374 0.23457
 H1263 H 0.21942 0.28308 0.27740
 H1264 H 0.20237 0.26438 0.26054
 H1265 H 0.30007 0.27235 0.22330
 H1266 H 0.25185 0.26302 0.19185
 H1267 H 0.23845 0.23869 0.30143
 H1268 H 0.21972 0.22417 0.28386
 H1269 H 0.22596 0.28234 0.21940
 H1270 H 0.24173 0.30034 0.23695
 H1271 H 0.26105 0.19962 0.26590
 H1272 H 0.27924 0.21694 0.28425
 O1273 O 0.74560 0.71443 0.28367
 O1274 O 0.72124 0.71072 0.26829
 O1275 O 0.78435 0.71659 0.24630
 O1276 O 0.79073 0.73213 0.22407
 O1277 O 0.78249 0.75374 0.28608
 O1278 O 0.76588 0.77807 0.29063
 O1279 O 0.74088 0.76247 0.20287
 O1280 O 0.75334 0.73648 0.20059
 O1281 O 0.70179 0.75821 0.23742
 O1282 O 0.69920 0.74734 0.26594
 O1283 O 0.73621 0.79743 0.24248
 O1284 O 0.76452 0.80011 0.25307
 O1285 O 0.75072 0.78569 0.21624
 O1286 O 0.77690 0.79030 0.23351
 O1287 O 0.71303 0.78429 0.25237
 O1288 O 0.70864 0.76711 0.27827
 O1289 O 0.71514 0.74872 0.21411
 O1290 O 0.73036 0.72146 0.21287
 O1291 O 0.75501 0.73778 0.29716
 O1292 O 0.74431 0.76608 0.29920
 O1293 O 0.79585 0.74384 0.26294
 O1294 O 0.79694 0.75599 0.23432
 O1295 O 0.76141 0.70336 0.25671
 O1296 O 0.73319 0.70260 0.24364
 Zr1297 Zr 0.74306 0.72231 0.25864
 O1298 O 0.72697 0.73691 0.24357
 Zr1299 Zr 0.77697 0.74187 0.24453
 O1300 O 0.76233 0.75686 0.22843
 Zr1301 Zr 0.75734 0.75617 0.27834
 O1302 O 0.74217 0.77225 0.26380
 Zr1303 Zr 0.73996 0.74454 0.22206
 O1304 O 0.75569 0.72852 0.23630
 Zr1305 Zr 0.72064 0.75928 0.25592
 O1306 O 0.73502 0.74372 0.27194
 Zr1307 Zr 0.75453 0.77845 0.24140
 O1308 O 0.77069 0.76424 0.25709
 O1309 O 0.76491 0.73435 0.26627
 O1310 O 0.73248 0.76666 0.23391
 C1311 C 0.75015 0.72238 0.29698
 C1312 C 0.77659 0.70339 0.25132
 C1313 C 0.79574 0.74891 0.27826
 C1314 C 0.74547 0.77792 0.20308
 C1315 C 0.70199 0.75383 0.22189
 C1316 C 0.72079 0.79736 0.24711
 H1317 H 0.71695 0.73025 0.24056
 H1318 H 0.73935 0.78232 0.27047
 H1319 H 0.77209 0.72715 0.27342
 H1320 H 0.76887 0.75958 0.21828
 H1321 H 0.75925 0.72602 0.20378
 H1322 H 0.78430 0.73488 0.21383
 H1323 H 0.71460 0.77713 0.28253
 H1324 H 0.73334 0.76029 0.29956
 H1325 H 0.72575 0.72344 0.20147
 H1326 H 0.73510 0.69178 0.24948
 H1327 H 0.75898 0.80135 0.26409
 H1328 H 0.77356 0.78373 0.28273
 H1329 H 0.71559 0.71913 0.27548
 H1330 H 0.69756 0.73670 0.25975
 H1331 H 0.79824 0.76609 0.24145
 H1332 H 0.78088 0.78450 0.22328
 O1333 O 0.71580 0.24598 0.78629
 O1334 O 0.73108 0.22150 0.78988
 O1335 O 0.75326 0.28457 0.78426
 O1336 O 0.77559 0.29087 0.76879
 O1337 O 0.71352 0.28299 0.74712
 O1338 O 0.70892 0.26650 0.72269
 O1339 O 0.79659 0.24117 0.73825
 O1340 O 0.79891 0.25345 0.76430
 O1341 O 0.76187 0.20213 0.74236
 O1342 O 0.73335 0.19961 0.75320
 O1343 O 0.75693 0.23672 0.70325
 O1344 O 0.74647 0.26506 0.70065
 O1345 O 0.78325 0.25114 0.71506
 O1346 O 0.76603 0.27736 0.71053
 O1347 O 0.74694 0.21354 0.71630
 O1348 O 0.72104 0.20917 0.73347
 O1349 O 0.78524 0.21537 0.75187
 O1350 O 0.78654 0.23044 0.77920
 O1351 O 0.70235 0.25554 0.76296
 O1352 O 0.70026 0.24490 0.73463
 O1353 O 0.73673 0.29621 0.75706
 O1354 O 0.76534 0.29727 0.74494
 O1355 O 0.74279 0.26161 0.79740
 O1356 O 0.75577 0.23334 0.79807
 Zr1357 Zr 0.74082 0.24333 0.77840
 O1358 O 0.75583 0.22726 0.76374
 Zr1359 Zr 0.75506 0.27726 0.75897
 O1360 O 0.77110 0.26262 0.74392
 Zr1361 Zr 0.72117 0.25783 0.74457
 O1362 O 0.73564 0.24267 0.72845
 Zr1363 Zr 0.77738 0.24019 0.75616
 O1364 O 0.76320 0.25590 0.77224
 Zr1365 Zr 0.74345 0.22106 0.74134
 O1366 O 0.72748 0.23543 0.75695
 Zr1367 Zr 0.75810 0.25496 0.72230
 O1368 O 0.74248 0.27112 0.73656
 O1369 O 0.73327 0.26525 0.76642
 O1370 O 0.76551 0.23284 0.73401
 C1371 C 0.70252 0.25065 0.77835
 C1372 C 0.74819 0.27679 0.79742
 C1373 C 0.72140 0.29619 0.75201
 C1374 C 0.79641 0.24586 0.72283
 C1375 C 0.77740 0.20226 0.74673
 C1376 C 0.75222 0.22132 0.70325
 H1377 H 0.75880 0.21720 0.77036
 H1378 H 0.72896 0.23991 0.71837
 H1379 H 0.72616 0.27244 0.77364
 H1380 H 0.78127 0.26915 0.74122
 H1381 H 0.79573 0.25933 0.77478
 H1382 H 0.78581 0.28444 0.76595
 H1383 H 0.71678 0.21521 0.72350
 H1384 H 0.69983 0.23394 0.74040
 H1385 H 0.79792 0.22580 0.77720
 H1386 H 0.74993 0.23522 0.80890
 H1387 H 0.73541 0.25961 0.69942
 H1388 H 0.71684 0.27420 0.71708
 H1389 H 0.72382 0.21595 0.78146
 H1390 H 0.73950 0.19793 0.76385
 H1391 H 0.75823 0.29863 0.73483
 H1392 H 0.77627 0.28129 0.71635
 C1393 C 0.09592 1.02535 1.17646
 C1394 C 0.09444 1.00932 1.16956
 C1395 C 0.10060 0.99548 1.17839
 C1396 C 0.10824 0.99766 1.19408
 C1397 C 0.10996 1.01383 1.20127
 C1398 C 0.10355 1.02762 1.19207
 C1399 C 0.08644 1.00725 1.15348
 C1400 C 0.07957 1.00603 1.14005
 C1401 C 0.07133 1.00510 1.12438
 C1402 C 0.06410 1.00460 1.11109
 C1403 C 0.05520 1.00428 1.09535
 C1404 C 0.03847 1.00954 1.09466
 C1405 C 0.02972 1.00925 1.07945
 C1406 C 0.03761 1.00367 1.06466
 C1407 C 0.05450 0.99850 1.06548
 C1408 C 0.06322 0.99881 1.08073
 H1409 H 0.09101 1.03615 1.16982
 H1410 H 0.09959 0.98299 1.17312
 H1411 H 0.11333 0.98663 1.20012
 H1412 H 0.10367 1.04022 1.19710
 H1413 H 0.03215 1.01385 1.10590
 H1414 H 0.01676 1.01334 1.07932
 H1415 H 0.06098 0.99415 1.05436
 H1416 H 0.07619 0.99475 1.08111
 C1417 C 0.61119 0.51544 0.66844
 C1418 C 0.59544 0.50778 0.66755
 C1419 C 0.58775 0.50202 0.68221
 C1420 C 0.59566 0.50418 0.69775
 C1421 C 0.61134 0.51219 0.69880
 C1422 C 0.61910 0.51763 0.68395
 C1423 C 0.58693 0.50640 0.65166
 C1424 C 0.57974 0.50556 0.63837
 C1425 C 0.57123 0.50487 0.62284
 C1426 C 0.56386 0.50445 0.60962
 C1427 C 0.55493 0.50408 0.59391
 C1428 C 0.53817 0.50928 0.59321
 C1429 C 0.52940 0.50886 0.57801
 C1430 C 0.53729 0.50320 0.56326
 C1431 C 0.55420 0.49809 0.56408
 C1432 C 0.56294 0.49853 0.57931
 H1433 H 0.61726 0.51992 0.65716
 H1434 H 0.57553 0.49613 0.68167
 H1435 H 0.58929 0.50004 0.70898
 H1436 H 0.63126 0.52363 0.68433
 H1437 H 0.53185 0.51363 0.60443
 H1438 H 0.51642 0.51290 0.57787
 H1439 H 0.56069 0.49370 0.55299
 H1440 H 0.57592 0.49451 0.57971
 C1441 C 0.39825 0.00586 0.67507
 C1442 C 0.40814 -0.00686 0.66804
 C1443 C 0.41022 -0.02204 0.67657
 C1444 C 0.40233 -0.02459 0.69197
 C1445 C 0.39222 -0.01197 0.69908
 C1446 C 0.39034 0.00334 0.69052
 C1447 C 0.41608 -0.00455 0.65203
 C1448 C 0.42287 -0.00310 0.63862
 C1449 C 0.43101 -0.00192 0.62297
 C1450 C 0.43815 -0.00128 0.60968
 C1451 C 0.44694 -0.00092 0.59393
 C1452 C 0.46358 -0.00643 0.59315
 C1453 C 0.47212 -0.00645 0.57787
 C1454 C 0.46411 -0.00095 0.56310
 C1455 C 0.44736 0.00462 0.56403
 C1456 C 0.43884 0.00462 0.57936
 H1457 H 0.39654 0.01766 0.66856
 H1458 H 0.41790 -0.03195 0.67128
 H1459 H 0.40423 -0.03641 0.69838
 H1460 H 0.38251 0.01322 0.69561
 H1461 H 0.46996 -0.01078 0.60435
 H1462 H 0.48499 -0.01083 0.57765
 H1463 H 0.44080 0.00893 0.55294
 H1464 H 0.42593 0.00888 0.57982
 C1465 C -0.10176 0.50444 1.17404
 C1466 C -0.09169 0.49178 1.16715
 C1467 C -0.08951 0.47667 1.17577
 C1468 C -0.09744 0.47413 1.19116
 C1469 C -0.10771 0.48669 1.19814
 C1470 C -0.10971 0.50193 1.18947
 C1471 C -0.08368 0.49411 1.15117
 C1472 C -0.07684 0.49562 1.13779
 C1473 C -0.06869 0.49696 1.12216
 C1474 C -0.06158 0.49777 1.10886
 C1475 C -0.05291 0.49841 1.09307
 C1476 C -0.03608 0.49352 1.09217
 C1477 C -0.02765 0.49378 1.07683
 C1478 C -0.03597 0.49895 1.06211
 C1479 C -0.05291 0.50390 1.06316
 C1480 C -0.06131 0.50362 1.07854
 H1481 H -0.10355 0.51618 1.16745
 H1482 H -0.08169 0.46681 1.17059
 H1483 H -0.09544 0.46238 1.19766
 H1484 H -0.11766 0.51176 1.19446
 H1485 H -0.02947 0.48942 1.10334
 H1486 H -0.01463 0.48989 1.07652
 H1487 H -0.05971 0.50795 1.05211
 H1488 H -0.07436 0.50739 1.07909
 C1489 C -0.10185 0.49565 0.32216
 C1490 C -0.09565 0.50941 0.33110
 C1491 C -0.09696 0.52546 0.32428
 C1492 C -0.10444 0.52784 0.30862
 C1493 C -0.11087 0.51413 0.29931
 C1494 C -0.10935 0.49794 0.30643
 C1495 C -0.08772 0.50721 0.34719
 C1496 C -0.08090 0.50588 0.36063
 C1497 C -0.07268 0.50481 0.37629
 C1498 C -0.06545 0.50421 0.38957
 C1499 C -0.05656 0.50376 0.40530
 C1500 C -0.03992 0.50924 0.40609
 C1501 C -0.03116 0.50883 0.42129
 C1502 C -0.03895 0.50291 0.43596
 C1503 C -0.05574 0.49752 0.43505
 C1504 C -0.06447 0.49795 0.41981
 H1505 H -0.10097 0.48314 0.32738
 H1506 H -0.09201 0.53620 0.33101
 H1507 H -0.10443 0.54045 0.30366
 H1508 H -0.11448 0.48698 0.30030
 H1509 H -0.03368 0.51381 0.39493
 H1510 H -0.01828 0.51310 0.42150
 H1511 H -0.06214 0.49290 0.44607
 H1512 H -0.07737 0.49371 0.41934
 C1513 C 0.39804 0.99619 -0.17680
 C1514 C 0.40420 1.00988 -0.16774
 C1515 C 0.40287 1.02599 -0.17443
 C1516 C 0.39542 1.02847 -0.19009
 C1517 C 0.38903 1.01483 -0.19953
 C1518 C 0.39057 0.99858 -0.19252
 C1519 C 0.41211 1.00757 -0.15165
 C1520 C 0.41892 1.00614 -0.13822
 C1521 C 0.42714 1.00496 -0.12256
 C1522 C 0.43438 1.00427 -0.10928
 C1523 C 0.44331 1.00372 -0.09358
 C1524 C 0.45990 1.00933 -0.09276
 C1525 C 0.46869 1.00883 -0.07759
 C1526 C 0.46099 1.00269 -0.06296
 C1527 C 0.44424 0.99717 -0.06389
 C1528 C 0.43548 0.99768 -0.07911
 H1529 H 0.39894 0.98364 -0.17167
 H1530 H 0.40779 1.03668 -0.16761
 H1531 H 0.39542 1.04112 -0.19495
 H1532 H 0.38548 0.98766 -0.19876
 H1533 H 0.46607 1.01407 -0.10388
 H1534 H 0.48154 1.01321 -0.07735
 H1535 H 0.43791 0.99238 -0.05290
 H1536 H 0.42262 0.99334 -0.07960
 C1537 C 0.58723 0.49955 -0.18157
 C1538 C 0.59469 0.49356 -0.16683
 C1539 C 0.61027 0.48549 -0.16756
 C1540 C 0.61823 0.48313 -0.18298
 C1541 C 0.61069 0.48879 -0.19791
 C1542 C 0.59519 0.49722 -0.19702
 C1543 C 0.58609 0.49505 -0.15104
 C1544 C 0.57884 0.49591 -0.13781
 C1545 C 0.57031 0.49655 -0.12233
 C1546 C 0.56297 0.49684 -0.10913
 C1547 C 0.55411 0.49696 -0.09342
 C1548 C 0.53734 0.49186 -0.09282
 C1549 C 0.52873 0.49179 -0.07756
 C1550 C 0.53679 0.49683 -0.06265
 C1551 C 0.55368 0.50194 -0.06340
 C1552 C 0.56226 0.50199 -0.07868
 H1553 H 0.57514 0.50576 -0.18115
 H1554 H 0.61617 0.48082 -0.15623
 H1555 H 0.63026 0.47680 -0.18324
 H1556 H 0.58899 0.50155 -0.20831
 H1557 H 0.53092 0.48791 -0.10414
 H1558 H 0.51576 0.48778 -0.07748
 H1559 H 0.56029 0.50589 -0.05220
 H1560 H 0.57525 0.50593 -0.07900
 C1561 C 0.08958 -0.02406 0.32437
 C1562 C 0.09222 -0.00926 0.33345
 C1563 C 0.10245 0.00333 0.32680
 C1564 C 0.11018 0.00103 0.31121
 C1565 C 0.10779 -0.01393 0.30214
 C1566 C 0.09728 -0.02638 0.30883
 C1567 C 0.08454 -0.00726 0.34965
 C1568 C 0.07796 -0.00608 0.36320
 C1569 C 0.07006 -0.00518 0.37900
 C1570 C 0.06309 -0.00472 0.39240
 C1571 C 0.05447 -0.00445 0.40824
 C1572 C 0.06264 0.00115 0.42276
 C1573 C 0.05417 0.00141 0.43811
 C1574 C 0.03737 -0.00394 0.43912
 C1575 C 0.02933 -0.00964 0.42444
 C1576 C 0.03783 -0.00988 0.40914
 H1577 H 0.08162 -0.03385 0.32935
 H1578 H 0.10458 0.01483 0.33374
 H1579 H 0.11829 0.01077 0.30641
 H1580 H 0.09498 -0.03791 0.30201
 H1581 H 0.07555 0.00534 0.42221
 H1582 H 0.06076 0.00585 0.44914
 H1583 H 0.01643 -0.01386 0.42473
 H1584 H 0.03139 -0.01428 0.39799
 C1585 C 0.18029 1.08966 1.00000
 C1586 C 0.16657 1.09518 1.00940
 C1587 C 0.16845 1.10862 1.02048
 C1588 C 0.18404 1.11635 1.02242
 C1589 C 0.19824 1.11075 1.01333
 C1590 C 0.19593 1.09737 1.00186
 C1591 C 0.15065 1.08677 1.00813
 C1592 C 0.13732 1.07968 1.00742
 C1593 C 0.12175 1.07131 1.00693
 C1594 C 0.10850 1.06404 1.00670
 C1595 C 0.09278 1.05520 1.00656
 C1596 C 0.09207 1.03862 1.01221
 C1597 C 0.07687 1.02990 1.01195
 C1598 C 0.06213 1.03767 1.00601
 C1599 C 0.06296 1.05442 1.00048
 C1600 C 0.07819 1.06310 1.00076
 H1601 H 0.17898 1.07916 0.99145
 H1602 H 0.15785 1.11312 1.02770
 H1603 H 0.18466 1.12704 1.03077
 H1604 H 0.20630 1.09211 0.99488
 H1605 H 0.10328 1.03239 1.01675
 H1606 H 0.07672 1.01705 1.01632
 H1607 H 0.05188 1.06080 0.99585
 H1608 H 0.07859 1.07595 0.99639
 C1609 C 0.67377 0.60290 0.49860
 C1610 C 0.66718 0.59303 0.51150
 C1611 C 0.67635 0.59075 0.52631
 C1612 C 0.69200 0.59836 0.52827
 C1613 C 0.69871 0.60839 0.51544
 C1614 C 0.68946 0.61053 0.50054
 C1615 C 0.65102 0.58519 0.50969
 C1616 C 0.63755 0.57844 0.50853
 C1617 C 0.62187 0.57031 0.50753
 C1618 C 0.60858 0.56315 0.50689
 C1619 C 0.59285 0.55433 0.50631
 C1620 C 0.59201 0.53771 0.51184
 C1621 C 0.57682 0.52901 0.51122
 C1622 C 0.56221 0.53682 0.50504
 C1623 C 0.56316 0.55360 0.49961
 C1624 C 0.57839 0.56227 0.50024
 H1625 H 0.66677 0.60476 0.48709
 H1626 H 0.67141 0.58308 0.53634
 H1627 H 0.69893 0.59625 0.53978
 H1628 H 0.69423 0.61830 0.49051
 H1629 H 0.60312 0.53145 0.51659
 H1630 H 0.57657 0.51614 0.51554
 H1631 H 0.55218 0.56001 0.49480
 H1632 H 0.57889 0.57515 0.49596
 C1633 C 0.67440 0.40340 -0.02388
 C1634 C 0.66785 0.40476 -0.00772
 C1635 C 0.67699 0.39855 0.00590
 C1636 C 0.69266 0.39100 0.00338
 C1637 C 0.69954 0.38946 -0.01292
 C1638 C 0.69001 0.39587 -0.02649
 C1639 C 0.65183 0.41275 -0.00525
 C1640 C 0.63844 0.41963 -0.00368
 C1641 C 0.62283 0.42789 -0.00234
 C1642 C 0.60957 0.43515 -0.00157
 C1643 C 0.59385 0.44407 -0.00105
 C1644 C 0.57928 0.43607 0.00448
 C1645 C 0.56398 0.44471 0.00461
 C1646 C 0.56307 0.46149 -0.00081
 C1647 C 0.57784 0.46941 -0.00629
 C1648 C 0.59309 0.46075 -0.00640
 H1649 H 0.66751 0.40835 -0.03451
 H1650 H 0.67198 0.39945 0.01849
 H1651 H 0.69895 0.38587 0.01425
 H1652 H 0.69476 0.39584 -0.03918
 H1653 H 0.57972 0.42314 0.00861
 H1654 H 0.55288 0.43821 0.00890
 H1655 H 0.57764 0.48230 -0.01055
 H1656 H 0.60430 0.46706 -0.01075
 C1657 C 0.17718 -0.09098 0.47530
 C1658 C 0.16850 -0.09335 0.49033
 C1659 C 0.17558 -0.10324 0.50301
 C1660 C 0.19124 -0.11084 0.50061
 C1661 C 0.19997 -0.10865 0.48544
 C1662 C 0.19279 -0.09856 0.47286
 C1663 C 0.15231 -0.08563 0.49254
 C1664 C 0.13879 -0.07897 0.49391
 C1665 C 0.12304 -0.07094 0.49506
 C1666 C 0.10968 -0.06385 0.49575
 C1667 C 0.09388 -0.05510 0.49633
 C1668 C 0.07951 -0.06310 0.50237
 C1669 C 0.06421 -0.05450 0.50294
 C1670 C 0.06308 -0.03774 0.49748
 C1671 C 0.07761 -0.02987 0.49133
 C1672 C 0.09288 -0.03849 0.49077
 H1673 H 0.17186 -0.08329 0.46543
 H1674 H 0.16895 -0.10517 0.51470
 H1675 H 0.19639 -0.11865 0.51046
 H1676 H 0.19932 -0.09641 0.46117
 H1677 H 0.08014 -0.07597 0.50667
 H1678 H 0.05329 -0.06096 0.50774
 H1679 H 0.07724 -0.01700 0.48700
 H1680 H 0.10392 -0.03219 0.48603
 C1681 C 0.32613 -0.09458 0.52336
 C1682 C 0.33261 -0.09299 0.50720
 C1683 C 0.32356 -0.09922 0.49353
 C1684 C 0.30807 -0.10707 0.49600
 C1685 C 0.30132 -0.10894 0.51231
 C1686 C 0.31072 -0.10242 0.52592
 C1687 C 0.34854 -0.08488 0.50483
 C1688 C 0.36189 -0.07797 0.50336
 C1689 C 0.37750 -0.06973 0.50218
 C1690 C 0.39077 -0.06254 0.50155
 C1691 C 0.40652 -0.05375 0.50118
 C1692 C 0.42114 -0.06195 0.49594
 C1693 C 0.43647 -0.05344 0.49592
 C1694 C 0.43737 -0.03659 0.50117
 C1695 C 0.42256 -0.02848 0.50639
 C1696 C 0.40727 -0.03701 0.50639
 H1697 H 0.33295 -0.08961 0.53404
 H1698 H 0.32852 -0.09813 0.48094
 H1699 H 0.30187 -0.11223 0.48509
 H1700 H 0.30601 -0.10265 0.53862
 H1701 H 0.42070 -0.07494 0.49192
 H1702 H 0.44759 -0.06009 0.49182
 H1703 H 0.42275 -0.01553 0.51051
 H1704 H 0.39603 -0.03055 0.51052
 C1705 C -0.17658 0.41071 1.02312
 C1706 C -0.16801 0.40819 1.00804
 C1707 C -0.17499 0.39792 0.99560
 C1708 C -0.19046 0.39011 0.99829
 C1709 C -0.19908 0.39246 1.01351
 C1710 C -0.19200 0.40292 1.02585
 C1711 C -0.15201 0.41611 1.00552
 C1712 C -0.13862 0.42291 1.00388
 C1713 C -0.12301 0.43107 1.00245
 C1714 C -0.10974 0.43824 1.00159
 C1715 C -0.09401 0.44704 1.00095
 C1716 C -0.07954 0.43896 0.99516
 C1717 C -0.06422 0.44748 0.99489
 C1718 C -0.06319 0.46424 1.00043
 C1719 C -0.07787 0.47224 1.00618
 C1720 C -0.09314 0.46369 1.00643
 H1721 H -0.17132 0.41869 1.03281
 H1722 H -0.16845 0.39587 0.98388
 H1723 H -0.19553 0.38201 0.98863
 H1724 H -0.19845 0.40518 1.03758
 H1725 H -0.08007 0.42605 0.99093
 H1726 H -0.05320 0.44093 0.99039
 H1727 H -0.07757 0.48511 1.01054
 H1728 H -0.10426 0.47006 1.01098
 C1729 C -0.17644 0.59453 0.47306
 C1730 C -0.16921 0.59334 0.48897
 C1731 C -0.17771 0.59980 0.50287
 C1732 C -0.19341 0.60745 0.50087
 C1733 C -0.20095 0.60886 0.48483
 C1734 C -0.19208 0.60216 0.47098
 C1735 C -0.15312 0.58532 0.49090
 C1736 C -0.13969 0.57844 0.49208
 C1737 C -0.12404 0.57019 0.49306
 C1738 C -0.11075 0.56296 0.49363
 C1739 C -0.09502 0.55408 0.49409
 C1740 C -0.08043 0.56213 0.49961
 C1741 C -0.06518 0.55342 0.50005
 C1742 C -0.06432 0.53651 0.49496
 C1743 C -0.07908 0.52858 0.48935
 C1744 C -0.09429 0.53731 0.48893
 H1745 H -0.17005 0.58939 0.46222
 H1746 H -0.17216 0.59902 0.51526
 H1747 H -0.19918 0.61278 0.51193
 H1748 H -0.19738 0.60208 0.45848
 H1749 H -0.08084 0.57512 0.50360
 H1750 H -0.05408 0.55993 0.50443
 H1751 H -0.07892 0.51560 0.48532
 H1752 H -0.10551 0.53097 0.48460
 C1753 C 0.32369 1.09376 -0.02641
 C1754 C 0.33061 1.09240 -0.01038
 C1755 C 0.32190 1.09884 0.00340
 C1756 C 0.30633 1.10669 0.00115
 C1757 C 0.29912 1.10832 -0.01502
 C1758 C 0.30818 1.10159 -0.02875
 C1759 C 0.34661 1.08426 -0.00822
 C1760 C 0.36001 1.07733 -0.00688
 C1761 C 0.37564 1.06905 -0.00575
 C1762 C 0.38893 1.06183 -0.00508
 C1763 C 0.40469 1.05299 -0.00454
 C1764 C 0.41923 1.06111 0.00103
 C1765 C 0.43453 1.05249 0.00146
 C1766 C 0.43549 1.03559 -0.00367
 C1767 C 0.42078 1.02759 -0.00930
 C1768 C 0.40552 1.03624 -0.00972
 H1769 H 0.33024 1.08863 -0.03717
 H1770 H 0.32720 1.09793 0.01589
 H1771 H 0.30040 1.11201 0.01213
 H1772 H 0.30313 1.10165 -0.04134
 H1773 H 0.41875 1.07409 0.00503
 H1774 H 0.44558 1.05905 0.00586
 H1775 H 0.42102 1.01462 -0.01336
 H1776 H 0.39435 1.02984 -0.01409
 C1777 C -0.00412 1.17781 1.10109
 C1778 C 0.00951 1.16863 1.09494
 C1779 C 0.02566 1.17524 1.09617
 C1780 C 0.02826 1.19090 1.10356
 C1781 C 0.01470 1.20043 1.10998
 C1782 C -0.00160 1.19355 1.10849
 C1783 C 0.00711 1.15248 1.08720
 C1784 C 0.00566 1.13897 1.08054
 C1785 C 0.00451 1.12321 1.07252
 C1786 C 0.00390 1.10985 1.06544
 C1787 C 0.00349 1.09405 1.05668
 C1788 C -0.00193 1.07950 1.06482
 C1789 C -0.00223 1.06418 1.05624
 C1790 C 0.00289 1.06321 1.03937
 C1791 C 0.00839 1.07793 1.03135
 C1792 C 0.00867 1.09321 1.03995
 H1793 H -0.01670 1.17276 1.10026
 H1794 H 0.03629 1.16833 1.09125
 H1795 H 0.04094 1.19568 1.10350
 H1796 H -0.01246 1.19987 1.11360
 H1797 H -0.00593 1.08001 1.07779
 H1798 H -0.00653 1.05312 1.06281
 H1799 H 0.01243 1.07768 1.01839
 H1800 H 0.01294 1.10438 1.03354
 C1801 C 0.49635 0.67491 0.60338
 C1802 C 0.50933 0.66775 0.59395
 C1803 C 0.52455 0.67626 0.59224
 C1804 C 0.52686 0.69179 0.60002
 C1805 C 0.51398 0.69904 0.60966
 C1806 C 0.49864 0.69049 0.61117
 C1807 C 0.50723 0.65164 0.58605
 C1808 C 0.50594 0.63818 0.57927
 C1809 C 0.50488 0.62248 0.57113
 C1810 C 0.50428 0.60916 0.56398
 C1811 C 0.50382 0.59339 0.55518
 C1812 C 0.49825 0.57887 0.56327
 C1813 C 0.49785 0.56357 0.55465
 C1814 C 0.50303 0.56261 0.53779
 C1815 C 0.50868 0.57729 0.52983
 C1816 C 0.50906 0.59255 0.53847
 H1817 H 0.48451 0.66841 0.60478
 H1818 H 0.53465 0.67088 0.58491
 H1819 H 0.53871 0.69820 0.59838
 H1820 H 0.48854 0.69570 0.61863
 H1821 H 0.49420 0.57937 0.57622
 H1822 H 0.49344 0.55254 0.56118
 H1823 H 0.51277 0.57704 0.51689
 H1824 H 0.51343 0.60370 0.53211
 C1825 C -0.02546 0.67588 0.40782
 C1826 C -0.01060 0.66688 0.40532
 C1827 C 0.00222 0.67377 0.39555
 C1828 C 0.00013 0.68960 0.38823
 C1829 C -0.01485 0.69867 0.39058
 C1830 C -0.02758 0.69166 0.40052
 C1831 C -0.00866 0.65058 0.41285
 C1832 C -0.00749 0.63701 0.41940
 C1833 C -0.00655 0.62123 0.42735
 C1834 C -0.00603 0.60788 0.43442
 C1835 C -0.00566 0.59212 0.44322
 C1836 C -0.00010 0.57752 0.43519
 C1837 C 0.00027 0.56227 0.44386
 C1838 C -0.00491 0.56145 0.46072
 C1839 C -0.01058 0.57622 0.46862
 C1840 C -0.01094 0.59142 0.45993
 H1841 H -0.03543 0.67071 0.41542
 H1842 H 0.01378 0.66690 0.39353
 H1843 H 0.01009 0.69461 0.38052
 H1844 H -0.03914 0.69844 0.40280
 H1845 H 0.00398 0.57791 0.42224
 H1846 H 0.00469 0.55117 0.43738
 H1847 H -0.01469 0.57609 0.48156
 H1848 H -0.01530 0.60264 0.46626
 C1849 C 0.49893 1.17955 -0.08964
 C1850 C 0.48970 1.16574 -0.09520
 C1851 C 0.47865 1.16751 -0.10869
 C1852 C 0.47658 1.18308 -0.11643
 C1853 C 0.48552 1.19736 -0.11082
 C1854 C 0.49694 1.19518 -0.09736
 C1855 C 0.49116 1.14983 -0.08681
 C1856 C 0.49204 1.13650 -0.07973
 C1857 C 0.49278 1.12093 -0.07136
 C1858 C 0.49322 1.10768 -0.06411
 C1859 C 0.49363 1.09194 -0.05530
 C1860 C 0.49916 1.07737 -0.06340
 C1861 C 0.49965 1.06211 -0.05477
 C1862 C 0.49459 1.06124 -0.03788
 C1863 C 0.48894 1.07597 -0.02990
 C1864 C 0.48847 1.09119 -0.03856
 H1865 H 0.50746 1.17834 -0.07911
 H1866 H 0.47156 1.15684 -0.11322
 H1867 H 0.46827 1.18361 -0.12716
 H1868 H 0.50380 1.20561 -0.09207
 H1869 H 0.50315 1.07780 -0.07638
 H1870 H 0.50404 1.05104 -0.06132
 H1871 H 0.48494 1.07579 -0.01693
 H1872 H 0.48413 1.10239 -0.03217
 C1873 C 0.52388 0.32333 -0.09407
 C1874 C 0.50776 0.33010 -0.09299
 C1875 C 0.49416 0.32123 -0.09959
 C1876 C 0.49666 0.30563 -0.10729
 C1877 C 0.51292 0.29857 -0.10862
 C1878 C 0.52647 0.30779 -0.10175
 C1879 C 0.50535 0.34612 -0.08497
 C1880 C 0.50384 0.35953 -0.07811
 C1881 C 0.50259 0.37518 -0.06988
 C1882 C 0.50191 0.38847 -0.06268
 C1883 C 0.50147 0.40422 -0.05383
 C1884 C 0.50662 0.40496 -0.03706
 C1885 C 0.50655 0.42025 -0.02846
 C1886 C 0.50130 0.43507 -0.03652
 C1887 C 0.49610 0.43418 -0.05340
 C1888 C 0.49620 0.41885 -0.06198
 H1889 H 0.53449 0.33000 -0.08882
 H1890 H 0.48161 0.32643 -0.09890
 H1891 H 0.48582 0.29957 -0.11274
 H1892 H 0.53911 0.30285 -0.10158
 H1893 H 0.51077 0.39372 -0.03064
 H1894 H 0.51063 0.42043 -0.01550
 H1895 H 0.49199 0.44532 -0.06000
 H1896 H 0.49222 0.41843 -0.07498
 C1897 C 0.02481 -0.17776 0.41047
 C1898 C 0.00988 -0.16876 0.40831
 C1899 C -0.00301 -0.17546 0.39840
 C1900 C -0.00091 -0.19106 0.39058
 C1901 C 0.01414 -0.20011 0.39256
 C1902 C 0.02693 -0.19331 0.40267
 C1903 C 0.00796 -0.15264 0.41625
 C1904 C 0.00678 -0.13918 0.42306
 C1905 C 0.00580 -0.12348 0.43124
 C1906 C 0.00522 -0.11017 0.43841
 C1907 C 0.00476 -0.09440 0.44723
 C1908 C 0.01011 -0.09358 0.46393
 C1909 C 0.00969 -0.07833 0.47260
 C1910 C 0.00388 -0.06365 0.46468
 C1911 C -0.00140 -0.06460 0.44783
 C1912 C -0.00095 -0.07988 0.43918
 H1913 H 0.03483 -0.17273 0.41817
 H1914 H -0.01461 -0.16858 0.39663
 H1915 H -0.01091 -0.19590 0.38276
 H1916 H 0.03855 -0.20009 0.40466
 H1917 H 0.01460 -0.10473 0.47027
 H1918 H 0.01386 -0.07809 0.48554
 H1919 H -0.00593 -0.05357 0.44132
 H1920 H -0.00510 -0.08038 0.42623
 C1921 C 0.48531 -0.16804 0.60993
 C1922 C 0.49389 -0.16715 0.59467
 C1923 C 0.50023 -0.18180 0.58732
 C1924 C 0.49775 -0.19733 0.59505
 C1925 C 0.48884 -0.19839 0.61022
 C1926 C 0.48280 -0.18354 0.61767
 C1927 C 0.49560 -0.15129 0.58625
 C1928 C 0.49669 -0.13803 0.57910
 C1929 C 0.49762 -0.12255 0.57060
 C1930 C 0.49817 -0.10938 0.56324
 C1931 C 0.49859 -0.09371 0.55432
 C1932 C 0.49361 -0.09309 0.53749
 C1933 C 0.49378 -0.07787 0.52882
 C1934 C 0.49895 -0.06301 0.53687
 C1935 C 0.50396 -0.06379 0.55381
 C1936 C 0.50377 -0.07903 0.56245
 H1937 H 0.48037 -0.15678 0.61574
 H1938 H 0.50683 -0.18126 0.57547
 H1939 H 0.50238 -0.20855 0.58892
 H1940 H 0.47610 -0.18394 0.62946
 H1941 H 0.48954 -0.10437 0.53108
 H1942 H 0.48984 -0.07777 0.51581
 H1943 H 0.50800 -0.05262 0.56042
 H1944 H 0.50762 -0.07937 0.57549
 C1945 C 0.00291 0.31918 1.08800
 C1946 C -0.00604 0.33335 1.09316
 C1947 C -0.01728 0.33215 1.10649
 C1948 C -0.01980 0.31681 1.11450
 C1949 C -0.01114 0.30217 1.10932
 C1950 C 0.00047 0.30377 1.09600
 C1951 C -0.00414 0.34906 1.08449
 C1952 C -0.00295 0.36224 1.07722
 C1953 C -0.00197 0.37770 1.06868
 C1954 C -0.00143 0.39088 1.06132
 C1955 C -0.00108 0.40659 1.05245
 C1956 C 0.00440 0.42118 1.06052
 C1957 C 0.00445 0.43648 1.05196
 C1958 C -0.00101 0.43738 1.03517
 C1959 C -0.00647 0.42259 1.02717
 C1960 C -0.00650 0.40732 1.03577
 H1961 H 0.01158 0.31995 1.07759
 H1962 H -0.02416 0.34311 1.11070
 H1963 H -0.02823 0.31672 1.12511
 H1964 H 0.00713 0.29304 1.09103
 H1965 H 0.00859 0.42076 1.07346
 H1966 H 0.00873 0.44759 1.05851
 H1967 H -0.01076 0.42278 1.01428
 H1968 H -0.01081 0.39610 1.02941
 C1969 C 0.74973 0.34004 0.06934
 C1970 C 0.75871 0.34556 0.08336
 C1971 C 0.76955 0.35919 0.08191
 C1972 C 0.77172 0.36709 0.06645
 C1973 C 0.76309 0.36148 0.05195
 C1974 C 0.75181 0.34792 0.05382
 C1975 C 0.75728 0.33694 0.09914
 C1976 C 0.75647 0.32967 0.11236
 C1977 C 0.75588 0.32108 0.12781
 C1978 C 0.75559 0.31366 0.14097
 C1979 C 0.75540 0.30468 0.15661
 C1980 C 0.76072 0.28796 0.15717
 C1981 C 0.76051 0.27915 0.17231
 C1982 C 0.75495 0.28697 0.18715
 C1983 C 0.74972 0.30385 0.18647
 C1984 C 0.74995 0.31262 0.17129
 H1985 H 0.74136 0.32940 0.07031
 H1986 H 0.77644 0.36370 0.09275
 H1987 H 0.77987 0.37790 0.06615
 H1988 H 0.74518 0.34265 0.04321
 H1989 H 0.76500 0.28170 0.14588
 H1990 H 0.76464 0.26620 0.17235
 H1991 H 0.74538 0.31027 0.19762
 H1992 H 0.74584 0.32558 0.17101
 C1993 C 0.24575 0.85338 0.57395
 C1994 C 0.25839 0.84335 0.58095
 C1995 C 0.27343 0.84091 0.57228
 C1996 C 0.27594 0.84860 0.55677
 C1997 C 0.26344 0.85890 0.54971
 C1998 C 0.24824 0.86109 0.55838
 C1999 C 0.25619 0.83565 0.59712
 C2000 C 0.25490 0.82903 0.61064
 C2001 C 0.25392 0.82105 0.62639
 C2002 C 0.25345 0.81400 0.63974
 C2003 C 0.25321 0.80525 0.65553
 C2004 C 0.25854 0.78854 0.65628
 C2005 C 0.25843 0.77995 0.67153
 C2006 C 0.25298 0.78795 0.68631
 C2007 C 0.24771 0.80481 0.68543
 C2008 C 0.24783 0.81338 0.67013
 H2009 H 0.23406 0.85535 0.58056
 H2010 H 0.28326 0.83311 0.57754
 H2011 H 0.28766 0.84644 0.55026
 H2012 H 0.23844 0.86903 0.55329
 H2013 H 0.26278 0.78214 0.64505
 H2014 H 0.26259 0.76701 0.67170
 H2015 H 0.24343 0.81137 0.69654
 H2016 H 0.24372 0.82634 0.66970
 C2017 C 0.73711 0.63933 0.58277
 C2018 C 0.74489 0.65504 0.58334
 C2019 C 0.75019 0.66265 0.56846
 C2020 C 0.74744 0.65472 0.55303
 C2021 C 0.73929 0.63910 0.55230
 C2022 C 0.73434 0.63140 0.56737
 C2023 C 0.74673 0.66363 0.59914
 C2024 C 0.74786 0.67086 0.61239
 C2025 C 0.74878 0.67939 0.62790
 C2026 C 0.74928 0.68674 0.64111
 C2027 C 0.74960 0.69564 0.65684
 C2028 C 0.74451 0.71243 0.65752
 C2029 C 0.74457 0.72107 0.67280
 C2030 C 0.74972 0.71301 0.68766
 C2031 C 0.75484 0.69611 0.68682
 C2032 C 0.75477 0.68750 0.67151
 H2033 H 0.73297 0.63332 0.59421
 H2034 H 0.75615 0.67484 0.56876
 H2035 H 0.75122 0.66103 0.54164
 H2036 H 0.72824 0.61928 0.56723
 H2037 H 0.74046 0.71885 0.64625
 H2038 H 0.74055 0.73405 0.67294
 H2039 H 0.75888 0.68950 0.69798
 H2040 H 0.75870 0.67449 0.67113
 C2041 C 0.22865 0.15953 0.07331
 C2042 C 0.24390 0.15695 0.08163
 C2043 C 0.25623 0.14678 0.07431
 C2044 C 0.25324 0.13909 0.05879
 C2045 C 0.23783 0.14145 0.05045
 C2046 C 0.22563 0.15187 0.05784
 C2047 C 0.24661 0.16467 0.09774
 C2048 C 0.24828 0.17132 0.11123
 C2049 C 0.24960 0.17936 0.12697
 C2050 C 0.25027 0.18645 0.14032
 C2051 C 0.25062 0.19522 0.15612
 C2052 C 0.24510 0.21186 0.15697
 C2053 C 0.24504 0.22039 0.17229
 C2054 C 0.25051 0.21237 0.18706
 C2055 C 0.25608 0.19561 0.18607
 C2056 C 0.25612 0.18711 0.17069
 H2057 H 0.21904 0.16743 0.07881
 H2058 H 0.26808 0.14469 0.08066
 H2059 H 0.26281 0.13104 0.05346
 H2060 H 0.21376 0.15414 0.05161
 H2061 H 0.24077 0.21825 0.14577
 H2062 H 0.24067 0.23325 0.17255
 H2063 H 0.26037 0.18905 0.19716
 H2064 H 0.26037 0.17420 0.17019
 C2065 C 0.26255 0.13993 0.91730
 C2066 C 0.25491 0.15574 0.91680
 C2067 C 0.24947 0.16329 0.93170
 C2068 C 0.25193 0.15520 0.94707
 C2069 C 0.25992 0.13946 0.94772
 C2070 C 0.26504 0.13184 0.93264
 C2071 C 0.25327 0.16444 0.90108
 C2072 C 0.25226 0.17177 0.88790
 C2073 C 0.25145 0.18040 0.87247
 C2074 C 0.25099 0.18783 0.85932
 C2075 C 0.25069 0.19678 0.84365
 C2076 C 0.24529 0.18877 0.82897
 C2077 C 0.24519 0.19742 0.81373
 C2078 C 0.25050 0.21424 0.81296
 C2079 C 0.25590 0.22217 0.82782
 C2080 C 0.25598 0.21348 0.84304
 H2081 H 0.26679 0.13396 0.90584
 H2082 H 0.24360 0.17556 0.93147
 H2083 H 0.24803 0.16147 0.95848
 H2084 H 0.27103 0.11963 0.93272
 H2085 H 0.24120 0.17582 0.82930
 H2086 H 0.24097 0.19092 0.80256
 H2087 H 0.26007 0.23508 0.82772
 H2088 H 0.26021 0.21979 0.85432
 C2089 C 0.74779 0.66268 0.43211
 C2090 C 0.75312 0.65506 0.41720
 C2091 C 0.76082 0.63928 0.41771
 C2092 C 0.76352 0.63130 0.43307
 C2093 C 0.75858 0.63902 0.44816
 C2094 C 0.75046 0.65470 0.44751
 C2095 C 0.75146 0.66373 0.40146
 C2096 C 0.75053 0.67100 0.38824
 C2097 C 0.74988 0.67956 0.37277
 C2098 C 0.74962 0.68693 0.35958
 C2099 C 0.74960 0.69582 0.34388
 C2100 C 0.75468 0.71260 0.34335
 C2101 C 0.75488 0.72123 0.32811
 C2102 C 0.75001 0.71318 0.31314
 C2103 C 0.74491 0.69629 0.31382
 C2104 C 0.74472 0.68769 0.32909
 H2105 H 0.74188 0.67492 0.43187
 H2106 H 0.76499 0.63327 0.40625
 H2107 H 0.76961 0.61914 0.43317
 H2108 H 0.74668 0.66102 0.45892
 H2109 H 0.75851 0.71900 0.35472
 H2110 H 0.75887 0.73420 0.32809
 H2111 H 0.74108 0.68970 0.30257
 H2112 H 0.74081 0.67469 0.32935
 C2113 C 0.23545 0.86039 0.41672
 C2114 C 0.24320 0.84466 0.41581
 C2115 C 0.24916 0.83701 0.43046
 C2116 C 0.24709 0.84492 0.44600
 C2117 C 0.23896 0.86057 0.44707
 C2118 C 0.23335 0.86831 0.43223
 C2119 C 0.24440 0.83611 0.39994
 C2120 C 0.24503 0.82890 0.38665
 C2121 C 0.24545 0.82039 0.37111
 C2122 C 0.24561 0.81304 0.35788
 C2123 C 0.24566 0.80413 0.34216
 C2124 C 0.24027 0.78745 0.34150
 C2125 C 0.24039 0.77871 0.32629
 C2126 C 0.24592 0.78653 0.31148
 C2127 C 0.25121 0.80336 0.31227
 C2128 C 0.25107 0.81208 0.32751
 H2129 H 0.23081 0.86644 0.40546
 H2130 H 0.25513 0.82480 0.42991
 H2131 H 0.25138 0.83857 0.45722
 H2132 H 0.22725 0.88045 0.43263
 H2133 H 0.23602 0.78119 0.35276
 H2134 H 0.23622 0.76579 0.32617
 H2135 H 0.25553 0.80979 0.30114
 H2136 H 0.25524 0.82500 0.32788
 C2137 C 0.73597 0.35932 0.91874
 C2138 C 0.74426 0.34385 0.91799
 C2139 C 0.75025 0.33643 0.93274
 C2140 C 0.74772 0.34432 0.94822
 C2141 C 0.73909 0.35971 0.94913
 C2142 C 0.73341 0.36721 0.93419
 C2143 C 0.74597 0.33532 0.90215
 C2144 C 0.74702 0.32812 0.88889
 C2145 C 0.74784 0.31961 0.87337
 C2146 C 0.74827 0.31226 0.86015
 C2147 C 0.74848 0.30335 0.84443
 C2148 C 0.74299 0.28671 0.84370
 C2149 C 0.74291 0.27807 0.82844
 C2150 C 0.74835 0.28596 0.81363
 C2151 C 0.75389 0.30271 0.81451
 C2152 C 0.75394 0.31133 0.82981
 H2153 H 0.73129 0.36519 0.90740
 H2154 H 0.75662 0.32442 0.93231
 H2155 H 0.75207 0.33815 0.95952
 H2156 H 0.72693 0.37916 0.93447
 H2157 H 0.73870 0.28043 0.85494
 H2158 H 0.73856 0.26521 0.82826
 H2159 H 0.75815 0.30919 0.80339
 H2160 H 0.75819 0.32422 0.83023
 C2161 C 0.85386 0.42461 0.25369
 C2162 C 0.84459 0.41719 0.24072
 C2163 C 0.84280 0.42551 0.22539
 C2164 C 0.85034 0.44110 0.22295
 C2165 C 0.85983 0.44861 0.23582
 C2166 C 0.86142 0.44025 0.25128
 C2167 C 0.83692 0.40101 0.24293
 C2168 C 0.83031 0.38750 0.24427
 C2169 C 0.82233 0.37175 0.24534
 C2170 C 0.81527 0.35841 0.24592
 C2171 C 0.80652 0.34264 0.24630
 C2172 C 0.78978 0.34188 0.24106
 C2173 C 0.78116 0.32664 0.24134
 C2174 C 0.78918 0.31189 0.24688
 C2175 C 0.80606 0.31278 0.25206
 C2176 C 0.81466 0.32807 0.25177
 H2177 H 0.85532 0.41826 0.26561
 H2178 H 0.83559 0.41993 0.21529
 H2179 H 0.84865 0.44735 0.21101
 H2180 H 0.86876 0.44566 0.26136
 H2181 H 0.78337 0.35308 0.23677
 H2182 H 0.76820 0.32646 0.23725
 H2183 H 0.81263 0.30170 0.25638
 H2184 H 0.82763 0.32851 0.25581
 C2185 C 0.35288 0.92584 0.75382
 C2186 C 0.34354 0.91873 0.74072
 C2187 C 0.34186 0.92729 0.72552
 C2188 C 0.34962 0.94281 0.72331
 C2189 C 0.35920 0.95000 0.73629
 C2190 C 0.36066 0.94141 0.75163
 C2191 C 0.33571 0.90260 0.74267
 C2192 C 0.32901 0.88911 0.74379
 C2193 C 0.32096 0.87338 0.74461
 C2194 C 0.31389 0.86004 0.74501
 C2195 C 0.30519 0.84424 0.74524
 C2196 C 0.28843 0.84346 0.74006
 C2197 C 0.27986 0.82820 0.74028
 C2198 C 0.28794 0.81345 0.74571
 C2199 C 0.30486 0.81435 0.75079
 C2200 C 0.31340 0.82966 0.75055
 H2201 H 0.35426 0.91930 0.76564
 H2202 H 0.33459 0.92195 0.71534
 H2203 H 0.34803 0.94924 0.71146
 H2204 H 0.36806 0.94659 0.76180
 H2205 H 0.28197 0.85468 0.73587
 H2206 H 0.26688 0.82800 0.73627
 H2207 H 0.31148 0.80326 0.75503
 H2208 H 0.32639 0.83011 0.75455
 C2209 C 0.14974 0.92646 0.24505
 C2210 C 0.15564 0.91707 0.25862
 C2211 C 0.15390 0.92331 0.27488
 C2212 C 0.14620 0.93880 0.27766
 C2213 C 0.13996 0.94852 0.26416
 C2214 C 0.14202 0.94204 0.24774
 C2215 C 0.16359 0.90104 0.25607
 C2216 C 0.17037 0.88759 0.25455
 C2217 C 0.17849 0.87188 0.25336
 C2218 C 0.18560 0.85853 0.25273
 C2219 C 0.19434 0.84272 0.25233
 C2220 C 0.21108 0.84186 0.25757
 C2221 C 0.21965 0.82656 0.25733
 C2222 C 0.21160 0.81184 0.25181
 C2223 C 0.19472 0.81282 0.24663
 C2224 C 0.18617 0.82817 0.24689
 H2225 H 0.15097 0.92170 0.23237
 H2226 H 0.15864 0.91623 0.28549
 H2227 H 0.14586 0.94329 0.29045
 H2228 H 0.13711 0.94853 0.23689
 H2229 H 0.21752 0.85304 0.26186
 H2230 H 0.23262 0.82631 0.26141
 H2231 H 0.18812 0.80176 0.24232
 H2232 H 0.17319 0.82868 0.24286
 C2233 C 0.65849 0.42615 0.77416
 C2234 C 0.65623 0.41759 0.75899
 C2235 C 0.64649 0.42480 0.74626
 C2236 C 0.63898 0.44050 0.74873
 C2237 C 0.64110 0.44914 0.76399
 C2238 C 0.65100 0.44180 0.77665
 C2239 C 0.66398 0.40143 0.75665
 C2240 C 0.67068 0.38794 0.75514
 C2241 C 0.67879 0.37224 0.75385
 C2242 C 0.68595 0.35893 0.75310
 C2243 C 0.69480 0.34318 0.75256
 C2244 C 0.68665 0.32856 0.74728
 C2245 C 0.69528 0.31325 0.74706
 C2246 C 0.71219 0.31238 0.75214
 C2247 C 0.72025 0.32719 0.75739
 C2248 C 0.71161 0.34246 0.75759
 H2249 H 0.66607 0.42072 0.78407
 H2250 H 0.64465 0.41827 0.73447
 H2251 H 0.63130 0.44576 0.73881
 H2252 H 0.65310 0.44825 0.78844
 H2253 H 0.67363 0.32897 0.74339
 H2254 H 0.68867 0.30211 0.74295
 H2255 H 0.73324 0.32703 0.76138
 H2256 H 0.71803 0.35369 0.76173
 C2257 C 0.64824 0.57515 0.75503
 C2258 C 0.65824 0.58209 0.74241
 C2259 C 0.66045 0.57344 0.72729
 C2260 C 0.65264 0.55799 0.72472
 C2261 C 0.64246 0.55094 0.73725
 C2262 C 0.64040 0.55965 0.75248
 C2263 C 0.66625 0.59808 0.74481
 C2264 C 0.67312 0.61145 0.74635
 C2265 C 0.68138 0.62704 0.74769
 C2266 C 0.68861 0.64028 0.74847
 C2267 C 0.69748 0.65598 0.74904
 C2268 C 0.68943 0.67055 0.75466
 C2269 C 0.69800 0.68585 0.75486
 C2270 C 0.71477 0.68676 0.74942
 C2271 C 0.72274 0.67199 0.74385
 C2272 C 0.71414 0.65674 0.74366
 H2273 H 0.64643 0.58175 0.76678
 H2274 H 0.66822 0.57866 0.71747
 H2275 H 0.65468 0.55147 0.71297
 H2276 H 0.63253 0.55462 0.76230
 H2277 H 0.67650 0.67011 0.75882
 H2278 H 0.69147 0.69694 0.75922
 H2279 H 0.73562 0.67219 0.73956
 H2280 H 0.72048 0.64554 0.73925
 C2281 C 0.16407 0.06701 0.25186
 C2282 C 0.15667 0.08188 0.24612
 C2283 C 0.14101 0.08137 0.23819
 C2284 C 0.13292 0.06603 0.23567
 C2285 C 0.14042 0.05097 0.24104
 C2286 C 0.15599 0.05164 0.24937
 C2287 C 0.16541 0.09759 0.24769
 C2288 C 0.17272 0.11078 0.24857
 C2289 C 0.18131 0.12624 0.24917
 C2290 C 0.18868 0.13943 0.24942
 C2291 C 0.19755 0.15514 0.24944
 C2292 C 0.18950 0.16985 0.25468
 C2293 C 0.19808 0.18513 0.25452
 C2294 C 0.21486 0.18591 0.24908
 C2295 C 0.22282 0.17101 0.24383
 C2296 C 0.21421 0.15576 0.24402
 H2297 H 0.17622 0.06725 0.25796
 H2298 H 0.13515 0.09280 0.23371
 H2299 H 0.12085 0.06593 0.22942
 H2300 H 0.16214 0.04024 0.25349
 H2301 H 0.17659 0.16952 0.25887
 H2302 H 0.19155 0.19633 0.25864
 H2303 H 0.23570 0.17111 0.23958
 H2304 H 0.22055 0.14445 0.23990
 C2305 C 0.33613 0.06894 0.74941
 C2306 C 0.34352 0.08371 0.75539
 C2307 C 0.35898 0.08300 0.76370
 C2308 C 0.36688 0.06756 0.76631
 C2309 C 0.35940 0.05260 0.76066
 C2310 C 0.34403 0.05348 0.75200
 C2311 C 0.33496 0.09953 0.75364
 C2312 C 0.32775 0.11279 0.75257
 C2313 C 0.31923 0.12830 0.75173
 C2314 C 0.31189 0.14152 0.75129
 C2315 C 0.30300 0.15725 0.75104
 C2316 C 0.31113 0.17192 0.74597
 C2317 C 0.30253 0.18723 0.74597
 C2318 C 0.28564 0.18806 0.75108
 C2319 C 0.27759 0.17321 0.75613
 C2320 C 0.28622 0.15793 0.75611
 H2321 H 0.32413 0.06935 0.74302
 H2322 H 0.36482 0.09435 0.76836
 H2323 H 0.37882 0.06730 0.77283
 H2324 H 0.33789 0.04216 0.74766
 H2325 H 0.32413 0.17153 0.74205
 H2326 H 0.30912 0.19839 0.74201
 H2327 H 0.26462 0.17336 0.76014
 H2328 H 0.27982 0.14665 0.76010
 C2329 C 0.83622 0.56803 0.24813
 C2330 C 0.84367 0.58280 0.25402
 C2331 C 0.85919 0.58208 0.26221
 C2332 C 0.86708 0.56664 0.26482
 C2333 C 0.85953 0.55168 0.25928
 C2334 C 0.84411 0.55255 0.25070
 C2335 C 0.83510 0.59863 0.25238
 C2336 C 0.82789 0.61190 0.25144
 C2337 C 0.81938 0.62742 0.25080
 C2338 C 0.81204 0.64065 0.25055
 C2339 C 0.80315 0.65639 0.25055
 C2340 C 0.81111 0.67105 0.24521
 C2341 C 0.80251 0.68636 0.24545
 C2342 C 0.78579 0.68720 0.25106
 C2343 C 0.77791 0.67235 0.25640
 C2344 C 0.78654 0.65707 0.25614
 H2345 H 0.82417 0.56845 0.24183
 H2346 H 0.86508 0.59343 0.26682
 H2347 H 0.87905 0.56637 0.27127
 H2348 H 0.83791 0.54124 0.24646
 H2349 H 0.82398 0.67066 0.24089
 H2350 H 0.80897 0.69752 0.24125
 H2351 H 0.76507 0.67250 0.26081
 H2352 H 0.78027 0.64580 0.26035
 C2353 C 0.92799 0.27503 0.15857
 C2354 C 0.91932 0.25994 0.15648
 C2355 C 0.92630 0.24710 0.14669
 C2356 C 0.94185 0.24942 0.13892
 C2357 C 0.95056 0.26465 0.14081
 C2358 C 0.94349 0.27738 0.15082
 C2359 C 0.90322 0.25783 0.16434
 C2360 C 0.88978 0.25657 0.17111
 C2361 C 0.87410 0.25555 0.17923
 C2362 C 0.86080 0.25497 0.18637
 C2363 C 0.84506 0.25452 0.19516
 C2364 C 0.83058 0.24866 0.18713
 C2365 C 0.81532 0.24819 0.19575
 C2366 C 0.81436 0.25359 0.21256
 C2367 C 0.82900 0.25956 0.22046
 C2368 C 0.84421 0.26001 0.21181
 H2369 H 0.92274 0.28502 0.16617
 H2370 H 0.91968 0.23537 0.14498
 H2371 H 0.94692 0.23945 0.13119
 H2372 H 0.95001 0.28913 0.15274
 H2373 H 0.83108 0.24442 0.17422
 H2374 H 0.80432 0.24353 0.18927
 H2375 H 0.82874 0.26383 0.23336
 H2376 H 0.85534 0.26461 0.21813
 C2377 C 0.43145 0.75235 0.66153
 C2378 C 0.41707 0.75867 0.65364
 C2379 C 0.41845 0.76671 0.63812
 C2380 C 0.43417 0.76872 0.63067
 C2381 C 0.44874 0.76273 0.63867
 C2382 C 0.44719 0.75433 0.65409
 C2383 C 0.40100 0.75751 0.66176
 C2384 C 0.38761 0.75684 0.66871
 C2385 C 0.37202 0.75634 0.67704
 C2386 C 0.35879 0.75606 0.68434
 C2387 C 0.34314 0.75584 0.69330
 C2388 C 0.32855 0.74990 0.68553
 C2389 C 0.31342 0.74949 0.69437
 C2390 C 0.31269 0.75501 0.71114
 C2391 C 0.32742 0.76110 0.71878
 C2392 C 0.34252 0.76149 0.70991
 H2393 H 0.43054 0.74616 0.67358
 H2394 H 0.40740 0.77163 0.63188
 H2395 H 0.43493 0.77503 0.61868
 H2396 H 0.45820 0.74976 0.66064
 H2397 H 0.32889 0.74551 0.67266
 H2398 H 0.30234 0.74474 0.68808
 H2399 H 0.32734 0.76548 0.73164
 H2400 H 0.35373 0.76614 0.71604
 C2401 C 0.42446 0.25498 0.85253
 C2402 C 0.41726 0.24261 0.84232
 C2403 C 0.42563 0.22737 0.83988
 C2404 C 0.44103 0.22440 0.84770
 C2405 C 0.44831 0.23665 0.85813
 C2406 C 0.43992 0.25204 0.86038
 C2407 C 0.40123 0.24532 0.83442
 C2408 C 0.38781 0.24702 0.82762
 C2409 C 0.37215 0.24844 0.81946
 C2410 C 0.35884 0.24923 0.81229
 C2411 C 0.34306 0.24975 0.80349
 C2412 C 0.32852 0.25529 0.81162
 C2413 C 0.31315 0.25539 0.80310
 C2414 C 0.31213 0.24992 0.78632
 C2415 C 0.32686 0.24442 0.77828
 C2416 C 0.34219 0.24434 0.78681
 H2417 H 0.41807 0.26683 0.85452
 H2418 H 0.42021 0.21773 0.83195
 H2419 H 0.44731 0.21254 0.84552
 H2420 H 0.44515 0.26165 0.86844
 H2421 H 0.32904 0.25946 0.82455
 H2422 H 0.30208 0.25970 0.80969
 H2423 H 0.32658 0.24011 0.76539
 H2424 H 0.35336 0.23997 0.78042
 C2425 C 0.93113 0.75060 0.33772
 C2426 C 0.91638 0.74492 0.34531
 C2427 C 0.91719 0.73681 0.36084
 C2428 C 0.93269 0.73409 0.36860
 C2429 C 0.94762 0.73941 0.36091
 C2430 C 0.94666 0.74791 0.34548
 C2431 C 0.90050 0.74669 0.33685
 C2432 C 0.88719 0.74773 0.32971
 C2433 C 0.87163 0.74854 0.32126
 C2434 C 0.85839 0.74892 0.31392
 C2435 C 0.84267 0.74909 0.30500
 C2436 C 0.82796 0.75428 0.31304
 C2437 C 0.81267 0.75423 0.30438
 C2438 C 0.81190 0.74896 0.28752
 C2439 C 0.82680 0.74378 0.27957
 C2440 C 0.84205 0.74385 0.28826
 H2441 H 0.93066 0.75683 0.32566
 H2442 H 0.90586 0.73237 0.36683
 H2443 H 0.93301 0.72772 0.38059
 H2444 H 0.95795 0.75199 0.33917
 H2445 H 0.82829 0.75833 0.32602
 H2446 H 0.80148 0.75830 0.31091
 H2447 H 0.82671 0.73965 0.26662
 H2448 H 0.85336 0.73977 0.28191
 C2449 C 0.06761 0.75078 0.33684
 C2450 C 0.08244 0.75629 0.34448
 C2451 C 0.08187 0.76361 0.36043
 C2452 C 0.06651 0.76575 0.36857
 C2453 C 0.05148 0.76062 0.36084
 C2454 C 0.05221 0.75289 0.34498
 C2455 C 0.09818 0.75512 0.33572
 C2456 C 0.11138 0.75451 0.32839
 C2457 C 0.12684 0.75413 0.31979
 C2458 C 0.14003 0.75397 0.31242
 C2459 C 0.15574 0.75388 0.30356
 C2460 C 0.15644 0.75946 0.28695
 C2461 C 0.17163 0.75921 0.27824
 C2462 C 0.18639 0.75335 0.28604
 C2463 C 0.18557 0.74790 0.30281
 C2464 C 0.17034 0.74817 0.31149
 H2465 H 0.06790 0.74514 0.32447
 H2466 H 0.09327 0.76790 0.36647
 H2467 H 0.06637 0.77153 0.38087
 H2468 H 0.04084 0.74897 0.33864
 H2469 H 0.14521 0.76394 0.28069
 H2470 H 0.17178 0.76351 0.26536
 H2471 H 0.19665 0.74332 0.30922
 H2472 H 0.16995 0.74385 0.32436
 C2473 C 0.56742 0.24891 0.83766
 C2474 C 0.58216 0.25454 0.84538
 C2475 C 0.58138 0.26232 0.86111
 C2476 C 0.56590 0.26475 0.86895
 C2477 C 0.55097 0.25944 0.86114
 C2478 C 0.55191 0.25131 0.84549
 C2479 C 0.59801 0.25297 0.83691
 C2480 C 0.61128 0.25202 0.82974
 C2481 C 0.62679 0.25128 0.82126
 C2482 C 0.63998 0.25089 0.81392
 C2483 C 0.65567 0.25068 0.80501
 C2484 C 0.65622 0.25571 0.78822
 C2485 C 0.67144 0.25571 0.77955
 C2486 C 0.68637 0.25066 0.78757
 C2487 C 0.68567 0.24561 0.80448
 C2488 C 0.67042 0.24563 0.81312
 H2489 H 0.56787 0.24294 0.82545
 H2490 H 0.59271 0.26671 0.86721
 H2491 H 0.56559 0.27085 0.88109
 H2492 H 0.54063 0.24727 0.83909
 H2493 H 0.64488 0.25968 0.78183
 H2494 H 0.67147 0.25968 0.76657
 H2495 H 0.69690 0.24165 0.81106
 H2496 H 0.67014 0.24173 0.82613
 C2497 C 0.57404 0.72730 0.66044
 C2498 C 0.58253 0.74248 0.65837
 C2499 C 0.57540 0.75518 0.64853
 C2500 C 0.55989 0.75262 0.64067
 C2501 C 0.55137 0.73730 0.64254
 C2502 C 0.55858 0.72472 0.65261
 C2503 C 0.59862 0.74481 0.66625
 C2504 C 0.61209 0.74626 0.67299
 C2505 C 0.62781 0.74743 0.68108
 C2506 C 0.64116 0.74806 0.68818
 C2507 C 0.65697 0.74843 0.69693
 C2508 C 0.65781 0.74324 0.71366
 C2509 C 0.67314 0.74327 0.72218
 C2510 C 0.68790 0.74851 0.71408
 C2511 C 0.68691 0.75375 0.69724
 C2512 C 0.67154 0.75369 0.68874
 H2513 H 0.57940 0.71741 0.66809
 H2514 H 0.58188 0.76698 0.64682
 H2515 H 0.55472 0.76248 0.63288
 H2516 H 0.55220 0.71289 0.65450
 H2517 H 0.64661 0.73910 0.72011
 H2518 H 0.67340 0.73917 0.73512
 H2519 H 0.69800 0.75785 0.69061
 H2520 H 0.67103 0.75770 0.67577
 C2521 C 0.06928 0.25050 0.16325
 C2522 C 0.08400 0.24449 0.15578
 C2523 C 0.08320 0.23636 0.14023
 C2524 C 0.06774 0.23398 0.13231
 C2525 C 0.05283 0.23967 0.13986
 C2526 C 0.05378 0.24814 0.15533
 C2527 C 0.09984 0.24601 0.16435
 C2528 C 0.11312 0.24689 0.17155
 C2529 C 0.12865 0.24754 0.18004
 C2530 C 0.14190 0.24783 0.18736
 C2531 C 0.15766 0.24794 0.19620
 C2532 C 0.17234 0.25293 0.18802
 C2533 C 0.18767 0.25284 0.19658
 C2534 C 0.18853 0.24773 0.21347
 C2535 C 0.17367 0.24274 0.22156
 C2536 C 0.15837 0.24285 0.21296
 H2537 H 0.06975 0.25674 0.17532
 H2538 H 0.09451 0.23167 0.13433
 H2539 H 0.06741 0.22761 0.12030
 H2540 H 0.04251 0.25250 0.16153
 H2541 H 0.17193 0.25686 0.17503
 H2542 H 0.19883 0.25676 0.18996
 H2543 H 0.17384 0.23874 0.23453
 H2544 H 0.14709 0.23892 0.21940
 C2545 C -0.08911 0.99825 0.82009
 C2546 C -0.09430 1.00728 0.83417
 C2547 C -0.10741 1.01884 0.83274
 C2548 C -0.11521 1.02152 0.81726
 C2549 C -0.11004 1.01266 0.80274
 C2550 C -0.09687 1.00085 0.80456
 C2551 C -0.08592 1.00500 0.85002
 C2552 C -0.07882 1.00331 0.86328
 C2553 C -0.07043 1.00161 0.87879
 C2554 C -0.06321 1.00040 0.89203
 C2555 C -0.05455 0.99927 0.90786
 C2556 C -0.06254 1.00441 0.92260
 C2557 C -0.05399 1.00386 0.93792
 C2558 C -0.03727 0.99816 0.93869
 C2559 C -0.02941 0.99284 0.92379
 C2560 C -0.03801 0.99341 0.90849
 H2561 H -0.07885 0.98936 0.82103
 H2562 H -0.11163 1.02581 0.84363
 H2563 H -0.12566 1.03018 0.81698
 H2564 H -0.09184 0.99408 0.79394
 H2565 H -0.07534 1.00899 0.92225
 H2566 H -0.06045 1.00804 0.94911
 H2567 H -0.01658 0.98837 0.92391
 H2568 H -0.03169 0.98941 0.89714
 C2569 C 0.39728 0.49409 0.32478
 C2570 C 0.40693 0.50685 0.33205
 C2571 C 0.40858 0.52225 0.32384
 C2572 C 0.40061 0.52493 0.30846
 C2573 C 0.39085 0.51222 0.30105
 C2574 C 0.38930 0.49675 0.30937
 C2575 C 0.41513 0.50425 0.34793
 C2576 C 0.42209 0.50241 0.36123
 C2577 C 0.43034 0.50063 0.37681
 C2578 C 0.43744 0.49943 0.39011
 C2579 C 0.44597 0.49835 0.40600
 C2580 C 0.43792 0.50366 0.42065
 C2581 C 0.44639 0.50322 0.43602
 C2582 C 0.46308 0.49747 0.43693
 C2583 C 0.47100 0.49198 0.42213
 C2584 C 0.46249 0.49244 0.40678
 H2585 H 0.39589 0.48213 0.33105
 H2586 H 0.41606 0.53218 0.32933
 H2587 H 0.40226 0.53688 0.30224
 H2588 H 0.38173 0.48679 0.30405
 H2589 H 0.42514 0.50829 0.42018
 H2590 H 0.43988 0.50752 0.44714
 H2591 H 0.48382 0.48746 0.42235
 H2592 H 0.46886 0.48833 0.39550
 C2593 C 0.60717 -0.01721 0.33093
 C2594 C 0.59427 -0.00542 0.33228
 C2595 C 0.58914 0.00354 0.31813
 C2596 C 0.59676 0.00062 0.30262
 C2597 C 0.60970 -0.01146 0.30087
 C2598 C 0.61481 -0.02022 0.31545
 C2599 C 0.58602 -0.00286 0.34812
 C2600 C 0.57901 -0.00101 0.36138
 C2601 C 0.57073 0.00080 0.37690
 C2602 C 0.56359 0.00202 0.39015
 C2603 C 0.55501 0.00306 0.40598
 C2604 C 0.53835 0.00857 0.40663
 C2605 C 0.52976 0.00880 0.42190
 C2606 C 0.53773 0.00347 0.43675
 C2607 C 0.55459 -0.00179 0.43598
 C2608 C 0.56314 -0.00201 0.42070
 H2609 H 0.61134 -0.02413 0.34186
 H2610 H 0.57904 0.01261 0.31902
 H2611 H 0.59178 0.00734 0.29194
 H2612 H 0.62511 -0.02906 0.31523
 H2613 H 0.53193 0.01249 0.39530
 H2614 H 0.51682 0.01295 0.42201
 H2615 H 0.56114 -0.00594 0.44715
 H2616 H 0.57603 -0.00632 0.42034
 C2617 C 0.09003 0.48001 0.82217
 C2618 C 0.09210 0.49542 0.83033
 C2619 C 0.10220 0.50780 0.82313
 C2620 C 0.11021 0.50477 0.80783
 C2621 C 0.10823 0.48929 0.79956
 C2622 C 0.09803 0.47695 0.80690
 C2623 C 0.08387 0.49840 0.84610
 C2624 C 0.07687 0.50049 0.85933
 C2625 C 0.06861 0.50247 0.87483
 C2626 C 0.06152 0.50375 0.88811
 C2627 C 0.05304 0.50477 0.90399
 C2628 C 0.03633 0.51012 0.90475
 C2629 C 0.02783 0.51023 0.92008
 C2630 C 0.03594 0.50492 0.93486
 C2631 C 0.05285 0.49983 0.93397
 C2632 C 0.06130 0.49974 0.91864
 H2633 H 0.08220 0.47036 0.82761
 H2634 H 0.10391 0.51977 0.82937
 H2635 H 0.11811 0.51444 0.80256
 H2636 H 0.09605 0.46501 0.80072
 H2637 H 0.02980 0.51401 0.89347
 H2638 H 0.01485 0.51426 0.92029
 H2639 H 0.05951 0.49570 0.94507
 H2640 H 0.07423 0.49554 0.91818
 C2641 C 0.09032 0.52411 0.67498
 C2642 C 0.09191 0.50860 0.66688
 C2643 C 0.10170 0.49593 0.67412
 C2644 C 0.10987 0.49875 0.68941
 C2645 C 0.10835 0.51431 0.69763
 C2646 C 0.09847 0.52696 0.69024
 C2647 C 0.08350 0.50581 0.65114
 C2648 C 0.07637 0.50378 0.63795
 C2649 C 0.06797 0.50177 0.62249
 C2650 C 0.06077 0.50036 0.60926
 C2651 C 0.05218 0.49905 0.59342
 C2652 C 0.03554 0.49353 0.59279
 C2653 C 0.02701 0.49286 0.57746
 C2654 C 0.03503 0.49776 0.56253
 C2655 C 0.05183 0.50313 0.56331
 C2656 C 0.06032 0.50377 0.57865
 H2657 H 0.08273 0.53398 0.66951
 H2658 H 0.10305 0.48389 0.66793
 H2659 H 0.11752 0.48884 0.69471
 H2660 H 0.09685 0.53897 0.69639
 H2661 H 0.02912 0.48987 0.60417
 H2662 H 0.01411 0.48865 0.57734
 H2663 H 0.05841 0.50697 0.55209
 H2664 H 0.07319 0.50810 0.57900
 C2665 C 0.60168 0.99496 0.17523
 C2666 C 0.59201 1.00769 0.16794
 C2667 C 0.59045 1.02319 0.17603
 C2668 C 0.59852 1.02599 0.19136
 C2669 C 0.60828 1.01329 0.19881
 C2670 C 0.60976 0.99772 0.19058
 C2671 C 0.58367 1.00495 0.15214
 C2672 C 0.57660 1.00297 0.13891
 C2673 C 0.56825 1.00101 0.12340
 C2674 C 0.56108 0.99965 0.11015
 C2675 C 0.55249 0.99838 0.09430
 C2676 C 0.56056 1.00332 0.07956
 C2677 C 0.55206 1.00271 0.06421
 C2678 C 0.53532 0.99715 0.06340
 C2679 C 0.52738 0.99203 0.07830
 C2680 C 0.53592 0.99266 0.09363
 H2681 H 0.60300 0.98292 0.16904
 H2682 H 0.58296 1.03312 0.17052
 H2683 H 0.59693 1.03802 0.19749
 H2684 H 0.61733 0.98777 0.19592
 H2685 H 0.57338 1.00779 0.07994
 H2686 H 0.55859 1.00672 0.05302
 H2687 H 0.51453 0.98768 0.07815
 H2688 H 0.52955 0.98884 0.10498
 C2689 C 0.39657 0.50479 0.17526
 C2690 C 0.40676 0.49245 0.16802
 C2691 C 0.40909 0.47711 0.17620
 C2692 C 0.40127 0.47409 0.19156
 C2693 C 0.39099 0.48640 0.19897
 C2694 C 0.38873 0.50181 0.19065
 C2695 C 0.41487 0.49541 0.15219
 C2696 C 0.42180 0.49753 0.13894
 C2697 C 0.43003 0.49957 0.12343
 C2698 C 0.43715 0.50094 0.11019
 C2699 C 0.44574 0.50209 0.09437
 C2700 C 0.43765 0.49708 0.07961
 C2701 C 0.44624 0.49728 0.06435
 C2702 C 0.46310 0.50248 0.06365
 C2703 C 0.47102 0.50778 0.07855
 C2704 C 0.46239 0.50756 0.09380
 H2705 H 0.39465 0.51670 0.16901
 H2706 H 0.41700 0.46748 0.17073
 H2707 H 0.40347 0.46222 0.19777
 H2708 H 0.38076 0.51146 0.19596
 H2709 H 0.42477 0.49279 0.07992
 H2710 H 0.43973 0.49315 0.05315
 H2711 H 0.48396 0.51189 0.07849
 H2712 H 0.46878 0.51143 0.10517
 C2713 C -0.08803 0.00174 0.68410
 C2714 C -0.09300 -0.00727 0.66990
 C2715 C -0.10610 -0.01880 0.67106
 C2716 C -0.11411 -0.02149 0.68639
 C2717 C -0.10916 -0.01268 0.70102
 C2718 C -0.09601 -0.00087 0.69947
 C2719 C -0.08444 -0.00498 0.65420
 C2720 C -0.07723 -0.00334 0.64104
 C2721 C -0.06878 -0.00173 0.62560
 C2722 C -0.06157 -0.00062 0.61238
 C2723 C -0.05300 0.00037 0.59655
 C2724 C -0.06107 -0.00488 0.58186
 C2725 C -0.05263 -0.00444 0.56652
 C2726 C -0.03595 0.00127 0.56566
 C2727 C -0.02800 0.00668 0.58050
 C2728 C -0.03648 0.00622 0.59583
 H2729 H -0.07779 0.01061 0.68336
 H2730 H -0.11016 -0.02574 0.66009
 H2731 H -0.12454 -0.03012 0.68646
 H2732 H -0.09116 0.00587 0.71020
 H2733 H -0.07385 -0.00945 0.58228
 H2734 H -0.05916 -0.00868 0.55537
 H2735 H -0.01519 0.01116 0.58032
 H2736 H -0.03011 0.01029 0.60714
 C2737 C -0.17542 0.90600 1.02686
 C2738 C -0.16864 0.90730 1.01079
 C2739 C -0.17734 0.90066 0.99710
 C2740 C -0.19283 0.89281 0.99942
 C2741 C -0.20001 0.89142 1.01559
 C2742 C -0.19088 0.89817 1.02928
 C2743 C -0.15281 0.91559 1.00840
 C2744 C -0.13956 0.92262 1.00662
 C2745 C -0.12407 0.93093 1.00481
 C2746 C -0.11083 0.93808 1.00350
 C2747 C -0.09501 0.94664 1.00223
 C2748 C -0.09443 0.96323 0.99658
 C2749 C -0.07912 0.97172 0.99589
 C2750 C -0.06416 0.96372 1.00088
 C2751 C -0.06488 0.94696 1.00639
 C2752 C -0.08021 0.93851 1.00706
 H2753 H -0.16884 0.91125 1.03756
 H2754 H -0.17212 0.90147 0.98459
 H2755 H -0.19875 0.88736 0.98849
 H2756 H -0.19587 0.89817 1.04188
 H2757 H -0.10583 0.96965 0.99283
 H2758 H -0.07904 0.98460 0.99157
 H2759 H -0.05364 0.94039 1.01032
 H2760 H -0.08052 0.92567 1.01148
 C2761 C 0.32232 0.40974 0.52366
 C2762 C 0.33084 0.40759 0.50848
 C2763 C 0.32392 0.39745 0.49590
 C2764 C 0.30852 0.38949 0.49850
 C2765 C 0.29988 0.39156 0.51374
 C2766 C 0.30695 0.40179 0.52628
 C2767 C 0.34669 0.41579 0.50593
 C2768 C 0.35996 0.42275 0.50410
 C2769 C 0.37551 0.43098 0.50231
 C2770 C 0.38879 0.43805 0.50108
 C2771 C 0.40467 0.44653 0.49994
 C2772 C 0.40539 0.46311 0.49429
 C2773 C 0.42074 0.47154 0.49376
 C2774 C 0.43561 0.46347 0.49892
 C2775 C 0.43475 0.44671 0.50442
 C2776 C 0.41938 0.43833 0.50493
 H2777 H 0.32753 0.41760 0.53346
 H2778 H 0.33044 0.39567 0.48412
 H2779 H 0.30348 0.38155 0.48868
 H2780 H 0.30048 0.40384 0.53804
 H2781 H 0.39406 0.46959 0.49043
 H2782 H 0.42092 0.48441 0.48945
 H2783 H 0.44592 0.44009 0.50846
 H2784 H 0.41896 0.42550 0.50936
 C2785 C 0.32454 0.59083 -0.02255
 C2786 C 0.33230 0.59246 -0.00687
 C2787 C 0.32469 0.60214 0.00566
 C2788 C 0.30937 0.61016 0.00252
 C2789 C 0.30149 0.60860 -0.01322
 C2790 C 0.30926 0.59883 -0.02572
 C2791 C 0.34806 0.58419 -0.00377
 C2792 C 0.36128 0.57716 -0.00154
 C2793 C 0.37678 0.56883 0.00061
 C2794 C 0.39002 0.56166 0.00206
 C2795 C 0.40586 0.55304 0.00331
 C2796 C 0.40647 0.53635 0.00868
 C2797 C 0.42175 0.52771 0.00900
 C2798 C 0.43665 0.53565 0.00390
 C2799 C 0.43592 0.55254 -0.00121
 C2800 C 0.42062 0.56114 -0.00151
 H2801 H 0.33030 0.58332 -0.03232
 H2802 H 0.33061 0.60352 0.01783
 H2803 H 0.30379 0.61774 0.01233
 H2804 H 0.30339 0.59718 -0.03787
 H2805 H 0.39511 0.52995 0.01240
 H2806 H 0.42184 0.51474 0.01303
 H2807 H 0.44711 0.55907 -0.00519
 H2808 H 0.42029 0.57405 -0.00573
 C2809 C -0.17478 0.09327 0.47634
 C2810 C -0.16849 0.09183 0.49263
 C2811 C -0.17753 0.09857 0.50604
 C2812 C -0.19285 0.10667 0.50320
 C2813 C -0.19950 0.10825 0.48679
 C2814 C -0.19006 0.10136 0.47341
 C2815 C -0.15278 0.08339 0.49549
 C2816 C -0.13959 0.07627 0.49758
 C2817 C -0.12412 0.06790 0.49964
 C2818 C -0.11086 0.06075 0.50108
 C2819 C -0.09496 0.05227 0.50240
 C2820 C -0.09419 0.03565 0.50796
 C2821 C -0.07880 0.02723 0.50860
 C2822 C -0.06394 0.03535 0.50366
 C2823 C -0.06485 0.05214 0.49828
 C2824 C -0.08026 0.06052 0.49765
 H2825 H -0.16794 0.08796 0.46586
 H2826 H -0.17268 0.09765 0.51872
 H2827 H -0.19903 0.11219 0.51394
 H2828 H -0.19467 0.10147 0.46065
 H2829 H -0.10552 0.02914 0.51163
 H2830 H -0.07857 0.01433 0.51282
 H2831 H -0.05370 0.05880 0.49440
 H2832 H -0.08071 0.07338 0.49330
 C2833 C 0.67527 0.10370 0.49416
 C2834 C 0.66796 0.09371 0.50656
 C2835 C 0.67609 0.09159 0.52199
 C2836 C 0.69149 0.09938 0.52501
 C2837 C 0.69899 0.10940 0.51262
 C2838 C 0.69070 0.11150 0.49716
 C2839 C 0.65216 0.08555 0.50353
 C2840 C 0.63894 0.07858 0.50131
 C2841 C 0.62346 0.07030 0.49911
 C2842 C 0.61024 0.06314 0.49762
 C2843 C 0.59443 0.05454 0.49633
 C2844 C 0.57960 0.06279 0.50081
 C2845 C 0.56434 0.05420 0.50054
 C2846 C 0.56371 0.03718 0.49581
 C2847 C 0.57868 0.02909 0.49100
 C2848 C 0.59393 0.03773 0.49129
 H2849 H 0.66906 0.10546 0.48219
 H2850 H 0.67056 0.08385 0.53165
 H2851 H 0.69767 0.09732 0.53695
 H2852 H 0.69607 0.11929 0.48745
 H2853 H 0.57985 0.07580 0.50476
 H2854 H 0.55309 0.06084 0.50427
 H2855 H 0.57867 0.01602 0.48727
 H2856 H 0.60535 0.03121 0.48783
 C2857 C 0.18199 0.58904 0.99424
 C2858 C 0.16764 0.59426 1.00281
 C2859 C 0.16871 0.60735 1.01441
 C2860 C 0.18409 0.61509 1.01763
 C2861 C 0.19888 0.60987 1.00929
 C2862 C 0.19742 0.59675 0.99737
 C2863 C 0.15189 0.58589 1.00010
 C2864 C 0.13867 0.57883 0.99820
 C2865 C 0.12316 0.57051 0.99640
 C2866 C 0.10990 0.56337 0.99524
 C2867 C 0.09404 0.55483 0.99433
 C2868 C 0.07939 0.56300 0.99951
 C2869 C 0.06409 0.55448 0.99948
 C2870 C 0.06324 0.53761 0.99427
 C2871 C 0.07802 0.52959 0.98881
 C2872 C 0.09331 0.53816 0.98887
 H2873 H 0.18133 0.57879 0.98532
 H2874 H 0.15762 0.61160 1.02102
 H2875 H 0.18410 0.62553 1.02630
 H2876 H 0.20826 0.59171 0.99097
 H2877 H 0.07983 0.57590 1.00380
 H2878 H 0.05299 0.56106 1.00373
 H2879 H 0.07783 0.51664 0.98470
 H2880 H 0.10459 0.53170 0.98486
 C2881 C 0.17567 0.40847 0.47567
 C2882 C 0.16722 0.40665 0.49092
 C2883 C 0.17429 0.39687 0.50368
 C2884 C 0.18977 0.38895 0.50120
 C2885 C 0.19835 0.39071 0.48590
 C2886 C 0.19112 0.40057 0.47316
 C2887 C 0.15132 0.41486 0.49338
 C2888 C 0.13802 0.42184 0.49517
 C2889 C 0.12245 0.43010 0.49693
 C2890 C 0.10915 0.43721 0.49817
 C2891 C 0.09327 0.44575 0.49933
 C2892 C 0.09259 0.46248 0.50462
 C2893 C 0.07722 0.47095 0.50519
 C2894 C 0.06230 0.46279 0.50044
 C2895 C 0.06312 0.44589 0.49530
 C2896 C 0.07850 0.43746 0.49474
 H2897 H 0.17033 0.41606 0.46572
 H2898 H 0.16784 0.39534 0.51552
 H2899 H 0.19494 0.38130 0.51117
 H2900 H 0.19753 0.40237 0.46135
 H2901 H 0.10396 0.46903 0.50817
 H2902 H 0.07708 0.48393 0.50923
 H2903 H 0.05191 0.43920 0.49158
 H2904 H 0.07889 0.42452 0.49060
 C2905 C 0.67664 0.90944 -0.02444
 C2906 C 0.66800 0.90742 -0.00932
 C2907 C 0.67491 0.89748 0.00340
 C2908 C 0.69044 0.88964 0.00105
 C2909 C 0.69924 0.89163 -0.01410
 C2910 C 0.69215 0.90161 -0.02682
 C2911 C 0.65206 0.91558 -0.00693
 C2912 C 0.63873 0.92251 -0.00514
 C2913 C 0.62312 0.93070 -0.00331
 C2914 C 0.60979 0.93773 -0.00198
 C2915 C 0.59386 0.94615 -0.00067
 C2916 C 0.59308 0.96283 0.00475
 C2917 C 0.57765 0.97117 0.00551
 C2918 C 0.56276 0.96291 0.00081
 C2919 C 0.56368 0.94607 -0.00447
 C2920 C 0.57913 0.93777 -0.00521
 H2921 H 0.67142 0.91714 -0.03435
 H2922 H 0.66830 0.89579 0.01514
 H2923 H 0.69549 0.88188 0.01099
 H2924 H 0.69872 0.90358 -0.03853
 H2925 H 0.60442 0.96944 0.00827
 H2926 H 0.57742 0.98411 0.00965
 H2927 H 0.55250 0.93930 -0.00816
 H2928 H 0.57959 0.92486 -0.00945
 C2929 C 0.02571 0.82561 0.90767
 C2930 C 0.00947 0.83199 0.90925
 C2931 C -0.00404 0.82306 0.90258
 C2932 C -0.00137 0.80775 0.89441
 C2933 C 0.01499 0.80101 0.89268
 C2934 C 0.02849 0.81034 0.89950
 C2935 C 0.00675 0.84769 0.91777
 C2936 C 0.00473 0.86085 0.92494
 C2937 C 0.00267 0.87630 0.93336
 C2938 C 0.00119 0.88953 0.94054
 C2939 C -0.00023 0.90539 0.94908
 C2940 C -0.00545 0.90602 0.96582
 C2941 C -0.00625 0.92139 0.97426
 C2942 C -0.00180 0.93636 0.96606
 C2943 C 0.00325 0.93558 0.94916
 C2944 C 0.00403 0.92020 0.94076
 H2945 H 0.03628 0.83237 0.91293
 H2946 H -0.01669 0.82797 0.90361
 H2947 H -0.01218 0.80166 0.88894
 H2948 H 0.04122 0.80566 0.89927
 H2949 H -0.00875 0.89462 0.97239
 H2950 H -0.01020 0.92151 0.98725
 H2951 H 0.00674 0.94683 0.94243
 H2952 H 0.00810 0.91986 0.92780
 C2953 C 0.52425 0.32301 0.40988
 C2954 C 0.50876 0.33114 0.40820
 C2955 C 0.49615 0.32396 0.39830
 C2956 C 0.49901 0.30870 0.39010
 C2957 C 0.51456 0.30045 0.39169
 C2958 C 0.52714 0.30778 0.40169
 C2959 C 0.50595 0.34688 0.41661
 C2960 C 0.50391 0.36008 0.42370
 C2961 C 0.50191 0.37557 0.43205
 C2962 C 0.50051 0.38883 0.43919
 C2963 C 0.49921 0.40471 0.44769
 C2964 C 0.49392 0.40542 0.46440
 C2965 C 0.49326 0.42081 0.47282
 C2966 C 0.49793 0.43572 0.46463
 C2967 C 0.50307 0.43486 0.44776
 C2968 C 0.50371 0.41946 0.43938
 H2969 H 0.53408 0.32844 0.41755
 H2970 H 0.48413 0.33018 0.39688
 H2971 H 0.48915 0.30345 0.38235
 H2972 H 0.53914 0.30161 0.40337
 H2973 H 0.49044 0.39407 0.47096
 H2974 H 0.48923 0.42099 0.48578
 H2975 H 0.50673 0.44605 0.44104
 H2976 H 0.50785 0.41905 0.42645
 C2977 C -0.00003 0.31768 0.58831
 C2978 C -0.00907 0.33188 0.59319
 C2979 C -0.02065 0.33075 0.60625
 C2980 C -0.02333 0.31544 0.61433
 C2981 C -0.01445 0.30082 0.60949
 C2982 C -0.00262 0.30233 0.59635
 C2983 C -0.00674 0.34755 0.58458
 C2984 C -0.00501 0.36067 0.57731
 C2985 C -0.00326 0.37605 0.56876
 C2986 C -0.00201 0.38921 0.56146
 C2987 C -0.00083 0.40496 0.55276
 C2988 C -0.00586 0.41978 0.56072
 C2989 C -0.00526 0.43504 0.55216
 C2990 C 0.00038 0.43570 0.53544
 C2991 C 0.00558 0.42072 0.52760
 C2992 C 0.00496 0.40547 0.53621
 H2993 H 0.00888 0.31838 0.57810
 H2994 H -0.02763 0.34173 0.61023
 H2995 H -0.03200 0.31540 0.62473
 H2996 H 0.00416 0.29160 0.59157
 H2997 H -0.01038 0.41952 0.57353
 H2998 H -0.00935 0.44629 0.55860
 H2999 H 0.01000 0.42075 0.51477
 H3000 H 0.00887 0.39406 0.52992
 C3001 C 0.50468 0.82310 0.10172
 C3002 C 0.49205 0.83026 0.09180
 C3003 C 0.47668 0.82203 0.08993
 C3004 C 0.47390 0.80673 0.09796
 C3005 C 0.48648 0.79944 0.10800
 C3006 C 0.50193 0.80777 0.10976
 C3007 C 0.49473 0.84608 0.08359
 C3008 C 0.49660 0.85934 0.07663
 C3009 C 0.49840 0.87489 0.06840
 C3010 C 0.49959 0.88818 0.06133
 C3011 C 0.50063 0.90406 0.05285
 C3012 C 0.49538 0.91871 0.06098
 C3013 C 0.49574 0.93407 0.05257
 C3014 C 0.50135 0.93498 0.03585
 C3015 C 0.50679 0.92017 0.02786
 C3016 C 0.50641 0.90482 0.03631
 H3017 H 0.51662 0.82939 0.10328
 H3018 H 0.46683 0.82744 0.08225
 H3019 H 0.46197 0.80051 0.09615
 H3020 H 0.51179 0.80255 0.11754
 H3021 H 0.49086 0.91825 0.07377
 H3022 H 0.49149 0.94519 0.05913
 H3023 H 0.51119 0.92039 0.01503
 H3024 H 0.51047 0.89354 0.02989
 C3025 C 0.49354 0.67354 0.10398
 C3026 C 0.50593 0.66607 0.09404
 C3027 C 0.52135 0.67413 0.09185
 C3028 C 0.52437 0.68959 0.09953
 C3029 C 0.51200 0.69723 0.10954
 C3030 C 0.49653 0.68903 0.11168
 C3031 C 0.50293 0.65017 0.08600
 C3032 C 0.50077 0.63687 0.07913
 C3033 C 0.49865 0.62131 0.07093
 C3034 C 0.49723 0.60803 0.06382
 C3035 C 0.49601 0.59219 0.05522
 C3036 C 0.50069 0.57739 0.06341
 C3037 C 0.50048 0.56210 0.05479
 C3038 C 0.49561 0.56141 0.03781
 C3039 C 0.49061 0.57634 0.02979
 C3040 C 0.49084 0.59161 0.03845
 H3041 H 0.48157 0.66739 0.10579
 H3042 H 0.53101 0.66848 0.08413
 H3043 H 0.53630 0.69570 0.09743
 H3044 H 0.48683 0.69452 0.11945
 H3045 H 0.50475 0.57770 0.07639
 H3046 H 0.50438 0.55088 0.06139
 H3047 H 0.48677 0.57629 0.01676
 H3048 H 0.48723 0.60301 0.03198
 C3049 C -0.00287 0.18194 0.58955
 C3050 C 0.00620 0.16788 0.59477
 C3051 C 0.01765 0.16932 0.60797
 C3052 C 0.02020 0.18479 0.61582
 C3053 C 0.01132 0.19929 0.61062
 C3054 C -0.00041 0.19745 0.59737
 C3055 C 0.00408 0.15205 0.58634
 C3056 C 0.00256 0.13879 0.57922
 C3057 C 0.00107 0.12326 0.57084
 C3058 C 0.00004 0.10998 0.56365
 C3059 C -0.00089 0.09411 0.55508
 C3060 C 0.00395 0.07940 0.56333
 C3061 C 0.00353 0.06402 0.55490
 C3062 C -0.00174 0.06314 0.53805
 C3063 C -0.00672 0.07801 0.52991
 C3064 C -0.00628 0.09338 0.53838
 H3065 H -0.01169 0.18099 0.57923
 H3066 H 0.02464 0.15845 0.61222
 H3067 H 0.02878 0.18508 0.62634
 H3068 H -0.00719 0.20807 0.59233
 H3069 H 0.00817 0.07983 0.57625
 H3070 H 0.00744 0.05286 0.56157
 H3071 H -0.01086 0.07782 0.51696
 H3072 H -0.01004 0.10470 0.53187
 C3073 C 0.48005 0.17571 0.40855
 C3074 C 0.49548 0.16757 0.40654
 C3075 C 0.50794 0.17485 0.39661
 C3076 C 0.50498 0.19023 0.38871
 C3077 C 0.48948 0.19850 0.39065
 C3078 C 0.47706 0.19106 0.40067
 C3079 C 0.49840 0.15174 0.41470
 C3080 C 0.50046 0.13849 0.42167
 C3081 C 0.50242 0.12299 0.42995
 C3082 C 0.50369 0.10975 0.43711
 C3083 C 0.50471 0.09394 0.44574
 C3084 C 0.49959 0.07922 0.43766
 C3085 C 0.49967 0.06398 0.44628
 C3086 C 0.50487 0.06325 0.46316
 C3087 C 0.51028 0.07809 0.47108
 C3088 C 0.51017 0.09333 0.46242
 H3089 H 0.47034 0.17021 0.41625
 H3090 H 0.51992 0.16863 0.39494
 H3091 H 0.51472 0.19557 0.38094
 H3092 H 0.46511 0.19723 0.40262
 H3093 H 0.49530 0.07956 0.42475
 H3094 H 0.49546 0.05282 0.43977
 H3095 H 0.51439 0.07801 0.48404
 H3096 H 0.51413 0.10466 0.46880
 C3097 C -0.02243 0.67493 0.90437
 C3098 C -0.00617 0.66851 0.90555
 C3099 C 0.00725 0.67766 0.89910
 C3100 C 0.00446 0.69326 0.89158
 C3101 C -0.01191 0.70008 0.89032
 C3102 C -0.02531 0.69049 0.89685
 C3103 C -0.00333 0.65259 0.91357
 C3104 C -0.00125 0.63928 0.92042
 C3105 C 0.00079 0.62371 0.92857
 C3106 C 0.00218 0.61043 0.93564
 C3107 C 0.00338 0.59458 0.94418
 C3108 C -0.00147 0.57983 0.93599
 C3109 C -0.00123 0.56454 0.94454
 C3110 C 0.00386 0.56380 0.96146
 C3111 C 0.00902 0.57868 0.96948
 C3112 C 0.00876 0.59396 0.96089
 H3113 H -0.03292 0.66800 0.90947
 H3114 H 0.01991 0.67273 0.89983
 H3115 H 0.01520 0.69955 0.88627
 H3116 H -0.03805 0.69518 0.89695
 H3117 H -0.00569 0.58018 0.92306
 H3118 H -0.00525 0.55336 0.93795
 H3119 H 0.01304 0.57859 0.98246
 H3120 H 0.01252 0.60531 0.96735
 C3121 C 0.26736 0.64171 0.91756
 C3122 C 0.25902 0.65717 0.91702
 C3123 C 0.25297 0.66437 0.93184
 C3124 C 0.25532 0.65621 0.94717
 C3125 C 0.26380 0.64072 0.94787
 C3126 C 0.26974 0.63353 0.93288
 C3127 C 0.25696 0.66578 0.90130
 C3128 C 0.25541 0.67305 0.88814
 C3129 C 0.25379 0.68159 0.87274
 C3130 C 0.25260 0.68887 0.85955
 C3131 C 0.25143 0.69753 0.84377
 C3132 C 0.25589 0.68929 0.82893
 C3133 C 0.25516 0.69776 0.81361
 C3134 C 0.24996 0.71464 0.81293
 C3135 C 0.24536 0.72277 0.82794
 C3136 C 0.24611 0.71426 0.84324
 H3137 H 0.27208 0.63602 0.90615
 H3138 H 0.24656 0.67637 0.93156
 H3139 H 0.25080 0.66217 0.95851
 H3140 H 0.27613 0.62153 0.93299
 H3141 H 0.26004 0.67634 0.82920
 H3142 H 0.25877 0.69110 0.80234
 H3143 H 0.24129 0.73574 0.82789
 H3144 H 0.24264 0.72075 0.85467
 C3145 C 0.76504 0.13969 0.41804
 C3146 C 0.75707 0.15533 0.41741
 C3147 C 0.75146 0.16291 0.43222
 C3148 C 0.75398 0.15497 0.44765
 C3149 C 0.76219 0.13934 0.44844
 C3150 C 0.76759 0.13173 0.43345
 C3151 C 0.75509 0.16382 0.40161
 C3152 C 0.75370 0.17099 0.38838
 C3153 C 0.75236 0.17945 0.37291
 C3154 C 0.75145 0.18672 0.35969
 C3155 C 0.75062 0.19542 0.34392
 C3156 C 0.75546 0.18727 0.32914
 C3157 C 0.75511 0.19582 0.31386
 C3158 C 0.74992 0.21270 0.31314
 C3159 C 0.74495 0.22074 0.32807
 C3160 C 0.74532 0.21215 0.34334
 H3161 H 0.76942 0.13371 0.40665
 H3162 H 0.74534 0.17505 0.43187
 H3163 H 0.74987 0.16123 0.45898
 H3164 H 0.77375 0.11962 0.43365
 H3165 H 0.75961 0.17432 0.32945
 H3166 H 0.75900 0.18922 0.30263
 H3167 H 0.74087 0.23371 0.32801
 H3168 H 0.74157 0.21859 0.35472
 C3169 C 0.22902 0.34078 0.42577
 C3170 C 0.24460 0.34276 0.41799
 C3171 C 0.25689 0.35279 0.42554
 C3172 C 0.25360 0.36082 0.44081
 C3173 C 0.23793 0.35893 0.44869
 C3174 C 0.22570 0.34879 0.44100
 C3175 C 0.24782 0.33454 0.40224
 C3176 C 0.25012 0.32755 0.38902
 C3177 C 0.25234 0.31927 0.37352
 C3178 C 0.25382 0.31213 0.36026
 C3179 C 0.25507 0.30356 0.34440
 C3180 C 0.26047 0.28686 0.34377
 C3181 C 0.26076 0.27825 0.32847
 C3182 C 0.25559 0.28624 0.31358
 C3183 C 0.25046 0.30314 0.31434
 C3184 C 0.25019 0.31171 0.32965
 H3185 H 0.21943 0.33301 0.42006
 H3186 H 0.26898 0.35444 0.41960
 H3187 H 0.26320 0.36867 0.44634
 H3188 H 0.21362 0.34688 0.44688
 H3189 H 0.26424 0.28042 0.35513
 H3190 H 0.26480 0.26528 0.32837
 H3191 H 0.24644 0.30971 0.30315
 H3192 H 0.24595 0.32463 0.33000
 C3193 C 0.73786 0.86013 0.91844
 C3194 C 0.74625 0.84469 0.91812
 C3195 C 0.75154 0.83733 0.93315
 C3196 C 0.74833 0.84528 0.94846
 C3197 C 0.73973 0.86071 0.94892
 C3198 C 0.73463 0.86810 0.93373
 C3199 C 0.74892 0.83616 0.90242
 C3200 C 0.75085 0.82894 0.88927
 C3201 C 0.75272 0.82042 0.87386
 C3202 C 0.75397 0.81312 0.86067
 C3203 C 0.75501 0.80439 0.84488
 C3204 C 0.76043 0.78769 0.84432
 C3205 C 0.76062 0.77898 0.82908
 C3206 C 0.75533 0.78686 0.81418
 C3207 C 0.75017 0.80376 0.81486
 C3208 C 0.75000 0.81243 0.83011
 H3209 H 0.73371 0.86595 0.90687
 H3210 H 0.75796 0.82534 0.93306
 H3211 H 0.75222 0.83917 0.95995
 H3212 H 0.72817 0.88007 0.93367
 H3213 H 0.76430 0.78134 0.85570
 H3214 H 0.76469 0.76601 0.82903
 H3215 H 0.74606 0.81025 0.80366
 H3216 H 0.74576 0.82535 0.83041
 C3217 C 0.74832 0.83782 0.06835
 C3218 C 0.75354 0.84528 0.08337
 C3219 C 0.76178 0.86076 0.08305
 C3220 C 0.76497 0.86866 0.06775
 C3221 C 0.75996 0.86116 0.05256
 C3222 C 0.75149 0.84571 0.05303
 C3223 C 0.75095 0.83681 0.09907
 C3224 C 0.74910 0.82961 0.11222
 C3225 C 0.74731 0.82110 0.12761
 C3226 C 0.74613 0.81378 0.14077
 C3227 C 0.74515 0.80501 0.15650
 C3228 C 0.75009 0.81301 0.17133
 C3229 C 0.74996 0.80429 0.18652
 C3230 C 0.74490 0.78738 0.18708
 C3231 C 0.73969 0.77953 0.17211
 C3232 C 0.73984 0.78830 0.15693
 H3233 H 0.74201 0.82580 0.06845
 H3234 H 0.76587 0.86665 0.09461
 H3235 H 0.77134 0.88065 0.06780
 H3236 H 0.74767 0.83952 0.04155
 H3237 H 0.75425 0.82593 0.17113
 H3238 H 0.75401 0.81075 0.19777
 H3239 H 0.73568 0.76656 0.17207
 H3240 H 0.73602 0.78197 0.14551
 C3241 C 0.24182 0.35443 0.57476
 C3242 C 0.25424 0.34470 0.58250
 C3243 C 0.26988 0.34273 0.57480
 C3244 C 0.27311 0.35045 0.55943
 C3245 C 0.26073 0.36028 0.55154
 C3246 C 0.24502 0.36217 0.55936
 C3247 C 0.25109 0.33670 0.59835
 C3248 C 0.24885 0.32987 0.61163
 C3249 C 0.24672 0.32172 0.62717
 C3250 C 0.24532 0.31464 0.64044
 C3251 C 0.24418 0.30608 0.65627
 C3252 C 0.24898 0.31425 0.67106
 C3253 C 0.24889 0.30564 0.68632
 C3254 C 0.24401 0.28869 0.68699
 C3255 C 0.23888 0.28069 0.67207
 C3256 C 0.23899 0.28934 0.65683
 H3257 H 0.22968 0.35606 0.58063
 H3258 H 0.27957 0.33518 0.58065
 H3259 H 0.28522 0.34855 0.55361
 H3260 H 0.23530 0.36979 0.55367
 H3261 H 0.25306 0.32720 0.67076
 H3262 H 0.25288 0.31222 0.69753
 H3263 H 0.23502 0.26768 0.67211
 H3264 H 0.23529 0.28288 0.64544
 C3265 C 0.73567 0.13989 0.58174
 C3266 C 0.74423 0.15518 0.58252
 C3267 C 0.75004 0.16264 0.56776
 C3268 C 0.74718 0.15491 0.55226
 C3269 C 0.73843 0.13963 0.55132
 C3270 C 0.73279 0.13215 0.56625
 C3271 C 0.74662 0.16345 0.59841
 C3272 C 0.74836 0.17047 0.61170
 C3273 C 0.75008 0.17880 0.62724
 C3274 C 0.75125 0.18597 0.64051
 C3275 C 0.75226 0.19461 0.65635
 C3276 C 0.75766 0.21129 0.65700
 C3277 C 0.75789 0.21993 0.67229
 C3278 C 0.75269 0.21198 0.68715
 C3279 C 0.74754 0.19511 0.68637
 C3280 C 0.74732 0.18651 0.67108
 H3281 H 0.73113 0.13401 0.59309
 H3282 H 0.75660 0.17451 0.56822
 H3283 H 0.75149 0.16109 0.54098
 H3284 H 0.72621 0.12029 0.56595
 H3285 H 0.76149 0.21769 0.64567
 H3286 H 0.76196 0.23288 0.67240
 H3287 H 0.74349 0.18858 0.69754
 H3288 H 0.74310 0.17361 0.67071
 C3289 C 0.22621 0.65846 0.07152
 C3290 C 0.24134 0.65626 0.08017
 C3291 C 0.25394 0.64611 0.07331
 C3292 C 0.25141 0.63820 0.05783
 C3293 C 0.23622 0.64034 0.04905
 C3294 C 0.22365 0.65057 0.05607
 C3295 C 0.24383 0.66444 0.09608
 C3296 C 0.24558 0.67142 0.10939
 C3297 C 0.24728 0.67970 0.12495
 C3298 C 0.24844 0.68685 0.13824
 C3299 C 0.24950 0.69544 0.15409
 C3300 C 0.25486 0.71213 0.15476
 C3301 C 0.25537 0.72065 0.17009
 C3302 C 0.25047 0.71259 0.18499
 C3303 C 0.24524 0.69574 0.18418
 C3304 C 0.24475 0.68726 0.16883
 H3305 H 0.21639 0.66633 0.07670
 H3306 H 0.26568 0.64430 0.07993
 H3307 H 0.26124 0.63027 0.05282
 H3308 H 0.21193 0.65265 0.04951
 H3309 H 0.25854 0.71859 0.14341
 H3310 H 0.25948 0.73359 0.17023
 H3311 H 0.24141 0.68912 0.19538
 H3312 H 0.24055 0.67435 0.16845
 C3313 C 0.14763 0.57585 0.75406
 C3314 C 0.15757 0.58289 0.74146
 C3315 C 0.15928 0.57465 0.72605
 C3316 C 0.15108 0.55943 0.72322
 C3317 C 0.14103 0.55225 0.73577
 C3318 C 0.13942 0.56061 0.75125
 C3319 C 0.16598 0.59861 0.74421
 C3320 C 0.17308 0.61180 0.74617
 C3321 C 0.18146 0.62726 0.74808
 C3322 C 0.18863 0.64049 0.74938
 C3323 C 0.19718 0.65632 0.75054
 C3324 C 0.18902 0.67105 0.74558
 C3325 C 0.19748 0.68638 0.74606
 C3326 C 0.21428 0.68718 0.75150
 C3327 C 0.22232 0.67230 0.75664
 C3328 C 0.21381 0.65698 0.75614
 H3329 H 0.14619 0.58216 0.76602
 H3330 H 0.16697 0.57996 0.71623
 H3331 H 0.15277 0.55318 0.71127
 H3332 H 0.13164 0.55548 0.76109
 H3333 H 0.17615 0.67067 0.74119
 H3334 H 0.19088 0.69756 0.74204
 H3335 H 0.23522 0.67244 0.76091
 H3336 H 0.22026 0.64564 0.75998
 C3337 C 0.64175 0.08159 0.23419
 C3338 C 0.65728 0.08191 0.24241
 C3339 C 0.66446 0.06695 0.24816
 C3340 C 0.65621 0.05170 0.24560
 C3341 C 0.64067 0.05122 0.23721
 C3342 C 0.63349 0.06635 0.23160
 C3343 C 0.66601 0.09754 0.24458
 C3344 C 0.67336 0.11064 0.24617
 C3345 C 0.68198 0.12600 0.24776
 C3346 C 0.68931 0.13916 0.24889
 C3347 C 0.69801 0.15492 0.24994
 C3348 C 0.71459 0.15550 0.25573
 C3349 C 0.72317 0.17077 0.25630
 C3350 C 0.71527 0.18569 0.25105
 C3351 C 0.69854 0.18496 0.24538
 C3352 C 0.69000 0.16968 0.24483
 H3353 H 0.63608 0.09310 0.22970
 H3354 H 0.67651 0.06705 0.25448
 H3355 H 0.66215 0.04025 0.24987
 H3356 H 0.62144 0.06641 0.22529
 H3357 H 0.72092 0.14414 0.25969
 H3358 H 0.73601 0.17086 0.26074
 H3359 H 0.69204 0.19617 0.24126
 H3360 H 0.67717 0.16937 0.24031
 C3361 C 0.85370 0.07449 0.74528
 C3362 C 0.84350 0.08189 0.75751
 C3363 C 0.84125 0.07390 0.77295
 C3364 C 0.84912 0.05856 0.77616
 C3365 C 0.85939 0.05099 0.76395
 C3366 C 0.86159 0.05913 0.74846
 C3367 C 0.83532 0.09768 0.75433
 C3368 C 0.82835 0.11091 0.75199
 C3369 C 0.82007 0.12640 0.74968
 C3370 C 0.81291 0.13964 0.74810
 C3371 C 0.80429 0.15546 0.74671
 C3372 C 0.81249 0.17031 0.75118
 C3373 C 0.80385 0.18558 0.75085
 C3374 C 0.78683 0.18621 0.74609
 C3375 C 0.77881 0.17122 0.74128
 C3376 C 0.78748 0.15596 0.74163
 H3377 H 0.85557 0.08060 0.73330
 H3378 H 0.83335 0.07949 0.78249
 H3379 H 0.84699 0.05249 0.78811
 H3380 H 0.86956 0.05371 0.73889
 H3381 H 0.82549 0.17006 0.75517
 H3382 H 0.81045 0.19685 0.75460
 H3383 H 0.76574 0.17123 0.73753
 H3384 H 0.78101 0.14453 0.73818
 C3385 C 0.35178 0.57339 0.24419
 C3386 C 0.34179 0.58055 0.25673
 C3387 C 0.33998 0.57237 0.27213
 C3388 C 0.34816 0.55714 0.27503
 C3389 C 0.35829 0.54986 0.26254
 C3390 C 0.35998 0.55813 0.24706
 C3391 C 0.33343 0.59632 0.25395
 C3392 C 0.32636 0.60955 0.25199
 C3393 C 0.31802 0.62506 0.25011
 C3394 C 0.31087 0.63833 0.24884
 C3395 C 0.30233 0.65421 0.24772
 C3396 C 0.31043 0.66889 0.25288
 C3397 C 0.30198 0.68426 0.25241
 C3398 C 0.28524 0.68515 0.24677
 C3399 C 0.27726 0.67032 0.24144
 C3400 C 0.28576 0.65497 0.24193
 H3401 H 0.35329 0.57964 0.23223
 H3402 H 0.33224 0.57778 0.28191
 H3403 H 0.34640 0.55095 0.28697
 H3404 H 0.36782 0.55291 0.23727
 H3405 H 0.32325 0.66844 0.25742
 H3406 H 0.30853 0.69539 0.25659
 H3407 H 0.26441 0.67053 0.23701
 H3408 H 0.27936 0.64366 0.23793
 C3409 C 0.35499 0.42403 0.25639
 C3410 C 0.34513 0.41644 0.24398
 C3411 C 0.34297 0.42436 0.22847
 C3412 C 0.35060 0.43980 0.22537
 C3413 C 0.36052 0.44755 0.23776
 C3414 C 0.36263 0.43950 0.25332
 C3415 C 0.33716 0.40057 0.24706
 C3416 C 0.33034 0.38729 0.24928
 C3417 C 0.32219 0.37175 0.25146
 C3418 C 0.31512 0.35849 0.25292
 C3419 C 0.30656 0.34267 0.25417
 C3420 C 0.31473 0.32785 0.24947
 C3421 C 0.30613 0.31259 0.24969
 C3422 C 0.28918 0.31195 0.25459
 C3423 C 0.28118 0.32690 0.25962
 C3424 C 0.28982 0.34215 0.25938
 H3425 H 0.35678 0.41799 0.26843
 H3426 H 0.33532 0.41862 0.21879
 H3427 H 0.34852 0.44579 0.21337
 H3428 H 0.37034 0.44508 0.26303
 H3429 H 0.32768 0.32812 0.24538
 H3430 H 0.31271 0.30135 0.24578
 H3431 H 0.26817 0.32689 0.26349
 H3432 H 0.28336 0.35356 0.26301
 C3433 C 0.85394 0.92531 0.75744
 C3434 C 0.84402 0.91796 0.74492
 C3435 C 0.84196 0.92607 0.72950
 C3436 C 0.84977 0.94145 0.72657
 C3437 C 0.85978 0.94895 0.73905
 C3438 C 0.86177 0.94072 0.75453
 C3439 C 0.83595 0.90210 0.74779
 C3440 C 0.82908 0.88881 0.74982
 C3441 C 0.82092 0.87325 0.75178
 C3442 C 0.81387 0.85996 0.75309
 C3443 C 0.80537 0.84409 0.75418
 C3444 C 0.81354 0.82938 0.74915
 C3445 C 0.80504 0.81407 0.74934
 C3446 C 0.78819 0.81326 0.75455
 C3447 C 0.78018 0.82811 0.75986
 C3448 C 0.78872 0.84341 0.75965
 H3449 H 0.85565 0.91912 0.76941
 H3450 H 0.83427 0.92052 0.71975
 H3451 H 0.84781 0.94758 0.71462
 H3452 H 0.86953 0.94610 0.76431
 H3453 H 0.82642 0.82978 0.74486
 H3454 H 0.81162 0.80292 0.74520
 H3455 H 0.76724 0.82797 0.76397
 H3456 H 0.78226 0.85474 0.76354
 C3457 C 0.65740 0.92631 0.27184
 C3458 C 0.65505 0.91809 0.25650
 C3459 C 0.64495 0.92541 0.24412
 C3460 C 0.63723 0.94091 0.24708
 C3461 C 0.63952 0.94926 0.26249
 C3462 C 0.64970 0.94178 0.27483
 C3463 C 0.66308 0.90218 0.25356
 C3464 C 0.66997 0.88886 0.25146
 C3465 C 0.67818 0.87330 0.24945
 C3466 C 0.68531 0.86002 0.24811
 C3467 C 0.69394 0.84418 0.24697
 C3468 C 0.71063 0.84358 0.24161
 C3469 C 0.71930 0.82831 0.24138
 C3470 C 0.71139 0.81343 0.24657
 C3471 C 0.69450 0.81416 0.25168
 C3472 C 0.68586 0.82944 0.25189
 H3473 H 0.66524 0.92078 0.28149
 H3474 H 0.64302 0.91914 0.23221
 H3475 H 0.62933 0.94628 0.23741
 H3476 H 0.65190 0.94800 0.28672
 H3477 H 0.71701 0.85493 0.23781
 H3478 H 0.73226 0.82823 0.23735
 H3479 H 0.68799 0.80297 0.25573
 H3480 H 0.67296 0.82977 0.25610
 C3481 C 0.15739 0.42742 0.77098
 C3482 C 0.15544 0.41930 0.75553
 C3483 C 0.14562 0.42667 0.74296
 C3484 C 0.13778 0.44212 0.74583
 C3485 C 0.13966 0.45037 0.76134
 C3486 C 0.14956 0.44284 0.77388
 C3487 C 0.16356 0.40341 0.75268
 C3488 C 0.17049 0.39011 0.75066
 C3489 C 0.17873 0.37455 0.74872
 C3490 C 0.18587 0.36127 0.74744
 C3491 C 0.19448 0.34543 0.74637
 C3492 C 0.21110 0.34475 0.74082
 C3493 C 0.21976 0.32948 0.74064
 C3494 C 0.21189 0.31466 0.74606
 C3495 C 0.19506 0.31545 0.75135
 C3496 C 0.18644 0.33073 0.75151
 H3497 H 0.16500 0.42185 0.78078
 H3498 H 0.14400 0.42046 0.73096
 H3499 H 0.13010 0.44753 0.73600
 H3500 H 0.15146 0.44900 0.78585
 H3501 H 0.21745 0.35607 0.73685
 H3502 H 0.23267 0.32935 0.73646
 H3503 H 0.18859 0.30431 0.75557
 H3504 H 0.17358 0.33112 0.75586
 C3505 C 0.08318 0.76516 0.86031
 C3506 C 0.08356 0.75726 0.84462
 C3507 C 0.06860 0.75188 0.83716
 C3508 C 0.05329 0.75453 0.84528
 C3509 C 0.05276 0.76262 0.86097
 C3510 C 0.06789 0.76782 0.86844
 C3511 C 0.09925 0.75511 0.83598
 C3512 C 0.11238 0.75355 0.82867
 C3513 C 0.12775 0.75202 0.82005
 C3514 C 0.14089 0.75095 0.81267
 C3515 C 0.15659 0.74998 0.80386
 C3516 C 0.17142 0.75497 0.81183
 C3517 C 0.18663 0.75453 0.80316
 C3518 C 0.18723 0.74910 0.78635
 C3519 C 0.17224 0.74396 0.77850
 C3520 C 0.15704 0.74442 0.78721
 H3521 H 0.09470 0.76936 0.86620
 H3522 H 0.06875 0.74583 0.82498
 H3523 H 0.04184 0.75058 0.83910
 H3524 H 0.06789 0.77391 0.88060
 H3525 H 0.17121 0.75932 0.82471
 H3526 H 0.19790 0.75856 0.80962
 H3527 H 0.17222 0.73970 0.76560
 H3528 H 0.14562 0.74056 0.78092
 C3529 C 0.57634 0.24438 0.35225
 C3530 C 0.58341 0.25707 0.34246
 C3531 C 0.57517 0.27250 0.34087
 C3532 C 0.55992 0.27525 0.34903
 C3533 C 0.55271 0.26260 0.35893
 C3534 C 0.56107 0.24710 0.36043
 C3535 C 0.59916 0.25440 0.33408
 C3536 C 0.61236 0.25250 0.32698
 C3537 C 0.62783 0.25067 0.31861
 C3538 C 0.64107 0.24942 0.31145
 C3539 C 0.65691 0.24832 0.30291
 C3540 C 0.65759 0.24287 0.28623
 C3541 C 0.67292 0.24239 0.27776
 C3542 C 0.68780 0.24740 0.28588
 C3543 C 0.68698 0.25269 0.30272
 C3544 C 0.67164 0.25315 0.31115
 H3545 H 0.58265 0.23240 0.35360
 H3546 H 0.58051 0.28239 0.33329
 H3547 H 0.55367 0.28721 0.34742
 H3548 H 0.55590 0.23718 0.36810
 H3549 H 0.64624 0.23913 0.27973
 H3550 H 0.67307 0.23824 0.26482
 H3551 H 0.69817 0.25661 0.30938
 H3552 H 0.67125 0.25742 0.32406
 C3553 C 0.57375 0.72751 0.15793
 C3554 C 0.58171 0.74295 0.15564
 C3555 C 0.57422 0.75519 0.14550
 C3556 C 0.55881 0.75200 0.13770
 C3557 C 0.55071 0.73650 0.13995
 C3558 C 0.55837 0.72429 0.15015
 C3559 C 0.59753 0.74616 0.16376
 C3560 C 0.61076 0.74850 0.17071
 C3561 C 0.62626 0.75081 0.17898
 C3562 C 0.63949 0.75240 0.18616
 C3563 C 0.65528 0.75379 0.19483
 C3564 C 0.65572 0.75891 0.21163
 C3565 C 0.67095 0.75926 0.22036
 C3566 C 0.68597 0.75444 0.21240
 C3567 C 0.68541 0.74964 0.19540
 C3568 C 0.67016 0.74931 0.18670
 H3569 H 0.57941 0.71797 0.16580
 H3570 H 0.58030 0.76718 0.14361
 H3571 H 0.55332 0.76157 0.12978
 H3572 H 0.55233 0.71234 0.15233
 H3573 H 0.64426 0.76237 0.21805
 H3574 H 0.67091 0.76304 0.23341
 H3575 H 0.69670 0.74588 0.18885
 H3576 H 0.66996 0.74529 0.17371
 C3577 C 0.07231 0.22900 0.65950
 C3578 C 0.08035 0.24441 0.65723
 C3579 C 0.07296 0.25668 0.64707
 C3580 C 0.05757 0.25356 0.63921
 C3581 C 0.04941 0.23808 0.64140
 C3582 C 0.05695 0.22585 0.65165
 C3583 C 0.09621 0.24749 0.66531
 C3584 C 0.10951 0.24969 0.67219
 C3585 C 0.12509 0.25183 0.68035
 C3586 C 0.13840 0.25327 0.68739
 C3587 C 0.15431 0.25450 0.69586
 C3588 C 0.15506 0.25994 0.71254
 C3589 C 0.17041 0.26023 0.72107
 C3590 C 0.18524 0.25502 0.71301
 C3591 C 0.18437 0.24986 0.69612
 C3592 C 0.16901 0.24959 0.68764
 H3593 H 0.07790 0.21943 0.66738
 H3594 H 0.07910 0.26864 0.64519
 H3595 H 0.05216 0.26315 0.63124
 H3596 H 0.05086 0.21391 0.65378
 H3597 H 0.14374 0.26374 0.71904
 H3598 H 0.17059 0.26431 0.73403
 H3599 H 0.19551 0.24580 0.68951
 H3600 H 0.16857 0.24532 0.67474
 C3601 C 0.92443 0.27212 0.65859
 C3602 C 0.91648 0.25660 0.65666
 C3603 C 0.92390 0.24413 0.64675
 C3604 C 0.93924 0.24716 0.63883
 C3605 C 0.94733 0.26273 0.64072
 C3606 C 0.93974 0.27517 0.65069
 C3607 C 0.90073 0.25356 0.66489
 C3608 C 0.88754 0.25133 0.67189
 C3609 C 0.87210 0.24911 0.68020
 C3610 C 0.85890 0.24757 0.68737
 C3611 C 0.84312 0.24621 0.69599
 C3612 C 0.84264 0.24071 0.71264
 C3613 C 0.82742 0.24029 0.72131
 C3614 C 0.81244 0.24542 0.71342
 C3615 C 0.81303 0.25063 0.69656
 C3616 C 0.82827 0.25103 0.68794
 H3617 H 0.91881 0.28184 0.66627
 H3618 H 0.91783 0.23209 0.64513
 H3619 H 0.94468 0.23740 0.63108
 H3620 H 0.94577 0.28719 0.65258
 H3621 H 0.85408 0.23698 0.71901
 H3622 H 0.82744 0.23618 0.73424
 H3623 H 0.80177 0.25463 0.69007
 H3624 H 0.82850 0.25534 0.67506
 C3625 C 0.42567 0.77140 0.15816
 C3626 C 0.41750 0.75599 0.15641
 C3627 C 0.42474 0.74328 0.14666
 C3628 C 0.44010 0.74600 0.13867
 C3629 C 0.44837 0.76149 0.14032
 C3630 C 0.44099 0.77415 0.15018
 C3631 C 0.40166 0.75334 0.16460
 C3632 C 0.38838 0.75149 0.17155
 C3633 C 0.37284 0.74973 0.17977
 C3634 C 0.35955 0.74855 0.18685
 C3635 C 0.34369 0.74752 0.19535
 C3636 C 0.34298 0.74196 0.21196
 C3637 C 0.32764 0.74156 0.22043
 C3638 C 0.31278 0.74678 0.21237
 C3639 C 0.31363 0.75219 0.19559
 C3640 C 0.32898 0.75256 0.18716
 H3641 H 0.42020 0.78130 0.16572
 H3642 H 0.41850 0.73131 0.14520
 H3643 H 0.44539 0.73608 0.13103
 H3644 H 0.44718 0.78611 0.15191
 H3645 H 0.35430 0.73806 0.21843
 H3646 H 0.32747 0.73731 0.23332
 H3647 H 0.30247 0.75627 0.18898
 H3648 H 0.32940 0.75693 0.17431
 C3649 C 0.42794 0.22774 0.34143
 C3650 C 0.41982 0.24317 0.34353
 C3651 C 0.42714 0.25562 0.35354
 C3652 C 0.44256 0.25264 0.36142
 C3653 C 0.45081 0.23714 0.35940
 C3654 C 0.44333 0.22473 0.34930
 C3655 C 0.40396 0.24612 0.33538
 C3656 C 0.39068 0.24822 0.32843
 C3657 C 0.37514 0.25023 0.32017
 C3658 C 0.36186 0.25156 0.31304
 C3659 C 0.34601 0.25267 0.30444
 C3660 C 0.34533 0.25812 0.28778
 C3661 C 0.33005 0.25832 0.27914
 C3662 C 0.31521 0.25300 0.28706
 C3663 C 0.31601 0.24781 0.30392
 C3664 C 0.33131 0.24764 0.31252
 H3665 H 0.42241 0.21805 0.33367
 H3666 H 0.42093 0.26759 0.35527
 H3667 H 0.44792 0.26236 0.36926
 H3668 H 0.44949 0.21278 0.34729
 H3669 H 0.35665 0.26201 0.28140
 H3670 H 0.32991 0.26242 0.26620
 H3671 H 0.30486 0.24367 0.31044
 H3672 H 0.33170 0.24336 0.32541
 C3673 C 0.93357 0.75190 0.83807
 C3674 C 0.91874 0.74618 0.84545
 C3675 C 0.91940 0.73752 0.86069
 C3676 C 0.93484 0.73443 0.86845
 C3677 C 0.94984 0.73996 0.86104
 C3678 C 0.94903 0.74883 0.84582
 C3679 C 0.90290 0.74872 0.83712
 C3680 C 0.88965 0.75055 0.83003
 C3681 C 0.87415 0.75232 0.82164
 C3682 C 0.86091 0.75349 0.81441
 C3683 C 0.84509 0.75443 0.80571
 C3684 C 0.83032 0.74972 0.81387
 C3685 C 0.81506 0.74975 0.80521
 C3686 C 0.81436 0.75448 0.78821
 C3687 C 0.82925 0.75949 0.78021
 C3688 C 0.84451 0.75944 0.78891
 H3689 H 0.93321 0.75853 0.82623
 H3690 H 0.90799 0.73304 0.86650
 H3691 H 0.93505 0.72775 0.88026
 H3692 H 0.96037 0.75305 0.83970
 H3693 H 0.83064 0.74579 0.82687
 H3694 H 0.80386 0.74586 0.81180
 H3695 H 0.82919 0.76323 0.76715
 H3696 H 0.85587 0.76308 0.78246
   
