data_POSCAR
  _audit_creation_date              2014-09-24
  _audit_creation_method            'ToBaCCo'
  _symmetry_space_group_name_H-M    'P1'
  _symmetry_Int_Tables_number       1
  _symmetry_cell_setting            triclinic
  loop_
  _symmetry_equiv_pos_as_xyz
 x,y,z
_cell_length_a 49.0576
_cell_length_b 48.4163
_cell_length_c 48.8030
_cell_angle_alpha 87.788800
_cell_angle_beta 91.394000
_cell_angle_gamma 87.728100
loop_
  _atom_site_label
  _atom_site_type_symbol
  _atom_site_fract_x
  _atom_site_fract_y
  _atom_site_fract_z
Si1 Si 0.74718 0.63679 0.98911
 Si2 Si 0.75355 0.38924 0.50212
 Si3 Si 0.24316 -0.12244 0.01339
 Si4 Si 0.26268 0.12909 0.50088
 Si5 Si 0.11848 0.49107 0.24791
 Si6 Si -0.12533 -0.01122 0.27457
 Si7 Si 0.36643 0.49340 0.74908
 Si8 Si 0.62338 0.99712 0.76315
 Si9 Si -0.00178 0.24019 -0.12660
 Si10 Si 0.50669 0.25899 0.10780
 Si11 Si 1.01454 0.75068 0.62356
 Si12 Si 0.50190 0.74828 0.37396
 C13 C 0.41224 -0.02032 0.28736
 H14 H 0.40422 -0.00563 0.30152
 C15 C 0.42659 -0.04411 0.29748
 H16 H 0.42905 -0.04751 0.31947
 C17 C 0.41713 -0.03436 0.24170
 H18 H 0.41272 -0.03066 0.22001
 C19 C 0.43176 -0.05846 0.25096
 H20 H 0.43905 -0.07294 0.23617
 N21 N 0.40726 -0.01620 0.25997
 C22 C 0.38432 0.06540 0.22375
 H23 H 0.36248 0.06471 0.22613
 C24 C 0.39543 0.08912 0.21252
 H25 H 0.38185 0.10670 0.20692
 C26 C 0.42818 0.04338 0.22949
 H27 H 0.44075 0.02542 0.23621
 C28 C 0.44019 0.06661 0.21765
 H29 H 0.46203 0.06606 0.21496
 Zn30 Zn 0.38247 0.01278 0.24783
 N31 N 0.40066 0.04326 0.23227
 C32 C 0.36544 0.05121 0.28686
 N33 N 0.36247 0.02491 0.27865
 C34 C 0.34717 0.00698 0.29330
 C35 C 0.33338 0.01558 0.31642
 C36 C 0.35189 0.06069 0.30961
 C37 C 0.36115 0.00899 0.19388
 C38 C 0.34605 -0.00204 0.17264
 C39 C 0.32667 -0.03347 0.20568
 C40 C 0.34244 -0.02209 0.22625
 N41 N 0.35912 -0.00103 0.22018
 H42 H 0.37891 0.06484 0.27636
 H43 H 0.34627 -0.01427 0.28772
 H44 H 0.32123 0.00111 0.32776
 H45 H 0.35478 0.08162 0.31586
 H46 H 0.37529 0.02485 0.18901
 H47 H 0.34888 0.00565 0.15182
 H48 H 0.31341 -0.05004 0.21113
 H49 H 0.34183 -0.03071 0.24687
 C50 C 0.42372 0.08997 0.20895
 C51 C 0.43614 -0.06388 0.27928
 C52 C 0.32860 -0.02369 0.17834
 C53 C 0.33549 0.04286 0.32460
 C54 C 0.09792 1.02683 0.77665
 H55 H 0.09923 1.00744 0.78848
 C56 C 0.08209 1.04909 0.78581
 H57 H 0.07147 1.04659 0.80488
 C58 C 0.11194 1.05406 0.73857
 H59 H 0.12405 1.05621 0.72051
 C60 C 0.09612 1.07672 0.74678
 H61 H 0.09585 1.09581 0.73447
 N62 N 0.11266 1.02975 0.75356
 C63 C 0.13274 0.95119 0.71778
 H64 H 0.15431 0.95405 0.71534
 C65 C 0.12076 0.92827 0.70698
 H66 H 0.13321 0.91349 0.69617
 C67 C 0.09034 0.96699 0.73501
 H68 H 0.07862 0.98226 0.74584
 C69 C 0.07756 0.94398 0.72487
 H70 H 0.05594 0.94169 0.72775
 Zn71 Zn 0.13674 1.00010 0.74452
 N72 N 0.11748 0.97005 0.73133
 C73 C 0.15410 0.96165 0.78620
 N74 N 0.15672 0.98817 0.77677
 C75 C 0.17083 1.00646 0.79152
 C76 C 0.18237 0.99838 0.81727
 C77 C 0.16505 0.95284 0.81176
 C78 C 0.14755 1.01609 0.69108
 C79 C 0.16270 1.02402 0.66857
 C80 C 0.20318 1.02211 0.69792
 C81 C 0.18718 1.01407 0.71998
 N82 N 0.15984 1.01156 0.71620
 H83 H 0.14258 0.94748 0.77446
 H84 H 0.17222 1.02757 0.78375
 H85 H 0.19277 1.01329 0.82929
 H86 H 0.16214 0.93183 0.81923
 H87 H 0.12582 1.01362 0.68863
 H88 H 0.15232 1.02817 0.64892
 H89 H 0.22492 1.02411 0.70118
 H90 H 0.19661 1.00983 0.74002
 C91 C 0.09287 0.92449 0.71044
 C92 C 0.08130 1.07463 0.77100
 C93 C 0.19089 1.02720 0.67181
 C94 C 0.17883 0.97145 0.82787
 C95 C 0.58796 0.53112 0.27102
 H96 H 0.58889 0.51137 0.28223
 C97 C 0.57317 0.55358 0.28130
 H98 H 0.56291 0.55088 0.30055
 C99 C 0.60215 0.55909 0.23355
 H100 H 0.61409 0.56160 0.21544
 C101 C 0.58732 0.58188 0.24280
 H102 H 0.58753 0.60133 0.23111
 N103 N 0.60244 0.53436 0.24779
 C104 C 0.62283 0.45539 0.21246
 H105 H 0.64460 0.45786 0.21133
 C106 C 0.61118 0.43254 0.20122
 H107 H 0.62413 0.41736 0.19150
 C108 C 0.57958 0.47238 0.22652
 H109 H 0.56743 0.48818 0.23619
 C110 C 0.56704 0.44953 0.21570
 H111 H 0.54515 0.44787 0.21693
 Zn112 Zn 0.62626 0.50492 0.23756
 N113 N 0.60703 0.47479 0.22466
 C114 C 0.64552 0.46657 0.27876
 N115 N 0.64766 0.49303 0.26895
 C116 C 0.66314 0.51117 0.28241
 C117 C 0.67759 0.50270 0.30659
 C118 C 0.65951 0.45730 0.30272
 C119 C 0.63445 0.52319 0.18413
 C120 C 0.64814 0.53382 0.16166
 C121 C 0.69027 0.52954 0.18851
 C122 C 0.67563 0.51928 0.21074
 N123 N 0.64810 0.51701 0.20831
 H124 H 0.63247 0.45266 0.26839
 H125 H 0.66404 0.53229 0.27449
 H126 H 0.69000 0.51729 0.31697
 H127 H 0.65698 0.43629 0.31036
 H128 H 0.61266 0.52068 0.18264
 H129 H 0.63685 0.53971 0.14285
 H130 H 0.71201 0.53218 0.19075
 H131 H 0.68618 0.51365 0.22995
 C132 C 0.58295 0.42949 0.20256
 C133 C 0.57318 0.57958 0.26740
 C134 C 0.67625 0.53740 0.16390
 C135 C 0.67592 0.47536 0.31695
 C136 C 0.91721 0.47492 0.78280
 H137 H 0.91850 0.49321 0.79474
 C138 C 0.93065 0.45022 0.79220
 H139 H 0.94211 0.44986 0.81146
 C140 C 0.89880 0.45279 0.74452
 H141 H 0.88586 0.45352 0.72628
 C142 C 0.91224 0.42785 0.75289
 H143 H 0.90995 0.41001 0.74046
 N144 N 0.90115 0.47565 0.75964
 C145 C 0.88774 0.56018 0.72646
 H146 H 0.86644 0.55897 0.72067
 C147 C 0.90170 0.58357 0.71860
 H148 H 0.89087 0.60025 0.70697
 C149 C 0.92806 0.53901 0.74678
 H150 H 0.93832 0.52151 0.75751
 C151 C 0.94293 0.56206 0.73911
 H152 H 0.96452 0.56216 0.74424
 Zn153 Zn 0.87921 0.50808 0.74967
 N154 N 0.90087 0.53862 0.74060
 C155 C 0.84162 0.54173 0.77771
 N156 N 0.85638 0.51731 0.77936
 C157 C 0.85595 0.50038 0.80228
 C158 C 0.84151 0.50851 0.82518
 C159 C 0.82687 0.55061 0.80005
 C160 C 0.87115 0.49898 0.69410
 C161 C 0.85712 0.49215 0.67028
 C162 C 0.81560 0.49124 0.69590
 C163 C 0.83049 0.49804 0.71931
 N164 N 0.85784 0.50125 0.71807
 H165 H 0.84172 0.55475 0.75930
 H166 H 0.86703 0.48065 0.80307
 H167 H 0.84176 0.49495 0.84336
 H168 H 0.81619 0.57063 0.79858
 H169 H 0.89293 0.50168 0.69375
 H170 H 0.86839 0.48927 0.65174
 H171 H 0.79390 0.48837 0.69731
 H172 H 0.82034 0.50008 0.73859
 C173 C 0.92964 0.58478 0.72496
 C174 C 0.92790 0.42605 0.77743
 C175 C 0.82902 0.48774 0.67104
 C176 C 0.82709 0.53416 0.82439
 C177 C 0.26785 0.41011 -0.02932
 H178 H 0.27732 0.41181 -0.00923
 C179 C 0.27813 0.42442 -0.05191
 H180 H 0.29519 0.43760 -0.04892
 C181 C 0.23504 0.38969 -0.05775
 H182 H 0.21900 0.37528 -0.06016
 C183 C 0.24475 0.40357 -0.08094
 H184 H 0.23593 0.39970 -0.10091
 N185 N 0.24694 0.39287 -0.03264
 C186 C 0.21742 0.37450 0.04930
 H187 H 0.21750 0.35222 0.04827
 C188 C 0.20859 0.38713 0.07285
 H189 H 0.20149 0.37438 0.08973
 C190 C 0.22597 0.41804 0.02806
 H191 H 0.23262 0.42997 0.01047
 C192 C 0.21725 0.43159 0.05131
 H193 H 0.21759 0.45392 0.05152
 Zn194 Zn 0.23844 0.36958 -0.00232
 N195 N 0.22625 0.38994 0.02769
 C196 C 0.28257 0.35283 0.03311
 N197 N 0.27110 0.34921 0.00793
 C198 C 0.28455 0.33450 -0.01117
 C199 C 0.31105 0.32357 -0.00550
 C200 C 0.30884 0.34231 0.03958
 C201 C 0.18567 0.36013 -0.01844
 C202 C 0.16299 0.34547 -0.02585
 C203 C 0.19026 0.30297 -0.01905
 C204 C 0.21261 0.31857 -0.01192
 N205 N 0.20991 0.34664 -0.01204
 H206 H 0.27197 0.36503 0.04785
 H207 H 0.27519 0.33241 -0.03124
 H208 H 0.32195 0.31286 -0.02123
 H209 H 0.31777 0.34593 0.05958
 H210 H 0.18412 0.38247 -0.01811
 H211 H 0.14420 0.35686 -0.03179
 H212 H 0.19266 0.28064 -0.01879
 H213 H 0.23200 0.30828 -0.00625
 C214 C 0.20865 0.41603 0.07420
 C215 C 0.26705 0.42062 -0.07826
 C216 C 0.16503 0.31647 -0.02626
 C217 C 0.32374 0.32817 0.01991
 C218 C 0.79029 0.07365 1.04264
 H219 H 0.80235 0.07062 1.02476
 C220 C 0.79853 0.06026 1.06754
 H221 H 0.81716 0.04746 1.06849
 C222 C 0.75189 0.09434 1.06339
 H223 H 0.73349 0.10732 1.06179
 C224 C 0.75940 0.08141 1.08868
 H225 H 0.74670 0.08471 1.10618
 N226 N 0.76773 0.09098 1.04112
 C227 C 0.75342 0.09794 0.95339
 H228 H 0.76438 0.11659 0.94961
 C229 C 0.74333 0.08371 0.93128
 H230 H 0.74673 0.09154 0.91061
 C231 C 0.73383 0.06648 0.98492
 H232 H 0.72974 0.06033 1.00592
 C233 C 0.72306 0.05175 0.96333
 H234 H 0.71094 0.03401 0.96784
 Zn235 Zn 0.75888 0.11234 1.00810
 N236 N 0.74845 0.08927 0.97956
 C237 C 0.81106 0.11658 0.98663
 N238 N 0.78990 0.13186 0.99655
 C239 C 0.79053 0.15995 0.99672
 C240 C 0.81327 0.17357 0.98721
 C241 C 0.83405 0.12934 0.97675
 C242 C 0.70463 0.13407 1.00142
 C243 C 0.68141 0.14951 1.00857
 C244 C 0.70897 0.17244 1.04173
 C245 C 0.73155 0.15627 1.03425
 N246 N 0.72896 0.13721 1.01470
 H247 H 0.80968 0.09447 0.98534
 H248 H 0.77335 0.17198 1.00385
 H249 H 0.81344 0.19589 0.98782
 H250 H 0.85019 0.11671 0.96822
 H251 H 0.70286 0.11876 0.98602
 H252 H 0.66202 0.14555 0.99873
 H253 H 0.71154 0.18728 1.05752
 H254 H 0.75098 0.15814 1.04484
 C255 C 0.72751 0.06059 0.93608
 C256 C 0.78331 0.06453 1.09114
 C257 C 0.68324 0.16861 1.02942
 C258 C 0.83542 0.15824 0.97695
 C259 C 0.28300 0.58107 0.51789
 H260 H 0.29552 0.57949 0.50003
 C261 C 0.29104 0.56675 0.54235
 H262 H 0.30989 0.55432 0.54305
 C263 C 0.24431 0.60080 0.53905
 H264 H 0.22623 0.61430 0.53787
 C265 C 0.25141 0.58664 0.56379
 H266 H 0.23843 0.58918 0.58121
 N267 N 0.26037 0.59829 0.51686
 C268 C 0.23076 0.61369 0.43231
 H269 H 0.22700 0.63581 0.43248
 C270 C 0.22232 0.59941 0.40956
 H271 H 0.21245 0.61084 0.39231
 C272 C 0.24587 0.57180 0.45552
 H273 H 0.25473 0.56107 0.47360
 C274 C 0.23754 0.55662 0.43318
 H275 H 0.24035 0.53431 0.43418
 Zn276 Zn 0.25213 0.62133 0.48501
 N277 N 0.24250 0.59988 0.45464
 C278 C 0.28287 0.65815 0.45261
 N279 N 0.28286 0.64284 0.47658
 C280 C 0.30468 0.64240 0.49442
 C281 C 0.32811 0.65643 0.48776
 C282 C 0.30586 0.67249 0.44514
 C283 C 0.19638 0.63651 0.48785
 C284 C 0.17390 0.65123 0.49775
 C285 C 0.20467 0.68351 0.51708
 C286 C 0.22657 0.66827 0.50668
 N287 N 0.22208 0.64501 0.49279
 H288 H 0.26528 0.65892 0.43892
 H289 H 0.30407 0.63111 0.51389
 H290 H 0.34532 0.65556 0.50213
 H291 H 0.30574 0.68364 0.42546
 H292 H 0.19340 0.61751 0.47745
 H293 H 0.15369 0.64344 0.49477
 H294 H 0.20861 0.70152 0.52882
 H295 H 0.24725 0.67424 0.51076
 C296 C 0.22563 0.57049 0.40979
 C297 C 0.27543 0.56986 0.56592
 C298 C 0.17798 0.67462 0.51322
 C299 C 0.32907 0.67137 0.46261
 C300 C 0.77402 0.89911 0.49349
 H301 H 0.78324 0.89990 0.51379
 C302 C 0.78527 0.91349 0.47144
 H303 H 0.80288 0.92577 0.47509
 C304 C 0.74053 0.88124 0.46399
 H305 H 0.72371 0.86789 0.46093
 C306 C 0.75117 0.89525 0.44135
 H307 H 0.74230 0.89251 0.42115
 N308 N 0.75216 0.88323 0.48942
 C309 C 0.71745 0.86795 0.56982
 H310 H 0.71573 0.84579 0.56900
 C311 C 0.70885 0.88166 0.59287
 H312 H 0.70003 0.86990 0.60951
 C313 C 0.73057 0.91008 0.54868
 H314 H 0.73900 0.92107 0.53138
 C315 C 0.72232 0.92466 0.57145
 H316 H 0.72481 0.94677 0.57154
 Zn317 Zn 0.74100 0.86069 0.51939
 N318 N 0.72844 0.88216 0.54851
 C319 C 0.78271 0.84251 0.55711
 N320 N 0.77215 0.83881 0.53156
 C321 C 0.78562 0.82277 0.51352
 C322 C 0.81121 0.81038 0.52074
 C323 C 0.80817 0.83072 0.56504
 C324 C 0.68844 0.85348 0.50046
 C325 C 0.66649 0.83998 0.48931
 C326 C 0.69252 0.79663 0.49549
 C327 C 0.71418 0.81105 0.50642
 N328 N 0.71195 0.83906 0.50797
 H329 H 0.77214 0.85579 0.57097
 H330 H 0.77708 0.82068 0.49310
 H331 H 0.82226 0.79860 0.50586
 H332 H 0.81663 0.83463 0.58517
 H333 H 0.68722 0.87571 0.50216
 H334 H 0.64830 0.85184 0.48223
 H335 H 0.69472 0.77450 0.49321
 H336 H 0.73295 0.79998 0.51289
 C337 C 0.71155 0.91037 0.59409
 C338 C 0.77416 0.91123 0.44484
 C339 C 0.66865 0.81136 0.48635
 C340 C 0.82303 0.81506 0.54652
 C341 C -0.02625 0.28506 0.41843
 H342 H -0.00728 0.29519 0.41513
 C343 C -0.04652 0.29787 0.43367
 H344 H -0.04279 0.31762 0.44244
 C345 C -0.05479 0.24788 0.40966
 H346 H -0.05829 0.22880 0.39962
 C347 C -0.07555 0.25988 0.42491
 H348 H -0.09487 0.24992 0.42634
 N349 N -0.03084 0.26075 0.40636
 C350 C 0.04486 0.21686 0.38840
 H351 H 0.03880 0.20964 0.36854
 C352 C 0.06919 0.20665 0.40094
 H353 H 0.08184 0.19172 0.39054
 C354 C 0.03559 0.24478 0.42617
 H355 H 0.02229 0.25933 0.43613
 C356 C 0.06006 0.23532 0.43936
 H357 H 0.06538 0.24262 0.45942
 Zn358 Zn -0.00448 0.24669 0.38197
 N359 N 0.02853 0.23549 0.40108
 C360 C 0.02686 0.27330 0.34192
 N361 N 0.00294 0.27489 0.35539
 C362 C -0.01421 0.29765 0.35225
 C363 C -0.00668 0.32068 0.33648
 C364 C 0.03516 0.29582 0.32592
 C365 C -0.01875 0.19186 0.38141
 C366 C -0.02843 0.16764 0.37098
 C367 C -0.03588 0.19156 0.32691
 C368 C -0.02579 0.21542 0.33820
 N369 N -0.01782 0.21517 0.36511
 H370 H 0.04018 0.25506 0.34458
 H371 H -0.03338 0.29835 0.36269
 H372 H -0.02023 0.33891 0.33487
 H373 H 0.05495 0.29463 0.31660
 H374 H -0.01198 0.19218 0.40266
 H375 H -0.02877 0.14931 0.38438
 H376 H -0.04289 0.19228 0.30568
 H377 H -0.02471 0.23422 0.32563
 C378 C 0.07697 0.21578 0.42679
 C379 C -0.07176 0.28553 0.43657
 C380 C -0.03760 0.16732 0.34350
 C381 C 0.01865 0.32022 0.32370
 C382 C 1.01857 0.78811 0.08766
 H383 H 0.99912 0.79948 0.08634
 C384 C 1.04140 0.79925 0.07548
 H385 H 1.03927 0.81906 0.06441
 C386 C 1.04526 0.74905 0.10474
 H387 H 1.04702 0.73000 0.11698
 C388 C 1.06853 0.75933 0.09277
 H389 H 1.08788 0.74795 0.09590
 N390 N 1.02094 0.76357 0.10219
 C391 C 0.93970 0.73169 0.11225
 H392 H 0.94113 0.72744 0.13418
 C393 C 0.91632 0.72510 0.09757
 H394 H 0.89993 0.71544 0.10834
 C395 C 0.95984 0.74877 0.07166
 H396 H 0.97694 0.75790 0.06170
 C397 C 0.93676 0.74229 0.05605
 H398 H 0.93617 0.74668 0.03412
 Zn399 Zn 0.99067 0.75183 0.12237
 N400 N 0.96068 0.74369 0.09930
 C401 C 0.95407 0.79073 0.14517
 N402 N 0.98038 0.78070 0.14574
 C403 C 0.99972 0.79175 0.16204
 C404 C 0.99271 0.81348 0.17899
 C405 C 0.94614 0.81198 0.16206
 C406 C 1.00616 0.69608 0.12855
 C407 C 1.01416 0.67108 0.14208
 C408 C 1.00905 0.69317 0.18533
 C409 C 1.00128 0.71786 0.17090
 N410 N 1.00046 0.71894 0.14301
 H411 H 0.93910 0.78240 0.13157
 H412 H 1.02059 0.78370 0.16180
 H413 H 1.00819 0.82203 0.19201
 H414 H 0.92505 0.81959 0.16146
 H415 H 1.00502 0.69749 0.10637
 H416 H 1.01965 0.65348 0.13005
 H417 H 1.00968 0.69270 0.20753
 H418 H 0.99608 0.73614 0.18200
 C419 C 0.91451 0.73056 0.06912
 C420 C 1.06689 0.78500 0.07838
 C421 C 1.01594 0.66941 0.17088
 C422 C 0.96552 0.82353 0.17930
 C423 C 0.53276 0.29120 0.57931
 H424 H 0.51237 0.30054 0.57724
 C425 C 0.55407 0.30275 0.56490
 H426 H 0.54984 0.32080 0.55145
 C427 C 0.56316 0.25688 0.60008
 H428 H 0.56686 0.23957 0.61448
 C429 C 0.58504 0.26772 0.58605
 H430 H 0.60533 0.25854 0.58987
 N431 N 0.53765 0.26877 0.59660
 C432 C 0.45903 0.23301 0.61154
 H433 H 0.46117 0.23093 0.63365
 C434 C 0.43532 0.22483 0.59850
 H435 H 0.41945 0.21596 0.61068
 C436 C 0.47743 0.24689 0.56894
 H437 H 0.49392 0.25555 0.55759
 C438 C 0.45401 0.23870 0.55495
 H439 H 0.45256 0.24120 0.53282
 Zn440 Zn 0.50878 0.25628 0.61831
 N441 N 0.47925 0.24429 0.59680
 C442 C 0.47002 0.29613 0.63437
 N443 N 0.49605 0.28616 0.63928
 C444 C 0.51267 0.29784 0.65797
 C445 C 0.50271 0.31964 0.67351
 C446 C 0.45927 0.31756 0.64944
 C447 C 0.52858 0.20234 0.62769
 C448 C 0.53666 0.17806 0.64244
 C449 C 0.52789 0.20131 0.68444
 C450 C 0.52006 0.22529 0.66883
 N451 N 0.52076 0.22539 0.64097
 H452 H 0.45741 0.28762 0.61864
 H453 H 0.53352 0.28999 0.66103
 H454 H 0.51585 0.32840 0.68875
 H455 H 0.43842 0.32503 0.64527
 H456 H 0.52855 0.20292 0.60551
 H457 H 0.54339 0.16019 0.63137
 H458 H 0.52690 0.20146 0.70658
 H459 H 0.51305 0.24359 0.67897
 C460 C 0.43243 0.22789 0.56988
 C461 C 0.58072 0.29122 0.56850
 C462 C 0.53629 0.17725 0.67122
 C463 C 0.47548 0.32930 0.66960
 C464 C 0.45369 0.78453 0.90417
 H465 H 0.47244 0.79546 0.90396
 C466 C 0.43191 0.79460 0.91938
 H467 H 0.43441 0.81305 0.93087
 C468 C 0.42682 0.74897 0.88754
 H469 H 0.42438 0.73165 0.87460
 C470 C 0.40467 0.75813 0.90264
 H471 H 0.38592 0.74711 0.90162
 N472 N 0.45087 0.76207 0.88855
 C473 C 0.52498 0.71402 0.87963
 H474 H 0.51709 0.70239 0.86299
 C475 C 0.54914 0.70461 0.89300
 H476 H 0.55911 0.68556 0.88682
 C477 C 0.52308 0.75388 0.90622
 H478 H 0.51326 0.77336 0.91093
 C479 C 0.54752 0.74529 0.92004
 H480 H 0.55595 0.75800 0.93567
 Zn481 Zn 0.47990 0.74978 0.86580
 N482 N 0.51201 0.73798 0.88672
 C483 C 0.51357 0.77480 0.82826
 N484 N 0.49002 0.77895 0.84188
 C485 C 0.47676 0.80419 0.84137
 C486 C 0.48841 0.82704 0.82861
 C487 C 0.52586 0.79701 0.81519
 C488 C 0.46368 0.69610 0.86172
 C489 C 0.45419 0.67261 0.84982
 C490 C 0.45365 0.69687 0.80558
 C491 C 0.46354 0.72004 0.81842
 N492 N 0.46799 0.71928 0.84608
 H493 H 0.52364 0.75449 0.82897
 H494 H 0.45790 0.80698 0.85207
 H495 H 0.47848 0.84730 0.82995
 H496 H 0.54520 0.79351 0.80540
 H497 H 0.46751 0.69603 0.88365
 H498 H 0.45117 0.65439 0.86279
 H499 H 0.44938 0.69796 0.78369
 H500 H 0.46711 0.73873 0.80641
 C501 C 0.56064 0.72018 0.91361
 C502 C 0.40688 0.78143 0.91865
 C503 C 0.44845 0.67290 0.82149
 C504 C 0.51384 0.82376 0.81626
 C505 C 0.47691 -0.16809 0.32811
 C506 C 0.46989 -0.19293 0.31624
 C507 C 0.47793 -0.21826 0.32969
 C508 C 0.49247 -0.21857 0.35488
 C509 C 0.49897 -0.19354 0.36662
 C510 C 0.49157 -0.16823 0.35316
 C511 C 0.46809 -0.14141 0.31446
 C512 C 0.47489 -0.11667 0.32655
 C513 C 0.46561 -0.09137 0.31411
 C514 C 0.44895 -0.09061 0.29013
 C515 C 0.44285 -0.11568 0.27791
 C516 C 0.45241 -0.14115 0.29001
 C517 C 0.49826 -0.14306 0.36446
 C518 C 0.49019 -0.11770 0.35130
 C519 C 0.45465 -0.19184 0.29144
 C520 C 0.44596 -0.16640 0.27860
 H521 H 0.50970 -0.14296 0.38374
 H522 H 0.49556 -0.09874 0.36082
 H523 H 0.44908 -0.21080 0.28205
 H524 H 0.43390 -0.16650 0.25972
 H525 H 0.47254 -0.23758 0.32090
 H526 H 0.50954 -0.19365 0.38637
 H527 H 0.47087 -0.07228 0.32345
 H528 H 0.42977 -0.11547 0.25969
 C529 C 0.97082 0.32163 0.82464
 C530 C 0.99486 0.32094 0.84089
 C531 C 1.00365 0.29612 0.85465
 C532 C 0.98845 0.27224 0.85242
 C533 C 0.96531 0.27282 0.83483
 C534 C 0.95603 0.29766 0.82132
 C535 C 0.96059 0.34808 0.81145
 C536 C 0.93598 0.34899 0.79613
 C537 C 0.92566 0.37443 0.78473
 C538 C 0.93988 0.39890 0.78828
 C539 C 0.96495 0.39736 0.80317
 C540 C 0.97524 0.37207 0.81502
 C541 C 0.93183 0.29927 0.80524
 C542 C 0.92191 0.32453 0.79297
 C543 C 1.00923 0.34527 0.84359
 C544 C 0.99964 0.37038 0.83080
 H545 H 0.92021 0.28097 0.80253
 H546 H 0.90293 0.32495 0.78111
 H547 H 1.02788 0.34497 0.85599
 H548 H 1.01118 0.38872 0.83366
 H549 H 1.02206 0.29567 0.86733
 H550 H 0.95392 0.25425 0.83265
 H551 H 0.90613 0.37523 0.77384
 H552 H 0.97636 0.41583 0.80573
 C553 C 0.02885 1.16898 0.81930
 C554 C 0.04113 1.19468 0.81748
 C555 C 0.03032 1.21669 0.83222
 C556 C 0.00825 1.21266 0.84954
 C557 C -0.00476 1.18730 0.85000
 C558 C 0.00561 1.16525 0.83505
 C559 C 0.04119 1.14524 0.80537
 C560 C 0.02933 1.11936 0.80779
 C561 C 0.04194 1.09653 0.79565
 C562 C 0.06654 1.09931 0.78163
 C563 C 0.07781 1.12563 0.77901
 C564 C 0.06520 1.14864 0.79077
 C565 C -0.00612 1.13924 0.83638
 C566 C 0.00550 1.11670 0.82291
 C567 C 0.06466 1.19749 0.80194
 C568 C 0.07655 1.17483 0.78889
 H569 H -0.02413 1.13613 0.84836
 H570 H -0.00392 1.09688 0.82485
 H571 H 0.07433 1.21721 0.80038
 H572 H 0.09502 1.17774 0.77758
 H573 H 0.04005 1.23642 0.83153
 H574 H -0.02235 1.18431 0.86254
 H575 H 0.03279 1.07656 0.79746
 H576 H 0.09694 1.12808 0.76872
 C577 C 0.52799 0.67556 0.31915
 C578 C 0.54183 0.70037 0.31745
 C579 C 0.53255 0.72282 0.33244
 C580 C 0.51026 0.72030 0.34977
 C581 C 0.49569 0.69581 0.35006
 C582 C 0.50465 0.67323 0.33500
 C583 C 0.53861 0.65135 0.30472
 C584 C 0.52514 0.62633 0.30691
 C585 C 0.53602 0.60303 0.29406
 C586 C 0.56039 0.60460 0.27942
 C587 C 0.57334 0.63007 0.27723
 C588 C 0.56252 0.65348 0.28972
 C589 C 0.49131 0.64806 0.33616
 C590 C 0.50137 0.62501 0.32234
 C591 C 0.56526 0.70192 0.30157
 C592 C 0.57549 0.67882 0.28802
 H593 H 0.47322 0.64601 0.34826
 H594 H 0.49070 0.60588 0.32412
 H595 H 0.57610 0.72096 0.30007
 H596 H 0.59391 0.68073 0.27640
 H597 H 0.54323 0.74186 0.33109
 H598 H 0.47783 0.69389 0.36241
 H599 H 0.52566 0.58371 0.29564
 H600 H 0.59238 0.63153 0.26657
 C601 C 0.54004 0.33469 0.15157
 C602 C 0.52246 0.31745 0.16600
 C603 C 0.51278 0.29396 0.15340
 C604 C 0.52052 0.28815 0.12662
 C605 C 0.53813 0.30556 0.11256
 C606 C 0.54805 0.32881 0.12493
 C607 C 0.55020 0.35945 0.16450
 C608 C 0.56794 0.37641 0.15004
 C609 C 0.57800 0.39956 0.16253
 C610 C 0.57048 0.40592 0.18927
 C611 C 0.55217 0.38910 0.20335
 C612 C 0.54211 0.36561 0.19107
 C613 C 0.56565 0.34639 0.11107
 C614 C 0.57549 0.36978 0.12345
 C615 C 0.51481 0.32428 0.19256
 C616 C 0.52443 0.34796 0.20486
 H617 H 0.57191 0.34200 0.09049
 H618 H 0.58914 0.38276 0.11212
 H619 H 0.50124 0.31123 0.20392
 H620 H 0.51805 0.35242 0.22537
 H621 H 0.49894 0.28065 0.16408
 H622 H 0.54384 0.30117 0.09179
 H623 H 0.59180 0.41266 0.15150
 H624 H 0.54647 0.39386 0.22401
 C625 C 0.04860 0.82826 0.66360
 C626 C 0.05324 0.82330 0.63592
 C627 C 0.04302 0.79965 0.62456
 C628 C 0.02860 0.78084 0.64068
 C629 C 0.02432 0.78573 0.66847
 C630 C 0.03416 0.80969 0.68004
 C631 C 0.05908 0.85338 0.67553
 C632 C 0.05425 0.85863 0.70314
 C633 C 0.06458 0.88249 0.71442
 C634 C 0.08004 0.90053 0.69833
 C635 C 0.08444 0.89504 0.67066
 C636 C 0.07392 0.87158 0.65911
 C637 C 0.02976 0.81561 0.70760
 C638 C 0.03956 0.83970 0.71893
 C639 C 0.06791 0.84214 0.62009
 C640 C 0.07818 0.86583 0.63153
 H641 H 0.01860 0.80154 0.72051
 H642 H 0.03574 0.84345 0.74026
 H643 H 0.07158 0.83846 0.59870
 H644 H 0.08956 0.87977 0.61868
 H645 H 0.04612 0.79595 0.60306
 H646 H 0.01310 0.77130 0.68087
 H647 H 0.06136 0.88661 0.73580
 H648 H 0.09615 0.90905 0.65820
 C649 C 0.98252 0.67861 0.67786
 C650 C 0.96945 0.70495 0.67821
 C651 C 0.98033 0.72707 0.66323
 C652 C 1.00380 0.72278 0.64777
 C653 C 1.01702 0.69645 0.64816
 C654 C 1.00646 0.67425 0.66318
 C655 C 0.97019 0.65488 0.69199
 C656 C 0.98270 0.62836 0.69070
 C657 C 0.97000 0.60559 0.70272
 C658 C 0.94476 0.60919 0.71552
 C659 C 0.93294 0.63606 0.71733
 C660 C 0.94550 0.65897 0.70548
 C661 C 1.01877 0.64756 0.66295
 C662 C 1.00711 0.62501 0.67652
 C663 C 0.94520 0.70836 0.69266
 C664 C 0.93342 0.68575 0.70606
 H665 H 1.03731 0.64398 0.65176
 H666 H 1.01699 0.60468 0.67541
 H667 H 0.93494 0.72856 0.69315
 H668 H 0.91442 0.68918 0.71651
 H669 H 0.96990 0.74726 0.66258
 H670 H 1.03488 0.69283 0.63603
 H671 H 0.97907 0.58498 0.70094
 H672 H 0.91366 0.63902 0.72742
 C673 C 0.46775 0.18780 0.15843
 C674 C 0.45188 0.20327 0.13857
 C675 C 0.46292 0.22624 0.12534
 C676 C 0.49012 0.23294 0.13067
 C677 C 0.50531 0.21812 0.15165
 C678 C 0.49423 0.19539 0.16556
 C679 C 0.45660 0.16290 0.17158
 C680 C 0.47236 0.14743 0.19156
 C681 C 0.46163 0.12361 0.20386
 C682 C 0.43554 0.11499 0.19587
 C683 C 0.42035 0.13071 0.17540
 C684 C 0.43056 0.15482 0.16355
 C685 C 0.50933 0.17958 0.18586
 C686 C 0.49852 0.15608 0.19874
 C687 C 0.42560 0.19492 0.13161
 C688 C 0.41520 0.17095 0.14372
 H689 H 0.52976 0.18524 0.19166
 H690 H 0.51090 0.14440 0.21417
 H691 H 0.41318 0.20669 0.11626
 H692 H 0.39500 0.16497 0.13747
 H693 H 0.45038 0.23817 0.11038
 H694 H 0.52583 0.22373 0.15678
 H695 H 0.47346 0.11205 0.21978
 H696 H 0.40062 0.12411 0.16839
 C697 C 0.32041 0.46035 -0.17510
 C698 C 0.34902 0.45870 -0.17549
 C699 C 0.36213 0.46815 -0.19890
 C700 C 0.34694 0.47935 -0.22173
 C701 C 0.31829 0.48062 -0.22142
 C702 C 0.30484 0.47112 -0.19793
 C703 C 0.30656 0.45076 -0.15022
 C704 C 0.27794 0.45229 -0.14966
 C705 C 0.26493 0.44287 -0.12592
 C706 C 0.28043 0.43208 -0.10293
 C707 C 0.30911 0.43086 -0.10396
 C708 C 0.32226 0.44014 -0.12748
 C709 C 0.27623 0.47237 -0.19659
 C710 C 0.26301 0.46310 -0.17289
 C711 C 0.36400 0.44791 -0.15238
 C712 C 0.35084 0.43876 -0.12876
 H713 H 0.26394 0.48062 -0.21399
 H714 H 0.24092 0.46441 -0.17274
 H715 H 0.38610 0.44658 -0.15253
 H716 H 0.36313 0.43056 -0.11134
 H717 H 0.38424 0.46730 -0.19922
 H718 H 0.30665 0.48930 -0.23905
 H719 H 0.24284 0.44397 -0.12528
 H720 H 0.32122 0.42202 -0.08669
 C721 C 0.82824 0.95486 0.34996
 C722 C 0.81283 0.96701 0.32765
 C723 C 0.82641 0.97718 0.30449
 C724 C 0.85504 0.97518 0.30397
 C725 C 0.87006 0.96273 0.32634
 C726 C 0.85682 0.95260 0.34942
 C727 C 0.81425 0.94426 0.37438
 C728 C 0.82979 0.93214 0.39656
 C729 C 0.81649 0.92186 0.41961
 C730 C 0.78781 0.92354 0.42070
 C731 C 0.77249 0.93586 0.39828
 C732 C 0.78566 0.94629 0.37503
 C733 C 0.87165 0.94037 0.37199
 C734 C 0.85835 0.93029 0.39518
 C735 C 0.78423 0.96876 0.32909
 C736 C 0.77088 0.95857 0.35235
 H737 H 0.89373 0.93856 0.37173
 H738 H 0.87053 0.92094 0.41216
 H739 H 0.77205 0.97807 0.31209
 H740 H 0.74880 0.96028 0.35257
 H741 H 0.81487 0.98673 0.28719
 H742 H 0.89216 0.96121 0.32584
 H743 H 0.82846 0.91191 0.43643
 H744 H 0.75042 0.93738 0.39898
 C745 C 0.82660 0.01960 1.19512
 C746 C 0.83935 -0.00689 1.19643
 C747 C 0.85241 -0.01663 1.22095
 C748 C 0.85297 -0.00002 1.24397
 C749 C 0.83938 0.02612 1.24270
 C750 C 0.82626 0.03615 1.21816
 C751 C 0.81421 0.03055 1.16885
 C752 C 0.80219 0.05738 1.16725
 C753 C 0.79147 0.06812 1.14193
 C754 C 0.79289 0.05229 1.11827
 C755 C 0.80458 0.02522 1.12045
 C756 C 0.81534 0.01429 1.14565
 C757 C 0.81357 0.06270 1.21588
 C758 C 0.80175 0.07313 1.19086
 C759 C 0.83954 -0.02279 1.17295
 C760 C 0.82773 -0.01239 1.14799
 H761 H 0.81313 0.07570 1.23346
 H762 H 0.79250 0.09385 1.18991
 H763 H 0.84929 -0.04330 1.17376
 H764 H 0.82866 -0.02517 1.13027
 H765 H 0.86270 -0.03683 1.22170
 H766 H 0.83992 0.03897 1.26039
 H767 H 0.78286 0.08910 1.14044
 H768 H 0.80547 0.01275 1.10250
 C769 C 0.31863 0.52343 0.66935
 C770 C 0.31619 0.53881 0.69308
 C771 C 0.32924 0.52872 0.71760
 C772 C 0.34503 0.50385 0.71816
 C773 C 0.34679 0.48843 0.69438
 C774 C 0.33358 0.49809 0.66991
 C775 C 0.30622 0.53457 0.64318
 C776 C 0.30928 0.51950 0.61935
 C777 C 0.29840 0.53069 0.59430
 C778 C 0.28494 0.55699 0.59285
 C779 C 0.28174 0.57161 0.61712
 C780 C 0.29231 0.56048 0.64233
 C781 C 0.33574 0.48334 0.64577
 C782 C 0.32371 0.49382 0.62093
 C783 C 0.30153 0.56436 0.69154
 C784 C 0.28985 0.57505 0.66658
 H785 H 0.34715 0.46370 0.64600
 H786 H 0.32616 0.48195 0.60272
 H787 H 0.29947 0.57643 0.70966
 H788 H 0.27909 0.59504 0.66619
 H789 H 0.32807 0.54071 0.73587
 H790 H 0.35901 0.46934 0.69450
 H791 H 0.30067 0.51905 0.57591
 H792 H 0.27187 0.59205 0.61630
 C793 C 0.17519 0.51844 0.31869
 C794 C 0.15796 0.49644 0.32376
 C795 C 0.14216 0.48679 0.30204
 C796 C 0.14312 0.49950 0.27571
 C797 C 0.16163 0.52040 0.27062
 C798 C 0.17746 0.53027 0.29215
 C799 C 0.19016 0.53016 0.34181
 C800 C 0.20632 0.55303 0.33691
 C801 C 0.21894 0.56534 0.35917
 C802 C 0.21526 0.55513 0.38621
 C803 C 0.19980 0.53152 0.39066
 C804 C 0.18702 0.51907 0.36852
 C805 C 0.19460 0.55252 0.28793
 C806 C 0.20878 0.56373 0.30994
 C807 C 0.15604 0.48530 0.35063
 C808 C 0.17032 0.49643 0.37263
 H809 H 0.19656 0.56178 0.26754
 H810 H 0.22130 0.58129 0.30589
 H811 H 0.14289 0.46825 0.35478
 H812 H 0.16780 0.48762 0.39312
 H813 H 0.12853 0.47017 0.30598
 H814 H 0.16257 0.52996 0.25022
 H815 H 0.23108 0.58329 0.35555
 H816 H 0.19662 0.52370 0.41140
 C817 C 0.67181 0.01984 0.84166
 C818 C 0.68601 0.01631 0.81728
 C819 C 0.67166 0.00887 0.79359
 C820 C 0.64340 0.00538 0.79434
 C821 C 0.62951 0.00881 0.81889
 C822 C 0.64363 0.01599 0.84268
 C823 C 0.68656 0.02843 0.86642
 C824 C 0.67223 0.03242 0.89061
 C825 C 0.68609 0.04170 0.91375
 C826 C 0.71398 0.04743 0.91269
 C827 C 0.72817 0.04276 0.88840
 C828 C 0.71454 0.03327 0.86518
 C829 C 0.63007 0.01980 0.86735
 C830 C 0.64414 0.02783 0.89093
 C831 C 0.71413 0.02076 0.81703
 C832 C 0.72814 0.02915 0.84055
 H833 H 0.60834 0.01680 0.86838
 H834 H 0.63285 0.03084 0.90947
 H835 H 0.72534 0.01808 0.79840
 H836 H 0.74975 0.03275 0.83935
 H837 H 0.68230 0.00638 0.77460
 H838 H 0.60768 0.00616 0.81934
 H839 H 0.67491 0.04566 0.93218
 H840 H 0.74967 0.04698 0.88749
 C841 C 0.67173 0.96391 0.68951
 C842 C 0.65682 0.98920 0.68626
 C843 C 0.64421 1.00037 0.70904
 C844 C 0.64563 0.98593 0.73467
 C845 C 0.66198 0.96146 0.73792
 C846 C 0.67487 0.95017 0.71533
 C847 C 0.68343 0.95109 0.66528
 C848 C 0.69765 0.92540 0.66844
 C849 C 0.70752 0.91262 0.64517
 C850 C 0.70290 0.92513 0.61879
 C851 C 0.68915 0.95125 0.61611
 C852 C 0.67934 0.96431 0.63930
 C853 C 0.68993 0.92486 0.71780
 C854 C 0.70115 0.91270 0.69474
 C855 C 0.65389 1.00225 0.66007
 C856 C 0.66489 0.98997 0.63697
 H857 H 0.69258 0.91409 0.73762
 H858 H 0.71221 0.89292 0.69746
 H859 H 0.64246 1.02182 0.65730
 H860 H 0.66170 1.00046 0.61706
 H861 H 0.63263 1.01977 0.70639
 H862 H 0.66401 0.95068 0.75769
 H863 H 0.71855 0.89280 0.64756
 H864 H 0.68524 0.96098 0.59595
 C865 C 0.16552 0.46335 0.17134
 C866 C 0.17132 0.44998 0.19700
 C867 C 0.15811 0.45951 0.22018
 C868 C 0.13884 0.48177 0.21764
 C869 C 0.13426 0.49582 0.19208
 C870 C 0.14730 0.48646 0.16874
 C871 C 0.17801 0.45239 0.14661
 C872 C 0.17149 0.46520 0.12084
 C873 C 0.18227 0.45378 0.09722
 C874 C 0.19928 0.42960 0.09928
 C875 C 0.20624 0.41756 0.12541
 C876 C 0.19553 0.42875 0.14912
 C877 C 0.14184 0.49919 0.14271
 C878 C 0.15370 0.48871 0.11916
 C879 C 0.18951 0.42679 0.19876
 C880 C 0.20143 0.41636 0.17522
 H881 H 0.12787 0.51708 0.14046
 H882 H 0.14857 0.49884 0.09942
 H883 H 0.19421 0.41633 0.21844
 H884 H 0.21500 0.39817 0.17742
 H885 H 0.16188 0.44892 0.23998
 H886 H 0.12010 0.51349 0.19004
 H887 H 0.17658 0.46306 0.07723
 H888 H 0.21969 0.39923 0.12725
 C889 C -0.16566 0.34327 0.47869
 C890 C -0.18339 0.32924 0.49607
 C891 C -0.20739 0.34308 0.50438
 C892 C -0.21393 0.37025 0.49446
 C893 C -0.19545 0.38422 0.47790
 C894 C -0.17137 0.37084 0.46983
 C895 C -0.14086 0.32873 0.46919
 C896 C -0.12335 0.34282 0.45167
 C897 C -0.10033 0.32872 0.44192
 C898 C -0.09487 0.30060 0.44922
 C899 C -0.11245 0.28680 0.46711
 C900 C -0.13547 0.30086 0.47727
 C901 C -0.15317 0.38436 0.45261
 C902 C -0.12953 0.37059 0.44371
 C903 C -0.17694 0.30156 0.50432
 C904 C -0.15348 0.28757 0.49497
 H905 H -0.15740 0.40568 0.44572
 H906 H -0.11615 0.38166 0.43021
 H907 H -0.19037 0.29047 0.51775
 H908 H -0.14952 0.26611 0.50147
 H909 H -0.22075 0.33275 0.51839
 H910 H -0.20008 0.40541 0.47077
 H911 H -0.08719 0.33936 0.42780
 H912 H -0.10829 0.26518 0.47292
 C913 C 0.31475 0.82787 0.97499
 C914 C 0.31921 0.84070 0.99991
 C915 C 0.29727 0.85435 1.01220
 C916 C 0.27100 0.85499 0.99992
 C917 C 0.26665 0.84135 0.97538
 C918 C 0.28857 0.82794 0.96264
 C919 C 0.33814 0.81504 0.96108
 C920 C 0.33393 0.80323 0.93560
 C921 C 0.35640 0.79203 0.92196
 C922 C 0.38298 0.79245 0.93368
 C923 C 0.38667 0.80401 0.95952
 C924 C 0.36438 0.81552 0.97319
 C925 C 0.28508 0.81541 0.93737
 C926 C 0.30738 0.80332 0.92405
 C927 C 0.34568 0.84042 1.01159
 C928 C 0.36787 0.82793 0.99851
 H929 H 0.26502 0.81533 0.92759
 H930 H 0.30384 0.79420 0.90442
 H931 H 0.34934 0.85021 1.03086
 H932 H 0.38800 0.82840 1.00810
 H933 H 0.30107 0.86523 1.03074
 H934 H 0.24651 0.84224 0.96565
 H935 H 0.35325 0.78367 0.90191
 H936 H 0.40688 0.80411 0.96899
 C937 C 1.16611 0.83429 0.04409
 C938 C 1.16987 0.86224 0.04911
 C939 C 1.19381 0.87434 0.04067
 C940 C 1.21371 0.85888 0.02696
 C941 C 1.21009 0.83075 0.02250
 C942 C 1.18613 0.81830 0.03104
 C943 C 1.14056 0.82166 0.05239
 C944 C 1.13668 0.79370 0.04745
 C945 C 1.11235 0.78178 0.05559
 C946 C 1.09200 0.79774 0.06839
 C947 C 1.09625 0.82581 0.07294
 C948 C 1.12048 0.83784 0.06508
 C949 C 1.18150 0.79037 0.02644
 C950 C 1.15723 0.77826 0.03457
 C951 C 1.14941 0.87770 0.06201
 C952 C 1.12511 0.86570 0.06986
 H953 H 1.19673 0.77777 0.01641
 H954 H 1.15450 0.75666 0.03064
 H955 H 1.15214 0.89931 0.06594
 H956 H 1.10980 0.87836 0.07970
 H957 H 1.19663 0.89608 0.04399
 H958 H 1.22546 0.81885 0.01196
 H959 H 1.10919 0.76019 0.05191
 H960 H 1.08096 0.83810 0.08324
 C961 C 0.67508 0.34431 0.52681
 C962 C 0.67641 0.37311 0.52816
 C963 C 0.70014 0.38585 0.52006
 C964 C 0.72265 0.37006 0.51116
 C965 C 0.72075 0.34134 0.50881
 C966 C 0.69701 0.32826 0.51702
 C967 C 0.65038 0.33072 0.53612
 C968 C 0.64916 0.30185 0.53532
 C969 C 0.62599 0.28897 0.54522
 C970 C 0.60422 0.30481 0.55585
 C971 C 0.60565 0.33381 0.55591
 C972 C 0.62868 0.34685 0.54618
 C973 C 0.69478 0.29946 0.51596
 C974 C 0.67131 0.28647 0.52504
 C975 C 0.65414 0.38859 0.53796
 C976 C 0.63067 0.37567 0.54684
 H977 H 0.71146 0.28680 0.50838
 H978 H 0.67059 0.26418 0.52421
 H979 H 0.65497 0.41086 0.53902
 H980 H 0.61405 0.38832 0.55453
 H981 H 0.70133 0.40810 0.52121
 H982 H 0.73732 0.32926 0.50047
 H983 H 0.62497 0.26666 0.54487
 H984 H 0.58926 0.34616 0.56444
 C985 C 0.33561 0.18307 0.52379
 C986 C 0.33812 0.16456 0.50250
 C987 C 0.31546 0.14985 0.49454
 C988 C 0.29048 0.15334 0.50784
 C989 C 0.28788 0.17296 0.52820
 C990 C 0.31054 0.18767 0.53655
 C991 C 0.36004 0.19669 0.53393
 C992 C 0.35789 0.21394 0.55629
 C993 C 0.38154 0.22515 0.56717
 C994 C 0.40722 0.21900 0.55600
 C995 C 0.40885 0.20255 0.53290
 C996 C 0.38534 0.19111 0.52193
 C997 C 0.30901 0.20589 0.55822
 C998 C 0.33230 0.21879 0.56794
 C999 C 0.36357 0.16017 0.49043
 C1000 C 0.38677 0.17327 0.49995
 H1001 H 0.28981 0.20969 0.56819
 H1002 H 0.33037 0.23218 0.58513
 H1003 H 0.36569 0.14600 0.47390
 H1004 H 0.40613 0.16885 0.49047
 H1005 H 0.31785 0.13475 0.47892
 H1006 H 0.26872 0.17560 0.53858
 H1007 H 0.38012 0.23809 0.58476
 H1008 H 0.42855 0.19752 0.52438
 C1009 C 0.81892 0.69032 0.01600
 C1010 C 0.82186 0.67405 -0.00702
 C1011 C 0.79936 0.65997 -0.01678
 C1012 C 0.77442 0.66146 -0.00316
 C1013 C 0.77134 0.67926 0.01872
 C1014 C 0.79365 0.69349 0.02865
 C1015 C 0.84308 0.70306 0.02795
 C1016 C 0.84036 0.71811 0.05181
 C1017 C 0.86371 0.72827 0.06437
 C1018 C 0.88969 0.72316 0.05348
 C1019 C 0.89192 0.70904 0.02887
 C1020 C 0.86865 0.69873 0.01613
 C1021 C 0.79154 0.70967 0.05184
 C1022 C 0.81451 0.72177 0.06324
 C1023 C 0.84755 0.67108 -0.01893
 C1024 C 0.87056 0.68320 -0.00754
 H1025 H 0.77212 0.71236 0.06172
 H1026 H 0.81215 0.73348 0.08156
 H1027 H 0.85006 0.65865 -0.03676
 H1028 H 0.89012 0.67980 -0.01695
 H1029 H 0.80179 0.64701 -0.03417
 H1030 H 0.75209 0.68107 0.02891
 H1031 H 0.86179 0.73949 0.08307
 H1032 H 0.91184 0.70484 0.02047
 C1033 C 0.66321 0.67670 0.95976
 C1034 C 0.66602 0.64831 0.96670
 C1035 C 0.69149 0.63706 0.97560
 C1036 C 0.71408 0.65386 0.97753
 C1037 C 0.71111 0.68234 0.97091
 C1038 C 0.68553 0.69392 0.96184
 C1039 C 0.63649 0.68844 0.94959
 C1040 C 0.63364 0.71672 0.94203
 C1041 C 0.60838 0.72748 0.93127
 C1042 C 0.58636 0.70997 0.92778
 C1043 C 0.58948 0.68188 0.93621
 C1044 C 0.61448 0.67097 0.94698
 C1045 C 0.68179 0.72221 0.95450
 C1046 C 0.65631 0.73340 0.94475
 C1047 C 0.64340 0.63163 0.96429
 C1048 C 0.61803 0.64278 0.95458
 H1049 H 0.69877 0.73576 0.95604
 H1050 H 0.65441 0.75525 0.93903
 H1051 H 0.64539 0.60971 0.96969
 H1052 H 0.60115 0.62915 0.95270
 H1053 H 0.69386 0.61510 0.98079
 H1054 H 0.72857 0.69526 0.97248
 H1055 H 0.60615 0.74909 0.92463
 H1056 H 0.57251 0.66840 0.93388
 C1057 C 0.17794 0.16901 0.47360
 C1058 C 0.18274 0.14027 0.47342
 C1059 C 0.20811 0.12891 0.48250
 C1060 C 0.22870 0.14590 0.49174
 C1061 C 0.22373 0.17471 0.49190
 C1062 C 0.19819 0.18642 0.48289
 C1063 C 0.15153 0.18111 0.46300
 C1064 C 0.14677 0.20993 0.46256
 C1065 C 0.12187 0.22134 0.45156
 C1066 C 0.10223 0.20405 0.44062
 C1067 C 0.10724 0.17522 0.44168
 C1068 C 0.13181 0.16364 0.45281
 C1069 C 0.19258 0.21514 0.48243
 C1070 C 0.16729 0.22668 0.47251
 C1071 C 0.16232 0.12344 0.46354
 C1072 C 0.13726 0.13494 0.45339
 H1073 H 0.20794 0.22883 0.48956
 H1074 H 0.16392 0.24894 0.47230
 H1075 H 0.16586 0.10121 0.46336
 H1076 H 0.12216 0.12128 0.44563
 H1077 H 0.21206 0.10688 0.48135
 H1078 H 0.23969 0.18799 0.49836
 H1079 H 0.11813 0.24357 0.45059
 H1080 H 0.09204 0.16185 0.43355
 C1081 C 0.57677 0.07684 0.72799
 C1082 C 0.59407 0.07843 0.75117
 C1083 C 0.60668 0.05410 0.76281
 C1084 C 0.60237 0.02846 0.75114
 C1085 C 0.58443 0.02714 0.72836
 C1086 C 0.57157 0.05129 0.71666
 C1087 C 0.56491 0.10252 0.71456
 C1088 C 0.54842 0.10097 0.69081
 C1089 C 0.53829 0.12547 0.67734
 C1090 C 0.54497 0.15145 0.68712
 C1091 C 0.56105 0.15259 0.71136
 C1092 C 0.57113 0.12817 0.72512
 C1093 C 0.55447 0.05054 0.69322
 C1094 C 0.54301 0.07496 0.68056
 C1095 C 0.59924 0.10443 0.76159
 C1096 C 0.58798 0.12888 0.74877
 H1097 H 0.55025 0.03094 0.68433
 H1098 H 0.53025 0.07350 0.66228
 H1099 H 0.61251 0.10592 0.77949
 H1100 H 0.59287 0.14852 0.75718
 H1101 H 0.62074 0.05542 0.78010
 H1102 H 0.58166 0.00755 0.71885
 H1103 H 0.52553 0.12431 0.65902
 H1104 H 0.56657 0.17242 0.71893
 C1105 C 1.06479 0.56913 0.22080
 C1106 C 1.08407 0.57088 0.24232
 C1107 C 1.09893 0.54695 0.25176
 C1108 C 1.09522 0.52167 0.23921
 C1109 C 1.07482 0.51989 0.21870
 C1110 C 1.05971 0.54369 0.20915
 C1111 C 1.05052 0.59459 0.20948
 C1112 C 1.03197 0.59299 0.18731
 C1113 C 1.01971 0.61744 0.17555
 C1114 C 1.02629 0.64341 0.18547
 C1115 C 1.04435 0.64449 0.20828
 C1116 C 1.05656 0.62015 0.22033
 C1117 C 1.04039 0.54281 0.18750
 C1118 C 1.02672 0.56705 0.17679
 C1119 C 1.08887 0.59671 0.25327
 C1120 C 1.07540 0.62095 0.24240
 H1121 H 1.03622 0.52331 0.17840
 H1122 H 1.01237 0.56553 0.15974
 H1123 H 1.10366 0.59830 0.26994
 H1124 H 1.08014 0.64054 0.25103
 H1125 H 1.11390 0.54840 0.26819
 H1126 H 1.07170 0.50029 0.20931
 H1127 H 1.00549 0.61630 0.15833
 H1128 H 1.04989 0.66428 0.21591
 C1129 C 0.92314 0.91324 0.24133
 C1130 C 0.93435 0.93944 0.23851
 C1131 C 0.92105 0.96225 0.25025
 C1132 C 0.89681 0.95874 0.26456
 C1133 C 0.88634 0.93220 0.26769
 C1134 C 0.89933 0.90943 0.25612
 C1135 C 0.93565 0.88964 0.22730
 C1136 C 0.92338 0.86392 0.22893
 C1137 C 0.93410 0.84210 0.21402
 C1138 C 0.95685 0.84580 0.19749
 C1139 C 0.96963 0.87136 0.19683
 C1140 C 0.95884 0.89356 0.21149
 C1141 C 0.88821 0.88317 0.25802
 C1142 C 0.90004 0.86078 0.24463
 C1143 C 0.95797 0.94240 0.22309
 C1144 C 0.97005 0.91985 0.20988
 H1145 H 0.86985 0.88004 0.26945
 H1146 H 0.89050 0.84099 0.24611
 H1147 H 0.96692 0.96244 0.22078
 H1148 H 0.98795 0.92317 0.19780
 H1149 H 0.92894 0.98266 0.24731
 H1150 H 0.86721 0.92937 0.27784
 H1151 H 0.92436 0.82237 0.21467
 H1152 H 0.98703 0.87430 0.18391
 C1153 C 0.42041 0.41842 0.72268
 C1154 C 0.43242 0.44423 0.72403
 C1155 C 0.41695 0.46696 0.73333
 C1156 C 0.38964 0.46381 0.74054
 C1157 C 0.37822 0.43770 0.73959
 C1158 C 0.39346 0.41494 0.73074
 C1159 C 0.43585 0.39485 0.71149
 C1160 C 0.42329 0.36944 0.70930
 C1161 C 0.43721 0.34768 0.69697
 C1162 C 0.46329 0.35123 0.68633
 C1163 C 0.47618 0.37644 0.68966
 C1164 C 0.46237 0.39849 0.70210
 C1165 C 0.38191 0.38899 0.72897
 C1166 C 0.39662 0.36657 0.71847
 C1167 C 0.45932 0.44687 0.71524
 C1168 C 0.47401 0.42441 0.70442
 H1169 H 0.36116 0.38612 0.73528
 H1170 H 0.38681 0.34701 0.71694
 H1171 H 0.46890 0.46660 0.71621
 H1172 H 0.49446 0.42752 0.69735
 H1173 H 0.42585 0.48700 0.73411
 H1174 H 0.35710 0.43526 0.74491
 H1175 H 0.42739 0.32819 0.69476
 H1176 H 0.49622 0.37928 0.68137
 C1177 C 0.40369 0.57419 0.77972
 C1178 C 0.38498 0.56002 0.79571
 C1179 C 0.37475 0.53549 0.78646
 C1180 C 0.38290 0.52492 0.76137
 C1181 C 0.40124 0.53960 0.74515
 C1182 C 0.41202 0.56420 0.75447
 C1183 C 0.41452 0.60010 0.78957
 C1184 C 0.43350 0.61431 0.77388
 C1185 C 0.44430 0.63860 0.78391
 C1186 C 0.43605 0.64850 0.80937
 C1187 C 0.41626 0.63437 0.82419
 C1188 C 0.40571 0.61008 0.81462
 C1189 C 0.43080 0.57916 0.73912
 C1190 C 0.44146 0.60369 0.74873
 C1191 C 0.37658 0.57075 0.82059
 C1192 C 0.38673 0.59543 0.82986
 H1193 H 0.43744 0.57176 0.71960
 H1194 H 0.45606 0.61442 0.73635
 H1195 H 0.36204 0.55998 0.83301
 H1196 H 0.37981 0.60299 0.84922
 H1197 H 0.35986 0.52521 0.79874
 H1198 H 0.40677 0.53213 0.72532
 H1199 H 0.45952 0.64931 0.77234
 H1200 H 0.40918 0.64218 0.84340
 C1201 C -0.08386 0.06773 0.30487
 C1202 C -0.10029 0.05252 0.32251
 C1203 C -0.11179 0.02849 0.31337
 C1204 C -0.10702 0.01939 0.28680
 C1205 C -0.09067 0.03495 0.26917
 C1206 C -0.07885 0.05916 0.27822
 C1207 C -0.07214 0.09339 0.31440
 C1208 C -0.05583 0.10888 0.29681
 C1209 C -0.04462 0.13325 0.30616
 C1210 C -0.04977 0.14203 0.33288
 C1211 C -0.06661 0.12634 0.34992
 C1212 C -0.07768 0.10202 0.34089
 C1213 C -0.06245 0.07523 0.26115
 C1214 C -0.05107 0.09959 0.27031
 C1215 C -0.10532 0.06182 0.34889
 C1216 C -0.09421 0.08617 0.35792
 H1217 H -0.05838 0.06893 0.24053
 H1218 H -0.03853 0.11131 0.25649
 H1219 H -0.11804 0.05022 0.36264
 H1220 H -0.09861 0.09266 0.37841
 H1221 H -0.12502 0.01751 0.32696
 H1222 H -0.08774 0.02868 0.24835
 H1223 H -0.03161 0.14506 0.29290
 H1224 H -0.07131 0.13318 0.37022
 C1225 C 0.06744 0.41681 0.27699
 C1226 C 0.06523 0.44185 0.29056
 C1227 C 0.07983 0.46446 0.28096
 C1228 C 0.09695 0.46183 0.25846
 C1229 C 0.09805 0.43701 0.24442
 C1230 C 0.08355 0.41430 0.25377
 C1231 C 0.05325 0.39255 0.28776
 C1232 C 0.05616 0.36731 0.27466
 C1233 C 0.04384 0.34391 0.28584
 C1234 C 0.02890 0.34559 0.31005
 C1235 C 0.02556 0.37131 0.32245
 C1236 C 0.03780 0.39482 0.31146
 C1237 C 0.08537 0.38891 0.24079
 C1238 C 0.07192 0.36580 0.25108
 C1239 C 0.04907 0.44349 0.31386
 C1240 C 0.03561 0.42036 0.32415
 H1241 H 0.09767 0.38676 0.22280
 H1242 H 0.07424 0.34648 0.24073
 H1243 H 0.04716 0.46268 0.32449
 H1244 H 0.02371 0.42239 0.34243
 H1245 H 0.07861 0.48377 0.29148
 H1246 H 0.11046 0.43503 0.22654
 H1247 H 0.04629 0.32431 0.27600
 H1248 H 0.01446 0.37276 0.34130
 C1249 C 0.57318 0.92045 0.78707
 C1250 C 0.55955 0.94344 0.77377
 C1251 C 0.57427 0.96700 0.76716
 C1252 C 0.60241 0.96731 0.77340
 C1253 C 0.61543 0.94446 0.78758
 C1254 C 0.60103 0.92087 0.79423
 C1255 C 0.55798 0.89552 0.79382
 C1256 C 0.57168 0.87265 0.80723
 C1257 C 0.55716 0.84911 0.81385
 C1258 C 0.52909 0.84825 0.80726
 C1259 C 0.51564 0.87138 0.79372
 C1260 C 0.53004 0.89511 0.78694
 C1261 C 0.61399 0.89763 0.80776
 C1262 C 0.59956 0.87389 0.81412
 C1263 C 0.53157 0.94229 0.76721
 C1264 C 0.51707 0.91853 0.77367
 H1265 H 0.63549 0.89775 0.81338
 H1266 H 0.61031 0.85638 0.82455
 H1267 H 0.52079 0.95988 0.75694
 H1268 H 0.49552 0.91852 0.76827
 H1269 H 0.56377 0.98478 0.75714
 H1270 H 0.63677 0.94504 0.79362
 H1271 H 0.56758 0.83174 0.82486
 H1272 H 0.49406 0.87090 0.78853
 C1273 C 0.72125 0.59237 0.07025
 C1274 C 0.73763 0.57738 0.05231
 C1275 C 0.74616 0.59056 0.02795
 C1276 C 0.73858 0.61851 0.02192
 C1277 C 0.72233 0.63312 0.04025
 C1278 C 0.71354 0.62022 0.06435
 C1279 C 0.71121 0.57847 0.09522
 C1280 C 0.69388 0.59329 0.11241
 C1281 C 0.68329 0.57972 0.13535
 C1282 C 0.69000 0.55163 0.14125
 C1283 C 0.70791 0.53708 0.12434
 C1284 C 0.71841 0.55042 0.10100
 C1285 C 0.69665 0.63449 0.08234
 C1286 C 0.68693 0.62123 0.10596
 C1287 C 0.74467 0.54944 0.05893
 C1288 C 0.73530 0.53622 0.08289
 H1289 H 0.69060 0.65600 0.07793
 H1290 H 0.67363 0.63285 0.11912
 H1291 H 0.75734 0.53762 0.04535
 H1292 H 0.74101 0.51460 0.08706
 H1293 H 0.75820 0.57899 0.01373
 H1294 H 0.71558 0.65433 0.03531
 H1295 H 0.66937 0.59077 0.14841
 H1296 H 0.71278 0.51531 0.12884
 C1297 C 0.24202 1.07467 0.57751
 C1298 C 0.25888 1.09712 0.58075
 C1299 C 0.26716 1.11201 0.55741
 C1300 C 0.25806 1.10505 0.53110
 C1301 C 0.24246 1.08155 0.52815
 C1302 C 0.23414 1.06641 0.55132
 C1303 C 0.23124 1.06049 0.60198
 C1304 C 0.21331 1.03892 0.59865
 C1305 C 0.20137 1.02701 0.62181
 C1306 C 0.20683 1.03688 0.64810
 C1307 C 0.22577 1.05773 0.65119
 C1308 C 0.23791 1.06975 0.62814
 C1309 C 0.21706 1.04399 0.54885
 C1310 C 0.20682 1.03045 0.57214
 C1311 C 0.26602 1.10507 0.60729
 C1312 C 0.25566 1.09164 0.63059
 H1313 H 0.21095 1.03732 0.52875
 H1314 H 0.19313 1.01371 0.56934
 H1315 H 0.27910 1.12231 0.61005
 H1316 H 0.26108 1.09890 0.65065
 H1317 H 0.27957 1.12967 0.56004
 H1318 H 0.23605 1.07552 0.50797
 H1319 H 0.18715 1.01066 0.61931
 H1320 H 0.22993 1.06561 0.67129
 C1321 C 0.21296 0.92863 0.93514
 C1322 C 0.19419 0.91423 0.95090
 C1323 C 0.20315 0.90032 0.97527
 C1324 C 0.23065 0.90062 0.98395
 C1325 C 0.24915 0.91578 0.96843
 C1326 C 0.24040 0.92978 0.94380
 C1327 C 0.20395 0.94160 0.90845
 C1328 C 0.22288 0.95510 0.89203
 C1329 C 0.21443 0.96605 0.86592
 C1330 C 0.18748 0.96291 0.85627
 C1331 C 0.16868 0.95005 0.87337
 C1332 C 0.17679 0.93926 0.89939
 C1333 C 0.25861 0.94404 0.92715
 C1334 C 0.25000 0.95652 0.90173
 C1335 C 0.16700 0.91308 0.94148
 C1336 C 0.15843 0.92542 0.91614
 H1337 H 0.27982 0.94515 0.93360
 H1338 H 0.26481 0.96691 0.88933
 H1339 H 0.15235 0.90208 0.95356
 H1340 H 0.13741 0.92362 0.90936
 H1341 H 0.18878 0.88839 0.98667
 H1342 H 0.27044 0.91570 0.97495
 H1343 H 0.22896 0.97590 0.85273
 H1344 H 0.14782 0.94795 0.86610
 C1345 C 0.72412 0.43135 0.41894
 C1346 C 0.72375 0.44737 0.44238
 C1347 C 0.73328 0.43531 0.46771
 C1348 C 0.74260 0.40746 0.46936
 C1349 C 0.74267 0.39177 0.44577
 C1350 C 0.73375 0.40364 0.42045
 C1351 C 0.71350 0.44350 0.39244
 C1352 C 0.71359 0.42722 0.36925
 C1353 C 0.70247 0.43837 0.34440
 C1354 C 0.69063 0.46537 0.34264
 C1355 C 0.69136 0.48177 0.36592
 C1356 C 0.70277 0.47085 0.39096
 C1357 C 0.73390 0.38817 0.39672
 C1358 C 0.72409 0.39981 0.37149
 C1359 C 0.71339 0.47488 0.43997
 C1360 C 0.70301 0.48638 0.41474
 H1361 H 0.74143 0.36680 0.39770
 H1362 H 0.72428 0.38710 0.35370
 H1363 H 0.71297 0.48750 0.45782
 H1364 H 0.69484 0.50753 0.41390
 H1365 H 0.73285 0.44722 0.48605
 H1366 H 0.74959 0.37019 0.44716
 H1367 H 0.70250 0.42578 0.32650
 H1368 H 0.68214 0.50250 0.36484
 C1369 C 0.78020 0.43988 0.57644
 C1370 C 0.76304 0.41763 0.58036
 C1371 C 0.75405 0.40351 0.55758
 C1372 C 0.76198 0.41152 0.53105
 C1373 C 0.77884 0.43408 0.52729
 C1374 C 0.78808 0.44839 0.55003
 C1375 C 0.79110 0.45366 0.60056
 C1376 C 0.80919 0.47515 0.59681
 C1377 C 0.82067 0.48715 0.61992
 C1378 C 0.81443 0.47751 0.64662
 C1379 C 0.79569 0.45639 0.64988
 C1380 C 0.78407 0.44433 0.62697
 C1381 C 0.80569 0.47044 0.54706
 C1382 C 0.81604 0.48362 0.57004
 C1383 C 0.75595 0.40931 0.60705
 C1384 C 0.76628 0.42246 0.62997
 H1385 H 0.81188 0.47728 0.52683
 H1386 H 0.82991 0.50023 0.56686
 H1387 H 0.74267 0.39219 0.61028
 H1388 H 0.76067 0.41511 0.65023
 H1389 H 0.74181 0.38559 0.56075
 H1390 H 0.78536 0.43991 0.50689
 H1391 H 0.83483 0.50358 0.61715
 H1392 H 0.79108 0.44845 0.67024
 C1393 C 0.27745 -0.07694 0.08805
 C1394 C 0.27520 -0.10577 0.08951
 C1395 C 0.26428 -0.11889 0.06696
 C1396 C 0.25634 -0.10352 0.04290
 C1397 C 0.25824 -0.07463 0.04174
 C1398 C 0.26885 -0.06117 0.06439
 C1399 C 0.28944 -0.06310 0.11158
 C1400 C 0.29185 -0.03430 0.11016
 C1401 C 0.30388 -0.02135 0.13238
 C1402 C 0.31392 -0.03707 0.15569
 C1403 C 0.31105 -0.06595 0.15674
 C1404 C 0.29873 -0.07903 0.13484
 C1405 C 0.27133 -0.03234 0.06384
 C1406 C 0.28256 -0.01913 0.08637
 C1407 C 0.28428 -0.12095 0.11331
 C1408 C 0.29597 -0.10781 0.13557
 H1409 H 0.26470 -0.01991 0.04579
 H1410 H 0.28428 0.00312 0.08503
 H1411 H 0.28263 -0.14321 0.11462
 H1412 H 0.30302 -0.12030 0.15344
 H1413 H 0.26249 -0.14116 0.06785
 H1414 H 0.25171 -0.06275 0.02333
 H1415 H 0.30557 0.00091 0.13144
 H1416 H 0.31913 -0.07842 0.17422
 C1417 C 0.28922 0.08664 0.42160
 C1418 C 0.27755 0.11362 0.42023
 C1419 C 0.26900 0.12556 0.44433
 C1420 C 0.27197 0.11074 0.46959
 C1421 C 0.28338 0.08364 0.47079
 C1422 C 0.29212 0.07143 0.44670
 C1423 C 0.29944 0.07451 0.39641
 C1424 C 0.31193 0.04788 0.39780
 C1425 C 0.32279 0.03700 0.37395
 C1426 C 0.32149 0.05282 0.34907
 C1427 C 0.30824 0.07916 0.34796
 C1428 C 0.29730 0.09017 0.37157
 C1429 C 0.30428 0.04464 0.44720
 C1430 C 0.31401 0.03305 0.42316
 C1431 C 0.27522 0.12840 0.39491
 C1432 C 0.28492 0.11685 0.37095
 H1433 H 0.30661 0.03265 0.46639
 H1434 H 0.32358 0.01247 0.42451
 H1435 H 0.26616 0.14920 0.39366
 H1436 H 0.28311 0.12906 0.35187
 H1437 H 0.26055 0.14661 0.44352
 H1438 H 0.28617 0.07245 0.49037
 H1439 H 0.33321 0.01681 0.37496
 H1440 H 0.30692 0.09127 0.32878
 C1441 C 0.77845 0.58303 0.91815
 C1442 C 0.75419 0.59922 0.91440
 C1443 C 0.74430 0.61423 0.93626
 C1444 C 0.75842 0.61315 0.96175
 C1445 C 0.78229 0.59620 0.96546
 C1446 C 0.79254 0.58122 0.94360
 C1447 C 0.78992 0.56873 0.89462
 C1448 C 0.81481 0.55352 0.89798
 C1449 C 0.82640 0.54128 0.87514
 C1450 C 0.81336 0.54443 0.84905
 C1451 C 0.78800 0.55910 0.84631
 C1452 C 0.77629 0.57145 0.86895
 C1453 C 0.81707 0.56524 0.94634
 C1454 C 0.82802 0.55163 0.92392
 C1455 C 0.74079 0.60087 0.88859
 C1456 C 0.75162 0.58716 0.86626
 H1457 H 0.82816 0.56364 0.96585
 H1458 H 0.84722 0.53991 0.92681
 H1459 H 0.72199 0.61324 0.88550
 H1460 H 0.74088 0.58934 0.84658
 H1461 H 0.72619 0.62751 0.93289
 H1462 H 0.79352 0.59575 0.98488
 H1463 H 0.84607 0.53033 0.87742
 H1464 H 0.77763 0.56133 0.82643
 C1465 C 0.08721 0.71859 0.57259
 C1466 C 0.09086 0.72323 0.60063
 C1467 C 0.06855 0.73251 0.61551
 C1468 C 0.04284 0.73733 0.60257
 C1469 C 0.03936 0.73288 0.57444
 C1470 C 0.06159 0.72325 0.55931
 C1471 C 0.11064 0.70845 0.55693
 C1472 C 0.10698 0.70317 0.52902
 C1473 C 0.12923 0.69271 0.51446
 C1474 C 0.15494 0.68777 0.52767
 C1475 C 0.15825 0.69366 0.55555
 C1476 C 0.13618 0.70384 0.57031
 C1477 C 0.05880 0.71808 0.53126
 C1478 C 0.08108 0.70813 0.51639
 C1479 C 0.11673 0.71850 0.61326
 C1480 C 0.13904 0.70900 0.59833
 H1481 H 0.03919 0.72158 0.52075
 H1482 H 0.07799 0.70419 0.49486
 H1483 H 0.11974 0.72209 0.63488
 H1484 H 0.15864 0.70547 0.60886
 H1485 H 0.07117 0.73612 0.63719
 H1486 H 0.01957 0.73679 0.56444
 H1487 H 0.12657 0.68828 0.49298
 H1488 H 0.17781 0.68940 0.56600
 C1489 C 0.58505 0.21901 1.07137
 C1490 C 0.58364 0.22316 1.09959
 C1491 C 0.55982 0.23506 1.10993
 C1492 C 0.53722 0.24220 1.09251
 C1493 C 0.53886 0.23817 1.06420
 C1494 C 0.56288 0.22653 1.05347
 C1495 C 0.61032 0.20679 1.06038
 C1496 C 0.61200 0.20289 1.03212
 C1497 C 0.63610 0.19103 1.02185
 C1498 C 0.65825 0.18279 1.03975
 C1499 C 0.65604 0.18699 1.06805
 C1500 C 0.63228 0.19912 1.07841
 C1501 C 0.56533 0.22237 1.02528
 C1502 C 0.58948 0.21080 1.01478
 C1503 C 0.60614 0.21550 1.11695
 C1504 C 0.63001 0.20351 1.10655
 H1505 H 0.54846 0.22812 1.01120
 H1506 H 0.59049 0.20792 0.99292
 H1507 H 0.60523 0.21865 1.13877
 H1508 H 0.64684 0.19770 1.12065
 H1509 H 0.55924 0.23941 1.13148
 H1510 H 0.52179 0.24431 1.05056
 H1511 H 0.63758 0.18823 1.00002
 H1512 H 0.67254 0.18022 1.08219
 C1513 C 0.92688 0.20811 0.92546
 C1514 C 0.92250 0.23229 0.90886
 C1515 C 0.94427 0.24279 0.89417
 C1516 C 0.96996 0.22880 0.89543
 C1517 C 0.97434 0.20527 0.91300
 C1518 C 0.95277 0.19466 0.92793
 C1519 C 0.90377 0.19624 0.93995
 C1520 C 0.90804 0.17175 0.95608
 C1521 C 0.88578 0.15993 0.96890
 C1522 C 0.85929 0.17218 0.96533
 C1523 C 0.85554 0.19708 0.94948
 C1524 C 0.87771 0.20919 0.93676
 C1525 C 0.95637 0.17049 0.94471
 C1526 C 0.93438 0.15925 0.95858
 C1527 C 0.89627 0.24505 0.90673
 C1528 C 0.87423 0.23365 0.92038
 H1529 H 0.97626 0.15997 0.94683
 H1530 H 0.93795 0.14038 0.97103
 H1531 H 0.89264 0.26375 0.89402
 H1532 H 0.85424 0.24390 0.91783
 H1533 H 0.94092 0.26145 0.88148
 H1534 H 0.99428 0.19475 0.91429
 H1535 H 0.88903 0.14105 0.98141
 H1536 H 0.83527 0.20652 0.94623
 C1537 C 0.42668 0.71884 0.42174
 C1538 C 0.45169 0.70377 0.42502
 C1539 C 0.47474 0.71370 0.41201
 C1540 C 0.47271 0.73816 0.39548
 C1541 C 0.44778 0.75354 0.39322
 C1542 C 0.42461 0.74388 0.40618
 C1543 C 0.40197 0.70760 0.43382
 C1544 C 0.37678 0.72215 0.42963
 C1545 C 0.35311 0.71067 0.43990
 C1546 C 0.35445 0.68469 0.45404
 C1547 C 0.38002 0.67072 0.45862
 C1548 C 0.40383 0.68203 0.44844
 C1549 C 0.39919 0.75822 0.40308
 C1550 C 0.37568 0.74755 0.41462
 C1551 C 0.45286 0.67858 0.44036
 C1552 C 0.42934 0.66789 0.45187
 H1553 H 0.39735 0.77760 0.39119
 H1554 H 0.35639 0.75903 0.41134
 H1555 H 0.47203 0.66677 0.44306
 H1556 H 0.43105 0.64816 0.46316
 H1557 H 0.49389 0.70171 0.41355
 H1558 H 0.44600 0.77243 0.38058
 H1559 H 0.33360 0.72175 0.43658
 H1560 H 0.38126 0.65057 0.46915
 C1561 C 0.57960 0.76939 0.42474
 C1562 C 0.55848 0.75624 0.43837
 C1563 C 0.53525 0.74900 0.42322
 C1564 C 0.53331 0.75480 0.39474
 C1565 C 0.55473 0.76791 0.38156
 C1566 C 0.57789 0.77522 0.39636
 C1567 C 0.60343 0.77831 0.44059
 C1568 C 0.62388 0.79252 0.42695
 C1569 C 0.64575 0.80224 0.44220
 C1570 C 0.64721 0.79792 0.47080
 C1571 C 0.62700 0.78316 0.48428
 C1572 C 0.60483 0.77340 0.46917
 C1573 C 0.59901 0.78898 0.38339
 C1574 C 0.62165 0.79748 0.39844
 C1575 C 0.56082 0.75124 0.46692
 C1576 C 0.58361 0.75963 0.48205
 H1577 H 0.59785 0.79354 0.36147
 H1578 H 0.63733 0.80839 0.38774
 H1579 H 0.54474 0.74106 0.47772
 H1580 H 0.58442 0.75569 0.50407
 H1581 H 0.51862 0.73955 0.43371
 H1582 H 0.55286 0.77384 0.35999
 H1583 H 0.66130 0.81385 0.43200
 H1584 H 0.62810 0.78019 0.50641
 C1585 C 0.07173 0.26507 -0.07241
 C1586 C 0.04555 0.27657 -0.06797
 C1587 C 0.02326 0.26749 -0.08318
 C1588 C 0.02718 0.24742 -0.10290
 C1589 C 0.05319 0.23477 -0.10580
 C1590 C 0.07570 0.24394 -0.09099
 C1591 C 0.09558 0.27629 -0.05838
 C1592 C 0.12190 0.26593 -0.06406
 C1593 C 0.14463 0.27827 -0.05246
 C1594 C 0.14113 0.30088 -0.03535
 C1595 C 0.11449 0.31000 -0.02878
 C1596 C 0.09167 0.29809 -0.04057
 C1597 C 0.10225 0.23327 -0.09527
 C1598 C 0.12497 0.24417 -0.08212
 C1599 C 0.04238 0.29776 -0.04931
 C1600 C 0.06506 0.30827 -0.03575
 H1601 H 0.10555 0.21691 -0.10949
 H1602 H 0.14515 0.23588 -0.08657
 H1603 H 0.02228 0.30671 -0.04561
 H1604 H 0.06180 0.32502 -0.02195
 H1605 H 0.00312 0.27698 -0.08073
 H1606 H 0.05629 0.21863 -0.12020
 H1607 H 0.16495 0.27119 -0.05789
 H1608 H 0.11151 0.32696 -0.01516
 C1609 C 0.43324 0.29396 0.05403
 C1610 C 0.44263 0.26654 0.05067
 C1611 C 0.46702 0.25685 0.06415
 C1612 C 0.48095 0.27404 0.08192
 C1613 C 0.47222 0.30193 0.08351
 C1614 C 0.44831 0.31197 0.06975
 C1615 C 0.40619 0.30341 0.04265
 C1616 C 0.39631 0.33037 0.04740
 C1617 C 0.36977 0.33856 0.03866
 C1618 C 0.35280 0.31990 0.02579
 C1619 C 0.36333 0.29328 0.02008
 C1620 C 0.39006 0.28484 0.02871
 C1621 C 0.43825 0.33917 0.07297
 C1622 C 0.41270 0.34826 0.06188
 C1623 C 0.42647 0.24892 0.03553
 C1624 C 0.40061 0.25790 0.02477
 H1625 H 0.44982 0.35328 0.08491
 H1626 H 0.40532 0.36916 0.06549
 H1627 H 0.43346 0.22773 0.03275
 H1628 H 0.38849 0.24338 0.01394
 H1629 H 0.47364 0.23531 0.06301
 H1630 H 0.48272 0.31546 0.09695
 H1631 H 0.36200 0.35927 0.04258
 H1632 H 0.35037 0.27883 0.01016
 C1633 C 0.93257 0.78033 0.58032
 C1634 C 0.94116 0.75237 0.57927
 C1635 C 0.96682 0.74372 0.59070
 C1636 C 0.98350 0.76286 0.60320
 C1637 C 0.97491 0.79088 0.60326
 C1638 C 0.94944 0.79973 0.59199
 C1639 C 0.90497 0.78930 0.57011
 C1640 C 0.89612 0.81704 0.57234
 C1641 C 0.86947 0.82522 0.56398
 C1642 C 0.85159 0.80596 0.55351
 C1643 C 0.86094 0.77837 0.55058
 C1644 C 0.88765 0.76984 0.55917
 C1645 C 0.94010 0.82744 0.59314
 C1646 C 0.91386 0.83595 0.58348
 C1647 C 0.92348 0.73358 0.56770
 C1648 C 0.89722 0.74217 0.55777
 H1649 H 0.95299 0.84257 0.60206
 H1650 H 0.90725 0.85743 0.58517
 H1651 H 0.92984 0.71196 0.56670
 H1652 H 0.88413 0.72693 0.54935
 H1653 H 0.97332 0.72204 0.59096
 H1654 H 0.98737 0.80578 0.61302
 H1655 H 0.86246 0.84658 0.56586
 H1656 H 0.84719 0.76349 0.54254
   
