data_POSCAR
  _audit_creation_date              2014-09-24
  _audit_creation_method            'ToBaCCo'
  _symmetry_space_group_name_H-M    'P1'
  _symmetry_Int_Tables_number       1
  _symmetry_cell_setting            triclinic
  loop_
  _symmetry_equiv_pos_as_xyz
 x,y,z
_cell_length_a 50.4539
_cell_length_b 50.4466
_cell_length_c 50.4107
_cell_angle_alpha 90.105700
_cell_angle_beta 90.070300
_cell_angle_gamma 89.934200
loop_
  _atom_site_label
  _atom_site_type_symbol
  _atom_site_fract_x
  _atom_site_fract_y
  _atom_site_fract_z
C1 C 0.33255 1.36895 0.33297
 C2 C 0.34282 1.37877 0.30909
 C3 C 0.36432 1.36611 0.29652
 C4 C 0.37627 1.34411 0.30887
 C5 C 0.36564 1.33354 0.33222
 C6 C 0.34361 1.34589 0.34427
 C7 C 0.31110 1.38152 0.34548
 C8 C 0.30015 1.37108 0.36895
 C9 C 0.31059 1.34734 0.37932
 C10 C 0.33241 1.33496 0.36741
 C11 C 0.34302 1.31163 0.37812
 C12 C 0.36464 1.29910 0.36591
 C13 C 0.37619 1.31032 0.34329
 H14 H 0.33422 1.39643 0.30032
 H15 H 0.39293 1.33428 0.29946
 H16 H 0.30236 1.39899 0.33649
 H17 H 0.30222 1.33891 0.39722
 H18 H 0.33434 1.30293 0.39573
 H19 H 0.39289 1.30051 0.33395
 C20 C 0.33577 0.87163 0.83755
 C21 C 0.34605 0.88182 0.81382
 C22 C 0.36744 0.86924 0.80119
 C23 C 0.37920 0.84688 0.81278
 C24 C 0.36914 0.83642 0.83645
 C25 C 0.34714 0.84866 0.84875
 C26 C 0.31402 0.88374 0.84999
 C27 C 0.30312 0.87302 0.87336
 C28 C 0.31418 0.84961 0.88388
 C29 C 0.33632 0.83770 0.87206
 C30 C 0.34780 0.81494 0.88316
 C31 C 0.37003 0.80312 0.87133
 C32 C 0.38046 0.81373 0.84784
 H33 H 0.33723 0.89926 0.80487
 H34 H 0.39583 0.83735 0.80301
 H35 H 0.30495 0.90101 0.84094
 H36 H 0.30600 0.84109 0.90183
 H37 H 0.33963 0.80646 0.90113
 H38 H 0.39730 0.80420 0.83848
 C39 C 0.83707 1.37095 0.83503
 C40 C 0.84978 1.38303 0.81346
 C41 C 0.87324 1.37220 0.80276
 C42 C 0.88356 1.34870 0.81381
 C43 C 0.87149 1.33683 0.83581
 C44 C 0.84811 1.34790 0.84643
 C45 C 0.81327 1.38126 0.84514
 C46 C 0.80040 1.36869 0.86635
 C47 C 0.81188 1.34629 0.87816
 C48 C 0.83561 1.33574 0.86829
 C49 C 0.84690 1.31309 0.87976
 C50 C 0.87047 1.30238 0.86958
 C51 C 0.88245 1.31404 0.84737
 H52 H 0.84091 1.40039 0.80438
 H53 H 0.90157 1.34010 0.80580
 H54 H 0.80443 1.39872 0.83625
 H55 H 0.80205 1.33690 0.89479
 H56 H 0.83747 1.30377 0.89666
 H57 H 0.90037 1.30536 0.83924
 C58 C 0.82907 0.86470 0.32940
 C59 C 0.83915 0.87415 0.30531
 C60 C 0.86118 0.86191 0.29326
 C61 C 0.87353 0.84043 0.30617
 C62 C 0.86315 0.83025 0.32981
 C63 C 0.84090 0.84247 0.34157
 C64 C 0.80721 0.87698 0.34144
 C65 C 0.79710 0.86728 0.36546
 C66 C 0.80849 0.84479 0.37719
 C67 C 0.83034 0.83230 0.36540
 C68 C 0.84155 0.80958 0.37681
 C69 C 0.86313 0.79692 0.36464
 C70 C 0.87424 0.80761 0.34154
 H71 H 0.83015 0.89139 0.29612
 H72 H 0.89051 0.83083 0.29710
 H73 H 0.79796 0.89403 0.33219
 H74 H 0.80033 0.83712 0.39552
 H75 H 0.83326 0.80136 0.39484
 H76 H 0.89101 0.79779 0.33233
 C77 C 0.66085 0.62588 0.33850
 C78 C 0.64834 0.61411 0.31657
 C79 C 0.62628 0.62626 0.30440
 C80 C 0.61731 0.65085 0.31429
 C81 C 0.62941 0.66268 0.33637
 C82 C 0.65124 0.65017 0.34857
 C83 C 0.68313 0.61401 0.35021
 C84 C 0.69558 0.62586 0.37218
 C85 C 0.68577 0.64990 0.38229
 C86 C 0.66372 0.66217 0.37061
 C87 C 0.65419 0.68643 0.38035
 C88 C 0.63260 0.69901 0.36807
 C89 C 0.62014 0.68697 0.34628
 H90 H 0.65637 0.59590 0.30839
 H91 H 0.60040 0.66053 0.30517
 H92 H 0.69103 0.59570 0.34215
 H93 H 0.69554 0.65913 0.39909
 H94 H 0.66365 0.69574 0.39729
 H95 H 0.60344 0.69675 0.33690
 C96 C 0.66057 0.12729 0.83760
 C97 C 0.64849 0.11614 0.81513
 C98 C 0.62503 0.12703 0.80484
 C99 C 0.61368 0.14934 0.81702
 C100 C 0.62542 0.16060 0.83962
 C101 C 0.64894 0.14948 0.85002
 C102 C 0.68434 0.11686 0.84751
 C103 C 0.69718 0.12846 0.86955
 C104 C 0.68473 0.14999 0.88246
 C105 C 0.66102 0.16078 0.87263
 C106 C 0.64955 0.18316 0.88459
 C107 C 0.62621 0.19432 0.87425
 C108 C 0.61430 0.18303 0.85174
 H109 H 0.65748 0.09923 0.80532
 H110 H 0.59572 0.15789 0.80883
 H111 H 0.69259 0.09928 0.83826
 H112 H 0.69423 0.15938 0.89933
 H113 H 0.65884 0.19213 0.90181
 H114 H 0.59653 0.19196 0.84354
 C115 C 1.16503 0.62969 0.83606
 C116 C 1.15531 0.62053 0.81163
 C117 C 1.13355 0.63297 0.79954
 C118 C 1.12120 0.65451 0.81215
 C119 C 1.13071 0.66392 0.83654
 C120 C 1.15265 0.65140 0.84865
 C121 C 1.18701 0.61755 0.84802
 C122 C 1.19653 0.62627 0.87287
 C123 C 1.18417 0.64821 0.88509
 C124 C 1.16238 0.66079 0.87318
 C125 C 1.15039 0.68286 0.88519
 C126 C 1.12863 0.69539 0.87315
 C127 C 1.11886 0.68585 0.84887
 H128 H 1.16475 0.60386 0.80182
 H129 H 1.10428 0.66395 0.80280
 H130 H 1.19626 0.60074 0.83829
 H131 H 1.19205 0.65604 0.90352
 H132 H 1.15796 0.69042 0.90387
 H133 H 1.10228 0.69581 0.83947
 C134 C 1.15933 0.12464 0.33958
 C135 C 1.14753 0.11373 0.31683
 C136 C 1.12508 0.12565 0.30517
 C137 C 1.11530 0.14947 0.31611
 C138 C 1.12656 0.16029 0.33914
 C139 C 1.14854 0.14774 0.35107
 C140 C 1.18175 0.11278 0.35103
 C141 C 1.19297 0.12297 0.37457
 C142 C 1.18187 0.14598 0.38597
 C143 C 1.15988 0.15845 0.37435
 C144 C 1.14914 0.18158 0.38552
 C145 C 1.12713 0.19397 0.37382
 C146 C 1.11608 0.18341 0.35053
 H147 H 1.15614 0.09617 0.30784
 H148 H 1.09817 0.15903 0.30730
 H149 H 1.19001 0.09505 0.34206
 H150 H 1.19093 0.15471 0.40343
 H151 H 1.15774 0.18994 0.40339
 H152 H 1.09927 0.19324 0.34140
 C153 C 0.67084 1.36322 0.67011
 C154 C 0.66044 1.37372 0.69370
 C155 C 0.63680 1.36369 0.70428
 C156 C 0.62324 1.34332 0.69105
 C157 C 0.63327 1.33277 0.66737
 C158 C 0.65710 1.34282 0.65675
 C159 C 0.69489 1.37256 0.65986
 C160 C 0.70557 1.36181 0.63635
 C161 C 0.69112 1.34220 0.62261
 C162 C 0.66731 1.33229 0.63291
 C163 C 0.65387 1.31155 0.62011
 C164 C 0.63033 1.30133 0.63081
 C165 C 0.62009 1.31204 0.65437
 H166 H 0.67086 1.38939 0.70411
 H167 H 0.60497 1.33568 0.69936
 H168 H 0.70518 1.38850 0.67000
 H169 H 0.69905 1.33375 0.60447
 H170 H 0.66193 1.30292 0.60212
 H171 H 0.60199 1.30398 0.66266
 C172 C 0.66398 0.87061 1.16439
 C173 C 0.65185 0.88295 1.18617
 C174 C 0.62706 0.87421 1.19567
 C175 C 0.61502 0.85215 1.18340
 C176 C 0.62707 0.83941 1.16179
 C177 C 0.65159 0.84872 1.15214
 C178 C 0.68839 0.87973 1.15473
 C179 C 0.70066 0.86703 1.13320
 C180 C 0.68829 0.84527 1.12103
 C181 C 0.66388 0.83594 1.13043
 C182 C 0.65168 0.81389 1.11868
 C183 C 0.62737 0.80449 1.12833
 C184 C 0.61520 0.81723 1.14989
 H185 H 0.66144 0.89988 1.19534
 H186 H 0.59664 0.84429 1.19126
 H187 H 0.69803 0.89656 1.16403
 H188 H 0.69780 0.83562 1.10432
 H189 H 0.66118 0.80376 1.10224
 H190 H 0.59650 0.80977 1.15737
 C191 C 1.16947 1.36574 1.16706
 C192 C 1.15915 1.37556 1.19095
 C193 C 1.13803 1.36261 1.20348
 C194 C 1.12702 1.33980 1.19202
 C195 C 1.13720 1.32969 1.16820
 C196 C 1.15838 1.34281 1.15551
 C197 C 1.19073 1.37846 1.15463
 C198 C 1.20076 1.36915 1.13025
 C199 C 1.18961 1.34612 1.11891
 C200 C 1.16861 1.33287 1.13141
 C201 C 1.15792 1.30958 1.12047
 C202 C 1.13732 1.29619 1.13347
 C203 C 1.12676 1.30651 1.15704
 H204 H 1.16746 1.39328 1.19987
 H205 H 1.11072 1.32985 1.20184
 H206 H 1.19904 1.39616 1.16362
 H207 H 1.19791 1.33796 1.10081
 H208 H 1.16585 1.30158 1.10215
 H209 H 1.11064 1.29621 1.16680
 C210 C 1.15993 0.87437 0.65804
 C211 C 1.14831 0.88599 0.68054
 C212 C 1.12583 0.87457 0.69229
 C213 C 1.11496 0.85133 0.68149
 C214 C 1.12631 0.83950 0.65904
 C215 C 1.14904 0.85090 0.64739
 C216 C 1.18240 0.88568 0.64622
 C217 C 1.19438 0.87378 0.62390
 C218 C 1.18380 0.84985 0.61402
 C219 C 1.16102 0.83865 0.62526
 C220 C 1.14996 0.81543 0.61466
 C221 C 1.12694 0.80447 0.62577
 C222 C 1.11543 0.81635 0.64815
 H223 H 1.15673 0.90387 0.68902
 H224 H 1.09781 0.84238 0.69081
 H225 H 1.19104 0.90338 0.65486
 H226 H 1.19278 0.84040 0.59689
 H227 H 1.15908 0.80588 0.59767
 H228 H 1.09787 0.80761 0.65690
 C229 C 0.33408 0.63053 0.66471
 C230 C 0.34432 0.62004 0.68834
 C231 C 0.36537 0.63269 0.70144
 C232 C 0.37669 0.65559 0.69055
 C233 C 0.36662 0.66638 0.66699
 C234 C 0.34521 0.65384 0.65400
 C235 C 0.31254 0.61844 0.65191
 C236 C 0.30211 0.62929 0.62847
 C237 C 0.31317 0.65250 0.61792
 C238 C 0.33463 0.66486 0.63053
 C239 C 0.34534 0.68838 0.62039
 C240 C 0.36632 0.70107 0.63352
 C241 C 0.37717 0.68985 0.65654
 H242 H 0.33575 0.60227 0.69682
 H243 H 0.39294 0.66527 0.70079
 H244 H 0.30358 0.60083 0.66030
 H245 H 0.30484 0.66100 0.60001
 H246 H 0.33714 0.69712 0.60253
 H247 H 0.39339 0.69978 0.66658
 C248 C 0.33267 0.13248 1.16748
 C249 C 0.34502 0.11955 1.18873
 C250 C 0.36950 0.12854 1.19878
 C251 C 0.38102 0.15143 1.18769
 C252 C 0.36860 0.16489 1.16674
 C253 C 0.34442 0.15528 1.15645
 C254 C 0.30865 0.12304 1.15718
 C255 C 0.29614 0.13619 1.13611
 C256 C 0.30787 0.15885 1.12509
 C257 C 0.33182 0.16864 1.13530
 C258 C 0.34321 0.19173 1.12497
 C259 C 0.36680 0.20182 1.13576
 C260 C 0.37967 0.18812 1.15627
 H261 H 0.33588 0.10198 1.19703
 H262 H 0.39918 0.15936 1.19605
 H263 H 0.29953 0.10551 1.16559
 H264 H 0.29821 0.16887 1.10870
 H265 H 0.33355 0.20222 1.10887
 H266 H 0.39801 0.19589 1.16438
 C267 C 0.83979 0.62712 1.16072
 C268 C 0.85154 0.61524 1.18292
 C269 C 0.87516 0.62538 1.19360
 C270 C 0.88703 0.64771 1.18202
 C271 C 0.87567 0.65967 1.15962
 C272 C 0.85194 0.64936 1.14891
 C273 C 0.81577 0.61754 1.15050
 C274 C 0.80366 0.63008 1.12883
 C275 C 0.81608 0.65177 1.11669
 C276 C 0.84008 0.66160 1.12669
 C277 C 0.85211 0.68382 1.11523
 C278 C 0.87574 0.69409 1.12577
 C279 C 0.88733 0.68209 1.14807
 H280 H 0.84221 0.59824 1.19214
 H281 H 0.90495 0.65586 1.19067
 H282 H 0.80612 0.60073 1.15974
 H283 H 0.80671 0.66124 1.09981
 H284 H 0.84301 0.69337 1.09825
 H285 H 0.90526 0.69042 1.15652
 C286 C 0.82812 0.13826 0.67168
 C287 C 0.83866 0.12826 0.69538
 C288 C 0.86261 0.13820 0.70574
 C289 C 0.87629 0.15798 0.69163
 C290 C 0.86548 0.16883 0.66842
 C291 C 0.84150 0.15866 0.65816
 C292 C 0.80419 0.12839 0.66151
 C293 C 0.79330 0.13855 0.63782
 C294 C 0.80715 0.15866 0.62426
 C295 C 0.83072 0.16918 0.63459
 C296 C 0.84316 0.19074 0.62229
 C297 C 0.86605 0.20197 0.63342
 C298 C 0.87767 0.19041 0.65589
 H299 H 0.82839 0.11245 0.70569
 H300 H 0.89465 0.16593 0.69953
 H301 H 0.79451 0.11215 0.67165
 H302 H 0.79886 0.16712 0.60630
 H303 H 0.83450 0.19955 0.60468
 H304 H 0.89553 0.19902 0.66424
 C305 C 1.36884 0.33440 0.66551
 C306 C 1.37806 0.34375 0.69006
 C307 C 1.36478 0.36438 0.70348
 C308 C 1.34269 0.37638 0.69125
 C309 C 1.33361 0.36761 0.66644
 C310 C 1.34669 0.34647 0.65352
 C311 C 1.38130 0.31294 0.65295
 C312 C 1.37242 0.30362 0.62809
 C313 C 1.35031 0.31598 0.61622
 C314 C 1.33746 0.33728 0.62872
 C315 C 1.31529 0.34931 0.61700
 C316 C 1.30245 0.37053 0.62964
 C317 C 1.31157 0.37953 0.65437
 H318 H 1.39505 0.33427 0.69923
 H319 H 1.33293 0.39301 0.70081
 H320 H 1.39834 0.30375 0.66233
 H321 H 1.34245 0.30835 0.59769
 H322 H 1.30798 0.34228 0.59801
 H323 H 1.30132 0.39568 0.66422
 C324 C 1.37172 0.83760 1.16307
 C325 C 1.38428 0.85055 1.18428
 C326 C 1.37352 0.87394 1.19494
 C327 C 1.35020 0.88459 1.18409
 C328 C 1.33738 0.87187 1.16294
 C329 C 1.34808 0.84818 1.15247
 C330 C 1.38181 0.81369 1.15306
 C331 C 1.36802 0.79952 1.13326
 C332 C 1.34495 0.81076 1.12219
 C333 C 1.33481 0.83478 1.13178
 C334 C 1.31116 0.84521 1.12157
 C335 C 1.30023 0.86847 1.13228
 C336 C 1.31358 0.88194 1.15266
 H337 H 1.40197 0.84208 1.19309
 H338 H 1.34179 0.90249 1.19256
 H339 H 1.39963 0.80534 1.16175
 H340 H 1.33481 0.80068 1.10610
 H341 H 1.30081 0.83495 1.10573
 H342 H 1.30505 0.89990 1.16089
 C343 C 0.87524 0.33922 1.15850
 C344 C 0.88671 0.35053 1.18123
 C345 C 0.87521 0.37290 1.19324
 C346 C 0.85199 0.38390 1.18253
 C347 C 0.84023 0.37277 1.15991
 C348 C 0.85178 0.35023 1.14793
 C349 C 0.88666 0.31691 1.14637
 C350 C 0.87488 0.30520 1.12384
 C351 C 0.85101 0.31592 1.11399
 C352 C 0.83969 0.33854 1.12555
 C353 C 0.81648 0.34970 1.11503
 C354 C 0.80530 0.37245 1.12653
 C355 C 0.81703 0.38370 1.14917
 H356 H 0.90446 0.34189 1.18976
 H357 H 0.84311 0.40109 1.19193
 H358 H 0.90433 0.30814 1.15496
 H359 H 0.84166 0.30714 1.09670
 H360 H 0.80718 0.34090 1.09773
 H361 H 0.80802 0.40098 1.15830
 C362 C 0.86815 0.83456 0.66472
 C363 C 0.88027 0.84657 0.68672
 C364 C 0.87051 0.87061 0.69684
 C365 C 0.84832 0.88257 0.68503
 C366 C 0.83600 0.87084 0.66301
 C367 C 0.84593 0.84672 0.65278
 C368 C 0.87769 0.81044 0.65466
 C369 C 0.86516 0.79826 0.63297
 C370 C 0.84328 0.81054 0.62091
 C371 C 0.83349 0.83466 0.63074
 C372 C 0.81135 0.84680 0.61908
 C373 C 0.80155 0.87086 0.62914
 C374 C 0.81380 0.88269 0.65118
 H375 H 0.89715 0.83717 0.69618
 H376 H 0.84070 0.90102 0.69308
 H377 H 0.89466 0.80092 0.66382
 H378 H 0.83385 0.80116 0.60399
 H379 H 0.80157 0.83755 0.60229
 H380 H 0.80601 0.90116 0.65900
 C381 C 0.63735 0.67199 0.67178
 C382 C 0.62619 0.66085 0.69463
 C383 C 0.63772 0.63844 0.70640
 C384 C 0.66016 0.62669 0.69492
 C385 C 0.67156 0.63759 0.67206
 C386 C 0.66016 0.66036 0.66043
 C387 C 0.62638 0.69482 0.66035
 C388 C 0.63810 0.70628 0.63793
 C389 C 0.66052 0.69449 0.62641
 C390 C 0.67171 0.67166 0.63759
 C391 C 0.69451 0.66018 0.62661
 C392 C 0.70604 0.63778 0.63836
 C393 C 0.69440 0.62639 0.66088
 H394 H 0.60875 0.66972 0.70353
 H395 H 0.66894 0.60934 0.70409
 H396 H 0.60902 0.70401 0.66910
 H397 H 0.66937 0.70339 0.60898
 H398 H 0.70361 0.66886 0.60920
 H399 H 0.70338 0.60899 0.66977
 C400 C 0.63027 1.16550 1.16359
 C401 C 0.61988 1.15537 1.18728
 C402 C 0.63210 1.13380 1.19991
 C403 C 0.65439 1.12178 1.18842
 C404 C 0.66509 1.13174 1.16479
 C405 C 0.65316 1.15388 1.15246
 C406 C 0.61834 1.18725 1.15104
 C407 C 0.62915 1.19791 1.12761
 C408 C 0.65256 1.18672 1.11722
 C409 C 0.66428 1.16453 1.12915
 C410 C 0.68693 1.15277 1.11810
 C411 C 0.69838 1.13030 1.12987
 C412 C 0.68761 1.12007 1.15338
 H413 H 0.60246 1.16435 1.19613
 H414 H 0.66361 1.10498 1.19817
 H415 H 0.60107 1.19644 1.15997
 H416 H 0.66117 1.19475 1.09925
 H417 H 0.69563 1.16092 1.10023
 H418 H 0.69674 1.10296 1.16264
 C419 C 0.12518 0.66032 1.15951
 C420 C 0.11292 0.64799 1.18125
 C421 C 0.12477 0.62597 1.19382
 C422 C 0.14935 0.61666 1.18429
 C423 C 0.16170 0.62861 1.16253
 C424 C 0.14971 0.65067 1.15020
 C425 C 0.11357 0.68251 1.14730
 C426 C 0.12608 0.69523 1.12576
 C427 C 0.15082 0.68557 1.11702
 C428 C 0.16251 0.66333 1.12884
 C429 C 0.18694 0.65363 1.11972
 C430 C 0.19869 0.63152 1.13177
 C431 C 0.18603 0.61902 1.15307
 H432 H 0.09464 0.65620 1.18903
 H433 H 0.15871 0.59966 1.19356
 H434 H 0.09520 0.69044 1.15517
 H435 H 0.16074 0.69500 1.10047
 H436 H 0.19691 0.66325 1.10331
 H437 H 0.19535 0.60204 1.16241
 C438 C 0.13143 1.16617 0.66686
 C439 C 0.11871 1.15320 0.68791
 C440 C 0.12972 1.13012 0.69923
 C441 C 0.15402 1.12048 0.68936
 C442 C 0.16664 1.13289 0.66801
 C443 C 0.15538 1.15585 0.65672
 C444 C 0.12088 1.18956 0.65607
 C445 C 0.13407 1.20267 0.63540
 C446 C 0.15741 1.19188 0.62482
 C447 C 0.16824 1.16864 0.63543
 C448 C 0.19192 1.15819 0.62536
 C449 C 0.20312 1.13538 0.63659
 C450 C 0.19042 1.12273 0.65781
 H451 H 0.10069 1.16160 0.69611
 H452 H 0.16277 1.10276 0.69785
 H453 H 0.10271 1.19788 0.66399
 H454 H 0.16730 1.20191 0.60861
 H455 H 0.20188 1.16791 0.60900
 H456 H 0.19915 1.10502 0.66631
 C457 C 1.37302 0.66123 0.33877
 C458 C 1.38522 0.64862 0.31712
 C459 C 1.37296 0.62699 0.30426
 C460 C 1.34795 0.61846 0.31328
 C461 C 1.33566 0.63069 0.33498
 C462 C 1.34813 0.65226 0.34770
 C463 C 1.38510 0.68297 0.35132
 C464 C 1.37274 0.69588 0.37287
 C465 C 1.34770 0.68684 0.38134
 C466 C 1.33552 0.66505 0.36916
 C467 C 1.31087 0.65585 0.37809
 C468 C 1.29853 0.63428 0.36556
 C469 C 1.31101 0.62173 0.34410
 H470 H 1.40387 0.65625 0.30969
 H471 H 1.33826 0.60179 0.30374
 H472 H 1.40375 0.69041 0.34370
 H473 H 1.33792 0.69643 0.39794
 H474 H 1.30121 0.66540 0.39477
 H475 H 1.30138 0.60508 0.33447
 C476 C 1.36461 1.16899 0.83038
 C477 C 1.37730 1.15590 0.80935
 C478 C 1.36670 1.13239 0.79884
 C479 C 1.34326 1.12192 0.80946
 C480 C 1.33035 1.13477 0.83046
 C481 C 1.34095 1.15851 0.84088
 C482 C 1.37495 1.19263 0.84073
 C483 C 1.36147 1.20662 0.86087
 C484 C 1.33810 1.19570 0.87153
 C485 C 1.32778 1.17182 0.86169
 C486 C 1.30439 1.16112 0.87219
 C487 C 1.29384 1.13758 0.86179
 C488 C 1.30687 1.12443 0.84103
 H489 H 1.39520 1.16414 0.80081
 H490 H 1.33505 1.10385 0.80118
 H491 H 1.39297 1.20074 0.83232
 H492 H 1.32818 1.20558 0.88787
 H493 H 1.29416 1.17119 0.88821
 H494 H 1.29861 1.10621 0.83313
 C495 C 0.87165 0.66223 0.83676
 C496 C 0.88312 0.65027 0.81442
 C497 C 0.87125 0.62802 0.80260
 C498 C 0.84747 0.61798 0.81292
 C499 C 0.83564 0.62982 0.83514
 C500 C 0.84781 0.65198 0.84720
 C501 C 0.88342 0.68444 0.84865
 C502 C 0.87188 0.69630 0.87107
 C503 C 0.84812 0.68614 0.88132
 C504 C 0.83598 0.66410 0.86951
 C505 C 0.81202 0.65418 0.87942
 C506 C 0.79966 0.63246 0.86717
 C507 C 0.81168 0.62012 0.84530
 H508 H 0.90122 0.65826 0.80608
 H509 H 0.83820 0.60099 0.80354
 H510 H 0.90149 0.69267 0.84047
 H511 H 0.83908 0.69555 0.89843
 H512 H 0.80274 0.66346 0.89647
 H513 H 0.80209 0.60327 0.83600
 C514 C 0.86742 1.16513 0.33298
 C515 C 0.87997 1.15191 0.31196
 C516 C 0.86867 1.12901 0.30058
 C517 C 0.84416 1.11984 0.31034
 C518 C 0.83166 1.13254 0.33169
 C519 C 0.84330 1.15528 0.34307
 C520 C 0.87831 1.18837 0.34372
 C521 C 0.86534 1.20182 0.36436
 C522 C 0.84187 1.19144 0.37501
 C523 C 0.83064 1.16836 0.36438
 C524 C 0.80677 1.15838 0.37441
 C525 C 0.79516 1.13580 0.36308
 C526 C 0.80764 1.12291 0.34179
 H527 H 0.89811 1.16002 0.30380
 H528 H 0.83514 1.10229 0.30177
 H529 H 0.89658 1.19635 0.33574
 H530 H 0.83215 1.20172 0.39123
 H531 H 0.79698 1.16829 0.39080
 H532 H 0.79858 1.10539 0.33320
 C533 C 0.63021 0.33685 0.33501
 C534 C 0.61824 0.34920 0.31319
 C535 C 0.62747 0.37382 0.30378
 C536 C 0.64966 0.38548 0.31617
 C537 C 0.66203 0.37320 0.33786
 C538 C 0.65219 0.34886 0.34744
 C539 C 0.62062 0.31258 0.34450
 C540 C 0.63292 0.30005 0.36607
 C541 C 0.65474 0.31206 0.37850
 C542 C 0.66454 0.33635 0.36924
 C543 C 0.68664 0.34821 0.38123
 C544 C 0.69661 0.37235 0.37168
 C545 C 0.68436 0.38465 0.34989
 H546 H 0.60120 0.33990 0.30390
 H547 H 0.65788 0.40372 0.30836
 H548 H 0.60373 0.30322 0.33502
 H549 H 0.66407 0.30237 0.39527
 H550 H 0.69628 0.33862 0.39789
 H551 H 0.69239 0.40304 0.34224
 C552 C 0.63187 0.83342 0.83330
 C553 C 0.62162 0.84422 0.80980
 C554 C 0.63472 0.86517 0.79710
 C555 C 0.65783 0.87586 0.80832
 C556 C 0.66837 0.86524 0.83174
 C557 C 0.65540 0.84388 0.84429
 C558 C 0.61924 0.81206 0.84576
 C559 C 0.62981 0.80109 0.86906
 C560 C 0.65331 0.81141 0.87984
 C561 C 0.66614 0.83279 0.86766
 C562 C 0.68975 0.84301 0.87819
 C563 C 0.70280 0.86402 0.86554
 C564 C 0.69191 0.87529 0.84257
 H565 H 0.60371 0.83611 0.80110
 H566 H 0.66773 0.89221 0.79853
 H567 H 0.60126 0.80382 0.83733
 H568 H 0.66168 0.80253 0.89756
 H569 H 0.69821 0.83451 0.89604
 H570 H 0.70210 0.89154 0.83292
 C571 C 0.14203 0.32417 0.82471
 C572 C 0.13140 0.33536 0.80157
 C573 C 0.14266 0.35826 0.79059
 C574 C 0.16458 0.37018 0.80290
 C575 C 0.17536 0.35932 0.82610
 C576 C 0.16389 0.33635 0.83723
 C577 C 0.13126 0.30094 0.83545
 C578 C 0.14191 0.28968 0.85871
 C579 C 0.16298 0.30268 0.87168
 C580 C 0.17436 0.32553 0.86082
 C581 C 0.19640 0.33745 0.87288
 C582 C 0.20814 0.35985 0.86148
 C583 C 0.19752 0.37088 0.83828
 H584 H 0.11451 0.32620 0.79191
 H585 H 0.17315 0.38792 0.79434
 H586 H 0.11427 0.29180 0.82594
 H587 H 0.17134 0.29428 0.88963
 H588 H 0.20481 0.32907 0.89081
 H589 H 0.20672 0.38826 0.82966
 C590 C 0.12539 0.83924 0.33900
 C591 C 0.11419 0.85090 0.31638
 C592 C 0.12500 0.87420 0.30545
 C593 C 0.14825 0.88484 0.31673
 C594 C 0.16012 0.87291 0.33889
 C595 C 0.14835 0.85032 0.35041
 C596 C 0.11392 0.81667 0.35040
 C597 C 0.12444 0.80548 0.37376
 C598 C 0.14769 0.81645 0.38472
 C599 C 0.15983 0.83855 0.37306
 C600 C 0.18359 0.84873 0.38331
 C601 C 0.19603 0.87038 0.37109
 C602 C 0.18391 0.88282 0.34936
 H603 H 0.09641 0.84236 0.30781
 H604 H 0.15762 0.90192 0.30768
 H605 H 0.09614 0.80835 0.34160
 H606 H 0.15684 0.80721 0.40186
 H607 H 0.19285 0.83947 0.40037
 H608 H 0.19345 0.89974 0.34020
 O609 O 0.97460 0.90359 0.86738
 O610 O 0.97433 0.87263 0.83643
 C611 C 0.96544 0.89429 0.84583
 C612 C 0.94392 0.90866 0.83190
 C613 C 0.93497 0.90015 0.80691
 H614 H 0.94406 0.88314 0.79739
 O615 O 1.02517 1.09551 0.86759
 O616 O 1.02496 1.12612 0.83641
 C617 C 1.03409 1.10464 0.84590
 C618 C 1.05564 1.09038 0.83192
 C619 C 1.06487 1.09931 0.80723
 H620 H 1.05614 1.11672 0.79817
 O621 O 0.86863 0.97286 0.90400
 O622 O 0.83771 0.97235 0.87304
 C623 C 0.84731 0.96334 0.89453
 C624 C 0.83400 0.94109 0.90825
 C625 C 0.81057 0.93016 0.89789
 H626 H 0.80160 0.93846 0.88021
 O627 O 1.13102 1.02502 0.90298
 O628 O 1.16186 1.02515 0.87203
 C629 C 1.15244 1.03425 0.89356
 C630 C 1.16600 1.05641 0.90728
 C631 C 1.18899 1.06766 0.89640
 H632 H 1.19771 1.05936 0.87859
 O633 O 0.90548 0.86712 0.97426
 O634 O 0.87493 0.83588 0.97425
 C635 C 0.89637 0.84545 0.96519
 C636 C 0.91052 0.83159 0.94349
 C637 C 0.90200 0.80658 0.93470
 H638 H 0.88544 0.79686 0.94429
 O639 O 1.09565 1.13121 0.97324
 O640 O 1.12669 1.16196 0.97327
 C641 C 1.10529 1.15253 0.96395
 C642 C 1.09207 1.16589 0.94141
 C643 C 1.10388 1.18798 0.92931
 H644 H 1.12232 1.19588 0.93701
 O645 O 0.90364 1.02567 0.86803
 O646 O 0.87256 1.02555 0.83724
 C647 C 0.89397 1.03492 0.84667
 C648 C 0.90731 1.05736 0.83322
 C649 C 0.89644 1.06854 0.81010
 H650 H 0.87881 1.06006 0.80121
 O651 O 1.09503 0.97320 0.86643
 O652 O 1.12588 0.97320 0.83546
 C653 C 1.10431 0.96423 0.84478
 C654 C 1.09011 0.94277 0.83067
 C655 C 1.09810 0.93462 0.80526
 H656 H 1.11435 0.94458 0.79540
 O657 O 1.02651 0.86750 0.90347
 O658 O 1.02649 0.83627 0.87280
 C659 C 1.03556 0.84585 0.89433
 C660 C 1.05711 0.83202 0.90875
 C661 C 1.06584 0.80683 0.90065
 H662 H 1.05662 0.79709 0.88383
 O663 O 0.97383 1.13217 0.90406
 O664 O 0.97388 1.16320 0.87329
 C665 C 0.96485 1.15380 0.89482
 C666 C 0.94315 1.16767 0.90891
 C667 C 0.93412 1.19252 0.90022
 H668 H 0.94353 1.20218 0.88353
 O669 O 0.86735 1.09549 0.97338
 O670 O 0.83631 1.12629 0.97334
 C671 C 0.84575 1.10473 0.96428
 C672 C 0.83191 1.09044 0.94256
 C673 C 0.80783 1.09996 0.93219
 H674 H 0.79908 1.11786 0.94025
 O675 O 1.13180 0.90455 0.97438
 O676 O 1.16308 0.87399 0.97443
 C677 C 1.15354 0.89551 0.96544
 C678 C 1.16741 0.90982 0.94389
 C679 C 1.19290 0.90205 0.93585
 H680 H 1.20307 0.88626 0.94628
 O681 O 0.97336 1.09565 0.86802
 O682 O 0.97311 1.12657 0.83715
 C683 C 0.96397 1.10514 0.84667
 C684 C 0.94156 1.09168 0.83329
 C685 C 0.93027 1.10263 0.81032
 H686 H 0.93853 1.12047 0.80173
 O687 O 1.02616 0.90310 0.86655
 O688 O 1.02605 0.87214 0.83560
 C689 C 1.03501 0.89379 0.84486
 C690 C 1.05626 0.90816 0.83069
 C691 C 1.06460 0.90015 0.80531
 H692 H 1.05520 0.88345 0.79559
 O693 O 1.13093 0.97326 0.90321
 O694 O 1.16198 0.97327 0.87247
 C695 C 1.15258 0.96428 0.89404
 C696 C 1.16671 0.94297 0.90854
 C697 C 1.19186 0.93433 0.90027
 H698 H 1.20106 0.94313 0.88299
 O699 O 0.86757 1.02457 0.90466
 O700 O 0.83642 1.02407 0.87394
 C701 C 0.84571 1.03318 0.89555
 C702 C 0.83159 1.05482 0.90960
 C703 C 0.80697 1.06391 0.90033
 H704 H 0.79715 1.05343 0.88433
 O705 O 0.90360 1.13177 0.97326
 O706 O 0.87272 1.16275 0.97331
 C707 C 0.89429 1.15337 0.96427
 C708 C 0.90848 1.16736 0.94277
 C709 C 0.89972 1.19221 0.93379
 H710 H 0.88282 1.20173 0.94304
 O711 O 1.09574 0.86794 0.97412
 O712 O 1.12682 0.83717 0.97402
 C713 C 1.10516 0.84640 0.96504
 C714 C 1.09103 0.83228 0.94347
 C715 C 1.09933 0.80700 0.93522
 H716 H 1.11572 0.79729 0.94517
 O717 O 1.09442 1.02482 0.86693
 O718 O 1.12514 1.02484 0.83584
 C719 C 1.10356 1.03382 0.84529
 C720 C 1.08931 1.05545 0.83143
 C721 C 1.09775 1.06423 0.80642
 H722 H 1.11407 1.05434 0.79655
 O723 O 0.90482 0.97385 0.86764
 O724 O 0.87402 0.97371 0.83656
 C725 C 0.89569 0.96487 0.84592
 C726 C 0.91001 0.94339 0.83185
 C727 C 0.90150 0.93469 0.80677
 H728 H 0.88494 0.94437 0.79706
 O729 O 1.02552 1.13187 0.90387
 O730 O 1.02562 1.16256 0.87277
 C731 C 1.03479 1.15319 0.89429
 C732 C 1.05729 1.16650 0.90762
 C733 C 1.06900 1.18902 0.89626
 H734 H 1.06041 1.19792 0.87868
 O735 O 0.97488 0.86722 0.90354
 O736 O 0.97471 0.83601 0.87284
 C737 C 0.96585 0.84554 0.89444
 C738 C 0.94447 0.83162 0.90888
 C739 C 0.93563 0.80662 0.90039
 H740 H 0.94483 0.79701 0.88349
 O741 O 1.13141 1.09451 0.97356
 O742 O 1.16241 1.12530 0.97363
 C743 C 1.15288 1.10388 0.96438
 C744 C 1.16624 1.09041 0.94195
 C745 C 1.18915 1.10143 0.93066
 H746 H 1.19786 1.11919 0.93906
 O747 O 0.86911 0.90328 0.97438
 O748 O 0.83846 0.87215 0.97430
 C749 C 0.84773 0.89370 0.96517
 C750 C 0.83409 0.90721 0.94294
 C751 C 0.81058 0.89670 0.93235
 H752 H 0.80156 0.87937 0.94121
 Cu753 Cu 1.00058 0.88845 0.88831
 Cu754 Cu 1.00037 0.85111 0.85133
 Cu755 Cu 0.99949 1.11071 0.88899
 Cu756 Cu 0.99939 1.14770 0.85177
 Cu757 Cu 0.88928 0.99928 0.88915
 Cu758 Cu 0.85208 0.99889 0.85210
 Cu759 Cu 1.10978 0.99903 0.88799
 Cu760 Cu 1.14686 0.99910 0.85088
 C761 C 0.93147 0.93046 0.84408
 H762 H 0.93796 0.93688 0.86355
 C763 C 0.91404 0.91329 0.79414
 C764 C 1.06791 1.06836 0.84379
 H765 H 1.06133 1.06174 0.86312
 C766 C 1.08550 1.08600 0.79410
 C767 C 0.84551 0.92958 0.93090
 H768 H 0.86387 0.93755 0.93870
 C769 C 0.79903 0.90784 0.90966
 C770 C 1.15491 1.06778 0.93023
 H771 H 1.13691 1.05952 0.93846
 C772 C 1.20031 1.09038 0.90774
 C773 C 0.93196 0.84383 0.93063
 H774 H 0.93842 0.86327 0.93708
 C775 C 0.91463 0.79395 0.91338
 C776 C 1.06875 1.15532 0.93044
 H777 H 1.05999 1.13778 0.93915
 C778 C 1.09271 1.19933 0.90651
 C779 C 0.93004 1.06895 0.84450
 H780 H 0.93832 1.06073 0.86254
 C781 C 0.90758 1.09141 0.79888
 C782 C 1.06898 0.92964 0.84304
 H783 H 1.06291 0.93570 0.86275
 C784 C 1.08525 0.91356 0.79238
 C785 C 1.06969 0.84446 0.93033
 H786 H 1.06334 0.86405 0.93646
 C787 C 1.08666 0.79408 0.91406
 C788 C 0.93038 1.15540 0.93038
 H789 H 0.93702 1.13607 0.93697
 C790 C 0.91262 1.20494 0.91276
 C791 C 0.84364 1.06790 0.93104
 H792 H 0.86266 1.06100 0.93825
 C793 C 0.79533 1.08698 0.91085
 C794 C 1.15471 0.93064 0.93043
 H795 H 1.13505 0.93675 0.93655
 C796 C 1.20538 0.91435 0.91422
 O797 O 1.02575 0.90485 1.13297
 O798 O 1.02579 0.87422 1.16412
 C799 C 1.03451 0.89592 1.15482
 C800 C 1.05562 0.91057 1.16904
 C801 C 1.06357 0.90294 1.19460
 H802 H 1.05327 0.88702 1.20464
 O803 O 0.97342 1.09601 1.13172
 O804 O 0.97312 1.12705 1.16258
 C805 C 0.96418 1.10544 1.15319
 C806 C 0.94262 1.09120 1.16706
 C807 C 0.93345 1.09987 1.19191
 H808 H 0.94212 1.11723 1.20116
 O809 O 0.86815 1.02549 1.09522
 O810 O 0.83717 1.02568 1.12604
 C811 C 0.84659 1.03464 1.10449
 C812 C 0.83272 1.05637 1.09039
 C813 C 0.80796 1.06550 1.09930
 H814 H 0.79843 1.05614 1.11610
 O815 O 1.13154 0.97434 1.09632
 O816 O 1.16252 0.97446 1.12722
 C817 C 1.15309 0.96528 1.10569
 C818 C 1.16680 0.94330 1.09181
 C819 C 1.19073 0.93306 1.10176
 H820 H 1.19986 0.94180 1.11916
 O821 O 1.09578 0.86777 1.02588
 O822 O 1.12669 0.83682 1.02576
 C823 C 1.10511 0.84615 1.03482
 C824 C 1.09101 0.83220 1.05644
 C825 C 1.09882 0.80669 1.06445
 H826 H 1.11470 0.79657 1.05410
 O827 O 0.90406 1.13186 1.02487
 O828 O 0.87324 1.16290 1.02498
 C829 C 0.89495 1.15358 1.03381
 C830 C 0.90948 1.16777 1.05509
 C831 C 0.90185 1.19340 1.06288
 H832 H 0.88586 1.20339 1.05257
 O833 O 0.90431 0.97371 1.13172
 O834 O 0.87331 0.97380 1.16253
 C835 C 0.89480 0.96457 1.15315
 C836 C 0.90815 0.94214 1.16660
 C837 C 0.89702 0.93087 1.18946
 H838 H 0.87970 0.93980 1.19853
 O839 O 1.09525 1.02615 1.13256
 O840 O 1.12599 1.02632 1.16370
 C841 C 1.10444 1.03529 1.15418
 C842 C 1.09005 1.05682 1.16809
 C843 C 1.09820 1.06548 1.19330
 H844 H 1.11521 1.05639 1.20279
 O845 O 0.97557 0.86740 1.09581
 O846 O 0.97581 0.83630 1.12652
 C847 C 0.96689 0.84559 1.10485
 C848 C 0.94575 0.83135 1.09031
 C849 C 0.93749 0.80606 1.09841
 H850 H 0.94706 0.79640 1.11505
 O851 O 1.02554 1.13168 1.09564
 O852 O 1.02573 1.16270 1.12651
 C853 C 1.03485 1.15312 1.10503
 C854 C 1.05702 1.16652 1.09121
 C855 C 1.06806 1.18993 1.10154
 H856 H 1.05989 1.19893 1.11928
 O857 O 0.86894 0.90302 1.02625
 O858 O 0.83832 0.87187 1.02628
 C859 C 0.84754 0.89348 1.03541
 C860 C 0.83374 0.90726 1.05741
 C861 C 0.81015 0.89696 1.06800
 H862 H 0.80125 0.87936 1.05945
 O863 O 1.13154 1.09505 1.02550
 O864 O 1.16248 1.12590 1.02551
 C865 C 1.15297 1.10453 1.03475
 C866 C 1.16642 1.09121 1.05719
 C867 C 1.18961 1.10206 1.06813
 H868 H 1.19852 1.11954 1.05944
 O869 O 1.02503 1.09569 1.13223
 O870 O 1.02482 1.12652 1.16330
 C871 C 1.03381 1.10487 1.15401
 C872 C 1.05517 1.09053 1.16822
 C873 C 1.06315 1.09841 1.19375
 H874 H 1.05288 1.11445 1.20371
 O875 O 0.97403 0.90367 1.13195
 O876 O 0.97393 0.87270 1.16277
 C877 C 0.96452 0.89399 1.15313
 C878 C 0.94180 0.90722 1.16622
 C879 C 0.92983 0.89578 1.18857
 H880 H 0.93760 0.87748 1.19672
 O881 O 1.13150 1.02607 1.09635
 O882 O 1.16241 1.02638 1.12733
 C883 C 1.15293 1.03536 1.10577
 C884 C 1.16640 1.05745 1.09198
 C885 C 1.18959 1.06864 1.10261
 H886 H 1.19840 1.06050 1.12045
 O887 O 0.86811 0.97361 1.09541
 O888 O 0.83709 0.97380 1.12619
 C889 C 0.84663 0.96447 1.10481
 C890 C 0.83322 0.94211 1.09126
 C891 C 0.80964 0.93150 1.10152
 H892 H 0.80046 0.94034 1.11884
 O893 O 1.09498 1.13110 1.02513
 O894 O 1.12591 1.16195 1.02511
 C895 C 1.10439 1.15261 1.03424
 C896 C 1.09081 1.16635 1.05638
 C897 C 1.10139 1.18983 1.06693
 H898 H 1.11888 1.19869 1.05819
 O899 O 0.90574 0.86707 1.02594
 O900 O 0.87524 0.83578 1.02588
 C901 C 0.89679 0.84530 1.03481
 C902 C 0.91136 0.83128 1.05609
 C903 C 0.90340 0.80597 1.06444
 H904 H 0.88689 0.79614 1.05481
 O905 O 1.09557 0.97443 1.13291
 O906 O 1.12637 0.97458 1.16399
 C907 C 1.10484 0.96551 1.15458
 C908 C 1.09052 0.94414 1.16867
 C909 C 1.09877 0.93562 1.19388
 H910 H 1.11592 0.94461 1.20320
 O911 O 0.90445 1.02541 1.13169
 O912 O 0.87362 1.02550 1.16267
 C913 C 0.89521 1.03442 1.15333
 C914 C 0.90933 1.05603 1.16732
 C915 C 0.90094 1.06452 1.19248
 H916 H 0.88479 1.05439 1.20233
 O917 O 0.97375 1.13204 1.09531
 O918 O 0.97377 1.16333 1.12592
 C919 C 0.96476 1.15376 1.10438
 C920 C 0.94333 1.16771 1.08988
 C921 C 0.93490 1.19305 1.09785
 H922 H 0.94410 1.20261 1.11478
 O923 O 1.02711 0.86828 1.09672
 O924 O 1.02738 0.83739 1.12763
 C925 C 1.03634 0.84680 1.10606
 C926 C 1.05777 0.83277 1.09169
 C927 C 1.06620 0.80749 1.09975
 H928 H 1.05711 0.79807 1.11676
 O929 O 1.13167 0.90439 1.02617
 O930 O 1.16272 0.87359 1.02627
 C931 C 1.15319 0.89507 1.03539
 C932 C 1.16680 0.90894 1.05745
 C933 C 1.19070 0.89902 1.06773
 H934 H 1.19990 0.88168 1.05895
 O935 O 0.86779 1.09552 1.02519
 O936 O 0.83673 1.12631 1.02533
 C937 C 0.84625 1.10480 1.03436
 C938 C 0.83254 1.09068 1.05613
 C939 C 0.80779 1.09950 1.06536
 H940 H 0.79819 1.11639 1.05618
 Cu941 Cu 1.00067 0.88917 1.11130
 Cu942 Cu 1.00083 0.85210 1.14844
 Cu943 Cu 0.99944 1.11078 1.11063
 Cu944 Cu 0.99935 1.14807 1.14764
 Cu945 Cu 0.89035 0.88828 1.00026
 Cu946 Cu 0.85360 0.85085 1.00020
 Cu947 Cu 1.11064 0.88923 1.00012
 Cu948 Cu 1.14798 0.85233 1.00007
 Cu949 Cu 0.88875 1.11055 0.99916
 Cu950 Cu 0.85160 1.14763 0.99929
 Cu951 Cu 1.11029 1.10987 0.99937
 Cu952 Cu 1.14748 1.14686 0.99943
 Cu953 Cu 0.88934 0.99959 1.11040
 Cu954 Cu 0.85217 0.99979 1.14744
 Cu955 Cu 1.11038 1.00021 1.11144
 Cu956 Cu 1.14748 1.00044 1.14863
 C957 C 1.06886 0.93155 1.15648
 H958 H 1.06281 0.93755 1.13676
 C959 C 1.08498 0.91550 1.20728
 C960 C 0.93049 1.06919 1.15500
 H961 H 0.93703 1.06275 1.13557
 C962 C 0.91300 1.08628 1.20499
 C963 C 0.84471 1.06892 1.06862
 H964 H 0.86396 1.06221 1.06185
 C965 C 0.79535 1.08683 1.08672
 C966 C 1.15512 0.93124 1.06949
 H967 H 1.13645 0.93874 1.06197
 C968 C 1.20253 0.91085 1.08995
 C969 C 1.07020 0.84487 1.06994
 H970 H 1.06410 0.86456 1.06392
 C971 C 1.08628 0.79408 1.08587
 C972 C 0.93056 1.15530 1.06840
 H973 H 0.93655 1.13553 1.06250
 C974 C 0.91464 1.20629 1.08404
 C975 C 0.93078 0.93039 1.15534
 H976 H 0.93937 0.93886 1.13760
 C977 C 0.90724 0.90726 1.20004
 C978 C 1.06844 1.06940 1.15578
 H979 H 1.06241 1.06322 1.13609
 C980 C 1.08445 1.08578 1.20655
 C981 C 0.93275 0.84365 1.06895
 H982 H 0.93877 0.86332 1.06284
 C983 C 0.91656 0.79320 1.08536
 C984 C 1.06844 1.15499 1.06848
 H985 H 1.06043 1.13664 1.06069
 C986 C 1.09028 1.20147 1.08955
 C987 C 0.84498 0.92998 1.06906
 H988 H 0.86340 0.93777 1.06131
 C989 C 0.79823 0.90885 1.09016
 C990 C 1.15508 1.06876 1.06912
 H991 H 1.13692 1.06058 1.06109
 C992 C 1.20100 1.09106 1.09095
 O993 O 1.09617 0.52638 0.63147
 O994 O 1.12732 0.52670 0.66219
 C995 C 1.10570 0.53569 0.65287
 C996 C 1.09195 0.55781 0.66650
 C997 C 1.10220 0.56848 0.69013
 H998 H 1.11974 0.55992 0.69915
 O999 O 0.90446 0.47317 0.63175
 O1000 O 0.87386 0.47323 0.66296
 C1001 C 0.89536 0.46420 0.65344
 C1002 C 0.90982 0.44284 0.66744
 C1003 C 0.90146 0.43401 0.69247
 H1004 H 0.88415 0.44278 0.70170
 O1005 O 1.02525 0.63195 0.59493
 O1006 O 1.02498 0.66316 0.62562
 C1007 C 1.03405 0.65371 0.60407
 C1008 C 1.05551 0.66772 0.58978
 C1009 C 1.06408 0.69287 0.59815
 H1010 H 1.05444 0.70265 0.61469
 O1011 O 0.97483 0.36822 0.59545
 O1012 O 0.97489 0.33733 0.62635
 C1013 C 0.96576 0.34669 0.60481
 C1014 C 0.94389 0.33286 0.59086
 C1015 C 0.93346 0.30911 0.60096
 H1016 H 0.94189 0.30024 0.61863
 O1017 O 1.13158 0.59611 0.52429
 O1018 O 1.16252 0.62696 0.52447
 C1019 C 1.15322 0.60531 0.53331
 C1020 C 1.16730 0.59099 0.55474
 C1021 C 1.19239 0.59942 0.56336
 H1022 H 1.20204 0.61602 0.55378
 O1023 O 0.86851 0.40344 0.52564
 O1024 O 0.83779 0.37236 0.52555
 C1025 C 0.84719 0.39378 0.53490
 C1026 C 0.83371 0.40709 0.55736
 C1027 C 0.81100 0.39583 0.56882
 H1028 H 0.80271 0.37774 0.56070
 O1029 O 0.97431 0.59513 0.63159
 O1030 O 0.97421 0.62594 0.66269
 C1031 C 0.96535 0.60429 0.65329
 C1032 C 0.94394 0.58992 0.66727
 C1033 C 0.93504 0.59850 0.69225
 H1034 H 0.94429 0.61535 0.70188
 O1035 O 1.02704 0.40435 0.63142
 O1036 O 1.02744 0.37330 0.66217
 C1037 C 1.03655 0.39476 0.65270
 C1038 C 1.05909 0.40814 0.66596
 C1039 C 1.07106 0.39672 0.68838
 H1040 H 1.06317 0.37862 0.69679
 O1041 O 1.13254 0.47474 0.59502
 O1042 O 1.16386 0.47507 0.62558
 C1043 C 1.15431 0.46589 0.60413
 C1044 C 1.16826 0.44431 0.58991
 C1045 C 1.19308 0.43524 0.59871
 H1046 H 1.20248 0.44435 0.61578
 O1047 O 0.86820 0.52489 0.59549
 O1048 O 0.83748 0.52504 0.62658
 C1049 C 0.84681 0.53413 0.60503
 C1050 C 0.83322 0.55630 0.59145
 C1051 C 0.81025 0.56756 0.60243
 H1052 H 0.80164 0.55934 0.62030
 O1053 O 0.90368 0.63090 0.52522
 O1054 O 0.87253 0.66161 0.52518
 C1055 C 0.89409 0.65233 0.53437
 C1056 C 0.90764 0.66603 0.55658
 C1057 C 0.89713 0.68955 0.56718
 H1058 H 0.87969 0.69854 0.55839
 O1059 O 1.09641 0.36867 0.52516
 O1060 O 1.12770 0.33811 0.52521
 C1061 C 1.10608 0.34731 0.53434
 C1062 C 1.09239 0.33355 0.55636
 C1063 C 1.10276 0.30998 0.56699
 H1064 H 1.12041 0.30110 0.55855
 O1065 O 0.90467 0.52485 0.63163
 O1066 O 0.87407 0.52490 0.66284
 C1067 C 0.89556 0.53390 0.65332
 C1068 C 0.90977 0.55552 0.66723
 C1069 C 0.90117 0.56442 0.69219
 H1070 H 0.88451 0.55496 0.70184
 O1071 O 1.09641 0.47450 0.63134
 O1072 O 1.12766 0.47466 0.66197
 C1073 C 1.10620 0.46528 0.65264
 C1074 C 1.09311 0.44269 0.66601
 C1075 C 1.10470 0.43099 0.68848
 H1076 H 1.12259 0.43928 0.69703
 O1077 O 1.02654 0.36833 0.59495
 O1078 O 1.02668 0.33724 0.62566
 C1079 C 1.03570 0.34677 0.60418
 C1080 C 1.05778 0.33322 0.59035
 C1081 C 1.06839 0.30963 0.60058
 H1082 H 1.05974 0.30055 0.61800
 O1083 O 0.97348 0.63145 0.59537
 O1084 O 0.97315 0.66240 0.62632
 C1085 C 0.96406 0.65283 0.60483
 C1086 C 0.94178 0.66622 0.59112
 C1087 C 0.93091 0.68973 0.60143
 H1088 H 0.93937 0.69878 0.61902
 O1089 O 0.86768 0.59449 0.52532
 O1090 O 0.83650 0.62517 0.52535
 C1091 C 0.84618 0.60383 0.53456
 C1092 C 0.83288 0.59035 0.55695
 C1093 C 0.80990 0.60129 0.56827
 H1094 H 0.80109 0.61904 0.55996
 O1095 O 1.13266 0.40493 0.52496
 O1096 O 1.16407 0.37448 0.52472
 C1097 C 1.15446 0.39592 0.53383
 C1098 C 1.16838 0.41018 0.55542
 C1099 C 1.19331 0.40155 0.56436
 H1100 H 1.20299 0.38487 0.55484
 O1101 O 0.97529 0.40457 0.63199
 O1102 O 0.97566 0.37383 0.66304
 C1103 C 0.96657 0.39540 0.65375
 C1104 C 0.94510 0.40961 0.66787
 C1105 C 0.93698 0.40161 0.69326
 H1106 H 0.94734 0.38566 0.70325
 O1107 O 1.02603 0.59594 0.63144
 O1108 O 1.02599 0.62701 0.66228
 C1109 C 1.03525 0.60553 0.65287
 C1110 C 1.05750 0.59199 0.66648
 C1111 C 1.06801 0.60230 0.69016
 H1112 H 1.05917 0.61964 0.69929
 O1113 O 0.86810 0.47314 0.59550
 O1114 O 0.83738 0.47312 0.62657
 C1115 C 0.84670 0.46397 0.60501
 C1116 C 0.83323 0.44167 0.59143
 C1117 C 0.81019 0.43043 0.60223
 H1118 H 0.80113 0.43911 0.61969
 O1119 O 1.13194 0.52636 0.59465
 O1120 O 1.16325 0.52665 0.62522
 C1121 C 1.15362 0.53547 0.60366
 C1122 C 1.16744 0.55690 0.58920
 C1123 C 1.19249 0.56570 0.59757
 H1124 H 1.20213 0.55649 0.61443
 O1125 O 0.90530 0.36774 0.52510
 O1126 O 0.87463 0.33662 0.52491
 C1127 C 0.89610 0.34613 0.53409
 C1128 C 0.90995 0.33251 0.55611
 C1129 C 0.89989 0.30877 0.56650
 H1130 H 0.88256 0.29961 0.55769
 O1131 O 1.09501 0.63223 0.52478
 O1132 O 1.12574 0.66329 0.52508
 C1133 C 1.10420 0.65379 0.53400
 C1134 C 1.08992 0.66766 0.55561
 C1135 C 1.09824 0.69275 0.56434
 H1136 H 1.11498 0.70239 0.55498
 Cu1137 Cu 1.11109 0.50049 0.61010
 Cu1138 Cu 1.14859 0.50085 0.64690
 Cu1139 Cu 0.88941 0.49899 0.61046
 Cu1140 Cu 0.85255 0.49909 0.64782
 Cu1141 Cu 0.99979 0.61053 0.61024
 Cu1142 Cu 0.99956 0.64775 0.64732
 Cu1143 Cu 1.00082 0.38948 0.61038
 Cu1144 Cu 1.00112 0.35231 0.64740
 C1145 C 1.06946 0.56958 0.65495
 H1146 H 1.06173 0.56178 0.63647
 C1147 C 1.09050 0.59083 0.70183
 C1148 C 0.93171 0.43058 0.65537
 H1149 H 0.93788 0.43686 0.63579
 C1150 C 0.91534 0.41388 0.70582
 C1151 C 1.06837 0.65542 0.56829
 H1152 H 1.06207 0.63591 0.56189
 C1153 C 1.08519 0.70556 0.58531
 C1154 C 0.93214 0.34426 0.56827
 H1155 H 0.93973 0.36282 0.56066
 C1156 C 0.91136 0.29723 0.58902
 C1157 C 1.15513 0.56949 0.56759
 H1158 H 1.13563 0.56308 0.56127
 C1159 C 1.20515 0.58670 0.58455
 C1160 C 0.84462 0.43006 0.56877
 H1161 H 0.86255 0.43843 0.56049
 C1162 C 0.79939 0.40716 0.59143
 C1163 C 0.93135 0.56822 0.65507
 H1164 H 0.93786 0.56171 0.63565
 C1165 C 0.91387 0.58568 0.70484
 C1166 C 1.07016 0.43125 0.65504
 H1167 H 1.06138 0.43985 0.63742
 C1168 C 1.09400 0.40784 0.69942
 C1169 C 1.15619 0.43180 0.56810
 H1170 H 1.13685 0.43840 0.56148
 C1171 C 1.20583 0.41414 0.58580
 C1172 C 0.84426 0.56770 0.56855
 H1173 H 0.86228 0.55945 0.56026
 C1174 C 0.79880 0.59018 0.59112
 C1175 C 0.93011 0.65464 0.56855
 H1176 H 0.93807 0.63626 0.56077
 C1177 C 0.90849 0.70124 0.58973
 C1178 C 1.06974 0.34488 0.56806
 H1179 H 1.06191 0.36333 0.56034
 C1180 C 1.09095 0.29816 0.58918
 O1181 O 1.09513 0.47448 0.36644
 O1182 O 1.12610 0.47430 0.33560
 C1183 C 1.10475 0.46504 0.34515
 C1184 C 1.09159 0.44236 0.33196
 C1185 C 1.10251 0.43120 0.30890
 H1186 H 1.11986 0.43997 0.29981
 O1187 O 0.90521 0.52488 0.36681
 O1188 O 0.87449 0.52475 0.33566
 C1189 C 0.89600 0.53383 0.34514
 C1190 C 0.91024 0.55535 0.33120
 C1191 C 0.90225 0.56354 0.30580
 H1192 H 0.88595 0.55366 0.29587
 O1193 O 0.97335 0.63213 0.40342
 O1194 O 0.97274 0.66303 0.37253
 C1195 C 0.96378 0.65343 0.39401
 C1196 C 0.94150 0.66668 0.40779
 C1197 C 0.93051 0.69015 0.39760
 H1198 H 0.93885 0.69924 0.38003
 O1199 O 1.02652 0.36694 0.40374
 O1200 O 1.02649 0.33561 0.37316
 C1201 C 1.03551 0.34521 0.39468
 C1202 C 1.05711 0.33144 0.40905
 C1203 C 1.06580 0.30621 0.40100
 H1204 H 1.05631 0.29627 0.38446
 O1205 O 1.13182 0.40545 0.47326
 O1206 O 1.16317 0.37495 0.47303
 C1207 C 1.15351 0.39649 0.46416
 C1208 C 1.16727 0.41092 0.44263
 C1209 C 1.19243 0.40272 0.43401
 H1210 H 1.20240 0.38649 0.44394
 O1211 O 0.86769 0.59418 0.47347
 O1212 O 0.83629 0.62463 0.47352
 C1213 C 0.84595 0.60318 0.46446
 C1214 C 0.83221 0.58888 0.44276
 C1215 C 0.80704 0.59706 0.43408
 H1216 H 0.79709 0.61347 0.44377
 O1217 O 1.02577 0.59690 0.36711
 O1218 O 1.02546 0.62778 0.33619
 C1219 C 1.03461 0.60622 0.34547
 C1220 C 1.05584 0.59183 0.33115
 C1221 C 1.06409 0.59998 0.30584
 H1222 H 1.05501 0.61711 0.29659
 O1223 O 0.97518 0.40328 0.36700
 O1224 O 0.97542 0.37247 0.33591
 C1225 C 0.96636 0.39406 0.34526
 C1226 C 0.94496 0.40837 0.33112
 C1227 C 0.93657 0.40013 0.30584
 H1228 H 0.94615 0.38350 0.29615
 O1229 O 1.13093 0.52705 0.40216
 O1230 O 1.16170 0.52718 0.37114
 C1231 C 1.15228 0.53635 0.39264
 C1232 C 1.16582 0.55857 0.40630
 C1233 C 1.18931 0.56930 0.39595
 H1234 H 1.19823 0.56080 0.37833
 O1235 O 0.86903 0.47321 0.40305
 O1236 O 0.83806 0.47301 0.37214
 C1237 C 0.84742 0.46417 0.39382
 C1238 C 0.83334 0.44289 0.40828
 C1239 C 0.80819 0.43432 0.39997
 H1240 H 0.79858 0.44360 0.38314
 O1241 O 1.09513 0.63294 0.47306
 O1242 O 1.12575 0.66410 0.47333
 C1243 C 1.10424 0.65466 0.46423
 C1244 C 1.08980 0.66875 0.44288
 C1245 C 1.09792 0.69396 0.43437
 H1246 H 1.11503 0.70331 0.44340
 O1247 O 0.90476 0.36767 0.47333
 O1248 O 0.87389 0.33675 0.47309
 C1249 C 0.89537 0.34620 0.46405
 C1250 C 0.90909 0.33256 0.44195
 C1251 C 0.89875 0.30901 0.43129
 H1252 H 0.88120 0.30007 0.43982
 O1253 O 0.90528 0.47316 0.36666
 O1254 O 0.87453 0.47297 0.33553
 C1255 C 0.89613 0.46407 0.34500
 C1256 C 0.91055 0.44259 0.33103
 C1257 C 0.90246 0.43407 0.30575
 H1258 H 0.88594 0.44367 0.29590
 O1259 O 1.09443 0.52623 0.36596
 O1260 O 1.12504 0.52607 0.33477
 C1261 C 1.10346 0.53505 0.34419
 C1262 C 1.08908 0.55654 0.33026
 C1263 C 1.09665 0.56458 0.30471
 H1264 H 1.11249 0.55424 0.29450
 O1265 O 0.97480 0.36728 0.40352
 O1266 O 0.97469 0.33630 0.37259
 C1267 C 0.96557 0.34583 0.39407
 C1268 C 0.94344 0.33234 0.40774
 C1269 C 0.93278 0.30878 0.39740
 H1270 H 0.94132 0.29974 0.37986
 O1271 O 1.02501 0.63299 0.40384
 O1272 O 1.02454 0.66412 0.37318
 C1273 C 1.03360 0.65482 0.39480
 C1274 C 1.05483 0.66905 0.40928
 C1275 C 1.06267 0.69461 0.40162
 H1276 H 1.05228 0.70463 0.38570
 O1277 O 0.86859 0.40416 0.47375
 O1278 O 0.83761 0.37336 0.47367
 C1279 C 0.84698 0.39493 0.46470
 C1280 C 0.83308 0.40910 0.44305
 C1281 C 0.80794 0.40080 0.43442
 H1282 H 0.79811 0.38439 0.44413
 O1283 O 1.13118 0.59653 0.47251
 O1284 O 1.16194 0.62755 0.47259
 C1285 C 1.15253 0.60610 0.46329
 C1286 C 1.16598 0.59262 0.44093
 C1287 C 1.18949 0.60299 0.43031
 H1288 H 1.19864 0.62030 0.43918
 O1289 O 1.02682 0.40316 0.36749
 O1290 O 1.02716 0.37198 0.33677
 C1291 C 1.03615 0.39358 0.34614
 C1292 C 1.05820 0.40726 0.33255
 C1293 C 1.06951 0.39634 0.30955
 H1294 H 1.06157 0.37827 0.30105
 O1295 O 0.97424 0.59575 0.36726
 O1296 O 0.97385 0.62646 0.33617
 C1297 C 0.96521 0.60475 0.34554
 C1298 C 0.94411 0.59003 0.33140
 C1299 C 0.93582 0.59793 0.30602
 H1300 H 0.94520 0.61461 0.29632
 O1301 O 0.86867 0.52479 0.40288
 O1302 O 0.83772 0.52467 0.37195
 C1303 C 0.84698 0.53366 0.39362
 C1304 C 0.83274 0.55495 0.40802
 C1305 C 0.80755 0.56342 0.39963
 H1306 H 0.79805 0.55405 0.38276
 O1307 O 1.13114 0.47526 0.40284
 O1308 O 1.16221 0.47531 0.37211
 C1309 C 1.15278 0.46627 0.39364
 C1310 C 1.16677 0.44471 0.40788
 C1311 C 1.19154 0.43560 0.39902
 H1312 H 1.20061 0.44438 0.38166
 O1313 O 1.09649 0.36807 0.47341
 O1314 O 1.12764 0.33737 0.47337
 C1315 C 1.10590 0.34646 0.46447
 C1316 C 1.09161 0.33210 0.44318
 C1317 C 1.09995 0.30683 0.43493
 H1318 H 1.11656 0.29726 0.44464
 O1319 O 0.90351 0.63097 0.47340
 O1320 O 0.87222 0.66152 0.47333
 C1321 C 0.89385 0.65235 0.46426
 C1322 C 0.90739 0.66619 0.44224
 C1323 C 0.89681 0.68973 0.43182
 H1324 H 0.87932 0.69859 0.44062
 Cu1325 Cu 1.10981 0.50082 0.38744
 Cu1326 Cu 1.14687 0.50075 0.35030
 Cu1327 Cu 0.89015 0.49902 0.38793
 Cu1328 Cu 0.85312 0.49883 0.35068
 Cu1329 Cu 1.11016 0.61135 0.49867
 Cu1330 Cu 1.14712 0.64856 0.49895
 Cu1331 Cu 1.11120 0.38982 0.49918
 Cu1332 Cu 1.14878 0.35315 0.49900
 Cu1333 Cu 0.88877 0.60956 0.49931
 Cu1334 Cu 0.85125 0.64631 0.49929
 Cu1335 Cu 0.88985 0.38887 0.49944
 Cu1336 Cu 0.85289 0.35166 0.49925
 Cu1337 Cu 0.99971 0.61138 0.38852
 Cu1338 Cu 0.99914 0.64850 0.35145
 Cu1339 Cu 1.00081 0.38826 0.38854
 Cu1340 Cu 1.00094 0.35095 0.35151
 C1341 C 1.06927 0.43040 0.34351
 H1342 H 1.06101 0.43864 0.36156
 C1343 C 1.09181 0.40803 0.29793
 C1344 C 0.93140 0.56853 0.34369
 H1345 H 0.93747 0.56255 0.36341
 C1346 C 0.91515 0.58457 0.29305
 C1347 C 0.92991 0.65496 0.43025
 H1348 H 0.93793 0.63657 0.43791
 C1349 C 0.90804 0.70150 0.40934
 C1350 C 1.06998 0.34408 0.43032
 H1351 H 1.06363 0.36369 0.43640
 C1352 C 1.08694 0.29368 0.41411
 C1353 C 1.15483 0.43228 0.42977
 H1354 H 1.13541 0.43873 0.43631
 C1355 C 1.20477 0.41505 0.41235
 C1356 C 0.84476 0.56763 0.42978
 H1357 H 0.86431 0.56144 0.43615
 C1358 C 0.79456 0.58424 0.41275
 C1359 C 1.06836 0.57001 0.34309
 H1360 H 1.06245 0.56395 0.36282
 C1361 C 1.08407 0.58610 0.29226
 C1362 C 0.93200 0.42980 0.34341
 H1363 H 0.93814 0.43605 0.36304
 C1364 C 0.91558 0.41310 0.29298
 C1365 C 1.15442 0.57026 0.42892
 H1366 H 1.13606 0.56240 0.43674
 C1367 C 1.20100 0.59162 0.40769
 C1368 C 0.84548 0.43035 0.43003
 H1369 H 0.86502 0.43664 0.43635
 C1370 C 0.79534 0.41351 0.41313
 C1371 C 1.06818 0.65654 0.43027
 H1372 H 1.06222 0.63683 0.43629
 C1373 C 1.08403 0.70733 0.41424
 C1374 C 0.93160 0.34396 0.43019
 H1375 H 0.93942 0.36238 0.43800
 C1376 C 0.91034 0.29728 0.40892
 O1377 O 0.47415 0.90389 0.36792
 O1378 O 0.47401 0.87321 0.33669
 C1379 C 0.46512 0.89481 0.34622
 C1380 C 0.44379 0.90935 0.33223
 C1381 C 0.43555 0.90151 0.30678
 H1382 H 0.44503 0.88487 0.29700
 O1383 O 0.52449 1.09682 0.36740
 O1384 O 0.52404 1.12754 0.33633
 C1385 C 0.53338 1.10615 0.34578
 C1386 C 0.55542 1.09245 0.33204
 C1387 C 0.56594 1.10273 0.30842
 H1388 H 0.55726 1.12020 0.29941
 O1389 O 0.36721 0.97330 0.40405
 O1390 O 0.33650 0.97305 0.37288
 C1391 C 0.34586 0.96399 0.39445
 C1392 C 0.33225 0.94194 0.40818
 C1393 C 0.30800 0.93206 0.39865
 H1394 H 0.29858 0.94107 0.38156
 O1395 O 0.63009 1.02683 0.40347
 O1396 O 0.66102 1.02676 0.37259
 C1397 C 0.65157 1.03596 0.39409
 C1398 C 0.66517 1.05813 0.40777
 C1399 C 0.68837 1.06909 0.39705
 H1400 H 0.69717 1.06060 0.37937
 O1401 O 0.40454 0.86717 0.47396
 O1402 O 0.37406 0.83588 0.47401
 C1403 C 0.39560 0.84537 0.46508
 C1404 C 0.41006 0.83133 0.44366
 C1405 C 0.40210 0.80599 0.43533
 H1406 H 0.38592 0.79606 0.44533
 O1407 O 0.59454 1.13321 0.47318
 O1408 O 0.62536 1.16418 0.47320
 C1409 C 0.60394 1.15466 0.46397
 C1410 C 0.59031 1.16817 0.44174
 C1411 C 0.60076 1.19155 0.43092
 H1412 H 0.61831 1.20054 0.43949
 O1413 O 0.40335 1.02554 0.36848
 O1414 O 0.37266 1.02544 0.33729
 C1415 C 0.39417 1.03448 0.34678
 C1416 C 0.40837 1.05596 0.33277
 C1417 C 0.40018 1.06409 0.30743
 H1418 H 0.38402 1.05391 0.29757
 O1419 O 0.59379 0.97513 0.36693
 O1420 O 0.62455 0.97516 0.33588
 C1421 C 0.60300 0.96617 0.34525
 C1422 C 0.58887 0.94455 0.33123
 C1423 C 0.59689 0.93643 0.30583
 H1424 H 0.61281 0.94677 0.29584
 O1425 O 0.52600 0.86745 0.40380
 O1426 O 0.52614 0.83663 0.37272
 C1427 C 0.53525 0.84603 0.39430
 C1428 C 0.55737 0.83249 0.40811
 C1429 C 0.56800 0.80875 0.39809
 H1430 H 0.55946 0.79959 0.38060
 O1431 O 0.47284 1.13288 0.40407
 O1432 O 0.47225 1.16362 0.37303
 C1433 C 0.46340 1.15423 0.39464
 C1434 C 0.44128 1.16770 0.40845
 C1435 C 0.43059 1.19133 0.39834
 H1436 H 0.43917 1.20047 0.38090
 O1437 O 0.36637 1.09579 0.47361
 O1438 O 0.33495 1.12621 0.47379
 C1439 C 0.34458 1.10477 0.46468
 C1440 C 0.33066 1.09019 0.44325
 C1441 C 0.30530 1.09801 0.43471
 H1442 H 0.29573 1.11500 0.44375
 O1443 O 0.63085 0.90530 0.47359
 O1444 O 0.66220 0.87480 0.47356
 C1445 C 0.65247 0.89618 0.46445
 C1446 C 0.66601 0.91018 0.44253
 C1447 C 0.69048 0.90102 0.43294
 H1448 H 0.70008 0.88415 0.44216
 O1449 O 0.47280 1.09630 0.36809
 O1450 O 0.47229 1.12687 0.33687
 C1451 C 0.46350 1.10534 0.34650
 C1452 C 0.44196 1.09086 0.33277
 C1453 C 0.43297 1.09915 0.30774
 H1454 H 0.44180 1.11629 0.29832
 O1455 O 0.52571 0.90364 0.36749
 O1456 O 0.52567 0.87300 0.33622
 C1457 C 0.53461 0.89456 0.34572
 C1458 C 0.55580 0.90916 0.33162
 C1459 C 0.56451 0.90094 0.30644
 H1460 H 0.55571 0.88372 0.29706
 O1461 O 0.63016 0.97504 0.40330
 O1462 O 0.66108 0.97493 0.37242
 C1463 C 0.65170 0.96592 0.39397
 C1464 C 0.66560 0.94421 0.40802
 C1465 C 0.69003 0.93466 0.39867
 H1466 H 0.69920 0.94353 0.38141
 O1467 O 0.36676 1.02504 0.40464
 O1468 O 0.33586 1.02481 0.37366
 C1469 C 0.34503 1.03379 0.39538
 C1470 C 0.33070 1.05508 0.40973
 C1471 C 0.30503 1.06266 0.40203
 H1472 H 0.29508 1.05209 0.38616
 O1473 O 0.40269 1.13201 0.47358
 O1474 O 0.37146 1.16263 0.47349
 C1475 C 0.39311 1.15342 0.46446
 C1476 C 0.40685 1.16727 0.44258
 C1477 C 0.39655 1.19096 0.43223
 H1478 H 0.37906 1.19991 0.44093
 O1479 O 0.59548 0.86819 0.47377
 O1480 O 0.62672 0.83758 0.47385
 C1481 C 0.60510 0.84672 0.46470
 C1482 C 0.59148 0.83281 0.44267
 C1483 C 0.60175 0.80902 0.43241
 H1484 H 0.61906 0.79997 0.44137
 O1485 O 0.59402 1.02687 0.36697
 O1486 O 0.62491 1.02687 0.33605
 C1487 C 0.60342 1.03602 0.34549
 C1488 C 0.58971 1.05812 0.33190
 C1489 C 0.59994 1.06872 0.30829
 H1490 H 0.61743 1.06011 0.29925
 O1491 O 0.40396 0.97392 0.36827
 O1492 O 0.37340 0.97384 0.33695
 C1493 C 0.39501 0.96501 0.34646
 C1494 C 0.40962 0.94380 0.33232
 C1495 C 0.40179 0.93576 0.30682
 H1496 H 0.38542 0.94560 0.29697
 O1497 O 0.52461 1.13315 0.40364
 O1498 O 0.52415 1.16396 0.37265
 C1499 C 0.53358 1.15462 0.39408
 C1500 C 0.55584 1.16823 0.40756
 C1501 C 0.56661 1.19163 0.39703
 H1502 H 0.55799 1.20056 0.37948
 O1503 O 0.47426 0.86724 0.40383
 O1504 O 0.47420 0.83629 0.37288
 C1505 C 0.46524 0.84564 0.39451
 C1506 C 0.44382 0.83161 0.40885
 C1507 C 0.43518 0.80648 0.40047
 H1508 H 0.44427 0.79706 0.38341
 O1509 O 0.63052 1.09664 0.47368
 O1510 O 0.66139 1.12755 0.47371
 C1511 C 0.65197 1.10604 0.46453
 C1512 C 0.66544 1.09237 0.44226
 C1513 C 0.68861 1.10303 0.43116
 H1514 H 0.69749 1.12069 0.43959
 O1515 O 0.36784 0.90317 0.47336
 O1516 O 0.33719 0.87204 0.47312
 C1517 C 0.34644 0.89363 0.46412
 C1518 C 0.33258 0.90750 0.44226
 C1519 C 0.30832 0.89796 0.43250
 H1520 H 0.29904 0.88084 0.44152
 Cu1521 Cu 0.50003 0.88859 0.38889
 Cu1522 Cu 0.49996 0.85164 0.35154
 Cu1523 Cu 0.49874 1.11173 0.38893
 Cu1524 Cu 0.49809 1.14862 0.35162
 Cu1525 Cu 0.38836 0.99950 0.38951
 Cu1526 Cu 0.35150 0.99932 0.35208
 Cu1527 Cu 0.60892 1.00094 0.38826
 Cu1528 Cu 0.64602 1.00086 0.35115
 C1529 C 0.43087 0.93070 0.34472
 H1530 H 0.43685 0.93662 0.36451
 C1531 C 0.41483 0.91485 0.29389
 C1532 C 0.56730 1.06998 0.34348
 H1533 H 0.55958 1.06221 0.36193
 C1534 C 0.58831 1.09111 0.29669
 C1535 C 0.34425 0.92965 0.43013
 H1536 H 0.36315 0.93688 0.43732
 C1537 C 0.29613 0.90999 0.41059
 C1538 C 0.65398 1.06977 0.43054
 H1539 H 0.63581 1.06175 0.43863
 C1540 C 0.69989 1.09167 0.40844
 C1541 C 0.43123 0.84378 0.43057
 H1542 H 0.43742 0.86338 0.43681
 C1543 C 0.41470 0.79334 0.41394
 C1544 C 0.56772 1.15679 0.43006
 H1545 H 0.55982 1.13851 0.43803
 C1546 C 0.58917 1.20314 0.40846
 C1547 C 0.42960 1.06917 0.34507
 H1548 H 0.43602 1.06302 0.36463
 C1549 C 0.41251 1.08551 0.29471
 C1550 C 0.56802 0.93108 0.34376
 H1551 H 0.56180 0.93721 0.36340
 C1552 C 0.58467 0.91481 0.29320
 C1553 C 0.56913 0.84422 0.43054
 H1554 H 0.56137 0.86278 0.43809
 C1555 C 0.59030 0.79714 0.40998
 C1556 C 0.42940 1.15594 0.43073
 H1557 H 0.43720 1.13743 0.43833
 C1558 C 0.40812 1.20280 0.40995
 C1559 C 0.34311 1.06864 0.43068
 H1560 H 0.36290 1.06287 0.43672
 C1561 C 0.29206 1.08391 0.41459
 C1562 C 0.65387 0.93200 0.43013
 H1563 H 0.63483 0.93897 0.43720
 C1564 C 0.70262 0.91328 0.41121
 O1565 O 0.52547 0.90488 0.63186
 O1566 O 0.52586 0.87406 0.66283
 C1567 C 0.53481 0.89557 0.65332
 C1568 C 0.55697 0.90936 0.66678
 C1569 C 0.56784 0.89904 0.69025
 H1570 H 0.55939 0.88150 0.69928
 O1571 O 0.47279 1.09598 0.63083
 O1572 O 0.47244 1.12683 0.66189
 C1573 C 0.46360 1.10520 0.65241
 C1574 C 0.44209 1.09088 0.66628
 C1575 C 0.43279 1.09983 0.69098
 H1576 H 0.44168 1.11702 0.70035
 O1577 O 0.36732 1.02490 0.59498
 O1578 O 0.33649 1.02513 0.62595
 C1579 C 0.34590 1.03418 0.60444
 C1580 C 0.33235 1.05641 0.59090
 C1581 C 0.30911 1.06729 0.60169
 H1582 H 0.30021 1.05861 0.61919
 O1583 O 0.63146 0.97553 0.59506
 O1584 O 0.66257 0.97582 0.62583
 C1585 C 0.65318 0.96670 0.60426
 C1586 C 0.66719 0.94512 0.59006
 C1587 C 0.69209 0.93620 0.59879
 H1588 H 0.70171 0.94571 0.61551
 O1589 O 0.59524 0.86892 0.52560
 O1590 O 0.62657 0.83840 0.52575
 C1591 C 0.60496 0.84763 0.53486
 C1592 C 0.59151 0.83403 0.55709
 C1593 C 0.60248 0.81096 0.56814
 H1594 H 0.62024 0.80226 0.55972
 O1595 O 0.40250 1.13239 0.52526
 O1596 O 0.37158 1.16333 0.52528
 C1597 C 0.39320 1.15400 0.53429
 C1598 C 0.40753 1.16805 0.55579
 C1599 C 0.39921 1.19316 0.56458
 H1600 H 0.38213 1.20259 0.55556
 O1601 O 0.40352 0.97334 0.63168
 O1602 O 0.37255 0.97338 0.66251
 C1603 C 0.39415 0.96435 0.65324
 C1604 C 0.40808 0.94262 0.66718
 C1605 C 0.39811 0.93249 0.69108
 H1606 H 0.38071 0.94128 0.70013
 O1607 O 0.59466 1.02670 0.63166
 O1608 O 0.62533 1.02680 0.66287
 C1609 C 0.60373 1.03569 0.65340
 C1610 C 0.58924 1.05711 0.66738
 C1611 C 0.59733 1.06572 0.69264
 H1612 H 0.61401 1.05633 0.70241
 O1613 O 0.47376 0.86822 0.59582
 O1614 O 0.47408 0.83732 0.62670
 C1615 C 0.46479 0.84670 0.60524
 C1616 C 0.44270 0.83298 0.59157
 C1617 C 0.43214 0.80944 0.60195
 H1618 H 0.44073 0.80057 0.61954
 O1619 O 0.52443 1.13260 0.59494
 O1620 O 0.52429 1.16351 0.62593
 C1621 C 0.53332 1.15423 0.60429
 C1622 C 0.55472 1.16838 0.59009
 C1623 C 0.56363 1.19323 0.59896
 H1624 H 0.55435 1.20264 0.61592
 O1625 O 0.36742 0.90367 0.52505
 O1626 O 0.33648 0.87282 0.52484
 C1627 C 0.34570 0.89449 0.53384
 C1628 C 0.33151 0.90885 0.55520
 C1629 C 0.30604 0.90101 0.56318
 H1630 H 0.29609 0.88497 0.55289
 O1631 O 0.63047 1.09740 0.52564
 O1632 O 0.66120 1.12845 0.52579
 C1633 C 0.65174 1.10707 0.53507
 C1634 C 0.66508 1.09380 0.55764
 C1635 C 0.68767 1.10516 0.56937
 H1636 H 0.69589 1.12332 0.56145
 O1637 O 0.52449 1.09631 0.63129
 O1638 O 0.52418 1.12704 0.66246
 C1639 C 0.53332 1.10552 0.65305
 C1640 C 0.55478 1.09127 0.66719
 C1641 C 0.56309 1.09952 0.69249
 H1642 H 0.55329 1.11599 0.70224
 O1643 O 0.47373 0.90429 0.63238
 O1644 O 0.47405 0.87348 0.66336
 C1645 C 0.46475 0.89490 0.65394
 C1646 C 0.44265 0.90860 0.66759
 C1647 C 0.43231 0.89867 0.69146
 H1648 H 0.44111 0.88139 0.70069
 O1649 O 0.63093 1.02728 0.59536
 O1650 O 0.66173 1.02762 0.62643
 C1651 C 0.65226 1.03668 0.60491
 C1652 C 0.66557 1.05910 0.59147
 C1653 C 0.68858 1.07034 0.60241
 H1654 H 0.69772 1.06151 0.61974
 O1655 O 0.36725 0.97309 0.59524
 O1656 O 0.33614 0.97330 0.62594
 C1657 C 0.34561 0.96413 0.60444
 C1658 C 0.33166 0.94260 0.59010
 C1659 C 0.30648 0.93400 0.59825
 H1660 H 0.29700 0.94315 0.61524
 O1661 O 0.59386 1.13330 0.52490
 O1662 O 0.62448 1.16447 0.52494
 C1663 C 0.60295 1.15499 0.53390
 C1664 C 0.58871 1.16882 0.55554
 C1665 C 0.59738 1.19363 0.56474
 H1666 H 0.61422 1.20323 0.55555
 O1667 O 0.40400 0.86763 0.52573
 O1668 O 0.37322 0.83663 0.52585
 C1669 C 0.39465 0.84621 0.53501
 C1670 C 0.40839 0.83278 0.55722
 C1671 C 0.39822 0.80920 0.56785
 H1672 H 0.38084 0.80003 0.55914
 O1673 O 0.59526 0.97495 0.63142
 O1674 O 0.62626 0.97502 0.66230
 C1675 C 0.60481 0.96578 0.65286
 C1676 C 0.59128 0.94361 0.66649
 C1677 C 0.60185 0.93295 0.68995
 H1678 H 0.61944 0.94152 0.69884
 O1679 O 0.40362 1.02504 0.63121
 O1680 O 0.37288 1.02510 0.66229
 C1681 C 0.39436 1.03418 0.65279
 C1682 C 0.40833 1.05608 0.66652
 C1683 C 0.39938 1.06532 0.69123
 H1684 H 0.38269 1.05588 0.70086
 O1685 O 0.47282 1.13248 0.59470
 O1686 O 0.47266 1.16352 0.62558
 C1687 C 0.46381 1.15415 0.60390
 C1688 C 0.44238 1.16821 0.58954
 C1689 C 0.43420 1.19357 0.59760
 H1690 H 0.44434 1.20347 0.61378
 O1691 O 0.52554 0.86848 0.59569
 O1692 O 0.52595 0.83758 0.62658
 C1693 C 0.53493 0.84709 0.60507
 C1694 C 0.55723 0.83373 0.59140
 C1695 C 0.56855 0.81068 0.60214
 H1696 H 0.56033 0.80186 0.61990
 O1697 O 0.63150 0.90522 0.52536
 O1698 O 0.66292 0.87478 0.52530
 C1699 C 0.65328 0.89625 0.53433
 C1700 C 0.66718 0.91061 0.55590
 C1701 C 0.69203 0.90192 0.56501
 H1702 H 0.70153 0.88492 0.55588
 O1703 O 0.36699 1.09547 0.52540
 O1704 O 0.33592 1.12624 0.52573
 C1705 C 0.34556 1.10479 0.53476
 C1706 C 0.33224 1.09104 0.55697
 C1707 C 0.30909 1.10169 0.56821
 H1708 H 0.30028 1.11951 0.56006
 Cu1709 Cu 0.49956 0.88956 0.61084
 Cu1710 Cu 0.50002 0.85249 0.64796
 Cu1711 Cu 0.49867 1.11124 0.60985
 Cu1712 Cu 0.49836 1.14831 0.64710
 Cu1713 Cu 0.38902 0.88851 0.49952
 Cu1714 Cu 0.35218 0.85119 0.49943
 Cu1715 Cu 0.61012 0.88995 0.49958
 Cu1716 Cu 0.64772 0.85330 0.49963
 Cu1717 Cu 0.38774 1.11084 0.49943
 Cu1718 Cu 0.35032 1.14767 0.49956
 Cu1719 Cu 0.60930 1.11201 0.49935
 Cu1720 Cu 0.64626 1.14922 0.49943
 Cu1721 Cu 0.38851 0.99902 0.61017
 Cu1722 Cu 0.35140 0.99923 0.64727
 Cu1723 Cu 0.60999 1.00110 0.61028
 Cu1724 Cu 0.64709 1.00134 0.64745
 C1725 C 0.56868 0.93182 0.65518
 H1726 H 0.56070 0.93961 0.63682
 C1727 C 0.59037 0.91057 0.70167
 C1728 C 0.42989 1.06881 0.65434
 H1729 H 0.43669 1.06203 0.63512
 C1730 C 0.41166 1.08698 0.70360
 C1731 C 0.34364 1.06827 0.56836
 H1732 H 0.36182 1.06027 0.56019
 C1733 C 0.29775 1.09012 0.59072
 C1734 C 0.65505 0.93239 0.56839
 H1735 H 0.63570 0.93894 0.56174
 C1736 C 0.70469 0.91482 0.58618
 C1737 C 0.56872 0.84513 0.56871
 H1738 H 0.56043 0.86321 0.56063
 C1739 C 0.59129 0.79950 0.59080
 C1740 C 0.42923 1.15582 0.56832
 H1741 H 0.43541 1.13622 0.56206
 C1742 C 0.41280 1.20628 0.58510
 C1743 C 0.43052 0.93072 0.65575
 H1744 H 0.43806 0.93818 0.63710
 C1745 C 0.40992 0.91037 0.70308
 C1746 C 0.56779 1.06986 0.65496
 H1747 H 0.56167 1.06358 0.63532
 C1748 C 0.58410 1.08664 0.70541
 C1749 C 0.43080 0.84439 0.56907
 H1750 H 0.43851 0.86281 0.56124
 C1751 C 0.40977 0.79771 0.59037
 C1752 C 0.56718 1.15651 0.56816
 H1753 H 0.56064 1.13718 0.56142
 C1754 C 0.58475 1.20601 0.58623
 C1755 C 0.34393 0.92996 0.56850
 H1756 H 0.36358 0.93610 0.56246
 C1757 C 0.29325 0.91368 0.58447
 C1758 C 0.65418 1.07076 0.56885
 H1759 H 0.63630 1.06235 0.56043
 C1760 C 0.69925 1.09377 0.59196
 O1761 O 0.47390 0.40381 0.86843
 O1762 O 0.47406 0.37301 0.83733
 C1763 C 0.46471 0.39437 0.84694
 C1764 C 0.44229 0.40787 0.83354
 C1765 C 0.43072 0.39680 0.81071
 H1766 H 0.43870 0.37867 0.80233
 O1767 O 0.52497 0.59581 0.86863
 O1768 O 0.52490 0.62666 0.83769
 C1769 C 0.53412 0.60522 0.84716
 C1770 C 0.55638 0.59166 0.83364
 C1771 C 0.56749 0.60255 0.81059
 H1772 H 0.55904 0.62025 0.80182
 O1773 O 0.36867 0.47325 0.90539
 O1774 O 0.33751 0.47295 0.87468
 C1775 C 0.34728 0.46381 0.89604
 C1776 C 0.33412 0.44138 0.90960
 C1777 C 0.31113 0.43000 0.89877
 H1778 H 0.30232 0.43812 0.88092
 O1779 O 0.63184 0.52640 0.90473
 O1780 O 0.66260 0.52647 0.87369
 C1781 C 0.65324 0.53561 0.89523
 C1782 C 0.66683 0.55780 0.90889
 C1783 C 0.69050 0.56824 0.89868
 H1784 H 0.69956 0.55947 0.88126
 O1785 O 0.40553 0.36676 0.97535
 O1786 O 0.37464 0.33586 0.97561
 C1787 C 0.39600 0.34529 0.96623
 C1788 C 0.40916 0.33195 0.94361
 C1789 C 0.39789 0.30924 0.93206
 H1790 H 0.38053 0.30020 0.94085
 O1791 O 0.59517 0.63264 0.97466
 O1792 O 0.62569 0.66391 0.97454
 C1793 C 0.60418 0.65431 0.96559
 C1794 C 0.58981 0.66807 0.94399
 C1795 C 0.59846 0.69284 0.93476
 H1796 H 0.61544 0.70241 0.94383
 O1797 O 0.40383 0.52567 0.86910
 O1798 O 0.37257 0.52560 0.83848
 C1799 C 0.39413 0.53481 0.84772
 C1800 C 0.40763 0.55689 0.83396
 C1801 C 0.39724 0.56722 0.81028
 H1802 H 0.37987 0.55834 0.80126
 O1803 O 0.59559 0.47427 0.86874
 O1804 O 0.62631 0.47434 0.83766
 C1805 C 0.60496 0.46506 0.84724
 C1806 C 0.59147 0.44269 0.83378
 C1807 C 0.60231 0.43157 0.81063
 H1808 H 0.62002 0.43996 0.80190
 O1809 O 0.52573 0.36752 0.90469
 O1810 O 0.52574 0.33641 0.87389
 C1811 C 0.53474 0.34585 0.89548
 C1812 C 0.55633 0.33193 0.90975
 C1813 C 0.56486 0.30667 0.90161
 H1814 H 0.55526 0.29682 0.88507
 O1815 O 0.47319 0.63228 0.90472
 O1816 O 0.47308 0.66322 0.87386
 C1817 C 0.46412 0.65386 0.89543
 C1818 C 0.44252 0.66782 0.90958
 C1819 C 0.43355 0.69271 0.90091
 H1820 H 0.44280 0.70221 0.88403
 O1821 O 0.36770 0.59587 0.97493
 O1822 O 0.33659 0.62661 0.97485
 C1823 C 0.34603 0.60499 0.96591
 C1824 C 0.33202 0.59046 0.94451
 C1825 C 0.30694 0.59879 0.93565
 H1826 H 0.29755 0.61595 0.94457
 O1827 O 0.63255 0.40437 0.97385
 O1828 O 0.66343 0.37339 0.97366
 C1829 C 0.65401 0.39494 0.96463
 C1830 C 0.66763 0.40883 0.94267
 C1831 C 0.69139 0.39883 0.93210
 H1832 H 0.70054 0.38135 0.94062
 O1833 O 0.47317 0.59577 0.86862
 O1834 O 0.47297 0.62658 0.83763
 C1835 C 0.46391 0.60511 0.84713
 C1836 C 0.44177 0.59130 0.83364
 C1837 C 0.43098 0.60141 0.81002
 H1838 H 0.43945 0.61891 0.80092
 O1839 O 0.52579 0.40406 0.86860
 O1840 O 0.52606 0.37310 0.83767
 C1841 C 0.53509 0.39463 0.84717
 C1842 C 0.55729 0.40830 0.83371
 C1843 C 0.56838 0.39760 0.81049
 H1844 H 0.55993 0.37998 0.80153
 O1845 O 0.63224 0.47460 0.90469
 O1846 O 0.66300 0.47470 0.87364
 C1847 C 0.65374 0.46555 0.89518
 C1848 C 0.66755 0.44350 0.90879
 C1849 C 0.69131 0.43321 0.89854
 H1850 H 0.70032 0.44206 0.88118
 O1851 O 0.36771 0.52507 0.90566
 O1852 O 0.33634 0.52473 0.87517
 C1853 C 0.34584 0.53382 0.89668
 C1854 C 0.33178 0.55531 0.91101
 C1855 C 0.30646 0.56357 0.90285
 H1856 H 0.29655 0.55340 0.88669
 O1857 O 0.40362 0.63250 0.97460
 O1858 O 0.37273 0.66346 0.97459
 C1859 C 0.39427 0.65405 0.96555
 C1860 C 0.40834 0.66792 0.94390
 C1861 C 0.39970 0.69284 0.93502
 H1862 H 0.38305 0.70254 0.94453
 O1863 O 0.59622 0.36812 0.97411
 O1864 O 0.62695 0.33699 0.97411
 C1865 C 0.60534 0.34639 0.96517
 C1866 C 0.59090 0.33225 0.94383
 C1867 C 0.59910 0.30698 0.93543
 H1868 H 0.61570 0.29729 0.94504
 O1869 O 0.59533 0.52613 0.86861
 O1870 O 0.62605 0.52622 0.83753
 C1871 C 0.60459 0.53531 0.84708
 C1872 C 0.59085 0.55749 0.83361
 C1873 C 0.60168 0.56876 0.81058
 H1874 H 0.61955 0.56058 0.80189
 O1875 O 0.40434 0.47392 0.86857
 O1876 O 0.37319 0.47382 0.83783
 C1877 C 0.39485 0.46481 0.84704
 C1878 C 0.40849 0.44268 0.83329
 C1879 C 0.39778 0.43179 0.80996
 H1880 H 0.38060 0.44086 0.80076
 O1881 O 0.52483 0.63217 0.90493
 O1882 O 0.52470 0.66313 0.87409
 C1883 C 0.53376 0.65378 0.89567
 C1884 C 0.55534 0.66780 0.90982
 C1885 C 0.56423 0.69261 0.90096
 H1886 H 0.55475 0.70209 0.88416
 O1887 O 0.47399 0.36760 0.90457
 O1888 O 0.47397 0.33678 0.87348
 C1889 C 0.46477 0.34621 0.89497
 C1890 C 0.44249 0.33271 0.90843
 C1891 C 0.43054 0.31036 0.89686
 H1892 H 0.43816 0.30236 0.87842
 O1893 O 0.63173 0.59664 0.97435
 O1894 O 0.66239 0.62776 0.97416
 C1895 C 0.65310 0.60615 0.96509
 C1896 C 0.66674 0.59235 0.94303
 C1897 C 0.69043 0.60246 0.93253
 H1898 H 0.69953 0.61989 0.94122
 O1899 O 0.36952 0.40319 0.97538
 O1900 O 0.33859 0.37232 0.97556
 C1901 C 0.34802 0.39373 0.96627
 C1902 C 0.33441 0.40719 0.94400
 C1903 C 0.31136 0.39620 0.93287
 H1904 H 0.30274 0.37838 0.94116
 Cu1905 Cu 0.49989 0.38885 0.88966
 Cu1906 Cu 0.50004 0.35176 0.85244
 Cu1907 Cu 0.49904 0.61089 0.88980
 Cu1908 Cu 0.49891 0.64794 0.85265
 Cu1909 Cu 0.38926 0.49954 0.89025
 Cu1910 Cu 0.35177 0.49931 0.85347
 Cu1911 Cu 0.61067 0.50035 0.88981
 Cu1912 Cu 0.64755 0.50044 0.85249
 C1913 C 0.43100 0.43081 0.84469
 H1914 H 0.43925 0.43897 0.86279
 C1915 C 0.40827 0.40841 0.79904
 C1916 C 0.56805 0.56895 0.84487
 H1917 H 0.55992 0.56073 0.86295
 C1918 C 0.59030 0.59142 0.79930
 C1919 C 0.34551 0.42995 0.93237
 H1920 H 0.36354 0.43828 0.94054
 C1921 C 0.29986 0.40746 0.91027
 C1922 C 0.65523 0.56986 0.93121
 H1923 H 0.63673 0.56220 0.93891
 C1924 C 0.70217 0.59066 0.91024
 C1925 C 0.43168 0.34332 0.93184
 H1926 H 0.44031 0.36102 0.94044
 C1927 C 0.40804 0.29881 0.90833
 C1928 C 0.56805 0.65584 0.93155
 H1929 H 0.56151 0.63655 0.93829
 C1930 C 0.58558 0.70528 0.91348
 C1931 C 0.43006 0.56891 0.84534
 H1932 H 0.43794 0.56130 0.86382
 C1933 C 0.40860 0.58964 0.79849
 C1934 C 0.56884 0.43101 0.84507
 H1935 H 0.56071 0.43912 0.86323
 C1936 C 0.59108 0.40889 0.79918
 C1937 C 0.56932 0.34442 0.93106
 H1938 H 0.56309 0.36403 0.93723
 C1939 C 0.58599 0.29402 0.91458
 C1940 C 0.42996 0.65572 0.93125
 H1941 H 0.43654 0.63636 0.93781
 C1942 C 0.41240 0.70542 0.91376
 C1943 C 0.34418 0.56860 0.93215
 H1944 H 0.36375 0.56241 0.93847
 C1945 C 0.29382 0.58511 0.91521
 C1946 C 0.65601 0.43133 0.93101
 H1947 H 0.63745 0.43888 0.93873
 C1948 C 0.70310 0.41080 0.90993
 O1949 O 0.52653 0.40573 1.13286
 O1950 O 0.52693 0.37528 1.16419
 C1951 C 0.53556 0.39691 1.15465
 C1952 C 0.55690 0.41152 1.16856
 C1953 C 0.56512 0.40380 1.19401
 H1954 H 0.55495 0.38785 1.20414
 O1955 O 0.47438 0.59601 1.13290
 O1956 O 0.47455 0.62668 1.16414
 C1957 C 0.46551 0.60517 1.15465
 C1958 C 0.44414 0.59083 1.16868
 C1959 C 0.43553 0.59912 1.19385
 H1960 H 0.44466 0.61611 1.20334
 O1961 O 0.36839 0.52673 1.09652
 O1962 O 0.33761 0.52672 1.12754
 C1963 C 0.34692 0.53587 1.10603
 C1964 C 0.33310 0.55786 1.09233
 C1965 C 0.30908 0.56790 1.10224
 H1966 H 0.29994 0.55901 1.11951
 O1967 O 0.63328 0.47472 1.09539
 O1968 O 0.66439 0.47481 1.12615
 C1969 C 0.65490 0.46570 1.10462
 C1970 C 0.66873 0.44400 1.09041
 C1971 C 0.69376 0.43516 1.09884
 H1972 H 0.70349 0.44458 1.11555
 O1973 O 0.59640 0.36846 1.02581
 O1974 O 0.62718 0.33738 1.02581
 C1975 C 0.60566 0.34686 1.03485
 C1976 C 0.59159 0.33306 1.05656
 C1977 C 0.59959 0.30768 1.06471
 H1978 H 0.61541 0.29756 1.05427
 O1979 O 0.40432 0.63248 1.02626
 O1980 O 0.37340 0.66342 1.02637
 C1981 C 0.39502 0.65405 1.03536
 C1982 C 0.40894 0.66773 1.05735
 C1983 C 0.39903 0.69163 1.06767
 H1984 H 0.38212 0.70114 1.05843
 O1985 O 0.40479 0.47455 1.13221
 O1986 O 0.37384 0.47430 1.16306
 C1987 C 0.39539 0.46528 1.15363
 C1988 C 0.40903 0.44309 1.16715
 C1989 C 0.39846 0.43233 1.19051
 H1990 H 0.38134 0.44146 1.19976
 O1991 O 0.59703 0.52654 1.13162
 O1992 O 0.62783 0.52666 1.16270
 C1993 C 0.60623 0.53560 1.15327
 C1994 C 0.59174 0.55693 1.16736
 C1995 C 0.59982 0.56536 1.19267
 H1996 H 0.61686 0.55627 1.20210
 O1997 O 0.47591 0.36785 1.09659
 O1998 O 0.47640 0.33715 1.12768
 C1999 C 0.46715 0.34625 1.10608
 C2000 C 0.44527 0.33225 1.09240
 C2001 C 0.43479 0.30870 1.10290
 H2002 H 0.44346 0.29989 1.12048
 O2003 O 0.52566 0.63239 1.09631
 O2004 O 0.52577 0.66333 1.12727
 C2005 C 0.53463 0.65403 1.10558
 C2006 C 0.55598 0.66812 1.09124
 C2007 C 0.56437 0.69335 1.09952
 H2008 H 0.55465 0.70309 1.11603
 O2009 O 0.36960 0.40344 1.02716
 O2010 O 0.33856 0.37270 1.02736
 C2011 C 0.34799 0.39432 1.03624
 C2012 C 0.33393 0.40880 1.05759
 C2013 C 0.30914 0.40004 1.06665
 H2014 H 0.30012 0.38256 1.05800
 O2015 O 0.63215 0.59659 1.02608
 O2016 O 0.66282 0.62770 1.02603
 C2017 C 0.65369 0.60605 1.03505
 C2018 C 0.66778 0.59211 1.05672
 C2019 C 0.69198 0.60181 1.06649
 H2020 H 0.70110 0.61903 1.05751
 O2021 O 0.52603 0.59566 1.13225
 O2022 O 0.52620 0.62637 1.16345
 C2023 C 0.53512 0.60479 1.15392
 C2024 C 0.55666 0.59044 1.16782
 C2025 C 0.56463 0.59813 1.19339
 H2026 H 0.55432 0.61405 1.20351
 O2027 O 0.47476 0.40450 1.13236
 O2028 O 0.47508 0.37386 1.16352
 C2029 C 0.46551 0.39503 1.15376
 C2030 C 0.44288 0.40835 1.16695
 C2031 C 0.43138 0.39734 1.18978
 H2032 H 0.43939 0.37928 1.19819
 O2033 O 0.63333 0.52647 1.09543
 O2034 O 0.66433 0.52670 1.12630
 C2035 C 0.65482 0.53570 1.10477
 C2036 C 0.66836 0.55767 1.09084
 C2037 C 0.69253 0.56772 1.10035
 H2038 H 0.70199 0.55882 1.11748
 O2039 O 0.36851 0.47495 1.09584
 O2040 O 0.33745 0.47492 1.12658
 C2041 C 0.34689 0.46593 1.10499
 C2042 C 0.33312 0.44418 1.09081
 C2043 C 0.30803 0.43552 1.09913
 H2044 H 0.29802 0.44561 1.11526
 O2045 O 0.59553 0.63263 1.02639
 O2046 O 0.62602 0.66392 1.02631
 C2047 C 0.60461 0.65433 1.03541
 C2048 C 0.59032 0.66821 1.05701
 C2049 C 0.59855 0.69336 1.06573
 H2050 H 0.61530 0.70300 1.05641
 O2051 O 0.40599 0.36709 1.02716
 O2052 O 0.37507 0.33624 1.02751
 C2053 C 0.39667 0.34565 1.03642
 C2054 C 0.41065 0.33206 1.05837
 C2055 C 0.40046 0.30856 1.06918
 H2056 H 0.38284 0.29956 1.06081
 O2057 O 0.59721 0.47493 1.13191
 O2058 O 0.62810 0.47497 1.16291
 C2059 C 0.60647 0.46603 1.15359
 C2060 C 0.59201 0.44487 1.16784
 C2061 C 0.60038 0.43640 1.19304
 H2062 H 0.61759 0.44535 1.20228
 O2063 O 0.40494 0.52617 1.13272
 O2064 O 0.37430 0.52594 1.16389
 C2065 C 0.39588 0.53492 1.15455
 C2066 C 0.41030 0.55620 1.16876
 C2067 C 0.40233 0.56440 1.19415
 H2068 H 0.38610 0.55441 1.20401
 O2069 O 0.47394 0.63201 1.09645
 O2070 O 0.47393 0.66280 1.12756
 C2071 C 0.46473 0.65343 1.10601
 C2072 C 0.44265 0.66713 1.09229
 C2073 C 0.43195 0.69064 1.10273
 H2074 H 0.44021 0.69923 1.12064
 O2075 O 0.52757 0.36899 1.09684
 O2076 O 0.52814 0.33830 1.12794
 C2077 C 0.53698 0.34763 1.10629
 C2078 C 0.55852 0.33370 1.09197
 C2079 C 0.56740 0.30868 1.10036
 H2080 H 0.55867 0.29948 1.11768
 O2081 O 0.63281 0.40459 1.02561
 O2082 O 0.66381 0.37373 1.02555
 C2083 C 0.65446 0.39534 1.03458
 C2084 C 0.66850 0.40959 1.05613
 C2085 C 0.69356 0.40108 1.06482
 H2086 H 0.70320 0.38441 1.05527
 O2087 O 0.36781 0.59655 1.02674
 O2088 O 0.33675 0.62735 1.02677
 C2089 C 0.34633 0.60595 1.03597
 C2090 C 0.33285 0.59221 1.05811
 C2091 C 0.30893 0.60206 1.06845
 H2092 H 0.29964 0.61937 1.05974
 Cu2093 Cu 0.50121 0.38984 1.11155
 Cu2094 Cu 0.50179 0.35310 1.14900
 Cu2095 Cu 0.50002 0.61095 1.11136
 Cu2096 Cu 0.50019 0.64793 1.14870
 Cu2097 Cu 0.39078 0.38819 1.00130
 Cu2098 Cu 0.35362 0.35116 1.00161
 Cu2099 Cu 0.61143 0.38950 0.99984
 Cu2100 Cu 0.64847 0.35228 0.99979
 Cu2101 Cu 0.38894 0.61125 1.00059
 Cu2102 Cu 0.35174 0.64831 1.00061
 Cu2103 Cu 0.61059 0.61151 1.00040
 Cu2104 Cu 0.64733 0.64894 1.00027
 Cu2105 Cu 0.38972 0.50065 1.11120
 Cu2106 Cu 0.35268 0.50047 1.14836
 Cu2107 Cu 0.61215 0.50063 1.11047
 Cu2108 Cu 0.64932 0.50078 1.14759
 C2109 C 0.57016 0.43240 1.15585
 H2110 H 0.56397 0.43839 1.13617
 C2111 C 0.58669 0.41626 1.20646
 C2112 C 0.43151 0.56925 1.15640
 H2113 H 0.43769 0.56309 1.13675
 C2114 C 0.41500 0.58567 1.20692
 C2115 C 0.34467 0.56999 1.07008
 H2116 H 0.36336 0.56257 1.06254
 C2117 C 0.29709 0.59001 1.09048
 C2118 C 0.65640 0.43125 1.06887
 H2119 H 0.63694 0.43773 1.06247
 C2120 C 0.70635 0.41396 1.08592
 C2121 C 0.57071 0.34569 1.07000
 H2122 H 0.56440 0.36524 1.06377
 C2123 C 0.58744 0.29525 1.08642
 C2124 C 0.43102 0.65585 1.06956
 H2125 H 0.43865 0.63730 1.06185
 C2126 C 0.40995 0.70276 1.09075
 C2127 C 0.43150 0.43120 1.15573
 H2128 H 0.43970 0.43932 1.13764
 C2129 C 0.40894 0.40900 1.20141
 C2130 C 0.57005 0.56952 1.15516
 H2131 H 0.56402 0.56350 1.13542
 C2132 C 0.58601 0.58553 1.20604
 C2133 C 0.43323 0.34359 1.06995
 H2134 H 0.44089 0.36200 1.06205
 C2135 C 0.41230 0.29702 1.09152
 C2136 C 0.56886 0.65588 1.06975
 H2137 H 0.56266 0.63632 1.06341
 C2138 C 0.58541 0.70617 1.08667
 C2139 C 0.34569 0.43098 1.06970
 H2140 H 0.36508 0.43749 1.06323
 C2141 C 0.29582 0.41362 1.08699
 C2142 C 0.65627 0.56986 1.06887
 H2143 H 0.63740 0.56252 1.06171
 C2144 C 0.70422 0.58987 1.08841
 C2145 C 1.09859 1.12194 1.23664
 C2146 C 1.10804 1.13171 1.26066
 C2147 C 1.11327 1.11473 1.28214
 C2148 C 1.10664 1.08734 1.27958
 C2149 C 1.09650 1.07752 1.25509
 C2150 C 1.09327 1.09492 1.23322
 C2151 C 1.08881 1.05072 1.25370
 N2152 N 1.09120 1.03489 1.27524
 N2153 N 1.10031 1.04409 1.29825
 C2154 C 1.10777 1.06972 1.30126
 H2155 H 1.09603 1.13562 1.22029
 H2156 H 1.11270 1.15264 1.26189
 H2157 H 1.08024 1.04227 1.23595
 H2158 H 1.11368 1.07614 1.32082
 C2159 C 1.10238 0.58736 0.74929
 C2160 C 1.11281 0.59749 0.77280
 C2161 C 1.12342 0.62312 0.77378
 C2162 C 1.12415 0.63862 0.75036
 C2163 C 1.11355 0.62829 0.72640
 C2164 C 1.10225 0.60256 0.72607
 C2165 C 1.11530 0.64389 0.70334
 N2166 N 1.12664 0.66822 0.70444
 N2167 N 1.13654 0.67792 0.72694
 C2168 C 1.13580 0.66395 0.74988
 H2169 H 1.09403 0.56758 0.74927
 H2170 H 1.11229 0.58535 0.79050
 H2171 H 1.10809 0.63689 0.68439
 H2172 H 1.14462 0.67266 0.76738
 C2173 C 0.60244 1.12218 0.73383
 C2174 C 0.61222 1.13192 0.75777
 C2175 C 0.61309 1.11587 0.78039
 C2176 C 0.60309 1.08964 0.77901
 C2177 C 0.59305 1.07972 0.75462
 C2178 C 0.59318 1.09608 0.73176
 C2179 C 0.58260 1.05388 0.75413
 N2180 N 0.58254 1.03903 0.77652
 N2181 N 0.59201 1.04831 0.79938
 C2182 C 0.60217 1.07310 0.80143
 H2183 H 0.60256 1.13498 0.71659
 H2184 H 0.61970 1.15204 0.75852
 H2185 H 0.57415 1.04545 0.73631
 H2186 H 0.60910 1.07973 0.82062
 C2187 C 0.60047 0.62177 1.23570
 C2188 C 0.60974 0.63177 1.25966
 C2189 C 0.61445 0.61507 1.28149
 C2190 C 0.60761 0.58770 1.27922
 C2191 C 0.59780 0.57762 1.25470
 C2192 C 0.59492 0.59478 1.23260
 C2193 C 0.59008 0.55082 1.25348
 N2194 N 0.59201 0.53527 1.27528
 N2195 N 0.60069 0.54475 1.29834
 C2196 C 0.60821 0.57039 1.30115
 H2197 H 0.59821 0.63525 1.21914
 H2198 H 0.61469 0.65265 1.26056
 H2199 H 0.58189 0.54218 1.23566
 H2200 H 0.61376 0.57706 1.32074
 C2201 C 0.90979 0.88837 1.24520
 C2202 C 0.89875 0.87685 1.26763
 C2203 C 0.87145 0.87156 1.26910
 C2204 C 0.85541 0.87618 1.24625
 C2205 C 0.86693 0.88732 1.22308
 C2206 C 0.89420 0.89430 1.22300
 C2207 C 0.85097 0.88995 1.20027
 N2208 N 0.82527 0.88225 1.20078
 N2209 N 0.81450 0.87165 1.22237
 C2210 C 0.82868 0.86809 1.24493
 H2211 H 0.93072 0.89316 1.24536
 H2212 H 0.91154 0.87336 1.28457
 H2213 H 0.85875 0.89736 1.18177
 H2214 H 0.81905 0.85818 1.26124
 C2215 C 0.90160 0.37715 0.73522
 C2216 C 0.89183 0.36696 0.75885
 C2217 C 0.88540 0.38365 0.78027
 C2218 C 0.89113 0.41125 0.77813
 C2219 C 0.90174 0.42152 0.75409
 C2220 C 0.90616 0.40434 0.73218
 C2221 C 0.90867 0.44854 0.75321
 N2222 N 0.90503 0.46417 0.77479
 N2223 N 0.89538 0.45457 0.79735
 C2224 C 0.88862 0.42871 0.79987
 H2225 H 0.90502 0.36363 0.71884
 H2226 H 0.88783 0.34587 0.75976
 H2227 H 0.91761 0.45732 0.73588
 H2228 H 0.88216 0.42200 0.81913
 C2229 C 0.41323 0.89969 0.75085
 C2230 C 0.40294 0.88992 0.77452
 C2231 C 0.37736 0.87919 0.77546
 C2232 C 0.36211 0.87761 0.75188
 C2233 C 0.37262 0.88747 0.72776
 C2234 C 0.39827 0.89895 0.72744
 C2235 C 0.35729 0.88484 0.70455
 N2236 N 0.33302 0.87340 0.70567
 N2237 N 0.32312 0.86422 0.72833
 C2238 C 0.33684 0.86583 0.75142
 H2239 H 0.43294 0.90820 0.75083
 H2240 H 0.41491 0.89099 0.79235
 H2241 H 0.36445 0.89143 0.68548
 H2242 H 0.32796 0.85760 0.76908
 C2243 C 0.41226 0.39100 1.24693
 C2244 C 0.40152 0.38025 1.26990
 C2245 C 0.37418 0.37547 1.27209
 C2246 C 0.35771 0.37980 1.24949
 C2247 C 0.36892 0.39005 1.22576
 C2248 C 0.39629 0.39659 1.22491
 C2249 C 0.35253 0.39225 1.20321
 N2250 N 0.32670 0.38509 1.20451
 N2251 N 0.31620 0.37540 1.22665
 C2252 C 0.33080 0.37223 1.24900
 H2253 H 0.43326 0.39548 1.24654
 H2254 H 0.41461 0.37687 1.28663
 H2255 H 0.36005 0.39888 1.18431
 H2256 H 0.32131 0.36303 1.26580
 C2257 C 0.91011 1.10740 0.75258
 C2258 C 0.89944 1.11943 0.73014
 C2259 C 0.87300 1.12824 0.72973
 C2260 C 0.85782 1.12673 0.75350
 C2261 C 0.86898 1.11492 0.77653
 C2262 C 0.89503 1.10438 0.77566
 C2263 C 0.85414 1.11528 0.80015
 N2264 N 0.82992 1.12686 0.80065
 N2265 N 0.81950 1.13816 0.77922
 C2266 C 0.83261 1.13864 0.75578
 H2267 H 0.93028 1.10005 0.75181
 H2268 H 0.91163 1.12067 0.71250
 H2269 H 0.86176 1.10715 0.81845
 H2270 H 0.82351 1.14919 0.73952
 C2271 C 0.88002 0.60352 0.26473
 C2272 C 0.87044 0.61337 0.24082
 C2273 C 0.88640 0.61364 0.21809
 C2274 C 0.91243 0.60303 0.21941
 C2275 C 0.92224 0.59309 0.24386
 C2276 C 0.90590 0.59368 0.26672
 C2277 C 0.94795 0.58226 0.24441
 N2278 N 0.96274 0.58162 0.22198
 N2279 N 0.95350 0.59084 0.19903
 C2280 C 0.92885 0.60138 0.19693
 H2281 H 0.86728 0.60403 0.28201
 H2282 H 0.85049 0.62132 0.24015
 H2283 H 0.95633 0.57401 0.26233
 H2284 H 0.92225 0.60802 0.17765
 C2285 C 0.37545 1.10017 0.26619
 C2286 C 0.36491 1.11015 0.24279
 C2287 C 0.38117 1.11588 0.22091
 C2288 C 0.40863 1.10922 0.22237
 C2289 C 0.41926 1.09855 0.24624
 C2290 C 0.40257 1.09481 0.26856
 C2291 C 0.44610 1.09091 0.24658
 N2292 N 0.46122 1.09382 0.22458
 N2293 N 0.45124 1.10342 0.20213
 C2294 C 0.42551 1.11091 0.20016
 H2295 H 0.36232 1.09727 0.28293
 H2296 H 0.34395 1.11490 0.24245
 H2297 H 0.45513 1.08200 0.26384
 H2298 H 0.41842 1.11730 0.18099
 C2299 C 0.41161 0.60152 0.75103
 C2300 C 0.40117 0.61184 0.72763
 C2301 C 0.37542 0.62218 0.72690
 C2302 C 0.36006 0.62274 0.75042
 C2303 C 0.37072 0.61233 0.77429
 C2304 C 0.39660 0.60130 0.77438
 C2305 C 0.35529 0.61401 0.79749
 N2306 N 0.33078 0.62503 0.79658
 N2307 N 0.32075 0.63469 0.77415
 C2308 C 0.33456 0.63403 0.75110
 H2309 H 0.43149 0.59338 0.75087
 H2310 H 0.41320 0.61153 0.70984
 H2311 H 0.36254 0.60701 0.81640
 H2312 H 0.32555 0.64262 0.73365
 C2313 C 1.12083 0.89602 0.76361
 C2314 C 1.13066 0.88686 0.73949
 C2315 C 1.11453 0.88607 0.71688
 C2316 C 1.08807 0.89549 0.71850
 C2317 C 1.07804 0.90486 0.74311
 C2318 C 1.09455 0.90471 0.76592
 C2319 C 1.05195 0.91471 0.74385
 N2320 N 1.03697 0.91484 0.72150
 N2321 N 1.04637 0.90603 0.69844
 C2322 C 1.07140 0.89649 0.69614
 H2323 H 1.13376 0.89592 0.78080
 H2324 H 1.15093 0.87980 0.73858
 H2325 H 1.04340 0.92262 0.76185
 H2326 H 1.07810 0.89014 0.67678
 C2327 C 1.08994 0.39399 0.25101
 C2328 C 1.10108 0.38301 0.22826
 C2329 C 1.12706 0.37322 0.22850
 C2330 C 1.14189 0.37382 0.25238
 C2331 C 1.13052 0.38494 0.27559
 C2332 C 1.10446 0.39548 0.27464
 C2333 C 1.14546 0.38450 0.29919
 N2334 N 1.17019 0.37392 0.29926
 N2335 N 1.18088 0.36357 0.27744
 C2336 C 1.16758 0.36306 0.25406
 H2337 H 1.06992 0.40176 0.25009
 H2338 H 1.08947 0.38249 0.21017
 H2339 H 1.13767 0.39212 0.31765
 H2340 H 1.17710 0.35395 0.23714
 C2341 C 0.62144 0.90035 0.26421
 C2342 C 0.63185 0.89109 0.24043
 C2343 C 0.61552 0.88623 0.21832
 C2344 C 0.58807 0.89298 0.22011
 C2345 C 0.57754 0.90272 0.24445
 C2346 C 0.59435 0.90575 0.26685
 C2347 C 0.55067 0.91026 0.24521
 N2348 N 0.53546 0.90827 0.22314
 N2349 N 0.54537 0.89970 0.20023
 C2350 C 0.57110 0.89234 0.19786
 H2351 H 0.63466 0.90275 0.28100
 H2352 H 0.65278 0.88623 0.23992
 H2353 H 0.54169 0.91835 0.26290
 H2354 H 0.57812 0.88688 0.17838
 C2355 C 0.60485 0.41115 0.75218
 C2356 C 0.61597 0.40031 0.72933
 C2357 C 0.62617 0.37449 0.72937
 C2358 C 0.62585 0.35953 0.75312
 C2359 C 0.61470 0.37062 0.77646
 C2360 C 0.60368 0.39650 0.77573
 C2361 C 0.61558 0.35559 0.79994
 N2362 N 0.62650 0.33102 0.79977
 N2363 N 0.63677 0.32054 0.77781
 C2364 C 0.63690 0.33395 0.75452
 H2365 H 0.59676 0.43104 0.75141
 H2366 H 0.61627 0.41200 0.71132
 H2367 H 0.60804 0.36321 0.81851
 H2368 H 0.64591 0.32461 0.73745
 C2369 C 1.24842 1.08942 1.10298
 C2370 C 1.27132 1.10034 1.11382
 C2371 C 1.27101 1.12569 1.12521
 C2372 C 1.24689 1.14011 1.12622
 C2373 C 1.22355 1.12900 1.11512
 C2374 C 1.22454 1.10355 1.10317
 C2375 C 1.19978 1.14352 1.11700
 N2376 N 1.19961 1.16756 1.12907
 N2377 N 1.22150 1.17797 1.13954
 C2378 C 1.24507 1.16506 1.13864
 H2379 H 1.24938 1.06987 1.09409
 H2380 H 1.28957 1.08901 1.11309
 H2381 H 1.18129 1.13590 1.10931
 H2382 H 1.26203 1.17429 1.14793
 C2383 C 1.23210 0.62277 0.60374
 C2384 C 1.25541 0.63299 0.61434
 C2385 C 1.27837 0.61742 0.61590
 C2386 C 1.27796 0.59117 0.60580
 C2387 C 1.25416 0.58073 0.59498
 C2388 C 1.23098 0.59665 0.59434
 C2389 C 1.25458 0.55484 0.58456
 N2390 N 1.27728 0.54044 0.58520
 N2391 N 1.29961 0.55024 0.59534
 C2392 C 1.30077 0.57510 0.60553
 H2393 H 1.21458 0.63521 0.60334
 H2394 H 1.25541 0.65311 0.62189
 H2395 H 1.23723 0.54602 0.57559
 H2396 H 1.31958 0.58215 0.61300
 C2397 C 0.74469 1.11194 0.58925
 C2398 C 0.76738 1.12309 0.60023
 C2399 C 0.76909 1.12860 0.62753
 C2400 C 0.74629 1.12431 0.64366
 C2401 C 0.72272 1.11382 0.63214
 C2402 C 0.72243 1.10664 0.60487
 C2403 C 0.69978 1.11194 0.64784
 N2404 N 0.70043 1.11929 0.67358
 N2405 N 0.72323 1.12903 0.68474
 C2406 C 0.74657 1.13234 0.67046
 H2407 H 0.74469 1.10693 0.56833
 H2408 H 0.78429 1.12610 0.58735
 H2409 H 0.68108 1.10527 0.63981
 H2410 H 0.73528 1.13336 0.68828
 C2411 C 0.75206 0.58565 1.09825
 C2412 C 0.77603 0.59534 1.10797
 C2413 C 0.77760 0.62073 1.11915
 C2414 C 0.75436 0.63643 1.12120
 C2415 C 0.72995 0.62655 1.11132
 C2416 C 0.72899 0.60107 1.09945
 C2417 C 0.70711 0.64232 1.11434
 N2418 N 0.70882 0.66639 1.12622
 N2419 N 0.73174 0.67567 1.13547
 C2420 C 0.75450 0.66151 1.13349
 H2421 H 0.75155 0.56604 1.08945
 H2422 H 0.79359 0.58305 1.10651
 H2423 H 0.68786 0.63566 1.10770
 H2424 H 0.77238 0.66988 1.14183
 C2425 C 1.23520 0.87777 0.90075
 C2426 C 1.25903 0.86766 0.89134
 C2427 C 1.28038 0.88443 0.88517
 C2428 C 1.27791 0.91206 0.89075
 C2429 C 1.25366 0.92226 0.90099
 C2430 C 1.23186 0.90498 0.90520
 C2431 C 1.25244 0.94932 0.90780
 N2432 N 1.27390 0.96505 0.90438
 N2433 N 1.29667 0.95552 0.89508
 C2434 C 1.29951 0.92963 0.88846
 H2435 H 1.21892 0.86418 0.90402
 H2436 H 1.26018 0.84656 0.88743
 H2437 H 1.23492 0.95806 0.91646
 H2438 H 1.31890 0.92299 0.88230
 C2439 C 1.23291 0.37777 0.39744
 C2440 C 1.25615 0.36701 0.38734
 C2441 C 1.27794 0.38313 0.38106
 C2442 C 1.27656 0.41074 0.38707
 C2443 C 1.25291 0.42159 0.39801
 C2444 C 1.23066 0.40498 0.40248
 C2445 C 1.25276 0.44857 0.40525
 N2446 N 1.27465 0.46363 0.40155
 N2447 N 1.29686 0.45349 0.39157
 C2448 C 1.29868 0.42762 0.38451
 H2449 H 1.21623 0.36470 0.40083
 H2450 H 1.25650 0.34594 0.38309
 H2451 H 1.23574 0.45776 0.41444
 H2452 H 1.31768 0.42045 0.37777
 C2453 C 0.72773 0.87638 0.39103
 C2454 C 0.75044 0.86532 0.37996
 C2455 C 0.77384 0.88007 0.37794
 C2456 C 0.77453 0.90635 0.38792
 C2457 C 0.75138 0.91762 0.39927
 C2458 C 0.72773 0.90251 0.40047
 C2459 C 0.75292 0.94347 0.40968
 N2460 N 0.77606 0.95707 0.40848
 N2461 N 0.79777 0.94651 0.39779
 C2462 C 0.79784 0.92162 0.38759
 H2463 H 0.70984 0.86455 0.39190
 H2464 H 0.74967 0.84515 0.37255
 H2465 H 0.73611 0.95289 0.41906
 H2466 H 0.81620 0.91394 0.37962
 C2467 C 0.75072 0.41404 0.89880
 C2468 C 0.77413 0.40399 0.88813
 C2469 C 0.77472 0.37889 0.87622
 C2470 C 0.75100 0.36394 0.87433
 C2471 C 0.72717 0.37417 0.88522
 C2472 C 0.72725 0.39927 0.89790
 C2473 C 0.70385 0.35912 0.88244
 N2474 N 0.70456 0.33539 0.86978
 N2475 N 0.72692 0.32579 0.85955
 C2476 C 0.75011 0.33926 0.86129
 H2477 H 0.75097 0.43339 0.90818
 H2478 H 0.79207 0.41570 0.88954
 H2479 H 0.68501 0.36608 0.88991
 H2480 H 0.76749 0.33068 0.85215
 C2481 C 0.75057 0.91211 1.10109
 C2482 C 0.72710 0.90207 1.11153
 C2483 C 0.72638 0.87686 1.12312
 C2484 C 0.75002 0.86174 1.12484
 C2485 C 0.77395 0.87200 1.11427
 C2486 C 0.77402 0.89725 1.10195
 C2487 C 0.79722 0.85683 1.11702
 N2488 N 0.79635 0.83295 1.12929
 N2489 N 0.77388 0.82331 1.13915
 C2490 C 0.75073 0.83689 1.13744
 H2491 H 0.75039 0.93155 1.09198
 H2492 H 0.70922 0.91392 1.11026
 H2493 H 0.81613 0.86381 1.10984
 H2494 H 0.73322 0.82826 1.14622
 C2495 C 0.75368 0.38974 0.58846
 C2496 C 0.73110 0.37819 0.59918
 C2497 C 0.72991 0.37118 0.62614
 C2498 C 0.75320 0.37410 0.64198
 C2499 C 0.77638 0.38558 0.63082
 C2500 C 0.77621 0.39420 0.60404
 C2501 C 0.79943 0.38692 0.64657
 N2502 N 0.79924 0.37743 0.67169
 N2503 N 0.77774 0.36628 0.68202
 C2504 C 0.75491 0.36401 0.66802
 H2505 H 0.75338 0.39576 0.56784
 H2506 H 0.71387 0.37604 0.58649
 H2507 H 0.81784 0.39477 0.63903
 H2508 H 0.73868 0.35354 0.67718
 C2509 C 0.26322 0.87757 0.59853
 C2510 C 0.23914 0.86779 0.60761
 C2511 C 0.21751 0.88474 0.61245
 C2512 C 0.22006 0.91212 0.60585
 C2513 C 0.24462 0.92197 0.59610
 C2514 C 0.26659 0.90458 0.59319
 C2515 C 0.24601 0.94876 0.58841
 N2516 N 0.22437 0.96455 0.59044
 N2517 N 0.20130 0.95532 0.59918
 C2518 C 0.19831 0.92970 0.60662
 H2519 H 0.27965 0.86391 0.59621
 H2520 H 0.23795 0.84687 0.61228
 H2521 H 0.26382 0.95722 0.58014
 H2522 H 0.17870 0.92326 0.61222
 C2523 C 0.26777 0.39841 1.12411
 C2524 C 0.24462 0.38798 1.13468
 C2525 C 0.22278 0.38182 1.11844
 C2526 C 0.22405 0.38837 1.09095
 C2527 C 0.24768 0.39944 1.08028
 C2528 C 0.26994 0.40376 1.09698
 C2529 C 0.24782 0.40693 1.05339
 N2530 N 0.22587 0.40353 1.03826
 N2531 N 0.20363 0.39359 1.04827
 C2532 C 0.20185 0.38621 1.07404
 H2533 H 0.28448 0.40171 1.13724
 H2534 H 0.24442 0.38333 1.15566
 H2535 H 0.26489 0.41609 1.04433
 H2536 H 0.18282 0.37954 1.08114
 C2537 C 0.74995 1.10577 0.91596
 C2538 C 0.72640 1.11617 0.90603
 C2539 C 0.72210 1.11880 0.87858
 C2540 C 0.74313 1.11200 0.86090
 C2541 C 0.76741 1.10167 0.87121
 C2542 C 0.77051 1.09808 0.89897
 C2543 C 0.78889 1.09583 0.85446
 N2544 N 0.78527 1.10026 0.82761
 N2545 N 0.76153 1.11101 0.81741
 C2546 C 0.74033 1.11737 0.83365
 H2547 H 0.75195 1.10329 0.93721
 H2548 H 0.71089 1.12102 0.92008
 H2549 H 0.79484 1.09550 0.83425
 H2550 H 0.75016 1.11584 0.81506
 C2551 C 0.76692 0.61952 0.39309
 C2552 C 0.74311 0.62951 0.38338
 C2553 C 0.72002 0.61411 0.38358
 C2554 C 0.72092 0.58816 0.39439
 C2555 C 0.74528 0.57790 0.40414
 C2556 C 0.76846 0.59374 0.40323
 C2557 C 0.74543 0.55230 0.41515
 N2558 N 0.72270 0.53802 0.41619
 N2559 N 0.69983 0.54769 0.40720
 C2560 C 0.69812 0.57227 0.39648
 H2561 H 0.78444 0.63190 0.39236
 H2562 H 0.74278 0.64939 0.37527
 H2563 H 0.76328 0.54360 0.42322
 H2564 H 0.67890 0.57923 0.39006
 C2565 C 0.26150 1.09675 0.37832
 C2566 C 0.23731 1.10564 0.36850
 C2567 C 0.21599 1.11124 0.38555
 C2568 C 0.21884 1.10544 0.41310
 C2569 C 0.24346 1.09576 0.42299
 C2570 C 0.26523 1.09228 0.40548
 C2571 C 0.24509 1.08875 0.44997
 N2572 N 0.22366 1.09146 0.46593
 N2573 N 0.20057 1.10024 0.45668
 C2574 C 0.19733 1.10700 0.43088
 H2575 H 0.27773 1.09398 0.36454
 H2576 H 0.23586 1.10968 0.34744
 H2577 H 0.26291 1.08048 0.45848
 H2578 H 0.17772 1.11271 0.42445
 C2579 C 0.26501 0.60008 0.87844
 C2580 C 0.24130 0.60956 0.86804
 C2581 C 0.21918 0.61424 0.88436
 C2582 C 0.22086 0.60711 0.91171
 C2583 C 0.24512 0.59714 0.92221
 C2584 C 0.26754 0.59430 0.90546
 C2585 C 0.24576 0.58920 0.94897
 N2586 N 0.22366 0.59103 0.96410
 N2587 N 0.20084 0.59982 0.95421
 C2588 C 0.19858 0.60758 0.92859
 H2589 H 0.28182 0.59782 0.86527
 H2590 H 0.24085 0.61467 0.84718
 H2591 H 0.26338 0.58093 0.95790
 H2592 H 0.17916 0.61321 0.92156
 C2593 C 1.10094 1.24926 1.08821
 C2594 C 1.11261 1.27204 1.09861
 C2595 C 1.12670 1.27113 1.12254
 C2596 C 1.12973 1.24660 1.13590
 C2597 C 1.11782 1.22344 1.12533
 C2598 C 1.10301 1.22499 1.10149
 C2599 C 1.12162 1.19930 1.13877
 N2600 N 1.13632 1.19861 1.16129
 N2601 N 1.14755 1.22036 1.17120
 C2602 C 1.14483 1.24429 1.15928
 H2603 H 1.08996 1.25059 1.06977
 H2604 H 1.11027 1.29064 1.08814
 H2605 H 1.11328 1.18094 1.13148
 H2606 H 1.15475 1.26117 1.16801
 C2607 C 1.10417 0.73363 0.62078
 C2608 C 1.11432 0.75739 0.63047
 C2609 C 1.11523 0.78002 0.61444
 C2610 C 1.10493 0.77882 0.58827
 C2611 C 1.09457 0.75459 0.57838
 C2612 C 1.09458 0.73175 0.59475
 C2613 C 1.08391 0.75424 0.55257
 N2614 N 1.08392 0.77662 0.53773
 N2615 N 1.09362 0.79936 0.54700
 C2616 C 1.10399 0.80127 0.57176
 H2617 H 1.10422 0.71638 0.63357
 H2618 H 1.12195 0.75804 0.65057
 H2619 H 1.07525 0.73653 0.54416
 H2620 H 1.11107 0.82039 0.57836
 C2621 C 0.60475 1.23182 0.62275
 C2622 C 0.61575 1.25474 0.63343
 C2623 C 0.61735 1.27805 0.61847
 C2624 C 0.60689 1.27842 0.59235
 C2625 C 0.59563 1.25503 0.58144
 C2626 C 0.59496 1.23147 0.59674
 C2627 C 0.58483 1.25623 0.55573
 N2628 N 0.58553 1.27927 0.54194
 N2629 N 0.59609 1.30121 0.55218
 C2630 C 0.60668 1.30161 0.57691
 H2631 H 0.60433 1.21401 0.63472
 H2632 H 0.62358 1.25415 0.65346
 H2633 H 0.57553 1.23922 0.54659
 H2634 H 0.61451 1.32013 0.58435
 C2635 C 0.60327 0.73420 1.12276
 C2636 C 0.61333 0.75786 1.13279
 C2637 C 0.61530 0.78037 1.11672
 C2638 C 0.60616 0.77921 1.09014
 C2639 C 0.59574 0.75512 1.07993
 C2640 C 0.59476 0.73232 1.09635
 C2641 C 0.58603 0.75492 1.05375
 N2642 N 0.58714 0.77723 1.03883
 N2643 N 0.59705 0.79977 1.04837
 C2644 C 0.60649 0.80156 1.07351
 H2645 H 0.60259 0.71702 1.13561
 H2646 H 0.62015 0.75847 1.15318
 H2647 H 0.57724 0.73740 1.04509
 H2648 H 0.61384 0.82051 1.08031
 C2649 C 0.87716 1.23160 0.89200
 C2650 C 0.86704 1.25504 0.88156
 C2651 C 0.88211 1.27833 0.88175
 C2652 C 0.90772 1.27813 0.89340
 C2653 C 0.91807 1.25420 0.90397
 C2654 C 0.90269 1.23072 0.90291
 C2655 C 0.94329 1.25476 0.91588
 N2656 N 0.95714 1.27776 0.91695
 N2657 N 0.94740 1.30023 0.90712
 C2658 C 0.92316 1.30125 0.89551
 H2659 H 0.86514 1.21383 0.89116
 H2660 H 0.84739 1.25491 0.87287
 H2661 H 0.95202 1.23726 0.92465
 H2662 H 0.91612 1.32018 0.88837
 C2663 C 0.91009 0.74891 0.39715
 C2664 C 0.89926 0.77193 0.38641
 C2665 C 0.87367 0.77190 0.37565
 C2666 C 0.85889 0.74802 0.37511
 C2667 C 0.86994 0.72456 0.38595
 C2668 C 0.89564 0.72523 0.39737
 C2669 C 0.85510 0.70100 0.38432
 N2670 N 0.83076 0.70118 0.37289
 N2671 N 0.82035 0.72323 0.36280
 C2672 C 0.83359 0.74659 0.36340
 H2673 H 0.92984 0.74962 0.40558
 H2674 H 0.91085 0.79000 0.38670
 H2675 H 0.86268 0.68236 0.39167
 H2676 H 0.82431 0.76371 0.35445
 C2677 C 0.41078 1.25028 0.39829
 C2678 C 0.40031 1.27350 0.38765
 C2679 C 0.37488 1.27380 0.37652
 C2680 C 0.35991 1.25007 0.37548
 C2681 C 0.37059 1.22640 0.38624
 C2682 C 0.39610 1.22673 0.39807
 C2683 C 0.35557 1.20299 0.38415
 N2684 N 0.33141 1.20350 0.37236
 N2685 N 0.32135 1.22575 0.36232
 C2686 C 0.33478 1.24899 0.36337
 H2687 H 0.43040 1.25072 0.40704
 H2688 H 0.41203 1.29147 0.38835
 H2689 H 0.36287 1.18422 0.39145
 H2690 H 0.32579 1.26628 0.35446
 C2691 C 0.37647 0.73257 0.89446
 C2692 C 0.36629 0.75606 0.88420
 C2693 C 0.38185 0.77900 0.88314
 C2694 C 0.40805 0.77840 0.89332
 C2695 C 0.41843 0.75445 0.90383
 C2696 C 0.40253 0.73129 0.90400
 C2697 C 0.44423 0.75472 0.91446
 N2698 N 0.45862 0.77741 0.91425
 N2699 N 0.44890 0.79986 0.90435
 C2700 C 0.42411 0.80118 0.89400
 H2701 H 0.36403 0.71507 0.89456
 H2702 H 0.34617 0.75627 0.87664
 H2703 H 0.45300 0.73726 0.92324
 H2704 H 0.41713 0.82008 0.88672
 C2705 C 1.12286 0.76588 0.89679
 C2706 C 1.13300 0.74211 0.88710
 C2707 C 1.11699 0.71954 0.88517
 C2708 C 1.09035 0.72077 0.89403
 C2709 C 1.08002 0.74499 0.90406
 C2710 C 1.09638 0.76784 0.90496
 C2711 C 1.05378 0.74528 0.91346
 N2712 N 1.03891 0.72292 0.91245
 N2713 N 1.04857 0.70026 0.90291
 C2714 C 1.07377 0.69838 0.89378
 H2715 H 1.13567 0.78309 0.89745
 H2716 H 1.15342 0.74146 0.88047
 H2717 H 1.04501 0.76292 0.92194
 H2718 H 1.08067 0.67933 0.88674
 C2719 C 1.12239 0.26519 0.39571
 C2720 C 1.13209 0.24118 0.38607
 C2721 C 1.11606 0.21855 0.38554
 C2722 C 1.08993 0.21996 0.39578
 C2723 C 1.08005 0.24442 0.40567
 C2724 C 1.09637 0.26729 0.40517
 C2725 C 1.05431 0.24494 0.41637
 N2726 N 1.03950 0.22253 0.41677
 N2727 N 1.04874 0.19962 0.40743
 C2728 C 1.07344 0.19753 0.39706
 H2729 H 1.13516 0.28244 0.39533
 H2730 H 1.15215 0.24038 0.37844
 H2731 H 1.04592 0.26281 0.42474
 H2732 H 1.08003 0.17829 0.39025
 C2733 C 0.58690 0.74955 0.39866
 C2734 C 0.59711 0.72592 0.38861
 C2735 C 0.62279 0.72482 0.37813
 C2736 C 0.63827 0.74824 0.37715
 C2737 C 0.62786 0.77232 0.38736
 C2738 C 0.60206 0.77278 0.39852
 C2739 C 0.64343 0.79537 0.38537
 N2740 N 0.66782 0.79415 0.37416
 N2741 N 0.67759 0.77155 0.36461
 C2742 C 0.66364 0.74861 0.36560
 H2743 H 0.56708 0.74965 0.40692
 H2744 H 0.58497 0.70823 0.38928
 H2745 H 0.63638 0.81440 0.39227
 H2746 H 0.67242 0.73102 0.35705
 C2747 C 0.62115 0.26572 0.89544
 C2748 C 0.63087 0.24171 0.88588
 C2749 C 0.61511 0.21886 0.88607
 C2750 C 0.58921 0.22015 0.89691
 C2751 C 0.57928 0.24465 0.90664
 C2752 C 0.59535 0.26767 0.90550
 C2753 C 0.55374 0.24511 0.91781
 N2754 N 0.53920 0.22255 0.91892
 N2755 N 0.54852 0.19957 0.90982
 C2756 C 0.57302 0.19756 0.89897
 H2757 H 0.63373 0.28310 0.89457
 H2758 H 0.65073 0.24106 0.87774
 H2759 H 0.54531 0.26305 0.92597
 H2760 H 0.57970 0.17827 0.89242
 C2761 C 0.88140 0.76533 1.10469
 C2762 C 0.87161 0.74150 1.11442
 C2763 C 0.88730 0.71856 1.11442
 C2764 C 0.91330 0.71962 1.10379
 C2765 C 0.92333 0.74398 1.09395
 C2766 C 0.90722 0.76702 1.09469
 C2767 C 0.94897 0.74424 1.08302
 N2768 N 0.96352 0.72164 1.08222
 N2769 N 0.95408 0.69878 1.09136
 C2770 C 0.92947 0.69695 1.10197
 H2771 H 0.86884 0.78275 1.10532
 H2772 H 0.85169 0.74104 1.12240
 H2773 H 0.95750 0.76208 1.07482
 H2774 H 0.92271 0.67773 1.10854
 C2775 C 0.91297 0.24949 0.60017
 C2776 C 0.90200 0.22648 0.61078
 C2777 C 0.87690 0.22694 0.62259
 C2778 C 0.86285 0.25125 0.62443
 C2779 C 0.87399 0.27463 0.61361
 C2780 C 0.89912 0.27355 0.60111
 C2781 C 0.85982 0.29855 0.61626
 N2782 N 0.83607 0.29882 0.62879
 N2783 N 0.82562 0.27688 0.63902
 C2784 C 0.83821 0.25318 0.63738
 H2785 H 0.93231 0.24848 0.59089
 H2786 H 0.91307 0.20810 0.60955
 H2787 H 0.86749 0.31709 0.60879
 H2788 H 0.82894 0.23618 0.64650
 C2789 C 0.41284 0.75036 0.60263
 C2790 C 0.40237 0.72706 0.61302
 C2791 C 0.37665 0.72652 0.62341
 C2792 C 0.36143 0.75014 0.62406
 C2793 C 0.37212 0.77390 0.61359
 C2794 C 0.39790 0.77378 0.60239
 C2795 C 0.35682 0.79719 0.61530
 N2796 N 0.33238 0.79647 0.62644
 N2797 N 0.32230 0.77413 0.63616
 C2798 C 0.33599 0.75099 0.63545
 H2799 H 0.43265 0.75006 0.59436
 H2800 H 0.41429 0.70918 0.61263
 H2801 H 0.36411 0.81602 0.60823
 H2802 H 0.32696 0.73361 0.64408
 C2803 C 0.41370 0.24928 1.10249
 C2804 C 0.40273 0.22634 1.11319
 C2805 C 0.37793 0.22699 1.12567
 C2806 C 0.36430 0.25147 1.12817
 C2807 C 0.37544 0.27479 1.11720
 C2808 C 0.40016 0.27348 1.10395
 C2809 C 0.36165 0.29885 1.12040
 N2810 N 0.33828 0.29933 1.13365
 N2811 N 0.32788 0.27746 1.14405
 C2812 C 0.34010 0.25360 1.14188
 H2813 H 0.43273 0.24810 1.09263
 H2814 H 0.41346 0.20782 1.11135
 H2815 H 0.36932 0.31733 1.11279
 H2816 H 0.33092 0.23666 1.15118
 C2817 C 1.12283 1.10140 0.76643
 C2818 C 1.13364 1.11170 0.74332
 C2819 C 1.11765 1.11771 0.72126
 C2820 C 1.09016 1.11121 0.72228
 C2821 C 1.07925 1.10020 0.74585
 C2822 C 1.09570 1.09598 0.76832
 C2823 C 1.05239 1.09266 0.74571
 N2824 N 1.03751 1.09601 0.72358
 N2825 N 1.04773 1.10595 0.70141
 C2826 C 1.07349 1.11334 0.69989
 H2827 H 1.13577 1.09819 0.78329
 H2828 H 1.15461 1.11633 0.74330
 H2829 H 1.04316 1.08350 0.76269
 H2830 H 1.08077 1.12000 0.68092
 C2831 C 1.12019 0.60066 0.26266
 C2832 C 1.13014 0.60989 0.23872
 C2833 C 1.11345 0.61455 0.21684
 C2834 C 1.08605 0.60788 0.21912
 C2835 C 1.07599 0.59816 0.24365
 C2836 C 1.09322 0.59514 0.26574
 C2837 C 1.04916 0.59061 0.24487
 N2838 N 1.03354 0.59261 0.22309
 N2839 N 1.04299 0.60118 0.20003
 C2840 C 1.06866 0.60854 0.19720
 H2841 H 1.13372 0.59835 0.27922
 H2842 H 1.15104 0.61476 0.23787
 H2843 H 1.04052 0.58252 0.26270
 H2844 H 1.07528 0.61399 0.17761
 C2845 C 0.59946 1.08828 0.24903
 C2846 C 0.61002 1.09856 0.22571
 C2847 C 0.62158 1.12378 0.22535
 C2848 C 0.62311 1.13871 0.24916
 C2849 C 0.61242 1.12821 0.27293
 C2850 C 0.60018 1.10292 0.27265
 C2851 C 0.61499 1.14317 0.29639
 N2852 N 0.62720 1.16709 0.29584
 N2853 N 0.63716 1.17697 0.27351
 C2854 C 0.63562 1.16360 0.25020
 H2855 H 0.59039 1.06882 0.24862
 H2856 H 0.60894 1.08686 0.20769
 H2857 H 0.60770 1.13599 0.31521
 H2858 H 0.64444 1.17244 0.23280
 C2859 C 0.60363 0.59057 0.75215
 C2860 C 0.61509 0.60190 0.72977
 C2861 C 0.62633 0.62725 0.73095
 C2862 C 0.62664 0.64122 0.75537
 C2863 C 0.61500 0.62967 0.77817
 C2864 C 0.60309 0.60428 0.77632
 C2865 C 0.61630 0.64371 0.80230
 N2866 N 0.62824 0.66776 0.80327
 N2867 N 0.63914 0.67862 0.78185
 C2868 C 0.63885 0.66616 0.75799
 H2869 H 0.59483 0.57105 0.75055
 H2870 H 0.61494 0.59094 0.71127
 H2871 H 0.60826 0.63573 0.82046
 H2872 H 0.64845 0.67575 0.74143
 C2873 C 0.87759 0.89492 0.76703
 C2874 C 0.86711 0.88467 0.74363
 C2875 C 0.88268 0.88263 0.72074
 C2876 C 0.90922 0.89183 0.72129
 C2877 C 0.91990 0.90238 0.74515
 C2878 C 0.90395 0.90353 0.76828
 C2879 C 0.94604 0.91205 0.74479
 N2880 N 0.96047 0.91087 0.72215
 N2881 N 0.95048 0.90092 0.69980
 C2882 C 0.92536 0.89148 0.69855
 H2883 H 0.86511 0.89574 0.78449
 H2884 H 0.84677 0.87781 0.74350
 H2885 H 0.95505 0.92086 0.76215
 H2886 H 0.91817 0.88411 0.67972
 C2887 C 0.88057 0.39359 0.26479
 C2888 C 0.87090 0.38389 0.24081
 C2889 C 0.88663 0.38410 0.21793
 C2890 C 0.91253 0.39494 0.21918
 C2891 C 0.92243 0.40478 0.24367
 C2892 C 0.90631 0.40379 0.26668
 C2893 C 0.94795 0.41597 0.24411
 N2894 N 0.96251 0.41701 0.22155
 N2895 N 0.95322 0.40783 0.19858
 C2896 C 0.92873 0.39696 0.19658
 H2897 H 0.86798 0.39280 0.28217
 H2898 H 0.85102 0.37580 0.24016
 H2899 H 0.95636 0.42420 0.26205
 H2900 H 0.92208 0.39034 0.17729
 C2901 C 0.37916 0.89675 0.26570
 C2902 C 0.36923 0.88700 0.24189
 C2903 C 0.38514 0.88587 0.21917
 C2904 C 0.41152 0.89547 0.22038
 C2905 C 0.42168 0.90544 0.24471
 C2906 C 0.40536 0.90570 0.26761
 C2907 C 0.44770 0.91544 0.24508
 N2908 N 0.46249 0.91515 0.22264
 N2909 N 0.45296 0.90579 0.19983
 C2910 C 0.42799 0.89607 0.19789
 H2911 H 0.36641 0.89686 0.28299
 H2912 H 0.34902 0.87975 0.24131
 H2913 H 0.45633 0.92378 0.26286
 H2914 H 0.42117 0.88924 0.17873
 C2915 C 0.41196 0.39032 0.75354
 C2916 C 0.40156 0.37911 0.73058
 C2917 C 0.37434 0.37364 0.72820
 C2918 C 0.35770 0.37788 0.75068
 C2919 C 0.36854 0.38884 0.77437
 C2920 C 0.39579 0.39587 0.77540
 C2921 C 0.35193 0.39124 0.79670
 N2922 N 0.32626 0.38352 0.79526
 N2923 N 0.31616 0.37300 0.77326
 C2924 C 0.33100 0.36959 0.75113
 H2925 H 0.43286 0.39520 0.75405
 H2926 H 0.41483 0.37601 0.71396
 H2927 H 0.35913 0.39850 0.81552
 H2928 H 0.32190 0.35967 0.73447
 C2929 C 1.09846 0.87899 1.23711
 C2930 C 1.10764 0.86887 1.26103
 C2931 C 1.11357 0.88563 1.28253
 C2932 C 1.10805 0.91328 1.28007
 C2933 C 1.09801 0.92347 1.25572
 C2934 C 1.09397 0.90618 1.23382
 C2935 C 1.09120 0.95053 1.25452
 N2936 N 1.09447 0.96627 1.27608
 N2937 N 1.10362 0.95676 1.29891
 C2938 C 1.11020 0.93086 1.30175
 H2939 H 1.09535 0.86538 1.22074
 H2940 H 1.11153 0.84777 1.26217
 H2941 H 1.08264 0.95927 1.23695
 H2942 H 1.11623 0.92424 1.32120
 C2943 C 1.09385 0.39293 0.74609
 C2944 C 1.10553 0.38088 0.76802
 C2945 C 1.13108 0.37011 0.76639
 C2946 C 1.14489 0.37090 0.74194
 C2947 C 1.13295 0.38308 0.71957
 C2948 C 1.10736 0.39453 0.72190
 C2949 C 1.14683 0.38276 0.69537
 N2950 N 1.17111 0.37128 0.69394
 N2951 N 1.18234 0.35994 0.71497
 C2952 C 1.17006 0.35927 0.73887
 H2953 H 1.07418 0.40134 0.74807
 H2954 H 1.09469 0.38024 0.78655
 H2955 H 1.13855 0.39119 0.67749
 H2956 H 1.17996 0.34938 0.75511
 C2957 C 0.58867 0.89935 0.74934
 C2958 C 0.59931 0.88830 0.77230
 C2959 C 0.62419 0.87595 0.77192
 C2960 C 0.63835 0.87411 0.74770
 C2961 C 0.62753 0.88542 0.72433
 C2962 C 0.60261 0.89839 0.72536
 C2963 C 0.64178 0.88274 0.70049
 N2964 N 0.66530 0.86972 0.70027
 N2965 N 0.67543 0.85905 0.72219
 C2966 C 0.66275 0.86069 0.74584
 H2967 H 0.56948 0.90897 0.75030
 H2968 H 0.58819 0.88966 0.79062
 H2969 H 0.63435 0.89058 0.68197
 H2970 H 0.67173 0.85120 0.76283
 C2971 C 0.60151 0.37959 1.23527
 C2972 C 0.61088 0.36918 1.25897
 C2973 C 0.61576 0.38550 1.28109
 C2974 C 0.60913 0.41297 1.27934
 C2975 C 0.59925 0.42350 1.25507
 C2976 C 0.59604 0.40666 1.23271
 C2977 C 0.59175 0.45039 1.25435
 N2978 N 0.59395 0.46562 1.27640
 N2979 N 0.60269 0.45573 1.29925
 C2980 C 0.61001 0.42998 1.30157
 H2981 H 0.59904 0.36636 1.21849
 H2982 H 0.61569 0.34824 1.25946
 H2983 H 0.58355 0.45937 1.23673
 H2984 H 0.61561 0.42298 1.32101
 C2985 C 0.87559 1.10094 1.23303
 C2986 C 0.86470 1.11072 1.25637
 C2987 C 0.88067 1.11651 1.27850
 C2988 C 0.90822 1.11015 1.27732
 C2989 C 0.91922 1.09972 1.25349
 C2990 C 0.90279 1.09584 1.23095
 C2991 C 0.94616 1.09240 1.25342
 N2992 N 0.96102 1.09536 1.27563
 N2993 N 0.95070 1.10471 1.29805
 C2994 C 0.92486 1.11189 1.29976
 H2995 H 0.86265 1.09790 1.21613
 H2996 H 0.84369 1.11524 1.25650
 H2997 H 0.95547 1.08371 1.23619
 H2998 H 0.91751 1.11806 1.31891
 C2999 C 0.87824 0.60594 0.73162
 C3000 C 0.86797 0.61607 0.75515
 C3001 C 0.88304 0.61596 0.77852
 C3002 C 0.90882 0.60471 0.77824
 C3003 C 0.91933 0.59447 0.75419
 C3004 C 0.90392 0.59543 0.73068
 C3005 C 0.94474 0.58299 0.75468
 N3006 N 0.95861 0.58198 0.77771
 N3007 N 0.94872 0.59148 0.80029
 C3008 C 0.92430 0.60268 0.80138
 H3009 H 0.86618 0.60668 0.71383
 H3010 H 0.84820 0.62449 0.75505
 H3011 H 0.95360 0.57452 0.73708
 H3012 H 0.91714 0.60955 0.82039
 C3013 C 0.37505 1.10690 0.72923
 C3014 C 0.36425 1.11784 0.75215
 C3015 C 0.37917 1.11957 0.77554
 C3016 C 0.40536 1.10936 0.77598
 C3017 C 0.41640 1.09823 0.75258
 C3018 C 0.40112 1.09737 0.72897
 C3019 C 0.44221 1.08773 0.75383
 N3020 N 0.45597 1.08855 0.77694
 N3021 N 0.44560 1.09896 0.79890
 C3022 C 0.42077 1.10927 0.79926
 H3023 H 0.36309 1.10630 0.71137
 H3024 H 0.34417 1.12546 0.75150
 H3025 H 0.45147 1.07858 0.73679
 H3026 H 0.41324 1.11697 0.81780
 C3027 C 0.37851 0.60130 1.23557
 C3028 C 0.36821 0.61089 1.25925
 C3029 C 0.38448 0.61511 1.28155
 C3030 C 0.41172 0.60755 1.27998
 C3031 C 0.42212 0.59750 1.25572
 C3032 C 0.40540 0.59498 1.23320
 C3033 C 0.44875 0.58914 1.25515
 N3034 N 0.46384 0.59064 1.27734
 N3035 N 0.45403 0.59950 1.30019
 C3036 C 0.42853 0.60766 1.30236
 H3037 H 0.36537 0.59936 1.21866
 H3038 H 0.34744 0.61640 1.25959
 H3039 H 0.45761 0.58080 1.23751
 H3040 H 0.42154 0.61332 1.32180
 C3041 C 1.11221 1.24424 0.90803
 C3042 C 1.12466 1.26596 0.89659
 C3043 C 1.13113 1.26622 0.86948
 C3044 C 1.12656 1.24287 0.85413
 C3045 C 1.11429 1.22049 0.86605
 C3046 C 1.10635 1.22162 0.89305
 C3047 C 1.11154 1.19720 0.85082
 N3048 N 1.12030 1.19648 0.82544
 N3049 N 1.13207 1.21727 0.81436
 C3050 C 1.13577 1.24023 0.82784
 H3051 H 1.10670 1.24527 0.92878
 H3052 H 1.12805 1.28329 0.90888
 H3053 H 1.10317 1.17928 0.85894
 H3054 H 1.14666 1.25579 0.81804
 C3055 C 1.09740 0.73738 0.37789
 C3056 C 1.10673 0.76130 0.36798
 C3057 C 1.11274 0.78262 0.38494
 C3058 C 1.10706 0.78003 0.41254
 C3059 C 1.09689 0.75570 0.42252
 C3060 C 1.09287 0.73393 0.40506
 C3061 C 1.08995 0.75437 0.44954
 N3062 N 1.09322 0.77580 0.46545
 N3063 N 1.10248 0.79862 0.45613
 C3064 C 1.10920 0.80158 0.43028
 H3065 H 1.09430 0.72112 0.36416
 H3066 H 1.11071 0.76255 0.34689
 H3067 H 1.08129 0.73681 0.45812
 H3068 H 1.11532 0.82102 0.42382
 C3069 C 0.58657 1.25074 0.39721
 C3070 C 0.59715 1.27409 0.38705
 C3071 C 0.62257 1.27446 0.37592
 C3072 C 0.63734 1.25059 0.37429
 C3073 C 0.62654 1.22679 0.38460
 C3074 C 0.60109 1.22709 0.39652
 C3075 C 0.64139 1.20329 0.38202
 N3076 N 0.66547 1.20382 0.37012
 N3077 N 0.67562 1.22617 0.36050
 C3078 C 0.66238 1.24952 0.36209
 H3079 H 0.56701 1.25119 0.40607
 H3080 H 0.58555 1.29215 0.38822
 H3081 H 0.63399 1.18447 0.38903
 H3082 H 0.67143 1.26692 0.35351
 C3083 C 0.60498 0.73131 0.87691
 C3084 C 0.61556 0.75437 0.86621
 C3085 C 0.61710 0.77766 0.88129
 C3086 C 0.60700 0.77787 0.90754
 C3087 C 0.59620 0.75433 0.91846
 C3088 C 0.59558 0.73080 0.90304
 C3089 C 0.58577 0.75536 0.94432
 N3090 N 0.58641 0.77838 0.95824
 N3091 N 0.59654 0.80046 0.94798
 C3092 C 0.60673 0.80103 0.92311
 H3093 H 0.60456 0.71351 0.86484
 H3094 H 0.62313 0.75391 0.84610
 H3095 H 0.57682 0.73822 0.95350
 H3096 H 0.61420 0.81967 0.91568
 C3097 C 0.87857 1.23651 1.09797
 C3098 C 0.86882 1.26061 1.10715
 C3099 C 0.88582 1.28211 1.11221
 C3100 C 0.91321 1.27946 1.10570
 C3101 C 0.92302 1.25489 1.09580
 C3102 C 0.90559 1.23302 1.09272
 C3103 C 0.94983 1.25340 1.08817
 N3104 N 0.96568 1.27495 1.09043
 N3105 N 0.95649 1.29802 1.09934
 C3106 C 0.93085 1.30111 1.10673
 H3107 H 0.86487 1.22015 1.09554
 H3108 H 0.84788 1.26188 1.11176
 H3109 H 0.95825 1.23559 1.07978
 H3110 H 0.92444 1.32072 1.11249
 C3111 C 0.91126 0.74877 0.60138
 C3112 C 0.90081 0.77212 0.61179
 C3113 C 0.87529 0.77269 0.62268
 C3114 C 0.86022 0.74900 0.62371
 C3115 C 0.87088 0.72519 0.61312
 C3116 C 0.89649 0.72529 0.60155
 C3117 C 0.85573 0.70187 0.61512
 N3118 N 0.83151 0.70256 0.62673
 N3119 N 0.82151 0.72491 0.63665
 C3120 C 0.83504 0.74809 0.63564
 H3121 H 0.93095 0.74906 0.59282
 H3122 H 0.91263 0.79003 0.61107
 H3123 H 0.86299 0.68303 0.60789
 H3124 H 0.82610 0.76547 0.64447
 C3125 C 0.39807 1.23504 0.62199
 C3126 C 0.38889 1.25878 0.63255
 C3127 C 0.38427 1.28100 0.61637
 C3128 C 0.39111 1.27934 0.58895
 C3129 C 0.40084 1.25505 0.57827
 C3130 C 0.40365 1.23256 0.59491
 C3131 C 0.40858 1.25446 0.55145
 N3132 N 0.40674 1.27662 0.53642
 N3133 N 0.39813 1.29946 0.54646
 C3134 C 0.39059 1.30167 0.57216
 H3135 H 0.40029 1.21817 0.63509
 H3136 H 0.38394 1.25920 0.65347
 H3137 H 0.41670 1.23683 0.54238
 H3138 H 0.38509 1.32110 0.57931
 C3139 C 0.41444 0.74877 1.10723
 C3140 C 0.40443 0.77209 1.11807
 C3141 C 0.37742 0.77461 1.12445
 C3142 C 0.36070 0.75197 1.12163
 C3143 C 0.37109 0.72808 1.11080
 C3144 C 0.39805 0.72684 1.10286
 C3145 C 0.35438 0.70576 1.10942
 N3146 N 0.32908 0.70733 1.11819
 N3147 N 0.31945 0.72947 1.12884
 C3148 C 0.33442 0.75162 1.13122
 H3149 H 0.43518 0.74802 1.10169
 H3150 H 0.41776 0.78879 1.12018
 H3151 H 0.36124 0.68683 1.10212
 H3152 H 0.32576 0.76837 1.14138
 C3153 C 0.87886 0.76707 0.89358
 C3154 C 0.86859 0.74358 0.88340
 C3155 C 0.88382 0.72035 0.88301
 C3156 C 0.90982 0.72072 0.89378
 C3157 C 0.92034 0.74473 0.90405
 C3158 C 0.90471 0.76810 0.90364
 C3159 C 0.94598 0.74434 0.91504
 N3160 N 0.96006 0.72144 0.91553
 N3161 N 0.95016 0.69889 0.90601
 C3162 C 0.92552 0.69770 0.89529
 H3163 H 0.86665 0.78476 0.89322
 H3164 H 0.84866 0.74362 0.87535
 H3165 H 0.95487 0.76191 0.92353
 H3166 H 0.91837 0.67871 0.88840
 C3167 C 0.91194 0.24956 0.39786
 C3168 C 0.90111 0.22656 0.38705
 C3169 C 0.87623 0.22702 0.37470
 C3170 C 0.86229 0.25136 0.37253
 C3171 C 0.87327 0.27474 0.38364
 C3172 C 0.89815 0.27362 0.39668
 C3173 C 0.85920 0.29867 0.38075
 N3174 N 0.83570 0.29897 0.36768
 N3175 N 0.82544 0.27705 0.35713
 C3176 C 0.83795 0.25332 0.35899
 H3177 H 0.93110 0.24853 0.40755
 H3178 H 0.91207 0.20815 0.38864
 H3179 H 0.86674 0.31719 0.38848
 H3180 H 0.82888 0.23634 0.34956
 C3181 C 0.37822 0.76464 0.39833
 C3182 C 0.36793 0.74092 0.38884
 C3183 C 0.38421 0.71863 0.38472
 C3184 C 0.41145 0.72026 0.39227
 C3185 C 0.42186 0.74457 0.40219
 C3186 C 0.40512 0.76707 0.40462
 C3187 C 0.44849 0.74520 0.41051
 N3188 N 0.46359 0.72302 0.40913
 N3189 N 0.45378 0.70014 0.40042
 C3190 C 0.42827 0.69790 0.39229
 H3191 H 0.36507 0.78154 0.40023
 H3192 H 0.34716 0.74054 0.38335
 H3193 H 0.45736 0.76288 0.41873
 H3194 H 0.42128 0.67844 0.38677
 C3195 C 0.41016 0.25355 0.88963
 C3196 C 0.39904 0.23139 0.87757
 C3197 C 0.37196 0.23061 0.87094
 C3198 C 0.35635 0.25389 0.87495
 C3199 C 0.36791 0.27665 0.88698
 C3200 C 0.39488 0.27607 0.89504
 C3201 C 0.35236 0.29975 0.88940
 N3202 N 0.32704 0.29997 0.88045
 N3203 N 0.31632 0.27888 0.86877
 C3204 C 0.33013 0.25606 0.86542
 H3205 H 0.43088 0.25292 0.89526
 H3206 H 0.41155 0.21415 0.87468
 H3207 H 0.36017 0.31788 0.89768
 H3208 H 0.32064 0.24022 0.85457
 C3209 C 1.12220 0.76421 1.10068
 C3210 C 1.13193 0.74018 1.10998
 C3211 C 1.11509 0.71836 1.11418
 C3212 C 1.08784 0.72080 1.10687
 C3213 C 1.07801 0.74542 1.09715
 C3214 C 1.09532 0.76745 1.09469
 C3215 C 1.05132 0.74684 1.08905
 N3216 N 1.03563 0.72512 1.09048
 N3217 N 1.04490 0.70195 1.09900
 C3218 C 1.07041 0.69895 1.10689
 H3219 H 1.13578 0.78072 1.09876
 H3220 H 1.15273 0.73919 1.11529
 H3221 H 1.04287 0.76477 1.08097
 H3222 H 1.07691 0.67928 1.11225
 C3223 C 1.08889 0.25049 0.60017
 C3224 C 1.09911 0.22754 0.61163
 C3225 C 1.12358 0.22790 0.62476
 C3226 C 1.13773 0.25209 0.62700
 C3227 C 1.12735 0.27543 0.61527
 C3228 C 1.10288 0.27441 0.60148
 C3229 C 1.14158 0.29923 0.61834
 N3230 N 1.16467 0.29943 0.63212
 N3231 N 1.17439 0.27753 0.64319
 C3232 C 1.16170 0.25392 0.64120
 H3233 H 1.06999 0.24956 0.58998
 H3234 H 1.08803 0.20923 0.60990
 H3235 H 1.13448 0.31772 0.61017
 H3236 H 1.17031 0.23695 0.65104
 C3237 C 0.59049 0.75225 0.60357
 C3238 C 0.60176 0.72978 0.61498
 C3239 C 0.62696 0.73088 0.62659
 C3240 C 0.64084 0.75528 0.62733
 C3241 C 0.62935 0.77817 0.61576
 C3242 C 0.60411 0.77641 0.60347
 C3243 C 0.64329 0.80227 0.61749
 N3244 N 0.66719 0.80314 0.62978
 N3245 N 0.67800 0.78163 0.64061
 C3246 C 0.66564 0.75779 0.63990
 H3247 H 0.57107 0.75073 0.59449
 H3248 H 0.59087 0.71129 0.61449
 H3249 H 0.63533 0.82048 0.60950
 H3250 H 0.67518 0.74114 0.64944
 C3251 C 0.62418 0.26563 1.09985
 C3252 C 0.63440 0.24186 1.10930
 C3253 C 0.61771 0.22049 1.11558
 C3254 C 0.59008 0.22280 1.10997
 C3255 C 0.57978 0.24697 1.09969
 C3256 C 0.59696 0.26883 1.09546
 C3257 C 0.55272 0.24804 1.09287
 N3258 N 0.53709 0.22651 1.09632
 N3259 N 0.54672 0.20381 1.10567
 C3260 C 0.57262 0.20111 1.11230
 H3261 H 0.63770 0.28196 1.09653
 H3262 H 0.65551 0.24080 1.11320
 H3263 H 0.54390 0.26549 1.08417
 H3264 H 0.57935 0.18177 1.11851
 C3265 C 1.24715 1.10461 0.90949
 C3266 C 1.26966 1.11610 0.89847
 C3267 C 1.26907 1.12651 0.87276
 C3268 C 1.24512 1.12600 0.85808
 C3269 C 1.22213 1.11446 0.86935
 C3270 C 1.22341 1.10326 0.89512
 C3271 C 1.19842 1.11516 0.85462
 N3272 N 1.19806 1.12626 0.83014
 N3273 N 1.21971 1.13689 0.81949
 C3274 C 1.24317 1.13723 0.83262
 H3275 H 1.24834 1.09638 0.92929
 H3276 H 1.28783 1.11654 0.90995
 H3277 H 1.18008 1.10732 0.86239
 H3278 H 1.25997 1.14654 0.82316
 C3279 C 1.24840 0.58827 0.39587
 C3280 C 1.27188 0.59856 0.38572
 C3281 C 1.27277 0.62429 0.37534
 C3282 C 1.24928 0.63971 0.37452
 C3283 C 1.22534 0.62921 0.38485
 C3284 C 1.22513 0.60340 0.39595
 C3285 C 1.20222 0.64474 0.38307
 N3286 N 1.20322 0.66916 0.37192
 N3287 N 1.22568 0.67901 0.36225
 C3288 C 1.24869 0.66511 0.36306
 H3289 H 1.24847 0.56843 0.40409
 H3290 H 1.28964 0.58648 0.38630
 H3291 H 1.18329 0.63763 0.39009
 H3292 H 1.26617 0.67394 0.35443
 C3293 C 0.74726 1.10391 0.41031
 C3294 C 0.77022 1.11452 0.39935
 C3295 C 0.76999 1.12543 0.37383
 C3296 C 0.74595 1.12633 0.35931
 C3297 C 0.72252 1.11564 0.37052
 C3298 C 0.72342 1.10395 0.39607
 C3299 C 0.69879 1.11761 0.35594
 N3300 N 0.69877 1.12924 0.33171
 N3301 N 0.72080 1.13916 0.32115
 C3302 C 0.74434 1.13819 0.33412
 H3303 H 0.74815 1.09526 0.42995
 H3304 H 0.78844 1.11391 0.41074
 H3305 H 0.68019 1.11033 0.36367
 H3306 H 0.76148 1.14694 0.32474
 C3307 C 0.74971 0.58719 0.89891
 C3308 C 0.77319 0.59723 0.88848
 C3309 C 0.77398 0.62259 0.87728
 C3310 C 0.75044 0.63790 0.87591
 C3311 C 0.72651 0.62766 0.88650
 C3312 C 0.72637 0.60222 0.89844
 C3313 C 0.70333 0.64303 0.88414
 N3314 N 0.70427 0.66708 0.87222
 N3315 N 0.72674 0.67670 0.86233
 C3316 C 0.74979 0.66293 0.86366
 H3317 H 0.74981 0.56761 0.90774
 H3318 H 0.79100 0.58524 0.88945
 H3319 H 0.68441 0.63607 0.89134
 H3320 H 0.76728 0.67157 0.85484
 C3321 C 1.25041 0.91369 1.09994
 C3322 C 1.27395 0.90348 1.11018
 C3323 C 1.27450 0.87857 1.12241
 C3324 C 1.25065 0.86395 1.12503
 C3325 C 1.22672 0.87431 1.11449
 C3326 C 1.22680 0.89925 1.10160
 C3327 C 1.20329 0.85956 1.11781
 N3328 N 1.20397 0.83604 1.13076
 N3329 N 1.22641 0.82638 1.14078
 C3330 C 1.24970 0.83955 1.13848
 H3331 H 1.25066 0.93289 1.09035
 H3332 H 1.29198 0.91496 1.10825
 H3333 H 1.18440 0.86661 1.11052
 H3334 H 1.26713 0.83094 1.14750
 C3335 C 1.23268 0.37756 0.60434
 C3336 C 1.25592 0.36706 0.61489
 C3337 C 1.27870 0.38267 0.61740
 C3338 C 1.27827 0.40927 0.60839
 C3339 C 1.25462 0.41995 0.59744
 C3340 C 1.23154 0.40398 0.59584
 C3341 C 1.25515 0.44612 0.58785
 N3342 N 1.27772 0.46060 0.58958
 N3343 N 1.29983 0.45063 0.60001
 C3344 C 1.30092 0.42546 0.60936
 H3345 H 1.21526 0.36507 0.60319
 H3346 H 1.25600 0.34667 0.62160
 H3347 H 1.23800 0.45512 0.57868
 H3348 H 1.31956 0.41830 0.61717
 C3349 C 0.73154 0.89569 0.62247
 C3350 C 0.75483 0.88506 0.63279
 C3351 C 0.77773 0.88322 0.61723
 C3352 C 0.77734 0.89304 0.59090
 C3353 C 0.75362 0.90398 0.58040
 C3354 C 0.73044 0.90488 0.59628
 C3355 C 0.75413 0.91426 0.55448
 N3356 N 0.77680 0.91329 0.54009
 N3357 N 0.79902 0.90295 0.54992
 C3358 C 0.80011 0.89290 0.57483
 H3359 H 0.71404 0.89631 0.63490
 H3360 H 0.75487 0.87776 0.65300
 H3361 H 0.73687 0.92338 0.54561
 H3362 H 0.81883 0.88522 0.58189
 C3363 C 0.73401 0.37850 1.10538
 C3364 C 0.75781 0.36852 1.11517
 C3365 C 0.78080 0.38405 1.11523
 C3366 C 0.77990 0.41002 1.10451
 C3367 C 0.75561 0.42020 1.09454
 C3368 C 0.73246 0.40433 1.09533
 C3369 C 0.75553 0.44577 1.08344
 N3370 N 0.77823 0.46011 1.08263
 N3371 N 0.80101 0.45055 1.09195
 C3372 C 0.80266 0.42600 1.10273
 H3373 H 0.71651 0.36608 1.10599
 H3374 H 0.75823 0.34859 1.12314
 H3375 H 0.73777 0.45439 1.07508
 H3376 H 0.82181 0.41914 1.10948
 C3377 C 0.76895 1.10718 1.12266
 C3378 C 0.74562 1.11762 1.13305
 C3379 C 0.72225 1.11794 1.11802
 C3380 C 0.72229 1.10676 1.09217
 C3381 C 0.74611 1.09621 1.08154
 C3382 C 0.76967 1.09678 1.09689
 C3383 C 0.74537 1.08479 1.05607
 N3384 N 0.72230 1.08417 1.04225
 N3385 N 0.69993 1.09399 1.05225
 C3386 C 0.69909 1.10514 1.07673
 H3387 H 0.78677 1.10762 1.13468
 H3388 H 0.74588 1.12594 1.15288
 H3389 H 0.76278 1.07606 1.04712
 H3390 H 0.68023 1.11227 1.08397
 C3391 C 0.75149 0.60284 0.59066
 C3392 C 0.72913 0.61433 0.60206
 C3393 C 0.73053 0.62634 0.62709
 C3394 C 0.75513 0.62742 0.64063
 C3395 C 0.77792 0.61578 0.62900
 C3396 C 0.77585 0.60308 0.60397
 C3397 C 0.80222 0.61783 0.64260
 N3398 N 0.80337 0.63050 0.66632
 N3399 N 0.78195 0.64139 0.67726
 C3400 C 0.75792 0.64037 0.66523
 H3401 H 0.74974 0.59343 0.57140
 H3402 H 0.71047 0.61359 0.59141
 H3403 H 0.82036 0.60978 0.63451
 H3404 H 0.74133 0.64994 0.67487
 C3405 C 0.25069 1.10353 0.58886
 C3406 C 0.22789 1.11443 0.59993
 C3407 C 0.22811 1.12455 0.62581
 C3408 C 0.25198 1.12431 0.64064
 C3409 C 0.27525 1.11331 0.62933
 C3410 C 0.27436 1.10248 0.60334
 C3411 C 0.29885 1.11416 0.64423
 N3412 N 0.29887 1.12498 0.66887
 N3413 N 0.27698 1.13521 0.67952
 C3414 C 0.25360 1.13535 0.66624
 H3415 H 0.24981 1.09555 0.56891
 H3416 H 0.20980 1.11470 0.58833
 H3417 H 0.31737 1.10667 0.63647
 H3418 H 0.23662 1.14437 0.67572
 C3419 C 0.24875 0.58759 1.09805
 C3420 C 0.22501 0.59760 1.10805
 C3421 C 0.22451 0.62153 1.12218
 C3422 C 0.24848 0.63533 1.12689
 C3423 C 0.27263 0.62512 1.11677
 C3424 C 0.27258 0.60124 1.10195
 C3425 C 0.29619 0.63894 1.12233
 N3426 N 0.29540 0.66145 1.13705
 N3427 N 0.27271 0.67109 1.14650
 C3428 C 0.24924 0.65883 1.14193
 H3429 H 0.24850 0.56918 1.08695
 H3430 H 0.20682 0.58676 1.10450
 H3431 H 0.31523 0.63196 1.11537
 H3432 H 0.23148 0.66740 1.15035
 C3433 C 0.75175 0.91063 0.89708
 C3434 C 0.72855 0.90006 0.88648
 C3435 C 0.72809 0.87423 0.87627
 C3436 C 0.75168 0.85894 0.87613
 C3437 C 0.77534 0.86974 0.88683
 C3438 C 0.77515 0.89569 0.89772
 C3439 C 0.79862 0.85437 0.88558
 N3440 N 0.79797 0.82979 0.87468
 N3441 N 0.77573 0.81963 0.86473
 C3442 C 0.75262 0.83336 0.86498
 H3443 H 0.75139 0.93056 0.90512
 H3444 H 0.71071 0.91202 0.88649
 H3445 H 0.81739 0.86173 0.89283
 H3446 H 0.73533 0.82426 0.85618
 C3447 C 0.76779 0.37827 0.39327
 C3448 C 0.74403 0.36839 0.38332
 C3449 C 0.72094 0.38385 0.38355
 C3450 C 0.72175 0.40968 0.39473
 C3451 C 0.74606 0.41982 0.40470
 C3452 C 0.76925 0.40397 0.40367
 C3453 C 0.74614 0.44534 0.41601
 N3454 N 0.72339 0.45963 0.41715
 N3455 N 0.70056 0.45006 0.40798
 C3456 C 0.69892 0.42557 0.39695
 H3457 H 0.78534 0.36589 0.39244
 H3458 H 0.74377 0.34859 0.37494
 H3459 H 0.76396 0.45396 0.42423
 H3460 H 0.67973 0.41868 0.39039
 C3461 C 0.24823 0.91461 0.40103
 C3462 C 0.22409 0.90504 0.39160
 C3463 C 0.22222 0.87961 0.38057
 C3464 C 0.24535 0.86375 0.37834
 C3465 C 0.26993 0.87350 0.38793
 C3466 C 0.27119 0.89902 0.39968
 C3467 C 0.29262 0.85755 0.38476
 N3468 N 0.29063 0.83345 0.37300
 N3469 N 0.26757 0.82430 0.36400
 C3470 C 0.24492 0.83863 0.36614
 H3471 H 0.24897 0.93424 0.40975
 H3472 H 0.20663 0.91747 0.39317
 H3473 H 0.31199 0.86411 0.39119
 H3474 H 0.22691 0.83034 0.35799
 C3475 C 0.25157 0.40040 0.90656
 C3476 C 0.22939 0.38892 0.89472
 C3477 C 0.23224 0.37129 0.87344
 C3478 C 0.25788 0.36479 0.86406
 C3479 C 0.28041 0.37642 0.87612
 C3480 C 0.27707 0.39447 0.89740
 C3481 C 0.30565 0.36942 0.86655
 N3482 N 0.30794 0.35189 0.84625
 N3483 N 0.28674 0.34096 0.83489
 C3484 C 0.26181 0.34681 0.84308
 H3485 H 0.24884 0.41412 0.92290
 H3486 H 0.20985 0.39391 0.90210
 H3487 H 0.32355 0.37762 0.87506
 H3488 H 0.24532 0.33727 0.83320
   
