data_POSCAR
  _audit_creation_date              2014-09-24
  _audit_creation_method            'ToBaCCo'
  _symmetry_space_group_name_H-M    'P1'
  _symmetry_Int_Tables_number       1
  _symmetry_cell_setting            triclinic
  loop_
  _symmetry_equiv_pos_as_xyz
 x,y,z
_cell_length_a 52.4562
_cell_length_b 55.9771
_cell_length_c 56.2578
_cell_angle_alpha 89.254100
_cell_angle_beta 90.045500
_cell_angle_gamma 89.602300
loop_
  _atom_site_label
  _atom_site_type_symbol
  _atom_site_fract_x
  _atom_site_fract_y
  _atom_site_fract_z
C1 C 0.33786 0.38818 0.33610
 C2 C 0.35948 0.37719 0.32648
 C3 C 0.36911 0.35574 0.33615
 C4 C 0.35707 0.34552 0.35629
 C5 C 0.33537 0.35647 0.36629
 C6 C 0.32578 0.37789 0.35606
 C7 C 0.32774 0.40899 0.32556
 C8 C 0.30563 0.41988 0.33483
 C9 C 0.29388 0.40966 0.35483
 C10 C 0.30377 0.38880 0.36545
 C11 C 0.29150 0.37843 0.38499
 C12 C 0.30065 0.35716 0.39542
 C13 C 0.32275 0.34621 0.38600
 H14 H 0.36862 0.38512 0.31102
 H15 H 0.36452 0.32924 0.36433
 H16 H 0.33666 0.41594 0.30962
 H17 H 0.27669 0.41779 0.36188
 H18 H 0.27446 0.38687 0.39199
 H19 H 0.32987 0.32954 0.39344
 C20 C 0.35022 0.86061 -0.18493
 C21 C 0.36999 0.85023 -0.19806
 C22 C 0.38185 0.82893 -0.19042
 C23 C 0.37371 0.81830 -0.16879
 C24 C 0.35385 0.82855 -0.15554
 C25 C 0.34190 0.84972 -0.16369
 C26 C 0.33860 0.88165 -0.19309
 C27 C 0.31863 0.89256 -0.18025
 C28 C 0.31000 0.88118 -0.15920
 C29 C 0.32160 0.85990 -0.15073
 C30 C 0.31339 0.84865 -0.12953
 C31 C 0.32543 0.82748 -0.12123
 C32 C 0.34571 0.81779 -0.13430
 H33 H 0.37604 0.85878 -0.21452
 H34 H 0.38245 0.80214 -0.16187
 H35 H 0.34489 0.88869 -0.21003
 H36 H 0.29443 0.88902 -0.14924
 H37 H 0.29807 0.85663 -0.11941
 H38 H 0.35501 0.80153 -0.12800
 C39 C 0.83791 0.35121 -0.17048
 C40 C 0.85805 0.33836 -0.18123
 C41 C 0.86866 0.31787 -0.16982
 C42 C 0.85891 0.31074 -0.14766
 C43 C 0.83881 0.32305 -0.13709
 C44 C 0.82826 0.34337 -0.14835
 C45 C 0.82701 0.37152 -0.18161
 C46 C 0.80637 0.38396 -0.17094
 C47 C 0.79704 0.37558 -0.14893
 C48 C 0.80775 0.35551 -0.13761
 C49 C 0.79794 0.34712 -0.11584
 C50 C 0.80832 0.32669 -0.10467
 C51 C 0.82878 0.31475 -0.11557
 H52 H 0.86522 0.34452 -0.19823
 H53 H 0.86672 0.29507 -0.13862
 H54 H 0.83457 0.37701 -0.19865
 H55 H 0.78119 0.38471 -0.14051
 H56 H 0.78195 0.35629 -0.10772
 H57 H 0.83658 0.29842 -0.10806
 C58 C 0.84939 0.87868 0.32042
 C59 C 0.87327 0.86949 0.31404
 C60 C 0.88400 0.84988 0.32632
 C61 C 0.87091 0.83993 0.34585
 C62 C 0.84694 0.84898 0.35247
 C63 C 0.83608 0.86835 0.33963
 C64 C 0.83856 0.89779 0.30751
 C65 C 0.81423 0.90689 0.31344
 C66 C 0.80124 0.89653 0.33294
 C67 C 0.81191 0.87734 0.34596
 C68 C 0.79864 0.86675 0.36501
 C69 C 0.80910 0.84719 0.37768
 C70 C 0.83354 0.83872 0.37153
 H71 H 0.88332 0.87728 0.29902
 H72 H 0.87911 0.82517 0.35590
 H73 H 0.84945 0.90525 0.29298
 H74 H 0.78255 0.90325 0.33787
 H75 H 0.77993 0.87350 0.36978
 H76 H 0.84240 0.82427 0.38156
 C77 C 0.64279 0.62480 0.32007
 C78 C 0.62137 0.63460 0.30874
 C79 C 0.61088 0.65640 0.31605
 C80 C 0.62169 0.66817 0.33565
 C81 C 0.64316 0.65844 0.34739
 C82 C 0.65377 0.63671 0.33944
 C83 C 0.65363 0.60344 0.31198
 C84 C 0.67574 0.59395 0.32277
 C85 C 0.68618 0.60557 0.34245
 C86 C 0.67541 0.62686 0.35078
 C87 C 0.68628 0.63862 0.37004
 C88 C 0.67612 0.66031 0.37815
 C89 C 0.65436 0.67012 0.36678
 H90 H 0.61312 0.62544 0.29372
 H91 H 0.61351 0.68472 0.34194
 H92 H 0.64472 0.59442 0.29730
 H93 H 0.70311 0.59826 0.35100
 H94 H 0.70301 0.63095 0.37864
 H95 H 0.64597 0.68663 0.37289
 C96 C 0.65359 0.13143 -0.16773
 C97 C 0.63337 0.14517 -0.17728
 C98 C 0.62605 0.16683 -0.16663
 C99 C 0.63904 0.17450 -0.14633
 C100 C 0.65926 0.16113 -0.13673
 C101 C 0.66650 0.13946 -0.14735
 C102 C 0.66123 0.10989 -0.17826
 C103 C 0.68153 0.09611 -0.16873
 C104 C 0.69415 0.10451 -0.14828
 C105 C 0.68682 0.12597 -0.13770
 C106 C 0.69990 0.13429 -0.11773
 C107 C 0.69302 0.15596 -0.10714
 C108 C 0.67254 0.16931 -0.11680
 H109 H 0.62323 0.13876 -0.19268
 H110 H 0.63348 0.19115 -0.13808
 H111 H 0.65134 0.10388 -0.19402
 H112 H 0.71018 0.09507 -0.14054
 H113 H 0.71570 0.12394 -0.11047
 H114 H 0.66705 0.18630 -0.10940
 C115 C 0.14380 0.64512 -0.17042
 C116 C 0.12410 0.65748 -0.18266
 C117 C 0.11255 0.67782 -0.17257
 C118 C 0.12030 0.68517 -0.15004
 C119 C 0.13977 0.67320 -0.13781
 C120 C 0.15194 0.65335 -0.14807
 C121 C 0.15579 0.62501 -0.18033
 C122 C 0.17612 0.61312 -0.16832
 C123 C 0.18445 0.62222 -0.14637
 C124 C 0.17248 0.64206 -0.13610
 C125 C 0.18079 0.65098 -0.11410
 C126 C 0.16830 0.67069 -0.10388
 C127 C 0.14763 0.68134 -0.11567
 H128 H 0.11845 0.65169 -0.20017
 H129 H 0.11140 0.70071 -0.14212
 H130 H 0.14939 0.61928 -0.19758
 H131 H 0.20018 0.61362 -0.13702
 H132 H 0.19666 0.64250 -0.10488
 H133 H 0.13815 0.69666 -0.10790
 C134 C 0.16619 0.15392 0.32947
 C135 C 0.14566 0.16457 0.31722
 C136 C 0.13447 0.18612 0.32515
 C137 C 0.14422 0.19647 0.34596
 C138 C 0.16471 0.18593 0.35845
 C139 C 0.17580 0.16464 0.35009
 C140 C 0.17750 0.13284 0.32105
 C141 C 0.19866 0.12231 0.33286
 C142 C 0.20806 0.13334 0.35341
 C143 C 0.19675 0.15425 0.36215
 C144 C 0.20628 0.16504 0.38265
 C145 C 0.19522 0.18609 0.39139
 C146 C 0.17450 0.19657 0.37899
 H147 H 0.13898 0.15583 0.30144
 H148 H 0.13596 0.21298 0.35244
 H149 H 0.16994 0.12538 0.30494
 H150 H 0.22431 0.12562 0.36274
 H151 H 0.22242 0.15701 0.39189
 H152 H 0.16619 0.21324 0.38479
 C153 C 0.66215 0.34542 0.66554
 C154 C 0.64032 0.33601 0.67677
 C155 C 0.62736 0.31651 0.66684
 C156 C 0.63628 0.30675 0.64551
 C157 C 0.65814 0.31563 0.63435
 C158 C 0.67114 0.33500 0.64436
 C159 C 0.67526 0.36497 0.67510
 C160 C 0.69722 0.37404 0.66371
 C161 C 0.70607 0.36321 0.64295
 C162 C 0.69320 0.34392 0.63315
 C163 C 0.70222 0.33334 0.61234
 C164 C 0.68964 0.31381 0.60246
 C165 C 0.66727 0.30527 0.61339
 H166 H 0.63336 0.34411 0.69290
 H167 H 0.62635 0.29181 0.63774
 H168 H 0.66860 0.37270 0.69152
 H169 H 0.72305 0.36999 0.63426
 H170 H 0.71934 0.34014 0.60392
 H171 H 0.65672 0.29073 0.60571
 C172 C 0.65283 0.85710 1.17832
 C173 C 0.63122 0.84705 1.18894
 C174 C 0.62047 0.82593 1.18031
 C175 C 0.63192 0.81501 1.16039
 C176 C 0.65365 0.82495 1.14960
 C177 C 0.66416 0.84611 1.15854
 C178 C 0.66334 0.87793 1.18746
 C179 C 0.68487 0.88835 1.17705
 C180 C 0.69624 0.87742 1.15713
 C181 C 0.68605 0.85619 1.14785
 C182 C 0.69743 0.84471 1.12830
 C183 C 0.68714 0.82329 1.11939
 C184 C 0.66514 0.81384 1.13012
 H185 H 0.62280 0.85574 1.20422
 H186 H 0.62442 0.79877 1.15307
 H187 H 0.65464 0.88619 1.20283
 H188 H 0.71325 0.88497 1.14925
 H189 H 0.71405 0.85263 1.12013
 H190 H 0.65703 0.79749 1.12338
 C191 C 0.17019 0.36333 1.16843
 C192 C 0.15069 0.35237 1.18182
 C193 C 0.13713 0.33267 1.17288
 C194 C 0.14281 0.32491 1.14963
 C195 C 0.16223 0.33547 1.13623
 C196 C 0.17605 0.35464 1.14562
 C197 C 0.18430 0.38254 1.17752
 C198 C 0.20421 0.39287 1.16404
 C199 C 0.20983 0.38384 1.14154
 C200 C 0.19587 0.36500 1.13219
 C201 C 0.20181 0.35610 1.10972
 C202 C 0.18847 0.33671 1.10047
 C203 C 0.16829 0.32677 1.11361
 H204 H 0.14645 0.35888 1.19947
 H205 H 0.13215 0.31086 1.14132
 H206 H 0.18015 0.38895 1.19518
 H207 H 0.22518 0.39164 1.13117
 H208 H 0.21736 0.36388 1.09961
 H209 H 0.15735 0.31220 1.10644
 C210 C 0.14752 0.86002 0.68843
 C211 C 0.12607 0.84898 0.69827
 C212 C 0.11564 0.82830 0.68819
 C213 C 0.12716 0.81887 0.66757
 C214 C 0.14881 0.82974 0.65753
 C215 C 0.15898 0.85037 0.66804
 C216 C 0.15783 0.88049 0.69885
 C217 C 0.17948 0.89155 0.68916
 C218 C 0.19101 0.88159 0.66892
 C219 C 0.18079 0.86126 0.65828
 C220 C 0.19231 0.85154 0.63814
 C221 C 0.18255 0.83098 0.62752
 C222 C 0.16059 0.82021 0.63724
 H223 H 0.11752 0.85652 0.71408
 H224 H 0.11982 0.80302 0.65930
 H225 H 0.14900 0.88785 0.71460
 H226 H 0.20828 0.88910 0.66160
 H227 H 0.20916 0.85995 0.63075
 H228 H 0.15243 0.80462 0.62908
 C229 C 0.35107 0.61861 0.67883
 C230 C 0.37243 0.62827 0.68995
 C231 C 0.38329 0.64954 0.68153
 C232 C 0.37292 0.66084 0.66107
 C233 C 0.35148 0.65128 0.64966
 C234 C 0.34044 0.63012 0.65869
 C235 C 0.33994 0.59778 0.68787
 C236 C 0.31807 0.58829 0.67735
 C237 C 0.30770 0.59954 0.65697
 C238 C 0.31878 0.62044 0.64763
 C239 C 0.30835 0.63194 0.62756
 C240 C 0.31896 0.65316 0.61846
 C241 C 0.34078 0.66262 0.62951
 H242 H 0.38038 0.61943 0.70558
 H243 H 0.38145 0.67690 0.65384
 H244 H 0.34806 0.58917 0.70355
 H245 H 0.29119 0.59216 0.64826
 H246 H 0.29162 0.62452 0.61915
 H247 H 0.34966 0.67862 0.62255
 C248 C 0.35834 0.13960 1.18105
 C249 C 0.37735 0.15153 1.19331
 C250 C 0.38284 0.17556 1.18835
 C251 C 0.37010 0.18716 1.16912
 C252 C 0.35142 0.17492 1.15589
 C253 C 0.34507 0.15123 1.16250
 C254 C 0.35171 0.11646 1.18806
 C255 C 0.33079 0.10493 1.17790
 C256 C 0.31786 0.11628 1.15879
 C257 C 0.32519 0.13922 1.15089
 C258 C 0.31259 0.15048 1.13187
 C259 C 0.31932 0.17360 1.12419
 C260 C 0.33858 0.18595 1.13654
 H261 H 0.38709 0.14221 1.20777
 H262 H 0.37438 0.20549 1.16439
 H263 H 0.36203 0.10796 1.20266
 H264 H 0.30220 0.10757 1.14996
 H265 H 0.29746 0.14108 1.12284
 H266 H 0.34340 0.20406 1.13144
 C267 C 0.84948 0.65595 1.19451
 C268 C 0.86615 0.67177 1.20583
 C269 C 0.87284 0.69357 1.19475
 C270 C 0.86243 0.69955 1.17254
 C271 C 0.84615 0.68385 1.16095
 C272 C 0.83962 0.66194 1.17186
 C273 C 0.84240 0.63436 1.20553
 C274 C 0.82575 0.61838 1.19427
 C275 C 0.81617 0.62464 1.17142
 C276 C 0.82295 0.64626 1.16025
 C277 C 0.81312 0.65260 1.13770
 C278 C 0.81996 0.67428 1.12663
 C279 C 0.83623 0.68993 1.13862
 H280 H 0.87350 0.66725 1.22333
 H281 H 0.86743 0.71639 1.16405
 H282 H 0.84995 0.62999 1.22302
 H283 H 0.80300 0.61333 1.16215
 H284 H 0.80017 0.64069 1.12872
 H285 H 0.84077 0.70722 1.13093
 C286 C 0.83524 0.12623 0.67816
 C287 C 0.85564 0.14015 0.68623
 C288 C 0.86436 0.15983 0.67264
 C289 C 0.85275 0.16508 0.65068
 C290 C 0.83240 0.15140 0.64241
 C291 C 0.82359 0.13193 0.65617
 C292 C 0.82607 0.10690 0.69183
 C293 C 0.80534 0.09327 0.68372
 C294 C 0.79393 0.09924 0.66186
 C295 C 0.80287 0.11836 0.64805
 C296 C 0.79111 0.12431 0.62639
 C297 C 0.79972 0.14365 0.61257
 C298 C 0.82041 0.15721 0.62078
 H299 H 0.86474 0.13538 0.70291
 H300 H 0.85942 0.18012 0.64011
 H301 H 0.83475 0.10302 0.70891
 H302 H 0.77788 0.08894 0.65558
 H303 H 0.77501 0.11396 0.62031
 H304 H 0.82687 0.17273 0.61091
 C305 C 0.35868 0.35248 0.68840
 C306 C 0.34737 0.37166 0.70043
 C307 C 0.32344 0.38087 0.69342
 C308 C 0.31099 0.37079 0.67369
 C309 C 0.32199 0.35157 0.66145
 C310 C 0.34591 0.34245 0.66885
 C311 C 0.38249 0.34308 0.69562
 C312 C 0.39359 0.32379 0.68340
 C313 C 0.38082 0.31423 0.66387
 C314 C 0.35709 0.32322 0.65666
 C315 C 0.34436 0.31302 0.63751
 C316 C 0.32058 0.32177 0.62998
 C317 C 0.30943 0.34119 0.64200
 H318 H 0.35715 0.37938 0.71546
 H319 H 0.29297 0.37797 0.66743
 H320 H 0.39234 0.35097 0.71047
 H321 H 0.38927 0.29938 0.65441
 H322 H 0.35304 0.29808 0.62837
 H323 H 0.29084 0.34791 0.63675
 C324 C 0.34427 0.85413 0.17454
 C325 C 0.32940 0.87196 0.18514
 C326 C 0.30820 0.88194 0.17313
 C327 C 0.30169 0.87339 0.15057
 C328 C 0.31632 0.85546 0.13979
 C329 C 0.33777 0.84587 0.15179
 C330 C 0.36546 0.84433 0.18645
 C331 C 0.38032 0.82632 0.17601
 C332 C 0.37396 0.81842 0.15311
 C333 C 0.35269 0.82796 0.14107
 C334 C 0.34598 0.81967 0.11855
 C335 C 0.32437 0.82870 0.10664
 C336 C 0.30978 0.84690 0.11725
 H337 H 0.33420 0.87762 0.20290
 H338 H 0.28522 0.88081 0.14136
 H339 H 0.37035 0.85062 0.20402
 H340 H 0.38552 0.80507 0.14440
 H341 H 0.35735 0.80572 0.11044
 H342 H 0.29348 0.85461 0.10812
 C343 C 0.87143 0.35814 0.16287
 C344 C 0.86050 0.37975 0.17052
 C345 C 0.84000 0.39025 0.15786
 C346 C 0.83128 0.37952 0.13708
 C347 C 0.84168 0.35788 0.12951
 C348 C 0.86171 0.34700 0.14245
 C349 C 0.89153 0.34724 0.17554
 C350 C 0.90199 0.32533 0.16821
 C351 C 0.89165 0.31408 0.14810
 C352 C 0.87166 0.32479 0.13517
 C353 C 0.86108 0.31343 0.11535
 C354 C 0.84073 0.32417 0.10271
 C355 C 0.83163 0.34660 0.10963
 H356 H 0.86793 0.38819 0.18626
 H357 H 0.81555 0.38758 0.12725
 H358 H 0.89904 0.35578 0.19124
 H359 H 0.89854 0.29673 0.14269
 H360 H 0.86877 0.29638 0.10985
 H361 H 0.81599 0.35496 0.09993
 C362 C 0.84014 0.84252 0.66866
 C363 C 0.82902 0.86050 0.68241
 C364 C 0.80796 0.87379 0.67381
 C365 C 0.79777 0.86837 0.65143
 C366 C 0.80856 0.85026 0.63755
 C367 C 0.82993 0.83738 0.64613
 C368 C 0.86103 0.82931 0.67738
 C369 C 0.87217 0.81112 0.66371
 C370 C 0.86186 0.80613 0.64125
 C371 C 0.84080 0.81907 0.63238
 C372 C 0.83018 0.81367 0.61019
 C373 C 0.80840 0.82607 0.60169
 C374 C 0.79804 0.84456 0.61543
 H375 H 0.83659 0.86361 0.69998
 H376 H 0.78132 0.87826 0.64483
 H377 H 0.86801 0.83294 0.69505
 H378 H 0.87013 0.79193 0.63076
 H379 H 0.83903 0.79977 0.59986
 H380 H 0.78139 0.85428 0.60904
 C381 C 0.65485 0.65939 0.67216
 C382 C 0.66236 0.63932 0.68566
 C383 C 0.68206 0.62425 0.67789
 C384 C 0.69463 0.62974 0.65630
 C385 C 0.68738 0.64990 0.64262
 C386 C 0.66743 0.66478 0.65065
 C387 C 0.63491 0.67416 0.67988
 C388 C 0.62724 0.69427 0.66631
 C389 C 0.64040 0.70002 0.64538
 C390 C 0.66025 0.68527 0.63733
 C391 C 0.67294 0.69074 0.61611
 C392 C 0.69249 0.67577 0.60757
 C393 C 0.69981 0.65555 0.62113
 H394 H 0.65272 0.63530 0.70227
 H395 H 0.71038 0.61879 0.65031
 H396 H 0.62557 0.67008 0.69660
 H397 H 0.63474 0.71569 0.63508
 H398 H 0.66774 0.70700 0.60665
 H399 H 0.71515 0.64417 0.61488
 C400 C 0.63601 0.17128 0.19124
 C401 C 0.64550 0.14936 0.20041
 C402 C 0.66565 0.13724 0.18897
 C403 C 0.67657 0.14767 0.16855
 C404 C 0.66710 0.16912 0.15905
 C405 C 0.64683 0.18103 0.17032
 C406 C 0.61620 0.18384 0.20266
 C407 C 0.60728 0.20596 0.19332
 C408 C 0.61827 0.21525 0.17250
 C409 C 0.63782 0.20298 0.16091
 C410 C 0.64869 0.21250 0.14012
 C411 C 0.66860 0.20046 0.12864
 C412 C 0.67804 0.17897 0.13852
 H413 H 0.63731 0.14175 0.21647
 H414 H 0.69293 0.13958 0.16010
 H415 H 0.60834 0.17664 0.21901
 H416 H 0.61155 0.23223 0.16528
 H417 H 0.64167 0.22934 0.13283
 H418 H 0.69421 0.16996 0.13066
 C419 C 0.13702 0.65429 0.17164
 C420 C 0.14497 0.63080 0.17587
 C421 C 0.16288 0.61993 0.16106
 C422 C 0.17208 0.63245 0.14098
 C423 C 0.16381 0.65600 0.13620
 C424 C 0.14630 0.66703 0.15173
 C425 C 0.12045 0.66537 0.18751
 C426 C 0.11264 0.68906 0.18387
 C427 C 0.12142 0.70178 0.16369
 C428 C 0.13827 0.69083 0.14759
 C429 C 0.14756 0.70333 0.12764
 C430 C 0.16507 0.69259 0.11205
 C431 C 0.17302 0.66882 0.11641
 H432 H 0.13800 0.62122 0.19143
 H433 H 0.18566 0.62401 0.12921
 H434 H 0.11371 0.65551 0.20298
 H435 H 0.11585 0.72025 0.16082
 H436 H 0.14134 0.72159 0.12434
 H437 H 0.18601 0.66008 0.10432
 C438 C 0.13459 0.14780 0.67530
 C439 C 0.14748 0.12909 0.68718
 C440 C 0.17185 0.12170 0.67982
 C441 C 0.18344 0.13354 0.66043
 C442 C 0.17070 0.15210 0.64827
 C443 C 0.14622 0.15928 0.65569
 C444 C 0.11037 0.15532 0.68287
 C445 C 0.09770 0.17437 0.67114
 C446 C 0.10924 0.18530 0.65130
 C447 C 0.13344 0.17804 0.64357
 C448 C 0.14516 0.18946 0.62411
 C449 C 0.16977 0.18254 0.61676
 C450 C 0.18224 0.16374 0.62892
 H451 H 0.13855 0.12026 0.70226
 H452 H 0.20255 0.12886 0.65492
 H453 H 0.10154 0.14620 0.69776
 H454 H 0.09954 0.19990 0.64212
 H455 H 0.13490 0.20355 0.61479
 H456 H 0.20116 0.15822 0.62335
 C457 C 0.33958 0.66898 0.32035
 C458 C 0.32808 0.65119 0.30669
 C459 C 0.30728 0.63818 0.31571
 C460 C 0.29787 0.64352 0.33844
 C461 C 0.30911 0.66130 0.35222
 C462 C 0.33009 0.67407 0.34320
 C463 C 0.36036 0.68183 0.31143
 C464 C 0.37219 0.69947 0.32518
 C465 C 0.36238 0.70471 0.34774
 C466 C 0.34146 0.69206 0.35692
 C467 C 0.33172 0.69713 0.37957
 C468 C 0.31053 0.68456 0.38866
 C469 C 0.29956 0.66659 0.37482
 H470 H 0.33525 0.64787 0.28901
 H471 H 0.28172 0.63371 0.34546
 H472 H 0.36703 0.67825 0.29361
 H473 H 0.37124 0.71849 0.35824
 H474 H 0.34086 0.71080 0.38985
 H475 H 0.28330 0.65678 0.38162
 C476 C 0.36907 0.14063 0.83232
 C477 C 0.35773 0.12232 0.81910
 C478 C 0.33598 0.11032 0.82785
 C479 C 0.32610 0.11660 0.85008
 C480 C 0.33712 0.13473 0.86339
 C481 C 0.35865 0.14684 0.85454
 C482 C 0.39047 0.15301 0.82361
 C483 C 0.40140 0.17163 0.83683
 C484 C 0.39099 0.17730 0.85906
 C485 C 0.36964 0.16524 0.86792
 C486 C 0.35880 0.17164 0.88976
 C487 C 0.33680 0.16005 0.89825
 C488 C 0.32650 0.14127 0.88520
 H489 H 0.36597 0.11766 0.80216
 H490 H 0.30941 0.10750 0.85697
 H491 H 0.39853 0.14792 0.80671
 H492 H 0.39930 0.19155 0.86935
 H493 H 0.36754 0.18564 0.89998
 H494 H 0.30965 0.13219 0.89173
 C495 C 0.83413 0.64661 0.81779
 C496 C 0.82256 0.62601 0.80926
 C497 C 0.80390 0.61405 0.82268
 C498 C 0.79638 0.62360 0.84465
 C499 C 0.80772 0.64450 0.85335
 C500 C 0.82688 0.65594 0.83993
 C501 C 0.85265 0.65814 0.80415
 C502 C 0.86459 0.67876 0.81227
 C503 C 0.85743 0.68822 0.83446
 C504 C 0.83844 0.67695 0.84832
 C505 C 0.83042 0.68653 0.87013
 C506 C 0.81106 0.67534 0.88366
 C507 C 0.79994 0.65432 0.87503
 H508 H 0.82783 0.61983 0.79179
 H509 H 0.78162 0.61478 0.85493
 H510 H 0.85801 0.65087 0.78707
 H511 H 0.86607 0.70449 0.84070
 H512 H 0.83884 0.70301 0.87604
 H513 H 0.78499 0.64566 0.88520
 C514 C 0.85695 0.15907 0.30352
 C515 C 0.84402 0.14027 0.29240
 C516 C 0.82183 0.13037 0.30274
 C517 C 0.81273 0.13973 0.32415
 C518 C 0.82535 0.15840 0.33541
 C519 C 0.84754 0.16811 0.32514
 C520 C 0.87889 0.16924 0.29325
 C521 C 0.89150 0.18829 0.30442
 C522 C 0.88179 0.19708 0.32587
 C523 C 0.86001 0.18717 0.33630
 C524 C 0.85036 0.19625 0.35763
 C525 C 0.82839 0.18654 0.36806
 C526 C 0.81584 0.16771 0.35666
 H527 H 0.85114 0.13384 0.27561
 H528 H 0.79563 0.13238 0.33215
 H529 H 0.88562 0.16258 0.27640
 H530 H 0.89125 0.21181 0.33449
 H531 H 0.85992 0.21097 0.36616
 H532 H 0.79830 0.16057 0.36381
 C533 C 0.64500 0.35858 0.33418
 C534 C 0.65855 0.37772 0.32397
 C535 C 0.68216 0.38479 0.33354
 C536 C 0.69169 0.37285 0.35378
 C537 C 0.67846 0.35365 0.36404
 C538 C 0.65505 0.34644 0.35423
 C539 C 0.62169 0.35123 0.32455
 C540 C 0.60824 0.33185 0.33451
 C541 C 0.61839 0.31998 0.35468
 C542 C 0.64173 0.32706 0.36447
 C543 C 0.65208 0.31485 0.38422
 C544 C 0.67575 0.32164 0.39372
 C545 C 0.68853 0.34131 0.38375
 H546 H 0.65046 0.38718 0.30881
 H547 H 0.70976 0.37828 0.36131
 H548 H 0.61408 0.36049 0.30902
 H549 H 0.60850 0.30517 0.36289
 H550 H 0.64155 0.30022 0.39211
 H551 H 0.70669 0.34673 0.39110
 C552 C 0.64490 0.82848 0.83339
 C553 C 0.65389 0.84915 0.82177
 C554 C 0.67212 0.86375 0.83262
 C555 C 0.68062 0.85786 0.85573
 C556 C 0.67219 0.83708 0.86733
 C557 C 0.65429 0.82229 0.85615
 C558 C 0.62693 0.81373 0.82249
 C559 C 0.61795 0.79296 0.83419
 C560 C 0.62789 0.78672 0.85660
 C561 C 0.64594 0.80124 0.86768
 C562 C 0.65603 0.79485 0.88998
 C563 C 0.67443 0.80915 0.90093
 C564 C 0.68183 0.83065 0.88976
 H565 H 0.64700 0.85373 0.80410
 H566 H 0.69383 0.86933 0.86487
 H567 H 0.62041 0.81833 0.80475
 H568 H 0.62139 0.77059 0.86552
 H569 H 0.65001 0.77840 0.89861
 H570 H 0.69524 0.84241 0.89827
 C571 C 0.12446 0.33800 0.82928
 C572 C 0.12966 0.35959 0.81751
 C573 C 0.15063 0.37348 0.82395
 C574 C 0.16628 0.36564 0.84295
 C575 C 0.16111 0.34409 0.85508
 C576 C 0.14025 0.33007 0.84808
 C577 C 0.10380 0.32416 0.82220
 C578 C 0.09892 0.30193 0.83314
 C579 C 0.11446 0.29425 0.85226
 C580 C 0.13518 0.30816 0.85981
 C581 C 0.15098 0.30054 0.87874
 C582 C 0.17191 0.31451 0.88592
 C583 C 0.17666 0.33623 0.87393
 H584 H 0.11754 0.36542 0.80288
 H585 H 0.18278 0.37578 0.84816
 H586 H 0.09146 0.33104 0.80827
 H587 H 0.11059 0.27731 0.86104
 H588 H 0.14663 0.28395 0.88787
 H589 H 0.19267 0.34707 0.87929
 C590 C 0.14534 0.86241 0.34266
 C591 C 0.15221 0.88396 0.33173
 C592 C 0.17253 0.89741 0.34042
 C593 C 0.18563 0.88945 0.36097
 C594 C 0.17878 0.86787 0.37230
 C595 C 0.15863 0.85425 0.36299
 C596 C 0.12578 0.84864 0.33309
 C597 C 0.11905 0.82665 0.34365
 C598 C 0.13237 0.81863 0.36394
 C599 C 0.15207 0.83226 0.37369
 C600 C 0.16560 0.82395 0.39366
 C601 C 0.18557 0.83749 0.40338
 C602 C 0.19201 0.85941 0.39248
 H603 H 0.14209 0.89001 0.31591
 H604 H 0.20103 0.89988 0.36820
 H605 H 0.11650 0.85502 0.31705
 H606 H 0.12747 0.80160 0.37209
 H607 H 0.16076 0.80664 0.40100
 H608 H 0.20756 0.86979 0.39961
 O609 O 0.28679 0.98185 0.25232
 O610 O 0.24880 1.03048 0.27829
 O611 O 0.25884 0.98611 0.29004
 O612 O 0.27677 1.02566 0.24033
 O613 O 0.24312 1.01466 0.21966
 O614 O 0.22501 0.97513 0.26962
 O615 O 0.21533 1.01935 0.25744
 O616 O 0.25327 0.97051 0.23164
 Cu617 Cu 0.27114 1.00724 0.26732
 Cu618 Cu 0.23077 0.99367 0.24261
 C619 C 0.27656 0.96798 0.23749
 C620 C 0.22564 1.03330 0.27217
 C621 C 0.23876 0.97380 0.28822
 C622 C 0.26326 1.02690 0.22157
 O623 O 0.19329 0.46641 0.76316
 O624 O 0.21684 0.50749 0.71621
 O625 O 0.21952 0.46158 0.72439
 O626 O 0.18795 0.51209 0.75335
 O627 O 0.22246 0.51883 0.77467
 O628 O 0.25435 0.46720 0.74562
 O629 O 0.25155 0.51294 0.73762
 O630 O 0.22781 0.47310 0.78448
 Cu631 Cu 0.20090 0.48627 0.73725
 Cu632 Cu 0.24246 0.49364 0.76278
 C633 C 0.20673 0.46262 0.78170
 C634 C 0.23848 0.51711 0.71902
 C635 C 0.24218 0.45571 0.72989
 C636 C 0.19972 0.52429 0.76862
 O637 O 0.76933 -0.00746 0.24620
 O638 O 0.73001 0.03810 0.21668
 O639 O 0.73566 -0.00883 0.21250
 O640 O 0.77078 0.03920 0.24363
 O641 O 0.79829 0.03997 0.21394
 O642 O 0.76291 -0.00582 0.18273
 O643 O 0.75761 0.04042 0.18716
 O644 O 0.79700 -0.00659 0.21666
 Cu645 Cu 0.74867 0.01519 0.23252
 Cu646 Cu 0.78155 0.01717 0.19726
 C647 C 0.78964 -0.01502 0.23665
 C648 C 0.73713 0.04740 0.19718
 C649 C 0.74381 -0.01566 0.19227
 C650 C 0.79086 0.04754 0.23386
 O651 O 0.74790 0.47142 0.70963
 O652 O 0.78711 0.51876 0.73668
 O653 O 0.78840 0.47223 0.73628
 O654 O 0.75480 0.51717 0.70106
 O655 O 0.72681 0.52304 0.72972
 O656 O 0.75960 0.47476 0.76474
 O657 O 0.75829 0.52226 0.76503
 O658 O 0.71853 0.47767 0.73701
 Cu659 Cu 0.77218 0.49458 0.71814
 Cu660 Cu 0.73841 0.49947 0.75188
 C661 C 0.72636 0.46653 0.71900
 C662 C 0.77921 0.52849 0.75573
 C663 C 0.77986 0.46541 0.75619
 C664 C 0.73560 0.52814 0.70911
 O665 O 0.23245 0.54345 0.21671
 O666 O 0.26506 0.50542 0.26150
 O667 O 0.26297 0.55107 0.25242
 O668 O 0.22698 0.49980 0.23229
 O669 O 0.25721 0.49139 0.20637
 O670 O 0.29392 0.54391 0.22686
 O671 O 0.29616 0.49943 0.23572
 O672 O 0.26399 0.53696 0.19156
 Cu673 Cu 0.24388 0.52569 0.24320
 Cu674 Cu 0.28017 0.51663 0.21235
 C675 C 0.24298 0.54687 0.19653
 C676 C 0.28652 0.49615 0.25608
 C677 C 0.28448 0.55628 0.24362
 C678 C 0.23582 0.48667 0.21615
 O679 O 0.73723 0.95415 0.78454
 O680 O 0.76920 1.00298 0.75171
 O681 O 0.76859 0.95655 0.74864
 O682 O 0.73658 1.00093 0.78628
 O683 O 0.76877 0.99887 0.81157
 O684 O 0.80112 0.95511 0.77358
 O685 O 0.80140 1.00129 0.77701
 O686 O 0.76984 0.95235 0.80937
 Cu687 Cu 0.74962 0.97879 0.76528
 Cu688 Cu 0.78846 0.97667 0.79546
 C689 C 0.74833 0.94483 0.80254
 C690 C 0.79068 1.01052 0.75886
 C691 C 0.79035 0.94838 0.75463
 C692 C 0.74741 1.00765 0.80522
 O693 O 0.78734 0.47091 0.24562
 O694 O 0.73880 0.51288 0.26594
 O695 O 0.74321 0.46667 0.26761
 O696 O 0.77709 0.51655 0.23691
 O697 O 0.75317 0.51056 0.20519
 O698 O 0.72014 0.46182 0.23516
 O699 O 0.71576 0.50740 0.23363
 O700 O 0.76511 0.46503 0.21295
 Cu701 Cu 0.76399 0.49220 0.25716
 Cu702 Cu 0.73705 0.48507 0.21861
 C703 C 0.78466 0.46084 0.22582
 C704 C 0.71915 0.51746 0.25354
 C705 C 0.72549 0.45605 0.25642
 C706 C 0.77030 0.52219 0.21573
 O707 O 0.27657 -0.01278 0.75981
 O708 O 0.24285 0.03417 0.72554
 O709 O 0.24245 -0.01265 0.72636
 O710 O 0.28004 0.03360 0.75667
 O711 O 0.30888 0.03209 0.72814
 O712 O 0.27178 -0.01397 0.69824
 O713 O 0.27196 0.03234 0.69728
 O714 O 0.30597 -0.01421 0.73175
 Cu715 Cu 0.25750 0.01088 0.74490
 Cu716 Cu 0.29257 0.00888 0.71107
 C717 C 0.29702 -0.02155 0.75151
 C718 C 0.25154 0.04119 0.70560
 C719 C 0.25099 -0.02126 0.70708
 C720 C 0.30092 0.04065 0.74752
 O721 O 0.28681 0.25452 1.02402
 O722 O 0.24397 0.26964 0.97339
 O723 O 0.24245 0.27497 1.01912
 O724 O 0.28937 0.25061 0.97775
 O725 O 0.27157 0.21510 0.98119
 O726 O 0.22414 0.23971 1.02281
 O727 O 0.22617 0.23414 0.97687
 O728 O 0.26832 0.21934 1.02736
 Cu729 Cu 0.26750 0.26594 0.99818
 Cu730 Cu 0.24580 0.22349 1.00230
 C731 C 0.28450 0.23441 1.03456
 C732 C 0.22765 0.25441 0.96663
 C733 C 0.22545 0.26164 1.02815
 C734 C 0.28846 0.22875 0.97232
 O735 O 0.22050 0.74309 0.53862
 O736 O 0.26190 0.72427 0.48920
 O737 O 0.26308 0.71917 0.53561
 O738 O 0.21963 0.74842 0.49266
 O739 O 0.24200 0.78163 0.49463
 O740 O 0.28456 0.75275 0.53885
 O741 O 0.28418 0.75739 0.49243
 O742 O 0.24191 0.77682 0.54074
 Cu743 Cu 0.23918 0.73033 0.51375
 Cu744 Cu 0.26541 0.77046 0.51701
 C745 C 0.22405 0.76332 0.54796
 C746 C 0.27989 0.73775 0.48222
 C747 C 0.28101 0.73108 0.54484
 C748 C 0.22352 0.76988 0.48615
 O749 O 0.27560 0.77013 -0.02906
 O750 O 0.25639 0.72982 0.02047
 O751 O 0.25986 0.72610 -0.02569
 O752 O 0.27606 0.77226 0.01732
 O753 O 0.23695 0.78700 0.01556
 O754 O 0.22035 0.73993 -0.02702
 O755 O 0.21739 0.74485 0.01872
 O756 O 0.23622 0.78417 -0.03099
 Cu757 Cu 0.27089 0.74819 -0.00408
 Cu758 Cu 0.22386 0.76549 -0.00630
 C759 C 0.25900 0.78398 -0.03851
 C760 C 0.23359 0.73072 0.02818
 C761 C 0.23727 0.72495 -0.03351
 C762 C 0.25940 0.78725 0.02405
 O763 O 0.20133 0.27512 0.48366
 O764 O 0.23193 0.30903 0.53081
 O765 O 0.24263 0.30269 0.48468
 O766 O 0.19812 0.27666 0.52882
 O767 O 0.22516 0.24663 0.53388
 O768 O 0.27004 0.27336 0.49161
 O769 O 0.25969 0.27967 0.53671
 O770 O 0.23003 0.24624 0.48759
 Cu771 Cu 0.21657 0.29395 0.50589
 Cu772 Cu 0.24894 0.25854 0.51305
 C773 C 0.21035 0.25512 0.47739
 C774 C 0.25060 0.30007 0.54219
 C775 C 0.26389 0.29238 0.48061
 C776 C 0.20427 0.25694 0.53886
 O777 O 0.77971 0.79405 0.98421
 O778 O 0.81472 0.75706 1.02822
 O779 O 0.81237 0.75914 0.98190
 O780 O 0.78435 0.79402 1.03044
 O781 O 0.75192 0.76917 1.03268
 O782 O 0.78003 0.73413 0.98316
 O783 O 0.78243 0.73202 1.03002
 O784 O 0.74742 0.76903 0.98656
 Cu785 Cu 0.80101 0.77852 1.00606
 Cu786 Cu 0.76230 0.74852 1.00837
 C787 C 0.75758 0.78766 0.97780
 C788 C 0.80443 0.73834 1.03673
 C789 C 0.80095 0.74103 0.97392
 C790 C 0.76344 0.78772 1.03984
 O791 O 0.74276 0.18880 0.46899
 O792 O 0.70862 0.21813 0.51762
 O793 O 0.70495 0.21920 0.47141
 O794 O 0.74789 0.18995 0.51514
 O795 O 0.77458 0.22016 0.51173
 O796 O 0.73124 0.24981 0.46963
 O797 O 0.73532 0.24844 0.51548
 O798 O 0.76871 0.21958 0.46584
 Cu799 Cu 0.72344 0.20090 0.49350
 Cu800 Cu 0.75513 0.23754 0.49039
 C801 C 0.76135 0.19920 0.45900
 C802 C 0.71622 0.23818 0.52495
 C803 C 0.71081 0.23972 0.46325
 C804 C 0.76850 0.20023 0.52092
 O805 O 0.75503 0.20113 0.02851
 O806 O 0.79204 0.23365 -0.01689
 O807 O 0.79592 0.22710 0.02870
 O808 O 0.75221 0.20603 -0.01756
 O809 O 0.72723 0.23745 -0.01236
 O810 O 0.77209 0.25955 0.03232
 O811 O 0.76665 0.26500 -0.01288
 O812 O 0.73133 0.23343 0.03356
 Cu813 Cu 0.77621 0.21369 0.00515
 Cu814 Cu 0.74678 0.25201 0.01071
 C815 C 0.73702 0.21198 0.03897
 C816 C 0.78557 0.25487 -0.02260
 C817 C 0.79166 0.24722 0.03804
 C818 C 0.73230 0.21803 -0.02279
 O819 O 0.77548 0.74910 0.45817
 O820 O 0.73725 0.72054 0.50549
 O821 O 0.73462 0.72273 0.45912
 O822 O 0.77768 0.74656 0.50447
 O823 O 0.75343 0.77882 0.50712
 O824 O 0.71115 0.75557 0.46031
 O825 O 0.71265 0.75271 0.50658
 O826 O 0.75200 0.78186 0.46067
 Cu827 Cu 0.75865 0.73148 0.48148
 Cu828 Cu 0.72993 0.77052 0.48384
 C829 C 0.77037 0.77034 0.45146
 C830 C 0.71847 0.73192 0.51417
 C831 C 0.71564 0.73504 0.45188
 C832 C 0.77264 0.76651 0.51387
 O833 O 1.04697 0.26383 0.22151
 O834 O 0.99469 0.22945 0.24980
 O835 O 1.04464 0.23015 0.25426
 O836 O 0.99724 0.26320 0.21765
 O837 O 1.00058 0.23576 0.18993
 O838 O 1.04732 0.20270 0.22652
 O839 O 0.99796 0.20212 0.22199
 O840 O 1.04980 0.23605 0.19409
 Cu841 Cu 1.02061 0.24938 0.23867
 Cu842 Cu 1.02427 0.21643 0.20541
 C843 C 1.05718 0.25562 0.20279
 C844 C 0.98727 0.21008 0.24051
 C845 C 1.05408 0.21078 0.24650
 C846 C 0.99083 0.25501 0.19755
 O847 O 0.54107 0.27707 0.76217
 O848 O 0.49054 0.23600 0.78319
 O849 O 0.54003 0.23440 0.78145
 O850 O 0.49119 0.27926 0.76552
 O851 O 0.48873 0.26393 0.72965
 O852 O 0.53768 0.21886 0.74566
 O853 O 0.48806 0.22077 0.74726
 O854 O 0.53821 0.26151 0.72644
 Cu855 Cu 0.51602 0.25827 0.77666
 Cu856 Cu 0.51294 0.23979 0.73365
 C857 C 0.54828 0.27618 0.74063
 C858 C 0.48072 0.22139 0.76872
 C859 C 0.54710 0.21893 0.76646
 C860 C 0.48146 0.27911 0.74489
 O861 O 0.00287 0.24729 0.78089
 O862 O -0.04910 0.20940 0.76024
 O863 O 0.00092 0.20741 0.75832
 O864 O -0.04637 0.25259 0.77748
 O865 O -0.04500 0.26968 0.74192
 O866 O 0.00178 0.22505 0.72301
 O867 O -0.04776 0.22646 0.72466
 O868 O 0.00459 0.26497 0.74560
 Cu869 Cu -0.02327 0.22740 0.77269
 Cu870 Cu -0.02155 0.24829 0.73033
 C871 C 0.01286 0.26237 0.76678
 C872 C -0.05721 0.21120 0.73908
 C873 C 0.00972 0.20894 0.73729
 C874 C -0.05358 0.26895 0.76292
 O875 O 0.50821 0.25502 0.25037
 O876 O 0.45768 0.28828 0.28313
 O877 O 0.50819 0.28515 0.28468
 O878 O 0.46104 0.26705 0.24107
 O879 O 0.45290 0.23455 0.26231
 O880 O 0.50063 0.25324 0.30697
 O881 O 0.45032 0.25548 0.30410
 O882 O 0.49964 0.22310 0.27237
 Cu883 Cu 0.48410 0.27701 0.26306
 Cu884 Cu 0.47486 0.23870 0.28860
 C885 C 0.51248 0.23318 0.25617
 C886 C 0.44539 0.27713 0.29938
 C887 C 0.51304 0.27239 0.30290
 C888 C 0.44927 0.24758 0.24377
 O889 O 0.96459 0.75318 0.71904
 O890 O 1.01006 0.70959 0.74416
 O891 O 0.96334 0.72295 0.75460
 O892 O 1.01293 0.74396 0.71240
 O893 O 1.02417 0.77089 0.73866
 O894 O 0.97640 0.74919 0.78086
 O895 O 1.02282 0.73639 0.76994
 O896 O 0.97603 0.77982 0.74553
 Cu897 Cu 0.98650 0.72975 0.73000
 Cu898 Cu 1.00108 0.76167 0.76133
 C899 C 0.96236 0.77379 0.72794
 C900 C 1.02443 0.71558 0.76114
 C901 C 0.96148 0.73263 0.77494
 C902 C 1.02698 0.76129 0.71853
 O903 O 0.47765 0.73727 0.20861
 O904 O 0.52680 0.71504 0.25067
 O905 O 0.47764 0.70798 0.24397
 O906 O 0.52686 0.73591 0.20781
 O907 O 0.52453 0.76853 0.22936
 O908 O 0.47387 0.74030 0.26589
 O909 O 0.52210 0.74760 0.27201
 O910 O 0.47376 0.76966 0.23036
 Cu911 Cu 0.50308 0.72094 0.22614
 Cu912 Cu 0.49867 0.75975 0.25102
 C913 C 0.46711 0.75739 0.21265
 C914 C 0.53263 0.72753 0.26866
 C915 C 0.46712 0.71910 0.26080
 C916 C 0.53423 0.75684 0.21223
 O917 O -0.03185 0.78802 0.27293
 O918 O 0.01230 0.76718 0.22762
 O919 O -0.03323 0.75452 0.24156
 O920 O 0.01509 0.79689 0.26288
 O921 O 0.02853 0.76931 0.28847
 O922 O -0.01806 0.72686 0.26621
 O923 O 0.02742 0.74003 0.25284
 O924 O -0.01889 0.76003 0.29827
 Cu925 Cu -0.01084 0.77932 0.24867
 Cu926 Cu 0.00624 0.74628 0.27891
 C927 C -0.03307 0.77791 0.29317
 C928 C 0.02760 0.75026 0.23246
 C929 C -0.03384 0.73346 0.25039
 C930 C 0.02982 0.79024 0.27970
 O931 O 0.52219 0.74307 0.77265
 O932 O 0.47086 0.71295 0.73878
 O933 O 0.51947 0.70862 0.74043
 O934 O 0.47210 0.73787 0.77682
 O935 O 0.47085 0.76888 0.75212
 O936 O 0.52060 0.73943 0.71550
 O937 O 0.47070 0.74343 0.71345
 O938 O 0.52001 0.77320 0.74701
 Cu939 Cu 0.49672 0.72309 0.75974
 Cu940 Cu 0.49541 0.75915 0.72955
 C941 C 0.52953 0.76362 0.76544
 C942 C 0.46208 0.72344 0.72019
 C943 C 0.52827 0.71864 0.72199
 C944 C 0.46314 0.75808 0.77089
 C945 C 0.39168 0.34490 0.32436
 C946 C 0.39773 0.32169 0.32561
 C947 C 0.41910 0.31188 0.31157
 C948 C 0.42493 0.28867 0.31312
 H949 H 0.38636 0.30954 0.33624
 H950 H 0.42985 0.32354 0.29982
 H951 H 0.40291 0.35636 0.31280
 H952 H 0.41417 0.27735 0.32520
 C953 C 0.40115 0.81931 0.79502
 C954 C 0.41327 0.79853 0.79902
 C955 C 0.43271 0.78970 0.78238
 C956 C 0.44365 0.76848 0.78638
 H957 H 0.40892 0.78739 0.81426
 H958 H 0.43795 0.80036 0.76694
 H959 H 0.40631 0.82925 0.77906
 H960 H 0.43810 0.75804 0.80189
 C961 C -0.11165 0.30359 0.82079
 C962 C -0.10117 0.30562 0.79918
 C963 C -0.08169 0.28792 0.79210
 C964 C -0.07219 0.28733 0.77014
 H965 H -0.10719 0.31926 0.78656
 H966 H -0.07539 0.27466 0.80510
 H967 H -0.10475 0.28893 0.83195
 H968 H -0.07840 0.30048 0.75702
 C969 C -0.09156 0.84017 0.31737
 C970 C -0.08261 0.81812 0.32196
 C971 C -0.06101 0.80916 0.30796
 C972 C -0.05151 0.78705 0.31059
 H973 H -0.09220 0.80609 0.33413
 H974 H -0.05358 0.82067 0.29396
 H975 H -0.08145 0.85114 0.30446
 H976 H -0.05790 0.77550 0.32496
 C977 C 0.58889 0.66594 0.30225
 C978 C 0.58111 0.68872 0.30219
 C979 C 0.56092 0.69666 0.28564
 C980 C 0.55195 0.71901 0.28579
 H981 H 0.59017 0.70177 0.31336
 H982 H 0.55350 0.68409 0.27290
 H983 H 0.57955 0.65376 0.29024
 H984 H 0.55888 0.73142 0.29890
 C985 C 0.60468 0.18195 0.82452
 C986 C 0.59568 0.18199 0.80226
 C987 C 0.57561 0.19928 0.79534
 C988 C 0.56652 0.20088 0.77317
 H989 H 0.60359 0.17019 0.78903
 H990 H 0.56836 0.21129 0.80876
 H991 H 0.59678 0.19478 0.83685
 H992 H 0.57349 0.18881 0.75969
 C993 C 1.09345 0.69313 0.81508
 C994 C 1.07855 0.68650 0.79711
 C995 C 1.05971 0.70378 0.78748
 C996 C 1.04319 0.69809 0.77047
 H997 H 1.07963 0.66862 0.79006
 H998 H 1.05928 0.72166 0.79468
 H999 H 1.09086 0.71102 0.82195
 H1000 H 1.04352 0.68030 0.76309
 C1001 C 1.11429 0.19803 0.31305
 C1002 C 1.10323 0.19054 0.29294
 C1003 C 1.08307 0.20468 0.28087
 C1004 C 1.07331 0.19723 0.26030
 H1005 H 1.10894 0.17410 0.28463
 H1006 H 1.07663 0.22136 0.28847
 H1007 H 1.10737 0.21470 0.32036
 H1008 H 1.08013 0.18061 0.25282
 C1009 C 0.60426 0.30564 0.67758
 C1010 C 0.59764 0.30687 0.70053
 C1011 C 0.57578 0.29275 0.70925
 C1012 C 0.56884 0.29208 0.73214
 H1013 H 0.60885 0.31698 0.71299
 H1014 H 0.56555 0.28195 0.69657
 H1015 H 0.59285 0.29456 0.66606
 H1016 H 0.57875 0.30296 0.74494
 C1017 C 0.59902 0.81668 0.19237
 C1018 C 0.58676 0.79655 0.18692
 C1019 C 0.56535 0.78804 0.20167
 C1020 C 0.55446 0.76709 0.19726
 H1021 H 0.59246 0.78573 0.17208
 H1022 H 0.55900 0.79858 0.21661
 H1023 H 0.59205 0.82647 0.20761
 H1024 H 0.56122 0.75653 0.18249
 C1025 C 1.11839 0.32150 0.18729
 C1026 C 1.10745 0.30050 0.18216
 C1027 C 1.08736 0.28941 0.19694
 C1028 C 1.07778 0.26838 0.19035
 H1029 H 1.11349 0.29042 0.16693
 H1030 H 1.08028 0.29836 0.21259
 H1031 H 1.11298 0.33000 0.20377
 H1032 H 1.08523 0.25992 0.17454
 C1033 C 1.09446 0.81795 0.69970
 C1034 C 1.08181 0.79839 0.69291
 C1035 C 1.06084 0.78936 0.70792
 C1036 C 1.04694 0.77027 0.70229
 H1037 H 1.08668 0.78880 0.67699
 H1038 H 1.05690 0.79856 0.72438
 H1039 H 1.08787 0.82653 0.71580
 H1040 H 1.05044 0.76103 0.68579
 C1041 C 0.40533 0.65912 0.69481
 C1042 C 0.41228 0.68201 0.69399
 C1043 C 0.43336 0.69072 0.70881
 C1044 C 0.44143 0.71311 0.70607
 H1045 H 0.40203 0.69476 0.68289
 H1046 H 0.44230 0.67888 0.72180
 H1047 H 0.41544 0.64703 0.70680
 H1048 H 0.43271 0.72448 0.69253
 C1049 C 0.40028 0.18649 0.20379
 C1050 C 0.40635 0.20965 0.20440
 C1051 C 0.42334 0.21774 0.22363
 C1052 C 0.43162 0.24014 0.22489
 H1053 H 0.39864 0.22251 0.19176
 H1054 H 0.42953 0.20486 0.23704
 H1055 H 0.40894 0.17508 0.21738
 H1056 H 0.42628 0.25303 0.21120
 C1057 C -0.10954 0.71081 0.20559
 C1058 C -0.09068 0.70448 0.22034
 C1059 C -0.07224 0.72238 0.22827
 C1060 C -0.05289 0.71618 0.24247
 H1061 H -0.08800 0.68598 0.22569
 H1062 H -0.07437 0.74077 0.22223
 H1063 H -0.11092 0.72931 0.19969
 H1064 H -0.05108 0.69785 0.24877
 C1065 C -0.11433 0.17528 0.68036
 C1066 C -0.10666 0.17732 0.70292
 C1067 C -0.08600 0.19383 0.70926
 C1068 C -0.07785 0.19520 0.73169
 H1069 H -0.11592 0.16731 0.71701
 H1070 H -0.07734 0.20481 0.69549
 H1071 H -0.10522 0.18632 0.66689
 H1072 H -0.08636 0.18385 0.74524
 C1073 C 0.29302 0.44059 0.32298
 C1074 C 0.30476 0.45483 0.30730
 C1075 C 0.29034 0.47233 0.29293
 C1076 C 0.30073 0.48123 0.27314
 H1077 H 0.32493 0.45279 0.30384
 H1078 H 0.27070 0.47644 0.29740
 H1079 H 0.27297 0.44365 0.32661
 H1080 H 0.32001 0.47607 0.26836
 C1081 C 0.30659 -0.08614 0.81164
 C1082 C 0.31587 -0.07218 0.79406
 C1083 C 0.30159 -0.05180 0.78376
 C1084 C 0.31078 -0.04063 0.76441
 H1085 H 0.33443 -0.07556 0.78651
 H1086 H 0.28327 -0.04675 0.79113
 H1087 H 0.28891 -0.08072 0.82004
 H1088 H 0.32885 -0.04639 0.75700
 C1089 C 0.79411 0.40413 0.81871
 C1090 C 0.80115 0.41514 0.79850
 C1091 C 0.78634 0.43554 0.78866
 C1092 C 0.79399 0.44616 0.76857
 H1093 H 0.81776 0.40939 0.78875
 H1094 H 0.76903 0.44142 0.79739
 H1095 H 0.77761 0.41140 0.82783
 H1096 H 0.81128 0.43986 0.76007
 C1097 C 0.80221 -0.07423 0.30070
 C1098 C 0.81137 -0.06343 0.28100
 C1099 C 0.79674 -0.04414 0.26909
 C1100 C 0.80470 -0.03392 0.24875
 H1101 H 0.82924 -0.06866 0.27306
 H1102 H 0.77893 -0.03839 0.27702
 H1103 H 0.78381 -0.06815 0.30715
 H1104 H 0.82237 -0.03977 0.24064
 C1105 C 0.30679 0.56684 0.68871
 C1106 C 0.28259 0.55996 0.68606
 C1107 C 0.27269 0.54079 0.70153
 C1108 C 0.24840 0.53377 0.70086
 H1109 H 0.26968 0.56934 0.67413
 H1110 H 0.28545 0.53299 0.71473
 H1111 H 0.31860 0.55725 0.70154
 H1112 H 0.23554 0.54092 0.68741
 C1113 C 0.32325 1.08323 0.18853
 C1114 C 0.30104 1.07212 0.18505
 C1115 C 0.29405 1.05260 0.20154
 C1116 C 0.27077 1.04316 0.20206
 H1117 H 0.28714 1.07855 0.17225
 H1118 H 0.30788 1.04697 0.21486
 H1119 H 0.33558 1.07594 0.20239
 H1120 H 0.25681 1.04813 0.18864
 C1121 C 0.81899 0.59716 0.20666
 C1122 C 0.80470 0.57961 0.19773
 C1123 C 0.79686 0.55872 0.21225
 C1124 C 0.78156 0.54245 0.20266
 H1125 H 0.79813 0.58030 0.17956
 H1126 H 0.80258 0.55716 0.23072
 H1127 H 0.82577 0.59486 0.22478
 H1128 H 0.77576 0.54470 0.18425
 C1129 C 0.79412 1.07323 0.69761
 C1130 C 0.80565 1.06176 0.71568
 C1131 C 0.79268 1.04184 0.72791
 C1132 C 0.80351 1.03026 0.74624
 H1133 H 0.82463 1.06659 0.72131
 H1134 H 0.77388 1.03668 0.72190
 H1135 H 0.77542 1.06716 0.69219
 H1136 H 0.82219 1.03558 0.75239
 C1137 C 0.68890 0.57232 0.31393
 C1138 C 0.68581 0.56350 0.29211
 C1139 C 0.70226 0.54388 0.28404
 C1140 C 0.70044 0.53503 0.26214
 H1141 H 0.67250 0.57147 0.27959
 H1142 H 0.71692 0.53720 0.29605
 H1143 H 0.70319 0.56416 0.32546
 H1144 H 0.68557 0.54130 0.25017
 C1145 C 0.68897 1.07500 0.81950
 C1146 C 0.70700 1.05964 0.82732
 C1147 C 0.71573 1.03941 0.81286
 C1148 C 0.73575 1.02621 0.81999
 H1149 H 0.71630 1.06183 0.84425
 H1150 H 0.70673 1.03614 0.79587
 H1151 H 0.67972 1.07106 0.80275
 H1152 H 0.74498 1.03011 0.83674
 C1153 C 0.18882 0.59273 0.82268
 C1154 C 0.18135 0.58018 0.80374
 C1155 C 0.19592 0.55905 0.79558
 C1156 C 0.18634 0.54515 0.77863
 H1157 H 0.16408 0.58476 0.79421
 H1158 H 0.21439 0.55495 0.80332
 H1159 H 0.20557 0.58627 0.83217
 H1160 H 0.16764 0.54936 0.77141
 C1161 C 0.21134 1.10162 0.32469
 C1162 C 0.20355 1.08803 0.30662
 C1163 C 0.21902 1.06758 0.29860
 C1164 C 0.21034 1.05310 0.28174
 H1165 H 0.18580 1.09152 0.29745
 H1166 H 0.23777 1.06459 0.30624
 H1167 H 0.22874 1.09620 0.33378
 H1168 H 0.19141 1.05598 0.27446
 C1169 C 0.71216 0.39427 0.67298
 C1170 C 0.70266 0.41128 0.68691
 C1171 C 0.71891 0.43117 0.69450
 C1172 C 0.71017 0.44752 0.70953
 H1173 H 0.68292 0.41087 0.69247
 H1174 H 0.73846 0.43205 0.68829
 H1175 H 0.73178 0.39582 0.66709
 H1176 H 0.69086 0.44613 0.71625
 C1177 C 0.69517 -0.09001 0.18850
 C1178 C 0.70861 -0.07313 0.17726
 C1179 C 0.71740 -0.05190 0.19023
 C1180 C 0.73193 -0.03554 0.17952
 H1181 H 0.71298 -0.07477 0.15854
 H1182 H 0.71287 -0.05017 0.20893
 H1183 H 0.69034 -0.08730 0.20703
 H1184 H 0.73712 -0.03788 0.16103
 C1185 C 0.22024 0.41265 0.17269
 C1186 C 0.21234 0.42896 0.18818
 C1187 C 0.22880 0.44927 0.19428
 C1188 C 0.22055 0.46594 0.20918
 H1189 H 0.19337 0.42796 0.19570
 H1190 H 0.24765 0.45064 0.18650
 H1191 H 0.23891 0.41480 0.16468
 H1192 H 0.20176 0.46419 0.21703
 C1193 C 0.19014 -0.08729 0.70129
 C1194 C 0.20632 -0.07199 0.69090
 C1195 C 0.21793 -0.05230 0.70414
 C1196 C 0.23712 -0.03998 0.69447
 H1197 H 0.21159 -0.07401 0.67245
 H1198 H 0.21160 -0.04857 0.72206
 H1199 H 0.18448 -0.08422 0.71954
 H1200 H 0.24382 -0.04454 0.67686
 C1201 C 0.28546 0.34695 0.41531
 C1202 C 0.29288 0.32907 0.42976
 C1203 C 0.27549 0.32053 0.44858
 C1204 C 0.28166 0.30207 0.46272
 H1205 H 0.31141 0.32072 0.42791
 H1206 H 0.25704 0.32915 0.45050
 H1207 H 0.26686 0.35493 0.41840
 H1208 H 0.29995 0.29322 0.46058
 C1209 C 0.31814 0.81491 -0.09885
 C1210 C 0.29502 0.81592 -0.08887
 C1211 C 0.28920 0.80080 -0.06784
 C1212 C 0.26574 0.79996 -0.05861
 H1213 H 0.28006 0.82687 -0.09672
 H1214 H 0.30420 0.78971 -0.06020
 H1215 H 0.33221 0.80289 -0.09100
 H1216 H 0.25075 0.81100 -0.06634
 C1217 C 0.79619 0.31723 -0.08273
 C1218 C 0.80685 0.30030 -0.06888
 C1219 C 0.79244 0.28875 -0.04971
 C1220 C 0.80028 0.26775 -0.04071
 H1221 H 0.82599 0.29387 -0.07205
 H1222 H 0.77468 0.29677 -0.04387
 H1223 H 0.77724 0.32371 -0.07839
 H1224 H 0.81754 0.25942 -0.04734
 C1225 C 0.79407 0.83626 0.39733
 C1226 C 0.79776 0.81386 0.40539
 C1227 C 0.78196 0.80373 0.42462
 C1228 C 0.78599 0.78140 0.43262
 H1229 H 0.81210 0.80248 0.39748
 H1230 H 0.76689 0.81457 0.43220
 H1231 H 0.77872 0.84679 0.40488
 H1232 H 0.80117 0.77074 0.42499
 C1233 C 0.70062 0.30303 0.58077
 C1234 C 0.69527 0.28102 0.57337
 C1235 C 0.70837 0.27102 0.55261
 C1236 C 0.70270 0.24924 0.54489
 H1237 H 0.68199 0.26982 0.58299
 H1238 H 0.72301 0.28143 0.54377
 H1239 H 0.71478 0.31329 0.57108
 H1240 H 0.68780 0.23906 0.55360
 C1241 C 0.69814 0.80997 1.09893
 C1242 C 0.72111 0.81372 1.08918
 C1243 C 0.73040 0.79852 1.06954
 C1244 C 0.75306 0.80241 1.05932
 H1245 H 0.73344 0.82754 1.09579
 H1246 H 0.71862 0.78399 1.06344
 H1247 H 0.68681 0.79554 1.09188
 H1248 H 0.76457 0.81715 1.06537
 C1249 C 0.19697 0.32696 1.07749
 C1250 C 0.19389 0.30416 1.07134
 C1251 C 0.20760 0.29478 1.05068
 C1252 C 0.20770 0.27150 1.04575
 H1253 H 0.18347 0.29184 1.08262
 H1254 H 0.21941 0.30692 1.04040
 H1255 H 0.20864 0.33838 1.06627
 H1256 H 0.19578 0.25930 1.05582
 C1257 C 0.19601 0.82187 0.60625
 C1258 C 0.19330 0.80000 0.59728
 C1259 C 0.20920 0.79263 0.57703
 C1260 C 0.20734 0.77095 0.56754
 H1261 H 0.18027 0.78726 0.60513
 H1262 H 0.22302 0.80516 0.56995
 H1263 H 0.20991 0.83364 0.59804
 H1264 H 0.19337 0.75845 0.57438
 C1265 C 0.30641 0.66459 0.59746
 C1266 C 0.31006 0.68719 0.59017
 C1267 C 0.29482 0.69735 0.57038
 C1268 C 0.29762 0.72003 0.56313
 H1269 H 0.32327 0.69867 0.59926
 H1270 H 0.28053 0.68627 0.56211
 H1271 H 0.29235 0.65409 0.58815
 H1272 H 0.31195 0.73107 0.57137
 C1273 C 0.30496 0.18377 1.10355
 C1274 C 0.31155 0.20288 1.09037
 C1275 C 0.29598 0.20940 1.06926
 C1276 C 0.30062 0.22860 1.05551
 H1277 H 0.32836 0.21313 1.09449
 H1278 H 0.28006 0.19800 1.06487
 H1279 H 0.28813 0.17403 1.09816
 H1280 H 0.31608 0.24049 1.05997
 C1281 C 0.80872 0.68119 1.10332
 C1282 C 0.82054 0.69605 1.08814
 C1283 C 0.80740 0.70654 1.06735
 C1284 C 0.81816 0.72448 1.05512
 H1285 H 0.83982 0.70178 1.09177
 H1286 H 0.78819 0.70090 1.06321
 H1287 H 0.78994 0.67458 1.09897
 H1288 H 0.83714 0.73033 1.05988
 C1289 C 0.78549 0.14995 0.59055
 C1290 C 0.79456 0.16420 0.57334
 C1291 C 0.77823 0.17184 0.55336
 C1292 C 0.78554 0.18959 0.53891
 H1293 H 0.81375 0.17107 0.57419
 H1294 H 0.75945 0.16411 0.55147
 H1295 H 0.76643 0.14281 0.58863
 H1296 H 0.80397 0.19783 0.54152
 C1297 C 0.68922 0.67164 0.39850
 C1298 C 0.68557 0.69408 0.40578
 C1299 C 0.70150 0.70341 0.42516
 C1300 C 0.69871 0.72561 0.43330
 H1301 H 0.67179 0.70580 0.39723
 H1302 H 0.71618 0.69186 0.43270
 H1303 H 0.70370 0.66096 0.40753
 H1304 H 0.68388 0.73716 0.42608
 C1305 C 0.70849 0.16420 -0.08674
 C1306 C 0.70239 0.18270 -0.07299
 C1307 C 0.71967 0.19012 -0.05390
 C1308 C 0.71478 0.20965 -0.04126
 H1309 H 0.68489 0.19267 -0.07563
 H1310 H 0.73690 0.17979 -0.05054
 H1311 H 0.72602 0.15449 -0.08290
 H1312 H 0.69770 0.22010 -0.04487
 C1313 C 0.17628 0.68141 -0.08127
 C1314 C 0.20063 0.68443 -0.07521
 C1315 C 0.20692 0.70091 -0.05591
 C1316 C 0.23099 0.70625 -0.05066
 H1317 H 0.21578 0.67682 -0.08586
 H1318 H 0.19150 0.70985 -0.04666
 H1319 H 0.16163 0.69032 -0.07097
 H1320 H 0.24650 0.69699 -0.05942
 C1321 C 0.20665 0.19689 0.41291
 C1322 C 0.19510 0.21347 0.42612
 C1323 C 0.20805 0.22403 0.44673
 C1324 C 0.19760 0.24259 0.45790
 H1325 H 0.17603 0.21961 0.42185
 H1326 H 0.22656 0.21721 0.45220
 H1327 H 0.22545 0.19069 0.41827
 H1328 H 0.17945 0.24973 0.45176
 C1329 C 0.31254 0.40135 0.70687
 C1330 C 0.28789 0.40781 0.70626
 C1331 C 0.27810 0.42840 0.71984
 C1332 C 0.25370 0.43520 0.71756
 H1333 H 0.27441 0.39781 0.69586
 H1334 H 0.29082 0.43813 0.73135
 H1335 H 0.32533 0.41122 0.71821
 H1336 H 0.24143 0.42545 0.70562
 C1337 C 0.29202 0.90080 0.18384
 C1338 C 0.30032 0.91558 0.20064
 C1339 C 0.28354 0.93409 0.21063
 C1340 C 0.29230 0.94894 0.22711
 H1341 H 0.31983 0.91452 0.20685
 H1342 H 0.26401 0.93563 0.20444
 H1343 H 0.27278 0.90310 0.17708
 H1344 H 0.31190 0.94729 0.23309
 C1345 C 0.82617 0.41179 0.16594
 C1346 C 0.82447 0.41819 0.18867
 C1347 C 0.80612 0.43681 0.19564
 C1348 C 0.80436 0.44386 0.21811
 H1349 H 0.83500 0.40862 0.20239
 H1350 H 0.79331 0.44432 0.18232
 H1351 H 0.81459 0.42134 0.15291
 H1352 H 0.81770 0.43697 0.23128
 C1353 C 0.79544 0.89271 0.68804
 C1354 C 0.80662 0.90355 0.70634
 C1355 C 0.79288 0.92157 0.72032
 C1356 C 0.80354 0.93083 0.73969
 H1357 H 0.82609 0.89935 0.71124
 H1358 H 0.77379 0.92692 0.71501
 H1359 H 0.77626 0.89812 0.68304
 H1360 H 0.82249 0.92508 0.74505
 C1361 C 0.68947 0.60360 0.69337
 C1362 C 0.70158 0.58416 0.68550
 C1363 C 0.70942 0.56457 0.70185
 C1364 C 0.72423 0.54693 0.69385
 H1365 H 0.70612 0.58260 0.66682
 H1366 H 0.70429 0.56520 0.72050
 H1367 H 0.68426 0.60427 0.71200
 H1368 H 0.72999 0.54721 0.67534
 C1369 C 0.67612 0.11453 0.19927
 C1370 C 0.69038 0.09914 0.18671
 C1371 C 0.70356 0.07853 0.19790
 C1372 C 0.72188 0.06676 0.18611
 H1373 H 0.69326 0.10192 0.16786
 H1374 H 0.69923 0.07380 0.21620
 H1375 H 0.67256 0.11071 0.21791
 H1376 H 0.72681 0.07233 0.16818
 C1377 C 0.17246 0.59615 0.16849
 C1378 C 0.19663 0.58929 0.16561
 C1379 C 0.20689 0.56953 0.18024
 C1380 C 0.23135 0.56317 0.17895
 H1381 H 0.20960 0.59992 0.15494
 H1382 H 0.19474 0.56126 0.19356
 H1383 H 0.16036 0.58559 0.18015
 H1384 H 0.24340 0.57080 0.16521
 C1385 C 0.18487 0.10218 0.69336
 C1386 C 0.20472 0.08968 0.68502
 C1387 C 0.21722 0.07094 0.69957
 C1388 C 0.23809 0.05977 0.69165
 H1389 H 0.21194 0.09296 0.66729
 H1390 H 0.20953 0.06651 0.71695
 H1391 H 0.17754 0.09768 0.71086
 H1392 H 0.24581 0.06456 0.67438
 C1393 C 0.29427 0.61932 0.30200
 C1394 C 0.30405 0.60832 0.28299
 C1395 C 0.28959 0.58907 0.27163
 C1396 C 0.29880 0.57656 0.25335
 H1397 H 0.32276 0.61269 0.27625
 H1398 H 0.27105 0.58466 0.27891
 H1399 H 0.27581 0.61358 0.30851
 H1400 H 0.31735 0.58074 0.24600
 C1401 C 0.32246 0.09130 0.81475
 C1402 C 0.32702 0.08508 0.79228
 C1403 C 0.31125 0.06668 0.78102
 C1404 C 0.31637 0.05898 0.75918
 H1405 H 0.34184 0.09356 0.78192
 H1406 H 0.29529 0.05925 0.79079
 H1407 H 0.30716 0.08223 0.82410
 H1408 H 0.33267 0.06604 0.74963
 C1409 C 0.79100 0.59245 0.81352
 C1410 C 0.80064 0.57883 0.79618
 C1411 C 0.78600 0.55904 0.78609
 C1412 C 0.79435 0.54736 0.76691
 H1413 H 0.81933 0.58230 0.78888
 H1414 H 0.76777 0.55455 0.79397
 H1415 H 0.77269 0.58777 0.82115
 H1416 H 0.81239 0.55218 0.75885
 C1417 C 0.80694 0.11078 0.29185
 C1418 C 0.81503 0.09724 0.27392
 C1419 C 0.79879 0.07818 0.26431
 C1420 C 0.80619 0.06619 0.24513
 H1421 H 0.83366 0.09993 0.26618
 H1422 H 0.78061 0.07428 0.27259
 H1423 H 0.78831 0.10703 0.29933
 H1424 H 0.82417 0.07071 0.23674
 C1425 C 0.69738 0.40463 0.32316
 C1426 C 0.69610 0.41131 0.30028
 C1427 C 0.71237 0.43051 0.29055
 C1428 C 0.71048 0.43684 0.26764
 H1429 H 0.68341 0.40221 0.28827
 H1430 H 0.72568 0.43953 0.30207
 H1431 H 0.71113 0.41326 0.33455
 H1432 H 0.69682 0.42780 0.25648
 C1433 C 0.68191 0.88494 0.81939
 C1434 C 0.70459 0.89475 0.82395
 C1435 C 0.71425 0.91537 0.81022
 C1436 C 0.73677 0.92485 0.81581
 H1437 H 0.71682 0.88716 0.83762
 H1438 H 0.70315 0.92262 0.79552
 H1439 H 0.67057 0.89208 0.80478
 H1440 H 0.74753 0.91743 0.83066
 C1441 C 0.15593 0.39511 0.80925
 C1442 C 0.17353 0.41148 0.81418
 C1443 C 0.17888 0.43083 0.79695
 C1444 C 0.19858 0.44540 0.80008
 H1445 H 0.18469 0.41039 0.83031
 H1446 H 0.16757 0.43223 0.78085
 H1447 H 0.14501 0.39738 0.79298
 H1448 H 0.21022 0.44355 0.81595
 C1449 C 0.17951 0.91916 0.32677
 C1450 C 0.20271 0.92883 0.32666
 C1451 C 0.20883 0.94740 0.30884
 C1452 C 0.23179 0.95743 0.30779
 H1453 H 0.21768 0.92196 0.33816
 H1454 H 0.19453 0.95223 0.29566
 H1455 H 0.16543 0.92621 0.31433
 H1456 H 0.24596 0.95320 0.32127
 C1457 C 0.41838 0.31275 0.69006
 C1458 C 0.42853 0.31303 0.71185
 C1459 C 0.45112 0.29806 0.71715
 C1460 C 0.46101 0.29639 0.73899
 H1461 H 0.41938 0.32271 0.72607
 H1462 H 0.45908 0.28727 0.70306
 H1463 H 0.42775 0.30203 0.67667
 H1464 H 0.45330 0.30729 0.75309
 C1465 C 0.40247 0.81666 0.18957
 C1466 C 0.41400 0.79576 0.18515
 C1467 C 0.43514 0.78729 0.20035
 C1468 C 0.44674 0.76629 0.19674
 H1469 H 0.40756 0.78444 0.17095
 H1470 H 0.44106 0.79834 0.21502
 H1471 H 0.40900 0.82692 0.20460
 H1472 H 0.44090 0.75522 0.18206
 C1473 C 0.92284 0.31431 0.18264
 C1474 C 0.93847 0.29717 0.17468
 C1475 C 0.95814 0.28620 0.19014
 C1476 C 0.97181 0.26753 0.18261
 H1477 H 0.93695 0.29094 0.15662
 H1478 H 0.96093 0.29296 0.20792
 H1479 H 0.92558 0.32077 0.20054
 H1480 H 0.96840 0.26060 0.16499
 C1481 C 0.89353 0.79601 0.67280
 C1482 C 0.90894 0.80214 0.69070
 C1483 C 0.92864 0.78542 0.69962
 C1484 C 0.94355 0.79088 0.71806
 H1485 H 0.90712 0.81937 0.69904
 H1486 H 0.93053 0.76814 0.69130
 H1487 H 0.89672 0.77898 0.66427
 H1488 H 0.94160 0.80815 0.72640
 C1489 C 0.58406 0.32457 0.32285
 C1490 C 0.57015 0.30535 0.32883
 C1491 C 0.54762 0.29913 0.31456
 C1492 C 0.53379 0.27952 0.31902
 H1493 H 0.57550 0.29367 0.34344
 H1494 H 0.54283 0.31050 0.29943
 H1495 H 0.57772 0.33540 0.30782
 H1496 H 0.53849 0.26802 0.33406
 C1497 C 0.59867 0.77711 0.82334
 C1498 C 0.58194 0.78485 0.80700
 C1499 C 0.56303 0.76896 0.79614
 C1500 C 0.54892 0.77735 0.77810
 H1501 H 0.58186 0.80344 0.80148
 H1502 H 0.56095 0.75070 0.80246
 H1503 H 0.59770 0.75871 0.82952
 H1504 H 0.55192 0.79552 0.77182
 C1505 C 0.07738 0.28680 0.82524
 C1506 C 0.06704 0.28858 0.80343
 C1507 C 0.04509 0.27403 0.79633
 C1508 C 0.03450 0.27686 0.77477
 H1509 H 0.07487 0.30074 0.79029
 H1510 H 0.03754 0.26098 0.80883
 H1511 H 0.07006 0.27355 0.83764
 H1512 H 0.04220 0.28995 0.76240
 C1513 C 0.09912 0.81105 0.33355
 C1514 C 0.08257 0.81793 0.31661
 C1515 C 0.06412 0.80094 0.30705
 C1516 C 0.04843 0.80713 0.28922
 H1517 H 0.08225 0.83600 0.30963
 H1518 H 0.06350 0.78305 0.31463
 H1519 H 0.09805 0.79289 0.34043
 H1520 H 0.04914 0.82499 0.28157
 C1521 C 0.60567 0.70959 0.67381
 C1522 C 0.58549 0.70045 0.68503
 C1523 C 0.56473 0.71545 0.69435
 C1524 C 0.54754 0.70534 0.70866
 H1525 H 0.58452 0.68131 0.68810
 H1526 H 0.56446 0.73456 0.69099
 H1527 H 0.60614 0.72854 0.66958
 H1528 H 0.54903 0.68635 0.71260
 C1529 C 0.58721 0.22061 0.20487
 C1530 C 0.56951 0.21188 0.21957
 C1531 C 0.54964 0.22765 0.22960
 C1532 C 0.53234 0.21875 0.24456
 H1533 H 0.56920 0.19300 0.22394
 H1534 H 0.54939 0.24652 0.22503
 H1535 H 0.58630 0.23946 0.20017
 H1536 H 0.53316 0.19989 0.24923
 C1537 C 0.09611 0.69969 0.20226
 C1538 C 0.08007 0.71792 0.19843
 C1539 C 0.06298 0.72568 0.21763
 C1540 C 0.04551 0.74270 0.21389
 H1541 H 0.07867 0.72641 0.18107
 H1542 H 0.06440 0.71702 0.23495
 H1543 H 0.09609 0.69105 0.21965
 H1544 H 0.04417 0.75135 0.19657
 C1545 C 0.07264 0.18383 0.67900
 C1546 C 0.06272 0.18042 0.70072
 C1547 C 0.03958 0.19364 0.70762
 C1548 C 0.03012 0.19250 0.72968
 H1549 H 0.07236 0.16946 0.71395
 H1550 H 0.03100 0.20574 0.69465
 H1551 H 0.06264 0.19572 0.66673
 H1552 H 0.03852 0.18039 0.74273
 C1553 C 0.39439 0.71300 0.31602
 C1554 C 0.41108 0.70336 0.30090
 C1555 C 0.43217 0.71708 0.29033
 C1556 C 0.44683 0.70677 0.27395
 H1557 H 0.40907 0.68486 0.29585
 H1558 H 0.43507 0.73555 0.29516
 H1559 H 0.39729 0.73107 0.32212
 H1560 H 0.44320 0.68840 0.26915
 C1561 C 0.42364 0.18574 0.82842
 C1562 C 0.43132 0.18732 0.80577
 C1563 C 0.45246 0.20330 0.79897
 C1564 C 0.46037 0.20498 0.77643
 H1565 H 0.42160 0.17765 0.79197
 H1566 H 0.46142 0.21403 0.81249
 H1567 H 0.43345 0.19641 0.84149
 H1568 H 0.45152 0.19401 0.76303
 C1569 C 0.88383 0.68970 0.79632
 C1570 C 0.90307 0.70339 0.80339
 C1571 C 0.92255 0.71095 0.78598
 C1572 C 0.94190 0.72492 0.79211
 H1573 H 0.90513 0.70815 0.82188
 H1574 H 0.92102 0.70494 0.76778
 H1575 H 0.88309 0.68478 0.77773
 H1576 H 0.94311 0.73142 0.81014
 C1577 C 0.91421 0.20037 0.29415
 C1578 C 0.92924 0.19126 0.27729
 C1579 C 0.95135 0.20488 0.26835
 C1580 C 0.96587 0.19651 0.25078
 H1581 H 0.92558 0.17379 0.27008
 H1582 H 0.95545 0.22216 0.27588
 H1583 H 0.91914 0.21763 0.30133
 H1584 H 0.96139 0.17940 0.24303
 C1585 C 0.30808 0.30929 0.61004
 C1586 C 0.28971 0.31865 0.59625
 C1587 C 0.27951 0.30476 0.57630
 C1588 C 0.26136 0.31368 0.56203
 H1589 H 0.28261 0.33658 0.59914
 H1590 H 0.28692 0.28692 0.57330
 H1591 H 0.31520 0.29158 0.60589
 H1592 H 0.25379 0.33143 0.56521
 C1593 C 0.31776 0.81818 0.08339
 C1594 C 0.29465 0.81948 0.07331
 C1595 C 0.28915 0.80529 0.05209
 C1596 C 0.26579 0.80451 0.04263
 H1597 H 0.27926 0.82940 0.08144
 H1598 H 0.30421 0.79411 0.04497
 H1599 H 0.33223 0.80724 0.07497
 H1600 H 0.25069 0.81570 0.04964
 C1601 C 0.82773 0.31269 0.08257
 C1602 C 0.82723 0.28914 0.07905
 C1603 C 0.81023 0.27959 0.06074
 C1604 C 0.80970 0.25639 0.05565
 H1605 H 0.83788 0.27686 0.09035
 H1606 H 0.79752 0.29187 0.05139
 H1607 H 0.81609 0.32414 0.07117
 H1608 H 0.82300 0.24408 0.06416
 C1609 C 0.79539 0.82014 0.57899
 C1610 C 0.80013 0.80050 0.56633
 C1611 C 0.78462 0.79471 0.54532
 C1612 C 0.78914 0.77469 0.53327
 H1613 H 0.81462 0.78780 0.57184
 H1614 H 0.76885 0.80633 0.54028
 H1615 H 0.78021 0.83202 0.57299
 H1616 H 0.80492 0.76318 0.53855
 C1617 C 0.29884 0.68951 0.41222
 C1618 C 0.30499 0.70779 0.42621
 C1619 C 0.29070 0.71220 0.44831
 C1620 C 0.29566 0.73122 0.46162
 H1621 H 0.31974 0.72024 0.42121
 H1622 H 0.27524 0.70034 0.45316
 H1623 H 0.28355 0.67786 0.41800
 H1624 H 0.31095 0.74317 0.45652
 C1625 C 0.32342 0.16742 0.92016
 C1626 C 0.32430 0.18961 0.92858
 C1627 C 0.30744 0.19702 0.94805
 C1628 C 0.30699 0.21971 0.95502
 H1629 H 0.33605 0.20302 0.92004
 H1630 H 0.29446 0.18415 0.95591
 H1631 H 0.31046 0.15476 0.92838
 H1632 H 0.32004 0.23243 0.94704
 C1633 C 0.80080 0.68547 0.90617
 C1634 C 0.81274 0.70172 0.91942
 C1635 C 0.80073 0.71168 0.94104
 C1636 C 0.81247 0.72865 0.95344
 H1637 H 0.83148 0.70796 0.91443
 H1638 H 0.78192 0.70572 0.94632
 H1639 H 0.78245 0.67901 0.91225
 H1640 H 0.83107 0.73470 0.94764
 C1641 C 0.81841 0.19729 0.39017
 C1642 C 0.80269 0.18589 0.40512
 C1643 C 0.79192 0.19798 0.42590
 C1644 C 0.77407 0.18729 0.43911
 H1645 H 0.79732 0.16757 0.40203
 H1646 H 0.79789 0.21600 0.42988
 H1647 H 0.82433 0.21529 0.39433
 H1648 H 0.76786 0.16946 0.43466
 C1649 C 0.68805 0.30879 0.41389
 C1650 C 0.68275 0.28630 0.42047
 C1651 C 0.69810 0.27441 0.43908
 C1652 C 0.69391 0.25183 0.44595
 H1653 H 0.66822 0.27617 0.41150
 H1654 H 0.71368 0.28425 0.44690
 H1655 H 0.70346 0.31785 0.42288
 H1656 H 0.67812 0.24201 0.43852
 C1657 C 0.68592 0.80059 0.92359
 C1658 C 0.70871 0.80766 0.93151
 C1659 C 0.72059 0.79582 0.95223
 C1660 C 0.74402 0.80164 0.95939
 H1661 H 0.71963 0.82093 0.92189
 H1662 H 0.71055 0.78128 0.96095
 H1663 H 0.67615 0.78645 0.93321
 H1664 H 0.75399 0.81626 0.95074
 C1665 C 0.18915 0.30774 0.90602
 C1666 C 0.19056 0.28605 0.91634
 C1667 C 0.20878 0.28129 0.93597
 C1668 C 0.21002 0.25988 0.94678
 H1669 H 0.17873 0.27160 0.91030
 H1670 H 0.22117 0.29551 0.94174
 H1671 H 0.20194 0.32141 0.91237
 H1672 H 0.19737 0.24582 0.94109
 C1673 C 0.20100 0.82881 0.42402
 C1674 C 0.19430 0.81053 0.43827
 C1675 C 0.21140 0.80145 0.45717
 C1676 C 0.20631 0.78081 0.46838
 H1677 H 0.17629 0.80161 0.43596
 H1678 H 0.22870 0.81108 0.46120
 H1679 H 0.21891 0.83771 0.42745
 H1680 H 0.18939 0.77093 0.46358
 C1681 C 0.70631 0.68150 0.58516
 C1682 C 0.69645 0.69556 0.56796
 C1683 C 0.71155 0.70331 0.54723
 C1684 C 0.70321 0.72143 0.53350
 H1685 H 0.67712 0.70226 0.56933
 H1686 H 0.73010 0.69529 0.54408
 H1687 H 0.72533 0.67417 0.58290
 H1688 H 0.68520 0.73006 0.53762
 C1689 C 0.67989 0.21135 0.10704
 C1690 C 0.69349 0.19894 0.09128
 C1691 C 0.70593 0.21108 0.07126
 C1692 C 0.72288 0.19957 0.05783
 H1693 H 0.69600 0.17982 0.09317
 H1694 H 0.70204 0.22992 0.06817
 H1695 H 0.67691 0.23034 0.10401
 H1696 H 0.72722 0.18090 0.06137
 C1697 C 0.17390 0.70656 0.09102
 C1698 C 0.19593 0.70253 0.07961
 C1699 C 0.20325 0.71753 0.05897
 C1700 C 0.22605 0.71531 0.04846
 H1701 H 0.20892 0.68864 0.08570
 H1702 H 0.18979 0.73087 0.05248
 H1703 H 0.16203 0.72145 0.08515
 H1704 H 0.23970 0.70227 0.05520
 C1705 C 0.18333 0.19408 0.59654
 C1706 C 0.17667 0.21494 0.58626
 C1707 C 0.19271 0.22522 0.56728
 C1708 C 0.18714 0.24619 0.55674
 H1709 H 0.16018 0.22492 0.59213
 H1710 H 0.20982 0.21558 0.56218
 H1711 H 0.20048 0.18523 0.59030
 H1712 H 0.17001 0.25585 0.56166
   
