data_POSCAR
  _audit_creation_date              2014-09-24
  _audit_creation_method            'ToBaCCo'
  _symmetry_space_group_name_H-M    'P1'
  _symmetry_Int_Tables_number       1
  _symmetry_cell_setting            triclinic
  loop_
  _symmetry_equiv_pos_as_xyz
 x,y,z
_cell_length_a 35.6617
_cell_length_b 34.6474
_cell_length_c 44.1035
_cell_angle_alpha 90.092100
_cell_angle_beta 89.727200
_cell_angle_gamma 90.065700
loop_
  _atom_site_label
  _atom_site_type_symbol
  _atom_site_fract_x
  _atom_site_fract_y
  _atom_site_fract_z
B1 B 0.26279 0.23904 0.27478
 B2 B 0.21965 0.22553 0.26329
 B3 B 0.22794 0.27169 0.27357
 B4 B 0.27171 0.28399 0.26164
 B5 B 0.28980 0.24448 0.24358
 B6 B 0.25766 0.20817 0.24521
 B7 B 0.22749 0.26766 0.21253
 B8 B 0.27095 0.28046 0.22325
 B9 B 0.26217 0.23442 0.21360
 B10 B 0.21882 0.22243 0.22542
 B11 B 0.20084 0.26185 0.24311
 B12 B 0.23323 0.29825 0.24203
 B13 B 0.74288 0.78241 0.21984
 B14 B 0.73490 0.73600 0.23052
 B15 B 0.77848 0.75061 0.22061
 B16 B 0.78530 0.79598 0.23340
 B17 B 0.74505 0.80976 0.25129
 B18 B 0.71342 0.77276 0.24901
 B19 B 0.77363 0.74775 0.28179
 B20 B 0.78175 0.79360 0.27161
 B21 B 0.73785 0.78001 0.28096
 B22 B 0.73126 0.73423 0.26850
 B23 B 0.77182 0.72042 0.25051
 B24 B 0.80284 0.75767 0.25257
 B25 B 0.73113 0.22172 -0.27777
 B26 B 0.77468 0.20546 -0.27058
 B27 B 0.76867 0.25154 -0.28091
 B28 B 0.72825 0.26793 -0.26554
 B29 B 0.70946 0.23083 -0.24475
 B30 B 0.73854 0.19192 -0.24820
 B31 B 0.77751 0.24938 -0.22000
 B32 B 0.73428 0.26650 -0.22783
 B33 B 0.74017 0.21984 -0.21700
 B34 B 0.78068 0.20349 -0.23259
 B35 B 0.79920 0.24037 -0.25314
 B36 B 0.77069 0.27950 -0.24986
 B37 B 0.26437 0.75836 -0.27737
 B38 B 0.22186 0.77450 -0.26594
 B39 B 0.22775 0.72771 -0.27546
 B40 B 0.27071 0.71328 -0.26352
 B41 B 0.29088 0.75215 -0.24614
 B42 B 0.26078 0.79020 -0.24826
 B43 B 0.22730 0.73336 -0.21450
 B44 B 0.26997 0.71773 -0.22516
 B45 B 0.26378 0.76445 -0.21622
 B46 B 0.22119 0.77864 -0.22808
 B47 B 0.20110 0.73985 -0.24503
 B48 B 0.23144 0.70174 -0.24352
 B49 B 1.23043 1.27903 0.72835
 B50 B 1.21752 1.23308 0.73585
 B51 B 1.26143 1.24284 0.72323
 B52 B 1.27568 1.28504 0.73897
 B53 B 1.24015 1.30101 0.76152
 B54 B 1.20376 1.26873 0.75913
 B55 B 1.26347 1.23142 0.78389
 B56 B 1.27669 1.27716 0.77701
 B57 B 1.23253 1.26797 0.78893
 B58 B 1.21857 1.22572 0.77339
 B59 B 1.25447 1.20987 0.75078
 B60 B 1.29041 1.24207 0.75328
 B61 B 0.77625 0.74795 0.77684
 B62 B 0.73088 0.73793 0.76939
 B63 B 0.74352 0.78264 0.78076
 B64 B 0.78572 0.79335 0.76520
 B65 B 0.79866 0.75460 0.74392
 B66 B 0.76456 0.72005 0.74659
 B67 B 0.73362 0.78351 0.72007
 B68 B 0.77907 0.79320 0.72720
 B69 B 0.76661 0.74871 0.71615
 B70 B 0.72423 0.73806 0.73166
 B71 B 0.71127 0.77710 0.75313
 B72 B 0.74551 0.81130 0.74998
 B73 B 1.22531 0.73350 0.21612
 B74 B 1.26744 0.71600 0.22623
 B75 B 1.26343 0.76276 0.21686
 B76 B 1.22173 0.77941 0.22914
 B77 B 1.19997 0.74224 0.24694
 B78 B 1.22840 0.70250 0.24552
 B79 B 1.26433 0.75794 0.27809
 B80 B 1.22278 0.77617 0.26703
 B81 B 1.22623 0.72926 0.27711
 B82 B 1.26846 0.71229 0.26470
 B83 B 1.29032 0.74967 0.24659
 B84 B 1.26215 0.78923 0.24860
 B85 B 0.77705 1.24768 0.21707
 B86 B 0.73388 1.26443 0.22619
 B87 B 0.74030 1.21731 0.21673
 B88 B 0.78182 1.20268 0.23115
 B89 B 0.80059 1.24110 0.24954
 B90 B 0.77120 1.27950 0.24610
 B91 B 0.73445 1.22266 0.27774
 B92 B 0.77777 1.20686 0.26922
 B93 B 0.77143 1.25349 0.27814
 B94 B 0.72989 1.26804 0.26405
 B95 B 0.71081 1.22930 0.24539
 B96 B 0.74080 1.19124 0.24891
 N97 N 0.45548 0.95403 0.05132
 N98 N 0.42859 0.94551 0.07088
 N99 N 0.53738 0.92994 0.03493
 N100 N 0.56494 0.90607 0.04157
 N101 N 0.53444 0.95712 0.05556
 N102 N 0.56032 0.95292 0.07655
 N103 N 0.45915 0.92643 0.03109
 N104 N 0.43526 0.89820 0.03658
 C105 C 0.41585 0.91089 0.06104
 C106 C 0.57921 0.92106 0.06745
 N107 N 0.54295 0.95593 -0.05136
 N108 N 0.57077 0.95039 -0.07062
 N109 N 0.46427 0.92592 -0.03384
 N110 N 0.43880 0.89941 -0.03982
 N111 N 0.46400 0.95314 -0.05450
 N112 N 0.43795 0.94619 -0.07495
 N113 N 0.54268 0.92905 -0.03044
 N114 N 0.57007 0.90407 -0.03522
 Mn115 Mn 0.50099 0.92741 0.00044
 C116 C 0.58768 0.91816 -0.06018
 C117 C 0.42226 0.91284 -0.06521
 N118 N 0.53177 1.03953 0.05493
 N119 N 0.55821 1.04499 0.07526
 N120 N 0.45469 1.06430 0.03008
 N121 N 0.42926 1.09110 0.03533
 N122 N 0.45288 1.03713 0.05075
 N123 N 0.42584 1.04457 0.07044
 N124 N 0.53311 1.06642 0.03402
 N125 N 0.56020 1.09137 0.03986
 Mn126 Mn 0.49350 0.99697 0.05349
 C127 C 0.57574 1.07736 0.06559
 C128 C 0.41086 1.07787 0.06007
 N129 N 0.46191 1.03602 -0.05538
 N130 N 0.43713 1.04145 -0.07698
 N131 N 0.53828 1.06576 -0.03153
 N132 N 0.56447 1.09209 -0.03632
 N133 N 0.54051 1.03828 -0.05196
 N134 N 0.56847 1.04479 -0.07092
 N135 N 0.45940 1.06330 -0.03481
 N136 N 0.43247 1.08791 -0.04173
 Mn137 Mn 0.50229 0.99582 -0.05362
 Mn138 Mn 0.49645 1.06545 -0.00056
 Cl139 Cl 0.49832 0.99643 -0.00004
 C140 C 0.41867 1.07362 -0.06804
 C141 C 0.58338 1.07828 -0.06080
 N142 N 1.05737 0.53944 0.53350
 N143 N 1.08489 0.56312 0.54104
 N144 N 1.02980 0.45978 0.55588
 N145 N 1.03825 0.43808 0.57939
 N146 N 1.05678 0.45837 0.53547
 N147 N 1.08418 0.43556 0.54478
 N148 N 1.03022 0.54080 0.55375
 N149 N 1.03875 0.56542 0.57553
 C150 C 1.07265 0.57965 0.56710
 C151 C 1.07188 0.42254 0.57205
 N152 N 0.92279 0.45875 0.53325
 N153 N 0.89623 0.43357 0.54018
 N154 N 0.94857 0.54103 0.55236
 N155 N 0.93948 0.56690 0.57317
 N156 N 0.92254 0.53932 0.53141
 N157 N 0.89495 0.56352 0.53763
 N158 N 0.94871 0.45947 0.55433
 N159 N 0.94082 0.43421 0.57581
 Mn160 Mn 0.98929 0.50036 0.55428
 C161 C 0.90817 0.41808 0.56659
 C162 C 0.90618 0.58101 0.56348
 N163 N 1.05894 0.45616 0.46954
 N164 N 1.08674 0.43259 0.46215
 N165 N 1.03327 0.53706 0.44721
 N166 N 1.04163 0.56176 0.42549
 N167 N 1.05955 0.53710 0.46799
 N168 N 1.08663 0.56163 0.46071
 N169 N 1.03300 0.45581 0.44846
 N170 N 1.04235 0.43177 0.42652
 Mn171 Mn 1.05840 0.49768 0.50165
 C172 C 1.07562 0.41697 0.43546
 C173 C 1.07474 0.57727 0.43429
 N174 N 0.92465 0.53712 0.46606
 N175 N 0.89839 0.56217 0.45851
 N176 N 0.95201 0.45575 0.44732
 N177 N 0.94478 0.43010 0.42600
 N178 N 0.92477 0.45647 0.46748
 N179 N 0.89799 0.43182 0.46003
 N180 N 0.95201 0.53718 0.44601
 N181 N 0.94526 0.56264 0.42449
 Mn182 Mn 0.92347 0.49784 0.49955
 Mn183 Mn 0.99257 0.49650 0.44706
 Cl184 Cl 0.99097 0.49807 0.50065
 C185 C 0.91189 0.57825 0.43272
 C186 C 0.91123 0.41509 0.43436
 N187 N 1.05148 0.54340 0.03368
 N188 N 1.07512 0.57158 0.03986
 N189 N 1.03006 0.45912 0.05282
 N190 N 1.03818 0.43136 0.07225
 N191 N 1.05666 0.46247 0.03237
 N192 N 1.08367 0.43743 0.03735
 N193 N 1.02555 0.54081 0.05474
 N194 N 1.03077 0.56742 0.07579
 C195 C 1.06126 0.58705 0.06574
 C196 C 1.07151 0.41774 0.06193
 N197 N 0.92279 0.45457 0.03183
 N198 N 0.89941 0.42556 0.03707
 N199 N 0.94570 0.53568 0.05405
 N200 N 0.94003 0.56291 0.07428
 N201 N 0.91942 0.53604 0.03329
 N202 N 0.89478 0.56374 0.03922
 N203 N 0.94958 0.45502 0.05217
 N204 N 0.94539 0.42649 0.07152
 Mn205 Mn 0.98767 0.49751 0.05375
 C206 C 0.91423 0.40810 0.06184
 C207 C 0.90836 0.58037 0.06491
 N208 N 1.05805 0.46408 -0.03213
 N209 N 1.08553 0.43963 -0.03750
 N210 N 1.02753 0.54341 -0.05253
 N211 N 1.03410 0.57037 -0.07304
 N212 N 1.05285 0.54478 -0.03110
 N213 N 1.07751 0.57228 -0.03656
 N214 N 1.03230 0.46167 -0.05317
 N215 N 1.04148 0.43505 -0.07343
 Mn216 Mn 1.05502 0.50380 0.00073
 C217 C 1.07462 0.42128 -0.06304
 C218 C 1.06488 0.58874 -0.06232
 N219 N 0.92051 0.53748 -0.03300
 N220 N 0.89372 0.56222 -0.04040
 N221 N 0.95161 0.45750 -0.05392
 N222 N 0.94801 0.43007 -0.07435
 N223 N 0.92411 0.45608 -0.03401
 N224 N 0.90091 0.42744 -0.04060
 N225 N 0.94748 0.53813 -0.05342
 N226 N 0.93992 0.56299 -0.07498
 Mn227 Mn 0.92099 0.49614 -0.00047
 Mn228 Mn 0.98970 0.50006 -0.05355
 Cl229 Cl 0.98820 0.49937 0.00009
 C230 C 0.90667 0.57821 -0.06655
 C231 C 0.91649 0.41128 -0.06576
 N232 N 0.41780 1.04298 0.53177
 N233 N 0.39064 1.05226 0.55099
 N234 N 0.44344 1.06948 0.46762
 N235 N 0.43486 1.09678 0.44803
 N236 N 0.41721 1.04272 0.46823
 N237 N 0.38982 1.05172 0.44937
 N238 N 0.44372 1.07005 0.53145
 N239 N 0.43508 1.09792 0.55068
 C240 C 0.40214 1.08634 0.56300
 C241 C 0.40156 1.08522 0.43657
 N242 N 0.55090 1.04551 0.46707
 N243 N 0.57773 1.05430 0.44758
 N244 N 0.52488 1.07264 0.53084
 N245 N 0.53303 1.10029 0.55050
 N246 N 0.55091 1.04588 0.53097
 N247 N 0.57713 1.05433 0.55092
 N248 N 0.52480 1.07221 0.46714
 N249 N 0.53355 1.10013 0.44787
 Mn250 Mn 0.48411 1.07132 0.49923
 C251 C 0.56646 1.08820 0.43545
 C252 C 0.56553 1.08816 0.56318
 N253 N 0.41916 0.95814 0.46831
 N254 N 0.39187 0.94733 0.44992
 N255 N 0.44695 0.93278 0.53162
 N256 N 0.43970 0.90457 0.55082
 N257 N 0.41957 0.95823 0.53178
 N258 N 0.39269 0.94731 0.55077
 N259 N 0.44652 0.93266 0.46776
 N260 N 0.43874 0.90443 0.44863
 Mn261 Mn 0.41812 1.00053 0.50005
 C262 C 0.40479 0.91411 0.43739
 C263 C 0.40601 0.91408 0.56287
 N264 N 0.55282 0.96278 0.53106
 N265 N 0.57940 0.95613 0.55104
 N266 N 0.52804 0.93430 0.46736
 N267 N 0.53828 0.90662 0.44827
 N268 N 0.55283 0.96237 0.46725
 N269 N 0.58016 0.95476 0.44794
 N270 N 0.52819 0.93459 0.53106
 N271 N 0.53773 0.90774 0.55092
 Mn272 Mn 0.55199 1.00413 0.49910
 Mn273 Mn 0.48735 0.93335 0.49942
 Cl274 Cl 0.48533 1.00231 0.49943
 C275 C 0.56956 0.92191 0.56352
 C276 C 0.57065 0.92015 0.43594
 N277 N 1.08221 0.96597 0.53494
 N278 N 1.10376 0.96185 0.55902
 N279 N 1.06168 0.93803 0.47042
 N280 N 1.06706 0.91566 0.44668
 N281 N 1.08671 0.96583 0.47118
 N282 N 1.11003 0.96292 0.44791
 N283 N 1.05701 0.93838 0.53383
 N284 N 1.06055 0.91486 0.55703
 C285 C 1.08975 0.92981 0.57259
 C286 C 1.09733 0.93136 0.43290
 N287 N 0.95509 0.96010 0.46496
 N288 N 0.93357 0.95417 0.44124
 N289 N 0.97693 0.93482 0.53041
 N290 N 0.97167 0.91191 0.55398
 N291 N 0.94958 0.95993 0.52831
 N292 N 0.92466 0.95461 0.54999
 N293 N 0.98173 0.93413 0.46636
 N294 N 0.97903 0.90960 0.44349
 Mn295 Mn 1.01938 0.93580 0.50030
 C296 C 0.94922 0.92307 0.42782
 C297 C 0.93900 0.92489 0.56592
 N298 N 1.08274 1.04897 0.47108
 N299 N 1.10503 1.05294 0.44731
 N300 N 1.05103 1.07439 0.53352
 N301 N 1.05292 1.09867 0.55649
 N302 N 1.07817 1.04889 0.53482
 N303 N 1.09909 1.05489 0.55894
 N304 N 1.05548 1.07439 0.47024
 N305 N 1.05839 1.09622 0.44597
 Mn306 Mn 1.08309 1.00748 0.50301
 C307 C 1.08949 1.08270 0.43196
 C308 C 1.08296 1.08606 0.57218
 N309 N 0.94582 1.04222 0.52829
 N310 N 0.92081 1.04492 0.55024
 N311 N 0.97540 1.07066 0.46636
 N312 N 0.97038 1.09485 0.44362
 N313 N 0.95135 1.04209 0.46483
 N314 N 0.92946 1.04574 0.44104
 N315 N 0.97081 1.06991 0.53036
 N316 N 0.96378 1.09204 0.55413
 Mn317 Mn 0.95007 1.00107 0.49654
 Mn318 Mn 1.01317 1.07289 0.50017
 Cl319 Cl 1.01652 1.00431 0.50003
 C320 C 0.93259 1.07583 0.56626
 C321 C 0.94206 1.07840 0.42783
 N322 N 0.58344 0.54589 0.03421
 N323 N 0.60999 0.56965 0.04369
 N324 N 0.55910 0.46390 0.05327
 N325 N 0.56613 0.43890 0.07486
 N326 N 0.58689 0.46531 0.03367
 N327 N 0.61421 0.44180 0.04208
 N328 N 0.55557 0.54507 0.05380
 N329 N 0.56207 0.56866 0.07660
 C330 C 0.59573 0.58429 0.06985
 C331 C 0.60025 0.42497 0.06755
 N332 N 0.45263 0.45862 0.03287
 N333 N 0.42482 0.43660 0.04289
 N334 N 0.47524 0.54054 0.05389
 N335 N 0.46394 0.55953 0.07817
 N336 N 0.44853 0.53933 0.03340
 N337 N 0.41846 0.55769 0.04356
 N338 N 0.47942 0.46019 0.05323
 N339 N 0.47068 0.43935 0.07714
 Mn340 Mn 0.51745 0.50251 0.05347
 C341 C 0.43700 0.42422 0.07034
 C342 C 0.42884 0.57069 0.07132
 N343 N 0.58788 0.46612 -0.03258
 N344 N 0.61562 0.44314 -0.04126
 N345 N 0.55706 0.54635 -0.05152
 N346 N 0.56313 0.57182 -0.07307
 N347 N 0.58446 0.54669 -0.03173
 N348 N 0.61050 0.57191 -0.03989
 N349 N 0.56071 0.46525 -0.05255
 N350 N 0.56862 0.44121 -0.07472
 Mn351 Mn 0.58616 0.50596 0.00089
 C352 C 0.60259 0.42722 -0.06736
 C353 C 0.59615 0.58796 -0.06536
 N354 N 0.44947 0.54015 -0.03318
 N355 N 0.41988 0.55896 -0.04366
 N356 N 0.48108 0.46146 -0.05381
 N357 N 0.47375 0.44007 -0.07773
 N358 N 0.45378 0.45918 -0.03375
 N359 N 0.42706 0.43594 -0.04389
 N360 N 0.47709 0.54190 -0.05301
 N361 N 0.46704 0.56167 -0.07708
 Mn362 Mn 0.45076 0.49927 -0.00017
 Mn363 Mn 0.51912 0.50381 -0.05265
 Cl364 Cl 0.51819 0.50293 0.00040
 C365 C 0.43169 0.57281 -0.07088
 C366 C 0.44042 0.42373 -0.07118
 C367 C 0.31846 1.17043 0.13941
 C368 C 0.33771 1.19926 0.15581
 C369 C 0.31961 1.21891 0.17928
 C370 C 0.28123 1.21331 0.18521
 C371 C 0.26136 1.18675 0.16732
 C372 C 0.27981 1.16519 0.14490
 C373 C 0.34040 1.14670 0.11718
 C374 C 0.32639 1.11243 0.10411
 C375 C 0.34915 1.08991 0.08516
 C376 C 0.38562 1.10194 0.07817
 C377 C 0.39958 1.13616 0.09049
 C378 C 0.37786 1.15780 0.11076
 C379 C 0.37494 1.20847 0.14874
 C380 C 0.39422 1.18898 0.12595
 H381 H 0.38931 1.23134 0.16084
 H382 H 0.42296 1.19726 0.12116
 H383 H 0.33579 1.23890 0.19288
 H384 H 0.23174 1.18176 0.17113
 H385 H 0.33839 1.06307 0.07604
 H386 H 0.42829 1.14467 0.08565
 H387 H 0.26348 1.14470 0.13204
 H388 H 0.29856 1.10192 0.10920
 C389 C 0.81865 0.68494 0.63929
 C390 C 0.83943 0.71147 0.65681
 C391 C 0.82163 0.73370 0.67899
 C392 C 0.78306 0.72970 0.68545
 C393 C 0.76208 0.70421 0.66746
 C394 C 0.77954 0.68228 0.64450
 C395 C 0.83992 0.65945 0.61750
 C396 C 0.82244 0.63249 0.59818
 C397 C 0.84396 0.60785 0.57980
 C398 C 0.88329 0.60909 0.58070
 C399 C 0.90086 0.63658 0.59899
 C400 C 0.87964 0.66204 0.61689
 C401 C 0.87841 0.71430 0.65355
 C402 C 0.89813 0.68974 0.63437
 H403 H 0.89417 0.73490 0.66696
 H404 H 0.92843 0.69219 0.63349
 H405 H 0.83895 0.75262 0.69256
 H406 H 0.73248 0.69999 0.67191
 H407 H 0.82982 0.58692 0.56560
 H408 H 0.93124 0.63811 0.59932
 H409 H 0.76232 0.66231 0.63193
 H410 H 0.79232 0.62984 0.59716
 C411 C 0.68582 0.84565 0.14574
 C412 C 0.68305 0.80509 0.14734
 C413 C 0.70237 0.78494 0.16982
 C414 C 0.72595 0.80386 0.19047
 C415 C 0.73121 0.84391 0.18681
 C416 C 0.71133 0.86457 0.16497
 C417 C 0.66092 0.86651 0.12402
 C418 C 0.65669 0.90695 0.12428
 C419 C 0.63064 0.92476 0.10536
 C420 C 0.60900 0.90278 0.08529
 C421 C 0.61385 0.86273 0.08408
 C422 C 0.63866 0.84436 0.10392
 C423 C 0.66062 0.78478 0.12676
 C424 C 0.63958 0.80400 0.10501
 H425 H 0.65909 0.75354 0.12762
 H426 H 0.62245 0.78704 0.08972
 H427 H 0.69890 0.75434 0.17053
 H428 H 0.74972 0.85988 0.20165
 H429 H 0.62707 0.95577 0.10667
 H430 H 0.59655 0.84559 0.06901
 H431 H 0.71597 0.89530 0.16371
 H432 H 0.67212 0.92511 0.13972
 C433 C 1.16516 0.34504 0.66057
 C434 C 1.19393 0.32016 0.65027
 C435 C 1.21626 0.30002 0.67143
 C436 C 1.21068 0.30518 0.70283
 C437 C 1.18413 0.33282 0.71237
 C438 C 1.16178 0.35224 0.69175
 C439 C 1.13997 0.36368 0.63786
 C440 C 1.10740 0.38393 0.64641
 C441 C 1.08521 0.40184 0.62475
 C442 C 1.09484 0.40045 0.59392
 C443 C 1.12651 0.37902 0.58490
 C444 C 1.14861 0.35980 0.60669
 C445 C 1.20019 0.31600 0.61898
 C446 C 1.17869 0.33622 0.59771
 H447 H 1.22246 0.29738 0.61082
 H448 H 1.18519 0.33263 0.57385
 H449 H 1.23741 0.28026 0.66331
 H450 H 1.17942 0.33887 0.73616
 H451 H 1.06070 0.41764 0.63236
 H452 H 1.13367 0.37698 0.56104
 H453 H 1.14198 0.37282 0.70078
 H454 H 1.09830 0.38597 0.66972
 C455 C 0.68574 1.16226 -0.13801
 C456 C 0.70708 1.14077 -0.15919
 C457 C 0.72699 1.15981 -0.18238
 C458 C 0.72417 1.20012 -0.18630
 C459 C 0.70298 1.22084 -0.16485
 C460 C 0.68463 1.20254 -0.14095
 C461 C 0.66283 1.14102 -0.11487
 C462 C 0.64189 1.15988 -0.09204
 C463 C 0.61749 1.13912 -0.07335
 C464 C 0.61336 1.09921 -0.07703
 C465 C 0.63612 1.07977 -0.09813
 C466 C 0.66105 1.10032 -0.11683
 C467 C 0.70653 1.10035 -0.15827
 C468 C 0.68342 1.08055 -0.13793
 H469 H 0.72286 1.08375 -0.17445
 H470 H 0.68266 1.04930 -0.13903
 H471 H 0.74286 1.14266 -0.19850
 H472 H 0.70000 1.25144 -0.16594
 H473 H 0.60061 1.15460 -0.05687
 H474 H 0.63369 1.04872 -0.10057
 H475 H 0.66841 1.22048 -0.12580
 H476 H 0.64338 1.19067 -0.08862
 C477 C 1.15864 0.67292 0.35021
 C478 C 1.19772 0.67781 0.35435
 C479 C 1.21954 0.69704 0.33195
 C480 C 1.20283 0.71039 0.30499
 C481 C 1.16415 0.70341 0.30110
 C482 C 1.14254 0.68579 0.32321
 C483 C 1.13616 0.65168 0.37363
 C484 C 1.09694 0.64747 0.37168
 C485 C 1.07747 0.62423 0.39205
 C486 C 1.09618 0.60506 0.41541
 C487 C 1.13499 0.61127 0.41906
 C488 C 1.15511 0.63453 0.39822
 C489 C 1.21462 0.66200 0.38020
 C490 C 1.19392 0.64034 0.40137
 H491 H 1.24450 0.66540 0.38365
 H492 H 1.20859 0.62775 0.42039
 H493 H 1.24948 0.70039 0.33505
 H494 H 1.14965 0.71067 0.28045
 H495 H 1.04749 0.62082 0.38917
 H496 H 1.14966 0.59704 0.43736
 H497 H 1.11338 0.68128 0.31797
 H498 H 1.08060 0.66149 0.35442
 C499 C 0.32393 0.82579 -0.14307
 C500 C 0.34093 0.79481 -0.15871
 C501 C 0.32171 0.77613 -0.18194
 C502 C 0.28402 0.78479 -0.18818
 C503 C 0.26615 0.81360 -0.17097
 C504 C 0.28597 0.83424 -0.14890
 C505 C 0.34743 0.84829 -0.12127
 C506 C 0.33630 0.88429 -0.10931
 C507 C 0.36058 0.90543 -0.09079
 C508 C 0.39561 0.89034 -0.08306
 C509 C 0.40669 0.85440 -0.09425
 C510 C 0.38358 0.83404 -0.11421
 C511 C 0.37704 0.78248 -0.15111
 C512 C 0.39743 0.80091 -0.12853
 H513 H 0.38959 0.75798 -0.16260
 H514 H 0.42520 0.79020 -0.12329
 H515 H 0.33649 0.75454 -0.19513
 H516 H 0.23715 0.82105 -0.17508
 H517 H 0.35208 0.93356 -0.08252
 H518 H 0.43436 0.84347 -0.08886
 H519 H 0.27123 0.85652 -0.13656
 H520 H 0.30968 0.89713 -0.11498
 C521 C 0.83157 0.31264 0.35297
 C522 C 0.79225 0.31724 0.35040
 C523 C 0.77236 0.29736 0.32747
 C524 C 0.79136 0.27277 0.30715
 C525 C 0.83014 0.26711 0.31128
 C526 C 0.84972 0.28619 0.33386
 C527 C 0.85255 0.33682 0.37541
 C528 C 0.89205 0.33735 0.37679
 C529 C 0.91062 0.36220 0.39650
 C530 C 0.89051 0.38675 0.41579
 C531 C 0.85109 0.38586 0.41534
 C532 C 0.83200 0.36170 0.39474
 C533 C 0.77341 0.34213 0.37041
 C534 C 0.79278 0.36343 0.39238
 H535 H 0.74327 0.34544 0.36893
 H536 H 0.77691 0.38248 0.40711
 H537 H 0.74247 0.30186 0.32498
 H538 H 0.84610 0.24791 0.29681
 H539 H 0.94100 0.36251 0.39641
 H540 H 0.83538 0.40534 0.42986
 H541 H 0.87924 0.28003 0.33556
 H542 H 0.90935 0.31978 0.36221
 C543 C 1.16601 0.32690 0.13904
 C544 C 1.15478 0.28944 0.14786
 C545 C 1.17632 0.26876 0.16922
 C546 C 1.20668 0.28678 0.18400
 C547 C 1.21425 0.32575 0.17712
 C548 C 1.19548 0.34489 0.15434
 C549 C 1.14337 0.34822 0.11639
 C550 C 1.15646 0.38222 0.10260
 C551 C 1.13303 0.40367 0.08411
 C552 C 1.09601 0.39197 0.07923
 C553 C 1.08334 0.35663 0.09112
 C554 C 1.10753 0.33390 0.10890
 C555 C 1.12067 0.27460 0.13707
 C556 C 1.09676 0.29708 0.11907
 H557 H 1.11133 0.24620 0.14407
 H558 H 1.06975 0.28530 0.11271
 H559 H 1.16789 0.23989 0.17578
 H560 H 1.23450 0.34241 0.18976
 H561 H 1.14351 0.43035 0.07444
 H562 H 1.05511 0.34683 0.08630
 H563 H 1.20279 0.37473 0.15042
 H564 H 1.18472 0.39262 0.10589
 C565 C 0.66478 0.84491 0.65141
 C566 C 0.66122 0.80442 0.65471
 C567 C 0.68398 0.78442 0.67561
 C568 C 0.70974 0.80447 0.69392
 C569 C 0.71232 0.84482 0.69069
 C570 C 0.69066 0.86459 0.66973
 C571 C 0.64021 0.86536 0.62905
 C572 C 0.64324 0.90523 0.62323
 C573 C 0.61991 0.92309 0.60226
 C574 C 0.59265 0.90200 0.58656
 C575 C 0.58918 0.86220 0.59214
 C576 C 0.61313 0.84368 0.61297
 C577 C 0.63437 0.78445 0.63762
 C578 C 0.61062 0.80367 0.61748
 H579 H 0.63134 0.75349 0.64012
 H580 H 0.59013 0.78687 0.60506
 H581 H 0.68092 0.75347 0.67808
 H582 H 0.73141 0.86163 0.70441
 H583 H 0.62331 0.95376 0.59831
 H584 H 0.56854 0.84551 0.57977
 H585 H 0.69428 0.89543 0.66874
 H586 H 0.66371 0.92323 0.63427
 C587 C 1.15971 0.68059 -0.14073
 C588 C 1.18819 0.65969 -0.15576
 C589 C 1.20901 0.67703 -0.17872
 C590 C 1.20532 0.71650 -0.18554
 C591 C 1.17877 0.73814 -0.16916
 C592 C 1.15586 0.72032 -0.14720
 C593 C 1.13485 0.65890 -0.11909
 C594 C 1.10134 0.67427 -0.10692
 C595 C 1.07809 0.65160 -0.08836
 C596 C 1.08854 0.61383 -0.08101
 C597 C 1.12183 0.59857 -0.09251
 C598 C 1.14431 0.62017 -0.11217
 C599 C 1.19580 0.62133 -0.14813
 C600 C 1.17503 0.60236 -0.12607
 H601 H 1.21837 0.60578 -0.15927
 H602 H 1.18209 0.57269 -0.12083
 H603 H 1.22816 0.65902 -0.19153
 H604 H 1.17470 0.76845 -0.17405
 H605 H 1.05209 0.66350 -0.07969
 H606 H 1.12931 0.56898 -0.08722
 H607 H 1.13531 0.73787 -0.13559
 H608 H 1.09225 0.70317 -0.11227
 C609 C 0.66198 1.17210 0.35022
 C610 C 0.68909 1.14966 0.33477
 C611 C 0.71216 1.16644 0.31271
 C612 C 0.71044 1.20612 0.30600
 C613 C 0.68448 1.22882 0.32215
 C614 C 0.66049 1.21208 0.34393
 C615 C 0.63619 1.15185 0.37230
 C616 C 0.60600 1.17020 0.38731
 C617 C 0.58276 1.14956 0.40740
 C618 C 0.58933 1.11032 0.41323
 C619 C 0.61903 1.09188 0.39821
 C620 C 0.64199 1.11198 0.37771
 C621 C 0.69303 1.11030 0.34107
 C622 C 0.67036 1.09201 0.36235
 H623 H 0.71413 1.09329 0.32938
 H624 H 0.67471 1.06150 0.36645
 H625 H 0.73138 1.14791 0.30041
 H626 H 0.68195 1.25934 0.31740
 H627 H 0.55997 1.16447 0.41871
 H628 H 0.62414 1.06147 0.40226
 H629 H 0.64080 1.23073 0.35543
 H630 H 0.59985 1.20033 0.38366
 C631 C 0.83761 0.69282 0.14414
 C632 C 0.85595 0.69930 0.17205
 C633 C 0.83788 0.71971 0.19535
 C634 C 0.80144 0.73450 0.19156
 C635 C 0.78523 0.73132 0.16269
 C636 C 0.80269 0.71050 0.13942
 C637 C 0.85585 0.66651 0.12136
 C638 C 0.83809 0.65399 0.09448
 C639 C 0.85533 0.62679 0.07537
 C640 C 0.89067 0.61185 0.08257
 C641 C 0.90901 0.62538 0.10859
 C642 C 0.89175 0.65170 0.12820
 C643 C 0.89185 0.68442 0.17699
 C644 C 0.90962 0.66165 0.15531
 H645 H 0.90622 0.68997 0.19816
 H646 H 0.93721 0.65034 0.16041
 H647 H 0.85202 0.72245 0.21691
 H648 H 0.75805 0.74274 0.15819
 H649 H 0.84063 0.61674 0.05542
 H650 H 0.93641 0.61414 0.11443
 H651 H 0.78804 0.70788 0.11816
 H652 H 0.81047 0.66388 0.08838
 C653 C 0.31623 1.18385 0.64550
 C654 C 0.33675 1.20982 0.66380
 C655 C 0.31842 1.23118 0.68661
 C656 C 0.27953 1.22731 0.69175
 C657 C 0.25899 1.20493 0.67098
 C658 C 0.27695 1.18331 0.64841
 C659 C 0.33735 1.15814 0.62390
 C660 C 0.32027 1.12768 0.60777
 C661 C 0.34142 1.10392 0.58850
 C662 C 0.37998 1.11022 0.58451
 C663 C 0.39729 1.14024 0.60068
 C664 C 0.37651 1.16359 0.62073
 C665 C 0.37556 1.21363 0.65969
 C666 C 0.39487 1.19160 0.63820
 H667 H 0.39131 1.23392 0.67337
 H668 H 0.42488 1.19573 0.63589
 H669 H 0.33502 1.24947 0.70134
 H670 H 0.22899 1.20336 0.67197
 H671 H 0.32744 1.08088 0.57635
 H672 H 0.42719 1.14497 0.59811
 H673 H 0.25964 1.16604 0.63364
 H674 H 0.29075 1.12140 0.61011
 C675 C 0.84663 0.30220 -0.14733
 C676 C 0.80909 0.29158 -0.14136
 C677 C 0.78847 0.27132 -0.16329
 C678 C 0.80336 0.26393 -0.19228
 C679 C 0.84131 0.27319 -0.19746
 C680 C 0.86267 0.29166 -0.17536
 C681 C 0.86674 0.32664 -0.12452
 C682 C 0.90420 0.33848 -0.12845
 C683 C 0.92042 0.36472 -0.10849
 C684 C 0.89999 0.37969 -0.08391
 C685 C 0.86350 0.36611 -0.07848
 C686 C 0.84673 0.33974 -0.09865
 C687 C 0.79156 0.30337 -0.11436
 C688 C 0.80981 0.32731 -0.09365
 H689 H 0.76271 0.29529 -0.10978
 H690 H 0.79454 0.33685 -0.07370
 H691 H 0.75979 0.26461 -0.15842
 H692 H 0.85465 0.26759 -0.21909
 H693 H 0.94893 0.37408 -0.11285
 H694 H 0.84765 0.37717 -0.05932
 H695 H 0.89115 0.29892 -0.18132
 H696 H 0.92129 0.32850 -0.14709
 C697 C 0.32237 0.81397 0.35507
 C698 C 0.34330 0.79668 0.33142
 C699 C 0.32490 0.77645 0.30821
 C700 C 0.28560 0.77216 0.30833
 C701 C 0.26576 0.78469 0.33415
 C702 C 0.28367 0.80600 0.35693
 C703 C 0.34256 0.83990 0.37699
 C704 C 0.32377 0.86395 0.39794
 C705 C 0.34394 0.88866 0.41708
 C706 C 0.38327 0.88933 0.41629
 C707 C 0.40219 0.86561 0.39548
 C708 C 0.38219 0.84194 0.37528
 C709 C 0.38244 0.80028 0.33073
 C710 C 0.40152 0.82152 0.35268
 H711 H 0.39861 0.78640 0.31293
 H712 H 0.43183 0.82322 0.35120
 H713 H 0.34142 0.76533 0.28948
 H714 H 0.23588 0.77992 0.33611
 H715 H 0.32876 0.90684 0.43292
 H716 H 0.43257 0.86654 0.39434
 H717 H 0.26679 0.81641 0.37561
 H718 H 0.29355 0.86460 0.39935
 C719 C 1.15200 1.15371 0.32482
 C720 C 1.18790 1.14110 0.31537
 C721 C 1.20785 1.16210 0.29350
 C722 C 1.19366 1.19716 0.28242
 C723 C 1.15671 1.20745 0.28969
 C724 C 1.13607 1.18607 0.31056
 C725 C 1.13348 1.13344 0.35073
 C726 C 1.09882 1.14541 0.36288
 C727 C 1.08440 1.12817 0.38887
 C728 C 1.10397 1.09847 0.40331
 C729 C 1.13763 1.08498 0.39070
 C730 C 1.15267 1.10245 0.36467
 C731 C 1.20458 1.10900 0.32904
 C732 C 1.18732 1.09007 0.35322
 H733 H 1.23200 1.09921 0.32165
 H734 H 1.20184 1.06611 0.36368
 H735 H 1.23581 1.15277 0.28716
 H736 H 1.14377 1.23263 0.27990
 H737 H 1.05807 1.13871 0.39800
 H738 H 1.15272 1.06177 0.40168
 H739 H 1.10825 1.19623 0.31585
 H740 H 1.08272 1.16858 0.35320
 C741 C 0.66761 0.67235 -0.16199
 C742 C 0.70470 0.66160 -0.16964
 C743 C 0.72301 0.67932 -0.19411
 C744 C 0.70627 0.71012 -0.20963
 C745 C 0.66867 0.71910 -0.20318
 C746 C 0.64953 0.70042 -0.17979
 C747 C 0.64942 0.65358 -0.13512
 C748 C 0.61208 0.66115 -0.12644
 C749 C 0.59564 0.64118 -0.10244
 C750 C 0.61618 0.61402 -0.08601
 C751 C 0.65389 0.60754 -0.09330
 C752 C 0.67043 0.62654 -0.11813
 C753 C 0.72389 0.63439 -0.15212
 C754 C 0.70724 0.61749 -0.12675
 H755 H 0.75247 0.62648 -0.15784
 H756 H 0.72329 0.59669 -0.11387
 H757 H 0.75107 0.67024 -0.19992
 H758 H 0.65442 0.74208 -0.21506
 H759 H 0.56631 0.64614 -0.09722
 H760 H 0.66952 0.58581 -0.08101
 H761 H 0.62114 0.70953 -0.17536
 H762 H 0.59464 0.68134 -0.13843
 C763 C 0.84236 1.13865 0.66336
 C764 C 0.80917 1.15739 0.65433
 C765 C 0.78781 1.17758 0.67551
 C766 C 0.79661 1.17729 0.70653
 C767 C 0.82810 1.15612 0.71587
 C768 C 0.85097 1.13731 0.69453
 C769 C 0.86687 1.12177 0.63909
 C770 C 0.90364 1.10855 0.64451
 C771 C 0.92569 1.09434 0.62065
 C772 C 0.91103 1.09225 0.59133
 C773 C 0.87477 1.10525 0.58566
 C774 C 0.85312 1.12112 0.60898
 C775 C 0.79755 1.15656 0.62408
 C776 C 0.81852 1.13770 0.60202
 H777 H 0.77162 1.17041 0.61741
 H778 H 0.80820 1.13744 0.57894
 H779 H 0.76550 1.19542 0.66699
 H780 H 0.83612 1.15547 0.73951
 H781 H 0.95391 1.08438 0.62513
 H782 H 0.86390 1.10409 0.56273
 H783 H 0.87531 1.12213 0.70273
 H784 H 0.91594 1.10971 0.66681
 C785 C 0.33211 0.64674 0.15862
 C786 C 0.34039 0.64303 0.18988
 C787 C 0.31873 0.66315 0.21180
 C788 C 0.29014 0.68855 0.20269
 C789 C 0.28421 0.69314 0.17126
 C790 C 0.30406 0.67236 0.14983
 C791 C 0.35540 0.62563 0.13577
 C792 C 0.34663 0.62484 0.10458
 C793 C 0.37040 0.60681 0.08377
 C794 C 0.40343 0.58919 0.09348
 C795 C 0.41166 0.58835 0.12469
 C796 C 0.38749 0.60584 0.14593
 C797 C 0.37134 0.62085 0.19867
 C798 C 0.39490 0.60343 0.17713
 H799 H 0.37823 0.61803 0.22246
 H800 H 0.41917 0.58764 0.18503
 H801 H 0.32520 0.66032 0.23567
 H802 H 0.26506 0.71433 0.16244
 H803 H 0.36311 0.60703 0.05996
 H804 H 0.43664 0.57368 0.13251
 H805 H 0.29812 0.67838 0.12636
 H806 H 0.32141 0.63767 0.09576
 C807 C 1.15510 0.84940 0.67412
 C808 C 1.19099 0.86149 0.68384
 C809 C 1.21096 0.83916 0.70483
 C810 C 1.19670 0.80345 0.71479
 C811 C 1.16006 0.79314 0.70668
 C812 C 1.13952 0.81568 0.68671
 C813 C 1.13604 0.87194 0.64977
 C814 C 1.10086 0.86134 0.63802
 C815 C 1.08569 0.88101 0.61352
 C816 C 1.10493 0.91193 0.60021
 C817 C 1.13913 0.92409 0.61259
 C818 C 1.15493 0.90415 0.63714
 C819 C 1.20747 0.89467 0.67146
 C820 C 1.18990 0.91545 0.64849
 H821 H 1.23494 0.90400 0.67892
 H822 H 1.20429 0.94026 0.63902
 H823 H 1.23880 0.84825 0.71154
 H824 H 1.14715 0.76715 0.71528
 H825 H 1.05898 0.87143 0.60463
 H826 H 1.15404 0.94818 0.60249
 H827 H 1.11194 0.80544 0.68089
 H828 H 1.08482 0.83750 0.64689
 C829 C 0.67231 0.33803 0.16216
 C830 C 0.71099 0.34431 0.16695
 C831 C 0.72970 0.32397 0.18985
 C832 C 0.71107 0.29511 0.20648
 C833 C 0.67187 0.29247 0.20414
 C834 C 0.65273 0.31349 0.18220
 C835 C 0.65391 0.35779 0.13600
 C836 C 0.61597 0.35193 0.12869
 C837 C 0.59948 0.37246 0.10520
 C838 C 0.62042 0.39871 0.08793
 C839 C 0.65879 0.40320 0.09367
 C840 C 0.67562 0.38313 0.11779
 C841 C 0.73099 0.36977 0.14822
 C842 C 0.71368 0.38883 0.12420
 H843 H 0.76066 0.37463 0.15192
 H844 H 0.73040 0.40815 0.11034
 H845 H 0.75938 0.32890 0.19325
 H846 H 0.65607 0.27220 0.21780
 H847 H 0.56980 0.36853 0.10097
 H848 H 0.67498 0.42377 0.08050
 H849 H 0.62288 0.30907 0.18074
 H850 H 0.59827 0.33222 0.14110
 C851 C 0.85743 0.85467 0.33511
 C852 C 0.82667 0.83280 0.34578
 C853 C 0.80179 0.81617 0.32538
 C854 C 0.80670 0.81972 0.29387
 C855 C 0.83673 0.84220 0.28316
 C856 C 0.86174 0.85965 0.30350
 C857 C 0.88401 0.87088 0.35815
 C858 C 0.91552 0.89362 0.35045
 C859 C 0.93831 0.90927 0.37315
 C860 C 0.93031 0.90201 0.40368
 C861 C 0.89996 0.87874 0.41158
 C862 C 0.87672 0.86333 0.38924
 C863 C 0.82120 0.82641 0.37679
 C864 C 0.84575 0.84131 0.39807
 H865 H 0.79759 0.80941 0.38477
 H866 H 0.84026 0.83566 0.42186
 H867 H 0.77969 0.79827 0.33454
 H868 H 0.84168 0.84534 0.25905
 H869 H 0.96146 0.92797 0.36694
 H870 H 0.89363 0.87389 0.43538
 H871 H 0.88466 0.87613 0.29405
 H872 H 0.92244 0.90032 0.32721
 C873 C 0.35521 0.33803 -0.16081
 C874 C 0.32886 0.31115 -0.14969
 C875 C 0.30614 0.29075 -0.16981
 C876 C 0.30691 0.29776 -0.20120
 C877 C 0.33325 0.32441 -0.21233
 C878 C 0.35728 0.34415 -0.19247
 C879 C 0.37841 0.35977 -0.13814
 C880 C 0.40738 0.38514 -0.14666
 C881 C 0.42760 0.40528 -0.12470
 C882 C 0.41915 0.40116 -0.09373
 C883 C 0.39074 0.37565 -0.08489
 C884 C 0.37090 0.35440 -0.10678
 C885 C 0.32388 0.30589 -0.11842
 C886 C 0.34396 0.32755 -0.09743
 H887 H 0.30337 0.28535 -0.11001
 H888 H 0.33847 0.32301 -0.07351
 H889 H 0.28548 0.27173 -0.16031
 H890 H 0.33493 0.33064 -0.23634
 H891 H 0.44961 0.42472 -0.13209
 H892 H 0.38455 0.37187 -0.06098
 H893 H 0.37646 0.36481 -0.20224
 H894 H 0.41500 0.38963 -0.17009
 C895 C 1.17245 0.32609 -0.13592
 C896 C 1.15857 0.29101 -0.14783
 C897 C 1.18030 0.26981 -0.16884
 C898 C 1.21402 0.28517 -0.18059
 C899 C 1.22588 0.32143 -0.16978
 C900 C 1.20640 0.34078 -0.14713
 C901 C 1.14837 0.34877 -0.11467
 C902 C 1.16197 0.38096 -0.09866
 C903 C 1.13776 0.40358 -0.08139
 C904 C 1.09944 0.39499 -0.07996
 C905 C 1.08581 0.36168 -0.09437
 C906 C 1.11045 0.33777 -0.11097
 C907 C 1.12183 0.27937 -0.14078
 C908 C 1.09783 0.30298 -0.12368
 H909 H 1.11075 0.25277 -0.15011
 H910 H 1.06907 0.29377 -0.12024
 H911 H 1.16915 0.24319 -0.17807
 H912 H 1.24914 0.33659 -0.18003
 H913 H 1.14891 0.42867 -0.06980
 H914 H 1.05638 0.35421 -0.09231
 H915 H 1.21680 0.36880 -0.14051
 H916 H 1.19122 0.38902 -0.09916
 C917 C 0.66960 0.84020 0.35140
 C918 C 0.66425 0.80015 0.34654
 C919 C 0.68726 0.78000 0.32553
 C920 C 0.71502 0.79965 0.30870
 C921 C 0.71930 0.83960 0.31371
 C922 C 0.69761 0.85929 0.33478
 C923 C 0.64433 0.86112 0.37320
 C924 C 0.64865 0.90064 0.37995
 C925 C 0.62432 0.91920 0.39994
 C926 C 0.59483 0.89919 0.41393
 C927 C 0.59016 0.85963 0.40756
 C928 C 0.61497 0.84041 0.38749
 C929 C 0.63521 0.78101 0.36200
 C930 C 0.61097 0.80072 0.38179
 H931 H 0.63077 0.75041 0.35839
 H932 H 0.58873 0.78460 0.39283
 H933 H 0.68260 0.74951 0.32152
 H934 H 0.73928 0.85651 0.30083
 H935 H 0.62877 0.94959 0.40449
 H936 H 0.56773 0.84373 0.41856
 H937 H 0.70270 0.88982 0.33689
 H938 H 0.67079 0.91794 0.37031
 C939 C 0.83449 0.68199 -0.15115
 C940 C 0.83895 0.67251 -0.18213
 C941 C 0.82190 0.69493 -0.20440
 C942 C 0.80011 0.72742 -0.19682
 C943 C 0.79940 0.73929 -0.16636
 C944 C 0.81565 0.71649 -0.14367
 C945 C 0.85119 0.65534 -0.12801
 C946 C 0.84520 0.65913 -0.09643
 C947 C 0.86207 0.63339 -0.07602
 C948 C 0.88556 0.60397 -0.08680
 C949 C 0.89067 0.59947 -0.11807
 C950 C 0.87332 0.62420 -0.13861
 C951 C 0.86037 0.64060 -0.19096
 C952 C 0.87782 0.61741 -0.16967
 H953 H 0.86403 0.63364 -0.21477
 H954 H 0.89456 0.59332 -0.17766
 H955 H 0.82498 0.68608 -0.22786
 H956 H 0.78648 0.76610 -0.15981
 H957 H 0.85762 0.63710 -0.05188
 H958 H 0.90812 0.57616 -0.12657
 H959 H 0.81356 0.72640 -0.12050
 H960 H 0.82753 0.68161 -0.08725
 C961 C 0.31915 1.18148 0.35197
 C962 C 0.34045 1.19912 0.32872
 C963 C 0.32244 1.21935 0.30544
 C964 C 0.28313 1.22341 0.30502
 C965 C 0.26284 1.21056 0.33050
 C966 C 0.28036 1.18907 0.35333
 C967 C 0.33919 1.15604 0.37422
 C968 C 0.32033 1.13187 0.39503
 C969 C 0.34050 1.10801 0.41476
 C970 C 0.37984 1.10838 0.41464
 C971 C 0.39878 1.13201 0.39384
 C972 C 0.37887 1.15482 0.37315
 C973 C 0.37962 1.19614 0.32857
 C974 C 0.39846 1.17537 0.35081
 H975 H 0.39602 1.21027 0.31106
 H976 H 0.42882 1.17424 0.34983
 H977 H 0.33941 1.23102 0.28721
 H978 H 0.23307 1.21585 0.33242
 H979 H 0.32533 1.08984 0.43059
 H980 H 0.42919 1.13184 0.39323
 H981 H 0.26320 1.17849 0.37177
 H982 H 0.29008 1.13061 0.39594
 C983 C 1.15510 0.67889 0.14474
 C984 C 1.18131 0.65751 0.16167
 C985 C 1.20314 0.67565 0.18343
 C986 C 1.20191 0.71584 0.18816
 C987 C 1.17705 0.73762 0.17049
 C988 C 1.15371 0.71936 0.14908
 C989 C 1.13006 0.65691 0.12343
 C990 C 1.10007 0.67392 0.10749
 C991 C 1.07705 0.65137 0.08870
 C992 C 1.08394 0.61180 0.08534
 C993 C 1.11353 0.59478 0.10081
 C994 C 1.13611 0.61663 0.12007
 C995 C 1.18570 0.61778 0.15725
 C996 C 1.16402 0.59790 0.13649
 H997 H 1.20635 0.60174 0.17005
 H998 H 1.16851 0.56712 0.13386
 H999 H 1.22135 0.65763 0.19692
 H1000 H 1.17490 0.76852 0.17376
 H1001 H 1.05405 0.66477 0.07673
 H1002 H 1.11849 0.56403 0.09821
 H1003 H 1.13467 0.73718 0.13631
 H1004 H 1.09380 0.70427 0.10961
 C1005 C 0.65728 1.17042 0.65131
 C1006 C 0.68117 1.14725 0.66911
 C1007 C 0.70380 1.16404 0.69131
 C1008 C 0.70522 1.20432 0.69560
 C1009 C 0.68227 1.22754 0.67736
 C1010 C 0.65846 1.21087 0.65559
 C1011 C 0.63229 1.15051 0.62862
 C1012 C 0.60487 1.16987 0.61141
 C1013 C 0.58249 1.14963 0.59061
 C1014 C 0.58733 1.10981 0.58617
 C1015 C 0.61414 1.09033 0.60345
 C1016 C 0.63603 1.11005 0.62481
 C1017 C 0.68283 1.10729 0.66458
 C1018 C 0.66125 1.08920 0.64259
 H1019 H 0.70152 1.08969 0.67807
 H1020 H 0.66394 1.05824 0.63978
 H1021 H 0.72116 1.14524 0.70493
 H1022 H 0.68230 1.25858 0.68014
 H1023 H 0.56185 1.16529 0.57756
 H1024 H 0.61771 1.05946 0.60052
 H1025 H 0.64135 1.23000 0.64222
 H1026 H 0.60022 1.20049 0.61386
 C1027 C 0.84420 0.29677 0.14130
 C1028 C 0.80572 0.28880 0.13711
 C1029 C 0.78535 0.26923 0.15975
 C1030 C 0.80166 0.26046 0.18788
 C1031 C 0.84053 0.26649 0.19094
 C1032 C 0.86147 0.28400 0.16806
 C1033 C 0.86415 0.32114 0.11828
 C1034 C 0.90241 0.33054 0.12067
 C1035 C 0.91864 0.35742 0.10123
 C1036 C 0.89743 0.37543 0.07863
 C1037 C 0.86003 0.36402 0.07434
 C1038 C 0.84322 0.33705 0.09412
 C1039 C 0.78723 0.30280 0.11137
 C1040 C 0.80542 0.32691 0.09059
 H1041 H 0.75772 0.29668 0.10806
 H1042 H 0.78939 0.33851 0.07189
 H1043 H 0.75602 0.26421 0.15624
 H1044 H 0.85512 0.25913 0.21157
 H1045 H 0.94782 0.36499 0.10454
 H1046 H 0.84356 0.37743 0.05667
 H1047 H 0.89076 0.28891 0.17256
 H1048 H 0.92018 0.31827 0.13783
 C1049 C 0.32789 0.81278 0.64733
 C1050 C 0.28824 0.81209 0.64651
 C1051 C 0.26793 0.79012 0.66794
 C1052 C 0.28627 0.77218 0.69233
 C1053 C 0.32574 0.77099 0.69161
 C1054 C 0.34618 0.79064 0.66947
 C1055 C 0.34864 0.83823 0.62536
 C1056 C 0.38810 0.83950 0.62362
 C1057 C 0.40621 0.86435 0.60344
 C1058 C 0.38570 0.88912 0.58473
 C1059 C 0.34632 0.88805 0.58604
 C1060 C 0.32769 0.86228 0.60581
 C1061 C 0.26916 0.83499 0.62542
 C1062 C 0.28840 0.86004 0.60594
 H1063 H 0.23878 0.83464 0.62474
 H1064 H 0.27222 0.87797 0.59073
 H1065 H 0.23776 0.78869 0.66629
 H1066 H 0.34141 0.75606 0.70895
 H1067 H 0.43658 0.86436 0.60262
 H1068 H 0.33023 0.90650 0.57114
 H1069 H 0.37630 0.78950 0.67108
 H1070 H 0.40561 0.82135 0.63742
 C1071 C 0.31959 1.15722 -0.14815
 C1072 C 0.32980 1.15603 -0.17909
 C1073 C 0.31169 1.17967 -0.19988
 C1074 C 0.28180 1.20376 -0.19110
 C1075 C 0.26860 1.20128 -0.16109
 C1076 C 0.28793 1.17916 -0.13958
 C1077 C 0.34294 1.13466 -0.12625
 C1078 C 0.34016 1.13902 -0.09450
 C1079 C 0.36454 1.11901 -0.07527
 C1080 C 0.39128 1.09355 -0.08733
 C1081 C 0.39363 1.08848 -0.11873
 C1082 C 0.37079 1.10969 -0.13817
 C1083 C 0.35798 1.13111 -0.18936
 C1084 C 0.37727 1.10754 -0.16940
 H1085 H 0.36512 1.12963 -0.21326
 H1086 H 0.39877 1.08859 -0.17845
 H1087 H 0.32117 1.17885 -0.22325
 H1088 H 0.24429 1.21761 -0.15390
 H1089 H 0.36260 1.12349 -0.05100
 H1090 H 0.41488 1.06955 -0.12821
 H1091 H 0.27767 1.17926 -0.11650
 H1092 H 0.32025 1.15868 -0.08434
 C1093 C 0.83351 0.68579 0.35490
 C1094 C 0.79399 0.68264 0.35306
 C1095 C 0.77412 0.70389 0.33098
 C1096 C 0.79336 0.72849 0.31085
 C1097 C 0.83236 0.73309 0.31459
 C1098 C 0.85194 0.71261 0.33633
 C1099 C 0.85437 0.65982 0.37604
 C1100 C 0.89384 0.65729 0.37609
 C1101 C 0.91213 0.63114 0.39484
 C1102 C 0.89177 0.60721 0.41442
 C1103 C 0.85242 0.60980 0.41504
 C1104 C 0.83355 0.63525 0.39540
 C1105 C 0.77492 0.65777 0.37291
 C1106 C 0.79422 0.63514 0.39400
 H1107 H 0.74463 0.65558 0.37203
 H1108 H 0.77815 0.61627 0.40872
 H1109 H 0.74407 0.70024 0.32884
 H1110 H 0.84855 0.75217 0.30020
 H1111 H 0.94246 0.62948 0.39389
 H1112 H 0.83646 0.59079 0.42974
 H1113 H 0.88168 0.71784 0.33776
 H1114 H 0.91121 0.67435 0.36119
 C1115 C 0.68420 1.15355 0.14217
 C1116 C 0.68242 1.19421 0.14308
 C1117 C 0.70168 1.21462 0.16560
 C1118 C 0.72372 1.19562 0.18728
 C1119 C 0.72800 1.15537 0.18436
 C1120 C 0.70851 1.13461 0.16230
 C1121 C 0.65918 1.13257 0.12048
 C1122 C 0.65452 1.09220 0.12107
 C1123 C 0.62811 1.07432 0.10251
 C1124 C 0.60631 1.09607 0.08248
 C1125 C 0.61179 1.13603 0.08068
 C1126 C 0.63722 1.15453 0.10011
 C1127 C 0.66069 1.21434 0.12196
 C1128 C 0.63912 1.19489 0.10054
 H1129 H 0.65991 1.24562 0.12228
 H1130 H 0.62237 1.21175 0.08498
 H1131 H 0.69857 1.24527 0.16600
 H1132 H 0.74540 1.13934 0.19996
 H1133 H 0.62425 1.04337 0.10421
 H1134 H 0.59452 1.15301 0.06555
 H1135 H 0.71239 1.10375 0.16172
 H1136 H 0.66986 1.07410 0.13653
 C1137 C 1.16449 0.66935 0.65029
 C1138 C 1.14810 0.67657 0.67893
 C1139 C 1.16880 0.69442 0.70174
 C1140 C 1.20581 0.70734 0.69689
 C1141 C 1.22224 0.70034 0.66840
 C1142 C 1.20190 0.68161 0.64534
 C1143 C 1.14120 0.64827 0.62708
 C1144 C 1.15483 0.63738 0.59823
 C1145 C 1.13231 0.61598 0.57828
 C1146 C 1.09566 0.60524 0.58654
 C1147 C 1.08156 0.61705 0.61470
 C1148 C 1.10394 0.63786 0.63500
 C1149 C 1.11100 0.66581 0.68507
 C1150 C 1.08931 0.64718 0.66351
 H1151 H 1.09848 0.67178 0.70703
 H1152 H 1.06081 0.63926 0.66951
 H1153 H 1.15533 0.69799 0.72359
 H1154 H 1.25095 0.70880 0.66398
 H1155 H 1.14387 0.60720 0.55660
 H1156 H 1.05332 0.60894 0.62136
 H1157 H 1.21587 0.67684 0.62391
 H1158 H 1.18294 0.64446 0.59098
 C1159 C 0.69263 0.83910 -0.13857
 C1160 C 0.70870 0.86133 -0.16215
 C1161 C 0.72766 0.84315 -0.18614
 C1162 C 0.72983 0.80263 -0.18803
 C1163 C 0.71609 0.78106 -0.16339
 C1164 C 0.69786 0.79886 -0.13904
 C1165 C 0.66911 0.85930 -0.11515
 C1166 C 0.65055 0.83974 -0.09136
 C1167 C 0.62549 0.85931 -0.07231
 C1168 C 0.61838 0.89866 -0.07662
 C1169 C 0.63851 0.91885 -0.09888
 C1170 C 0.66363 0.89957 -0.11813
 C1171 C 0.70419 0.90146 -0.16257
 C1172 C 0.68198 0.92017 -0.14110
 H1173 H 0.71687 0.91854 -0.18047
 H1174 H 0.67822 0.95110 -0.14307
 H1175 H 0.73904 0.86095 -0.20413
 H1176 H 0.71934 0.75021 -0.16253
 H1177 H 0.61041 0.84323 -0.05509
 H1178 H 0.63353 0.94947 -0.10201
 H1179 H 0.68725 0.78045 -0.12127
 H1180 H 0.65407 0.80921 -0.08765
 C1181 C 1.16680 0.32924 0.34989
 C1182 C 1.14918 0.32084 0.32204
 C1183 C 1.16925 0.30349 0.29852
 C1184 C 1.20686 0.29200 0.30187
 C1185 C 1.22460 0.30032 0.32952
 C1186 C 1.20488 0.31868 0.35328
 C1187 C 1.14397 0.34972 0.37389
 C1188 C 1.15856 0.36170 0.40210
 C1189 C 1.13623 0.38257 0.42275
 C1190 C 1.09887 0.39168 0.41579
 C1191 C 1.08391 0.37865 0.38835
 C1192 C 1.10598 0.35840 0.36742
 C1193 C 1.11143 0.32991 0.31739
 C1194 C 1.09023 0.34796 0.33966
 H1195 H 1.09798 0.32303 0.29605
 H1196 H 1.06117 0.35457 0.33480
 H1197 H 1.15478 0.29927 0.27728
 H1198 H 1.25381 0.29307 0.33273
 H1199 H 1.14846 0.39235 0.44383
 H1200 H 1.05507 0.38536 0.38273
 H1201 H 1.21981 0.32447 0.37402
 H1202 H 1.18726 0.35591 0.40825
 C1203 C 0.32562 0.81946 0.14204
 C1204 C 0.28964 0.83297 0.15039
 C1205 C 0.26860 0.81312 0.17252
 C1206 C 0.28438 0.78192 0.18840
 C1207 C 0.32148 0.77109 0.18150
 C1208 C 0.34134 0.78866 0.15816
 C1209 C 0.34723 0.84086 0.11844
 C1210 C 0.38031 0.82611 0.10535
 C1211 C 0.40149 0.84858 0.08551
 C1212 C 0.39044 0.88630 0.07873
 C1213 C 0.35634 0.90050 0.09008
 C1214 C 0.33397 0.87736 0.10912
 C1215 C 0.27622 0.86760 0.13808
 C1216 C 0.29855 0.89010 0.11881
 H1217 H 0.24889 0.87846 0.14469
 H1218 H 0.28779 0.91761 0.11111
 H1219 H 0.24086 0.82344 0.17849
 H1220 H 0.33577 0.74907 0.19438
 H1221 H 0.42745 0.83704 0.07643
 H1222 H 0.34728 0.92932 0.08400
 H1223 H 0.36973 0.77909 0.15415
 H1224 H 0.39023 0.79736 0.11024
 C1225 C 0.82726 0.31058 0.64354
 C1226 C 0.78838 0.31684 0.64782
 C1227 C 0.76860 0.29622 0.67047
 C1228 C 0.78717 0.26897 0.68865
 C1229 C 0.82512 0.26095 0.68216
 C1230 C 0.84467 0.28101 0.65991
 C1231 C 0.84862 0.33640 0.62238
 C1232 C 0.88813 0.33651 0.62074
 C1233 C 0.90706 0.36278 0.60228
 C1234 C 0.88727 0.38905 0.58444
 C1235 C 0.84785 0.38889 0.58539
 C1236 C 0.82846 0.36355 0.60497
 C1237 C 0.76994 0.34424 0.62989
 C1238 C 0.78940 0.36644 0.60845
 H1239 H 0.74005 0.34876 0.63259
 H1240 H 0.77384 0.38731 0.59526
 H1241 H 0.73933 0.30265 0.67475
 H1242 H 0.84075 0.24001 0.69513
 H1243 H 0.93745 0.36268 0.60206
 H1244 H 0.83243 0.40984 0.57215
 H1245 H 0.87370 0.27345 0.65643
 H1246 H 0.90505 0.31749 0.63431
 C1247 C 1.14595 1.16359 0.67605
 C1248 C 1.13965 1.20378 0.67840
 C1249 C 1.16002 1.22577 0.69942
 C1250 C 1.18754 1.20832 0.71745
 C1251 C 1.19013 1.16779 0.71747
 C1252 C 1.16964 1.14573 0.69712
 C1253 C 1.12805 1.14193 0.65068
 C1254 C 1.13728 1.10333 0.64382
 C1255 C 1.12212 1.08514 0.61853
 C1256 C 1.09711 1.10477 0.59975
 C1257 C 1.08696 1.14288 0.60669
 C1258 C 1.10297 1.16190 0.63156
 C1259 C 1.11402 1.22184 0.65911
 C1260 C 1.09553 1.20114 0.63649
 H1261 H 1.10869 1.25253 0.66116
 H1262 H 1.07633 1.21646 0.62184
 H1263 H 1.15527 1.25649 0.70073
 H1264 H 1.20937 1.15279 0.73223
 H1265 H 1.13030 1.05570 0.61349
 H1266 H 1.06798 1.15834 0.59191
 H1267 H 1.17359 1.11489 0.69775
 H1268 H 1.15706 1.08703 0.65704
 C1269 C 0.67516 0.66158 0.16614
 C1270 C 0.65436 0.68637 0.18539
 C1271 C 0.67277 0.70760 0.20807
 C1272 C 0.71193 0.70495 0.21122
 C1273 C 0.73091 0.67554 0.19548
 C1274 C 0.71300 0.65458 0.17282
 C1275 C 0.65585 0.64341 0.13973
 C1276 C 0.67534 0.62351 0.11663
 C1277 C 0.65591 0.60606 0.09284
 C1278 C 0.61674 0.60784 0.09178
 C1279 C 0.59725 0.62924 0.11380
 C1280 C 0.61657 0.64772 0.13735
 C1281 C 0.61565 0.69048 0.18130
 C1282 C 0.59698 0.67072 0.15825
 H1283 H 0.59953 0.70907 0.19622
 H1284 H 0.56691 0.67434 0.15626
 H1285 H 0.65707 0.72834 0.22145
 H1286 H 0.76030 0.66990 0.19945
 H1287 H 0.67145 0.58985 0.07594
 H1288 H 0.56694 0.63130 0.11269
 H1289 H 0.72933 0.63349 0.16050
 H1290 H 0.70552 0.62115 0.11656
 C1291 C 1.16559 0.85720 0.32900
 C1292 C 1.14612 0.82506 0.31699
 C1293 C 1.16346 0.80114 0.29554
 C1294 C 1.20070 0.80753 0.28666
 C1295 C 1.21870 0.84140 0.29651
 C1296 C 1.20152 0.86582 0.31752
 C1297 C 1.14762 0.87957 0.35423
 C1298 C 1.16553 0.91056 0.36913
 C1299 C 1.14876 0.92828 0.39423
 C1300 C 1.11393 0.91546 0.40496
 C1301 C 1.09521 0.88584 0.38953
 C1302 C 1.11177 0.86771 0.36451
 C1303 C 1.11001 0.81599 0.32726
 C1304 C 1.09315 0.83694 0.35051
 H1305 H 1.09497 0.79161 0.31779
 H1306 H 1.06553 0.82818 0.35825
 H1307 H 1.14810 0.77684 0.28659
 H1308 H 1.24702 0.84813 0.28930
 H1309 H 1.16354 0.95133 0.40573
 H1310 H 1.06800 0.87606 0.39752
 H1311 H 1.21732 0.89053 0.32511
 H1312 H 1.19277 0.92096 0.36227
 C1313 C 0.67974 0.34470 -0.16270
 C1314 C 0.65763 0.32032 -0.18121
 C1315 C 0.67459 0.29811 -0.20405
 C1316 C 0.71369 0.29896 -0.20810
 C1317 C 0.73431 0.32772 -0.19309
 C1318 C 0.71779 0.34981 -0.17019
 C1319 C 0.66146 0.36427 -0.13621
 C1320 C 0.68167 0.38520 -0.11414
 C1321 C 0.66290 0.40401 -0.09039
 C1322 C 0.62375 0.40231 -0.08835
 C1323 C 0.60373 0.37986 -0.10921
 C1324 C 0.62219 0.36056 -0.13279
 C1325 C 0.61897 0.31730 -0.17621
 C1326 C 0.60150 0.33763 -0.15286
 H1327 H 0.60195 0.29896 -0.19057
 H1328 H 0.57141 0.33470 -0.15008
 H1329 H 0.65763 0.27796 -0.21687
 H1330 H 0.76383 0.33185 -0.19781
 H1331 H 0.67881 0.42117 -0.07443
 H1332 H 0.57343 0.37795 -0.10738
 H1333 H 0.73531 0.37019 -0.15830
 H1334 H 0.71184 0.38753 -0.11498
 C1335 C 0.84981 1.14404 0.33414
 C1336 C 0.82075 1.16853 0.34433
 C1337 C 0.79657 1.18554 0.32360
 C1338 C 0.80116 1.18038 0.29219
 C1339 C 0.82961 1.15550 0.28198
 C1340 C 0.85352 1.13730 0.30267
 C1341 C 0.87570 1.12740 0.35741
 C1342 C 0.90473 1.10124 0.35022
 C1343 C 0.92741 1.08604 0.37309
 C1344 C 0.92197 1.09728 0.40325
 C1345 C 0.89378 1.12346 0.41067
 C1346 C 0.87036 1.13820 0.38818
 C1347 C 0.81661 1.17741 0.37513
 C1348 C 0.84113 1.16286 0.39656
 H1349 H 0.79437 1.19646 0.38275
 H1350 H 0.83697 1.17084 0.42011
 H1351 H 0.77547 1.20500 0.33233
 H1352 H 0.83423 1.15095 0.25797
 H1353 H 0.94880 1.06506 0.36733
 H1354 H 0.88923 1.13125 0.43425
 H1355 H 0.87532 1.11905 0.29357
 H1356 H 0.90980 1.09159 0.32730
 C1357 C 0.33981 0.64836 -0.16163
 C1358 C 0.31207 0.67380 -0.15070
 C1359 C 0.29082 0.69539 -0.17100
 C1360 C 0.29459 0.69113 -0.20268
 C1361 C 0.32135 0.66480 -0.21357
 C1362 C 0.34383 0.64380 -0.19337
 C1363 C 0.36356 0.62774 -0.13874
 C1364 C 0.39471 0.60511 -0.14692
 C1365 C 0.41660 0.58757 -0.12470
 C1366 C 0.40767 0.59146 -0.09378
 C1367 C 0.37656 0.61356 -0.08531
 C1368 C 0.35507 0.63245 -0.10744
 C1369 C 0.30543 0.67775 -0.11951
 C1370 C 0.32596 0.65692 -0.09838
 H1371 H 0.28373 0.69704 -0.11128
 H1372 H 0.31955 0.66080 -0.07452
 H1373 H 0.27141 0.71616 -0.16160
 H1374 H 0.32536 0.66078 -0.23771
 H1375 H 0.44056 0.57058 -0.13182
 H1376 H 0.36988 0.61712 -0.06145
 H1377 H 0.36403 0.62407 -0.20300
 H1378 H 0.40302 0.60121 -0.17027
 C1379 C 0.85100 0.85627 0.66176
 C1380 C 0.81653 0.83999 0.65275
 C1381 C 0.79435 0.82050 0.67369
 C1382 C 0.80371 0.81910 0.70457
 C1383 C 0.83698 0.83722 0.71394
 C1384 C 0.86059 0.85533 0.69276
 C1385 C 0.87543 0.87366 0.63767
 C1386 C 0.91280 0.88531 0.64281
 C1387 C 0.93431 0.90101 0.61920
 C1388 C 0.91847 0.90616 0.59052
 C1389 C 0.88176 0.89432 0.58509
 C1390 C 0.86061 0.87706 0.60803
 C1391 C 0.80412 0.84301 0.62281
 C1392 C 0.82522 0.86225 0.60111
 H1393 H 0.77732 0.83091 0.61618
 H1394 H 0.81417 0.86452 0.57832
 H1395 H 0.77043 0.80494 0.66514
 H1396 H 0.84544 0.83637 0.73747
 H1397 H 0.96291 0.90999 0.62347
 H1398 H 0.86998 0.89772 0.56261
 H1399 H 0.88608 0.86843 0.70096
 H1400 H 0.92587 0.88201 0.66467
 C1401 C 0.34504 0.34645 0.16032
 C1402 C 0.31662 0.32204 0.14922
 C1403 C 0.29403 0.30153 0.16937
 C1404 C 0.29736 0.30569 0.20105
 C1405 C 0.32501 0.33076 0.21213
 C1406 C 0.34869 0.35082 0.19207
 C1407 C 0.36959 0.36656 0.13758
 C1408 C 0.40094 0.38868 0.14594
 C1409 C 0.42294 0.40670 0.12388
 C1410 C 0.41399 0.40363 0.09299
 C1411 C 0.38308 0.38149 0.08431
 C1412 C 0.36134 0.36236 0.10627
 C1413 C 0.31045 0.31823 0.11801
 C1414 C 0.33189 0.33853 0.09701
 H1415 H 0.28831 0.29961 0.10967
 H1416 H 0.32571 0.33500 0.07312
 H1417 H 0.27359 0.28199 0.15986
 H1418 H 0.32866 0.33462 0.23630
 H1419 H 0.44681 0.42365 0.13116
 H1420 H 0.37637 0.37862 0.06046
 H1421 H 0.36944 0.36974 0.20183
 H1422 H 0.40913 0.39212 0.16930
   
