data_POSCAR
  _audit_creation_date              2014-09-24
  _audit_creation_method            'ToBaCCo'
  _symmetry_space_group_name_H-M    'P1'
  _symmetry_Int_Tables_number       1
  _symmetry_cell_setting            triclinic
  loop_
  _symmetry_equiv_pos_as_xyz
 x,y,z
_cell_length_a 60.7583
_cell_length_b 60.7423
_cell_length_c 60.8812
_cell_angle_alpha 89.991500
_cell_angle_beta 90.107400
_cell_angle_gamma 89.918900
loop_
  _atom_site_label
  _atom_site_type_symbol
  _atom_site_fract_x
  _atom_site_fract_y
  _atom_site_fract_z
C1 C 0.26893 1.06066 0.00158
 C2 C 0.27026 1.04895 0.02149
 C3 C 0.26785 1.02592 0.02088
 C4 C 0.26296 1.01473 0.00115
 C5 C 0.26006 1.02729 -0.01815
 C6 C 0.26383 1.05018 -0.01842
 C7 C 0.26181 0.99000 0.00054
 C8 C 0.26636 0.97833 -0.01907
 C9 C 0.26597 0.95523 -0.01966
 C10 C 0.26210 0.94362 -0.00020
 C11 C 0.25822 0.95465 0.01956
 C12 C 0.25716 0.97770 0.01973
 H13 H 0.26962 1.07844 0.00199
 H14 H 0.27095 1.01671 0.03574
 H15 H 0.25576 1.01908 -0.03326
 H16 H 0.27090 0.98693 -0.03392
 H17 H 0.26181 0.92578 -0.00036
 H18 H 0.25322 0.98580 0.03503
 C19 C 0.76294 0.56058 0.50520
 C20 C 0.76534 0.54825 0.52445
 C21 C 0.76476 0.52520 0.52338
 C22 C 0.76094 0.51422 0.50325
 C23 C 0.75734 0.52721 0.48427
 C24 C 0.75910 0.55023 0.48504
 C25 C 0.76174 0.48949 0.50184
 C26 C 0.76657 0.47889 0.48172
 C27 C 0.76822 0.45592 0.48041
 C28 C 0.76608 0.44330 0.49946
 C29 C 0.76144 0.45324 0.51966
 C30 C 0.75858 0.47617 0.52066
 H31 H 0.76353 0.57840 0.50601
 H32 H 0.76798 0.51613 0.53832
 H33 H 0.75359 0.51966 0.46865
 H34 H 0.76966 0.48821 0.46694
 H35 H 0.76741 0.42552 0.49846
 H36 H 0.75424 0.48339 0.53628
 C37 C 0.75293 1.00036 1.06221
 C38 C 0.75582 0.98071 1.05036
 C39 C 0.75406 0.98146 1.02732
 C40 C 0.74887 1.00117 1.01611
 C41 C 0.74593 1.02051 1.02865
 C42 C 0.74805 1.02039 1.05168
 C43 C 0.74618 1.00141 0.99151
 C44 C 0.74823 1.02116 0.97932
 C45 C 0.74486 1.02150 0.95645
 C46 C 0.74074 1.00163 0.94550
 C47 C 0.73909 0.98182 0.95703
 C48 C 0.74128 0.98185 0.97993
 H49 H 0.75438 1.00006 1.07991
 H50 H 0.75783 0.96672 1.01815
 H51 H 0.74065 1.03554 1.02075
 H52 H 0.75228 1.03644 0.98742
 H53 H 0.73937 1.00142 0.92775
 H54 H 0.73870 0.96647 0.98845
 C55 C 0.23550 0.50035 0.55929
 C56 C 0.23349 0.48069 0.54754
 C57 C 0.23424 0.48113 0.52454
 C58 C 0.23811 0.50097 0.51300
 C59 C 0.24131 0.52041 0.52545
 C60 C 0.23923 0.52028 0.54841
 C61 C 0.23784 0.50148 0.48825
 C62 C 0.23367 0.52130 0.47675
 C63 C 0.23232 0.52167 0.45376
 C64 C 0.23409 0.50197 0.44203
 C65 C 0.23813 0.48208 0.45288
 C66 C 0.24080 0.48202 0.47578
 H67 H 0.23476 0.50006 0.57708
 H68 H 0.23119 0.46588 0.51597
 H69 H 0.24502 0.53588 0.51756
 H70 H 0.23084 0.53659 0.48535
 H71 H 0.23290 0.50220 0.42426
 H72 H 0.24476 0.46656 0.48362
 C73 C 1.06153 0.24794 -0.00377
 C74 C 1.05170 0.25292 0.01656
 C75 C 1.02861 0.25542 0.01724
 C76 C 1.01539 0.25241 -0.00166
 C77 C 1.02588 0.24683 -0.02154
 C78 C 1.04881 0.24495 -0.02271
 C79 C 0.99086 0.25554 -0.00068
 C80 C 0.97868 0.26129 -0.01970
 C81 C 0.95565 0.26446 -0.01903
 C82 C 0.94522 0.26316 0.00157
 C83 C 0.95693 0.25793 0.02065
 C84 C 0.97944 0.25330 0.01935
 H85 H 1.07916 0.24567 -0.00498
 H86 H 1.02116 0.26100 0.03234
 H87 H 1.01643 0.24359 -0.03625
 H88 H 0.98725 0.26433 -0.03491
 H89 H 0.92756 0.26485 0.00299
 H90 H 0.98787 0.24826 0.03417
 C91 C 0.55863 0.74471 0.49680
 C92 C 0.54775 0.74864 0.51664
 C93 C 0.52468 0.74911 0.51704
 C94 C 0.51222 0.74504 0.49785
 C95 C 0.52364 0.74091 0.47806
 C96 C 0.54673 0.74099 0.47744
 C97 C 0.48752 0.74512 0.49853
 C98 C 0.47497 0.74987 0.47954
 C99 C 0.45189 0.74992 0.48021
 C100 C 0.44114 0.74562 0.50004
 C101 C 0.45314 0.74108 0.51913
 C102 C 0.47620 0.74055 0.51828
 H103 H 0.57647 0.74456 0.49641
 H104 H 0.51668 0.75314 0.53237
 H105 H 0.51482 0.73712 0.46309
 H106 H 0.48290 0.75409 0.46422
 H107 H 0.42331 0.74589 0.50065
 H108 H 0.48504 0.73613 0.53306
 C109 C -0.00044 0.74805 -0.06083
 C110 C 0.01918 0.75125 -0.04926
 C111 C 0.01911 0.75019 -0.02630
 C112 C -0.00024 0.74493 -0.01460
 C113 C -0.01987 0.74180 -0.02671
 C114 C -0.02032 0.74366 -0.04982
 C115 C 0.00032 0.74216 0.00998
 C116 C -0.01893 0.74437 0.02293
 C117 C -0.01858 0.74084 0.04594
 C118 C 0.00199 0.73663 0.05587
 C119 C 0.02123 0.73485 0.04352
 C120 C 0.02026 0.73700 0.02072
 H121 H -0.00011 0.74975 -0.07853
 H122 H 0.03432 0.75379 -0.01782
 H123 H -0.03466 0.73662 -0.01840
 H124 H -0.03428 0.74826 0.01496
 H125 H 0.00361 0.73599 0.07355
 H126 H 0.03528 0.73435 0.01161
 C127 C 0.50236 0.25310 0.44089
 C128 C 0.52206 0.25678 0.45225
 C129 C 0.52209 0.25667 0.47530
 C130 C 0.50264 0.25228 0.48723
 C131 C 0.48310 0.24823 0.47529
 C132 C 0.48282 0.24898 0.45228
 C133 C 0.50268 0.25191 0.51190
 C134 C 0.48312 0.25576 0.52384
 C135 C 0.48293 0.25489 0.54685
 C136 C 0.50253 0.25083 0.55822
 C137 C 0.52221 0.24733 0.54687
 C138 C 0.52220 0.24760 0.52382
 H139 H 0.50224 0.25343 0.42309
 H140 H 0.53731 0.26050 0.48368
 H141 H 0.46799 0.24399 0.48361
 H142 H 0.46793 0.25989 0.51553
 H143 H 0.50245 0.25036 0.57602
 H144 H 0.53744 0.24390 0.51546
 C145 C 1.05420 -0.00373 0.23267
 C146 C 1.04508 0.01628 0.24004
 C147 C 1.02274 0.01636 0.24648
 C148 C 1.00935 -0.00255 0.24427
 C149 C 1.01916 -0.02211 0.23652
 C150 C 1.04161 -0.02295 0.23150
 C151 C 0.98533 -0.00196 0.25021
 C152 C 0.97406 -0.02136 0.25633
 C153 C 0.95146 -0.02114 0.26167
 C154 C 0.94060 -0.00066 0.26235
 C155 C 0.95137 0.01880 0.25640
 C156 C 0.97341 0.01797 0.24975
 H157 H 1.07168 -0.00497 0.22947
 H158 H 1.01561 0.03138 0.25269
 H159 H 1.00959 -0.03692 0.23428
 H160 H 0.98299 -0.03666 0.25782
 H161 H 0.92316 0.00023 0.26584
 H162 H 0.98106 0.03305 0.24428
 C163 C 0.55539 0.49730 0.73398
 C164 C 0.54481 0.51691 0.73978
 C165 C 0.52238 0.51653 0.74524
 C166 C 0.51000 0.49689 0.74376
 C167 C 0.52115 0.47737 0.73764
 C168 C 0.54385 0.47740 0.73341
 C169 C 0.48577 0.49676 0.74885
 C170 C 0.47496 0.47711 0.75498
 C171 C 0.45232 0.47686 0.75941
 C172 C 0.44048 0.49662 0.75905
 C173 C 0.45073 0.51642 0.75332
 C174 C 0.47311 0.51629 0.74760
 H175 H 0.57296 0.49737 0.73090
 H176 H 0.51486 0.53170 0.75065
 H177 H 0.51247 0.46196 0.73593
 H178 H 0.48390 0.46182 0.75661
 H179 H 0.42295 0.49648 0.76235
 H180 H 0.48040 0.53159 0.74226
 C181 C 1.00004 1.05583 0.76957
 C182 C 0.97943 1.04533 0.76992
 C183 C 0.97878 1.02239 0.76628
 C184 C 0.99796 1.01028 0.76094
 C185 C 1.01800 1.02187 0.75910
 C186 C 1.01921 1.04432 0.76415
 C187 C 0.99719 0.98568 0.75781
 C188 C 1.01637 0.97267 0.76028
 C189 C 1.01591 0.94957 0.75791
 C190 C 0.99549 0.93943 0.75384
 C191 C 0.97624 0.95188 0.75150
 C192 C 0.97722 0.97486 0.75299
 H193 H 1.00125 1.07347 0.77185
 H194 H 0.96334 1.01398 0.76867
 H195 H 1.03292 1.01366 0.75400
 H196 H 1.03159 0.98026 0.76538
 H197 H 0.99440 0.92176 0.75183
 H198 H 0.96223 0.98401 0.75013
 C199 C 0.49949 0.55871 0.25748
 C200 C 0.47966 0.54800 0.25288
 C201 C 0.47913 0.52493 0.25189
 C202 C 0.49822 0.51225 0.25612
 C203 C 0.51791 0.52359 0.26126
 C204 C 0.51869 0.54666 0.26148
 C205 C 0.49773 0.48749 0.25488
 C206 C 0.51735 0.47532 0.25169
 C207 C 0.51717 0.45225 0.25135
 C208 C 0.49709 0.44113 0.25231
 C209 C 0.47730 0.45267 0.25450
 C210 C 0.47772 0.47567 0.25670
 H211 H 0.49999 0.57655 0.25783
 H212 H 0.46381 0.51723 0.24722
 H213 H 0.53280 0.51481 0.26545
 H214 H 0.53300 0.48345 0.24969
 H215 H 0.49685 0.42330 0.25132
 H216 H 0.46229 0.48405 0.25952
 O217 O 0.25007 0.18973 0.22417
 O218 O 0.27251 0.18366 0.25533
 O219 O 0.19097 0.21656 0.25334
 O220 O 0.18248 0.24504 0.27493
 O221 O 0.21906 0.24568 0.19571
 O222 O 0.24741 0.27118 0.19033
 O223 O 0.24788 0.27864 0.31013
 O224 O 0.22219 0.24950 0.31588
 O225 O 0.30471 0.24926 0.28434
 O226 O 0.31309 0.22511 0.25587
 O227 O 0.27752 0.30486 0.25401
 O228 O 0.24666 0.31097 0.22874
 O229 O 0.24831 0.30455 0.28323
 O230 O 0.22240 0.31023 0.25139
 O231 O 0.30410 0.27863 0.25589
 O232 O 0.30820 0.24675 0.22699
 O233 O 0.27810 0.24932 0.31061
 O234 O 0.25112 0.22439 0.31766
 O235 O 0.24951 0.21581 0.19736
 O236 O 0.27581 0.24646 0.19311
 O237 O 0.19204 0.24752 0.22157
 O238 O 0.18580 0.27264 0.25274
 O239 O 0.21766 0.19030 0.25418
 O240 O 0.24942 0.18437 0.27926
 Zr241 Zr 0.24752 0.20786 0.25361
 O242 O 0.26762 0.22738 0.27387
 Zr243 Zr 0.20865 0.24630 0.25213
 O244 O 0.22699 0.26724 0.27292
 Zr245 Zr 0.24814 0.24593 0.21434
 O246 O 0.26793 0.26731 0.23315
 Zr247 Zr 0.24825 0.24864 0.29287
 O248 O 0.22763 0.22730 0.27436
 Zr249 Zr 0.28716 0.24844 0.25470
 O250 O 0.26906 0.22681 0.23432
 Zr251 Zr 0.24806 0.28671 0.25367
 O252 O 0.22808 0.26730 0.23278
 O253 O 0.22746 0.22568 0.23249
 O254 O 0.26863 0.26918 0.27468
 C255 C 0.25063 0.19574 0.20392
 C256 C 0.19738 0.19640 0.25423
 C257 C 0.19877 0.24694 0.20152
 C258 C 0.24822 0.29873 0.30351
 C259 C 0.29836 0.24954 0.30445
 C260 C 0.29774 0.29880 0.25535
 H261 H 0.27659 0.21767 0.28338
 H262 H 0.27726 0.27626 0.22331
 H263 H 0.21832 0.21602 0.22309
 H264 H 0.21690 0.27624 0.28196
 H265 H 0.21219 0.23721 0.31212
 H266 H 0.18767 0.25237 0.28848
 H267 H 0.32173 0.25527 0.23023
 H268 H 0.27102 0.24197 0.17818
 H269 H 0.24166 0.21198 0.31315
 H270 H 0.23601 0.18596 0.28832
 H271 H 0.25812 0.30738 0.21778
 H272 H 0.23718 0.28265 0.19574
 H273 H 0.28467 0.18888 0.24587
 H274 H 0.30788 0.21241 0.26458
 H275 H 0.19032 0.28314 0.24117
 H276 H 0.21257 0.30817 0.26416
 O277 O 0.74962 0.80335 0.21641
 O278 O 0.72664 0.81160 0.24714
 O279 O 0.80713 0.77805 0.25117
 O280 O 0.81621 0.74924 0.27102
 O281 O 0.78145 0.74626 0.19145
 O282 O 0.75319 0.72083 0.18611
 O283 O 0.74777 0.71907 0.30619
 O284 O 0.77301 0.74777 0.31241
 O285 O 0.69228 0.74571 0.27673
 O286 O 0.68678 0.77099 0.24928
 O287 O 0.72087 0.69001 0.25143
 O288 O 0.75195 0.68211 0.22725
 O289 O 0.75003 0.69160 0.28098
 O290 O 0.77652 0.68484 0.24964
 O291 O 0.69409 0.71608 0.24908
 O292 O 0.69070 0.74452 0.21960
 O293 O 0.71812 0.74794 0.30376
 O294 O 0.74845 0.77434 0.31050
 O295 O 0.75165 0.77639 0.19056
 O296 O 0.72464 0.74568 0.18709
 O297 O 0.80742 0.74695 0.21845
 O298 O 0.81204 0.72140 0.25066
 O299 O 0.78065 0.80433 0.24773
 O300 O 0.74923 0.81065 0.27171
 Zr301 Zr 0.75090 0.78662 0.24663
 O302 O 0.72980 0.76813 0.26672
 Zr303 Zr 0.78982 0.74820 0.24837
 O304 O 0.77077 0.72849 0.26959
 Zr305 Zr 0.75179 0.74703 0.20903
 O306 O 0.73151 0.72642 0.22815
 Zr307 Zr 0.74868 0.74808 0.28753
 O308 O 0.77008 0.76812 0.26884
 Zr309 Zr 0.71117 0.74610 0.24784
 O310 O 0.72996 0.76695 0.22719
 Zr311 Zr 0.75047 0.70801 0.25047
 O312 O 0.77107 0.72639 0.22924
 O313 O 0.77184 0.76802 0.22718
 O314 O 0.72908 0.72656 0.26960
 C315 C 0.75033 0.79669 0.19638
 C316 C 0.80077 0.79823 0.25025
 C317 C 0.80154 0.74621 0.19811
 C318 C 0.74856 0.69863 0.30084
 C319 C 0.69807 0.74663 0.29704
 C320 C 0.70058 0.69601 0.25075
 H321 H 0.72001 0.77823 0.27489
 H322 H 0.72265 0.71690 0.21838
 H323 H 0.78141 0.77741 0.21796
 H324 H 0.78053 0.72005 0.27952
 H325 H 0.78478 0.75792 0.30757
 H326 H 0.81036 0.74410 0.28526
 H327 H 0.67551 0.74127 0.22457
 H328 H 0.72982 0.74970 0.17217
 H329 H 0.73612 0.78431 0.30681
 H330 H 0.76003 0.80626 0.28309
 H331 H 0.74119 0.68542 0.21550
 H332 H 0.76252 0.70923 0.19277
 H333 H 0.71498 0.80707 0.23674
 H334 H 0.68933 0.78084 0.23659
 H335 H 0.80888 0.71148 0.23814
 H336 H 0.78592 0.68741 0.26267
 O337 O 0.74953 0.19582 0.78540
 O338 O 0.72809 0.18671 0.75350
 O339 O 0.80839 0.22043 0.75334
 O340 O 0.81709 0.24792 0.73096
 O341 O 0.78082 0.25490 0.80972
 O342 O 0.75155 0.27879 0.81413
 O343 O 0.75014 0.27821 0.69372
 O344 O 0.77624 0.24945 0.68923
 O345 O 0.69425 0.25047 0.72182
 O346 O 0.68828 0.22645 0.75036
 O347 O 0.72114 0.30786 0.74748
 O348 O 0.75201 0.31630 0.77234
 O349 O 0.75113 0.30604 0.71863
 O350 O 0.77642 0.31395 0.75021
 O351 O 0.69466 0.28150 0.74756
 O352 O 0.69051 0.25481 0.77851
 O353 O 0.72082 0.24841 0.69556
 O354 O 0.75144 0.22302 0.69015
 O355 O 0.75124 0.22328 0.81074
 O356 O 0.72363 0.25377 0.81252
 O357 O 0.80761 0.25285 0.78369
 O358 O 0.81312 0.27689 0.75131
 O359 O 0.78197 0.19413 0.75635
 O360 O 0.75228 0.18704 0.73043
 Zr361 Zr 0.75218 0.21176 0.75490
 O362 O 0.73163 0.22962 0.73359
 Zr363 Zr 0.79072 0.25029 0.75346
 O364 O 0.77210 0.26954 0.73132
 Zr365 Zr 0.75148 0.25225 0.79157
 O366 O 0.73151 0.27216 0.77132
 Zr367 Zr 0.75084 0.24943 0.71293
 O368 O 0.77180 0.22980 0.73282
 Zr369 Zr 0.71211 0.25185 0.75130
 O370 O 0.73046 0.23171 0.77313
 Zr371 Zr 0.75097 0.29020 0.74932
 O372 O 0.77117 0.27242 0.77147
 O373 O 0.77226 0.23101 0.77466
 O374 O 0.73043 0.27111 0.72975
 C375 C 0.74980 0.20287 0.80530
 C376 C 0.80216 0.20027 0.75509
 C377 C 0.80111 0.25494 0.80370
 C378 C 0.75047 0.29875 0.69883
 C379 C 0.70057 0.24912 0.70171
 C380 C 0.70094 0.30165 0.74650
 H381 H 0.72227 0.21918 0.72535
 H382 H 0.72221 0.28183 0.78051
 H383 H 0.78157 0.22216 0.78469
 H384 H 0.78205 0.27793 0.72159
 H385 H 0.78765 0.23906 0.69454
 H386 H 0.81211 0.25477 0.71707
 H387 H 0.67548 0.25747 0.77270
 H388 H 0.72828 0.24984 0.82765
 H389 H 0.74042 0.21202 0.69481
 H390 H 0.76363 0.19126 0.71958
 H391 H 0.74018 0.31381 0.78319
 H392 H 0.76031 0.29070 0.80735
 H393 H 0.71597 0.19132 0.76329
 H394 H 0.69026 0.21763 0.76388
 H395 H 0.80884 0.28767 0.76273
 H396 H 0.78659 0.31080 0.73794
 O397 O 0.25376 0.80978 0.78029
 O398 O 0.27661 0.81625 0.74860
 O399 O 0.19558 0.78387 0.74798
 O400 O 0.18587 0.75492 0.72865
 O401 O 0.22211 0.75398 0.80764
 O402 O 0.24971 0.72799 0.81320
 O403 O 0.25238 0.72246 0.69285
 O404 O 0.22771 0.75173 0.68662
 O405 O 0.30937 0.74933 0.72043
 O406 O 0.31579 0.77532 0.74688
 O407 O 0.28081 0.69493 0.74886
 O408 O 0.24992 0.68809 0.77312
 O409 O 0.25201 0.69606 0.71927
 O410 O 0.22527 0.69045 0.75085
 O411 O 0.30807 0.72049 0.74903
 O412 O 0.31225 0.75000 0.77754
 O413 O 0.28298 0.75100 0.69387
 O414 O 0.25306 0.77751 0.68685
 O415 O 0.25403 0.78329 0.80666
 O416 O 0.27895 0.75135 0.81097
 O417 O 0.19570 0.75347 0.78105
 O418 O 0.19009 0.72743 0.74964
 O419 O 0.22215 0.81013 0.75045
 O420 O 0.25252 0.81523 0.72482
 Zr421 Zr 0.25178 0.79199 0.75066
 O422 O 0.27224 0.77254 0.73063
 Zr423 Zr 0.21266 0.75394 0.75083
 O424 O 0.23099 0.73335 0.72983
 Zr425 Zr 0.25151 0.75338 0.78941
 O426 O 0.27116 0.73203 0.77048
 Zr427 Zr 0.25278 0.75209 0.71076
 O428 O 0.23204 0.77304 0.72936
 Zr429 Zr 0.29120 0.75081 0.74969
 O430 O 0.27302 0.77251 0.77011
 Zr431 Zr 0.25150 0.71330 0.74918
 O432 O 0.23156 0.73250 0.77025
 O433 O 0.23126 0.77411 0.77116
 O434 O 0.27260 0.73089 0.72893
 C435 C 0.25489 0.80348 0.80041
 C436 C 0.20196 0.80402 0.74873
 C437 C 0.20189 0.75352 0.80129
 C438 C 0.25236 0.70225 0.69910
 C439 C 0.30315 0.74967 0.70023
 C440 C 0.30120 0.70048 0.74867
 H441 H 0.28195 0.78226 0.72195
 H442 H 0.28012 0.72266 0.78034
 H443 H 0.22214 0.78385 0.78049
 H444 H 0.22093 0.72470 0.72041
 H445 H 0.21640 0.76246 0.69140
 H446 H 0.19129 0.74907 0.71451
 H447 H 0.32728 0.74628 0.77238
 H448 H 0.27429 0.75607 0.82586
 H449 H 0.26507 0.78784 0.69050
 H450 H 0.24134 0.81051 0.71395
 H451 H 0.26041 0.69190 0.78496
 H452 H 0.23990 0.71650 0.80713
 H453 H 0.28805 0.81225 0.75947
 H454 H 0.31350 0.78571 0.75917
 H455 H 0.19360 0.71760 0.76215
 H456 H 0.21606 0.69240 0.73757
 O457 O 0.24915 0.30400 0.71651
 O458 O 0.22502 0.31047 0.74625
 O459 O 0.30621 0.27730 0.74956
 O460 O 0.31502 0.24787 0.76898
 O461 O 0.28000 0.24829 0.68932
 O462 O 0.25227 0.22230 0.68341
 O463 O 0.24725 0.21622 0.80306
 O464 O 0.27325 0.24490 0.80959
 O465 O 0.19172 0.24466 0.77545
 O466 O 0.18378 0.26832 0.74730
 O467 O 0.21998 0.18918 0.74709
 O468 O 0.25091 0.18246 0.72264
 O469 O 0.24933 0.18967 0.77685
 O470 O 0.27543 0.18411 0.74509
 O471 O 0.19333 0.21540 0.74620
 O472 O 0.19038 0.24829 0.71772
 O473 O 0.21785 0.24515 0.80227
 O474 O 0.24455 0.27062 0.80979
 O475 O 0.24840 0.27781 0.68985
 O476 O 0.22338 0.24632 0.68496
 O477 O 0.30610 0.24731 0.71621
 O478 O 0.31122 0.22103 0.74743
 O479 O 0.27979 0.30373 0.74757
 O480 O 0.24701 0.30979 0.77148
 Zr481 Zr 0.24996 0.28616 0.74609
 O482 O 0.22917 0.26691 0.76581
 Zr483 Zr 0.28872 0.24766 0.74621
 O484 O 0.26989 0.22702 0.76669
 Zr485 Zr 0.25038 0.24777 0.70710
 O486 O 0.23015 0.22652 0.72560
 Zr487 Zr 0.24805 0.24590 0.78556
 O488 O 0.26926 0.26694 0.76763
 Zr489 Zr 0.21021 0.24560 0.74629
 O490 O 0.22893 0.26707 0.72631
 Zr491 Zr 0.24944 0.20729 0.74699
 O492 O 0.26989 0.22653 0.72641
 O493 O 0.27058 0.26817 0.72577
 O494 O 0.22822 0.22508 0.76703
 C495 C 0.24806 0.29796 0.69631
 C496 C 0.29993 0.29750 0.74954
 C497 C 0.30012 0.24767 0.69590
 C498 C 0.24801 0.19601 0.79695
 C499 C 0.19772 0.24454 0.79572
 C500 C 0.19972 0.19524 0.74676
 H501 H 0.21987 0.27668 0.77491
 H502 H 0.22112 0.21746 0.71553
 H503 H 0.28000 0.27790 0.71675
 H504 H 0.27976 0.21820 0.77618
 H505 H 0.28360 0.25696 0.80605
 H506 H 0.30898 0.24270 0.78313
 H507 H 0.17717 0.23893 0.71968
 H508 H 0.22848 0.25080 0.67014
 H509 H 0.25483 0.28255 0.80586
 H510 H 0.26023 0.30853 0.78092
 H511 H 0.24034 0.18645 0.71092
 H512 H 0.26222 0.21087 0.68945
 H513 H 0.21338 0.30527 0.73610
 H514 H 0.18950 0.28201 0.75395
 H515 H 0.30775 0.21129 0.73486
 H516 H 0.28506 0.18632 0.75802
 O517 O 0.74778 0.69362 0.72417
 O518 O 0.76991 0.68763 0.75564
 O519 O 0.68800 0.71943 0.75259
 O520 O 0.67852 0.74781 0.77379
 O521 O 0.71683 0.74959 0.69550
 O522 O 0.74502 0.77527 0.69088
 O523 O 0.74224 0.78162 0.81075
 O524 O 0.71723 0.75182 0.81561
 O525 O 0.80042 0.75388 0.78605
 O526 O 0.81015 0.73008 0.75837
 O527 O 0.77328 0.80888 0.75489
 O528 O 0.74267 0.81489 0.72978
 O529 O 0.74334 0.80790 0.78421
 O530 O 0.71809 0.81352 0.75184
 O531 O 0.80016 0.78295 0.75689
 O532 O 0.80506 0.75030 0.72866
 O533 O 0.77324 0.75267 0.81174
 O534 O 0.74663 0.72758 0.81802
 O535 O 0.74776 0.71988 0.69756
 O536 O 0.77363 0.75101 0.69409
 O537 O 0.68928 0.75037 0.72081
 O538 O 0.68207 0.77544 0.75189
 O539 O 0.71499 0.69351 0.75336
 O540 O 0.74625 0.68776 0.77912
 Zr541 Zr 0.74459 0.71147 0.75367
 O542 O 0.76396 0.73107 0.77452
 Zr543 Zr 0.70526 0.74939 0.75167
 O544 O 0.72283 0.77038 0.77302
 Zr545 Zr 0.74553 0.74987 0.71473
 O546 O 0.76457 0.77135 0.73416
 Zr547 Zr 0.74387 0.75186 0.79326
 O548 O 0.72397 0.73042 0.77413
 Zr549 Zr 0.78360 0.75259 0.75600
 O550 O 0.76628 0.73087 0.73503
 Zr551 Zr 0.74404 0.79035 0.75442
 O552 O 0.72481 0.77083 0.73293
 O553 O 0.72474 0.72919 0.73226
 O554 O 0.76440 0.77295 0.77577
 C555 C 0.74883 0.69975 0.70398
 C556 C 0.69465 0.69934 0.75325
 C557 C 0.69639 0.75031 0.70088
 C558 C 0.74243 0.80179 0.80440
 C559 C 0.79359 0.75358 0.80601
 C560 C 0.79358 0.80303 0.75606
 H561 H 0.77288 0.72141 0.78414
 H562 H 0.77395 0.78046 0.72450
 H563 H 0.71592 0.71950 0.72259
 H564 H 0.71238 0.77912 0.78189
 H565 H 0.70762 0.73934 0.81149
 H566 H 0.68342 0.75480 0.78761
 H567 H 0.81812 0.75964 0.73151
 H568 H 0.76926 0.74648 0.67904
 H569 H 0.73794 0.71482 0.81300
 H570 H 0.73259 0.68903 0.78786
 H571 H 0.75403 0.81131 0.71872
 H572 H 0.73451 0.78657 0.69612
 H573 H 0.78208 0.69302 0.74627
 H574 H 0.80451 0.71666 0.76558
 H575 H 0.68665 0.78599 0.74039
 H576 H 0.70797 0.81112 0.76431
 O577 O 0.24804 0.69440 0.28099
 O578 O 0.22610 0.68618 0.24890
 O579 O 0.30556 0.72273 0.25191
 O580 O 0.31380 0.75113 0.23060
 O581 O 0.27500 0.75235 0.30854
 O582 O 0.24565 0.77658 0.31261
 O583 O 0.24651 0.78023 0.19239
 O584 O 0.27394 0.75294 0.18749
 O585 O 0.19124 0.74930 0.21781
 O586 O 0.18523 0.72442 0.24535
 O587 O 0.21537 0.80690 0.24635
 O588 O 0.24495 0.81568 0.27210
 O589 O 0.24599 0.80721 0.21822
 O590 O 0.27037 0.81469 0.25091
 O591 O 0.18982 0.77969 0.24444
 O592 O 0.18578 0.75166 0.27448
 O593 O 0.21858 0.74924 0.19230
 O594 O 0.25059 0.72520 0.18706
 O595 O 0.24504 0.72107 0.30700
 O596 O 0.21793 0.75145 0.30947
 O597 O 0.30242 0.75406 0.28313
 O598 O 0.30807 0.77925 0.25170
 O599 O 0.28013 0.69533 0.25088
 O600 O 0.25036 0.68770 0.22598
 Zr601 Zr 0.24962 0.71173 0.25110
 O602 O 0.22900 0.72963 0.22990
 Zr603 Zr 0.28667 0.75176 0.25231
 O604 O 0.26803 0.77106 0.23024
 Zr605 Zr 0.24633 0.75079 0.28920
 O606 O 0.22626 0.77074 0.26909
 Zr607 Zr 0.24804 0.75087 0.21056
 O608 O 0.26915 0.73136 0.23034
 Zr609 Zr 0.20818 0.75051 0.24780
 O610 O 0.22667 0.73023 0.26938
 Zr611 Zr 0.24569 0.79025 0.24834
 O612 O 0.26583 0.77244 0.27050
 O613 O 0.26837 0.73091 0.27216
 O614 O 0.22640 0.77117 0.22751
 C615 C 0.24578 0.70080 0.30098
 C616 C 0.30009 0.70231 0.25105
 C617 C 0.29539 0.75402 0.30307
 C618 C 0.24593 0.80057 0.19819
 C619 C 0.19817 0.74879 0.19787
 C620 C 0.19545 0.80007 0.24437
 H621 H 0.22029 0.71914 0.22103
 H622 H 0.21636 0.77975 0.27832
 H623 H 0.27772 0.72185 0.28197
 H624 H 0.27791 0.78015 0.22109
 H625 H 0.28576 0.74303 0.19280
 H626 H 0.30899 0.75824 0.21679
 H627 H 0.17086 0.75426 0.26837
 H628 H 0.22224 0.74724 0.32464
 H629 H 0.23910 0.71416 0.19027
 H630 H 0.26110 0.69288 0.21492
 H631 H 0.23373 0.81174 0.28317
 H632 H 0.25484 0.78862 0.30668
 H633 H 0.21431 0.68970 0.25952
 H634 H 0.18746 0.71496 0.25839
 H635 H 0.30315 0.78943 0.26340
 H636 H 0.28069 0.81267 0.23852
 O637 O 0.75498 0.31262 0.27893
 O638 O 0.77703 0.31922 0.24734
 O639 O 0.69675 0.28558 0.24665
 O640 O 0.68727 0.25602 0.22813
 O641 O 0.72325 0.25694 0.30715
 O642 O 0.75134 0.23152 0.31329
 O643 O 0.75312 0.22399 0.19302
 O644 O 0.72961 0.25334 0.18599
 O645 O 0.81098 0.25240 0.22048
 O646 O 0.81695 0.27829 0.24681
 O647 O 0.78272 0.19757 0.24979
 O648 O 0.75183 0.19075 0.27381
 O649 O 0.75419 0.19793 0.21982
 O650 O 0.72721 0.19258 0.25142
 O651 O 0.80975 0.22336 0.24933
 O652 O 0.81352 0.25308 0.27756
 O653 O 0.78462 0.25159 0.19389
 O654 O 0.75475 0.27901 0.18639
 O655 O 0.75395 0.28669 0.30583
 O656 O 0.78010 0.25561 0.31065
 O657 O 0.69690 0.25596 0.28053
 O658 O 0.69169 0.22918 0.24963
 O659 O 0.72303 0.31214 0.24826
 O660 O 0.75402 0.31691 0.22316
 Zr661 Zr 0.75284 0.29434 0.24959
 O662 O 0.77357 0.27473 0.23003
 Zr663 Zr 0.71402 0.25591 0.25038
 O664 O 0.73261 0.23517 0.22980
 Zr665 Zr 0.75266 0.25648 0.28903
 O666 O 0.77260 0.23495 0.27059
 Zr667 Zr 0.75431 0.25377 0.21050
 O668 O 0.73331 0.27479 0.22865
 Zr669 Zr 0.79260 0.25354 0.24960
 O670 O 0.77414 0.27544 0.26952
 Zr671 Zr 0.75325 0.21563 0.24952
 O672 O 0.73304 0.23499 0.27022
 O673 O 0.73231 0.27672 0.27032
 O674 O 0.77430 0.23306 0.22908
 C675 C 0.75523 0.30673 0.29922
 C676 C 0.70292 0.30580 0.24650
 C677 C 0.70307 0.25633 0.30078
 C678 C 0.75370 0.20391 0.19958
 C679 C 0.80483 0.25145 0.20028
 C680 C 0.80306 0.20329 0.24948
 H681 H 0.78323 0.28436 0.22122
 H682 H 0.78158 0.22585 0.28068
 H683 H 0.72299 0.28658 0.27932
 H684 H 0.72260 0.22631 0.22054
 H685 H 0.71804 0.26378 0.19076
 H686 H 0.69295 0.25044 0.21398
 H687 H 0.82862 0.24952 0.27250
 H688 H 0.77527 0.26054 0.32542
 H689 H 0.76787 0.28830 0.18886
 H690 H 0.74306 0.31186 0.21221
 H691 H 0.76202 0.19499 0.28575
 H692 H 0.74160 0.21982 0.30751
 H693 H 0.78912 0.31493 0.25735
 H694 H 0.81464 0.28860 0.25917
 H695 H 0.69526 0.21962 0.26233
 H696 H 0.71814 0.19412 0.23799
 C697 C 0.27267 0.08668 0.08028
 C698 C 0.28462 0.09321 0.06165
 C699 C 0.28451 0.08046 0.04259
 C700 C 0.27288 0.06040 0.04165
 C701 C 0.26256 0.05294 0.06102
 C702 C 0.26217 0.06605 0.07993
 C703 C 0.27001 0.10199 0.09928
 C704 C 0.26769 0.09408 0.12089
 C705 C 0.26401 0.10864 0.13836
 C706 C 0.26280 0.13150 0.13469
 C707 C 0.26563 0.13936 0.11316
 C708 C 0.26891 0.12485 0.09573
 C709 C 0.25856 0.14721 0.15303
 C710 C 0.24645 0.16663 0.14925
 C711 C 0.24370 0.18219 0.16587
 C712 C 0.25252 0.17854 0.18687
 C713 C 0.26382 0.15880 0.19106
 C714 C 0.26699 0.14337 0.17426
 H715 H 0.29380 0.10846 0.06157
 H716 H 0.29379 0.08636 0.02863
 H717 H 0.25315 0.03782 0.06119
 H718 H 0.25265 0.06046 0.09385
 H719 H 0.26870 0.07664 0.12437
 H720 H 0.26174 0.10192 0.15466
 H721 H 0.26534 0.15683 0.10967
 H722 H 0.27014 0.13166 0.07935
 H723 H 0.23909 0.16991 0.13338
 H724 H 0.23462 0.19714 0.16229
 H725 H 0.27088 0.15564 0.20711
 H726 H 0.27659 0.12876 0.17778
 C727 C 0.76805 0.58668 0.58353
 C728 C 0.78381 0.58967 0.56687
 C729 C 0.78353 0.57653 0.54806
 C730 C 0.76779 0.55983 0.54567
 C731 C 0.75293 0.55584 0.56281
 C732 C 0.75295 0.56922 0.58151
 C733 C 0.76639 0.60264 0.60204
 C734 C 0.75983 0.59585 0.62313
 C735 C 0.75697 0.61123 0.64000
 C736 C 0.76075 0.63376 0.63624
 C737 C 0.76781 0.64044 0.61531
 C738 C 0.77042 0.62514 0.59842
 C739 C 0.75709 0.65037 0.65386
 C740 C 0.74857 0.67129 0.64868
 C741 C 0.74581 0.68722 0.66496
 C742 C 0.75120 0.68256 0.68692
 C743 C 0.75922 0.66151 0.69227
 C744 C 0.76224 0.64562 0.67590
 H745 H 0.79607 0.60252 0.56811
 H746 H 0.79528 0.57974 0.53509
 H747 H 0.74053 0.54314 0.56119
 H748 H 0.74043 0.56654 0.59384
 H749 H 0.75682 0.57864 0.62660
 H750 H 0.75136 0.60550 0.65587
 H751 H 0.77129 0.65757 0.61189
 H752 H 0.77512 0.63112 0.58235
 H753 H 0.74388 0.67536 0.63200
 H754 H 0.73932 0.70318 0.66035
 H755 H 0.76362 0.65747 0.70904
 H756 H 0.76907 0.62980 0.68047
 C757 C 0.76178 0.92177 0.08754
 C758 C 0.75127 0.92161 0.06694
 C759 C 0.75048 0.94066 0.05399
 C760 C 0.75958 0.96061 0.06164
 C761 C 0.77128 0.96023 0.08166
 C762 C 0.77258 0.94109 0.09422
 C763 C 0.76034 0.90253 0.10270
 C764 C 0.75897 0.90594 0.12551
 C765 C 0.75701 0.88823 0.13993
 C766 C 0.75582 0.86653 0.13201
 C767 C 0.75723 0.86302 0.10921
 C768 C 0.75958 0.88079 0.09473
 C769 C 0.75314 0.84785 0.14766
 C770 C 0.76337 0.82739 0.14386
 C771 C 0.76181 0.81041 0.15934
 C772 C 0.75032 0.81369 0.17907
 C773 C 0.73968 0.83387 0.18266
 C774 C 0.74084 0.85063 0.16704
 H775 H 0.74264 0.90712 0.06123
 H776 H 0.74112 0.94006 0.03885
 H777 H 0.77975 0.97471 0.08766
 H778 H 0.78179 0.94160 0.10945
 H779 H 0.75900 0.92238 0.13236
 H780 H 0.75650 0.89165 0.15736
 H781 H 0.75620 0.84656 0.10247
 H782 H 0.76082 0.87746 0.07732
 H783 H 0.77317 0.82469 0.12929
 H784 H 0.77030 0.79503 0.15626
 H785 H 0.73047 0.83670 0.19761
 H786 H 0.73215 0.86585 0.17028
 C787 C 0.23125 0.42159 0.58624
 C788 C 0.21590 0.43860 0.58975
 C789 C 0.21610 0.45750 0.57668
 C790 C 0.23137 0.45964 0.55957
 C791 C 0.24592 0.44222 0.55523
 C792 C 0.24597 0.42344 0.56851
 C793 C 0.23280 0.40271 0.60179
 C794 C 0.23864 0.38153 0.59446
 C795 C 0.24133 0.36422 0.60940
 C796 C 0.23805 0.36762 0.63202
 C797 C 0.23172 0.38868 0.63925
 C798 C 0.22929 0.40600 0.62438
 C799 C 0.24140 0.34947 0.64812
 C800 C 0.25031 0.35388 0.66900
 C801 C 0.25264 0.33712 0.68452
 C802 C 0.24642 0.31544 0.67946
 C803 C 0.23809 0.31083 0.65842
 C804 C 0.23548 0.32768 0.64295
 H805 H 0.20394 0.43751 0.60286
 H806 H 0.20456 0.47065 0.58016
 H807 H 0.25799 0.44362 0.54222
 H808 H 0.25820 0.41085 0.56545
 H809 H 0.24121 0.37831 0.57717
 H810 H 0.24638 0.34828 0.60325
 H811 H 0.22863 0.39184 0.65646
 H812 H 0.22514 0.42211 0.63074
 H813 H 0.25559 0.37032 0.67338
 H814 H 0.25939 0.34115 0.70050
 H815 H 0.23305 0.29430 0.65408
 H816 H 0.22834 0.32371 0.62715
 C817 C 0.74784 0.08040 0.91707
 C818 C 0.73212 0.06411 0.91276
 C819 C 0.73077 0.04547 0.92602
 C820 C 0.74543 0.04242 0.94369
 C821 C 0.76079 0.05912 0.94841
 C822 C 0.76187 0.07805 0.93526
 C823 C 0.75000 0.09917 0.90179
 C824 C 0.74847 0.12098 0.90924
 C825 C 0.74862 0.13846 0.89420
 C826 C 0.75059 0.13439 0.87151
 C827 C 0.75311 0.11251 0.86435
 C828 C 0.75260 0.09513 0.87928
 C829 C 0.74950 0.15261 0.85515
 C830 C 0.73938 0.14913 0.83465
 C831 C 0.73927 0.16558 0.81868
 C832 C 0.74889 0.18613 0.82291
 C833 C 0.75830 0.19005 0.84364
 C834 C 0.75873 0.17340 0.85957
 H835 H 0.72092 0.06577 0.89899
 H836 H 0.71830 0.03330 0.92229
 H837 H 0.77242 0.05727 0.96177
 H838 H 0.77416 0.09046 0.93880
 H839 H 0.74639 0.12441 0.92657
 H840 H 0.74650 0.15507 0.90030
 H841 H 0.75539 0.10874 0.84713
 H842 H 0.75413 0.07842 0.87324
 H843 H 0.73148 0.13362 0.83086
 H844 H 0.73161 0.16218 0.80296
 H845 H 0.76594 0.20574 0.84728
 H846 H 0.76681 0.17663 0.87510
 C847 C 0.22937 0.58017 0.41427
 C848 C 0.24441 0.57856 0.43182
 C849 C 0.24455 0.56003 0.44546
 C850 C 0.22985 0.54265 0.44165
 C851 C 0.21419 0.54462 0.42480
 C852 C 0.21383 0.56325 0.41137
 C853 C 0.23083 0.59859 0.39820
 C854 C 0.22711 0.59469 0.37574
 C855 C 0.22947 0.61156 0.36038
 C856 C 0.23591 0.63277 0.36699
 C857 C 0.23941 0.63679 0.38948
 C858 C 0.23683 0.61991 0.40491
 C859 C 0.23911 0.65046 0.35039
 C860 C 0.23311 0.67235 0.35496
 C861 C 0.23565 0.68879 0.33908
 C862 C 0.24404 0.68366 0.31819
 C863 C 0.25029 0.66185 0.31370
 C864 C 0.24799 0.64549 0.32964
 H865 H 0.25678 0.59111 0.43442
 H866 H 0.25690 0.55875 0.45825
 H867 H 0.20254 0.53149 0.42174
 H868 H 0.20163 0.56419 0.39842
 H869 H 0.22284 0.57842 0.36987
 H870 H 0.22623 0.60795 0.34326
 H871 H 0.24456 0.65287 0.39515
 H872 H 0.23960 0.62358 0.42209
 H873 H 0.22597 0.67673 0.37065
 H874 H 0.23056 0.70542 0.34300
 H875 H 0.25706 0.65740 0.29786
 H876 H 0.25329 0.62894 0.32571
 C877 C 0.26947 0.91576 0.92191
 C878 C 0.25877 0.93627 0.92139
 C879 C 0.25853 0.94972 0.94007
 C880 C 0.26911 0.94291 0.95950
 C881 C 0.28104 0.92306 0.95940
 C882 C 0.28110 0.90959 0.94087
 C883 C 0.26718 0.90000 0.90351
 C884 C 0.26115 0.87815 0.90789
 C885 C 0.25891 0.86299 0.89084
 C886 C 0.26296 0.86920 0.86897
 C887 C 0.26878 0.89120 0.86456
 C888 C 0.27072 0.90650 0.88167
 C889 C 0.26129 0.85262 0.85104
 C890 C 0.25303 0.85835 0.83019
 C891 C 0.25111 0.84248 0.81362
 C892 C 0.25717 0.82050 0.81764
 C893 C 0.26553 0.81481 0.83840
 C894 C 0.26773 0.83068 0.85480
 H895 H 0.24965 0.94134 0.90695
 H896 H 0.24911 0.96486 0.93968
 H897 H 0.28982 0.91763 0.97392
 H898 H 0.28982 0.89403 0.94150
 H899 H 0.25787 0.87285 0.92455
 H900 H 0.25380 0.84641 0.89484
 H901 H 0.27224 0.89652 0.84795
 H902 H 0.27542 0.92328 0.87793
 H903 H 0.24765 0.87500 0.82678
 H904 H 0.24451 0.84733 0.79781
 H905 H 0.27063 0.79809 0.84192
 H906 H 0.27468 0.82574 0.87043
 C907 C 0.77264 0.41877 0.42065
 C908 C 0.75728 0.43603 0.42266
 C909 C 0.75671 0.44899 0.44163
 C910 C 0.77126 0.44476 0.45905
 C911 C 0.78728 0.42829 0.45668
 C912 C 0.78810 0.41556 0.43760
 C913 C 0.77142 0.40312 0.40186
 C914 C 0.77536 0.38056 0.40527
 C915 C 0.77291 0.36550 0.38816
 C916 C 0.76613 0.37250 0.36721
 C917 C 0.76256 0.39509 0.36362
 C918 C 0.76523 0.41024 0.38074
 C919 C 0.76248 0.35611 0.34942
 C920 C 0.76817 0.36083 0.32753
 C921 C 0.76536 0.34499 0.31107
 C922 C 0.75701 0.32404 0.31620
 C923 C 0.75093 0.31949 0.33798
 C924 C 0.75350 0.33536 0.35434
 H925 H 0.74497 0.43884 0.41009
 H926 H 0.74409 0.46151 0.44321
 H927 H 0.79882 0.42493 0.46985
 H928 H 0.80052 0.40284 0.43638
 H929 H 0.77979 0.37436 0.42135
 H930 H 0.77625 0.34830 0.39143
 H931 H 0.75720 0.40104 0.34772
 H932 H 0.76230 0.42752 0.37745
 H933 H 0.77531 0.37655 0.32320
 H934 H 0.77028 0.34894 0.29444
 H935 H 0.74415 0.30362 0.34242
 H936 H 0.74837 0.33136 0.37088
 C937 C 0.09226 0.25593 0.07368
 C938 C 0.07031 0.24873 0.07509
 C939 C 0.05666 0.24862 0.05653
 C940 C 0.06476 0.25506 0.03579
 C941 C 0.08658 0.26288 0.03465
 C942 C 0.09994 0.26361 0.05330
 C943 C 0.10736 0.25474 0.09305
 C944 C 0.12998 0.25074 0.09008
 C945 C 0.14424 0.24943 0.10802
 C946 C 0.13631 0.25144 0.12962
 C947 C 0.11367 0.25532 0.13267
 C948 C 0.09944 0.25715 0.11464
 C949 C 0.15169 0.24952 0.14870
 C950 C 0.14815 0.26156 0.16818
 C951 C 0.16310 0.26024 0.18566
 C952 C 0.18215 0.24730 0.18384
 C953 C 0.18562 0.23507 0.16463
 C954 C 0.17043 0.23591 0.14742
 H955 H 0.06379 0.24236 0.09034
 H956 H 0.04022 0.24203 0.05832
 H957 H 0.09331 0.26913 0.01943
 H958 H 0.11638 0.27021 0.05164
 H959 H 0.13679 0.24829 0.07385
 H960 H 0.16158 0.24696 0.10482
 H961 H 0.10680 0.25670 0.14900
 H962 H 0.08223 0.26055 0.11769
 H963 H 0.13416 0.27247 0.16977
 H964 H 0.16017 0.26992 0.20032
 H965 H 0.20004 0.22470 0.16299
 H966 H 0.17346 0.22580 0.13311
 C967 C 0.58792 0.75469 0.57458
 C968 C 0.56989 0.74015 0.57415
 C969 C 0.55631 0.73882 0.55562
 C970 C 0.56066 0.75174 0.53703
 C971 C 0.57825 0.76666 0.53758
 C972 C 0.59160 0.76828 0.55621
 C973 C 0.60339 0.75497 0.59361
 C974 C 0.62605 0.75827 0.59027
 C975 C 0.64076 0.75782 0.60789
 C976 C 0.63333 0.75368 0.62936
 C977 C 0.61066 0.75053 0.63277
 C978 C 0.59587 0.75128 0.61514
 C979 C 0.64926 0.75242 0.64796
 C980 C 0.64360 0.76015 0.66901
 C981 C 0.65876 0.75916 0.68631
 C982 C 0.68002 0.75073 0.68288
 C983 C 0.68565 0.74288 0.66193
 C984 C 0.67042 0.74355 0.64475
 H985 H 0.56669 0.72920 0.58779
 H986 H 0.54293 0.72705 0.55547
 H987 H 0.58174 0.77696 0.52349
 H988 H 0.60494 0.78007 0.55612
 H989 H 0.63257 0.76080 0.57393
 H990 H 0.65801 0.76076 0.60464
 H991 H 0.60433 0.74708 0.64901
 H992 H 0.57852 0.74897 0.61842
 H993 H 0.62759 0.76737 0.67205
 H994 H 0.65400 0.76545 0.70226
 H995 H 0.70181 0.73600 0.65885
 H996 H 0.67522 0.73691 0.62897
 C997 C 0.07774 0.75864 0.91183
 C998 C 0.07692 0.74312 0.92900
 C999 C 0.05825 0.74143 0.94231
 C1000 C 0.03991 0.75500 0.93855
 C1001 C 0.04094 0.77100 0.92198
 C1002 C 0.05971 0.77294 0.90889
 C1003 C 0.09667 0.75903 0.89628
 C1004 C 0.09317 0.76342 0.87386
 C1005 C 0.11059 0.76280 0.85897
 C1006 C 0.13201 0.75744 0.86596
 C1007 C 0.13563 0.75334 0.88842
 C1008 C 0.11820 0.75422 0.90341
 C1009 C 0.15028 0.75580 0.84973
 C1010 C 0.17177 0.76256 0.85513
 C1011 C 0.18869 0.76141 0.83959
 C1012 C 0.18444 0.75370 0.81823
 C1013 C 0.16306 0.74669 0.81293
 C1014 C 0.14626 0.74757 0.82850
 H1015 H 0.09029 0.73163 0.93161
 H1016 H 0.05773 0.72884 0.95490
 H1017 H 0.02707 0.78181 0.91897
 H1018 H 0.05994 0.78547 0.89626
 H1019 H 0.07682 0.76685 0.86763
 H1020 H 0.10721 0.76650 0.84190
 H1021 H 0.15185 0.74900 0.89440
 H1022 H 0.12160 0.75104 0.92057
 H1023 H 0.17543 0.76923 0.87122
 H1024 H 0.20497 0.76707 0.84412
 H1025 H 0.15930 0.74041 0.79670
 H1026 H 0.13010 0.74166 0.82389
 C1027 C 0.58004 0.26301 0.41240
 C1028 C 0.57954 0.24812 0.43013
 C1029 C 0.56108 0.24684 0.44376
 C1030 C 0.54264 0.26018 0.43976
 C1031 C 0.54336 0.27559 0.42262
 C1032 C 0.56192 0.27714 0.40922
 C1033 C 0.59872 0.26295 0.39657
 C1034 C 0.59485 0.26655 0.37407
 C1035 C 0.61208 0.26567 0.35896
 C1036 C 0.63365 0.26080 0.36583
 C1037 C 0.63761 0.25740 0.38836
 C1038 C 0.62037 0.25855 0.40354
 C1039 C 0.65176 0.25907 0.34946
 C1040 C 0.67317 0.26631 0.35451
 C1041 C 0.68997 0.26504 0.33887
 C1042 C 0.68567 0.25674 0.31775
 C1043 C 0.66437 0.24932 0.31275
 C1044 C 0.64768 0.25031 0.32845
 H1045 H 0.59301 0.23678 0.43295
 H1046 H 0.56078 0.23471 0.45680
 H1047 H 0.52938 0.28621 0.41941
 H1048 H 0.56192 0.28922 0.39615
 H1049 H 0.57839 0.26962 0.36796
 H1050 H 0.60843 0.26882 0.34184
 H1051 H 0.65395 0.25342 0.39425
 H1052 H 0.62405 0.25596 0.42076
 H1053 H 0.67687 0.27342 0.37039
 H1054 H 0.70620 0.27105 0.34314
 H1055 H 0.66060 0.24262 0.29670
 H1056 H 0.63157 0.24405 0.32412
 C1057 C 0.92456 0.74457 0.08688
 C1058 C 0.92453 0.75492 0.06630
 C1059 C 0.94301 0.75358 0.05257
 C1060 C 0.96199 0.74165 0.05906
 C1061 C 0.96115 0.73048 0.07946
 C1062 C 0.94290 0.73214 0.09316
 C1063 C 0.90582 0.74679 0.10221
 C1064 C 0.90971 0.75259 0.12418
 C1065 C 0.89248 0.75314 0.13928
 C1066 C 0.87095 0.74756 0.13286
 C1067 C 0.86699 0.74228 0.11067
 C1068 C 0.88425 0.74205 0.09545
 C1069 C 0.85293 0.74684 0.14942
 C1070 C 0.83137 0.75327 0.14390
 C1071 C 0.81461 0.75274 0.15961
 C1072 C 0.81907 0.74599 0.18126
 C1073 C 0.84055 0.73948 0.18678
 C1074 C 0.85723 0.73973 0.17102
 H1075 H 0.91049 0.76466 0.06115
 H1076 H 0.94253 0.76291 0.03747
 H1077 H 0.97430 0.71978 0.08490
 H1078 H 0.94302 0.72345 0.10870
 H1079 H 0.92619 0.75661 0.12969
 H1080 H 0.89609 0.75790 0.15604
 H1081 H 0.85068 0.73769 0.10516
 H1082 H 0.88091 0.73739 0.07860
 H1083 H 0.82751 0.75913 0.12755
 H1084 H 0.79825 0.75806 0.15490
 H1085 H 0.84446 0.73399 0.20326
 H1086 H 0.87348 0.73414 0.17576
 C1087 C 0.42446 0.25861 0.58624
 C1088 C 0.44229 0.27284 0.59024
 C1089 C 0.46103 0.27212 0.57701
 C1090 C 0.46218 0.25748 0.55924
 C1091 C 0.44403 0.24407 0.55446
 C1092 C 0.42540 0.24450 0.56792
 C1093 C 0.40559 0.25763 0.60181
 C1094 C 0.38411 0.25324 0.59436
 C1095 C 0.36670 0.25126 0.60924
 C1096 C 0.37030 0.25384 0.63193
 C1097 C 0.39170 0.25866 0.63929
 C1098 C 0.40911 0.26034 0.62448
 C1099 C 0.35196 0.25142 0.64794
 C1100 C 0.35580 0.24207 0.66875
 C1101 C 0.33892 0.24066 0.68420
 C1102 C 0.31766 0.24821 0.67911
 C1103 C 0.31358 0.25700 0.65814
 C1104 C 0.33058 0.25872 0.64277
 H1105 H 0.44194 0.28435 0.60381
 H1106 H 0.47479 0.28278 0.58083
 H1107 H 0.44468 0.23251 0.54093
 H1108 H 0.41216 0.23310 0.56446
 H1109 H 0.38070 0.25132 0.57701
 H1110 H 0.35050 0.24734 0.60296
 H1111 H 0.39507 0.26118 0.65657
 H1112 H 0.42544 0.26336 0.63093
 H1113 H 0.37189 0.23576 0.67314
 H1114 H 0.34250 0.23359 0.70014
 H1115 H 0.29739 0.26312 0.65382
 H1116 H 0.32705 0.26628 0.62705
 C1117 C 0.91466 0.26910 0.92443
 C1118 C 0.90835 0.27897 0.94423
 C1119 C 0.92230 0.27855 0.96242
 C1120 C 0.94300 0.26791 0.96155
 C1121 C 0.94987 0.25947 0.94101
 C1122 C 0.93583 0.26002 0.92273
 C1123 C 0.89854 0.26712 0.90623
 C1124 C 0.90444 0.27183 0.88444
 C1125 C 0.88888 0.27006 0.86753
 C1126 C 0.86720 0.26330 0.87206
 C1127 C 0.86154 0.25821 0.89385
 C1128 C 0.87697 0.26021 0.91071
 C1129 C 0.85043 0.26155 0.85428
 C1130 C 0.82835 0.26721 0.85836
 C1131 C 0.81239 0.26497 0.84199
 C1132 C 0.81812 0.25727 0.82101
 C1133 C 0.84023 0.25190 0.81677
 C1134 C 0.85619 0.25393 0.83325
 H1135 H 0.89238 0.28678 0.94574
 H1136 H 0.91666 0.28675 0.97714
 H1137 H 0.96536 0.25088 0.93921
 H1138 H 0.94108 0.25229 0.90759
 H1139 H 0.92095 0.27728 0.88058
 H1140 H 0.89374 0.27435 0.85098
 H1141 H 0.84520 0.25241 0.89790
 H1142 H 0.87212 0.25601 0.92730
 H1143 H 0.82338 0.27358 0.87420
 H1144 H 0.79556 0.26949 0.84573
 H1145 H 0.84517 0.24582 0.80080
 H1146 H 0.87295 0.24913 0.82961
 C1147 C 0.40967 0.75806 0.42412
 C1148 C 0.40745 0.77181 0.44259
 C1149 C 0.42166 0.76966 0.46052
 C1150 C 0.43866 0.75403 0.46022
 C1151 C 0.44170 0.74105 0.44142
 C1152 C 0.42726 0.74293 0.42359
 C1153 C 0.39310 0.75874 0.40606
 C1154 C 0.39923 0.75483 0.38415
 C1155 C 0.38340 0.75447 0.36744
 C1156 C 0.36105 0.75825 0.37217
 C1157 C 0.35500 0.76255 0.39403
 C1158 C 0.37076 0.76263 0.41075
 C1159 C 0.34409 0.75744 0.35449
 C1160 C 0.32296 0.74898 0.35872
 C1161 C 0.30705 0.74815 0.34213
 C1162 C 0.31199 0.75546 0.32082
 C1163 C 0.33308 0.76387 0.31653
 C1164 C 0.34889 0.76499 0.33319
 H1165 H 0.39451 0.78405 0.44337
 H1166 H 0.41917 0.77998 0.47481
 H1167 H 0.45461 0.72874 0.44096
 H1168 H 0.42936 0.73187 0.40982
 H1169 H 0.41629 0.75204 0.37985
 H1170 H 0.38868 0.75082 0.35086
 H1171 H 0.33803 0.76591 0.39828
 H1172 H 0.36529 0.76533 0.42744
 H1173 H 0.31878 0.74260 0.37478
 H1174 H 0.29102 0.74137 0.34589
 H1175 H 0.33732 0.76980 0.30030
 H1176 H 0.36480 0.77200 0.32939
 C1177 C 0.08673 0.07257 0.24496
 C1178 C 0.09006 0.05668 0.22857
 C1179 C 0.07627 0.03843 0.22686
 C1180 C 0.05838 0.03548 0.24135
 C1181 C 0.05454 0.05203 0.25722
 C1182 C 0.06862 0.07018 0.25908
 C1183 C 0.10248 0.09116 0.24751
 C1184 C 0.09523 0.11232 0.25352
 C1185 C 0.11021 0.12969 0.25567
 C1186 C 0.13279 0.12632 0.25177
 C1187 C 0.13998 0.10515 0.24580
 C1188 C 0.12508 0.08781 0.24386
 C1189 C 0.14887 0.14472 0.25361
 C1190 C 0.17026 0.14082 0.26159
 C1191 C 0.18588 0.15766 0.26200
 C1192 C 0.18042 0.17893 0.25475
 C1193 C 0.15886 0.18309 0.24742
 C1194 C 0.14329 0.16615 0.24675
 H1195 H 0.10335 0.05837 0.21687
 H1196 H 0.07939 0.02699 0.21360
 H1197 H 0.04151 0.05050 0.26919
 H1198 H 0.06571 0.08197 0.27210
 H1199 H 0.07793 0.11555 0.25628
 H1200 H 0.10412 0.14571 0.26053
 H1201 H 0.15716 0.10197 0.24232
 H1202 H 0.13136 0.07168 0.23960
 H1203 H 0.17501 0.12470 0.26752
 H1204 H 0.20227 0.15399 0.26802
 H1205 H 0.15420 0.19930 0.24162
 H1206 H 0.12707 0.16970 0.24025
 C1207 C 0.58468 0.57525 0.74309
 C1208 C 0.56995 0.57024 0.76017
 C1209 C 0.55647 0.55163 0.75888
 C1210 C 0.55757 0.53764 0.74055
 C1211 C 0.57177 0.54302 0.72321
 C1212 C 0.58510 0.56165 0.72441
 C1213 C 0.60027 0.59397 0.74504
 C1214 C 0.62202 0.59172 0.73756
 C1215 C 0.63690 0.60907 0.73950
 C1216 C 0.63049 0.62908 0.74914
 C1217 C 0.60872 0.63141 0.75661
 C1218 C 0.59377 0.61402 0.75460
 C1219 C 0.64657 0.64735 0.75128
 C1220 C 0.64024 0.66928 0.74737
 C1221 C 0.65573 0.68626 0.74840
 C1222 C 0.67790 0.68165 0.75327
 C1223 C 0.68410 0.65978 0.75761
 C1224 C 0.66862 0.64286 0.75671
 H1225 H 0.56939 0.58025 0.77487
 H1226 H 0.54577 0.54772 0.77254
 H1227 H 0.57266 0.53267 0.70875
 H1228 H 0.59587 0.56533 0.71075
 H1229 H 0.62768 0.57640 0.73043
 H1230 H 0.65343 0.60684 0.73327
 H1231 H 0.60333 0.64656 0.76427
 H1232 H 0.57708 0.61633 0.76037
 H1233 H 0.62343 0.67325 0.74294
 H1234 H 0.65043 0.70293 0.74489
 H1235 H 0.70098 0.65566 0.76166
 H1236 H 0.67394 0.62622 0.76028
 C1237 C 0.92282 0.08646 0.77272
 C1238 C 0.94167 0.09150 0.78511
 C1239 C 0.95996 0.07759 0.78493
 C1240 C 0.95989 0.05787 0.77267
 C1241 C 0.94024 0.05197 0.76177
 C1242 C 0.92211 0.06621 0.76154
 C1243 C 0.90460 0.10281 0.77051
 C1244 C 0.88260 0.09605 0.76799
 C1245 C 0.86580 0.11154 0.76494
 C1246 C 0.87050 0.13423 0.76464
 C1247 C 0.89244 0.14096 0.76750
 C1248 C 0.90924 0.12550 0.77017
 C1249 C 0.85268 0.15085 0.76145
 C1250 C 0.85681 0.17065 0.75014
 C1251 C 0.84040 0.18665 0.74796
 C1252 C 0.81933 0.18307 0.75663
 C1253 C 0.81497 0.16313 0.76747
 C1254 C 0.83149 0.14729 0.77001
 H1255 H 0.94249 0.10644 0.79477
 H1256 H 0.97411 0.08233 0.79466
 H1257 H 0.93931 0.03722 0.75184
 H1258 H 0.90799 0.06177 0.75165
 H1259 H 0.87830 0.07877 0.76840
 H1260 H 0.84916 0.10567 0.76253
 H1261 H 0.89672 0.15825 0.76780
 H1262 H 0.92597 0.13143 0.77160
 H1263 H 0.87273 0.17380 0.74284
 H1264 H 0.84417 0.20179 0.73936
 H1265 H 0.79893 0.16002 0.77455
 H1266 H 0.82774 0.13250 0.77917
 C1267 C 0.42291 0.58976 0.24658
 C1268 C 0.44127 0.59267 0.23282
 C1269 C 0.45945 0.57867 0.23440
 C1270 C 0.45950 0.56119 0.24944
 C1271 C 0.44084 0.55751 0.26244
 C1272 C 0.42278 0.57175 0.26116
 C1273 C 0.40454 0.60602 0.24646
 C1274 C 0.38272 0.59939 0.25034
 C1275 C 0.36570 0.61489 0.25114
 C1276 C 0.37001 0.63740 0.24781
 C1277 C 0.39178 0.64396 0.24359
 C1278 C 0.40881 0.62852 0.24310
 C1279 C 0.35198 0.65400 0.24884
 C1280 C 0.35587 0.67515 0.25745
 C1281 C 0.33907 0.69087 0.25806
 C1282 C 0.31788 0.68571 0.25042
 C1283 C 0.31386 0.66452 0.24209
 C1284 C 0.33074 0.64891 0.24115
 H1285 H 0.44175 0.60596 0.22098
 H1286 H 0.47364 0.58165 0.22407
 H1287 H 0.44067 0.54422 0.27431
 H1288 H 0.40911 0.56912 0.27222
 H1289 H 0.37873 0.58220 0.25274
 H1290 H 0.34921 0.60922 0.25470
 H1291 H 0.39571 0.66106 0.24057
 H1292 H 0.42542 0.63436 0.24046
 H1293 H 0.37186 0.67954 0.26397
 H1294 H 0.34261 0.70699 0.26480
 H1295 H 0.29772 0.66013 0.23591
 H1296 H 0.32720 0.63296 0.23405
 C1297 C 0.07387 0.90995 0.75877
 C1298 C 0.07466 0.93194 0.75160
 C1299 C 0.05585 0.94527 0.75216
 C1300 C 0.03546 0.93680 0.75932
 C1301 C 0.03497 0.91495 0.76713
 C1302 C 0.05389 0.90189 0.76712
 C1303 C 0.09345 0.89518 0.75687
 C1304 C 0.09068 0.87259 0.75264
 C1305 C 0.10881 0.85861 0.75078
 C1306 C 0.13038 0.86683 0.75249
 C1307 C 0.13323 0.88946 0.75654
 C1308 C 0.11501 0.90342 0.75887
 C1309 C 0.14963 0.85168 0.75028
 C1310 C 0.16911 0.85515 0.76239
 C1311 C 0.18656 0.84012 0.76119
 C1312 C 0.18472 0.82111 0.74824
 C1313 C 0.16558 0.81784 0.73577
 C1314 C 0.14839 0.83309 0.73651
 H1315 H 0.08960 0.93873 0.74474
 H1316 H 0.05713 0.96175 0.74553
 H1317 H 0.02010 0.90793 0.77392
 H1318 H 0.05275 0.88538 0.77370
 H1319 H 0.07445 0.86559 0.75050
 H1320 H 0.10579 0.84125 0.74818
 H1321 H 0.14953 0.89651 0.75772
 H1322 H 0.11789 0.92063 0.76240
 H1323 H 0.17065 0.86905 0.77340
 H1324 H 0.20112 0.84288 0.77112
 H1325 H 0.16390 0.80341 0.72545
 H1326 H 0.13406 0.83014 0.72636
 C1327 C 0.57618 0.41316 0.24887
 C1328 C 0.57323 0.43076 0.23411
 C1329 C 0.55427 0.44388 0.23511
 C1330 C 0.53791 0.43947 0.25076
 C1331 C 0.54115 0.42232 0.26585
 C1332 C 0.56010 0.40941 0.26501
 C1333 C 0.59546 0.39817 0.24714
 C1334 C 0.59282 0.37549 0.25082
 C1335 C 0.61076 0.36123 0.24967
 C1336 C 0.63184 0.36917 0.24450
 C1337 C 0.63454 0.39184 0.24064
 C1338 C 0.61652 0.40620 0.24194
 C1339 C 0.65078 0.35368 0.24344
 C1340 C 0.67160 0.35962 0.25166
 C1341 C 0.68883 0.34429 0.25211
 C1342 C 0.68549 0.32270 0.24454
 C1343 C 0.66490 0.31701 0.23572
 C1344 C 0.64782 0.33234 0.23502
 H1345 H 0.58522 0.43398 0.22138
 H1346 H 0.55208 0.45702 0.22328
 H1347 H 0.52895 0.41889 0.27833
 H1348 H 0.56211 0.39640 0.27701
 H1349 H 0.57679 0.36866 0.25448
 H1350 H 0.60811 0.34396 0.25312
 H1351 H 0.65052 0.39846 0.23644
 H1352 H 0.61914 0.42361 0.23917
 H1353 H 0.67437 0.37586 0.25843
 H1354 H 0.70453 0.34912 0.25904
 H1355 H 0.66191 0.30060 0.22942
 H1356 H 0.63220 0.32738 0.22803
 C1357 C 0.91208 0.92115 0.26651
 C1358 C 0.90722 0.93984 0.27921
 C1359 C 0.92058 0.95851 0.27831
 C1360 C 0.93953 0.95902 0.26495
 C1361 C 0.94527 0.93957 0.25359
 C1362 C 0.93160 0.92106 0.25414
 C1363 C 0.89618 0.90249 0.26514
 C1364 C 0.90345 0.88068 0.26219
 C1365 C 0.88832 0.86350 0.25966
 C1366 C 0.86553 0.86763 0.26024
 C1367 C 0.85832 0.88936 0.26369
 C1368 C 0.87339 0.90654 0.26590
 C1369 C 0.84927 0.84953 0.25711
 C1370 C 0.82922 0.85350 0.24616
 C1371 C 0.81356 0.83684 0.24388
 C1372 C 0.81768 0.81565 0.25215
 C1373 C 0.83789 0.81143 0.26260
 C1374 C 0.85344 0.82821 0.26520
 H1375 H 0.89286 0.94023 0.28969
 H1376 H 0.91602 0.97247 0.28838
 H1377 H 0.95937 0.93904 0.24276
 H1378 H 0.93583 0.90709 0.24395
 H1379 H 0.92084 0.87684 0.26180
 H1380 H 0.89453 0.84703 0.25684
 H1381 H 0.84094 0.89319 0.26470
 H1382 H 0.86706 0.92310 0.26773
 H1383 H 0.82562 0.86950 0.23918
 H1384 H 0.79826 0.84053 0.23549
 H1385 H 0.84147 0.79528 0.26927
 H1386 H 0.86852 0.82457 0.27398
 C1387 C 0.41332 0.41820 0.76497
 C1388 C 0.41142 0.43509 0.78068
 C1389 C 0.42476 0.45377 0.77950
 C1390 C 0.44049 0.45583 0.76278
 C1391 C 0.44329 0.43847 0.74783
 C1392 C 0.42978 0.41990 0.74883
 C1393 C 0.39725 0.39973 0.76443
 C1394 C 0.40371 0.37848 0.75787
 C1395 C 0.38818 0.36164 0.75577
 C1396 C 0.36583 0.36559 0.76033
 C1397 C 0.35950 0.38667 0.76746
 C1398 C 0.37497 0.40354 0.76936
 C1399 C 0.34909 0.34799 0.75729
 C1400 C 0.32802 0.35314 0.74914
 C1401 C 0.31212 0.33676 0.74657
 C1402 C 0.31696 0.31476 0.75185
 C1403 C 0.33811 0.30951 0.75967
 C1404 C 0.35396 0.32595 0.76246
 H1405 H 0.39930 0.43410 0.79365
 H1406 H 0.42246 0.46686 0.79136
 H1407 H 0.45514 0.43979 0.73462
 H1408 H 0.43155 0.40740 0.73629
 H1409 H 0.42076 0.37488 0.75420
 H1410 H 0.39362 0.34565 0.75008
 H1411 H 0.34252 0.39021 0.77151
 H1412 H 0.36930 0.41974 0.77414
 H1413 H 0.32384 0.36984 0.74452
 H1414 H 0.29606 0.34133 0.74029
 H1415 H 0.34231 0.29273 0.76403
 H1416 H 0.36990 0.32143 0.76904
 C1417 C 0.08556 0.23591 0.91782
 C1418 C 0.08792 0.22105 0.93542
 C1419 C 0.07536 0.22347 0.95445
 C1420 C 0.05986 0.24051 0.95614
 C1421 C 0.05645 0.25454 0.93815
 C1422 C 0.06928 0.25237 0.91921
 C1423 C 0.10112 0.23530 0.89893
 C1424 C 0.09429 0.24116 0.87762
 C1425 C 0.10947 0.24224 0.86038
 C1426 C 0.13182 0.23734 0.86404
 C1427 C 0.13845 0.23076 0.88517
 C1428 C 0.12337 0.22992 0.90239
 C1429 C 0.14836 0.23968 0.84619
 C1430 C 0.16956 0.24762 0.85099
 C1431 C 0.18543 0.24932 0.83457
 C1432 C 0.18047 0.24342 0.81282
 C1433 C 0.15915 0.23592 0.80782
 C1434 C 0.14329 0.23399 0.82436
 H1435 H 0.09985 0.20781 0.93471
 H1436 H 0.07807 0.21233 0.96809
 H1437 H 0.04467 0.26790 0.93920
 H1438 H 0.06714 0.26427 0.90615
 H1439 H 0.07723 0.24511 0.87426
 H1440 H 0.10380 0.24748 0.84434
 H1441 H 0.15542 0.22642 0.88851
 H1442 H 0.12939 0.22566 0.91859
 H1443 H 0.17390 0.25270 0.86748
 H1444 H 0.20162 0.25537 0.83893
 H1445 H 0.15488 0.23109 0.79123
 H1446 H 0.12721 0.22760 0.82012
 C1447 C 0.58557 0.73541 0.41880
 C1448 C 0.58909 0.72106 0.43663
 C1449 C 0.57595 0.72236 0.45538
 C1450 C 0.55873 0.73770 0.45658
 C1451 C 0.55430 0.75117 0.43837
 C1452 C 0.56768 0.75015 0.41970
 C1453 C 0.60136 0.73598 0.40009
 C1454 C 0.59426 0.74060 0.37856
 C1455 C 0.60946 0.74238 0.36138
 C1456 C 0.63210 0.73945 0.36531
 C1457 C 0.63908 0.73429 0.38672
 C1458 C 0.62397 0.73275 0.40388
 C1459 C 0.64853 0.74209 0.34737
 C1460 C 0.66917 0.75157 0.35181
 C1461 C 0.68507 0.75324 0.33540
 C1462 C 0.68066 0.74580 0.31400
 C1463 C 0.65984 0.73688 0.30931
 C1464 C 0.64397 0.73495 0.32585
 H1465 H 0.60229 0.70909 0.43630
 H1466 H 0.57949 0.71163 0.46917
 H1467 H 0.54118 0.76324 0.43903
 H1468 H 0.56458 0.76161 0.40644
 H1469 H 0.57696 0.74293 0.37497
 H1470 H 0.60349 0.74651 0.34513
 H1471 H 0.65631 0.73148 0.39031
 H1472 H 0.63017 0.72953 0.42025
 H1473 H 0.67308 0.75778 0.36801
 H1474 H 0.70087 0.76042 0.33948
 H1475 H 0.65603 0.73084 0.29301
 H1476 H 0.62835 0.72736 0.32189
 C1477 C 0.92085 0.74197 0.91220
 C1478 C 0.92047 0.74938 0.93408
 C1479 C 0.93955 0.74889 0.94701
 C1480 C 0.95976 0.74160 0.93818
 C1481 C 0.95973 0.73323 0.91657
 C1482 C 0.94056 0.73316 0.90395
 C1483 C 0.90122 0.74432 0.89761
 C1484 C 0.90400 0.74864 0.87509
 C1485 C 0.88588 0.75092 0.86121
 C1486 C 0.86432 0.74956 0.86945
 C1487 C 0.86145 0.74545 0.89202
 C1488 C 0.87967 0.74272 0.90590
 C1489 C 0.84513 0.75207 0.85433
 C1490 C 0.82563 0.73999 0.85758
 C1491 C 0.80837 0.74120 0.84234
 C1492 C 0.81049 0.75412 0.82337
 C1493 C 0.82959 0.76669 0.82040
 C1494 C 0.84655 0.76594 0.83584
 H1495 H 0.90569 0.75648 0.94102
 H1496 H 0.93868 0.75580 0.96337
 H1497 H 0.97445 0.72625 0.90939
 H1498 H 0.94133 0.72631 0.88756
 H1499 H 0.92024 0.75052 0.86808
 H1500 H 0.88890 0.75354 0.84389
 H1501 H 0.84514 0.74452 0.89906
 H1502 H 0.87681 0.73920 0.92308
 H1503 H 0.82395 0.72896 0.87143
 H1504 H 0.79380 0.73128 0.84488
 H1505 H 0.83142 0.77704 0.80603
 H1506 H 0.86091 0.77609 0.83310
 C1507 C 0.42388 0.24369 0.41350
 C1508 C 0.42475 0.25800 0.43167
 C1509 C 0.44360 0.25903 0.44485
 C1510 C 0.46205 0.24602 0.43995
 C1511 C 0.46101 0.23124 0.42229
 C1512 C 0.44207 0.22992 0.40934
 C1513 C 0.40469 0.24401 0.39822
 C1514 C 0.40789 0.24119 0.37553
 C1515 C 0.39019 0.24226 0.36096
 C1516 C 0.36878 0.24658 0.36857
 C1517 C 0.36548 0.24921 0.39128
 C1518 C 0.38321 0.24785 0.40594
 C1519 C 0.35016 0.24845 0.35273
 C1520 C 0.32906 0.24051 0.35799
 C1521 C 0.31197 0.24142 0.34256
 C1522 C 0.31572 0.25001 0.32148
 C1523 C 0.33662 0.25841 0.31641
 C1524 C 0.35355 0.25782 0.33189
 H1525 H 0.41124 0.26905 0.43524
 H1526 H 0.44413 0.27067 0.45831
 H1527 H 0.47499 0.22087 0.41839
 H1528 H 0.44180 0.21829 0.39588
 H1529 H 0.42419 0.23858 0.36887
 H1530 H 0.39334 0.23968 0.34366
 H1531 H 0.34925 0.25270 0.39773
 H1532 H 0.38006 0.24982 0.42332
 H1533 H 0.32589 0.23300 0.37380
 H1534 H 0.29602 0.23476 0.34687
 H1535 H 0.33990 0.26546 0.30040
 H1536 H 0.36936 0.26470 0.32745
 C1537 C 0.08021 0.73147 0.08207
 C1538 C 0.06381 0.71528 0.08429
 C1539 C 0.04507 0.71573 0.07100
 C1540 C 0.04252 0.73211 0.05496
 C1541 C 0.05948 0.74740 0.05168
 C1542 C 0.07810 0.74717 0.06519
 C1543 C 0.09841 0.73303 0.09837
 C1544 C 0.11953 0.74010 0.09215
 C1545 C 0.13607 0.74296 0.10791
 C1546 C 0.13190 0.73869 0.13022
 C1547 C 0.11094 0.73114 0.13633
 C1548 C 0.09439 0.72849 0.12066
 C1549 C 0.14917 0.74221 0.14719
 C1550 C 0.14351 0.75038 0.16805
 C1551 C 0.15946 0.75274 0.18440
 C1552 C 0.18152 0.74726 0.18021
 C1553 C 0.18735 0.73971 0.15918
 C1554 C 0.17133 0.73710 0.14288
 H1555 H 0.06516 0.70259 0.09671
 H1556 H 0.03223 0.70366 0.07365
 H1557 H 0.05772 0.76030 0.03951
 H1558 H 0.09025 0.76002 0.06315
 H1559 H 0.12327 0.74352 0.07512
 H1560 H 0.15199 0.74894 0.10265
 H1561 H 0.10725 0.72728 0.15328
 H1562 H 0.07825 0.72339 0.12616
 H1563 H 0.12672 0.75500 0.17178
 H1564 H 0.15450 0.75887 0.20035
 H1565 H 0.20421 0.73526 0.15549
 H1566 H 0.17622 0.73056 0.12709
 C1567 C 0.57981 0.24131 0.58738
 C1568 C 0.56199 0.22676 0.58997
 C1569 C 0.54360 0.22819 0.57627
 C1570 C 0.54278 0.24390 0.55941
 C1571 C 0.56099 0.25762 0.55592
 C1572 C 0.57928 0.25645 0.56986
 C1573 C 0.59813 0.24158 0.60366
 C1574 C 0.61983 0.24641 0.59726
 C1575 C 0.63670 0.24771 0.61288
 C1576 C 0.63232 0.24404 0.63527
 C1577 C 0.61071 0.23880 0.64157
 C1578 C 0.59384 0.23775 0.62603
 C1579 C 0.65006 0.24582 0.65207
 C1580 C 0.64548 0.25442 0.67303
 C1581 C 0.66187 0.25549 0.68909
 C1582 C 0.68335 0.24828 0.68452
 C1583 C 0.68812 0.24011 0.66346
 C1584 C 0.67163 0.23877 0.64745
 H1585 H 0.56206 0.21449 0.60287
 H1586 H 0.52979 0.21729 0.57908
 H1587 H 0.56059 0.26998 0.54310
 H1588 H 0.59254 0.26809 0.56749
 H1589 H 0.62380 0.24921 0.58016
 H1590 H 0.65310 0.25198 0.60743
 H1591 H 0.60677 0.23547 0.65858
 H1592 H 0.57731 0.23437 0.63169
 H1593 H 0.62922 0.26051 0.67702
 H1594 H 0.65774 0.26213 0.70507
 H1595 H 0.70450 0.23433 0.65947
 H1596 H 0.67570 0.23179 0.63161
 C1597 C 0.91824 0.25551 0.07950
 C1598 C 0.91854 0.27449 0.06631
 C1599 C 0.93175 0.27544 0.04767
 C1600 C 0.94515 0.25754 0.04188
 C1601 C 0.94589 0.23901 0.05564
 C1602 C 0.93247 0.23797 0.07430
 C1603 C 0.90214 0.25371 0.09773
 C1604 C 0.90786 0.24391 0.11787
 C1605 C 0.89241 0.24244 0.13485
 C1606 C 0.87093 0.25065 0.13197
 C1607 C 0.86529 0.26037 0.11179
 C1608 C 0.88064 0.26180 0.09489
 C1609 C 0.85438 0.24942 0.14984
 C1610 C 0.83226 0.24481 0.14490
 C1611 C 0.81628 0.24523 0.16132
 C1612 C 0.82204 0.25012 0.18314
 C1613 C 0.84428 0.25404 0.18825
 C1614 C 0.86028 0.25374 0.17175
 H1615 H 0.90822 0.28850 0.07019
 H1616 H 0.93119 0.29003 0.03745
 H1617 H 0.95608 0.22500 0.05141
 H1618 H 0.93253 0.22309 0.08410
 H1619 H 0.92432 0.23762 0.12057
 H1620 H 0.89719 0.23470 0.15016
 H1621 H 0.84901 0.26715 0.10912
 H1622 H 0.87557 0.26910 0.07946
 H1623 H 0.82725 0.24095 0.12827
 H1624 H 0.79937 0.24180 0.15685
 H1625 H 0.84928 0.25783 0.20491
 H1626 H 0.87716 0.25754 0.17604
 C1627 C 0.41462 0.73553 0.57789
 C1628 C 0.43268 0.75001 0.57700
 C1629 C 0.44599 0.75095 0.55830
 C1630 C 0.44131 0.73767 0.54004
 C1631 C 0.42393 0.72256 0.54119
 C1632 C 0.41086 0.72134 0.55999
 C1633 C 0.39889 0.73630 0.59662
 C1634 C 0.37622 0.73341 0.59289
 C1635 C 0.36118 0.73525 0.61008
 C1636 C 0.36829 0.74041 0.63144
 C1637 C 0.39098 0.74299 0.63530
 C1638 C 0.40610 0.74088 0.61811
 C1639 C 0.35197 0.74342 0.64942
 C1640 C 0.35663 0.73647 0.67099
 C1641 C 0.34097 0.73892 0.68764
 C1642 C 0.32023 0.74813 0.68302
 C1643 C 0.31567 0.75529 0.66156
 C1644 C 0.33139 0.75313 0.64502
 H1645 H 0.43595 0.76137 0.59030
 H1646 H 0.45923 0.76285 0.55765
 H1647 H 0.42020 0.71202 0.52734
 H1648 H 0.39752 0.70955 0.56030
 H1649 H 0.36994 0.73024 0.57655
 H1650 H 0.34390 0.73270 0.60654
 H1651 H 0.39704 0.74712 0.65151
 H1652 H 0.42344 0.74293 0.62166
 H1653 H 0.37218 0.72869 0.67492
 H1654 H 0.34488 0.73308 0.70400
 H1655 H 0.29994 0.76268 0.65754
 H1656 H 0.32742 0.75919 0.62877
 C1657 C 0.25834 0.08920 0.92358
 C1658 C 0.24594 0.06983 0.92581
 C1659 C 0.24802 0.05663 0.94457
 C1660 C 0.26236 0.06266 0.96186
 C1661 C 0.27520 0.08181 0.95909
 C1662 C 0.27331 0.09473 0.94026
 C1663 C 0.25538 0.10406 0.90435
 C1664 C 0.25648 0.12700 0.90715
 C1665 C 0.25425 0.14114 0.88925
 C1666 C 0.25048 0.13282 0.86804
 C1667 C 0.24911 0.10987 0.86520
 C1668 C 0.25156 0.09564 0.88315
 C1669 C 0.24837 0.14818 0.84909
 C1670 C 0.25736 0.14292 0.82845
 C1671 C 0.25671 0.15819 0.81122
 C1672 C 0.24734 0.17910 0.81439
 C1673 C 0.23778 0.18409 0.83477
 C1674 C 0.23812 0.16877 0.85183
 H1675 H 0.23405 0.06521 0.91338
 H1676 H 0.23735 0.04247 0.94590
 H1677 H 0.28736 0.08665 0.97117
 H1678 H 0.28375 0.10908 0.93875
 H1679 H 0.25899 0.13412 0.92326
 H1680 H 0.25580 0.15867 0.89206
 H1681 H 0.24600 0.10289 0.84913
 H1682 H 0.25079 0.07806 0.88038
 H1683 H 0.26555 0.12731 0.82580
 H1684 H 0.26422 0.15392 0.79566
 H1685 H 0.23005 0.19993 0.83757
 H1686 H 0.23046 0.17317 0.86726
 C1687 C 0.75430 0.59115 0.42744
 C1688 C 0.77175 0.59365 0.44242
 C1689 C 0.77333 0.58017 0.46089
 C1690 C 0.75763 0.56370 0.46478
 C1691 C 0.74055 0.56063 0.44951
 C1692 C 0.73884 0.57429 0.43104
 C1693 C 0.75209 0.60650 0.40852
 C1694 C 0.74508 0.59902 0.38780
 C1695 C 0.74347 0.61361 0.37004
 C1696 C 0.74884 0.63598 0.37263
 C1697 C 0.75572 0.64341 0.39339
 C1698 C 0.75721 0.62892 0.41110
 C1699 C 0.74761 0.65159 0.35383
 C1700 C 0.74061 0.67341 0.35714
 C1701 C 0.74076 0.68855 0.33990
 C1702 C 0.74772 0.68223 0.31882
 C1703 C 0.75409 0.66026 0.31528
 C1704 C 0.75412 0.64512 0.33262
 H1705 H 0.78426 0.60606 0.43987
 H1706 H 0.78691 0.58259 0.47219
 H1707 H 0.72819 0.54809 0.45221
 H1708 H 0.72510 0.57204 0.41993
 H1709 H 0.74117 0.58183 0.38521
 H1710 H 0.73790 0.60738 0.35433
 H1711 H 0.76031 0.66044 0.39594
 H1712 H 0.76230 0.63534 0.42690
 H1713 H 0.73499 0.67883 0.37312
 H1714 H 0.73541 0.70526 0.34312
 H1715 H 0.75954 0.65487 0.29923
 H1716 H 0.75983 0.62852 0.32954
 C1717 C 0.74488 0.07794 0.09134
 C1718 C 0.75287 0.07907 0.06968
 C1719 C 0.75284 0.06042 0.05615
 C1720 C 0.74553 0.03991 0.06418
 C1721 C 0.73658 0.03919 0.08552
 C1722 C 0.73598 0.05793 0.09871
 C1723 C 0.74658 0.09711 0.10659
 C1724 C 0.74992 0.09365 0.12920
 C1725 C 0.75146 0.11134 0.14370
 C1726 C 0.75036 0.13314 0.13602
 C1727 C 0.74731 0.13668 0.11335
 C1728 C 0.74526 0.11890 0.09886
 C1729 C 0.75214 0.15192 0.15172
 C1730 C 0.74050 0.17167 0.14810
 C1731 C 0.74149 0.18885 0.16337
 C1732 C 0.75369 0.18643 0.18281
 C1733 C 0.76553 0.16694 0.18639
 C1734 C 0.76503 0.15002 0.17089
 H1735 H 0.76003 0.09410 0.06340
 H1736 H 0.76010 0.06183 0.03999
 H1737 H 0.72952 0.02420 0.09203
 H1738 H 0.72864 0.05658 0.11483
 H1739 H 0.75160 0.07720 0.13584
 H1740 H 0.75331 0.10779 0.16102
 H1741 H 0.74669 0.15319 0.10670
 H1742 H 0.74247 0.12231 0.08163
 H1743 H 0.73012 0.17371 0.13378
 H1744 H 0.73213 0.20373 0.16034
 H1745 H 0.77534 0.16486 0.20113
 H1746 H 0.77479 0.13544 0.17401
 C1747 C 0.24353 0.57843 0.58858
 C1748 C 0.25939 0.57442 0.57223
 C1749 C 0.25776 0.55586 0.55865
 C1750 C 0.24035 0.54092 0.56133
 C1751 C 0.22416 0.54531 0.57715
 C1752 C 0.22566 0.56388 0.59051
 C1753 C 0.24589 0.59711 0.60422
 C1754 C 0.24014 0.59433 0.62640
 C1755 C 0.24202 0.61170 0.64125
 C1756 C 0.24995 0.63232 0.63442
 C1757 C 0.25583 0.63514 0.61226
 C1758 C 0.25383 0.61771 0.59731
 C1759 C 0.25184 0.65067 0.65051
 C1760 C 0.24639 0.67240 0.64459
 C1761 C 0.24694 0.68931 0.66022
 C1762 C 0.25278 0.68479 0.68212
 C1763 C 0.25875 0.66319 0.68787
 C1764 C 0.25840 0.64639 0.67225
 H1765 H 0.27344 0.58520 0.57041
 H1766 H 0.27048 0.55276 0.54660
 H1767 H 0.21036 0.53425 0.57924
 H1768 H 0.21283 0.56677 0.60250
 H1769 H 0.23433 0.57860 0.63240
 H1770 H 0.23700 0.60901 0.65808
 H1771 H 0.26218 0.65075 0.60651
 H1772 H 0.25826 0.62045 0.58032
 H1773 H 0.24108 0.67624 0.62804
 H1774 H 0.24226 0.70580 0.65529
 H1775 H 0.26371 0.65920 0.70450
 H1776 H 0.26325 0.62998 0.67726
 C1777 C 0.73355 0.92364 0.91730
 C1778 C 0.71830 0.94096 0.91504
 C1779 C 0.71959 0.95953 0.92850
 C1780 C 0.73590 0.96104 0.94476
 C1781 C 0.75040 0.94331 0.94790
 C1782 C 0.74933 0.92484 0.93423
 C1783 C 0.73384 0.90513 0.90126
 C1784 C 0.73963 0.88367 0.90780
 C1785 C 0.74103 0.86666 0.89237
 C1786 C 0.73652 0.87066 0.87005
 C1787 C 0.73030 0.89201 0.86362
 C1788 C 0.72913 0.90903 0.87897
 C1789 C 0.73849 0.85279 0.85343
 C1790 C 0.74641 0.85740 0.83222
 C1791 C 0.74772 0.84085 0.81637
 C1792 C 0.74143 0.81919 0.82139
 C1793 C 0.73392 0.81442 0.84269
 C1794 C 0.73235 0.83106 0.85849
 H1795 H 0.70557 0.94036 0.90260
 H1796 H 0.70808 0.97293 0.92596
 H1797 H 0.76324 0.94423 0.96023
 H1798 H 0.76151 0.91199 0.93631
 H1799 H 0.74312 0.88000 0.92485
 H1800 H 0.74606 0.85048 0.89789
 H1801 H 0.72632 0.89564 0.84667
 H1802 H 0.72498 0.92537 0.87321
 H1803 H 0.75179 0.87381 0.82787
 H1804 H 0.75384 0.84500 0.80019
 H1805 H 0.72883 0.79791 0.84703
 H1806 H 0.72591 0.82695 0.87454
 C1807 C 0.24139 0.42374 0.41289
 C1808 C 0.22352 0.43837 0.41122
 C1809 C 0.22238 0.45701 0.42452
 C1810 C 0.23894 0.46140 0.44001
 C1811 C 0.25638 0.44639 0.44242
 C1812 C 0.25765 0.42775 0.42891
 C1813 C 0.24331 0.40493 0.39736
 C1814 C 0.25131 0.38432 0.40429
 C1815 C 0.25290 0.36677 0.38945
 C1816 C 0.24654 0.36946 0.36738
 C1817 C 0.23857 0.39007 0.36053
 C1818 C 0.23709 0.40758 0.37527
 C1819 C 0.24803 0.35096 0.35143
 C1820 C 0.25425 0.35499 0.32957
 C1821 C 0.25443 0.33801 0.31414
 C1822 C 0.24860 0.31647 0.32021
 C1823 C 0.24299 0.31224 0.34220
 C1824 C 0.24264 0.32932 0.35764
 H1825 H 0.21041 0.43549 0.39950
 H1826 H 0.20854 0.46813 0.42265
 H1827 H 0.26938 0.44948 0.45420
 H1828 H 0.27171 0.41690 0.43052
 H1829 H 0.25609 0.38169 0.42122
 H1830 H 0.25930 0.35116 0.39522
 H1831 H 0.23320 0.39267 0.34376
 H1832 H 0.23122 0.42330 0.36925
 H1833 H 0.25902 0.37133 0.32433
 H1834 H 0.25918 0.34178 0.29743
 H1835 H 0.23842 0.29582 0.34739
 H1836 H 0.23757 0.32569 0.37428
 C1837 C 0.25222 0.91332 0.07649
 C1838 C 0.23621 0.92957 0.07220
 C1839 C 0.23841 0.94371 0.05413
 C1840 C 0.25654 0.94165 0.04002
 C1841 C 0.27290 0.92606 0.04482
 C1842 C 0.27084 0.91216 0.06289
 C1843 C 0.24938 0.89701 0.09446
 C1844 C 0.25573 0.87499 0.09121
 C1845 C 0.25398 0.85963 0.10812
 C1846 C 0.24559 0.86577 0.12872
 C1847 C 0.23882 0.88771 0.13190
 C1848 C 0.24069 0.90317 0.11495
 C1849 C 0.24449 0.84935 0.14681
 C1850 C 0.24963 0.85537 0.16852
 C1851 C 0.24984 0.83960 0.18526
 C1852 C 0.24509 0.81743 0.18064
 C1853 C 0.23957 0.81149 0.15902
 C1854 C 0.23916 0.82727 0.14235
 H1855 H 0.22164 0.93083 0.08233
 H1856 H 0.22559 0.95563 0.05067
 H1857 H 0.28722 0.92446 0.03436
 H1858 H 0.28379 0.90031 0.06608
 H1859 H 0.26209 0.86957 0.07552
 H1860 H 0.25964 0.84299 0.10514
 H1861 H 0.23203 0.89292 0.14749
 H1862 H 0.23574 0.92002 0.11800
 H1863 H 0.25409 0.87215 0.17250
 H1864 H 0.25418 0.84471 0.20175
 H1865 H 0.23549 0.79462 0.15496
 H1866 H 0.23466 0.82214 0.12591
 C1867 C 0.75628 0.41010 0.57550
 C1868 C 0.74017 0.42639 0.57177
 C1869 C 0.74208 0.44093 0.55401
 C1870 C 0.76003 0.43933 0.53960
 C1871 C 0.77640 0.42353 0.54371
 C1872 C 0.77461 0.40917 0.56148
 C1873 C 0.75391 0.39377 0.59356
 C1874 C 0.76044 0.37179 0.59037
 C1875 C 0.75897 0.35647 0.60739
 C1876 C 0.75074 0.36266 0.62804
 C1877 C 0.74381 0.38456 0.63116
 C1878 C 0.74541 0.39994 0.61412
 C1879 C 0.74990 0.34640 0.64632
 C1880 C 0.75499 0.35278 0.66793
 C1881 C 0.75500 0.33736 0.68497
 C1882 C 0.75008 0.31513 0.68079
 C1883 C 0.74479 0.30877 0.65923
 C1884 C 0.74461 0.32423 0.64222
 H1885 H 0.72577 0.42745 0.58216
 H1886 H 0.72919 0.45292 0.55109
 H1887 H 0.79059 0.42222 0.53304
 H1888 H 0.78762 0.39727 0.56420
 H1889 H 0.76669 0.36635 0.57463
 H1890 H 0.76471 0.33985 0.60445
 H1891 H 0.73711 0.38981 0.64677
 H1892 H 0.74036 0.41676 0.61719
 H1893 H 0.75947 0.36962 0.67164
 H1894 H 0.75922 0.34282 0.70138
 H1895 H 0.74067 0.29183 0.65548
 H1896 H 0.74021 0.31881 0.62585
 C1897 C 0.07836 0.08278 0.76070
 C1898 C 0.06523 0.08300 0.77968
 C1899 C 0.04641 0.06997 0.78098
 C1900 C 0.04041 0.05624 0.76344
 C1901 C 0.05406 0.05510 0.74489
 C1902 C 0.07285 0.06833 0.74349
 C1903 C 0.09689 0.09855 0.75846
 C1904 C 0.11668 0.09241 0.74820
 C1905 C 0.13375 0.10766 0.74573
 C1906 C 0.13133 0.12936 0.75342
 C1907 C 0.11161 0.13538 0.76384
 C1908 C 0.09459 0.12022 0.76624
 C1909 C 0.14912 0.14585 0.75059
 C1910 C 0.14389 0.16775 0.74529
 C1911 C 0.16034 0.18365 0.74377
 C1912 C 0.18251 0.17802 0.74735
 C1913 C 0.18785 0.15599 0.75209
 C1914 C 0.17132 0.14007 0.75372
 H1915 H 0.06932 0.09353 0.79345
 H1916 H 0.03629 0.07085 0.79559
 H1917 H 0.04966 0.04471 0.73112
 H1918 H 0.08252 0.06791 0.72858
 H1919 H 0.11901 0.07580 0.74218
 H1920 H 0.14870 0.10258 0.73750
 H1921 H 0.10934 0.15185 0.77026
 H1922 H 0.07945 0.12562 0.77389
 H1923 H 0.12700 0.17265 0.74232
 H1924 H 0.15564 0.20041 0.73988
 H1925 H 0.20476 0.15112 0.75501
 H1926 H 0.17585 0.12337 0.75802
 C1927 C 0.57784 0.58494 0.26676
 C1928 C 0.56004 0.58880 0.28102
 C1929 C 0.54111 0.57583 0.27990
 C1930 C 0.53972 0.55844 0.26481
 C1931 C 0.55791 0.55368 0.25145
 C1932 C 0.57673 0.56688 0.25229
 C1933 C 0.59671 0.60056 0.26586
 C1934 C 0.61815 0.59321 0.26111
 C1935 C 0.63544 0.60824 0.25873
 C1936 C 0.63172 0.63096 0.26122
 C1937 C 0.61042 0.63821 0.26661
 C1938 C 0.59315 0.62326 0.26873
 C1939 C 0.64975 0.64719 0.25781
 C1940 C 0.64525 0.66767 0.24798
 C1941 C 0.66182 0.68334 0.24547
 C1942 C 0.68341 0.67884 0.25241
 C1943 C 0.68813 0.65818 0.26171
 C1944 C 0.67145 0.64256 0.26449
 H1945 H 0.56052 0.60215 0.29278
 H1946 H 0.52733 0.57963 0.29052
 H1947 H 0.55710 0.54046 0.23954
 H1948 H 0.58994 0.56354 0.24087
 H1949 H 0.62159 0.57584 0.25908
 H1950 H 0.65159 0.60207 0.25444
 H1951 H 0.60701 0.65552 0.26912
 H1952 H 0.57685 0.62964 0.27205
 H1953 H 0.62889 0.67162 0.24211
 H1954 H 0.65769 0.69902 0.23804
 H1955 H 0.70459 0.65432 0.26740
 H1956 H 0.67547 0.62707 0.27234
 C1957 C 0.07956 0.91787 0.22432
 C1958 C 0.08136 0.93490 0.20874
 C1959 C 0.06817 0.95370 0.21030
 C1960 C 0.05268 0.95573 0.22726
 C1961 C 0.04981 0.93814 0.24192
 C1962 C 0.06317 0.91946 0.24055
 C1963 C 0.09587 0.89957 0.22488
 C1964 C 0.08976 0.87829 0.23165
 C1965 C 0.10562 0.86177 0.23426
 C1966 C 0.12795 0.86609 0.23002
 C1967 C 0.13391 0.88712 0.22249
 C1968 C 0.11813 0.90366 0.22008
 C1969 C 0.14508 0.84900 0.23399
 C1970 C 0.16576 0.85492 0.24255
 C1971 C 0.18202 0.83903 0.24606
 C1972 C 0.17793 0.81677 0.24136
 C1973 C 0.15715 0.81075 0.23312
 C1974 C 0.14094 0.82670 0.22939
 H1975 H 0.09341 0.93399 0.19569
 H1976 H 0.07053 0.96699 0.19867
 H1977 H 0.03816 0.93943 0.25531
 H1978 H 0.06147 0.90685 0.25299
 H1979 H 0.07275 0.87446 0.23521
 H1980 H 0.10044 0.84581 0.24021
 H1981 H 0.15088 0.89091 0.21864
 H1982 H 0.12355 0.91988 0.21514
 H1983 H 0.16936 0.87185 0.24676
 H1984 H 0.19779 0.84419 0.25257
 H1985 H 0.15354 0.79376 0.22912
 H1986 H 0.12531 0.82159 0.22253
 C1987 C 0.58459 0.41974 0.72878
 C1988 C 0.58597 0.43642 0.71279
 C1989 C 0.57200 0.45470 0.71361
 C1990 C 0.55613 0.45656 0.73024
 C1991 C 0.55383 0.43935 0.74544
 C1992 C 0.56798 0.42120 0.74480
 C1993 C 0.60127 0.40175 0.72968
 C1994 C 0.59552 0.38048 0.73674
 C1995 C 0.61157 0.36412 0.73908
 C1996 C 0.63376 0.36853 0.73423
 C1997 C 0.63940 0.38963 0.72663
 C1998 C 0.62341 0.40605 0.72451
 C1999 C 0.65101 0.35135 0.73740
 C2000 C 0.67215 0.35707 0.74496
 C2001 C 0.68836 0.34098 0.74790
 C2002 C 0.68376 0.31873 0.74363
 C2003 C 0.66261 0.31296 0.73621
 C2004 C 0.64648 0.32908 0.73302
 H2005 H 0.59817 0.43560 0.69988
 H2006 H 0.57395 0.46770 0.70159
 H2007 H 0.54190 0.44054 0.75859
 H2008 H 0.56657 0.40887 0.75756
 H2009 H 0.57861 0.37647 0.74060
 H2010 H 0.60662 0.34814 0.74518
 H2011 H 0.65624 0.39354 0.72236
 H2012 H 0.62857 0.42229 0.71936
 H2013 H 0.67613 0.37397 0.74892
 H2014 H 0.70445 0.34594 0.75375
 H2015 H 0.65859 0.29599 0.73254
 H2016 H 0.63054 0.32409 0.72681
 C2017 C 0.91256 0.07810 0.25576
 C2018 C 0.91286 0.06431 0.27431
 C2019 C 0.92587 0.04537 0.27465
 C2020 C 0.93905 0.03987 0.25655
 C2021 C 0.93949 0.05405 0.23833
 C2022 C 0.92632 0.07296 0.23791
 C2023 C 0.89715 0.09710 0.25471
 C2024 C 0.90339 0.11709 0.24489
 C2025 C 0.88852 0.13467 0.24358
 C2026 C 0.86710 0.13260 0.25203
 C2027 C 0.86098 0.11267 0.26200
 C2028 C 0.87577 0.09514 0.26325
 C2029 C 0.85102 0.15099 0.25042
 C2030 C 0.82877 0.14661 0.24587
 C2031 C 0.81333 0.16361 0.24539
 C2032 C 0.81975 0.18549 0.24930
 C2033 C 0.84210 0.19000 0.25329
 C2034 C 0.85757 0.17291 0.25389
 H2035 H 0.90286 0.06805 0.28853
 H2036 H 0.92551 0.03487 0.28902
 H2037 H 0.94939 0.05006 0.22409
 H2038 H 0.92631 0.08311 0.22329
 H2039 H 0.91980 0.11919 0.23832
 H2040 H 0.89369 0.14976 0.23565
 H2041 H 0.84473 0.11063 0.26897
 H2042 H 0.87029 0.07988 0.27062
 H2043 H 0.82326 0.12998 0.24262
 H2044 H 0.79631 0.15956 0.24195
 H2045 H 0.84758 0.20667 0.25637
 H2046 H 0.87455 0.17681 0.25762
 C2047 C 0.41045 0.57479 0.75206
 C2048 C 0.42491 0.57022 0.73461
 C2049 C 0.43848 0.55157 0.73520
 C2050 C 0.43773 0.53709 0.75316
 C2051 C 0.42376 0.54199 0.77084
 C2052 C 0.41036 0.56065 0.77035
 C2053 C 0.39488 0.59369 0.75097
 C2054 C 0.37333 0.59143 0.75900
 C2055 C 0.35854 0.60899 0.75806
 C2056 C 0.36482 0.62927 0.74890
 C2057 C 0.38637 0.63158 0.74084
 C2058 C 0.40124 0.61397 0.74185
 C2059 C 0.34882 0.64780 0.74789
 C2060 C 0.35550 0.66956 0.75211
 C2061 C 0.34014 0.68676 0.75209
 C2062 C 0.31775 0.68254 0.74797
 C2063 C 0.31119 0.66085 0.74333
 C2064 C 0.32653 0.64373 0.74321
 H2065 H 0.42524 0.58065 0.72020
 H2066 H 0.44900 0.54807 0.72129
 H2067 H 0.42315 0.53128 0.78506
 H2068 H 0.39983 0.56396 0.78430
 H2069 H 0.36775 0.57595 0.76581
 H2070 H 0.34219 0.60672 0.76473
 H2071 H 0.39167 0.64692 0.73350
 H2072 H 0.41778 0.61631 0.73569
 H2073 H 0.37250 0.67323 0.75597
 H2074 H 0.34574 0.70328 0.75571
 H2075 H 0.29415 0.65704 0.73975
 H2076 H 0.32091 0.62726 0.73939
 C2077 C 0.91652 0.91449 0.74638
 C2078 C 0.91842 0.93157 0.76189
 C2079 C 0.93740 0.94453 0.76277
 C2080 C 0.95495 0.94051 0.74836
 C2081 C 0.95272 0.92416 0.73224
 C2082 C 0.93364 0.91142 0.73113
 C2083 C 0.89758 0.89897 0.74708
 C2084 C 0.90090 0.87645 0.74288
 C2085 C 0.88357 0.86153 0.74457
 C2086 C 0.86245 0.86861 0.75081
 C2087 C 0.85899 0.89117 0.75473
 C2088 C 0.87635 0.90619 0.75284
 C2089 C 0.84432 0.85237 0.75335
 C2090 C 0.82267 0.85749 0.74688
 C2091 C 0.80598 0.84169 0.74833
 C2092 C 0.81065 0.82038 0.75606
 C2093 C 0.83215 0.81546 0.76303
 C2094 C 0.84872 0.83128 0.76184
 H2095 H 0.90572 0.93427 0.77404
 H2096 H 0.93887 0.95696 0.77545
 H2097 H 0.96597 0.92096 0.72079
 H2098 H 0.93251 0.89883 0.71859
 H2099 H 0.91706 0.87017 0.73877
 H2100 H 0.88676 0.84436 0.74099
 H2101 H 0.84297 0.89719 0.75970
 H2102 H 0.87313 0.92344 0.75595
 H2103 H 0.81873 0.87350 0.74010
 H2104 H 0.78958 0.84596 0.74276
 H2105 H 0.83624 0.79929 0.76934
 H2106 H 0.86505 0.82693 0.76753
 C2107 C 0.41897 0.41274 0.25418
 C2108 C 0.42231 0.42828 0.27103
 C2109 C 0.44082 0.44204 0.27080
 C2110 C 0.45635 0.44031 0.25384
 C2111 C 0.45252 0.42549 0.23659
 C2112 C 0.43400 0.41198 0.23667
 C2113 C 0.40064 0.39654 0.25521
 C2114 C 0.40415 0.37470 0.24840
 C2115 C 0.38716 0.35931 0.24909
 C2116 C 0.36621 0.36521 0.25686
 C2117 C 0.36265 0.38702 0.26381
 C2118 C 0.37969 0.40252 0.26301
 C2119 C 0.34828 0.34854 0.25750
 C2120 C 0.32653 0.35420 0.25189
 C2121 C 0.31001 0.33815 0.25144
 C2122 C 0.31493 0.31607 0.25643
 C2123 C 0.33659 0.31054 0.26245
 C2124 C 0.35300 0.32657 0.26308
 H2125 H 0.41111 0.42921 0.28481
 H2126 H 0.44352 0.45333 0.28430
 H2127 H 0.46412 0.42414 0.22316
 H2128 H 0.43163 0.40069 0.22312
 H2129 H 0.42015 0.36938 0.24269
 H2130 H 0.39044 0.34278 0.24329
 H2131 H 0.34675 0.39206 0.27007
 H2132 H 0.37640 0.41923 0.26826
 H2133 H 0.32236 0.37091 0.24730
 H2134 H 0.29349 0.34296 0.24676
 H2135 H 0.34090 0.29377 0.26672
 H2136 H 0.36945 0.32172 0.26798
   
