data_POSCAR
  _audit_creation_date              2014-09-24
  _audit_creation_method            'ToBaCCo'
  _symmetry_space_group_name_H-M    'P1'
  _symmetry_Int_Tables_number       1
  _symmetry_cell_setting            triclinic
  loop_
  _symmetry_equiv_pos_as_xyz
 x,y,z
_cell_length_a 65.6450
_cell_length_b 65.7359
_cell_length_c 65.7147
_cell_angle_alpha 89.492700
_cell_angle_beta 88.828300
_cell_angle_gamma 89.700100
loop_
  _atom_site_label
  _atom_site_type_symbol
  _atom_site_fract_x
  _atom_site_fract_y
  _atom_site_fract_z
C1 C 0.73573 0.64909 0.97466
 H2 H 0.75008 0.64879 0.96627
 C3 C 0.71901 0.65950 0.96670
 H4 H 0.72063 0.66717 0.95211
 C5 C 0.71587 0.63830 1.00323
 H6 H 0.71448 0.62963 1.01721
 C7 C 0.69883 0.64850 0.99587
 H8 H 0.68467 0.64793 1.00458
 N9 N 0.73385 0.63865 0.99256
 C10 C 0.79455 0.62774 1.01638
 H11 H 0.79338 0.61151 1.01897
 C12 C 0.81218 0.63796 1.02168
 H13 H 0.82447 0.62948 1.02857
 C14 C 0.77956 0.65848 1.00474
 H15 H 0.76675 0.66639 0.99823
 C16 C 0.79696 0.66936 1.00990
 H17 H 0.79747 0.68560 1.00708
 Zn18 Zn 0.75588 0.62222 1.00124
 N19 N 0.77881 0.63801 1.00784
 C20 C 0.78202 0.60412 0.97170
 N21 N 0.76274 0.60434 0.97968
 C22 C 0.74779 0.59288 0.97158
 C23 C 0.75202 0.58047 0.95483
 C24 C 0.78693 0.59189 0.95508
 C25 C 0.74515 0.61867 1.04217
 C26 C 0.73848 0.60939 1.06023
 C27 C 0.73865 0.57716 1.04293
 C28 C 0.74536 0.58717 1.02519
 N29 N 0.74802 0.60762 1.02503
 H30 H 0.79358 0.61375 0.97790
 H31 H 0.73249 0.59360 0.97798
 H32 H 0.73995 0.57145 0.94855
 H33 H 0.80228 0.59228 0.94872
 H34 H 0.74792 0.63489 1.04173
 H35 H 0.73728 0.61903 1.07341
 H36 H 0.73566 0.56110 1.04163
 H37 H 0.74800 0.57858 1.01145
 C38 C 0.81362 0.65903 1.01836
 C39 C 0.70015 0.65901 0.97720
 C40 C 0.73455 0.58819 1.06106
 C41 C 0.77183 0.57991 0.94636
 C42 C 0.73469 0.34788 0.51768
 H43 H 0.74909 0.34680 0.52534
 C44 C 0.71785 0.33698 0.52515
 H45 H 0.71942 0.32756 0.53862
 C46 C 0.71489 0.36245 0.49152
 H47 H 0.71358 0.37272 0.47871
 C48 C 0.69771 0.35185 0.49844
 H49 H 0.68353 0.35377 0.49052
 N50 N 0.73292 0.36035 0.50117
 C51 C 0.79390 0.37135 0.47580
 H52 H 0.79319 0.38777 0.47480
 C53 C 0.81130 0.36106 0.46892
 H54 H 0.82387 0.36970 0.46241
 C55 C 0.77804 0.34023 0.48508
 H56 H 0.76499 0.33219 0.49132
 C57 C 0.79518 0.32929 0.47831
 H58 H 0.79526 0.31286 0.47966
 Zn59 Zn 0.75538 0.37676 0.49310
 N60 N 0.77785 0.36090 0.48396
 C61 C 0.78207 0.39096 0.52309
 N62 N 0.76280 0.39223 0.51595
 C63 C 0.74829 0.40372 0.52554
 C64 C 0.75306 0.41486 0.54282
 C65 C 0.78750 0.40187 0.54023
 C66 C 0.74427 0.38472 0.45320
 C67 C 0.73797 0.39612 0.43646
 C68 C 0.73994 0.42647 0.45679
 C69 C 0.74627 0.41446 0.47316
 N70 N 0.74792 0.39393 0.47119
 H71 H 0.79325 0.38129 0.51570
 H72 H 0.73298 0.40419 0.51976
 H73 H 0.74139 0.42410 0.55013
 H74 H 0.80286 0.40045 0.54579
 H75 H 0.74588 0.36838 0.45202
 H76 H 0.73451 0.38838 0.42249
 H77 H 0.73855 0.44277 0.45864
 H78 H 0.74968 0.42156 0.48745
 C79 C 0.81218 0.33975 0.47026
 C80 C 0.69897 0.33911 0.51563
 C81 C 0.73551 0.41727 0.43819
 C82 C 0.77294 0.41406 0.55031
 C83 C 0.23625 -0.15311 0.01624
 H84 H 0.25057 -0.15394 0.02407
 C85 C 0.21936 -0.16383 0.02383
 H86 H 0.22081 -0.17289 0.03758
 C87 C 0.21668 -0.13929 -0.01050
 H88 H 0.21549 -0.12937 -0.02359
 C89 C 0.19946 -0.14974 -0.00345
 H90 H 0.18535 -0.14806 -0.01156
 N91 N 0.23462 -0.14108 -0.00060
 C92 C 0.29571 -0.13038 -0.02580
 H93 H 0.29494 -0.11398 -0.02718
 C94 C 0.31319 -0.14074 -0.03235
 H95 H 0.32575 -0.13218 -0.03898
 C96 C 0.27993 -0.16136 -0.01588
 H97 H 0.26689 -0.16932 -0.00953
 C98 C 0.29716 -0.17237 -0.02231
 H99 H 0.29730 -0.18877 -0.02059
 Zn100 Zn 0.25707 -0.12475 -0.00885
 N101 N 0.27966 -0.14072 -0.01749
 C102 C 0.28351 -0.10988 0.02101
 N103 N 0.26429 -0.10879 0.01373
 C104 C 0.24969 -0.09718 0.02303
 C105 C 0.25430 -0.08578 0.04018
 C106 C 0.28879 -0.09870 0.03802
 C107 C 0.24652 -0.11768 -0.04901
 C108 C 0.24034 -0.10675 -0.06610
 C109 C 0.24147 -0.07601 -0.04637
 C110 C 0.24774 -0.08761 -0.02968
 N111 N 0.24971 -0.10810 -0.03118
 H112 H 0.29476 -0.11964 0.01386
 H113 H 0.23441 -0.09686 0.01714
 H114 H 0.24255 -0.07648 0.04729
 H115 H 0.30410 -0.10001 0.04372
 H116 H 0.24829 -0.13403 -0.04978
 H117 H 0.23684 -0.11561 -0.07932
 H118 H 0.24083 -0.05973 -0.04437
 H119 H 0.25100 -0.08017 -0.01554
 C120 C 0.31416 -0.16201 -0.03051
 C121 C 0.20057 -0.16200 0.01409
 C122 C 0.23727 -0.08540 -0.06518
 C123 C 0.27411 -0.08642 0.04784
 C124 C 0.23366 0.15208 0.47368
 H125 H 0.24811 0.15250 0.46547
 C126 C 0.21680 0.16248 0.46600
 H127 H 0.21841 0.17086 0.45180
 C128 C 0.21372 0.13948 0.50144
 H129 H 0.21235 0.13010 0.51495
 C130 C 0.19654 0.14964 0.49434
 H131 H 0.18228 0.14832 0.50282
 N132 N 0.23181 0.14075 0.49103
 C133 C 0.29260 0.12969 0.51450
 H134 H 0.29162 0.11335 0.51634
 C135 C 0.31019 0.13980 0.52009
 H136 H 0.32263 0.13113 0.52647
 C137 C 0.27724 0.16077 0.50433
 H138 H 0.26431 0.16884 0.49823
 C139 C 0.29459 0.17155 0.50981
 H140 H 0.29496 0.18789 0.50768
 Zn141 Zn 0.25409 0.12435 0.49913
 N142 N 0.27670 0.14018 0.50652
 C143 C 0.28046 0.10920 0.46831
 N144 N 0.26143 0.10770 0.47673
 C145 C 0.24704 0.09575 0.46830
 C146 C 0.25161 0.08471 0.45068
 C147 C 0.28564 0.09849 0.45074
 C148 C 0.24309 0.11922 0.53972
 C149 C 0.23629 0.10928 0.55738
 C150 C 0.23721 0.07754 0.53910
 C151 C 0.24403 0.08814 0.52172
 N152 N 0.24638 0.10867 0.52226
 H153 H 0.29157 0.11910 0.47486
 H154 H 0.23187 0.09518 0.47503
 H155 H 0.23987 0.07563 0.44390
 H156 H 0.30089 0.09994 0.44429
 H157 H 0.24537 0.13551 0.53977
 H158 H 0.23360 0.11802 0.57107
 H159 H 0.23477 0.06130 0.53826
 H160 H 0.24707 0.07999 0.50778
 C161 C 0.31144 0.16100 0.51763
 C162 C 0.19783 0.16104 0.47620
 C163 C 0.23292 0.08821 0.55713
 C164 C 0.27107 0.08625 0.44153
 C165 C 0.15348 0.47914 0.23639
 H166 H 0.15416 0.47115 0.25083
 C167 C 0.16409 0.47155 0.21940
 H168 H 0.17291 0.45767 0.22091
 C169 C 0.14000 0.50614 0.21662
 H170 H 0.13018 0.51930 0.21538
 C171 C 0.15036 0.49913 0.19930
 H172 H 0.14875 0.50733 0.18505
 N173 N 0.14160 0.49605 0.23468
 C174 C 0.12975 0.52027 0.29537
 H175 H 0.11332 0.52129 0.29473
 C176 C 0.13973 0.52710 0.31250
 H177 H 0.13082 0.53316 0.32512
 C178 C 0.16117 0.51081 0.27967
 H179 H 0.16943 0.50463 0.26672
 C180 C 0.17182 0.51744 0.29660
 H181 H 0.18828 0.51638 0.29650
 Zn182 Zn 0.12490 0.50379 0.25719
 N183 N 0.14049 0.51219 0.27947
 C184 C 0.11050 0.47287 0.28386
 N185 N 0.10906 0.48087 0.26479
 C186 C 0.09764 0.47175 0.25046
 C187 C 0.08708 0.45383 0.25512
 C188 C 0.10024 0.45502 0.28915
 C189 C 0.11801 0.54404 0.24620
 C190 C 0.10715 0.56120 0.24002
 C191 C 0.07623 0.54143 0.24190
 C192 C 0.08771 0.52460 0.24812
 N193 N 0.10827 0.52612 0.24977
 H194 H 0.11996 0.48003 0.29494
 H195 H 0.09711 0.47818 0.23527
 H196 H 0.07843 0.44653 0.24341
 H197 H 0.10159 0.44892 0.30442
 H198 H 0.13436 0.54483 0.24780
 H199 H 0.11532 0.57513 0.23664
 H200 H 0.05990 0.53996 0.24050
 H201 H 0.08020 0.51034 0.25143
 C202 C 0.16105 0.52576 0.31329
 C203 C 0.16232 0.48140 0.20044
 C204 C 0.08599 0.55999 0.23759
 C205 C 0.08852 0.44512 0.27463
 C206 C -0.15390 0.01833 0.23377
 H207 H -0.15486 0.02555 0.24849
 C208 C -0.16520 0.02606 0.21761
 H209 H -0.17530 0.03875 0.22068
 C210 C -0.13969 -0.00723 0.21267
 H211 H -0.12919 -0.01975 0.21052
 C212 C -0.15072 -0.00010 0.19614
 H213 H -0.14794 -0.00739 0.18166
 N214 N -0.14143 0.00199 0.23104
 C215 C -0.12908 -0.02439 0.29074
 H216 H -0.11264 -0.02510 0.28945
 C217 C -0.13898 -0.03186 0.30820
 H218 H -0.12998 -0.03812 0.32040
 C219 C -0.16063 -0.01499 0.27639
 H220 H -0.16899 -0.00859 0.26385
 C221 C -0.17118 -0.02228 0.29365
 H222 H -0.18766 -0.02148 0.29420
 Zn223 Zn -0.12451 -0.00646 0.25261
 N224 N -0.13993 -0.01598 0.27538
 C225 C -0.11048 0.02356 0.27937
 N226 N -0.10884 0.01629 0.26010
 C227 C -0.09724 0.02593 0.24563
 C228 C -0.08655 0.04355 0.25039
 C229 C -0.10013 0.04111 0.28476
 C230 C -0.11751 -0.04602 0.24007
 C231 C -0.10672 -0.06276 0.23261
 C232 C -0.07576 -0.04313 0.23390
 C233 C -0.08720 -0.02669 0.24136
 N234 N -0.10776 -0.02832 0.24386
 H235 H -0.12012 0.01602 0.29057
 H236 H -0.09655 0.02008 0.23029
 H237 H -0.07765 0.05122 0.23861
 H238 H -0.10157 0.04657 0.30022
 H239 H -0.13383 -0.04697 0.24251
 H240 H -0.11483 -0.07667 0.22955
 H241 H -0.05951 -0.04141 0.23139
 H242 H -0.07968 -0.01260 0.24482
 C243 C -0.16031 -0.03085 0.30985
 C244 C -0.16367 0.01703 0.19818
 C245 C -0.08560 -0.06135 0.22911
 C246 C -0.08809 0.05144 0.27015
 C247 C 0.34729 0.51894 0.73563
 H248 H 0.34689 0.52621 0.75034
 C249 C 0.33583 0.52697 0.71971
 H250 H 0.32637 0.54026 0.72240
 C251 C 0.36049 0.49308 0.71415
 H252 H 0.37056 0.48025 0.71178
 C253 C 0.34929 0.50055 0.69787
 H254 H 0.35091 0.49329 0.68320
 N255 N 0.35930 0.50228 0.73260
 C256 C 0.37180 0.47500 0.79187
 H257 H 0.38820 0.47376 0.79033
 C258 C 0.36192 0.46757 0.80936
 H259 H 0.37089 0.46084 0.82134
 C260 C 0.34035 0.48559 0.77811
 H261 H 0.33201 0.49240 0.76577
 C262 C 0.32981 0.47837 0.79540
 H263 H 0.31337 0.47965 0.79619
 Zn264 Zn 0.37633 0.49321 0.75384
 N265 N 0.36100 0.48396 0.77678
 C266 C 0.39261 0.52208 0.78068
 N267 N 0.39291 0.51535 0.76116
 C268 C 0.40419 0.52491 0.74639
 C269 C 0.41604 0.54178 0.75108
 C270 C 0.40426 0.53880 0.78605
 C271 C 0.38222 0.45350 0.74093
 C272 C 0.39265 0.43655 0.73341
 C273 C 0.42401 0.45555 0.73461
 C274 C 0.41295 0.47219 0.74212
 N275 N 0.39237 0.47099 0.74473
 H276 H 0.38311 0.51471 0.79211
 H277 H 0.40389 0.51945 0.73091
 H278 H 0.42506 0.54910 0.73918
 H279 H 0.40356 0.54408 0.80161
 H280 H 0.36590 0.45288 0.74347
 H281 H 0.38424 0.42282 0.73038
 H282 H 0.44029 0.45694 0.73205
 H283 H 0.42078 0.48610 0.74558
 C284 C 0.34064 0.46921 0.81132
 C285 C 0.33686 0.51781 0.70047
 C286 C 0.41379 0.43752 0.72987
 C287 C 0.41619 0.54889 0.77117
 C288 C 0.65339 0.97891 0.73619
 H289 H 0.65417 0.97086 0.75059
 C290 C 0.66409 0.97154 0.71915
 H291 H 0.67309 0.95777 0.72059
 C292 C 0.63953 1.00582 0.71654
 H293 H 0.62953 1.01884 0.71537
 C294 C 0.64999 0.99903 0.69919
 H295 H 0.64825 1.00727 0.68499
 N296 N 0.64125 0.99566 0.73456
 C297 C 0.62878 1.01934 0.79533
 H298 H 0.61233 1.01996 0.79463
 C299 C 0.63850 1.02618 0.81260
 H300 H 0.62895 1.03132 0.82514
 C301 C 0.66037 1.01053 0.77979
 H302 H 0.66881 1.00468 0.76680
 C303 C 0.67081 1.01718 0.79684
 H304 H 0.68727 1.01665 0.79618
 Zn305 Zn 0.62437 1.00303 0.75705
 N306 N 0.63971 1.01157 0.77945
 C307 C 0.61043 0.97176 0.78353
 N308 N 0.60886 0.97983 0.76450
 C309 C 0.59756 0.97061 0.75014
 C310 C 0.58725 0.95252 0.75472
 C311 C 0.60044 0.95374 0.78874
 C312 C 0.61696 1.04322 0.74632
 C313 C 0.60593 1.06028 0.74014
 C314 C 0.57528 1.04007 0.74159
 C315 C 0.58694 1.02336 0.74782
 N316 N 0.60745 1.02515 0.74967
 H317 H 0.61982 0.97899 0.79463
 H318 H 0.59691 0.97711 0.73498
 H319 H 0.57868 0.94515 0.74300
 H320 H 0.60190 0.94759 0.80398
 H321 H 0.63328 1.04423 0.74807
 H322 H 0.61394 1.07433 0.73692
 H323 H 0.55899 1.03838 0.74000
 H324 H 0.57960 1.00897 0.75096
 C325 C 0.65996 1.02528 0.81376
 C326 C 0.66217 0.98145 0.70024
 C327 C 0.58482 1.05879 0.73749
 C328 C 0.58884 0.94375 0.77419
 C329 C 0.02096 0.23521 -0.15252
 H330 H 0.02852 0.24977 -0.15365
 C331 C 0.02860 0.21862 -0.16350
 H332 H 0.04187 0.22064 -0.17334
 C333 C -0.00527 0.21482 -0.13794
 H334 H -0.01809 0.21318 -0.12752
 C335 C 0.00183 0.19788 -0.14864
 H336 H -0.00571 0.18341 -0.14629
 N337 N 0.00432 0.23304 -0.14003
 C338 C -0.02060 0.29373 -0.12911
 H339 H -0.02157 0.29307 -0.11266
 C340 C -0.02733 0.31104 -0.13942
 H341 H -0.03370 0.32358 -0.13077
 C342 C -0.01159 0.27782 -0.16026
 H343 H -0.00555 0.26478 -0.16830
 C344 C -0.01822 0.29487 -0.17123
 H345 H -0.01696 0.29488 -0.18768
 Zn346 Zn -0.00393 0.25528 -0.12363
 N347 N -0.01267 0.27769 -0.13956
 C348 C 0.02660 0.28189 -0.11020
 N349 N 0.01878 0.26286 -0.10811
 C350 C 0.02777 0.24865 -0.09603
 C351 C 0.04521 0.25347 -0.08525
 C352 C 0.04400 0.28733 -0.09977
 C353 C -0.04399 0.24393 -0.11621
 C354 C -0.06126 0.23777 -0.10515
 C355 C -0.04191 0.23979 -0.07441
 C356 C -0.02504 0.24604 -0.08615
 N357 N -0.02628 0.24761 -0.10669
 H358 H 0.01960 0.29286 -0.12023
 H359 H 0.02150 0.23348 -0.09499
 H360 H 0.05233 0.24191 -0.07591
 H361 H 0.04988 0.30262 -0.10155
 H362 H -0.04456 0.24537 -0.13261
 H363 H -0.07438 0.23391 -0.11393
 H364 H -0.04013 0.23951 -0.05811
 H365 H -0.01099 0.24968 -0.07877
 C366 C -0.02608 0.31184 -0.16077
 C367 C 0.01909 0.19958 -0.16149
 C368 C -0.06065 0.23524 -0.08371
 C369 C 0.05362 0.27301 -0.08718
 C370 C 0.47325 0.23523 0.15392
 H371 H 0.46545 0.24976 0.15442
 C372 C 0.46520 0.21856 0.16464
 H373 H 0.45135 0.22047 0.17366
 C374 C 0.50050 0.21499 0.14109
 H375 H 0.51389 0.21344 0.13141
 C376 C 0.49301 0.19796 0.15156
 H377 H 0.50082 0.18352 0.14979
 N378 N 0.49057 0.23317 0.14240
 C379 C 0.51526 0.29393 0.13170
 H380 H 0.51732 0.29316 0.11535
 C381 C 0.52103 0.31134 0.14201
 H382 H 0.52776 0.32386 0.13348
 C383 C 0.50444 0.27819 0.16263
 H384 H 0.49806 0.26518 0.17058
 C385 C 0.51008 0.29535 0.17360
 H386 H 0.50773 0.29548 0.18995
 Zn387 Zn 0.49934 0.25547 0.12606
 N388 N 0.50686 0.27793 0.14202
 C389 C 0.46967 0.28209 0.10980
 N390 N 0.47742 0.26288 0.10916
 C391 C 0.46893 0.24835 0.09745
 C392 C 0.45207 0.25300 0.08558
 C393 C 0.45293 0.28741 0.09813
 C394 C 0.53992 0.24408 0.12069
 C395 C 0.55767 0.23806 0.11035
 C396 C 0.53964 0.24065 0.07872
 C397 C 0.52220 0.24666 0.08970
 N398 N 0.52258 0.24793 0.11034
 H399 H 0.47617 0.29329 0.11964
 H400 H 0.47518 0.23309 0.09750
 H401 H 0.44553 0.24128 0.07630
 H402 H 0.44679 0.30269 0.09915
 H403 H 0.53981 0.24539 0.13709
 H404 H 0.57113 0.23450 0.11896
 H405 H 0.53909 0.23964 0.06231
 H406 H 0.50840 0.25022 0.08171
 C407 C 0.51833 0.31229 0.16323
 C408 C 0.47501 0.19954 0.16336
 C409 C 0.55765 0.23612 0.08908
 C410 C 0.44387 0.27277 0.08584
 C411 C 0.97156 0.73567 0.65451
 H412 H 0.96382 0.75024 0.65487
 C413 C 0.96345 0.71913 0.66539
 H414 H 0.94962 0.72118 0.67440
 C415 C 0.99873 0.71521 0.64187
 H416 H 1.01212 0.71353 0.63222
 C417 C 0.99118 0.69831 0.65251
 H418 H 0.99895 0.68383 0.65088
 N419 N 0.98888 0.73344 0.64302
 C420 C 1.01388 0.79402 0.63207
 H421 H 1.01593 0.79320 0.61572
 C422 C 1.01975 0.81143 0.64233
 H423 H 1.02654 0.82389 0.63376
 C424 C 1.00299 0.77843 0.66305
 H425 H 0.99656 0.76547 0.67105
 C426 C 1.00874 0.79558 0.67397
 H427 H 1.00642 0.79576 0.69032
 Zn428 Zn 0.99782 0.75560 0.62657
 N429 N 1.00541 0.77810 0.64244
 C430 C 0.96834 0.78228 0.61006
 N431 N 0.97601 0.76303 0.60955
 C432 C 0.96753 0.74850 0.59783
 C433 C 0.95078 0.75318 0.58583
 C434 C 0.95171 0.78763 0.59825
 C435 C 1.03834 0.74396 0.62144
 C436 C 1.05611 0.73782 0.61121
 C437 C 1.03826 0.74037 0.57948
 C438 C 1.02080 0.74651 0.59035
 N439 N 1.02108 0.74786 0.61099
 H440 H 0.97482 0.79348 0.61990
 H441 H 0.97371 0.73321 0.59797
 H442 H 0.94425 0.74146 0.57653
 H443 H 0.94563 0.80295 0.59917
 H444 H 1.03817 0.74535 0.63784
 H445 H 1.06951 0.73423 0.61990
 H446 H 1.03777 0.73931 0.56307
 H447 H 1.00705 0.75012 0.58228
 C448 C 1.01708 0.81244 0.66355
 C449 C 0.97320 0.70007 0.66431
 C450 C 1.05618 0.73579 0.58995
 C451 C 0.94267 0.77300 0.58595
 C452 C 0.51860 0.73584 0.34820
 H453 H 0.52607 0.75043 0.34680
 C454 C 0.52600 0.71923 0.33709
 H455 H 0.53900 0.72126 0.32688
 C456 C 0.49287 0.71540 0.36360
 H457 H 0.48035 0.71375 0.37439
 C458 C 0.49974 0.69843 0.35279
 H459 H 0.49234 0.68394 0.35542
 N460 N 0.50233 0.73364 0.36116
 C461 C 0.47769 0.79435 0.37256
 H462 H 0.47705 0.79365 0.38902
 C463 C 0.47071 0.81167 0.36244
 H464 H 0.46419 0.82370 0.37162
 C465 C 0.48583 0.77843 0.34129
 H466 H 0.49174 0.76540 0.33313
 C467 C 0.47893 0.79545 0.33047
 H468 H 0.48042 0.79517 0.31407
 Zn469 Zn 0.49449 0.75593 0.37770
 N470 N 0.48533 0.77831 0.36197
 C471 C 0.52535 0.78259 0.39040
 N472 N 0.51759 0.76353 0.39261
 C473 C 0.52685 0.74931 0.40447
 C474 C 0.54446 0.75415 0.41497
 C475 C 0.54291 0.78805 0.40055
 C476 C 0.45463 0.74430 0.38626
 C477 C 0.43775 0.73816 0.39793
 C478 C 0.45793 0.74093 0.42811
 C479 C 0.47446 0.74709 0.41583
 N480 N 0.47260 0.74831 0.39527
 H481 H 0.51812 0.79355 0.38055
 H482 H 0.52062 0.73413 0.40561
 H483 H 0.55176 0.74259 0.42417
 H484 H 0.54871 0.80336 0.39873
 H485 H 0.45355 0.74558 0.36989
 H486 H 0.42376 0.73448 0.39036
 H487 H 0.45966 0.73993 0.44444
 H488 H 0.48873 0.75080 0.42276
 C489 C 0.47131 0.81269 0.34095
 C490 C 0.51664 0.70015 0.33946
 C491 C 0.43931 0.73625 0.41914
 C492 C 0.55276 0.77373 0.41297
 C493 C 0.39568 -0.01748 0.26865
 H494 H 0.39575 -0.00286 0.27609
 C495 C 0.40686 -0.03374 0.27665
 H496 H 0.41567 -0.03163 0.29023
 C497 C 0.38343 -0.03842 0.24241
 H498 H 0.37389 -0.04038 0.22940
 C499 C 0.39437 -0.05504 0.24990
 H500 H 0.39336 -0.06965 0.24250
 N501 N 0.38428 -0.02007 0.25181
 C502 C 0.37337 0.04014 0.22555
 H503 H 0.35702 0.03922 0.22400
 C504 C 0.38370 0.05759 0.21906
 H505 H 0.37530 0.07017 0.21246
 C506 C 0.40428 0.02487 0.23609
 H507 H 0.41223 0.01204 0.24262
 C508 C 0.41523 0.04210 0.22977
 H509 H 0.43159 0.04254 0.23155
 Zn510 Zn 0.36775 0.00187 0.24294
 N511 N 0.38368 0.02436 0.23415
 C512 C 0.35175 0.02886 0.27253
 N513 N 0.35077 0.00957 0.26526
 C514 C 0.33883 -0.00475 0.27460
 C515 C 0.32717 0.00018 0.29195
 C516 C 0.34035 0.03440 0.28975
 C517 C 0.36276 -0.01027 0.20301
 C518 C 0.35258 -0.01648 0.18573
 C519 C 0.32069 -0.01369 0.20458
 C520 C 0.33149 -0.00750 0.22156
 N521 N 0.35219 -0.00620 0.22053
 H522 H 0.36171 0.03989 0.26531
 H523 H 0.33864 -0.02008 0.26875
 H524 H 0.31789 -0.01132 0.29946
 H525 H 0.34144 0.04973 0.29554
 H526 H 0.37918 -0.00886 0.20257
 H527 H 0.36116 -0.01994 0.17193
 H528 H 0.30425 -0.01494 0.20552
 H529 H 0.32335 -0.00382 0.23550
 C530 C 0.40478 0.05864 0.22131
 C531 C 0.40609 -0.05271 0.26724
 C532 C 0.33138 -0.01832 0.18656
 C533 C 0.32804 0.01995 0.29960
 C534 C 0.09407 1.02447 0.77614
 H535 H 0.09283 1.01001 0.78404
 C536 C 0.08341 1.04144 0.78350
 H537 H 0.07383 1.04005 0.79706
 C538 C 0.10865 1.04424 0.74928
 H539 H 0.11889 1.04546 0.73627
 C540 C 0.09828 1.06155 0.75612
 H541 H 0.10041 1.07593 0.74821
 N542 N 0.10635 1.02614 0.75927
 C543 C 0.11500 0.96499 0.73516
 H544 H 0.13146 0.96497 0.73380
 C545 C 0.10403 0.94818 0.72879
 H546 H 0.11204 0.93515 0.72249
 C547 C 0.08445 0.98211 0.74483
 H548 H 0.07691 0.99546 0.75087
 C549 C 0.07286 0.96556 0.73860
 H550 H 0.05639 0.96615 0.73995
 Zn551 Zn 0.12195 1.00319 0.75101
 N552 N 0.10516 0.98142 0.74319
 C553 C 0.13620 0.97599 0.78124
 N554 N 0.13810 0.99507 0.77324
 C555 C 0.15091 1.00887 0.78143
 C556 C 0.16285 1.00347 0.79803
 C557 C 0.14783 0.96999 0.79780
 C558 C 0.12860 1.01451 0.71055
 C559 C 0.13959 1.01996 0.69296
 C560 C 0.17079 1.01532 0.71139
 C561 C 0.15920 1.00993 0.72868
 N562 N 0.13848 1.00998 0.72803
 H563 H 0.12556 0.96541 0.77494
 H564 H 0.15184 1.02406 0.77502
 H565 H 0.17309 1.01448 0.80441
 H566 H 0.14626 0.95474 0.80401
 H567 H 0.11213 1.01414 0.71041
 H568 H 0.13157 1.02391 0.67922
 H569 H 0.18726 1.01559 0.71207
 H570 H 0.16678 1.00583 0.74257
 C571 C 0.08279 0.94843 0.73057
 C572 C 0.08562 1.06016 0.77343
 C573 C 0.16085 1.02051 0.69343
 C574 C 0.16131 0.98381 0.80622
 C575 C 0.59155 0.52515 0.27681
 H576 H 0.59034 0.51066 0.28468
 C577 C 0.58065 0.54202 0.28407
 H578 H 0.57092 0.54052 0.29750
 C579 C 0.60636 0.54510 0.25021
 H580 H 0.61678 0.54645 0.23736
 C581 C 0.59575 0.56230 0.25694
 H582 H 0.59788 0.57673 0.24910
 N583 N 0.60408 0.52696 0.26014
 C584 C 0.61398 0.46592 0.23613
 H585 H 0.63045 0.46612 0.23504
 C586 C 0.60335 0.44897 0.22957
 H587 H 0.61163 0.43604 0.22340
 C588 C 0.58306 0.48264 0.24529
 H589 H 0.57523 0.49588 0.25122
 C590 C 0.57180 0.46593 0.23887
 H591 H 0.55531 0.46630 0.23996
 Zn592 Zn 0.62012 0.50422 0.25214
 N593 N 0.60378 0.48222 0.24399
 C594 C 0.63430 0.47719 0.28260
 N595 N 0.63595 0.49633 0.27469
 C596 C 0.64829 0.51037 0.28315
 C597 C 0.66004 0.50518 0.29996
 C598 C 0.64575 0.47139 0.29936
 C599 C 0.62752 0.51574 0.21182
 C600 C 0.63885 0.52143 0.19451
 C601 C 0.66963 0.51712 0.21368
 C602 C 0.65771 0.51149 0.23067
 N603 N 0.63703 0.51126 0.22952
 H604 H 0.62402 0.46640 0.27607
 H605 H 0.64903 0.52559 0.27679
 H606 H 0.66993 0.51638 0.30654
 H607 H 0.64440 0.45609 0.30551
 H608 H 0.61107 0.51515 0.21127
 H609 H 0.63112 0.52533 0.18059
 H610 H 0.68607 0.51760 0.21476
 H611 H 0.66501 0.50743 0.24471
 C612 C 0.58208 0.44893 0.23100
 C613 C 0.58287 0.56078 0.27408
 C614 C 0.66007 0.52227 0.19550
 C615 C 0.65877 0.48547 0.30806
 C616 C 0.89619 0.48256 0.77007
 H617 H 0.89614 0.49702 0.77780
 C618 C 0.90771 0.46632 0.77759
 H619 H 0.91666 0.46828 0.79109
 C620 C 0.88391 0.46198 0.74356
 H621 H 0.87422 0.46013 0.73064
 C622 C 0.89520 0.44537 0.75057
 H623 H 0.89430 0.43090 0.74288
 N624 N 0.88460 0.48014 0.75333
 C625 C 0.87236 0.54073 0.72859
 H626 H 0.85599 0.53969 0.72738
 C627 C 0.88239 0.55837 0.72215
 H628 H 0.87374 0.57098 0.71594
 C629 C 0.90366 0.52555 0.73810
 H630 H 0.91189 0.51266 0.74418
 C631 C 0.91431 0.54296 0.73182
 H632 H 0.93072 0.54349 0.73316
 Zn633 Zn 0.86758 0.50198 0.74515
 N634 N 0.88302 0.52489 0.73663
 C635 C 0.85145 0.52798 0.77561
 N636 N 0.85078 0.50887 0.76786
 C637 C 0.83932 0.49406 0.77702
 C638 C 0.82788 0.49828 0.79469
 C639 C 0.84024 0.53283 0.79317
 C640 C 0.86228 0.49060 0.70504
 C641 C 0.85202 0.48442 0.68781
 C642 C 0.82033 0.48609 0.70714
 C643 C 0.83122 0.49227 0.72407
 N644 N 0.85186 0.49408 0.72278
 H645 H 0.86103 0.53941 0.76850
 H646 H 0.83938 0.47888 0.77079
 H647 H 0.81901 0.48637 0.80206
 H648 H 0.84110 0.54802 0.79936
 H649 H 0.87866 0.49240 0.70440
 H650 H 0.86049 0.48140 0.67383
 H651 H 0.80394 0.48440 0.70830
 H652 H 0.82319 0.49548 0.73820
 C653 C 0.90353 0.55955 0.72387
 C654 C 0.90710 0.44752 0.76780
 C655 C 0.83088 0.48202 0.68890
 C656 C 0.82844 0.51784 0.80286
 C657 C 0.27059 0.39717 -0.01374
 H658 H 0.27821 0.39758 0.00069
 C659 C 0.27850 0.40809 -0.03044
 H660 H 0.29219 0.41702 -0.02886
 C661 C 0.24399 0.38433 -0.03379
 H662 H 0.23089 0.37465 -0.03525
 C663 C 0.25138 0.39500 -0.05083
 H664 H 0.24380 0.39364 -0.06524
 N665 N 0.25362 0.38559 -0.01569
 C666 C 0.22793 0.37544 0.04536
 H667 H 0.22644 0.35906 0.04497
 C668 C 0.22143 0.38611 0.06258
 H669 H 0.21490 0.37795 0.07553
 C670 C 0.23817 0.40610 0.02892
 H671 H 0.24455 0.41383 0.01571
 C672 C 0.23185 0.41738 0.04589
 H673 H 0.23345 0.43378 0.04574
 Zn674 Zn 0.24490 0.36931 0.00677
 N675 N 0.23634 0.38548 0.02909
 C676 C 0.27473 0.35386 0.03338
 N677 N 0.26727 0.35274 0.01425
 C678 C 0.27649 0.34096 -0.00021
 C679 C 0.29391 0.32961 0.00440
 C680 C 0.29204 0.34276 0.03861
 C681 C 0.20478 0.36358 -0.00451
 C682 C 0.18764 0.35313 -0.01088
 C683 C 0.20670 0.32167 -0.00848
 C684 C 0.22353 0.33273 -0.00213
 N685 N 0.22237 0.35335 -0.00066
 H686 H 0.26759 0.36370 0.04452
 H687 H 0.27050 0.34067 -0.01542
 H688 H 0.30132 0.32046 -0.00724
 H689 H 0.29801 0.34395 0.05380
 H690 H 0.20424 0.37995 -0.00301
 H691 H 0.17384 0.36147 -0.01435
 H692 H 0.20782 0.30531 -0.01005
 H693 H 0.23753 0.32485 0.00136
 C694 C 0.22351 0.40725 0.06290
 C695 C 0.26886 0.40688 -0.04918
 C696 C 0.18867 0.33202 -0.01308
 C697 C 0.30177 0.33061 0.02398
 C698 C 0.77439 0.09495 1.02616
 H699 H 0.78230 0.09379 1.01161
 C700 C 0.78131 0.08386 1.04293
 H701 H 0.79453 0.07403 1.04129
 C702 C 0.74802 0.10980 1.04639
 H703 H 0.73540 0.12031 1.04787
 C704 C 0.75443 0.09900 1.06350
 H705 H 0.74657 0.10107 1.07800
 N706 N 0.75799 0.10759 1.02816
 C707 C 0.73456 0.11835 0.96732
 H708 H 0.73385 0.13479 0.96771
 C709 C 0.72783 0.10805 0.95029
 H710 H 0.72191 0.11656 0.93749
 C711 C 0.74292 0.08716 0.98365
 H712 H 0.74860 0.07911 0.99678
 C713 C 0.73631 0.07622 0.96685
 H714 H 0.73699 0.05976 0.96703
 Zn715 Zn 0.75048 0.12387 1.00555
 N716 N 0.74210 0.10787 0.98347
 C717 C 0.78152 0.13784 0.97844
 N718 N 0.77346 0.13959 0.99759
 C719 C 0.78211 0.15186 1.01156
 C720 C 0.79930 0.16339 1.00626
 C721 C 0.79865 0.14907 0.97254
 C722 C 0.71020 0.13126 1.01724
 C723 C 0.69296 0.14253 1.02289
 C724 C 0.71267 0.17330 1.01869
 C725 C 0.72958 0.16143 1.01310
 N726 N 0.72812 0.14078 1.01280
 H727 H 0.77484 0.12761 0.96772
 H728 H 0.77563 0.15267 1.02680
 H729 H 0.80605 0.17321 1.01740
 H730 H 0.80491 0.14761 0.95723
 H731 H 0.70941 0.11485 1.01659
 H732 H 0.67884 0.13479 1.02669
 H733 H 0.71397 0.18971 1.01917
 H734 H 0.74381 0.16874 1.00907
 C735 C 0.72876 0.08681 0.95001
 C736 C 0.77128 0.08600 1.06179
 C737 C 0.69424 0.16372 1.02374
 C738 C 0.80758 0.16199 0.98654
 C739 C 0.27349 0.59475 0.52783
 H740 H 0.28143 0.59366 0.51329
 C741 C 0.28053 0.58378 0.54463
 H742 H 0.29387 0.57411 0.54302
 C743 C 0.24695 0.60935 0.54801
 H744 H 0.23423 0.61974 0.54947
 C745 C 0.25348 0.59867 0.56515
 H746 H 0.24560 0.60071 0.57964
 N747 N 0.25697 0.60723 0.52979
 C748 C 0.23371 0.61809 0.46890
 H749 H 0.23286 0.63452 0.46939
 C750 C 0.22718 0.60785 0.45176
 H751 H 0.22127 0.61640 0.43898
 C752 C 0.24227 0.58687 0.48506
 H753 H 0.24797 0.57878 0.49816
 C754 C 0.23586 0.57599 0.46814
 H755 H 0.23672 0.55953 0.46819
 Zn756 Zn 0.24944 0.62353 0.50721
 N757 N 0.24127 0.60757 0.48501
 C758 C 0.28052 0.63783 0.48030
 N759 N 0.27235 0.63940 0.49943
 C760 C 0.28089 0.65159 0.51353
 C761 C 0.29805 0.66322 0.50842
 C762 C 0.29763 0.64916 0.47458
 C763 C 0.20907 0.63070 0.51879
 C764 C 0.19177 0.64189 0.52439
 C765 C 0.21136 0.67274 0.52030
 C766 C 0.22834 0.66095 0.51476
 N767 N 0.22696 0.64030 0.51442
 H768 H 0.27393 0.62766 0.46946
 H769 H 0.27432 0.65227 0.52875
 H770 H 0.30472 0.67296 0.51968
 H771 H 0.30399 0.64784 0.45930
 H772 H 0.20835 0.61428 0.51811
 H773 H 0.17766 0.63410 0.52812
 H774 H 0.21260 0.68916 0.52080
 H775 H 0.24256 0.66833 0.51079
 C776 C 0.22831 0.58663 0.45133
 C777 C 0.27049 0.58588 0.56348
 C778 C 0.19296 0.66309 0.52527
 C779 C 0.30645 0.66199 0.48873
 C780 C 0.77010 0.89803 0.48534
 H781 H 0.77777 0.89849 0.49975
 C782 C 0.77798 0.90886 0.46856
 H783 H 0.79168 0.91778 0.47005
 C784 C 0.74343 0.88511 0.46544
 H785 H 0.73032 0.87542 0.46407
 C786 C 0.75078 0.89569 0.44833
 H787 H 0.74316 0.89425 0.43395
 N788 N 0.75312 0.88644 0.48350
 C789 C 0.72757 0.87637 0.54463
 H790 H 0.72604 0.86000 0.54422
 C791 C 0.72115 0.88703 0.56188
 H792 H 0.71463 0.87887 0.57483
 C793 C 0.73788 0.90703 0.52822
 H794 H 0.74426 0.91475 0.51501
 C795 C 0.73163 0.91830 0.54522
 H796 H 0.73329 0.93469 0.54510
 Zn797 Zn 0.74446 0.87022 0.50602
 N798 N 0.73599 0.88641 0.52836
 C799 C 0.77433 0.85477 0.53259
 N800 N 0.76684 0.85364 0.51347
 C801 C 0.77601 0.84181 0.49902
 C802 C 0.79339 0.83041 0.50363
 C803 C 0.79160 0.84362 0.53782
 C804 C 0.70430 0.86450 0.49488
 C805 C 0.68715 0.85406 0.48855
 C806 C 0.70620 0.82259 0.49089
 C807 C 0.72305 0.83364 0.49721
 N808 N 0.72190 0.85426 0.49869
 H809 H 0.76723 0.86465 0.54372
 H810 H 0.76999 0.84151 0.48382
 H811 H 0.80075 0.82121 0.49200
 H812 H 0.79759 0.84481 0.55301
 H813 H 0.70378 0.88087 0.49639
 H814 H 0.67334 0.86240 0.48511
 H815 H 0.70731 0.80623 0.48930
 H816 H 0.73705 0.82575 0.50066
 C817 C 0.72330 0.90816 0.56223
 C818 C 0.76827 0.90755 0.44986
 C819 C 0.68817 0.83295 0.48633
 C820 C 0.80127 0.83141 0.52321
 C821 C -0.01512 0.26899 0.39467
 H822 H -0.00049 0.27647 0.39503
 C823 C -0.03167 0.27681 0.40587
 H824 H -0.02978 0.29029 0.41499
 C825 C -0.03578 0.24281 0.38168
 H826 H -0.03751 0.22989 0.37185
 C827 C -0.05268 0.25012 0.39264
 H828 H -0.06728 0.24268 0.39135
 N829 N -0.01743 0.25226 0.38289
 C830 C 0.04310 0.22621 0.37202
 H831 H 0.04267 0.22487 0.35564
 C832 C 0.06022 0.21957 0.38246
 H833 H 0.07305 0.21307 0.37411
 C834 C 0.02688 0.23631 0.40294
 H835 H 0.01381 0.24271 0.41085
 C836 C 0.04376 0.22984 0.41398
 H837 H 0.04368 0.23135 0.43039
 Zn838 Zn 0.00492 0.24361 0.36636
 N839 N 0.02700 0.23465 0.38230
 C840 C 0.03238 0.27339 0.35132
 N841 N 0.01308 0.26613 0.35003
 C842 C -0.00101 0.27570 0.33834
 C843 C 0.00418 0.29328 0.32730
 C844 C 0.03819 0.29085 0.34054
 C845 C -0.00716 0.20374 0.36035
 C846 C -0.01362 0.18672 0.34980
 C847 C -0.01061 0.20605 0.31843
 C848 C -0.00416 0.22277 0.32960
 N849 N -0.00291 0.22140 0.35022
 H850 H 0.04322 0.26600 0.36109
 H851 H -0.01637 0.26985 0.33791
 H852 H -0.00716 0.30098 0.31824
 H853 H 0.05351 0.29665 0.34190
 H854 H -0.00582 0.20304 0.37673
 H855 H -0.01734 0.17285 0.35806
 H856 H -0.01195 0.20731 0.30206
 H857 H -0.00037 0.23682 0.32180
 C858 C 0.06062 0.22152 0.40360
 C859 C -0.05064 0.26733 0.40475
 C860 C -0.01553 0.18793 0.32868
 C861 C 0.02395 0.30095 0.32852
 C862 C 1.02643 0.77267 0.09103
 H863 H 1.01190 0.78035 0.08966
 C864 C 1.04349 0.77988 0.08016
 H865 H 1.04209 0.79308 0.07029
 C866 C 1.04630 0.74662 0.10620
 H867 H 1.04750 0.73401 0.11675
 C868 C 1.06370 0.75332 0.09562
 H869 H 1.07816 0.74570 0.09791
 N870 N 1.02811 0.75630 0.10372
 C871 C 0.96682 0.73220 0.11339
 H872 H 0.96662 0.73150 0.12984
 C873 C 0.95006 0.72542 0.10271
 H874 H 0.93689 0.71947 0.11094
 C875 C 0.98430 0.74067 0.08253
 H876 H 0.99776 0.74644 0.07476
 C877 C 0.96781 0.73402 0.07123
 H878 H 0.96855 0.73477 0.05476
 Zn879 Zn 1.00500 0.74857 0.11965
 N880 N 0.98340 0.73985 0.10325
 C881 C 0.97756 0.77935 0.13280
 N882 N 0.99665 0.77153 0.13496
 C883 C 1.01034 0.78049 0.14729
 C884 C 1.00485 0.79779 0.15841
 C885 C 0.97148 0.79658 0.14361
 C886 C 1.01645 0.70854 0.12783
 C887 C 1.02161 0.69152 0.13951
 C888 C 1.01620 0.71147 0.16988
 C889 C 1.01112 0.72815 0.15762
 N890 N 1.01164 0.72647 0.13698
 H891 H 0.96707 0.77242 0.12253
 H892 H 1.02553 0.77419 0.14843
 H893 H 1.01578 0.80482 0.16823
 H894 H 0.95625 0.80268 0.14180
 H895 H 1.01645 0.70756 0.11140
 H896 H 1.02570 0.67739 0.13208
 H897 H 1.01600 0.71295 0.18629
 H898 H 1.00681 0.74238 0.16462
 C899 C 0.95051 0.72641 0.08145
 C900 C 1.06231 0.77016 0.08258
 C901 C 1.02159 0.69304 0.16071
 C902 C 0.98521 0.80586 0.15654
 C903 C 0.52519 0.27186 0.59143
 H904 H 0.51065 0.27953 0.59013
 C905 C 0.54224 0.27923 0.58068
 H906 H 0.54083 0.29255 0.57098
 C907 C 0.54507 0.24565 0.60631
 H908 H 0.54628 0.23292 0.61670
 C909 C 0.56248 0.25252 0.59585
 H910 H 0.57695 0.24490 0.59806
 N911 N 0.52688 0.25534 0.60392
 C912 C 0.46562 0.23107 0.61330
 H913 H 0.46548 0.23010 0.62974
 C914 C 0.44879 0.22457 0.60256
 H915 H 0.43562 0.21854 0.61074
 C916 C 0.48301 0.24005 0.58253
 H917 H 0.49644 0.24595 0.57481
 C918 C 0.46643 0.23369 0.57117
 H919 H 0.46709 0.23478 0.55472
 Zn920 Zn 0.50375 0.24743 0.61974
 N921 N 0.48217 0.23887 0.60323
 C922 C 0.47624 0.27805 0.63305
 N923 N 0.49532 0.27025 0.63522
 C924 C 0.50895 0.27913 0.64767
 C925 C 0.50339 0.29633 0.65890
 C926 C 0.47008 0.29518 0.64397
 C927 C 0.51526 0.20734 0.62765
 C928 C 0.52038 0.19025 0.63924
 C929 C 0.51476 0.20997 0.66973
 C930 C 0.50974 0.22673 0.65756
 N931 N 0.51038 0.22520 0.63690
 H932 H 0.46580 0.27119 0.62269
 H933 H 0.52416 0.27285 0.64881
 H934 H 0.51428 0.30331 0.66881
 H935 H 0.45485 0.30127 0.64214
 H936 H 0.51535 0.20649 0.61122
 H937 H 0.52453 0.17617 0.63173
 H938 H 0.51447 0.21133 0.68615
 H939 H 0.50536 0.24090 0.66464
 C940 C 0.44914 0.22599 0.58133
 C941 C 0.56108 0.26952 0.58302
 C942 C 0.52023 0.19161 0.66045
 C943 C 0.48374 0.30438 0.65702
 C944 C 0.48737 0.76724 0.89532
 H945 H 0.50196 0.77480 0.89563
 C946 C 0.47079 0.77502 0.90651
 H947 H 0.47262 0.78856 0.91557
 C948 C 0.46685 0.74090 0.88245
 H949 H 0.46517 0.72794 0.87266
 C950 C 0.44991 0.74817 0.89340
 H951 H 0.43535 0.74064 0.89214
 N952 N 0.48514 0.75046 0.88360
 C953 C 0.54581 0.72479 0.87262
 H954 H 0.54536 0.72346 0.85624
 C955 C 0.56298 0.71818 0.88301
 H956 H 0.57580 0.71171 0.87464
 C957 C 0.52961 0.73479 0.90357
 H958 H 0.51652 0.74112 0.91152
 C959 C 0.54652 0.72835 0.91458
 H960 H 0.54645 0.72981 0.93099
 Zn961 Zn 0.50750 0.74189 0.86704
 N962 N 0.52970 0.73315 0.88293
 C963 C 0.53468 0.77182 0.85174
 N964 N 0.51543 0.76439 0.85056
 C965 C 0.50122 0.77375 0.83886
 C966 C 0.50622 0.79130 0.82768
 C967 C 0.54030 0.78925 0.84081
 C968 C 0.49568 0.70192 0.86129
 C969 C 0.48944 0.68475 0.85084
 C970 C 0.49232 0.70389 0.81934
 C971 C 0.49855 0.72076 0.83041
 N972 N 0.49978 0.71955 0.85105
 H973 H 0.54561 0.76458 0.86152
 H974 H 0.48591 0.76777 0.83852
 H975 H 0.49479 0.79884 0.81861
 H976 H 0.55558 0.79519 0.84207
 H977 H 0.49701 0.70134 0.87767
 H978 H 0.48589 0.67088 0.85918
 H979 H 0.49106 0.70500 0.80296
 H980 H 0.50223 0.73480 0.82253
 C981 C 0.56339 0.72007 0.90417
 C982 C 0.45187 0.76544 0.90543
 C983 C 0.48760 0.68578 0.82971
 C984 C 0.52594 0.79914 0.82877
 C985 C 0.45002 -0.15336 0.30016
 C986 C 0.44946 -0.13461 0.30999
 C987 C 0.45656 -0.13315 0.32979
 C988 C 0.46394 -0.15037 0.33988
 C989 C 0.46436 -0.16964 0.33039
 C990 C 0.45744 -0.17068 0.31016
 C991 C 0.44102 -0.11693 0.30009
 C992 C 0.43364 -0.10208 0.29219
 C993 C 0.42456 -0.08473 0.28328
 C994 C 0.41640 -0.07003 0.27589
 H995 H 0.44439 -0.15469 0.28484
 H996 H 0.45636 -0.11864 0.33751
 H997 H 0.46987 -0.14820 0.35492
 H998 H 0.45671 -0.18494 0.30216
 C999 C 0.94809 0.34587 0.80039
 C1000 C 0.95181 0.36520 0.80826
 C1001 C 0.96332 0.36710 0.82581
 C1002 C 0.97082 0.34977 0.83566
 C1003 C 0.96685 0.33025 0.82810
 C1004 C 0.95559 0.32850 0.81021
 C1005 C 0.94313 0.38303 0.79887
 C1006 C 0.93552 0.39798 0.79139
 C1007 C 0.92617 0.41542 0.78296
 C1008 C 0.91774 0.43018 0.77597
 H1009 H 0.93910 0.34422 0.78686
 H1010 H 0.96631 0.38198 0.83203
 H1011 H 0.97969 0.35164 0.84922
 H1012 H 0.95211 0.31368 0.80414
 C1013 C 0.02262 1.14899 0.81112
 C1014 C 0.04370 1.14568 0.81043
 C1015 C 0.05676 1.16030 0.81826
 C1016 C 0.04879 1.17803 0.82701
 C1017 C 0.02760 1.18136 0.82808
 C1018 C 0.01461 1.16671 0.81987
 C1019 C 0.05195 1.12710 0.80215
 C1020 C 0.05911 1.11156 0.79545
 C1021 C 0.06786 1.09345 0.78776
 C1022 C 0.07571 1.07814 0.78124
 H1023 H 0.01237 1.13780 0.80506
 H1024 H 0.07310 1.15787 0.81787
 H1025 H 0.05918 1.18884 0.83344
 H1026 H -0.00175 1.16893 0.82025
 C1027 C 0.51973 0.64938 0.31236
 C1028 C 0.54081 0.64620 0.31113
 C1029 C 0.55399 0.66097 0.31848
 C1030 C 0.54615 0.67870 0.32731
 C1031 C 0.52497 0.68191 0.32893
 C1032 C 0.51184 0.66711 0.32119
 C1033 C 0.54897 0.62760 0.30280
 C1034 C 0.55611 0.61206 0.29607
 C1035 C 0.56488 0.59396 0.28837
 C1036 C 0.57281 0.57870 0.28186
 H1037 H 0.50938 0.63808 0.30667
 H1038 H 0.57034 0.65863 0.31767
 H1039 H 0.55666 0.68963 0.33338
 H1040 H 0.49548 0.66924 0.32200
 C1041 C 0.54121 0.34688 0.20263
 C1042 C 0.53769 0.36608 0.19397
 C1043 C 0.52712 0.36773 0.17576
 C1044 C 0.52045 0.35025 0.16601
 C1045 C 0.52431 0.33084 0.17433
 C1046 C 0.53452 0.32935 0.19291
 C1047 C 0.54589 0.38404 0.20307
 C1048 C 0.55326 0.39911 0.21015
 C1049 C 0.56253 0.41668 0.21787
 C1050 C 0.57107 0.43153 0.22405
 H1051 H 0.54950 0.34542 0.21666
 H1052 H 0.52432 0.38251 0.16891
 H1053 H 0.51236 0.35191 0.15189
 H1054 H 0.53788 0.31462 0.19958
 C1055 C 0.04038 0.84690 0.70280
 C1056 C 0.03701 0.86612 0.69411
 C1057 C 0.02639 0.86782 0.67594
 C1058 C 0.01952 0.85039 0.66625
 C1059 C 0.02323 0.83097 0.67460
 C1060 C 0.03349 0.82941 0.69314
 C1061 C 0.04546 0.88400 0.70312
 C1062 C 0.05306 0.89899 0.71011
 C1063 C 0.06262 0.91645 0.71772
 C1064 C 0.07143 0.93118 0.72379
 H1065 H 0.04871 0.84539 0.71681
 H1066 H 0.02371 0.88262 0.66906
 H1067 H 0.01141 0.85210 0.65215
 H1068 H 0.03674 0.81467 0.69984
 C1069 C 0.93470 0.66079 0.68269
 C1070 C 0.94735 0.64606 0.69144
 C1071 C 0.96837 0.64934 0.69208
 C1072 C 0.97676 0.66712 0.68369
 C1073 C 0.96421 0.68186 0.67451
 C1074 C 0.94305 0.67857 0.67430
 C1075 C 0.93877 0.62732 0.69911
 C1076 C 0.93131 0.61162 0.70517
 C1077 C 0.92218 0.59330 0.71192
 C1078 C 0.91396 0.57780 0.71746
 H1079 H 0.91841 0.65837 0.68203
 H1080 H 0.97830 0.63806 0.69884
 H1081 H 0.99307 0.66931 0.68430
 H1082 H 0.93301 0.68946 0.66709
 C1083 C 0.43654 0.15997 0.18115
 C1084 C 0.44919 0.14515 0.18974
 C1085 C 0.47021 0.14844 0.19046
 C1086 C 0.47858 0.16634 0.18232
 C1087 C 0.46603 0.18118 0.17331
 C1088 C 0.44488 0.17787 0.17301
 C1089 C 0.44060 0.12632 0.19718
 C1090 C 0.43310 0.11058 0.20306
 C1091 C 0.42385 0.09225 0.20962
 C1092 C 0.41547 0.07679 0.21503
 H1093 H 0.42026 0.15755 0.18044
 H1094 H 0.48014 0.13709 0.19711
 H1095 H 0.49489 0.16855 0.18300
 H1096 H 0.43483 0.18883 0.16593
 C1097 C 0.30417 0.46517 -0.14317
 C1098 C 0.31064 0.44693 -0.13417
 C1099 C 0.32657 0.43580 -0.14321
 C1100 C 0.33615 0.44293 -0.16104
 C1101 C 0.32993 0.46135 -0.17011
 C1102 C 0.31373 0.47234 -0.16104
 C1103 C 0.30109 0.43952 -0.11565
 C1104 C 0.29341 0.43286 -0.10017
 C1105 C 0.28471 0.42447 -0.08217
 C1106 C 0.27744 0.41677 -0.06699
 H1107 H 0.29184 0.47392 -0.13629
 H1108 H 0.33164 0.42160 -0.13645
 H1109 H 0.34836 0.43396 -0.16780
 H1110 H 0.30874 0.48667 -0.16754
 C1111 C 0.80286 0.96489 0.35506
 C1112 C 0.80977 0.94702 0.36446
 C1113 C 0.82610 0.93618 0.35578
 C1114 C 0.83564 0.94325 0.33790
 C1115 C 0.82898 0.96131 0.32843
 C1116 C 0.81238 0.97199 0.33713
 C1117 C 0.80029 0.93973 0.38306
 C1118 C 0.79267 0.93317 0.39862
 C1119 C 0.78404 0.92491 0.41671
 C1120 C 0.77682 0.91732 0.43197
 H1121 H 0.79023 0.97341 0.36166
 H1122 H 0.83151 0.92228 0.36286
 H1123 H 0.84817 0.93451 0.33142
 H1124 H 0.80705 0.98605 0.33032
 C1125 C 0.81099 0.05422 1.16299
 C1126 C 0.80745 0.04203 1.14613
 C1127 C 0.81260 0.02142 1.14679
 C1128 C 0.82166 0.01306 1.16403
 C1129 C 0.82591 0.02521 1.18112
 C1130 C 0.82002 0.04595 1.18031
 C1131 C 0.79917 0.05084 1.12792
 C1132 C 0.79254 0.05839 1.11262
 C1133 C 0.78503 0.06754 1.09473
 C1134 C 0.77874 0.07571 1.07959
 H1135 H 0.80716 0.07027 1.16260
 H1136 H 0.80972 0.01177 1.13388
 H1137 H 0.82481 -0.00309 1.16393
 H1138 H 0.82331 0.05631 1.19248
 C1139 C 0.31611 0.55606 0.66247
 C1140 C 0.30751 0.54326 0.64810
 C1141 C 0.30772 0.52218 0.65129
 C1142 C 0.31682 0.51391 0.66857
 C1143 C 0.32588 0.52664 0.68290
 C1144 C 0.32522 0.54783 0.67977
 C1145 C 0.29906 0.55173 0.62982
 C1146 C 0.29228 0.55902 0.61446
 C1147 C 0.28459 0.56787 0.59652
 C1148 C 0.27813 0.57582 0.58133
 H1149 H 0.31610 0.57240 0.66012
 H1150 H 0.30106 0.51213 0.64030
 H1151 H 0.31686 0.49756 0.67067
 H1152 H 0.33229 0.55801 0.69035
 C1153 C 0.19769 0.52867 0.35722
 C1154 C 0.19095 0.54647 0.36685
 C1155 C 0.17488 0.55772 0.35867
 C1156 C 0.16540 0.55112 0.34111
 C1157 C 0.17183 0.53312 0.33144
 C1158 C 0.18821 0.52204 0.33959
 C1159 C 0.20022 0.55330 0.38523
 C1160 C 0.20739 0.55972 0.40064
 C1161 C 0.21518 0.56810 0.41857
 C1162 C 0.22139 0.57607 0.43368
 H1163 H 0.21012 0.51984 0.36344
 H1164 H 0.16961 0.57157 0.36593
 H1165 H 0.15305 0.56016 0.33504
 H1166 H 0.19338 0.50803 0.33259
 C1167 C 0.69933 0.03164 0.85398
 C1168 C 0.68974 0.04583 0.86671
 C1169 C 0.67054 0.05341 0.86182
 C1170 C 0.66084 0.04679 0.84440
 C1171 C 0.67010 0.03228 0.83132
 C1172 C 0.68969 0.02496 0.83645
 C1173 C 0.69946 0.05293 0.88474
 C1174 C 0.70697 0.05954 0.89990
 C1175 C 0.71510 0.06810 0.91759
 C1176 C 0.72156 0.07618 0.93252
 H1177 H 0.71421 0.02562 0.85766
 H1178 H 0.66308 0.06463 0.87143
 H1179 H 0.64637 0.05382 0.84099
 H1180 H 0.69742 0.01341 0.82754
 C1181 C 0.70005 0.95567 0.66415
 C1182 C 0.68915 0.95568 0.64605
 C1183 C 0.66969 0.96438 0.64560
 C1184 C 0.66105 0.97292 0.66316
 C1185 C 0.67178 0.97291 0.68149
 C1186 C 0.69142 0.96423 0.68178
 C1187 C 0.69753 0.94620 0.62805
 C1188 C 0.70402 0.93803 0.61287
 C1189 C 0.71109 0.92811 0.59510
 C1190 C 0.71680 0.91927 0.58002
 H1191 H 0.71513 0.94894 0.66468
 H1192 H 0.66105 0.96433 0.63172
 H1193 H 0.64576 0.97912 0.66249
 H1194 H 0.70013 0.96414 0.69560
 C1195 C 0.20003 0.45509 0.16458
 C1196 C 0.18919 0.45514 0.14644
 C1197 C 0.16982 0.46404 0.14589
 C1198 C 0.16122 0.47274 0.16339
 C1199 C 0.17189 0.47268 0.18175
 C1200 C 0.19143 0.46380 0.18215
 C1201 C 0.19755 0.44554 0.12850
 C1202 C 0.20405 0.43727 0.11338
 C1203 C 0.21117 0.42727 0.09567
 C1204 C 0.21692 0.41838 0.08064
 H1205 H 0.21504 0.44821 0.16518
 H1206 H 0.16123 0.46404 0.13198
 H1207 H 0.14600 0.47910 0.16265
 H1208 H 0.20010 0.46367 0.19599
 C1209 C -0.15326 0.30064 0.44471
 C1210 C -0.13398 0.30872 0.44833
 C1211 C -0.13229 0.32654 0.45963
 C1212 C -0.14978 0.33644 0.46702
 C1213 C -0.16925 0.32865 0.46318
 C1214 C -0.17079 0.31051 0.45212
 C1215 C -0.11596 0.29920 0.43984
 C1216 C -0.10084 0.29157 0.43242
 C1217 C -0.08318 0.28296 0.42330
 C1218 C -0.06823 0.27578 0.41511
 H1219 H -0.15474 0.28689 0.43590
 H1220 H -0.11746 0.33292 0.46254
 H1221 H -0.14808 0.35020 0.47575
 H1222 H -0.18556 0.30426 0.44874
 C1223 C 0.34901 0.79854 0.94489
 C1224 C 0.36823 0.80681 0.94841
 C1225 C 0.36978 0.82486 0.95937
 C1226 C 0.35221 0.83480 0.96651
 C1227 C 0.33280 0.82682 0.96275
 C1228 C 0.33140 0.80846 0.95205
 C1229 C 0.38632 0.79726 0.94011
 C1230 C 0.40150 0.78964 0.93282
 C1231 C 0.41923 0.78103 0.92383
 C1232 C 0.43423 0.77386 0.91572
 H1233 H 0.34763 0.78462 0.93634
 H1234 H 0.38457 0.83138 0.96220
 H1235 H 0.35381 0.84874 0.97497
 H1236 H 0.31668 0.80205 0.94874
 C1237 C 1.16538 0.79890 0.03903
 C1238 C 1.14673 0.80935 0.03909
 C1239 C 1.14568 0.82902 0.03090
 C1240 C 1.16316 0.83826 0.02271
 C1241 C 1.18200 0.82794 0.02258
 C1242 C 1.18292 0.80813 0.03085
 C1243 C 1.12870 0.80016 0.04789
 C1244 C 1.11347 0.79287 0.05541
 C1245 C 1.09558 0.78471 0.06447
 C1246 C 1.08035 0.77799 0.07251
 H1247 H 1.16637 0.78366 0.04536
 H1248 H 1.13136 0.83730 0.03098
 H1249 H 1.16198 0.85364 0.01681
 H1250 H 1.19715 0.79973 0.03081
 C1251 C 0.66399 0.29931 0.53972
 C1252 C 0.64534 0.30975 0.54021
 C1253 C 0.64421 0.32965 0.53261
 C1254 C 0.66163 0.33912 0.52457
 C1255 C 0.68048 0.32881 0.52399
 C1256 C 0.68147 0.30878 0.53167
 C1257 C 0.62737 0.30030 0.54886
 C1258 C 0.61218 0.29281 0.55625
 C1259 C 0.59433 0.28443 0.56517
 C1260 C 0.57911 0.27752 0.57309
 H1261 H 0.66504 0.28390 0.54558
 H1262 H 0.62989 0.33792 0.53304
 H1263 H 0.66040 0.35467 0.51912
 H1264 H 0.69571 0.30038 0.53128
 C1265 C 0.34676 0.19974 0.54063
 C1266 C 0.36585 0.19084 0.53667
 C1267 C 0.36717 0.17273 0.52569
 C1268 C 0.34950 0.16331 0.51908
 C1269 C 0.33021 0.17185 0.52341
 C1270 C 0.32904 0.19035 0.53399
 C1271 C 0.38398 0.19951 0.54490
 C1272 C 0.39917 0.20621 0.55230
 C1273 C 0.41685 0.21351 0.56162
 C1274 C 0.43174 0.21936 0.57022
 H1275 H 0.34556 0.21370 0.54923
 H1276 H 0.38185 0.16570 0.52255
 H1277 H 0.35091 0.14925 0.51070
 H1278 H 0.31440 0.19719 0.53771
 C1279 C 0.84875 0.69861 0.04028
 C1280 C 0.86784 0.68947 0.03705
 C1281 C 0.86927 0.67088 0.02691
 C1282 C 0.85167 0.66124 0.02041
 C1283 C 0.83235 0.67004 0.02400
 C1284 C 0.83110 0.68900 0.03374
 C1285 C 0.88586 0.69847 0.04519
 C1286 C 0.90094 0.70548 0.05254
 C1287 C 0.91847 0.71317 0.06182
 C1288 C 0.93324 0.71937 0.07039
 H1289 H 0.84746 0.71295 0.04823
 H1290 H 0.88396 0.66366 0.02434
 H1291 H 0.85316 0.64681 0.01268
 H1292 H 0.81644 0.69605 0.03691
 C1293 C 0.66535 0.69582 0.94932
 C1294 C 0.64668 0.68564 0.95085
 C1295 C 0.64547 0.66698 0.96116
 C1296 C 0.66281 0.65844 0.96983
 C1297 C 0.68169 0.66847 0.96833
 C1298 C 0.68276 0.68728 0.95799
 C1299 C 0.62883 0.69396 0.94142
 C1300 C 0.61377 0.70045 0.93336
 C1301 C 0.59610 0.70760 0.92364
 C1302 C 0.58109 0.71341 0.91500
 H1303 H 0.66647 0.71027 0.94134
 H1304 H 0.63114 0.65890 0.96232
 H1305 H 0.66152 0.64377 0.97735
 H1306 H 0.69702 0.69545 0.95673
 C1307 C 0.14322 0.16832 0.45969
 C1308 C 0.14407 0.18745 0.45024
 C1309 C 0.16246 0.19816 0.44947
 C1310 C 0.17996 0.18971 0.45804
 C1311 C 0.17925 0.17043 0.46750
 C1312 C 0.16065 0.15986 0.46825
 C1313 C 0.12615 0.19569 0.44087
 C1314 C 0.11104 0.20211 0.43284
 C1315 C 0.09334 0.20917 0.42312
 C1316 C 0.07832 0.21491 0.41447
 H1317 H 0.12911 0.15983 0.46024
 H1318 H 0.16329 0.21298 0.44216
 H1319 H 0.19400 0.19828 0.45737
 H1320 H 0.15966 0.14483 0.47507
 C1321 C 0.56776 0.11315 0.72773
 C1322 C 0.55358 0.11048 0.71239
 C1323 C 0.54871 0.09084 0.70610
 C1324 C 0.55839 0.07394 0.71474
 C1325 C 0.57313 0.07652 0.72974
 C1326 C 0.57746 0.09629 0.73638
 C1327 C 0.54508 0.12793 0.70221
 C1328 C 0.53858 0.14258 0.69325
 C1329 C 0.53163 0.15972 0.68229
 C1330 C 0.52619 0.17431 0.67254
 H1331 H 0.57165 0.12829 0.73271
 H1332 H 0.53785 0.08861 0.69414
 H1333 H 0.55490 0.05894 0.70914
 H1334 H 0.58854 0.09873 0.74808
 C1335 C 1.04986 0.59235 0.20652
 C1336 C 1.05505 0.61196 0.21265
 C1337 C 1.06951 0.61453 0.22776
 C1338 C 1.07913 0.59759 0.23634
 C1339 C 1.07445 0.57784 0.22987
 C1340 C 1.05946 0.57538 0.21510
 C1341 C 1.04657 0.62946 0.20253
 C1342 C 1.04007 0.64413 0.19360
 C1343 C 1.03309 0.66126 0.18265
 C1344 C 1.02760 0.67581 0.17287
 H1345 H 1.03878 0.59020 0.19475
 H1346 H 1.07365 0.62964 0.23260
 H1347 H 1.09041 0.59996 0.24786
 H1348 H 1.05570 0.56040 0.20964
 C1349 C 0.92770 0.89369 0.19562
 C1350 C 0.94688 0.88808 0.20273
 C1351 C 0.95569 0.89917 0.21835
 C1352 C 0.94524 0.91576 0.22691
 C1353 C 0.92584 0.92134 0.21997
 C1354 C 0.91726 0.91018 0.20414
 C1355 C 0.95716 0.87076 0.19398
 C1356 C 0.96489 0.85605 0.18612
 C1357 C 0.97295 0.83867 0.17636
 C1358 C 0.97899 0.82373 0.16756
 H1359 H 0.92077 0.88526 0.18349
 H1360 H 0.97052 0.89493 0.22399
 H1361 H 0.95216 0.92397 0.23917
 H1362 H 0.90252 0.91431 0.19822
 C1363 C 0.42633 0.39225 0.69653
 C1364 C 0.44548 0.38644 0.70357
 C1365 C 0.45446 0.39743 0.71915
 C1366 C 0.44424 0.41414 0.72772
 C1367 C 0.42490 0.41997 0.72081
 C1368 C 0.41611 0.40888 0.70505
 C1369 C 0.45561 0.36909 0.69473
 C1370 C 0.46331 0.35439 0.68682
 C1371 C 0.47137 0.33705 0.67699
 C1372 C 0.47746 0.32217 0.66813
 H1373 H 0.41928 0.38390 0.68442
 H1374 H 0.46927 0.39303 0.72474
 H1375 H 0.45131 0.42228 0.73994
 H1376 H 0.40141 0.41319 0.69915
 C1377 C 0.44898 0.58484 0.80099
 C1378 C 0.44900 0.60218 0.78849
 C1379 C 0.43906 0.60183 0.76985
 C1380 C 0.42879 0.58431 0.76392
 C1381 C 0.42827 0.56698 0.77665
 C1382 C 0.43871 0.56736 0.79512
 C1383 C 0.45827 0.62057 0.79546
 C1384 C 0.46563 0.63584 0.80209
 C1385 C 0.47376 0.65350 0.81078
 C1386 C 0.48030 0.66837 0.81899
 H1387 H 0.45662 0.58494 0.81545
 H1388 H 0.43888 0.61521 0.76012
 H1389 H 0.42072 0.58455 0.74972
 H1390 H 0.43882 0.55416 0.80511
 C1391 C -0.07770 0.10269 0.29367
 C1392 C -0.05762 0.10626 0.28715
 C1393 C -0.04758 0.09218 0.27455
 C1394 C -0.05755 0.07444 0.26871
 C1395 C -0.07764 0.07057 0.27553
 C1396 C -0.08766 0.08500 0.28791
 C1397 C -0.04726 0.12404 0.29416
 C1398 C -0.03915 0.13889 0.30085
 C1399 C -0.03030 0.15617 0.30962
 C1400 C -0.02328 0.17076 0.31788
 H1401 H -0.08562 0.11349 0.30340
 H1402 H -0.03199 0.09476 0.26949
 H1403 H -0.04941 0.06353 0.25930
 H1404 H -0.10323 0.08263 0.29311
 C1405 C 0.07946 0.39238 0.29656
 C1406 C 0.05963 0.38843 0.29034
 C1407 C 0.04926 0.40287 0.27860
 C1408 C 0.05868 0.42129 0.27327
 C1409 C 0.07852 0.42547 0.27973
 C1410 C 0.08885 0.41073 0.29130
 C1411 C 0.05001 0.36972 0.29662
 C1412 C 0.04276 0.35394 0.30270
 C1413 C 0.03523 0.33542 0.31074
 C1414 C 0.02962 0.31964 0.31841
 H1415 H 0.08764 0.38129 0.30561
 H1416 H 0.03388 0.39999 0.27376
 H1417 H 0.05031 0.43242 0.26446
 H1418 H 0.10426 0.41334 0.29619
 C1419 C 0.58050 0.89085 0.79601
 C1420 C 0.56067 0.88671 0.78991
 C1421 C 0.55009 0.90105 0.77824
 C1422 C 0.55928 0.91957 0.77287
 C1423 C 0.57912 0.92395 0.77924
 C1424 C 0.58967 0.90930 0.79072
 C1425 C 0.55126 0.86793 0.79631
 C1426 C 0.54418 0.85211 0.80250
 C1427 C 0.53685 0.83358 0.81070
 C1428 C 0.53142 0.81781 0.81851
 H1429 H 0.58885 0.87985 0.80501
 H1430 H 0.53470 0.89801 0.77350
 H1431 H 0.55075 0.93062 0.76413
 H1432 H 0.60508 0.91207 0.79553
 C1433 C 0.70870 0.58102 0.11143
 C1434 C 0.70971 0.55996 0.11381
 C1435 C 0.71938 0.54824 0.09885
 C1436 C 0.72786 0.55752 0.08143
 C1437 C 0.72685 0.57896 0.07842
 C1438 C 0.71710 0.59042 0.09411
 C1439 C 0.70020 0.55051 0.13137
 C1440 C 0.69173 0.54319 0.14612
 C1441 C 0.68125 0.53530 0.16337
 C1442 C 0.67184 0.52908 0.17806
 H1443 H 0.70099 0.59024 0.12284
 H1444 H 0.72041 0.53187 0.10064
 H1445 H 0.73582 0.54760 0.07092
 H1446 H 0.71461 0.60662 0.09288
 C1447 C 0.20057 1.07739 0.60436
 C1448 C 0.20774 1.05820 0.61024
 C1449 C 0.22314 1.04865 0.59870
 C1450 C 0.23138 1.05833 0.58136
 C1451 C 0.22431 1.07770 0.57543
 C1452 C 0.20876 1.08707 0.58710
 C1453 C 0.19905 1.04850 0.62808
 C1454 C 0.19117 1.04110 0.64310
 C1455 C 0.18127 1.03323 0.66070
 C1456 C 0.17226 1.02712 0.67567
 H1457 H 0.18858 1.08487 0.61311
 H1458 H 0.22880 1.03378 0.60313
 H1459 H 0.24343 1.05081 0.57277
 H1460 H 0.20273 1.10180 0.58274
 C1461 C 0.21238 0.95528 0.90430
 C1462 C 0.21306 0.94672 0.88495
 C1463 C 0.22271 0.92801 0.88201
 C1464 C 0.23118 0.91756 0.89840
 C1465 C 0.23015 0.92548 0.91845
 C1466 C 0.22087 0.94494 0.92081
 C1467 C 0.20291 0.95648 0.86827
 C1468 C 0.19398 0.96390 0.85417
 C1469 C 0.18304 0.97172 0.83755
 C1470 C 0.17333 0.97765 0.82329
 H1471 H 0.20476 0.96974 0.90678
 H1472 H 0.22355 0.92135 0.86699
 H1473 H 0.23908 0.90356 0.89480
 H1474 H 0.21870 0.95194 0.93550
 C1475 C 0.70425 0.45501 0.40776
 C1476 C 0.71028 0.45022 0.38782
 C1477 C 0.72535 0.43545 0.38438
 C1478 C 0.73400 0.42513 0.40079
 C1479 C 0.72765 0.42943 0.42088
 C1480 C 0.71290 0.44472 0.42421
 C1481 C 0.70009 0.45942 0.37086
 C1482 C 0.69115 0.46645 0.35656
 C1483 C 0.68026 0.47388 0.33974
 C1484 C 0.67063 0.47954 0.32532
 H1485 H 0.69249 0.46632 0.41059
 H1486 H 0.73011 0.43160 0.36900
 H1487 H 0.74551 0.41363 0.39775
 H1488 H 0.70751 0.44821 0.43947
 C1489 C 0.80334 0.44493 0.58738
 C1490 C 0.79033 0.44507 0.60450
 C1491 C 0.77121 0.43580 0.60367
 C1492 C 0.76529 0.42610 0.58588
 C1493 C 0.77850 0.42548 0.56875
 C1494 C 0.79749 0.43523 0.56962
 C1495 C 0.79717 0.45385 0.62312
 C1496 C 0.80370 0.46085 0.63856
 C1497 C 0.81225 0.46863 0.65639
 C1498 C 0.82033 0.47493 0.67137
 H1499 H 0.81817 0.45206 0.58785
 H1500 H 0.76106 0.43573 0.61688
 H1501 H 0.75067 0.41856 0.58572
 H1502 H 0.80786 0.43525 0.55660
 C1503 C 0.30419 -0.05522 0.08488
 C1504 C 0.29109 -0.05505 0.10194
 C1505 C 0.27199 -0.06434 0.10104
 C1506 C 0.26619 -0.07412 0.08325
 C1507 C 0.27950 -0.07480 0.06620
 C1508 C 0.29845 -0.06500 0.06713
 C1509 C 0.29786 -0.04628 0.12059
 C1510 C 0.30434 -0.03932 0.13607
 C1511 C 0.31284 -0.03160 0.15394
 C1512 C 0.32088 -0.02536 0.16897
 H1513 H 0.31901 -0.04807 0.08541
 H1514 H 0.26178 -0.06439 0.11420
 H1515 H 0.25159 -0.08171 0.08305
 H1516 H 0.30890 -0.06503 0.05417
 C1517 C 0.29284 0.07629 0.38874
 C1518 C 0.28703 0.05614 0.38562
 C1519 C 0.27545 0.04587 0.40058
 C1520 C 0.26994 0.05570 0.41872
 C1521 C 0.27609 0.07585 0.42210
 C1522 C 0.28741 0.08608 0.40681
 C1523 C 0.29372 0.04610 0.36728
 C1524 C 0.30026 0.03864 0.35177
 C1525 C 0.30894 0.03100 0.33355
 C1526 C 0.31720 0.02544 0.31801
 H1527 H 0.30176 0.08439 0.37726
 H1528 H 0.27093 0.03024 0.39834
 H1529 H 0.26130 0.04743 0.43028
 H1530 H 0.29205 0.10171 0.40880
 C1531 C 0.80089 0.54729 0.90826
 C1532 C 0.78785 0.54778 0.89168
 C1533 C 0.76896 0.55766 0.89343
 C1534 C 0.76337 0.56750 0.91150
 C1535 C 0.77671 0.56769 0.92799
 C1536 C 0.79536 0.55715 0.92630
 C1537 C 0.79469 0.53961 0.87247
 C1538 C 0.80124 0.53349 0.85637
 C1539 C 0.80981 0.52717 0.83759
 C1540 C 0.81790 0.52251 0.82166
 H1541 H 0.81557 0.53974 0.90706
 H1542 H 0.75882 0.55826 0.88063
 H1543 H 0.74901 0.57567 0.91228
 H1544 H 0.80582 0.55682 0.93883
 C1545 C 0.09067 0.70608 0.55382
 C1546 C 0.10996 0.71220 0.55999
 C1547 C 0.11168 0.72671 0.57529
 C1548 C 0.09418 0.73478 0.58470
 C1549 C 0.07471 0.72838 0.57895
 C1550 C 0.07315 0.71414 0.56320
 C1551 C 0.12797 0.70273 0.55146
 C1552 C 0.14302 0.69435 0.54480
 C1553 C 0.16055 0.68401 0.53752
 C1554 C 0.17541 0.67473 0.53172
 H1555 H 0.08918 0.69476 0.54207
 H1556 H 0.12654 0.73154 0.58019
 H1557 H 0.09587 0.74592 0.59658
 H1558 H 0.05840 0.70873 0.55860
 C1559 C 0.59209 0.20668 1.05268
 C1560 C 0.61139 0.21283 1.05880
 C1561 C 0.61312 0.22729 1.07415
 C1562 C 0.59563 0.23527 1.08366
 C1563 C 0.57616 0.22883 1.07796
 C1564 C 0.57458 0.21465 1.06216
 C1565 C 0.62939 0.20342 1.05019
 C1566 C 0.64443 0.19507 1.04346
 C1567 C 0.66193 0.18473 1.03611
 C1568 C 0.67675 0.17542 1.03025
 H1569 H 0.59059 0.19539 1.04090
 H1570 H 0.62798 0.23214 1.07902
 H1571 H 0.59734 0.24637 1.09558
 H1572 H 0.55983 0.20921 1.05760
 C1573 C 0.90787 0.21139 0.95763
 C1574 C 0.88862 0.21189 0.94903
 C1575 C 0.88609 0.22104 0.93004
 C1576 C 0.90277 0.22919 0.91935
 C1577 C 0.92272 0.22835 0.92734
 C1578 C 0.92468 0.21958 0.94706
 C1579 C 0.87157 0.20209 0.95905
 C1580 C 0.85709 0.19348 0.96662
 C1581 C 0.83997 0.18295 0.97453
 C1582 C 0.82524 0.17359 0.98046
 H1583 H 0.91002 0.20415 0.97232
 H1584 H 0.87115 0.22174 0.92333
 H1585 H 0.89949 0.23673 0.90512
 H1586 H 0.93926 0.21759 0.95414
 C1587 C 0.40790 0.70614 0.45790
 C1588 C 0.38810 0.71220 0.45303
 C1589 C 0.38511 0.72692 0.43786
 C1590 C 0.40180 0.73519 0.42724
 C1591 C 0.42174 0.72880 0.43161
 C1592 C 0.42464 0.71443 0.44730
 C1593 C 0.37081 0.70232 0.46250
 C1594 C 0.35618 0.69365 0.46969
 C1595 C 0.33894 0.68305 0.47721
 C1596 C 0.32414 0.67364 0.48288
 H1597 H 0.41038 0.69465 0.46951
 H1598 H 0.36985 0.73168 0.43394
 H1599 H 0.39910 0.74643 0.41543
 H1600 H 0.43978 0.70904 0.45086
 C1601 C 0.59245 0.77914 0.45383
 C1602 C 0.60700 0.79125 0.44373
 C1603 C 0.60411 0.79709 0.42347
 C1604 C 0.58662 0.79114 0.41341
 C1605 C 0.57172 0.77925 0.42350
 C1606 C 0.57491 0.77311 0.44376
 C1607 C 0.62458 0.79845 0.45418
 C1608 C 0.63928 0.80524 0.46239
 C1609 C 0.65643 0.81404 0.47138
 C1610 C 0.67097 0.82227 0.47851
 H1611 H 0.59450 0.77460 0.46955
 H1612 H 0.61529 0.80645 0.41550
 H1613 H 0.58475 0.79583 0.39772
 H1614 H 0.56363 0.76411 0.45196
 C1615 C 0.09293 0.27837 -0.04594
 C1616 C 0.10765 0.29036 -0.05597
 C1617 C 0.10498 0.29612 -0.07628
 C1618 C 0.08756 0.29022 -0.08648
 C1619 C 0.07249 0.27847 -0.07648
 C1620 C 0.07546 0.27240 -0.05616
 C1621 C 0.12516 0.29752 -0.04539
 C1622 C 0.13984 0.30429 -0.03710
 C1623 C 0.15696 0.31309 -0.02807
 C1624 C 0.17149 0.32133 -0.02092
 H1625 H 0.09481 0.27390 -0.03018
 H1626 H 0.11629 0.30537 -0.08419
 H1627 H 0.08588 0.29484 -0.10221
 H1628 H 0.06404 0.26349 -0.04803
 C1629 C 0.40622 0.30287 0.05446
 C1630 C 0.38946 0.28980 0.05461
 C1631 C 0.39088 0.27064 0.06395
 C1632 C 0.40884 0.26478 0.07356
 C1633 C 0.42553 0.27810 0.07404
 C1634 C 0.42414 0.29707 0.06409
 C1635 C 0.37045 0.29678 0.04649
 C1636 C 0.35454 0.30340 0.04033
 C1637 C 0.33601 0.31202 0.03387
 C1638 C 0.32031 0.32010 0.02900
 H1639 H 0.40528 0.31776 0.04731
 H1640 H 0.37795 0.26047 0.06428
 H1641 H 0.40938 0.25017 0.08128
 H1642 H 0.43683 0.30753 0.06398
 C1643 C 0.90542 0.80317 0.55417
 C1644 C 0.88861 0.79019 0.55423
 C1645 C 0.88986 0.77104 0.56364
 C1646 C 0.90771 0.76512 0.57341
 C1647 C 0.92446 0.77837 0.57398
 C1648 C 0.92324 0.79731 0.56395
 C1649 C 0.86968 0.79724 0.54598
 C1650 C 0.85385 0.80393 0.53972
 C1651 C 0.83539 0.81264 0.53317
 C1652 C 0.81975 0.82081 0.52826
 H1653 H 0.90461 0.81804 0.54697
 H1654 H 0.87688 0.76093 0.56390
 H1655 H 0.90813 0.75054 0.58118
 H1656 H 0.93598 0.80771 0.56391
   
