data_POSCAR
  _audit_creation_date              2014-09-24
  _audit_creation_method            'ToBaCCo'
  _symmetry_space_group_name_H-M    'P1'
  _symmetry_Int_Tables_number       1
  _symmetry_cell_setting            triclinic
  loop_
  _symmetry_equiv_pos_as_xyz
 x,y,z
_cell_length_a 51.4068
_cell_length_b 51.9103
_cell_length_c 50.8125
_cell_angle_alpha 90.634000
_cell_angle_beta 90.521800
_cell_angle_gamma 89.477900
loop_
  _atom_site_label
  _atom_site_type_symbol
  _atom_site_fract_x
  _atom_site_fract_y
  _atom_site_fract_z
C1 C 0.32886 0.45629 0.90943
 C2 C 0.32205 0.46368 0.88355
 C3 C 0.30018 0.45265 0.87079
 C4 C 0.28527 0.43466 0.88376
 C5 C 0.29156 0.42729 0.90929
 C6 C 0.31346 0.43785 0.92225
 C7 C 0.35022 0.46729 0.92305
 C8 C 0.35633 0.45967 0.94894
 C9 C 0.34125 0.44084 0.96107
 C10 C 0.31972 0.43003 0.94808
 C11 C 0.30410 0.41172 0.96052
 C12 C 0.28236 0.40131 0.94725
 C13 C 0.27622 0.40927 0.92189
 H14 H 0.33355 0.47784 0.87350
 H15 H 0.26851 0.42645 0.87375
 H16 H 0.36150 0.48225 0.91393
 H17 H 0.34568 0.43547 0.98120
 H18 H 0.30914 0.40521 0.98011
 H19 H 0.25973 0.40073 0.91170
 C20 C 0.45251 0.82495 0.43118
 C21 C 0.46611 0.84461 0.44432
 C22 C 0.45740 0.85389 0.46873
 C23 C 0.43486 0.84424 0.47985
 C24 C 0.42120 0.82455 0.46712
 C25 C 0.43012 0.81462 0.44281
 C26 C 0.46118 0.81501 0.40698
 C27 C 0.44769 0.79479 0.39442
 C28 C 0.42563 0.78450 0.40614
 C29 C 0.41677 0.79422 0.43030
 C30 C 0.39470 0.78400 0.44213
 C31 C 0.38578 0.79419 0.46621
 C32 C 0.39901 0.81436 0.47854
 H33 H 0.48387 0.85211 0.43610
 H34 H 0.42857 0.85144 0.49891
 H35 H 0.47836 0.82292 0.39802
 H36 H 0.41540 0.76891 0.39631
 H37 H 0.38416 0.76859 0.43236
 H38 H 0.39178 0.82217 0.49698
 C39 C 0.95794 0.90533 0.83507
 C40 C 0.96912 0.88589 0.81933
 C41 C 0.95766 0.87918 0.79520
 C42 C 0.93420 0.89078 0.78737
 C43 C 0.92282 0.91024 0.80291
 C44 C 0.93488 0.91788 0.82673
 C45 C 0.97077 0.91405 0.85772
 C46 C 0.96170 0.93579 0.87143
 C47 C 0.93844 0.94797 0.86376
 C48 C 0.92480 0.93901 0.84140
 C49 C 0.90231 0.95183 0.83234
 C50 C 0.89032 0.94425 0.80864
 C51 C 0.90054 0.92331 0.79414
 H52 H 0.98756 0.87715 0.82497
 H53 H 0.92569 0.88569 0.76842
 H54 H 0.98917 0.90529 0.86351
 H55 H 0.93189 0.96514 0.87418
 H56 H 0.89446 0.96813 0.84328
 H57 H 0.89141 0.91743 0.77576
 C58 C 0.46263 -0.07399 0.33382
 C59 C 0.47626 -0.09592 0.32490
 C60 C 0.47002 -0.10740 0.30058
 C61 C 0.45050 -0.09632 0.28462
 C62 C 0.43673 -0.07444 0.29323
 C63 C 0.44274 -0.06322 0.31796
 C64 C 0.46775 -0.06334 0.35881
 C65 C 0.45303 -0.04220 0.36829
 C66 C 0.43355 -0.03142 0.35231
 C67 C 0.42822 -0.04182 0.32724
 C68 C 0.40784 -0.03191 0.31175
 C69 C 0.40148 -0.04343 0.28733
 C70 C 0.41614 -0.06441 0.27809
 H71 H 0.49104 -0.10478 0.33727
 H72 H 0.44536 -0.10528 0.26595
 H73 H 0.48275 -0.07190 0.37111
 H74 H 0.42217 -0.01529 0.35977
 H75 H 0.39630 -0.01589 0.31919
 H76 H 0.41087 -0.07340 0.25946
 C77 C 0.81878 0.29192 0.31817
 C78 C 0.81081 0.27771 0.33989
 C79 C 0.78959 0.28590 0.35491
 C80 C 0.77574 0.30839 0.34781
 C81 C 0.78340 0.32281 0.32600
 C82 C 0.80503 0.31447 0.31108
 C83 C 0.84106 0.28459 0.30420
 C84 C 0.84997 0.29966 0.28332
 C85 C 0.83581 0.32153 0.27577
 C86 C 0.81349 0.32916 0.28963
 C87 C 0.80028 0.35193 0.28319
 C88 C 0.77902 0.36066 0.29824
 C89 C 0.77057 0.34594 0.31946
 H90 H 0.82160 0.26064 0.34574
 H91 H 0.75950 0.31501 0.35961
 H92 H 0.85193 0.26762 0.31017
 H93 H 0.84289 0.33315 0.25980
 H94 H 0.80719 0.36335 0.26700
 H95 H 0.75439 0.35289 0.33118
 C96 C -0.20709 0.83150 0.82032
 C97 C -0.21654 0.84993 0.80250
 C98 C -0.20189 0.85618 0.78037
 C99 C -0.17757 0.84462 0.77620
 C100 C -0.16788 0.82616 0.79365
 C101 C -0.18272 0.81939 0.81566
 C102 C -0.22166 0.82456 0.84241
 C103 C -0.21242 0.80531 0.85929
 C104 C -0.18818 0.79338 0.85438
 C105 C -0.17329 0.80030 0.83285
 C106 C -0.14916 0.78829 0.82821
 C107 C -0.13443 0.79490 0.80637
 C108 C -0.14386 0.81396 0.78912
 H109 H -0.23545 0.85890 0.80542
 H110 H -0.16656 0.84953 0.75887
 H111 H -0.24020 0.83385 0.84638
 H112 H -0.18061 0.77888 0.86767
 H113 H -0.14183 0.77361 0.84143
 H114 H -0.13258 0.81924 0.77212
 C115 C 0.91639 0.32513 0.45847
 C116 C 0.92840 0.34636 0.47013
 C117 C 0.95039 0.35698 0.45887
 C118 C 0.95994 0.34715 0.43484
 C119 C 0.94765 0.32603 0.42238
 C120 C 0.92604 0.31472 0.43463
 C121 C 0.89525 0.31373 0.47074
 C122 C 0.88373 0.29192 0.45973
 C123 C 0.89320 0.28146 0.43596
 C124 C 0.91421 0.29281 0.42330
 C125 C 0.92344 0.28267 0.39948
 C126 C 0.94444 0.29390 0.38678
 C127 C 0.95675 0.31555 0.39837
 H128 H 0.92156 0.35382 0.48890
 H129 H 0.97732 0.35528 0.42646
 H130 H 0.88761 0.32178 0.48891
 H131 H 0.88398 0.26476 0.42709
 H132 H 0.91414 0.26605 0.39051
 H133 H 0.97314 0.32424 0.38872
 C134 C 0.43749 0.46967 0.81015
 C135 C 0.44434 0.48038 0.83449
 C136 C 0.46059 0.46685 0.85155
 C137 C 0.47230 0.44359 0.84333
 C138 C 0.46598 0.43287 0.81875
 C139 C 0.44781 0.44552 0.80234
 C140 C 0.41856 0.48163 0.79476
 C141 C 0.40833 0.46911 0.77273
 C142 C 0.41883 0.44526 0.76430
 C143 C 0.43882 0.43340 0.77900
 C144 C 0.44867 0.40890 0.77200
 C145 C 0.46738 0.39670 0.78815
 C146 C 0.47612 0.40889 0.81117
 H147 H 0.43559 0.49838 0.84110
 H148 H 0.48537 0.43333 0.85647
 H149 H 0.40980 0.49967 0.80127
 H150 H 0.41061 0.43544 0.74728
 H151 H 0.44150 0.39921 0.75442
 H152 H 0.48998 0.39899 0.82379
 C153 C 0.84057 0.91496 0.95351
 C154 C 0.82708 0.89465 0.96526
 C155 C 0.80544 0.88359 0.95262
 C156 C 0.79795 0.89209 0.92750
 C157 C 0.81114 0.91239 0.91541
 C158 C 0.83242 0.92406 0.92862
 C159 C 0.86065 0.92767 0.96723
 C160 C 0.87230 0.94968 0.95686
 C161 C 0.86455 0.95842 0.93187
 C162 C 0.84462 0.94573 0.91763
 C163 C 0.83557 0.95524 0.89335
 C164 C 0.81435 0.94386 0.88015
 C165 C 0.80235 0.92227 0.89117
 H166 H 0.83233 0.88855 0.98497
 H167 H 0.78081 0.88396 0.91810
 H168 H 0.86613 0.92145 0.98684
 H169 H 0.87306 0.97579 0.92418
 H170 H 0.84458 0.97199 0.88489
 H171 H 0.78585 0.91357 0.88122
 C172 C 0.33541 0.83434 0.30087
 C173 C 0.32766 0.85658 0.28752
 C174 C 0.30406 0.86897 0.29323
 C175 C 0.28837 0.85957 0.31360
 C176 C 0.29622 0.83744 0.32782
 C177 C 0.31967 0.82460 0.32100
 C178 C 0.35830 0.82121 0.29372
 C179 C 0.36582 0.79841 0.30652
 C180 C 0.35041 0.78899 0.32678
 C181 C 0.32729 0.80179 0.33399
 C182 C 0.31172 0.79206 0.35398
 C183 C 0.28860 0.80477 0.36145
 C184 C 0.28094 0.82744 0.34827
 H185 H 0.33933 0.86352 0.27142
 H186 H 0.26984 0.86883 0.31767
 H187 H 0.37025 0.82874 0.27818
 H188 H 0.35642 0.77152 0.33674
 H189 H 0.31793 0.77478 0.36412
 H190 H 0.26319 0.83729 0.35408
 C191 C 0.81801 0.40561 0.45806
 C192 C 0.80569 0.38358 0.46787
 C193 C 0.78437 0.37269 0.45422
 C194 C 0.77541 0.38393 0.43096
 C195 C 0.78742 0.40578 0.42095
 C196 C 0.80889 0.41666 0.43438
 C197 C 0.83881 0.41721 0.47176
 C198 C 0.85038 0.43963 0.46213
 C199 C 0.84165 0.45011 0.43828
 C200 C 0.82089 0.43885 0.42432
 C201 C 0.81127 0.44989 0.40098
 C202 C 0.78980 0.43895 0.38776
 C203 C 0.77816 0.41696 0.39774
 H204 H 0.81280 0.37483 0.48584
 H205 H 0.75917 0.37530 0.42046
 H206 H 0.84523 0.40957 0.49053
 H207 H 0.85020 0.46777 0.43131
 H208 H 0.82028 0.46699 0.39327
 H209 H 0.76166 0.40868 0.38734
 C210 C 0.96515 0.83430 -0.06836
 C211 C 0.97749 0.85466 -0.05525
 C212 C 0.96710 0.86530 -0.03223
 C213 C 0.94398 0.85539 -0.02197
 C214 C 0.93139 0.83476 -0.03489
 C215 C 0.94204 0.82414 -0.05821
 C216 C 0.97588 0.82369 -0.09124
 C217 C 0.96432 0.80260 -0.10384
 C218 C 0.94114 0.79245 -0.09406
 C219 C 0.92974 0.80330 -0.07131
 C220 C 0.90663 0.79342 -0.06107
 C221 C 0.89574 0.80424 -0.03807
 C222 C 0.90820 0.82475 -0.02514
 H223 H 0.99508 0.86276 -0.06323
 H224 H 0.93561 0.86399 -0.00442
 H225 H 0.99412 0.83098 -0.09859
 H226 H 0.93258 0.77570 -0.10355
 H227 H 0.89703 0.77757 -0.07108
 H228 H 0.89961 0.83297 -0.00750
 C229 C 0.32754 0.32972 0.78792
 C230 C 0.31612 0.35107 0.77571
 C231 C 0.29452 0.36353 0.78695
 C232 C 0.28369 0.35380 0.81009
 C233 C 0.29478 0.33213 0.82247
 C234 C 0.31699 0.32022 0.81142
 C235 C 0.35020 0.31855 0.77770
 C236 C 0.36283 0.29852 0.79092
 C237 C 0.35214 0.28861 0.81399
 C238 C 0.32925 0.29935 0.82430
 C239 C 0.31905 0.29024 0.84783
 C240 C 0.29703 0.30179 0.85894
 C241 C 0.28480 0.32275 0.84620
 H242 H 0.32472 0.35864 0.75804
 H243 H 0.26715 0.36365 0.81882
 H244 H 0.35882 0.32614 0.76003
 H245 H 0.36198 0.27308 0.82425
 H246 H 0.32855 0.27442 0.85798
 H247 H 0.26797 0.33202 0.85497
 C248 C 0.16651 0.53699 0.55627
 C249 C 0.14281 0.52742 0.54720
 C250 C 0.12826 0.54105 0.52840
 C251 C 0.13843 0.56295 0.51687
 C252 C 0.16211 0.57288 0.52584
 C253 C 0.17606 0.56018 0.54606
 C254 C 0.17960 0.52480 0.57691
 C255 C 0.20167 0.53580 0.58823
 C256 C 0.21150 0.55899 0.57807
 C257 C 0.19866 0.57134 0.55701
 C258 C 0.20690 0.59535 0.54770
 C259 C 0.19274 0.60798 0.52756
 C260 C 0.17090 0.59635 0.51640
 H261 H 0.13493 0.51022 0.55591
 H262 H 0.12690 0.57327 0.50238
 H263 H 0.17186 0.50736 0.58526
 H264 H 0.22837 0.56788 0.58715
 H265 H 0.22382 0.60443 0.55648
 H266 H 0.15997 0.60641 0.50126
 C267 C 0.58534 0.70392 0.07721
 C268 C 0.60846 0.71129 0.06503
 C269 C 0.61627 0.69974 0.04112
 C270 C 0.60041 0.68094 0.02922
 C271 C 0.57705 0.67341 0.04107
 C272 C 0.56956 0.68492 0.06522
 C273 C 0.57813 0.71474 0.10159
 C274 C 0.55561 0.70666 0.11431
 C275 C 0.53978 0.68787 0.10220
 C276 C 0.54662 0.67696 0.07776
 C277 C 0.53138 0.65755 0.06614
 C278 C 0.53875 0.64577 0.04237
 C279 C 0.56151 0.65395 0.02972
 H280 H 0.62064 0.72567 0.07446
 H281 H 0.60656 0.67195 0.01093
 H282 H 0.59031 0.72912 0.11105
 H283 H 0.52236 0.68148 0.11194
 H284 H 0.51416 0.65084 0.07602
 H285 H 0.56758 0.64459 0.01160
 C286 C 0.70556 0.15806 0.67275
 C287 C 0.71334 0.16590 0.64753
 C288 C 0.69989 0.18594 0.63455
 C289 C 0.67865 0.19804 0.64690
 C290 C 0.67058 0.19053 0.67197
 C291 C 0.68401 0.17039 0.68489
 C292 C 0.71923 0.13860 0.68643
 C293 C 0.71137 0.13141 0.71174
 C294 C 0.68969 0.14326 0.72325
 C295 C 0.67605 0.16281 0.71015
 C296 C 0.65488 0.17520 0.72222
 C297 C 0.64150 0.19521 0.70963
 C298 C 0.64938 0.20287 0.68441
 H299 H 0.72988 0.15666 0.63817
 H300 H 0.66849 0.21351 0.63685
 H301 H 0.73628 0.12957 0.67779
 H302 H 0.68403 0.13783 0.74293
 H303 H 0.64861 0.16927 0.74153
 H304 H 0.63892 0.21818 0.67442
 C305 C 1.08614 0.05802 0.16862
 C306 C 1.10962 0.04690 0.17792
 C307 C 1.11947 0.05372 0.20310
 C308 C 1.10611 0.07158 0.21873
 C309 C 1.08299 0.08287 0.20991
 C310 C 1.07258 0.07565 0.18511
 C311 C 1.07681 0.05345 0.14266
 C312 C 1.05379 0.06573 0.13383
 C313 C 1.03981 0.08166 0.15104
 C314 C 1.04939 0.08738 0.17618
 C315 C 1.03747 0.10666 0.19138
 C316 C 1.04907 0.11533 0.21500
 C317 C 1.07120 0.10271 0.22467
 H318 H 1.12050 0.03373 0.16543
 H319 H 1.11438 0.07727 0.23760
 H320 H 1.08794 0.04153 0.12913
 H321 H 1.02253 0.09159 0.14381
 H322 H 1.02032 0.11639 0.18369
 H323 H 1.08012 0.10950 0.24284
 C324 C 0.03214 0.17506 1.05937
 C325 C 0.02512 0.15405 1.04301
 C326 C 0.03929 0.14866 1.02003
 C327 C 0.06048 0.16396 1.01344
 C328 C 0.06771 0.18488 1.02935
 C329 C 0.05346 0.19060 1.05229
 C330 C 0.01846 0.18083 1.08269
 C331 C 0.02567 0.20196 1.09861
 C332 C 0.04679 0.21732 1.09107
 C333 C 0.06077 0.21172 1.06828
 C334 C 0.08237 0.22664 1.06158
 C335 C 0.09675 0.22080 1.03903
 C336 C 0.08914 0.20000 1.02279
 H337 H 0.00870 0.14213 1.04795
 H338 H 0.07123 0.15959 0.99564
 H339 H 0.00239 0.16889 1.08859
 H340 H 0.05285 0.23341 1.10334
 H341 H 0.08840 0.24254 1.07417
 H342 H 0.10024 0.19518 1.00536
 C343 C 0.18344 0.67960 0.71413
 C344 C 0.15982 0.68969 0.72352
 C345 C 0.14798 0.71095 0.71112
 C346 C 0.16012 0.72247 0.68977
 C347 C 0.18369 0.71266 0.68018
 C348 C 0.19553 0.69131 0.69253
 C349 C 0.19415 0.65686 0.72453
 C350 C 0.21645 0.64573 0.71333
 C351 C 0.22927 0.65835 0.69301
 C352 C 0.21868 0.68067 0.68221
 C353 C 0.22958 0.69099 0.65964
 C354 C 0.21712 0.71108 0.64656
 C355 C 0.19460 0.72253 0.65724
 H356 H 0.15015 0.68037 0.73965
 H357 H 0.15052 0.73846 0.68000
 H358 H 0.18428 0.64686 0.74011
 H359 H 0.24653 0.64979 0.68433
 H360 H 0.24672 0.68215 0.65098
 H361 H 0.18485 0.73812 0.64700
 C362 C 1.19867 0.16940 0.16475
 C363 C 1.21225 0.14897 0.17627
 C364 C 1.20483 0.13962 0.20069
 C365 C 1.18262 0.14974 0.21319
 C366 C 1.16831 0.17000 0.20153
 C367 C 1.17677 0.18022 0.17745
 C368 C 1.20749 0.17993 0.14132
 C369 C 1.19519 0.20147 0.13059
 C370 C 1.17312 0.21222 0.14290
 C371 C 1.16377 0.20162 0.16630
 C372 C 1.14187 0.21219 0.17886
 C373 C 1.13284 0.20171 0.20250
 C374 C 1.14623 0.18077 0.21378
 H375 H 1.22970 0.14133 0.16706
 H376 H 1.17720 0.14263 0.23234
 H377 H 1.22445 0.17182 0.13162
 H378 H 1.16339 0.22881 0.13441
 H379 H 1.13168 0.22836 0.17008
 H380 H 1.13931 0.17285 0.23205
 C381 C 0.67071 1.07167 0.53746
 C382 C 0.64531 1.06457 0.53080
 C383 C 0.63206 1.04712 0.54628
 C384 C 0.64401 1.03690 0.56885
 C385 C 0.66928 1.04404 0.57581
 C386 C 0.68285 1.06151 0.56014
 C387 C 0.68434 1.08830 0.52145
 C388 C 0.70994 1.09472 0.52762
 C389 C 0.72211 1.08526 0.55045
 C390 C 0.70858 1.06858 0.56697
 C391 C 0.72016 1.05851 0.58992
 C392 C 0.70627 1.04113 0.60544
 C393 C 0.68118 1.03387 0.59815
 H394 H 0.63589 1.07224 0.51334
 H395 H 0.63368 1.02338 0.58094
 H396 H 0.67529 1.09583 0.50372
 H397 H 0.74203 1.09051 0.55499
 H398 H 0.73974 1.06396 0.59556
 H399 H 0.67078 1.02046 0.61035
 C400 C 0.53324 0.57253 0.17932
 C401 C 0.52513 0.56340 0.15451
 C402 C 0.53792 0.54229 0.14270
 C403 C 0.55795 0.52961 0.15620
 C404 C 0.56647 0.53872 0.18079
 C405 C 0.55432 0.56043 0.19239
 C406 C 0.52169 0.59451 0.19046
 C407 C 0.53134 0.60508 0.21396
 C408 C 0.55238 0.59307 0.22708
 C409 C 0.56406 0.57079 0.21634
 C410 C 0.58633 0.55963 0.22807
 C411 C 0.59858 0.53821 0.21609
 C412 C 0.58812 0.52750 0.19305
 H413 H 0.50953 0.57320 0.14406
 H414 H 0.56772 0.51340 0.14683
 H415 H 0.50596 0.60432 0.18020
 H416 H 0.56027 0.60159 0.24497
 H417 H 0.59464 0.56813 0.24578
 H418 H 0.59803 0.51130 0.18378
 C419 C 0.68264 0.71798 0.18088
 C420 C 0.66014 0.72816 0.19230
 C421 C 0.64812 0.71553 0.21291
 C422 C 0.65941 0.69294 0.22328
 C423 C 0.68226 0.68254 0.21219
 C424 C 0.69375 0.69499 0.19066
 C425 C 0.69314 0.72961 0.15874
 C426 C 0.71422 0.71837 0.14575
 C427 C 0.72580 0.69572 0.15570
 C428 C 0.71560 0.68391 0.17811
 C429 C 0.72595 0.66051 0.18730
 C430 C 0.71470 0.64798 0.20865
 C431 C 0.69298 0.65920 0.22122
 H432 H 0.65105 0.74534 0.18429
 H433 H 0.64992 0.68300 0.23913
 H434 H 0.68414 0.74681 0.15069
 H435 H 0.74200 0.68678 0.14548
 H436 H 0.74234 0.65153 0.17741
 H437 H 0.68388 0.64935 0.23736
 C438 C 0.17624 0.05701 1.07614
 C439 C 0.15466 0.04581 1.06337
 C440 C 0.14150 0.05904 1.04329
 C441 C 0.14919 0.08395 1.03663
 C442 C 0.17085 0.09528 1.04886
 C443 C 0.18451 0.08178 1.06871
 C444 C 0.19103 0.04300 1.09453
 C445 C 0.21400 0.05327 1.10523
 C446 C 0.22178 0.07811 1.09841
 C447 C 0.20729 0.09241 1.08000
 C448 C 0.21609 0.11641 1.07142
 C449 C 0.20298 0.12951 1.05122
 C450 C 0.18015 0.11907 1.04025
 H451 H 0.14919 0.02621 1.06778
 H452 H 0.13944 0.09367 1.02047
 H453 H 0.18553 0.02351 1.09942
 H454 H 0.23987 0.08565 1.10633
 H455 H 0.23369 0.12459 1.07977
 H456 H 0.16990 0.12922 1.02472
 C457 C 0.57368 0.16573 0.54723
 C458 C 0.59691 0.17506 0.53662
 C459 C 0.60818 0.19770 0.54691
 C460 C 0.59576 0.21141 0.56697
 C461 C 0.57279 0.20229 0.57781
 C462 C 0.56173 0.17922 0.56820
 C463 C 0.56282 0.14260 0.53808
 C464 C 0.54059 0.13253 0.54983
 C465 C 0.52882 0.14589 0.57091
 C466 C 0.53936 0.16919 0.58028
 C467 C 0.52882 0.18203 0.60231
 C468 C 0.54031 0.20484 0.61193
 C469 C 0.56163 0.21516 0.59917
 H470 H 0.60657 0.16435 0.52105
 H471 H 0.60470 0.22875 0.57481
 H472 H 0.57205 0.13189 0.52222
 H473 H 0.51195 0.13788 0.58036
 H474 H 0.51235 0.17395 0.61238
 H475 H 0.57050 0.23251 0.60708
 C476 C 0.07837 0.53620 0.68655
 C477 C 0.10411 0.53134 0.69454
 C478 C 0.11605 0.54656 0.71432
 C479 C 0.10165 0.56624 0.72664
 C480 C 0.07582 0.57141 0.71882
 C481 C 0.06416 0.55638 0.69866
 C482 C 0.06712 0.52214 0.66565
 C483 C 0.04209 0.52826 0.65639
 C484 C 0.02776 0.54808 0.66885
 C485 C 0.03871 0.56229 0.68976
 C486 C 0.02527 0.58339 0.70075
 C487 C 0.03691 0.59870 0.72032
 C488 C 0.06198 0.59229 0.72975
 H489 H 0.11506 0.51610 0.68483
 H490 H 0.11093 0.57803 0.74169
 H491 H 0.07824 0.50719 0.65567
 H492 H 0.00855 0.55321 0.66154
 H493 H 0.00619 0.58875 0.69326
 H494 H 0.07127 0.60435 0.74454
 C495 C 0.66978 0.57830 0.04141
 C496 C 0.64720 0.56577 0.03229
 C497 C 0.63677 0.54511 0.04652
 C498 C 0.64920 0.53679 0.06943
 C499 C 0.67159 0.54905 0.07876
 C500 C 0.68202 0.56984 0.06480
 C501 C 0.67975 0.59978 0.02830
 C502 C 0.70169 0.61271 0.03826
 C503 C 0.71401 0.60379 0.06131
 C504 C 0.70418 0.58267 0.07477
 C505 C 0.71545 0.57486 0.09868
 C506 C 0.70467 0.55465 0.11279
 C507 C 0.68302 0.54150 0.10252
 H508 H 0.63735 0.57257 0.01472
 H509 H 0.64079 0.52118 0.08043
 H510 H 0.67012 0.60692 0.01074
 H511 H 0.73071 0.61387 0.06934
 H512 H 0.73210 0.58496 0.10681
 H513 H 0.67461 0.52582 0.11337
 C514 C 0.04088 0.66750 0.57966
 C515 C 0.03398 0.67851 0.60399
 C516 C 0.04765 0.69981 0.61420
 C517 C 0.06781 0.71047 0.59968
 C518 C 0.07505 0.69967 0.57538
 C519 C 0.06164 0.67803 0.56534
 C520 C 0.02808 0.64553 0.56994
 C521 C 0.03607 0.63378 0.54628
 C522 C 0.05658 0.64441 0.53208
 C523 C 0.06954 0.66642 0.54144
 C524 C 0.09094 0.67635 0.52792
 C525 C 0.10447 0.69772 0.53793
 C526 C 0.09617 0.70952 0.56152
 H527 H 0.01840 0.67017 0.61522
 H528 H 0.07831 0.72679 0.60778
 H529 H 0.01256 0.63709 0.58117
 H530 H 0.06290 0.63496 0.51409
 H531 H 0.09758 0.66710 0.50994
 H532 H 0.10672 0.72581 0.56961
 C533 C 0.54088 1.07253 0.68616
 C534 C 0.52715 1.05874 0.66692
 C535 C 0.53705 1.03566 0.65664
 C536 C 0.56165 1.02650 0.66516
 C537 C 0.57610 1.04050 0.68434
 C538 C 0.56531 1.06344 0.69511
 C539 C 0.53032 1.09524 0.69675
 C540 C 0.54371 1.10910 0.71616
 C541 C 0.56795 1.10011 0.72537
 C542 C 0.57884 1.07735 0.71490
 C543 C 0.60318 1.06854 0.72369
 C544 C 0.61451 1.04627 0.71295
 C545 C 0.60087 1.03210 0.69329
 H546 H 0.50809 1.06547 0.66051
 H547 H 0.56917 1.00842 0.65737
 H548 H 0.51171 1.10250 0.68967
 H549 H 0.57850 1.11103 0.74023
 H550 H 0.61374 1.07930 0.73869
 H551 H 0.60947 1.01473 0.68502
 C552 C 0.41415 0.33652 0.95787
 C553 C 0.42544 0.35723 0.97153
 C554 C 0.44905 0.36762 0.96330
 C555 C 0.46129 0.35770 0.94065
 C556 C 0.45013 0.33703 0.92640
 C557 C 0.42657 0.32629 0.93532
 C558 C 0.39091 0.32555 0.96671
 C559 C 0.37990 0.30444 0.95320
 C560 C 0.39228 0.29441 0.93085
 C561 C 0.41554 0.30508 0.92188
 C562 C 0.42792 0.29480 0.89966
 C563 C 0.45108 0.30526 0.89046
 C564 C 0.46226 0.32646 0.90382
 H565 H 0.41640 0.36471 0.98928
 H566 H 0.47978 0.36552 0.93466
 H567 H 0.38134 0.33353 0.98392
 H568 H 0.38360 0.27827 0.92039
 H569 H 0.41947 0.27853 0.88922
 H570 H 0.48024 0.33453 0.89680
 C571 C 0.91467 0.45728 0.33568
 C572 C 0.92523 0.46785 0.35873
 C573 C 0.94749 0.45696 0.36999
 C574 C 0.95894 0.43492 0.35894
 C575 C 0.94847 0.42402 0.33591
 C576 C 0.92634 0.43536 0.32396
 C577 C 0.89297 0.46871 0.32391
 C578 C 0.88256 0.45870 0.30061
 C579 C 0.89402 0.43679 0.28862
 C580 C 0.91606 0.42502 0.30026
 C581 C 0.92800 0.40310 0.28894
 C582 C 0.95005 0.39176 0.30110
 C583 C 0.96012 0.40235 0.32435
 H584 H 0.91689 0.48527 0.36730
 H585 H 0.97655 0.42697 0.36768
 H586 H 0.88383 0.48545 0.33299
 H587 H 0.88571 0.42886 0.27065
 H588 H 0.92009 0.39480 0.27096
 H589 H 0.97701 0.39344 0.33353
 C590 C 0.33088 0.94632 0.41491
 C591 C 0.32181 0.95840 0.39169
 C592 C 0.30098 0.94751 0.37708
 C593 C 0.28937 0.92507 0.38547
 C594 C 0.29755 0.91328 0.40849
 C595 C 0.31849 0.92360 0.42323
 C596 C 0.35135 0.95666 0.43048
 C597 C 0.35949 0.94418 0.45375
 C598 C 0.34725 0.92150 0.46133
 C599 C 0.32657 0.91138 0.44657
 C600 C 0.31316 0.88972 0.45527
 C601 C 0.29191 0.88004 0.44066
 C602 C 0.28463 0.89149 0.41714
 H603 H 0.33089 0.97586 0.38498
 H604 H 0.27344 0.91700 0.37399
 H605 H 0.36028 0.97465 0.42504
 H606 H 0.35298 0.91248 0.47968
 H607 H 0.31921 0.88045 0.47335
 H608 H 0.26853 0.88355 0.40584
 O609 O 0.26350 0.57026 0.69712
 O610 O 0.30992 0.55755 0.69517
 O611 O 0.22779 0.50562 0.65955
 O612 O 0.22948 0.46140 0.66567
 O613 O 0.19623 0.53470 0.73102
 O614 O 0.21261 0.53210 0.77894
 O615 O 0.29665 0.43214 0.72732
 O616 O 0.28676 0.44048 0.68019
 O617 O 0.33621 0.49547 0.75370
 O618 O 0.32669 0.54490 0.75137
 O619 O 0.27386 0.46952 0.79587
 O620 O 0.22745 0.47551 0.79194
 O621 O 0.26880 0.43416 0.76175
 O622 O 0.22385 0.44283 0.76286
 O623 O 0.30594 0.49914 0.79280
 O624 O 0.30582 0.54295 0.78507
 O625 O 0.33234 0.46427 0.72223
 O626 O 0.32139 0.46638 0.67876
 O627 O 0.23395 0.57042 0.73015
 O628 O 0.23710 0.56178 0.77410
 O629 O 0.19407 0.50427 0.69860
 O630 O 0.20252 0.45978 0.69996
 O631 O 0.25953 0.53585 0.65883
 O632 O 0.30441 0.53224 0.66369
 Zr633 Zr 0.27796 0.53216 0.69531
 O634 O 0.30410 0.50775 0.71518
 Zr635 Zr 0.23149 0.48837 0.69718
 O636 O 0.25506 0.46266 0.71905
 Zr637 Zr 0.23554 0.53288 0.74452
 O638 O 0.26099 0.51010 0.76733
 Zr639 Zr 0.29394 0.46881 0.70955
 O640 O 0.27038 0.49316 0.68588
 Zr641 Zr 0.29983 0.51456 0.75552
 O642 O 0.27486 0.54053 0.73568
 Zr643 Zr 0.25298 0.47128 0.75972
 O644 O 0.22586 0.49407 0.73813
 O645 O 0.23893 0.52706 0.70425
 O646 O 0.29190 0.47560 0.74999
 C647 C 0.24659 0.58146 0.71189
 C648 C 0.24032 0.52397 0.64841
 C649 C 0.18379 0.52170 0.71323
 C650 C 0.28584 0.42245 0.74767
 C651 C 0.34517 0.47640 0.73997
 C652 C 0.29380 0.48173 0.80513
 H653 H 0.32199 0.51118 0.70925
 H654 H 0.25863 0.51452 0.78615
 H655 H 0.22716 0.53866 0.69429
 H656 H 0.25013 0.44466 0.71506
 H657 H 0.28022 0.44963 0.66440
 H658 H 0.23702 0.44493 0.67187
 H659 H 0.28899 0.54566 0.79398
 H660 H 0.25528 0.56791 0.77461
 H661 H 0.32677 0.48412 0.67480
 H662 H 0.30276 0.51533 0.65463
 H663 H 0.21057 0.48170 0.78483
 H664 H 0.19715 0.52143 0.77514
 H665 H 0.30887 0.56814 0.71145
 H666 H 0.33968 0.53950 0.73812
 H667 H 0.19607 0.46045 0.71825
 H668 H 0.22165 0.43452 0.74540
 O669 O 0.25892 0.07514 0.21039
 O670 O 0.30425 0.06660 0.20899
 O671 O 0.23673 0.00146 0.16740
 O672 O 0.23442 -0.03999 0.17728
 O673 O 0.19147 0.03421 0.23221
 O674 O 0.19694 0.03072 0.27946
 O675 O 0.29888 -0.06087 0.24066
 O676 O 0.30176 -0.05057 0.19671
 O677 O 0.32921 0.01010 0.27735
 O678 O 0.31473 0.05666 0.27237
 O679 O 0.26973 -0.02720 0.30769
 O680 O 0.22405 -0.02772 0.30257
 O681 O 0.26751 -0.06286 0.27180
 O682 O 0.21956 -0.05260 0.26982
 O683 O 0.29474 0.00860 0.31019
 O684 O 0.28710 0.05385 0.30042
 O685 O 0.33221 -0.02411 0.24924
 O686 O 0.32794 -0.01875 0.19951
 O687 O 0.22564 0.07266 0.23942
 O688 O 0.22299 0.06062 0.28413
 O689 O 0.19594 0.00335 0.20052
 O690 O 0.20836 -0.04236 0.20872
 O691 O 0.26083 0.03793 0.16976
 O692 O 0.30551 0.03910 0.18061
 Zr693 Zr 0.27549 0.03774 0.20868
 O694 O 0.30159 0.01732 0.23314
 Zr695 Zr 0.23399 -0.01075 0.20658
 O696 O 0.25827 -0.03334 0.23088
 Zr697 Zr 0.22764 0.03440 0.25236
 O698 O 0.25185 0.01402 0.27893
 Zr699 Zr 0.29734 -0.02260 0.22695
 O700 O 0.27335 -0.00206 0.20012
 Zr701 Zr 0.29093 0.02357 0.27242
 O702 O 0.26658 0.04610 0.24820
 Zr703 Zr 0.25021 -0.02568 0.27083
 O704 O 0.22327 -0.00542 0.24628
 O705 O 0.23648 0.02886 0.21279
 O706 O 0.28905 -0.01630 0.26640
 C707 C 0.24051 0.08525 0.22417
 C708 C 0.24736 0.02112 0.15698
 C709 C 0.18280 0.02093 0.21246
 C710 C 0.28552 -0.07317 0.25768
 C711 C 0.34125 -0.00948 0.26773
 C712 C 0.28615 -0.01231 0.31963
 H713 H 0.31957 0.02299 0.22998
 H714 H 0.24665 0.01778 0.29727
 H715 H 0.22578 0.03956 0.20075
 H716 H 0.25524 -0.05151 0.22587
 H717 H 0.29224 -0.04396 0.18111
 H718 H 0.24942 -0.05139 0.18120
 H719 H 0.27188 0.05017 0.31151
 H720 H 0.23966 0.06987 0.28602
 H721 H 0.34043 -0.00588 0.20635
 H722 H 0.30859 0.02110 0.17471
 H723 H 0.21345 -0.01176 0.30219
 H724 H 0.18836 0.01409 0.27552
 H725 H 0.30417 0.07444 0.22682
 H726 H 0.32925 0.05345 0.26008
 H727 H 0.19615 -0.03861 0.22325
 H728 H 0.22231 -0.06381 0.25420
 O729 O 0.57174 0.71384 0.26287
 O730 O 0.56061 0.72287 0.30773
 O731 O 0.50439 0.67769 0.23195
 O732 O 0.46112 0.68620 0.23080
 O733 O 0.53888 0.73756 0.18853
 O734 O 0.53908 0.78348 0.19258
 O735 O 0.43569 0.76140 0.28817
 O736 O 0.44000 0.71551 0.28854
 O737 O 0.50229 0.79168 0.32112
 O738 O 0.54924 0.78699 0.31301
 O739 O 0.47356 0.81847 0.24833
 O740 O 0.47676 0.80224 0.20217
 O741 O 0.43785 0.78692 0.25221
 O742 O 0.44774 0.77649 0.20508
 O743 O 0.50212 0.82095 0.28263
 O744 O 0.55044 0.81016 0.28121
 O745 O 0.46922 0.76304 0.32346
 O746 O 0.46986 0.71576 0.32053
 O747 O 0.57423 0.74057 0.22781
 O748 O 0.56656 0.78619 0.22297
 O749 O 0.50583 0.70886 0.19104
 O750 O 0.45970 0.71544 0.19925
 O751 O 0.53429 0.68033 0.26514
 O752 O 0.52996 0.69604 0.30989
 Zr753 Zr 0.53353 0.71946 0.27635
 O754 O 0.51114 0.74666 0.29738
 Zr755 Zr 0.48942 0.71541 0.22840
 O756 O 0.46467 0.74216 0.24760
 Zr757 Zr 0.53719 0.75803 0.22468
 O758 O 0.51458 0.78685 0.24334
 Zr759 Zr 0.47153 0.74140 0.28837
 O760 O 0.49376 0.71208 0.26954
 Zr761 Zr 0.51929 0.78398 0.28432
 O762 O 0.54424 0.75696 0.26555
 Zr763 Zr 0.47493 0.77959 0.23648
 O764 O 0.49770 0.75266 0.21501
 O765 O 0.52881 0.72072 0.23570
 O766 O 0.47978 0.77882 0.27716
 C767 C 0.58403 0.72385 0.24371
 C768 C 0.52199 0.66783 0.24707
 C769 C 0.52477 0.71929 0.17890
 C770 C 0.42632 0.77870 0.27273
 C771 C 0.48277 0.78180 0.33274
 C772 C 0.48455 0.83064 0.26745
 H773 H 0.51490 0.74485 0.31637
 H774 H 0.51960 0.80398 0.23691
 H775 H 0.53984 0.70798 0.22628
 H776 H 0.44625 0.73838 0.24351
 H777 H 0.44694 0.69855 0.28273
 H778 H 0.44549 0.69398 0.23899
 H779 H 0.54712 0.82112 0.26572
 H780 H 0.57378 0.78791 0.24102
 H781 H 0.48545 0.71847 0.33173
 H782 H 0.51269 0.68780 0.30856
 H783 H 0.49243 0.81309 0.20363
 H784 H 0.52189 0.78285 0.18368
 H785 H 0.57014 0.73909 0.30493
 H786 H 0.54686 0.77296 0.32575
 H787 H 0.46260 0.73063 0.18808
 H788 H 0.43500 0.76315 0.20967
 O789 O 0.00561 0.67106 0.73577
 O790 O -0.04068 0.68091 0.73814
 O791 O 0.03502 0.72994 0.68853
 O792 O 0.03759 0.77273 0.68887
 O793 O 0.07273 0.70982 0.76256
 O794 O 0.06335 0.72021 0.80753
 O795 O -0.02535 0.81251 0.74482
 O796 O -0.02407 0.79432 0.70250
 O797 O -0.06230 0.75883 0.79223
 O798 O -0.06076 0.71501 0.79484
 O799 O 0.00689 0.78665 0.82186
 O800 O 0.05345 0.78369 0.80760
 O801 O 0.00288 0.81693 0.77924
 O802 O 0.04840 0.80908 0.77935
 O803 O -0.02511 0.75747 0.82804
 O804 O -0.02629 0.71243 0.82410
 O805 O -0.06200 0.78140 0.75419
 O806 O -0.05586 0.76783 0.70893
 O807 O 0.03621 0.67577 0.76797
 O808 O 0.03410 0.69385 0.81268
 O809 O 0.07305 0.73423 0.72572
 O810 O 0.06452 0.78009 0.72119
 O811 O 0.00282 0.70075 0.69408
 O812 O -0.04256 0.70483 0.70545
 Zr813 Zr -0.01108 0.70825 0.73229
 O814 O -0.03503 0.73590 0.75112
 Zr815 Zr 0.03581 0.75127 0.72397
 O816 O 0.01381 0.78055 0.74220
 Zr817 Zr 0.03499 0.71526 0.77751
 O818 O 0.01311 0.74313 0.79805
 Zr819 Zr -0.02591 0.77278 0.73754
 O820 O -0.00404 0.74491 0.71650
 Zr821 Zr -0.02692 0.73762 0.79162
 O822 O -0.00510 0.70721 0.77336
 Zr823 Zr 0.02012 0.78002 0.78316
 O824 O 0.04463 0.75237 0.76447
 O825 O 0.02855 0.71443 0.73714
 O826 O -0.01968 0.77471 0.77831
 C827 C 0.02398 0.66228 0.75066
 C828 C 0.02069 0.71121 0.68042
 C829 C 0.08396 0.71889 0.74226
 C830 C -0.01336 0.82604 0.76223
 C831 C -0.07260 0.77464 0.77567
 C832 C -0.00959 0.77509 0.83636
 H833 H -0.05353 0.73166 0.74814
 H834 H 0.01819 0.74123 0.81674
 H835 H 0.03936 0.70160 0.72759
 H836 H 0.01839 0.79728 0.73448
 H837 H -0.01636 0.78289 0.68884
 H838 H 0.02702 0.78855 0.69148
 H839 H -0.02366 0.69474 0.81706
 H840 H 0.01839 0.68301 0.81180
 H841 H -0.06731 0.75375 0.71453
 H842 H -0.04196 0.72014 0.69404
 H843 H 0.05185 0.77102 0.82189
 H844 H 0.07324 0.73584 0.80314
 H845 H -0.03717 0.67280 0.75538
 H846 H -0.05818 0.69992 0.78314
 H847 H 0.07364 0.78086 0.73842
 H848 H 0.04940 0.81341 0.76049
 O849 O -0.06318 -0.00934 -0.03030
 O850 O -0.05616 0.03436 -0.04253
 O851 O 0.01232 -0.04204 -0.05736
 O852 O 0.05068 -0.04982 -0.04223
 O853 O -0.02807 -0.05933 0.01934
 O854 O -0.01954 -0.03672 0.06226
 O855 O 0.07416 0.03711 -0.01138
 O856 O 0.06434 0.01966 -0.05263
 O857 O 0.00617 0.08143 0.00881
 O858 O -0.03871 0.07185 0.01189
 O859 O 0.04228 0.03185 0.06472
 O860 O 0.04170 -0.01068 0.07343
 O861 O 0.07635 0.01951 0.02938
 O862 O 0.06462 -0.02712 0.04354
 O863 O 0.01176 0.06140 0.05257
 O864 O -0.03523 0.05222 0.05052
 O865 O 0.03666 0.07093 -0.02166
 O866 O 0.03458 0.04650 -0.06271
 O867 O -0.06323 -0.02080 0.01273
 O868 O -0.05216 -0.01234 0.05465
 O869 O 0.00292 -0.06892 -0.01086
 O870 O 0.05147 -0.05775 -0.00339
 O871 O -0.02417 -0.01856 -0.06628
 O872 O -0.02755 0.02732 -0.07016
 Zr873 Zr -0.02601 0.00770 -0.03393
 O874 O -0.00362 0.03919 -0.02063
 Zr875 Zr 0.02132 -0.03369 -0.01810
 O876 O 0.04589 -0.00395 -0.00527
 Zr877 Zr -0.02405 -0.01900 0.02513
 O878 O -0.00100 0.01132 0.04095
 Zr879 Zr 0.03611 0.03047 -0.02450
 O880 O 0.01386 -0.00003 -0.03990
 Zr881 Zr -0.00820 0.04531 0.02006
 O882 O -0.03349 0.01586 0.00618
 Zr883 Zr 0.03882 0.00369 0.03476
 O884 O 0.01579 -0.02830 0.02244
 O885 O -0.01843 -0.02650 -0.01482
 O886 O 0.03147 0.03830 0.01544
 C887 C -0.07457 -0.01782 -0.00970
 C888 C -0.00624 -0.03493 -0.07265
 C889 C -0.01636 -0.07514 0.00366
 C890 C 0.08652 0.03106 0.00970
 C891 C 0.02352 0.08736 -0.00805
 C892 C 0.03067 0.05370 0.06731
 H893 H -0.00874 0.05458 -0.03076
 H894 H -0.00449 0.01386 0.05991
 H895 H -0.02964 -0.03967 -0.02322
 H896 H 0.06406 -0.00934 -0.00866
 H897 H 0.05737 0.00451 -0.06228
 H898 H 0.06263 -0.03566 -0.04653
 H899 H -0.05092 0.04209 0.04598
 H900 H -0.04685 0.00318 0.06472
 H901 H 0.01851 0.05701 -0.06423
 H902 H -0.01019 0.02516 -0.07821
 H903 H 0.02410 -0.01646 0.07815
 H904 H -0.00456 -0.04879 0.06095
 H905 H -0.06448 0.03882 -0.02556
 H906 H -0.04060 0.07287 -0.00745
 H907 H 0.04498 -0.06578 0.01286
 H908 H 0.07811 -0.02766 0.02979
 O909 O -0.01843 0.56104 0.55143
 O910 O -0.06446 0.54850 0.54723
 O911 O 0.01775 0.49621 0.58499
 O912 O 0.01630 0.45279 0.57700
 O913 O 0.05100 0.52777 0.51655
 O914 O 0.03957 0.53090 0.47109
 O915 O -0.04016 0.42237 0.50986
 O916 O -0.04015 0.43178 0.55670
 O917 O -0.08467 0.48832 0.48092
 O918 O -0.08105 0.53135 0.48224
 O919 O -0.01236 0.46611 0.44281
 O920 O 0.03500 0.46979 0.45868
 O921 O -0.01115 0.42716 0.47686
 O922 O 0.03145 0.43723 0.47810
 O923 O -0.04632 0.49439 0.44384
 O924 O -0.05030 0.54039 0.46051
 O925 O -0.08178 0.45580 0.51036
 O926 O -0.07598 0.45498 0.55258
 O927 O 0.01311 0.56320 0.52053
 O928 O 0.00957 0.55674 0.47414
 O929 O 0.05310 0.49670 0.54769
 O930 O 0.04575 0.45180 0.54471
 O931 O -0.01651 0.52419 0.58610
 O932 O -0.06235 0.51980 0.57579
 Zr933 Zr -0.03238 0.52273 0.54777
 O934 O -0.05506 0.49869 0.52315
 Zr935 Zr 0.01607 0.48033 0.54659
 O936 O -0.00418 0.45506 0.52135
 Zr937 Zr 0.01274 0.52696 0.50210
 O938 O -0.00813 0.50394 0.47553
 Zr939 Zr -0.04431 0.45966 0.52683
 O940 O -0.02400 0.48340 0.55455
 Zr941 Zr -0.04816 0.50664 0.48343
 O942 O -0.02740 0.53276 0.50816
 Zr943 Zr 0.00137 0.46511 0.48181
 O944 O 0.02444 0.48833 0.50694
 O945 O 0.00730 0.51903 0.54152
 O946 O -0.03897 0.46742 0.48690
 C947 C -0.00031 0.57304 0.53934
 C948 C 0.00341 0.51321 0.59666
 C949 C 0.06322 0.51435 0.53383
 C950 C -0.02580 0.41343 0.49114
 C951 C -0.09452 0.46969 0.49385
 C952 C -0.02988 0.47997 0.43164
 H953 H -0.07355 0.50146 0.52768
 H954 H -0.00346 0.51005 0.45786
 H955 H 0.01820 0.53011 0.55302
 H956 H 0.00184 0.43733 0.52508
 H957 H -0.03565 0.44109 0.57323
 H958 H 0.00865 0.43678 0.56972
 H959 H -0.03521 0.54013 0.44855
 H960 H -0.00770 0.56497 0.47659
 H961 H -0.07807 0.47151 0.56215
 H962 H -0.05905 0.50369 0.58557
 H963 H 0.03100 0.48300 0.44530
 H964 H 0.05042 0.51507 0.47072
 H965 H -0.06258 0.55924 0.53138
 H966 H -0.08595 0.53494 0.50070
 H967 H 0.05424 0.45360 0.52743
 H968 H 0.03422 0.42953 0.49563
 O969 O 0.48784 0.05867 0.55322
 O970 O 0.44183 0.04643 0.54650
 O971 O 0.52059 -0.00770 0.59009
 O972 O 0.52414 -0.04902 0.58164
 O973 O 0.55839 0.02708 0.52358
 O974 O 0.55124 0.02615 0.47728
 O975 O 0.46689 -0.08016 0.51302
 O976 O 0.46446 -0.07020 0.55919
 O977 O 0.42532 -0.01428 0.47897
 O978 O 0.43018 0.02843 0.48223
 O979 O 0.49706 -0.04358 0.44864
 O980 O 0.54219 -0.03709 0.45934
 O981 O 0.50143 -0.07760 0.48559
 O982 O 0.54621 -0.06112 0.48913
 O983 O 0.46335 -0.01513 0.44574
 O984 O 0.46496 0.02977 0.45284
 O985 O 0.42594 -0.04549 0.50996
 O986 O 0.43052 -0.04623 0.55434
 O987 O 0.52034 0.06092 0.52337
 O988 O 0.52068 0.05195 0.47557
 O989 O 0.55852 -0.00308 0.55568
 O990 O 0.55254 -0.04981 0.54994
 O991 O 0.48596 0.01977 0.58870
 O992 O 0.44149 0.01887 0.57397
 Zr993 Zr 0.47382 0.02057 0.54864
 O994 O 0.45263 -0.00374 0.52292
 Zr995 Zr 0.52261 -0.02149 0.55124
 O996 O 0.50322 -0.04750 0.52623
 Zr997 Zr 0.52161 0.02415 0.50574
 O998 O 0.50255 -0.00021 0.47855
 Zr999 Zr 0.46269 -0.04255 0.52892
 O1000 O 0.48200 -0.01842 0.55682
 Zr1001 Zr 0.46222 0.00259 0.48340
 O1002 O 0.48110 0.02978 0.50887
 Zr1003 Zr 0.51166 -0.03872 0.48696
 O1004 O 0.53334 -0.01421 0.51214
 O1005 O 0.51375 0.01703 0.54512
 O1006 O 0.47107 -0.03632 0.48949
 C1007 C 0.50612 0.07079 0.54160
 C1008 C 0.50420 0.00758 0.60109
 C1009 C 0.56916 0.01496 0.54275
 C1010 C 0.48410 -0.09025 0.49771
 C1011 C 0.41440 -0.03216 0.49201
 C1012 C 0.47837 -0.03274 0.43602
 H1013 H 0.43393 -0.00028 0.52587
 H1014 H 0.50736 0.00449 0.46044
 H1015 H 0.52326 0.02819 0.55778
 H1016 H 0.50895 -0.06499 0.53127
 H1017 H 0.47026 -0.06112 0.57543
 H1018 H 0.51412 -0.06416 0.57558
 H1019 H 0.46985 0.04634 0.46117
 H1020 H 0.50556 0.06343 0.47884
 H1021 H 0.42324 -0.02878 0.55734
 H1022 H 0.44242 0.00190 0.58264
 H1023 H 0.54010 -0.02100 0.44928
 H1024 H 0.56045 0.00932 0.47754
 H1025 H 0.44552 0.05875 0.53231
 H1026 H 0.43561 0.04416 0.49184
 H1027 H 0.56433 -0.04522 0.53546
 H1028 H 0.54462 -0.07283 0.50426
 O1029 O 0.56384 0.53797 -0.00797
 O1030 O 0.55329 0.52810 -0.05277
 O1031 O 0.49918 0.57944 0.02021
 O1032 O 0.45501 0.57445 0.01580
 O1033 O 0.52621 0.51867 0.06665
 O1034 O 0.52819 0.47409 0.06438
 O1035 O 0.42565 0.49958 -0.03672
 O1036 O 0.43421 0.54315 -0.04152
 O1037 O 0.49353 0.46040 -0.06408
 O1038 O 0.53811 0.46190 -0.05565
 O1039 O 0.46150 0.43978 0.00829
 O1040 O 0.46096 0.45755 0.05175
 O1041 O 0.42516 0.47665 0.00106
 O1042 O 0.43673 0.48639 0.04810
 O1043 O 0.49282 0.43299 -0.02228
 O1044 O 0.54093 0.44443 -0.02049
 O1045 O 0.46351 0.49198 -0.07146
 O1046 O 0.46400 0.53781 -0.07115
 O1047 O 0.56401 0.51468 0.02970
 O1048 O 0.55462 0.46817 0.03447
 O1049 O 0.49504 0.54957 0.06123
 O1050 O 0.44959 0.54723 0.04943
 O1051 O 0.52902 0.57349 -0.01212
 O1052 O 0.52360 0.55642 -0.05707
 Zr1053 Zr 0.52586 0.53415 -0.02251
 O1054 O 0.50330 0.50680 -0.04289
 Zr1055 Zr 0.48081 0.54322 0.02272
 O1056 O 0.45560 0.51703 0.00350
 Zr1057 Zr 0.52650 0.49796 0.03097
 O1058 O 0.50276 0.46974 0.01332
 Zr1059 Zr 0.46364 0.51477 -0.03694
 O1060 O 0.48633 0.54403 -0.01839
 Zr1061 Zr 0.50912 0.46977 -0.02730
 O1062 O 0.53479 0.49660 -0.00943
 Zr1063 Zr 0.46315 0.47953 0.01703
 O1064 O 0.48686 0.50602 0.03812
 O1065 O 0.52002 0.53504 0.01791
 O1066 O 0.46920 0.47719 -0.02343
 C1067 C 0.57489 0.52961 0.01296
 C1068 C 0.51801 0.58729 0.00582
 C1069 C 0.51233 0.53773 0.07501
 C1070 C 0.41394 0.48619 -0.01940
 C1071 C 0.47678 0.47197 -0.07849
 C1072 C 0.47492 0.42505 -0.00699
 H1073 H 0.50805 0.50733 -0.06166
 H1074 H 0.50695 0.45291 0.02129
 H1075 H 0.53123 0.54718 0.02783
 H1076 H 0.43744 0.52261 0.00656
 H1077 H 0.44177 0.55974 -0.03563
 H1078 H 0.43906 0.56732 0.00761
 H1079 H 0.53739 0.43469 -0.00431
 H1080 H 0.56495 0.46818 0.01813
 H1081 H 0.48149 0.53645 -0.07898
 H1082 H 0.50755 0.56706 -0.05579
 H1083 H 0.47787 0.44858 0.05406
 H1084 H 0.51033 0.47376 0.07148
 H1085 H 0.56224 0.51158 -0.04891
 H1086 H 0.53958 0.47734 -0.06675
 H1087 H 0.45097 0.53267 0.06179
 H1088 H 0.42478 0.50045 0.04268
 O1089 O 0.78195 0.29827 0.50445
 O1090 O 0.78361 0.28120 0.54728
 O1091 O 0.81481 0.23617 0.45816
 O1092 O 0.80582 0.19692 0.44529
 O1093 O 0.74279 0.27583 0.43224
 O1094 O 0.69928 0.27412 0.44556
 O1095 O 0.75165 0.15778 0.51316
 O1096 O 0.79402 0.16647 0.51358
 O1097 O 0.71847 0.21667 0.56329
 O1098 O 0.71769 0.26081 0.56452
 O1099 O 0.68191 0.19448 0.49363
 O1100 O 0.68367 0.20348 0.45075
 O1101 O 0.72013 0.16237 0.48184
 O1102 O 0.71661 0.18587 0.43695
 O1103 O 0.68182 0.22173 0.52890
 O1104 O 0.69281 0.27040 0.53458
 O1105 O 0.74928 0.18588 0.55593
 O1106 O 0.79776 0.19424 0.54478
 O1107 O 0.74963 0.30399 0.47412
 O1108 O 0.70219 0.29425 0.48159
 O1109 O 0.77530 0.24691 0.42422
 O1110 O 0.77101 0.19763 0.42548
 O1111 O 0.81679 0.26340 0.49347
 O1112 O 0.81055 0.25094 0.54036
 Zr1113 Zr 0.78077 0.25867 0.51249
 O1114 O 0.75895 0.23237 0.53439
 Zr1115 Zr 0.77664 0.22307 0.45785
 O1116 O 0.75710 0.19422 0.47803
 Zr1117 Zr 0.73157 0.26751 0.47070
 O1118 O 0.70849 0.23980 0.48922
 Zr1119 Zr 0.76521 0.19532 0.51882
 O1120 O 0.78865 0.22133 0.49778
 Zr1121 Zr 0.71885 0.23899 0.52917
 O1122 O 0.74079 0.26826 0.51111
 Zr1123 Zr 0.71714 0.20238 0.47521
 O1124 O 0.73667 0.23067 0.45326
 O1125 O 0.77120 0.25992 0.47272
 O1126 O 0.72520 0.20140 0.51551
 C1127 C 0.76917 0.31210 0.48795
 C1128 C 0.82640 0.25286 0.47259
 C1129 C 0.76067 0.26616 0.41769
 C1130 C 0.73477 0.14870 0.49696
 C1131 C 0.73147 0.19656 0.57014
 C1132 C 0.67121 0.20450 0.51399
 H1133 H 0.76399 0.23363 0.55317
 H1134 H 0.68991 0.24417 0.48653
 H1135 H 0.78171 0.27244 0.46298
 H1136 H 0.76228 0.17761 0.46983
 H1137 H 0.80708 0.17372 0.50163
 H1138 H 0.80778 0.18407 0.45938
 H1139 H 0.67833 0.26838 0.52179
 H1140 H 0.70793 0.30252 0.49828
 H1141 H 0.79284 0.20266 0.56159
 H1142 H 0.82095 0.23636 0.53324
 H1143 H 0.67882 0.22184 0.44881
 H1144 H 0.69775 0.25859 0.43418
 H1145 H 0.76632 0.28937 0.54982
 H1146 H 0.73594 0.26399 0.56983
 H1147 H 0.75689 0.20501 0.41444
 H1148 H 0.72971 0.17178 0.43662
 O1149 O 0.78828 0.81906 -0.00321
 O1150 O 0.79175 0.80858 0.04276
 O1151 O 0.82246 0.75078 -0.03927
 O1152 O 0.81569 0.70795 -0.03736
 O1153 O 0.75339 0.78378 -0.06900
 O1154 O 0.70770 0.77876 -0.05679
 O1155 O 0.75808 0.68257 0.03409
 O1156 O 0.80376 0.69023 0.02360
 O1157 O 0.73094 0.74667 0.07206
 O1158 O 0.73230 0.79446 0.06319
 O1159 O 0.68872 0.71740 0.00851
 O1160 O 0.69386 0.71900 -0.03972
 O1161 O 0.72317 0.68278 0.00632
 O1162 O 0.72178 0.69124 -0.04221
 O1163 O 0.69257 0.74802 0.04056
 O1164 O 0.70162 0.79463 0.03856
 O1165 O 0.76297 0.71637 0.06888
 O1166 O 0.80662 0.71833 0.05696
 O1167 O 0.75279 0.81908 -0.03028
 O1168 O 0.70838 0.80777 -0.02775
 O1169 O 0.78225 0.75041 -0.07197
 O1170 O 0.78013 0.70528 -0.06224
 O1171 O 0.82511 0.78271 -0.00834
 O1172 O 0.82113 0.78060 0.03870
 Zr1173 Zr 0.78952 0.78114 0.01179
 O1174 O 0.76957 0.75833 0.03897
 Zr1175 Zr 0.78507 0.73533 -0.03414
 O1176 O 0.76459 0.71064 -0.00919
 Zr1177 Zr 0.73939 0.78086 -0.03004
 O1178 O 0.71701 0.75845 -0.00439
 Zr1179 Zr 0.77502 0.71904 0.02987
 O1180 O 0.79787 0.74177 0.00483
 Zr1181 Zr 0.72934 0.76443 0.03480
 O1182 O 0.74937 0.78946 0.00943
 Zr1183 Zr 0.72448 0.71913 -0.01159
 O1184 O 0.74480 0.74157 -0.03922
 O1185 O 0.77919 0.77456 -0.02717
 O1186 O 0.73495 0.72528 0.02763
 C1187 C 0.77186 0.83039 -0.01859
 C1188 C 0.83446 0.76936 -0.02760
 C1189 C 0.77013 0.76983 -0.08157
 C1190 C 0.73771 0.67217 0.02391
 C1191 C 0.74502 0.72823 0.08151
 C1192 C 0.68009 0.72998 0.02862
 H1193 H 0.77564 0.76255 0.05700
 H1194 H 0.69840 0.76284 -0.00681
 H1195 H 0.78904 0.78592 -0.03892
 H1196 H 0.76846 0.69243 -0.01367
 H1197 H 0.81889 0.69877 0.01563
 H1198 H 0.81048 0.69238 -0.02775
 H1199 H 0.68869 0.79260 0.02418
 H1200 H 0.70895 0.81510 -0.00969
 H1201 H 0.80889 0.73600 0.06397
 H1202 H 0.83020 0.76386 0.03613
 H1203 H 0.68404 0.73534 -0.03762
 H1204 H 0.70960 0.76226 -0.06657
 H1205 H 0.77424 0.81655 0.04413
 H1206 H 0.74799 0.79116 0.07409
 H1207 H 0.76218 0.70687 -0.06927
 H1208 H 0.73669 0.67920 -0.04039
 O1209 O 1.06364 0.22597 0.23659
 O1210 O 1.05909 0.23068 0.28291
 O1211 O 0.99477 0.18646 0.21332
 O1212 O 0.95243 0.19242 0.21141
 O1213 O 1.02046 0.25495 0.17110
 O1214 O 1.01837 0.29934 0.17941
 O1215 O 0.92796 0.25427 0.28191
 O1216 O 0.93948 0.21136 0.28132
 O1217 O 0.99509 0.29352 0.31058
 O1218 O 1.03818 0.29634 0.29866
 O1219 O 0.95320 0.32111 0.24389
 O1220 O 0.95102 0.31072 0.19905
 O1221 O 0.92255 0.28412 0.24987
 O1222 O 0.92958 0.27770 0.19946
 O1223 O 0.98554 0.32470 0.27444
 O1224 O 1.03587 0.31846 0.26500
 O1225 O 0.96452 0.26241 0.31378
 O1226 O 0.97362 0.21385 0.30710
 O1227 O 1.05951 0.25623 0.20473
 O1228 O 1.04679 0.30277 0.20875
 O1229 O 0.99372 0.22045 0.17385
 O1230 O 0.94579 0.22467 0.18740
 O1231 O 1.02922 0.18930 0.24161
 O1232 O 1.03028 0.20251 0.28842
 Zr1233 Zr 1.02760 0.22767 0.25604
 O1234 O 1.00571 0.25100 0.28208
 Zr1235 Zr 0.97871 0.22348 0.21271
 O1236 O 0.95406 0.24459 0.23801
 Zr1237 Zr 1.02122 0.27107 0.20893
 O1238 O 0.99722 0.29531 0.23196
 Zr1239 Zr 0.96635 0.24166 0.27756
 O1240 O 0.98830 0.21685 0.25272
 Zr1241 Zr 1.00743 0.29003 0.27153
 O1242 O 1.03306 0.26715 0.24835
 Zr1243 Zr 0.95811 0.28369 0.22917
 O1244 O 0.98161 0.26243 0.20250
 O1245 O 1.01785 0.23205 0.21662
 O1246 O 0.96825 0.28059 0.26879
 C1247 C 1.07232 0.23841 0.21680
 C1248 C 1.01466 0.17693 0.22513
 C1249 C 1.00963 0.23487 0.16133
 C1250 C 0.91452 0.27133 0.26975
 C1251 C 0.97727 0.28184 0.32308
 C1252 C 0.96513 0.33324 0.26231
 H1253 H 1.01204 0.24849 0.30031
 H1254 H 0.99934 0.31341 0.22656
 H1255 H 1.02853 0.22078 0.20511
 H1256 H 0.93598 0.23858 0.23567
 H1257 H 0.94655 0.19657 0.27111
 H1258 H 0.94153 0.19411 0.22727
 H1259 H 1.02769 0.33241 0.25461
 H1260 H 1.05904 0.30046 0.22370
 H1261 H 0.98620 0.22106 0.31999
 H1262 H 1.01434 0.19196 0.28801
 H1263 H 0.96760 0.31961 0.19585
 H1264 H 1.00019 0.29894 0.17284
 H1265 H 1.06650 0.24803 0.28059
 H1266 H 1.04407 0.27917 0.30462
 H1267 H 0.94908 0.23803 0.17411
 H1268 H 0.91692 0.26513 0.20607
 O1269 O 0.75890 1.06650 0.72319
 O1270 O 0.80593 1.05464 0.72538
 O1271 O 0.73076 1.00665 0.67212
 O1272 O 0.73284 0.96284 0.67115
 O1273 O 0.68921 1.02563 0.74057
 O1274 O 0.69681 1.01304 0.78773
 O1275 O 0.78996 0.92520 0.73027
 O1276 O 0.79280 0.94518 0.68795
 O1277 O 0.82443 0.98319 0.78145
 O1278 O 0.81925 1.02820 0.78217
 O1279 O 0.76002 0.94848 0.80440
 O1280 O 0.71187 0.95362 0.79339
 O1281 O 0.75982 0.92036 0.76230
 O1282 O 0.71320 0.93050 0.76138
 O1283 O 0.78954 0.97997 0.81242
 O1284 O 0.78385 1.02535 0.81219
 O1285 O 0.82566 0.95680 0.74550
 O1286 O 0.82605 0.96921 0.70302
 O1287 O 0.72730 1.06150 0.75370
 O1288 O 0.72013 1.04551 0.79325
 O1289 O 0.69197 0.99914 0.70480
 O1290 O 0.70306 0.95462 0.70008
 O1291 O 0.76068 1.03781 0.68002
 O1292 O 0.80552 1.03404 0.69136
 Zr1293 Zr 0.77464 1.02922 0.71806
 O1294 O 0.79849 1.00260 0.73827
 Zr1295 Zr 0.73007 0.98465 0.70646
 O1296 O 0.75159 0.95636 0.72656
 Zr1297 Zr 0.72594 1.02141 0.75999
 O1298 O 0.74830 0.99499 0.78251
 Zr1299 Zr 0.79130 0.96509 0.72450
 O1300 O 0.76998 0.99205 0.70170
 Zr1301 Zr 0.78816 1.00197 0.77809
 O1302 O 0.76594 1.03081 0.75862
 Zr1303 Zr 0.74331 0.95755 0.76714
 O1304 O 0.71887 0.98374 0.74620
 O1305 O 0.73491 1.02213 0.72034
 O1306 O 0.78283 0.96436 0.76445
 C1307 C 0.74143 1.07541 0.73878
 C1308 C 0.74354 1.02671 0.66545
 C1309 C 0.67951 1.01496 0.71960
 C1310 C 0.77685 0.91143 0.74610
 C1311 C 0.83515 0.96550 0.76724
 C1312 C 0.77781 0.95923 0.81870
 H1313 H 0.81705 1.00705 0.73633
 H1314 H 0.74342 0.99627 0.80126
 H1315 H 0.72432 1.03513 0.71087
 H1316 H 0.74737 0.93955 0.71833
 H1317 H 0.78904 0.95788 0.67398
 H1318 H 0.74462 0.94810 0.67465
 H1319 H 0.77760 1.04241 0.80620
 H1320 H 0.73366 1.04072 0.80629
 H1321 H 0.82529 0.98647 0.69510
 H1322 H 0.80412 1.02011 0.67796
 H1323 H 0.71466 0.96565 0.80836
 H1324 H 0.68733 0.99783 0.78088
 H1325 H 0.80158 1.06513 0.74113
 H1326 H 0.81221 1.04545 0.77801
 H1327 H 0.69318 0.95291 0.71659
 H1328 H 0.71505 0.92323 0.74341
 O1329 O 0.67680 0.54041 0.26497
 O1330 O 0.69437 0.53622 0.31011
 O1331 O 0.73987 0.57361 0.22464
 O1332 O 0.78251 0.56499 0.21972
 O1333 O 0.70150 0.50845 0.19055
 O1334 O 0.70091 0.46382 0.19858
 O1335 O 0.81539 0.49471 0.27874
 O1336 O 0.81077 0.54153 0.27589
 O1337 O 0.75623 0.46717 0.32048
 O1338 O 0.71162 0.47364 0.32187
 O1339 O 0.77394 0.43480 0.24818
 O1340 O 0.76405 0.44716 0.20133
 O1341 O 0.80958 0.46603 0.24513
 O1342 O 0.79398 0.47243 0.19944
 O1343 O 0.74904 0.43470 0.28493
 O1344 O 0.70377 0.44395 0.28698
 O1345 O 0.78752 0.49769 0.31810
 O1346 O 0.78608 0.54340 0.31181
 O1347 O 0.67088 0.51075 0.23229
 O1348 O 0.67875 0.46338 0.23145
 O1349 O 0.73354 0.53812 0.18700
 O1350 O 0.78034 0.53282 0.19044
 O1351 O 0.71400 0.57386 0.26074
 O1352 O 0.72380 0.56265 0.30599
 Zr1353 Zr 0.71649 0.53591 0.27518
 O1354 O 0.74197 0.51079 0.29539
 Zr1355 Zr 0.75450 0.53555 0.22261
 O1356 O 0.78189 0.51078 0.24072
 Zr1357 Zr 0.70720 0.49234 0.22791
 O1358 O 0.73251 0.46565 0.24580
 Zr1359 Zr 0.78010 0.51537 0.28173
 O1360 O 0.75511 0.54274 0.26354
 Zr1361 Zr 0.73312 0.47226 0.28657
 O1362 O 0.70499 0.49724 0.26909
 Zr1363 Zr 0.77076 0.47239 0.23365
 O1364 O 0.74500 0.49712 0.21322
 O1365 O 0.71639 0.53070 0.23461
 O1366 O 0.77118 0.47699 0.27437
 C1367 C 0.66269 0.52900 0.24751
 C1368 C 0.72415 0.58484 0.24078
 C1369 C 0.71378 0.52575 0.17797
 C1370 C 0.82309 0.47590 0.26391
 C1371 C 0.77652 0.47877 0.32944
 C1372 C 0.76477 0.42388 0.26856
 H1373 H 0.74059 0.51410 0.31453
 H1374 H 0.72668 0.44796 0.24156
 H1375 H 0.70431 0.54251 0.22532
 H1376 H 0.79963 0.51419 0.23434
 H1377 H 0.80264 0.55802 0.27040
 H1378 H 0.79922 0.55798 0.22641
 H1379 H 0.68695 0.45304 0.28454
 H1380 H 0.66859 0.46738 0.24745
 H1381 H 0.77076 0.54334 0.32341
 H1382 H 0.74056 0.57095 0.30200
 H1383 H 0.74985 0.43542 0.20614
 H1384 H 0.71702 0.46284 0.18807
 H1385 H 0.68112 0.52262 0.30819
 H1386 H 0.69539 0.48325 0.31795
 H1387 H 0.77633 0.51655 0.18096
 H1388 H 0.80668 0.48655 0.20131
 O1389 O 0.51171 0.17880 0.73537
 O1390 O 0.46441 0.18431 0.74457
 O1391 O 0.52529 0.23930 0.68261
 O1392 O 0.52252 0.28260 0.68195
 O1393 O 0.57636 0.22450 0.74770
 O1394 O 0.57453 0.23807 0.79386
 O1395 O 0.46267 0.31490 0.74863
 O1396 O 0.46149 0.29752 0.70558
 O1397 O 0.44166 0.25316 0.79811
 O1398 O 0.45655 0.20973 0.80162
 O1399 O 0.50631 0.29921 0.81634
 O1400 O 0.55050 0.30017 0.80264
 O1401 O 0.49746 0.32438 0.77481
 O1402 O 0.54647 0.31771 0.76685
 O1403 O 0.47863 0.26689 0.82605
 O1404 O 0.49022 0.22429 0.83010
 O1405 O 0.43395 0.27833 0.76247
 O1406 O 0.43549 0.26583 0.71566
 O1407 O 0.54651 0.18790 0.76169
 O1408 O 0.55062 0.20820 0.80598
 O1409 O 0.56754 0.24849 0.71146
 O1410 O 0.55309 0.29395 0.70988
 O1411 O 0.49942 0.20586 0.69376
 O1412 O 0.45692 0.20461 0.71066
 Zr1413 Zr 0.49040 0.21351 0.73333
 O1414 O 0.46618 0.23821 0.75516
 Zr1415 Zr 0.52910 0.26187 0.71706
 O1416 O 0.50626 0.28867 0.73831
 Zr1417 Zr 0.54210 0.22747 0.77040
 O1418 O 0.51973 0.25277 0.79416
 Zr1419 Zr 0.46782 0.27558 0.73992
 O1420 O 0.48988 0.25027 0.71601
 Zr1421 Zr 0.48064 0.24152 0.79371
 O1422 O 0.50354 0.21391 0.77286
 Zr1423 Zr 0.51897 0.28978 0.77782
 O1424 O 0.54407 0.26515 0.75571
 O1425 O 0.52891 0.22482 0.73176
 O1426 O 0.48024 0.27876 0.77889
 C1427 C 0.53308 0.17256 0.74713
 C1428 C 0.51335 0.21811 0.67736
 C1429 C 0.58239 0.23359 0.72506
 C1430 C 0.47613 0.33047 0.76286
 C1431 C 0.42716 0.26812 0.78425
 C1432 C 0.48968 0.28846 0.83139
 H1433 H 0.44839 0.23113 0.75501
 H1434 H 0.52666 0.25301 0.81239
 H1435 H 0.53918 0.21278 0.72069
 H1436 H 0.50717 0.30571 0.72990
 H1437 H 0.46872 0.28734 0.69070
 H1438 H 0.51096 0.29735 0.68624
 H1439 H 0.50223 0.20987 0.82607
 H1440 H 0.53803 0.19399 0.80749
 H1441 H 0.42689 0.25068 0.72323
 H1442 H 0.45307 0.21995 0.69985
 H1443 H 0.55626 0.28442 0.81185
 H1444 H 0.58108 0.25442 0.78669
 H1445 H 0.47215 0.17562 0.76005
 H1446 H 0.46747 0.19400 0.80004
 H1447 H 0.56596 0.29485 0.72446
 H1448 H 0.53941 0.32677 0.75129
 O1449 O 0.24976 0.78063 0.42884
 O1450 O 0.20394 0.78105 0.43605
 O1451 O 0.28085 0.81444 0.49903
 O1452 O 0.28499 0.80733 0.54081
 O1453 O 0.31293 0.74207 0.46628
 O1454 O 0.29972 0.69869 0.46802
 O1455 O 0.21002 0.75528 0.56771
 O1456 O 0.21538 0.79781 0.55720
 O1457 O 0.17480 0.71848 0.50409
 O1458 O 0.17961 0.71847 0.45925
 O1459 O 0.23913 0.68391 0.53711
 O1460 O 0.28292 0.68824 0.53794
 O1461 O 0.23899 0.72199 0.57004
 O1462 O 0.28885 0.72116 0.55920
 O1463 O 0.20935 0.68257 0.50382
 O1464 O 0.21130 0.69265 0.45393
 O1465 O 0.17618 0.75206 0.53311
 O1466 O 0.18750 0.79906 0.52404
 O1467 O 0.27772 0.74643 0.42981
 O1468 O 0.26896 0.70021 0.44052
 O1469 O 0.31507 0.77513 0.49596
 O1470 O 0.30438 0.77230 0.54516
 O1471 O 0.25209 0.81535 0.46472
 O1472 O 0.20354 0.80901 0.46720
 Zr1473 Zr 0.23240 0.77974 0.46630
 O1474 O 0.20567 0.75930 0.48937
 Zr1475 Zr 0.27799 0.77728 0.51334
 O1476 O 0.25259 0.75924 0.53907
 Zr1477 Zr 0.27404 0.73073 0.46797
 O1478 O 0.25044 0.70917 0.49301
 Zr1479 Zr 0.21363 0.76756 0.52905
 O1480 O 0.23923 0.78942 0.50613
 Zr1481 Zr 0.21144 0.71922 0.48583
 O1482 O 0.23501 0.73961 0.45894
 Zr1483 Zr 0.25682 0.71951 0.53277
 O1484 O 0.28379 0.73754 0.50797
 O1485 O 0.27097 0.77019 0.47372
 O1486 O 0.21774 0.72767 0.52547
 C1487 C 0.26760 0.76632 0.41853
 C1488 C 0.27037 0.82521 0.47908
 C1489 C 0.32498 0.76039 0.47806
 C1490 C 0.22148 0.73702 0.58000
 C1491 C 0.16483 0.73262 0.52241
 C1492 C 0.22149 0.67257 0.52363
 H1493 H 0.18763 0.76398 0.48431
 H1494 H 0.25404 0.69068 0.48970
 H1495 H 0.28297 0.78012 0.46274
 H1496 H 0.25679 0.76466 0.55733
 H1497 H 0.22619 0.81146 0.54952
 H1498 H 0.26967 0.80816 0.55241
 H1499 H 0.22434 0.67908 0.45793
 H1500 H 0.25409 0.70504 0.42902
 H1501 H 0.17328 0.79370 0.51199
 H1502 H 0.20738 0.82000 0.48278
 H1503 H 0.28652 0.68113 0.52020
 H1504 H 0.30817 0.69854 0.48560
 H1505 H 0.20458 0.76410 0.42693
 H1506 H 0.18025 0.73474 0.44937
 H1507 H 0.31625 0.75791 0.54035
 H1508 H 0.28450 0.73367 0.57336
 O1509 O 0.26946 0.33617 1.00718
 O1510 O 0.26362 0.32371 1.05108
 O1511 O 0.30874 0.27328 0.97147
 O1512 O 0.30362 0.23061 0.96773
 O1513 O 0.24151 0.30450 0.93137
 O1514 O 0.19909 0.30765 0.93673
 O1515 O 0.23315 0.19880 1.02846
 O1516 O 0.27793 0.20569 1.02920
 O1517 O 0.19670 0.26162 1.06296
 O1518 O 0.19583 0.30657 1.05759
 O1519 O 0.17051 0.23290 0.98891
 O1520 O 0.18287 0.23862 0.94564
 O1521 O 0.20465 0.20012 0.99403
 O1522 O 0.21601 0.21121 0.94598
 O1523 O 0.16661 0.25935 1.02464
 O1524 O 0.17443 0.30964 1.02298
 O1525 O 0.22801 0.23041 1.06371
 O1526 O 0.27729 0.23630 1.06037
 O1527 O 0.24262 0.33798 0.97139
 O1528 O 0.19342 0.32766 0.97263
 O1529 O 0.27467 0.27519 0.93197
 O1530 O 0.27189 0.22743 0.93907
 O1531 O 0.30546 0.30130 1.00609
 O1532 O 0.29119 0.29303 1.05208
 Zr1533 Zr 0.26659 0.29778 1.01886
 O1534 O 0.24109 0.27388 1.03939
 Zr1535 Zr 0.27164 0.25648 0.96867
 O1536 O 0.24814 0.22962 0.98812
 Zr1537 Zr 0.22488 0.30135 0.96867
 O1538 O 0.19857 0.27569 0.98584
 Zr1539 Zr 0.24966 0.23553 1.02910
 O1540 O 0.27674 0.25934 1.00995
 Zr1541 Zr 0.20230 0.27958 1.02681
 O1542 O 0.22742 0.30678 1.00962
 Zr1543 Zr 0.20923 0.23718 0.97778
 O1544 O 0.23280 0.26293 0.95675
 O1545 O 0.26361 0.29458 0.97812
 O1546 O 0.21097 0.24127 1.01843
 C1547 C 0.25976 0.34774 0.98722
 C1548 C 0.31809 0.29074 0.98698
 C1549 C 0.26112 0.29314 0.92086
 C1550 C 0.21516 0.18890 1.01399
 C1551 C 0.20808 0.24219 1.07343
 C1552 C 0.15792 0.24194 1.00862
 H1553 H 0.24305 0.27717 1.05850
 H1554 H 0.18066 0.27939 0.97959
 H1555 H 0.27532 0.30612 0.96853
 H1556 H 0.25352 0.21179 0.98361
 H1557 H 0.29401 0.21311 1.02201
 H1558 H 0.29882 0.21562 0.97844
 H1559 H 0.16070 0.30373 1.01062
 H1560 H 0.19745 0.33898 0.98792
 H1561 H 0.27083 0.24820 1.07422
 H1562 H 0.30248 0.27789 1.04838
 H1563 H 0.19104 0.24942 0.93212
 H1564 H 0.18748 0.29259 0.93586
 H1565 H 0.24608 0.33167 1.04988
 H1566 H 0.21243 0.30825 1.06740
 H1567 H 0.25722 0.23126 0.92694
 H1568 H 0.22712 0.19688 0.95234
 N1569 N 0.28488 0.38740 0.77658
 N1570 N 0.29425 0.39751 0.75599
 N1571 N 0.29526 -0.11412 0.27621
 N1572 N 0.28832 -0.10065 0.25749
 N1573 N 0.78844 0.87115 0.76222
 N1574 N 0.78024 0.88428 0.74389
 N1575 N 0.48171 0.86827 0.29378
 N1576 N 0.47517 0.85605 0.27295
 N1577 N -0.02938 0.86513 0.77825
 N1578 N -0.01724 0.85316 0.76126
 N1579 N -0.02085 -0.11199 -0.02192
 N1580 N -0.02800 -0.09963 -0.00142
 N1581 N -0.03594 0.37295 0.47326
 N1582 N -0.02290 0.38623 0.48850
 N1583 N 0.47200 -0.13078 0.48271
 N1584 N 0.48639 -0.11748 0.49648
 N1585 N 0.46095 0.38404 -0.02104
 N1586 N 0.47162 0.39791 -0.00440
 N1587 N 0.77260 0.34909 0.46211
 N1588 N 0.77931 0.33707 0.48278
 N1589 N 0.78950 0.86923 -0.03396
 N1590 N 0.77311 0.85778 -0.02102
 N1591 N 0.78381 0.27208 0.37837
 N1592 N 0.76525 0.27879 0.39339
 N1593 N 0.77337 0.79869 -0.11764
 N1594 N 0.77867 0.77732 -0.10680
 N1595 N 0.29196 0.45924 0.84474
 N1596 N 0.30322 0.47589 0.83091
 N1597 N 0.29103 -0.04211 0.35311
 N1598 N 0.29659 -0.02006 0.34444
 N1599 N -0.02213 -0.05301 -0.11228
 N1600 N -0.00428 -0.04380 -0.09911
 N1601 N -0.04020 0.46977 0.38822
 N1602 N -0.02795 0.48296 0.40406
 N1603 N 0.45684 -0.03212 0.39446
 N1604 N 0.47420 -0.04153 0.40962
 N1605 N 0.46339 0.47622 -0.12219
 N1606 N 0.47375 0.46239 -0.10449
 N1607 N 0.45585 0.78434 0.36965
 N1608 N 0.47559 0.79261 0.35756
 N1609 N -0.02206 0.79007 0.87851
 N1610 N -0.00664 0.77859 0.86408
 N1611 N 0.38935 0.78495 0.29963
 N1612 N 0.40201 0.79064 0.27911
 N1613 N -0.11000 0.78205 0.80194
 N1614 N -0.09719 0.78627 0.78119
 N1615 N 0.86112 0.28189 0.47190
 N1616 N 0.85059 0.26153 0.46309
 N1617 N 0.87151 0.79549 -0.02786
 N1618 N 0.85924 0.77642 -0.03765
 N1619 N -0.11331 -0.03588 -0.02745
 N1620 N -0.10198 -0.02264 -0.01063
 N1621 N -0.13434 0.45323 0.47756
 N1622 N -0.12216 0.46698 0.49319
 N1623 N 0.37484 -0.04452 0.47107
 N1624 N 0.38675 -0.03459 0.48972
 N1625 N 0.37295 0.47266 -0.03641
 N1626 N 0.38612 0.48509 -0.02038
 N1627 N 0.38439 0.47903 0.76270
 N1628 N 0.37060 0.46709 0.74587
 N1629 N 0.37868 -0.03573 0.27292
 N1630 N 0.36547 -0.01604 0.27985
 N1631 N 0.14306 0.54298 0.72114
 N1632 N 0.15682 0.52669 0.70845
 N1633 N 0.14412 0.04484 0.21287
 N1634 N 0.15765 0.02720 0.20200
 N1635 N 0.62306 0.72478 0.22072
 N1636 N 0.60986 0.71478 0.23891
 N1637 N 0.12253 0.71981 0.71815
 N1638 N 0.10995 0.71052 0.73721
 N1639 N 0.63308 0.20649 0.53876
 N1640 N 0.64597 0.19556 0.52053
 N1641 N 0.64067 0.70615 0.02923
 N1642 N 0.65524 0.72355 0.03910
 N1643 N 0.12620 0.04657 0.02697
 N1644 N 0.11387 0.03538 0.00948
 N1645 N 0.10181 0.53488 0.52334
 N1646 N 0.08987 0.51949 0.53813
 N1647 N 0.60655 0.03966 0.53849
 N1648 N 0.59456 0.02223 0.55063
 N1649 N 0.61238 0.53367 0.03961
 N1650 N 0.60026 0.53926 0.01854
 N1651 N 0.04744 0.06696 0.10882
 N1652 N 0.04027 0.07191 0.08619
 N1653 N 0.03296 0.51635 0.63244
 N1654 N 0.01117 0.52248 0.62208
 N1655 N 0.52156 0.02177 0.64163
 N1656 N 0.50493 0.00959 0.62916
 N1657 N 0.53221 0.53424 0.11633
 N1658 N 0.51656 0.54645 0.10137
 N1659 N 0.21177 0.52447 0.61181
 N1660 N 0.23161 0.53343 0.62360
 N1661 N 0.22999 0.03826 0.11830
 N1662 N 0.24541 0.02338 0.12911
 N1663 N 0.70735 0.19506 0.60910
 N1664 N 0.72566 0.18548 0.59519
 N1665 N 0.72148 0.72886 0.12097
 N1666 N 0.73973 0.71919 0.10728
 N1667 N 0.54967 0.71723 0.13986
 N1668 N 0.53060 0.70926 0.15326
 N1669 N 0.04227 0.71029 0.63980
 N1670 N 0.02513 0.70085 0.65470
 N1671 N 0.52150 0.62976 0.22201
 N1672 N 0.53023 0.64196 0.24199
 N1673 N 0.02457 0.62258 0.72759
 N1674 N 0.03359 0.63679 0.74600
 N1675 N 0.03255 0.13017 0.00368
 N1676 N 0.02774 0.11388 -0.01346
 N1677 N 0.02554 0.60972 0.53737
 N1678 N 0.00686 0.59820 0.54848
 N1679 N 0.53171 0.10778 0.54100
 N1680 N 0.51227 0.09624 0.55063
 N1681 N 0.52456 0.62354 0.03341
 N1682 N 0.52981 0.61151 0.01211
 N1683 N 0.72256 0.10868 0.51100
 N1684 N 0.73336 0.12154 0.49427
 N1685 N 0.70997 0.63604 0.02607
 N1686 N 0.73030 0.64776 0.03398
 N1687 N 0.22378 0.62005 0.72014
 N1688 N 0.24069 0.60769 0.70677
 N1689 N 0.22128 0.12482 0.21332
 N1690 N 0.23849 0.11263 0.22483
 N1691 N 0.72568 1.11591 0.72613
 N1692 N 0.73899 1.10272 0.74122
 N1693 N 0.72432 0.62287 0.21564
 N1694 N 0.71595 0.61071 0.23544
 N1695 N 0.53300 0.13326 0.72454
 N1696 N 0.54373 0.14763 0.74182
 N1697 N 1.04114 0.13929 0.22680
 N1698 N 1.02167 0.15143 0.21743
 N1699 N 0.19898 0.63338 0.51914
 N1700 N 0.21545 0.64708 0.53149
 N1701 N 0.21329 0.15341 1.04222
 N1702 N 0.20522 0.16439 1.02133
 N1703 N 0.22585 0.71708 0.62082
 N1704 N 0.21372 0.73299 0.60635
 N1705 N 0.20579 0.21200 1.10719
 N1706 N 0.19728 0.23275 1.09713
 N1707 N 0.71505 0.54853 0.13818
 N1708 N 0.70427 0.53179 0.15242
 N1709 N 0.71637 1.03066 0.62926
 N1710 N 0.73687 1.03828 0.64097
 N1711 N 0.53304 0.21654 0.63633
 N1712 N 0.51723 0.20647 0.65217
 N1713 N 1.01282 0.20707 0.12322
 N1714 N 1.01798 0.22791 0.13553
 N1715 N 0.61910 0.20619 0.72238
 N1716 N 0.60597 0.22488 0.71293
 N1717 N 1.10937 0.21112 0.21461
 N1718 N 1.09687 0.23067 0.20602
 N1719 N 0.12786 0.70576 0.52520
 N1720 N 0.14021 0.72564 0.53297
 N1721 N 0.12009 0.23489 1.03401
 N1722 N 0.13330 0.23045 1.01338
 N1723 N 0.62340 0.52866 0.22454
 N1724 N 0.63686 0.53848 0.24315
 N1725 N 0.64017 1.03920 0.72203
 N1726 N 0.65355 1.02137 0.71121
 N1727 N 0.85926 0.47059 0.29100
 N1728 N 0.84749 0.46396 0.26997
 N1729 N 0.86780 0.95800 0.79939
 N1730 N 0.85840 0.95348 0.77658
 N1731 N 0.38756 0.29009 0.78151
 N1732 N 0.40204 0.27441 0.79405
 N1733 N 0.87449 0.29430 0.27114
 N1734 N 0.88926 0.27653 0.27987
 N1735 N 0.36203 0.78592 0.47742
 N1736 N 0.35015 0.76622 0.46875
 N1737 N 0.35549 0.29363 0.96079
 N1738 N 0.34338 0.30060 0.98148
 N1739 N 0.77917 0.44959 0.36409
 N1740 N 0.78798 0.46967 0.35333
 N1741 N 0.80514 0.95514 0.85598
 N1742 N 0.78555 0.94698 0.84281
 N1743 N 0.27401 0.79589 0.38365
 N1744 N 0.27914 0.77428 0.39439
 N1745 N 0.28843 0.29255 0.88386
 N1746 N 0.26864 0.30188 0.89550
 N1747 N 0.46209 0.29370 0.86726
 N1748 N 0.48187 0.30179 0.85499
 N1749 N 0.95207 0.28326 0.36176
 N1750 N 0.97093 0.29194 0.34860
 N1751 N 0.47678 0.37118 0.78289
 N1752 N 0.46632 0.35610 0.76611
 N1753 N 0.96201 0.36868 0.29118
 N1754 N 0.95397 0.35721 0.27051
 N1755 N 0.27811 0.85787 0.44878
 N1756 N 0.28167 0.84875 0.47156
 N1757 N 0.26803 0.38024 0.95735
 N1758 N 0.27153 0.37142 0.98031
 N1759 N 0.76724 0.38534 0.29334
 N1760 N 0.77392 0.39837 0.27349
   
