data_POSCAR
  _audit_creation_date              2014-09-24
  _audit_creation_method            'ToBaCCo'
  _symmetry_space_group_name_H-M    'P1'
  _symmetry_Int_Tables_number       1
  _symmetry_cell_setting            triclinic
  loop_
  _symmetry_equiv_pos_as_xyz
 x,y,z
_cell_length_a 35.6260
_cell_length_b 35.5715
_cell_length_c 35.6648
_cell_angle_alpha 90.015300
_cell_angle_beta 90.008600
_cell_angle_gamma 90.008200
loop_
  _atom_site_label
  _atom_site_type_symbol
  _atom_site_fract_x
  _atom_site_fract_y
  _atom_site_fract_z
O1 O 0.27878 1.04156 0.03215
 O2 O 0.27630 0.96549 -0.03810
 O3 O 0.27685 1.03840 -0.04128
 O4 O 0.27833 0.96759 0.03423
 O5 O 0.21644 0.96860 0.03600
 O6 O 0.21498 1.03887 -0.03930
 O7 O 0.21482 0.96608 -0.03617
 O8 O 0.21686 1.04179 0.03348
 Cu9 Cu 0.28385 1.00349 -0.00321
 Cu10 Cu 0.20962 1.00408 -0.00122
 C11 C 0.24808 1.05500 0.04435
 C12 C 0.24495 0.95194 -0.04867
 C13 C 0.24554 1.05006 -0.05376
 C14 C 0.24749 0.95505 0.04702
 O15 O 0.78767 0.52933 0.54052
 O16 O 0.78082 0.45982 0.46465
 O17 O 0.78647 0.53291 0.46690
 O18 O 0.77798 0.45685 0.53674
 O19 O 0.71682 0.46513 0.53804
 O20 O 0.72492 0.53908 0.46610
 O21 O 0.71920 0.46571 0.46489
 O22 O 0.72654 0.53784 0.53911
 Cu23 Cu 0.78940 0.49432 0.50224
 Cu24 Cu 0.71574 0.50264 0.50196
 C25 C 0.75861 0.54597 0.55254
 C26 C 0.74880 0.44997 0.45260
 C27 C 0.75712 0.54913 0.45463
 C28 C 0.74578 0.44759 0.54907
 O29 O 0.78051 0.96027 1.03897
 O30 O 0.78320 1.03508 0.96673
 O31 O 0.78645 1.03325 1.03952
 O32 O 0.78212 0.96099 0.96595
 O33 O 0.72033 0.96406 0.96686
 O34 O 0.72496 1.03671 1.04067
 O35 O 0.72133 1.03742 0.96822
 O36 O 0.71908 0.96379 1.03964
 Cu37 Cu 0.78925 0.99709 1.00254
 Cu38 Cu 0.71532 1.00077 1.00383
 C39 C 0.74900 0.94872 1.05145
 C40 C 0.75240 1.04965 0.95601
 C41 C 0.75675 1.04729 1.05318
 C42 C 0.75045 0.94944 0.95446
 O43 O 0.21796 0.47335 0.53527
 O44 O 0.22791 0.54376 0.46062
 O45 O 0.22168 0.47060 0.46179
 O46 O 0.22791 0.54607 0.53251
 O47 O 0.28889 0.53735 0.53580
 O48 O 0.28320 0.46401 0.46317
 O49 O 0.28935 0.53710 0.46262
 O50 O 0.27905 0.46453 0.53576
 Cu51 Cu 0.21769 0.50887 0.49739
 Cu52 Cu 0.29126 0.50008 0.49956
 C53 C 0.24652 0.45626 0.54788
 C54 C 0.26038 0.55339 0.44962
 C55 C 0.25137 0.45424 0.45053
 C56 C 0.25974 0.55515 0.54589
 O57 O 1.03780 0.22291 0.03484
 O58 O 0.96299 0.22298 -0.03729
 O59 O 1.03595 0.22017 -0.03738
 O60 O 0.96438 0.22286 0.03675
 O61 O 0.96499 0.28481 0.03470
 O62 O 1.03824 0.28217 -0.03813
 O63 O 0.96558 0.28462 -0.03900
 O64 O 1.03802 0.28498 0.03367
 Cu65 Cu 0.99972 0.21599 -0.00055
 Cu66 Cu 1.00134 0.29035 -0.00225
 C67 C 1.05136 0.25419 0.04563
 C68 C 0.95260 0.25403 -0.05175
 C69 C 1.05020 0.25052 -0.04954
 C70 C 0.95303 0.25436 0.04898
 O71 O 0.53945 0.71515 0.53873
 O72 O 0.46679 0.72386 0.46545
 O73 O 0.53951 0.71536 0.46549
 O74 O 0.46669 0.72211 0.53872
 O75 O 0.47369 0.78377 0.53952
 O76 O 0.54731 0.77672 0.46728
 O77 O 0.47467 0.78546 0.46574
 O78 O 0.54632 0.77672 0.53942
 Cu79 Cu 0.50231 0.71297 0.50199
 Cu80 Cu 0.51083 0.78689 0.50302
 C81 C 0.55576 0.74439 0.55117
 C82 C 0.45894 0.75623 0.45268
 C83 C 0.55656 0.74469 0.45445
 C84 C 0.45825 0.75411 0.55203
 O85 O 0.04043 0.71479 -0.03500
 O86 O -0.03207 0.72009 0.03790
 O87 O -0.03267 0.72286 -0.03457
 O88 O 0.04114 0.71870 0.03808
 O89 O 0.04596 0.78045 0.03638
 O90 O -0.02887 0.78434 -0.03454
 O91 O -0.02768 0.78196 0.03789
 O92 O 0.04392 0.77630 -0.03695
 Cu93 Cu 0.00398 0.71300 0.00160
 Cu94 Cu 0.00892 0.78688 0.00068
 C95 C 0.05505 0.74426 -0.04850
 C96 C -0.04288 0.75187 0.04980
 C97 C -0.04447 0.75460 -0.04626
 C98 C 0.05657 0.74895 0.04925
 O99 O 0.53532 0.21570 0.46339
 O100 O 0.45927 0.22241 0.53289
 O101 O 0.46235 0.22398 0.46082
 O102 O 0.53181 0.21519 0.53702
 O103 O 0.53963 0.27653 0.53732
 O104 O 0.46952 0.28541 0.46166
 O105 O 0.46665 0.28385 0.53490
 O106 O 0.54227 0.27727 0.46446
 Cu107 Cu 0.49678 0.21314 0.49835
 Cu108 Cu 0.50518 0.28691 0.49971
 C109 C 0.55202 0.24518 0.45220
 C110 C 0.44946 0.25436 0.54537
 C111 C 0.45327 0.25637 0.44882
 C112 C 0.54803 0.24421 0.54998
 O113 O 1.03903 0.03957 0.27637
 O114 O 0.96948 -0.03675 0.27503
 O115 O 1.04285 -0.03347 0.27576
 O116 O 0.96669 0.03689 0.27509
 O117 O 0.96770 0.03684 0.21318
 O118 O 1.04343 -0.03278 0.21392
 O119 O 0.97083 -0.03667 0.21348
 O120 O 1.03997 0.04022 0.21448
 Cu121 Cu 1.00428 0.00130 0.28180
 Cu122 Cu 1.00541 0.00176 0.20757
 C123 C 1.05072 0.05352 0.24575
 C124 C 0.95872 -0.05054 0.24395
 C125 C 1.05658 -0.04460 0.24479
 C126 C 0.95518 0.04973 0.24390
 O127 O 0.53532 0.53560 0.78004
 O128 O 0.46388 0.46164 0.77540
 O129 O 0.53713 0.46294 0.77682
 O130 O 0.46295 0.53549 0.77609
 O131 O 0.46565 0.53709 0.71427
 O132 O 0.53869 0.46476 0.71498
 O133 O 0.46571 0.46378 0.71361
 O134 O 0.53798 0.53759 0.71821
 Cu135 Cu 0.49935 0.49854 0.78333
 Cu136 Cu 0.50208 0.50080 0.70904
 C137 C 0.54849 0.54958 0.75009
 C138 C 0.45297 0.44966 0.74373
 C139 C 0.55110 0.45214 0.74583
 C140 C 0.45264 0.54951 0.74495
 O141 O 0.96110 1.03619 0.77979
 O142 O 1.03733 0.96644 0.78337
 O143 O 1.03366 1.03909 0.78192
 O144 O 0.96466 0.96290 0.78316
 O145 O 0.96549 0.96062 0.72128
 O146 O 1.03497 1.03760 0.72009
 O147 O 1.03863 0.96449 0.72153
 O148 O 0.96271 1.03423 0.71826
 Cu149 Cu 0.99891 1.00124 0.78825
 Cu150 Cu 1.00039 0.99886 0.71405
 C151 C 0.94966 1.04830 0.74822
 C152 C 1.05135 0.95399 0.75307
 C153 C 1.04563 1.05193 0.75097
 C154 C 0.95384 0.94825 0.75262
 O155 O 0.47119 0.53873 0.22006
 O156 O 0.54285 0.46473 0.22394
 O157 O 0.46975 0.46503 0.22169
 O158 O 0.54363 0.53790 0.22356
 O159 O 0.54125 0.53802 0.28544
 O160 O 0.46687 0.46711 0.28351
 O161 O 0.53941 0.46517 0.28571
 O162 O 0.46916 0.54053 0.28189
 Cu163 Cu 0.50694 0.50137 0.21602
 Cu164 Cu 0.50377 0.50267 0.29035
 C165 C 0.45897 0.55319 0.25021
 C166 C 0.55365 0.45258 0.25560
 C167 C 0.45632 0.45321 0.25251
 C168 C 0.55447 0.55082 0.25499
 O169 O 0.24926 0.15763 0.19393
 O170 O 0.29259 0.14664 0.24401
 O171 O 0.15398 0.20532 0.24807
 O172 O 0.13980 0.25774 0.28261
 O173 O 0.20225 0.25958 0.14903
 O174 O 0.25693 0.29679 0.13885
 O175 O 0.25014 0.30453 0.34558
 O176 O 0.20857 0.25450 0.35387
 O177 O 0.34884 0.25237 0.29986
 O178 O 0.36049 0.21175 0.25140
 O179 O 0.30644 0.35078 0.25203
 O180 O 0.25449 0.36498 0.20841
 O181 O 0.25398 0.35053 0.30127
 O182 O 0.21306 0.36418 0.24644
 O183 O 0.35042 0.30450 0.25051
 O184 O 0.35922 0.25005 0.20515
 O185 O 0.30335 0.25802 0.34427
 O186 O 0.25553 0.20745 0.35036
 O187 O 0.25185 0.20376 0.14967
 O188 O 0.29678 0.25461 0.14084
 O189 O 0.15613 0.25747 0.19304
 O190 O 0.14790 0.30202 0.24597
 O191 O 0.19762 0.15863 0.24508
 O192 O 0.24780 0.15198 0.29302
 Zr193 Zr 0.24912 0.18747 0.24508
 O194 O 0.28487 0.21859 0.28045
 Zr195 Zr 0.18510 0.25565 0.24448
 O196 O 0.21765 0.28871 0.28094
 Zr197 Zr 0.25228 0.25449 0.18008
 O198 O 0.28739 0.28870 0.21319
 Zr199 Zr 0.25261 0.25467 0.31405
 O200 O 0.21618 0.22112 0.28104
 Zr201 Zr 0.31924 0.25433 0.24893
 O202 O 0.28694 0.21972 0.21294
 Zr203 Zr 0.25483 0.32196 0.24945
 O204 O 0.21947 0.29152 0.21243
 O205 O 0.21585 0.22037 0.21012
 O206 O 0.28881 0.28967 0.28427
 C207 C 0.25014 0.16908 0.15972
 C208 C 0.16364 0.17043 0.24766
 C209 C 0.16754 0.25975 0.15894
 C210 C 0.25111 0.33922 0.33540
 C211 C 0.33786 0.25595 0.33397
 C212 C 0.34060 0.33920 0.25229
 H213 H 0.30019 0.20122 0.29581
 H214 H 0.30341 0.30422 0.19672
 H215 H 0.19927 0.20508 0.19390
 H216 H 0.20056 0.30393 0.29664
 H217 H 0.19188 0.23320 0.34734
 H218 H 0.15082 0.26177 0.30771
 H219 H 0.35709 0.27280 0.18935
 H220 H 0.31456 0.23477 0.14880
 H221 H 0.26075 0.21669 0.37608
 H222 H 0.23866 0.12672 0.28562
 H223 H 0.27587 0.36061 0.19126
 H224 H 0.24550 0.31954 0.14994
 H225 H 0.28138 0.12155 0.23930
 H226 H 0.34849 0.18871 0.24155
 H227 H 0.15562 0.31928 0.22561
 H228 H 0.19431 0.35894 0.26622
 O229 O 0.75707 0.84866 0.20174
 O230 O 0.71579 0.85825 0.25376
 O231 O 0.85529 0.80126 0.24911
 O232 O 0.86942 0.75260 0.28772
 O233 O 0.80577 0.75096 0.15365
 O234 O 0.75393 0.70893 0.14473
 O235 O 0.76131 0.69915 0.35054
 O236 O 0.80323 0.74900 0.35874
 O237 O 0.66184 0.75098 0.30730
 O238 O 0.64905 0.79228 0.25957
 O239 O 0.70469 0.65359 0.25648
 O240 O 0.75535 0.64037 0.21300
 O241 O 0.75733 0.65386 0.30551
 O242 O 0.79863 0.64229 0.24932
 O243 O 0.66018 0.69935 0.25758
 O244 O 0.64942 0.75415 0.21320
 O245 O 0.70812 0.74546 0.35093
 O246 O 0.75609 0.79599 0.35711
 O247 O 0.75141 0.80319 0.15694
 O248 O 0.71199 0.74920 0.14628
 O249 O 0.85257 0.74941 0.19703
 O250 O 0.86260 0.70504 0.24956
 O251 O 0.81093 0.84747 0.25027
 O252 O 0.76270 0.85223 0.30080
 Zr253 Zr 0.75968 0.81789 0.25212
 O254 O 0.72500 0.78569 0.28751
 Zr255 Zr 0.82454 0.75074 0.24896
 O256 O 0.79315 0.71647 0.28551
 Zr257 Zr 0.75612 0.75171 0.18582
 O258 O 0.72207 0.71665 0.21903
 Zr259 Zr 0.75836 0.74948 0.31985
 O260 O 0.79375 0.78416 0.28676
 Zr261 Zr 0.69054 0.75001 0.25594
 O262 O 0.72171 0.78550 0.22002
 Zr263 Zr 0.75581 0.68327 0.25413
 O264 O 0.79013 0.71479 0.21701
 O265 O 0.79228 0.78595 0.21581
 O266 O 0.72208 0.71452 0.29012
 C267 C 0.75280 0.83771 0.16767
 C268 C 0.84511 0.83595 0.24917
 C269 C 0.84063 0.75046 0.16305
 C270 C 0.76027 0.66462 0.33983
 C271 C 0.67342 0.74730 0.34118
 C272 C 0.67041 0.66473 0.25808
 H273 H 0.70980 0.80263 0.30347
 H274 H 0.70588 0.70124 0.20261
 H275 H 0.80747 0.80197 0.19902
 H276 H 0.81057 0.70111 0.30068
 H277 H 0.81996 0.77018 0.35195
 H278 H 0.86031 0.74095 0.31118
 H279 H 0.65084 0.73119 0.19761
 H280 H 0.69185 0.76574 0.15590
 H281 H 0.75136 0.78623 0.38273
 H282 H 0.77143 0.87770 0.29364
 H283 H 0.73733 0.64788 0.19330
 H284 H 0.77136 0.68896 0.15312
 H285 H 0.72660 0.88355 0.24927
 H286 H 0.66048 0.81534 0.24911
 H287 H 0.85471 0.68766 0.22936
 H288 H 0.81663 0.64634 0.27005
 O289 O 0.74947 0.15216 0.80718
 O290 O 0.70445 0.14187 0.75856
 O291 O 0.84514 0.19421 0.74851
 O292 O 0.86130 0.24289 0.71296
 O293 O 0.80288 0.25031 0.84832
 O294 O 0.75276 0.29438 0.85730
 O295 O 0.74426 0.29459 0.65164
 O296 O 0.78870 0.24807 0.64280
 O297 O 0.65065 0.24803 0.70198
 O298 O 0.64015 0.20837 0.75275
 O299 O 0.69963 0.34582 0.74651
 O300 O 0.75270 0.35944 0.78623
 O301 O 0.74973 0.34149 0.69483
 O302 O 0.79380 0.35444 0.74835
 O303 O 0.65334 0.30190 0.74834
 O304 O 0.64255 0.25084 0.79625
 O305 O 0.69481 0.24413 0.65600
 O306 O 0.74532 0.19677 0.65040
 O307 O 0.74846 0.19937 0.85031
 O308 O 0.71040 0.25474 0.86051
 O309 O 0.84706 0.24994 0.80221
 O310 O 0.85560 0.29010 0.74505
 O311 O 0.79995 0.14935 0.75507
 O312 O 0.74845 0.14355 0.70865
 Zr313 Zr 0.74975 0.18058 0.75545
 O314 O 0.71404 0.21211 0.72049
 Zr315 Zr 0.81655 0.24580 0.75168
 O316 O 0.78410 0.27910 0.71526
 Zr317 Zr 0.75188 0.24933 0.81862
 O318 O 0.71692 0.28389 0.78567
 Zr319 Zr 0.74650 0.24563 0.68456
 O320 O 0.78273 0.21165 0.71725
 Zr321 Zr 0.68216 0.25030 0.75189
 O322 O 0.71442 0.21548 0.78789
 Zr323 Zr 0.74968 0.31457 0.74737
 O324 O 0.78510 0.28389 0.78401
 O325 O 0.78572 0.21282 0.78832
 O326 O 0.71295 0.28300 0.71455
 C327 C 0.74804 0.16436 0.84108
 C328 C 0.83413 0.15986 0.75054
 C329 C 0.83698 0.25139 0.83679
 C330 C 0.74630 0.32943 0.66104
 C331 C 0.66064 0.24500 0.66750
 C332 C 0.66493 0.33604 0.74626
 H333 H 0.69771 0.19457 0.70642
 H334 H 0.70213 0.30061 0.80215
 H335 H 0.80193 0.19714 0.80455
 H336 H 0.80087 0.29329 0.69829
 H337 H 0.80615 0.22701 0.64783
 H338 H 0.85013 0.24651 0.68786
 H339 H 0.64551 0.27466 0.81026
 H340 H 0.68781 0.24213 0.85051
 H341 H 0.73951 0.20462 0.62435
 H342 H 0.75649 0.11810 0.71666
 H343 H 0.73600 0.35319 0.80748
 H344 H 0.77085 0.31305 0.84743
 H345 H 0.71453 0.11641 0.76377
 H346 H 0.65095 0.18670 0.76638
 H347 H 0.84907 0.30940 0.76390
 H348 H 0.81007 0.34967 0.72638
 O349 O 0.25346 0.84788 0.80681
 O350 O 0.29647 0.86040 0.75777
 O351 O 0.15654 0.80558 0.75098
 O352 O 0.14408 0.75941 0.70922
 O353 O 0.19995 0.74516 0.84608
 O354 O 0.25305 0.70718 0.85751
 O355 O 0.25987 0.70588 0.65099
 O356 O 0.21435 0.75256 0.64218
 O357 O 0.35221 0.75625 0.70119
 O358 O 0.36370 0.79217 0.75625
 O359 O 0.30513 0.65556 0.74464
 O360 O 0.25036 0.64267 0.78671
 O361 O 0.25540 0.65868 0.69400
 O362 O 0.21193 0.64448 0.74558
 O363 O 0.35043 0.70046 0.74752
 O364 O 0.35995 0.75181 0.79600
 O365 O 0.30839 0.75691 0.65490
 O366 O 0.25805 0.80371 0.64906
 O367 O 0.25068 0.80053 0.84984
 O368 O 0.29446 0.74851 0.85818
 O369 O 0.15536 0.75039 0.80058
 O370 O 0.14784 0.70932 0.74544
 O371 O 0.20187 0.85051 0.75518
 O372 O 0.25325 0.85695 0.70765
 Zr373 Zr 0.25254 0.82015 0.75462
 O374 O 0.28874 0.78927 0.71969
 Zr375 Zr 0.18643 0.75432 0.75045
 O376 O 0.21956 0.72119 0.71425
 Zr377 Zr 0.25134 0.75091 0.81750
 O378 O 0.28681 0.71689 0.78464
 Zr379 Zr 0.25681 0.75516 0.68365
 O380 O 0.22003 0.78890 0.71625
 Zr381 Zr 0.32091 0.75147 0.75119
 O382 O 0.28811 0.78570 0.78700
 Zr383 Zr 0.25450 0.68601 0.74621
 O384 O 0.21854 0.71632 0.78255
 O385 O 0.21722 0.78707 0.78726
 O386 O 0.29088 0.71830 0.71367
 C387 C 0.25178 0.83547 0.84062
 C388 C 0.16738 0.84003 0.75376
 C389 C 0.16567 0.74600 0.83482
 C390 C 0.25844 0.67095 0.66032
 C391 C 0.34254 0.75802 0.66645
 C392 C 0.33960 0.66613 0.74485
 H393 H 0.30476 0.80712 0.70565
 H394 H 0.30175 0.70030 0.80109
 H395 H 0.20072 0.80198 0.80382
 H396 H 0.20318 0.70665 0.69720
 H397 H 0.19652 0.77314 0.64784
 H398 H 0.15335 0.74664 0.68641
 H399 H 0.35635 0.72854 0.81075
 H400 H 0.31320 0.76779 0.85111
 H401 H 0.26345 0.79561 0.62300
 H402 H 0.24367 0.88197 0.71527
 H403 H 0.27202 0.64493 0.80392
 H404 H 0.24001 0.68554 0.84595
 H405 H 0.28545 0.88553 0.76272
 H406 H 0.35093 0.81681 0.75683
 H407 H 0.15470 0.69058 0.76478
 H408 H 0.19375 0.65128 0.72574
 O409 O 0.24866 0.35148 0.69733
 O410 O 0.20801 0.36053 0.74989
 O411 O 0.34644 0.30136 0.74370
 O412 O 0.36012 0.25167 0.78062
 O413 O 0.29619 0.25486 0.64690
 O414 O 0.24353 0.21282 0.63745
 O415 O 0.24911 0.19887 0.84271
 O416 O 0.29378 0.24524 0.85166
 O417 O 0.15235 0.25281 0.80091
 O418 O 0.14054 0.29614 0.75396
 O419 O 0.19362 0.15626 0.74593
 O420 O 0.24457 0.14320 0.70365
 O421 O 0.24435 0.15488 0.79652
 O422 O 0.28728 0.14360 0.74067
 O423 O 0.14980 0.20248 0.75073
 O424 O 0.13924 0.25790 0.70713
 O425 O 0.19884 0.24759 0.84433
 O426 O 0.24904 0.29567 0.85102
 O427 O 0.24193 0.30732 0.65143
 O428 O 0.20315 0.25423 0.63864
 O429 O 0.34273 0.24959 0.69032
 O430 O 0.35210 0.20491 0.74234
 O431 O 0.30285 0.34824 0.74495
 O432 O 0.25530 0.35276 0.79619
 Zr433 Zr 0.25119 0.31948 0.74685
 O434 O 0.21601 0.28715 0.78159
 Zr435 Zr 0.31490 0.25133 0.74223
 O436 O 0.28295 0.21678 0.77798
 Zr437 Zr 0.24650 0.25510 0.67902
 O438 O 0.21179 0.21995 0.71145
 Zr439 Zr 0.24890 0.24975 0.81300
 O440 O 0.28482 0.28453 0.78075
 Zr441 Zr 0.18082 0.25280 0.74934
 O442 O 0.21260 0.28851 0.71409
 Zr443 Zr 0.24506 0.18520 0.74567
 O444 O 0.27990 0.21691 0.70932
 O445 O 0.28333 0.28791 0.70978
 O446 O 0.21197 0.21616 0.78249
 C447 C 0.24386 0.34154 0.66303
 C448 C 0.33688 0.33625 0.74379
 C449 C 0.33092 0.25236 0.65643
 C450 C 0.24597 0.16478 0.83119
 C451 C 0.16409 0.24936 0.83479
 C452 C 0.15962 0.16776 0.74922
 H453 H 0.20123 0.30406 0.79797
 H454 H 0.19534 0.20520 0.69466
 H455 H 0.29880 0.30404 0.69332
 H456 H 0.29986 0.20062 0.79292
 H457 H 0.31109 0.26634 0.84624
 H458 H 0.35096 0.23976 0.80393
 H459 H 0.13995 0.23495 0.69148
 H460 H 0.18167 0.26754 0.65009
 H461 H 0.24449 0.28561 0.87655
 H462 H 0.26446 0.37819 0.78946
 H463 H 0.22760 0.15190 0.68350
 H464 H 0.26205 0.19332 0.64453
 H465 H 0.21917 0.38576 0.74585
 H466 H 0.15199 0.31872 0.74251
 H467 H 0.34359 0.18766 0.72228
 H468 H 0.30411 0.14581 0.76262
 O469 O 0.75358 0.64651 0.70575
 O470 O 0.79506 0.63733 0.75726
 O471 O 0.65637 0.69581 0.75679
 O472 O 0.64156 0.74878 0.78968
 O473 O 0.70493 0.74273 0.65666
 O474 O 0.75666 0.78550 0.64687
 O475 O 0.75120 0.79824 0.85234
 O476 O 0.70950 0.74810 0.86162
 O477 O 0.85031 0.74548 0.80914
 O478 O 0.86240 0.70296 0.76200
 O479 O 0.80778 0.84189 0.75716
 O480 O 0.75833 0.85582 0.71489
 O481 O 0.75486 0.84283 0.80664
 O482 O 0.71333 0.85311 0.74940
 O483 O 0.85208 0.79596 0.75782
 O484 O 0.86215 0.74017 0.71505
 O485 O 0.80438 0.75219 0.85299
 O486 O 0.75704 0.70154 0.86024
 O487 O 0.75994 0.69116 0.66032
 O488 O 0.79778 0.74516 0.64753
 O489 O 0.65861 0.74563 0.70046
 O490 O 0.64997 0.79226 0.75184
 O491 O 0.70011 0.64912 0.75535
 O492 O 0.74922 0.64464 0.80493
 Zr493 Zr 0.75160 0.67818 0.75565
 O494 O 0.78688 0.71062 0.79026
 Zr495 Zr 0.68726 0.74593 0.75208
 O496 O 0.71922 0.78029 0.78790
 Zr497 Zr 0.75486 0.74306 0.68833
 O498 O 0.78951 0.77838 0.72070
 Zr499 Zr 0.75405 0.74751 0.82236
 O500 O 0.71810 0.71277 0.79008
 Zr501 Zr 0.82128 0.74555 0.75788
 O502 O 0.78950 0.70975 0.72273
 Zr503 Zr 0.75646 0.81266 0.75564
 O504 O 0.72159 0.78093 0.71915
 O505 O 0.71860 0.70956 0.71918
 O506 O 0.79031 0.78180 0.79183
 C507 C 0.75831 0.65683 0.67154
 C508 C 0.66608 0.66099 0.75715
 C509 C 0.67022 0.74386 0.66644
 C510 C 0.75186 0.83259 0.84112
 C511 C 0.83894 0.74984 0.84301
 C512 C 0.84204 0.83062 0.75806
 H513 H 0.80214 0.69383 0.80631
 H514 H 0.80564 0.79341 0.70385
 H515 H 0.70294 0.69307 0.70322
 H516 H 0.70188 0.79592 0.80292
 H517 H 0.69313 0.72641 0.85558
 H518 H 0.65228 0.75373 0.81474
 H519 H 0.86080 0.76279 0.69898
 H520 H 0.81922 0.73109 0.65810
 H521 H 0.76176 0.71167 0.88572
 H522 H 0.74001 0.61917 0.79839
 H523 H 0.77270 0.84607 0.69327
 H524 H 0.73821 0.80488 0.65443
 H525 H 0.78392 0.61204 0.75348
 H526 H 0.85064 0.67979 0.75216
 H527 H 0.65708 0.80835 0.73033
 H528 H 0.69603 0.85041 0.77093
 O529 O 0.26271 0.65838 0.30180
 O530 O 0.21868 0.64778 0.25293
 O531 O 0.35742 0.70572 0.24615
 O532 O 0.37207 0.75710 0.21192
 O533 O 0.31202 0.76158 0.34593
 O534 O 0.25792 0.79798 0.35739
 O535 O 0.25355 0.80440 0.15050
 O536 O 0.29927 0.76043 0.14067
 O537 O 0.16106 0.75334 0.19893
 O538 O 0.15135 0.71222 0.24835
 O539 O 0.20563 0.85136 0.24520
 O540 O 0.25937 0.86513 0.28779
 O541 O 0.25588 0.85061 0.19464
 O542 O 0.29829 0.86520 0.24741
 O543 O 0.16098 0.80574 0.24763
 O544 O 0.15299 0.75237 0.29385
 O545 O 0.20568 0.75178 0.15326
 O546 O 0.25871 0.70694 0.14681
 O547 O 0.26315 0.70420 0.34653
 O548 O 0.21789 0.75507 0.35670
 O549 O 0.35683 0.75978 0.30075
 O550 O 0.36282 0.80303 0.24455
 O551 O 0.31355 0.65935 0.25036
 O552 O 0.26270 0.65277 0.20325
 Zr553 Zr 0.26236 0.68842 0.25112
 O554 O 0.22560 0.71931 0.21690
 Zr555 Zr 0.32665 0.75623 0.24989
 O556 O 0.29309 0.78902 0.21402
 Zr557 Zr 0.26129 0.75534 0.31627
 O558 O 0.22531 0.78955 0.28392
 Zr559 Zr 0.25713 0.75488 0.18219
 O560 O 0.29458 0.72164 0.21417
 Zr561 Zr 0.19209 0.75537 0.24916
 O562 O 0.22553 0.72083 0.28428
 Zr563 Zr 0.25701 0.82237 0.24654
 O564 O 0.29326 0.79214 0.28277
 O565 O 0.29679 0.72118 0.28526
 O566 O 0.22181 0.79011 0.21279
 C567 C 0.26324 0.66952 0.33602
 C568 C 0.34751 0.67092 0.24709
 C569 C 0.34648 0.76274 0.33519
 C570 C 0.25348 0.83910 0.16056
 C571 C 0.17138 0.75128 0.16446
 C572 C 0.17132 0.84027 0.24538
 H573 H 0.21008 0.70150 0.20226
 H574 H 0.20987 0.80532 0.30072
 H575 H 0.31385 0.70612 0.30119
 H576 H 0.30934 0.80429 0.19748
 H577 H 0.31794 0.74040 0.14552
 H578 H 0.36099 0.75954 0.18665
 H579 H 0.15632 0.77491 0.30974
 H580 H 0.19987 0.73537 0.34895
 H581 H 0.25265 0.71517 0.12094
 H582 H 0.27195 0.62751 0.21049
 H583 H 0.23853 0.86090 0.30562
 H584 H 0.27158 0.81988 0.34708
 H585 H 0.22977 0.62254 0.25709
 H586 H 0.16318 0.69006 0.26021
 H587 H 0.35439 0.82163 0.26337
 H588 H 0.31570 0.86072 0.22625
 O589 O 0.75115 0.34574 0.30459
 O590 O 0.79303 0.35766 0.25397
 O591 O 0.65408 0.29948 0.25212
 O592 O 0.64160 0.25186 0.21210
 O593 O 0.70133 0.24264 0.34769
 O594 O 0.75534 0.20644 0.35899
 O595 O 0.75489 0.20096 0.15110
 O596 O 0.71012 0.24753 0.14332
 O597 O 0.84953 0.25381 0.19908
 O598 O 0.86155 0.29149 0.25106
 O599 O 0.80628 0.15326 0.24570
 O600 O 0.75270 0.13920 0.28816
 O601 O 0.75692 0.15472 0.19532
 O602 O 0.71315 0.14008 0.24810
 O603 O 0.85047 0.19930 0.24674
 O604 O 0.85934 0.25222 0.29387
 O605 O 0.80473 0.25078 0.15368
 O606 O 0.75436 0.29832 0.14813
 O607 O 0.75123 0.29931 0.34862
 O608 O 0.79619 0.24773 0.35708
 O609 O 0.65568 0.24549 0.30306
 O610 O 0.64791 0.20286 0.24892
 O611 O 0.69848 0.34550 0.25543
 O612 O 0.74769 0.35242 0.20570
 Zr613 Zr 0.74978 0.31656 0.25331
 O614 O 0.78579 0.28585 0.21813
 Zr615 Zr 0.68530 0.24901 0.25212
 O616 O 0.71826 0.21601 0.21570
 Zr617 Zr 0.75187 0.24874 0.31764
 O618 O 0.78724 0.21481 0.28458
 Zr619 Zr 0.75376 0.25037 0.18354
 O620 O 0.71704 0.28381 0.21642
 Zr621 Zr 0.81962 0.24958 0.24972
 O622 O 0.78700 0.28382 0.28562
 Zr623 Zr 0.75493 0.18242 0.24739
 O624 O 0.71920 0.21255 0.28417
 O625 O 0.71613 0.28330 0.28753
 O626 O 0.78955 0.21501 0.21345
 C627 C 0.75082 0.33410 0.33869
 C628 C 0.66427 0.33413 0.25465
 C629 C 0.66677 0.24247 0.33720
 C630 C 0.75673 0.16631 0.16120
 C631 C 0.83899 0.25345 0.16460
 C632 C 0.84047 0.16467 0.24500
 H633 H 0.80110 0.30371 0.20333
 H634 H 0.80292 0.19889 0.30102
 H635 H 0.69974 0.29810 0.30435
 H636 H 0.70180 0.20078 0.19936
 H637 H 0.69246 0.26817 0.14934
 H638 H 0.65102 0.23984 0.18896
 H639 H 0.85702 0.22900 0.30894
 H640 H 0.81395 0.26782 0.34970
 H641 H 0.75947 0.28972 0.12216
 H642 H 0.73793 0.37737 0.21332
 H643 H 0.77427 0.14256 0.30532
 H644 H 0.74491 0.18349 0.34733
 H645 H 0.78172 0.38267 0.25887
 H646 H 0.84854 0.31528 0.25706
 H647 H 0.65596 0.18459 0.26825
 H648 H 0.69555 0.14510 0.22725
 C649 C 0.27302 0.11022 0.13082
 C650 C 0.27331 0.08337 0.10237
 C651 C 0.24852 0.08598 0.07197
 C652 C 0.22337 0.11689 0.06984
 C653 C 0.22227 0.14354 0.09941
 C654 C 0.24798 0.14054 0.12970
 C655 C 0.19478 0.17195 0.09795
 N656 N 0.17196 0.17494 0.06769
 N657 N 0.17458 0.15133 0.03888
 C658 C 0.19951 0.12254 0.03881
 H659 H 0.29274 0.10747 0.15379
 H660 H 0.29263 0.05994 0.10447
 H661 H 0.19075 0.19145 0.12072
 H662 H 0.20065 0.10481 0.01426
 C663 C 0.73081 0.60345 0.63700
 C664 C 0.73078 0.57759 0.60770
 C665 C 0.76148 0.57441 0.58313
 C666 C 0.79331 0.59816 0.58890
 C667 C 0.79325 0.62421 0.61917
 C668 C 0.76141 0.62732 0.64266
 C669 C 0.82546 0.64626 0.62534
 N670 N 0.85513 0.64367 0.60179
 N671 N 0.85481 0.62041 0.57259
 C672 C 0.82509 0.59775 0.56529
 H673 H 0.70625 0.60557 0.65479
 H674 H 0.70632 0.55981 0.60424
 H675 H 0.82752 0.66519 0.64894
 H676 H 0.82704 0.58013 0.54097
 C677 C 0.78182 0.88644 0.12826
 C678 C 0.78102 0.91223 0.09896
 C679 C 0.74771 0.91991 0.07896
 C680 C 0.71451 0.89891 0.08850
 C681 C 0.71570 0.87298 0.11892
 C682 C 0.74961 0.86669 0.13842
 C683 C 0.68270 0.85376 0.12908
 N684 N 0.65090 0.85853 0.10894
 N685 N 0.64996 0.88108 0.07925
 C686 C 0.68042 0.90104 0.06817
 H687 H 0.80804 0.88151 0.14288
 H688 H 0.80687 0.92702 0.09270
 H689 H 0.68185 0.83496 0.15289
 H690 H 0.67716 0.91713 0.04296
 C691 C 0.27232 0.39544 0.63046
 C692 C 0.27293 0.42249 0.60233
 C693 C 0.24261 0.42694 0.57748
 C694 C 0.21052 0.40320 0.58178
 C695 C 0.21005 0.37577 0.61082
 C696 C 0.24152 0.37155 0.63465
 C697 C 0.17771 0.35358 0.61551
 N698 N 0.14832 0.35746 0.59177
 N699 N 0.14906 0.38214 0.56378
 C700 C 0.17895 0.40498 0.55793
 H701 H 0.29656 0.39253 0.64861
 H702 H 0.29758 0.44019 0.60000
 H703 H 0.17529 0.33351 0.63809
 H704 H 0.17722 0.42387 0.53458
 C705 C 0.77278 0.10566 0.86884
 C706 C 0.77493 0.07864 0.89706
 C707 C 0.75222 0.08117 0.92898
 C708 C 0.72767 0.11237 0.93305
 C709 C 0.72434 0.13900 0.90361
 C710 C 0.74772 0.13599 0.87152
 C711 C 0.69687 0.16720 0.90703
 N712 N 0.67655 0.17035 0.93899
 N713 N 0.68156 0.14698 0.96768
 C714 C 0.70643 0.11822 0.96588
 H715 H 0.79098 0.10288 0.84466
 H716 H 0.79389 0.05508 0.89351
 H717 H 0.69075 0.18628 0.88443
 H718 H 0.70961 0.10064 0.99036
 C719 C 0.23550 0.61421 0.36687
 C720 C 0.23498 0.58642 0.39429
 C721 C 0.26377 0.58362 0.42106
 C722 C 0.29398 0.60986 0.41980
 C723 C 0.29495 0.63739 0.39093
 C724 C 0.26486 0.64018 0.36515
 C725 C 0.32649 0.66099 0.38841
 N726 N 0.35406 0.65877 0.41447
 N727 N 0.35214 0.63464 0.44290
 C728 C 0.32303 0.61038 0.44664
 H729 H 0.21255 0.61568 0.34697
 H730 H 0.21171 0.56680 0.39450
 H731 H 0.32960 0.68104 0.36587
 H732 H 0.32301 0.59235 0.47084
 C733 C 0.27936 0.88662 0.87792
 C734 C 0.27749 0.91455 0.90507
 C735 C 0.24427 0.92160 0.92549
 C736 C 0.21234 0.89773 0.91875
 C737 C 0.21507 0.86858 0.89142
 C738 C 0.24865 0.86354 0.87082
 C739 C 0.18370 0.84538 0.88499
 N740 N 0.15182 0.85037 0.90488
 N741 N 0.14916 0.87687 0.93096
 C742 C 0.17802 0.90041 0.93871
 H743 H 0.30516 0.88300 0.86223
 H744 H 0.30233 0.93167 0.90907
 H745 H 0.18407 0.82337 0.86422
 H746 H 0.17302 0.92008 0.96085
 C747 C 0.77422 0.39249 0.36774
 C748 C 0.77351 0.42037 0.39510
 C749 C 0.74663 0.41992 0.42383
 C750 C 0.71979 0.39032 0.42482
 C751 C 0.72030 0.36210 0.39662
 C752 C 0.74836 0.36292 0.36838
 C753 C 0.69205 0.33439 0.39723
 N754 N 0.66641 0.33389 0.42526
 N755 N 0.66698 0.35928 0.45265
 C756 C 0.69276 0.38729 0.45343
 H757 H 0.79551 0.39377 0.34607
 H758 H 0.79422 0.44265 0.39376
 H759 H 0.68966 0.31343 0.37552
 H760 H 0.69185 0.40660 0.47655
 C761 C 0.10851 0.23488 0.13224
 C762 C 0.08114 0.23245 0.10443
 C763 C 0.08300 0.25516 0.07246
 C764 C 0.11385 0.28004 0.06792
 C765 C 0.14094 0.28356 0.09691
 C766 C 0.13856 0.26021 0.12909
 C767 C 0.16901 0.31110 0.09293
 N768 N 0.17147 0.33143 0.06089
 N769 N 0.14757 0.32634 0.03267
 C770 C 0.11896 0.30135 0.03501
 H771 H 0.10632 0.21654 0.15641
 H772 H 0.05790 0.21318 0.10828
 H773 H 0.18856 0.31725 0.11512
 H774 H 0.10091 0.29813 0.01090
 C775 C 0.61418 0.76989 0.63539
 C776 C 0.58686 0.76990 0.60753
 C777 C 0.58557 0.74151 0.58019
 C778 C 0.61293 0.71231 0.58126
 C779 C 0.64061 0.71223 0.60999
 C780 C 0.64151 0.74175 0.63670
 C781 C 0.66621 0.68211 0.61139
 N782 N 0.66527 0.65494 0.58480
 N783 N 0.64037 0.65574 0.55702
 C784 C 0.61434 0.68341 0.55431
 H785 H 0.61431 0.79242 0.65585
 H786 H 0.56637 0.79240 0.60745
 H787 H 0.68674 0.67960 0.63349
 H788 H 0.59538 0.68235 0.53097
 C789 C 0.11382 0.77397 0.87085
 C790 C 0.08832 0.77395 0.90037
 C791 C 0.08297 0.74200 0.92318
 C792 C 0.10553 0.70928 0.91578
 C793 C 0.13168 0.70986 0.88551
 C794 C 0.13614 0.74264 0.86360
 C795 C 0.15280 0.67734 0.87783
 N796 N 0.14946 0.64668 0.89999
 N797 N 0.12653 0.64643 0.92938
 C798 C 0.10481 0.67645 0.93820
 H799 H 0.11675 0.79911 0.85395
 H800 H 0.07191 0.79925 0.90464
 H801 H 0.17182 0.67592 0.85426
 H802 H 0.08827 0.67388 0.96318
 C803 C 0.61072 0.26920 0.36767
 C804 C 0.58371 0.27026 0.39586
 C805 C 0.58247 0.24258 0.42385
 C806 C 0.60977 0.21336 0.42343
 C807 C 0.63692 0.21203 0.39426
 C808 C 0.63763 0.24056 0.36659
 C809 C 0.66222 0.18169 0.39346
 N810 N 0.66167 0.15561 0.42114
 N811 N 0.63743 0.15776 0.44943
 C812 C 0.61163 0.18569 0.45156
 H813 H 0.61100 0.29135 0.34679
 H814 H 0.56329 0.29284 0.39556
 H815 H 0.68210 0.17815 0.37091
 H816 H 0.59328 0.18604 0.47545
 C817 C 0.89968 0.72755 0.13494
 C818 C 0.92770 0.72796 0.10774
 C819 C 0.92646 0.75343 0.07780
 C820 C 0.89578 0.77879 0.07506
 C821 C 0.86757 0.77888 0.10323
 C822 C 0.86925 0.75240 0.13302
 C823 C 0.83907 0.80622 0.10093
 N824 N 0.83769 0.83003 0.07131
 N825 N 0.86294 0.82854 0.04388
 C826 C 0.89178 0.80371 0.04467
 H827 H 0.90165 0.70738 0.15762
 H828 H 0.95077 0.70827 0.11025
 H829 H 0.81819 0.80943 0.12252
 H830 H 0.91093 0.80358 0.02133
 C831 C 0.38624 0.22558 0.62489
 C832 C 0.41478 0.22642 0.59833
 C833 C 0.41819 0.25638 0.57293
 C834 C 0.39153 0.28624 0.57451
 C835 C 0.36245 0.28532 0.60183
 C836 C 0.35968 0.25440 0.62676
 C837 C 0.33755 0.31600 0.60388
 N838 N 0.34057 0.34478 0.57922
 N839 N 0.36687 0.34507 0.55277
 C840 C 0.39228 0.31690 0.54953
 H841 H 0.38478 0.20205 0.64414
 H842 H 0.43473 0.20344 0.59792
 H843 H 0.31592 0.31769 0.62497
 H844 H 0.41248 0.31903 0.52735
 C845 C 0.87336 0.22278 0.88821
 C846 C 0.90246 0.22294 0.91430
 C847 C 0.92607 0.25444 0.91867
 C848 C 0.92105 0.28569 0.89374
 C849 C 0.89040 0.28573 0.86818
 C850 C 0.86689 0.25388 0.86524
 C851 C 0.88421 0.31784 0.84602
 N852 N 0.90881 0.34682 0.84705
 N853 N 0.93923 0.34572 0.86862
 C854 C 0.94645 0.31620 0.89156
 H855 H 0.85574 0.19805 0.88585
 H856 H 0.90560 0.19843 0.93206
 H857 H 0.86000 0.32020 0.82793
 H858 H 0.97274 0.31671 0.90643
 C859 C 0.36782 0.74927 0.40005
 C860 C 0.39508 0.74625 0.42787
 C861 C 0.43136 0.75992 0.42202
 C862 C 0.44027 0.77747 0.38752
 C863 C 0.41234 0.78112 0.35923
 C864 C 0.37598 0.76529 0.36495
 C865 C 0.42182 0.80146 0.32674
 N866 N 0.45719 0.81464 0.32188
 N867 N 0.48382 0.80928 0.34748
 C868 C 0.47660 0.79118 0.38009
 H869 H 0.34019 0.73808 0.40591
 H870 H 0.38772 0.73318 0.45432
 H871 H 0.40147 0.80814 0.30562
 H872 H 0.49937 0.78767 0.39977
 C873 C 0.13562 0.11202 0.22290
 C874 C 0.10807 0.08429 0.22184
 C875 C 0.07751 0.08530 0.24652
 C876 C 0.07421 0.11568 0.27217
 C877 C 0.10306 0.14317 0.27421
 C878 C 0.13366 0.14164 0.24877
 C879 C 0.10059 0.17077 0.30238
 N880 N 0.06993 0.17244 0.32480
 N881 N 0.04169 0.14820 0.32119
 C882 C 0.04270 0.12001 0.29564
 H883 H 0.15872 0.11038 0.20319
 H884 H 0.11100 0.06146 0.20193
 H885 H 0.12291 0.19065 0.30731
 H886 H 0.01858 0.10172 0.29371
 C887 C 0.63733 0.60337 0.73169
 C888 C 0.60834 0.57730 0.72902
 C889 C 0.57690 0.57971 0.75247
 C890 C 0.57436 0.60959 0.77876
 C891 C 0.60455 0.63534 0.78237
 C892 C 0.63584 0.63263 0.75793
 C893 C 0.60259 0.66260 0.81092
 N894 N 0.57130 0.66554 0.83233
 N895 N 0.54196 0.64293 0.82731
 C896 C 0.54233 0.61519 0.80125
 H897 H 0.66094 0.60096 0.71269
 H898 H 0.61073 0.55475 0.70873
 H899 H 0.62577 0.68120 0.81689
 H900 H 0.51734 0.59830 0.79813
 C901 C 0.87003 0.10801 0.77880
 C902 C 0.89910 0.08193 0.77857
 C903 C 0.92218 0.07697 0.74683
 C904 C 0.91623 0.10092 0.71501
 C905 C 0.88583 0.12685 0.71528
 C906 C 0.86315 0.13058 0.74760
 C907 C 0.87909 0.14870 0.68306
 N908 N 0.90273 0.14665 0.65344
 N909 N 0.93274 0.12445 0.65399
 C910 C 0.94056 0.10197 0.68367
 H911 H 0.85306 0.11100 0.80384
 H912 H 0.90282 0.06480 0.80342
 H913 H 0.85529 0.16747 0.68113
 H914 H 0.96650 0.08656 0.68246
 C915 C 0.37496 0.61279 0.27241
 C916 C 0.40206 0.58474 0.27360
 C917 C 0.43233 0.58493 0.24857
 C918 C 0.43580 0.61479 0.22233
 C919 C 0.40731 0.64260 0.22017
 C920 C 0.37708 0.64189 0.24603
 C921 C 0.40978 0.66971 0.19156
 N922 N 0.44020 0.67063 0.16876
 N923 N 0.46817 0.64611 0.17245
 C924 C 0.46711 0.61836 0.19846
 H925 H 0.35210 0.61183 0.29246
 H926 H 0.39907 0.56236 0.29399
 H927 H 0.38767 0.68980 0.18661
 H928 H 0.49105 0.59987 0.20042
 C929 C 0.10774 0.86736 0.73109
 C930 C 0.08031 0.89523 0.73034
 C931 C 0.08229 0.92633 0.75440
 C932 C 0.11297 0.92955 0.77957
 C933 C 0.14036 0.90058 0.78111
 C934 C 0.13815 0.86964 0.75588
 C935 C 0.16867 0.90338 0.80851
 N936 N 0.17080 0.93410 0.83087
 N937 N 0.14644 0.96227 0.82786
 C938 C 0.11776 0.96117 0.80293
 H939 H 0.10543 0.84401 0.71171
 H940 H 0.05706 0.89228 0.71097
 H941 H 0.18877 0.88129 0.81290
 H942 H 0.09943 0.98529 0.80145
 C943 C 0.60644 0.36435 0.23112
 C944 C 0.58058 0.39369 0.23078
 C945 C 0.58255 0.42285 0.25723
 C946 C 0.61126 0.42222 0.28484
 C947 C 0.63658 0.39152 0.28604
 C948 C 0.63494 0.36319 0.25805
 C949 C 0.66263 0.38999 0.31564
 N950 N 0.66500 0.41866 0.34055
 N951 N 0.64295 0.44872 0.33793
 C952 C 0.61635 0.45162 0.31090
 H953 H 0.60473 0.34285 0.20966
 H954 H 0.55877 0.39361 0.20960
 H955 H 0.68069 0.36604 0.31954
 H956 H 0.60006 0.47716 0.30992
 C957 C 0.88168 0.88766 0.27687
 C958 C 0.91018 0.91435 0.27588
 C959 C 0.93267 0.91943 0.24372
 C960 C 0.92709 0.89465 0.21250
 C961 C 0.89731 0.86802 0.21354
 C962 C 0.87485 0.86451 0.24609
 C963 C 0.89089 0.84542 0.18179
 N964 N 0.91421 0.84748 0.15192
 N965 N 0.94364 0.87046 0.15176
 C966 C 0.95114 0.89369 0.18095
 H967 H 0.86481 0.88498 0.30202
 H968 H 0.91365 0.93209 0.30034
 H969 H 0.86763 0.82607 0.18046
 H970 H 0.97664 0.90982 0.17927
 C971 C 0.36645 0.39419 0.76753
 C972 C 0.39475 0.42112 0.76782
 C973 C 0.42458 0.41940 0.74224
 C974 C 0.42603 0.38944 0.71594
 C975 C 0.39650 0.36267 0.71492
 C976 C 0.36704 0.36463 0.74167
 C977 C 0.39717 0.33518 0.68655
 N978 N 0.42666 0.33310 0.66265
 N979 N 0.45549 0.35675 0.66509
 C980 C 0.45631 0.38468 0.69095
 H981 H 0.34405 0.39625 0.78798
 H982 H 0.39314 0.44376 0.78809
 H983 H 0.37438 0.31568 0.68275
 H984 H 0.48090 0.40236 0.69185
 C985 C 0.10667 0.27434 0.86456
 C986 C 0.07971 0.27506 0.89281
 C987 C 0.08072 0.24912 0.92236
 C988 C 0.11005 0.22207 0.92362
 C989 C 0.13663 0.22045 0.89401
 C990 C 0.13550 0.24758 0.86485
 C991 C 0.16300 0.19104 0.89423
 N992 N 0.16455 0.16686 0.92354
 N993 N 0.14136 0.17000 0.95260
 C994 C 0.11434 0.19681 0.95377
 H995 H 0.10519 0.29513 0.84241
 H996 H 0.05758 0.29591 0.89133
 H997 H 0.18192 0.18661 0.87114
 H998 H 0.09702 0.19825 0.97854
 C999 C 0.61880 0.77404 0.37414
 C1000 C 0.59081 0.77311 0.40132
 C1001 C 0.58701 0.74241 0.42582
 C1002 C 0.61262 0.71171 0.42240
 C1003 C 0.64131 0.71295 0.39464
 C1004 C 0.64454 0.74463 0.37077
 C1005 C 0.66544 0.68184 0.39097
 N1006 N 0.66198 0.65207 0.41435
 N1007 N 0.63592 0.65123 0.44103
 C1008 C 0.61128 0.67985 0.44587
 H1009 H 0.62063 0.79823 0.35576
 H1010 H 0.57170 0.79674 0.40300
 H1011 H 0.68668 0.68062 0.36946
 H1012 H 0.59118 0.67693 0.46803
 C1013 C 0.88911 0.72133 0.88077
 C1014 C 0.91692 0.72263 0.90804
 C1015 C 0.92548 0.75608 0.92756
 C1016 C 0.90330 0.78900 0.91961
 C1017 C 0.87454 0.78703 0.89182
 C1018 C 0.86778 0.75302 0.87244
 C1019 C 0.85335 0.81948 0.88381
 N1020 N 0.85960 0.85164 0.90301
 N1021 N 0.88544 0.85352 0.92980
 C1022 C 0.90720 0.82361 0.93890
 H1023 H 0.88407 0.69514 0.86606
 H1024 H 0.93263 0.69702 0.91298
 H1025 H 0.83203 0.81969 0.86226
 H1026 H 0.92636 0.82792 0.96165
 C1027 C 0.39338 0.22943 0.36583
 C1028 C 0.42097 0.22981 0.39347
 C1029 C 0.42371 0.25948 0.41935
 C1030 C 0.39766 0.28988 0.41667
 C1031 C 0.36955 0.28933 0.38830
 C1032 C 0.36709 0.25844 0.36329
 C1033 C 0.34518 0.32033 0.38526
 N1034 N 0.34769 0.34917 0.40989
 N1035 N 0.37305 0.34922 0.43725
 C1036 C 0.39795 0.32073 0.44151
 H1037 H 0.39215 0.20588 0.34659
 H1038 H 0.44050 0.20649 0.39457
 H1039 H 0.32455 0.32225 0.36321
 H1040 H 0.41741 0.32297 0.46430
 C1041 C 0.11353 0.77543 0.13451
 C1042 C 0.08650 0.77527 0.10621
 C1043 C 0.08680 0.74780 0.07794
 C1044 C 0.11552 0.72007 0.07818
 C1045 C 0.14237 0.71964 0.10765
 C1046 C 0.14183 0.74815 0.13545
 C1047 C 0.16869 0.69016 0.10856
 N1048 N 0.16965 0.66449 0.08050
 N1049 N 0.14597 0.66619 0.05170
 C1050 C 0.11911 0.69308 0.04951
 H1051 H 0.11276 0.79747 0.15548
 H1052 H 0.06497 0.79678 0.10654
 H1053 H 0.18815 0.68691 0.13153
 H1054 H 0.10135 0.69326 0.02509
 C1055 C 0.60562 0.27153 0.63463
 C1056 C 0.57912 0.27130 0.60590
 C1057 C 0.57651 0.24110 0.58055
 C1058 C 0.60141 0.20995 0.58508
 C1059 C 0.62834 0.21037 0.61457
 C1060 C 0.63087 0.24181 0.63883
 C1061 C 0.65181 0.17889 0.61923
 N1062 N 0.64951 0.14956 0.59515
 N1063 N 0.62522 0.14951 0.56685
 C1064 C 0.60127 0.17851 0.56095
 H1065 H 0.60711 0.29567 0.65313
 H1066 H 0.56046 0.29522 0.60342
 H1067 H 0.67169 0.17706 0.64201
 H1068 H 0.58273 0.17619 0.53740
 C1069 C 0.86799 0.22926 0.10653
 C1070 C 0.89588 0.22904 0.07917
 C1071 C 0.92519 0.25536 0.07984
 C1072 C 0.92668 0.28208 0.10944
 C1073 C 0.89747 0.28314 0.13652
 C1074 C 0.86840 0.25588 0.13544
 C1075 C 0.89809 0.31203 0.16349
 N1076 N 0.92740 0.33627 0.16492
 N1077 N 0.95603 0.33373 0.14110
 C1078 C 0.95678 0.30747 0.11356
 H1079 H 0.84608 0.20814 0.10534
 H1080 H 0.89433 0.20825 0.05700
 H1081 H 0.87536 0.31603 0.18307
 H1082 H 0.98122 0.30652 0.09573
 C1083 C 0.36742 0.74027 0.60401
 C1084 C 0.39563 0.73818 0.57707
 C1085 C 0.42987 0.75675 0.58222
 C1086 C 0.43570 0.77796 0.61541
 C1087 C 0.40657 0.78077 0.64254
 C1088 C 0.37260 0.76035 0.63749
 C1089 C 0.41223 0.80501 0.67321
 N1090 N 0.44569 0.82253 0.67792
 N1091 N 0.47381 0.81785 0.65381
 C1092 C 0.47000 0.79619 0.62279
 H1093 H 0.34136 0.72555 0.59875
 H1094 H 0.39050 0.72216 0.55173
 H1095 H 0.39017 0.81118 0.69289
 H1096 H 0.49392 0.79337 0.60442
 C1097 C 0.27122 0.13463 0.88826
 C1098 C 0.27156 0.10653 0.91544
 C1099 C 0.24477 0.07765 0.91516
 C1100 C 0.21729 0.07688 0.88626
 C1101 C 0.21619 0.10631 0.85939
 C1102 C 0.24407 0.13482 0.85990
 C1103 C 0.18650 0.10665 0.83339
 N1104 N 0.16143 0.07802 0.83255
 N1105 N 0.16396 0.04911 0.85607
 C1106 C 0.19105 0.04742 0.88270
 H1107 H 0.29256 0.15632 0.88925
 H1108 H 0.29269 0.10770 0.93726
 H1109 H 0.18257 0.12966 0.81421
 H1110 H 0.19195 0.02276 0.90029
 C1111 C 0.73424 0.60736 0.36923
 C1112 C 0.73314 0.58014 0.39731
 C1113 C 0.76001 0.57949 0.42608
 C1114 C 0.78858 0.60746 0.42643
 C1115 C 0.79010 0.63470 0.39730
 C1116 C 0.76210 0.63511 0.36904
 C1117 C 0.82019 0.66035 0.39711
 N1118 N 0.84553 0.66024 0.42543
 N1119 N 0.84295 0.63610 0.45381
 C1120 C 0.81538 0.60988 0.45532
 H1121 H 0.71264 0.60719 0.34782
 H1122 H 0.71108 0.55918 0.39639
 H1123 H 0.82419 0.68011 0.37451
 H1124 H 0.81461 0.59165 0.47932
 C1125 C 0.72746 0.12918 0.11075
 C1126 C 0.72703 0.09893 0.08599
 C1127 C 0.75866 0.07552 0.08118
 C1128 C 0.79122 0.08272 0.10379
 C1129 C 0.79166 0.11445 0.12810
 C1130 C 0.75935 0.13721 0.13192
 C1131 C 0.82453 0.12238 0.14849
 N1132 N 0.85424 0.09876 0.14667
 N1133 N 0.85314 0.06763 0.12607
 C1134 C 0.82276 0.05857 0.10502
 H1135 H 0.70237 0.14611 0.11390
 H1136 H 0.70167 0.09449 0.06980
 H1137 H 0.82683 0.14717 0.16587
 H1138 H 0.82358 0.03183 0.09094
 C1139 C 0.22830 0.62253 0.62137
 C1140 C 0.22894 0.59482 0.59386
 C1141 C 0.26200 0.58621 0.57404
 C1142 C 0.29534 0.60702 0.58243
 C1143 C 0.29470 0.63427 0.61166
 C1144 C 0.26073 0.64252 0.63040
 C1145 C 0.32836 0.65227 0.62165
 N1146 N 0.36021 0.64520 0.60219
 N1147 N 0.36056 0.62144 0.57339
 C1148 C 0.32936 0.60241 0.56266
 H1149 H 0.20223 0.62827 0.63595
 H1150 H 0.20314 0.57966 0.58838
 H1151 H 0.32960 0.67204 0.64466
 H1152 H 0.33189 0.58467 0.53842
 C1153 C 0.77578 0.89127 0.86969
 C1154 C 0.77574 0.91895 0.89737
 C1155 C 0.74893 0.91879 0.92620
 C1156 C 0.72171 0.88955 0.92714
 C1157 C 0.72098 0.86217 0.89814
 C1158 C 0.74899 0.86247 0.86987
 C1159 C 0.69167 0.83564 0.89812
 N1160 N 0.66669 0.83479 0.92675
 N1161 N 0.66889 0.85880 0.95527
 C1162 C 0.69555 0.88597 0.95653
 H1163 H 0.79733 0.89200 0.84826
 H1164 H 0.79687 0.94083 0.89615
 H1165 H 0.68793 0.81598 0.87540
 H1166 H 0.69616 0.90394 0.98080
 C1167 C 0.27665 0.39613 0.36581
 C1168 C 0.27695 0.42337 0.39389
 C1169 C 0.24933 0.42393 0.42193
 C1170 C 0.22093 0.39582 0.42165
 C1171 C 0.22021 0.36857 0.39251
 C1172 C 0.24889 0.36831 0.36494
 C1173 C 0.19024 0.34281 0.39161
 N1174 N 0.16425 0.34282 0.41933
 N1175 N 0.16607 0.36697 0.44777
 C1176 C 0.19349 0.39330 0.44992
 H1177 H 0.29871 0.39642 0.34488
 H1178 H 0.29893 0.44443 0.39352
 H1179 H 0.18684 0.32302 0.36893
 H1180 H 0.19365 0.41157 0.47391
 C1181 C 0.27577 0.89790 0.13124
 C1182 C 0.27460 0.92555 0.10364
 C1183 C 0.24778 0.92422 0.07492
 C1184 C 0.22184 0.89383 0.07385
 C1185 C 0.22229 0.86638 0.10269
 C1186 C 0.25021 0.86799 0.13100
 C1187 C 0.19411 0.83864 0.10263
 N1188 N 0.16909 0.83687 0.07408
 N1189 N 0.17020 0.86109 0.04570
 C1190 C 0.19574 0.88932 0.04453
 H1191 H 0.29707 0.89970 0.15287
 H1192 H 0.29465 0.94842 0.10493
 H1193 H 0.19128 0.81874 0.12520
 H1194 H 0.19557 0.90748 0.02044
 C1195 C 0.77461 0.38270 0.62741
 C1196 C 0.77407 0.41113 0.60069
 C1197 C 0.74293 0.41657 0.57711
 C1198 C 0.71135 0.39206 0.58097
 C1199 C 0.71233 0.36273 0.60815
 C1200 C 0.74436 0.35808 0.63121
 C1201 C 0.68063 0.33947 0.61216
 N1202 N 0.65033 0.34451 0.58983
 N1203 N 0.64951 0.37134 0.56391
 C1204 C 0.67876 0.39516 0.55871
 H1205 H 0.79907 0.37978 0.64526
 H1206 H 0.79832 0.42941 0.59879
 H1207 H 0.67943 0.31760 0.63308
 H1208 H 0.67561 0.41601 0.53724
 C1209 C 0.13007 0.10985 0.72489
 C1210 C 0.10212 0.08249 0.72477
 C1211 C 0.07280 0.08343 0.75096
 C1212 C 0.07138 0.11323 0.77750
 C1213 C 0.10081 0.14010 0.77863
 C1214 C 0.12977 0.13894 0.75133
 C1215 C 0.10067 0.16674 0.80778
 N1216 N 0.07148 0.16835 0.83207
 N1217 N 0.04247 0.14496 0.82929
 C1218 C 0.04129 0.11765 0.80280
 H1219 H 0.15210 0.10837 0.70399
 H1220 H 0.10377 0.06001 0.70432
 H1221 H 0.12372 0.18582 0.81193
 H1222 H 0.01650 0.10025 0.80159
 C1223 C 0.64309 0.60496 0.23532
 C1224 C 0.61463 0.57814 0.23367
 C1225 C 0.58270 0.58123 0.25637
 C1226 C 0.57917 0.61245 0.28094
 C1227 C 0.60878 0.63899 0.28359
 C1228 C 0.64057 0.63574 0.25977
 C1229 C 0.60573 0.66761 0.31064
 N1230 N 0.57412 0.67101 0.33149
 N1231 N 0.54532 0.64758 0.32725
 C1232 C 0.54665 0.61858 0.30264
 H1233 H 0.66709 0.60195 0.21690
 H1234 H 0.61776 0.55451 0.21475
 H1235 H 0.62833 0.68689 0.31591
 H1236 H 0.52204 0.60108 0.30005
 C1237 C 0.11298 0.86930 0.26953
 C1238 C 0.08618 0.89786 0.27023
 C1239 C 0.08756 0.92766 0.24450
 C1240 C 0.11710 0.92885 0.21777
 C1241 C 0.14333 0.89891 0.21607
 C1242 C 0.14189 0.86953 0.24295
 C1243 C 0.16984 0.89904 0.18689
 N1244 N 0.17192 0.92861 0.16303
 N1245 N 0.14908 0.95802 0.16629
 C1246 C 0.12191 0.95927 0.19287
 H1247 H 0.11139 0.84707 0.29024
 H1248 H 0.06383 0.89637 0.29078
 H1249 H 0.18841 0.87564 0.18242
 H1250 H 0.10492 0.98433 0.19449
 C1251 C 0.60576 0.36458 0.76872
 C1252 C 0.57895 0.39307 0.76944
 C1253 C 0.58182 0.42418 0.74552
 C1254 C 0.61289 0.42686 0.72071
 C1255 C 0.63948 0.39720 0.71910
 C1256 C 0.63633 0.36621 0.74404
 C1257 C 0.66798 0.39932 0.69190
 N1258 N 0.67119 0.43016 0.66983
 N1259 N 0.64769 0.45903 0.67299
 C1260 C 0.61881 0.45855 0.69771
 H1261 H 0.60281 0.34118 0.78795
 H1262 H 0.55543 0.39053 0.78853
 H1263 H 0.68733 0.37660 0.68747
 H1264 H 0.60124 0.48320 0.69936
 C1265 C 0.86748 0.10425 0.26583
 C1266 C 0.89547 0.07694 0.26623
 C1267 C 0.92715 0.08029 0.24327
 C1268 C 0.93097 0.11228 0.21976
 C1269 C 0.90193 0.13955 0.21854
 C1270 C 0.87032 0.13585 0.24255
 C1271 C 0.90526 0.16920 0.19258
 N1272 N 0.93666 0.17264 0.17142
 N1273 N 0.96492 0.14837 0.17428
 C1274 C 0.96326 0.11846 0.19775
 H1275 H 0.84356 0.10089 0.28430
 H1276 H 0.89218 0.05275 0.28441
 H1277 H 0.88305 0.18924 0.18828
 H1278 H 0.98742 0.10022 0.19916
 C1279 C 0.36548 0.60534 0.76604
 C1280 C 0.39322 0.57776 0.76691
 C1281 C 0.42519 0.58065 0.74425
 C1282 C 0.42953 0.61249 0.72057
 C1283 C 0.40069 0.63996 0.71883
 C1284 C 0.36884 0.63672 0.74254
 C1285 C 0.40455 0.66949 0.69282
 N1286 N 0.43622 0.67261 0.67201
 N1287 N 0.46427 0.64814 0.67533
 C1288 C 0.46212 0.61835 0.69893
 H1289 H 0.34137 0.60239 0.78433
 H1290 H 0.38947 0.55370 0.78516
 H1291 H 0.38260 0.68980 0.68834
 H1292 H 0.48618 0.60002 0.70080
 C1293 C 0.86755 0.89052 0.73412
 C1294 C 0.89491 0.91837 0.73185
 C1295 C 0.92735 0.91644 0.75384
 C1296 C 0.93286 0.88522 0.77795
 C1297 C 0.90469 0.85715 0.78081
 C1298 C 0.87185 0.85969 0.75826
 C1299 C 0.91021 0.82795 0.80686
 N1300 N 0.94244 0.82600 0.82696
 N1301 N 0.96960 0.85133 0.82291
 C1302 C 0.96601 0.88075 0.79906
 H1303 H 0.84284 0.89295 0.71655
 H1304 H 0.89035 0.94205 0.71329
 H1305 H 0.88918 0.80694 0.81199
 H1306 H 0.98933 0.90001 0.79661
 C1307 C 0.36879 0.39857 0.22967
 C1308 C 0.39720 0.42551 0.22885
 C1309 C 0.42832 0.42262 0.25266
 C1310 C 0.43126 0.39145 0.27731
 C1311 C 0.40189 0.36459 0.27881
 C1312 C 0.37072 0.36784 0.25420
 C1313 C 0.40446 0.33573 0.30560
 N1314 N 0.43534 0.33262 0.32757
 N1315 N 0.46386 0.35659 0.32468
 C1316 C 0.46298 0.38576 0.30027
 H1317 H 0.34525 0.40154 0.21066
 H1318 H 0.39458 0.44914 0.20986
 H1319 H 0.38204 0.31599 0.30971
 H1320 H 0.48730 0.40382 0.29886
   
