data_POSCAR
  _audit_creation_date              2014-09-24
  _audit_creation_method            'ToBaCCo'
  _symmetry_space_group_name_H-M    'P1'
  _symmetry_Int_Tables_number       1
  _symmetry_cell_setting            triclinic
  loop_
  _symmetry_equiv_pos_as_xyz
 x,y,z
_cell_length_a 62.2716
_cell_length_b 62.3685
_cell_length_c 65.4613
_cell_angle_alpha 90.158500
_cell_angle_beta 89.999700
_cell_angle_gamma 89.798800
loop_
  _atom_site_label
  _atom_site_type_symbol
  _atom_site_fract_x
  _atom_site_fract_y
  _atom_site_fract_z
C1 C 0.39605 -0.02643 0.24915
 C2 C 0.40602 -0.00751 0.24261
 C3 C 0.41587 -0.00679 0.22346
 C4 C 0.41627 -0.02494 0.21079
 C5 C 0.40597 -0.04378 0.21734
 C6 C 0.39547 -0.04489 0.23653
 C7 C 0.40651 0.01159 0.25600
 C8 C 0.41729 0.01066 0.27475
 C9 C 0.41857 0.02877 0.28771
 C10 C 0.40800 0.04777 0.28134
 C11 C 0.39683 0.04881 0.26265
 C12 C 0.39647 0.03065 0.24994
 H13 H 0.38785 -0.02602 0.26370
 H14 H 0.42341 0.00795 0.21853
 H15 H 0.42417 -0.00457 0.27920
 H16 H 0.38785 0.03108 0.23556
 H17 H 0.40727 -0.05784 0.20772
 H18 H 0.40923 0.06229 0.29031
 C19 C 0.10596 -0.02751 0.75017
 C20 C 0.09562 -0.00852 0.75627
 C21 C 0.08461 -0.00779 0.77490
 C22 C 0.08351 -0.02597 0.78746
 C23 C 0.09422 -0.04484 0.78133
 C24 C 0.10563 -0.04577 0.76275
 C25 C 0.09562 0.01050 0.74292
 C26 C 0.08451 0.00993 0.72435
 C27 C 0.08334 0.02812 0.71157
 C28 C 0.09443 0.04680 0.71791
 C29 C 0.10591 0.04748 0.73646
 C30 C 0.10613 0.02926 0.74900
 H31 H 0.11467 -0.02782 0.73584
 H32 H 0.07676 0.00699 0.77950
 H33 H 0.07723 -0.00510 0.71990
 H34 H 0.11490 0.02941 0.76330
 H35 H 0.09320 -0.05902 0.79079
 H36 H 0.09332 0.06139 0.70909
 C37 C 0.60505 0.46867 0.25033
 C38 C 0.59494 0.48772 0.25662
 C39 C 0.58397 0.48839 0.27529
 C40 C 0.58270 0.47010 0.28769
 C41 C 0.59316 0.45117 0.28135
 C42 C 0.60455 0.45031 0.26277
 C43 C 0.59537 0.50693 0.24353
 C44 C 0.58508 0.50658 0.22452
 C45 C 0.58448 0.52497 0.21219
 C46 C 0.59497 0.54365 0.21896
 C47 C 0.60568 0.54418 0.23793
 C48 C 0.60550 0.52573 0.25025
 H49 H 0.61378 0.46841 0.23602
 H50 H 0.57634 0.50322 0.28006
 H51 H 0.57739 0.49195 0.21944
 H52 H 0.61369 0.52574 0.26485
 H53 H 0.59202 0.43692 0.29070
 H54 H 0.59433 0.55799 0.20969
 C55 C 0.89483 0.47109 0.74951
 C56 C 0.90540 0.48982 0.74337
 C57 C 0.91630 0.49024 0.72468
 C58 C 0.91706 0.47198 0.71209
 C59 C 0.90614 0.45336 0.71827
 C60 C 0.89483 0.45277 0.73691
 C61 C 0.90561 0.50893 0.75669
 C62 C 0.91685 0.50837 0.77519
 C63 C 0.91807 0.52661 0.78799
 C64 C 0.90695 0.54533 0.78173
 C65 C 0.89533 0.54600 0.76327
 C66 C 0.89504 0.52773 0.75070
 H67 H 0.88618 0.47104 0.76387
 H68 H 0.92430 0.50484 0.72004
 H69 H 0.92417 0.49332 0.77958
 H70 H 0.88614 0.52787 0.73648
 H71 H 0.90689 0.43912 0.70878
 H72 H 0.90811 0.55996 0.79055
 C73 C 0.26214 0.35646 1.02435
 C74 C 0.26246 0.37060 1.00770
 C75 C 0.28029 0.38391 1.00462
 C76 C 0.29789 0.38309 1.01805
 C77 C 0.29723 0.36895 1.03472
 C78 C 0.27956 0.35526 1.03818
 C79 C 0.24462 0.37029 0.99278
 C80 C 0.22678 0.38396 0.99517
 C81 C 0.20927 0.38271 0.98159
 C82 C 0.21007 0.36778 0.96547
 C83 C 0.22774 0.35396 0.96291
 C84 C 0.24501 0.35538 0.97666
 H85 H 0.24858 0.34576 1.02573
 H86 H 0.28065 0.39447 0.99151
 H87 H 0.22636 0.39514 1.00786
 H88 H 0.25863 0.34463 0.97512
 H89 H 0.31030 0.36960 1.04558
 H90 H 0.19702 0.36724 0.95454
 C91 C 0.73759 0.14334 1.02277
 C92 C 0.73708 0.12945 1.00586
 C93 C 0.71904 0.11650 1.00248
 C94 C 0.70143 0.11739 1.01591
 C95 C 0.70227 0.13128 1.03284
 C96 C 0.72015 0.14463 1.03657
 C97 C 0.75499 0.12971 0.99102
 C98 C 0.77293 0.11623 0.99364
 C99 C 0.79058 0.11753 0.98024
 C100 C 0.78985 0.13235 0.96410
 C101 C 0.77210 0.14600 0.96135
 C102 C 0.75465 0.14450 0.97490
 H103 H 0.75132 0.15379 1.02437
 H104 H 0.71855 0.10613 0.98918
 H105 H 0.77332 0.10517 1.00637
 H106 H 0.74098 0.15515 0.97322
 H107 H 0.68917 0.13069 1.04366
 H108 H 0.80303 0.13295 0.95332
 C109 C 0.24137 0.64477 0.52322
 C110 C 0.24106 0.63002 0.50699
 C111 C 0.22336 0.61629 0.50457
 C112 C 0.20589 0.61736 0.51823
 C113 C 0.20665 0.63212 0.53451
 C114 C 0.22420 0.64596 0.53711
 C115 C 0.25879 0.63002 0.49197
 C116 C 0.27642 0.61607 0.49421
 C117 C 0.29400 0.61722 0.48071
 C118 C 0.29344 0.63230 0.46477
 C119 C 0.27597 0.64639 0.46236
 C120 C 0.25867 0.64510 0.47610
 H121 H 0.25486 0.65559 0.52476
 H122 H 0.22298 0.60525 0.49177
 H123 H 0.27668 0.60483 0.50679
 H124 H 0.24525 0.65612 0.47474
 H125 H 0.19366 0.63251 0.54550
 H126 H 0.30654 0.63278 0.45389
 C127 C 0.75823 0.85563 0.52575
 C128 C 0.75858 0.87064 0.50989
 C129 C 0.77623 0.88449 0.50781
 C130 C 0.79387 0.88341 0.52148
 C131 C 0.79277 0.86830 0.53754
 C132 C 0.77527 0.85433 0.53970
 C133 C 0.74104 0.87063 0.49466
 C134 C 0.72330 0.88448 0.49681
 C135 C 0.70585 0.88320 0.48315
 C136 C 0.70668 0.86814 0.46713
 C137 C 0.72425 0.85416 0.46482
 C138 C 0.74140 0.85554 0.47871
 H139 H 0.74480 0.84471 0.52699
 H140 H 0.77644 0.89519 0.49484
 H141 H 0.72283 0.89571 0.50945
 H142 H 0.75489 0.84460 0.47741
 H143 H 0.80502 0.86791 0.54923
 H144 H 0.69369 0.86757 0.45614
 C145 C -0.02799 0.24234 0.32567
 C146 C -0.00769 0.23981 0.33433
 C147 C -0.00273 0.22142 0.34547
 C148 C -0.01823 0.20548 0.34878
 C149 C -0.03847 0.20793 0.33936
 C150 C -0.04375 0.22640 0.32795
 C151 C 0.00759 0.25761 0.33427
 C152 C 0.00281 0.27601 0.34567
 C153 C 0.01852 0.29165 0.34897
 C154 C 0.03874 0.28922 0.33983
 C155 C 0.04360 0.27091 0.32819
 C156 C 0.02793 0.25506 0.32554
 H157 H -0.03112 0.25673 0.31694
 H158 H 0.01324 0.21998 0.35188
 H159 H -0.01277 0.27752 0.35292
 H160 H 0.03163 0.24054 0.31709
 H161 H -0.05108 0.19675 0.34305
 H162 H 0.05122 0.30084 0.34297
 C163 C -0.02913 0.75648 0.17221
 C164 C -0.00902 0.76017 0.16339
 C165 C -0.00581 0.77802 0.15096
 C166 C -0.02276 0.79211 0.14695
 C167 C -0.04269 0.78875 0.15627
 C168 C -0.04643 0.77064 0.16862
 C169 C 0.00746 0.74338 0.16359
 C170 C 0.00448 0.72523 0.15137
 C171 C 0.02128 0.71043 0.14815
 C172 C 0.04070 0.71369 0.15877
 C173 C 0.04370 0.73181 0.17121
 C174 C 0.02703 0.74676 0.17341
 H175 H -0.03143 0.74166 0.18048
 H176 H 0.00941 0.77994 0.14315
 H177 H -0.01100 0.72311 0.14414
 H178 H 0.02935 0.76116 0.18244
 H179 H -0.05520 0.80054 0.15380
 H180 H 0.05440 0.70337 0.15602
 C181 C 0.47180 0.25713 0.67534
 C182 C 0.49250 0.25938 0.66738
 C183 C 0.49789 0.27776 0.65635
 C184 C 0.48244 0.29362 0.65255
 C185 C 0.46184 0.29148 0.66093
 C186 C 0.45637 0.27321 0.67221
 C187 C 0.50742 0.24116 0.66731
 C188 C 0.50196 0.22275 0.65625
 C189 C 0.51737 0.20686 0.65235
 C190 C 0.53801 0.20900 0.66064
 C191 C 0.54357 0.22729 0.67195
 C192 C 0.52817 0.24341 0.67518
 H193 H 0.46760 0.24261 0.68346
 H194 H 0.51372 0.27901 0.64957
 H195 H 0.48610 0.22149 0.64955
 H196 H 0.53242 0.25794 0.68332
 H197 H 0.44956 0.30324 0.65735
 H198 H 0.55025 0.19721 0.65698
 C199 C 0.47118 0.74218 0.82402
 C200 C 0.49169 0.73982 0.83230
 C201 C 0.49689 0.72150 0.84354
 C202 C 0.48142 0.70560 0.84743
 C203 C 0.46100 0.70794 0.83834
 C204 C 0.45577 0.72621 0.82690
 C205 C 0.50667 0.75787 0.83232
 C206 C 0.50138 0.77624 0.84356
 C207 C 0.51686 0.79198 0.84737
 C208 C 0.53739 0.78971 0.83885
 C209 C 0.54277 0.77145 0.82738
 C210 C 0.52732 0.75548 0.82422
 H211 H 0.46713 0.75669 0.81578
 H212 H 0.51297 0.72018 0.84970
 H213 H 0.48559 0.77760 0.85043
 H214 H 0.53145 0.74095 0.81597
 H215 H 0.44826 0.69676 0.84175
 H216 H 0.54969 0.80138 0.84244
 C217 C -0.27604 0.64513 1.00157
 C218 C -0.25713 0.65515 1.00820
 C219 C -0.25650 0.66507 1.02734
 C220 C -0.27472 0.66549 1.03990
 C221 C -0.29354 0.65515 1.03326
 C222 C -0.29458 0.64457 1.01408
 C223 C -0.23801 0.65575 0.99488
 C224 C -0.23893 0.66676 0.97628
 C225 C -0.22078 0.66824 0.96341
 C226 C -0.20175 0.65764 0.96969
 C227 C -0.20071 0.64623 0.98822
 C228 C -0.21891 0.64568 1.00086
 H229 H -0.27559 0.63692 0.98700
 H230 H -0.24177 0.67266 1.03234
 H231 H -0.25419 0.67368 0.97188
 H232 H -0.21847 0.63691 1.01512
 H233 H -0.30767 0.65648 1.04279
 H234 H -0.18719 0.65902 0.96081
 C235 C -0.27808 0.35491 0.49925
 C236 C -0.25909 0.34471 0.49293
 C237 C -0.25846 0.33384 0.47427
 C238 C -0.27677 0.33265 0.46188
 C239 C -0.29569 0.34319 0.46817
 C240 C -0.29673 0.35471 0.48687
 C241 C -0.23987 0.34484 0.50611
 C242 C -0.24021 0.33387 0.52473
 C243 C -0.22183 0.33292 0.53712
 C244 C -0.20316 0.34374 0.53084
 C245 C -0.20264 0.35512 0.51227
 C246 C -0.22109 0.35529 0.49985
 H247 H -0.27762 0.36383 0.51344
 H248 H -0.24366 0.32611 0.46952
 H249 H -0.25484 0.32594 0.52946
 H250 H -0.22109 0.36398 0.48555
 H251 H -0.30987 0.34129 0.45882
 H252 H -0.18882 0.34284 0.54017
 C253 C 0.21868 -0.14559 -0.00035
 C254 C 0.23754 -0.15612 -0.00635
 C255 C 0.23819 -0.16732 -0.02490
 C256 C 0.21998 -0.16853 -0.03773
 C257 C 0.20119 -0.15745 -0.03145
 C258 C 0.20044 -0.14587 -0.01294
 C259 C 0.25669 -0.15579 0.00692
 C260 C 0.25612 -0.16604 0.02590
 C261 C 0.27437 -0.16670 0.03872
 C262 C 0.29311 -0.15599 0.03197
 C263 C 0.29377 -0.14537 0.01300
 C264 C 0.27549 -0.14565 0.00046
 H265 H 0.21849 -0.13669 0.01389
 H266 H 0.25329 -0.17458 -0.02931
 H267 H 0.24105 -0.17303 0.03063
 H268 H 0.27562 -0.13748 -0.01413
 H269 H 0.18659 -0.15857 -0.04032
 H270 H 0.30774 -0.15673 0.04084
 C271 C 0.22002 1.14476 0.50034
 C272 C 0.23875 1.15537 0.50654
 C273 C 0.23905 1.16651 0.52513
 C274 C 0.22068 1.16746 0.53754
 C275 C 0.20206 1.15649 0.53131
 C276 C 0.20159 1.14496 0.51276
 C277 C 0.25793 1.15546 0.49334
 C278 C 0.25739 1.16646 0.47475
 C279 C 0.27568 1.16756 0.46202
 C280 C 0.29443 1.15653 0.46843
 C281 C 0.29508 1.14515 0.48700
 C282 C 0.27675 1.14499 0.49949
 H283 H 0.22007 1.13594 0.48605
 H284 H 0.25365 1.17455 0.52981
 H285 H 0.24231 1.17369 0.47024
 H286 H 0.27687 1.13627 0.51378
 H287 H 0.18774 1.15737 0.54066
 H288 H 0.30908 1.15757 0.45964
 C289 C 0.10884 0.51115 0.22577
 C290 C 0.12243 0.51158 0.24289
 C291 C 0.13647 0.52895 0.24577
 C292 C 0.13708 0.54583 0.23152
 C293 C 0.12330 0.54511 0.21454
 C294 C 0.10923 0.52785 0.21141
 C295 C 0.12163 0.49385 0.25781
 C296 C 0.13506 0.47583 0.25549
 C297 C 0.13341 0.45833 0.26896
 C298 C 0.11829 0.45931 0.28489
 C299 C 0.10469 0.47716 0.28737
 C300 C 0.10652 0.49443 0.27372
 H301 H 0.09821 0.49763 0.22354
 H302 H 0.14699 0.52918 0.25895
 H303 H 0.14638 0.47526 0.24293
 H304 H 0.09594 0.50818 0.27520
 H305 H 0.12316 0.55837 0.20389
 H306 H 0.11742 0.44626 0.29574
 C307 C -0.10743 0.98811 0.22570
 C308 C -0.12149 0.98738 0.24241
 C309 C -0.13446 0.96930 0.24543
 C310 C -0.13357 0.95163 0.23185
 C311 C -0.11946 0.95303 0.21496
 C312 C -0.10602 0.97091 0.21171
 C313 C -0.12120 1.00501 0.25760
 C314 C -0.13461 1.02306 0.25529
 C315 C -0.13326 1.04071 0.26893
 C316 C -0.11825 1.03931 0.28510
 C317 C -0.10467 1.02146 0.28747
 C318 C -0.10632 1.00432 0.27366
 H319 H -0.09693 1.00182 0.22442
 H320 H -0.14438 0.96883 0.25899
 H321 H -0.14523 1.02350 0.24223
 H322 H -0.09573 0.99058 0.27509
 H323 H -0.12022 0.94082 0.20328
 H324 H -0.11766 1.05162 0.29673
 C325 C 0.39465 0.49165 -0.27392
 C326 C 0.37991 0.49153 -0.25768
 C327 C 0.36611 0.47399 -0.25515
 C328 C 0.36706 0.45647 -0.26870
 C329 C 0.38177 0.45697 -0.28499
 C330 C 0.39593 0.47437 -0.28790
 C331 C 0.38018 0.50919 -0.24253
 C332 C 0.36616 0.52680 -0.24444
 C333 C 0.36731 0.54445 -0.23077
 C334 C 0.38270 0.54339 -0.21489
 C335 C 0.39683 0.52592 -0.21286
 C336 C 0.39545 0.50887 -0.22681
 H337 H 0.40570 0.50496 -0.27486
 H338 H 0.35512 0.47375 -0.24233
 H339 H 0.35522 0.52696 -0.25728
 H340 H 0.40646 0.49543 -0.22568
 H341 H 0.38123 0.44401 -0.29598
 H342 H 0.38316 0.55565 -0.20320
 C343 C 0.60602 0.00923 -0.27497
 C344 C 0.62068 0.00882 -0.25867
 C345 C 0.63581 0.02531 -0.25655
 C346 C 0.63633 0.04228 -0.27063
 C347 C 0.62151 0.04246 -0.28682
 C348 C 0.60628 0.02594 -0.28955
 C349 C 0.61985 -0.00892 -0.24372
 C350 C 0.63386 -0.02657 -0.24549
 C351 C 0.63218 -0.04405 -0.23201
 C352 C 0.61658 -0.04333 -0.21648
 C353 C 0.60248 -0.02581 -0.21448
 C354 C 0.60422 -0.00865 -0.22827
 H355 H 0.59511 -0.00413 -0.27651
 H356 H 0.64712 0.02489 -0.24398
 H357 H 0.64558 -0.02692 -0.25772
 H358 H 0.59324 0.00483 -0.22719
 H359 H 0.62129 0.05636 -0.29665
 H360 H 0.61574 -0.05631 -0.20555
 C361 C -0.00711 0.22340 0.92546
 C362 C -0.00933 0.24381 0.91694
 C363 C -0.02761 0.24893 0.90553
 C364 C -0.04345 0.23347 0.90198
 C365 C -0.04135 0.21317 0.91091
 C366 C -0.02315 0.20798 0.92255
 C367 C 0.00880 0.25868 0.91691
 C368 C 0.02721 0.25329 0.90575
 C369 C 0.04309 0.26865 0.90213
 C370 C 0.04092 0.28914 0.91075
 C371 C 0.02261 0.29460 0.92214
 C372 C 0.00651 0.27927 0.92510
 H373 H 0.00734 0.21942 0.93388
 H374 H -0.02884 0.26454 0.89838
 H375 H 0.02849 0.23752 0.89884
 H376 H -0.00802 0.28345 0.93333
 H377 H -0.05308 0.20087 0.90754
 H378 H 0.05271 0.30136 0.90733
 C379 C 0.50623 0.22339 0.07444
 C380 C 0.51003 0.24248 0.08504
 C381 C 0.52836 0.24460 0.09719
 C382 C 0.54279 0.22747 0.09921
 C383 C 0.53921 0.20856 0.08813
 C384 C 0.52087 0.20633 0.07588
 C385 C 0.49334 0.25895 0.08633
 C386 C 0.47561 0.25539 0.09895
 C387 C 0.46106 0.27200 0.10308
 C388 C 0.46395 0.29197 0.09372
 C389 C 0.48162 0.29561 0.08092
 C390 C 0.49641 0.27901 0.07738
 H391 H 0.49164 0.22167 0.06557
 H392 H 0.53044 0.25900 0.10628
 H393 H 0.47372 0.23993 0.10626
 H394 H 0.51045 0.28173 0.06796
 H395 H 0.55015 0.19514 0.08990
 H396 H 0.45318 0.30511 0.09742
 C397 C 0.00507 0.72210 0.57530
 C398 C 0.00752 0.74263 0.58360
 C399 C 0.02594 0.74764 0.59483
 C400 C 0.04165 0.73200 0.59847
 C401 C 0.03932 0.71159 0.58975
 C402 C 0.02101 0.70649 0.57826
 C403 C -0.01047 0.75781 0.58369
 C404 C -0.02883 0.75285 0.59500
 C405 C -0.04468 0.76849 0.59896
 C406 C -0.04225 0.78883 0.58989
 C407 C -0.02393 0.79383 0.57839
 C408 C -0.00801 0.77824 0.57543
 H409 H -0.00948 0.71821 0.56702
 H410 H 0.02736 0.76335 0.60183
 H411 H -0.03022 0.73681 0.60114
 H412 H 0.00653 0.78210 0.56714
 H413 H 0.05097 0.69916 0.59318
 H414 H -0.05338 0.80169 0.59335
 C415 C 0.49283 0.72112 0.42630
 C416 C 0.49047 0.74175 0.41829
 C417 C 0.47228 0.74694 0.40676
 C418 C 0.45674 0.73138 0.40255
 C419 C 0.45896 0.71086 0.41099
 C420 C 0.47703 0.70558 0.42277
 C421 C 0.50848 0.75677 0.41862
 C422 C 0.52694 0.75172 0.40741
 C423 C 0.54257 0.76733 0.40379
 C424 C 0.54015 0.78774 0.41252
 C425 C 0.52180 0.79288 0.42399
 C426 C 0.50592 0.77730 0.42692
 H427 H 0.50722 0.71708 0.43479
 H428 H 0.47097 0.76273 0.39997
 H429 H 0.52841 0.73602 0.40038
 H430 H 0.49131 0.78126 0.43513
 H431 H 0.44745 0.69851 0.40712
 H432 H 0.55173 0.80014 0.40909
 Zr433 Zr 0.01049 -0.03518 1.03093
 O434 O 0.03265 -0.02415 1.05309
 O435 O 0.00441 -0.06631 1.04092
 O436 O -0.00390 -0.03348 1.06024
 O437 O 0.04880 -0.04816 0.99450
 O438 O -0.03486 -0.01454 1.05481
 O439 O 0.04049 -0.05120 1.02837
 O440 O -0.02133 -0.07847 1.01890
 O441 O -0.02251 -0.03835 1.02550
 O442 O 0.00735 -0.05154 1.00315
 O443 O -0.00191 -0.00377 1.03057
 O444 O 0.02724 -0.01661 1.00929
 Zr445 Zr -0.02262 -0.00429 0.97396
 Zr446 Zr -0.03457 -0.00707 1.02352
 Zr447 Zr 0.02231 -0.03245 0.98135
 Zr448 Zr -0.02535 -0.05367 0.99729
 O449 O 0.05108 -0.01729 0.97215
 O450 O -0.05613 -0.06129 1.00901
 O451 O -0.01033 -0.03591 0.97408
 O452 O -0.03899 -0.02299 0.99563
 O453 O -0.01964 0.01223 1.00171
 O454 O 0.01030 -0.00127 0.97963
 C455 C -0.00901 -0.08037 1.03457
 C456 C 0.05284 -0.05433 1.01281
 C457 C -0.02165 -0.02483 1.06627
 O458 O -0.06447 -0.02120 1.03070
 O459 O -0.05951 0.01151 1.01086
 O460 O -0.05173 0.01314 0.97680
 C461 C -0.06348 0.01755 0.99248
 O462 O 0.03685 0.01761 1.03089
 Zr463 Zr 0.01321 0.01404 1.00772
 O464 O -0.01720 0.02735 0.96462
 O465 O -0.03732 0.02167 1.04058
 O466 O 0.00331 0.03994 1.02660
 O467 O 0.04256 0.02401 0.99440
 O468 O 0.00605 0.04024 0.98868
 C469 C -0.00597 0.04228 0.97286
 O470 O -0.04570 -0.01478 0.95242
 O471 O 0.02633 -0.06220 0.96616
 O472 O -0.00933 -0.00774 0.94434
 O473 O 0.02076 -0.02807 0.94958
 O474 O -0.01504 -0.08125 0.98094
 O475 O -0.04581 -0.05893 0.97178
 C476 C 0.00753 -0.01787 0.93808
 H477 H 0.01386 -0.06603 1.00337
 H478 H -0.05441 -0.02422 0.99213
 H479 H 0.01786 0.00695 0.96892
 H480 H 0.00020 0.00338 1.04394
 H481 H -0.05818 -0.07694 1.00730
 H482 H -0.07194 -0.01123 1.04016
 H483 H -0.05156 0.02138 1.04734
 H484 H 0.01245 0.05241 1.02322
 H485 H -0.02471 -0.09319 0.98475
 H486 H 0.04054 -0.06179 0.95936
 H487 H 0.05857 -0.02738 0.96282
 H488 H 0.04397 0.03961 0.99696
 H489 H -0.05307 -0.07294 0.97326
 H490 H -0.04824 -0.00275 0.94282
 H491 H 0.03527 -0.03618 1.06267
 H492 H 0.04181 0.03267 1.03127
 Zr493 Zr 0.51375 0.46436 0.53243
 O494 O 0.53635 0.47614 0.55381
 O495 O 0.50787 0.43362 0.54353
 O496 O 0.49992 0.46692 0.56193
 O497 O 0.55125 0.45016 0.49561
 O498 O 0.46882 0.48564 0.55651
 O499 O 0.54373 0.44827 0.52974
 O500 O 0.48151 0.42082 0.52255
 O501 O 0.48064 0.46105 0.52773
 O502 O 0.51001 0.44708 0.50523
 O503 O 0.50132 0.49574 0.53138
 O504 O 0.53001 0.48220 0.50990
 Zr505 Zr 0.47941 0.49337 0.47522
 Zr506 Zr 0.46851 0.49224 0.52505
 Zr507 Zr 0.52447 0.46544 0.48255
 Zr508 Zr 0.47718 0.44477 0.50009
 O509 O 0.55305 0.48022 0.47234
 O510 O 0.44659 0.43761 0.51251
 O511 O 0.49168 0.46176 0.47605
 O512 O 0.46350 0.47540 0.49775
 O513 O 0.48298 0.51080 0.50240
 O514 O 0.51243 0.49655 0.48017
 C515 C 0.49418 0.41944 0.53802
 C516 C 0.55573 0.44462 0.51401
 C517 C 0.48223 0.47568 0.56802
 O518 O 0.43872 0.47843 0.53316
 O519 O 0.44333 0.51047 0.51232
 O520 O 0.45038 0.51091 0.47807
 C521 C 0.43898 0.51589 0.49384
 O522 O 0.54009 0.51706 0.53029
 Zr523 Zr 0.51594 0.51278 0.50772
 O524 O 0.48457 0.52471 0.46487
 O525 O 0.46616 0.52148 0.54137
 O526 O 0.50647 0.53928 0.52603
 O527 O 0.54499 0.52233 0.49353
 O528 O 0.50834 0.53835 0.48806
 C529 C 0.49596 0.53990 0.47244
 O530 O 0.45591 0.48212 0.45446
 O531 O 0.52809 0.43520 0.46817
 O532 O 0.49210 0.48908 0.44547
 O533 O 0.52227 0.46886 0.45070
 O534 O 0.48719 0.41658 0.48455
 O535 O 0.45629 0.43861 0.47510
 C536 C 0.50883 0.47877 0.43918
 H537 H 0.51652 0.43259 0.50579
 H538 H 0.44802 0.47406 0.49458
 H539 H 0.51977 0.50444 0.46909
 H540 H 0.50369 0.50331 0.54450
 H541 H 0.44450 0.42191 0.51134
 H542 H 0.43147 0.48870 0.54248
 H543 H 0.45207 0.52142 0.54840
 H544 H 0.51552 0.55163 0.52210
 H545 H 0.47762 0.40480 0.48895
 H546 H 0.54214 0.43536 0.46107
 H547 H 0.56033 0.46982 0.46316
 H548 H 0.54644 0.53801 0.49561
 H549 H 0.44910 0.42464 0.47711
 H550 H 0.45313 0.49382 0.44455
 H551 H 0.53918 0.46443 0.56369
 H552 H 0.54506 0.53213 0.53015
 Zr553 Zr 0.48499 1.03524 0.53268
 O554 O 0.46235 1.02370 0.55408
 O555 O 0.49089 1.06610 0.54365
 O556 O 0.49877 1.03301 0.56222
 O557 O 0.44757 1.04907 0.49575
 O558 O 0.52982 1.01416 0.55691
 O559 O 0.45504 1.05131 0.52988
 O560 O 0.51732 1.07863 0.52266
 O561 O 0.51812 1.03847 0.52801
 O562 O 0.48881 1.05223 0.50541
 O563 O 0.49738 1.00384 0.53178
 O564 O 0.46876 1.01719 0.51020
 Zr565 Zr 0.51942 1.00557 0.47565
 Zr566 Zr 0.53020 1.00724 0.52549
 Zr567 Zr 0.47437 1.03365 0.48278
 Zr568 Zr 0.52164 1.05445 0.50031
 O569 O 0.44580 1.01879 0.47256
 O570 O 0.55223 1.06171 0.51272
 O571 O 0.50718 1.03721 0.47632
 O572 O 0.53529 1.02378 0.49813
 O573 O 0.51577 0.98844 0.50290
 O574 O 0.48637 1.00249 0.48055
 C575 C 0.50462 1.08019 0.53811
 C576 C 0.44307 1.05479 0.51413
 C577 C 0.51643 1.02429 0.56836
 O578 O 0.55997 1.02111 0.53363
 O579 O 0.55543 0.98891 0.51290
 O580 O 0.54847 0.98809 0.47865
 C581 C 0.55985 0.98331 0.49446
 O582 O 0.45859 0.98255 0.53073
 Zr583 Zr 0.48278 0.98657 0.50817
 O584 O 0.51422 0.97411 0.46545
 O585 O 0.53249 0.97814 0.54190
 O586 O 0.49217 0.96025 0.52662
 O587 O 0.45375 0.97694 0.49397
 O588 O 0.49038 0.96077 0.48866
 C589 C 0.50279 0.95903 0.47308
 O590 O 0.54297 1.01652 0.45486
 O591 O 0.47081 1.06375 0.46829
 O592 O 0.50681 1.00962 0.44586
 O593 O 0.47665 1.02993 0.45094
 O594 O 0.51167 1.08248 0.48463
 O595 O 0.54258 1.06031 0.47531
 C596 C 0.49012 1.01991 0.43949
 H597 H 0.48230 1.06673 0.50590
 H598 H 0.55078 1.02507 0.49499
 H599 H 0.47906 0.99451 0.46948
 H600 H 0.49498 0.99641 0.54493
 H601 H 0.55433 1.07740 0.51147
 H602 H 0.56719 1.01093 0.54301
 H603 H 0.54656 0.97828 0.54898
 H604 H 0.48309 0.94787 0.52274
 H605 H 0.52124 1.09430 0.48900
 H606 H 0.45676 1.06354 0.46118
 H607 H 0.43856 1.02911 0.46333
 H608 H 0.45226 0.96129 0.49610
 H609 H 0.54975 1.07431 0.47726
 H610 H 0.54574 1.00470 0.44502
 H611 H 0.45951 1.03551 0.56391
 H612 H 0.45357 0.96751 0.53061
 Zr613 Zr -0.00902 0.53807 1.03093
 O614 O -0.03151 0.52734 1.05286
 O615 O -0.00225 0.56896 1.04140
 O616 O 0.00512 0.53588 1.06030
 O617 O -0.04689 0.55194 0.99445
 O618 O 0.03574 0.51640 1.05479
 O619 O -0.03877 0.55454 1.02841
 O620 O 0.02405 0.58066 1.01982
 O621 O 0.02407 0.54062 1.02570
 O622 O -0.00539 0.55461 1.00339
 O623 O 0.00276 0.50643 1.03026
 O624 O -0.02596 0.51999 1.00895
 Zr625 Zr 0.02386 0.50695 0.97378
 Zr626 Zr 0.03552 0.50914 1.02343
 Zr627 Zr -0.02056 0.53596 0.98124
 Zr628 Zr 0.02739 0.55611 0.99771
 O629 O -0.04956 0.52150 0.97162
 O630 O 0.05837 0.56301 1.00943
 O631 O 0.01219 0.53881 0.97420
 O632 O 0.04044 0.52518 0.99577
 O633 O 0.02037 0.49029 1.00131
 O634 O -0.00915 0.50456 0.97924
 C635 C 0.01169 0.58268 1.03546
 C636 C -0.05101 0.55793 1.01283
 C637 C 0.02267 0.52685 1.06631
 O638 O 0.06564 0.52265 1.03096
 O639 O 0.06022 0.49022 1.01070
 O640 O 0.05265 0.48900 0.97657
 C641 C 0.06422 0.48426 0.99228
 O642 O -0.03640 0.48583 1.03011
 Zr643 Zr -0.01255 0.48909 1.00711
 O644 O 0.01791 0.47549 0.96406
 O645 O 0.03762 0.48022 1.04015
 O646 O -0.00328 0.46287 1.02573
 O647 O -0.04202 0.47981 0.99352
 O648 O -0.00580 0.46290 0.98779
 C649 C 0.00631 0.46073 0.97203
 O650 O 0.04723 0.51719 0.95247
 O651 O -0.02382 0.56592 0.96645
 O652 O 0.01076 0.51074 0.94415
 O653 O -0.01892 0.53170 0.94942
 O654 O 0.01761 0.58411 0.98187
 O655 O 0.04793 0.56119 0.97226
 C656 C -0.00587 0.52121 0.93791
 H657 H -0.01163 0.56922 1.00381
 H658 H 0.05590 0.52614 0.99237
 H659 H -0.01681 0.49655 0.96841
 H660 H 0.00044 0.49922 1.04353
 H661 H 0.06075 0.57862 1.00788
 H662 H 0.07285 0.51247 1.04036
 H663 H 0.05181 0.48021 1.04702
 H664 H -0.01264 0.45060 1.02215
 H665 H 0.02751 0.59580 0.98590
 H666 H -0.03799 0.56587 0.95955
 H667 H -0.05678 0.53184 0.96239
 H668 H -0.04376 0.46422 0.99588
 H669 H 0.05534 0.57511 0.97383
 H670 H 0.04961 0.50518 0.94275
 H671 H -0.03396 0.53935 1.06256
 H672 H -0.04166 0.47086 1.03029
 Zr673 Zr -0.01324 0.46497 0.46737
 O674 O -0.03594 0.47651 0.44594
 O675 O -0.00691 0.43421 0.45623
 O676 O 0.00058 0.46760 0.43789
 O677 O -0.05069 0.45078 0.50405
 O678 O 0.03141 0.48652 0.44343
 O679 O -0.04304 0.44878 0.46995
 O680 O 0.01949 0.42162 0.47732
 O681 O 0.01990 0.46185 0.47215
 O682 O -0.00937 0.44782 0.49455
 O683 O -0.00121 0.49643 0.46852
 O684 O -0.02978 0.48282 0.48989
 Zr685 Zr 0.02059 0.49441 0.52472
 Zr686 Zr 0.03162 0.49311 0.47492
 Zr687 Zr -0.02412 0.46620 0.51722
 Zr688 Zr 0.02347 0.44571 0.49979
 O689 O -0.05290 0.48087 0.52741
 O690 O 0.05418 0.43865 0.48742
 O691 O 0.00870 0.46273 0.52381
 O692 O 0.03676 0.47642 0.50220
 O693 O 0.01688 0.51170 0.49756
 O694 O -0.01247 0.49739 0.51970
 C695 C 0.00690 0.42011 0.46180
 C696 C -0.05506 0.44517 0.48562
 C697 C 0.01813 0.47650 0.43186
 O698 O 0.06155 0.47937 0.46679
 O699 O 0.05660 0.51144 0.48772
 O700 O 0.04946 0.51203 0.52195
 C701 C 0.06086 0.51695 0.50621
 O702 O -0.04023 0.51757 0.46952
 Zr703 Zr -0.01610 0.51348 0.49217
 O704 O 0.01500 0.52577 0.53510
 O705 O 0.03369 0.52235 0.45873
 O706 O -0.00689 0.53996 0.47393
 O707 O -0.04532 0.52290 0.50628
 O708 O -0.00890 0.53917 0.51189
 C709 C 0.00342 0.54086 0.52753
 O710 O 0.04415 0.48340 0.54556
 O711 O -0.02740 0.43599 0.53152
 O712 O 0.00784 0.49016 0.55444
 O713 O -0.02206 0.46974 0.54909
 O714 O 0.01376 0.41755 0.51529
 O715 O 0.04439 0.43979 0.52481
 C716 C -0.00878 0.47978 0.56066
 H717 H -0.01571 0.43330 0.49395
 H718 H 0.05225 0.47517 0.50540
 H719 H -0.01993 0.50527 0.53077
 H720 H -0.00365 0.50395 0.45542
 H721 H 0.05645 0.42297 0.48858
 H722 H 0.06871 0.48965 0.45752
 H723 H 0.04780 0.52233 0.45171
 H724 H -0.01611 0.55228 0.47785
 H725 H 0.02349 0.40581 0.51091
 H726 H -0.04149 0.43609 0.53857
 H727 H -0.06008 0.47046 0.53654
 H728 H -0.04697 0.53856 0.50425
 H729 H 0.05175 0.42584 0.52280
 H730 H 0.04674 0.49517 0.55548
 H731 H -0.03860 0.46475 0.43604
 H732 H -0.04539 0.53261 0.46970
 Zr733 Zr 0.48218 -0.03555 -0.03560
 O734 O 0.45948 -0.02509 -0.05753
 O735 O 0.48894 -0.06661 -0.04566
 O736 O 0.49618 -0.03384 -0.06508
 O737 O 0.44467 -0.04881 0.00134
 O738 O 0.52673 -0.01435 -0.06000
 O739 O 0.45256 -0.05201 -0.03263
 O740 O 0.51538 -0.07811 -0.02406
 O741 O 0.51532 -0.03811 -0.03054
 O742 O 0.48607 -0.05164 -0.00784
 O743 O 0.49384 -0.00394 -0.03544
 O744 O 0.46528 -0.01710 -0.01378
 Zr745 Zr 0.51527 -0.00362 0.02092
 Zr746 Zr 0.52666 -0.00662 -0.02875
 Zr747 Zr 0.47096 -0.03262 0.01414
 Zr748 Zr 0.51889 -0.05318 -0.00236
 O749 O 0.44197 -0.01790 0.02371
 O750 O 0.54977 -0.06032 -0.01428
 O751 O 0.50377 -0.03545 0.02100
 O752 O 0.53180 -0.02225 -0.00089
 O753 O 0.51153 0.01261 -0.00683
 O754 O 0.48222 -0.00122 0.01563
 C755 C 0.50291 -0.08032 -0.03959
 C756 C 0.44049 -0.05517 -0.01690
 C757 C 0.51366 -0.02495 -0.07131
 O758 O 0.55678 -0.02032 -0.03629
 O759 O 0.55139 0.01237 -0.01640
 O760 O 0.54400 0.01413 0.01774
 C761 C 0.55549 0.01856 0.00193
 O762 O 0.45451 0.01664 -0.03534
 Zr763 Zr 0.47856 0.01378 -0.01247
 O764 O 0.50924 0.02808 0.03011
 O765 O 0.52850 0.02206 -0.04583
 O766 O 0.48749 0.03966 -0.03159
 O767 O 0.44918 0.02337 0.00123
 O768 O 0.48536 0.04032 0.00630
 C769 C 0.49758 0.04275 0.02192
 O770 O 0.53881 -0.01349 0.04229
 O771 O 0.46789 -0.06233 0.02939
 O772 O 0.50244 -0.00702 0.05070
 O773 O 0.47283 -0.02798 0.04589
 O774 O 0.50938 -0.08087 0.01400
 O775 O 0.53968 -0.05794 0.02299
 C776 C 0.48595 -0.01743 0.05720
 H777 H 0.47991 -0.06625 -0.00799
 H778 H 0.54728 -0.02322 0.00244
 H779 H 0.47461 0.00698 0.02641
 H780 H 0.49140 0.00306 -0.04880
 H781 H 0.55222 -0.07592 -0.01257
 H782 H 0.56389 -0.01030 -0.04585
 H783 H 0.54264 0.02194 -0.05278
 H784 H 0.47804 0.05198 -0.02818
 H785 H 0.51927 -0.09266 0.01007
 H786 H 0.45376 -0.06212 0.03636
 H787 H 0.43486 -0.02805 0.03313
 H788 H 0.44732 0.03891 -0.00140
 H789 H 0.54720 -0.07187 0.02150
 H790 H 0.54118 -0.00132 0.05181
 H791 H 0.45704 -0.03725 -0.06705
 H792 H 0.44910 0.03158 -0.03569
 Zr793 Zr 0.51686 0.53573 -0.03367
 O794 O 0.53949 0.52453 -0.05538
 O795 O 0.51038 0.56659 -0.04425
 O796 O 0.50285 0.53354 -0.06313
 O797 O 0.55438 0.54958 0.00314
 O798 O 0.47211 0.51445 -0.05780
 O799 O 0.54661 0.55199 -0.03090
 O800 O 0.48391 0.57876 -0.02296
 O801 O 0.48373 0.53867 -0.02870
 O802 O 0.51303 0.55251 -0.00618
 O803 O 0.50492 0.50422 -0.03304
 O804 O 0.53354 0.51765 -0.01152
 Zr805 Zr 0.48336 0.50542 0.02327
 Zr806 Zr 0.47211 0.50734 -0.02645
 Zr807 Zr 0.52792 0.53389 0.01613
 Zr808 Zr 0.48021 0.55444 -0.00080
 O809 O 0.55681 0.51921 0.02596
 O810 O 0.44938 0.56156 -0.01282
 O811 O 0.49512 0.53716 0.02289
 O812 O 0.46703 0.52366 0.00113
 O813 O 0.48701 0.48849 -0.00419
 O814 O 0.51640 0.50263 0.01808
 C815 C 0.49644 0.58051 -0.03849
 C816 C 0.55866 0.55545 -0.01519
 C817 C 0.48527 0.52472 -0.06924
 O818 O 0.44208 0.52106 -0.03420
 O819 O 0.44725 0.48875 -0.01387
 O820 O 0.45454 0.48774 0.02031
 C821 C 0.44308 0.48300 0.00454
 O822 O 0.54399 0.48321 -0.03258
 Zr823 Zr 0.51998 0.48691 -0.00974
 O824 O 0.48917 0.47397 0.03310
 O825 O 0.47009 0.47834 -0.04318
 O826 O 0.51074 0.46063 -0.02836
 O827 O 0.54933 0.47744 0.00405
 O828 O 0.51306 0.46095 0.00961
 C829 C 0.50083 0.45904 0.02529
 O830 O 0.45983 0.51605 0.04438
 O831 O 0.53113 0.56391 0.03094
 O832 O 0.49618 0.50932 0.05301
 O833 O 0.52600 0.52988 0.04795
 O834 O 0.48993 0.58247 0.01507
 O835 O 0.45945 0.55998 0.02446
 C836 C 0.51279 0.51965 0.05938
 H837 H 0.51931 0.56706 -0.00657
 H838 H 0.45155 0.52481 0.00441
 H839 H 0.52394 0.49463 0.02899
 H840 H 0.50732 0.49690 -0.04629
 H841 H 0.44706 0.57722 -0.01137
 H842 H 0.43491 0.51089 -0.04363
 H843 H 0.45595 0.47840 -0.05013
 H844 H 0.52003 0.44829 -0.02470
 H845 H 0.48014 0.59423 0.01090
 H846 H 0.54524 0.56377 0.03795
 H847 H 0.56397 0.52952 0.03525
 H848 H 0.55106 0.46182 0.00171
 H849 H 0.45208 0.57396 0.02276
 H850 H 0.45732 0.50414 0.05411
 H851 H 0.54205 0.53644 -0.06509
 H852 H 0.54917 0.46818 -0.03272
 Zr853 Zr 0.01269 1.03408 0.46792
 O854 O 0.03528 1.02198 0.44661
 O855 O 0.00670 1.06473 0.45653
 O856 O -0.00118 1.03116 0.43847
 O857 O 0.05025 1.04851 0.50448
 O858 O -0.03222 1.01266 0.44416
 O859 O 0.04261 1.05007 0.47036
 O860 O -0.01954 1.07794 0.47753
 O861 O -0.02042 1.03763 0.47268
 O862 O 0.00900 1.05166 0.49496
 O863 O 0.00031 1.00278 0.46932
 O864 O 0.02905 1.01640 0.49057
 Zr865 Zr -0.02142 1.00585 0.52552
 Zr866 Zr -0.03248 1.00653 0.47571
 Zr867 Zr 0.02357 1.03347 0.51778
 Zr868 Zr -0.02381 1.05421 0.50018
 O869 O 0.05224 1.01866 0.52800
 O870 O -0.05443 1.06141 0.48775
 O871 O -0.00920 1.03739 0.52435
 O872 O -0.03742 1.02368 0.50286
 O873 O -0.01791 0.98813 0.49849
 O874 O 0.01160 1.00245 0.52050
 C875 C -0.00693 1.07907 0.46200
 C876 C 0.05465 1.05384 0.48602
 C877 C -0.01883 1.02236 0.43251
 O878 O -0.06227 1.02047 0.46749
 O879 O -0.05763 0.98864 0.48868
 O880 O -0.05047 0.98850 0.52291
 C881 C -0.06193 0.98345 0.50723
 O882 O 0.03914 0.98128 0.47049
 Zr883 Zr 0.01505 0.98592 0.49309
 O884 O -0.01620 0.97458 0.53612
 O885 O -0.03487 0.97709 0.45976
 O886 O 0.00558 0.95928 0.47505
 O887 O 0.04415 0.97637 0.50730
 O888 O 0.00754 0.96059 0.51299
 C889 C -0.00482 0.95925 0.52864
 O890 O -0.04483 1.01745 0.54628
 O891 O 0.02715 1.06383 0.53188
 O892 O -0.00857 1.01035 0.55519
 O893 O 0.02154 1.03036 0.54967
 O894 O -0.01381 1.08248 0.51548
 O895 O -0.04467 1.06073 0.52516
 C896 C 0.00818 1.02061 0.56132
 H897 H 0.01548 1.06611 0.49425
 H898 H -0.05290 1.02514 0.50606
 H899 H 0.01899 0.99463 0.53162
 H900 H 0.00267 0.99504 0.45628
 H901 H -0.05654 1.07713 0.48877
 H902 H -0.06955 1.01013 0.45831
 H903 H -0.04898 0.97715 0.45275
 H904 H 0.01468 0.94693 0.47906
 H905 H -0.02341 1.09427 0.51099
 H906 H 0.04125 1.06369 0.53891
 H907 H 0.05953 1.02912 0.53705
 H908 H 0.04563 0.96067 0.50537
 H909 H -0.05189 1.07472 0.52301
 H910 H -0.04755 1.00586 0.55630
 H911 H 0.03805 1.03356 0.43660
 H912 H 0.04415 0.96620 0.47078
 Zr913 Zr 0.71325 0.25936 0.21840
 O914 O 0.72388 0.28169 0.19633
 O915 O 0.68217 0.25273 0.20832
 O916 O 0.71506 0.24512 0.18903
 O917 O 0.69996 0.29739 0.25500
 O918 O 0.73444 0.21444 0.19428
 O919 O 0.69690 0.28914 0.22109
 O920 O 0.67054 0.22663 0.23006
 O921 O 0.71056 0.22636 0.22369
 O922 O 0.69697 0.25594 0.24615
 O923 O 0.74487 0.24740 0.21868
 O924 O 0.73170 0.27627 0.24011
 Zr925 Zr 0.74486 0.22657 0.27518
 Zr926 Zr 0.74204 0.21473 0.22557
 Zr927 Zr 0.71599 0.27107 0.26803
 Zr928 Zr 0.69533 0.22324 0.25187
 O929 O 0.73078 0.29995 0.27744
 O930 O 0.68812 0.19230 0.24028
 O931 O 0.71302 0.23841 0.27514
 O932 O 0.72626 0.21004 0.25345
 O933 O 0.76126 0.22983 0.24743
 O934 O 0.74739 0.25949 0.26966
 C935 C 0.66843 0.23890 0.21443
 C936 C 0.69374 0.30144 0.23670
 C937 C 0.72393 0.22753 0.18290
 O938 O 0.72823 0.18473 0.21821
 O939 O 0.76093 0.18996 0.23808
 O940 O 0.76259 0.19767 0.27219
 C941 C 0.76705 0.18599 0.25645
 O942 O 0.76572 0.28638 0.21852
 Zr943 Zr 0.76259 0.26268 0.24158
 O944 O 0.77654 0.23238 0.28446
 O945 O 0.77083 0.21240 0.20852
 O946 O 0.78858 0.25321 0.22262
 O947 O 0.77220 0.29209 0.25504
 O948 O 0.78901 0.25587 0.26054
 C949 C 0.79130 0.24384 0.27628
 O950 O 0.73479 0.20338 0.29668
 O951 O 0.68616 0.27461 0.28319
 O952 O 0.74135 0.23976 0.30487
 O953 O 0.72049 0.26950 0.29979
 O954 O 0.66752 0.23323 0.26805
 O955 O 0.69041 0.20289 0.27743
 C956 C 0.73097 0.25643 0.31121
 H957 H 0.68237 0.26225 0.24590
 H958 H 0.72523 0.19463 0.25688
 H959 H 0.75556 0.26713 0.28040
 H960 H 0.75196 0.24963 0.20532
 H961 H 0.67249 0.19003 0.24203
 H962 H 0.73827 0.17743 0.20870
 H963 H 0.77068 0.19822 0.20166
 H964 H 0.80096 0.26251 0.22602
 H965 H 0.65572 0.22340 0.26418
 H966 H 0.68638 0.28879 0.29006
 H967 H 0.72059 0.30727 0.28678
 H968 H 0.78779 0.29375 0.25246
 H969 H 0.67642 0.19554 0.27603
 H970 H 0.74693 0.20100 0.30624
 H971 H 0.71177 0.28415 0.18677
 H972 H 0.78073 0.29157 0.21816
 Zr973 Zr 0.78550 0.73616 0.71937
 O974 O 0.77390 0.71355 0.69789
 O975 O 0.81634 0.74211 0.70837
 O976 O 0.78310 0.74990 0.68988
 O977 O 0.79953 0.69878 0.75614
 O978 O 0.76423 0.78090 0.69527
 O979 O 0.80161 0.70626 0.72204
 O980 O 0.82892 0.76855 0.72939
 O981 O 0.78870 0.76923 0.72413
 O982 O 0.80263 0.73998 0.74662
 O983 O 0.75403 0.74848 0.72031
 O984 O 0.76754 0.71991 0.74180
 Zr985 Zr 0.75594 0.77045 0.77650
 Zr986 Zr 0.75741 0.78125 0.72670
 Zr987 Zr 0.78412 0.72552 0.76922
 Zr988 Zr 0.80480 0.77276 0.75182
 O989 O 0.76934 0.69697 0.77939
 O990 O 0.81198 0.80334 0.73955
 O991 O 0.78765 0.75828 0.77578
 O992 O 0.77407 0.78634 0.75407
 O993 O 0.73869 0.76680 0.74926
 O994 O 0.75291 0.73746 0.77151
 C995 C 0.83043 0.75589 0.71391
 C996 C 0.80517 0.69429 0.73774
 C997 C 0.77432 0.76752 0.68378
 O998 O 0.77124 0.81101 0.71867
 O999 O 0.73903 0.80638 0.73938
 O1000 O 0.73834 0.79941 0.77361
 C1001 C 0.73346 0.81076 0.75783
 O1002 O 0.73278 0.70972 0.72125
 Zr1003 Zr 0.73685 0.73386 0.74389
 O1004 O 0.72450 0.76520 0.78674
 O1005 O 0.72823 0.78351 0.71029
 O1006 O 0.71040 0.74323 0.72551
 O1007 O 0.72730 0.70484 0.75799
 O1008 O 0.71110 0.74137 0.76347
 C1009 C 0.70939 0.75375 0.77910
 O1010 O 0.76697 0.79399 0.79735
 O1011 O 0.81433 0.72202 0.78366
 O1012 O 0.76011 0.75785 0.80625
 O1013 O 0.78050 0.72778 0.80106
 O1014 O 0.83298 0.76283 0.76741
 O1015 O 0.81074 0.79363 0.77691
 C1016 C 0.77046 0.74119 0.81256
 H1017 H 0.81715 0.73350 0.74608
 H1018 H 0.77535 0.80181 0.75726
 H1019 H 0.74496 0.73013 0.78255
 H1020 H 0.74655 0.74607 0.70717
 H1021 H 0.82769 0.80547 0.74079
 H1022 H 0.76101 0.81821 0.70932
 H1023 H 0.72831 0.79757 0.70326
 H1024 H 0.69803 0.73414 0.72938
 H1025 H 0.84477 0.77242 0.76305
 H1026 H 0.81418 0.70799 0.79073
 H1027 H 0.77973 0.68975 0.78857
 H1028 H 0.71163 0.70332 0.75585
 H1029 H 0.82475 0.80081 0.77498
 H1030 H 0.75517 0.79673 0.80721
 H1031 H 0.78570 0.71074 0.68805
 H1032 H 0.71771 0.70471 0.72134
 Zr1033 Zr 0.21505 0.23726 0.78189
 O1034 O 0.22709 0.21456 0.80302
 O1035 O 0.18430 0.24314 0.79330
 O1036 O 0.21780 0.25089 0.81147
 O1037 O 0.20080 0.20001 0.74494
 O1038 O 0.23635 0.28193 0.80610
 O1039 O 0.19910 0.20735 0.77913
 O1040 O 0.17118 0.26954 0.77257
 O1041 O 0.21151 0.27035 0.77745
 O1042 O 0.19754 0.24115 0.75487
 O1043 O 0.24640 0.24962 0.78064
 O1044 O 0.23285 0.22111 0.75910
 Zr1045 Zr 0.24355 0.27178 0.72466
 Zr1046 Zr 0.24267 0.28241 0.77458
 Zr1047 Zr 0.21586 0.22679 0.73193
 Zr1048 Zr 0.19502 0.27395 0.74997
 O1049 O 0.23074 0.19827 0.72139
 O1050 O 0.18776 0.30444 0.76268
 O1051 O 0.21196 0.25957 0.72568
 O1052 O 0.22561 0.28757 0.74745
 O1053 O 0.26119 0.26805 0.75167
 O1054 O 0.24694 0.23877 0.72935
 C1055 C 0.16997 0.25682 0.78797
 C1056 C 0.19543 0.19545 0.76336
 C1057 C 0.22656 0.26848 0.81761
 O1058 O 0.22870 0.31211 0.78304
 O1059 O 0.26069 0.30760 0.76188
 O1060 O 0.26097 0.30074 0.72758
 C1061 C 0.26599 0.31204 0.74340
 O1062 O 0.26798 0.21089 0.77911
 Zr1063 Zr 0.26339 0.23511 0.75674
 O1064 O 0.27491 0.26663 0.71400
 O1065 O 0.27207 0.28466 0.79062
 O1066 O 0.29000 0.24444 0.77489
 O1067 O 0.27300 0.20616 0.74227
 O1068 O 0.28883 0.24275 0.73692
 C1069 C 0.29022 0.25519 0.72138
 O1070 O 0.23204 0.29535 0.70414
 O1071 O 0.18549 0.22331 0.71780
 O1072 O 0.23912 0.25922 0.69486
 O1073 O 0.21906 0.22911 0.70008
 O1074 O 0.16676 0.26408 0.73456
 O1075 O 0.18858 0.29497 0.72519
 C1076 C 0.22884 0.24255 0.68856
 H1077 H 0.18307 0.23466 0.75551
 H1078 H 0.22416 0.30305 0.74441
 H1079 H 0.25480 0.23149 0.71816
 H1080 H 0.25409 0.24717 0.79367
 H1081 H 0.17202 0.30655 0.76166
 H1082 H 0.23901 0.31930 0.79232
 H1083 H 0.27198 0.29869 0.79776
 H1084 H 0.30239 0.23540 0.77079
 H1085 H 0.15493 0.27363 0.73913
 H1086 H 0.18566 0.20931 0.71062
 H1087 H 0.22030 0.19107 0.71227
 H1088 H 0.28872 0.20467 0.74418
 H1089 H 0.17456 0.30216 0.72738
 H1090 H 0.24368 0.29814 0.69416
 H1091 H 0.21545 0.21171 0.81298
 H1092 H 0.28308 0.20590 0.77878
 Zr1093 Zr 0.28578 0.76739 0.28414
 O1094 O 0.27510 0.78998 0.30613
 O1095 O 0.31688 0.76075 0.29423
 O1096 O 0.28410 0.75335 0.31356
 O1097 O 0.29903 0.80493 0.24732
 O1098 O 0.26474 0.72275 0.30835
 O1099 O 0.30216 0.79703 0.28127
 O1100 O 0.32856 0.73437 0.27258
 O1101 O 0.28852 0.73432 0.27895
 O1102 O 0.30203 0.76360 0.25638
 O1103 O 0.25418 0.75558 0.28392
 O1104 O 0.26729 0.78417 0.26236
 Zr1105 Zr 0.25417 0.73421 0.22749
 Zr1106 Zr 0.25706 0.72284 0.27711
 Zr1107 Zr 0.28297 0.77861 0.23444
 Zr1108 Zr 0.30375 0.73085 0.25078
 O1109 O 0.26811 0.80748 0.22497
 O1110 O 0.31102 0.70001 0.26251
 O1111 O 0.28600 0.74587 0.22747
 O1112 O 0.27285 0.71780 0.24925
 O1113 O 0.23778 0.73783 0.25523
 O1114 O 0.25159 0.76719 0.23288
 C1115 C 0.33066 0.74680 0.28816
 C1116 C 0.30534 0.80911 0.26558
 C1117 C 0.27529 0.73582 0.31971
 O1118 O 0.27091 0.69283 0.28458
 O1119 O 0.23829 0.69800 0.26469
 O1120 O 0.23661 0.70538 0.23057
 C1121 C 0.23224 0.69384 0.24634
 O1122 O 0.23328 0.79468 0.28397
 Zr1123 Zr 0.23642 0.77074 0.26098
 O1124 O 0.22245 0.74010 0.21825
 O1125 O 0.22829 0.72084 0.29417
 O1126 O 0.21046 0.76161 0.27999
 O1127 O 0.22677 0.80008 0.24742
 O1128 O 0.20997 0.76392 0.24208
 C1129 C 0.20768 0.75174 0.22639
 O1130 O 0.26423 0.71078 0.20603
 O1131 O 0.31276 0.78183 0.21922
 O1132 O 0.25765 0.74705 0.19776
 O1133 O 0.27846 0.77673 0.20268
 O1134 O 0.33152 0.74054 0.23453
 O1135 O 0.30872 0.71020 0.22532
 C1136 C 0.26801 0.76357 0.19132
 H1137 H 0.31663 0.76983 0.25657
 H1138 H 0.27392 0.70235 0.24588
 H1139 H 0.24339 0.77477 0.22212
 H1140 H 0.24711 0.75796 0.29729
 H1141 H 0.32666 0.69764 0.26079
 H1142 H 0.26089 0.68567 0.29412
 H1143 H 0.22845 0.70672 0.30108
 H1144 H 0.19807 0.77096 0.27659
 H1145 H 0.34336 0.73072 0.23846
 H1146 H 0.31251 0.79594 0.21228
 H1147 H 0.27827 0.81465 0.21557
 H1148 H 0.21118 0.80186 0.25001
 H1149 H 0.32273 0.70280 0.22676
 H1150 H 0.25208 0.70837 0.19649
 H1151 H 0.28722 0.79247 0.31567
 H1152 H 0.21827 0.79998 0.28431
 Zr1153 Zr 0.21352 0.76279 0.71821
 O1154 O 0.22524 0.78532 0.69684
 O1155 O 0.18266 0.75697 0.70716
 O1156 O 0.21592 0.74902 0.68867
 O1157 O 0.19963 0.80029 0.75513
 O1158 O 0.23465 0.71794 0.69394
 O1159 O 0.19757 0.79279 0.72100
 O1160 O 0.16992 0.73064 0.72808
 O1161 O 0.21018 0.72973 0.72281
 O1162 O 0.19634 0.75907 0.74542
 O1163 O 0.24494 0.75033 0.71916
 O1164 O 0.23152 0.77899 0.74074
 Zr1165 Zr 0.24283 0.72842 0.77524
 Zr1166 Zr 0.24141 0.71758 0.72539
 Zr1167 Zr 0.21487 0.77348 0.76811
 Zr1168 Zr 0.19401 0.72630 0.75048
 O1169 O 0.22978 0.80195 0.77844
 O1170 O 0.18672 0.69576 0.73801
 O1171 O 0.21118 0.74073 0.77452
 O1172 O 0.22468 0.71258 0.75271
 O1173 O 0.26014 0.73198 0.74804
 O1174 O 0.24603 0.76140 0.77040
 C1175 C 0.16848 0.74330 0.71265
 C1176 C 0.19407 0.80480 0.73674
 C1177 C 0.22465 0.73137 0.68250
 O1178 O 0.22748 0.68787 0.71722
 O1179 O 0.25972 0.69240 0.73798
 O1180 O 0.26036 0.69942 0.77224
 C1181 C 0.26526 0.68805 0.75643
 O1182 O 0.26636 0.78902 0.72031
 Zr1183 Zr 0.26214 0.76490 0.74283
 O1184 O 0.27427 0.73354 0.78556
 O1185 O 0.27061 0.71519 0.70900
 O1186 O 0.28857 0.75543 0.72442
 O1187 O 0.27180 0.79387 0.75710
 O1188 O 0.28784 0.75725 0.76239
 C1189 C 0.28947 0.74488 0.77796
 O1190 O 0.23167 0.70494 0.79595
 O1191 O 0.18464 0.77717 0.78250
 O1192 O 0.23863 0.74106 0.80504
 O1193 O 0.21838 0.77121 0.79994
 O1194 O 0.16587 0.73635 0.76610
 O1195 O 0.18795 0.70545 0.77543
 C1196 C 0.22832 0.75776 0.81140
 H1197 H 0.18184 0.76562 0.74490
 H1198 H 0.22334 0.69712 0.75583
 H1199 H 0.25398 0.76870 0.78150
 H1200 H 0.25246 0.75270 0.70603
 H1201 H 0.17100 0.69370 0.73921
 H1202 H 0.23770 0.68062 0.70784
 H1203 H 0.27048 0.70113 0.70191
 H1204 H 0.30098 0.76446 0.72835
 H1205 H 0.15404 0.72681 0.76170
 H1206 H 0.18486 0.79119 0.78964
 H1207 H 0.21941 0.80923 0.78765
 H1208 H 0.28749 0.79531 0.75501
 H1209 H 0.17393 0.69831 0.77344
 H1210 H 0.24344 0.70215 0.80582
 H1211 H 0.21347 0.78818 0.68700
 H1212 H 0.28144 0.79399 0.72048
 Zr1213 Zr 0.28779 0.23947 0.21886
 O1214 O 0.27739 0.21715 0.19656
 O1215 O 0.31892 0.24623 0.20900
 O1216 O 0.28601 0.25378 0.18958
 O1217 O 0.30109 0.20142 0.25525
 O1218 O 0.26642 0.28433 0.19500
 O1219 O 0.30426 0.20976 0.22140
 O1220 O 0.33037 0.27223 0.23108
 O1221 O 0.29029 0.27248 0.22440
 O1222 O 0.30390 0.24290 0.24671
 O1223 O 0.25610 0.25126 0.21911
 O1224 O 0.26932 0.22242 0.24038
 Zr1225 Zr 0.25575 0.27194 0.27576
 Zr1226 Zr 0.25873 0.28393 0.22625
 Zr1227 Zr 0.28487 0.22762 0.26840
 Zr1228 Zr 0.30536 0.27559 0.25268
 O1229 O 0.27019 0.19864 0.27753
 O1230 O 0.31248 0.30653 0.24122
 O1231 O 0.28765 0.26028 0.27577
 O1232 O 0.27436 0.28863 0.25423
 O1233 O 0.23949 0.26867 0.24793
 O1234 O 0.25341 0.23903 0.26999
 C1235 C 0.33264 0.25999 0.21538
 C1236 C 0.30742 0.19745 0.23694
 C1237 C 0.27704 0.27133 0.18354
 O1238 O 0.27242 0.31401 0.21918
 O1239 O 0.23965 0.30855 0.23890
 O1240 O 0.23787 0.30073 0.27293
 C1241 C 0.23341 0.31242 0.25727
 O1242 O 0.23542 0.21219 0.21857
 Zr1243 Zr 0.23835 0.23584 0.24183
 O1244 O 0.22408 0.26594 0.28491
 O1245 O 0.23001 0.28617 0.20911
 O1246 O 0.21239 0.24525 0.22286
 O1247 O 0.22885 0.20633 0.25501
 O1248 O 0.21182 0.24245 0.26077
 C1249 C 0.20941 0.25442 0.27660
 O1250 O 0.26564 0.29516 0.29744
 O1251 O 0.31465 0.22419 0.28366
 O1252 O 0.25921 0.25873 0.30536
 O1253 O 0.28022 0.22910 0.30016
 O1254 O 0.33308 0.26575 0.26902
 O1255 O 0.31004 0.29601 0.27834
 C1256 C 0.26964 0.24211 0.31163
 H1257 H 0.31853 0.23666 0.24650
 H1258 H 0.27530 0.30404 0.25777
 H1259 H 0.24523 0.23132 0.28064
 H1260 H 0.24908 0.24903 0.20571
 H1261 H 0.32810 0.30889 0.24304
 H1262 H 0.26237 0.32129 0.20969
 H1263 H 0.23010 0.30038 0.20238
 H1264 H 0.20004 0.23588 0.22614
 H1265 H 0.34487 0.27563 0.26530
 H1266 H 0.31447 0.21000 0.29042
 H1267 H 0.28037 0.19136 0.28687
 H1268 H 0.21327 0.20461 0.25237
 H1269 H 0.32398 0.30347 0.27701
 H1270 H 0.25346 0.29746 0.30699
 H1271 H 0.28957 0.21478 0.18704
 H1272 H 0.22043 0.20694 0.21810
 Zr1273 Zr 0.71475 0.73318 0.28610
 O1274 O 0.72549 0.71072 0.30806
 O1275 O 0.68373 0.73995 0.29634
 O1276 O 0.71666 0.74739 0.31550
 O1277 O 0.70116 0.69546 0.24938
 O1278 O 0.73611 0.77788 0.31020
 O1279 O 0.69833 0.70354 0.28335
 O1280 O 0.67200 0.76625 0.27476
 O1281 O 0.71211 0.76623 0.28093
 O1282 O 0.69833 0.73687 0.25844
 O1283 O 0.74639 0.74487 0.28571
 O1284 O 0.73303 0.71619 0.26422
 Zr1285 Zr 0.74614 0.76589 0.22929
 Zr1286 Zr 0.74361 0.77759 0.27891
 Zr1287 Zr 0.71719 0.72167 0.23639
 Zr1288 Zr 0.69672 0.76960 0.25286
 O1289 O 0.73183 0.69267 0.22680
 O1290 O 0.68964 0.80052 0.26468
 O1291 O 0.71426 0.75438 0.22944
 O1292 O 0.72767 0.78252 0.25115
 O1293 O 0.76270 0.76237 0.25693
 O1294 O 0.74860 0.73293 0.23468
 C1295 C 0.66995 0.75388 0.29034
 C1296 C 0.69503 0.69137 0.26768
 C1297 C 0.72557 0.76491 0.32160
 O1298 O 0.72994 0.80771 0.28643
 O1299 O 0.76246 0.80226 0.26638
 O1300 O 0.76393 0.79461 0.23226
 C1301 C 0.76848 0.80623 0.24799
 O1302 O 0.76714 0.70574 0.28573
 Zr1303 Zr 0.76394 0.72949 0.26269
 O1304 O 0.77773 0.75968 0.21983
 O1305 O 0.77248 0.77957 0.29584
 O1306 O 0.79009 0.73872 0.28148
 O1307 O 0.77334 0.69996 0.24918
 O1308 O 0.79026 0.73591 0.24355
 C1309 C 0.79247 0.74794 0.22782
 O1310 O 0.73605 0.78927 0.20791
 O1311 O 0.68727 0.71851 0.22136
 O1312 O 0.74245 0.75289 0.19958
 O1313 O 0.72156 0.72332 0.20460
 O1314 O 0.66882 0.75995 0.23673
 O1315 O 0.69167 0.79017 0.22746
 C1316 C 0.73201 0.73636 0.19320
 H1317 H 0.68372 0.73069 0.25872
 H1318 H 0.72665 0.79795 0.24777
 H1319 H 0.75668 0.72524 0.22388
 H1320 H 0.75353 0.74254 0.29904
 H1321 H 0.67400 0.80294 0.26306
 H1322 H 0.74005 0.81487 0.29592
 H1323 H 0.77241 0.79374 0.30274
 H1324 H 0.80241 0.72928 0.27803
 H1325 H 0.65704 0.76984 0.24073
 H1326 H 0.68741 0.70437 0.21442
 H1327 H 0.72156 0.68550 0.21747
 H1328 H 0.78892 0.69809 0.25171
 H1329 H 0.67771 0.79764 0.22899
 H1330 H 0.74815 0.79156 0.19829
 H1331 H 0.71341 0.70832 0.31766
 H1332 H 0.78214 0.70045 0.28604
 Zr1333 Zr 0.78510 0.26345 0.78136
 O1334 O 0.77303 0.28607 0.80265
 O1335 O 0.81591 0.25768 0.79264
 O1336 O 0.78249 0.24977 0.81086
 O1337 O 0.79906 0.30082 0.74462
 O1338 O 0.76407 0.21866 0.80533
 O1339 O 0.80093 0.29341 0.77876
 O1340 O 0.82909 0.23139 0.77167
 O1341 O 0.78879 0.23039 0.77667
 O1342 O 0.80253 0.25969 0.75425
 O1343 O 0.75380 0.25093 0.78013
 O1344 O 0.76713 0.27955 0.75873
 Zr1345 Zr 0.75656 0.22888 0.72398
 Zr1346 Zr 0.75768 0.21818 0.77382
 Zr1347 Zr 0.78405 0.27400 0.73147
 Zr1348 Zr 0.80520 0.22692 0.74911
 O1349 O 0.76898 0.30247 0.72121
 O1350 O 0.81267 0.19644 0.76157
 O1351 O 0.78809 0.24126 0.72498
 O1352 O 0.77468 0.21315 0.74661
 O1353 O 0.73899 0.23247 0.75107
 O1354 O 0.75302 0.26186 0.72892
 C1355 C 0.83029 0.24407 0.78717
 C1356 C 0.80451 0.30535 0.76306
 C1357 C 0.77382 0.23214 0.81690
 O1358 O 0.77186 0.18856 0.78209
 O1359 O 0.73984 0.19286 0.76103
 O1360 O 0.73939 0.19976 0.72678
 C1361 C 0.73455 0.18838 0.74253
 O1362 O 0.73202 0.28955 0.77894
 Zr1363 Zr 0.73665 0.26540 0.75638
 O1364 O 0.72513 0.23388 0.71348
 O1365 O 0.72832 0.21574 0.78990
 O1366 O 0.71015 0.25589 0.77454
 O1367 O 0.72686 0.29433 0.74214
 O1368 O 0.71119 0.25768 0.73658
 C1369 C 0.70980 0.24525 0.72097
 O1370 O 0.76812 0.20543 0.70324
 O1371 O 0.81433 0.27766 0.71724
 O1372 O 0.76080 0.24152 0.69426
 O1373 O 0.78072 0.27173 0.69961
 O1374 O 0.83335 0.23698 0.73369
 O1375 O 0.81165 0.20599 0.72416
 C1376 C 0.77095 0.25826 0.68803
 H1377 H 0.81697 0.26624 0.75489
 H1378 H 0.77621 0.19768 0.74346
 H1379 H 0.74508 0.26913 0.71780
 H1380 H 0.74614 0.25332 0.79319
 H1381 H 0.82842 0.19441 0.76047
 H1382 H 0.76163 0.18130 0.79135
 H1383 H 0.72852 0.20170 0.79696
 H1384 H 0.69770 0.26488 0.77054
 H1385 H 0.84524 0.22749 0.73815
 H1386 H 0.81406 0.29168 0.71015
 H1387 H 0.77935 0.30975 0.71209
 H1388 H 0.71114 0.29574 0.74412
 H1389 H 0.82572 0.19889 0.72623
 H1390 H 0.75644 0.20259 0.69329
 H1391 H 0.78469 0.28896 0.81261
 H1392 H 0.71688 0.29446 0.77869
 C1393 C 0.45804 1.01167 0.32806
 C1394 C 0.45250 1.02527 0.34420
 C1395 C 0.43603 1.04030 0.34160
 C1396 C 0.42499 1.04164 0.32303
 C1397 C 0.43010 1.02783 0.30652
 C1398 C 0.44705 1.01290 0.30946
 C1399 C 0.46312 1.02340 0.36370
 C1400 C 0.47126 1.02198 0.38038
 C1401 C 0.47960 1.02064 0.40043
 C1402 C 0.48536 1.01996 0.41802
 H1403 H 0.47087 1.00005 0.32983
 H1404 H 0.43143 1.05079 0.35409
 H1405 H 0.41178 1.05290 0.32220
 H1406 H 0.45252 1.00251 0.29727
 C1407 C -0.04094 0.51079 0.82744
 C1408 C -0.04628 0.52446 0.84359
 C1409 C -0.06316 0.53908 0.84130
 C1410 C -0.07478 0.53997 0.82303
 C1411 C -0.06985 0.52609 0.80651
 C1412 C -0.05251 0.51156 0.80914
 C1413 C -0.03502 0.52307 0.86280
 C1414 C -0.02635 0.52204 0.87926
 C1415 C -0.01740 0.52116 0.89909
 C1416 C -0.01115 0.52085 0.91654
 H1417 H -0.02780 0.49947 0.82898
 H1418 H -0.06761 0.54962 0.85380
 H1419 H -0.08825 0.55092 0.82245
 H1420 H -0.04717 0.50116 0.79691
 C1421 C 0.06768 -0.03352 0.84305
 C1422 C 0.04803 -0.02255 0.84387
 C1423 C 0.03977 -0.01306 0.82618
 C1424 C 0.05119 -0.01436 0.80781
 C1425 C 0.07109 -0.02516 0.80687
 C1426 C 0.07913 -0.03485 0.82469
 C1427 C 0.03673 -0.02068 0.86303
 C1428 C 0.02803 -0.01930 0.87946
 C1429 C 0.01904 -0.01807 0.89927
 C1430 C 0.01278 -0.01758 0.91672
 H1431 H 0.07428 -0.04086 0.85666
 H1432 H 0.02457 -0.00457 0.82661
 H1433 H 0.04440 -0.00701 0.79429
 H1434 H 0.09448 -0.04305 0.82455
 C1435 C 0.53948 0.48313 0.32690
 C1436 C 0.54779 0.47334 0.34442
 C1437 C 0.56729 0.46215 0.34331
 C1438 C 0.57854 0.46089 0.32485
 C1439 C 0.57046 0.47087 0.30720
 C1440 C 0.55071 0.48190 0.30841
 C1441 C 0.53674 0.47519 0.36371
 C1442 C 0.52831 0.47660 0.38026
 C1443 C 0.51967 0.47793 0.40020
 C1444 C 0.51373 0.47864 0.41774
 H1445 H 0.52440 0.49182 0.32755
 H1446 H 0.57394 0.45458 0.35680
 H1447 H 0.59380 0.45250 0.32450
 H1448 H 0.54390 0.48949 0.29503
 C1449 C 0.54215 0.51323 0.17183
 C1450 C 0.55105 0.52302 0.15460
 C1451 C 0.57069 0.53376 0.15626
 C1452 C 0.58148 0.53458 0.17499
 C1453 C 0.57279 0.52461 0.19236
 C1454 C 0.55292 0.51402 0.19058
 C1455 C 0.54040 0.52168 0.13507
 C1456 C 0.53219 0.52068 0.11838
 C1457 C 0.52372 0.51979 0.09836
 C1458 C 0.51780 0.51942 0.08080
 H1459 H 0.52696 0.50490 0.17076
 H1460 H 0.57779 0.54132 0.14301
 H1461 H 0.59683 0.54264 0.17579
 H1462 H 0.54564 0.50646 0.20372
 C1463 C 0.04250 1.01229 0.67201
 C1464 C 0.04790 1.02579 0.65585
 C1465 C 0.06474 1.04036 0.65820
 C1466 C 0.07627 1.04134 0.67652
 C1467 C 0.07131 1.02759 0.69302
 C1468 C 0.05399 1.01316 0.69036
 C1469 C 0.03678 1.02420 0.63658
 C1470 C 0.02821 1.02290 0.62008
 C1471 C 0.01938 1.02160 0.60021
 C1472 C 0.01325 1.02085 0.58273
 H1473 H 0.02940 1.00102 0.67045
 H1474 H 0.06923 1.05077 0.64569
 H1475 H 0.08971 1.05224 0.67714
 H1476 H 0.04860 1.00288 0.70259
 C1477 C -0.03948 0.48398 0.67296
 C1478 C -0.04805 0.47462 0.65532
 C1479 C -0.06780 0.46399 0.65632
 C1480 C -0.07904 0.46289 0.67480
 C1481 C -0.07069 0.47247 0.69257
 C1482 C -0.05069 0.48291 0.69146
 C1483 C -0.03700 0.47635 0.63603
 C1484 C -0.02852 0.47771 0.61951
 C1485 C -0.01980 0.47901 0.59960
 C1486 C -0.01377 0.47969 0.58209
 H1487 H -0.02421 0.49222 0.67241
 H1488 H -0.07464 0.45675 0.64275
 H1489 H -0.09448 0.45496 0.67507
 H1490 H -0.04367 0.49017 0.70492
 C1491 C 0.42909 -0.03245 0.15444
 C1492 C 0.44872 -0.02169 0.15275
 C1493 C 0.45793 -0.01234 0.17010
 C1494 C 0.44750 -0.01358 0.18899
 C1495 C 0.42765 -0.02418 0.19081
 C1496 C 0.41864 -0.03372 0.17331
 C1497 C 0.45906 -0.01994 0.13311
 C1498 C 0.46704 -0.01864 0.11635
 C1499 C 0.47530 -0.01751 0.09625
 C1500 C 0.48107 -0.01707 0.07865
 H1501 H 0.42176 -0.03970 0.14110
 H1502 H 0.47313 -0.00401 0.16901
 H1503 H 0.45502 -0.00634 0.20222
 H1504 H 0.40329 -0.04178 0.17414
 C1505 C 0.33344 0.43163 0.00818
 C1506 C 0.35393 0.42308 0.01193
 C1507 C 0.35606 0.40135 0.01679
 C1508 C 0.33789 0.38833 0.01828
 C1509 C 0.31719 0.39682 0.01498
 C1510 C 0.31519 0.41858 0.00964
 C1511 C 0.37282 0.43647 0.01098
 C1512 C 0.38887 0.44732 0.01021
 C1513 C 0.40783 0.45979 0.00903
 C1514 C 0.42399 0.47036 0.00746
 H1515 H 0.33155 0.44842 0.00436
 H1516 H 0.37178 0.39447 0.01959
 H1517 H 0.34004 0.37157 0.02209
 H1518 H 0.29949 0.42563 0.00716
 C1519 C -0.17078 0.93022 0.50785
 C1520 C -0.15108 0.92375 0.51614
 C1521 C -0.14953 0.90384 0.52572
 C1522 C -0.16748 0.89057 0.52727
 C1523 C -0.18772 0.89686 0.51932
 C1524 C -0.18887 0.91694 0.50932
 C1525 C -0.13231 0.93727 0.51477
 C1526 C -0.11631 0.94816 0.51369
 C1527 C -0.09734 0.96060 0.51220
 C1528 C -0.08113 0.97105 0.51040
 H1529 H -0.17222 0.94563 0.50038
 H1530 H -0.13431 0.89845 0.53192
 H1531 H -0.16501 0.87500 0.53410
 H1532 H -0.20386 0.92304 0.50332
 C1533 C -0.17351 0.06875 0.98887
 C1534 C -0.15309 0.07741 0.98537
 C1535 C -0.15111 0.09926 0.98102
 C1536 C -0.16937 0.11231 0.97980
 C1537 C -0.19001 0.10373 0.98289
 C1538 C -0.19186 0.08182 0.98768
 C1539 C -0.13409 0.06402 0.98615
 C1540 C -0.11796 0.05318 0.98682
 C1541 C -0.09891 0.04071 0.98795
 C1542 C -0.08266 0.03016 0.98952
 H1543 H -0.17528 0.05187 0.99231
 H1544 H -0.13543 0.10622 0.97843
 H1545 H -0.16733 0.12916 0.97643
 H1546 H -0.20750 0.07470 0.98999
 C1547 C 0.32924 0.56793 0.48930
 C1548 C 0.34979 0.57630 0.48585
 C1549 C 0.35206 0.59810 0.48138
 C1550 C 0.33397 0.61138 0.48008
 C1551 C 0.31321 0.60310 0.48318
 C1552 C 0.31107 0.58123 0.48802
 C1553 C 0.36863 0.56271 0.48687
 C1554 C 0.38465 0.55171 0.48776
 C1555 C 0.40360 0.53911 0.48911
 C1556 C 0.41979 0.52849 0.49082
 H1557 H 0.32724 0.55109 0.49282
 H1558 H 0.36784 0.60485 0.47883
 H1559 H 0.33625 0.62820 0.47668
 H1560 H 0.29533 0.57432 0.49034
 C1561 C 0.17049 0.56842 0.50949
 C1562 C 0.15001 0.57693 0.51335
 C1563 C 0.14782 0.59874 0.51800
 C1564 C 0.16593 0.61188 0.51915
 C1565 C 0.18664 0.60344 0.51570
 C1566 C 0.18869 0.58159 0.51061
 C1567 C 0.13115 0.56347 0.51260
 C1568 C 0.11512 0.55258 0.51194
 C1569 C 0.09616 0.54008 0.51082
 C1570 C 0.07998 0.52952 0.50924
 H1571 H 0.17242 0.55158 0.50582
 H1572 H 0.13209 0.60559 0.52086
 H1573 H 0.16373 0.62870 0.52275
 H1574 H 0.20439 0.57457 0.50802
 C1575 C 0.66531 0.06940 0.00532
 C1576 C 0.64493 0.07813 0.00924
 C1577 C 0.64305 0.09983 0.01441
 C1578 C 0.66136 0.11263 0.01605
 C1579 C 0.68196 0.10394 0.01260
 C1580 C 0.68371 0.08222 0.00693
 C1581 C 0.62590 0.06493 0.00822
 C1582 C 0.60977 0.05420 0.00742
 C1583 C 0.59075 0.04181 0.00625
 C1584 C 0.57456 0.03126 0.00473
 H1585 H 0.66700 0.05262 0.00127
 H1586 H 0.62740 0.10685 0.01735
 H1587 H 0.65942 0.12937 0.02012
 H1588 H 0.69932 0.07502 0.00433
 C1589 C 0.67007 0.93222 0.49136
 C1590 C 0.64964 0.92362 0.48768
 C1591 C 0.64763 0.90176 0.48328
 C1592 C 0.66585 0.88864 0.48222
 C1593 C 0.68650 0.89715 0.48550
 C1594 C 0.68838 0.91907 0.49032
 C1595 C 0.63066 0.93705 0.48837
 C1596 C 0.61452 0.94789 0.48899
 C1597 C 0.59542 0.96031 0.49005
 C1598 C 0.57912 0.97080 0.49156
 H1599 H 0.67186 0.94911 0.49483
 H1600 H 0.63195 0.89484 0.48056
 H1601 H 0.66377 0.87177 0.47884
 H1602 H 0.70402 0.92614 0.49279
 C1603 C 0.15112 0.40153 0.98161
 C1604 C 0.15324 0.42341 0.98591
 C1605 C 0.17370 0.43190 0.98964
 C1606 C 0.19194 0.41865 0.98873
 C1607 C 0.18996 0.39671 0.98399
 C1608 C 0.16928 0.38830 0.98068
 C1609 C 0.13435 0.43697 0.98641
 C1610 C 0.11832 0.44797 0.98688
 C1611 C 0.09938 0.46064 0.98783
 C1612 C 0.08325 0.47140 0.98931
 H1613 H 0.13541 0.39469 0.97885
 H1614 H 0.17558 0.44880 0.99303
 H1615 H 0.20762 0.42565 0.99120
 H1616 H 0.16713 0.37143 0.97733
 C1617 C 0.00364 0.32013 0.39794
 C1618 C 0.01159 0.34066 0.39422
 C1619 C 0.02072 0.34560 0.37529
 C1620 C 0.02236 0.32984 0.36021
 C1621 C 0.01485 0.30900 0.36396
 C1622 C 0.00526 0.30435 0.38289
 C1623 C 0.01079 0.35658 0.40998
 C1624 C 0.01021 0.37018 0.42297
 C1625 C 0.00944 0.38666 0.43756
 C1626 C 0.00851 0.40149 0.44924
 H1627 H -0.00342 0.31621 0.41258
 H1628 H 0.02684 0.36153 0.37231
 H1629 H 0.02972 0.33381 0.34572
 H1630 H -0.00029 0.28833 0.38634
 C1631 C 0.50088 -0.18043 -0.10353
 C1632 C 0.50889 -0.15983 -0.10677
 C1633 C 0.51830 -0.15452 -0.12549
 C1634 C 0.52022 -0.17000 -0.14081
 C1635 C 0.51269 -0.19091 -0.13751
 C1636 C 0.50277 -0.19592 -0.11882
 C1637 C 0.50784 -0.14420 -0.09078
 C1638 C 0.50707 -0.13072 -0.07769
 C1639 C 0.50607 -0.11423 -0.06313
 C1640 C 0.50489 -0.09925 -0.05166
 H1641 H 0.49359 -0.18463 -0.08906
 H1642 H 0.52445 -0.13853 -0.12811
 H1643 H 0.52784 -0.16575 -0.15510
 H1644 H 0.49722 -0.21202 -0.11572
 C1645 C -0.03442 -0.17339 1.10101
 C1646 C -0.01581 -0.16104 1.09993
 C1647 C 0.00050 -0.16362 1.11443
 C1648 C -0.00178 -0.17869 1.13000
 C1649 C -0.02047 -0.19118 1.13119
 C1650 C -0.03675 -0.18842 1.11652
 C1651 C -0.01389 -0.14518 1.08433
 C1652 C -0.01269 -0.13143 1.07162
 C1653 C -0.01154 -0.11461 1.05753
 C1654 C -0.01052 -0.09942 1.04640
 H1655 H -0.04712 -0.17142 1.08984
 H1656 H 0.01490 -0.15395 1.11374
 H1657 H 0.01093 -0.18052 1.14115
 H1658 H -0.05111 -0.19815 1.11684
 C1659 C 0.49851 0.32097 0.60357
 C1660 C 0.49035 0.34159 0.60678
 C1661 C 0.48090 0.34703 0.62549
 C1662 C 0.47905 0.33164 0.64082
 C1663 C 0.48668 0.31069 0.63752
 C1664 C 0.49669 0.30557 0.61886
 C1665 C 0.49109 0.35702 0.59069
 C1666 C 0.49153 0.37024 0.57741
 C1667 C 0.49207 0.38635 0.56253
 C1668 C 0.49279 0.40096 0.55067
 H1669 H 0.50582 0.31666 0.58910
 H1670 H 0.47460 0.36302 0.62808
 H1671 H 0.47135 0.33597 0.65509
 H1672 H 0.50233 0.28944 0.61576
 C1673 C 0.51859 1.15327 0.62532
 C1674 C 0.50902 1.15861 0.60667
 C1675 C 0.50090 1.17924 0.60348
 C1676 C 0.50288 1.19473 0.61874
 C1677 C 0.51301 1.18971 0.63734
 C1678 C 0.52060 1.16876 0.64061
 C1679 C 0.50810 1.14306 0.59060
 C1680 C 0.50752 1.12974 0.57736
 C1681 C 0.50685 1.11350 0.56251
 C1682 C 0.50605 1.09879 0.55070
 H1683 H 0.52484 1.13727 0.62788
 H1684 H 0.49351 1.18347 0.58906
 H1685 H 0.49728 1.21086 0.61566
 H1686 H 0.52838 1.16451 0.65484
 C1687 C 0.03098 0.65933 1.11951
 C1688 C 0.01773 0.66232 1.10256
 C1689 C 0.00494 0.68063 1.10107
 C1690 C 0.00567 0.69623 1.11633
 C1691 C 0.01935 0.69383 1.13345
 C1692 C 0.03182 0.67490 1.13483
 C1693 C 0.01708 0.64646 1.08676
 C1694 C 0.01635 0.63286 1.07379
 C1695 C 0.01518 0.61632 1.05929
 C1696 C 0.01381 0.60141 1.04777
 H1697 H 0.04069 0.64496 1.12090
 H1698 H -0.00536 0.68303 1.08792
 H1699 H -0.00367 0.71063 1.11387
 H1700 H 0.04189 0.67167 1.14794
 C1701 C 0.47614 0.65421 -0.12381
 C1702 C 0.48984 0.65803 -0.10734
 C1703 C 0.50197 0.67675 -0.10656
 C1704 C 0.49988 0.69208 -0.12190
 C1705 C 0.48541 0.68899 -0.13832
 C1706 C 0.47395 0.66948 -0.13919
 C1707 C 0.49118 0.64281 -0.09109
 C1708 C 0.49213 0.62972 -0.07772
 C1709 C 0.49328 0.61369 -0.06279
 C1710 C 0.49451 0.59907 -0.05098
 H1711 H 0.46697 0.63950 -0.12467
 H1712 H 0.51264 0.67979 -0.09381
 H1713 H 0.50863 0.70687 -0.11989
 H1714 H 0.46343 0.66572 -0.15184
 C1715 C -0.02385 1.15339 0.37629
 C1716 C -0.01069 1.15695 0.39320
 C1717 C 0.00127 1.17573 0.39468
 C1718 C -0.00048 1.19138 0.37960
 C1719 C -0.01447 1.18857 0.36276
 C1720 C -0.02571 1.16898 0.36117
 C1721 C -0.00990 1.14147 0.40927
 C1722 C -0.00947 1.12822 0.42251
 C1723 C -0.00897 1.11210 0.43739
 C1724 C -0.00829 1.09750 0.44927
 H1725 H -0.03290 1.13864 0.37489
 H1726 H 0.01152 1.17857 0.40778
 H1727 H 0.00809 1.20620 0.38211
 H1728 H -0.03582 1.16544 0.34816
 C1729 C 0.79084 0.68643 0.90985
 C1730 C 0.77579 0.70290 0.90744
 C1731 C 0.76213 0.70820 0.92361
 C1732 C 0.76334 0.69696 0.94204
 C1733 C 0.77829 0.68002 0.94478
 C1734 C 0.79216 0.67515 0.92825
 C1735 C 0.77394 0.71375 0.88809
 C1736 C 0.77252 0.72204 0.87151
 C1737 C 0.77120 0.73053 0.85155
 C1738 C 0.77053 0.73638 0.83400
 H1739 H 0.80138 0.68202 0.89734
 H1740 H 0.75048 0.72102 0.92197
 H1741 H 0.75290 0.70225 0.95426
 H1742 H 0.80343 0.66195 0.92892
 C1743 C 0.25968 0.20798 0.42224
 C1744 C 0.27331 0.20245 0.40612
 C1745 C 0.28802 0.18567 0.40857
 C1746 C 0.28901 0.17432 0.42695
 C1747 C 0.27514 0.17941 0.44341
 C1748 C 0.26057 0.19668 0.44065
 C1749 C 0.27177 0.21343 0.38682
 C1750 C 0.27061 0.22192 0.37030
 C1751 C 0.26958 0.23071 0.35044
 C1752 C 0.26922 0.23687 0.33298
 H1753 H 0.24832 0.22106 0.42059
 H1754 H 0.29853 0.18109 0.39609
 H1755 H 0.30003 0.16091 0.42766
 H1756 H 0.25019 0.20216 0.45284
 C1757 C 0.73600 0.28886 0.42314
 C1758 C 0.72639 0.29703 0.40547
 C1759 C 0.71535 0.31662 0.40632
 C1760 C 0.71408 0.32810 0.42468
 C1761 C 0.72391 0.32015 0.44248
 C1762 C 0.73476 0.30031 0.44152
 C1763 C 0.72823 0.28571 0.38630
 C1764 C 0.72961 0.27698 0.36986
 C1765 C 0.73083 0.26796 0.35004
 C1766 C 0.73131 0.26169 0.33259
 H1767 H 0.74455 0.27371 0.42270
 H1768 H 0.70791 0.32316 0.39272
 H1769 H 0.70582 0.34340 0.42486
 H1770 H 0.74222 0.29359 0.45501
 C1771 C 0.20808 0.81313 0.90872
 C1772 C 0.22283 0.79637 0.90635
 C1773 C 0.23631 0.79089 0.92256
 C1774 C 0.23525 0.80224 0.94099
 C1775 C 0.22065 0.81951 0.94367
 C1776 C 0.20691 0.82453 0.92712
 C1777 C 0.22463 0.78543 0.88699
 C1778 C 0.22606 0.77706 0.87039
 C1779 C 0.22745 0.76848 0.85042
 C1780 C 0.22819 0.76259 0.83287
 H1781 H 0.19768 0.81767 0.89617
 H1782 H 0.24772 0.77783 0.92097
 H1783 H 0.24554 0.79682 0.95325
 H1784 H 0.19588 0.83794 0.92777
 C1785 C 0.25839 0.79453 0.07986
 C1786 C 0.27194 0.80064 0.09581
 C1787 C 0.28660 0.81726 0.09283
 C1788 C 0.28761 0.82789 0.07405
 C1789 C 0.27381 0.82220 0.05774
 C1790 C 0.25929 0.80510 0.06107
 C1791 C 0.27041 0.79036 0.11547
 C1792 C 0.26922 0.78243 0.13223
 C1793 C 0.26814 0.77420 0.15231
 C1794 C 0.26771 0.76845 0.16989
 H1795 H 0.24708 0.78156 0.08193
 H1796 H 0.29706 0.82229 0.10516
 H1797 H 0.29858 0.84123 0.07290
 H1798 H 0.24898 0.79918 0.04905
 C1799 C 0.78660 0.31733 0.59265
 C1800 C 0.77587 0.29766 0.59357
 C1801 C 0.76629 0.28929 0.57595
 C1802 C 0.76725 0.30063 0.55756
 C1803 C 0.77778 0.32055 0.55653
 C1804 C 0.78759 0.32870 0.57427
 C1805 C 0.77423 0.28650 0.61277
 C1806 C 0.77294 0.27796 0.62925
 C1807 C 0.77170 0.26919 0.64911
 C1808 C 0.77105 0.26318 0.66661
 H1809 H 0.79400 0.32403 0.60621
 H1810 H 0.75796 0.27408 0.57645
 H1811 H 0.75982 0.29376 0.54410
 H1812 H 0.79560 0.34407 0.57406
 C1813 C 0.23259 0.21136 0.57632
 C1814 C 0.22315 0.20305 0.59398
 C1815 C 0.21243 0.18335 0.59310
 C1816 C 0.21136 0.17190 0.57472
 C1817 C 0.22106 0.17997 0.55694
 C1818 C 0.23155 0.19993 0.55792
 C1819 C 0.22495 0.21426 0.61320
 C1820 C 0.22639 0.22285 0.62969
 C1821 C 0.22781 0.23164 0.64958
 C1822 C 0.22861 0.23766 0.66710
 H1823 H 0.24091 0.22658 0.57679
 H1824 H 0.20513 0.17670 0.60669
 H1825 H 0.20339 0.15650 0.57454
 H1826 H 0.23890 0.20674 0.54444
 C1827 C 0.71738 0.67871 0.09614
 C1828 C 0.72807 0.69836 0.09781
 C1829 C 0.73752 0.70745 0.08050
 C1830 C 0.73645 0.69687 0.06165
 C1831 C 0.72592 0.67699 0.05985
 C1832 C 0.71628 0.66810 0.07730
 C1833 C 0.72965 0.70886 0.11742
 C1834 C 0.73083 0.71697 0.13414
 C1835 C 0.73187 0.72539 0.15420
 C1836 C 0.73229 0.73130 0.17177
 H1837 H 0.71006 0.67147 0.10944
 H1838 H 0.74580 0.72266 0.08159
 H1839 H 0.74375 0.70430 0.04845
 H1840 H 0.70826 0.65274 0.07648
 C1841 C 0.16647 0.59331 0.25508
 C1842 C 0.17656 0.60211 0.23789
 C1843 C 0.17471 0.59178 0.21898
 C1844 C 0.16244 0.57314 0.21710
 C1845 C 0.15174 0.56448 0.23414
 C1846 C 0.15418 0.57459 0.25324
 C1847 C 0.18842 0.62195 0.23943
 C1848 C 0.19826 0.63860 0.24049
 C1849 C 0.20986 0.65808 0.24184
 C1850 C 0.21992 0.67455 0.24345
 H1851 H 0.16778 0.60112 0.26982
 H1852 H 0.18251 0.59830 0.20558
 H1853 H 0.16116 0.56557 0.20225
 H1854 H 0.14601 0.56843 0.26659
 C1855 C 0.66854 0.08838 0.75205
 C1856 C 0.67799 0.09712 0.73452
 C1857 C 0.67484 0.08713 0.71560
 C1858 C 0.66191 0.06890 0.71409
 C1859 C 0.65182 0.06033 0.73150
 C1860 C 0.65559 0.07007 0.75058
 C1861 C 0.69036 0.11668 0.73573
 C1862 C 0.70051 0.13317 0.73662
 C1863 C 0.71232 0.15254 0.73787
 C1864 C 0.72241 0.16899 0.73950
 H1865 H 0.67084 0.09594 0.76681
 H1866 H 0.68211 0.09363 0.70192
 H1867 H 0.65957 0.06161 0.69922
 H1868 H 0.64792 0.06400 0.76423
 C1869 C 0.84708 0.09766 0.27328
 C1870 C 0.82705 0.09650 0.26380
 C1871 C 0.82031 0.07698 0.25538
 C1872 C 0.83341 0.05867 0.25670
 C1873 C 0.85357 0.05940 0.26670
 C1874 C 0.86018 0.07948 0.27469
 C1875 C 0.81362 0.11545 0.26274
 C1876 C 0.80278 0.13157 0.26196
 C1877 C 0.79032 0.15063 0.26084
 C1878 C 0.77974 0.16686 0.25933
 H1879 H 0.85269 0.11272 0.27956
 H1880 H 0.80480 0.07584 0.24796
 H1881 H 0.82710 0.04383 0.25064
 H1882 H 0.87584 0.08163 0.28149
 C1883 C 0.34630 0.60090 0.77379
 C1884 C 0.32623 0.59927 0.76442
 C1885 C 0.31985 0.57957 0.75617
 C1886 C 0.33335 0.56156 0.75747
 C1887 C 0.35361 0.56278 0.76724
 C1888 C 0.35981 0.58302 0.77517
 C1889 C 0.31245 0.61796 0.76322
 C1890 C 0.30133 0.63388 0.76229
 C1891 C 0.28862 0.65275 0.76098
 C1892 C 0.27792 0.66889 0.75935
 H1893 H 0.35162 0.61612 0.77996
 H1894 H 0.30431 0.57806 0.74886
 H1895 H 0.32731 0.54656 0.75152
 H1896 H 0.37547 0.58555 0.78185
 C1897 C 0.31775 0.42155 0.74007
 C1898 C 0.32615 0.40099 0.73640
 C1899 C 0.34799 0.39862 0.73189
 C1900 C 0.36128 0.41660 0.73068
 C1901 C 0.35296 0.43737 0.73393
 C1902 C 0.33107 0.43962 0.73889
 C1903 C 0.31254 0.38225 0.73717
 C1904 C 0.30157 0.36629 0.73783
 C1905 C 0.28903 0.34738 0.73893
 C1906 C 0.27848 0.33121 0.74046
 H1907 H 0.30089 0.42363 0.74363
 H1908 H 0.35476 0.38284 0.72917
 H1909 H 0.37812 0.41426 0.72717
 H1910 H 0.32414 0.45537 0.74133
 C1911 C 0.84733 0.89455 0.22870
 C1912 C 0.82772 0.89568 0.23898
 C1913 C 0.82113 0.91521 0.24756
 C1914 C 0.83393 0.93359 0.24559
 C1915 C 0.85362 0.93289 0.23476
 C1916 C 0.86012 0.91279 0.22665
 C1917 C 0.81454 0.87669 0.24062
 C1918 C 0.80387 0.86056 0.24180
 C1919 C 0.79157 0.84152 0.24330
 C1920 C 0.78109 0.82532 0.24502
 H1921 H 0.85283 0.87948 0.22227
 H1922 H 0.80595 0.91633 0.25558
 H1923 H 0.82772 0.94844 0.25181
 H1924 H 0.87548 0.91070 0.21920
 C1925 C 0.68170 0.92052 0.76103
 C1926 C 0.67312 0.90006 0.76433
 C1927 C 0.65112 0.89791 0.76814
 C1928 C 0.63785 0.91603 0.76895
 C1929 C 0.64633 0.93670 0.76600
 C1930 C 0.66841 0.93872 0.76181
 C1931 C 0.68668 0.88119 0.76381
 C1932 C 0.69765 0.86514 0.76328
 C1933 C 0.71022 0.84615 0.76228
 C1934 C 0.72083 0.82994 0.76077
 H1935 H 0.69869 0.92242 0.75801
 H1936 H 0.64421 0.88220 0.77057
 H1937 H 0.62088 0.91384 0.77185
 H1938 H 0.67547 0.95439 0.75962
 C1939 C 0.18214 0.42213 0.26087
 C1940 C 0.17331 0.40181 0.26435
 C1941 C 0.15137 0.40000 0.26859
 C1942 C 0.13840 0.41832 0.26967
 C1943 C 0.14715 0.43885 0.26657
 C1944 C 0.16915 0.44053 0.26193
 C1945 C 0.18661 0.38276 0.26364
 C1946 C 0.19743 0.36663 0.26298
 C1947 C 0.20994 0.34762 0.26184
 C1948 C 0.22060 0.33145 0.26026
 H1949 H 0.19909 0.42377 0.25753
 H1950 H 0.14427 0.38440 0.27117
 H1951 H 0.12147 0.41641 0.27293
 H1952 H 0.17641 0.45608 0.25962
 C1953 C 0.09685 0.26990 0.87542
 C1954 C 0.09159 0.26059 0.85662
 C1955 C 0.07096 0.25264 0.85320
 C1956 C 0.05538 0.25452 0.86839
 C1957 C 0.06032 0.26440 0.88715
 C1958 C 0.08128 0.27182 0.89065
 C1959 C 0.10722 0.25980 0.84062
 C1960 C 0.12058 0.25935 0.82742
 C1961 C 0.13681 0.25882 0.81258
 C1962 C 0.15148 0.25814 0.80072
 H1963 H 0.11286 0.27603 0.87816
 H1964 H 0.06679 0.24545 0.83866
 H1965 H 0.03925 0.24904 0.86515
 H1966 H 0.08548 0.27939 0.90500
 C1967 C 0.59607 0.76935 0.37663
 C1968 C 0.59077 0.75999 0.35786
 C1969 C 0.57018 0.75189 0.35456
 C1970 C 0.55469 0.75361 0.36985
 C1971 C 0.55969 0.76344 0.38862
 C1972 C 0.58059 0.77110 0.39197
 C1973 C 0.60640 0.75902 0.34188
 C1974 C 0.61983 0.75825 0.32875
 C1975 C 0.63623 0.75719 0.31412
 C1976 C 0.65112 0.75595 0.30255
 H1977 H 0.61205 0.77557 0.37930
 H1978 H 0.56598 0.74464 0.34004
 H1979 H 0.53860 0.74796 0.36671
 H1980 H 0.58483 0.77866 0.40632
 C1981 C 0.58702 0.24846 0.13328
 C1982 C 0.58984 0.23115 0.14657
 C1983 C 0.57800 0.21238 0.14388
 C1984 C 0.56307 0.21100 0.12808
 C1985 C 0.55989 0.22841 0.11479
 C1986 C 0.57207 0.24713 0.11745
 C1987 C 0.60516 0.23253 0.16278
 C1988 C 0.61844 0.23369 0.17601
 C1989 C 0.63476 0.23520 0.19068
 C1990 C 0.64962 0.23673 0.20223
 H1991 H 0.59628 0.26300 0.13522
 H1992 H 0.58016 0.19891 0.15410
 H1993 H 0.55358 0.19656 0.12663
 H1994 H 0.56995 0.26070 0.10737
 C1995 C 0.09524 0.72988 0.62547
 C1996 C 0.08996 0.73929 0.64424
 C1997 C 0.06936 0.74750 0.64757
 C1998 C 0.05383 0.74581 0.63232
 C1999 C 0.05881 0.73589 0.61357
 C2000 C 0.07973 0.72817 0.61018
 C2001 C 0.10556 0.74005 0.66025
 C2002 C 0.11892 0.74054 0.67345
 C2003 C 0.13518 0.74115 0.68825
 C2004 C 0.14990 0.74192 0.70004
 H2005 H 0.11123 0.72356 0.62279
 H2006 H 0.06517 0.75478 0.66209
 H2007 H 0.03773 0.75153 0.63550
 H2008 H 0.08395 0.72054 0.59584
 C2009 C 0.90391 0.77446 0.62790
 C2010 C 0.90768 0.76079 0.64436
 C2011 C 0.92636 0.74843 0.64505
 C2012 C 0.94169 0.75027 0.62965
 C2013 C 0.93867 0.76472 0.61325
 C2014 C 0.91919 0.77641 0.61246
 C2015 C 0.89250 0.75978 0.66072
 C2016 C 0.87945 0.75911 0.67418
 C2017 C 0.86348 0.75833 0.68925
 C2018 C 0.84892 0.75743 0.70121
 H2019 H 0.88924 0.78383 0.62711
 H2020 H 0.92935 0.73778 0.65780
 H2021 H 0.95645 0.74134 0.63159
 H2022 H 0.91547 0.78693 0.59982
 C2023 C 0.40809 0.27638 0.13095
 C2024 C 0.41322 0.26664 0.14955
 C2025 C 0.43364 0.25793 0.15269
 C2026 C 0.44909 0.25924 0.13733
 C2027 C 0.44420 0.26927 0.11867
 C2028 C 0.42352 0.27772 0.11556
 C2029 C 0.39741 0.26554 0.16534
 C2030 C 0.38369 0.26461 0.17817
 C2031 C 0.36688 0.26336 0.19235
 C2032 C 0.35169 0.26202 0.20353
 H2033 H 0.39223 0.28305 0.12839
 H2034 H 0.43769 0.25035 0.16707
 H2035 H 0.46502 0.25293 0.14025
 H2036 H 0.41935 0.28541 0.10128
 C2037 C 0.43003 0.74769 0.35320
 C2038 C 0.40934 0.73965 0.35604
 C2039 C 0.40371 0.72996 0.37453
 C2040 C 0.41893 0.72788 0.39004
 C2041 C 0.43991 0.73551 0.38716
 C2042 C 0.44526 0.74564 0.36868
 C2043 C 0.39394 0.74101 0.33989
 C2044 C 0.38065 0.74205 0.32666
 C2045 C 0.36434 0.74336 0.31195
 C2046 C 0.34948 0.74473 0.30036
 H2047 H 0.43448 0.75519 0.33891
 H2048 H 0.38766 0.72378 0.37683
 H2049 H 0.41443 0.72009 0.40417
 H2050 H 0.46142 0.75128 0.36590
 C2051 C 0.92918 0.24853 0.85261
 C2052 C 0.90849 0.24070 0.85595
 C2053 C 0.90305 0.23173 0.87481
 C2054 C 0.91849 0.23006 0.89018
 C2055 C 0.93949 0.23740 0.88678
 C2056 C 0.94462 0.24689 0.86794
 C2057 C 0.89297 0.24134 0.83986
 C2058 C 0.87967 0.24170 0.82660
 C2059 C 0.86348 0.24216 0.81173
 C2060 C 0.84881 0.24280 0.79987
 H2061 H 0.93349 0.25546 0.83802
 H2062 H 0.88701 0.22570 0.87750
 H2063 H 0.91414 0.22277 0.90459
 H2064 H 0.96079 0.25229 0.86476
 C2065 C 0.55782 1.01599 0.67727
 C2066 C 0.56344 1.02712 0.65955
 C2067 C 0.58310 1.03775 0.65869
 C2068 C 0.59711 1.03734 0.67534
 C2069 C 0.59183 1.02626 0.69351
 C2070 C 0.57181 1.01551 0.69406
 C2071 C 0.54980 1.02697 0.64172
 C2072 C 0.53963 1.02692 0.62601
 C2073 C 0.52938 1.02665 0.60671
 C2074 C 0.52235 1.02596 0.58953
 H2075 H 0.54262 1.00764 0.67812
 H2076 H 0.58784 1.04610 0.64492
 H2077 H 0.61251 1.04500 0.67333
 H2078 H 0.56640 1.00729 0.70761
 C2079 C 0.06040 0.52140 1.17689
 C2080 C 0.06863 0.52831 1.15812
 C2081 C 0.09013 0.53457 1.15675
 C2082 C 0.10330 0.53414 1.17400
 C2083 C 0.09520 0.52746 1.19301
 C2084 C 0.07360 0.52095 1.19425
 C2085 C 0.05547 0.52865 1.13997
 C2086 C 0.04564 0.52893 1.12408
 C2087 C 0.03567 0.52896 1.10466
 C2088 C 0.02872 0.52844 1.08745
 H2089 H 0.04380 0.51642 1.17814
 H2090 H 0.09675 0.53976 1.14228
 H2091 H 0.11993 0.53891 1.17243
 H2092 H 0.06685 0.51590 1.20869
 C2093 C -0.07083 -0.04739 1.16833
 C2094 C -0.06493 -0.02791 1.15957
 C2095 C -0.07183 -0.00870 1.16855
 C2096 C -0.08493 -0.00897 1.18596
 C2097 C -0.09169 -0.02857 1.19469
 C2098 C -0.08395 -0.04778 1.18566
 C2099 C -0.05302 -0.02772 1.14065
 C2100 C -0.04392 -0.02764 1.12435
 C2101 C -0.03446 -0.02735 1.10468
 C2102 C -0.02771 -0.02661 1.08740
 H2103 H -0.06548 -0.06239 1.16162
 H2104 H -0.06753 0.00653 1.16179
 H2105 H -0.09062 0.00629 1.19170
 H2106 H -0.08749 -0.06330 1.19213
 C2107 C 0.43166 0.45489 0.66958
 C2108 C 0.43853 0.47418 0.66106
 C2109 C 0.43214 0.49358 0.66997
 C2110 C 0.41856 0.49373 0.68705
 C2111 C 0.41082 0.47437 0.69551
 C2112 C 0.41807 0.45492 0.68658
 C2113 C 0.45079 0.47401 0.64234
 C2114 C 0.46011 0.47383 0.62615
 C2115 C 0.46969 0.47384 0.60653
 C2116 C 0.47641 0.47430 0.58923
 H2117 H 0.43660 0.43973 0.66291
 H2118 H 0.43717 0.50867 0.66338
 H2119 H 0.41329 0.50918 0.69270
 H2120 H 0.41377 0.43951 0.69286
 C2121 C 0.43744 0.54447 -0.17324
 C2122 C 0.44057 0.52578 -0.16183
 C2123 C 0.43023 0.50682 -0.16773
 C2124 C 0.41647 0.50667 -0.18465
 C2125 C 0.41275 0.52554 -0.19587
 C2126 C 0.42369 0.54436 -0.19014
 C2127 C 0.45305 0.52638 -0.14324
 C2128 C 0.46256 0.52678 -0.12715
 C2129 C 0.47237 0.52686 -0.10764
 C2130 C 0.47927 0.52633 -0.09040
 H2131 H 0.44529 0.55925 -0.16882
 H2132 H 0.43237 0.49228 -0.15893
 H2133 H 0.40815 0.49199 -0.18851
 H2134 H 0.42143 0.55907 -0.19863
 C2135 C -0.07264 1.00240 0.33349
 C2136 C -0.06183 1.02118 0.33915
 C2137 C -0.06411 1.03964 0.32724
 C2138 C -0.07753 1.03951 0.31011
 C2139 C -0.08898 1.02092 0.30464
 C2140 C -0.08607 1.00223 0.31632
 C2141 C -0.04978 1.02197 0.35798
 C2142 C -0.04063 1.02268 0.37424
 C2143 C -0.03121 1.02327 0.39391
 C2144 C -0.02459 1.02328 0.41125
 H2145 H -0.07114 0.98804 0.34267
 H2146 H -0.05590 1.05428 0.33146
 H2147 H -0.07917 1.05407 0.30125
 H2148 H -0.09478 0.98773 0.31263
 C2149 C 0.06385 0.45875 0.32668
 C2150 C 0.06139 0.47719 0.33867
 C2151 C 0.07215 0.49602 0.33321
 C2152 C 0.08573 0.49626 0.31615
 C2153 C 0.08882 0.47759 0.30438
 C2154 C 0.07741 0.45894 0.30964
 C2155 C 0.04923 0.47636 0.35742
 C2156 C 0.04000 0.47568 0.37364
 C2157 C 0.03053 0.47519 0.39328
 C2158 C 0.02389 0.47534 0.41061
 H2159 H 0.05567 0.44406 0.33075
 H2160 H 0.07052 0.51037 0.34246
 H2161 H 0.09441 0.51080 0.31262
 H2162 H 0.07919 0.44440 0.30071
 C2163 C 0.56139 -0.04460 -0.17553
 C2164 C 0.55819 -0.02599 -0.16392
 C2165 C 0.56854 -0.00699 -0.16955
 C2166 C 0.58243 -0.00672 -0.18637
 C2167 C 0.58626 -0.02552 -0.19775
 C2168 C 0.57527 -0.04437 -0.19234
 C2169 C 0.54569 -0.02676 -0.14535
 C2170 C 0.53621 -0.02724 -0.12926
 C2171 C 0.52646 -0.02736 -0.10973
 C2172 C 0.51961 -0.02677 -0.09247
 H2173 H 0.55353 -0.05942 -0.17133
 H2174 H 0.56633 0.00749 -0.16059
 H2175 H 0.59078 0.00799 -0.18999
 H2176 H 0.57760 -0.05903 -0.20097
 C2177 C 0.65316 0.61462 0.01595
 C2178 C 0.64901 0.61112 -0.00477
 C2179 C 0.66339 0.61887 -0.01936
 C2180 C 0.68186 0.62997 -0.01326
 C2181 C 0.68644 0.63363 0.00768
 C2182 C 0.67154 0.62570 0.02213
 C2183 C 0.63003 0.59939 -0.01074
 C2184 C 0.61390 0.58939 -0.01451
 C2185 C 0.59474 0.57753 -0.01719
 C2186 C 0.57825 0.56737 -0.01757
 H2187 H 0.64225 0.60854 0.02743
 H2188 H 0.66029 0.61643 -0.03548
 H2189 H 0.69201 0.63625 -0.02521
 H2190 H 0.67432 0.62706 0.03838
 C2191 C 0.15186 1.10988 0.51534
 C2192 C 0.14515 1.10957 0.49493
 C2193 C 0.15684 1.12096 0.48027
 C2194 C 0.17514 1.13253 0.48602
 C2195 C 0.18199 1.13292 0.50654
 C2196 C 0.17010 1.12143 0.52111
 C2197 C 0.12614 1.09769 0.48936
 C2198 C 0.11000 1.08760 0.48589
 C2199 C 0.09083 1.07569 0.48354
 C2200 C 0.07431 1.06558 0.48340
 H2201 H 0.14299 1.10112 0.52684
 H2202 H 0.15178 1.12094 0.46444
 H2203 H 0.18379 1.14139 0.47445
 H2204 H 0.17508 1.12110 0.53696
 C2205 C 0.15049 -0.11083 0.98398
 C2206 C 0.14351 -0.11058 1.00432
 C2207 C 0.15508 -0.12201 1.01908
 C2208 C 0.17354 -0.13357 1.01353
 C2209 C 0.18066 -0.13389 0.99309
 C2210 C 0.16888 -0.12236 0.97840
 C2211 C 0.12438 -0.09867 1.00969
 C2212 C 0.10817 -0.08853 1.01302
 C2213 C 0.08896 -0.07653 1.01525
 C2214 C 0.07245 -0.06629 1.01534
 H2215 H 0.14171 -0.10203 0.97240
 H2216 H 0.14982 -0.12203 1.03486
 H2217 H 0.18210 -0.14245 1.02517
 H2218 H 0.17407 -0.12198 0.96262
 C2219 C 0.65055 0.38417 0.48407
 C2220 C 0.64655 0.38872 0.50464
 C2221 C 0.66118 0.38181 0.51944
 C2222 C 0.67975 0.37054 0.51371
 C2223 C 0.68418 0.36584 0.49291
 C2224 C 0.66903 0.37290 0.47825
 C2225 C 0.62748 0.40065 0.51024
 C2226 C 0.61129 0.41075 0.51377
 C2227 C 0.59204 0.42268 0.51622
 C2228 C 0.57546 0.43281 0.51647
 H2229 H 0.63945 0.38958 0.47241
 H2230 H 0.65820 0.38507 0.53546
 H2231 H 0.69009 0.36494 0.52584
 H2232 H 0.67167 0.37072 0.46206
 C2233 C -0.15266 0.38986 0.51486
 C2234 C -0.14590 0.38994 0.49446
 C2235 C -0.15767 0.37856 0.47980
 C2236 C -0.17609 0.36720 0.48552
 C2237 C -0.18298 0.36701 0.50603
 C2238 C -0.17102 0.37852 0.52061
 C2239 C -0.12676 0.40161 0.48893
 C2240 C -0.11052 0.41154 0.48550
 C2241 C -0.09126 0.42332 0.48319
 C2242 C -0.07471 0.43338 0.48306
 H2243 H -0.14374 0.39862 0.52636
 H2244 H -0.15258 0.37841 0.46397
 H2245 H -0.18479 0.35833 0.47396
 H2246 H -0.17602 0.37901 0.53645
 C2247 C 0.33885 -0.12331 -0.02022
 C2248 C 0.35045 -0.11117 -0.00601
 C2249 C 0.34363 -0.11039 0.01437
 C2250 C 0.32533 -0.12159 0.02053
 C2251 C 0.31350 -0.13381 0.00640
 C2252 C 0.32049 -0.13455 -0.01408
 C2253 C 0.36945 -0.09953 -0.01200
 C2254 C 0.38554 -0.08954 -0.01585
 C2255 C 0.40462 -0.07760 -0.01864
 C2256 C 0.42103 -0.06732 -0.01913
 H2257 H 0.34399 -0.12414 -0.03601
 H2258 H 0.35243 -0.10103 0.02552
 H2259 H 0.32025 -0.12041 0.03631
 H2260 H 0.31190 -0.14399 -0.02530
 C2261 C 0.34030 1.12182 0.51943
 C2262 C 0.35202 1.11027 0.50481
 C2263 C 0.34519 1.11025 0.48443
 C2264 C 0.32678 1.12163 0.47867
 C2265 C 0.31485 1.13329 0.49322
 C2266 C 0.32183 1.13324 0.51370
 C2267 C 0.37119 1.09854 0.51037
 C2268 C 0.38744 1.08854 0.51386
 C2269 C 0.40673 1.07670 0.51628
 C2270 C 0.42333 1.06660 0.51653
 H2271 H 0.34545 1.12206 0.53524
 H2272 H 0.35408 1.10136 0.47295
 H2273 H 0.32170 1.12106 0.46285
 H2274 H 0.31315 1.14222 0.52524
 C2275 C -0.15457 0.62368 1.02000
 C2276 C -0.14281 0.61247 1.00515
 C2277 C -0.14996 0.61237 0.98488
 C2278 C -0.16869 0.62336 0.97942
 C2279 C -0.18065 0.63470 0.99417
 C2280 C -0.17338 0.63471 1.01456
 C2281 C -0.12331 0.60111 1.01038
 C2282 C -0.10682 0.59139 1.01353
 C2283 C -0.08734 0.57978 1.01555
 C2284 C -0.07068 0.56979 1.01550
 H2285 H -0.14919 0.62396 1.03573
 H2286 H -0.14105 0.60372 0.97324
 H2287 H -0.17399 0.62274 0.96367
 H2288 H -0.18208 0.64345 1.02625
 C2289 C 0.03219 0.65117 0.55717
 C2290 C 0.01244 0.64115 0.56043
 C2291 C -0.00477 0.65266 0.56876
 C2292 C -0.00215 0.67414 0.57413
 C2293 C 0.01775 0.68427 0.57118
 C2294 C 0.03485 0.67264 0.56253
 C2295 C 0.00987 0.61909 0.55504
 C2296 C 0.00798 0.60067 0.55006
 C2297 C 0.00610 0.57939 0.54340
 C2298 C 0.00474 0.56151 0.53675
 H2299 H 0.04554 0.64236 0.55059
 H2300 H -0.02012 0.64497 0.57129
 H2301 H -0.01547 0.68266 0.58108
 H2302 H 0.05028 0.68015 0.56001
 C2303 C 0.52844 0.15263 0.05022
 C2304 C 0.50816 0.14356 0.05301
 C2305 C 0.49160 0.15550 0.06194
 C2306 C 0.49550 0.17636 0.06867
 C2307 C 0.51604 0.18538 0.06652
 C2308 C 0.53238 0.17347 0.05694
 C2309 C 0.50468 0.12171 0.04733
 C2310 C 0.50230 0.10331 0.04249
 C2311 C 0.50013 0.08189 0.03635
 C2312 C 0.49875 0.06379 0.03032
 H2313 H 0.54131 0.14346 0.04323
 H2314 H 0.47586 0.14852 0.06416
 H2315 H 0.48274 0.18511 0.07628
 H2316 H 0.54828 0.18016 0.05501
 C2317 C -0.03470 0.15311 0.94403
 C2318 C -0.01496 0.14285 0.94097
 C2319 C 0.00234 0.15403 0.93263
 C2320 C -0.00018 0.17545 0.92706
 C2321 C -0.02005 0.18583 0.92981
 C2322 C -0.03726 0.17453 0.93846
 C2323 C -0.01250 0.12082 0.94645
 C2324 C -0.01063 0.10241 0.95138
 C2325 C -0.00872 0.08109 0.95782
 C2326 C -0.00732 0.06313 0.96417
 H2327 H -0.04812 0.14453 0.95060
 H2328 H 0.01767 0.14614 0.93024
 H2329 H 0.01321 0.18370 0.92010
 H2330 H -0.05267 0.18224 0.94083
 C2331 C 0.46582 0.65001 0.44277
 C2332 C 0.48574 0.64006 0.43982
 C2333 C 0.50303 0.65166 0.43199
 C2334 C 0.50033 0.67318 0.42684
 C2335 C 0.48029 0.68326 0.42951
 C2336 C 0.46308 0.67152 0.43762
 C2337 C 0.48845 0.61800 0.44512
 C2338 C 0.49053 0.59960 0.45004
 C2339 C 0.49270 0.57835 0.45665
 C2340 C 0.49432 0.56051 0.46327
 H2341 H 0.45240 0.64112 0.44896
 H2342 H 0.51851 0.64403 0.42972
 H2343 H 0.51374 0.68178 0.42030
 H2344 H 0.44753 0.67898 0.43992
 C2345 C 0.49567 0.84682 0.43301
 C2346 C 0.51279 0.85837 0.44128
 C2347 C 0.53258 0.84835 0.44472
 C2348 C 0.53538 0.82682 0.43956
 C2349 C 0.51837 0.81514 0.43094
 C2350 C 0.49843 0.82527 0.42785
 C2351 C 0.51009 0.88051 0.44642
 C2352 C 0.50806 0.89899 0.45117
 C2353 C 0.50597 0.92036 0.45757
 C2354 C 0.50440 0.93830 0.46404
 H2355 H 0.48030 0.85451 0.43035
 H2356 H 0.54586 0.85721 0.45126
 H2357 H 0.55083 0.81931 0.44220
 H2358 H 0.48518 0.81672 0.42091
 C2359 C 0.03412 0.34977 0.94319
 C2360 C 0.01445 0.36006 0.93985
 C2361 C -0.00280 0.34881 0.93144
 C2362 C -0.00030 0.32730 0.92608
 C2363 C 0.01951 0.31689 0.92911
 C2364 C 0.03666 0.32827 0.93783
 C2365 C 0.01200 0.38215 0.94522
 C2366 C 0.01023 0.40060 0.95014
 C2367 C 0.00851 0.42195 0.95666
 C2368 C 0.00735 0.43991 0.96313
 H2369 H 0.04750 0.35840 0.94982
 H2370 H -0.01808 0.35671 0.92885
 H2371 H -0.01365 0.31897 0.91907
 H2372 H 0.05202 0.32054 0.94042
 C2373 C 0.47132 0.35022 0.05823
 C2374 C 0.49168 0.35947 0.05973
 C2375 C 0.50899 0.34759 0.06732
 C2376 C 0.50586 0.32654 0.07376
 C2377 C 0.48535 0.31725 0.07267
 C2378 C 0.46815 0.32920 0.06468
 C2379 C 0.49465 0.38121 0.05354
 C2380 C 0.49669 0.39942 0.04807
 C2381 C 0.49856 0.42054 0.04107
 C2382 C 0.49977 0.43835 0.03434
 H2383 H 0.45787 0.35933 0.05225
 H2384 H 0.52480 0.35469 0.06849
 H2385 H 0.51929 0.31775 0.08014
 H2386 H 0.45225 0.32231 0.06354
 C2387 C 0.00210 0.84761 0.56959
 C2388 C -0.01498 0.85918 0.56117
 C2389 C -0.03471 0.84922 0.55758
 C2390 C -0.03749 0.82774 0.56273
 C2391 C -0.02052 0.81604 0.57148
 C2392 C -0.00065 0.82612 0.57475
 C2393 C -0.01226 0.88124 0.55597
 C2394 C -0.01019 0.89965 0.55112
 C2395 C -0.00804 0.92090 0.54457
 C2396 C -0.00644 0.93871 0.53792
 H2397 H 0.01743 0.85525 0.57236
 H2398 H -0.04795 0.85809 0.55092
 H2399 H -0.05290 0.82026 0.55998
 H2400 H 0.01256 0.81755 0.58179
 C2401 C 0.26004 0.32078 0.08140
 C2402 C 0.27943 0.31428 0.09024
 C2403 C 0.29880 0.32051 0.08134
 C2404 C 0.29885 0.33357 0.06402
 C2405 C 0.27943 0.34092 0.05514
 C2406 C 0.25998 0.33383 0.06401
 C2407 C 0.27954 0.30245 0.10917
 C2408 C 0.27965 0.29343 0.12547
 C2409 C 0.27949 0.28406 0.14514
 C2410 C 0.27882 0.27736 0.16242
 H2411 H 0.24490 0.31623 0.08827
 H2412 H 0.31394 0.31546 0.08794
 H2413 H 0.31430 0.33737 0.05746
 H2414 H 0.24456 0.33923 0.05840
 C2415 C 0.75611 0.82155 0.58504
 C2416 C 0.77509 0.81113 0.59094
 C2417 C 0.79382 0.81401 0.57948
 C2418 C 0.79373 0.82761 0.56252
 C2419 C 0.77488 0.83862 0.55679
 C2420 C 0.75598 0.83516 0.56806
 C2421 C 0.77569 0.79885 0.60958
 C2422 C 0.77610 0.78953 0.62573
 C2423 C 0.77622 0.77997 0.64530
 C2424 C 0.77578 0.77328 0.66259
 H2425 H 0.74155 0.81959 0.59388
 H2426 H 0.80862 0.80610 0.58390
 H2427 H 0.80846 0.82968 0.55398
 H2428 H 0.74128 0.84354 0.56419
 C2429 C 0.24311 0.67809 0.58311
 C2430 C 0.22412 0.68845 0.58910
 C2431 C 0.20544 0.68573 0.57751
 C2432 C 0.20561 0.67236 0.56031
 C2433 C 0.22448 0.66142 0.55447
 C2434 C 0.24333 0.66472 0.56589
 C2435 C 0.22345 0.70051 0.60793
 C2436 C 0.22300 0.70966 0.62421
 C2437 C 0.22284 0.71906 0.64391
 C2438 C 0.22325 0.72565 0.66126
 H2439 H 0.25764 0.67993 0.59204
 H2440 H 0.19063 0.69359 0.58200
 H2441 H 0.19092 0.67043 0.55166
 H2442 H 0.25804 0.65638 0.56194
 C2443 C 0.70141 0.17923 0.08021
 C2444 C 0.72086 0.18505 0.08921
 C2445 C 0.74016 0.17829 0.08033
 C2446 C 0.74004 0.16540 0.06278
 C2447 C 0.72048 0.15874 0.05376
 C2448 C 0.70117 0.16632 0.06272
 C2449 C 0.72094 0.19675 0.10827
 C2450 C 0.72099 0.20567 0.12466
 C2451 C 0.72132 0.21493 0.14442
 C2452 C 0.72210 0.22155 0.16175
 H2453 H 0.68634 0.18448 0.08686
 H2454 H 0.75536 0.18252 0.08729
 H2455 H 0.75538 0.15979 0.05713
 H2456 H 0.68567 0.16285 0.05608
 C2457 C 0.75378 0.17840 0.91536
 C2458 C 0.77275 0.18898 0.90995
 C2459 C 0.79116 0.18636 0.92195
 C2460 C 0.79077 0.17285 0.93897
 C2461 C 0.77195 0.16166 0.94421
 C2462 C 0.75334 0.16488 0.93241
 C2463 C 0.77373 0.20117 0.89126
 C2464 C 0.77450 0.21041 0.87508
 C2465 C 0.77504 0.21988 0.85547
 C2466 C 0.77494 0.22649 0.83815
 H2467 H 0.73946 0.18016 0.90611
 H2468 H 0.80595 0.19440 0.91791
 H2469 H 0.80527 0.17099 0.94793
 H2470 H 0.73868 0.15636 0.93591
 C2471 C 0.29525 0.68700 0.42324
 C2472 C 0.27663 0.69038 0.41171
 C2473 C 0.25753 0.68012 0.41729
 C2474 C 0.25715 0.66622 0.43405
 C2475 C 0.27592 0.66229 0.44542
 C2476 C 0.29491 0.67311 0.43999
 C2477 C 0.27741 0.70308 0.39332
 C2478 C 0.27786 0.71276 0.37736
 C2479 C 0.27788 0.72275 0.35797
 C2480 C 0.27720 0.72976 0.34081
 H2481 H 0.31014 0.69478 0.41907
 H2482 H 0.24305 0.68247 0.40840
 H2483 H 0.24235 0.65801 0.43768
 H2484 H 0.30955 0.67070 0.44862
 C2485 C 0.70550 0.81342 0.42540
 C2486 C 0.72419 0.81022 0.41392
 C2487 C 0.74319 0.82061 0.41965
 C2488 C 0.74339 0.83447 0.43651
 C2489 C 0.72453 0.83824 0.44782
 C2490 C 0.70566 0.82728 0.44225
 C2491 C 0.72355 0.79761 0.39541
 C2492 C 0.72317 0.78799 0.37938
 C2493 C 0.72316 0.77806 0.35992
 C2494 C 0.72378 0.77105 0.34271
 H2495 H 0.69069 0.80554 0.42111
 H2496 H 0.75772 0.81840 0.41079
 H2497 H 0.75810 0.84280 0.44027
 H2498 H 0.69096 0.82956 0.45083
 C2499 C 0.24641 0.32160 0.91686
 C2500 C 0.22743 0.31117 0.91113
 C2501 C 0.20891 0.31384 0.92298
 C2502 C 0.20919 0.32726 0.94014
 C2503 C 0.22801 0.33831 0.94568
 C2504 C 0.24673 0.33502 0.93404
 C2505 C 0.22656 0.29913 0.89228
 C2506 C 0.22587 0.29000 0.87600
 C2507 C 0.22537 0.28064 0.85628
 C2508 C 0.22549 0.27410 0.83890
 H2509 H 0.26082 0.31980 0.90773
 H2510 H 0.19411 0.30593 0.91870
 H2511 H 0.19459 0.32918 0.94896
 H2512 H 0.26141 0.34343 0.93778
 C2513 C 0.85967 0.40313 0.73408
 C2514 C 0.85963 0.39622 0.75441
 C2515 C 0.87118 0.40778 0.76911
 C2516 C 0.88267 0.42614 0.76348
 C2517 C 0.88281 0.43317 0.74304
 C2518 C 0.87113 0.42142 0.72842
 C2519 C 0.84789 0.37712 0.75984
 C2520 C 0.83791 0.36091 0.76321
 C2521 C 0.82614 0.34166 0.76548
 C2522 C 0.81614 0.32509 0.76560
 H2523 H 0.85079 0.39437 0.72255
 H2524 H 0.87137 0.40257 0.78488
 H2525 H 0.89167 0.43467 0.77507
 H2526 H 0.87060 0.42654 0.71264
 C2527 C 0.36973 0.91312 0.26976
 C2528 C 0.36186 0.89883 0.25510
 C2529 C 0.36536 0.90299 0.23441
 C2530 C 0.37651 0.92131 0.22831
 C2531 C 0.38452 0.93614 0.24283
 C2532 C 0.38091 0.93153 0.26375
 C2533 C 0.34999 0.87996 0.26099
 C2534 C 0.33985 0.86395 0.26474
 C2535 C 0.32781 0.84493 0.26744
 C2536 C 0.31748 0.82856 0.26787
 H2537 H 0.36730 0.91001 0.28586
 H2538 H 0.35919 0.89214 0.22287
 H2539 H 0.37785 0.92411 0.21207
 H2540 H 0.38727 0.94161 0.27575
 C2541 C 0.12866 0.90850 0.73064
 C2542 C 0.13991 0.89673 0.74540
 C2543 C 0.13990 0.90376 0.76573
 C2544 C 0.12875 0.92237 0.77133
 C2545 C 0.11737 0.93433 0.75666
 C2546 C 0.11749 0.92718 0.73622
 C2547 C 0.15135 0.87731 0.74002
 C2548 C 0.16109 0.86087 0.73669
 C2549 C 0.17263 0.84138 0.73443
 C2550 C 0.18249 0.82465 0.73428
 H2551 H 0.12846 0.90321 0.71487
 H2552 H 0.14856 0.89484 0.77730
 H2553 H 0.12929 0.92757 0.78712
 H2554 H 0.10870 0.93587 0.72459
 C2555 C 0.62753 0.40468 0.23049
 C2556 C 0.63871 0.39281 0.24522
 C2557 C 0.63865 0.39973 0.26559
 C2558 C 0.62753 0.41834 0.27124
 C2559 C 0.61622 0.43040 0.25660
 C2560 C 0.61638 0.42336 0.23612
 C2561 C 0.65020 0.37344 0.23980
 C2562 C 0.66002 0.35705 0.23648
 C2563 C 0.67174 0.33767 0.23428
 C2564 C 0.68181 0.32107 0.23419
 H2565 H 0.62738 0.39948 0.21469
 H2566 H 0.64727 0.39075 0.27714
 H2567 H 0.62805 0.42345 0.28705
 H2568 H 0.60767 0.43214 0.22452
 C2569 C 0.62788 0.58907 0.27140
 C2570 C 0.63976 0.60088 0.25720
 C2571 C 0.64040 0.59417 0.23677
 C2572 C 0.62929 0.57584 0.23054
 C2573 C 0.61729 0.56384 0.24466
 C2574 C 0.61674 0.57067 0.26520
 C2575 C 0.65124 0.61998 0.26321
 C2576 C 0.66109 0.63618 0.26701
 C2577 C 0.67287 0.65538 0.26969
 C2578 C 0.68302 0.67186 0.27007
 H2579 H 0.62717 0.59411 0.28724
 H2580 H 0.64956 0.60312 0.22562
 H2581 H 0.63035 0.57088 0.21471
 H2582 H 0.60748 0.56194 0.27641
 C2583 C 0.12918 0.09275 0.76881
 C2584 C 0.14063 0.10437 0.75415
 C2585 C 0.14064 0.09743 0.73379
 C2586 C 0.12932 0.07904 0.72807
 C2587 C 0.11775 0.06721 0.74264
 C2588 C 0.11784 0.07429 0.76311
 C2589 C 0.15226 0.12355 0.75968
 C2590 C 0.16215 0.13981 0.76315
 C2591 C 0.17384 0.15910 0.76556
 C2592 C 0.18380 0.17571 0.76580
 H2593 H 0.12896 0.09798 0.78460
 H2594 H 0.14944 0.10625 0.72229
 H2595 H 0.12986 0.07389 0.71226
 H2596 H 0.10891 0.06571 0.77467
 C2597 C 0.36259 0.09930 0.26560
 C2598 C 0.36285 0.10638 0.24532
 C2599 C 0.37436 0.09470 0.23063
 C2600 C 0.38549 0.07602 0.23621
 C2601 C 0.38529 0.06880 0.25659
 C2602 C 0.37368 0.08070 0.27120
 C2603 C 0.35133 0.12571 0.23993
 C2604 C 0.34145 0.14205 0.23662
 C2605 C 0.32964 0.16136 0.23443
 C2606 C 0.31947 0.17790 0.23436
 H2607 H 0.35371 0.10815 0.27712
 H2608 H 0.37477 0.10003 0.21490
 H2609 H 0.39445 0.06738 0.22463
 H2610 H 0.37291 0.07543 0.28693
 C2611 C 0.86051 0.59609 0.76642
 C2612 C 0.86036 0.60303 0.74610
 C2613 C 0.87171 0.59134 0.73130
 C2614 C 0.88312 0.57282 0.73681
 C2615 C 0.88338 0.56576 0.75725
 C2616 C 0.87190 0.57764 0.77196
 C2617 C 0.84867 0.62228 0.74078
 C2618 C 0.83872 0.63859 0.73749
 C2619 C 0.82696 0.65793 0.73530
 C2620 C 0.81692 0.67455 0.73522
 H2621 H 0.85178 0.60495 0.77803
 H2622 H 0.87180 0.59657 0.71553
 H2623 H 0.89197 0.56419 0.72515
 H2624 H 0.87148 0.57249 0.78774
 C2625 C 0.89379 0.76908 0.17265
 C2626 C 0.89111 0.75722 0.19046
 C2627 C 0.90898 0.74962 0.20113
 C2628 C 0.92963 0.75396 0.19399
 C2629 C 0.93273 0.76618 0.17607
 C2630 C 0.91432 0.77352 0.16548
 C2631 C 0.86993 0.75364 0.19805
 C2632 C 0.85200 0.75140 0.20435
 C2633 C 0.83104 0.74960 0.21190
 C2634 C 0.81325 0.74861 0.21882
 H2635 H 0.87996 0.77490 0.16424
 H2636 H 0.90696 0.74059 0.21511
 H2637 H 0.94304 0.74844 0.20309
 H2638 H 0.91549 0.78198 0.15113
 C2639 C 0.40064 0.28466 0.69230
 C2640 C 0.39056 0.26500 0.68877
 C2641 C 0.40212 0.24779 0.68052
 C2642 C 0.42373 0.25031 0.67554
 C2643 C 0.43395 0.27010 0.67880
 C2644 C 0.42225 0.28722 0.68733
 C2645 C 0.36842 0.26245 0.69394
 C2646 C 0.34997 0.26048 0.69881
 C2647 C 0.32867 0.25841 0.70541
 C2648 C 0.31081 0.25683 0.71208
 H2649 H 0.39179 0.29800 0.69883
 H2650 H 0.39439 0.23251 0.67780
 H2651 H 0.43229 0.23698 0.66866
 H2652 H 0.42982 0.30257 0.69008
 C2653 C 0.40157 0.75196 0.81823
 C2654 C 0.39015 0.73487 0.80975
 C2655 C 0.40034 0.71523 0.80606
 C2656 C 0.42192 0.71254 0.81117
 C2657 C 0.43346 0.72952 0.81999
 C2658 C 0.42315 0.74931 0.82335
 C2659 C 0.36798 0.73748 0.80465
 C2660 C 0.34948 0.73949 0.79991
 C2661 C 0.32811 0.74160 0.79352
 C2662 C 0.31017 0.74321 0.78704
 H2663 H 0.39375 0.76722 0.82109
 H2664 H 0.39158 0.70197 0.79936
 H2665 H 0.42957 0.69719 0.80835
 H2666 H 0.43160 0.76253 0.83044
 C2667 C 0.90488 0.25288 0.31234
 C2668 C 0.89216 0.23505 0.30815
 C2669 C 0.90082 0.21445 0.30946
 C2670 C 0.92210 0.21159 0.31546
 C2671 C 0.93516 0.22938 0.32037
 C2672 C 0.92621 0.25014 0.31833
 C2673 C 0.87015 0.23777 0.30252
 C2674 C 0.85171 0.23969 0.29757
 C2675 C 0.83031 0.24151 0.29117
 C2676 C 0.81226 0.24273 0.28490
 H2677 H 0.89821 0.26892 0.31135
 H2678 H 0.89110 0.20055 0.30588
 H2679 H 0.92831 0.19537 0.31577
 H2680 H 0.93508 0.26439 0.32245
 C2681 C 0.09827 0.28200 0.30575
 C2682 C 0.10851 0.26226 0.30868
 C2683 C 0.09732 0.24507 0.31718
 C2684 C 0.07595 0.24771 0.32308
 C2685 C 0.06563 0.26761 0.32052
 C2686 C 0.07692 0.28468 0.31164
 C2687 C 0.13055 0.25978 0.30305
 C2688 C 0.14900 0.25804 0.29803
 C2689 C 0.17040 0.25641 0.29155
 C2690 C 0.18844 0.25534 0.28522
 H2691 H 0.10684 0.29535 0.29907
 H2692 H 0.10519 0.22974 0.31949
 H2693 H 0.06771 0.23441 0.33018
 H2694 H 0.06924 0.30011 0.30939
 C2695 C 0.59838 0.78271 0.80722
 C2696 C 0.60856 0.76304 0.81067
 C2697 C 0.59707 0.74583 0.81878
 C2698 C 0.57544 0.74839 0.82375
 C2699 C 0.56514 0.76821 0.82062
 C2700 C 0.57676 0.78531 0.81218
 C2701 C 0.63077 0.76052 0.80568
 C2702 C 0.64930 0.75865 0.80100
 C2703 C 0.67071 0.75672 0.79465
 C2704 C 0.68867 0.75527 0.78818
 H2705 H 0.60718 0.79605 0.80080
 H2706 H 0.60488 0.73054 0.82144
 H2707 H 0.56693 0.73509 0.83055
 H2708 H 0.56912 0.80068 0.80953
 C2709 C 0.59788 0.25264 0.68024
 C2710 C 0.60942 0.23543 0.68841
 C2711 C 0.59931 0.21579 0.69189
 C2712 C 0.57770 0.21326 0.68693
 C2713 C 0.56601 0.23038 0.67849
 C2714 C 0.57625 0.25015 0.67528
 C2715 C 0.63157 0.23796 0.69358
 C2716 C 0.65003 0.23991 0.69844
 C2717 C 0.67133 0.24197 0.70503
 C2718 C 0.68919 0.24357 0.71169
 H2719 H 0.60563 0.26791 0.67756
 H2720 H 0.60815 0.20245 0.69836
 H2721 H 0.57010 0.19793 0.68965
 H2722 H 0.56770 0.26347 0.66846
 C2723 C 0.09760 0.72255 0.19604
 C2724 C 0.10711 0.74266 0.19368
 C2725 C 0.09550 0.75960 0.18507
 C2726 C 0.07451 0.75628 0.17835
 C2727 C 0.06502 0.73595 0.18018
 C2728 C 0.07665 0.71919 0.18933
 C2729 C 0.12897 0.74566 0.19969
 C2730 C 0.14733 0.74768 0.20487
 C2731 C 0.16868 0.74951 0.21143
 C2732 C 0.18671 0.75069 0.21777
 H2733 H 0.10651 0.70939 0.20278
 H2734 H 0.10281 0.77521 0.18319
 H2735 H 0.06598 0.76936 0.17108
 H2736 H 0.06959 0.70344 0.19101
   
