data_POSCAR
  _audit_creation_date              2014-09-24
  _audit_creation_method            'ToBaCCo'
  _symmetry_space_group_name_H-M    'P1'
  _symmetry_Int_Tables_number       1
  _symmetry_cell_setting            triclinic
  loop_
  _symmetry_equiv_pos_as_xyz
 x,y,z
_cell_length_a 79.0840
_cell_length_b 79.1226
_cell_length_c 78.9148
_cell_angle_alpha 89.980100
_cell_angle_beta 90.000200
_cell_angle_gamma 89.957300
loop_
  _atom_site_label
  _atom_site_type_symbol
  _atom_site_fract_x
  _atom_site_fract_y
  _atom_site_fract_z
C1 C 0.35079 0.35087 0.32975
 C2 C 0.36522 0.34347 0.32254
 C3 C 0.37227 0.32887 0.32969
 C4 C 0.36502 0.32160 0.34416
 C5 C 0.35059 0.32883 0.35153
 C6 C 0.34341 0.34353 0.34431
 C7 C 0.34347 0.36534 0.32255
 C8 C 0.32891 0.37247 0.32971
 C9 C 0.32161 0.36526 0.34417
 C10 C 0.32876 0.35079 0.35154
 C11 C 0.32140 0.34331 0.36588
 C12 C 0.32851 0.32870 0.37297
 C13 C 0.34306 0.32152 0.36586
 H14 H 0.37089 0.34896 0.31130
 H15 H 0.37053 0.31026 0.34955
 H16 H 0.34899 0.37099 0.31131
 H17 H 0.31029 0.37084 0.34957
 H18 H 0.31009 0.34873 0.37143
 H19 H 0.34842 0.31017 0.37141
 C20 C 0.35125 0.85136 -0.17115
 C21 C 0.36571 0.84396 -0.17830
 C22 C 0.37284 0.82944 -0.17103
 C23 C 0.36562 0.82228 -0.15648
 C24 C 0.35116 0.82953 -0.14916
 C25 C 0.34392 0.84413 -0.15652
 C26 C 0.34387 0.86574 -0.17848
 C27 C 0.32928 0.87289 -0.17137
 C28 C 0.32202 0.86576 -0.15682
 C29 C 0.32925 0.85139 -0.14934
 C30 C 0.32194 0.84401 -0.13493
 C31 C 0.32911 0.82951 -0.12770
 C32 C 0.34369 0.82232 -0.13475
 H33 H 0.37132 0.84940 -0.18961
 H34 H 0.37116 0.81101 -0.15094
 H35 H 0.34939 0.87128 -0.18978
 H36 H 0.31069 0.87132 -0.15142
 H37 H 0.31061 0.84944 -0.12940
 H38 H 0.34910 0.81105 -0.12909
 C39 C 0.85102 0.35155 -0.17086
 C40 C 0.86550 0.34417 -0.17800
 C41 C 0.87260 0.32962 -0.17075
 C42 C 0.86534 0.32242 -0.15625
 C43 C 0.85087 0.32964 -0.14895
 C44 C 0.84365 0.34426 -0.15627
 C45 C 0.84366 0.36595 -0.17816
 C46 C 0.82905 0.37308 -0.17107
 C47 C 0.82175 0.36591 -0.15656
 C48 C 0.82895 0.35150 -0.14911
 C49 C 0.82160 0.34408 -0.13474
 C50 C 0.82876 0.32955 -0.12754
 C51 C 0.84335 0.32238 -0.13458
 H52 H 0.87114 0.34964 -0.18927
 H53 H 0.87086 0.31112 -0.15074
 H54 H 0.84921 0.37153 -0.18942
 H55 H 0.81040 0.37145 -0.15117
 H56 H 0.81026 0.34948 -0.12923
 H57 H 0.84875 0.31109 -0.12895
 C58 C 0.85104 0.85168 0.32950
 C59 C 0.86546 0.84424 0.32231
 C60 C 0.87252 0.82967 0.32951
 C61 C 0.86528 0.82248 0.34402
 C62 C 0.85086 0.82975 0.35138
 C63 C 0.84368 0.84441 0.34410
 C64 C 0.84372 0.86612 0.32223
 C65 C 0.82916 0.87331 0.32938
 C66 C 0.82188 0.86615 0.34390
 C67 C 0.82904 0.85171 0.35132
 C68 C 0.82171 0.84429 0.36570
 C69 C 0.82882 0.82972 0.37286
 C70 C 0.84336 0.82250 0.36576
 H71 H 0.87112 0.84967 0.31103
 H72 H 0.87080 0.81115 0.34946
 H73 H 0.84926 0.87168 0.31095
 H74 H 0.81057 0.87173 0.34933
 H75 H 0.81040 0.84974 0.37125
 H76 H 0.84872 0.81118 0.37136
 C77 C 0.64874 0.64861 0.32904
 C78 C 0.63440 0.65602 0.32164
 C79 C 0.62722 0.67057 0.32874
 C80 C 0.63424 0.67778 0.34334
 C81 C 0.64857 0.67055 0.35091
 C82 C 0.65588 0.65590 0.34374
 C83 C 0.65619 0.63419 0.32189
 C84 C 0.67067 0.62706 0.32923
 C85 C 0.67774 0.63422 0.34383
 C86 C 0.67045 0.64864 0.35115
 C87 C 0.67758 0.65608 0.36562
 C88 C 0.67034 0.67063 0.37266
 C89 C 0.65587 0.67781 0.36538
 H90 H 0.62892 0.65057 0.31029
 H91 H 0.62862 0.68910 0.34869
 H92 H 0.65086 0.62859 0.31054
 H93 H 0.68899 0.62864 0.34937
 H94 H 0.68883 0.65066 0.37131
 H95 H 0.65041 0.68913 0.37089
 C96 C 0.64857 0.14871 -0.17139
 C97 C 0.63421 0.15611 -0.17875
 C98 C 0.62703 0.17065 -0.17162
 C99 C 0.63408 0.17786 -0.15704
 C100 C 0.64844 0.17063 -0.14951
 C101 C 0.65574 0.15599 -0.15671
 C102 C 0.65601 0.13429 -0.17857
 C103 C 0.67051 0.12715 -0.17127
 C104 C 0.67761 0.13432 -0.15667
 C105 C 0.67033 0.14874 -0.14933
 C106 C 0.67748 0.15617 -0.13487
 C107 C 0.67024 0.17071 -0.12780
 C108 C 0.65576 0.17789 -0.13505
 H109 H 0.62869 0.15067 -0.19009
 H110 H 0.62846 0.18917 -0.15166
 H111 H 0.65061 0.12872 -0.18991
 H112 H 0.68888 0.12877 -0.15112
 H113 H 0.68874 0.15075 -0.12920
 H114 H 0.65030 0.18919 -0.12952
 C115 C 0.14883 0.64837 -0.17098
 C116 C 0.13445 0.65573 -0.17834
 C117 C 0.12726 0.67029 -0.17125
 C118 C 0.13433 0.67755 -0.15669
 C119 C 0.14871 0.67036 -0.14917
 C120 C 0.15602 0.65570 -0.15634
 C121 C 0.15628 0.63394 -0.17814
 C122 C 0.17080 0.62684 -0.17084
 C123 C 0.17792 0.63407 -0.15627
 C124 C 0.17063 0.64849 -0.14896
 C125 C 0.17780 0.65598 -0.13454
 C126 C 0.17056 0.67054 -0.12750
 C127 C 0.15605 0.67768 -0.13475
 H128 H 0.12892 0.65025 -0.18965
 H129 H 0.12872 0.68887 -0.15135
 H130 H 0.15087 0.62833 -0.18945
 H131 H 0.18921 0.62855 -0.15073
 H132 H 0.18908 0.65059 -0.12887
 H133 H 0.15059 0.68899 -0.12924
 C134 C 0.14857 0.14866 0.32835
 C135 C 0.13428 0.15609 0.32090
 C136 C 0.12703 0.17062 0.32802
 C137 C 0.13398 0.17776 0.34271
 C138 C 0.14827 0.17049 0.35032
 C139 C 0.15563 0.15588 0.34312
 C140 C 0.15607 0.13427 0.32117
 C141 C 0.17052 0.12709 0.32856
 C142 C 0.17750 0.13420 0.34324
 C143 C 0.17015 0.14859 0.35058
 C144 C 0.17719 0.15596 0.36513
 C145 C 0.16991 0.17047 0.37220
 C146 C 0.15548 0.17769 0.36486
 H147 H 0.12888 0.15065 0.30949
 H148 H 0.12835 0.18905 0.34812
 H149 H 0.15077 0.12874 0.30976
 H150 H 0.18872 0.12863 0.34886
 H151 H 0.18841 0.15051 0.37087
 H152 H 0.14999 0.18897 0.37040
 C153 C 0.64890 0.35153 0.67017
 C154 C 0.63444 0.34418 0.67734
 C155 C 0.62731 0.32967 0.67010
 C156 C 0.63453 0.32245 0.65560
 C157 C 0.64899 0.32963 0.64826
 C158 C 0.65624 0.34424 0.65557
 C159 C 0.65630 0.36591 0.67745
 C160 C 0.67089 0.37299 0.67034
 C161 C 0.67816 0.36582 0.65583
 C162 C 0.67094 0.35144 0.64838
 C163 C 0.67825 0.34400 0.63401
 C164 C 0.67108 0.32949 0.62682
 C165 C 0.65648 0.32236 0.63389
 H166 H 0.62880 0.34963 0.68861
 H167 H 0.62895 0.31117 0.65014
 H168 H 0.65081 0.37151 0.68873
 H169 H 0.68951 0.37135 0.65047
 H170 H 0.68960 0.34938 0.62848
 H171 H 0.65106 0.31108 0.62827
 C172 C 0.64886 0.85125 1.17110
 C173 C 0.63437 0.84395 1.17827
 C174 C 0.62718 0.82946 1.17103
 C175 C 0.63437 0.82223 1.15649
 C176 C 0.64886 0.82938 1.14917
 C177 C 0.65617 0.84394 1.15649
 C178 C 0.65631 0.86559 1.17840
 C179 C 0.67093 0.87263 1.17128
 C180 C 0.67816 0.86544 1.15676
 C181 C 0.67088 0.85110 1.14930
 C182 C 0.67817 0.84365 1.13491
 C183 C 0.67093 0.82918 1.12772
 C184 C 0.65631 0.82210 1.13478
 H185 H 0.62878 0.84944 1.18956
 H186 H 0.62878 0.81098 1.15099
 H187 H 0.65086 0.87121 1.18968
 H188 H 0.68953 0.87094 1.15139
 H189 H 0.68953 0.84900 1.12939
 H190 H 0.65086 0.81085 1.12915
 C191 C 0.14926 0.35093 1.17061
 C192 C 0.13480 0.34355 1.17776
 C193 C 0.12773 0.32899 1.17054
 C194 C 0.13502 0.32177 1.15605
 C195 C 0.14948 0.32899 1.14874
 C196 C 0.15666 0.34363 1.15604
 C197 C 0.15658 0.36535 1.17788
 C198 C 0.17116 0.37248 1.17077
 C199 C 0.17849 0.36530 1.15630
 C200 C 0.17133 0.35088 1.14886
 C201 C 0.17871 0.34345 1.13452
 C202 C 0.17160 0.32890 1.12734
 C203 C 0.15702 0.32173 1.13439
 H204 H 0.12914 0.34904 1.18902
 H205 H 0.12952 0.31046 1.15056
 H206 H 0.15105 0.37097 1.18912
 H207 H 0.18982 0.37088 1.15094
 H208 H 0.19004 0.34887 1.12900
 H209 H 0.15165 0.31042 1.12878
 C210 C 0.14829 0.85061 0.67067
 C211 C 0.13385 0.84320 0.67785
 C212 C 0.12675 0.82867 0.67060
 C213 C 0.13398 0.82151 0.65605
 C214 C 0.14841 0.82877 0.64871
 C215 C 0.15562 0.84338 0.65604
 C216 C 0.15564 0.86500 0.67797
 C217 C 0.17020 0.87215 0.67084
 C218 C 0.17746 0.86504 0.65631
 C219 C 0.17028 0.85065 0.64884
 C220 C 0.17759 0.84328 0.63443
 C221 C 0.17045 0.82877 0.62723
 C222 C 0.15590 0.82156 0.63430
 H223 H 0.12824 0.84864 0.68915
 H224 H 0.12847 0.81023 0.65053
 H225 H 0.15016 0.87057 0.68927
 H226 H 0.18877 0.87063 0.65093
 H227 H 0.18890 0.84872 0.62890
 H228 H 0.15051 0.81028 0.62866
 C229 C 0.35124 0.64886 0.67106
 C230 C 0.36562 0.65626 0.67836
 C231 C 0.37278 0.67077 0.67116
 C232 C 0.36571 0.67795 0.65656
 C233 C 0.35133 0.67072 0.64909
 C234 C 0.34404 0.65611 0.65636
 C235 C 0.34381 0.63448 0.67830
 C236 C 0.32930 0.62735 0.67105
 C237 C 0.32217 0.63448 0.65645
 C238 C 0.32944 0.64886 0.64903
 C239 C 0.32226 0.65626 0.63456
 C240 C 0.32948 0.67077 0.62742
 C241 C 0.34399 0.67795 0.63462
 H242 H 0.37115 0.65084 0.68970
 H243 H 0.37131 0.68923 0.65114
 H244 H 0.34919 0.62890 0.68964
 H245 H 0.31090 0.62891 0.65097
 H246 H 0.31099 0.65084 0.62893
 H247 H 0.34944 0.68922 0.62903
 C248 C 0.35186 0.14832 1.17148
 C249 C 0.36623 0.15569 1.17882
 C250 C 0.37347 0.17018 1.17162
 C251 C 0.36645 0.17734 1.15697
 C252 C 0.35208 0.17013 1.14948
 C253 C 0.34473 0.15556 1.15675
 C254 C 0.34436 0.13397 1.17874
 C255 C 0.32985 0.12686 1.17145
 C256 C 0.32279 0.13399 1.15680
 C257 C 0.33013 0.14833 1.14939
 C258 C 0.32301 0.15572 1.13488
 C259 C 0.33029 0.17020 1.12774
 C260 C 0.34479 0.17735 1.13497
 H261 H 0.37169 0.15025 1.19020
 H262 H 0.37207 0.18860 1.15150
 H263 H 0.34973 0.12843 1.19011
 H264 H 0.31152 0.12846 1.15127
 H265 H 0.31174 0.15032 1.12923
 H266 H 0.35029 0.18861 1.12937
 C267 C 0.85137 0.64809 1.17149
 C268 C 0.86576 0.65548 1.17876
 C269 C 0.87290 0.67001 1.17158
 C270 C 0.86577 0.67722 1.15701
 C271 C 0.85138 0.66999 1.14957
 C272 C 0.84412 0.65536 1.15683
 C273 C 0.84397 0.63368 1.17873
 C274 C 0.82944 0.62655 1.17150
 C275 C 0.82227 0.63371 1.15693
 C276 C 0.82951 0.64812 1.14953
 C277 C 0.82229 0.65554 1.13509
 C278 C 0.82948 0.67007 1.12796
 C279 C 0.84399 0.67724 1.13514
 H280 H 0.87134 0.65005 1.19008
 H281 H 0.87135 0.68851 1.15159
 H282 H 0.84943 0.62812 1.19005
 H283 H 0.81098 0.62817 1.15143
 H284 H 0.81100 0.65012 1.12947
 H285 H 0.84942 0.68853 1.12956
 C286 C 0.85134 0.14873 0.67124
 C287 C 0.86568 0.15611 0.67861
 C288 C 0.87287 0.17064 0.67148
 C289 C 0.86585 0.17784 0.65686
 C290 C 0.85151 0.17062 0.64931
 C291 C 0.84420 0.15600 0.65652
 C292 C 0.84388 0.13433 0.67842
 C293 C 0.82940 0.12721 0.67110
 C294 C 0.82233 0.13436 0.65648
 C295 C 0.82963 0.14876 0.64912
 C296 C 0.82251 0.15617 0.63464
 C297 C 0.82975 0.17070 0.62755
 C298 C 0.84422 0.17787 0.63482
 H299 H 0.87117 0.15068 0.68998
 H300 H 0.87148 0.18913 0.65147
 H301 H 0.84921 0.12874 0.68978
 H302 H 0.81108 0.12879 0.65095
 H303 H 0.81126 0.15076 0.62895
 H304 H 0.84969 0.18916 0.62928
 C305 C 0.35060 0.35153 0.67025
 C306 C 0.34323 0.36593 0.67752
 C307 C 0.32862 0.37302 0.67044
 C308 C 0.32130 0.36584 0.65597
 C309 C 0.32850 0.35143 0.64853
 C310 C 0.34321 0.34422 0.65568
 C311 C 0.36508 0.34417 0.67739
 C312 C 0.37218 0.32963 0.67016
 C313 C 0.36492 0.32239 0.65569
 C314 C 0.35043 0.32959 0.64839
 C315 C 0.34290 0.32230 0.63405
 C316 C 0.32829 0.32944 0.62702
 C317 C 0.32113 0.34397 0.63419
 H318 H 0.34876 0.37155 0.68877
 H319 H 0.30994 0.37139 0.65063
 H320 H 0.37076 0.34963 0.68863
 H321 H 0.37047 0.31109 0.65024
 H322 H 0.34830 0.31100 0.62844
 H323 H 0.30978 0.34936 0.62869
 C324 C 0.35125 0.85194 0.17032
 C325 C 0.34389 0.86634 0.17762
 C326 C 0.32931 0.87348 0.17050
 C327 C 0.32204 0.86635 0.15598
 C328 C 0.32923 0.85195 0.14852
 C329 C 0.34390 0.84469 0.15571
 C330 C 0.36570 0.84453 0.17749
 C331 C 0.37280 0.83000 0.17024
 C332 C 0.36558 0.82282 0.15572
 C333 C 0.35113 0.83007 0.14839
 C334 C 0.34364 0.82284 0.13400
 C335 C 0.32906 0.83003 0.12694
 C336 C 0.32191 0.84456 0.13413
 H337 H 0.34938 0.87191 0.18890
 H338 H 0.31071 0.87194 0.15061
 H339 H 0.37135 0.84995 0.18877
 H340 H 0.37113 0.81153 0.15026
 H341 H 0.34903 0.81155 0.12838
 H342 H 0.31058 0.84998 0.12861
 C343 C 0.85158 0.35133 0.17011
 C344 C 0.84419 0.36573 0.17738
 C345 C 0.82959 0.37282 0.17025
 C346 C 0.82231 0.36563 0.15577
 C347 C 0.82953 0.35123 0.14834
 C348 C 0.84423 0.34401 0.15553
 C349 C 0.86605 0.34397 0.17728
 C350 C 0.87317 0.32944 0.17007
 C351 C 0.86595 0.32220 0.15558
 C352 C 0.85147 0.32939 0.14825
 C353 C 0.84398 0.32210 0.13389
 C354 C 0.82938 0.32924 0.12683
 C355 C 0.82220 0.34377 0.13398
 H356 H 0.84968 0.37135 0.18864
 H357 H 0.81096 0.37117 0.15040
 H358 H 0.87170 0.34943 0.18854
 H359 H 0.87152 0.31091 0.15014
 H360 H 0.84939 0.31081 0.12829
 H361 H 0.81086 0.34916 0.12845
 C362 C 0.85096 0.85148 0.67083
 C363 C 0.84357 0.86582 0.67820
 C364 C 0.82898 0.87298 0.67114
 C365 C 0.82170 0.86591 0.65659
 C366 C 0.82891 0.85156 0.64905
 C367 C 0.84360 0.84429 0.65619
 C368 C 0.86542 0.84405 0.67795
 C369 C 0.87253 0.82957 0.67063
 C370 C 0.86530 0.82245 0.65608
 C371 C 0.85084 0.82971 0.64879
 C372 C 0.84334 0.82253 0.63438
 C373 C 0.82875 0.82974 0.62737
 C374 C 0.82158 0.84422 0.63464
 H375 H 0.84907 0.87135 0.68951
 H376 H 0.81035 0.87150 0.65127
 H377 H 0.87107 0.84942 0.68925
 H378 H 0.87086 0.81119 0.65055
 H379 H 0.84874 0.81128 0.62870
 H380 H 0.81024 0.84966 0.62915
 C381 C 0.64861 0.64885 0.67142
 C382 C 0.65605 0.63444 0.67862
 C383 C 0.67057 0.62733 0.67136
 C384 C 0.67771 0.63450 0.65679
 C385 C 0.67044 0.64891 0.64942
 C386 C 0.65583 0.65615 0.65676
 C387 C 0.63422 0.65624 0.67873
 C388 C 0.62705 0.67077 0.67157
 C389 C 0.63414 0.67800 0.65700
 C390 C 0.64853 0.67078 0.64953
 C391 C 0.65589 0.67805 0.63509
 C392 C 0.67040 0.67089 0.62788
 C393 C 0.67763 0.65635 0.63498
 H394 H 0.65066 0.62883 0.68994
 H395 H 0.68899 0.62893 0.65131
 H396 H 0.62867 0.65078 0.69005
 H397 H 0.62853 0.68929 0.65160
 H398 H 0.65043 0.68935 0.62953
 H399 H 0.68891 0.65094 0.62934
 C400 C 0.64861 0.14839 0.17089
 C401 C 0.65606 0.13400 0.17812
 C402 C 0.67060 0.12690 0.17089
 C403 C 0.67774 0.13406 0.15631
 C404 C 0.67045 0.14845 0.14891
 C405 C 0.65582 0.15567 0.15622
 C406 C 0.63420 0.15576 0.17818
 C407 C 0.62702 0.17028 0.17100
 C408 C 0.63411 0.17749 0.15642
 C409 C 0.64851 0.17029 0.14897
 C410 C 0.65587 0.17755 0.13453
 C411 C 0.67041 0.17039 0.12734
 C412 C 0.67765 0.15587 0.13447
 H413 H 0.65067 0.12840 0.18945
 H414 H 0.68904 0.12850 0.15085
 H415 H 0.62866 0.15032 0.18950
 H416 H 0.62849 0.18878 0.15100
 H417 H 0.65041 0.18883 0.12895
 H418 H 0.68894 0.15048 0.12885
 C419 C 0.14879 0.64883 0.17088
 C420 C 0.15622 0.63439 0.17805
 C421 C 0.17073 0.62728 0.17077
 C422 C 0.17787 0.63448 0.15621
 C423 C 0.17061 0.64891 0.14888
 C424 C 0.15601 0.65615 0.15623
 C425 C 0.13441 0.65621 0.17821
 C426 C 0.12725 0.67077 0.17109
 C427 C 0.13434 0.67802 0.15654
 C428 C 0.14872 0.67081 0.14904
 C429 C 0.15608 0.67810 0.13462
 C430 C 0.17059 0.67093 0.12739
 C431 C 0.17780 0.65637 0.13445
 H432 H 0.15083 0.62876 0.18936
 H433 H 0.18915 0.62891 0.15072
 H434 H 0.12887 0.65074 0.18952
 H435 H 0.12875 0.68934 0.15117
 H436 H 0.15064 0.68942 0.12908
 H437 H 0.18907 0.65096 0.12880
 C438 C 0.14802 0.14838 0.67167
 C439 C 0.15546 0.13393 0.67880
 C440 C 0.16990 0.12678 0.67144
 C441 C 0.17697 0.13394 0.65683
 C442 C 0.16970 0.14839 0.64953
 C443 C 0.15516 0.15566 0.65697
 C444 C 0.13370 0.15579 0.67908
 C445 C 0.12653 0.17036 0.67198
 C446 C 0.13355 0.17758 0.65738
 C447 C 0.14787 0.17033 0.64980
 C448 C 0.15515 0.17760 0.63533
 C449 C 0.16960 0.17039 0.62801
 C450 C 0.17682 0.15582 0.63505
 H451 H 0.15012 0.12832 0.69015
 H452 H 0.18820 0.12835 0.65127
 H453 H 0.12821 0.15035 0.69043
 H454 H 0.12794 0.18890 0.65203
 H455 H 0.14970 0.18892 0.62982
 H456 H 0.18805 0.15038 0.62933
 C457 C 0.35161 0.64890 0.32860
 C458 C 0.34420 0.63447 0.32144
 C459 C 0.32970 0.62736 0.32872
 C460 C 0.32255 0.63455 0.34327
 C461 C 0.32979 0.64898 0.35060
 C462 C 0.34438 0.65621 0.34325
 C463 C 0.36598 0.65627 0.32127
 C464 C 0.37313 0.67083 0.32839
 C465 C 0.36602 0.67807 0.34294
 C466 C 0.35165 0.67086 0.35044
 C467 C 0.34428 0.67815 0.36486
 C468 C 0.32978 0.67099 0.37209
 C469 C 0.32259 0.65643 0.36502
 H470 H 0.34960 0.62884 0.31013
 H471 H 0.31128 0.62898 0.34877
 H472 H 0.37154 0.65081 0.30997
 H473 H 0.37161 0.68938 0.34831
 H474 H 0.34971 0.68947 0.37039
 H475 H 0.31132 0.65103 0.37068
 C476 C 0.35146 0.14825 0.82842
 C477 C 0.34406 0.13383 0.82122
 C478 C 0.32960 0.12666 0.82852
 C479 C 0.32247 0.13378 0.84312
 C480 C 0.32970 0.14820 0.85048
 C481 C 0.34426 0.15550 0.84311
 C482 C 0.36579 0.15569 0.82107
 C483 C 0.37292 0.17024 0.82822
 C484 C 0.36584 0.17741 0.84282
 C485 C 0.35151 0.17014 0.85033
 C486 C 0.34417 0.17737 0.86480
 C487 C 0.32971 0.17014 0.87205
 C488 C 0.32253 0.15559 0.86495
 H489 H 0.34944 0.12826 0.80988
 H490 H 0.31124 0.12817 0.84863
 H491 H 0.37133 0.15027 0.80973
 H492 H 0.37142 0.18872 0.84821
 H493 H 0.34959 0.18867 0.87035
 H494 H 0.31129 0.15014 0.87063
 C495 C 0.85166 0.64852 0.82931
 C496 C 0.84426 0.63409 0.82213
 C497 C 0.82976 0.62697 0.82940
 C498 C 0.82259 0.63414 0.84395
 C499 C 0.82982 0.64857 0.85130
 C500 C 0.84442 0.65582 0.84396
 C501 C 0.86603 0.65591 0.82200
 C502 C 0.87316 0.67047 0.82913
 C503 C 0.86604 0.67769 0.84368
 C504 C 0.85167 0.67047 0.85117
 C505 C 0.84429 0.67774 0.86559
 C506 C 0.82979 0.67056 0.87281
 C507 C 0.82261 0.65601 0.86573
 H508 H 0.84966 0.62848 0.81082
 H509 H 0.81132 0.62857 0.84944
 H510 H 0.87159 0.65046 0.81068
 H511 H 0.87162 0.68900 0.84906
 H512 H 0.84971 0.68905 0.87113
 H513 H 0.81134 0.65059 0.87137
 C514 C 0.85215 0.14886 0.32862
 C515 C 0.84471 0.13444 0.32148
 C516 C 0.83021 0.12735 0.32878
 C517 C 0.82309 0.13456 0.34334
 C518 C 0.83036 0.14899 0.35065
 C519 C 0.84496 0.15620 0.34328
 C520 C 0.86653 0.15621 0.32127
 C521 C 0.87370 0.17076 0.32838
 C522 C 0.86663 0.17803 0.34293
 C523 C 0.85225 0.17084 0.35045
 C524 C 0.84491 0.17815 0.36488
 C525 C 0.83041 0.17101 0.37213
 C526 C 0.82319 0.15646 0.36508
 H527 H 0.85009 0.12880 0.31017
 H528 H 0.81182 0.12902 0.34885
 H529 H 0.87206 0.15073 0.30996
 H530 H 0.87224 0.18933 0.34829
 H531 H 0.85036 0.18946 0.37040
 H532 H 0.81192 0.15107 0.37075
 C533 C 0.64869 0.35110 0.32905
 C534 C 0.65604 0.36550 0.32174
 C535 C 0.67061 0.37264 0.32885
 C536 C 0.67790 0.36549 0.34336
 C537 C 0.67073 0.35110 0.35083
 C538 C 0.65606 0.34384 0.34365
 C539 C 0.63424 0.34371 0.32189
 C540 C 0.62716 0.32918 0.32915
 C541 C 0.63441 0.32199 0.34366
 C542 C 0.64886 0.32922 0.35098
 C543 C 0.65637 0.32198 0.36536
 C544 C 0.67094 0.32916 0.37242
 C545 C 0.67807 0.34369 0.36522
 H546 H 0.65053 0.37109 0.31046
 H547 H 0.68923 0.37107 0.34873
 H548 H 0.62858 0.34913 0.31062
 H549 H 0.62887 0.31070 0.34913
 H550 H 0.65099 0.31069 0.37100
 H551 H 0.68939 0.34911 0.37073
 C552 C 0.64850 0.85159 0.83008
 C553 C 0.65584 0.86603 0.82286
 C554 C 0.67040 0.87314 0.83003
 C555 C 0.67768 0.86594 0.84451
 C556 C 0.67051 0.85149 0.85190
 C557 C 0.65586 0.84426 0.84466
 C558 C 0.63408 0.84421 0.82286
 C559 C 0.62700 0.82964 0.83003
 C560 C 0.63423 0.82238 0.84451
 C561 C 0.64866 0.82959 0.85190
 C562 C 0.65616 0.82228 0.86625
 C563 C 0.67071 0.82945 0.87337
 C564 C 0.67784 0.84402 0.86625
 H565 H 0.65035 0.87167 0.81160
 H566 H 0.68899 0.87150 0.84992
 H567 H 0.62842 0.84969 0.81160
 H568 H 0.62870 0.81105 0.84992
 H569 H 0.65078 0.81096 0.87182
 H570 H 0.68915 0.84942 0.87182
 C571 C 0.14867 0.35151 0.83012
 C572 C 0.15601 0.36593 0.82285
 C573 C 0.17063 0.37299 0.82993
 C574 C 0.17796 0.36577 0.84438
 C575 C 0.17078 0.35136 0.85182
 C576 C 0.15607 0.34417 0.84466
 C577 C 0.13418 0.34417 0.82298
 C578 C 0.12710 0.32962 0.83019
 C579 C 0.13438 0.32236 0.84465
 C580 C 0.14887 0.32953 0.85195
 C581 C 0.15642 0.32221 0.86627
 C582 C 0.17103 0.32933 0.87330
 C583 C 0.17817 0.34387 0.86614
 H584 H 0.15048 0.37157 0.81161
 H585 H 0.18932 0.37130 0.84973
 H586 H 0.12848 0.34966 0.81175
 H587 H 0.12884 0.31105 0.85009
 H588 H 0.15103 0.31090 0.87187
 H589 H 0.18952 0.34924 0.87164
 C590 C 0.14858 0.85197 0.32931
 C591 C 0.15594 0.86638 0.32205
 C592 C 0.17050 0.87350 0.32919
 C593 C 0.17777 0.86634 0.34371
 C594 C 0.17058 0.85192 0.35114
 C595 C 0.15592 0.84468 0.34392
 C596 C 0.13415 0.84458 0.32211
 C597 C 0.12707 0.83004 0.32933
 C598 C 0.13428 0.82282 0.34384
 C599 C 0.14871 0.83004 0.35120
 C600 C 0.15620 0.82277 0.36558
 C601 C 0.17076 0.82994 0.37268
 C602 C 0.17790 0.84449 0.36552
 H603 H 0.15046 0.87198 0.31077
 H604 H 0.18908 0.87190 0.34910
 H605 H 0.12851 0.85002 0.31083
 H606 H 0.12874 0.81152 0.34928
 H607 H 0.15081 0.81147 0.37118
 H608 H 0.18921 0.84990 0.37107
 O609 O 0.27157 0.98418 0.24841
 O610 O 0.24820 1.01715 0.27161
 O611 O 0.24816 0.98420 0.27157
 O612 O 0.27162 1.01713 0.24845
 O613 O 0.25198 1.01721 0.22851
 O614 O 0.22851 0.98427 0.25162
 O615 O 0.22856 1.01723 0.25166
 O616 O 0.25192 0.98426 0.22846
 Cu617 Cu 0.26187 1.00066 0.26202
 Cu618 Cu 0.23826 1.00075 0.23805
 C619 C 0.26566 0.97862 0.23454
 C620 C 0.23446 1.02279 0.26552
 C621 C 0.23440 0.97864 0.26547
 C622 C 0.26574 1.02277 0.23461
 O623 O 0.27126 0.48372 0.74861
 O624 O 0.24806 0.51669 0.77199
 O625 O 0.24802 0.48373 0.77195
 O626 O 0.27131 0.51667 0.74867
 O627 O 0.25152 0.51675 0.72887
 O628 O 0.22823 0.48380 0.75215
 O629 O 0.22827 0.51676 0.75219
 O630 O 0.25146 0.48380 0.72881
 Cu631 Cu 0.26166 0.50019 0.76230
 Cu632 Cu 0.23788 0.50029 0.73851
 C633 C 0.26525 0.47816 0.73479
 C634 C 0.23428 0.52233 0.76601
 C635 C 0.23422 0.47817 0.76595
 C636 C 0.26532 0.52231 0.73486
 O637 O 0.75230 -0.01650 0.27192
 O638 O 0.72890 0.01637 0.24861
 O639 O 0.72895 -0.01659 0.24871
 O640 O 0.75227 0.01645 0.27181
 O641 O 0.77197 0.01640 0.25191
 O642 O 0.74864 -0.01663 0.22882
 O643 O 0.74859 0.01633 0.22871
 O644 O 0.77199 -0.01656 0.25202
 Cu645 Cu 0.73862 -0.00006 0.26227
 Cu646 Cu 0.76228 -0.00012 0.23836
 C647 C 0.76606 -0.02212 0.26588
 C648 C 0.73482 0.02194 0.23475
 C649 C 0.73489 -0.02222 0.23489
 C650 C 0.76603 0.02203 0.26573
 O651 O 0.74851 0.48345 0.72849
 O652 O 0.77184 0.51630 0.75182
 O653 O 0.77184 0.48335 0.75173
 O654 O 0.74849 0.51640 0.72860
 O655 O 0.72879 0.51634 0.74848
 O656 O 0.75213 0.48330 0.77160
 O657 O 0.75213 0.51625 0.77170
 O658 O 0.72880 0.48339 0.74837
 Cu659 Cu 0.76216 0.49988 0.73815
 Cu660 Cu 0.73847 0.49981 0.76204
 C661 C 0.73474 0.47784 0.73451
 C662 C 0.76590 0.52186 0.76567
 C663 C 0.76590 0.47771 0.76554
 C664 C 0.73473 0.52199 0.73466
 O665 O 0.27168 0.51636 0.25169
 O666 O 0.24836 0.48338 0.22852
 O667 O 0.24839 0.51634 0.22841
 O668 O 0.27161 0.48341 0.25184
 O669 O 0.25184 0.48353 0.27166
 O670 O 0.22863 0.51645 0.24823
 O671 O 0.22859 0.48350 0.24835
 O672 O 0.25192 0.51648 0.27152
 Cu673 Cu 0.26201 0.49986 0.23811
 Cu674 Cu 0.23825 0.50000 0.26194
 C675 C 0.26571 0.52203 0.26549
 C676 C 0.23457 0.47784 0.23455
 C677 C 0.23462 0.52199 0.23439
 C678 C 0.26562 0.47787 0.26568
 O679 O 0.77111 0.98381 0.74891
 O680 O 0.74774 1.01690 0.77192
 O681 O 0.74775 0.98395 0.77211
 O682 O 0.77110 1.01676 0.74871
 O683 O 0.75142 1.01666 0.72881
 O684 O 0.72806 0.98384 0.75220
 O685 O 0.72805 1.01680 0.75202
 O686 O 0.75142 0.98370 0.72900
 Cu687 Cu 0.76141 1.00036 0.76242
 Cu688 Cu 0.73775 1.00024 0.73850
 C689 C 0.76518 0.97813 0.73510
 C690 C 0.73398 1.02247 0.76583
 C691 C 0.73399 0.97832 0.76608
 C692 C 0.76518 1.02229 0.73484
 O693 O 0.75211 0.51651 0.22841
 O694 O 0.72866 0.48350 0.25144
 O695 O 0.72875 0.51646 0.25162
 O696 O 0.75204 0.48355 0.22825
 O697 O 0.77172 0.48339 0.24815
 O698 O 0.74844 0.51629 0.27152
 O699 O 0.74835 0.48334 0.27135
 O700 O 0.77180 0.51634 0.24831
 Cu701 Cu 0.73840 0.50002 0.23792
 Cu702 Cu 0.76206 0.49982 0.26184
 C703 C 0.76588 0.52203 0.23449
 C704 C 0.73458 0.47781 0.26526
 C705 C 0.73469 0.52196 0.26549
 C706 C 0.76578 0.47788 0.23428
 O707 O 0.24789 -0.01718 0.72838
 O708 O 0.27139 0.01576 0.75142
 O709 O 0.27140 -0.01720 0.75144
 O710 O 0.24789 0.01577 0.72836
 O711 O 0.22832 0.01578 0.74839
 O712 O 0.25183 -0.01718 0.77146
 O713 O 0.25183 0.01577 0.77145
 O714 O 0.22832 -0.01717 0.74840
 Cu715 Cu 0.26161 -0.00072 0.73788
 Cu716 Cu 0.23810 -0.00070 0.76195
 C717 C 0.23416 -0.02277 0.73453
 C718 C 0.26555 0.02136 0.76530
 C719 C 0.26556 -0.02279 0.76532
 C720 C 0.23416 0.02138 0.73451
 O721 O 0.24938 0.27098 0.98352
 O722 O 0.27275 0.24767 1.01648
 O723 O 0.27261 0.24767 0.98343
 O724 O 0.24950 0.27096 1.01656
 O725 O 0.22971 0.25123 1.01664
 O726 O 0.25281 0.22795 0.98351
 O727 O 0.25295 0.22795 1.01656
 O728 O 0.22959 0.25125 0.98361
 Cu729 Cu 0.26306 0.26131 0.99999
 Cu730 Cu 0.23927 0.23760 1.00009
 C731 C 0.23557 0.26503 0.97797
 C732 C 0.26676 0.23391 1.02212
 C733 C 0.26658 0.23391 0.97784
 C734 C 0.23573 0.26501 1.02222
 O735 O 0.27194 0.74835 0.51626
 O736 O 0.24868 0.77169 0.48327
 O737 O 0.24862 0.77155 0.51631
 O738 O 0.27198 0.74847 0.48322
 O739 O 0.25225 0.72867 0.48312
 O740 O 0.22889 0.75176 0.51620
 O741 O 0.22895 0.75190 0.48317
 O742 O 0.25221 0.72855 0.51616
 Cu743 Cu 0.26230 0.76201 0.49977
 Cu744 Cu 0.23858 0.73822 0.49965
 C745 C 0.26597 0.73454 0.52182
 C746 C 0.23491 0.76572 0.47762
 C747 C 0.23483 0.76553 0.52187
 C748 C 0.26603 0.73470 0.47755
 O749 O 0.27106 0.75220 -0.01673
 O750 O 0.24787 0.72896 0.01636
 O751 O 0.24787 0.72889 -0.01668
 O752 O 0.27105 0.75227 0.01630
 O753 O 0.25121 0.77199 0.01626
 O754 O 0.22803 0.74860 -0.01673
 O755 O 0.22803 0.74867 0.01631
 O756 O 0.25122 0.77191 -0.01678
 Cu757 Cu 0.26146 0.73859 -0.00018
 Cu758 Cu 0.23762 0.76228 -0.00024
 C759 C 0.26503 0.76595 -0.02238
 C760 C 0.23406 0.73492 0.02195
 C761 C 0.23406 0.73483 -0.02231
 C762 C 0.26502 0.76605 0.02188
 O763 O 0.27003 0.25121 0.48369
 O764 O 0.24669 0.22814 0.51678
 O765 O 0.24672 0.22804 0.48374
 O766 O 0.26998 0.25134 0.51672
 O767 O 0.25025 0.27116 0.51663
 O768 O 0.22698 0.24786 0.48365
 O769 O 0.22695 0.24795 0.51669
 O770 O 0.25030 0.27103 0.48359
 Cu771 Cu 0.26034 0.23768 0.50025
 Cu772 Cu 0.23662 0.26150 0.50013
 C773 C 0.26408 0.26499 0.47801
 C774 C 0.23291 0.23417 0.52236
 C775 C 0.23295 0.23405 0.47809
 C776 C 0.26402 0.26516 0.52227
 O777 O 0.74875 0.77129 0.98394
 O778 O 0.77200 0.74794 1.01695
 O779 O 0.77202 0.74803 0.98390
 O780 O 0.74875 0.77123 1.01697
 O781 O 0.72897 0.75148 1.01693
 O782 O 0.75225 0.72828 0.98386
 O783 O 0.75222 0.72820 1.01690
 O784 O 0.72898 0.75154 0.98390
 Cu785 Cu 0.76237 0.76161 1.00044
 Cu786 Cu 0.73861 0.73788 1.00039
 C787 C 0.73496 0.76533 0.97831
 C788 C 0.76600 0.73416 1.02253
 C789 C 0.76604 0.73427 0.97826
 C790 C 0.73496 0.76524 1.02257
 O791 O 0.72943 0.25178 0.51620
 O792 O 0.75281 0.22861 0.48318
 O793 O 0.75274 0.22857 0.51622
 O794 O 0.72946 0.25179 0.48316
 O795 O 0.74917 0.27160 0.48320
 O796 O 0.77246 0.24838 0.51627
 O797 O 0.77252 0.24842 0.48322
 O798 O 0.74914 0.27160 0.51623
 Cu799 Cu 0.73912 0.23819 0.49969
 Cu800 Cu 0.76281 0.26200 0.49973
 C801 C 0.73536 0.26558 0.52182
 C802 C 0.76659 0.23464 0.47759
 C803 C 0.76650 0.23458 0.52186
 C804 C 0.73540 0.26559 0.47757
 O805 O 0.74765 0.22846 0.01626
 O806 O 0.77079 0.25178 -0.01681
 O807 O 0.77091 0.25170 0.01622
 O808 O 0.74754 0.22854 -0.01678
 O809 O 0.72776 0.24831 -0.01667
 O810 O 0.75114 0.27147 0.01633
 O811 O 0.75101 0.27156 -0.01671
 O812 O 0.72787 0.24824 0.01637
 Cu813 Cu 0.76122 0.23813 -0.00029
 Cu814 Cu 0.73745 0.26189 -0.00016
 C815 C 0.73388 0.23444 0.02193
 C816 C 0.76478 0.26558 -0.02238
 C817 C 0.76495 0.26547 0.02188
 C818 C 0.73373 0.23454 -0.02233
 O819 O 0.72770 0.74849 0.48363
 O820 O 0.75091 0.77184 0.51662
 O821 O 0.75089 0.77179 0.48358
 O822 O 0.72773 0.74853 0.51667
 O823 O 0.74756 0.72881 0.51669
 O824 O 0.77073 0.75207 0.48360
 O825 O 0.77075 0.75212 0.51664
 O826 O 0.74753 0.72877 0.48365
 Cu827 Cu 0.73731 0.76215 0.50012
 Cu828 Cu 0.76114 0.73845 0.50014
 C829 C 0.73372 0.73472 0.47804
 C830 C 0.76472 0.76589 0.52223
 C831 C 0.76470 0.76584 0.47797
 C832 C 0.73376 0.73477 0.52231
 O833 O 1.01735 0.22843 0.25029
 O834 O 0.98436 0.25189 0.22720
 O835 O 1.01733 0.25187 0.22717
 O836 O 0.98438 0.22846 0.25034
 O837 O 0.98441 0.24807 0.27031
 O838 O 1.01736 0.27147 0.24713
 O839 O 0.98438 0.27150 0.24717
 O840 O 1.01739 0.24803 0.27026
 Cu841 Cu 1.00085 0.23818 0.23673
 Cu842 Cu 1.00089 0.26174 0.26073
 C843 C 1.02298 0.23430 0.26414
 C844 C 0.97876 0.26562 0.23332
 C845 C 1.02295 0.26559 0.23327
 C846 C 0.97880 0.23434 0.26421
 O847 O 0.48335 0.24822 0.77044
 O848 O 0.51628 0.27171 0.74733
 O849 O 0.48331 0.27168 0.74732
 O850 O 0.51632 0.24826 0.77044
 O851 O 0.51636 0.22867 0.75046
 O852 O 0.48335 0.25208 0.72734
 O853 O 0.51632 0.25212 0.72734
 O854 O 0.48339 0.22863 0.75045
 Cu855 Cu 0.49981 0.26194 0.76090
 Cu856 Cu 0.49986 0.23840 0.73688
 C857 C 0.47778 0.23449 0.76432
 C858 C 0.52190 0.26585 0.73346
 C859 C 0.47772 0.26581 0.73345
 C860 C 0.52195 0.23454 0.76432
 O861 O 0.01598 0.25217 0.77301
 O862 O -0.01693 0.22878 0.74978
 O863 O 0.01603 0.22873 0.74990
 O864 O -0.01700 0.25223 0.77289
 O865 O -0.01690 0.27183 0.75290
 O866 O 0.01612 0.24832 0.72991
 O867 O -0.01684 0.24838 0.72979
 O868 O 0.01607 0.27177 0.75302
 Cu869 Cu -0.00049 0.23850 0.76341
 Cu870 Cu -0.00038 0.26206 0.73939
 C871 C 0.02162 0.26589 0.76690
 C872 C -0.02247 0.23466 0.73589
 C873 C 0.02168 0.23458 0.73605
 C874 C -0.02256 0.26597 0.76675
 O875 O 0.48330 0.22792 0.24897
 O876 O 0.51624 0.25140 0.27206
 O877 O 0.48326 0.25131 0.27213
 O878 O 0.51627 0.22803 0.24889
 O879 O 0.51615 0.24768 0.22895
 O880 O 0.48315 0.27096 0.25220
 O881 O 0.51612 0.27105 0.25213
 O882 O 0.48318 0.24757 0.22903
 Cu883 Cu 0.49978 0.23768 0.26252
 Cu884 Cu 0.49964 0.26130 0.23857
 C885 C 0.47765 0.23381 0.23512
 C886 C 0.52178 0.26516 0.26597
 C887 C 0.47760 0.26504 0.26606
 C888 C 0.52182 0.23395 0.23502
 O889 O 1.01659 0.77125 0.74751
 O890 O 0.98367 0.74796 0.77082
 O891 O 1.01663 0.74789 0.77071
 O892 O 0.98362 0.77132 0.74761
 O893 O 0.98352 0.75165 0.72771
 O894 O 1.01654 0.72822 0.75081
 O895 O 0.98357 0.72829 0.75092
 O896 O 1.01649 0.75158 0.72760
 Cu897 Cu 1.00013 0.76159 0.76117
 Cu898 Cu 1.00002 0.73795 0.73725
 C899 C 1.02214 0.76532 0.73365
 C900 C 0.97803 0.73422 0.76479
 C901 C 1.02220 0.73413 0.76463
 C902 C 0.97796 0.76541 0.73379
 O903 O 0.51675 0.77194 0.24759
 O904 O 0.48379 0.74847 0.27066
 O905 O 0.51676 0.74846 0.27067
 O906 O 0.48378 0.77192 0.24755
 O907 O 0.48382 0.75234 0.22756
 O908 O 0.51679 0.72888 0.25067
 O909 O 0.48382 0.72889 0.25067
 O910 O 0.51679 0.75236 0.22759
 Cu911 Cu 0.50027 0.76217 0.26114
 Cu912 Cu 0.50030 0.73864 0.23711
 C913 C 0.52237 0.76608 0.23372
 C914 C 0.47820 0.73474 0.26453
 C915 C 0.52238 0.73474 0.26454
 C916 C 0.47820 0.76607 0.23368
 O917 O -0.01666 0.77152 0.25212
 O918 O 0.01638 0.74821 0.22896
 O919 O -0.01659 0.74809 0.22900
 O920 O 0.01631 0.77164 0.25208
 O921 O 0.01642 0.75203 0.27206
 O922 O -0.01647 0.72848 0.24898
 O923 O 0.01650 0.72860 0.24894
 O924 O -0.01655 0.75192 0.27210
 Cu925 Cu -0.00015 0.76184 0.23852
 Cu926 Cu -0.00002 0.73828 0.26253
 C927 C -0.02221 0.76563 0.26599
 C928 C 0.02206 0.73450 0.23506
 C929 C -0.02212 0.73433 0.23512
 C930 C 0.02195 0.76578 0.26594
 O931 O 0.51617 0.75210 0.77241
 O932 O 0.48325 0.72875 0.74915
 O933 O 0.51623 0.72874 0.74922
 O934 O 0.48320 0.75211 0.77234
 O935 O 0.48323 0.77178 0.75243
 O936 O 0.51626 0.74841 0.72930
 O937 O 0.48329 0.74842 0.72924
 O938 O 0.51620 0.77177 0.75250
 Cu939 Cu 0.49971 0.73844 0.76279
 Cu940 Cu 0.49975 0.76208 0.73886
 C941 C 0.52178 0.76585 0.76635
 C942 C 0.47768 0.73467 0.73529
 C943 C 0.52185 0.73466 0.73538
 C944 C 0.47760 0.76587 0.76626
 C945 C 0.38676 0.32107 0.32191
 C946 C 0.39877 0.31441 0.31526
 C947 C 0.41293 0.30632 0.30718
 C948 C 0.42016 0.29183 0.31438
 C949 C 0.43361 0.28368 0.30626
 C950 C 0.43988 0.28999 0.29091
 C951 C 0.43273 0.30455 0.28377
 C952 C 0.41929 0.31270 0.29189
 C953 C 0.45337 0.28131 0.28229
 C954 C 0.46451 0.27394 0.27494
 H955 H 0.41532 0.28676 0.32618
 H956 H 0.43901 0.27240 0.31187
 H957 H 0.43746 0.30952 0.27189
 H958 H 0.41376 0.32388 0.28620
 C959 C 0.38659 0.82205 0.82167
 C960 C 0.39863 0.81538 0.81509
 C961 C 0.41284 0.80727 0.80710
 C962 C 0.41955 0.81388 0.79206
 C963 C 0.43302 0.80571 0.78401
 C964 C 0.43984 0.79090 0.79096
 C965 C 0.43321 0.78437 0.80607
 C966 C 0.41973 0.79254 0.81412
 C967 C 0.45335 0.78220 0.78239
 C968 C 0.46451 0.77480 0.77509
 H969 H 0.41428 0.82525 0.78650
 H970 H 0.43803 0.81085 0.77231
 H971 H 0.43836 0.77290 0.81154
 H972 H 0.41461 0.78730 0.82572
 C973 C -0.11364 0.32224 0.82195
 C974 C -0.10158 0.31559 0.81538
 C975 C -0.08736 0.30748 0.80742
 C976 C -0.08073 0.31399 0.79230
 C977 C -0.06724 0.30581 0.78428
 C978 C -0.06034 0.29109 0.79133
 C979 C -0.06689 0.28466 0.80652
 C980 C -0.08038 0.29284 0.81454
 C981 C -0.04683 0.28237 0.78280
 C982 C -0.03566 0.27494 0.77553
 H983 H -0.08606 0.32528 0.78666
 H984 H -0.06230 0.31087 0.77252
 H985 H -0.06168 0.27326 0.81206
 H986 H -0.08544 0.28768 0.82620
 C987 C -0.11301 0.82183 0.32175
 C988 C -0.10101 0.81514 0.31512
 C989 C -0.08685 0.80701 0.30706
 C990 C -0.08012 0.81368 0.29206
 C991 C -0.06669 0.80550 0.28395
 C992 C -0.05993 0.79062 0.29081
 C993 C -0.06658 0.78402 0.30587
 C994 C -0.08001 0.79220 0.31398
 C995 C -0.04645 0.78193 0.28219
 C996 C -0.03530 0.77454 0.27485
 H997 H -0.08534 0.82510 0.28657
 H998 H -0.06167 0.81070 0.27228
 H999 H -0.06147 0.77250 0.31127
 H1000 H -0.08515 0.78691 0.32556
 C1001 C 0.61286 0.67840 0.32073
 C1002 C 0.60098 0.68506 0.31387
 C1003 C 0.58697 0.69315 0.30550
 C1004 C 0.57419 0.70092 0.31502
 C1005 C 0.56080 0.70911 0.30683
 C1006 C 0.56016 0.70957 0.28909
 C1007 C 0.57289 0.70171 0.27958
 C1008 C 0.58626 0.69352 0.28777
 C1009 C 0.54663 0.71833 0.28061
 C1010 C 0.53547 0.72577 0.27335
 H1011 H 0.57463 0.70073 0.32874
 H1012 H 0.55104 0.71518 0.31430
 H1013 H 0.57253 0.70201 0.26586
 H1014 H 0.59610 0.68758 0.28029
 C1015 C 0.61262 0.17845 0.82043
 C1016 C 0.60069 0.18509 0.81362
 C1017 C 0.58663 0.19312 0.80532
 C1018 C 0.58459 0.19151 0.78775
 C1019 C 0.57118 0.19966 0.77958
 C1020 C 0.55974 0.20945 0.78893
 C1021 C 0.56170 0.21098 0.80651
 C1022 C 0.57512 0.20283 0.81469
 C1023 C 0.54622 0.21818 0.78041
 C1024 C 0.53505 0.22560 0.77314
 H1025 H 0.59343 0.18407 0.78038
 H1026 H 0.56980 0.19842 0.76598
 H1027 H 0.55295 0.21855 0.81385
 H1028 H 0.57660 0.20419 0.82827
 C1029 C 1.11285 0.67806 0.82079
 C1030 C 1.10091 0.68467 0.81397
 C1031 C 1.08684 0.69269 0.80566
 C1032 C 1.08494 0.69125 0.78806
 C1033 C 1.07154 0.69939 0.77988
 C1034 C 1.05997 0.70902 0.78924
 C1035 C 1.06180 0.71038 0.80685
 C1036 C 1.07522 0.70223 0.81504
 C1037 C 1.04645 0.71776 0.78072
 C1038 C 1.03529 0.72518 0.77345
 H1039 H 1.09388 0.68393 0.78068
 H1040 H 1.07026 0.69829 0.76625
 H1041 H 1.05295 0.71782 0.81421
 H1042 H 1.07659 0.70346 0.82865
 C1043 C 1.11346 0.17804 0.32042
 C1044 C 1.10157 0.18470 0.31355
 C1045 C 1.08756 0.19276 0.30518
 C1046 C 1.07524 0.20128 0.31466
 C1047 C 1.06185 0.20946 0.30645
 C1048 C 1.06074 0.20915 0.28873
 C1049 C 1.07302 0.20054 0.27926
 C1050 C 1.08639 0.19237 0.28747
 C1051 C 1.04723 0.21790 0.28022
 C1052 C 1.03607 0.22533 0.27295
 H1053 H 1.07604 0.20169 0.32836
 H1054 H 1.05245 0.21610 0.31389
 H1055 H 1.07230 0.20025 0.26556
 H1056 H 1.09587 0.18585 0.28001
 C1057 C 0.61279 0.32191 0.67786
 C1058 C 0.60077 0.31530 0.68450
 C1059 C 0.58658 0.30727 0.69259
 C1060 C 0.57785 0.29427 0.68432
 C1061 C 0.56439 0.28612 0.69241
 C1062 C 0.55961 0.29095 0.70881
 C1063 C 0.56827 0.30404 0.71703
 C1064 C 0.58172 0.31218 0.70894
 C1065 C 0.54612 0.28223 0.71735
 C1066 C 0.53497 0.27481 0.72464
 H1067 H 0.58153 0.29034 0.67169
 H1068 H 0.55781 0.27599 0.68595
 H1069 H 0.56470 0.30784 0.72973
 H1070 H 0.58842 0.32219 0.71547
 C1071 C 0.61341 0.82214 0.17836
 C1072 C 0.60135 0.81554 0.18494
 C1073 C 0.58713 0.80748 0.19294
 C1074 C 0.57990 0.79305 0.18566
 C1075 C 0.56641 0.78490 0.19371
 C1076 C 0.56011 0.79116 0.20907
 C1077 C 0.56725 0.80567 0.21628
 C1078 C 0.58074 0.81382 0.20823
 C1079 C 0.54661 0.78246 0.21763
 C1080 C 0.53545 0.77505 0.22492
 H1081 H 0.58477 0.78802 0.17386
 H1082 H 0.56101 0.77366 0.18804
 H1083 H 0.56251 0.81059 0.22818
 H1084 H 0.58626 0.82495 0.21399
 C1085 C 1.11398 0.32161 0.17784
 C1086 C 1.10193 0.31497 0.18442
 C1087 C 1.08771 0.30690 0.19241
 C1088 C 1.08089 0.31361 0.20735
 C1089 C 1.06741 0.30546 0.21540
 C1090 C 1.06069 0.29058 0.20854
 C1091 C 1.06743 0.28394 0.19353
 C1092 C 1.08091 0.29209 0.18548
 C1093 C 1.04718 0.28191 0.21712
 C1094 C 1.03603 0.27452 0.22443
 H1095 H 1.08608 0.32503 0.21284
 H1096 H 1.06232 0.31068 0.22702
 H1097 H 1.06236 0.27242 0.18814
 H1098 H 1.08612 0.28677 0.17395
 C1099 C 1.11303 0.82127 0.67792
 C1100 C 1.10100 0.81461 0.68452
 C1101 C 1.08681 0.80652 0.69253
 C1102 C 1.08061 0.79121 0.68616
 C1103 C 1.06715 0.78307 0.69425
 C1104 C 1.05983 0.79021 0.70875
 C1105 C 1.06596 0.80559 0.71505
 C1106 C 1.07942 0.81373 0.70696
 C1107 C 1.04635 0.78157 0.71739
 C1108 C 1.03520 0.77421 0.72475
 H1109 H 1.08626 0.78550 0.67503
 H1110 H 1.06254 0.77116 0.68930
 H1111 H 1.06042 0.81120 0.72628
 H1112 H 1.08415 0.82554 0.71202
 C1113 C 0.38721 0.67857 0.67904
 C1114 C 0.39917 0.68523 0.68576
 C1115 C 0.41328 0.69332 0.69392
 C1116 C 0.41950 0.68699 0.70929
 C1117 C 0.43289 0.69515 0.71748
 C1118 C 0.44011 0.70967 0.71034
 C1119 C 0.43396 0.71592 0.69491
 C1120 C 0.42057 0.70777 0.68672
 C1121 C 0.45354 0.71835 0.71902
 C1122 C 0.46464 0.72574 0.72639
 H1123 H 0.41393 0.67585 0.71499
 H1124 H 0.43752 0.69023 0.72943
 H1125 H 0.43942 0.72716 0.68929
 H1126 H 0.41583 0.71279 0.67486
 C1127 C 0.38713 0.17755 0.17911
 C1128 C 0.39909 0.18418 0.18585
 C1129 C 0.41320 0.19225 0.19403
 C1130 C 0.42209 0.20512 0.18571
 C1131 C 0.43549 0.21329 0.19387
 C1132 C 0.44004 0.20864 0.21038
 C1133 C 0.43122 0.19569 0.21866
 C1134 C 0.41783 0.18751 0.21050
 C1135 C 0.45349 0.21738 0.21898
 C1136 C 0.46460 0.22482 0.22629
 H1137 H 0.41859 0.20890 0.17299
 H1138 H 0.44220 0.22331 0.18737
 H1139 H 0.43461 0.19201 0.23144
 H1140 H 0.41101 0.17761 0.21707
 C1141 C -0.11265 0.67782 0.17941
 C1142 C -0.10068 0.68450 0.18608
 C1143 C -0.08656 0.69265 0.19415
 C1144 C -0.07931 0.70707 0.18685
 C1145 C -0.06591 0.71529 0.19495
 C1146 C -0.05970 0.70912 0.21040
 C1147 C -0.06687 0.69463 0.21764
 C1148 C -0.08027 0.68641 0.20953
 C1149 C -0.04626 0.71787 0.21899
 C1150 C -0.03516 0.72533 0.22630
 H1151 H -0.08410 0.71202 0.17498
 H1152 H -0.06048 0.72651 0.18926
 H1153 H -0.06220 0.68977 0.22959
 H1154 H -0.08581 0.67529 0.21531
 C1155 C -0.11274 0.17844 0.67943
 C1156 C -0.10082 0.18508 0.68623
 C1157 C -0.08676 0.19315 0.69449
 C1158 C -0.08237 0.18858 0.71107
 C1159 C -0.06902 0.19676 0.71930
 C1160 C -0.06000 0.20954 0.71098
 C1161 C -0.06431 0.21403 0.69435
 C1162 C -0.07767 0.20585 0.68613
 C1163 C -0.04659 0.21828 0.71963
 C1164 C -0.03550 0.22570 0.72700
 H1165 H -0.08934 0.17880 0.71767
 H1166 H -0.06581 0.19321 0.73217
 H1167 H -0.05745 0.22392 0.68781
 H1168 H -0.08098 0.20951 0.67332
 C1169 C 0.32118 0.38700 0.32192
 C1170 C 0.31458 0.39903 0.31526
 C1171 C 0.30656 0.41323 0.30717
 C1172 C 0.31392 0.42063 0.29283
 C1173 C 0.30584 0.43409 0.28465
 C1174 C 0.29038 0.44019 0.29078
 C1175 C 0.28308 0.43287 0.30520
 C1176 C 0.29115 0.41942 0.31338
 C1177 C 0.28179 0.45368 0.28205
 C1178 C 0.27448 0.46481 0.27463
 H1179 H 0.32580 0.41591 0.28790
 H1180 H 0.31157 0.43963 0.27348
 H1181 H 0.27110 0.43747 0.31002
 H1182 H 0.28533 0.41376 0.32444
 C1183 C 0.32190 -0.11344 0.82116
 C1184 C 0.31524 -0.10146 0.81447
 C1185 C 0.30711 -0.08733 0.80638
 C1186 C 0.31354 -0.08089 0.79114
 C1187 C 0.30535 -0.06748 0.78301
 C1188 C 0.29069 -0.06044 0.79009
 C1189 C 0.28434 -0.06680 0.80539
 C1190 C 0.29253 -0.08021 0.81351
 C1191 C 0.28197 -0.04698 0.78147
 C1192 C 0.27454 -0.03585 0.77415
 H1193 H 0.32478 -0.08633 0.78549
 H1194 H 0.31034 -0.06268 0.77116
 H1195 H 0.27300 -0.06148 0.81095
 H1196 H 0.28743 -0.08512 0.82527
 C1197 C 0.82171 0.38679 0.82149
 C1198 C 0.81509 0.39879 0.81481
 C1199 C 0.80704 0.41297 0.80670
 C1200 C 0.81381 0.41970 0.79175
 C1201 C 0.80570 0.43316 0.78360
 C1202 C 0.79079 0.43994 0.79038
 C1203 C 0.78409 0.43328 0.80540
 C1204 C 0.79220 0.41983 0.81355
 C1205 C 0.78216 0.45344 0.78173
 C1206 C 0.77481 0.46460 0.77439
 H1207 H 0.82526 0.41447 0.78633
 H1208 H 0.81097 0.43818 0.77197
 H1209 H 0.77255 0.43840 0.81073
 H1210 H 0.78683 0.41469 0.82508
 C1211 C 0.82185 -0.11297 0.32196
 C1212 C 0.81525 -0.10094 0.31529
 C1213 C 0.80721 -0.08675 0.30719
 C1214 C 0.81411 -0.07988 0.29236
 C1215 C 0.80601 -0.06643 0.28420
 C1216 C 0.79098 -0.05979 0.29085
 C1217 C 0.78415 -0.06657 0.30575
 C1218 C 0.79225 -0.08003 0.31391
 C1219 C 0.78235 -0.04631 0.28217
 C1220 C 0.77499 -0.03517 0.27479
 H1221 H 0.82565 -0.08502 0.28704
 H1222 H 0.81138 -0.06131 0.27266
 H1223 H 0.77251 -0.06156 0.31098
 H1224 H 0.78679 -0.08527 0.32535
 C1225 C 0.32146 0.61291 0.67886
 C1226 C 0.31477 0.60094 0.68552
 C1227 C 0.30663 0.58682 0.69360
 C1228 C 0.31375 0.57956 0.70815
 C1229 C 0.30559 0.56615 0.71629
 C1230 C 0.29026 0.55995 0.70993
 C1231 C 0.28320 0.56712 0.69531
 C1232 C 0.29137 0.58053 0.68717
 C1233 C 0.28160 0.54649 0.71859
 C1234 C 0.27423 0.53537 0.72596
 H1235 H 0.32553 0.58436 0.71326
 H1236 H 0.31114 0.56073 0.72761
 H1237 H 0.27134 0.56244 0.69030
 H1238 H 0.28573 0.58607 0.67595
 C1239 C 0.32236 1.11322 0.17885
 C1240 C 0.31561 1.10128 0.18550
 C1241 C 0.30740 1.08718 0.19356
 C1242 C 0.31442 1.07994 0.20816
 C1243 C 0.30618 1.06655 0.21627
 C1244 C 0.29089 1.06036 0.20981
 C1245 C 0.28393 1.06753 0.19514
 C1246 C 0.29217 1.08091 0.18703
 C1247 C 0.28215 1.04692 0.21844
 C1248 C 0.27471 1.03581 0.22576
 H1249 H 0.32617 1.08472 0.21333
 H1250 H 0.31165 1.06113 0.22763
 H1251 H 0.27209 1.06286 0.19007
 H1252 H 0.28662 1.08644 0.17577
 C1253 C 0.82205 0.61285 0.17888
 C1254 C 0.81539 0.60085 0.18552
 C1255 C 0.80729 0.58668 0.19357
 C1256 C 0.79252 0.57982 0.18660
 C1257 C 0.78435 0.56637 0.19469
 C1258 C 0.79093 0.55975 0.20978
 C1259 C 0.80576 0.56653 0.21669
 C1260 C 0.81393 0.57998 0.20860
 C1261 C 0.78224 0.54626 0.21838
 C1262 C 0.77484 0.53511 0.22568
 H1263 H 0.78725 0.58493 0.17500
 H1264 H 0.77287 0.56125 0.18926
 H1265 H 0.81093 0.56153 0.22838
 H1266 H 0.82532 0.58522 0.21412
 C1267 C 0.82153 1.11276 0.67886
 C1268 C 0.81481 1.10079 0.68549
 C1269 C 0.80664 1.08667 0.69354
 C1270 C 0.79133 1.08047 0.68714
 C1271 C 0.78313 1.06707 0.69527
 C1272 C 0.79021 1.05982 0.70984
 C1273 C 0.80558 1.06593 0.71617
 C1274 C 0.81379 1.07933 0.70803
 C1275 C 0.78150 1.04639 0.71851
 C1276 C 0.77411 1.03530 0.72590
 H1277 H 0.78567 1.08608 0.67597
 H1278 H 0.77122 1.06247 0.69030
 H1279 H 0.81115 1.06044 0.72744
 H1280 H 0.82560 1.08405 0.71311
 C1281 C 0.67854 0.61259 0.32149
 C1282 C 0.68525 0.60060 0.31488
 C1283 C 0.69340 0.58646 0.30682
 C1284 C 0.68595 0.57879 0.29267
 C1285 C 0.69412 0.56537 0.28453
 C1286 C 0.70977 0.55957 0.29051
 C1287 C 0.71715 0.56716 0.30473
 C1288 C 0.70898 0.58058 0.31288
 C1289 C 0.71843 0.54612 0.28182
 C1290 C 0.72580 0.53501 0.27442
 H1291 H 0.67392 0.58326 0.28786
 H1292 H 0.68832 0.55962 0.27351
 H1293 H 0.72927 0.56281 0.30944
 H1294 H 0.71487 0.58645 0.32378
 C1295 C 0.67794 1.11344 0.82140
 C1296 C 0.68461 1.10143 0.81479
 C1297 C 0.69271 1.08725 0.80675
 C1298 C 0.70784 1.08078 0.81335
 C1299 C 0.71598 1.06732 0.80525
 C1300 C 0.70903 1.06027 0.79054
 C1301 C 0.69384 1.06666 0.78401
 C1302 C 0.68569 1.08012 0.79211
 C1303 C 0.71768 1.04676 0.78193
 C1304 C 0.72505 1.03558 0.77463
 H1305 H 0.71340 1.08622 0.82464
 H1306 H 0.72775 1.06250 0.81039
 H1307 H 0.68837 1.06133 0.77262
 H1308 H 0.67402 1.08505 0.78688
 C1309 C 0.17825 0.61313 0.82185
 C1310 C 0.18495 0.60113 0.81525
 C1311 C 0.19308 0.58696 0.80723
 C1312 C 0.20870 0.58113 0.81325
 C1313 C 0.21686 0.56768 0.80514
 C1314 C 0.20943 0.56002 0.79097
 C1315 C 0.19375 0.56577 0.78503
 C1316 C 0.18560 0.57922 0.79314
 C1317 C 0.21807 0.54654 0.78231
 C1318 C 0.22542 0.53540 0.77493
 H1319 H 0.21462 0.58705 0.82411
 H1320 H 0.22899 0.56336 0.80982
 H1321 H 0.18792 0.55997 0.77406
 H1322 H 0.17354 0.58366 0.78835
 C1323 C 0.17801 1.11342 0.32122
 C1324 C 0.18475 1.10144 0.31462
 C1325 C 0.19293 1.08731 0.30658
 C1326 C 0.20808 1.08091 0.31318
 C1327 C 0.21630 1.06750 0.30508
 C1328 C 0.20939 1.06043 0.29035
 C1329 C 0.19417 1.06675 0.28382
 C1330 C 0.18595 1.08016 0.29192
 C1331 C 0.21811 1.04697 0.28173
 C1332 C 0.22552 1.03585 0.27439
 H1333 H 0.21360 1.08637 0.32449
 H1334 H 0.22808 1.06273 0.31022
 H1335 H 0.18874 1.06141 0.27242
 H1336 H 0.17426 1.08504 0.28669
 C1337 C 0.67870 0.38742 0.67820
 C1338 C 0.68536 0.39937 0.68491
 C1339 C 0.69347 0.41348 0.69304
 C1340 C 0.68623 0.42080 0.70749
 C1341 C 0.69438 0.43418 0.71568
 C1342 C 0.70981 0.44030 0.70946
 C1343 C 0.71698 0.43306 0.69494
 C1344 C 0.70883 0.41967 0.68675
 C1345 C 0.71845 0.45372 0.71818
 C1346 C 0.72582 0.46482 0.72558
 H1347 H 0.67438 0.41608 0.71248
 H1348 H 0.68874 0.43966 0.72692
 H1349 H 0.72892 0.43766 0.69005
 H1350 H 0.71456 0.41408 0.67561
 C1351 C 0.67881 -0.11298 0.17913
 C1352 C 0.68558 -0.10106 0.18579
 C1353 C 0.69386 -0.08700 0.19383
 C1354 C 0.71134 -0.08483 0.19198
 C1355 C 0.71950 -0.07141 0.20009
 C1356 C 0.71021 -0.06009 0.21008
 C1357 C 0.69271 -0.06219 0.21186
 C1358 C 0.68454 -0.07563 0.20374
 C1359 C 0.71872 -0.04654 0.21874
 C1360 C 0.72602 -0.03534 0.22607
 H1361 H 0.71866 -0.09357 0.18437
 H1362 H 0.73304 -0.06992 0.19866
 H1363 H 0.68541 -0.05353 0.21958
 H1364 H 0.67102 -0.07720 0.20528
 C1365 C 0.17888 0.38697 0.17861
 C1366 C 0.18547 0.39898 0.18528
 C1367 C 0.19349 0.41316 0.19338
 C1368 C 0.20814 0.42023 0.18637
 C1369 C 0.21623 0.43368 0.19451
 C1370 C 0.20969 0.44012 0.20970
 C1371 C 0.19497 0.43313 0.21665
 C1372 C 0.18688 0.41967 0.20851
 C1373 C 0.21831 0.45361 0.21835
 C1374 C 0.22566 0.46476 0.22569
 H1375 H 0.21338 0.41526 0.17470
 H1376 H 0.22763 0.43897 0.18905
 H1377 H 0.18984 0.43798 0.22841
 H1378 H 0.17559 0.41427 0.21407
 C1379 C 0.17795 -0.11339 0.67871
 C1380 C 0.18459 -0.10142 0.68540
 C1381 C 0.19267 -0.08728 0.69351
 C1382 C 0.20681 -0.07968 0.68600
 C1383 C 0.21498 -0.06626 0.69413
 C1384 C 0.20904 -0.06040 0.70979
 C1385 C 0.19483 -0.06793 0.71724
 C1386 C 0.18666 -0.08134 0.70911
 C1387 C 0.21776 -0.04695 0.71840
 C1388 C 0.22518 -0.03583 0.72571
 H1389 H 0.21158 -0.08420 0.67396
 H1390 H 0.22598 -0.06056 0.68828
 H1391 H 0.19016 -0.06352 0.72937
 H1392 H 0.17577 -0.08716 0.71505
 C1393 C 0.32059 0.32081 0.38736
 C1394 C 0.31386 0.31406 0.39928
 C1395 C 0.30571 0.30583 0.41334
 C1396 C 0.29486 0.31497 0.42398
 C1397 C 0.28663 0.30684 0.43739
 C1398 C 0.28922 0.28954 0.44021
 C1399 C 0.30015 0.28043 0.42963
 C1400 C 0.30838 0.28856 0.41622
 C1401 C 0.28045 0.28105 0.45372
 C1402 C 0.27301 0.27379 0.46490
 H1403 H 0.29268 0.32832 0.42184
 H1404 H 0.27818 0.31399 0.44547
 H1405 H 0.30222 0.26705 0.43167
 H1406 H 0.31671 0.28137 0.40805
 C1407 C 0.32123 0.82174 -0.11322
 C1408 C 0.31451 0.81511 -0.10123
 C1409 C 0.30636 0.80706 -0.08707
 C1410 C 0.31339 0.79246 -0.07989
 C1411 C 0.30520 0.78436 -0.06644
 C1412 C 0.28995 0.79081 -0.06013
 C1413 C 0.28298 0.80548 -0.06724
 C1414 C 0.29117 0.81359 -0.08068
 C1415 C 0.28127 0.78219 -0.04664
 C1416 C 0.27390 0.77484 -0.03548
 H1417 H 0.32511 0.78729 -0.08476
 H1418 H 0.31068 0.77300 -0.06107
 H1419 H 0.27117 0.81056 -0.06248
 H1420 H 0.28560 0.82484 -0.08617
 C1421 C 0.82085 0.32172 -0.11311
 C1422 C 0.81413 0.31505 -0.10114
 C1423 C 0.80598 0.30693 -0.08702
 C1424 C 0.81315 0.29244 -0.07974
 C1425 C 0.80498 0.28428 -0.06632
 C1426 C 0.78962 0.29056 -0.06012
 C1427 C 0.78250 0.30512 -0.06731
 C1428 C 0.79067 0.31328 -0.08074
 C1429 C 0.78097 0.28188 -0.04663
 C1430 C 0.77363 0.27450 -0.03548
 H1431 H 0.82496 0.28740 -0.08453
 H1432 H 0.81057 0.27301 -0.06088
 H1433 H 0.77061 0.31006 -0.06264
 H1434 H 0.78499 0.32445 -0.08629
 C1435 C 0.82091 0.82191 0.38730
 C1436 C 0.81419 0.81524 0.39926
 C1437 C 0.80602 0.80713 0.41338
 C1438 C 0.81299 0.79243 0.42043
 C1439 C 0.80480 0.78428 0.43384
 C1440 C 0.78961 0.79078 0.44026
 C1441 C 0.78271 0.80554 0.43329
 C1442 C 0.79090 0.81370 0.41988
 C1443 C 0.78094 0.78211 0.45373
 C1444 C 0.77358 0.77474 0.46488
 H1445 H 0.82466 0.78723 0.41548
 H1446 H 0.81023 0.77285 0.43911
 H1447 H 0.77095 0.81066 0.43813
 H1448 H 0.78538 0.82503 0.41450
 C1449 C 0.67896 0.32165 0.61239
 C1450 C 0.68568 0.31495 0.60044
 C1451 C 0.69384 0.30682 0.58632
 C1452 C 0.70838 0.31394 0.57913
 C1453 C 0.71659 0.30578 0.56573
 C1454 C 0.71028 0.29046 0.55947
 C1455 C 0.69567 0.28339 0.56659
 C1456 C 0.68747 0.29156 0.57998
 C1457 C 0.71901 0.28180 0.54602
 C1458 C 0.72642 0.27445 0.53489
 H1459 H 0.71344 0.32571 0.58396
 H1460 H 0.72790 0.31133 0.56035
 H1461 H 0.69071 0.27153 0.56187
 H1462 H 0.67625 0.28592 0.58548
 C1463 C 0.67879 0.82133 1.11327
 C1464 C 0.68551 0.81465 1.10131
 C1465 C 0.69368 0.80655 1.08718
 C1466 C 0.68603 0.79269 1.07923
 C1467 C 0.69420 0.78453 1.06581
 C1468 C 0.71006 0.79019 1.06029
 C1469 C 0.71765 0.80412 1.06817
 C1470 C 0.70948 0.81228 1.08159
 C1471 C 0.71870 0.78150 1.04681
 C1472 C 0.72606 0.77413 1.03566
 H1473 H 0.67383 0.78814 1.08348
 H1474 H 0.68823 0.77375 1.05983
 H1475 H 0.72993 0.80858 1.06403
 H1476 H 0.71552 0.82296 1.08767
 C1477 C 0.17952 0.32108 1.11292
 C1478 C 0.18627 0.31441 1.10097
 C1479 C 0.19445 0.30630 1.08685
 C1480 C 0.18728 0.29186 1.07952
 C1481 C 0.19547 0.28371 1.06611
 C1482 C 0.21087 0.28996 1.05997
 C1483 C 0.21799 0.30446 1.06722
 C1484 C 0.20980 0.31262 1.08064
 C1485 C 0.21953 0.28129 1.04649
 C1486 C 0.22688 0.27392 1.03533
 H1487 H 0.17544 0.28685 1.08426
 H1488 H 0.18987 0.27248 1.06062
 H1489 H 0.22991 0.30938 1.06260
 H1490 H 0.21547 0.32375 1.08624
 C1491 C 0.17834 0.82100 0.61275
 C1492 C 0.18508 0.81440 0.60075
 C1493 C 0.19327 0.80639 0.58659
 C1494 C 0.20851 0.81288 0.58031
 C1495 C 0.21674 0.80482 0.56686
 C1496 C 0.20976 0.79023 0.55964
 C1497 C 0.19446 0.78380 0.56585
 C1498 C 0.18623 0.79186 0.57930
 C1499 C 0.21848 0.78165 0.54614
 C1500 C 0.22589 0.77435 0.53498
 H1501 H 0.21408 0.82408 0.58588
 H1502 H 0.22858 0.80988 0.56218
 H1503 H 0.18897 0.77250 0.56039
 H1504 H 0.17448 0.78671 0.58409
 C1505 C 0.32173 0.67856 0.61288
 C1506 C 0.31511 0.68521 0.60084
 C1507 C 0.30706 0.69329 0.58663
 C1508 C 0.31401 0.70802 0.57966
 C1509 C 0.30590 0.71615 0.56617
 C1510 C 0.29081 0.70959 0.55960
 C1511 C 0.28393 0.69479 0.56649
 C1512 C 0.29204 0.68666 0.57997
 C1513 C 0.28219 0.71826 0.54609
 C1514 C 0.27485 0.72563 0.53492
 H1515 H 0.32559 0.71328 0.58474
 H1516 H 0.31131 0.72761 0.56098
 H1517 H 0.27225 0.68963 0.56153
 H1518 H 0.28653 0.67529 0.58529
 C1519 C 0.32259 0.17800 1.11317
 C1520 C 0.31600 0.18465 1.10111
 C1521 C 0.30798 0.19273 1.08689
 C1522 C 0.29354 0.18554 1.07955
 C1523 C 0.28543 0.19366 1.06607
 C1524 C 0.29172 0.20902 1.05986
 C1525 C 0.30623 0.21614 1.06711
 C1526 C 0.31435 0.20801 1.08059
 C1527 C 0.28306 0.21766 1.04636
 C1528 C 0.27568 0.22501 1.03520
 H1529 H 0.28849 0.17374 1.08435
 H1530 H 0.27419 0.18807 1.06058
 H1531 H 0.31118 0.22803 1.06244
 H1532 H 0.32548 0.21370 1.08620
 C1533 C 0.82169 0.67789 1.11346
 C1534 C 0.81506 0.68458 1.10144
 C1535 C 0.80702 0.69272 1.08726
 C1536 C 0.81382 0.70765 1.08056
 C1537 C 0.80573 0.71584 1.06710
 C1538 C 0.79081 0.70914 1.06028
 C1539 C 0.78408 0.69415 1.06691
 C1540 C 0.79217 0.68596 1.08037
 C1541 C 0.78220 0.71784 1.04678
 C1542 C 0.77487 0.72524 1.03563
 H1543 H 0.82527 0.71301 1.08582
 H1544 H 0.81102 0.72744 1.06210
 H1545 H 0.77253 0.68888 1.06176
 H1546 H 0.78679 0.67445 1.08548
 C1547 C 0.82205 0.17853 0.61300
 C1548 C 0.81548 0.18520 0.60095
 C1549 C 0.80747 0.19331 0.58673
 C1550 C 0.81423 0.20827 0.58006
 C1551 C 0.80616 0.21643 0.56657
 C1552 C 0.79131 0.20966 0.55968
 C1553 C 0.78462 0.19464 0.56627
 C1554 C 0.79269 0.18648 0.57976
 C1555 C 0.78271 0.21833 0.54616
 C1556 C 0.77538 0.22570 0.53498
 H1557 H 0.82564 0.21368 0.58538
 H1558 H 0.81142 0.22806 0.56160
 H1559 H 0.77312 0.18932 0.56107
 H1560 H 0.78733 0.17494 0.58484
 C1561 C 0.67805 0.67848 0.38718
 C1562 C 0.68465 0.68517 0.39920
 C1563 C 0.69267 0.69330 0.41338
 C1564 C 0.68597 0.70833 0.41996
 C1565 C 0.69406 0.71651 0.43341
 C1566 C 0.70889 0.70970 0.44034
 C1567 C 0.71553 0.69461 0.43384
 C1568 C 0.70743 0.68643 0.42039
 C1569 C 0.71751 0.71840 0.45382
 C1570 C 0.72485 0.72579 0.46496
 H1571 H 0.67458 0.71378 0.41461
 H1572 H 0.68885 0.72819 0.43831
 H1573 H 0.72701 0.68926 0.43907
 H1574 H 0.71275 0.67484 0.41537
 C1575 C 0.67797 0.17854 -0.11328
 C1576 C 0.68456 0.18522 -0.10125
 C1577 C 0.69258 0.19333 -0.08705
 C1578 C 0.70714 0.18626 -0.07982
 C1579 C 0.71524 0.19441 -0.06636
 C1580 C 0.70881 0.20968 -0.06007
 C1581 C 0.69418 0.21669 -0.06721
 C1582 C 0.68608 0.20853 -0.08068
 C1583 C 0.71744 0.21833 -0.04657
 C1584 C 0.72481 0.22568 -0.03542
 H1585 H 0.71230 0.17453 -0.08468
 H1586 H 0.72657 0.18890 -0.06096
 H1587 H 0.68912 0.22851 -0.06247
 H1588 H 0.67485 0.21414 -0.08620
 C1589 C 0.17831 0.67843 -0.11303
 C1590 C 0.18494 0.68515 -0.10104
 C1591 C 0.19299 0.69331 -0.08689
 C1592 C 0.18616 0.70821 -0.08016
 C1593 C 0.19427 0.71642 -0.06674
 C1594 C 0.20924 0.70976 -0.05998
 C1595 C 0.21601 0.69479 -0.06663
 C1596 C 0.20790 0.68658 -0.08005
 C1597 C 0.21786 0.71848 -0.04651
 C1598 C 0.22520 0.72588 -0.03538
 H1599 H 0.17466 0.71354 -0.08538
 H1600 H 0.18895 0.72800 -0.06172
 H1601 H 0.22761 0.68955 -0.06153
 H1602 H 0.21332 0.67509 -0.08519
 C1603 C 0.17754 0.17825 0.38681
 C1604 C 0.18407 0.18487 0.39890
 C1605 C 0.19202 0.19292 0.41317
 C1606 C 0.18541 0.20802 0.41968
 C1607 C 0.19345 0.21613 0.43320
 C1608 C 0.20815 0.20917 0.44027
 C1609 C 0.21469 0.19401 0.43385
 C1610 C 0.20664 0.18590 0.42033
 C1611 C 0.21675 0.21781 0.45381
 C1612 C 0.22408 0.22516 0.46499
 H1613 H 0.17413 0.21358 0.41421
 H1614 H 0.18831 0.22787 0.43804
 H1615 H 0.22607 0.18855 0.43919
 H1616 H 0.21189 0.17426 0.41537
 C1617 C 0.32085 0.38749 0.67830
 C1618 C 0.31424 0.39947 0.68502
 C1619 C 0.30620 0.41362 0.69318
 C1620 C 0.31333 0.42066 0.70782
 C1621 C 0.30525 0.43408 0.71604
 C1622 C 0.29001 0.44051 0.70967
 C1623 C 0.28294 0.43354 0.69496
 C1624 C 0.29102 0.42012 0.68674
 C1625 C 0.28142 0.45397 0.71841
 C1626 C 0.27411 0.46510 0.72584
 H1627 H 0.32504 0.41570 0.71293
 H1628 H 0.31080 0.43935 0.72742
 H1629 H 0.27114 0.43838 0.68995
 H1630 H 0.28538 0.41474 0.67546
 C1631 C 0.32155 0.88794 0.17837
 C1632 C 0.31493 0.89992 0.18508
 C1633 C 0.30687 0.91406 0.19322
 C1634 C 0.31341 0.92049 0.20841
 C1635 C 0.30529 0.93391 0.21660
 C1636 C 0.29060 0.94096 0.20962
 C1637 C 0.28413 0.93462 0.19437
 C1638 C 0.29225 0.92120 0.18619
 C1639 C 0.28196 0.95443 0.21830
 C1640 C 0.27458 0.96556 0.22567
 H1641 H 0.32469 0.91503 0.21399
 H1642 H 0.31038 0.93869 0.22840
 H1643 H 0.27276 0.93996 0.18888
 H1644 H 0.28707 0.91630 0.17447
 C1645 C 0.82179 0.38728 0.17809
 C1646 C 0.81513 0.39926 0.18477
 C1647 C 0.80704 0.41340 0.19288
 C1648 C 0.81399 0.42036 0.20763
 C1649 C 0.80584 0.43378 0.21580
 C1650 C 0.79071 0.44028 0.20925
 C1651 C 0.78382 0.43339 0.19443
 C1652 C 0.79197 0.41998 0.18626
 C1653 C 0.78205 0.45372 0.21795
 C1654 C 0.77468 0.46484 0.22534
 H1655 H 0.82562 0.41535 0.21288
 H1656 H 0.81126 0.43898 0.22728
 H1657 H 0.77210 0.43829 0.18927
 H1658 H 0.78646 0.41465 0.17488
 C1659 C 0.82119 0.88737 0.67912
 C1660 C 0.81456 0.89927 0.68596
 C1661 C 0.80652 0.91331 0.69430
 C1662 C 0.80612 0.91402 0.71203
 C1663 C 0.79798 0.92744 0.72019
 C1664 C 0.79022 0.94021 0.71066
 C1665 C 0.79070 0.93956 0.69292
 C1666 C 0.79884 0.92613 0.68475
 C1667 C 0.78151 0.95378 0.71911
 C1668 C 0.77411 0.96499 0.72633
 H1669 H 0.81199 0.90416 0.71954
 H1670 H 0.79765 0.92780 0.73391
 H1671 H 0.78471 0.94935 0.68543
 H1672 H 0.79906 0.92569 0.67103
 C1673 C 0.67841 0.61285 0.67912
 C1674 C 0.68512 0.60085 0.68573
 C1675 C 0.69328 0.58668 0.69374
 C1676 C 0.68630 0.57952 0.70840
 C1677 C 0.69450 0.56607 0.71647
 C1678 C 0.70970 0.55974 0.70992
 C1679 C 0.71661 0.56682 0.69519
 C1680 C 0.70841 0.58027 0.68712
 C1681 C 0.71840 0.54624 0.71851
 C1682 C 0.72580 0.53508 0.72582
 H1683 H 0.67463 0.58441 0.71365
 H1684 H 0.68907 0.56072 0.72788
 H1685 H 0.72838 0.56204 0.69004
 H1686 H 0.71394 0.58574 0.67582
 C1687 C 0.67846 0.11245 0.17869
 C1688 C 0.68518 0.10048 0.18535
 C1689 C 0.69334 0.08636 0.19344
 C1690 C 0.70866 0.08015 0.18706
 C1691 C 0.71686 0.06675 0.19521
 C1692 C 0.70977 0.05951 0.20977
 C1693 C 0.69439 0.06565 0.21608
 C1694 C 0.68619 0.07905 0.20793
 C1695 C 0.71847 0.04608 0.21845
 C1696 C 0.72588 0.03497 0.22583
 H1697 H 0.71432 0.08574 0.17588
 H1698 H 0.72877 0.06213 0.19024
 H1699 H 0.68881 0.06017 0.22736
 H1700 H 0.67437 0.08378 0.21300
 C1701 C 0.17856 0.61278 0.17850
 C1702 C 0.18525 0.60077 0.18511
 C1703 C 0.19338 0.58660 0.19313
 C1704 C 0.18596 0.57893 0.20730
 C1705 C 0.19412 0.56549 0.21542
 C1706 C 0.20974 0.55966 0.20939
 C1707 C 0.21710 0.56724 0.19515
 C1708 C 0.20894 0.58069 0.18703
 C1709 C 0.21839 0.54618 0.21806
 C1710 C 0.22574 0.53505 0.22545
 H1711 H 0.17395 0.58343 0.21215
 H1712 H 0.18833 0.55974 0.22645
 H1713 H 0.22919 0.56286 0.19041
 H1714 H 0.21481 0.58655 0.17611
 C1715 C 0.17775 0.11227 0.67914
 C1716 C 0.18445 0.10025 0.68571
 C1717 C 0.19260 0.08606 0.69369
 C1718 C 0.20761 0.07950 0.68692
 C1719 C 0.21581 0.06604 0.69497
 C1720 C 0.20904 0.05909 0.70982
 C1721 C 0.19396 0.06557 0.71653
 C1722 C 0.18576 0.07903 0.70848
 C1723 C 0.21776 0.04560 0.71840
 C1724 C 0.22519 0.03445 0.72569
 H1725 H 0.21303 0.08486 0.67552
 H1726 H 0.22748 0.06115 0.68970
 H1727 H 0.18864 0.06032 0.72803
 H1728 H 0.17418 0.08403 0.71384
 C1729 C 0.32188 0.61286 0.32099
 C1730 C 0.31520 0.60086 0.31440
 C1731 C 0.30707 0.58668 0.30641
 C1732 C 0.29176 0.58050 0.31283
 C1733 C 0.28358 0.56705 0.30476
 C1734 C 0.29068 0.55973 0.29025
 C1735 C 0.30606 0.56584 0.28390
 C1736 C 0.31423 0.57929 0.29196
 C1737 C 0.28201 0.54625 0.28165
 C1738 C 0.27462 0.53510 0.27433
 H1739 H 0.28608 0.58615 0.32397
 H1740 H 0.27168 0.56246 0.30976
 H1741 H 0.31164 0.56030 0.27266
 H1742 H 0.32605 0.58400 0.28687
 C1743 C 0.32181 0.11217 0.82076
 C1744 C 0.31516 0.10016 0.81414
 C1745 C 0.30708 0.08600 0.80608
 C1746 C 0.29340 0.07794 0.81396
 C1747 C 0.28523 0.06450 0.80589
 C1748 C 0.29069 0.05905 0.78991
 C1749 C 0.30445 0.06703 0.78209
 C1750 C 0.31262 0.08047 0.79016
 C1751 C 0.28196 0.04557 0.78137
 C1752 C 0.27453 0.03443 0.77410
 H1753 H 0.28898 0.08214 0.82626
 H1754 H 0.27458 0.05845 0.81204
 H1755 H 0.30876 0.06294 0.76972
 H1756 H 0.32316 0.08663 0.78393
 C1757 C 0.82195 0.61249 0.82163
 C1758 C 0.81528 0.60049 0.81501
 C1759 C 0.80716 0.58634 0.80696
 C1760 C 0.79160 0.58045 0.81303
 C1761 C 0.78345 0.56703 0.80490
 C1762 C 0.79083 0.55945 0.79066
 C1763 C 0.80645 0.56527 0.78466
 C1764 C 0.81460 0.57869 0.79279
 C1765 C 0.78218 0.54601 0.78197
 C1766 C 0.77481 0.53489 0.77459
 H1767 H 0.78571 0.58631 0.82395
 H1768 H 0.77135 0.56266 0.80962
 H1769 H 0.81225 0.55953 0.77363
 H1770 H 0.82661 0.58318 0.78797
 C1771 C 0.82237 0.11287 0.32107
 C1772 C 0.81566 0.10086 0.31450
 C1773 C 0.80750 0.08669 0.30653
 C1774 C 0.79228 0.08042 0.31308
 C1775 C 0.78407 0.06698 0.30504
 C1776 C 0.79106 0.05975 0.29042
 C1777 C 0.80635 0.06594 0.28394
 C1778 C 0.81455 0.07939 0.29198
 C1779 C 0.78236 0.04627 0.28185
 C1780 C 0.77496 0.03512 0.27456
 H1781 H 0.78669 0.08601 0.32430
 H1782 H 0.77224 0.06231 0.31013
 H1783 H 0.81184 0.06047 0.27262
 H1784 H 0.82629 0.08417 0.28679
 C1785 C 0.67836 0.38710 0.32099
 C1786 C 0.68500 0.39908 0.31430
 C1787 C 0.69308 0.41322 0.30620
 C1788 C 0.68733 0.41892 0.29040
 C1789 C 0.69550 0.43235 0.28229
 C1790 C 0.70946 0.44013 0.28994
 C1791 C 0.71514 0.43450 0.30579
 C1792 C 0.70697 0.42108 0.31390
 C1793 C 0.71819 0.45360 0.28136
 C1794 C 0.72561 0.46474 0.27407
 H1795 H 0.67663 0.41291 0.28431
 H1796 H 0.69103 0.43657 0.27002
 H1797 H 0.72595 0.44040 0.31180
 H1798 H 0.71155 0.41674 0.32609
 C1799 C 0.67815 0.88764 0.82223
 C1800 C 0.68477 0.89965 0.81557
 C1801 C 0.69282 0.91382 0.80748
 C1802 C 0.70791 0.92036 0.81407
 C1803 C 0.71602 0.93379 0.80591
 C1804 C 0.70908 0.94074 0.79112
 C1805 C 0.69392 0.93428 0.78461
 C1806 C 0.68581 0.92085 0.79277
 C1807 C 0.71772 0.95418 0.78242
 C1808 C 0.72508 0.96529 0.77502
 H1809 H 0.71346 0.91500 0.82541
 H1810 H 0.72776 0.93866 0.81103
 H1811 H 0.68847 0.93952 0.77316
 H1812 H 0.67417 0.91585 0.78755
 C1813 C 0.17838 0.38747 0.82209
 C1814 C 0.18501 0.39946 0.81540
 C1815 C 0.19307 0.41361 0.80729
 C1816 C 0.20806 0.42027 0.81398
 C1817 C 0.21618 0.43370 0.80581
 C1818 C 0.20934 0.44052 0.79092
 C1819 C 0.19428 0.43394 0.78430
 C1820 C 0.18616 0.42051 0.79247
 C1821 C 0.21797 0.45398 0.78224
 C1822 C 0.22533 0.46511 0.77486
 H1823 H 0.21353 0.41501 0.82541
 H1824 H 0.22784 0.43867 0.81102
 H1825 H 0.18890 0.43908 0.77277
 H1826 H 0.17460 0.41542 0.78717
 C1827 C 0.17827 0.88797 0.32135
 C1828 C 0.18491 0.89995 0.31468
 C1829 C 0.19300 0.91410 0.30658
 C1830 C 0.20764 0.92114 0.31364
 C1831 C 0.21580 0.93456 0.30551
 C1832 C 0.20935 0.94099 0.29027
 C1833 C 0.19464 0.93403 0.28327
 C1834 C 0.18648 0.92060 0.29141
 C1835 C 0.21804 0.95445 0.28164
 C1836 C 0.22544 0.96558 0.27431
 H1837 H 0.21281 0.91618 0.32535
 H1838 H 0.22718 0.93983 0.31101
 H1839 H 0.18957 0.93887 0.27148
 H1840 H 0.17520 0.91522 0.28581
 C1841 C 0.38672 0.32186 0.67788
 C1842 C 0.39877 0.31522 0.68448
 C1843 C 0.41298 0.30714 0.69250
 C1844 C 0.41973 0.31382 0.70748
 C1845 C 0.43320 0.30568 0.71556
 C1846 C 0.43998 0.29082 0.70870
 C1847 C 0.43331 0.28420 0.69365
 C1848 C 0.41983 0.29235 0.68557
 C1849 C 0.45348 0.28214 0.71730
 C1850 C 0.46464 0.27475 0.72462
 H1851 H 0.41449 0.32523 0.71297
 H1852 H 0.43823 0.31088 0.72722
 H1853 H 0.43843 0.27269 0.68826
 H1854 H 0.41468 0.28705 0.67401
 C1855 C 0.38731 0.82219 0.17799
 C1856 C 0.39933 0.81553 0.18461
 C1857 C 0.41351 0.80744 0.19266
 C1858 C 0.42005 0.81396 0.20781
 C1859 C 0.43351 0.80581 0.21591
 C1860 C 0.44048 0.79110 0.20890
 C1861 C 0.43403 0.78466 0.19368
 C1862 C 0.42057 0.79281 0.18558
 C1863 C 0.45397 0.78242 0.21752
 C1864 C 0.46512 0.77502 0.22484
 H1865 H 0.41466 0.82524 0.21341
 H1866 H 0.43837 0.81088 0.22770
 H1867 H 0.43930 0.77328 0.18817
 H1868 H 0.41559 0.78764 0.17389
 C1869 C 0.88771 0.32168 0.17781
 C1870 C 0.89976 0.31504 0.18442
 C1871 C 0.91397 0.30697 0.19243
 C1872 C 0.92068 0.31361 0.20745
 C1873 C 0.93416 0.30547 0.21552
 C1874 C 0.94099 0.29065 0.20861
 C1875 C 0.93436 0.28407 0.19352
 C1876 C 0.92088 0.29222 0.18545
 C1877 C 0.95450 0.28197 0.21720
 C1878 C 0.96567 0.27458 0.22450
 H1879 H 0.91540 0.32498 0.21298
 H1880 H 0.93916 0.31063 0.22720
 H1881 H 0.93952 0.27260 0.18809
 H1882 H 0.91576 0.28695 0.17387
 C1883 C 0.88705 0.82173 0.67833
 C1884 C 0.89907 0.81503 0.68490
 C1885 C 0.91326 0.80689 0.69290
 C1886 C 0.91984 0.79190 0.68614
 C1887 C 0.93330 0.78370 0.69420
 C1888 C 0.94023 0.79048 0.70906
 C1889 C 0.93373 0.80554 0.71575
 C1890 C 0.92027 0.81373 0.70769
 C1891 C 0.95372 0.78177 0.71765
 C1892 C 0.96487 0.77436 0.72496
 H1893 H 0.91449 0.78648 0.67473
 H1894 H 0.93820 0.77204 0.68894
 H1895 H 0.93896 0.81087 0.72726
 H1896 H 0.91525 0.82530 0.71305
 C1897 C 0.61265 0.32138 0.32142
 C1898 C 0.60063 0.31471 0.31484
 C1899 C 0.58644 0.30660 0.30683
 C1900 C 0.57961 0.31331 0.29189
 C1901 C 0.56615 0.30514 0.28383
 C1902 C 0.55947 0.29023 0.29068
 C1903 C 0.56622 0.28360 0.30569
 C1904 C 0.57967 0.29177 0.31375
 C1905 C 0.54599 0.28153 0.28209
 C1906 C 0.53484 0.27412 0.27479
 H1907 H 0.58477 0.32475 0.28641
 H1908 H 0.56106 0.31036 0.27220
 H1909 H 0.56117 0.27205 0.31107
 H1910 H 0.58489 0.28645 0.32528
 C1911 C 0.61252 0.82186 0.82224
 C1912 C 0.60051 0.81521 0.81559
 C1913 C 0.58635 0.80713 0.80752
 C1914 C 0.57957 0.81387 0.79257
 C1915 C 0.56614 0.80573 0.78445
 C1916 C 0.55943 0.79081 0.79124
 C1917 C 0.56612 0.78413 0.80626
 C1918 C 0.57956 0.79227 0.81438
 C1919 C 0.54596 0.78214 0.78259
 C1920 C 0.53483 0.77477 0.77524
 H1921 H 0.58476 0.82533 0.78714
 H1922 H 0.56108 0.81098 0.77282
 H1923 H 0.56106 0.77258 0.81159
 H1924 H 0.58473 0.78693 0.82591
 C1925 C 0.11256 0.32187 0.82248
 C1926 C 0.10051 0.31525 0.81589
 C1927 C 0.08631 0.30719 0.80787
 C1928 C 0.07986 0.31361 0.79263
 C1929 C 0.06639 0.30547 0.78456
 C1930 C 0.05932 0.29088 0.79168
 C1931 C 0.06568 0.28453 0.80699
 C1932 C 0.07915 0.29267 0.81507
 C1933 C 0.04583 0.28220 0.78309
 C1934 C 0.03469 0.27481 0.77577
 H1935 H 0.08533 0.32481 0.78694
 H1936 H 0.06160 0.31046 0.77270
 H1937 H 0.06033 0.27323 0.81259
 H1938 H 0.08406 0.28758 0.82682
 C1939 C 0.11258 0.82223 0.32155
 C1940 C 0.10059 0.81555 0.31492
 C1941 C 0.08644 0.80741 0.30688
 C1942 C 0.07947 0.79275 0.31397
 C1943 C 0.06605 0.78455 0.30588
 C1944 C 0.05955 0.79097 0.29066
 C1945 C 0.06645 0.80570 0.28364
 C1946 C 0.07986 0.81390 0.29173
 C1947 C 0.04611 0.78223 0.28207
 C1948 C 0.03499 0.77479 0.27476
 H1949 H 0.08449 0.78760 0.32566
 H1950 H 0.06084 0.77315 0.31140
 H1951 H 0.06155 0.81075 0.27185
 H1952 H 0.08519 0.82521 0.28611
 C1953 C 0.61259 0.67856 0.67944
 C1954 C 0.60062 0.68521 0.68614
 C1955 C 0.58648 0.69330 0.69426
 C1956 C 0.57910 0.70768 0.68697
 C1957 C 0.56568 0.71584 0.69511
 C1958 C 0.55956 0.70965 0.71058
 C1959 C 0.56686 0.69521 0.71782
 C1960 C 0.58029 0.68705 0.70967
 C1961 C 0.54608 0.71833 0.71921
 C1962 C 0.53494 0.72573 0.72654
 H1963 H 0.58382 0.71264 0.67508
 H1964 H 0.56016 0.72702 0.68943
 H1965 H 0.56226 0.69034 0.72979
 H1966 H 0.58592 0.67597 0.71544
 C1967 C 0.61256 0.17806 0.17887
 C1968 C 0.60058 0.18468 0.18559
 C1969 C 0.58644 0.19271 0.19379
 C1970 C 0.58165 0.18773 0.21013
 C1971 C 0.56822 0.19585 0.21831
 C1972 C 0.55953 0.20899 0.21017
 C1973 C 0.56425 0.21390 0.19378
 C1974 C 0.57768 0.20577 0.18560
 C1975 C 0.54605 0.21767 0.21879
 C1976 C 0.53490 0.22505 0.22614
 H1977 H 0.58836 0.17768 0.21659
 H1978 H 0.56470 0.19199 0.23100
 H1979 H 0.55765 0.22407 0.18739
 H1980 H 0.58132 0.20975 0.17298
 C1981 C 0.11281 0.67855 0.17900
 C1982 C 0.10085 0.68517 0.18576
 C1983 C 0.08674 0.69320 0.19398
 C1984 C 0.08298 0.68939 0.21090
 C1985 C 0.06955 0.69752 0.21907
 C1986 C 0.05982 0.70950 0.21034
 C1987 C 0.06351 0.71324 0.19338
 C1988 C 0.07694 0.70510 0.18522
 C1989 C 0.04632 0.71820 0.21891
 C1990 C 0.03515 0.72559 0.22622
 H1991 H 0.09049 0.68023 0.21781
 H1992 H 0.06684 0.69456 0.23219
 H1993 H 0.05609 0.72251 0.18653
 H1994 H 0.07976 0.70817 0.17214
 C1995 C 0.11214 0.17818 0.67996
 C1996 C 0.10022 0.18485 0.68674
 C1997 C 0.08615 0.19295 0.69496
 C1998 C 0.07720 0.20578 0.68662
 C1999 C 0.06382 0.21398 0.69480
 C2000 C 0.05933 0.20938 0.71135
 C2001 C 0.06822 0.19648 0.71965
 C2002 C 0.08160 0.18828 0.71147
 C2003 C 0.04588 0.21814 0.71995
 C2004 C 0.03476 0.22559 0.72725
 H2005 H 0.08064 0.20952 0.67388
 H2006 H 0.05706 0.22397 0.68829
 H2007 H 0.06488 0.19285 0.73246
 H2008 H 0.08846 0.17840 0.71805
 C2009 C 0.38756 0.67860 0.32049
 C2010 C 0.39952 0.68523 0.31376
 C2011 C 0.41364 0.69329 0.30557
 C2012 C 0.42270 0.70598 0.31398
 C2013 C 0.43611 0.71414 0.30583
 C2014 C 0.44052 0.70963 0.28923
 C2015 C 0.43154 0.69686 0.28087
 C2016 C 0.41813 0.68870 0.28902
 C2017 C 0.45400 0.71835 0.28065
 C2018 C 0.46513 0.72578 0.27335
 H2019 H 0.41931 0.70965 0.32676
 H2020 H 0.44295 0.72402 0.31239
 H2021 H 0.43482 0.69330 0.26803
 H2022 H 0.41119 0.67893 0.28239
 C2023 C 0.38732 0.17807 0.82030
 C2024 C 0.39924 0.18475 0.81355
 C2025 C 0.41332 0.19285 0.80533
 C2026 C 0.41712 0.18906 0.78841
 C2027 C 0.43050 0.19726 0.78026
 C2028 C 0.44014 0.20928 0.78899
 C2029 C 0.43641 0.21300 0.80595
 C2030 C 0.42302 0.20479 0.81410
 C2031 C 0.45360 0.21806 0.78044
 C2032 C 0.46472 0.22551 0.77314
 H2033 H 0.40967 0.17987 0.78150
 H2034 H 0.43325 0.19432 0.76714
 H2035 H 0.44376 0.22230 0.81281
 H2036 H 0.42017 0.20785 0.82718
 C2037 C 0.88758 0.67826 0.82123
 C2038 C 0.89953 0.68491 0.81450
 C2039 C 0.91364 0.69299 0.80632
 C2040 C 0.92008 0.68643 0.79114
 C2041 C 0.93347 0.69457 0.78292
 C2042 C 0.94046 0.70929 0.78984
 C2043 C 0.93410 0.71578 0.80508
 C2044 C 0.92071 0.70764 0.81330
 C2045 C 0.95389 0.71795 0.78112
 C2046 C 0.96499 0.72531 0.77372
 H2047 H 0.91467 0.67513 0.78560
 H2048 H 0.93826 0.68947 0.77112
 H2049 H 0.93939 0.72717 0.81053
 H2050 H 0.91580 0.71284 0.82501
 C2051 C 0.88814 0.17850 0.32045
 C2052 C 0.90011 0.18510 0.31368
 C2053 C 0.91423 0.19309 0.30545
 C2054 C 0.91868 0.18846 0.28891
 C2055 C 0.93210 0.19656 0.28071
 C2056 C 0.94113 0.20933 0.28903
 C2057 C 0.93675 0.21389 0.30562
 C2058 C 0.92333 0.20579 0.31381
 C2059 C 0.95460 0.21801 0.28040
 C2060 C 0.96573 0.22540 0.27306
 H2061 H 0.91170 0.17869 0.28231
 H2062 H 0.93535 0.19297 0.26787
 H2063 H 0.94362 0.22378 0.31215
 H2064 H 0.91997 0.20950 0.32659
 C2065 C 0.32036 0.32157 0.61262
 C2066 C 0.31362 0.31485 0.60070
 C2067 C 0.30545 0.30667 0.58663
 C2068 C 0.29040 0.31330 0.58001
 C2069 C 0.28220 0.30509 0.56664
 C2070 C 0.28901 0.29021 0.55985
 C2071 C 0.30412 0.28364 0.56639
 C2072 C 0.31232 0.29186 0.57975
 C2073 C 0.28032 0.28149 0.54642
 C2074 C 0.27293 0.27409 0.53532
 H2075 H 0.28495 0.32473 0.58526
 H2076 H 0.27050 0.31025 0.56171
 H2077 H 0.30948 0.27213 0.56125
 H2078 H 0.32393 0.28661 0.58480
 C2079 C 0.32117 0.82223 0.11249
 C2080 C 0.31444 0.81556 0.10053
 C2081 C 0.30629 0.80746 0.08640
 C2082 C 0.29095 0.81378 0.08016
 C2083 C 0.28278 0.80561 0.06675
 C2084 C 0.28991 0.79109 0.05953
 C2085 C 0.30530 0.78483 0.06569
 C2086 C 0.31348 0.79300 0.07910
 C2087 C 0.28124 0.78239 0.04608
 C2088 C 0.27389 0.77499 0.03495
 H2089 H 0.28526 0.82493 0.08574
 H2090 H 0.27086 0.81054 0.06211
 H2091 H 0.31091 0.77358 0.06023
 H2092 H 0.32532 0.78798 0.08386
 C2093 C 0.82149 0.32138 0.11241
 C2094 C 0.81476 0.31469 0.10047
 C2095 C 0.80659 0.30655 0.08637
 C2096 C 0.79263 0.31419 0.07855
 C2097 C 0.78440 0.30605 0.06515
 C2098 C 0.79009 0.29025 0.05953
 C2099 C 0.80412 0.28266 0.06728
 C2100 C 0.81235 0.29080 0.08067
 C2101 C 0.78133 0.28164 0.04608
 C2102 C 0.77390 0.27432 0.03495
 H2103 H 0.78804 0.32635 0.08288
 H2104 H 0.77354 0.31201 0.05928
 H2105 H 0.80860 0.27043 0.06305
 H2106 H 0.82311 0.28477 0.08665
 C2107 C 0.82085 0.82198 0.61290
 C2108 C 0.81413 0.81533 0.60092
 C2109 C 0.80600 0.80724 0.58678
 C2110 C 0.79081 0.81373 0.58035
 C2111 C 0.78264 0.80557 0.56693
 C2112 C 0.78963 0.79089 0.55989
 C2113 C 0.80488 0.78447 0.56624
 C2114 C 0.81305 0.79262 0.57966
 C2115 C 0.78096 0.78221 0.54643
 C2116 C 0.77360 0.77482 0.53529
 H2117 H 0.78523 0.82500 0.58579
 H2118 H 0.77083 0.81063 0.56214
 H2119 H 0.81037 0.77310 0.56092
 H2120 H 0.82476 0.78747 0.58456
 C2121 C 0.32201 0.67884 0.38658
 C2122 C 0.31537 0.68552 0.39859
 C2123 C 0.30730 0.69363 0.41277
 C2124 C 0.31377 0.70881 0.41919
 C2125 C 0.30564 0.71694 0.43265
 C2126 C 0.29100 0.70992 0.43975
 C2127 C 0.28459 0.69468 0.43341
 C2128 C 0.29272 0.68655 0.41994
 C2129 C 0.28234 0.71855 0.45326
 C2130 C 0.27496 0.72587 0.46443
 H2131 H 0.32501 0.71441 0.41371
 H2132 H 0.31068 0.72874 0.43743
 H2133 H 0.27325 0.68917 0.43877
 H2134 H 0.28759 0.67484 0.41505
 C2135 C 0.32197 0.17793 0.88659
 C2136 C 0.31538 0.18458 0.89864
 C2137 C 0.30738 0.19267 0.91287
 C2138 C 0.29252 0.18591 0.91976
 C2139 C 0.28447 0.19405 0.93327
 C2140 C 0.29125 0.20899 0.93994
 C2141 C 0.30617 0.21569 0.93313
 C2142 C 0.31422 0.20755 0.91962
 C2143 C 0.28269 0.21765 0.95349
 C2144 C 0.27540 0.22501 0.96470
 H2145 H 0.28711 0.17443 0.91461
 H2146 H 0.27292 0.18878 0.93841
 H2147 H 0.31149 0.22726 0.93817
 H2148 H 0.32567 0.21291 0.91436
 C2149 C 0.82201 0.67841 0.88730
 C2150 C 0.81538 0.68510 0.89930
 C2151 C 0.80732 0.69324 0.91347
 C2152 C 0.79413 0.68514 0.92209
 C2153 C 0.78599 0.69327 0.93556
 C2154 C 0.79101 0.70953 0.94045
 C2155 C 0.80428 0.71758 0.93190
 C2156 C 0.81242 0.70945 0.91844
 C2157 C 0.78232 0.71810 0.95397
 C2158 C 0.77494 0.72542 0.96515
 H2159 H 0.79005 0.67262 0.91832
 H2160 H 0.77571 0.68694 0.94205
 H2161 H 0.80824 0.73017 0.93556
 H2162 H 0.82258 0.71585 0.91184
 C2163 C 0.82266 0.17886 0.38663
 C2164 C 0.81603 0.18554 0.39865
 C2165 C 0.80795 0.19363 0.41283
 C2166 C 0.81415 0.20903 0.41900
 C2167 C 0.80600 0.21713 0.43246
 C2168 C 0.79161 0.20987 0.43982
 C2169 C 0.78547 0.19442 0.43374
 C2170 C 0.79363 0.18631 0.42027
 C2171 C 0.78292 0.21847 0.45333
 C2172 C 0.77552 0.22579 0.46449
 H2173 H 0.82520 0.21482 0.41331
 H2174 H 0.81083 0.22910 0.43704
 H2175 H 0.77433 0.18871 0.43931
 H2176 H 0.78870 0.17442 0.41558
 C2177 C 0.67885 0.32136 0.38686
 C2178 C 0.68561 0.31472 0.39883
 C2179 C 0.69381 0.30665 0.41296
 C2180 C 0.68727 0.29158 0.41961
 C2181 C 0.69551 0.28348 0.43303
 C2182 C 0.71032 0.29040 0.43986
 C2183 C 0.71679 0.30553 0.43329
 C2184 C 0.70855 0.31364 0.41987
 C2185 C 0.71907 0.28180 0.45333
 C2186 C 0.72648 0.27447 0.46448
 H2187 H 0.67590 0.28605 0.41434
 H2188 H 0.69042 0.27176 0.43798
 H2189 H 0.72825 0.31098 0.43845
 H2190 H 0.71373 0.32526 0.41480
 C2191 C 0.67861 0.82157 0.88778
 C2192 C 0.68534 0.81486 0.89973
 C2193 C 0.69350 0.80671 0.91383
 C2194 C 0.68705 0.79151 0.92026
 C2195 C 0.69526 0.78333 0.93365
 C2196 C 0.70995 0.79031 0.94067
 C2197 C 0.71634 0.80557 0.93432
 C2198 C 0.70813 0.81375 0.92093
 C2199 C 0.71866 0.78164 0.95412
 C2200 C 0.72606 0.77426 0.96525
 H2201 H 0.67577 0.78594 0.91484
 H2202 H 0.69023 0.77152 0.93844
 H2203 H 0.72771 0.81106 0.93964
 H2204 H 0.71324 0.82547 0.91603
 C2205 C 0.17898 0.32143 0.88768
 C2206 C 0.18574 0.31469 0.89959
 C2207 C 0.19394 0.30650 0.91365
 C2208 C 0.20855 0.31356 0.92078
 C2209 C 0.21679 0.30534 0.93413
 C2210 C 0.21045 0.29004 0.94042
 C2211 C 0.19578 0.28304 0.93336
 C2212 C 0.18755 0.29125 0.92001
 C2213 C 0.21920 0.28134 0.95383
 C2214 C 0.22662 0.27395 0.96493
 H2215 H 0.21362 0.32532 0.91593
 H2216 H 0.22814 0.31085 0.93946
 H2217 H 0.19080 0.27119 0.93810
 H2218 H 0.17628 0.28567 0.91457
 C2219 C 0.17865 0.82209 0.38711
 C2220 C 0.18537 0.81538 0.39906
 C2221 C 0.19352 0.80722 0.41317
 C2222 C 0.20846 0.81395 0.41991
 C2223 C 0.21665 0.80574 0.43330
 C2224 C 0.20993 0.79077 0.44000
 C2225 C 0.19493 0.78412 0.43333
 C2226 C 0.18674 0.79233 0.41994
 C2227 C 0.21862 0.78206 0.45344
 C2228 C 0.22600 0.77465 0.46456
 H2229 H 0.21383 0.82544 0.41475
 H2230 H 0.22826 0.81097 0.43834
 H2231 H 0.18965 0.77253 0.43839
 H2232 H 0.17522 0.78700 0.41479
 C2233 C 0.67816 0.67872 0.61337
 C2234 C 0.68477 0.68540 0.60135
 C2235 C 0.69281 0.69351 0.58715
 C2236 C 0.70767 0.68673 0.58028
 C2237 C 0.71575 0.69488 0.56680
 C2238 C 0.70900 0.70985 0.56014
 C2239 C 0.69408 0.71658 0.56693
 C2240 C 0.68600 0.70842 0.58041
 C2241 C 0.71760 0.71852 0.54661
 C2242 C 0.72492 0.72588 0.53543
 H2243 H 0.71306 0.67522 0.58542
 H2244 H 0.72731 0.68959 0.56167
 H2245 H 0.68878 0.72817 0.56191
 H2246 H 0.67453 0.71380 0.58566
 C2247 C 0.67818 0.17823 0.11284
 C2248 C 0.68481 0.18492 0.10083
 C2249 C 0.69286 0.19305 0.08666
 C2250 C 0.70786 0.18640 0.07995
 C2251 C 0.71596 0.19458 0.06649
 C2252 C 0.70910 0.20944 0.05970
 C2253 C 0.69403 0.21602 0.06633
 C2254 C 0.68593 0.20784 0.07978
 C2255 C 0.71771 0.21813 0.04620
 C2256 C 0.72503 0.22552 0.03504
 H2257 H 0.71335 0.17499 0.08520
 H2258 H 0.72763 0.18941 0.06149
 H2259 H 0.68864 0.22752 0.06119
 H2260 H 0.67436 0.21311 0.08490
 C2261 C 0.17835 0.67879 0.11290
 C2262 C 0.18498 0.68549 0.10089
 C2263 C 0.19303 0.69362 0.08671
 C2264 C 0.18622 0.70852 0.07998
 C2265 C 0.19432 0.71669 0.06652
 C2266 C 0.20926 0.70998 0.05974
 C2267 C 0.21601 0.69501 0.06640
 C2268 C 0.20791 0.68684 0.07986
 C2269 C 0.21787 0.71866 0.04624
 C2270 C 0.22520 0.72603 0.03507
 H2271 H 0.17474 0.71389 0.08520
 H2272 H 0.18902 0.72829 0.06149
 H2273 H 0.22758 0.68974 0.06129
 H2274 H 0.21330 0.67534 0.08501
 C2275 C 0.17729 0.17823 0.61347
 C2276 C 0.18386 0.18491 0.60143
 C2277 C 0.19185 0.19303 0.58721
 C2278 C 0.20628 0.18584 0.57983
 C2279 C 0.21435 0.19399 0.56634
 C2280 C 0.20803 0.20936 0.56018
 C2281 C 0.19353 0.21648 0.56748
 C2282 C 0.18546 0.20833 0.58097
 C2283 C 0.21665 0.21800 0.54666
 C2284 C 0.22400 0.22534 0.53548
 H2285 H 0.21135 0.17403 0.58459
 H2286 H 0.22558 0.18839 0.56082
 H2287 H 0.18856 0.22838 0.56284
 H2288 H 0.17434 0.21401 0.58661
   
