data_POSCAR
  _audit_creation_date              2014-09-24
  _audit_creation_method            'ToBaCCo'
  _symmetry_space_group_name_H-M    'P1'
  _symmetry_Int_Tables_number       1
  _symmetry_cell_setting            triclinic
  loop_
  _symmetry_equiv_pos_as_xyz
 x,y,z
_cell_length_a 59.0890
_cell_length_b 59.1141
_cell_length_c 59.1019
_cell_angle_alpha 89.826500
_cell_angle_beta 90.162300
_cell_angle_gamma 89.871000
loop_
  _atom_site_label
  _atom_site_type_symbol
  _atom_site_fract_x
  _atom_site_fract_y
  _atom_site_fract_z
C1 C 0.24404 0.97337 -0.02093
 C2 C 0.24505 0.97281 0.00303
 C3 C 0.24803 0.99297 0.01502
 C4 C 0.24892 1.01427 0.00438
 C5 C 0.24646 1.01528 -0.01964
 C6 C 0.24421 0.99476 -0.03164
 H7 H 0.24290 0.99546 -0.04992
 H8 H 0.24879 0.99194 0.03335
 C9 C 0.74410 0.51388 0.50573
 C10 C 0.74752 0.51398 0.48208
 C11 C 0.74823 0.49332 0.47045
 C12 C 0.74527 0.47257 0.48173
 C13 C 0.74127 0.47259 0.50530
 C14 C 0.74076 0.49324 0.51691
 H15 H 0.73866 0.49317 0.53514
 H16 H 0.75045 0.49342 0.45224
 C17 C 0.76246 1.00477 0.97322
 C18 C 0.75735 0.98147 0.97296
 C19 C 0.75401 0.97008 0.99358
 C20 C 0.75575 0.98118 1.01465
 C21 C 0.76062 1.00473 1.01460
 C22 C 0.76416 1.01595 0.99400
 H23 H 0.76696 1.03408 0.99406
 H24 H 0.75134 0.95195 0.99309
 C25 C 0.25721 0.50574 0.51282
 C26 C 0.25352 0.48214 0.51274
 C27 C 0.25249 0.47072 0.49195
 C28 C 0.25520 0.48220 0.47126
 C29 C 0.25917 0.50579 0.47146
 C30 C 0.26018 0.51713 0.49224
 H31 H 0.26234 0.53535 0.49234
 H32 H 0.25018 0.45253 0.49192
 C33 C 1.01341 0.24144 -0.00546
 C34 C 1.01341 0.24727 0.01801
 C35 C 0.99239 0.24937 0.02916
 C36 C 0.97174 0.24523 0.01817
 C37 C 0.97186 0.23897 -0.00480
 C38 C 0.99255 0.23682 -0.01608
 H39 H 0.99206 0.23355 -0.03412
 H40 H 0.99199 0.25266 0.04718
 C41 C 0.47244 0.74580 0.52022
 C42 C 0.47206 0.74524 0.49633
 C43 C 0.49247 0.74676 0.48440
 C44 C 0.51333 0.74837 0.49559
 C45 C 0.51389 0.74795 0.51947
 C46 C 0.49342 0.74683 0.53145
 H47 H 0.49383 0.74682 0.54980
 H48 H 0.49211 0.74678 0.46604
 C49 C -0.01897 0.75091 0.02846
 C50 C 0.00363 0.74267 0.02926
 C51 C 0.01492 0.73757 0.00904
 C52 C 0.00502 0.74115 -0.01235
 C53 C -0.01755 0.74938 -0.01324
 C54 C -0.02898 0.75426 0.00698
 H55 H -0.04663 0.75915 0.00577
 H56 H 0.03259 0.73265 0.01010
 C57 C 0.50422 0.24878 0.48635
 C58 C 0.48034 0.24973 0.48605
 C59 C 0.46862 0.25116 0.50664
 C60 C 0.48013 0.25217 0.52747
 C61 C 0.50404 0.25249 0.52755
 C62 C 0.51569 0.25048 0.50704
 H63 H 0.53405 0.25019 0.50718
 H64 H 0.45027 0.25147 0.50645
 C65 C 0.98482 -0.00509 0.24196
 C66 C 0.98522 0.01816 0.24784
 C67 C 1.00607 0.02925 0.24994
 C68 C 1.02672 0.01816 0.24595
 C69 C 1.02658 -0.00492 0.23932
 C70 C 1.00551 -0.01587 0.23708
 H71 H 1.00540 -0.03392 0.23396
 H72 H 1.00618 0.04722 0.25360
 C73 C 0.48779 0.49615 0.75962
 C74 C 0.48759 0.51931 0.75363
 C75 C 0.50820 0.53032 0.74950
 C76 C 0.52903 0.51888 0.75129
 C77 C 0.52915 0.49574 0.75742
 C78 C 0.50854 0.48480 0.76158
 H79 H 0.50858 0.46685 0.76549
 H80 H 0.50806 0.54823 0.74548
 C81 C 0.99797 1.02898 0.74339
 C82 C 1.02100 1.02821 0.75056
 C83 C 1.03131 1.00671 0.75305
 C84 C 1.01963 0.98654 0.74860
 C85 C 0.99672 0.98759 0.74195
 C86 C 0.98638 1.00872 0.73918
 H87 H 0.96854 1.00937 0.73483
 H88 H 1.04916 1.00548 0.75714
 C89 C 0.51771 0.48661 0.25152
 C90 C 0.49387 0.48704 0.24986
 C91 C 0.48262 0.50791 0.24931
 C92 C 0.49441 0.52839 0.25086
 C93 C 0.51815 0.52803 0.25365
 C94 C 0.52950 0.50710 0.25362
 H95 H 0.54779 0.50675 0.25523
 H96 H 0.46433 0.50821 0.24765
 O97 O 0.26276 0.19199 0.20316
 O98 O 0.28863 0.18526 0.23449
 O99 O 0.20475 0.21944 0.23674
 O100 O 0.19735 0.24891 0.25941
 O101 O 0.23161 0.25155 0.17667
 O102 O 0.26352 0.27611 0.17025
 O103 O 0.26502 0.28186 0.29336
 O104 O 0.23827 0.25142 0.29930
 O105 O 0.32248 0.24983 0.26591
 O106 O 0.32845 0.22387 0.23365
 O107 O 0.29601 0.30802 0.23546
 O108 O 0.26295 0.31510 0.20932
 O109 O 0.26558 0.30876 0.26588
 O110 O 0.24023 0.31658 0.23445
 O111 O 0.32264 0.28028 0.23533
 O112 O 0.32900 0.24816 0.20976
 O113 O 0.29560 0.25133 0.29324
 O114 O 0.26812 0.22635 0.30114
 O115 O 0.26280 0.21948 0.17619
 O116 O 0.28793 0.25022 0.16950
 O117 O 0.20480 0.25120 0.20418
 O118 O 0.19989 0.27716 0.23579
 O119 O 0.23177 0.19209 0.23538
 O120 O 0.26444 0.18417 0.25911
 Zr121 Zr 0.26253 0.20979 0.23408
 O122 O 0.28384 0.22885 0.25529
 Zr123 Zr 0.22319 0.24991 0.23472
 O124 O 0.24308 0.27095 0.25554
 Zr125 Zr 0.26244 0.24978 0.19452
 O126 O 0.28424 0.27034 0.21367
 Zr127 Zr 0.26486 0.25108 0.27540
 O128 O 0.24310 0.22962 0.25653
 Zr129 Zr 0.30406 0.25011 0.23534
 O130 O 0.28437 0.22929 0.21391
 Zr131 Zr 0.26492 0.29059 0.23545
 O132 O 0.24286 0.27169 0.21449
 O133 O 0.24141 0.22890 0.21338
 O134 O 0.28616 0.27182 0.25656
 C135 C 0.26288 0.19864 0.18239
 C136 C 0.21106 0.19858 0.23671
 C137 C 0.21091 0.25196 0.18331
 C138 C 0.26541 0.30261 0.28673
 C139 C 0.31631 0.25053 0.28673
 C140 C 0.31669 0.30116 0.23543
 H141 H 0.29290 0.21845 0.26485
 H142 H 0.29362 0.27951 0.20332
 H143 H 0.23144 0.21941 0.20387
 H144 H 0.23312 0.28037 0.26508
 H145 H 0.22820 0.23857 0.29558
 H146 H 0.20296 0.25721 0.27279
 H147 H 0.32565 0.26006 0.19843
 H148 H 0.29999 0.23984 0.17484
 H149 H 0.26005 0.21282 0.29568
 H150 H 0.25207 0.18694 0.27001
 H151 H 0.27589 0.31266 0.19902
 H152 H 0.25286 0.28793 0.17547
 H153 H 0.29996 0.19015 0.22318
 H154 H 0.32514 0.21293 0.24589
 H155 H 0.20471 0.28820 0.22413
 H156 H 0.22840 0.31272 0.24562
 O157 O 0.74867 0.82307 0.23312
 O158 O 0.72388 0.82915 0.26485
 O159 O 0.80828 0.79631 0.26521
 O160 O 0.81635 0.76718 0.28858
 O161 O 0.78126 0.76412 0.20603
 O162 O 0.74953 0.73919 0.19982
 O163 O 0.75034 0.73289 0.32313
 O164 O 0.77660 0.76362 0.32861
 O165 O 0.69183 0.76289 0.29653
 O166 O 0.68484 0.78990 0.26440
 O167 O 0.71850 0.70613 0.26521
 O168 O 0.75127 0.69959 0.23923
 O169 O 0.74930 0.70596 0.29583
 O170 O 0.77458 0.69868 0.26391
 O171 O 0.69145 0.73346 0.26535
 O172 O 0.68392 0.76567 0.24053
 O173 O 0.71936 0.76211 0.32340
 O174 O 0.74611 0.78822 0.33067
 O175 O 0.74904 0.79592 0.20598
 O176 O 0.72470 0.76453 0.19934
 O177 O 0.80834 0.76452 0.23339
 O178 O 0.81422 0.73880 0.26483
 O179 O 0.78076 0.82321 0.26436
 O180 O 0.74859 0.83024 0.28911
 Zr181 Zr 0.75030 0.80499 0.26386
 O182 O 0.72968 0.78545 0.28529
 Zr183 Zr 0.79035 0.76556 0.26396
 O184 O 0.77122 0.74404 0.28498
 Zr185 Zr 0.75052 0.76532 0.22415
 O186 O 0.72939 0.74425 0.24360
 Zr187 Zr 0.74956 0.76355 0.30506
 O188 O 0.77058 0.78546 0.28599
 Zr189 Zr 0.70954 0.76391 0.26558
 O190 O 0.72850 0.78519 0.24390
 Zr191 Zr 0.74934 0.72412 0.26519
 O192 O 0.77070 0.74357 0.24395
 O193 O 0.77140 0.78642 0.24283
 O194 O 0.72827 0.74247 0.28654
 C195 C 0.74826 0.81668 0.21234
 C196 C 0.80161 0.81705 0.26509
 C197 C 0.80206 0.76378 0.21258
 C198 C 0.74987 0.71217 0.31664
 C199 C 0.69852 0.76201 0.31725
 C200 C 0.69770 0.71266 0.26523
 H201 H 0.72057 0.79555 0.29500
 H202 H 0.71998 0.73502 0.23332
 H203 H 0.78095 0.79610 0.23308
 H204 H 0.78152 0.73475 0.29441
 H205 H 0.78629 0.77674 0.32482
 H206 H 0.81135 0.75823 0.30180
 H207 H 0.68764 0.75445 0.22872
 H208 H 0.71248 0.77458 0.20482
 H209 H 0.75420 0.80178 0.32527
 H210 H 0.76157 0.82786 0.29947
 H211 H 0.73856 0.70234 0.22863
 H212 H 0.76038 0.72747 0.20498
 H213 H 0.71206 0.82384 0.25424
 H214 H 0.68746 0.80004 0.27742
 H215 H 0.80915 0.72747 0.25361
 H216 H 0.78618 0.70235 0.27542
 O217 O 0.75054 0.19044 0.78096
 O218 O 0.72704 0.18255 0.75029
 O219 O 0.80904 0.21893 0.74789
 O220 O 0.81807 0.24877 0.72779
 O221 O 0.78110 0.25014 0.80840
 O222 O 0.75006 0.27326 0.81565
 O223 O 0.74756 0.27843 0.69023
 O224 O 0.77266 0.24967 0.68322
 O225 O 0.69068 0.24931 0.72008
 O226 O 0.68288 0.22625 0.75124
 O227 O 0.71944 0.30771 0.74790
 O228 O 0.75047 0.31636 0.77118
 O229 O 0.74845 0.30643 0.71641
 O230 O 0.77669 0.31258 0.74936
 O231 O 0.69182 0.28114 0.74937
 O232 O 0.68687 0.24782 0.77750
 O233 O 0.71677 0.24892 0.69197
 O234 O 0.74911 0.22130 0.68611
 O235 O 0.75054 0.21733 0.80836
 O236 O 0.72406 0.24947 0.81380
 O237 O 0.80850 0.24966 0.78152
 O238 O 0.81230 0.27719 0.74846
 O239 O 0.78278 0.19097 0.74951
 O240 O 0.75022 0.18483 0.72388
 Zr241 Zr 0.75150 0.20857 0.75055
 O242 O 0.72906 0.22756 0.73027
 Zr243 Zr 0.79047 0.24891 0.75044
 O244 O 0.77068 0.26875 0.72820
 Zr245 Zr 0.75085 0.24827 0.79016
 O246 O 0.73014 0.26995 0.77070
 Zr247 Zr 0.74822 0.24866 0.70925
 O248 O 0.77095 0.22850 0.72847
 Zr249 Zr 0.70961 0.24994 0.74996
 O250 O 0.72923 0.22801 0.77060
 Zr251 Zr 0.74958 0.28926 0.74791
 O252 O 0.77054 0.27049 0.77032
 O253 O 0.77225 0.22759 0.77153
 O254 O 0.72767 0.27047 0.72775
 C255 C 0.75019 0.19657 0.80175
 C256 C 0.80337 0.19800 0.74812
 C257 C 0.80189 0.25042 0.80227
 C258 C 0.74765 0.29936 0.69583
 C259 C 0.69620 0.24908 0.69913
 C260 C 0.69860 0.30182 0.74844
 H261 H 0.71933 0.21714 0.72157
 H262 H 0.72115 0.27965 0.78091
 H263 H 0.78215 0.21799 0.78111
 H264 H 0.78065 0.27765 0.71816
 H265 H 0.78566 0.24049 0.68854
 H266 H 0.81187 0.25272 0.71274
 H267 H 0.68778 0.26215 0.78605
 H268 H 0.71372 0.23685 0.81010
 H269 H 0.73531 0.21211 0.68821
 H270 H 0.76220 0.18911 0.71301
 H271 H 0.74213 0.31143 0.78480
 H272 H 0.75884 0.28624 0.80976
 H273 H 0.71414 0.18812 0.75938
 H274 H 0.68812 0.21250 0.74332
 H275 H 0.80969 0.28639 0.76218
 H276 H 0.78504 0.31170 0.73490
 O277 O 0.23470 0.79231 0.78315
 O278 O 0.25962 0.79929 0.75163
 O279 O 0.17582 0.76523 0.74996
 O280 O 0.16823 0.73628 0.72682
 O281 O 0.20329 0.73271 0.80933
 O282 O 0.23536 0.70792 0.81541
 O283 O 0.23586 0.70328 0.69225
 O284 O 0.20850 0.73349 0.68676
 O285 O 0.29310 0.73426 0.71928
 O286 O 0.29973 0.76007 0.75175
 O287 O 0.26681 0.67616 0.74989
 O288 O 0.23423 0.66905 0.77586
 O289 O 0.23653 0.67610 0.71948
 O290 O 0.21089 0.66835 0.75109
 O291 O 0.29360 0.70363 0.74981
 O292 O 0.30050 0.73566 0.77552
 O293 O 0.26575 0.73354 0.69224
 O294 O 0.23823 0.75897 0.68509
 O295 O 0.23484 0.76466 0.80995
 O296 O 0.25977 0.73366 0.81627
 O297 O 0.17626 0.73323 0.78189
 O298 O 0.17105 0.70761 0.75018
 O299 O 0.20279 0.79252 0.75136
 O300 O 0.23524 0.80041 0.72712
 Zr301 Zr 0.23367 0.77473 0.75210
 O302 O 0.25474 0.75571 0.73061
 Zr303 Zr 0.19432 0.73478 0.75137
 O304 O 0.21388 0.71383 0.73022
 Zr305 Zr 0.23402 0.73445 0.79137
 O306 O 0.25555 0.71389 0.77187
 Zr307 Zr 0.23540 0.73384 0.71046
 O308 O 0.21391 0.75522 0.72963
 Zr309 Zr 0.27520 0.73407 0.75015
 O310 O 0.25577 0.75487 0.77189
 Zr311 Zr 0.23588 0.69394 0.75009
 O312 O 0.21419 0.71280 0.77138
 O313 O 0.21280 0.75556 0.77280
 O314 O 0.25686 0.71275 0.72897
 C315 C 0.23517 0.78554 0.80388
 C316 C 0.18206 0.78606 0.75023
 C317 C 0.18252 0.73232 0.80271
 C318 C 0.23654 0.68249 0.69871
 C319 C 0.28656 0.73384 0.69849
 C320 C 0.28751 0.68278 0.74972
 H321 H 0.26371 0.76611 0.72107
 H322 H 0.26504 0.70458 0.78208
 H323 H 0.20302 0.76503 0.78252
 H324 H 0.20384 0.70453 0.72062
 H325 H 0.19842 0.74633 0.69058
 H326 H 0.17349 0.72776 0.71345
 H327 H 0.29728 0.72368 0.78677
 H328 H 0.27194 0.74375 0.81078
 H329 H 0.22957 0.77218 0.69049
 H330 H 0.22247 0.79798 0.71656
 H331 H 0.24694 0.67168 0.78646
 H332 H 0.22455 0.69626 0.81022
 H333 H 0.27146 0.79395 0.76227
 H334 H 0.29639 0.77102 0.73949
 H335 H 0.17607 0.69640 0.76162
 H336 H 0.19951 0.67186 0.73929
 O337 O 0.24869 0.32484 0.73318
 O338 O 0.22344 0.33098 0.76454
 O339 O 0.30799 0.29860 0.76671
 O340 O 0.31624 0.26940 0.78960
 O341 O 0.28182 0.26599 0.70690
 O342 O 0.25042 0.24074 0.70054
 O343 O 0.24999 0.23525 0.82392
 O344 O 0.27585 0.26630 0.82944
 O345 O 0.19143 0.26493 0.79639
 O346 O 0.18458 0.29136 0.76397
 O347 O 0.21886 0.20788 0.76597
 O348 O 0.25179 0.20132 0.74033
 O349 O 0.24957 0.20814 0.79679
 O350 O 0.27505 0.20089 0.76504
 O351 O 0.19161 0.23501 0.76558
 O352 O 0.18422 0.26699 0.74026
 O353 O 0.21863 0.26442 0.82359
 O354 O 0.24517 0.29057 0.83105
 O355 O 0.24939 0.29747 0.70627
 O356 O 0.22533 0.26585 0.69966
 O357 O 0.30863 0.26689 0.73452
 O358 O 0.31423 0.24108 0.76615
 O359 O 0.28039 0.32538 0.76505
 O360 O 0.24774 0.33244 0.78909
 Zr361 Zr 0.25002 0.30698 0.76409
 O362 O 0.22929 0.28744 0.78542
 Zr363 Zr 0.29029 0.26777 0.76492
 O364 O 0.27109 0.24631 0.78591
 Zr365 Zr 0.25091 0.26703 0.72470
 O366 O 0.22973 0.24594 0.74406
 Zr367 Zr 0.24906 0.26579 0.80561
 O368 O 0.27014 0.28769 0.78659
 Zr369 Zr 0.20950 0.26561 0.76567
 O370 O 0.22856 0.28689 0.74407
 Zr371 Zr 0.24957 0.22609 0.76602
 O372 O 0.27101 0.24553 0.74485
 O373 O 0.27148 0.28841 0.74344
 O374 O 0.22812 0.24443 0.78702
 C375 C 0.24847 0.31828 0.71244
 C376 C 0.30123 0.31931 0.76645
 C377 C 0.30256 0.26595 0.71365
 C378 C 0.24992 0.21448 0.81757
 C379 C 0.19786 0.26429 0.81719
 C380 C 0.19802 0.21425 0.76574
 H381 H 0.22002 0.29756 0.79495
 H382 H 0.22049 0.23656 0.73377
 H383 H 0.28110 0.29815 0.73381
 H384 H 0.28137 0.23716 0.79550
 H385 H 0.28549 0.27944 0.82561
 H386 H 0.31092 0.26097 0.80304
 H387 H 0.18802 0.25553 0.72872
 H388 H 0.21298 0.27585 0.70494
 H389 H 0.25310 0.30420 0.82560
 H390 H 0.26051 0.33016 0.79974
 H391 H 0.23925 0.20399 0.72953
 H392 H 0.26124 0.22909 0.70595
 H393 H 0.21181 0.32553 0.75378
 H394 H 0.18720 0.30185 0.77670
 H395 H 0.30953 0.22986 0.75467
 H396 H 0.28655 0.20474 0.77657
 O397 O 0.76607 0.69224 0.70401
 O398 O 0.79154 0.68612 0.73565
 O399 O 0.70707 0.71880 0.73671
 O400 O 0.69881 0.74819 0.75911
 O401 O 0.73404 0.75130 0.67682
 O402 O 0.76562 0.77616 0.67059
 O403 O 0.76553 0.78249 0.79378
 O404 O 0.73928 0.75164 0.79956
 O405 O 0.82385 0.75170 0.76711
 O406 O 0.83077 0.72563 0.73518
 O407 O 0.79661 0.80910 0.73605
 O408 O 0.76377 0.81550 0.70965
 O409 O 0.76591 0.80932 0.76623
 O410 O 0.74061 0.81646 0.73440
 O411 O 0.82377 0.78187 0.73634
 O412 O 0.83099 0.74965 0.71099
 O413 O 0.79664 0.75274 0.79414
 O414 O 0.76963 0.72705 0.80174
 O415 O 0.76586 0.71957 0.67689
 O416 O 0.79048 0.75078 0.67035
 O417 O 0.70693 0.75060 0.70401
 O418 O 0.70116 0.77641 0.73556
 O419 O 0.73459 0.69193 0.73581
 O420 O 0.76714 0.68479 0.76004
 Zr421 Zr 0.76503 0.71020 0.73481
 O422 O 0.78577 0.72975 0.75614
 Zr423 Zr 0.72496 0.74959 0.73478
 O424 O 0.74420 0.77107 0.75576
 Zr425 Zr 0.76468 0.74999 0.69504
 O426 O 0.78583 0.77108 0.71435
 Zr427 Zr 0.76613 0.75168 0.77594
 O428 O 0.74497 0.72976 0.75692
 Zr429 Zr 0.80580 0.75133 0.73634
 O430 O 0.78675 0.73002 0.71481
 Zr431 Zr 0.76588 0.79105 0.73584
 O432 O 0.74447 0.77163 0.71468
 O433 O 0.74380 0.72881 0.71374
 O434 O 0.78722 0.77277 0.75725
 C435 C 0.76634 0.69877 0.68322
 C436 C 0.71375 0.69805 0.73689
 C437 C 0.71326 0.75152 0.68323
 C438 C 0.76566 0.80322 0.78709
 C439 C 0.81743 0.75244 0.78786
 C440 C 0.81741 0.80265 0.73626
 H441 H 0.79493 0.71959 0.76586
 H442 H 0.79515 0.78038 0.70407
 H443 H 0.73411 0.71912 0.70413
 H444 H 0.73395 0.78033 0.76516
 H445 H 0.72951 0.73858 0.79580
 H446 H 0.70416 0.75648 0.77260
 H447 H 0.82764 0.76154 0.69965
 H448 H 0.80266 0.74062 0.67588
 H449 H 0.76164 0.71344 0.79635
 H450 H 0.75452 0.68731 0.77070
 H451 H 0.77677 0.81316 0.69940
 H452 H 0.75485 0.78792 0.67570
 H453 H 0.80303 0.69129 0.72463
 H454 H 0.82752 0.71468 0.74742
 H455 H 0.70594 0.78755 0.72400
 H456 H 0.72893 0.81262 0.74572
 O457 O 0.24900 0.69372 0.28167
 O458 O 0.22642 0.68615 0.25035
 O459 O 0.30895 0.72137 0.25055
 O460 O 0.31907 0.75095 0.23067
 O461 O 0.27965 0.75308 0.31007
 O462 O 0.24871 0.77649 0.31641
 O463 O 0.25036 0.78154 0.19081
 O464 O 0.27488 0.75233 0.18452
 O465 O 0.19196 0.75375 0.21906
 O466 O 0.18292 0.73051 0.24994
 O467 O 0.22074 0.81145 0.24777
 O468 O 0.25108 0.81981 0.27160
 O469 O 0.25082 0.80963 0.21691
 O470 O 0.27807 0.81535 0.25089
 O471 O 0.19273 0.78526 0.24822
 O472 O 0.18639 0.75217 0.27627
 O473 O 0.21881 0.75258 0.19169
 O474 O 0.25095 0.72435 0.18696
 O475 O 0.24870 0.72059 0.30909
 O476 O 0.22240 0.75315 0.31362
 O477 O 0.30781 0.75244 0.28402
 O478 O 0.31307 0.77954 0.25084
 O479 O 0.28226 0.69378 0.25130
 O480 O 0.25041 0.68811 0.22463
 Zr481 Zr 0.25122 0.71183 0.25134
 O482 O 0.22966 0.73111 0.23037
 Zr483 Zr 0.29074 0.75161 0.25240
 O484 O 0.27195 0.77164 0.22951
 Zr485 Zr 0.24995 0.75155 0.29090
 O486 O 0.23022 0.77355 0.27078
 Zr487 Zr 0.24976 0.75185 0.20992
 O488 O 0.27163 0.73144 0.22985
 Zr489 Zr 0.21001 0.75384 0.24945
 O490 O 0.22864 0.73162 0.27069
 Zr491 Zr 0.25059 0.79254 0.24852
 O492 O 0.27054 0.77350 0.27164
 O493 O 0.27161 0.73056 0.27295
 O494 O 0.22902 0.77404 0.22774
 C495 C 0.24817 0.69983 0.30245
 C496 C 0.30298 0.70053 0.25059
 C497 C 0.30061 0.75330 0.30457
 C498 C 0.25071 0.80248 0.19633
 C499 C 0.19806 0.75336 0.19827
 C500 C 0.19981 0.80585 0.24762
 H501 H 0.22003 0.72084 0.22139
 H502 H 0.22108 0.78341 0.28070
 H503 H 0.28110 0.72087 0.28285
 H504 H 0.28239 0.78035 0.21977
 H505 H 0.28767 0.74313 0.19031
 H506 H 0.31336 0.75463 0.21536
 H507 H 0.18730 0.76649 0.28484
 H508 H 0.21208 0.74058 0.30966
 H509 H 0.23682 0.71553 0.18847
 H510 H 0.26287 0.69213 0.21420
 H511 H 0.24276 0.81484 0.28522
 H512 H 0.25779 0.78939 0.31081
 H513 H 0.21324 0.69200 0.25884
 H514 H 0.18808 0.71680 0.24191
 H515 H 0.31025 0.78885 0.26445
 H516 H 0.28678 0.81444 0.23665
 O517 O 0.73469 0.29435 0.28187
 O518 O 0.75941 0.30137 0.25028
 O519 O 0.67575 0.26701 0.24844
 O520 O 0.66834 0.23802 0.22532
 O521 O 0.70291 0.23517 0.30804
 O522 O 0.73478 0.20997 0.31427
 O523 O 0.73619 0.20511 0.19118
 O524 O 0.70877 0.23530 0.18551
 O525 O 0.79324 0.23643 0.21841
 O526 O 0.79967 0.26213 0.25092
 O527 O 0.76686 0.17819 0.24914
 O528 O 0.73418 0.17105 0.27483
 O529 O 0.73674 0.17801 0.21848
 O530 O 0.71097 0.17029 0.24997
 O531 O 0.79362 0.20569 0.24900
 O532 O 0.80033 0.23780 0.27470
 O533 O 0.76601 0.23560 0.19125
 O534 O 0.73843 0.26074 0.18384
 O535 O 0.73479 0.26673 0.30869
 O536 O 0.75933 0.23557 0.31529
 O537 O 0.67607 0.23536 0.28041
 O538 O 0.67113 0.20941 0.24884
 O539 O 0.70260 0.29442 0.25010
 O540 O 0.73503 0.30231 0.22577
 Zr541 Zr 0.73355 0.27671 0.25085
 O542 O 0.75476 0.25768 0.22952
 Zr543 Zr 0.69431 0.23666 0.25001
 O544 O 0.71400 0.21571 0.22900
 Zr545 Zr 0.73377 0.23650 0.29021
 O546 O 0.75544 0.21595 0.27087
 Zr547 Zr 0.73558 0.23572 0.20932
 O548 O 0.71395 0.25710 0.22833
 Zr549 Zr 0.77517 0.23611 0.24919
 O550 O 0.75559 0.25692 0.27079
 Zr551 Zr 0.73592 0.19591 0.24903
 O552 O 0.71407 0.21476 0.27019
 O553 O 0.71265 0.25755 0.27148
 O554 O 0.75699 0.21470 0.22796
 C555 C 0.73525 0.28760 0.30260
 C556 C 0.68190 0.28786 0.24884
 C557 C 0.68218 0.23481 0.30128
 C558 C 0.73683 0.18434 0.19768
 C559 C 0.78679 0.23607 0.19760
 C560 C 0.78755 0.18483 0.24904
 H561 H 0.76375 0.26809 0.22001
 H562 H 0.76489 0.20669 0.28115
 H563 H 0.70288 0.26709 0.28115
 H564 H 0.70403 0.20637 0.21937
 H565 H 0.69866 0.24813 0.18926
 H566 H 0.67367 0.22943 0.21202
 H567 H 0.79718 0.22572 0.28587
 H568 H 0.77165 0.24548 0.30982
 H569 H 0.72998 0.27406 0.18930
 H570 H 0.72222 0.29982 0.21525
 H571 H 0.74665 0.17390 0.28564
 H572 H 0.72380 0.19844 0.30911
 H573 H 0.77129 0.29608 0.26090
 H574 H 0.79635 0.27310 0.23867
 H575 H 0.67603 0.19834 0.26047
 H576 H 0.69960 0.17379 0.23815
 C577 C 0.23704 0.07065 0.03070
 C578 C 0.25196 0.07002 0.04913
 C579 C 0.26617 0.05137 0.05226
 C580 C 0.26534 0.03326 0.03725
 C581 C 0.25037 0.03348 0.01860
 C582 C 0.23618 0.05250 0.01555
 C583 C 0.25248 0.08801 0.06543
 C584 C 0.25347 0.10244 0.07974
 C585 C 0.25510 0.11879 0.09697
 C586 C 0.25674 0.13254 0.11188
 C587 C 0.25880 0.14897 0.12965
 C588 C 0.25873 0.14211 0.15234
 C589 C 0.26042 0.15818 0.16959
 C590 C 0.26220 0.18134 0.16430
 C591 C 0.26250 0.18798 0.14138
 C592 C 0.26081 0.17190 0.12422
 H593 H 0.22579 0.08495 0.02828
 H594 H 0.27780 0.05073 0.06645
 H595 H 0.27677 0.01917 0.04007
 H596 H 0.22381 0.05300 0.00201
 H597 H 0.25721 0.12437 0.15671
 H598 H 0.26008 0.15249 0.18702
 H599 H 0.26384 0.20563 0.13665
 H600 H 0.26093 0.17737 0.10671
 C601 C 0.76734 0.56641 0.53389
 C602 C 0.75042 0.57092 0.54980
 C603 C 0.73079 0.55773 0.55023
 C604 C 0.72835 0.53968 0.53525
 C605 C 0.74551 0.53465 0.51963
 C606 C 0.76492 0.54834 0.51888
 C607 C 0.75368 0.58820 0.56657
 C608 C 0.75633 0.60224 0.58105
 C609 C 0.75925 0.61838 0.59833
 C610 C 0.76150 0.63210 0.61318
 C611 C 0.76383 0.64862 0.63083
 C612 C 0.76344 0.64196 0.65358
 C613 C 0.76472 0.65819 0.67071
 C614 C 0.76635 0.68133 0.66526
 C615 C 0.76709 0.68776 0.64230
 C616 C 0.76583 0.67152 0.62525
 H617 H 0.78265 0.57645 0.53351
 H618 H 0.71762 0.56106 0.56251
 H619 H 0.71329 0.52930 0.53613
 H620 H 0.77851 0.54453 0.50723
 H621 H 0.76187 0.62425 0.65807
 H622 H 0.76406 0.65264 0.68817
 H623 H 0.76835 0.70539 0.63745
 H624 H 0.76612 0.67686 0.60770
 C625 C 0.73624 0.93694 0.05553
 C626 C 0.75018 0.94121 0.07415
 C627 C 0.76567 0.95902 0.07334
 C628 C 0.76737 0.97243 0.05389
 C629 C 0.75347 0.96833 0.03485
 C630 C 0.73789 0.95027 0.03606
 C631 C 0.74923 0.92661 0.09364
 C632 C 0.74853 0.91386 0.10957
 C633 C 0.74785 0.89837 0.12775
 C634 C 0.74741 0.88466 0.14287
 C635 C 0.74709 0.86776 0.16043
 C636 C 0.74752 0.87406 0.18323
 C637 C 0.74769 0.85749 0.20018
 C638 C 0.74745 0.83436 0.19450
 C639 C 0.74686 0.82826 0.17149
 C640 C 0.74668 0.84485 0.15462
 H641 H 0.72418 0.92317 0.05598
 H642 H 0.77682 0.96224 0.08756
 H643 H 0.78041 0.98524 0.05347
 H644 H 0.72651 0.94669 0.02214
 H645 H 0.74787 0.89177 0.18791
 H646 H 0.74818 0.86280 0.21769
 H647 H 0.74666 0.81066 0.16647
 H648 H 0.74636 0.83979 0.13701
 C649 C 0.26706 0.45688 0.57030
 C650 C 0.24897 0.44189 0.57316
 C651 C 0.23210 0.44049 0.55654
 C652 C 0.23343 0.45384 0.53703
 C653 C 0.25161 0.46879 0.53395
 C654 C 0.26841 0.47023 0.55078
 C655 C 0.24820 0.42723 0.59264
 C656 C 0.24769 0.41452 0.60862
 C657 C 0.24727 0.39914 0.62694
 C658 C 0.24705 0.38557 0.64220
 C659 C 0.24697 0.36884 0.65996
 C660 C 0.24697 0.34587 0.65440
 C661 C 0.24729 0.32946 0.67146
 C662 C 0.24763 0.33579 0.69441
 C663 C 0.24750 0.35898 0.69983
 C664 C 0.24719 0.37538 0.68270
 H665 H 0.28029 0.45798 0.58297
 H666 H 0.21808 0.42888 0.55854
 H667 H 0.22031 0.45245 0.52428
 H668 H 0.28277 0.48137 0.54860
 H669 H 0.24682 0.34061 0.63685
 H670 H 0.24738 0.31180 0.66661
 H671 H 0.24779 0.36448 0.71729
 H672 H 0.24722 0.39314 0.68719
 C673 C 0.78147 0.05019 0.93263
 C674 C 0.76242 0.05227 0.91867
 C675 C 0.74456 0.03685 0.92078
 C676 C 0.74527 0.02014 0.93759
 C677 C 0.76383 0.01877 0.95244
 C678 C 0.78218 0.03354 0.94943
 C679 C 0.76043 0.07136 0.90362
 C680 C 0.75866 0.08776 0.89158
 C681 C 0.75654 0.10709 0.87767
 C682 C 0.75470 0.12338 0.86547
 C683 C 0.75255 0.14217 0.85008
 C684 C 0.74759 0.13791 0.82738
 C685 C 0.74636 0.15570 0.81190
 C686 C 0.75008 0.17817 0.81886
 C687 C 0.75460 0.18242 0.84185
 C688 C 0.75588 0.16446 0.85737
 H689 H 0.79536 0.06204 0.93117
 H690 H 0.72969 0.03837 0.91012
 H691 H 0.73078 0.00918 0.93986
 H692 H 0.79659 0.03283 0.96079
 H693 H 0.74494 0.12075 0.82155
 H694 H 0.74271 0.15176 0.79439
 H695 H 0.75762 0.19948 0.84772
 H696 H 0.75974 0.16793 0.87495
 C697 C 0.24092 0.53797 0.41920
 C698 C 0.25852 0.55372 0.41733
 C699 C 0.27760 0.55173 0.43127
 C700 C 0.27855 0.53488 0.44785
 C701 C 0.26042 0.51979 0.45067
 C702 C 0.24188 0.52103 0.43579
 C703 C 0.25629 0.57305 0.40258
 C704 C 0.25446 0.58969 0.39084
 C705 C 0.25239 0.60932 0.37730
 C706 C 0.25069 0.62586 0.36541
 C707 C 0.24876 0.64495 0.35031
 C708 C 0.25313 0.66703 0.35776
 C709 C 0.25232 0.68519 0.34243
 C710 C 0.24726 0.68137 0.31947
 C711 C 0.24241 0.65916 0.31240
 C712 C 0.24316 0.64117 0.32768
 H713 H 0.22604 0.53940 0.40854
 H714 H 0.29131 0.56381 0.42999
 H715 H 0.29292 0.53429 0.45926
 H716 H 0.22757 0.50981 0.43792
 H717 H 0.25751 0.67014 0.37529
 H718 H 0.25621 0.70205 0.34839
 H719 H 0.23829 0.65556 0.29491
 H720 H 0.23971 0.62420 0.32172
 C721 C 0.22832 0.91616 0.95636
 C722 C 0.24047 0.91602 0.93606
 C723 C 0.25416 0.93440 0.93050
 C724 C 0.25551 0.95299 0.94490
 C725 C 0.24322 0.95367 0.96537
 C726 C 0.22968 0.93479 0.97093
 C727 C 0.23855 0.89755 0.92033
 C728 C 0.23743 0.88274 0.90638
 C729 C 0.23655 0.86598 0.88941
 C730 C 0.23609 0.85197 0.87462
 C731 C 0.23577 0.83536 0.85683
 C732 C 0.23552 0.84221 0.83413
 C733 C 0.23541 0.82607 0.81685
 C734 C 0.23556 0.80281 0.82207
 C735 C 0.23583 0.79615 0.84499
 C736 C 0.23594 0.81231 0.86220
 H737 H 0.21742 0.90210 0.96071
 H738 H 0.26374 0.93446 0.91489
 H739 H 0.26666 0.96670 0.94011
 H740 H 0.21902 0.93484 0.98576
 H741 H 0.23543 0.86002 0.82977
 H742 H 0.23517 0.83181 0.79943
 H743 H 0.23592 0.77843 0.84968
 H744 H 0.23617 0.80681 0.87970
 C745 C 0.72605 0.41855 0.45316
 C746 C 0.74372 0.41500 0.43780
 C747 C 0.76256 0.42929 0.43805
 C748 C 0.76344 0.44747 0.45306
 C749 C 0.74549 0.45157 0.46806
 C750 C 0.72692 0.43675 0.46824
 C751 C 0.74207 0.39761 0.42085
 C752 C 0.74085 0.38354 0.40617
 C753 C 0.73960 0.36741 0.38862
 C754 C 0.73866 0.35373 0.37355
 C755 C 0.73766 0.33727 0.35564
 C756 C 0.73734 0.34420 0.33296
 C757 C 0.73654 0.32811 0.31563
 C758 C 0.73608 0.30485 0.32080
 C759 C 0.73637 0.29813 0.34370
 C760 C 0.73716 0.31422 0.36094
 H761 H 0.71134 0.40765 0.45304
 H762 H 0.77631 0.42674 0.42623
 H763 H 0.77790 0.45870 0.45262
 H764 H 0.71274 0.43979 0.47940
 H765 H 0.73773 0.36202 0.32867
 H766 H 0.73632 0.33390 0.29823
 H767 H 0.73600 0.28040 0.34836
 H768 H 0.73741 0.30865 0.37843
 C769 C 0.05445 0.26576 0.06253
 C770 C 0.07238 0.25074 0.05901
 C771 C 0.07104 0.23480 0.04164
 C772 C 0.05176 0.23377 0.02790
 C773 C 0.03346 0.24881 0.03123
 C774 C 0.03516 0.26478 0.04888
 C775 C 0.09173 0.25124 0.07382
 C776 C 0.10757 0.25169 0.08668
 C777 C 0.12570 0.25220 0.10225
 C778 C 0.14084 0.25257 0.11594
 C779 C 0.15851 0.25289 0.13272
 C780 C 0.18126 0.25263 0.12622
 C781 C 0.19835 0.25255 0.14264
 C782 C 0.19288 0.25271 0.16583
 C783 C 0.16992 0.25312 0.17214
 C784 C 0.15289 0.25321 0.15569
 H785 H 0.05532 0.27818 0.07595
 H786 H 0.08472 0.22288 0.03896
 H787 H 0.05089 0.22058 0.01527
 H788 H 0.02179 0.27696 0.05185
 H789 H 0.18579 0.25236 0.10847
 H790 H 0.21582 0.25218 0.13716
 H791 H 0.16506 0.25325 0.18979
 H792 H 0.13533 0.25341 0.16091
 C793 C 0.57031 0.76781 0.54286
 C794 C 0.57488 0.75088 0.55888
 C795 C 0.55981 0.73285 0.56156
 C796 C 0.54013 0.73183 0.54848
 C797 C 0.53533 0.74880 0.53249
 C798 C 0.55059 0.76680 0.52972
 C799 C 0.59451 0.75227 0.57327
 C800 C 0.61050 0.75304 0.58595
 C801 C 0.62870 0.75356 0.60144
 C802 C 0.64382 0.75371 0.61517
 C803 C 0.66136 0.75359 0.63211
 C804 C 0.68418 0.75329 0.62583
 C805 C 0.70111 0.75273 0.64242
 C806 C 0.69541 0.75243 0.66555
 C807 C 0.67239 0.75282 0.67163
 C808 C 0.65553 0.75339 0.65503
 H809 H 0.58179 0.78191 0.54075
 H810 H 0.56314 0.71971 0.57396
 H811 H 0.52858 0.71783 0.55087
 H812 H 0.54703 0.78022 0.51771
 H813 H 0.68888 0.75339 0.60812
 H814 H 0.71863 0.75242 0.63711
 H815 H 0.66735 0.75261 0.68924
 H816 H 0.63791 0.75358 0.66007
 C817 C 0.04948 0.71815 0.94916
 C818 C 0.04889 0.73389 0.93152
 C819 C 0.03290 0.75136 0.93174
 C820 C 0.01788 0.75341 0.94986
 C821 C 0.01859 0.73796 0.96813
 C822 C 0.03455 0.72015 0.96730
 C823 C 0.06563 0.73285 0.91394
 C824 C 0.08012 0.73212 0.89967
 C825 C 0.09741 0.73144 0.88331
 C826 C 0.11230 0.73104 0.86944
 C827 C 0.13001 0.73079 0.85281
 C828 C 0.12448 0.73051 0.82980
 C829 C 0.14157 0.73080 0.81354
 C830 C 0.16451 0.73137 0.82008
 C831 C 0.16990 0.73147 0.84329
 C832 C 0.15273 0.73119 0.85954
 H833 H 0.06179 0.70453 0.94913
 H834 H 0.03251 0.76382 0.91827
 H835 H 0.00675 0.76796 0.95013
 H836 H 0.03543 0.70757 0.98064
 H837 H 0.10693 0.73022 0.82442
 H838 H 0.13676 0.73071 0.79585
 H839 H 0.18735 0.73194 0.84892
 H840 H 0.15718 0.73144 0.87733
 C841 C 0.53219 0.26072 0.42997
 C842 C 0.54766 0.24275 0.42887
 C843 C 0.54789 0.22621 0.44583
 C844 C 0.53316 0.22790 0.46414
 C845 C 0.51797 0.24612 0.46567
 C846 C 0.51736 0.26241 0.44833
 C847 C 0.56425 0.24177 0.41116
 C848 C 0.57875 0.24068 0.39693
 C849 C 0.59617 0.23920 0.38076
 C850 C 0.61121 0.23788 0.36711
 C851 C 0.62912 0.23639 0.35077
 C852 C 0.65177 0.23684 0.35775
 C853 C 0.66913 0.23594 0.34173
 C854 C 0.66400 0.23461 0.31850
 C855 C 0.64113 0.23390 0.31174
 C856 C 0.62385 0.23479 0.32777
 H857 H 0.53196 0.27367 0.41696
 H858 H 0.55983 0.21229 0.44518
 H859 H 0.53389 0.21521 0.47740
 H860 H 0.50594 0.27672 0.44937
 H861 H 0.65601 0.23808 0.37555
 H862 H 0.68652 0.23658 0.34752
 H863 H 0.63651 0.23287 0.29403
 H864 H 0.60637 0.23441 0.32219
 C865 C 0.95394 0.74159 0.08500
 C866 C 0.93707 0.75822 0.08465
 C867 C 0.93590 0.77343 0.06656
 C868 C 0.95096 0.77157 0.04850
 C869 C 0.96765 0.75440 0.04811
 C870 C 0.96914 0.73970 0.06696
 C871 C 0.92007 0.75896 0.10207
 C872 C 0.90533 0.75956 0.11614
 C873 C 0.88774 0.76025 0.13227
 C874 C 0.87266 0.76084 0.14599
 C875 C 0.85482 0.76153 0.16254
 C876 C 0.83208 0.76166 0.15576
 C877 C 0.81484 0.76236 0.17196
 C878 C 0.82014 0.76293 0.19519
 C879 C 0.84309 0.76279 0.20177
 C880 C 0.86024 0.76210 0.18557
 H881 H 0.95488 0.72957 0.09884
 H882 H 0.92300 0.78649 0.06616
 H883 H 0.94953 0.78375 0.03485
 H884 H 0.98091 0.72566 0.06718
 H885 H 0.82769 0.76123 0.13796
 H886 H 0.79740 0.76246 0.16628
 H887 H 0.84786 0.76324 0.21946
 H888 H 0.87777 0.76201 0.19103
 C889 C 0.43530 0.23797 0.57060
 C890 C 0.43681 0.25635 0.58538
 C891 C 0.45360 0.27275 0.58208
 C892 C 0.46841 0.27105 0.56369
 C893 C 0.46650 0.25294 0.54846
 C894 C 0.45001 0.23629 0.55225
 C895 C 0.42029 0.25876 0.60310
 C896 C 0.40585 0.26039 0.61739
 C897 C 0.38849 0.26190 0.63369
 C898 C 0.37350 0.26294 0.64747
 C899 C 0.35562 0.26393 0.66396
 C900 C 0.36092 0.26484 0.68700
 C901 C 0.34367 0.26550 0.70311
 C902 C 0.32076 0.26525 0.69641
 C903 C 0.31559 0.26439 0.67315
 C904 C 0.33292 0.26372 0.65706
 H905 H 0.42238 0.22520 0.57295
 H906 H 0.45486 0.28710 0.59337
 H907 H 0.48079 0.28424 0.56089
 H908 H 0.44825 0.22221 0.54070
 H909 H 0.37842 0.26499 0.69254
 H910 H 0.34834 0.26618 0.72082
 H911 H 0.29818 0.26419 0.66738
 H912 H 0.32862 0.26300 0.63924
 C913 C 0.93103 0.21910 0.95034
 C914 C 0.91732 0.23826 0.94772
 C915 C 0.91955 0.25642 0.96273
 C916 C 0.93628 0.25594 0.97952
 C917 C 0.95096 0.23729 0.98138
 C918 C 0.94776 0.21860 0.96708
 C919 C 0.90251 0.24009 0.92842
 C920 C 0.89069 0.24183 0.91185
 C921 C 0.87705 0.24402 0.89233
 C922 C 0.86507 0.24597 0.87589
 C923 C 0.84991 0.24831 0.85693
 C924 C 0.82740 0.25430 0.86089
 C925 C 0.81207 0.25557 0.84297
 C926 C 0.81897 0.25084 0.82068
 C927 C 0.84181 0.24537 0.81670
 C928 C 0.85719 0.24406 0.83478
 H929 H 0.92948 0.20497 0.93881
 H930 H 0.90907 0.27137 0.96079
 H931 H 0.93869 0.27068 0.99009
 H932 H 0.95898 0.20412 0.96816
 H933 H 0.82159 0.25768 0.87793
 H934 H 0.79467 0.25997 0.84669
 H935 H 0.84762 0.24156 0.79978
 H936 H 0.87462 0.23939 0.83154
 C937 C 0.43125 0.72707 0.45099
 C938 C 0.41647 0.74557 0.45017
 C939 C 0.41821 0.76271 0.46642
 C940 C 0.43542 0.76188 0.48276
 C941 C 0.45102 0.74392 0.48283
 C942 C 0.44844 0.72626 0.46720
 C943 C 0.40099 0.74771 0.43144
 C944 C 0.38875 0.74928 0.41515
 C945 C 0.37480 0.75087 0.39578
 C946 C 0.36272 0.75205 0.37934
 C947 C 0.34763 0.75326 0.36021
 C948 C 0.32460 0.75697 0.36391
 C949 C 0.30951 0.75734 0.34574
 C950 C 0.31719 0.75399 0.32344
 C951 C 0.34049 0.75063 0.31978
 C952 C 0.35562 0.75023 0.33811
 H953 H 0.43010 0.71375 0.43849
 H954 H 0.40690 0.77716 0.46588
 H955 H 0.43737 0.77580 0.49447
 H956 H 0.46044 0.71238 0.46691
 H957 H 0.31823 0.75934 0.38092
 H958 H 0.29174 0.76007 0.34927
 H959 H 0.34694 0.74795 0.30287
 H960 H 0.37346 0.74732 0.33507
 C961 C 0.06999 0.06165 0.26406
 C962 C 0.08325 0.06357 0.24456
 C963 C 0.07905 0.04939 0.22606
 C964 C 0.06123 0.03384 0.22681
 C965 C 0.04745 0.03233 0.24610
 C966 C 0.05220 0.04616 0.26482
 C967 C 0.10028 0.08091 0.24321
 C968 C 0.11415 0.09583 0.24224
 C969 C 0.13017 0.11351 0.24122
 C970 C 0.14388 0.12857 0.24043
 C971 C 0.16056 0.14630 0.23954
 C972 C 0.18353 0.14068 0.23859
 C973 C 0.19987 0.15769 0.23773
 C974 C 0.19351 0.18068 0.23782
 C975 C 0.17033 0.18619 0.23879
 C976 C 0.15398 0.16908 0.23965
 H977 H 0.07305 0.07254 0.27846
 H978 H 0.08915 0.05079 0.21085
 H979 H 0.05768 0.02360 0.21207
 H980 H 0.04175 0.04531 0.27983
 H981 H 0.18883 0.12312 0.23850
 H982 H 0.21751 0.15276 0.23698
 H983 H 0.16482 0.20367 0.23885
 H984 H 0.13622 0.17362 0.24039
 C985 C 0.57056 0.56095 0.72690
 C986 C 0.58665 0.56227 0.74426
 C987 C 0.58494 0.54792 0.76310
 C988 C 0.56675 0.53289 0.76492
 C989 C 0.55009 0.53210 0.74792
 C990 C 0.55239 0.54598 0.72872
 C991 C 0.60396 0.57938 0.74335
 C992 C 0.61795 0.59420 0.74258
 C993 C 0.63399 0.61188 0.74166
 C994 C 0.64762 0.62703 0.74087
 C995 C 0.66406 0.64498 0.73992
 C996 C 0.68712 0.63971 0.73903
 C997 C 0.70320 0.65697 0.73808
 C998 C 0.69649 0.67986 0.73800
 C999 C 0.67323 0.68500 0.73889
 C1000 C 0.65714 0.66766 0.73985
 H1001 H 0.57168 0.57198 0.71227
 H1002 H 0.59724 0.54887 0.77669
 H1003 H 0.56514 0.52263 0.78004
 H1004 H 0.53973 0.54568 0.71543
 H1005 H 0.69269 0.62223 0.73907
 H1006 H 0.72092 0.65231 0.73739
 H1007 H 0.66744 0.70240 0.73884
 H1008 H 0.63932 0.67194 0.74052
 C1009 C 0.95443 0.07177 0.72447
 C1010 C 0.94991 0.08302 0.74475
 C1011 C 0.96317 0.07850 0.76395
 C1012 C 0.98016 0.06196 0.76314
 C1013 C 0.98393 0.04979 0.74311
 C1014 C 0.97131 0.05523 0.72365
 C1015 C 0.93055 0.09780 0.74611
 C1016 C 0.91391 0.10963 0.74682
 C1017 C 0.89429 0.12332 0.74724
 C1018 C 0.87778 0.13535 0.74733
 C1019 C 0.85873 0.15060 0.74718
 C1020 C 0.86260 0.17371 0.74425
 C1021 C 0.84454 0.18891 0.74429
 C1022 C 0.82215 0.18129 0.74725
 C1023 C 0.81832 0.15794 0.74996
 C1024 C 0.83655 0.14268 0.74994
 H1025 H 0.94428 0.07510 0.70952
 H1026 H 0.95977 0.08707 0.77976
 H1027 H 0.98946 0.05776 0.77841
 H1028 H 0.97385 0.04591 0.70811
 H1029 H 0.87966 0.18004 0.74205
 H1030 H 0.84823 0.20672 0.74210
 H1031 H 0.80135 0.15152 0.75234
 H1032 H 0.83337 0.12478 0.75219
 C1033 C 0.45090 0.57064 0.23130
 C1034 C 0.44773 0.58346 0.25088
 C1035 C 0.46192 0.58006 0.26966
 C1036 C 0.47850 0.56309 0.26918
 C1037 C 0.48087 0.54941 0.24995
 C1038 C 0.46734 0.55369 0.23084
 C1039 C 0.42874 0.59870 0.25208
 C1040 C 0.41232 0.61083 0.25253
 C1041 C 0.39291 0.62478 0.25255
 C1042 C 0.37656 0.63701 0.25221
 C1043 C 0.35772 0.65247 0.25149
 C1044 C 0.33538 0.64483 0.25367
 C1045 C 0.31735 0.66031 0.25308
 C1046 C 0.32155 0.68359 0.25034
 C1047 C 0.34411 0.69092 0.24797
 C1048 C 0.36197 0.67551 0.24855
 H1049 H 0.44002 0.57310 0.21670
 H1050 H 0.45956 0.58986 0.28493
 H1051 H 0.48857 0.55979 0.28418
 H1052 H 0.46883 0.54316 0.21595
 H1053 H 0.33192 0.62698 0.25592
 H1054 H 0.30023 0.65412 0.25501
 H1055 H 0.34808 0.70867 0.24578
 H1056 H 0.37916 0.68161 0.24678
 C1057 C 0.04515 0.93019 0.73163
 C1058 C 0.05817 0.92489 0.75075
 C1059 C 0.05804 0.93939 0.76944
 C1060 C 0.04517 0.95926 0.76891
 C1061 C 0.03224 0.96482 0.74968
 C1062 C 0.03228 0.95006 0.73107
 C1063 C 0.07256 0.90521 0.75076
 C1064 C 0.08511 0.88911 0.75063
 C1065 C 0.10041 0.87073 0.75037
 C1066 C 0.11400 0.85550 0.75013
 C1067 C 0.13088 0.83791 0.74986
 C1068 C 0.15381 0.84373 0.74993
 C1069 C 0.17040 0.82688 0.74989
 C1070 C 0.16432 0.80385 0.74977
 C1071 C 0.14118 0.79815 0.74959
 C1072 C 0.12459 0.81509 0.74964
 H1073 H 0.04527 0.91919 0.71700
 H1074 H 0.06814 0.93550 0.78428
 H1075 H 0.04540 0.97040 0.78343
 H1076 H 0.02275 0.95418 0.71592
 H1077 H 0.15887 0.86133 0.75010
 H1078 H 0.18800 0.83193 0.75003
 H1079 H 0.13589 0.78063 0.74954
 H1080 H 0.10687 0.81040 0.74959
 C1081 C 0.53995 0.42821 0.26664
 C1082 C 0.55709 0.42560 0.25053
 C1083 C 0.56101 0.44272 0.23463
 C1084 C 0.54800 0.46245 0.23491
 C1085 C 0.53085 0.46526 0.25107
 C1086 C 0.52689 0.44798 0.26694
 C1087 C 0.57134 0.40584 0.25066
 C1088 C 0.58393 0.38978 0.25050
 C1089 C 0.59939 0.37158 0.25010
 C1090 C 0.61317 0.35653 0.24966
 C1091 C 0.63025 0.33917 0.24911
 C1092 C 0.62418 0.31630 0.24868
 C1093 C 0.64095 0.29956 0.24837
 C1094 C 0.66403 0.30550 0.24850
 C1095 C 0.66988 0.32857 0.24880
 C1096 C 0.65311 0.34524 0.24910
 H1097 H 0.53688 0.41511 0.27912
 H1098 H 0.57428 0.44092 0.22215
 H1099 H 0.55130 0.47558 0.22254
 H1100 H 0.51394 0.44996 0.27972
 H1101 H 0.60652 0.31142 0.24868
 H1102 H 0.63583 0.28198 0.24819
 H1103 H 0.68743 0.33380 0.24892
 H1104 H 0.65798 0.36290 0.24942
 C1105 C 0.94346 0.94891 0.22937
 C1106 C 0.92817 0.95146 0.24715
 C1107 C 0.93062 0.96944 0.26227
 C1108 C 0.94876 0.98442 0.26005
 C1109 C 0.96486 0.98162 0.24265
 C1110 C 0.96162 0.96378 0.22712
 C1111 C 0.91090 0.93473 0.25062
 C1112 C 0.89696 0.92018 0.25348
 C1113 C 0.88103 0.90276 0.25669
 C1114 C 0.86750 0.88776 0.25921
 C1115 C 0.85121 0.86993 0.26185
 C1116 C 0.82828 0.87527 0.26405
 C1117 C 0.81223 0.85805 0.26558
 C1118 C 0.81890 0.83517 0.26490
 C1119 C 0.84208 0.82996 0.26309
 C1120 C 0.85812 0.84726 0.26154
 H1121 H 0.94165 0.93509 0.21750
 H1122 H 0.91897 0.97142 0.27625
 H1123 H 0.95094 0.99718 0.27296
 H1124 H 0.97314 0.96128 0.21313
 H1125 H 0.82276 0.89276 0.26429
 H1126 H 0.79456 0.86272 0.26699
 H1127 H 0.84779 0.81255 0.26245
 H1128 H 0.87586 0.84296 0.25980
 C1129 C 0.43236 0.46692 0.74653
 C1130 C 0.42981 0.45325 0.76575
 C1131 C 0.44538 0.45478 0.78356
 C1132 C 0.46380 0.46943 0.78190
 C1133 C 0.46682 0.48276 0.76242
 C1134 C 0.45080 0.48160 0.74486
 C1135 C 0.41215 0.43658 0.76659
 C1136 C 0.39783 0.42213 0.76716
 C1137 C 0.38144 0.40484 0.76764
 C1138 C 0.36758 0.38993 0.76789
 C1139 C 0.35102 0.37215 0.76798
 C1140 C 0.32798 0.37754 0.76751
 C1141 C 0.31182 0.36035 0.76717
 C1142 C 0.31848 0.33745 0.76729
 C1143 C 0.34173 0.33220 0.76790
 C1144 C 0.35788 0.34947 0.76823
 H1145 H 0.42048 0.46574 0.73259
 H1146 H 0.44360 0.44421 0.79846
 H1147 H 0.47601 0.47004 0.79560
 H1148 H 0.45301 0.49145 0.72954
 H1149 H 0.32250 0.39505 0.76729
 H1150 H 0.29410 0.36505 0.76671
 H1151 H 0.34746 0.31479 0.76797
 H1152 H 0.37570 0.34512 0.76857
 C1153 C 0.05396 0.22971 0.94760
 C1154 C 0.06900 0.24776 0.94982
 C1155 C 0.06641 0.26312 0.96758
 C1156 C 0.04850 0.26072 0.98282
 C1157 C 0.03285 0.24283 0.98054
 C1158 C 0.03604 0.22728 0.96273
 C1159 C 0.08643 0.25092 0.93318
 C1160 C 0.10060 0.25332 0.91877
 C1161 C 0.11689 0.25587 0.90157
 C1162 C 0.13075 0.25783 0.88679
 C1163 C 0.14743 0.25992 0.86925
 C1164 C 0.17037 0.26100 0.87498
 C1165 C 0.18671 0.26257 0.85805
 C1166 C 0.18035 0.26310 0.83506
 C1167 C 0.15720 0.26211 0.82946
 C1168 C 0.14086 0.26052 0.84648
 H1169 H 0.05586 0.21767 0.93395
 H1170 H 0.07788 0.27728 0.96931
 H1171 H 0.04630 0.27356 0.99565
 H1172 H 0.02478 0.21301 0.96058
 H1173 H 0.17564 0.26050 0.89255
 H1174 H 0.20435 0.26327 0.86301
 H1175 H 0.15170 0.26242 0.81197
 H1176 H 0.12312 0.25965 0.84187
 C1177 C 0.55368 0.76898 0.45071
 C1178 C 0.57052 0.75233 0.45142
 C1179 C 0.56939 0.73495 0.46757
 C1180 C 0.55114 0.73396 0.48260
 C1181 C 0.53393 0.75037 0.48154
 C1182 C 0.53548 0.76799 0.46565
 C1183 C 0.58819 0.75265 0.43475
 C1184 C 0.60243 0.75328 0.42022
 C1185 C 0.61865 0.75438 0.40280
 C1186 C 0.63237 0.75554 0.38780
 C1187 C 0.64883 0.75712 0.36999
 C1188 C 0.67187 0.75762 0.37537
 C1189 C 0.68797 0.75931 0.35821
 C1190 C 0.68125 0.76053 0.33534
 C1191 C 0.65801 0.75999 0.33009
 C1192 C 0.64191 0.75831 0.34734
 H1193 H 0.55436 0.78246 0.43827
 H1194 H 0.58230 0.72193 0.46820
 H1195 H 0.55008 0.72009 0.49456
 H1196 H 0.52234 0.78076 0.46456
 H1197 H 0.67740 0.75672 0.39284
 H1198 H 0.70569 0.75960 0.36292
 H1199 H 0.65225 0.76083 0.31270
 H1200 H 0.62409 0.75794 0.34301
 C1201 C 0.95400 0.73217 0.93182
 C1202 C 0.94206 0.75191 0.92625
 C1203 C 0.94378 0.77097 0.94014
 C1204 C 0.95719 0.77025 0.95964
 C1205 C 0.96912 0.75045 0.96542
 C1206 C 0.96743 0.73141 0.95133
 C1207 C 0.92727 0.75233 0.90685
 C1208 C 0.91444 0.75266 0.89096
 C1209 C 0.89893 0.75299 0.87276
 C1210 C 0.88524 0.75320 0.85759
 C1211 C 0.86839 0.75335 0.83996
 C1212 C 0.84545 0.75415 0.84567
 C1213 C 0.82891 0.75396 0.82874
 C1214 C 0.83508 0.75294 0.80576
 C1215 C 0.85823 0.75228 0.80018
 C1216 C 0.87476 0.75247 0.81719
 H1217 H 0.95266 0.71726 0.92128
 H1218 H 0.93453 0.78630 0.93604
 H1219 H 0.95823 0.78509 0.97029
 H1220 H 0.97621 0.71588 0.95565
 H1221 H 0.84032 0.75484 0.86324
 H1222 H 0.81129 0.75453 0.83369
 H1223 H 0.86360 0.75153 0.78269
 H1224 H 0.89248 0.75185 0.81258
 C1225 C 0.45611 0.23110 0.42955
 C1226 C 0.44074 0.24865 0.42509
 C1227 C 0.43864 0.26657 0.44037
 C1228 C 0.45170 0.26691 0.46008
 C1229 C 0.46710 0.24936 0.46473
 C1230 C 0.46922 0.23143 0.44931
 C1231 C 0.42645 0.24808 0.40534
 C1232 C 0.41388 0.24798 0.38924
 C1233 C 0.39849 0.24822 0.37094
 C1234 C 0.38479 0.24862 0.35579
 C1235 C 0.36779 0.24924 0.33831
 C1236 C 0.34494 0.25054 0.34426
 C1237 C 0.32824 0.25108 0.32750
 C1238 C 0.33415 0.25030 0.30445
 C1239 C 0.35722 0.24911 0.29862
 C1240 C 0.37392 0.24857 0.31546
 H1241 H 0.45776 0.21708 0.41790
 H1242 H 0.42674 0.28018 0.43715
 H1243 H 0.44982 0.28087 0.47176
 H1244 H 0.48078 0.21758 0.45272
 H1245 H 0.34000 0.25111 0.36189
 H1246 H 0.31069 0.25203 0.33264
 H1247 H 0.36240 0.24851 0.28106
 H1248 H 0.39158 0.24760 0.31067
 C1249 C 0.03865 0.76424 0.07821
 C1250 C 0.05212 0.74526 0.08296
 C1251 C 0.04765 0.72472 0.07214
 C1252 C 0.03061 0.72345 0.05576
 C1253 C 0.01781 0.74272 0.05004
 C1254 C 0.02154 0.76298 0.06183
 C1255 C 0.07161 0.74718 0.09751
 C1256 C 0.08832 0.74862 0.10919
 C1257 C 0.10796 0.75017 0.12277
 C1258 C 0.12445 0.75140 0.13477
 C1259 C 0.14341 0.75281 0.15007
 C1260 C 0.16557 0.74853 0.14276
 C1261 C 0.18362 0.74910 0.15824
 C1262 C 0.17960 0.75381 0.18121
 C1263 C 0.15727 0.75847 0.18817
 C1264 C 0.13941 0.75796 0.17275
 H1265 H 0.04199 0.78023 0.08646
 H1266 H 0.05795 0.70993 0.07566
 H1267 H 0.02810 0.70772 0.04676
 H1268 H 0.01212 0.77812 0.05743
 H1269 H 0.16885 0.74452 0.12520
 H1270 H 0.20057 0.74545 0.15234
 H1271 H 0.15350 0.76239 0.20565
 H1272 H 0.12237 0.76134 0.17860
 C1273 C 0.54966 0.27204 0.56738
 C1274 C 0.55081 0.25393 0.58263
 C1275 C 0.53474 0.23655 0.58146
 C1276 C 0.51824 0.23677 0.56438
 C1277 C 0.51782 0.25435 0.54837
 C1278 C 0.53329 0.27224 0.55033
 C1279 C 0.56962 0.25250 0.59810
 C1280 C 0.58594 0.25155 0.61037
 C1281 C 0.60530 0.25068 0.62439
 C1282 C 0.62169 0.25010 0.63658
 C1283 C 0.64070 0.24954 0.65186
 C1284 C 0.66299 0.25042 0.64382
 C1285 C 0.68123 0.25016 0.65907
 C1286 C 0.67731 0.24905 0.68253
 C1287 C 0.65479 0.24811 0.69030
 C1288 C 0.63671 0.24835 0.67510
 H1289 H 0.56201 0.28555 0.56809
 H1290 H 0.53553 0.22241 0.59314
 H1291 H 0.50664 0.22268 0.56291
 H1292 H 0.53331 0.28584 0.53800
 H1293 H 0.66625 0.25138 0.62582
 H1294 H 0.69830 0.25095 0.65252
 H1295 H 0.65103 0.24722 0.70820
 H1296 H 0.61957 0.24769 0.68153
 C1297 C 0.92824 0.26361 0.06133
 C1298 C 0.91440 0.24446 0.06251
 C1299 C 0.91820 0.22630 0.04782
 C1300 C 0.93625 0.22696 0.03256
 C1301 C 0.95069 0.24581 0.03184
 C1302 C 0.94629 0.26428 0.04611
 C1303 C 0.89725 0.24296 0.07972
 C1304 C 0.88332 0.24170 0.09456
 C1305 C 0.86729 0.24026 0.11219
 C1306 C 0.85360 0.23911 0.12725
 C1307 C 0.83703 0.23785 0.14505
 C1308 C 0.81409 0.23590 0.13956
 C1309 C 0.79784 0.23514 0.15666
 C1310 C 0.80427 0.23633 0.17960
 C1311 C 0.82743 0.23807 0.18498
 C1312 C 0.84369 0.23884 0.16779
 H1313 H 0.92549 0.27775 0.07262
 H1314 H 0.90765 0.21135 0.04865
 H1315 H 0.93953 0.21237 0.02202
 H1316 H 0.95721 0.27898 0.04587
 H1317 H 0.80874 0.23510 0.12203
 H1318 H 0.78021 0.23371 0.15184
 H1319 H 0.83299 0.23900 0.20243
 H1320 H 0.86142 0.24035 0.17224
 C1321 C 0.41803 0.72543 0.54740
 C1322 C 0.41506 0.74174 0.56431
 C1323 C 0.42997 0.76003 0.56571
 C1324 C 0.44813 0.76170 0.55075
 C1325 C 0.45161 0.74512 0.53412
 C1326 C 0.43623 0.72711 0.53235
 C1327 C 0.39751 0.73933 0.58102
 C1328 C 0.38332 0.73769 0.59556
 C1329 C 0.36706 0.73616 0.61299
 C1330 C 0.35328 0.73515 0.62798
 C1331 C 0.33670 0.73426 0.64580
 C1332 C 0.34342 0.73524 0.66852
 C1333 C 0.32719 0.73496 0.68574
 C1334 C 0.30399 0.73374 0.68043
 C1335 C 0.29747 0.73256 0.65751
 C1336 C 0.31371 0.73283 0.64037
 H1337 H 0.40664 0.71114 0.54622
 H1338 H 0.42787 0.77274 0.57871
 H1339 H 0.45980 0.77572 0.55242
 H1340 H 0.43878 0.71397 0.51988
 H1341 H 0.36119 0.73637 0.67292
 H1342 H 0.33282 0.73586 0.70317
 H1343 H 0.27980 0.73152 0.65274
 H1344 H 0.30829 0.73206 0.62285
 C1345 C 0.26555 0.07197 0.95911
 C1346 C 0.25062 0.07526 0.94097
 C1347 C 0.23444 0.05881 0.93600
 C1348 C 0.23309 0.03916 0.94905
 C1349 C 0.24782 0.03560 0.96758
 C1350 C 0.26425 0.05227 0.97227
 C1351 C 0.25199 0.09517 0.92695
 C1352 C 0.25255 0.11136 0.91452
 C1353 C 0.25266 0.12975 0.89923
 C1354 C 0.25242 0.14497 0.88560
 C1355 C 0.25187 0.16256 0.86870
 C1356 C 0.25158 0.15675 0.84577
 C1357 C 0.25087 0.17362 0.82918
 C1358 C 0.25045 0.19663 0.83527
 C1359 C 0.25068 0.20230 0.85841
 C1360 C 0.25139 0.18536 0.87499
 H1361 H 0.27836 0.08448 0.96293
 H1362 H 0.22280 0.06117 0.92198
 H1363 H 0.22002 0.02701 0.94497
 H1364 H 0.27656 0.04983 0.98566
 H1365 H 0.25189 0.13915 0.84071
 H1366 H 0.25069 0.16859 0.81158
 H1367 H 0.25034 0.21981 0.86372
 H1368 H 0.25154 0.19004 0.89270
 C1369 C 0.73337 0.57150 0.45723
 C1370 C 0.75104 0.57435 0.44176
 C1371 C 0.76797 0.55784 0.44005
 C1372 C 0.76707 0.53840 0.45351
 C1373 C 0.74924 0.53528 0.46888
 C1374 C 0.73245 0.55205 0.47071
 C1375 C 0.75122 0.59362 0.42684
 C1376 C 0.75120 0.60939 0.41388
 C1377 C 0.75104 0.62745 0.39822
 C1378 C 0.75082 0.64252 0.38445
 C1379 C 0.75053 0.66009 0.36756
 C1380 C 0.75051 0.68287 0.37392
 C1381 C 0.75026 0.69985 0.35740
 C1382 C 0.75004 0.69424 0.33425
 C1383 C 0.74999 0.67126 0.32807
 C1384 C 0.75024 0.65434 0.34462
 H1385 H 0.72010 0.58409 0.45857
 H1386 H 0.78167 0.55984 0.42806
 H1387 H 0.78018 0.52568 0.45183
 H1388 H 0.71836 0.54983 0.48217
 H1389 H 0.75070 0.68750 0.39165
 H1390 H 0.75026 0.71735 0.36277
 H1391 H 0.74979 0.66629 0.31045
 H1392 H 0.75022 0.63675 0.33951
 C1393 C 0.77422 0.04947 0.05817
 C1394 C 0.75408 0.05023 0.07054
 C1395 C 0.73656 0.03510 0.06554
 C1396 C 0.73898 0.01965 0.04783
 C1397 C 0.75897 0.01917 0.03503
 C1398 C 0.77666 0.03405 0.04049
 C1399 C 0.75103 0.06732 0.08752
 C1400 C 0.74861 0.08203 0.10137
 C1401 C 0.74595 0.09948 0.11736
 C1402 C 0.74384 0.11441 0.13102
 C1403 C 0.74152 0.13206 0.14756
 C1404 C 0.73988 0.12643 0.17047
 C1405 C 0.73813 0.14344 0.18671
 C1406 C 0.73801 0.16640 0.18025
 C1407 C 0.73952 0.17189 0.15711
 C1408 C 0.74127 0.15480 0.14088
 H1409 H 0.78785 0.06113 0.06187
 H1410 H 0.72086 0.03563 0.07494
 H1411 H 0.72502 0.00856 0.04367
 H1412 H 0.79216 0.03400 0.03075
 H1413 H 0.74008 0.10888 0.17582
 H1414 H 0.73702 0.13855 0.20434
 H1415 H 0.73954 0.18937 0.15155
 H1416 H 0.74258 0.15932 0.12315
 C1417 C 0.27226 0.54953 0.55681
 C1418 C 0.25284 0.54946 0.57030
 C1419 C 0.23549 0.53396 0.56595
 C1420 C 0.23727 0.51902 0.54774
 C1421 C 0.25646 0.51945 0.53375
 C1422 C 0.27406 0.53463 0.53861
 C1423 C 0.25021 0.56622 0.58768
 C1424 C 0.24803 0.58071 0.60179
 C1425 C 0.24554 0.59798 0.61800
 C1426 C 0.24351 0.61280 0.63180
 C1427 C 0.24123 0.63037 0.64841
 C1428 C 0.23964 0.62467 0.67132
 C1429 C 0.23788 0.64162 0.68761
 C1430 C 0.23769 0.66460 0.68122
 C1431 C 0.23914 0.67017 0.65810
 C1432 C 0.24091 0.65313 0.64181
 H1433 H 0.28576 0.56150 0.56000
 H1434 H 0.22034 0.53386 0.57622
 H1435 H 0.22335 0.50771 0.54406
 H1436 H 0.28896 0.53527 0.52799
 H1437 H 0.23990 0.60710 0.67661
 H1438 H 0.23682 0.63667 0.70523
 H1439 H 0.23911 0.68766 0.65259
 H1440 H 0.24217 0.65772 0.62409
 C1441 C 0.73926 0.93845 0.92924
 C1442 C 0.75812 0.93802 0.91497
 C1443 C 0.77600 0.95311 0.91864
 C1444 C 0.77534 0.96806 0.93695
 C1445 C 0.75678 0.96804 0.95178
 C1446 C 0.73859 0.95335 0.94753
 C1447 C 0.75964 0.92112 0.89752
 C1448 C 0.76084 0.90649 0.88338
 C1449 C 0.76213 0.88902 0.86717
 C1450 C 0.76313 0.87400 0.85343
 C1451 C 0.76417 0.85615 0.83692
 C1452 C 0.76503 0.86150 0.81388
 C1453 C 0.76565 0.84429 0.79774
 C1454 C 0.76539 0.82138 0.80439
 C1455 C 0.76468 0.81616 0.82764
 C1456 C 0.76406 0.83345 0.84377
 H1457 H 0.72535 0.92684 0.92659
 H1458 H 0.79073 0.95285 0.90777
 H1459 H 0.78971 0.97896 0.94009
 H1460 H 0.72413 0.95303 0.95875
 H1461 H 0.76513 0.87900 0.80837
 H1462 H 0.76623 0.84899 0.78003
 H1463 H 0.76450 0.79875 0.83338
 H1464 H 0.76340 0.82911 0.86158
 C1465 C 0.23836 0.43825 0.42803
 C1466 C 0.25714 0.43830 0.41366
 C1467 C 0.27448 0.45408 0.41703
 C1468 C 0.27339 0.46923 0.43517
 C1469 C 0.25494 0.46870 0.45013
 C1470 C 0.23727 0.45332 0.44616
 C1471 C 0.25913 0.42121 0.39642
 C1472 C 0.26063 0.40641 0.38249
 C1473 C 0.26220 0.38874 0.36650
 C1474 C 0.26335 0.37359 0.35291
 C1475 C 0.26449 0.35564 0.33649
 C1476 C 0.26593 0.36091 0.31347
 C1477 C 0.26644 0.34366 0.29737
 C1478 C 0.26550 0.32077 0.30404
 C1479 C 0.26430 0.31562 0.32728
 C1480 C 0.26378 0.33296 0.34338
 H1481 H 0.22486 0.42611 0.42562
 H1482 H 0.28914 0.45422 0.40607
 H1483 H 0.28737 0.48067 0.43810
 H1484 H 0.22290 0.45260 0.45748
 H1485 H 0.26649 0.37839 0.30792
 H1486 H 0.26743 0.34832 0.27967
 H1487 H 0.26358 0.29823 0.33303
 H1488 H 0.26266 0.32867 0.36118
 C1489 C 0.26423 0.92056 0.03476
 C1490 C 0.24655 0.91825 0.05039
 C1491 C 0.22741 0.93210 0.04860
 C1492 C 0.22637 0.94891 0.03202
 C1493 C 0.24441 0.95198 0.01691
 C1494 C 0.26316 0.93739 0.01803
 C1495 C 0.24853 0.90302 0.06936
 C1496 C 0.24968 0.89093 0.08579
 C1497 C 0.25056 0.87706 0.10527
 C1498 C 0.25101 0.86496 0.12173
 C1499 C 0.25128 0.84970 0.14078
 C1500 C 0.25061 0.85779 0.16305
 C1501 C 0.25050 0.84256 0.18131
 C1502 C 0.25101 0.81908 0.17742
 C1503 C 0.25172 0.81127 0.15492
 C1504 C 0.25186 0.82644 0.13683
 H1505 H 0.27917 0.90998 0.03606
 H1506 H 0.21368 0.93053 0.06061
 H1507 H 0.21193 0.96023 0.03157
 H1508 H 0.27738 0.93981 0.00676
 H1509 H 0.25010 0.87581 0.16629
 H1510 H 0.24991 0.84913 0.19838
 H1511 H 0.25215 0.79336 0.15117
 H1512 H 0.25233 0.81999 0.11969
 C1513 C 0.75712 0.41887 0.53634
 C1514 C 0.73915 0.41714 0.55168
 C1515 C 0.72072 0.43194 0.54991
 C1516 C 0.72075 0.44912 0.53366
 C1517 C 0.73922 0.45168 0.51896
 C1518 C 0.75715 0.43607 0.52000
 C1519 C 0.74036 0.40156 0.57040
 C1520 C 0.74136 0.38914 0.58659
 C1521 C 0.74250 0.37489 0.60576
 C1522 C 0.74345 0.36251 0.62197
 C1523 C 0.74456 0.34703 0.64079
 C1524 C 0.74498 0.32381 0.63657
 C1525 C 0.74603 0.30846 0.65449
 C1526 C 0.74669 0.31607 0.67706
 C1527 C 0.74624 0.33950 0.68121
 C1528 C 0.74519 0.35490 0.66313
 H1529 H 0.77151 0.40755 0.53763
 H1530 H 0.70675 0.43078 0.56170
 H1531 H 0.70684 0.46108 0.53320
 H1532 H 0.77170 0.43797 0.50907
 H1533 H 0.74449 0.31753 0.61937
 H1534 H 0.74630 0.29058 0.65057
 H1535 H 0.74667 0.34592 0.69834
 H1536 H 0.74485 0.37288 0.66658
 C1537 C 0.04738 0.08530 0.74223
 C1538 C 0.06455 0.08469 0.75859
 C1539 C 0.06628 0.06612 0.77314
 C1540 C 0.05143 0.04792 0.77096
 C1541 C 0.03437 0.04785 0.75414
 C1542 C 0.03239 0.06710 0.74003
 C1543 C 0.08123 0.10242 0.75977
 C1544 C 0.09572 0.11673 0.76081
 C1545 C 0.11307 0.13311 0.76203
 C1546 C 0.12797 0.14701 0.76303
 C1547 C 0.14566 0.16373 0.76413
 C1548 C 0.16846 0.15716 0.76397
 C1549 C 0.18557 0.17352 0.76468
 C1550 C 0.18008 0.19669 0.76550
 C1551 C 0.15707 0.20304 0.76582
 C1552 C 0.14005 0.18669 0.76513
 H1553 H 0.04602 0.09952 0.73069
 H1554 H 0.07942 0.06550 0.78596
 H1555 H 0.05327 0.03391 0.78268
 H1556 H 0.02036 0.06759 0.72621
 H1557 H 0.17301 0.13942 0.76321
 H1558 H 0.20306 0.16801 0.76442
 H1559 H 0.15215 0.22068 0.76652
 H1560 H 0.12248 0.19198 0.76528
 C1561 C 0.54690 0.58393 0.24099
 C1562 C 0.56227 0.58522 0.25905
 C1563 C 0.56193 0.56873 0.27607
 C1564 C 0.54684 0.55064 0.27470
 C1565 C 0.53184 0.54883 0.25631
 C1566 C 0.53172 0.56581 0.23962
 C1567 C 0.57931 0.60260 0.25964
 C1568 C 0.59411 0.61661 0.26034
 C1569 C 0.61179 0.63263 0.26133
 C1570 C 0.62693 0.64626 0.26225
 C1571 C 0.64483 0.66273 0.26334
 C1572 C 0.66755 0.65592 0.26285
 C1573 C 0.68484 0.67207 0.26364
 C1574 C 0.67960 0.69528 0.26491
 C1575 C 0.65667 0.70187 0.26558
 C1576 C 0.63947 0.68572 0.26479
 H1577 H 0.54708 0.59656 0.22767
 H1578 H 0.57374 0.56951 0.29009
 H1579 H 0.54723 0.53771 0.28772
 H1580 H 0.52054 0.56457 0.22513
 H1581 H 0.67189 0.63814 0.26176
 H1582 H 0.70227 0.66639 0.26311
 H1583 H 0.65195 0.71954 0.26661
 H1584 H 0.62197 0.69120 0.26523
 C1585 C 0.06477 0.94869 0.22028
 C1586 C 0.08182 0.94963 0.23662
 C1587 C 0.08206 0.96734 0.25229
 C1588 C 0.06460 0.98342 0.25234
 C1589 C 0.04646 0.98182 0.23682
 C1590 C 0.04730 0.96458 0.22034
 C1591 C 0.09777 0.93126 0.23832
 C1592 C 0.11035 0.91523 0.23968
 C1593 C 0.12463 0.89611 0.24122
 C1594 C 0.13696 0.87988 0.24250
 C1595 C 0.15234 0.86101 0.24401
 C1596 C 0.17552 0.86517 0.24575
 C1597 C 0.19078 0.84720 0.24703
 C1598 C 0.18314 0.82463 0.24660
 C1599 C 0.15973 0.82055 0.24493
 C1600 C 0.14442 0.83867 0.24363
 H1601 H 0.06449 0.93516 0.20795
 H1602 H 0.09515 0.96813 0.26513
 H1603 H 0.06443 0.99582 0.26577
 H1604 H 0.03412 0.96309 0.20765
 H1605 H 0.18184 0.88236 0.24605
 H1606 H 0.20864 0.85109 0.24831
 H1607 H 0.15329 0.80342 0.24449
 H1608 H 0.12646 0.83527 0.24227
 C1609 C 0.57111 0.45117 0.77585
 C1610 C 0.58322 0.44771 0.75585
 C1611 C 0.57954 0.46201 0.73722
 C1612 C 0.56297 0.47895 0.73824
 C1613 C 0.54993 0.48166 0.75788
 C1614 C 0.55455 0.46803 0.77687
 C1615 C 0.59799 0.42840 0.75399
 C1616 C 0.60981 0.41180 0.75263
 C1617 C 0.62348 0.39223 0.75120
 C1618 C 0.63551 0.37575 0.75009
 C1619 C 0.65076 0.35676 0.74885
 C1620 C 0.64323 0.33461 0.75278
 C1621 C 0.65861 0.31649 0.75231
 C1622 C 0.68169 0.32042 0.74802
 C1623 C 0.68888 0.34274 0.74374
 C1624 C 0.67356 0.36069 0.74417
 H1625 H 0.57379 0.44023 0.79036
 H1626 H 0.58878 0.45944 0.72163
 H1627 H 0.55943 0.48903 0.72330
 H1628 H 0.54459 0.46977 0.79212
 H1629 H 0.62558 0.33138 0.75643
 H1630 H 0.65253 0.29954 0.75566
 H1631 H 0.70646 0.34646 0.74018
 H1632 H 0.67958 0.37772 0.74106
 C1633 C 0.92947 0.04583 0.23172
 C1634 C 0.92595 0.06029 0.25009
 C1635 C 0.94151 0.06060 0.26800
 C1636 C 0.96064 0.04666 0.26743
 C1637 C 0.96436 0.03219 0.24898
 C1638 C 0.94859 0.03190 0.23112
 C1639 C 0.90683 0.07541 0.25018
 C1640 C 0.89109 0.08841 0.25010
 C1641 C 0.87299 0.10401 0.24988
 C1642 C 0.85782 0.11768 0.24965
 C1643 C 0.84010 0.13440 0.24935
 C1644 C 0.84565 0.15739 0.24921
 C1645 C 0.82857 0.17377 0.24904
 C1646 C 0.80563 0.16739 0.24902
 C1647 C 0.80022 0.14419 0.24907
 C1648 C 0.81736 0.12783 0.24924
 H1649 H 0.91761 0.04557 0.21771
 H1650 H 0.93899 0.07178 0.28226
 H1651 H 0.97259 0.04717 0.28136
 H1652 H 0.95129 0.02114 0.21657
 H1653 H 0.86320 0.16266 0.24927
 H1654 H 0.83339 0.19144 0.24897
 H1655 H 0.78276 0.13866 0.24902
 H1656 H 0.81288 0.11006 0.24933
 C1657 C 0.44188 0.55909 0.73226
 C1658 C 0.42705 0.55954 0.75069
 C1659 C 0.43174 0.54642 0.76991
 C1660 C 0.45130 0.53308 0.77080
 C1661 C 0.46633 0.53267 0.75241
 C1662 C 0.46143 0.54577 0.73313
 C1663 C 0.40755 0.57417 0.75020
 C1664 C 0.39154 0.58685 0.74984
 C1665 C 0.37320 0.60219 0.74951
 C1666 C 0.35791 0.61572 0.74930
 C1667 C 0.34012 0.63239 0.74917
 C1668 C 0.31739 0.62578 0.74931
 C1669 C 0.30022 0.64213 0.74943
 C1670 C 0.30559 0.66533 0.74943
 C1671 C 0.32853 0.67174 0.74918
 C1672 C 0.34562 0.65539 0.74905
 H1673 H 0.43847 0.56925 0.71734
 H1674 H 0.42046 0.54676 0.78433
 H1675 H 0.45491 0.52341 0.78598
 H1676 H 0.47280 0.54570 0.71878
 H1677 H 0.31294 0.60801 0.74940
 H1678 H 0.28276 0.63658 0.74958
 H1679 H 0.33333 0.68941 0.74912
 H1680 H 0.36317 0.66069 0.74893
 C1681 C 0.95359 0.94629 0.71901
 C1682 C 0.95154 0.93119 0.73717
 C1683 C 0.96533 0.93368 0.75629
 C1684 C 0.98070 0.95158 0.75753
 C1685 C 0.98244 0.96713 0.73959
 C1686 C 0.96894 0.96419 0.72022
 C1687 C 0.93439 0.91397 0.73670
 C1688 C 0.91968 0.89990 0.73648
 C1689 C 0.90223 0.88367 0.73638
 C1690 C 0.88732 0.86981 0.73637
 C1691 C 0.86967 0.85309 0.73641
 C1692 C 0.87533 0.83012 0.73677
 C1693 C 0.85833 0.81376 0.73676
 C1694 C 0.83534 0.82015 0.73639
 C1695 C 0.82982 0.84333 0.73610
 C1696 C 0.84690 0.85968 0.73611
 H1697 H 0.94295 0.94455 0.70416
 H1698 H 0.96379 0.92215 0.77049
 H1699 H 0.99065 0.95375 0.77278
 H1700 H 0.96998 0.97603 0.70624
 H1701 H 0.89290 0.82484 0.73703
 H1702 H 0.86324 0.79610 0.73703
 H1703 H 0.81233 0.84884 0.73585
 H1704 H 0.84236 0.87745 0.73586
 C1705 C 0.46781 0.43252 0.22863
 C1706 C 0.45049 0.42939 0.24449
 C1707 C 0.44825 0.44439 0.26260
 C1708 C 0.46287 0.46276 0.26461
 C1709 C 0.47998 0.46631 0.24856
 C1710 C 0.48252 0.45094 0.23065
 C1711 C 0.43422 0.41155 0.24180
 C1712 C 0.41993 0.39717 0.24001
 C1713 C 0.40269 0.38080 0.23840
 C1714 C 0.38775 0.36702 0.23736
 C1715 C 0.36986 0.35060 0.23645
 C1716 C 0.37511 0.32755 0.23586
 C1717 C 0.35781 0.31151 0.23544
 C1718 C 0.33494 0.31831 0.23562
 C1719 C 0.32984 0.34158 0.23615
 C1720 C 0.34721 0.35760 0.23657
 H1721 H 0.46961 0.42105 0.21450
 H1722 H 0.43489 0.44215 0.27492
 H1723 H 0.46064 0.47447 0.27850
 H1724 H 0.49545 0.45357 0.21796
 H1725 H 0.39259 0.32196 0.23582
 H1726 H 0.36240 0.29377 0.23506
 H1727 H 0.31245 0.34741 0.23633
 H1728 H 0.34298 0.37544 0.23709
   
