data_POSCAR
  _audit_creation_date              2014-09-24
  _audit_creation_method            'ToBaCCo'
  _symmetry_space_group_name_H-M    'P1'
  _symmetry_Int_Tables_number       1
  _symmetry_cell_setting            triclinic
  loop_
  _symmetry_equiv_pos_as_xyz
 x,y,z
_cell_length_a 62.5803
_cell_length_b 62.1298
_cell_length_c 57.5170
_cell_angle_alpha 89.538800
_cell_angle_beta 89.952700
_cell_angle_gamma 90.355800
loop_
  _atom_site_label
  _atom_site_type_symbol
  _atom_site_fract_x
  _atom_site_fract_y
  _atom_site_fract_z
C1 C 0.37629 0.01243 0.28988
 C2 C 0.35947 0.02806 0.28054
 C3 C 0.34781 0.02019 0.26247
 C4 C 0.35416 -0.00273 0.25510
 C5 C 0.36367 -0.00811 0.29556
 C6 C 0.35225 -0.01639 0.27754
 C7 C 0.38969 0.00688 0.26846
 C8 C 0.37839 -0.00146 0.25038
 H9 H 0.35757 0.04438 0.28653
 H10 H 0.34476 -0.00901 0.24030
 H11 H 0.36364 -0.01511 0.31285
 H12 H 0.40675 0.00982 0.26766
 C13 C 0.12129 -0.00532 0.76328
 C14 C 0.13235 -0.02505 0.75328
 C15 C 0.14334 -0.02121 0.73330
 C16 C 0.14234 0.00232 0.72502
 C17 C 0.13903 0.01172 0.76573
 C18 C 0.15011 0.01558 0.74581
 C19 C 0.10807 0.00304 0.74448
 C20 C 0.11947 0.00718 0.72312
 H21 H 0.13172 -0.04075 0.76162
 H22 H 0.15218 0.00568 0.70939
 H23 H 0.14060 0.02215 0.78064
 H24 H 0.09111 0.00562 0.74649
 C25 C 0.61307 0.50102 0.26738
 C26 C 0.62923 0.48412 0.25979
 C27 C 0.63999 0.48914 0.24000
 C28 C 0.63360 0.51073 0.22914
 C29 C 0.62583 0.52215 0.26846
 C30 C 0.63675 0.52702 0.24870
 C31 C 0.59841 0.50419 0.24615
 C32 C 0.60911 0.50953 0.22614
 H33 H 0.63204 0.46937 0.26948
 H34 H 0.64268 0.51500 0.21315
 H35 H 0.62645 0.53223 0.28374
 H36 H 0.58119 0.50372 0.24696
 C37 C 0.87696 0.51849 0.78929
 C38 C 0.86070 0.53478 0.78028
 C39 C 0.84746 0.52715 0.76346
 C40 C 0.85140 0.50347 0.75734
 C41 C 0.86356 0.49902 0.79706
 C42 C 0.85024 0.49088 0.78055
 C43 C 0.88851 0.51063 0.76725
 C44 C 0.87515 0.50299 0.75044
 H45 H 0.86069 0.55143 0.78574
 H46 H 0.84063 0.49726 0.74365
 H47 H 0.86496 0.49224 0.81436
 H48 H 0.90549 0.51202 0.76435
 C49 C 0.26870 0.40404 1.00207
 C50 C 0.26231 0.38856 1.02187
 C51 C 0.24635 0.37452 1.01648
 C52 C 0.23755 0.37770 0.99174
 C53 C 0.27328 0.38950 0.98134
 C54 C 0.25723 0.37558 0.97581
 C55 C 0.24777 0.41534 0.99590
 C56 C 0.23122 0.40180 0.99041
 H57 H 0.26806 0.38981 1.03948
 H58 H 0.22471 0.36612 0.98756
 H59 H 0.28803 0.39074 0.97158
 H60 H 0.24601 0.43253 0.99789
 C61 C 0.78196 0.08731 1.00177
 C62 C 0.77469 0.10061 0.98061
 C63 C 0.75832 0.11435 0.98504
 C64 C 0.75072 0.11348 1.01047
 C65 C 0.78706 0.10398 1.02048
 C66 C 0.77092 0.11782 1.02500
 C67 C 0.76261 0.07654 1.01009
 C68 C 0.74516 0.09084 1.01469
 H69 H 0.78197 0.09910 0.96362
 H70 H 0.73796 0.12512 1.01439
 H71 H 0.80204 0.10420 1.02992
 H72 H 0.76016 0.05939 1.00930
 C73 C 0.27167 0.58254 0.49469
 C74 C 0.26441 0.59624 0.47383
 C75 C 0.24815 0.60997 0.47871
 C76 C 0.24050 0.60869 0.50406
 C77 C 0.27676 0.59871 0.51382
 C78 C 0.26070 0.61262 0.51882
 C79 C 0.25113 0.57118 0.50274
 C80 C 0.23479 0.58476 0.50767
 H81 H 0.27081 0.59455 0.45648
 H82 H 0.22700 0.61963 0.50750
 H83 H 0.29173 0.59827 0.52320
 H84 H 0.24933 0.55385 0.50318
 C85 C 0.77113 0.90940 0.50912
 C86 C 0.76362 0.89121 0.52559
 C87 C 0.74732 0.87902 0.51693
 C88 C 0.73988 0.88610 0.49264
 C89 C 0.77637 0.89799 0.48638
 C90 C 0.76023 0.88579 0.47759
 C91 C 0.75071 0.92211 0.50404
 C92 C 0.73429 0.91001 0.49553
 H93 H 0.76907 0.88913 0.54328
 H94 H 0.72655 0.87621 0.48576
 H95 H 0.79222 0.89855 0.47881
 H96 H 0.74918 0.93904 0.50799
 C97 C -0.00514 0.28902 0.39424
 C98 C 0.01478 0.28789 0.37853
 C99 C 0.01487 0.27071 0.36384
 C100 C -0.00523 0.25624 0.36617
 C101 C -0.02308 0.28852 0.37840
 C102 C -0.02344 0.27071 0.36271
 C103 C -0.00540 0.26709 0.40663
 C104 C -0.00539 0.24988 0.39217
 H105 H 0.02817 0.29885 0.37963
 H106 H -0.00463 0.24216 0.35453
 H107 H -0.03589 0.30007 0.37969
 H108 H -0.00463 0.26541 0.42538
 C109 C 0.00369 0.76607 0.11778
 C110 C -0.01369 0.76699 0.13670
 C111 C -0.01381 0.74987 0.15155
 C112 C 0.00363 0.73328 0.14660
 C113 C 0.02439 0.76356 0.13178
 C114 C 0.02445 0.74669 0.14712
 C115 C 0.00035 0.74430 0.10607
 C116 C 0.00032 0.72713 0.12094
 H117 H -0.02434 0.78036 0.13934
 H118 H 0.00324 0.71941 0.15889
 H119 H 0.03755 0.77486 0.13019
 H120 H -0.00160 0.74267 0.08745
 C121 C 0.51048 0.26379 0.61555
 C122 C 0.49234 0.26580 0.63347
 C123 C 0.49120 0.24923 0.64902
 C124 C 0.50850 0.23213 0.64571
 C125 C 0.53049 0.26149 0.63079
 C126 C 0.52949 0.24520 0.64683
 C127 C 0.50723 0.24168 0.60464
 C128 C 0.50622 0.22512 0.62021
 H129 H 0.48192 0.27956 0.63472
 H130 H 0.50735 0.21870 0.65851
 H131 H 0.54371 0.27276 0.62990
 H132 H 0.50595 0.23938 0.58604
 C133 C 0.49095 0.78822 0.88862
 C134 C 0.51035 0.78815 0.87216
 C135 C 0.51145 0.77052 0.85823
 C136 C 0.49256 0.75469 0.86174
 C137 C 0.47183 0.78618 0.87202
 C138 C 0.47251 0.76869 0.85781
 C139 C 0.49183 0.76789 0.90100
 C140 C 0.49286 0.74924 0.88661
 H141 H 0.52170 0.80131 0.87088
 H142 H 0.49364 0.74076 0.84995
 H143 H 0.45913 0.79787 0.87127
 H144 H 0.49040 0.76706 0.91975
 C145 C -0.23107 0.63023 0.95932
 C146 C -0.21603 0.61280 0.96831
 C147 C -0.22383 0.60114 0.98658
 C148 C -0.24615 0.60825 0.99469
 C149 C -0.25209 0.61835 0.95445
 C150 C -0.26022 0.60692 0.97276
 C151 C -0.23589 0.64395 0.98083
 C152 C -0.24403 0.63258 0.99926
 H153 H -0.20034 0.61010 0.96095
 H154 H -0.25239 0.59890 1.00973
 H155 H -0.25964 0.61894 0.93754
 H156 H -0.23258 0.66096 0.98201
 C157 C -0.25879 0.36952 0.48359
 C158 C -0.27569 0.38587 0.49090
 C159 C -0.27023 0.39777 0.50969
 C160 C -0.24823 0.39223 0.51970
 C161 C -0.23823 0.38281 0.48028
 C162 C -0.23293 0.39492 0.49898
 C163 C -0.25460 0.35663 0.50436
 C164 C -0.24868 0.36898 0.52446
 H165 H -0.29081 0.38774 0.48195
 H166 H -0.24347 0.40272 0.53430
 H167 H -0.22885 0.38288 0.46443
 H168 H -0.25546 0.33932 0.50463
 C169 C 0.25428 -0.13586 -0.02201
 C170 C 0.23732 -0.11951 -0.01504
 C171 C 0.24196 -0.10840 0.00452
 C172 C 0.26327 -0.11474 0.01569
 C173 C 0.27519 -0.12280 -0.02354
 C174 C 0.27966 -0.11162 -0.00394
 C175 C 0.25727 -0.14959 -0.00163
 C176 C 0.26219 -0.13814 0.01938
 H177 H 0.22289 -0.11678 -0.02504
 H178 H 0.26746 -0.10487 0.03099
 H179 H 0.28599 -0.12303 -0.03825
 H180 H 0.25631 -0.16692 -0.00248
 C181 C 0.27221 1.11939 0.46438
 C182 C 0.28833 1.10454 0.47612
 C183 C 0.28017 1.09254 0.49396
 C184 C 0.25627 1.09639 0.49856
 C185 C 0.25369 1.10456 0.45741
 C186 C 0.24489 1.09277 0.47511
 C187 C 0.26303 1.13281 0.48444
 C188 C 0.25476 1.12080 0.50228
 H189 H 0.30505 1.10420 0.47124
 H190 H 0.24975 1.08680 0.51330
 H191 H 0.24770 1.10427 0.43979
 H192 H 0.26386 1.15012 0.48548
 C193 C 0.15149 0.51032 0.24216
 C194 C 0.13884 0.50215 0.22102
 C195 C 0.12436 0.48644 0.22616
 C196 C 0.12390 0.47995 0.25189
 C197 C 0.13460 0.51661 0.26004
 C198 C 0.12008 0.50093 0.26537
 C199 C 0.16163 0.48976 0.25220
 C200 C 0.14724 0.47368 0.25701
 H201 H 0.14241 0.50660 0.20321
 H202 H 0.11214 0.46696 0.25562
 H203 H 0.13526 0.53192 0.26885
 H204 H 0.17872 0.48716 0.25228
 C205 C -0.15722 1.03201 0.24985
 C206 C -0.14028 1.02642 0.26808
 C207 C -0.12769 1.00958 0.26227
 C208 C -0.13312 0.99969 0.23861
 C209 C -0.14461 1.03550 0.22726
 C210 C -0.13163 1.01891 0.22153
 C211 C -0.16901 1.01210 0.24609
 C212 C -0.15590 0.99406 0.23999
 H213 H -0.13847 1.03505 0.28426
 H214 H -0.12204 0.98645 0.23443
 H215 H -0.14558 1.05014 0.21696
 H216 H -0.18614 1.01155 0.24425
 C217 C 0.33807 0.52490 -0.23219
 C218 C 0.35298 0.51476 -0.21405
 C219 C 0.36564 0.49886 -0.22252
 C220 C 0.36223 0.49444 -0.24854
 C221 C 0.35286 0.53212 -0.25196
 C222 C 0.36539 0.51637 -0.26084
 C223 C 0.32560 0.50564 -0.24188
 C224 C 0.33811 0.48964 -0.25040
 H225 H 0.35294 0.51883 -0.19584
 H226 H 0.37237 0.48131 -0.25523
 H227 H 0.35347 0.54866 -0.25798
 H228 H 0.30834 0.50454 -0.24120
 C229 C 0.65373 0.01880 -0.25546
 C230 C 0.63668 0.01137 -0.27305
 C231 C 0.62466 -0.00567 -0.26551
 C232 C 0.63066 -0.01387 -0.24117
 C233 C 0.64120 0.02294 -0.23315
 C234 C 0.62916 0.00605 -0.22565
 C235 C 0.66663 -0.00168 -0.25044
 C236 C 0.65464 -0.01892 -0.24320
 H237 H 0.63550 0.01724 -0.29073
 H238 H 0.62049 -0.02752 -0.23518
 H239 H 0.64164 0.03822 -0.22420
 H240 H 0.68359 -0.00266 -0.25395
 C241 C 0.03433 0.24953 0.84970
 C242 C 0.03503 0.26628 0.86931
 C243 C 0.01817 0.26499 0.88436
 C244 C 0.00211 0.24688 0.87841
 C245 C 0.03251 0.22788 0.86259
 C246 C 0.01575 0.22630 0.87766
 C247 C 0.01368 0.25277 0.83885
 C248 C -0.00425 0.25108 0.85427
 H249 H 0.04654 0.27921 0.87038
 H250 H -0.01125 0.24592 0.89103
 H251 H 0.04431 0.21533 0.86074
 H252 H 0.01207 0.25472 0.82022
 C253 C 0.51658 0.25978 0.13858
 C254 C 0.51715 0.24159 0.12057
 C255 C 0.50018 0.24133 0.10578
 C256 C 0.48412 0.25950 0.10997
 C257 C 0.51462 0.28017 0.12354
 C258 C 0.49791 0.28010 0.10833
 C259 C 0.49487 0.25732 0.15056
 C260 C 0.47789 0.25713 0.13580
 H261 H 0.52996 0.23015 0.11894
 H262 H 0.47035 0.25910 0.09784
 H263 H 0.52620 0.29315 0.12429
 H264 H 0.49318 0.25560 0.16923
 C265 C 0.01148 0.75727 0.63390
 C266 C 0.01277 0.74010 0.61483
 C267 C -0.00390 0.74034 0.59969
 C268 C -0.02038 0.75791 0.60455
 C269 C 0.00950 0.77838 0.61999
 C270 C -0.00691 0.77875 0.60439
 C271 C -0.01041 0.75389 0.64522
 C272 C -0.02708 0.75425 0.63005
 H273 H 0.02624 0.72955 0.61235
 H274 H -0.03388 0.75782 0.59204
 H275 H 0.02102 0.79135 0.62142
 H276 H -0.01248 0.75164 0.66378
 C277 C 0.53273 0.74473 0.35794
 C278 C 0.53214 0.76251 0.37639
 C279 C 0.51494 0.76141 0.39091
 C280 C 0.49953 0.74270 0.38550
 C281 C 0.53092 0.72372 0.37194
 C282 C 0.51371 0.72246 0.38654
 C283 C 0.51122 0.74694 0.34545
 C284 C 0.49384 0.74569 0.35961
 H285 H 0.54344 0.77571 0.37722
 H286 H 0.48530 0.74213 0.39698
 H287 H 0.54332 0.71168 0.37143
 H288 H 0.50989 0.74907 0.32681
 B289 B 0.00893 0.01195 1.02749
 B290 B -0.00487 0.00579 1.00318
 B291 B 0.01510 0.02438 1.00233
 B292 B 0.03475 0.01608 1.02044
 B293 B 0.02677 -0.00781 1.03234
 B294 B 0.00206 -0.01393 1.02190
 B295 B 0.03006 -0.01309 0.98543
 B296 B 0.04373 -0.00745 1.00975
 B297 B 0.02372 -0.02557 1.01058
 B298 B 0.00420 -0.01734 0.99256
 B299 B 0.01233 0.00658 0.98046
 B300 B 0.03705 0.01260 0.99118
 B301 B 0.49498 0.50947 0.53515
 B302 B 0.48460 0.50501 0.50872
 B303 B 0.50355 0.52402 0.51198
 B304 B 0.52125 0.51530 0.53214
 B305 B 0.51300 0.49035 0.54109
 B306 B 0.49011 0.48399 0.52647
 B307 B 0.52208 0.48862 0.49456
 B308 B 0.53252 0.49303 0.52102
 B309 B 0.51348 0.47413 0.51760
 B310 B 0.49583 0.48288 0.49761
 B311 B 0.50410 0.50778 0.48864
 B312 B 0.52708 0.51406 0.50319
 B313 B 0.50476 0.96836 0.54231
 B314 B 0.51521 0.97594 0.51655
 B315 B 0.49448 0.95867 0.51736
 B316 B 0.47797 0.96574 0.53927
 B317 B 0.48882 0.98803 0.55200
 B318 B 0.51214 0.99426 0.53785
 B319 B 0.47937 0.99811 0.50679
 B320 B 0.46888 0.99052 0.53244
 B321 B 0.48976 1.00778 0.53166
 B322 B 0.50612 1.00064 0.50975
 B323 B 0.49524 0.97851 0.49706
 B324 B 0.47203 0.97214 0.51115
 B325 B 0.00098 0.47174 1.03544
 B326 B 0.01514 0.48043 1.01219
 B327 B -0.00583 0.46363 1.00862
 B328 B -0.02504 0.47016 1.02798
 B329 B -0.01571 0.49159 1.04347
 B330 B 0.00943 0.49764 1.03387
 B331 B -0.01845 0.50397 0.99792
 B332 B -0.03254 0.49556 1.02116
 B333 B -0.01143 0.51218 1.02469
 B334 B 0.00769 0.50552 1.00542
 B335 B -0.00189 0.48440 0.98983
 B336 B -0.02694 0.47809 0.99962
 B337 B 0.00200 0.52112 0.48026
 B338 B 0.01411 0.52017 0.50631
 B339 B -0.00422 0.53919 0.50087
 B340 B -0.02376 0.52854 0.48431
 B341 B -0.01728 0.50231 0.47965
 B342 B 0.00636 0.49714 0.49333
 B343 B -0.02281 0.50768 0.52654
 B344 B -0.03518 0.50901 0.50050
 B345 B -0.01687 0.48973 0.50573
 B346 B 0.00272 0.50040 0.52242
 B347 B -0.00359 0.52662 0.52701
 B348 B -0.02732 0.53183 0.51352
 B349 B 0.51787 0.01681 -0.00756
 B350 B 0.52829 0.01604 0.01933
 B351 B 0.50860 0.03341 0.01306
 B352 B 0.49135 0.02147 -0.00552
 B353 B 0.50069 -0.00384 -0.01041
 B354 B 0.52368 -0.00702 0.00503
 B355 B 0.49134 -0.00057 0.03596
 B356 B 0.48089 0.00042 0.00899
 B357 B 0.50049 -0.01719 0.01528
 B358 B 0.51778 -0.00535 0.03387
 B359 B 0.50864 0.01999 0.03881
 B360 B 0.48558 0.02345 0.02333
 B361 B 0.49129 0.49437 -0.03341
 B362 B 0.47838 0.49975 -0.00850
 B363 B 0.49906 0.48266 -0.00829
 B364 B 0.51763 0.49156 -0.02753
 B365 B 0.50807 0.51479 -0.03960
 B366 B 0.48353 0.51977 -0.02778
 B367 B 0.51304 0.52101 0.00721
 B368 B 0.52597 0.51571 -0.01766
 B369 B 0.50522 0.53276 -0.01793
 B370 B 0.48676 0.52381 0.00131
 B371 B 0.49628 0.50069 0.01334
 B372 B 0.52077 0.49556 0.00153
 B373 B -0.00988 0.99579 0.46953
 B374 B -0.02084 1.00094 0.49560
 B375 B -0.00120 0.98280 0.49354
 B376 B 0.01659 0.99134 0.47332
 B377 B 0.00766 1.01544 0.46290
 B378 B -0.01579 1.02134 0.47673
 B379 B 0.01581 1.01982 0.50938
 B380 B 0.02690 1.01462 0.48348
 B381 B 0.00715 1.03278 0.48533
 B382 B -0.01056 1.02419 0.50559
 B383 B -0.00159 1.00018 0.51604
 B384 B 0.02175 0.99417 0.50226
 B385 B 0.76422 0.25693 0.21937
 B386 B 0.75903 0.24380 0.24467
 B387 B 0.77666 0.26460 0.24390
 B388 B 0.76744 0.28334 0.22502
 B389 B 0.74384 0.27395 0.21415
 B390 B 0.73891 0.24924 0.22605
 B391 B 0.73909 0.27879 0.26098
 B392 B 0.74384 0.29186 0.23585
 B393 B 0.72665 0.27099 0.23653
 B394 B 0.73586 0.25237 0.25532
 B395 B 0.75938 0.26201 0.26635
 B396 B 0.76420 0.28664 0.25420
 B397 B 0.71448 0.74769 0.70065
 B398 B 0.72095 0.76021 0.72579
 B399 B 0.70498 0.73821 0.72614
 B400 B 0.71365 0.72085 0.70578
 B401 B 0.73537 0.73244 0.69258
 B402 B 0.73963 0.75697 0.70482
 B403 B 0.74487 0.72625 0.73854
 B404 B 0.73872 0.71379 0.71356
 B405 B 0.75438 0.73591 0.71308
 B406 B 0.74568 0.75305 0.73353
 B407 B 0.72405 0.74137 0.74672
 B408 B 0.71989 0.71686 0.73426
 B409 B 0.26692 0.25851 0.76002
 B410 B 0.26560 0.27135 0.73425
 B411 B 0.28383 0.25198 0.73840
 B412 B 0.27308 0.23238 0.75517
 B413 B 0.24754 0.23982 0.76135
 B414 B 0.24287 0.26417 0.74832
 B415 B 0.25084 0.23514 0.71419
 B416 B 0.25272 0.22202 0.73987
 B417 B 0.23413 0.24136 0.73599
 B418 B 0.24490 0.26108 0.71905
 B419 B 0.27045 0.25376 0.71296
 B420 B 0.27512 0.22937 0.72569
 B421 B 0.24041 0.73334 0.28083
 B422 B 0.24559 0.72176 0.25515
 B423 B 0.22846 0.74245 0.25648
 B424 B 0.23736 0.76013 0.27650
 B425 B 0.26056 0.75003 0.28750
 B426 B 0.26565 0.72608 0.27423
 B427 B 0.26625 0.75776 0.24088
 B428 B 0.26115 0.76928 0.26663
 B429 B 0.27826 0.74858 0.26535
 B430 B 0.26936 0.73098 0.24526
 B431 B 0.24612 0.74099 0.23433
 B432 B 0.24099 0.76494 0.24759
 B433 B 0.25736 0.74160 0.72403
 B434 B 0.25187 0.73256 0.75102
 B435 B 0.26954 0.75273 0.74721
 B436 B 0.26113 0.76859 0.72515
 B437 B 0.23762 0.75799 0.71533
 B438 B 0.23193 0.73537 0.73138
 B439 B 0.23205 0.76974 0.76063
 B440 B 0.23762 0.77897 0.73382
 B441 B 0.21994 0.75870 0.73746
 B442 B 0.22839 0.74284 0.75948
 B443 B 0.25176 0.75353 0.76935
 B444 B 0.25754 0.77607 0.75335
 B445 B 0.22160 0.24726 0.21265
 B446 B 0.22827 0.25844 0.23844
 B447 B 0.21203 0.23663 0.23767
 B448 B 0.22044 0.22026 0.21623
 B449 B 0.24230 0.23218 0.20366
 B450 B 0.24687 0.25601 0.21725
 B451 B 0.25184 0.22364 0.24914
 B452 B 0.24545 0.21251 0.22350
 B453 B 0.26140 0.23440 0.22422
 B454 B 0.25295 0.25066 0.24567
 B455 B 0.23123 0.23859 0.25828
 B456 B 0.22673 0.21478 0.24444
 B457 B 0.76348 0.76349 0.26526
 B458 B 0.76355 0.77650 0.23957
 B459 B 0.78158 0.75715 0.24471
 B460 B 0.76993 0.73747 0.26071
 B461 B 0.74402 0.74484 0.26520
 B462 B 0.74015 0.76919 0.25200
 B463 B 0.75007 0.74039 0.21826
 B464 B 0.75048 0.72716 0.24404
 B465 B 0.73205 0.74648 0.23894
 B466 B 0.74377 0.76630 0.22289
 B467 B 0.76964 0.75907 0.21849
 B468 B 0.77361 0.73458 0.23143
 B469 B 0.74091 0.23998 0.78581
 B470 B 0.74558 0.22939 0.75950
 B471 B 0.72791 0.24944 0.76224
 B472 B 0.73692 0.26678 0.78257
 B473 B 0.76079 0.25710 0.79229
 B474 B 0.76611 0.23372 0.77795
 B475 B 0.76473 0.26636 0.74580
 B476 B 0.76011 0.27697 0.77210
 B477 B 0.77777 0.25682 0.76943
 B478 B 0.76871 0.23960 0.74907
 B479 B 0.74490 0.24925 0.73940
 B480 B 0.73948 0.27257 0.75370
 C481 C 0.41183 1.02577 0.35289
 C482 C 0.41801 1.00936 0.33778
 C483 C 0.40707 1.00603 0.31706
 C484 C 0.38979 1.01919 0.31063
 C485 C 0.38428 1.03637 0.32534
 C486 C 0.39534 1.03970 0.34620
 C487 C 0.42072 1.02626 0.37668
 C488 C 0.42833 1.04538 0.38677
 C489 C 0.43678 1.04508 0.40938
 C490 C 0.43719 1.02576 0.42224
 C491 C 0.42943 1.00680 0.41207
 C492 C 0.42133 1.00705 0.38960
 C493 C 0.44599 1.02452 0.44606
 C494 C 0.43473 1.01280 0.46302
 C495 C 0.44486 1.00605 0.48326
 C496 C 0.46642 1.01132 0.48746
 C497 C 0.47704 1.02497 0.47146
 C498 C 0.46688 1.03152 0.45088
 H499 H 0.43074 0.99844 0.34252
 H500 H 0.41151 0.99241 0.30650
 H501 H 0.37082 1.04660 0.32163
 H502 H 0.39013 1.05229 0.35778
 H503 H 0.42799 1.06038 0.37706
 H504 H 0.44276 1.05986 0.41690
 H505 H 0.42987 0.99163 0.42147
 H506 H 0.41532 0.99215 0.38236
 H507 H 0.41853 1.00738 0.45976
 H508 H 0.43608 0.99524 0.49462
 H509 H 0.49368 1.02921 0.47386
 H510 H 0.47591 1.04051 0.43796
 C511 C -0.08530 0.54118 0.84804
 C512 C -0.07559 0.53895 0.82614
 C513 C -0.08750 0.53225 0.80688
 C514 C -0.10949 0.52760 0.80904
 C515 C -0.11940 0.53152 0.83055
 C516 C -0.10748 0.53787 0.84982
 C517 C -0.07229 0.54485 0.86937
 C518 C -0.08096 0.55568 0.88859
 C519 C -0.07080 0.55490 0.91020
 C520 C -0.05150 0.54382 0.91286
 C521 C -0.04174 0.53484 0.89330
 C522 C -0.05209 0.53521 0.87178
 C523 C -0.04390 0.53772 0.93626
 C524 C -0.05736 0.52523 0.95044
 C525 C -0.04950 0.51541 0.97045
 C526 C -0.02817 0.51857 0.97751
 C527 C -0.01496 0.53205 0.96378
 C528 C -0.02270 0.54132 0.94317
 H529 H -0.05867 0.54205 0.82391
 H530 H -0.07916 0.53073 0.79059
 H531 H -0.13640 0.52881 0.83271
 H532 H -0.11563 0.53919 0.86634
 H533 H -0.09615 0.56383 0.88726
 H534 H -0.07857 0.56193 0.92514
 H535 H -0.02699 0.52593 0.89508
 H536 H -0.04494 0.52651 0.85755
 H537 H -0.07361 0.52176 0.94509
 H538 H -0.06000 0.50436 0.97960
 H539 H 0.00169 0.53444 0.96815
 H540 H -0.01197 0.55065 0.93221
 C541 C 0.09035 -0.02618 0.82746
 C542 C 0.11089 -0.01701 0.82772
 C543 C 0.12055 -0.00994 0.80722
 C544 C 0.10974 -0.01123 0.78580
 C545 C 0.08935 -0.02104 0.78549
 C546 C 0.07966 -0.02816 0.80612
 C547 C 0.08010 -0.03286 0.84963
 C548 C 0.05864 -0.02779 0.85408
 C549 C 0.05014 -0.03050 0.87639
 C550 C 0.06300 -0.03822 0.89460
 C551 C 0.08389 -0.04490 0.88974
 C552 C 0.09232 -0.04236 0.86742
 C553 C 0.05587 -0.03592 0.91894
 C554 C 0.06902 -0.02489 0.93462
 C555 C 0.06121 -0.01877 0.95622
 C556 C 0.04023 -0.02408 0.96304
 C557 C 0.02745 -0.03619 0.94772
 C558 C 0.03517 -0.04194 0.92583
 H559 H 0.11953 -0.01512 0.84389
 H560 H 0.13673 -0.00385 0.80828
 H561 H 0.08101 -0.02360 0.76927
 H562 H 0.06396 -0.03555 0.80534
 H563 H 0.04886 -0.02037 0.84076
 H564 H 0.03404 -0.02503 0.87979
 H565 H 0.09400 -0.05111 0.90348
 H566 H 0.10874 -0.04696 0.86434
 H567 H 0.08490 -0.01962 0.92953
 H568 H 0.07135 -0.00879 0.96695
 H569 H 0.01105 -0.04016 0.95197
 H570 H 0.02470 -0.05034 0.91392
 C571 C 0.58727 0.48478 0.33539
 C572 C 0.60892 0.48980 0.33230
 C573 C 0.61685 0.49462 0.31028
 C574 C 0.60328 0.49499 0.29076
 C575 C 0.58166 0.48913 0.29378
 C576 C 0.57375 0.48403 0.31596
 C577 C 0.57885 0.48172 0.35913
 C578 C 0.56660 0.46354 0.36523
 C579 C 0.55919 0.46084 0.38806
 C580 C 0.56370 0.47645 0.40501
 C581 C 0.57577 0.49473 0.39858
 C582 C 0.58338 0.49723 0.37600
 C583 C 0.55490 0.47473 0.42895
 C584 C 0.56632 0.48336 0.44775
 C585 C 0.55640 0.48635 0.46913
 C586 C 0.53507 0.47987 0.47271
 C587 C 0.52433 0.46933 0.45450
 C588 C 0.53409 0.46689 0.43283
 H589 H 0.61970 0.49016 0.34702
 H590 H 0.63370 0.49839 0.30848
 H591 H 0.57072 0.48839 0.27932
 H592 H 0.55697 0.48009 0.31805
 H593 H 0.56305 0.45134 0.35243
 H594 H 0.55003 0.44653 0.39244
 H595 H 0.57893 0.50748 0.41084
 H596 H 0.59253 0.51154 0.37155
 H597 H 0.58260 0.48902 0.44557
 H598 H 0.56514 0.49508 0.48227
 H599 H 0.50779 0.46441 0.45627
 H600 H 0.52474 0.46029 0.41874
 C601 C 0.57855 0.53100 0.16303
 C602 C 0.59802 0.51985 0.16230
 C603 C 0.60772 0.51261 0.18275
 C604 C 0.59820 0.51635 0.20443
 C605 C 0.57868 0.52748 0.20517
 C606 C 0.56893 0.53465 0.18468
 C607 C 0.56811 0.53804 0.14110
 C608 C 0.54608 0.53476 0.13769
 C609 C 0.53692 0.53830 0.11582
 C610 C 0.54964 0.54516 0.09700
 C611 C 0.57127 0.55009 0.10092
 C612 C 0.58042 0.54655 0.12273
 C613 C 0.54151 0.54328 0.07291
 C614 C 0.55365 0.53184 0.05677
 C615 C 0.54502 0.52609 0.03547
 C616 C 0.52414 0.53215 0.02918
 C617 C 0.51238 0.54479 0.04481
 C618 C 0.52092 0.55013 0.06660
 H619 H 0.60560 0.51637 0.14583
 H620 H 0.62256 0.50386 0.18151
 H621 H 0.57113 0.53112 0.22160
 H622 H 0.55402 0.54335 0.18579
 H623 H 0.53621 0.52815 0.15151
 H624 H 0.52027 0.53413 0.11322
 H625 H 0.58137 0.55562 0.08675
 H626 H 0.59732 0.54972 0.12501
 H627 H 0.56936 0.52590 0.06129
 H628 H 0.55451 0.51580 0.02450
 H629 H 0.49616 0.54951 0.04082
 H630 H 0.51120 0.55892 0.07882
 C631 C 0.08937 1.03080 0.66166
 C632 C 0.07997 1.03388 0.68352
 C633 C 0.08986 1.02619 0.70372
 C634 C 0.10959 1.01528 0.70269
 C635 C 0.11901 1.01253 0.68063
 C636 C 0.10904 1.02012 0.66050
 C637 C 0.07823 1.03738 0.63993
 C638 C 0.08993 1.04497 0.62063
 C639 C 0.08001 1.04776 0.59909
 C640 C 0.05814 1.04323 0.59645
 C641 C 0.04608 1.03729 0.61609
 C642 C 0.05603 1.03433 0.63763
 C643 C 0.04879 1.04113 0.57294
 C644 C 0.05940 1.02857 0.55649
 C645 C 0.04935 1.02290 0.53586
 C646 C 0.02860 1.03015 0.53067
 C647 C 0.01846 1.04384 0.54660
 C648 C 0.02838 1.04910 0.56766
 H649 H 0.06496 1.04233 0.68506
 H650 H 0.08213 1.02950 0.72010
 H651 H 0.13355 1.00350 0.67837
 H652 H 0.11643 1.01686 0.64388
 H653 H 0.10695 1.04798 0.62196
 H654 H 0.08960 1.05255 0.58421
 H655 H 0.02925 1.03341 0.61445
 H656 H 0.04656 1.02833 0.65207
 H657 H 0.07496 1.02187 0.56028
 H658 H 0.05761 1.01191 0.52452
 H659 H 0.00242 1.04956 0.54344
 H660 H 0.01986 1.05877 0.58016
 C661 C -0.10109 0.49127 0.68138
 C662 C -0.08901 0.48524 0.70095
 C663 C -0.09702 0.48826 0.72339
 C664 C -0.11727 0.49740 0.72678
 C665 C -0.12973 0.50251 0.70722
 C666 C -0.12177 0.49941 0.68480
 C667 C -0.09147 0.49095 0.65772
 C668 C -0.09492 0.50826 0.64234
 C669 C -0.08440 0.50931 0.62099
 C670 C -0.07006 0.49313 0.61446
 C671 C -0.06722 0.47532 0.62932
 C672 C -0.07777 0.47428 0.65081
 C673 C -0.05724 0.49579 0.59289
 C674 C -0.05428 0.47876 0.57731
 C675 C -0.04298 0.48206 0.55649
 C676 C -0.03429 0.50244 0.55092
 C677 C -0.03684 0.51918 0.56707
 C678 C -0.04809 0.51590 0.58767
 H679 H -0.07297 0.47908 0.69896
 H680 H -0.08715 0.48385 0.73810
 H681 H -0.14527 0.50984 0.70912
 H682 H -0.13161 0.50393 0.67010
 H683 H -0.10513 0.52151 0.64717
 H684 H -0.08714 0.52307 0.60973
 H685 H -0.05624 0.46264 0.62471
 H686 H -0.07496 0.46061 0.66218
 H687 H -0.06125 0.46309 0.58091
 H688 H -0.04176 0.46879 0.54463
 H689 H -0.03051 0.53516 0.56370
 H690 H -0.04972 0.52922 0.59955
 C691 C 0.41111 -0.01956 0.18755
 C692 C 0.42087 -0.02222 0.20932
 C693 C 0.40995 -0.01709 0.22967
 C694 C 0.38899 -0.00903 0.22879
 C695 C 0.37874 -0.00768 0.20710
 C696 C 0.38971 -0.01282 0.18667
 C697 C 0.42383 -0.02181 0.16590
 C698 C 0.41512 -0.03142 0.14593
 C699 C 0.42656 -0.03131 0.12497
 C700 C 0.44676 -0.02146 0.12371
 C701 C 0.45576 -0.01255 0.14376
 C702 C 0.44449 -0.01283 0.16468
 C703 C 0.45706 -0.01729 0.10109
 C704 C 0.45718 0.00374 0.09236
 C705 C 0.46771 0.00867 0.07169
 C706 C 0.47843 -0.00736 0.05902
 C707 C 0.47858 -0.02847 0.06815
 C708 C 0.46769 -0.03347 0.08887
 H709 H 0.43717 -0.02786 0.21059
 H710 H 0.41810 -0.01921 0.24612
 H711 H 0.36258 -0.00182 0.20571
 H712 H 0.38178 -0.01052 0.17012
 H713 H 0.39929 -0.03855 0.14642
 H714 H 0.41927 -0.03797 0.10952
 H715 H 0.47120 -0.00458 0.14296
 H716 H 0.45150 -0.00500 0.17962
 H717 H 0.44925 0.01647 0.10175
 H718 H 0.46756 0.02527 0.06588
 H719 H 0.48748 -0.04103 0.05974
 H720 H 0.46808 -0.04975 0.09571
 C721 C 0.32594 0.44335 0.01032
 C722 C 0.31999 0.42862 0.02778
 C723 C 0.30125 0.41654 0.02589
 C724 C 0.28752 0.41921 0.00666
 C725 C 0.29295 0.43492 -0.01017
 C726 C 0.31193 0.44684 -0.00838
 C727 C 0.34763 0.45319 0.01050
 C728 C 0.35115 0.47454 0.00306
 C729 C 0.37195 0.48294 0.00173
 C730 C 0.38955 0.47006 0.00763
 C731 C 0.38593 0.44899 0.01574
 C732 C 0.36526 0.44064 0.01709
 C733 C 0.41173 0.47780 0.00395
 C734 C 0.42664 0.46422 -0.00655
 C735 C 0.44755 0.47110 -0.01030
 C736 C 0.45433 0.49178 -0.00360
 C737 C 0.43929 0.50545 0.00688
 C738 C 0.41819 0.49856 0.01053
 H739 H 0.33030 0.42580 0.04260
 H740 H 0.29850 0.40452 0.03916
 H741 H 0.28296 0.43723 -0.02534
 H742 H 0.31615 0.45793 -0.02229
 H743 H 0.33786 0.48464 -0.00196
 H744 H 0.37434 0.49921 -0.00469
 H745 H 0.39918 0.43878 0.02064
 H746 H 0.36319 0.42404 0.02254
 H747 H 0.42199 0.44833 -0.01236
 H748 H 0.45812 0.46023 -0.01917
 H749 H 0.44371 0.52155 0.01219
 H750 H 0.40698 0.50934 0.01870
 C751 C -0.17176 0.94660 0.52486
 C752 C -0.18555 0.95275 0.50679
 C753 C -0.20444 0.94132 0.50279
 C754 C -0.21015 0.92347 0.51675
 C755 C -0.19676 0.91798 0.53554
 C756 C -0.17789 0.92951 0.53961
 C757 C -0.15001 0.95619 0.52636
 C758 C -0.13231 0.94281 0.53017
 C759 C -0.11159 0.95089 0.52787
 C760 C -0.10805 0.97253 0.52168
 C761 C -0.12565 0.98629 0.51931
 C762 C -0.14646 0.97817 0.52157
 C763 C -0.08624 0.98000 0.51551
 C764 C -0.07826 0.99996 0.52296
 C765 C -0.05764 1.00670 0.51661
 C766 C -0.04469 0.99371 0.50249
 C767 C -0.05306 0.97392 0.49484
 C768 C -0.07344 0.96715 0.50130
 H769 H -0.18116 0.96558 0.49483
 H770 H -0.21413 0.94577 0.48793
 H771 H -0.19998 0.90424 0.54659
 H772 H -0.16767 0.92452 0.55381
 H773 H -0.13443 0.92577 0.53364
 H774 H -0.09827 0.94001 0.53009
 H775 H -0.12335 1.00303 0.51451
 H776 H -0.15979 0.98892 0.51881
 H777 H -0.08786 1.01019 0.53391
 H778 H -0.05192 1.02208 0.52285
 H779 H -0.04405 0.96356 0.48353
 H780 H -0.07938 0.95195 0.49477
 C781 C -0.15953 0.05156 0.98891
 C782 C -0.17832 0.04028 0.99494
 C783 C -0.19746 0.05124 0.99878
 C784 C -0.19836 0.07383 0.99634
 C785 C -0.17969 0.08485 0.98933
 C786 C -0.16058 0.07399 0.98594
 C787 C -0.13857 0.04046 0.98722
 C788 C -0.12267 0.04820 0.97197
 C789 C -0.10195 0.04010 0.97293
 C790 C -0.09667 0.02359 0.98874
 C791 C -0.11299 0.01472 1.00276
 C792 C -0.13361 0.02321 1.00220
 C793 C -0.07400 0.01693 0.99178
 C794 C -0.06628 0.01083 1.01381
 C795 C -0.04463 0.00663 1.01718
 C796 C -0.02985 0.00962 0.99900
 C797 C -0.03778 0.01420 0.97661
 C798 C -0.05953 0.01784 0.97306
 H799 H -0.17821 0.02294 0.99696
 H800 H -0.21117 0.04177 1.00395
 H801 H -0.17974 0.10220 0.98724
 H802 H -0.14645 0.08340 0.98183
 H803 H -0.12601 0.06105 0.95971
 H804 H -0.08991 0.04752 0.96194
 H805 H -0.10975 0.00158 1.01468
 H806 H -0.14535 0.01683 1.01428
 H807 H -0.07678 0.00987 1.02873
 H808 H -0.03948 0.00153 1.03430
 H809 H -0.02715 0.01552 0.96181
 H810 H -0.06493 0.02161 0.95564
 C811 C 0.32886 0.54410 0.48852
 C812 C 0.31283 0.53835 0.50449
 C813 C 0.29399 0.55013 0.50565
 C814 C 0.29047 0.56769 0.49052
 C815 C 0.30645 0.57305 0.47416
 C816 C 0.32529 0.56122 0.47300
 C817 C 0.35030 0.53441 0.49021
 C818 C 0.36207 0.52944 0.47015
 C819 C 0.38342 0.52314 0.47196
 C820 C 0.39328 0.52203 0.49383
 C821 C 0.38125 0.52605 0.51389
 C822 C 0.35995 0.53213 0.51211
 C823 C 0.41641 0.51832 0.49593
 C824 C 0.42880 0.53237 0.50932
 C825 C 0.45044 0.52860 0.51260
 C826 C 0.46027 0.51048 0.50282
 C827 C 0.44790 0.49679 0.48869
 C828 C 0.42617 0.50076 0.48517
 H829 H 0.31527 0.52528 0.51676
 H830 H 0.28263 0.54606 0.51920
 H831 H 0.30511 0.58709 0.46306
 H832 H 0.33766 0.56638 0.46097
 H833 H 0.35492 0.53100 0.45308
 H834 H 0.39249 0.52012 0.45629
 H835 H 0.38855 0.52509 0.53094
 H836 H 0.35137 0.53613 0.52784
 H837 H 0.42164 0.54627 0.51742
 H838 H 0.45929 0.53974 0.52330
 H839 H 0.45481 0.48276 0.48067
 H840 H 0.41684 0.48978 0.47467
 C841 C 0.17047 0.56322 0.52072
 C842 C 0.18389 0.55170 0.50579
 C843 C 0.20485 0.55851 0.50189
 C844 C 0.21291 0.57697 0.51287
 C845 C 0.19964 0.58831 0.52810
 C846 C 0.17860 0.58150 0.53201
 C847 C 0.14772 0.55689 0.52310
 C848 C 0.13171 0.57262 0.52231
 C849 C 0.11021 0.56660 0.52157
 C850 C 0.10429 0.54475 0.52160
 C851 C 0.12023 0.52904 0.52356
 C852 C 0.14175 0.53506 0.52427
 C853 C 0.08170 0.53843 0.51801
 C854 C 0.07243 0.52135 0.53065
 C855 C 0.05116 0.51536 0.52678
 C856 C 0.03873 0.52629 0.51010
 C857 C 0.04827 0.54323 0.49736
 C858 C 0.06942 0.54921 0.50126
 H859 H 0.17795 0.53785 0.49643
 H860 H 0.21448 0.54969 0.48961
 H861 H 0.20550 0.60241 0.53702
 H862 H 0.16866 0.59057 0.54377
 H863 H 0.13582 0.58955 0.52123
 H864 H 0.09821 0.57905 0.52044
 H865 H 0.11612 0.51209 0.52353
 H866 H 0.15377 0.52262 0.52519
 H867 H 0.08155 0.51280 0.54374
 H868 H 0.04451 0.50227 0.53703
 H869 H 0.03947 0.55198 0.48422
 H870 H 0.07626 0.56214 0.49088
 C871 C 0.68234 0.06765 0.02916
 C872 C 0.70027 0.05521 0.03486
 C873 C 0.72092 0.06291 0.03030
 C874 C 0.72428 0.08340 0.02012
 C875 C 0.70616 0.09594 0.01488
 C876 C 0.68559 0.08812 0.01920
 C877 C 0.66027 0.05910 0.03249
 C878 C 0.64352 0.07300 0.03850
 C879 C 0.62241 0.06563 0.03886
 C880 C 0.61760 0.04413 0.03360
 C881 C 0.63433 0.02988 0.02890
 C882 C 0.65547 0.03732 0.02822
 C883 C 0.59511 0.03720 0.03095
 C884 C 0.58732 0.01841 0.04177
 C885 C 0.56608 0.01189 0.03850
 C886 C 0.55233 0.02387 0.02404
 C887 C 0.56049 0.04248 0.01299
 C888 C 0.58147 0.04918 0.01662
 H889 H 0.69837 0.03952 0.04294
 H890 H 0.73420 0.05285 0.03538
 H891 H 0.70747 0.11133 0.00610
 H892 H 0.67216 0.09791 0.01391
 H893 H 0.64666 0.08972 0.04249
 H894 H 0.60974 0.07684 0.04279
 H895 H 0.63094 0.01327 0.02458
 H896 H 0.66790 0.02621 0.02329
 H897 H 0.59765 0.00886 0.05282
 H898 H 0.56057 -0.00267 0.04712
 H899 H 0.55086 0.05183 0.00109
 H900 H 0.58726 0.06348 0.00768
 C901 C 0.66971 0.93284 0.48892
 C902 C 0.67784 0.91778 0.47311
 C903 C 0.69895 0.91063 0.47497
 C904 C 0.71235 0.91846 0.49259
 C905 C 0.70429 0.93370 0.50819
 C906 C 0.68325 0.94078 0.50639
 C907 C 0.64696 0.93960 0.48808
 C908 C 0.64126 0.96089 0.49327
 C909 C 0.61980 0.96672 0.49498
 C910 C 0.60350 0.95143 0.49144
 C911 C 0.60919 0.93039 0.48520
 C912 C 0.63067 0.92453 0.48357
 C913 C 0.58080 0.95706 0.49587
 C914 C 0.56724 0.94237 0.50736
 C915 C 0.54645 0.94811 0.51334
 C916 C 0.53858 0.96879 0.50816
 C917 C 0.55201 0.98328 0.49604
 C918 C 0.57284 0.97748 0.48997
 H919 H 0.66788 0.91153 0.45931
 H920 H 0.70478 0.89904 0.46257
 H921 H 0.71401 0.93965 0.52234
 H922 H 0.67739 0.95197 0.51920
 H923 H 0.65342 0.97297 0.49648
 H924 H 0.61601 0.98302 0.50000
 H925 H 0.59702 0.91831 0.48201
 H926 H 0.63449 0.90798 0.47966
 H927 H 0.57293 0.92664 0.51258
 H928 H 0.53691 0.93647 0.52285
 H929 H 0.54665 0.99929 0.49149
 H930 H 0.58278 0.98908 0.48080
 C931 C 0.16676 0.42609 0.98665
 C932 C 0.17046 0.40417 0.99073
 C933 C 0.19120 0.39604 0.99044
 C934 C 0.20891 0.40972 0.98673
 C935 C 0.20493 0.43146 0.98098
 C936 C 0.18410 0.43954 0.98095
 C937 C 0.14504 0.43500 0.98965
 C938 C 0.13619 0.44898 0.97298
 C939 C 0.11565 0.45727 0.97612
 C940 C 0.10380 0.45204 0.99618
 C941 C 0.11277 0.43825 1.01292
 C942 C 0.13311 0.42971 1.00962
 C943 C 0.08199 0.46056 0.99960
 C944 C 0.07603 0.46936 1.02103
 C945 C 0.05512 0.47630 1.02471
 C946 C 0.03945 0.47387 1.00734
 C947 C 0.04579 0.46594 0.98556
 C948 C 0.06679 0.45934 0.98175
 H949 H 0.15726 0.39333 0.99454
 H950 H 0.19306 0.37915 0.99388
 H951 H 0.21786 0.44248 0.97689
 H952 H 0.18163 0.45649 0.97743
 H953 H 0.14507 0.45325 0.95743
 H954 H 0.10908 0.46795 0.96301
 H955 H 0.10389 0.43384 1.02843
 H956 H 0.13968 0.41916 1.02285
 H957 H 0.08756 0.47082 1.03496
 H958 H 0.05111 0.48290 1.04151
 H959 H 0.03459 0.46474 0.97136
 H960 H 0.07104 0.45276 0.96500
 C961 C -0.01090 0.34180 0.44350
 C962 C 0.00445 0.34290 0.42567
 C963 C 0.00652 0.32617 0.40972
 C964 C -0.00660 0.30770 0.41133
 C965 C -0.02226 0.30693 0.42896
 C966 C -0.02426 0.32362 0.44492
 C967 C -0.01362 0.36008 0.45974
 C968 C -0.03416 0.36693 0.46616
 C969 C -0.03680 0.38556 0.47929
 C970 C -0.01899 0.39781 0.48621
 C971 C 0.00157 0.39027 0.48095
 C972 C 0.00422 0.37161 0.46788
 C973 C -0.02176 0.41977 0.49576
 C974 C -0.00768 0.42809 0.51251
 C975 C -0.00757 0.45011 0.51757
 C976 C -0.02142 0.46431 0.50582
 C977 C -0.03659 0.45549 0.49054
 C978 C -0.03684 0.43358 0.48567
 H979 H 0.01453 0.35702 0.42362
 H980 H 0.01807 0.32824 0.39595
 H981 H -0.03305 0.29329 0.43040
 H982 H -0.03626 0.32224 0.45843
 H983 H -0.04826 0.35850 0.46010
 H984 H -0.05284 0.39084 0.48327
 H985 H 0.01563 0.39944 0.48579
 H986 H 0.02026 0.36653 0.46359
 H987 H 0.00395 0.41776 0.52084
 H988 H 0.00434 0.45612 0.52955
 H989 H -0.04717 0.46556 0.48067
 H990 H -0.04773 0.42782 0.47245
 C991 C 0.48840 -0.16018 -0.06036
 C992 C 0.50808 -0.16735 -0.06904
 C993 C 0.50888 -0.18364 -0.08563
 C994 C 0.49000 -0.19290 -0.09450
 C995 C 0.47033 -0.18614 -0.08515
 C996 C 0.46953 -0.16983 -0.06855
 C997 C 0.48767 -0.14251 -0.04305
 C998 C 0.47225 -0.12621 -0.04485
 C999 C 0.47293 -0.10845 -0.03007
 C1000 C 0.48904 -0.10658 -0.01317
 C1001 C 0.50374 -0.12344 -0.01055
 C1002 C 0.50305 -0.14120 -0.02530
 C1003 C 0.49211 -0.08600 -0.00060
 C1004 C 0.51263 -0.07692 0.00100
 C1005 C 0.51539 -0.05578 0.00837
 C1006 C 0.49768 -0.04296 0.01419
 C1007 C 0.47748 -0.05303 0.01540
 C1008 C 0.47465 -0.07418 0.00766
 H1009 H 0.52294 -0.16027 -0.06312
 H1010 H 0.52442 -0.18915 -0.09115
 H1011 H 0.45548 -0.19372 -0.09027
 H1012 H 0.45414 -0.16507 -0.06176
 H1013 H 0.46029 -0.12665 -0.05843
 H1014 H 0.46157 -0.09558 -0.03275
 H1015 H 0.51616 -0.12259 0.00251
 H1016 H 0.51483 -0.15374 -0.02309
 H1017 H 0.52648 -0.08561 -0.00505
 H1018 H 0.53143 -0.04919 0.00804
 H1019 H 0.46364 -0.04445 0.02145
 H1020 H 0.45870 -0.08105 0.00739
 C1021 C 0.00968 -0.17776 1.07253
 C1022 C -0.00931 -0.18141 1.08494
 C1023 C -0.01196 -0.19996 1.09849
 C1024 C 0.00461 -0.21514 1.10047
 C1025 C 0.02281 -0.21232 1.08626
 C1026 C 0.02539 -0.19376 1.07255
 C1027 C 0.01366 -0.15655 1.06135
 C1028 C 0.02173 -0.15479 1.03859
 C1029 C 0.02552 -0.13447 1.02856
 C1030 C 0.02175 -0.11570 1.04137
 C1031 C 0.01380 -0.11757 1.06413
 C1032 C 0.00972 -0.13774 1.07396
 C1033 C 0.02557 -0.09401 1.03132
 C1034 C 0.03629 -0.07840 1.04445
 C1035 C 0.03693 -0.05701 1.03702
 C1036 C 0.02679 -0.05062 1.01625
 C1037 C 0.01725 -0.06657 1.00237
 C1038 C 0.01673 -0.08810 1.00979
 H1039 H -0.02198 -0.16961 1.08454
 H1040 H -0.02698 -0.20196 1.10748
 H1041 H 0.03551 -0.22408 1.08657
 H1042 H 0.04011 -0.19144 1.06291
 H1043 H 0.02487 -0.16909 1.02854
 H1044 H 0.03163 -0.13338 1.01097
 H1045 H 0.01051 -0.10335 1.07427
 H1046 H 0.00374 -0.13866 1.09162
 H1047 H 0.04352 -0.08264 1.06095
 H1048 H 0.04471 -0.04537 1.04812
 H1049 H 0.00921 -0.06236 0.98636
 H1050 H 0.00832 -0.09988 0.99940
 C1051 C 0.51599 0.31778 0.56708
 C1052 C 0.49608 0.31223 0.57678
 C1053 C 0.49400 0.29435 0.59149
 C1054 C 0.51192 0.28186 0.59745
 C1055 C 0.53137 0.28630 0.58598
 C1056 C 0.53345 0.30417 0.57120
 C1057 C 0.51880 0.33857 0.55443
 C1058 C 0.53702 0.35136 0.55845
 C1059 C 0.53833 0.37231 0.54957
 C1060 C 0.52143 0.38100 0.53652
 C1061 C 0.50380 0.36779 0.53127
 C1062 C 0.50251 0.34679 0.54012
 C1063 C 0.52121 0.40429 0.53053
 C1064 C 0.51313 0.41170 0.50914
 C1065 C 0.51126 0.43379 0.50465
 C1066 C 0.51736 0.44894 0.52147
 C1067 C 0.52584 0.44140 0.54266
 C1068 C 0.52780 0.41943 0.54707
 H1069 H 0.48221 0.32221 0.57382
 H1070 H 0.47833 0.29070 0.59841
 H1071 H 0.54521 0.27628 0.58892
 H1072 H 0.54885 0.30757 0.56335
 H1073 H 0.54979 0.34564 0.56952
 H1074 H 0.55227 0.38199 0.55359
 H1075 H 0.49049 0.37404 0.52134
 H1076 H 0.48843 0.33722 0.53637
 H1077 H 0.50803 0.40041 0.49600
 H1078 H 0.50454 0.43890 0.48821
 H1079 H 0.53077 0.45245 0.55612
 H1080 H 0.53375 0.41429 0.56388
 C1081 C 0.49816 1.16022 0.59621
 C1082 C 0.48474 1.17667 0.58809
 C1083 C 0.48720 1.19770 0.59617
 C1084 C 0.50283 1.20260 0.61285
 C1085 C 0.51579 1.18606 0.62156
 C1086 C 0.51365 1.16507 0.61310
 C1087 C 0.49630 1.13824 0.58654
 C1088 C 0.51444 1.12770 0.57798
 C1089 C 0.51260 1.10726 0.56810
 C1090 C 0.49265 1.09682 0.56702
 C1091 C 0.47455 1.10728 0.57579
 C1092 C 0.47632 1.12790 0.58523
 C1093 C 0.49086 1.07483 0.55737
 C1094 C 0.48064 1.05846 0.57017
 C1095 C 0.47998 1.03742 0.56182
 C1096 C 0.48897 1.03231 0.54009
 C1097 C 0.49878 1.04892 0.52706
 C1098 C 0.49986 1.06990 0.53570
 H1099 H 0.47275 1.17336 0.57502
 H1100 H 0.47692 1.21019 0.58931
 H1101 H 0.52804 1.18951 0.63430
 H1102 H 0.52409 1.15261 0.61971
 H1103 H 0.52998 1.13544 0.57861
 H1104 H 0.52681 1.09944 0.56163
 H1105 H 0.45900 1.09955 0.57510
 H1106 H 0.46212 1.13570 0.59175
 H1107 H 0.47373 1.06183 0.58702
 H1108 H 0.47245 1.02514 0.57254
 H1109 H 0.50611 1.04569 0.51043
 H1110 H 0.50777 1.08231 0.52547
 C1111 C -0.00676 0.66275 1.09480
 C1112 C 0.00850 0.66736 1.11202
 C1113 C 0.01035 0.68815 1.12108
 C1114 C -0.00271 0.70478 1.11275
 C1115 C -0.01815 0.70010 1.09577
 C1116 C -0.02027 0.67926 1.08702
 C1117 C -0.00819 0.64098 1.08442
 C1118 C -0.02809 0.63072 1.08161
 C1119 C -0.02941 0.61035 1.07146
 C1120 C -0.01090 0.60002 1.06354
 C1121 C 0.00898 0.61034 1.06622
 C1122 C 0.01034 0.63054 1.07673
 C1123 C -0.01221 0.57836 1.05290
 C1124 C -0.00129 0.57395 1.03216
 C1125 C -0.00174 0.55327 1.02270
 C1126 C -0.01290 0.53641 1.03394
 C1127 C -0.02399 0.54101 1.05463
 C1128 C -0.02385 0.56177 1.06383
 H1129 H 0.01902 0.65487 1.11842
 H1130 H 0.02246 0.69137 1.13402
 H1131 H -0.02855 0.71261 1.08918
 H1132 H -0.03209 0.67617 1.07369
 H1133 H -0.04260 0.63840 1.08746
 H1134 H -0.04493 0.60276 1.06953
 H1135 H 0.02351 0.60264 1.06046
 H1136 H 0.02585 0.63818 1.07850
 H1137 H 0.00769 0.58652 1.02330
 H1138 H 0.00712 0.55046 1.00688
 H1139 H -0.03270 0.52852 1.06392
 H1140 H -0.03230 0.56471 1.07992
 C1141 C 0.49768 0.68610 -0.08394
 C1142 C 0.48986 0.68911 -0.10667
 C1143 C 0.48865 0.70972 -0.11664
 C1144 C 0.49467 0.72812 -0.10395
 C1145 C 0.50261 0.72491 -0.08121
 C1146 C 0.50426 0.70432 -0.07152
 C1147 C 0.49921 0.66415 -0.07324
 C1148 C 0.49664 0.66106 -0.04910
 C1149 C 0.49875 0.64062 -0.03899
 C1150 C 0.50309 0.62257 -0.05276
 C1151 C 0.50519 0.62560 -0.07696
 C1152 C 0.50351 0.64608 -0.08700
 C1153 C 0.50525 0.60064 -0.04216
 C1154 C 0.51894 0.58546 -0.05219
 C1155 C 0.51952 0.56433 -0.04390
 C1156 C 0.50704 0.55779 -0.02469
 C1157 C 0.49417 0.57324 -0.01383
 C1158 C 0.49316 0.59434 -0.02255
 H1159 H 0.48423 0.67557 -0.11673
 H1160 H 0.48206 0.71100 -0.13391
 H1161 H 0.50851 0.73816 -0.07093
 H1162 H 0.51113 0.70275 -0.05433
 H1163 H 0.49287 0.67443 -0.03790
 H1164 H 0.49719 0.63908 -0.02031
 H1165 H 0.50799 0.61212 -0.08832
 H1166 H 0.50589 0.64771 -0.10556
 H1167 H 0.52903 0.58974 -0.06682
 H1168 H 0.52949 0.55299 -0.05300
 H1169 H 0.48412 0.56886 0.00081
 H1170 H 0.48224 0.60543 -0.01443
 C1171 C 0.00006 1.18577 0.42050
 C1172 C -0.01320 1.18977 0.40116
 C1173 C -0.01464 1.21050 0.39150
 C1174 C -0.00302 1.22761 0.40113
 C1175 C 0.01061 1.22349 0.42004
 C1176 C 0.01215 1.20286 0.42957
 C1177 C 0.00145 1.16394 0.43122
 C1178 C 0.00325 1.16141 0.45550
 C1179 C 0.00537 1.14096 0.46556
 C1180 C 0.00568 1.12252 0.45159
 C1181 C 0.00347 1.12504 0.42737
 C1182 C 0.00143 1.14547 0.41731
 C1183 C 0.00823 1.10069 0.46204
 C1184 C 0.02032 1.08513 0.45050
 C1185 C 0.02099 1.06400 0.45873
 C1186 C 0.00990 1.05781 0.47906
 C1187 C -0.00123 1.07368 0.49139
 C1188 C -0.00207 1.09489 0.48296
 H1189 H -0.02285 1.17700 0.39383
 H1190 H -0.02531 1.21328 0.37700
 H1191 H 0.02021 1.23627 0.42746
 H1192 H 0.02298 1.20026 0.44398
 H1193 H 0.00297 1.17527 0.46678
 H1194 H 0.00710 1.13962 0.48424
 H1195 H 0.00320 1.11115 0.41611
 H1196 H 0.00023 1.14680 0.39858
 H1197 H 0.02892 1.08915 0.43469
 H1198 H 0.02971 1.05236 0.44860
 H1199 H -0.01015 1.06958 0.50694
 H1200 H -0.01161 1.10649 0.49225
 C1201 C 0.78454 0.66024 0.89315
 C1202 C 0.78133 0.67333 0.91255
 C1203 C 0.77751 0.66408 0.93445
 C1204 C 0.77709 0.64149 0.93734
 C1205 C 0.78205 0.62865 0.91802
 C1206 C 0.78560 0.63789 0.89620
 C1207 C 0.78296 0.66935 0.86946
 C1208 C 0.76677 0.66171 0.85487
 C1209 C 0.76388 0.67062 0.83287
 C1210 C 0.77748 0.68709 0.82451
 C1211 C 0.79384 0.69473 0.83919
 C1212 C 0.79641 0.68605 0.86162
 C1213 C 0.77358 0.69658 0.80101
 C1214 C 0.77652 0.71870 0.79648
 C1215 C 0.76916 0.72792 0.77565
 C1216 C 0.75834 0.71530 0.75910
 C1217 C 0.75637 0.69306 0.76342
 C1218 C 0.76455 0.68378 0.78353
 H1219 H 0.78024 0.69063 0.91045
 H1220 H 0.77374 0.67481 0.94847
 H1221 H 0.78182 0.61125 0.91953
 H1222 H 0.78800 0.62751 0.88139
 H1223 H 0.75587 0.64921 0.86081
 H1224 H 0.75051 0.66486 0.82270
 H1225 H 0.80464 0.70733 0.83338
 H1226 H 0.80892 0.69224 0.87277
 H1227 H 0.78328 0.72917 0.80953
 H1228 H 0.77068 0.74516 0.77332
 H1229 H 0.74733 0.68271 0.75205
 H1230 H 0.76263 0.66657 0.78591
 C1231 C 0.29114 0.15099 0.40011
 C1232 C 0.29284 0.12865 0.40285
 C1233 C 0.28831 0.11893 0.42424
 C1234 C 0.28139 0.13125 0.44324
 C1235 C 0.28152 0.15389 0.44086
 C1236 C 0.28641 0.16363 0.41947
 C1237 C 0.29017 0.16046 0.37656
 C1238 C 0.30357 0.17750 0.36957
 C1239 C 0.30113 0.18698 0.34750
 C1240 C 0.28486 0.17988 0.33238
 C1241 C 0.27142 0.16290 0.33985
 C1242 C 0.27425 0.15316 0.36145
 C1243 C 0.28079 0.19055 0.30947
 C1244 C 0.27129 0.17877 0.29145
 C1245 C 0.26291 0.18916 0.27208
 C1246 C 0.26528 0.21152 0.26894
 C1247 C 0.27659 0.22313 0.28594
 C1248 C 0.28403 0.21281 0.30612
 H1249 H 0.29650 0.11862 0.38806
 H1250 H 0.28877 0.10153 0.42554
 H1251 H 0.27696 0.16433 0.45485
 H1252 H 0.28496 0.18092 0.41763
 H1253 H 0.31586 0.18344 0.38116
 H1254 H 0.31187 0.19989 0.34239
 H1255 H 0.25810 0.15747 0.32940
 H1256 H 0.26339 0.14039 0.36677
 H1257 H 0.26916 0.16151 0.29281
 H1258 H 0.25350 0.17955 0.26031
 H1259 H 0.27845 0.24042 0.28449
 H1260 H 0.29114 0.22255 0.31961
 C1261 C 0.72101 0.33920 0.41914
 C1262 C 0.72779 0.36074 0.41973
 C1263 C 0.73405 0.37009 0.44056
 C1264 C 0.73431 0.35809 0.46142
 C1265 C 0.72674 0.33667 0.46098
 C1266 C 0.72028 0.32733 0.44004
 C1267 C 0.71601 0.32901 0.39651
 C1268 C 0.72279 0.30794 0.39194
 C1269 C 0.72127 0.29959 0.36955
 C1270 C 0.71312 0.31219 0.35128
 C1271 C 0.70511 0.33271 0.35606
 C1272 C 0.70636 0.34098 0.37852
 C1273 C 0.71566 0.30498 0.32705
 C1274 C 0.72594 0.31849 0.31084
 C1275 C 0.73228 0.31054 0.28932
 C1276 C 0.72794 0.28907 0.28323
 C1277 C 0.71661 0.27594 0.29915
 C1278 C 0.71059 0.28381 0.32083
 H1279 H 0.72881 0.37034 0.40397
 H1280 H 0.73892 0.38685 0.44031
 H1281 H 0.72536 0.32702 0.47659
 H1282 H 0.71462 0.31083 0.44024
 H1283 H 0.73050 0.29838 0.40529
 H1284 H 0.72779 0.28380 0.36621
 H1285 H 0.69857 0.34262 0.34225
 H1286 H 0.70047 0.35705 0.38161
 H1287 H 0.73043 0.33477 0.31543
 H1288 H 0.74163 0.32098 0.27808
 H1289 H 0.71349 0.25915 0.29560
 H1290 H 0.70277 0.27308 0.33314
 C1291 C 0.23032 0.83663 0.91383
 C1292 C 0.22588 0.82650 0.93521
 C1293 C 0.23417 0.83480 0.95587
 C1294 C 0.24761 0.85311 0.95557
 C1295 C 0.25157 0.86338 0.93406
 C1296 C 0.24329 0.85511 0.91349
 C1297 C 0.22201 0.82777 0.89176
 C1298 C 0.21489 0.84159 0.87393
 C1299 C 0.21005 0.83351 0.85196
 C1300 C 0.21219 0.81146 0.84744
 C1301 C 0.21791 0.79748 0.86572
 C1302 C 0.22276 0.80556 0.88766
 C1303 C 0.21167 0.80335 0.82330
 C1304 C 0.20337 0.78285 0.81850
 C1305 C 0.20794 0.77289 0.79744
 C1306 C 0.22083 0.78329 0.78065
 C1307 C 0.22733 0.80466 0.78468
 C1308 C 0.22273 0.81460 0.80572
 H1309 H 0.21555 0.81246 0.93601
 H1310 H 0.22944 0.82720 0.97206
 H1311 H 0.26063 0.87824 0.93304
 H1312 H 0.24708 0.86323 0.89726
 H1313 H 0.21370 0.85875 0.87679
 H1314 H 0.20542 0.84459 0.83827
 H1315 H 0.22005 0.78045 0.86269
 H1316 H 0.22834 0.79455 0.90100
 H1317 H 0.19456 0.77393 0.83166
 H1318 H 0.20281 0.75638 0.79532
 H1319 H 0.23749 0.81318 0.77241
 H1320 H 0.22951 0.83037 0.80895
 C1321 C 0.27414 0.83052 0.08415
 C1322 C 0.26824 0.85225 0.08335
 C1323 C 0.26456 0.86262 0.06213
 C1324 C 0.26646 0.85149 0.04094
 C1325 C 0.27270 0.82965 0.04196
 C1326 C 0.27665 0.81939 0.06327
 C1327 C 0.27631 0.81935 0.10686
 C1328 C 0.29407 0.80638 0.11205
 C1329 C 0.29606 0.79665 0.13406
 C1330 C 0.28025 0.79967 0.15110
 C1331 C 0.26217 0.81198 0.14537
 C1332 C 0.26032 0.82181 0.12366
 C1333 C 0.28202 0.79025 0.17488
 C1334 C 0.27432 0.80199 0.19378
 C1335 C 0.27101 0.79209 0.21519
 C1336 C 0.27642 0.77037 0.21900
 C1337 C 0.28633 0.75921 0.20071
 C1338 C 0.28898 0.76903 0.17877
 H1339 H 0.26620 0.86120 0.09928
 H1340 H 0.25920 0.87908 0.06281
 H1341 H 0.27517 0.82037 0.02639
 H1342 H 0.28116 0.80259 0.06345
 H1343 H 0.30659 0.80422 0.09929
 H1344 H 0.31011 0.78719 0.13790
 H1345 H 0.24927 0.81399 0.15770
 H1346 H 0.24622 0.83125 0.11990
 H1347 H 0.26940 0.81856 0.19161
 H1348 H 0.26255 0.80128 0.22807
 H1349 H 0.29047 0.74241 0.20274
 H1350 H 0.29506 0.75955 0.16454
 C1351 C 0.76727 0.34014 0.58954
 C1352 C 0.76877 0.32831 0.56900
 C1353 C 0.76358 0.33776 0.54760
 C1354 C 0.75701 0.35949 0.54611
 C1355 C 0.75626 0.37137 0.56691
 C1356 C 0.76117 0.36178 0.58825
 C1357 C 0.77053 0.32968 0.61246
 C1358 C 0.75517 0.33236 0.62990
 C1359 C 0.75777 0.32273 0.65162
 C1360 C 0.77604 0.31044 0.65672
 C1361 C 0.79133 0.30744 0.63911
 C1362 C 0.78854 0.31692 0.61710
 C1363 C 0.77837 0.30068 0.68029
 C1364 C 0.78602 0.27961 0.68357
 C1365 C 0.78401 0.26929 0.70530
 C1366 C 0.77398 0.27973 0.72399
 C1367 C 0.76780 0.30132 0.72082
 C1368 C 0.77056 0.31177 0.69960
 H1369 H 0.77344 0.31155 0.56956
 H1370 H 0.76532 0.32795 0.53231
 H1371 H 0.75088 0.38783 0.56729
 H1372 H 0.75990 0.37126 0.60392
 H1373 H 0.74090 0.34167 0.62658
 H1374 H 0.74522 0.32473 0.66436
 H1375 H 0.80554 0.29806 0.64245
 H1376 H 0.80058 0.31461 0.60383
 H1377 H 0.79219 0.27059 0.66904
 H1378 H 0.78875 0.25262 0.70685
 H1379 H 0.75929 0.30994 0.73412
 H1380 H 0.76515 0.32824 0.69796
 C1381 C 0.23421 0.15223 0.56466
 C1382 C 0.22802 0.16011 0.54270
 C1383 C 0.23410 0.14950 0.52246
 C1384 C 0.24631 0.13065 0.52372
 C1385 C 0.25145 0.12201 0.54561
 C1386 C 0.24554 0.13274 0.56590
 C1387 C 0.23082 0.16533 0.58587
 C1388 C 0.22629 0.15558 0.60752
 C1389 C 0.22597 0.16787 0.62784
 C1390 C 0.23027 0.19007 0.62687
 C1391 C 0.23356 0.19996 0.60512
 C1392 C 0.23387 0.18775 0.58488
 C1393 C 0.23395 0.20248 0.64843
 C1394 C 0.25215 0.21562 0.65003
 C1395 C 0.25699 0.22623 0.67057
 C1396 C 0.24367 0.22420 0.69024
 C1397 C 0.22500 0.21152 0.68839
 C1398 C 0.22032 0.20056 0.66777
 H1399 H 0.21890 0.17480 0.54114
 H1400 H 0.22957 0.15624 0.50577
 H1401 H 0.26099 0.10758 0.54703
 H1402 H 0.25081 0.12636 0.58248
 H1403 H 0.22359 0.13839 0.60882
 H1404 H 0.22349 0.15983 0.64441
 H1405 H 0.23673 0.21709 0.60386
 H1406 H 0.23764 0.19580 0.56861
 H1407 H 0.26316 0.21711 0.63555
 H1408 H 0.27161 0.23558 0.67101
 H1409 H 0.21449 0.20919 0.70312
 H1410 H 0.20619 0.19044 0.66699
 C1411 C 0.73863 0.66447 0.06286
 C1412 C 0.74608 0.64316 0.06337
 C1413 C 0.75116 0.63257 0.04272
 C1414 C 0.74912 0.64310 0.02114
 C1415 C 0.74072 0.66404 0.02062
 C1416 C 0.73553 0.67457 0.04120
 C1417 C 0.73579 0.67670 0.08477
 C1418 C 0.74278 0.69821 0.08596
 C1419 C 0.74235 0.70924 0.10697
 C1420 C 0.73497 0.69906 0.12736
 C1421 C 0.72698 0.67793 0.12607
 C1422 C 0.72746 0.66681 0.10497
 C1423 C 0.73782 0.70980 0.15008
 C1424 C 0.72160 0.70997 0.16699
 C1425 C 0.72501 0.72002 0.18846
 C1426 C 0.74485 0.72974 0.19356
 C1427 C 0.76099 0.72927 0.17647
 C1428 C 0.75748 0.71958 0.15510
 H1429 H 0.74883 0.63496 0.07977
 H1430 H 0.75740 0.61643 0.04383
 H1431 H 0.73821 0.67239 0.00426
 H1432 H 0.72933 0.69079 0.04015
 H1433 H 0.74951 0.70627 0.07087
 H1434 H 0.74844 0.72559 0.10745
 H1435 H 0.72131 0.66969 0.14157
 H1436 H 0.72171 0.65034 0.10454
 H1437 H 0.70630 0.70242 0.16355
 H1438 H 0.71229 0.71961 0.20112
 H1439 H 0.77666 0.73612 0.17956
 H1440 H 0.77044 0.71930 0.14261
 C1441 C 0.19009 0.56831 0.23379
 C1442 C 0.17504 0.56259 0.21681
 C1443 C 0.16334 0.54349 0.21879
 C1444 C 0.16681 0.52908 0.23745
 C1445 C 0.18256 0.53444 0.25394
 C1446 C 0.19413 0.55376 0.25208
 C1447 C 0.19974 0.59027 0.23364
 C1448 C 0.22106 0.59382 0.24045
 C1449 C 0.22930 0.61481 0.24190
 C1450 C 0.21632 0.63260 0.23675
 C1451 C 0.19527 0.62898 0.22925
 C1452 C 0.18708 0.60812 0.22777
 C1453 C 0.22392 0.65494 0.24076
 C1454 C 0.21050 0.66952 0.25202
 C1455 C 0.21727 0.69048 0.25629
 C1456 C 0.23768 0.69771 0.24934
 C1457 C 0.25118 0.68303 0.23802
 C1458 C 0.24441 0.66184 0.23388
 H1459 H 0.17167 0.57334 0.20238
 H1460 H 0.15084 0.54082 0.20620
 H1461 H 0.18518 0.52419 0.26896
 H1462 H 0.20535 0.55784 0.26569
 H1463 H 0.23126 0.58040 0.24491
 H1464 H 0.24556 0.61715 0.24786
 H1465 H 0.18496 0.64236 0.22494
 H1466 H 0.17051 0.60607 0.22282
 H1467 H 0.19482 0.66454 0.25808
 H1468 H 0.20654 0.70070 0.26582
 H1469 H 0.26708 0.68779 0.23252
 H1470 H 0.25509 0.65091 0.22513
 C1471 C 0.69002 0.07762 0.73156
 C1472 C 0.67329 0.07185 0.71654
 C1473 C 0.66203 0.05256 0.71981
 C1474 C 0.66745 0.03832 0.73804
 C1475 C 0.68480 0.04381 0.75245
 C1476 C 0.69597 0.06313 0.74922
 C1477 C 0.69963 0.09955 0.73052
 C1478 C 0.72147 0.10293 0.73518
 C1479 C 0.72971 0.12383 0.73725
 C1480 C 0.71623 0.14170 0.73486
 C1481 C 0.69469 0.13833 0.72901
 C1482 C 0.68649 0.11752 0.72688
 C1483 C 0.72390 0.16366 0.74056
 C1484 C 0.71132 0.17678 0.75469
 C1485 C 0.71825 0.19729 0.76072
 C1486 C 0.73797 0.20550 0.75271
 C1487 C 0.75068 0.19224 0.73861
 C1488 C 0.74376 0.17149 0.73270
 H1489 H 0.66842 0.08262 0.70265
 H1490 H 0.64856 0.04959 0.70859
 H1491 H 0.68913 0.03352 0.76696
 H1492 H 0.70851 0.06724 0.76140
 H1493 H 0.73204 0.08940 0.73781
 H1494 H 0.74636 0.12599 0.74184
 H1495 H 0.68400 0.15184 0.72680
 H1496 H 0.66957 0.11555 0.72353
 H1497 H 0.69618 0.17100 0.76151
 H1498 H 0.70809 0.20649 0.77203
 H1499 H 0.76598 0.19782 0.73210
 H1500 H 0.75379 0.16165 0.72178
 C1501 C 0.80920 0.09101 0.26648
 C1502 C 0.83123 0.09088 0.26192
 C1503 C 0.84168 0.07170 0.25739
 C1504 C 0.83041 0.05205 0.25667
 C1505 C 0.80849 0.05202 0.26240
 C1506 C 0.79801 0.07134 0.26712
 C1507 C 0.79801 0.11184 0.26892
 C1508 C 0.77804 0.11513 0.25836
 C1509 C 0.76924 0.13572 0.25723
 C1510 C 0.78037 0.15348 0.26635
 C1511 C 0.79969 0.14990 0.27818
 C1512 C 0.80828 0.12930 0.27965
 C1513 C 0.77298 0.17581 0.26190
 C1514 C 0.77689 0.19213 0.27815
 C1515 C 0.77250 0.21354 0.27270
 C1516 C 0.76408 0.21925 0.25082
 C1517 C 0.75857 0.20271 0.23535
 C1518 C 0.76339 0.18133 0.24059
 H1519 H 0.84036 0.10572 0.26099
 H1520 H 0.85866 0.07228 0.25371
 H1521 H 0.79922 0.03734 0.26331
 H1522 H 0.78110 0.07090 0.27113
 H1523 H 0.76973 0.10203 0.24988
 H1524 H 0.75406 0.13780 0.24852
 H1525 H 0.80884 0.16313 0.28529
 H1526 H 0.82344 0.12721 0.28841
 H1527 H 0.78363 0.18841 0.29502
 H1528 H 0.77621 0.22563 0.28554
 H1529 H 0.75121 0.20631 0.21876
 H1530 H 0.76024 0.16927 0.22755
 C1531 C 0.30141 0.58167 0.78491
 C1532 C 0.31711 0.57425 0.80037
 C1533 C 0.32840 0.55545 0.79570
 C1534 C 0.32397 0.54337 0.77561
 C1535 C 0.30763 0.55051 0.76066
 C1536 C 0.29642 0.56931 0.76531
 C1537 C 0.29231 0.60350 0.78730
 C1538 C 0.27094 0.60759 0.78129
 C1539 C 0.26363 0.62872 0.77926
 C1540 C 0.27761 0.64609 0.78315
 C1541 C 0.29849 0.64197 0.79080
 C1542 C 0.30578 0.62089 0.79286
 C1543 C 0.27135 0.66821 0.77655
 C1544 C 0.28536 0.68090 0.76315
 C1545 C 0.27925 0.70113 0.75521
 C1546 C 0.25897 0.70941 0.76058
 C1547 C 0.24501 0.69672 0.77427
 C1548 C 0.25110 0.67629 0.78208
 H1549 H 0.32128 0.58347 0.81562
 H1550 H 0.34125 0.55130 0.80735
 H1551 H 0.30422 0.54208 0.74468
 H1552 H 0.28477 0.57485 0.75274
 H1553 H 0.26016 0.59446 0.77718
 H1554 H 0.24747 0.63148 0.77327
 H1555 H 0.30948 0.65511 0.79417
 H1556 H 0.32237 0.61832 0.79733
 H1557 H 0.30085 0.67483 0.75806
 H1558 H 0.29026 0.70984 0.74410
 H1559 H 0.22923 0.70236 0.77879
 H1560 H 0.23999 0.66676 0.79237
 C1561 C 0.31363 0.42773 0.72909
 C1562 C 0.33160 0.43671 0.71787
 C1563 C 0.33934 0.45702 0.72419
 C1564 C 0.32927 0.46872 0.74183
 C1565 C 0.31108 0.45987 0.75272
 C1566 C 0.30335 0.43966 0.74641
 C1567 C 0.30644 0.40541 0.72419
 C1568 C 0.28455 0.40012 0.72393
 C1569 C 0.27788 0.37865 0.72270
 C1570 C 0.29297 0.36205 0.72177
 C1571 C 0.31480 0.36743 0.72065
 C1572 C 0.32147 0.38888 0.72185
 C1573 C 0.28617 0.33923 0.72411
 C1574 C 0.29735 0.32548 0.73915
 C1575 C 0.29074 0.30425 0.74241
 C1576 C 0.27278 0.29599 0.73067
 C1577 C 0.26155 0.30983 0.71557
 C1578 C 0.26814 0.33125 0.71239
 H1579 H 0.33975 0.42796 0.70432
 H1580 H 0.35320 0.46355 0.71526
 H1581 H 0.30320 0.46819 0.76676
 H1582 H 0.28978 0.43300 0.75576
 H1583 H 0.27259 0.41257 0.72537
 H1584 H 0.26096 0.37498 0.72366
 H1585 H 0.32678 0.35496 0.71958
 H1586 H 0.33843 0.39240 0.72215
 H1587 H 0.31098 0.33129 0.74890
 H1588 H 0.29966 0.29448 0.75458
 H1589 H 0.24765 0.30421 0.70617
 H1590 H 0.25922 0.34153 0.70067
 C1591 C 0.81848 0.93127 0.22911
 C1592 C 0.80677 0.94683 0.24109
 C1593 C 0.81508 0.96748 0.24432
 C1594 C 0.83552 0.97326 0.23582
 C1595 C 0.84707 0.95758 0.22350
 C1596 C 0.83861 0.93697 0.22011
 C1597 C 0.81020 0.90887 0.22725
 C1598 C 0.82412 0.89137 0.22986
 C1599 C 0.81621 0.87034 0.23028
 C1600 C 0.79417 0.86626 0.22830
 C1601 C 0.78030 0.88366 0.22476
 C1602 C 0.78823 0.90476 0.22422
 C1603 C 0.78576 0.84402 0.23129
 C1604 C 0.76901 0.83610 0.21744
 C1605 C 0.76163 0.81490 0.22031
 C1606 C 0.77081 0.80121 0.23712
 C1607 C 0.78732 0.80947 0.25113
 C1608 C 0.79459 0.83052 0.24834
 H1609 H 0.79143 0.94285 0.24878
 H1610 H 0.80567 0.97842 0.25459
 H1611 H 0.86243 0.96106 0.21576
 H1612 H 0.84787 0.92547 0.21034
 H1613 H 0.84107 0.89392 0.23245
 H1614 H 0.82736 0.85724 0.23259
 H1615 H 0.76324 0.88103 0.22324
 H1616 H 0.77713 0.91787 0.22179
 H1617 H 0.76194 0.84613 0.20407
 H1618 H 0.74895 0.80922 0.20910
 H1619 H 0.79506 0.79965 0.26417
 H1620 H 0.80718 0.83624 0.25966
 C1621 C 0.67569 0.91517 0.75576
 C1622 C 0.68567 0.93089 0.74173
 C1623 C 0.67937 0.95235 0.74268
 C1624 C 0.66302 0.95876 0.75786
 C1625 C 0.65359 0.94320 0.77257
 C1626 C 0.65987 0.92162 0.77155
 C1627 C 0.68129 0.89211 0.75300
 C1628 C 0.68330 0.87826 0.77235
 C1629 C 0.68945 0.85679 0.76940
 C1630 C 0.69374 0.84884 0.74708
 C1631 C 0.69107 0.86253 0.72777
 C1632 C 0.68490 0.88385 0.73068
 C1633 C 0.70151 0.82658 0.74358
 C1634 C 0.71819 0.82289 0.72785
 C1635 C 0.72464 0.80202 0.72287
 C1636 C 0.71419 0.78411 0.73304
 C1637 C 0.69861 0.78790 0.75017
 C1638 C 0.69215 0.80892 0.75521
 H1639 H 0.69819 0.92653 0.72967
 H1640 H 0.68680 0.96370 0.73077
 H1641 H 0.64113 0.94759 0.78466
 H1642 H 0.65185 0.90988 0.78256
 H1643 H 0.68068 0.88418 0.78977
 H1644 H 0.69144 0.84658 0.78459
 H1645 H 0.69376 0.85671 0.71031
 H1646 H 0.68290 0.89390 0.71538
 H1647 H 0.72619 0.83623 0.71918
 H1648 H 0.73735 0.80004 0.71033
 H1649 H 0.69122 0.77469 0.75958
 H1650 H 0.67950 0.81133 0.76775
 C1651 C 0.16914 0.40841 0.26327
 C1652 C 0.17927 0.42483 0.27590
 C1653 C 0.17182 0.44603 0.27452
 C1654 C 0.15392 0.45106 0.26079
 C1655 C 0.14328 0.43440 0.24906
 C1656 C 0.15087 0.41335 0.25019
 C1657 C 0.17845 0.38657 0.26211
 C1658 C 0.18161 0.37699 0.24037
 C1659 C 0.19074 0.35664 0.23879
 C1660 C 0.19667 0.34527 0.25894
 C1661 C 0.19326 0.35463 0.28077
 C1662 C 0.18443 0.37527 0.28234
 C1663 C 0.20650 0.32377 0.25669
 C1664 C 0.22343 0.32091 0.24108
 C1665 C 0.23107 0.30037 0.23641
 C1666 C 0.22146 0.28203 0.24666
 C1667 C 0.20576 0.28512 0.26385
 C1668 C 0.19823 0.30581 0.26871
 H1669 H 0.19346 0.42142 0.28602
 H1670 H 0.18027 0.45857 0.28379
 H1671 H 0.12965 0.43772 0.23807
 H1672 H 0.14273 0.40095 0.24039
 H1673 H 0.17732 0.38544 0.22451
 H1674 H 0.19305 0.34967 0.22178
 H1675 H 0.19776 0.34614 0.29652
 H1676 H 0.18208 0.38234 0.29929
 H1677 H 0.23040 0.33460 0.23200
 H1678 H 0.24373 0.29894 0.22371
 H1679 H 0.19883 0.27156 0.27312
 H1680 H 0.18536 0.30768 0.28111
 C1681 C 0.08612 0.24696 0.79872
 C1682 C 0.06825 0.23328 0.79726
 C1683 C 0.05181 0.23446 0.81365
 C1684 C 0.05261 0.24944 0.83194
 C1685 C 0.07054 0.26323 0.83322
 C1686 C 0.08700 0.26200 0.81682
 C1687 C 0.10440 0.24474 0.78235
 C1688 C 0.11578 0.26295 0.77438
 C1689 C 0.13455 0.26066 0.76142
 C1690 C 0.14238 0.24010 0.75621
 C1691 C 0.13028 0.22195 0.76291
 C1692 C 0.11153 0.22423 0.77584
 C1693 C 0.16444 0.23759 0.74709
 C1694 C 0.17812 0.22283 0.75792
 C1695 C 0.19990 0.22297 0.75301
 C1696 C 0.20875 0.23756 0.73682
 C1697 C 0.19473 0.25127 0.72461
 C1698 C 0.17283 0.25141 0.72985
 H1699 H 0.06697 0.22160 0.78346
 H1700 H 0.03837 0.22348 0.81215
 H1701 H 0.07243 0.27478 0.84693
 H1702 H 0.10079 0.27245 0.81876
 H1703 H 0.11050 0.27898 0.77876
 H1704 H 0.14359 0.27496 0.75669
 H1705 H 0.13584 0.20590 0.75899
 H1706 H 0.10324 0.20985 0.78176
 H1707 H 0.17231 0.21224 0.77160
 H1708 H 0.20981 0.21271 0.76343
 H1709 H 0.20079 0.26281 0.71201
 H1710 H 0.16261 0.26288 0.72108
 C1711 C 0.58669 0.74432 0.30957
 C1712 C 0.56788 0.73267 0.30493
 C1713 C 0.55086 0.73266 0.32071
 C1714 C 0.55185 0.74474 0.34133
 C1715 C 0.57107 0.75569 0.34634
 C1716 C 0.58814 0.75558 0.33063
 C1717 C 0.60497 0.74435 0.29291
 C1718 C 0.61764 0.76292 0.28976
 C1719 C 0.63580 0.76254 0.27561
 C1720 C 0.64175 0.74362 0.26406
 C1721 C 0.62851 0.72533 0.26632
 C1722 C 0.61039 0.72567 0.28061
 C1723 C 0.66283 0.74244 0.25202
 C1724 C 0.67551 0.72401 0.25448
 C1725 C 0.69694 0.72433 0.24775
 C1726 C 0.70649 0.74312 0.23861
 C1727 C 0.69309 0.76075 0.23368
 C1728 C 0.67156 0.76043 0.24038
 H1729 H 0.56618 0.72372 0.28896
 H1730 H 0.53674 0.72326 0.31664
 H1731 H 0.57333 0.76407 0.36252
 H1732 H 0.60270 0.76402 0.33524
 H1733 H 0.61372 0.77772 0.29856
 H1734 H 0.64571 0.77687 0.27459
 H1735 H 0.63242 0.71056 0.25747
 H1736 H 0.60110 0.71103 0.28267
 H1737 H 0.66941 0.70975 0.26323
 H1738 H 0.70602 0.71013 0.25120
 H1739 H 0.69954 0.77549 0.22628
 H1740 H 0.66207 0.77472 0.23751
 C1741 C 0.57185 0.26528 0.18428
 C1742 C 0.56729 0.24568 0.17329
 C1743 C 0.54910 0.24338 0.15947
 C1744 C 0.53517 0.26081 0.15579
 C1745 C 0.53885 0.27981 0.16843
 C1746 C 0.55707 0.28211 0.18228
 C1747 C 0.59261 0.26848 0.19640
 C1748 C 0.60408 0.28785 0.19356
 C1749 C 0.62477 0.28999 0.20243
 C1750 C 0.63450 0.27278 0.21429
 C1751 C 0.62265 0.25377 0.21808
 C1752 C 0.60194 0.25166 0.20927
 C1753 C 0.65739 0.27401 0.22109
 C1754 C 0.66462 0.26456 0.24190
 C1755 C 0.68643 0.26411 0.24714
 C1756 C 0.70156 0.27320 0.23179
 C1757 C 0.69418 0.28307 0.21121
 C1758 C 0.67243 0.28351 0.20598
 H1759 H 0.57822 0.23228 0.17462
 H1760 H 0.54634 0.22790 0.15163
 H1761 H 0.52795 0.29322 0.16700
 H1762 H 0.55977 0.29721 0.19112
 H1763 H 0.59746 0.30107 0.18358
 H1764 H 0.63334 0.30496 0.19952
 H1765 H 0.62971 0.24015 0.22700
 H1766 H 0.59342 0.23664 0.21207
 H1767 H 0.65342 0.25725 0.25400
 H1768 H 0.69137 0.25610 0.26296
 H1769 H 0.70524 0.29021 0.19885
 H1770 H 0.66747 0.29062 0.18962
 C1771 C 0.06600 0.75921 0.68092
 C1772 C 0.06026 0.73990 0.66996
 C1773 C 0.04223 0.73887 0.65569
 C1774 C 0.02973 0.75730 0.65154
 C1775 C 0.03443 0.77602 0.66426
 C1776 C 0.05248 0.77706 0.67852
 C1777 C 0.08675 0.76107 0.69333
 C1778 C 0.09957 0.77955 0.69028
 C1779 C 0.12019 0.78040 0.69949
 C1780 C 0.12853 0.76280 0.71192
 C1781 C 0.11538 0.74472 0.71591
 C1782 C 0.09471 0.74386 0.70670
 C1783 C 0.15130 0.76271 0.71917
 C1784 C 0.15757 0.75399 0.74070
 C1785 C 0.17920 0.75301 0.74676
 C1786 C 0.19506 0.76080 0.73146
 C1787 C 0.18866 0.76944 0.70988
 C1788 C 0.16711 0.77051 0.70390
 H1789 H 0.07017 0.72576 0.67163
 H1790 H 0.03844 0.72363 0.64773
 H1791 H 0.02448 0.79014 0.66266
 H1792 H 0.05607 0.79196 0.68738
 H1793 H 0.09402 0.79301 0.67990
 H1794 H 0.12983 0.79468 0.69641
 H1795 H 0.12138 0.73085 0.72531
 H1796 H 0.08513 0.72952 0.70962
 H1797 H 0.14574 0.74784 0.75283
 H1798 H 0.18341 0.74573 0.76323
 H1799 H 0.20029 0.77538 0.69742
 H1800 H 0.16286 0.77691 0.68697
 C1801 C 0.90820 0.74680 0.65425
 C1802 C 0.92422 0.73275 0.66201
 C1803 C 0.94521 0.73508 0.65400
 C1804 C 0.95051 0.75125 0.63774
 C1805 C 0.93442 0.76496 0.62952
 C1806 C 0.91347 0.76291 0.63789
 C1807 C 0.88612 0.74478 0.66345
 C1808 C 0.87540 0.76289 0.67197
 C1809 C 0.85469 0.76092 0.68100
 C1810 C 0.84419 0.74087 0.68126
 C1811 C 0.85486 0.72279 0.67262
 C1812 C 0.87571 0.72468 0.66401
 C1813 C 0.82190 0.73895 0.68984
 C1814 C 0.80632 0.72877 0.67622
 C1815 C 0.78510 0.72768 0.68368
 C1816 C 0.77898 0.73624 0.70529
 C1817 C 0.79475 0.74611 0.71909
 C1818 C 0.81594 0.74761 0.71135
 H1819 H 0.92057 0.72025 0.67467
 H1820 H 0.95734 0.72421 0.66047
 H1821 H 0.93815 0.77764 0.61715
 H1822 H 0.90136 0.77385 0.63154
 H1823 H 0.88315 0.77853 0.67186
 H1824 H 0.84672 0.77512 0.68739
 H1825 H 0.84710 0.70716 0.67268
 H1826 H 0.88362 0.71050 0.65746
 H1827 H 0.81049 0.72210 0.65949
 H1828 H 0.77352 0.71999 0.67245
 H1829 H 0.79072 0.75302 0.73572
 H1830 H 0.82771 0.75546 0.72221
 C1831 C 0.41380 0.24854 0.16167
 C1832 C 0.43036 0.23514 0.16941
 C1833 C 0.45113 0.23789 0.16088
 C1834 C 0.45570 0.25384 0.14411
 C1835 C 0.43907 0.26689 0.13590
 C1836 C 0.41833 0.26444 0.14481
 C1837 C 0.39195 0.24599 0.17140
 C1838 C 0.38093 0.26383 0.18014
 C1839 C 0.36052 0.26130 0.18984
 C1840 C 0.35059 0.24096 0.19054
 C1841 C 0.36156 0.22316 0.18164
 C1842 C 0.38213 0.22561 0.17239
 C1843 C 0.32855 0.23842 0.19972
 C1844 C 0.31290 0.22803 0.18640
 C1845 C 0.29184 0.22649 0.19434
 C1846 C 0.28596 0.23478 0.21616
 C1847 C 0.30184 0.24477 0.22972
 C1848 C 0.32285 0.24675 0.22149
 H1849 H 0.42730 0.22281 0.18244
 H1850 H 0.46365 0.22748 0.16734
 H1851 H 0.44223 0.27935 0.12306
 H1852 H 0.40579 0.27488 0.13847
 H1853 H 0.38823 0.27968 0.17971
 H1854 H 0.35230 0.27529 0.19640
 H1855 H 0.35424 0.20731 0.18200
 H1856 H 0.39028 0.21163 0.16571
 H1857 H 0.31685 0.22161 0.16949
 H1858 H 0.28016 0.21877 0.18325
 H1859 H 0.29800 0.25148 0.24651
 H1860 H 0.33470 0.25476 0.23213
 C1861 C 0.43042 0.74638 0.33022
 C1862 C 0.44649 0.76019 0.32158
 C1863 C 0.46686 0.76032 0.33149
 C1864 C 0.47172 0.74669 0.35037
 C1865 C 0.45560 0.73326 0.35945
 C1866 C 0.43519 0.73304 0.34943
 C1867 C 0.40878 0.74615 0.31937
 C1868 C 0.39039 0.74400 0.33322
 C1869 C 0.37006 0.74458 0.32322
 C1870 C 0.36751 0.74748 0.29908
 C1871 C 0.38588 0.74913 0.28510
 C1872 C 0.40627 0.74849 0.29513
 C1873 C 0.34569 0.74933 0.28891
 C1874 C 0.34025 0.73964 0.26763
 C1875 C 0.31914 0.74028 0.25933
 C1876 C 0.30307 0.75059 0.27214
 C1877 C 0.30890 0.76094 0.29294
 C1878 C 0.32984 0.76048 0.30103
 H1879 H 0.44328 0.77108 0.30723
 H1880 H 0.47885 0.77116 0.32438
 H1881 H 0.45895 0.72240 0.37379
 H1882 H 0.42329 0.72203 0.35641
 H1883 H 0.39164 0.74235 0.35192
 H1884 H 0.35627 0.74281 0.33447
 H1885 H 0.38449 0.75142 0.26649
 H1886 H 0.42010 0.74982 0.28388
 H1887 H 0.35211 0.73091 0.25785
 H1888 H 0.31530 0.73207 0.24332
 H1889 H 0.29718 0.76920 0.30339
 H1890 H 0.33354 0.76867 0.31709
 C1891 C 0.93206 0.25355 0.82818
 C1892 C 0.93658 0.24275 0.84921
 C1893 C 0.95736 0.24242 0.85825
 C1894 C 0.97439 0.25247 0.84623
 C1895 C 0.96965 0.26351 0.82533
 C1896 C 0.94887 0.26416 0.81659
 C1897 C 0.90996 0.25398 0.81843
 C1898 C 0.90649 0.25426 0.79422
 C1899 C 0.88578 0.25550 0.78511
 C1900 C 0.86796 0.25623 0.79996
 C1901 C 0.87143 0.25534 0.82414
 C1902 C 0.89210 0.25445 0.83323
 C1903 C 0.84582 0.25808 0.79054
 C1904 C 0.83037 0.26968 0.80283
 C1905 C 0.80918 0.26992 0.79555
 C1906 C 0.80273 0.25918 0.77522
 C1907 C 0.81836 0.24846 0.76218
 C1908 C 0.83965 0.24782 0.76981
 H1909 H 0.92415 0.23403 0.85848
 H1910 H 0.96003 0.23318 0.87398
 H1911 H 0.98182 0.27239 0.81587
 H1912 H 0.94598 0.27331 0.80083
 H1913 H 0.91977 0.25347 0.78221
 H1914 H 0.88381 0.25625 0.76643
 H1915 H 0.85814 0.25530 0.83619
 H1916 H 0.89402 0.25449 0.85192
 H1917 H 0.83455 0.27837 0.81843
 H1918 H 0.79775 0.27829 0.80628
 H1919 H 0.81405 0.23984 0.74657
 H1920 H 0.85106 0.23861 0.75992
 C1921 C 0.58133 0.96298 0.68779
 C1922 C 0.58050 0.98536 0.69091
 C1923 C 0.59433 0.99550 0.70643
 C1924 C 0.60898 0.98339 0.71943
 C1925 C 0.60927 0.96091 0.71706
 C1926 C 0.59572 0.95079 0.70112
 C1927 C 0.56863 0.95303 0.66899
 C1928 C 0.54693 0.95809 0.66632
 C1929 C 0.53613 0.95274 0.64590
 C1930 C 0.54697 0.94257 0.62767
 C1931 C 0.56817 0.93597 0.63112
 C1932 C 0.57887 0.94100 0.65173
 C1933 C 0.53777 0.94327 0.60400
 C1934 C 0.54933 0.95380 0.58637
 C1935 C 0.53927 0.96013 0.56590
 C1936 C 0.51751 0.95542 0.56203
 C1937 C 0.50647 0.94310 0.57891
 C1938 C 0.51644 0.93732 0.59984
 H1939 H 0.56977 0.99514 0.68057
 H1940 H 0.59381 1.01284 0.70809
 H1941 H 0.62058 0.95130 0.72682
 H1942 H 0.59669 0.93353 0.69890
 H1943 H 0.53871 0.96728 0.67947
 H1944 H 0.51987 0.95823 0.64356
 H1945 H 0.57686 0.92819 0.61726
 H1946 H 0.59563 0.93701 0.65336
 H1947 H 0.56565 0.95900 0.58932
 H1948 H 0.54826 0.97028 0.55403
 H1949 H 0.48966 0.93939 0.57686
 H1950 H 0.50718 0.92930 0.61330
 C1951 C 0.08959 0.45464 1.17182
 C1952 C 0.07899 0.46196 1.19188
 C1953 C 0.09042 0.47165 1.20994
 C1954 C 0.11254 0.47464 1.20806
 C1955 C 0.12331 0.46663 1.18859
 C1956 C 0.11200 0.45654 1.17078
 C1957 C 0.07719 0.44697 1.15131
 C1958 C 0.05738 0.43638 1.15412
 C1959 C 0.04410 0.43274 1.13496
 C1960 C 0.05052 0.43927 1.11258
 C1961 C 0.07100 0.44815 1.10949
 C1962 C 0.08412 0.45210 1.12863
 C1963 C 0.03483 0.44097 1.09342
 C1964 C 0.01560 0.45177 1.09742
 C1965 C 0.00361 0.45958 1.07882
 C1966 C 0.01055 0.45675 1.05574
 C1967 C 0.02792 0.44294 1.05184
 C1968 C 0.04032 0.43560 1.07051
 H1969 H 0.06177 0.46112 1.19326
 H1970 H 0.08187 0.47765 1.22491
 H1971 H 0.14050 0.46830 1.18712
 H1972 H 0.12081 0.45058 1.15599
 H1973 H 0.05173 0.43166 1.17122
 H1974 H 0.02839 0.42579 1.13776
 H1975 H 0.07620 0.45368 1.09248
 H1976 H 0.09906 0.46054 1.12566
 H1977 H 0.01085 0.45599 1.11490
 H1978 H -0.01025 0.46919 1.08283
 H1979 H 0.03294 0.43910 1.03439
 H1980 H 0.05485 0.42682 1.06701
 C1981 C -0.08697 0.02470 1.16497
 C1982 C -0.09109 0.04227 1.17945
 C1983 C -0.10551 0.04026 1.19783
 C1984 C -0.11614 0.02064 1.20220
 C1985 C -0.11192 0.00298 1.18796
 C1986 C -0.09755 0.00501 1.16942
 C1987 C -0.07131 0.02681 1.14568
 C1988 C -0.05735 0.00987 1.14083
 C1989 C -0.04249 0.01174 1.12288
 C1990 C -0.04101 0.03070 1.10941
 C1991 C -0.05496 0.04772 1.11421
 C1992 C -0.06997 0.04579 1.13218
 C1993 C -0.02558 0.03184 1.08981
 C1994 C -0.03129 0.04079 1.06816
 C1995 C -0.01870 0.03702 1.04847
 C1996 C -0.00092 0.02337 1.04994
 C1997 C 0.00638 0.01735 1.07221
 C1998 C -0.00576 0.02161 1.09187
 H1999 H -0.08287 0.05748 1.17684
 H2000 H -0.10810 0.05404 1.20888
 H2001 H -0.12004 -0.01223 1.19085
 H2002 H -0.09492 -0.00876 1.15840
 H2003 H -0.05776 -0.00484 1.15105
 H2004 H -0.03238 -0.00192 1.11931
 H2005 H -0.05423 0.06251 1.10416
 H2006 H -0.08069 0.05907 1.13534
 H2007 H -0.04624 0.04924 1.06604
 H2008 H -0.02414 0.04307 1.03187
 H2009 H 0.02076 0.00801 1.07457
 H2010 H -0.00029 0.01559 1.10855
 C2011 C 0.40730 0.52797 0.68061
 C2012 C 0.41220 0.51200 0.69721
 C2013 C 0.39866 0.50819 0.71621
 C2014 C 0.37997 0.52029 0.71909
 C2015 C 0.37519 0.53632 0.70247
 C2016 C 0.38873 0.54019 0.68361
 C2017 C 0.42069 0.53095 0.65946
 C2018 C 0.41091 0.53427 0.63775
 C2019 C 0.42310 0.53497 0.61746
 C2020 C 0.44535 0.53229 0.61836
 C2021 C 0.45533 0.53016 0.64010
 C2022 C 0.44310 0.52943 0.66049
 C2023 C 0.45742 0.52863 0.59662
 C2024 C 0.47736 0.53842 0.59226
 C2025 C 0.48899 0.53331 0.57218
 C2026 C 0.48100 0.51805 0.55640
 C2027 C 0.46095 0.50848 0.56098
 C2028 C 0.44928 0.51387 0.58059
 H2029 H 0.42622 0.50207 0.69520
 H2030 H 0.40296 0.49582 0.72860
 H2031 H 0.36073 0.54570 0.70368
 H2032 H 0.38455 0.55270 0.67125
 H2033 H 0.39371 0.53530 0.63626
 H2034 H 0.41504 0.53673 0.60090
 H2035 H 0.47245 0.52789 0.64122
 H2036 H 0.45110 0.52719 0.67701
 H2037 H 0.48398 0.54983 0.60448
 H2038 H 0.50445 0.54081 0.56941
 H2039 H 0.45422 0.49642 0.54962
 H2040 H 0.43417 0.50575 0.58370
 C2041 C 0.40960 0.46762 -0.17609
 C2042 C 0.38852 0.47192 -0.16910
 C2043 C 0.37401 0.48110 -0.18456
 C2044 C 0.38020 0.48637 -0.20737
 C2045 C 0.40077 0.48085 -0.21491
 C2046 C 0.41539 0.47161 -0.19939
 C2047 C 0.42580 0.46178 -0.15825
 C2048 C 0.44604 0.47180 -0.15848
 C2049 C 0.45905 0.47117 -0.13874
 C2050 C 0.45194 0.46067 -0.11848
 C2051 C 0.43281 0.44883 -0.11898
 C2052 C 0.41997 0.44915 -0.13881
 C2053 C 0.46163 0.46624 -0.09597
 C2054 C 0.48320 0.46227 -0.09110
 C2055 C 0.49245 0.47017 -0.07065
 C2056 C 0.48036 0.48251 -0.05499
 C2057 C 0.45883 0.48664 -0.06042
 C2058 C 0.44949 0.47820 -0.08030
 H2059 H 0.38349 0.46938 -0.15128
 H2060 H 0.35808 0.48469 -0.17839
 H2061 H 0.40594 0.48467 -0.23240
 H2062 H 0.43142 0.46827 -0.20539
 H2063 H 0.45102 0.48177 -0.17305
 H2064 H 0.47367 0.48060 -0.13856
 H2065 H 0.42710 0.44063 -0.10347
 H2066 H 0.40475 0.44077 -0.13831
 H2067 H 0.49293 0.45349 -0.10333
 H2068 H 0.50927 0.46734 -0.06768
 H2069 H 0.44918 0.49703 -0.04975
 H2070 H 0.43299 0.48203 -0.08414
 C2071 C -0.08213 0.99187 0.31398
 C2072 C -0.09668 0.97640 0.30562
 C2073 C -0.11064 0.98158 0.28737
 C2074 C -0.11029 1.00230 0.27753
 C2075 C -0.09470 1.01712 0.28460
 C2076 C -0.08059 1.01188 0.30245
 C2077 C -0.07080 0.98859 0.33641
 C2078 C -0.07007 1.00557 0.35237
 C2079 C -0.06077 1.00279 0.37410
 C2080 C -0.05205 0.98290 0.38069
 C2081 C -0.05224 0.96592 0.36469
 C2082 C -0.06174 0.96869 0.34274
 C2083 C -0.04307 0.98056 0.40441
 C2084 C -0.02236 0.97266 0.40814
 C2085 C -0.01235 0.97541 0.42976
 C2086 C -0.02289 0.98613 0.44795
 C2087 C -0.04423 0.99243 0.44442
 C2088 C -0.05425 0.98933 0.42316
 H2089 H -0.09829 0.96090 0.31418
 H2090 H -0.12265 0.96999 0.28208
 H2091 H -0.09410 1.03312 0.27696
 H2092 H -0.06918 1.02393 0.30807
 H2093 H -0.07723 1.02097 0.34832
 H2094 H -0.06051 1.01629 0.38589
 H2095 H -0.04552 0.95046 0.36936
 H2096 H -0.06204 0.95534 0.33076
 H2097 H -0.01337 0.96589 0.39390
 H2098 H 0.00418 0.97065 0.43156
 H2099 H -0.05289 1.00135 0.45739
 H2100 H -0.07035 0.99529 0.42085
 C2101 C 0.07585 0.50914 0.32255
 C2102 C 0.08330 0.52698 0.30965
 C2103 C 0.09671 0.52424 0.29047
 C2104 C 0.10359 0.50361 0.28391
 C2105 C 0.09541 0.48571 0.29616
 C2106 C 0.08154 0.48842 0.31499
 C2107 C 0.06360 0.51215 0.34464
 C2108 C 0.06604 0.49749 0.36318
 C2109 C 0.05588 0.50080 0.38442
 C2110 C 0.04340 0.51922 0.38818
 C2111 C 0.04045 0.53368 0.36955
 C2112 C 0.05031 0.53012 0.34801
 C2113 C 0.03391 0.52308 0.41163
 C2114 C 0.01367 0.53254 0.41442
 C2115 C 0.00413 0.53369 0.43651
 C2116 C 0.01452 0.52520 0.45623
 C2117 C 0.03509 0.51657 0.45332
 C2118 C 0.04481 0.51606 0.43159
 H2119 H 0.07949 0.54322 0.31481
 H2120 H 0.10200 0.53848 0.28111
 H2121 H 0.10025 0.46954 0.29191
 H2122 H 0.07566 0.47417 0.32390
 H2123 H 0.07632 0.48364 0.36166
 H2124 H 0.05801 0.48884 0.39799
 H2125 H 0.03093 0.54801 0.37171
 H2126 H 0.04760 0.54159 0.33408
 H2127 H 0.00472 0.53808 0.39946
 H2128 H -0.01185 0.54012 0.43787
 H2129 H 0.04354 0.50915 0.46764
 H2130 H 0.06069 0.50936 0.43041
 C2131 C 0.59154 0.01276 -0.16366
 C2132 C 0.59041 0.02817 -0.18165
 C2133 C 0.60229 0.02570 -0.20199
 C2134 C 0.61527 0.00759 -0.20501
 C2135 C 0.61580 -0.00829 -0.18763
 C2136 C 0.60423 -0.00564 -0.16703
 C2137 C 0.58007 0.01617 -0.14125
 C2138 C 0.57200 -0.00147 -0.12843
 C2139 C 0.56246 0.00158 -0.10679
 C2140 C 0.56037 0.02232 -0.09766
 C2141 C 0.56766 0.04007 -0.11060
 C2142 C 0.57762 0.03702 -0.13212
 C2143 C 0.55143 0.02496 -0.07414
 C2144 C 0.56151 0.01491 -0.05532
 C2145 C 0.55170 0.01419 -0.03362
 C2146 C 0.53135 0.02329 -0.03022
 C2147 C 0.52193 0.03462 -0.04884
 C2148 C 0.53198 0.03555 -0.07063
 H2149 H 0.58041 0.04223 -0.18003
 H2150 H 0.60143 0.03802 -0.21539
 H2151 H 0.62586 -0.02228 -0.18956
 H2152 H 0.60582 -0.01771 -0.15348
 H2153 H 0.57308 -0.01767 -0.13507
 H2154 H 0.55672 -0.01230 -0.09705
 H2155 H 0.56628 0.05618 -0.10371
 H2156 H 0.58393 0.05098 -0.14123
 H2157 H 0.57662 0.00679 -0.05771
 H2158 H 0.55960 0.00527 -0.01990
 H2159 H 0.50624 0.04162 -0.04708
 H2160 H 0.52398 0.04338 -0.08506
 C2161 C 0.67845 0.57472 -0.03050
 C2162 C 0.69430 0.56736 -0.01507
 C2163 C 0.71432 0.57757 -0.01413
 C2164 C 0.71885 0.59548 -0.02844
 C2165 C 0.70299 0.60264 -0.04397
 C2166 C 0.68327 0.59224 -0.04520
 C2167 C 0.65662 0.56503 -0.03068
 C2168 C 0.63875 0.57823 -0.03429
 C2169 C 0.61818 0.56960 -0.03409
 C2170 C 0.61475 0.54757 -0.02974
 C2171 C 0.63255 0.53418 -0.02652
 C2172 C 0.65330 0.54283 -0.02701
 C2173 C 0.59257 0.53917 -0.02722
 C2174 C 0.58644 0.51891 -0.03579
 C2175 C 0.56534 0.51147 -0.03312
 C2176 C 0.54998 0.52416 -0.02183
 C2177 C 0.55636 0.54441 -0.01341
 C2178 C 0.57726 0.55169 -0.01590
 H2179 H 0.69110 0.55401 -0.00334
 H2180 H 0.72619 0.57135 -0.00223
 H2181 H 0.70552 0.61660 -0.05499
 H2182 H 0.67169 0.59813 -0.05766
 H2183 H 0.64054 0.59543 -0.03678
 H2184 H 0.60486 0.58032 -0.03707
 H2185 H 0.63044 0.51716 -0.02299
 H2186 H 0.66671 0.53214 -0.02448
 H2187 H 0.59787 0.50891 -0.04472
 H2188 H 0.56115 0.49578 -0.03983
 H2189 H 0.54535 0.55470 -0.00434
 H2190 H 0.58149 0.56712 -0.00851
 C2191 C 0.18315 1.06160 0.46953
 C2192 C 0.19783 1.05479 0.48656
 C2193 C 0.21819 1.06431 0.48796
 C2194 C 0.22422 1.08093 0.47248
 C2195 C 0.20964 1.08712 0.45505
 C2196 C 0.18961 1.07742 0.45343
 C2197 C 0.16068 1.05357 0.46931
 C2198 C 0.14399 1.06792 0.46426
 C2199 C 0.12280 1.06098 0.46449
 C2200 C 0.11758 1.03956 0.47012
 C2201 C 0.13419 1.02500 0.47477
 C2202 C 0.15556 1.03196 0.47441
 C2203 C 0.09479 1.03311 0.47256
 C2204 C 0.08711 1.01323 0.46445
 C2205 C 0.06551 1.00754 0.46722
 C2206 C 0.05119 1.02159 0.47824
 C2207 C 0.05911 1.04147 0.48619
 C2208 C 0.08049 1.04710 0.48343
 H2209 H 0.19334 1.04266 0.49929
 H2210 H 0.22902 1.05880 0.50136
 H2211 H 0.21315 1.10010 0.44300
 H2212 H 0.17893 1.08275 0.43978
 H2213 H 0.14723 1.08476 0.46065
 H2214 H 0.11041 1.07253 0.46052
 H2215 H 0.13063 1.00842 0.47932
 H2216 H 0.16805 1.02046 0.47815
 H2217 H 0.09778 1.00214 0.45590
 H2218 H 0.06017 0.99202 0.46101
 H2219 H 0.04903 1.05260 0.49537
 H2220 H 0.08595 1.06230 0.49042
 C2221 C 0.19423 -0.06387 1.02556
 C2222 C 0.20245 -0.07879 1.04173
 C2223 C 0.21929 -0.09235 1.03553
 C2224 C 0.22781 -0.09133 1.01301
 C2225 C 0.22061 -0.07549 0.99744
 C2226 C 0.20406 -0.06179 1.00369
 C2227 C 0.17362 -0.05292 1.02975
 C2228 C 0.17043 -0.03157 1.02225
 C2229 C 0.14986 -0.02290 1.02161
 C2230 C 0.13216 -0.03553 1.02822
 C2231 C 0.13552 -0.05632 1.03717
 C2232 C 0.15606 -0.06491 1.03802
 C2233 C 0.11018 -0.02805 1.02356
 C2234 C 0.09589 -0.04157 1.01179
 C2235 C 0.07521 -0.03482 1.00687
 C2236 C 0.06804 -0.01446 1.01392
 C2237 C 0.08257 -0.00075 1.02538
 C2238 C 0.10348 -0.00744 1.03001
 H2239 H 0.19520 -0.08063 1.05873
 H2240 H 0.22461 -0.10456 1.04771
 H2241 H 0.22710 -0.07444 0.98000
 H2242 H 0.19794 -0.05065 0.99078
 H2243 H 0.18372 -0.02196 1.01588
 H2244 H 0.14764 -0.00683 1.01462
 H2245 H 0.12211 -0.06627 1.04258
 H2246 H 0.15797 -0.08146 1.04364
 H2247 H 0.10086 -0.05734 1.00605
 H2248 H 0.06492 -0.04570 0.99744
 H2249 H 0.07783 0.01511 1.03096
 H2250 H 0.11430 0.00333 1.03897
 C2251 C 0.68327 0.44207 0.53467
 C2252 C 0.69356 0.42801 0.55027
 C2253 C 0.70980 0.41444 0.54247
 C2254 C 0.71564 0.41452 0.51894
 C2255 C 0.70626 0.42942 0.50368
 C2256 C 0.69033 0.44317 0.51150
 C2257 C 0.66318 0.45297 0.54117
 C2258 C 0.65894 0.47403 0.53336
 C2259 C 0.63822 0.48226 0.53448
 C2260 C 0.62145 0.46943 0.54316
 C2261 C 0.62600 0.44910 0.55265
 C2262 C 0.64672 0.44099 0.55181
 C2263 C 0.59907 0.47549 0.53871
 C2264 C 0.58617 0.46158 0.52574
 C2265 C 0.56539 0.46727 0.51996
 C2266 C 0.55663 0.48683 0.52749
 C2267 C 0.56969 0.50084 0.54052
 C2268 C 0.59082 0.49530 0.54586
 H2269 H 0.68840 0.42687 0.56821
 H2270 H 0.71678 0.40296 0.55446
 H2271 H 0.71069 0.42980 0.48546
 H2272 H 0.68251 0.45363 0.49902
 H2273 H 0.67140 0.48360 0.52517
 H2274 H 0.63498 0.49794 0.52695
 H2275 H 0.61324 0.43897 0.55941
 H2276 H 0.64946 0.42465 0.55775
 H2277 H 0.59243 0.44648 0.51946
 H2278 H 0.55648 0.45639 0.50904
 H2279 H 0.56374 0.51617 0.54642
 H2280 H 0.60068 0.50638 0.55565
 C2281 C -0.17985 0.43860 0.49442
 C2282 C -0.20013 0.44593 0.50132
 C2283 C -0.21727 0.43153 0.50368
 C2284 C -0.21453 0.40970 0.49866
 C2285 C -0.19440 0.40226 0.49200
 C2286 C -0.17717 0.41648 0.49020
 C2287 C -0.16144 0.45372 0.49189
 C2288 C -0.14537 0.44987 0.47535
 C2289 C -0.12689 0.46250 0.47468
 C2290 C -0.12417 0.47973 0.49012
 C2291 C -0.14094 0.48457 0.50550
 C2292 C -0.15922 0.47157 0.50658
 C2293 C -0.10314 0.49095 0.49177
 C2294 C -0.09547 0.49784 0.51344
 C2295 C -0.07451 0.50509 0.51584
 C2296 C -0.06022 0.50457 0.49702
 C2297 C -0.06853 0.50003 0.47484
 C2298 C -0.08971 0.49319 0.47227
 H2299 H -0.20294 0.46283 0.50444
 H2300 H -0.23283 0.43754 0.50860
 H2301 H -0.19202 0.38537 0.48826
 H2302 H -0.16171 0.41005 0.48562
 H2303 H -0.14679 0.43672 0.46320
 H2304 H -0.11435 0.45805 0.46271
 H2305 H -0.13975 0.49805 0.51723
 H2306 H -0.17118 0.47510 0.51957
 H2307 H -0.10527 0.49677 0.52891
 H2308 H -0.06969 0.51068 0.53269
 H2309 H -0.05842 0.50071 0.45957
 H2310 H -0.09531 0.48902 0.45508
 C2311 C 0.33654 -0.07339 -0.00213
 C2312 C 0.31683 -0.06402 -0.00799
 C2313 C 0.29811 -0.07638 -0.00784
 C2314 C 0.29887 -0.09824 -0.00190
 C2315 C 0.31829 -0.10762 0.00441
 C2316 C 0.33699 -0.09527 0.00441
 C2317 C 0.35662 -0.06057 -0.00320
 C2318 C 0.37561 -0.06993 -0.01119
 C2319 C 0.39468 -0.05818 -0.01151
 C2320 C 0.39518 -0.03669 -0.00409
 C2321 C 0.37606 -0.02713 0.00331
 C2322 C 0.35701 -0.03896 0.00383
 C2323 C 0.41582 -0.02486 -0.00272
 C2324 C 0.42011 -0.01132 0.01617
 C2325 C 0.44033 -0.00220 0.01902
 C2326 C 0.45695 -0.00682 0.00343
 C2327 C 0.45222 -0.01907 -0.01641
 C2328 C 0.43190 -0.02804 -0.01940
 H2329 H 0.31595 -0.04730 -0.01334
 H2330 H 0.28314 -0.06906 -0.01290
 H2331 H 0.31899 -0.12455 0.00900
 H2332 H 0.35182 -0.10288 0.00946
 H2333 H 0.37579 -0.08641 -0.01716
 H2334 H 0.40915 -0.06616 -0.01698
 H2335 H 0.37584 -0.01053 0.00888
 H2336 H 0.34270 -0.03131 0.01024
 H2337 H 0.40814 -0.00847 0.02936
 H2338 H 0.44299 0.00793 0.03390
 H2339 H 0.46443 -0.02261 -0.02913
 H2340 H 0.42894 -0.03790 -0.03450
 C2341 C 0.32358 1.05244 0.53211
 C2342 C 0.32818 1.07432 0.52803
 C2343 C 0.31362 1.08743 0.51647
 C2344 C 0.29403 1.07907 0.50879
 C2345 C 0.28872 1.05757 0.51394
 C2346 C 0.30351 1.04425 0.52533
 C2347 C 0.34079 1.03821 0.54101
 C2348 C 0.34523 1.01863 0.52992
 C2349 C 0.36464 1.00812 0.53391
 C2350 C 0.37986 1.01709 0.54897
 C2351 C 0.37452 1.03543 0.56175
 C2352 C 0.35510 1.04579 0.55795
 C2353 C 0.40241 1.01029 0.54764
 C2354 C 0.40858 0.98885 0.55124
 C2355 C 0.42988 0.98273 0.54761
 C2356 C 0.44523 0.99785 0.53974
 C2357 C 0.43866 1.01925 0.53614
 C2358 C 0.41772 1.02542 0.54040
 H2359 H 0.34357 1.08110 0.53265
 H2360 H 0.31795 1.10405 0.51291
 H2361 H 0.27364 1.05086 0.50817
 H2362 H 0.29951 1.02748 0.52832
 H2363 H 0.33460 1.01245 0.51668
 H2364 H 0.36854 0.99410 0.52371
 H2365 H 0.38604 1.04256 0.57351
 H2366 H 0.35193 1.06060 0.56711
 H2367 H 0.39689 0.97685 0.55652
 H2368 H 0.43409 0.96601 0.55019
 H2369 H 0.44924 1.03122 0.52873
 H2370 H 0.41318 1.04192 0.53680
 C2371 C -0.18144 0.55420 1.01550
 C2372 C -0.18630 0.55419 0.99165
 C2373 C -0.20107 0.56868 0.98252
 C2374 C -0.21144 0.58338 0.99702
 C2375 C -0.20785 0.58238 1.02106
 C2376 C -0.19286 0.56798 1.03024
 C2377 C -0.16253 0.54218 1.02400
 C2378 C -0.14742 0.55258 1.03814
 C2379 C -0.12737 0.54347 1.04191
 C2380 C -0.12204 0.52376 1.03170
 C2381 C -0.13773 0.51248 1.01922
 C2382 C -0.15779 0.52164 1.01534
 C2383 C -0.09949 0.51663 1.03124
 C2384 C -0.09393 0.49502 1.03498
 C2385 C -0.07268 0.48842 1.03245
 C2386 C -0.05661 0.50324 1.02580
 C2387 C -0.06244 0.52486 1.02218
 C2388 C -0.08348 0.53146 1.02505
 H2389 H -0.17763 0.54400 0.97977
 H2390 H -0.20372 0.56906 0.96391
 H2391 H -0.21553 0.59362 1.03255
 H2392 H -0.18953 0.56824 1.04871
 H2393 H -0.15049 0.56848 1.04491
 H2394 H -0.11560 0.55239 1.05180
 H2395 H -0.13400 0.49729 1.01109
 H2396 H -0.16921 0.51317 1.00458
 H2397 H -0.10604 0.48324 1.03965
 H2398 H -0.06900 0.47160 1.03523
 H2399 H -0.05103 0.53671 1.01608
 H2400 H -0.08739 0.54811 1.02138
 C2401 C -0.00347 0.69355 0.54546
 C2402 C 0.01346 0.70840 0.54765
 C2403 C 0.01290 0.72424 0.56470
 C2404 C -0.00480 0.72590 0.57953
 C2405 C -0.02248 0.71237 0.57620
 C2406 C -0.02177 0.69617 0.55945
 C2407 C -0.00097 0.67400 0.53087
 C2408 C -0.01869 0.66417 0.52014
 C2409 C -0.01683 0.64380 0.51012
 C2410 C 0.00278 0.63291 0.51057
 C2411 C 0.02083 0.64350 0.51952
 C2412 C 0.01896 0.66371 0.52966
 C2413 C 0.00376 0.60960 0.50525
 C2414 C 0.01443 0.59580 0.52071
 C2415 C 0.01294 0.57361 0.51834
 C2416 C 0.00096 0.56442 0.50021
 C2417 C -0.00876 0.57823 0.48389
 C2418 C -0.00750 0.60063 0.48649
 H2419 H 0.02752 0.70730 0.53676
 H2420 H 0.02656 0.73485 0.56677
 H2421 H -0.03627 0.71346 0.58753
 H2422 H -0.03502 0.68495 0.55849
 H2423 H -0.03418 0.67181 0.52032
 H2424 H -0.03105 0.63601 0.50341
 H2425 H 0.03621 0.63562 0.51982
 H2426 H 0.03296 0.67056 0.53788
 H2427 H 0.02292 0.60212 0.53559
 H2428 H 0.02053 0.56368 0.53145
 H2429 H -0.01818 0.57180 0.46975
 H2430 H -0.01580 0.61093 0.47424
 C2431 C 0.49537 0.18873 0.05829
 C2432 C 0.51447 0.20060 0.06003
 C2433 C 0.51571 0.21842 0.07460
 C2434 C 0.49785 0.22484 0.08757
 C2435 C 0.47834 0.21400 0.08457
 C2436 C 0.47714 0.19598 0.07016
 C2437 C 0.49545 0.16744 0.04681
 C2438 C 0.48686 0.14949 0.05858
 C2439 C 0.48988 0.12881 0.05000
 C2440 C 0.50131 0.12564 0.02934
 C2441 C 0.50891 0.14355 0.01677
 C2442 C 0.50616 0.16433 0.02556
 C2443 C 0.50661 0.10351 0.02239
 C2444 C 0.49858 0.09459 0.00183
 C2445 C 0.50065 0.07248 -0.00230
 C2446 C 0.51100 0.05906 0.01399
 C2447 C 0.52039 0.06860 0.03366
 C2448 C 0.51813 0.09050 0.03783
 H2449 H 0.52881 0.19531 0.05127
 H2450 H 0.53087 0.22674 0.07639
 H2451 H 0.46437 0.21866 0.09442
 H2452 H 0.46219 0.18718 0.06899
 H2453 H 0.47882 0.15132 0.07512
 H2454 H 0.48387 0.11515 0.05990
 H2455 H 0.51779 0.14137 0.00080
 H2456 H 0.51289 0.17792 0.01612
 H2457 H 0.48962 0.10445 -0.01028
 H2458 H 0.49303 0.06579 -0.01751
 H2459 H 0.52856 0.05900 0.04663
 H2460 H 0.52460 0.09716 0.05371
 C2461 C 0.00973 0.17010 0.92178
 C2462 C 0.01602 0.16827 0.89843
 C2463 C 0.01721 0.18640 0.88399
 C2464 C 0.01217 0.20690 0.89249
 C2465 C 0.00495 0.20868 0.91555
 C2466 C 0.00373 0.19044 0.93007
 C2467 C 0.01030 0.15087 0.93740
 C2468 C -0.00627 0.14644 0.95330
 C2469 C -0.00592 0.12768 0.96706
 C2470 C 0.01113 0.11310 0.96537
 C2471 C 0.02791 0.11789 0.94986
 C2472 C 0.02749 0.13649 0.93610
 C2473 C 0.01113 0.09235 0.97857
 C2474 C 0.03024 0.08398 0.98756
 C2475 C 0.03096 0.06307 0.99666
 C2476 C 0.01261 0.04978 0.99698
 C2477 C -0.00683 0.05891 0.98970
 C2478 C -0.00757 0.07986 0.98058
 H2479 H 0.02021 0.15276 0.89133
 H2480 H 0.02231 0.18437 0.86615
 H2481 H 0.00112 0.22426 0.92268
 H2482 H -0.00113 0.19237 0.94800
 H2483 H -0.01976 0.15720 0.95467
 H2484 H -0.01902 0.12453 0.97893
 H2485 H 0.04113 0.10690 0.94783
 H2486 H 0.04067 0.13958 0.92429
 H2487 H 0.04486 0.09338 0.98685
 H2488 H 0.04628 0.05702 1.00239
 H2489 H -0.02149 0.04992 0.99025
 H2490 H -0.02262 0.08583 0.97397
 C2491 C 0.50637 0.66980 0.43565
 C2492 C 0.51718 0.66686 0.41456
 C2493 C 0.51897 0.68370 0.39841
 C2494 C 0.51040 0.70412 0.40315
 C2495 C 0.49938 0.70694 0.42427
 C2496 C 0.49719 0.68988 0.44023
 C2497 C 0.50461 0.65171 0.45254
 C2498 C 0.48453 0.64463 0.46051
 C2499 C 0.48275 0.62589 0.47410
 C2500 C 0.50106 0.61421 0.48039
 C2501 C 0.52122 0.62199 0.47348
 C2502 C 0.52296 0.64045 0.45950
 C2503 C 0.49909 0.59255 0.49125
 C2504 C 0.48637 0.57695 0.48046
 C2505 C 0.48698 0.55555 0.48786
 C2506 C 0.49973 0.54917 0.50689
 C2507 C 0.51164 0.56512 0.51849
 C2508 C 0.51151 0.58656 0.51056
 H2509 H 0.52404 0.65139 0.41045
 H2510 H 0.52706 0.68057 0.38217
 H2511 H 0.49288 0.72242 0.42887
 H2512 H 0.48880 0.69251 0.45643
 H2513 H 0.47017 0.65301 0.45527
 H2514 H 0.46703 0.62012 0.47912
 H2515 H 0.53553 0.61312 0.47784
 H2516 H 0.53862 0.64567 0.45362
 H2517 H 0.47698 0.58105 0.46526
 H2518 H 0.47814 0.54386 0.47781
 H2519 H 0.52195 0.56091 0.53290
 H2520 H 0.52157 0.59834 0.51908
 C2521 C 0.50726 0.81089 0.44223
 C2522 C 0.48949 0.80339 0.42954
 C2523 C 0.49169 0.78660 0.41355
 C2524 C 0.51171 0.77720 0.40977
 C2525 C 0.52917 0.78391 0.42326
 C2526 C 0.52695 0.80041 0.43940
 C2527 C 0.50590 0.83064 0.45677
 C2528 C 0.52293 0.84553 0.45672
 C2529 C 0.52139 0.86489 0.46868
 C2530 C 0.50272 0.87011 0.48092
 C2531 C 0.48593 0.85498 0.48181
 C2532 C 0.48748 0.83545 0.46978
 C2533 C 0.50037 0.89204 0.49077
 C2534 C 0.49173 0.89553 0.51302
 C2535 C 0.49000 0.91653 0.52179
 C2536 C 0.49666 0.93439 0.50835
 C2537 C 0.50498 0.93065 0.48598
 C2538 C 0.50686 0.90988 0.47742
 H2539 H 0.47413 0.81116 0.43113
 H2540 H 0.47800 0.78173 0.40331
 H2541 H 0.54470 0.77659 0.42103
 H2542 H 0.54083 0.80529 0.44930
 H2543 H 0.53725 0.84263 0.44667
 H2544 H 0.53469 0.87611 0.46786
 H2545 H 0.47131 0.85861 0.49102
 H2546 H 0.47416 0.82427 0.47042
 H2547 H 0.48660 0.88203 0.52370
 H2548 H 0.48339 0.91875 0.53899
 H2549 H 0.51031 0.94377 0.47489
 H2550 H 0.51321 0.90781 0.46006
 C2551 C 0.01039 0.31557 0.93447
 C2552 C 0.03052 0.30638 0.93055
 C2553 C 0.03285 0.28932 0.91509
 C2554 C 0.01510 0.28098 0.90315
 C2555 C -0.00525 0.28925 0.90806
 C2556 C -0.00759 0.30640 0.92356
 C2557 C 0.00856 0.33574 0.94816
 C2558 C -0.00860 0.33915 0.96352
 C2559 C -0.01071 0.35885 0.97508
 C2560 C 0.00412 0.37558 0.97121
 C2561 C 0.02151 0.37194 0.95633
 C2562 C 0.02372 0.35230 0.94500
 C2563 C 0.00090 0.39736 0.98108
 C2564 C 0.00277 0.41543 0.96648
 C2565 C 0.00032 0.43611 0.97523
 C2566 C -0.00352 0.43951 0.99905
 C2567 C -0.00620 0.42132 1.01358
 C2568 C -0.00400 0.40044 1.00468
 H2569 H 0.04462 0.31273 0.93905
 H2570 H 0.04867 0.28297 0.91208
 H2571 H -0.01921 0.28326 0.89900
 H2572 H -0.02330 0.31320 0.92608
 H2573 H -0.02046 0.32665 0.96642
 H2574 H -0.02433 0.36128 0.98636
 H2575 H 0.03325 0.38451 0.95313
 H2576 H 0.03697 0.35037 0.93310
 H2577 H 0.00590 0.41355 0.94809
 H2578 H 0.00140 0.44938 0.96301
 H2579 H -0.01004 0.42316 1.03179
 H2580 H -0.00579 0.38673 1.01628
 C2581 C 0.49089 0.33095 0.05722
 C2582 C 0.47286 0.31941 0.06531
 C2583 C 0.47507 0.30267 0.08162
 C2584 C 0.49533 0.29707 0.09015
 C2585 C 0.51336 0.30798 0.08123
 C2586 C 0.51117 0.32475 0.06521
 C2587 C 0.48873 0.35043 0.04207
 C2588 C 0.50484 0.35612 0.02598
 C2589 C 0.50483 0.37629 0.01498
 C2590 C 0.48854 0.39114 0.01954
 C2591 C 0.47147 0.38467 0.03399
 C2592 C 0.47164 0.36468 0.04526
 C2593 C 0.49045 0.41392 0.01149
 C2594 C 0.48433 0.43051 0.02645
 C2595 C 0.48704 0.45197 0.02003
 C2596 C 0.49606 0.45772 -0.00162
 C2597 C 0.50228 0.44116 -0.01666
 C2598 C 0.49945 0.41948 -0.01021
 H2599 H 0.45701 0.32349 0.05929
 H2600 H 0.46086 0.29456 0.08797
 H2601 H 0.52933 0.30370 0.08671
 H2602 H 0.52543 0.33333 0.05973
 H2603 H 0.51794 0.34532 0.02254
 H2604 H 0.51821 0.38066 0.00395
 H2605 H 0.45833 0.39547 0.03739
 H2606 H 0.45896 0.36098 0.05749
 H2607 H 0.47789 0.42696 0.04354
 H2608 H 0.48193 0.46402 0.03228
 H2609 H 0.50947 0.44488 -0.03331
 H2610 H 0.50433 0.40709 -0.02220
 C2611 C -0.01327 0.83042 0.55426
 C2612 C -0.03139 0.81879 0.56188
 C2613 C -0.02938 0.80184 0.57792
 C2614 C -0.00923 0.79618 0.58672
 C2615 C 0.00891 0.80726 0.57835
 C2616 C 0.00691 0.82420 0.56249
 C2617 C -0.01529 0.85005 0.53942
 C2618 C 0.00070 0.85563 0.52317
 C2619 C 0.00093 0.87596 0.51254
 C2620 C -0.01492 0.89107 0.51779
 C2621 C -0.03191 0.88478 0.53241
 C2622 C -0.03204 0.86457 0.54321
 C2623 C -0.01240 0.91397 0.51061
 C2624 C -0.01672 0.93015 0.52676
 C2625 C -0.01318 0.95168 0.52121
 C2626 C -0.00522 0.95785 0.49922
 C2627 C -0.00095 0.94170 0.48290
 C2628 C -0.00446 0.91994 0.48856
 H2629 H -0.04716 0.82297 0.55566
 H2630 H -0.04365 0.79356 0.58382
 H2631 H 0.02480 0.80293 0.58406
 H2632 H 0.02121 0.83288 0.55731
 H2633 H 0.01355 0.84462 0.51940
 H2634 H 0.01423 0.88029 0.50135
 H2635 H -0.04463 0.89591 0.53639
 H2636 H -0.04458 0.86092 0.55562
 H2637 H -0.02234 0.92616 0.54409
 H2638 H -0.01681 0.96345 0.53438
 H2639 H 0.00523 0.94581 0.46586
 H2640 H -0.00097 0.90780 0.47572
 C2641 C 0.22241 0.33208 0.06999
 C2642 C 0.20863 0.33944 0.05249
 C2643 C 0.21647 0.35259 0.03450
 C2644 C 0.23818 0.35851 0.03369
 C2645 C 0.25211 0.34984 0.05045
 C2646 C 0.24429 0.33690 0.06845
 C2647 C 0.21413 0.32055 0.09069
 C2648 C 0.22057 0.32729 0.11281
 C2649 C 0.21465 0.31561 0.13252
 C2650 C 0.20215 0.29683 0.13062
 C2651 C 0.19487 0.29057 0.10853
 C2652 C 0.20069 0.30247 0.08868
 C2653 C 0.19940 0.28279 0.15139
 C2654 C 0.20318 0.26061 0.14994
 C2655 C 0.20732 0.24859 0.17006
 C2656 C 0.20830 0.25860 0.19199
 C2657 C 0.20144 0.28006 0.19341
 C2658 C 0.19692 0.29197 0.17341
 H2659 H 0.19169 0.33585 0.05332
 H2660 H 0.20531 0.35878 0.02196
 H2661 H 0.26906 0.35340 0.04994
 H2662 H 0.25532 0.33096 0.08148
 H2663 H 0.23069 0.34137 0.11479
 H2664 H 0.22087 0.32070 0.14917
 H2665 H 0.18517 0.27620 0.10657
 H2666 H 0.19548 0.29707 0.07174
 H2667 H 0.20497 0.25295 0.13322
 H2668 H 0.21180 0.23190 0.16803
 H2669 H 0.20039 0.28829 0.20967
 H2670 H 0.19308 0.30886 0.17510
 C2671 C 0.71705 0.83010 0.55888
 C2672 C 0.70466 0.84378 0.54482
 C2673 C 0.71452 0.85933 0.53062
 C2674 C 0.73687 0.86166 0.53056
 C2675 C 0.74922 0.84775 0.54430
 C2676 C 0.73943 0.83210 0.55824
 C2677 C 0.70698 0.81475 0.57550
 C2678 C 0.71566 0.79417 0.57872
 C2679 C 0.70924 0.78128 0.59745
 C2680 C 0.69397 0.78868 0.61341
 C2681 C 0.68395 0.80850 0.60902
 C2682 C 0.69038 0.82142 0.59020
 C2683 C 0.69158 0.77751 0.63623
 C2684 C 0.69166 0.78953 0.65678
 C2685 C 0.69615 0.77967 0.67809
 C2686 C 0.70094 0.75762 0.67939
 C2687 C 0.69767 0.74517 0.65928
 C2688 C 0.69313 0.75502 0.63793
 H2689 H 0.68740 0.84256 0.54501
 H2690 H 0.70464 0.87001 0.52031
 H2691 H 0.76648 0.84912 0.54441
 H2692 H 0.74937 0.82202 0.56915
 H2693 H 0.72826 0.78851 0.56742
 H2694 H 0.71748 0.76623 0.60036
 H2695 H 0.67194 0.81453 0.62083
 H2696 H 0.68341 0.83723 0.58812
 H2697 H 0.69021 0.80689 0.65626
 H2698 H 0.69702 0.78979 0.69305
 H2699 H 0.70052 0.72801 0.65945
 H2700 H 0.69245 0.74519 0.62248
 C2701 C 0.26633 0.65752 0.57552
 C2702 C 0.24614 0.65153 0.56688
 C2703 C 0.24430 0.63742 0.54822
 C2704 C 0.26258 0.62919 0.53734
 C2705 C 0.28277 0.63641 0.54499
 C2706 C 0.28463 0.65018 0.56397
 C2707 C 0.26822 0.67009 0.59737
 C2708 C 0.28512 0.68479 0.60094
 C2709 C 0.28717 0.69565 0.62211
 C2710 C 0.27229 0.69212 0.64009
 C2711 C 0.25521 0.67776 0.63622
 C2712 C 0.25337 0.66674 0.61536
 C2713 C 0.27378 0.70360 0.66265
 C2714 C 0.26658 0.69337 0.68304
 C2715 C 0.26299 0.70510 0.70311
 C2716 C 0.26768 0.72726 0.70397
 C2717 C 0.27716 0.73703 0.68429
 C2718 C 0.28000 0.72537 0.66375
 H2719 H 0.23165 0.65739 0.57486
 H2720 H 0.22845 0.63255 0.54300
 H2721 H 0.29732 0.63121 0.53663
 H2722 H 0.30046 0.65439 0.57005
 H2723 H 0.29674 0.68798 0.58738
 H2724 H 0.30049 0.70660 0.62446
 H2725 H 0.24303 0.67506 0.64931
 H2726 H 0.24039 0.65528 0.61356
 H2727 H 0.26231 0.67646 0.68312
 H2728 H 0.25488 0.69690 0.71721
 H2729 H 0.28075 0.75410 0.68403
 H2730 H 0.28562 0.73381 0.64837
 C2731 C 0.77739 0.16610 0.07776
 C2732 C 0.79481 0.16082 0.06359
 C2733 C 0.79257 0.14546 0.04617
 C2734 C 0.77288 0.13497 0.04260
 C2735 C 0.75534 0.14052 0.05648
 C2736 C 0.75757 0.15593 0.07390
 C2737 C 0.77991 0.18191 0.09677
 C2738 C 0.76386 0.19702 0.10105
 C2739 C 0.76564 0.21120 0.11963
 C2740 C 0.78355 0.21063 0.13439
 C2741 C 0.79986 0.19582 0.12983
 C2742 C 0.79809 0.18163 0.11115
 C2743 C 0.78411 0.22441 0.15534
 C2744 C 0.79052 0.21602 0.17697
 C2745 C 0.78653 0.22737 0.19741
 C2746 C 0.77548 0.24698 0.19675
 C2747 C 0.77178 0.25654 0.17478
 C2748 C 0.77595 0.24536 0.15439
 H2749 H 0.81016 0.16866 0.06589
 H2750 H 0.80629 0.14183 0.03543
 H2751 H 0.74006 0.13249 0.05438
 H2752 H 0.74392 0.15946 0.08477
 H2753 H 0.74980 0.19779 0.09012
 H2754 H 0.75261 0.22215 0.12290
 H2755 H 0.81388 0.19505 0.14083
 H2756 H 0.81065 0.17002 0.10836
 H2757 H 0.79726 0.20005 0.17830
 H2758 H 0.79096 0.21995 0.21359
 H2759 H 0.76439 0.27217 0.17315
 H2760 H 0.77171 0.25268 0.13789
 C2761 C 0.73077 0.15427 0.93141
 C2762 C 0.73826 0.13353 0.92641
 C2763 C 0.74684 0.12052 0.94387
 C2764 C 0.74831 0.12794 0.96681
 C2765 C 0.74036 0.14845 0.97204
 C2766 C 0.73170 0.16150 0.95451
 C2767 C 0.72366 0.16864 0.91215
 C2768 C 0.72987 0.19044 0.91156
 C2769 C 0.72687 0.20287 0.89145
 C2770 C 0.71778 0.19365 0.87155
 C2771 C 0.71002 0.17244 0.87272
 C2772 C 0.71277 0.16011 0.89288
 C2773 C 0.72001 0.20462 0.84877
 C2774 C 0.73078 0.19404 0.83089
 C2775 C 0.73649 0.20501 0.81064
 C2776 C 0.73084 0.22671 0.80718
 C2777 C 0.71922 0.23707 0.82481
 C2778 C 0.71403 0.22617 0.84552
 H2779 H 0.73817 0.12753 0.90879
 H2780 H 0.75242 0.10465 0.93932
 H2781 H 0.74139 0.15469 0.98952
 H2782 H 0.72594 0.17734 0.95898
 H2783 H 0.73842 0.19750 0.92600
 H2784 H 0.73320 0.21913 0.89084
 H2785 H 0.70283 0.16507 0.85759
 H2786 H 0.70728 0.14354 0.89298
 H2787 H 0.73607 0.17759 0.83322
 H2788 H 0.74626 0.19660 0.79818
 H2789 H 0.71509 0.25390 0.82321
 H2790 H 0.70593 0.23472 0.85925
 C2791 C 0.22037 0.65056 0.42602
 C2792 C 0.22187 0.65767 0.44912
 C2793 C 0.23054 0.64434 0.46637
 C2794 C 0.23789 0.62369 0.46084
 C2795 C 0.23566 0.61632 0.43796
 C2796 C 0.22709 0.62960 0.42077
 C2797 C 0.21391 0.66535 0.40690
 C2798 C 0.20281 0.65741 0.38749
 C2799 C 0.20132 0.66973 0.36717
 C2800 C 0.21054 0.69035 0.36606
 C2801 C 0.21961 0.69919 0.38616
 C2802 C 0.22137 0.68676 0.40641
 C2803 C 0.21463 0.70064 0.34328
 C2804 C 0.20999 0.72239 0.33916
 C2805 C 0.21698 0.73254 0.31867
 C2806 C 0.22901 0.72118 0.30213
 C2807 C 0.23351 0.69936 0.30656
 C2808 C 0.22602 0.68914 0.32658
 H2809 H 0.21670 0.67367 0.45376
 H2810 H 0.23211 0.65048 0.48386
 H2811 H 0.24072 0.60030 0.43325
 H2812 H 0.22653 0.62367 0.40313
 H2813 H 0.19638 0.64119 0.38753
 H2814 H 0.19415 0.66269 0.35185
 H2815 H 0.22702 0.71499 0.38558
 H2816 H 0.23011 0.69335 0.42098
 H2817 H 0.20155 0.73164 0.35210
 H2818 H 0.21382 0.74953 0.31643
 H2819 H 0.24364 0.69022 0.29509
 H2820 H 0.23036 0.67251 0.32972
 C2821 C 0.76979 0.84665 0.41680
 C2822 C 0.75542 0.84004 0.43432
 C2823 C 0.75212 0.85278 0.45397
 C2824 C 0.76301 0.87248 0.45646
 C2825 C 0.77728 0.87908 0.43886
 C2826 C 0.78078 0.86627 0.41946
 C2827 C 0.77268 0.83374 0.39532
 C2828 C 0.77537 0.84420 0.37375
 C2829 C 0.77685 0.83242 0.35331
 C2830 C 0.77535 0.80985 0.35377
 C2831 C 0.77351 0.79923 0.37534
 C2832 C 0.77219 0.81107 0.39594
 C2833 C 0.77340 0.79793 0.33160
 C2834 C 0.78384 0.77826 0.32779
 C2835 C 0.78123 0.76734 0.30666
 C2836 C 0.76807 0.77588 0.28908
 C2837 C 0.75757 0.79547 0.29329
 C2838 C 0.76025 0.80629 0.31409
 H2839 H 0.74646 0.82516 0.43272
 H2840 H 0.74128 0.84699 0.46732
 H2841 H 0.78574 0.89429 0.43994
 H2842 H 0.79219 0.87178 0.40653
 H2843 H 0.77556 0.86159 0.37246
 H2844 H 0.77855 0.84105 0.33697
 H2845 H 0.77222 0.78185 0.37621
 H2846 H 0.77052 0.80249 0.41230
 H2847 H 0.79403 0.77142 0.34109
 H2848 H 0.78925 0.75215 0.30426
 H2849 H 0.74709 0.80268 0.28050
 H2850 H 0.75156 0.82111 0.31664
 C2851 C 0.26241 0.33230 0.91749
 C2852 C 0.24227 0.33843 0.92607
 C2853 C 0.24056 0.35229 0.94501
 C2854 C 0.25893 0.35997 0.95634
 C2855 C 0.27903 0.35291 0.94854
 C2856 C 0.28075 0.33951 0.92925
 C2857 C 0.26432 0.31975 0.89553
 C2858 C 0.28164 0.30581 0.89159
 C2859 C 0.28420 0.29568 0.87006
 C2860 C 0.26937 0.29906 0.85209
 C2861 C 0.25156 0.31213 0.85650
 C2862 C 0.24924 0.32254 0.87769
 C2863 C 0.27230 0.28961 0.82856
 C2864 C 0.26546 0.30119 0.80895
 C2865 C 0.26489 0.29165 0.78722
 C2866 C 0.27228 0.27054 0.78390
 C2867 C 0.28065 0.25939 0.80324
 C2868 C 0.28056 0.26880 0.82539
 H2869 H 0.22769 0.33280 0.91796
 H2870 H 0.22479 0.35738 0.95020
 H2871 H 0.29359 0.35786 0.95713
 H2872 H 0.29657 0.33541 0.92318
 H2873 H 0.29336 0.30283 0.90503
 H2874 H 0.29806 0.28567 0.86734
 H2875 H 0.23937 0.31458 0.84342
 H2876 H 0.23586 0.33331 0.87970
 H2877 H 0.25964 0.31749 0.81046
 H2878 H 0.25751 0.30070 0.77330
 H2879 H 0.28609 0.24297 0.80158
 H2880 H 0.28594 0.25936 0.84014
 C2881 C 0.81596 0.43062 0.78936
 C2882 C 0.80885 0.44609 0.77316
 C2883 C 0.81953 0.46590 0.77071
 C2884 C 0.83771 0.47059 0.78419
 C2885 C 0.84434 0.45525 0.80079
 C2886 C 0.83345 0.43578 0.80356
 C2887 C 0.80638 0.40860 0.79041
 C2888 C 0.81960 0.39073 0.79440
 C2889 C 0.81128 0.36991 0.79415
 C2890 C 0.78956 0.36622 0.78946
 C2891 C 0.77607 0.38401 0.78620
 C2892 C 0.78441 0.40502 0.78667
 C2893 C 0.78178 0.34385 0.78594
 C2894 C 0.76194 0.33658 0.79453
 C2895 C 0.75511 0.31532 0.79066
 C2896 C 0.76796 0.30100 0.77802
 C2897 C 0.78774 0.30859 0.76949
 C2898 C 0.79448 0.32958 0.77333
 H2899 H 0.79549 0.44265 0.76182
 H2900 H 0.81356 0.47737 0.75809
 H2901 H 0.85840 0.45777 0.81133
 H2902 H 0.83911 0.42455 0.81662
 H2903 H 0.83663 0.39269 0.79693
 H2904 H 0.82204 0.35657 0.79706
 H2905 H 0.75927 0.38164 0.78243
 H2906 H 0.77371 0.41841 0.78385
 H2907 H 0.75181 0.34727 0.80434
 H2908 H 0.73972 0.31022 0.79739
 H2909 H 0.79796 0.29858 0.75906
 H2910 H 0.80956 0.33479 0.76587
 C2911 C 0.31922 0.92240 0.28269
 C2912 C 0.33629 0.92741 0.29756
 C2913 C 0.34689 0.94712 0.29577
 C2914 C 0.34040 0.96280 0.27949
 C2915 C 0.32286 0.95812 0.26506
 C2916 C 0.31244 0.93810 0.26657
 C2917 C 0.30954 0.90043 0.28327
 C2918 C 0.28760 0.89705 0.27915
 C2919 C 0.27905 0.87613 0.27872
 C2920 C 0.29229 0.85822 0.28242
 C2921 C 0.31400 0.86171 0.28733
 C2922 C 0.32254 0.88245 0.28752
 C2923 C 0.28418 0.83588 0.27939
 C2924 C 0.29692 0.82094 0.26777
 C2925 C 0.28977 0.80001 0.26434
 C2926 C 0.26951 0.79319 0.27222
 C2927 C 0.25667 0.80815 0.28395
 C2928 C 0.26392 0.82932 0.28747
 H2929 H 0.34171 0.91596 0.31052
 H2930 H 0.36055 0.94972 0.30693
 H2931 H 0.31713 0.96985 0.25259
 H2932 H 0.29945 0.93475 0.25471
 H2933 H 0.27706 0.91053 0.27611
 H2934 H 0.26227 0.87394 0.27475
 H2935 H 0.32458 0.84829 0.29061
 H2936 H 0.33954 0.88428 0.29037
 H2937 H 0.31234 0.82556 0.26071
 H2938 H 0.30004 0.78946 0.25460
 H2939 H 0.24094 0.80364 0.29021
 H2940 H 0.25375 0.84050 0.29657
 C2941 C 0.17848 0.92603 0.70539
 C2942 C 0.18786 0.94667 0.70613
 C2943 C 0.17605 0.96434 0.71387
 C2944 C 0.15483 0.96150 0.72123
 C2945 C 0.14514 0.94120 0.71918
 C2946 C 0.15680 0.92369 0.71138
 C2947 C 0.19143 0.90645 0.70132
 C2948 C 0.18236 0.88865 0.68994
 C2949 C 0.19192 0.86846 0.69149
 C2950 C 0.21093 0.86581 0.70401
 C2951 C 0.22117 0.88388 0.71341
 C2952 C 0.21146 0.90409 0.71213
 C2953 C 0.21789 0.84399 0.71062
 C2954 C 0.20416 0.83109 0.72406
 C2955 C 0.21052 0.81079 0.73158
 C2956 C 0.23058 0.80251 0.72530
 C2957 C 0.24437 0.81559 0.71178
 C2958 C 0.23815 0.83627 0.70472
 H2959 H 0.20450 0.94900 0.70150
 H2960 H 0.18382 0.97989 0.71538
 H2961 H 0.12870 0.93870 0.72453
 H2962 H 0.14911 0.90803 0.71143
 H2963 H 0.16717 0.89005 0.68107
 H2964 H 0.18385 0.85466 0.68406
 H2965 H 0.23577 0.88206 0.72333
 H2966 H 0.21879 0.91741 0.72123
 H2967 H 0.18861 0.83699 0.72921
 H2968 H 0.19964 0.80177 0.74257
 H2969 H 0.26004 0.81001 0.70677
 H2970 H 0.24904 0.84616 0.69454
 C2971 C 0.68436 0.44174 0.21775
 C2972 C 0.68682 0.45171 0.23942
 C2973 C 0.67311 0.46815 0.24604
 C2974 C 0.65689 0.47512 0.23102
 C2975 C 0.65545 0.46648 0.20864
 C2976 C 0.66901 0.44974 0.20209
 C2977 C 0.69545 0.42117 0.21338
 C2978 C 0.68360 0.40321 0.20602
 C2979 C 0.69247 0.38267 0.20695
 C2980 C 0.71342 0.37973 0.21504
 C2981 C 0.72586 0.39783 0.22064
 C2982 C 0.71691 0.41839 0.21994
 C2983 C 0.72132 0.35779 0.21998
 C2984 C 0.74174 0.35133 0.21294
 C2985 C 0.74898 0.33057 0.21810
 C2986 C 0.73603 0.31594 0.23072
 C2987 C 0.71581 0.32284 0.23821
 C2988 C 0.70850 0.34339 0.23276
 H2989 H 0.69830 0.44574 0.25196
 H2990 H 0.67447 0.47473 0.26337
 H2991 H 0.64295 0.47164 0.19689
 H2992 H 0.66687 0.44236 0.18525
 H2993 H 0.66697 0.40481 0.20111
 H2994 H 0.68265 0.36894 0.20232
 H2995 H 0.74205 0.39594 0.22696
 H2996 H 0.72640 0.43201 0.22559
 H2997 H 0.75197 0.36226 0.20318
 H2998 H 0.76470 0.32604 0.21211
 H2999 H 0.70550 0.31248 0.24847
 H3000 H 0.69289 0.34818 0.23892
 C3001 C 0.67854 0.58178 0.24860
 C3002 C 0.65648 0.58414 0.25265
 C3003 C 0.64282 0.56635 0.25218
 C3004 C 0.65080 0.54596 0.24698
 C3005 C 0.67252 0.54354 0.24186
 C3006 C 0.68636 0.56126 0.24290
 C3007 C 0.69317 0.60066 0.25057
 C3008 C 0.71123 0.60283 0.23617
 C3009 C 0.72415 0.62122 0.23725
 C3010 C 0.71907 0.63813 0.25240
 C3011 C 0.70142 0.63558 0.26733
 C3012 C 0.68884 0.61701 0.26664
 C3013 C 0.73075 0.65907 0.25129
 C3014 C 0.73249 0.67222 0.27102
 C3015 C 0.73983 0.69343 0.26895
 C3016 C 0.74558 0.70200 0.24707
 C3017 C 0.74654 0.68794 0.22810
 C3018 C 0.73870 0.66696 0.23000
 H3019 H 0.64970 0.59973 0.25630
 H3020 H 0.62601 0.56846 0.25598
 H3021 H 0.67891 0.52778 0.23804
 H3022 H 0.70323 0.55873 0.23993
 H3023 H 0.71509 0.59065 0.22352
 H3024 H 0.73788 0.62232 0.22585
 H3025 H 0.69672 0.64826 0.27903
 H3026 H 0.67549 0.61568 0.27853
 H3027 H 0.72751 0.66641 0.28797
 H3028 H 0.73993 0.70337 0.28431
 H3029 H 0.75282 0.69308 0.21151
 H3030 H 0.73803 0.65736 0.21441
 C3031 C 0.18892 0.07237 0.74428
 C3032 C 0.16653 0.07367 0.74276
 C3033 C 0.15403 0.05505 0.74241
 C3034 C 0.16366 0.03480 0.74335
 C3035 C 0.18596 0.03325 0.74391
 C3036 C 0.19856 0.05195 0.74437
 C3037 C 0.20188 0.09234 0.74638
 C3038 C 0.22131 0.09484 0.73437
 C3039 C 0.23264 0.11431 0.73532
 C3040 C 0.22475 0.13166 0.74829
 C3041 C 0.20570 0.12881 0.76093
 C3042 C 0.19448 0.10939 0.76006
 C3043 C 0.23515 0.15321 0.74726
 C3044 C 0.23532 0.16668 0.76678
 C3045 C 0.24191 0.18814 0.76473
 C3046 C 0.24788 0.19680 0.74298
 C3047 C 0.25029 0.18254 0.72430
 C3048 C 0.24354 0.16116 0.72622
 H3049 H 0.15864 0.08912 0.74209
 H3050 H 0.13678 0.05641 0.74191
 H3051 H 0.19354 0.01763 0.74475
 H3052 H 0.21574 0.05044 0.74561
 H3053 H 0.22742 0.08201 0.72367
 H3054 H 0.24740 0.11588 0.72562
 H3055 H 0.19899 0.14187 0.77085
 H3056 H 0.17979 0.10782 0.76990
 H3057 H 0.22985 0.16078 0.78353
 H3058 H 0.24143 0.19814 0.78004
 H3059 H 0.25697 0.18784 0.70791
 H3060 H 0.24410 0.15117 0.71091
 C3061 C 0.30386 0.06393 0.23044
 C3062 C 0.31769 0.05165 0.21662
 C3063 C 0.33115 0.03633 0.22685
 C3064 C 0.33116 0.03327 0.25103
 C3065 C 0.31655 0.04468 0.26466
 C3066 C 0.30297 0.05977 0.25447
 C3067 C 0.29246 0.08284 0.22069
 C3068 C 0.27174 0.08793 0.22829
 C3069 C 0.26289 0.10802 0.22313
 C3070 C 0.27466 0.12344 0.21042
 C3071 C 0.29465 0.11771 0.20129
 C3072 C 0.30344 0.09759 0.20631
 C3073 C 0.26771 0.14620 0.20992
 C3074 C 0.28222 0.16232 0.21643
 C3075 C 0.27540 0.18335 0.21978
 C3076 C 0.25390 0.18911 0.21625
 C3077 C 0.23955 0.17306 0.20864
 C3078 C 0.24635 0.15180 0.20570
 H3079 H 0.31865 0.05448 0.19805
 H3080 H 0.34241 0.02789 0.21604
 H3081 H 0.31624 0.04251 0.28337
 H3082 H 0.29272 0.06913 0.26564
 H3083 H 0.26285 0.07677 0.23921
 H3084 H 0.24752 0.11205 0.23051
 H3085 H 0.30398 0.12927 0.19131
 H3086 H 0.31948 0.09422 0.20034
 H3087 H 0.29864 0.15839 0.22048
 H3088 H 0.28684 0.19456 0.22686
 H3089 H 0.22283 0.17663 0.20591
 H3090 H 0.23482 0.13962 0.20073
 C3091 C 0.80682 0.57061 0.72569
 C3092 C 0.82808 0.57615 0.73084
 C3093 C 0.84124 0.56183 0.74270
 C3094 C 0.83350 0.54157 0.74978
 C3095 C 0.81252 0.53555 0.74398
 C3096 C 0.79917 0.55008 0.73221
 C3097 C 0.79262 0.58716 0.71535
 C3098 C 0.80051 0.60120 0.69804
 C3099 C 0.78962 0.62008 0.69247
 C3100 C 0.77053 0.62517 0.70392
 C3101 C 0.76146 0.61011 0.71942
 C3102 C 0.77246 0.59122 0.72514
 C3103 C 0.76252 0.64751 0.70314
 C3104 C 0.77664 0.66429 0.70856
 C3105 C 0.76925 0.68519 0.71117
 C3106 C 0.74756 0.69019 0.70774
 C3107 C 0.73349 0.67337 0.70151
 C3108 C 0.74086 0.65217 0.69953
 H3109 H 0.83438 0.59194 0.72642
 H3110 H 0.85750 0.56669 0.74654
 H3111 H 0.80628 0.51995 0.74919
 H3112 H 0.78286 0.54539 0.72841
 H3113 H 0.81580 0.59824 0.68986
 H3114 H 0.79680 0.63140 0.68030
 H3115 H 0.74682 0.61379 0.72859
 H3116 H 0.76603 0.58075 0.73860
 H3117 H 0.79329 0.66100 0.71221
 H3118 H 0.78049 0.69693 0.71753
 H3119 H 0.71662 0.67634 0.69907
 H3120 H 0.72963 0.63938 0.69560
 C3121 C 0.93661 0.75031 0.20274
 C3122 C 0.93922 0.73234 0.18821
 C3123 C 0.95640 0.73138 0.17263
 C3124 C 0.97101 0.74849 0.17110
 C3125 C 0.96930 0.76572 0.18658
 C3126 C 0.95243 0.76650 0.20242
 C3127 C 0.91639 0.75337 0.21601
 C3128 C 0.90722 0.77395 0.21739
 C3129 C 0.88685 0.77666 0.22676
 C3130 C 0.87497 0.75885 0.23479
 C3131 C 0.88457 0.73844 0.23476
 C3132 C 0.90508 0.73574 0.22550
 C3133 C 0.85188 0.76115 0.24032
 C3134 C 0.84216 0.74913 0.25827
 C3135 C 0.81990 0.74912 0.26097
 C3136 C 0.80688 0.76108 0.24572
 C3137 C 0.81686 0.77388 0.22852
 C3138 C 0.83898 0.77400 0.22594
 H3139 H 0.92730 0.71965 0.18777
 H3140 H 0.95744 0.71802 0.16070
 H3141 H 0.98062 0.77897 0.18577
 H3142 H 0.95131 0.78026 0.21378
 H3143 H 0.91524 0.78792 0.21006
 H3144 H 0.88002 0.79263 0.22683
 H3145 H 0.87580 0.72436 0.24069
 H3146 H 0.91177 0.71972 0.22510
 H3147 H 0.85170 0.73919 0.26974
 H3148 H 0.81293 0.73882 0.27423
 H3149 H 0.80756 0.78306 0.21612
 H3150 H 0.84586 0.78317 0.21167
 C3151 C 0.44002 0.25064 0.69841
 C3152 C 0.44420 0.23176 0.68581
 C3153 C 0.46177 0.23076 0.67077
 C3154 C 0.47518 0.24870 0.66781
 C3155 C 0.47187 0.26702 0.68142
 C3156 C 0.45461 0.26789 0.69675
 C3157 C 0.41939 0.25327 0.71097
 C3158 C 0.40866 0.27309 0.70995
 C3159 C 0.38795 0.27501 0.71860
 C3160 C 0.37729 0.25713 0.72829
 C3161 C 0.38841 0.23764 0.73071
 C3162 C 0.40926 0.23573 0.72214
 C3163 C 0.35399 0.25811 0.73300
 C3164 C 0.34477 0.24775 0.75240
 C3165 C 0.32251 0.24687 0.75501
 C3166 C 0.30906 0.25612 0.73812
 C3167 C 0.31847 0.26714 0.71921
 C3168 C 0.34057 0.26819 0.71676
 H3169 H 0.43324 0.21823 0.68645
 H3170 H 0.46408 0.21651 0.66035
 H3171 H 0.48231 0.28091 0.67965
 H3172 H 0.45226 0.28243 0.70666
 H3173 H 0.41576 0.28691 0.70127
 H3174 H 0.37990 0.29031 0.71679
 H3175 H 0.38058 0.22354 0.73802
 H3176 H 0.41718 0.22034 0.72358
 H3177 H 0.35477 0.23997 0.76528
 H3178 H 0.31589 0.23825 0.76980
 H3179 H 0.30879 0.27450 0.70578
 H3180 H 0.34711 0.27603 0.70142
 C3181 C 0.42128 0.75624 0.80923
 C3182 C 0.42743 0.77743 0.81458
 C3183 C 0.44450 0.78142 0.82961
 C3184 C 0.45578 0.76434 0.84000
 C3185 C 0.45030 0.74318 0.83385
 C3186 C 0.43328 0.73917 0.81864
 C3187 C 0.40144 0.75214 0.79553
 C3188 C 0.38767 0.73504 0.80168
 C3189 C 0.36763 0.73293 0.79122
 C3190 C 0.36067 0.74799 0.77453
 C3191 C 0.37491 0.76428 0.76727
 C3192 C 0.39508 0.76630 0.77761
 C3193 C 0.33798 0.74796 0.76669
 C3194 C 0.33220 0.75327 0.74370
 C3195 C 0.31059 0.75443 0.73723
 C3196 C 0.29434 0.75042 0.75365
 C3197 C 0.30030 0.74489 0.77653
 C3198 C 0.32171 0.74368 0.78291
 H3199 H 0.41854 0.79102 0.80791
 H3200 H 0.44860 0.79798 0.83332
 H3201 H 0.45860 0.72964 0.84140
 H3202 H 0.42927 0.72264 0.81461
 H3203 H 0.39186 0.72388 0.81546
 H3204 H 0.35724 0.71990 0.79686
 H3205 H 0.37007 0.77616 0.75448
 H3206 H 0.40543 0.77937 0.77203
 H3207 H 0.34437 0.75656 0.73075
 H3208 H 0.30665 0.75872 0.71948
 H3209 H 0.28846 0.74155 0.78981
 H3210 H 0.32548 0.73999 0.80087
 C3211 C 0.92540 0.26309 0.31436
 C3212 C 0.93788 0.24531 0.32087
 C3213 C 0.95518 0.24775 0.33620
 C3214 C 0.96009 0.26800 0.34593
 C3215 C 0.94767 0.28577 0.33875
 C3216 C 0.93072 0.28335 0.32325
 C3217 C 0.90621 0.26072 0.29930
 C3218 C 0.90183 0.27605 0.28186
 C3219 C 0.88246 0.27555 0.26974
 C3220 C 0.86690 0.25977 0.27485
 C3221 C 0.87172 0.24383 0.29156
 C3222 C 0.89118 0.24426 0.30358
 C3223 C 0.84521 0.26082 0.26410
 C3224 C 0.83378 0.24199 0.25871
 C3225 C 0.81257 0.24302 0.25108
 C3226 C 0.80204 0.26287 0.24867
 C3227 C 0.81405 0.28176 0.25272
 C3228 C 0.83521 0.28075 0.26044
 H3229 H 0.93416 0.22947 0.31422
 H3230 H 0.96383 0.23344 0.34113
 H3231 H 0.95114 0.30191 0.34459
 H3232 H 0.92140 0.29738 0.31864
 H3233 H 0.91325 0.28873 0.27791
 H3234 H 0.87952 0.28778 0.25663
 H3235 H 0.86006 0.23159 0.29618
 H3236 H 0.89401 0.23236 0.31707
 H3237 H 0.84112 0.22636 0.26076
 H3238 H 0.80458 0.22806 0.24773
 H3239 H 0.80691 0.29750 0.25080
 H3240 H 0.84338 0.29565 0.26452
 C3241 C 0.06949 0.25565 0.32101
 C3242 C 0.04864 0.25117 0.31318
 C3243 C 0.03086 0.25596 0.32707
 C3244 C 0.03357 0.26549 0.34896
 C3245 C 0.05442 0.26994 0.35672
 C3246 C 0.07209 0.26516 0.34293
 C3247 C 0.08862 0.25044 0.30669
 C3248 C 0.10717 0.24250 0.31741
 C3249 C 0.12565 0.23879 0.30449
 C3250 C 0.12612 0.24270 0.28037
 C3251 C 0.10743 0.25024 0.26949
 C3252 C 0.08887 0.25403 0.28250
 C3253 C 0.14635 0.23957 0.26708
 C3254 C 0.15268 0.25409 0.24948
 C3255 C 0.17288 0.25252 0.23910
 C3256 C 0.18745 0.23663 0.24621
 C3257 C 0.18045 0.22137 0.26290
 C3258 C 0.16025 0.22277 0.27305
 H3259 H 0.04608 0.24371 0.29646
 H3260 H 0.01500 0.25246 0.32054
 H3261 H 0.05719 0.27687 0.37366
 H3262 H 0.08786 0.26911 0.34941
 H3263 H 0.10747 0.23923 0.33593
 H3264 H 0.13978 0.23334 0.31358
 H3265 H 0.10716 0.25325 0.25093
 H3266 H 0.07490 0.26029 0.27372
 H3267 H 0.14245 0.26732 0.24446
 H3268 H 0.17730 0.26452 0.22646
 H3269 H 0.19078 0.20859 0.26891
 H3270 H 0.15572 0.21090 0.28606
 C3271 C 0.56467 0.75929 0.81211
 C3272 C 0.54391 0.75282 0.80577
 C3273 C 0.52654 0.75650 0.82064
 C3274 C 0.52959 0.76688 0.84203
 C3275 C 0.55031 0.77360 0.84813
 C3276 C 0.56758 0.76989 0.83337
 C3277 C 0.58347 0.75455 0.79714
 C3278 C 0.60260 0.74751 0.80734
 C3279 C 0.62060 0.74361 0.79374
 C3280 C 0.62002 0.74655 0.76948
 C3281 C 0.60087 0.75350 0.75915
 C3282 C 0.58273 0.75735 0.77285
 C3283 C 0.63965 0.74266 0.75548
 C3284 C 0.64609 0.75691 0.73766
 C3285 C 0.66617 0.75476 0.72705
 C3286 C 0.68036 0.73852 0.73426
 C3287 C 0.67306 0.72339 0.75089
 C3288 C 0.65303 0.72540 0.76124
 H3289 H 0.54117 0.74453 0.78954
 H3290 H 0.51074 0.75138 0.81529
 H3291 H 0.55330 0.78141 0.86458
 H3292 H 0.58330 0.77534 0.83865
 H3293 H 0.60365 0.74493 0.82595
 H3294 H 0.63515 0.73862 0.80235
 H3295 H 0.59990 0.75584 0.74051
 H3296 H 0.56825 0.76291 0.76450
 H3297 H 0.63614 0.77040 0.73280
 H3298 H 0.67100 0.76668 0.71435
 H3299 H 0.68307 0.71034 0.75685
 H3300 H 0.64830 0.71375 0.77440
 C3301 C 0.57782 0.23853 0.69992
 C3302 C 0.56637 0.22039 0.69211
 C3303 C 0.55042 0.22250 0.67515
 C3304 C 0.54563 0.24278 0.66561
 C3305 C 0.55643 0.26097 0.67420
 C3306 C 0.57236 0.25887 0.69096
 C3307 C 0.59667 0.23635 0.71557
 C3308 C 0.60202 0.25269 0.73143
 C3309 C 0.62191 0.25284 0.74254
 C3310 C 0.63679 0.23654 0.73818
 C3311 C 0.63061 0.21915 0.72412
 C3312 C 0.61087 0.21912 0.71283
 C3313 C 0.65947 0.23902 0.74541
 C3314 C 0.67563 0.23420 0.72943
 C3315 C 0.69698 0.23757 0.73491
 C3316 C 0.70306 0.24582 0.75670
 C3317 C 0.68691 0.25070 0.77282
 C3318 C 0.66529 0.24739 0.76720
 H3319 H 0.56993 0.20450 0.69886
 H3320 H 0.54231 0.20819 0.66908
 H3321 H 0.55270 0.27698 0.66791
 H3322 H 0.58094 0.27320 0.69623
 H3323 H 0.59122 0.26593 0.73446
 H3324 H 0.62614 0.26641 0.75333
 H3325 H 0.64155 0.20608 0.72084
 H3326 H 0.60740 0.20627 0.70079
 H3327 H 0.67176 0.22828 0.71227
 H3328 H 0.70869 0.23350 0.72185
 H3329 H 0.69092 0.25722 0.78964
 H3330 H 0.65316 0.25135 0.77986
 C3331 C 0.07657 0.73809 0.19550
 C3332 C 0.06438 0.72027 0.18813
 C3333 C 0.04720 0.72300 0.17277
 C3334 C 0.04189 0.74358 0.16438
 C3335 C 0.05352 0.76142 0.17258
 C3336 C 0.07068 0.75871 0.18773
 C3337 C 0.09630 0.73534 0.20970
 C3338 C 0.10263 0.75113 0.22577
 C3339 C 0.12287 0.75049 0.23605
 C3340 C 0.13718 0.73391 0.23071
 C3341 C 0.13017 0.71719 0.21615
 C3342 C 0.11006 0.71797 0.20566
 C3343 C 0.15993 0.73513 0.23821
 C3344 C 0.17610 0.72919 0.22267
 C3345 C 0.19753 0.73141 0.22863
 C3346 C 0.20362 0.73972 0.25038
 C3347 C 0.18746 0.74568 0.26602
 C3348 C 0.16584 0.74336 0.26003
 H3349 H 0.06825 0.70417 0.19403
 H3350 H 0.03851 0.70893 0.16703
 H3351 H 0.04951 0.77763 0.16722
 H3352 H 0.07976 0.77281 0.19272
 H3353 H 0.09224 0.76446 0.22978
 H3354 H 0.12769 0.76362 0.24718
 H3355 H 0.14058 0.70387 0.21213
 H3356 H 0.10583 0.70553 0.19340
 H3357 H 0.17225 0.72331 0.20550
 H3358 H 0.20930 0.72653 0.21597
 H3359 H 0.19145 0.75233 0.28278
 H3360 H 0.15377 0.74806 0.27246
   
