data_POSCAR
  _audit_creation_date              2014-09-24
  _audit_creation_method            'ToBaCCo'
  _symmetry_space_group_name_H-M    'P1'
  _symmetry_Int_Tables_number       1
  _symmetry_cell_setting            triclinic
  loop_
  _symmetry_equiv_pos_as_xyz
 x,y,z
_cell_length_a 68.2368
_cell_length_b 67.6951
_cell_length_c 71.7160
_cell_angle_alpha 89.960500
_cell_angle_beta 90.699700
_cell_angle_gamma 88.660100
loop_
  _atom_site_label
  _atom_site_type_symbol
  _atom_site_fract_x
  _atom_site_fract_y
  _atom_site_fract_z
C1 C 0.39626 -0.00540 0.24708
 C2 C 0.10360 0.00259 0.75048
 C3 C 0.60726 0.50594 0.25229
 C4 C 0.89354 0.49723 0.74856
 C5 C 0.25646 0.35405 1.00144
 C6 C 0.74634 0.14322 0.99969
 C7 C 0.24932 0.64372 0.50221
 C8 C 0.74899 0.85684 0.50059
 C9 C 0.00631 0.24874 0.36598
 C10 C 0.00154 0.74784 0.13175
 C11 C 0.48835 0.25385 0.62217
 C12 C 0.49958 0.74716 0.86446
 C13 C -0.24999 0.64041 0.99909
 C14 C -0.24374 0.35846 0.50117
 C15 C 0.25328 -0.14458 0.00010
 C16 C 0.24240 1.14238 0.50208
 C17 C 0.10756 0.50083 0.25005
 C18 C -0.10649 0.99950 0.24757
 C19 C 0.39549 0.49478 -0.25094
 C20 C 0.60246 0.00313 -0.25121
 C21 C -0.00673 0.24900 0.88179
 C22 C 0.50145 0.24607 0.13156
 C23 C 0.00018 0.74784 0.62496
 C24 C 0.50280 0.75087 0.37878
 Zr25 Zr 0.01560 -0.01905 1.02432
 O26 O 0.03413 -0.00812 1.04564
 O27 O 0.01556 -0.04923 1.03045
 O28 O 0.00297 -0.02192 1.05099
 O29 O 0.05182 -0.02149 0.99102
 O30 O -0.02815 -0.00959 1.04670
 O31 O 0.04494 -0.02930 1.02113
 O32 O -0.00517 -0.06189 1.00859
 O33 O -0.01358 -0.02627 1.01869
 O34 O 0.01503 -0.03158 0.99770
 O35 O -0.00054 0.00770 1.02622
 O36 O 0.02746 0.00233 1.00649
 Zr37 Zr -0.01982 0.00967 0.97450
 Zr38 Zr -0.02937 0.00058 1.01910
 Zr39 Zr 0.02523 -0.01007 0.97980
 Zr40 Zr -0.01406 -0.03770 0.99172
 O41 O 0.04800 0.00911 0.97265
 O42 O -0.03991 -0.05028 1.00213
 O43 O -0.00364 -0.01721 0.97246
 O44 O -0.03129 -0.01171 0.99240
 O45 O -0.01937 0.02232 1.00111
 O46 O 0.00937 0.01664 0.98025
 C47 C 0.00654 -0.06361 1.02275
 C48 C 0.05659 -0.02878 1.00709
 C49 C -0.01442 -0.01755 1.05681
 O50 O -0.05415 -0.01691 1.02375
 O51 O -0.05464 0.01551 1.00895
 O52 O -0.04844 0.02182 0.97839
 C53 C -0.05947 0.02276 0.99291
 O54 O 0.03100 0.03277 1.02861
 Zr55 Zr 0.00986 0.02823 1.00711
 O56 O -0.01995 0.03995 0.96851
 O57 O -0.03614 0.02436 1.03723
 O58 O -0.00254 0.04846 1.02648
 O59 O 0.03414 0.04288 0.99577
 O60 O -0.00173 0.05274 0.99224
 C61 C -0.01285 0.05450 0.97768
 O62 O -0.03970 -0.00075 0.95407
 O63 O 0.03439 -0.03502 0.96407
 O64 O -0.00802 0.01001 0.94723
 O65 O 0.02208 -0.00489 0.95117
 O66 O -0.00097 -0.05924 0.97405
 O67 O -0.03246 -0.04310 0.96823
 C68 C 0.00831 0.00281 0.94095
 H69 H 0.02329 -0.04373 0.99665
 H70 H -0.04501 -0.01462 0.98894
 H71 H 0.01458 0.02608 0.97110
 H72 H 0.00035 0.01323 1.03897
 H73 H -0.03920 -0.06463 0.99939
 H74 H -0.06221 -0.00992 1.03320
 H75 H -0.04882 0.02139 1.04309
 H76 H 0.00362 0.06139 1.02451
 H77 H -0.00750 -0.07192 0.97636
 H78 H 0.04691 -0.03167 0.95809
 H79 H 0.05627 0.00195 0.96349
 H80 H 0.03278 0.05703 0.99918
 H81 H -0.03703 -0.05687 0.96871
 H82 H -0.04388 0.01077 0.94630
 H83 H 0.03858 -0.01960 1.05334
 H84 H 0.03350 0.04707 1.02979
 Zr85 Zr 0.52215 0.48881 0.52785
 O86 O 0.53961 0.49878 0.55041
 O87 O 0.52255 0.45823 0.53230
 O88 O 0.50851 0.48436 0.55386
 O89 O 0.55992 0.48907 0.49607
 O90 O 0.47725 0.49605 0.54896
 O91 O 0.55176 0.47926 0.52534
 O92 O 0.50362 0.44651 0.50855
 O93 O 0.49352 0.48108 0.52046
 O94 O 0.52330 0.47818 0.50051
 O95 O 0.50511 0.51494 0.53055
 O96 O 0.53418 0.51178 0.51197
 Zr97 Zr 0.48837 0.51968 0.47830
 Zr98 Zr 0.47688 0.50741 0.52174
 Zr99 Zr 0.53376 0.50119 0.48450
 Zr100 Zr 0.49478 0.47155 0.49283
 O101 O 0.55667 0.52122 0.48048
 O102 O 0.46888 0.45744 0.50113
 O103 O 0.50556 0.49358 0.47531
 O104 O 0.47667 0.49685 0.49432
 O105 O 0.48705 0.53060 0.50555
 O106 O 0.51694 0.52726 0.48586
 C107 C 0.51450 0.44413 0.52321
 C108 C 0.56399 0.48072 0.51184
 C109 C 0.49086 0.48819 0.55930
 O110 O 0.45270 0.48864 0.52431
 O111 O 0.45166 0.52222 0.51119
 O112 O 0.45927 0.53072 0.48143
 C113 C 0.44751 0.53044 0.49539
 O114 O 0.53553 0.54089 0.53602
 Zr115 Zr 0.51572 0.53708 0.51327
 O116 O 0.48740 0.55024 0.47411
 O117 O 0.46821 0.52981 0.54071
 O118 O 0.50153 0.55554 0.53310
 O119 O 0.54006 0.55325 0.50413
 O120 O 0.50413 0.56221 0.49920
 C121 C 0.49361 0.56446 0.48428
 O122 O 0.46996 0.50987 0.45637
 O123 O 0.54387 0.47795 0.46708
 O124 O 0.50149 0.52248 0.45180
 O125 O 0.53243 0.50974 0.45640
 O126 O 0.50929 0.45149 0.47463
 O127 O 0.47784 0.46742 0.46813
 C128 C 0.51879 0.51755 0.44606
 H129 H 0.53187 0.46630 0.49908
 H130 H 0.46323 0.49377 0.49004
 H131 H 0.52229 0.53756 0.47767
 H132 H 0.50523 0.51972 0.54359
 H133 H 0.47019 0.44335 0.49749
 H134 H 0.44386 0.49480 0.53362
 H135 H 0.45534 0.52606 0.54571
 H136 H 0.50728 0.56881 0.53217
 H137 H 0.50284 0.43858 0.47573
 H138 H 0.55666 0.48195 0.46208
 H139 H 0.56563 0.51508 0.47126
 H140 H 0.53803 0.56709 0.50828
 H141 H 0.47345 0.45359 0.46757
 H142 H 0.46576 0.52172 0.44906
 H143 H 0.54393 0.48695 0.55767
 H144 H 0.53732 0.55517 0.53825
 Zr145 Zr 0.47937 1.01613 0.52318
 O146 O 0.46111 1.00310 0.54319
 O147 O 0.47773 1.04595 0.53075
 O148 O 0.49145 1.01789 0.55047
 O149 O 0.44352 1.01888 0.48864
 O150 O 0.52323 1.00759 0.54674
 O151 O 0.44969 1.02516 0.51937
 O152 O 0.49773 1.06088 0.51007
 O153 O 0.50814 1.02522 0.51895
 O154 O 0.47952 1.03006 0.49715
 O155 O 0.49686 0.99016 0.52444
 O156 O 0.46885 0.99510 0.50399
 Zr157 Zr 0.51660 0.99205 0.47343
 Zr158 Zr 0.52530 0.99920 0.51869
 Zr159 Zr 0.47062 1.00900 0.47794
 Zr160 Zr 0.50823 1.03807 0.49252
 O161 O 0.44859 0.98924 0.46965
 O162 O 0.53318 1.05145 0.50451
 O163 O 0.49907 1.01812 0.47191
 O164 O 0.52681 1.01301 0.49266
 O165 O 0.51663 0.97793 0.49938
 O166 O 0.48785 0.98319 0.47787
 C167 C 0.48584 1.06124 0.52388
 C168 C 0.43829 1.02505 0.50487
 C169 C 0.50894 1.01401 0.55674
 O170 O 0.54899 1.01779 0.52497
 O171 O 0.55131 0.98603 0.50872
 O172 O 0.54557 0.98090 0.47774
 C173 C 0.55647 0.97967 0.49256
 O174 O 0.46693 0.96319 0.52474
 Zr175 Zr 0.48778 0.97011 0.50409
 O176 O 0.51835 0.96224 0.46586
 O177 O 0.53328 0.97489 0.53598
 O178 O 0.50138 0.94955 0.52276
 O179 O 0.46430 0.95481 0.49151
 O180 O 0.50053 0.94711 0.48819
 C181 C 0.51175 0.94681 0.47387
 O182 O 0.53599 1.00485 0.45429
 O183 O 0.46086 1.03417 0.46259
 O184 O 0.50508 0.99201 0.44584
 O185 O 0.47395 1.00433 0.44925
 O186 O 0.49438 1.05997 0.47541
 O187 O 0.52654 1.04562 0.46995
 C188 C 0.48818 0.99772 0.43925
 H189 H 0.47070 1.04184 0.49632
 H190 H 0.54038 1.01679 0.48981
 H191 H 0.48318 0.97391 0.46821
 H192 H 0.49615 0.98387 0.53687
 H193 H 0.53172 1.06588 0.50243
 H194 H 0.55735 1.01073 0.53433
 H195 H 0.54575 0.97823 0.54234
 H196 H 0.49604 0.93638 0.51994
 H197 H 0.50037 1.07278 0.47847
 H198 H 0.44854 1.03058 0.45610
 H199 H 0.44010 0.99638 0.46045
 H200 H 0.46642 0.94057 0.49428
 H201 H 0.53064 1.05948 0.47136
 H202 H 0.54093 0.99405 0.44612
 H203 H 0.45602 1.01390 0.55128
 H204 H 0.46546 0.94869 0.52535
 Zr205 Zr -0.01386 0.51073 1.02219
 O206 O -0.03191 0.49842 1.04278
 O207 O -0.01405 0.54049 1.02974
 O208 O -0.00083 0.51286 1.04910
 O209 O -0.05058 0.51396 0.98854
 O210 O 0.03050 0.50152 1.04471
 O211 O -0.04339 0.52075 1.01897
 O212 O 0.00624 0.55452 1.00874
 O213 O 0.01500 0.51894 1.01702
 O214 O -0.01410 0.52434 0.99601
 O215 O 0.00304 0.48437 1.02340
 O216 O -0.02546 0.48973 1.00357
 Zr217 Zr 0.02133 0.48502 0.97177
 Zr218 Zr 0.03153 0.49256 1.01674
 Zr219 Zr -0.02407 0.50322 0.97730
 Zr220 Zr 0.01466 0.53148 0.99047
 O221 O -0.04684 0.48392 0.96992
 O222 O 0.04070 0.54424 1.00085
 O223 O 0.00440 0.51150 0.97037
 O224 O 0.03260 0.50596 0.99047
 O225 O 0.02175 0.47132 0.99795
 O226 O -0.00748 0.47694 0.97711
 C227 C -0.00498 0.55527 1.02305
 C228 C -0.05520 0.52064 1.00475
 C229 C 0.01677 0.50873 1.05497
 O230 O 0.05585 0.51060 1.02219
 O231 O 0.05692 0.47866 1.00621
 O232 O 0.05026 0.47351 0.97538
 C233 C 0.06155 0.47217 0.98994
 O234 O -0.02795 0.45844 1.02453
 Zr235 Zr -0.00714 0.46431 1.00355
 O236 O 0.02249 0.45498 0.96490
 O237 O 0.03933 0.46826 1.03409
 O238 O 0.00597 0.44377 1.02255
 O239 O -0.03094 0.44914 0.99138
 O240 O 0.00532 0.44074 0.98821
 C241 C 0.01626 0.43986 0.97371
 O242 O 0.04034 0.49702 0.95182
 O243 O -0.03358 0.52840 0.96185
 O244 O 0.00894 0.48490 0.94447
 O245 O -0.02181 0.49794 0.94861
 O246 O 0.00046 0.55378 0.97409
 O247 O 0.03191 0.53820 0.96692
 C248 C -0.00805 0.49087 0.93829
 H249 H -0.02256 0.53641 0.99540
 H250 H 0.04616 0.50937 0.98719
 H251 H -0.01258 0.46759 0.96772
 H252 H 0.00252 0.47833 1.03596
 H253 H 0.03957 0.55866 0.99859
 H254 H 0.06434 0.50341 1.03136
 H255 H 0.05204 0.47136 1.04012
 H256 H 0.00017 0.43073 1.02007
 H257 H 0.00692 0.56641 0.97692
 H258 H -0.04618 0.52506 0.95573
 H259 H -0.05546 0.49115 0.96089
 H260 H -0.02899 0.43493 0.99438
 H261 H 0.03611 0.55208 0.96772
 H262 H 0.04476 0.48597 0.94369
 H263 H -0.03642 0.50944 1.05090
 H264 H -0.03005 0.44404 1.02525
 Zr265 Zr -0.01306 0.48668 0.47523
 O266 O -0.03172 0.49942 0.45448
 O267 O -0.01157 0.45713 0.46697
 O268 O 0.00021 0.48549 0.44865
 O269 O -0.04966 0.48204 0.50778
 O270 O 0.03079 0.49722 0.45418
 O271 O -0.04201 0.47622 0.47738
 O272 O 0.00934 0.44268 0.48823
 O273 O 0.01626 0.47867 0.48096
 O274 O -0.01256 0.47228 0.50104
 O275 O 0.00226 0.51329 0.47523
 O276 O -0.02592 0.50696 0.49412
 Zr277 Zr 0.02048 0.51124 0.52733
 Zr278 Zr 0.03120 0.50525 0.48242
 Zr279 Zr -0.02381 0.49267 0.52004
 Zr280 Zr 0.01660 0.46532 0.50715
 O281 O -0.04770 0.51145 0.52737
 O282 O 0.04330 0.45318 0.49693
 O283 O 0.00512 0.48452 0.52752
 O284 O 0.03301 0.49105 0.50834
 O285 O 0.02016 0.52577 0.50155
 O286 O -0.00878 0.51911 0.52142
 C287 C -0.00186 0.44219 0.47365
 C288 C -0.05386 0.47580 0.49129
 C289 C 0.01756 0.49009 0.44336
 O290 O 0.05657 0.48767 0.47712
 O291 O 0.05575 0.51909 0.49396
 O292 O 0.04874 0.52333 0.52473
 C293 C 0.05998 0.52519 0.51049
 O294 O -0.03006 0.53902 0.47391
 Zr295 Zr -0.00912 0.53261 0.49537
 O296 O 0.01973 0.54101 0.53511
 O297 O 0.03764 0.53017 0.46595
 O298 O 0.00309 0.55388 0.47745
 O299 O -0.03401 0.54695 0.50714
 O300 O 0.00160 0.55583 0.51192
 C301 C 0.01248 0.55633 0.52671
 O302 O 0.04019 0.49889 0.54742
 O303 O -0.03193 0.46690 0.53450
 O304 O 0.00796 0.51031 0.55430
 O305 O -0.02194 0.49696 0.54891
 O306 O 0.00372 0.44248 0.52275
 O307 O 0.03436 0.45805 0.53084
 C308 C -0.00870 0.50389 0.55983
 H309 H -0.02033 0.46011 0.50114
 H310 H 0.04677 0.48771 0.51187
 H311 H -0.01449 0.52807 0.53094
 H312 H 0.00143 0.51971 0.46283
 H313 H 0.04301 0.43868 0.49877
 H314 H 0.06466 0.49523 0.46836
 H315 H 0.05054 0.52742 0.46017
 H316 H -0.00342 0.56679 0.48013
 H317 H 0.01086 0.42998 0.51976
 H318 H -0.04475 0.46988 0.54034
 H319 H -0.05593 0.50384 0.53596
 H320 H -0.03293 0.56128 0.50463
 H321 H 0.03934 0.44425 0.52974
 H322 H 0.04390 0.50974 0.55597
 H323 H -0.03556 0.48861 0.44595
 H324 H -0.03282 0.55344 0.47344
 Zr325 Zr 0.48352 -0.01531 -0.02631
 O326 O 0.46286 -0.00150 -0.04464
 O327 O 0.48509 -0.04404 -0.03694
 O328 O 0.49453 -0.01339 -0.05380
 O329 O 0.45011 -0.02445 0.00840
 O330 O 0.52492 -0.00073 -0.04938
 O331 O 0.45512 -0.02679 -0.02291
 O332 O 0.50823 -0.05941 -0.01848
 O333 O 0.51347 -0.02242 -0.02343
 O334 O 0.48682 -0.03209 -0.00192
 O335 O 0.49771 0.01193 -0.02510
 O336 O 0.47169 0.00244 -0.00478
 Zr337 Zr 0.52055 0.00588 0.02513
 Zr338 Zr 0.52740 0.00465 -0.02073
 Zr339 Zr 0.47663 -0.01419 0.01959
 Zr340 Zr 0.51662 -0.03819 0.00143
 O341 O 0.45294 0.00259 0.03065
 O342 O 0.54249 -0.04805 -0.01213
 O343 O 0.50637 -0.02152 0.02418
 O344 O 0.53202 -0.01189 0.00363
 O345 O 0.51740 0.02286 0.00083
 O346 O 0.49061 0.01273 0.02207
 C347 C 0.49566 -0.05917 -0.03204
 C348 C 0.44455 -0.02897 -0.00825
 C349 C 0.51119 -0.00752 -0.05982
 O350 O 0.55281 -0.01112 -0.02948
 O351 O 0.55245 0.01816 -0.00998
 O352 O 0.54816 0.01920 0.02147
 C353 C 0.55809 0.02267 0.00662
 O354 O 0.46490 0.03642 -0.02216
 Zr355 Zr 0.48744 0.02869 -0.00259
 O356 O 0.51906 0.03465 0.03570
 O357 O 0.53136 0.03139 -0.03536
 O358 O 0.49771 0.05229 -0.01900
 O359 O 0.46267 0.04026 0.01168
 O360 O 0.49776 0.05056 0.01575
 C361 C 0.50975 0.05018 0.02975
 O362 O 0.54222 -0.00747 0.04270
 O363 O 0.47073 -0.04175 0.03206
 O364 O 0.51033 0.00226 0.05274
 O365 O 0.48115 -0.01302 0.04853
 O366 O 0.50616 -0.06282 0.01630
 O367 O 0.53699 -0.04697 0.02268
 C368 C 0.49479 -0.00597 0.05892
 H369 H 0.47947 -0.04452 -0.00224
 H370 H 0.54613 -0.01495 0.00581
 H371 H 0.48530 0.02039 0.03270
 H372 H 0.49559 0.01949 -0.03681
 H373 H 0.54290 -0.06268 -0.01159
 H374 H 0.55976 -0.00239 -0.03818
 H375 H 0.54377 0.02984 -0.04231
 H376 H 0.49102 0.06458 -0.01469
 H377 H 0.51323 -0.07475 0.01166
 H378 H 0.45843 -0.03998 0.03914
 H379 H 0.44589 -0.00629 0.03911
 H380 H 0.46281 0.05485 0.01048
 H381 H 0.54222 -0.06041 0.01995
 H382 H 0.54628 0.00270 0.05183
 H383 H 0.45865 -0.01168 -0.05370
 H384 H 0.46181 0.05075 -0.02128
 Zr385 Zr 0.52148 0.50752 -0.02672
 O386 O 0.54127 0.49533 -0.04635
 O387 O 0.51841 0.53673 -0.03601
 O388 O 0.50885 0.50684 -0.05390
 O389 O 0.55697 0.51488 0.00727
 O390 O 0.47901 0.49330 -0.04925
 O391 O 0.54987 0.51936 -0.02363
 O392 O 0.49612 0.55048 -0.01615
 O393 O 0.49165 0.51387 -0.02251
 O394 O 0.51951 0.52278 -0.00144
 O395 O 0.50781 0.47997 -0.02645
 O396 O 0.53493 0.48871 -0.00656
 Zr397 Zr 0.48817 0.48269 0.02470
 Zr398 Zr 0.47832 0.48644 -0.02078
 Zr399 Zr 0.53132 0.50374 0.01877
 Zr400 Zr 0.48987 0.52811 0.00320
 O401 O 0.55587 0.48671 0.02825
 O402 O 0.46279 0.53828 -0.00852
 O403 O 0.50185 0.51034 0.02470
 O404 O 0.47502 0.50146 0.00452
 O405 O 0.49000 0.46723 -0.00051
 O406 O 0.51793 0.47645 0.02036
 C407 C 0.50759 0.55123 -0.03024
 C408 C 0.56138 0.52058 -0.00925
 C409 C 0.49202 0.50087 -0.05975
 O410 O 0.45223 0.50234 -0.02796
 O411 O 0.45422 0.47182 -0.00981
 O412 O 0.46056 0.46929 0.02139
 C413 C 0.44977 0.46637 0.00677
 O414 O 0.54140 0.45613 -0.02563
 Zr415 Zr 0.51976 0.46208 -0.00519
 O416 O 0.49047 0.45324 0.03345
 O417 O 0.47374 0.46047 -0.03650
 O418 O 0.50915 0.43938 -0.02273
 O419 O 0.54532 0.44993 0.00796
 O420 O 0.51045 0.43883 0.01188
 C421 C 0.49919 0.43816 0.02614
 O422 O 0.46748 0.49456 0.04367
 O423 O 0.53769 0.53065 0.03233
 O424 O 0.49997 0.48499 0.05210
 O425 O 0.52870 0.50079 0.04770
 O426 O 0.50105 0.55222 0.01855
 O427 O 0.47116 0.53513 0.02584
 C428 C 0.51577 0.49309 0.05819
 H429 H 0.52661 0.53537 -0.00146
 H430 H 0.46104 0.50413 0.00732
 H431 H 0.52394 0.46822 0.03042
 H432 H 0.50932 0.47314 -0.03856
 H433 H 0.46215 0.55284 -0.00710
 H434 H 0.44482 0.49395 -0.03675
 H435 H 0.46087 0.46221 -0.04293
 H436 H 0.51635 0.42698 -0.01933
 H437 H 0.49331 0.56419 0.01485
 H438 H 0.55044 0.52865 0.03891
 H439 H 0.56335 0.49520 0.03690
 H440 H 0.54526 0.43545 0.00595
 H441 H 0.46553 0.54863 0.02414
 H442 H 0.46417 0.48379 0.05239
 H443 H 0.54466 0.50612 -0.05501
 H444 H 0.54495 0.44186 -0.02551
 Zr445 Zr 0.01390 1.01191 0.47514
 O446 O 0.03245 0.99938 0.45464
 O447 O 0.01319 1.04171 0.46763
 O448 O 0.00090 1.01410 0.44821
 O449 O 0.05036 1.01482 0.50886
 O450 O -0.03002 1.00303 0.45257
 O451 O 0.04303 1.02169 0.47840
 O452 O -0.00748 1.05608 0.48865
 O453 O -0.01530 1.02039 0.48015
 O454 O 0.01350 1.02559 0.50126
 O455 O -0.00197 0.98567 0.47401
 O456 O 0.02622 0.99086 0.49388
 Zr457 Zr -0.02052 0.98662 0.52557
 Zr458 Zr -0.03079 0.99411 0.48054
 Zr459 Zr 0.02419 1.00444 0.52006
 Zr460 Zr -0.01557 1.03301 0.50664
 O461 O 0.04767 0.98500 0.52769
 O462 O -0.04186 1.04596 0.49569
 O463 O -0.00463 1.01299 0.52686
 O464 O -0.03251 1.00761 0.50672
 O465 O -0.02031 0.97281 0.49947
 O466 O 0.00863 0.97832 0.52035
 C467 C 0.00393 1.05671 0.47448
 C468 C 0.05478 1.02145 0.49266
 C469 C -0.01652 1.01010 0.44234
 O470 O -0.05583 1.01228 0.47494
 O471 O -0.05570 0.98044 0.49097
 O472 O -0.04895 0.97515 0.52180
 C473 C -0.06013 0.97393 0.50720
 O474 O 0.02968 0.95926 0.47285
 Zr475 Zr 0.00889 0.96557 0.49399
 O476 O -0.02021 0.95665 0.53279
 O477 O -0.03758 0.96986 0.46321
 O478 O -0.00378 0.94501 0.47537
 O479 O 0.03359 0.95055 0.50600
 O480 O -0.00209 0.94215 0.50985
 C481 C -0.01295 0.94144 0.52438
 O482 O -0.04024 0.99873 0.54530
 O483 O 0.03272 1.02961 0.53540
 O484 O -0.00830 0.98673 0.55293
 O485 O 0.02203 0.99935 0.54872
 O486 O -0.00247 1.05506 0.52332
 O487 O -0.03350 1.04000 0.52986
 C488 C 0.00851 0.99255 0.55907
 H489 H 0.02154 1.03756 0.50193
 H490 H -0.04623 1.01112 0.50992
 H491 H 0.01413 0.96902 0.52982
 H492 H -0.00119 0.97958 0.46149
 H493 H -0.04130 1.06040 0.49786
 H494 H -0.06397 1.00517 0.46571
 H495 H -0.05039 0.97304 0.45712
 H496 H 0.00247 0.93191 0.47793
 H497 H -0.00932 1.06779 0.52043
 H498 H 0.04544 1.02620 0.54155
 H499 H 0.05599 0.99221 0.53669
 H500 H 0.03230 0.93630 0.50316
 H501 H -0.03832 1.05387 0.52882
 H502 H -0.04420 0.98773 0.55349
 H503 H 0.03661 1.01034 0.44651
 H504 H 0.03213 0.94480 0.47215
 Zr505 Zr 0.74041 0.27282 0.22201
 O506 O 0.75178 0.29039 0.20042
 O507 O 0.71042 0.27340 0.21553
 O508 O 0.73752 0.25906 0.19558
 O509 O 0.73884 0.31082 0.25424
 O510 O 0.74891 0.22759 0.20084
 O511 O 0.73077 0.30265 0.22431
 O512 O 0.69727 0.25437 0.23821
 O513 O 0.73223 0.24399 0.22849
 O514 O 0.72819 0.27398 0.24860
 O515 O 0.76643 0.25561 0.22085
 O516 O 0.76216 0.28489 0.23958
 Zr517 Zr 0.76784 0.23874 0.27314
 Zr518 Zr 0.75837 0.22719 0.22879
 Zr519 Zr 0.74998 0.28445 0.26628
 Zr520 Zr 0.72107 0.24527 0.25544
 O521 O 0.76959 0.30748 0.27199
 O522 O 0.70758 0.21924 0.24577
 O523 O 0.74180 0.25607 0.27458
 O524 O 0.74622 0.22700 0.25545
 O525 O 0.78032 0.23738 0.24665
 O526 O 0.77587 0.26750 0.26644
 C527 C 0.69586 0.26542 0.22359
 C528 C 0.73145 0.31494 0.23805
 C529 C 0.74167 0.24127 0.19017
 O530 O 0.73989 0.20288 0.22462
 O531 O 0.77225 0.20175 0.24004
 O532 O 0.77893 0.20941 0.27038
 C533 C 0.77943 0.19756 0.25628
 O534 O 0.79251 0.28627 0.21759
 Zr535 Zr 0.78728 0.26624 0.23972
 O536 O 0.79784 0.23762 0.27936
 O537 O 0.78178 0.21837 0.21134
 O538 O 0.80676 0.25192 0.22098
 O539 O 0.80281 0.29070 0.25024
 O540 O 0.81123 0.25440 0.25526
 C541 C 0.81255 0.24380 0.27017
 O542 O 0.75663 0.22030 0.29415
 O543 O 0.72585 0.29471 0.28215
 O544 O 0.76928 0.25205 0.29991
 O545 O 0.75661 0.28310 0.29488
 O546 O 0.70012 0.25991 0.27249
 O547 O 0.71530 0.22807 0.27948
 C548 C 0.76394 0.26947 0.30555
 H549 H 0.71635 0.28266 0.24936
 H550 H 0.74287 0.21347 0.25934
 H551 H 0.78557 0.27287 0.27535
 H552 H 0.77197 0.25572 0.20816
 H553 H 0.69339 0.22062 0.24838
 H554 H 0.74658 0.19395 0.21565
 H555 H 0.77836 0.20542 0.20592
 H556 H 0.81987 0.25765 0.22288
 H557 H 0.68736 0.25351 0.27038
 H558 H 0.72952 0.30759 0.28759
 H559 H 0.76293 0.31653 0.28087
 H560 H 0.81678 0.28857 0.24702
 H561 H 0.70154 0.22376 0.27902
 H562 H 0.76788 0.21599 0.30217
 H563 H 0.74053 0.29479 0.19243
 H564 H 0.80680 0.28797 0.21629
 Zr565 Zr 0.76062 0.73198 0.72507
 O566 O 0.74700 0.71271 0.70592
 O567 O 0.78943 0.73187 0.71550
 O568 O 0.76005 0.74393 0.69771
 O569 O 0.76715 0.69659 0.75955
 O570 O 0.74844 0.77544 0.70200
 O571 O 0.77112 0.70246 0.72852
 O572 O 0.80465 0.75349 0.73491
 O573 O 0.76852 0.76148 0.72873
 O574 O 0.77645 0.73326 0.75018
 O575 O 0.73408 0.74840 0.72530
 O576 O 0.74186 0.72083 0.74558
 Zr577 Zr 0.73889 0.76941 0.77610
 Zr578 Zr 0.74210 0.77757 0.73044
 Zr579 Zr 0.75755 0.72378 0.77071
 Zr580 Zr 0.78330 0.76268 0.75428
 O581 O 0.73961 0.70115 0.78081
 O582 O 0.79443 0.78852 0.74194
 O583 O 0.76560 0.75299 0.77608
 O584 O 0.75767 0.78021 0.75559
 O585 O 0.72298 0.76827 0.75100
 O586 O 0.73121 0.73992 0.77232
 C587 C 0.80447 0.74144 0.72101
 C588 C 0.77226 0.69119 0.74305
 C589 C 0.75504 0.76132 0.69167
 O590 O 0.75889 0.80214 0.72284
 O591 O 0.72899 0.80350 0.74101
 O592 O 0.72658 0.79825 0.77230
 C593 C 0.72395 0.80892 0.75749
 O594 O 0.70896 0.71676 0.72699
 Zr595 Zr 0.71631 0.73871 0.74689
 O596 O 0.70986 0.77016 0.78519
 O597 O 0.71631 0.78412 0.71471
 O598 O 0.69397 0.75082 0.72919
 O599 O 0.70318 0.71478 0.76072
 O600 O 0.69418 0.75116 0.76375
 C601 C 0.69433 0.76286 0.77789
 O602 O 0.75209 0.78974 0.79452
 O603 O 0.78418 0.71500 0.78411
 O604 O 0.74137 0.75811 0.80370
 O605 O 0.75591 0.72775 0.79961
 O606 O 0.80688 0.74957 0.76978
 O607 O 0.79182 0.78160 0.77643
 C608 C 0.74914 0.74178 0.80993
 H609 H 0.78856 0.72492 0.75021
 H610 H 0.76104 0.79410 0.75814
 H611 H 0.72302 0.73500 0.78256
 H612 H 0.72697 0.74718 0.71325
 H613 H 0.80891 0.78773 0.74314
 H614 H 0.75080 0.81010 0.71390
 H615 H 0.71853 0.79668 0.70803
 H616 H 0.68143 0.74487 0.73282
 H617 H 0.81907 0.75592 0.76576
 H618 H 0.78167 0.70260 0.79096
 H619 H 0.74786 0.69305 0.78949
 H620 H 0.68882 0.71624 0.75877
 H621 H 0.80546 0.78580 0.77451
 H622 H 0.74180 0.79435 0.80326
 H623 H 0.75727 0.70795 0.69722
 H624 H 0.69469 0.71447 0.72732
 Zr625 Zr 0.22715 0.23703 0.77461
 O626 O 0.23946 0.21719 0.79462
 O627 O 0.19780 0.23863 0.78268
 O628 O 0.22675 0.24925 0.80183
 O629 O 0.22184 0.20165 0.74025
 O630 O 0.23918 0.27992 0.79779
 O631 O 0.21662 0.20803 0.77104
 O632 O 0.18381 0.26093 0.76241
 O633 O 0.21997 0.26700 0.77041
 O634 O 0.21252 0.23906 0.74886
 O635 O 0.25401 0.25168 0.77529
 O636 O 0.24662 0.22446 0.75499
 Zr637 Zr 0.25183 0.27243 0.72420
 Zr638 Zr 0.24678 0.28132 0.76960
 Zr639 Zr 0.23214 0.22815 0.72922
 Zr640 Zr 0.20639 0.26888 0.74426
 O641 O 0.25006 0.20428 0.71994
 O642 O 0.19520 0.29537 0.75628
 O643 O 0.22484 0.25780 0.72329
 O644 O 0.23238 0.28470 0.74384
 O645 O 0.26663 0.27054 0.74990
 O646 O 0.25879 0.24250 0.72856
 C647 C 0.18309 0.24883 0.77624
 C648 C 0.21607 0.19666 0.75658
 C649 C 0.23191 0.26632 0.80795
 O650 O 0.23019 0.30711 0.77624
 O651 O 0.26098 0.30620 0.75932
 O652 O 0.26459 0.30041 0.72823
 C653 C 0.26687 0.31106 0.74302
 O654 O 0.27876 0.21868 0.77516
 Zr655 Zr 0.27255 0.24060 0.75455
 O656 O 0.28118 0.27092 0.71616
 O657 O 0.27194 0.28631 0.78634
 O658 O 0.29439 0.25179 0.77272
 O659 O 0.28556 0.21535 0.74179
 O660 O 0.29561 0.25081 0.73810
 C661 C 0.29622 0.26230 0.72381
 O662 O 0.23990 0.29350 0.70513
 O663 O 0.20591 0.22094 0.71495
 O664 O 0.25027 0.26107 0.69662
 O665 O 0.23506 0.23170 0.70041
 O666 O 0.18339 0.25739 0.72765
 O667 O 0.19927 0.28839 0.72181
 C668 C 0.24249 0.24518 0.69023
 H669 H 0.20033 0.23143 0.74835
 H670 H 0.22940 0.29878 0.74103
 H671 H 0.26728 0.23688 0.71869
 H672 H 0.26055 0.25012 0.78762
 H673 H 0.18078 0.29557 0.75447
 H674 H 0.23804 0.31461 0.78543
 H675 H 0.26969 0.29911 0.79276
 H676 H 0.30696 0.24497 0.76968
 H677 H 0.17114 0.26463 0.73100
 H678 H 0.20848 0.20830 0.70834
 H679 H 0.24204 0.19666 0.71101
 H680 H 0.29987 0.21577 0.74424
 H681 H 0.18573 0.29368 0.72329
 H682 H 0.25066 0.29730 0.69677
 H683 H 0.22867 0.21318 0.80286
 H684 H 0.29301 0.21559 0.77549
 Zr685 Zr 0.26430 0.76640 0.27667
 O686 O 0.25489 0.78462 0.29898
 O687 O 0.29453 0.76427 0.28171
 O688 O 0.26816 0.75217 0.30291
 O689 O 0.26453 0.80463 0.24459
 O690 O 0.25605 0.72147 0.29794
 O691 O 0.27438 0.79567 0.27397
 O692 O 0.30578 0.74418 0.25850
 O693 O 0.27128 0.73705 0.26955
 O694 O 0.27500 0.76694 0.24948
 O695 O 0.23802 0.75102 0.27913
 O696 O 0.24190 0.78017 0.26033
 Zr697 Zr 0.23303 0.73480 0.22685
 Zr698 Zr 0.24483 0.72211 0.27057
 Zr699 Zr 0.25243 0.77908 0.23300
 Zr700 Zr 0.28090 0.73778 0.24206
 O701 O 0.23305 0.80348 0.22827
 O702 O 0.29405 0.71041 0.25030
 O703 O 0.25936 0.75023 0.22412
 O704 O 0.25536 0.72133 0.24328
 O705 O 0.22220 0.73411 0.25401
 O706 O 0.22613 0.76404 0.23412
 C707 C 0.30828 0.75477 0.27321
 C708 C 0.27287 0.80820 0.26039
 C709 C 0.26405 0.73456 0.30835
 O710 O 0.26285 0.69642 0.27355
 O711 O 0.22958 0.69783 0.25997
 O712 O 0.22160 0.70618 0.22998
 C713 C 0.22149 0.69427 0.24404
 O714 O 0.21329 0.78388 0.28373
 Zr715 Zr 0.21641 0.76338 0.26147
 O716 O 0.20260 0.73566 0.22261
 O717 O 0.22231 0.71490 0.28925
 O718 O 0.19782 0.75081 0.28156
 O719 O 0.20068 0.78874 0.25156
 O720 O 0.19129 0.75284 0.24776
 C721 C 0.18873 0.74235 0.23301
 O722 O 0.24229 0.71577 0.20507
 O723 O 0.27593 0.78778 0.21607
 O724 O 0.23065 0.74841 0.20017
 O725 O 0.24424 0.77851 0.20475
 O726 O 0.30142 0.75132 0.22444
 O727 O 0.28471 0.72091 0.21733
 C728 C 0.23616 0.76546 0.19436
 H729 H 0.28700 0.77474 0.24826
 H730 H 0.25813 0.70762 0.23912
 H731 H 0.21605 0.77011 0.22573
 H732 H 0.23324 0.75141 0.29210
 H733 H 0.30807 0.71071 0.24686
 H734 H 0.25647 0.68787 0.28280
 H735 H 0.22571 0.70166 0.29444
 H736 H 0.18485 0.75765 0.28047
 H737 H 0.31403 0.74386 0.22581
 H738 H 0.27229 0.80096 0.21087
 H739 H 0.23944 0.81215 0.21914
 H740 H 0.18693 0.78756 0.25563
 H741 H 0.29837 0.71570 0.21684
 H742 H 0.23044 0.71242 0.19767
 H743 H 0.26675 0.78805 0.30633
 H744 H 0.19921 0.78699 0.28566
 Zr745 Zr 0.23300 0.76609 0.72699
 O746 O 0.24081 0.78429 0.70436
 O747 O 0.20249 0.76543 0.72388
 O748 O 0.22755 0.75251 0.70083
 O749 O 0.23452 0.80386 0.75949
 O750 O 0.24000 0.72120 0.70473
 O751 O 0.22301 0.79571 0.73059
 O752 O 0.19288 0.74562 0.74764
 O753 O 0.22655 0.73696 0.73421
 O754 O 0.22416 0.76669 0.75481
 O755 O 0.25910 0.74963 0.72279
 O756 O 0.25640 0.77866 0.74208
 Zr757 Zr 0.26762 0.73236 0.77451
 Zr758 Zr 0.25292 0.72091 0.73142
 Zr759 Zr 0.24771 0.77765 0.77000
 Zr760 Zr 0.21885 0.73769 0.76228
 O761 O 0.26724 0.80119 0.77366
 O762 O 0.20519 0.71110 0.75441
 O763 O 0.24151 0.74894 0.77898
 O764 O 0.24427 0.72016 0.75930
 O765 O 0.27664 0.73161 0.74672
 O766 O 0.27388 0.76144 0.76714
 C767 C 0.18936 0.75656 0.73324
 C768 C 0.22517 0.80796 0.74422
 C769 C 0.23139 0.73483 0.69493
 O770 O 0.23471 0.69612 0.72914
 O771 O 0.26862 0.69569 0.74082
 O772 O 0.27872 0.70320 0.77034
 C773 C 0.27770 0.69144 0.75619
 O774 O 0.28348 0.78123 0.71686
 Zr775 Zr 0.28180 0.76076 0.73924
 O776 O 0.29823 0.73203 0.77702
 O777 O 0.27423 0.71293 0.71141
 O778 O 0.29912 0.74738 0.71815
 O779 O 0.29784 0.78553 0.74827
 O780 O 0.30785 0.74940 0.75161
 C781 C 0.31141 0.73865 0.76612
 O782 O 0.25999 0.71340 0.79663
 O783 O 0.22546 0.78706 0.78854
 O784 O 0.27161 0.74547 0.80117
 O785 O 0.25784 0.77631 0.79767
 O786 O 0.19964 0.75178 0.78142
 O787 O 0.21678 0.72051 0.78696
 C788 C 0.26653 0.76272 0.80745
 H789 H 0.21225 0.77499 0.75688
 H790 H 0.24178 0.70651 0.76347
 H791 H 0.28445 0.76700 0.77496
 H792 H 0.26302 0.75000 0.70956
 H793 H 0.19145 0.71195 0.75873
 H794 H 0.24046 0.68744 0.71941
 H795 H 0.27049 0.69996 0.70625
 H796 H 0.31212 0.75362 0.71852
 H797 H 0.18699 0.74489 0.78078
 H798 H 0.22939 0.80002 0.79362
 H799 H 0.26150 0.80998 0.78330
 H800 H 0.31131 0.78390 0.74338
 H801 H 0.20323 0.71580 0.78817
 H802 H 0.27233 0.70944 0.80323
 H803 H 0.22849 0.78835 0.69777
 H804 H 0.29741 0.78359 0.71406
 Zr805 Zr 0.27002 0.23163 0.22664
 O806 O 0.25977 0.21501 0.20366
 O807 O 0.30040 0.22999 0.22296
 O808 O 0.27524 0.24579 0.20087
 O809 O 0.26803 0.19298 0.25816
 O810 O 0.26457 0.27753 0.20569
 O811 O 0.27817 0.20136 0.22908
 O812 O 0.31254 0.24831 0.24693
 O813 O 0.27854 0.26010 0.23427
 O814 O 0.28037 0.22964 0.25415
 O815 O 0.24466 0.24966 0.22355
 O816 O 0.24679 0.21994 0.24208
 Zr817 Zr 0.24017 0.26565 0.27579
 Zr818 Zr 0.25292 0.27771 0.23263
 Zr819 Zr 0.25713 0.21955 0.26973
 Zr820 Zr 0.28782 0.25803 0.26204
 O821 O 0.23643 0.19716 0.27357
 O822 O 0.30268 0.28370 0.25376
 O823 O 0.26553 0.24753 0.27913
 O824 O 0.26325 0.27709 0.26022
 O825 O 0.22954 0.26780 0.24836
 O826 O 0.23178 0.23727 0.26799
 C827 C 0.31462 0.23731 0.23241
 C828 C 0.27609 0.18882 0.24246
 C829 C 0.27209 0.26379 0.19546
 O830 O 0.27210 0.30171 0.23072
 O831 O 0.23845 0.30320 0.24295
 O832 O 0.22974 0.29513 0.27253
 C833 C 0.23015 0.30717 0.25859
 O834 O 0.21808 0.21985 0.21750
 Zr835 Zr 0.22228 0.23930 0.24039
 O836 O 0.20984 0.26731 0.27959
 O837 O 0.23121 0.28732 0.21311
 O838 O 0.20448 0.25444 0.22029
 O839 O 0.20541 0.21515 0.24916
 O840 O 0.19766 0.25155 0.25403
 C841 C 0.19562 0.26177 0.26905
 O842 O 0.25032 0.28371 0.29781
 O843 O 0.27989 0.20819 0.28728
 O844 O 0.23711 0.25221 0.30226
 O845 O 0.24884 0.22076 0.29776
 O846 O 0.30710 0.24266 0.28071
 O847 O 0.29235 0.27474 0.28674
 C848 C 0.24160 0.23459 0.30805
 H849 H 0.29180 0.22051 0.25577
 H850 H 0.26663 0.29046 0.26462
 H851 H 0.22139 0.23206 0.27602
 H852 H 0.24003 0.24992 0.21042
 H853 H 0.31660 0.28190 0.25761
 H854 H 0.26631 0.31092 0.22131
 H855 H 0.23531 0.30030 0.20830
 H856 H 0.19114 0.24901 0.22096
 H857 H 0.32012 0.24878 0.27987
 H858 H 0.27546 0.19538 0.29221
 H859 H 0.24224 0.18778 0.28282
 H860 H 0.19176 0.21771 0.24477
 H861 H 0.30616 0.27888 0.28739
 H862 H 0.23867 0.28813 0.30497
 H863 H 0.27145 0.21033 0.19666
 H864 H 0.20387 0.21847 0.21503
 Zr865 Zr 0.74100 0.73515 0.27425
 O866 O 0.75514 0.71505 0.29293
 O867 O 0.71298 0.73768 0.28554
 O868 O 0.74381 0.74758 0.30126
 O869 O 0.73027 0.69992 0.24100
 O870 O 0.75754 0.77737 0.29578
 O871 O 0.72903 0.70665 0.27213
 O872 O 0.69734 0.76033 0.26673
 O873 O 0.73419 0.76525 0.27057
 O874 O 0.72353 0.73744 0.25015
 O875 O 0.76815 0.74897 0.27201
 O876 O 0.75770 0.72189 0.25280
 Zr877 Zr 0.76056 0.76954 0.22121
 Zr878 Zr 0.76111 0.77874 0.26684
 Zr879 Zr 0.74044 0.72586 0.22863
 Zr880 Zr 0.71769 0.76735 0.24596
 O881 O 0.75645 0.70121 0.21817
 O882 O 0.70864 0.79431 0.25860
 O883 O 0.73326 0.75566 0.22320
 O884 O 0.74387 0.78240 0.24270
 O885 O 0.77819 0.76735 0.24524
 O886 O 0.76723 0.73948 0.22510
 C887 C 0.69796 0.74838 0.28073
 C888 C 0.72622 0.69531 0.25793
 C889 C 0.75075 0.76422 0.30675
 O890 O 0.74590 0.80472 0.27540
 O891 O 0.77417 0.80336 0.25482
 O892 O 0.77398 0.79741 0.22353
 C893 C 0.77803 0.80811 0.23792
 O894 O 0.79162 0.71504 0.26936
 Zr895 Zr 0.78384 0.73730 0.24952
 O896 O 0.78889 0.76776 0.21047
 O897 O 0.78838 0.78334 0.28034
 O898 O 0.80789 0.74762 0.26548
 O899 O 0.79483 0.71192 0.23542
 O900 O 0.80517 0.74730 0.23094
 C901 C 0.80452 0.75902 0.21678
 O902 O 0.74675 0.79044 0.20311
 O903 O 0.71264 0.71965 0.21688
 O904 O 0.75626 0.75779 0.19407
 O905 O 0.74081 0.72886 0.19954
 O906 O 0.69253 0.75634 0.23219
 O907 O 0.70852 0.78677 0.22407
 C908 C 0.74776 0.74191 0.18857
 H909 H 0.71111 0.73026 0.25102
 H910 H 0.74089 0.79653 0.24011
 H911 H 0.77451 0.73362 0.21452
 H912 H 0.77605 0.74724 0.28359
 H913 H 0.69411 0.79485 0.25833
 H914 H 0.75502 0.81209 0.28353
 H915 H 0.78724 0.79617 0.28692
 H916 H 0.81983 0.74047 0.26115
 H917 H 0.68098 0.76394 0.23681
 H918 H 0.71403 0.70686 0.21025
 H919 H 0.74728 0.69376 0.21018
 H920 H 0.80932 0.71207 0.23640
 H921 H 0.69532 0.79234 0.22681
 H922 H 0.75655 0.79404 0.19365
 H923 H 0.74534 0.71141 0.30238
 H924 H 0.80571 0.71149 0.26822
 Zr925 Zr 0.75201 0.27387 0.77803
 O926 O 0.73949 0.29548 0.79588
 O927 O 0.78031 0.27053 0.78925
 O928 O 0.74976 0.26282 0.80566
 O929 O 0.76292 0.30666 0.74281
 O930 O 0.73390 0.23380 0.80174
 O931 O 0.76504 0.30177 0.77426
 O932 O 0.79403 0.24593 0.77169
 O933 O 0.75715 0.24333 0.77581
 O934 O 0.76858 0.26937 0.75398
 O935 O 0.72409 0.26137 0.77661
 O936 O 0.73524 0.28664 0.75597
 Zr937 Zr 0.72898 0.23759 0.72684
 Zr938 Zr 0.72944 0.23106 0.77291
 Zr939 Zr 0.75150 0.28047 0.73196
 Zr940 Zr 0.77277 0.23904 0.75128
 O941 O 0.73639 0.30516 0.72007
 O942 O 0.78088 0.21233 0.76513
 O943 O 0.75703 0.25015 0.72802
 O944 O 0.74574 0.22521 0.74893
 O945 O 0.71218 0.24200 0.75080
 O946 O 0.72395 0.26809 0.72926
 C947 C 0.79451 0.25863 0.78506
 C948 C 0.76763 0.31218 0.75940
 C949 C 0.74200 0.24695 0.81199
 O950 O 0.74367 0.20494 0.78283
 O951 O 0.71493 0.20646 0.76231
 O952 O 0.71465 0.21038 0.73074
 C953 C 0.71056 0.20073 0.74571
 O954 O 0.70190 0.29591 0.77246
 Zr955 Zr 0.70822 0.27247 0.75359
 O956 O 0.70043 0.24045 0.71607
 O957 O 0.70234 0.22864 0.78667
 O958 O 0.68414 0.26391 0.76993
 O959 O 0.69831 0.29784 0.73853
 O960 O 0.68592 0.26311 0.73527
 C961 C 0.68555 0.25071 0.72167
 O962 O 0.74107 0.21513 0.70965
 O963 O 0.77931 0.28464 0.71998
 O964 O 0.73303 0.24765 0.69909
 O965 O 0.75023 0.27588 0.70308
 O966 O 0.79805 0.24808 0.73695
 O967 O 0.78031 0.21811 0.73032
 C968 C 0.74225 0.26269 0.69278
 H969 H 0.78135 0.27601 0.75445
 H970 H 0.74799 0.21085 0.74709
 H971 H 0.71668 0.27378 0.71842
 H972 H 0.71665 0.26411 0.78812
 H973 H 0.79537 0.21102 0.76480
 H974 H 0.73443 0.19848 0.79133
 H975 H 0.70301 0.21615 0.79390
 H976 H 0.67238 0.27133 0.76529
 H977 H 0.80936 0.24017 0.74191
 H978 H 0.77836 0.29706 0.71266
 H979 H 0.74570 0.31167 0.71167
 H980 H 0.68383 0.29858 0.73946
 H981 H 0.79337 0.21211 0.73323
 H982 H 0.73076 0.21158 0.70045
 H983 H 0.74982 0.29911 0.80502
 H984 H 0.68789 0.29990 0.77127
 C985 C 0.42634 1.01429 0.28933
 C986 C 0.43711 0.99730 0.29457
 C987 C 0.43578 0.98020 0.28380
 C988 C 0.42309 0.97981 0.26839
 C989 C 0.41085 0.99630 0.26375
 C990 C 0.41361 1.01394 0.27389
 C991 C 0.44836 0.99696 0.31172
 C992 C 0.45680 0.99648 0.32660
 C993 C 0.46532 0.99593 0.34466
 C994 C 0.47118 0.99569 0.36061
 C995 C 0.47612 0.99592 0.38020
 C996 C 0.49480 0.99023 0.38693
 C997 C 0.49891 0.99063 0.40618
 C998 C 0.48434 0.99673 0.41883
 C999 C 0.46565 1.00230 0.41177
 C1000 C 0.46163 1.00189 0.39270
 H1001 H 0.42756 1.02777 0.29737
 H1002 H 0.44422 0.96700 0.28755
 H1003 H 0.42221 0.96628 0.26040
 H1004 H 0.40603 1.02756 0.27008
 H1005 H 0.50613 0.98553 0.37735
 H1006 H 0.51343 0.98626 0.41112
 H1007 H 0.45400 1.00706 0.42098
 H1008 H 0.44712 1.00627 0.38769
 C1009 C -0.07443 0.47818 0.79021
 C1010 C -0.06452 0.49515 0.79545
 C1011 C -0.06732 0.51251 0.78506
 C1012 C -0.08053 0.51304 0.76992
 C1013 C -0.09189 0.49647 0.76537
 C1014 C -0.08764 0.47869 0.77520
 C1015 C -0.05242 0.49473 0.81210
 C1016 C -0.04335 0.49386 0.82665
 C1017 C -0.03412 0.49252 0.84440
 C1018 C -0.02771 0.49140 0.86015
 C1019 C -0.02216 0.49038 0.87961
 C1020 C -0.03680 0.49311 0.89285
 C1021 C -0.03212 0.49281 0.91181
 C1022 C -0.01261 0.48976 0.91801
 C1023 C 0.00208 0.48658 0.90463
 C1024 C -0.00268 0.48694 0.88549
 H1025 H -0.07207 0.46450 0.79786
 H1026 H -0.05947 0.52570 0.78876
 H1027 H -0.08223 0.52659 0.76199
 H1028 H -0.09439 0.46496 0.77138
 H1029 H -0.05191 0.49568 0.88852
 H1030 H -0.04389 0.49516 0.92162
 H1031 H 0.01722 0.48423 0.90893
 H1032 H 0.00879 0.48475 0.87535
 C1033 C 0.06572 -0.01263 0.78718
 C1034 C 0.06908 0.00085 0.80157
 C1035 C 0.08475 0.01367 0.80038
 C1036 C 0.09634 0.01384 0.78448
 C1037 C 0.09204 0.00168 0.76898
 C1038 C 0.07736 -0.01252 0.77123
 C1039 C 0.05682 0.00149 0.81780
 C1040 C 0.04719 0.00240 0.83178
 C1041 C 0.03693 0.00343 0.84877
 C1042 C 0.02938 0.00378 0.86389
 C1043 C 0.02227 0.00310 0.88271
 C1044 C 0.03063 -0.01101 0.89477
 C1045 C 0.02560 -0.01118 0.91350
 C1046 C 0.01202 0.00276 0.92063
 C1047 C 0.00305 0.01654 0.90835
 C1048 C 0.00828 0.01679 0.88943
 H1049 H 0.05401 -0.02310 0.78819
 H1050 H 0.08800 0.02363 0.81176
 H1051 H 0.10862 0.02362 0.78455
 H1052 H 0.07436 -0.02300 0.76022
 H1053 H 0.04144 -0.02166 0.88978
 H1054 H 0.03258 -0.02220 0.92248
 H1055 H -0.00745 0.02742 0.91346
 H1056 H 0.00176 0.02784 0.88020
 C1057 C 0.59399 0.50529 0.30442
 C1058 C 0.57429 0.51145 0.30411
 C1059 C 0.56495 0.51557 0.28706
 C1060 C 0.57519 0.51343 0.27038
 C1061 C 0.59496 0.50655 0.27032
 C1062 C 0.60427 0.50314 0.28777
 C1063 C 0.56395 0.51419 0.32138
 C1064 C 0.55580 0.51643 0.33610
 C1065 C 0.54710 0.51883 0.35378
 C1066 C 0.54067 0.52051 0.36932
 C1067 C 0.53454 0.52187 0.38845
 C1068 C 0.51467 0.52191 0.39327
 C1069 C 0.50929 0.52145 0.41211
 C1070 C 0.52379 0.52070 0.42624
 C1071 C 0.54363 0.52138 0.42118
 C1072 C 0.54892 0.52197 0.40249
 H1073 H 0.60152 0.50243 0.31756
 H1074 H 0.54983 0.52082 0.28667
 H1075 H 0.56763 0.51778 0.25765
 H1076 H 0.61967 0.49893 0.28850
 H1077 H 0.50340 0.52179 0.38251
 H1078 H 0.49392 0.52085 0.41558
 H1079 H 0.55516 0.52101 0.43170
 H1080 H 0.56432 0.52197 0.39897
 C1081 C 0.58671 0.51524 0.20225
 C1082 C 0.57195 0.50127 0.20116
 C1083 C 0.56849 0.48915 0.21648
 C1084 C 0.57963 0.49107 0.23283
 C1085 C 0.59420 0.50553 0.23448
 C1086 C 0.59789 0.51720 0.21860
 C1087 C 0.56106 0.49880 0.18399
 C1088 C 0.55250 0.49693 0.16929
 C1089 C 0.54334 0.49519 0.15159
 C1090 C 0.53657 0.49433 0.13599
 C1091 C 0.53011 0.49433 0.11677
 C1092 C 0.51507 0.48217 0.11037
 C1093 C 0.50991 0.48193 0.09134
 C1094 C 0.51989 0.49375 0.07856
 C1095 C 0.53468 0.50614 0.08532
 C1096 C 0.53970 0.50640 0.10419
 H1097 H 0.58987 0.52437 0.19029
 H1098 H 0.55740 0.47798 0.21570
 H1099 H 0.57697 0.48112 0.24431
 H1100 H 0.60977 0.52747 0.21844
 H1101 H 0.50755 0.47273 0.12001
 H1102 H 0.49849 0.47224 0.08658
 H1103 H 0.54258 0.51560 0.07599
 H1104 H 0.55133 0.51589 0.10894
 C1105 C 0.08638 1.00293 0.69911
 C1106 C 0.06603 1.00495 0.70053
 C1107 C 0.05765 1.00831 0.71796
 C1108 C 0.06949 1.00851 0.73404
 C1109 C 0.08992 1.00451 0.73306
 C1110 C 0.09822 1.00309 0.71514
 C1111 C 0.05391 1.00303 0.68405
 C1112 C 0.04464 1.00093 0.66978
 C1113 C 0.03512 0.99823 0.65239
 C1114 C 0.02849 0.99600 0.63688
 C1115 C 0.02284 0.99376 0.61759
 C1116 C 0.00335 0.99085 0.61195
 C1117 C -0.00150 0.98975 0.59287
 C1118 C 0.01312 0.99167 0.57934
 C1119 C 0.03267 0.99403 0.58532
 C1120 C 0.03743 0.99507 0.60420
 H1121 H 0.09312 1.00078 0.68564
 H1122 H 0.04195 1.01057 0.71916
 H1123 H 0.06242 1.01173 0.74711
 H1124 H 0.11392 1.00112 0.71364
 H1125 H -0.00809 0.98976 0.62222
 H1126 H -0.01667 0.98796 0.58872
 H1127 H 0.04437 0.99540 0.57537
 H1128 H 0.05255 0.99725 0.60838
 C1129 C -0.07647 0.51534 0.70646
 C1130 C -0.06647 0.49810 0.70106
 C1131 C -0.06884 0.48070 0.71127
 C1132 C -0.08158 0.48048 0.72647
 C1133 C -0.09289 0.49746 0.73132
 C1134 C -0.08920 0.51516 0.72154
 C1135 C -0.05449 0.49840 0.68461
 C1136 C -0.04539 0.49927 0.67029
 C1137 C -0.03602 0.50067 0.65284
 C1138 C -0.02941 0.50187 0.63733
 C1139 C -0.02358 0.50295 0.61808
 C1140 C -0.03755 0.49895 0.60430
 C1141 C -0.03263 0.49960 0.58553
 C1142 C -0.01353 0.50429 0.58001
 C1143 C 0.00048 0.50861 0.59393
 C1144 C -0.00453 0.50792 0.61289
 H1145 H -0.07444 0.52904 0.69897
 H1146 H -0.06091 0.46728 0.70745
 H1147 H -0.08283 0.46693 0.73434
 H1148 H -0.09589 0.52911 0.72556
 H1149 H -0.05234 0.49520 0.60808
 H1150 H -0.04392 0.49630 0.57533
 H1151 H 0.01529 0.51225 0.59018
 H1152 H 0.00642 0.51113 0.62345
 C1153 C 0.43382 0.00896 0.21000
 C1154 C 0.43573 -0.00818 0.19929
 C1155 C 0.42559 -0.02506 0.20438
 C1156 C 0.41310 -0.02462 0.21976
 C1157 C 0.40999 -0.00702 0.23002
 C1158 C 0.42137 0.00944 0.22531
 C1159 C 0.44748 -0.00812 0.18269
 C1160 C 0.45671 -0.00781 0.16843
 C1161 C 0.46664 -0.00744 0.15123
 C1162 C 0.47409 -0.00741 0.13604
 C1163 C 0.48141 -0.00802 0.11725
 C1164 C 0.47386 -0.02195 0.10490
 C1165 C 0.47893 -0.02164 0.08614
 C1166 C 0.49171 -0.00738 0.07931
 C1167 C 0.49998 0.00610 0.09191
 C1168 C 0.49474 0.00585 0.11081
 H1169 H 0.44177 0.02206 0.20639
 H1170 H 0.42728 -0.03857 0.19642
 H1171 H 0.40615 -0.03819 0.22354
 H1172 H 0.42020 0.02296 0.23333
 H1173 H 0.46355 -0.03273 0.10967
 H1174 H 0.47244 -0.03236 0.07686
 H1175 H 0.50978 0.01729 0.08704
 H1176 H 0.50063 0.01677 0.12023
 C1177 C 0.31132 0.36673 0.00133
 C1178 C 0.31106 0.38657 0.00674
 C1179 C 0.29311 0.39621 0.01016
 C1180 C 0.27552 0.38614 0.00808
 C1181 C 0.27542 0.36625 0.00201
 C1182 C 0.29378 0.35663 -0.00076
 C1183 C 0.32921 0.39694 0.00895
 C1184 C 0.34443 0.40562 0.01052
 C1185 C 0.36227 0.41587 0.01181
 C1186 C 0.37745 0.42472 0.01217
 C1187 C 0.39547 0.43547 0.01141
 C1188 C 0.40043 0.44470 -0.00527
 C1189 C 0.41793 0.45483 -0.00659
 C1190 C 0.43092 0.45599 0.00878
 C1191 C 0.42577 0.44683 0.02561
 C1192 C 0.40816 0.43661 0.02689
 H1193 H 0.32512 0.35897 -0.00110
 H1194 H 0.29271 0.41147 0.01472
 H1195 H 0.26212 0.39392 0.01178
 H1196 H 0.29452 0.34113 -0.00444
 H1197 H 0.39078 0.44396 -0.01735
 H1198 H 0.42128 0.46172 -0.01978
 H1199 H 0.43544 0.44736 0.03768
 H1200 H 0.40450 0.42950 0.03989
 C1201 C -0.21098 0.89470 0.48975
 C1202 C -0.19647 0.89007 0.50311
 C1203 C -0.19894 0.87402 0.51502
 C1204 C -0.21607 0.86313 0.51413
 C1205 C -0.23163 0.86847 0.50170
 C1206 C -0.22818 0.88379 0.48881
 C1207 C -0.17896 0.90159 0.50465
 C1208 C -0.16425 0.91109 0.50620
 C1209 C -0.14695 0.92217 0.50797
 C1210 C -0.13218 0.93164 0.50907
 C1211 C -0.11456 0.94306 0.50949
 C1212 C -0.10113 0.94154 0.52443
 C1213 C -0.08361 0.95201 0.52408
 C1214 C -0.07929 0.96406 0.50872
 C1215 C -0.09312 0.96576 0.49401
 C1216 C -0.11055 0.95537 0.49443
 H1217 H -0.20906 0.90680 0.48009
 H1218 H -0.18754 0.86984 0.52501
 H1219 H -0.21680 0.85040 0.52316
 H1220 H -0.23910 0.88762 0.47826
 H1221 H -0.10404 0.93203 0.53618
 H1222 H -0.07325 0.95028 0.53556
 H1223 H -0.09039 0.97493 0.48199
 H1224 H -0.12079 0.95672 0.48280
 C1225 C -0.21434 0.10601 0.98211
 C1226 C -0.20093 0.10489 0.99699
 C1227 C -0.20522 0.11487 1.01359
 C1228 C -0.22232 0.12665 1.01502
 C1229 C -0.23522 0.12926 0.99958
 C1230 C -0.23141 0.11774 0.98350
 C1231 C -0.18270 0.09374 0.99508
 C1232 C -0.16735 0.08462 0.99343
 C1233 C -0.14927 0.07400 0.99172
 C1234 C -0.13384 0.06489 0.99075
 C1235 C -0.11544 0.05381 0.99054
 C1236 C -0.11035 0.04172 1.00574
 C1237 C -0.09237 0.03144 1.00624
 C1238 C -0.07900 0.03299 0.99150
 C1239 C -0.08432 0.04493 0.97607
 C1240 C -0.10242 0.05530 0.97563
 H1241 H -0.21147 0.09804 0.96930
 H1242 H -0.19527 0.11366 1.02544
 H1243 H -0.22524 0.13359 1.02828
 H1244 H -0.24139 0.11850 0.97165
 H1245 H -0.12024 0.04039 1.01736
 H1246 H -0.08889 0.02236 1.01833
 H1247 H -0.07438 0.04656 0.96454
 H1248 H -0.10614 0.06464 0.96377
 C1249 C 0.28885 0.60570 0.48647
 C1250 C 0.30515 0.61075 0.49731
 C1251 C 0.30347 0.62630 0.51006
 C1252 C 0.28561 0.63666 0.51208
 C1253 C 0.26876 0.63136 0.50171
 C1254 C 0.27099 0.61603 0.48844
 C1255 C 0.32368 0.60021 0.49516
 C1256 C 0.33921 0.59141 0.49360
 C1257 C 0.35743 0.58101 0.49221
 C1258 C 0.37295 0.57202 0.49159
 C1259 C 0.39140 0.56105 0.49178
 C1260 C 0.39584 0.54831 0.50668
 C1261 C 0.41388 0.53814 0.50759
 C1262 C 0.42792 0.54046 0.49355
 C1263 C 0.42324 0.55306 0.47841
 C1264 C 0.40511 0.56331 0.47756
 H1265 H 0.28999 0.59391 0.47630
 H1266 H 0.31607 0.63065 0.51828
 H1267 H 0.28531 0.64917 0.52144
 H1268 H 0.25881 0.61213 0.47947
 H1269 H 0.38540 0.54641 0.51778
 H1270 H 0.41687 0.52856 0.51944
 H1271 H 0.43372 0.55529 0.46742
 H1272 H 0.40190 0.57315 0.46595
 C1273 C 0.19506 0.62866 0.50202
 C1274 C 0.19622 0.60904 0.50814
 C1275 C 0.21460 0.60029 0.51198
 C1276 C 0.23172 0.61102 0.50966
 C1277 C 0.23090 0.63070 0.50294
 C1278 C 0.21213 0.63942 0.49969
 C1279 C 0.17854 0.59800 0.51071
 C1280 C 0.16374 0.58875 0.51263
 C1281 C 0.14637 0.57780 0.51438
 C1282 C 0.13159 0.56831 0.51517
 C1283 C 0.11403 0.55673 0.51495
 C1284 C 0.10040 0.55792 0.52944
 C1285 C 0.08300 0.54724 0.52840
 C1286 C 0.07899 0.53531 0.51278
 C1287 C 0.09301 0.53397 0.49854
 C1288 C 0.11031 0.54455 0.49964
 H1289 H 0.18092 0.63575 0.49925
 H1290 H 0.21572 0.58524 0.51708
 H1291 H 0.24548 0.60395 0.51372
 H1292 H 0.21068 0.65475 0.49549
 H1293 H 0.10307 0.56733 0.54137
 H1294 H 0.07249 0.54871 0.53953
 H1295 H 0.09052 0.52490 0.48634
 H1296 H 0.12068 0.54344 0.48835
 C1297 C 0.70977 0.10487 0.01703
 C1298 C 0.69611 0.10398 0.00239
 C1299 C 0.69952 0.11436 -0.01412
 C1300 C 0.71592 0.12635 -0.01562
 C1301 C 0.72894 0.12876 -0.00034
 C1302 C 0.72613 0.11681 0.01556
 C1303 C 0.67847 0.09276 0.00452
 C1304 C 0.66360 0.08360 0.00641
 C1305 C 0.64604 0.07297 0.00838
 C1306 C 0.63101 0.06390 0.00945
 C1307 C 0.61304 0.05294 0.00953
 C1308 C 0.60731 0.04310 -0.00669
 C1309 C 0.58969 0.03305 -0.00737
 C1310 C 0.57731 0.03258 0.00822
 C1311 C 0.58329 0.04221 0.02467
 C1312 C 0.60104 0.05238 0.02529
 H1313 H 0.70760 0.09661 0.02975
 H1314 H 0.68937 0.11334 -0.02579
 H1315 H 0.71816 0.13370 -0.02877
 H1316 H 0.73624 0.11746 0.02729
 H1317 H 0.61641 0.04337 -0.01897
 H1318 H 0.58573 0.02575 -0.02026
 H1319 H 0.57411 0.04222 0.03688
 H1320 H 0.60528 0.05996 0.03795
 C1321 C 0.69458 0.87336 0.49708
 C1322 C 0.69529 0.89380 0.49954
 C1323 C 0.71321 0.90243 0.50391
 C1324 C 0.73047 0.89083 0.50496
 C1325 C 0.73026 0.87036 0.50098
 C1326 C 0.71176 0.86175 0.49811
 C1327 C 0.67764 0.90585 0.49742
 C1328 C 0.66278 0.91575 0.49550
 C1329 C 0.64527 0.92724 0.49339
 C1330 C 0.63026 0.93700 0.49202
 C1331 C 0.61227 0.94867 0.49125
 C1332 C 0.59925 0.94733 0.47604
 C1333 C 0.58131 0.95790 0.47606
 C1334 C 0.57614 0.96987 0.49138
 C1335 C 0.58957 0.97142 0.50635
 C1336 C 0.60744 0.96093 0.50626
 H1337 H 0.68076 0.86639 0.49410
 H1338 H 0.71387 0.91818 0.50644
 H1339 H 0.74381 0.89808 0.50893
 H1340 H 0.71076 0.84598 0.49591
 H1341 H 0.60280 0.93785 0.46434
 H1342 H 0.57127 0.95626 0.46438
 H1343 H 0.58617 0.98052 0.51835
 H1344 H 0.61736 0.96212 0.51811
 C1345 C 0.21838 0.39310 0.98396
 C1346 C 0.20200 0.38911 0.99473
 C1347 C 0.20317 0.37399 1.00803
 C1348 C 0.22061 0.36298 1.01064
 C1349 C 0.23756 0.36720 1.00032
 C1350 C 0.23583 0.38212 0.98654
 C1351 C 0.18388 0.40027 0.99196
 C1352 C 0.16867 0.40957 0.98990
 C1353 C 0.15079 0.42051 0.98799
 C1354 C 0.13554 0.42991 0.98701
 C1355 C 0.11735 0.44128 0.98690
 C1356 C 0.11283 0.45320 1.00224
 C1357 C 0.09491 0.46355 1.00294
 C1358 C 0.08110 0.46222 0.98825
 C1359 C 0.08590 0.45053 0.97264
 C1360 C 0.10391 0.44009 0.97201
 H1361 H 0.21761 0.40455 0.97340
 H1362 H 0.19046 0.37046 1.01620
 H1363 H 0.22049 0.35082 1.02040
 H1364 H 0.24807 0.38518 0.97760
 H1365 H 0.12306 0.45427 1.01385
 H1366 H 0.09180 0.47243 1.01515
 H1367 H 0.07558 0.44908 0.96116
 H1368 H 0.10721 0.43088 0.96005
 C1369 C -0.01646 0.29853 0.38246
 C1370 C -0.00325 0.30352 0.39661
 C1371 C 0.01295 0.29125 0.40061
 C1372 C 0.01578 0.27376 0.39074
 C1373 C 0.00209 0.26784 0.37703
 C1374 C -0.01368 0.28099 0.37253
 C1375 C -0.00579 0.32155 0.40673
 C1376 C -0.00718 0.33663 0.41542
 C1377 C -0.00793 0.35420 0.42571
 C1378 C -0.00788 0.36926 0.43450
 C1379 C -0.00712 0.38727 0.44484
 C1380 C 0.00507 0.38841 0.46059
 C1381 C 0.00669 0.40626 0.47011
 C1382 C -0.00387 0.42316 0.46391
 C1383 C -0.01628 0.42174 0.44816
 C1384 C -0.01786 0.40388 0.43868
 H1385 H -0.02874 0.30831 0.37894
 H1386 H 0.02350 0.29527 0.41129
 H1387 H 0.02864 0.26465 0.39391
 H1388 H -0.02371 0.27808 0.36114
 H1389 H 0.01349 0.37557 0.46536
 H1390 H 0.01634 0.40684 0.48219
 H1391 H -0.02466 0.43445 0.44304
 H1392 H -0.02726 0.40309 0.42643
 C1393 C 0.49890 -0.21341 -0.09718
 C1394 C 0.48457 -0.20006 -0.10380
 C1395 C 0.47429 -0.20396 -0.12028
 C1396 C 0.47845 -0.22120 -0.13025
 C1397 C 0.49270 -0.23511 -0.12365
 C1398 C 0.50312 -0.23061 -0.10712
 C1399 C 0.48205 -0.18145 -0.09464
 C1400 C 0.48120 -0.16573 -0.08697
 C1401 C 0.48165 -0.14738 -0.07796
 C1402 C 0.48317 -0.13183 -0.07015
 C1403 C 0.48610 -0.11356 -0.06066
 C1404 C 0.47506 -0.09668 -0.06561
 C1405 C 0.47833 -0.07885 -0.05647
 C1406 C 0.49273 -0.07777 -0.04229
 C1407 C 0.50382 -0.09485 -0.03755
 C1408 C 0.50051 -0.11262 -0.04670
 H1409 H 0.50730 -0.21021 -0.08467
 H1410 H 0.46359 -0.19334 -0.12578
 H1411 H 0.47103 -0.22309 -0.14351
 H1412 H 0.51491 -0.24026 -0.10209
 H1413 H 0.46394 -0.09731 -0.07650
 H1414 H 0.46949 -0.06599 -0.06042
 H1415 H 0.51499 -0.09455 -0.02670
 H1416 H 0.50919 -0.12565 -0.04289
 C1417 C 0.00888 -0.22172 1.08683
 C1418 C 0.01590 -0.20419 1.09428
 C1419 C 0.01846 -0.20216 1.11350
 C1420 C 0.01410 -0.21773 1.12531
 C1421 C 0.00761 -0.23589 1.11808
 C1422 C 0.00451 -0.23735 1.09860
 C1423 C 0.01847 -0.18751 1.08244
 C1424 C 0.01966 -0.17302 1.07296
 C1425 C 0.01988 -0.15553 1.06257
 C1426 C 0.01909 -0.14012 1.05435
 C1427 C 0.01714 -0.12132 1.04541
 C1428 C 0.00375 -0.11866 1.03067
 C1429 C 0.00033 -0.09987 1.02318
 C1430 C 0.01024 -0.08354 1.03047
 C1431 C 0.02392 -0.08648 1.04512
 C1432 C 0.02730 -0.10528 1.05256
 H1433 H 0.00618 -0.22309 1.07197
 H1434 H 0.02333 -0.18836 1.11941
 H1435 H 0.01564 -0.21561 1.14022
 H1436 H -0.00195 -0.25021 1.09233
 H1437 H -0.00432 -0.13104 1.02523
 H1438 H -0.01022 -0.09812 1.01187
 H1439 H 0.03189 -0.07425 1.05097
 H1440 H 0.03755 -0.10724 1.06411
 C1441 C 0.49802 0.30620 0.60364
 C1442 C 0.51019 0.30203 0.58859
 C1443 C 0.51554 0.28252 0.58443
 C1444 C 0.50834 0.26715 0.59515
 C1445 C 0.49507 0.27098 0.60979
 C1446 C 0.49077 0.29091 0.61432
 C1447 C 0.51661 0.31804 0.57737
 C1448 C 0.52066 0.33239 0.56853
 C1449 C 0.52367 0.35009 0.55893
 C1450 C 0.52473 0.36583 0.55137
 C1451 C 0.52424 0.38507 0.54311
 C1452 C 0.53288 0.40082 0.55243
 C1453 C 0.52997 0.42007 0.54583
 C1454 C 0.51823 0.42374 0.52986
 C1455 C 0.51004 0.40769 0.52033
 C1456 C 0.51300 0.38848 0.52696
 H1457 H 0.49416 0.32135 0.60718
 H1458 H 0.52526 0.27920 0.57296
 H1459 H 0.51302 0.25215 0.59196
 H1460 H 0.48213 0.29491 0.62633
 H1461 H 0.54139 0.39830 0.56510
 H1462 H 0.53659 0.43207 0.55343
 H1463 H 0.50103 0.40997 0.50794
 H1464 H 0.50604 0.37635 0.51982
 C1465 C 0.46841 1.22120 0.58228
 C1466 C 0.46727 1.20304 0.59139
 C1467 C 0.47144 1.20163 0.61044
 C1468 C 0.47776 1.21811 0.62019
 C1469 C 0.48071 1.23619 0.61091
 C1470 C 0.47468 1.23777 0.59203
 C1471 C 0.46416 1.18538 0.58095
 C1472 C 0.46321 1.17011 0.57255
 C1473 C 0.46398 1.15194 0.56319
 C1474 C 0.46609 1.13627 0.55560
 C1475 C 0.47008 1.11758 0.54699
 C1476 C 0.48355 1.11633 0.53249
 C1477 C 0.48879 1.09798 0.52502
 C1478 C 0.48063 1.08064 0.53205
 C1479 C 0.46697 1.08209 0.54658
 C1480 C 0.46177 1.10049 0.55402
 H1481 H 0.46490 1.22245 0.56754
 H1482 H 0.47043 1.18762 0.61765
 H1483 H 0.48110 1.21659 0.63492
 H1484 H 0.47491 1.25168 0.58463
 H1485 H 0.49020 1.12953 0.52713
 H1486 H 0.49927 1.09740 0.51381
 H1487 H 0.46033 1.06905 0.55224
 H1488 H 0.45149 1.10135 0.56540
 C1489 C 0.01184 0.70216 1.10149
 C1490 C -0.00514 0.69138 1.10372
 C1491 C -0.01971 0.69801 1.11585
 C1492 C -0.01765 0.71591 1.12522
 C1493 C -0.00126 0.72780 1.12203
 C1494 C 0.01393 0.72002 1.11080
 C1495 C -0.00760 0.67365 1.09326
 C1496 C -0.00918 0.65898 1.08408
 C1497 C -0.01038 0.64198 1.07307
 C1498 C -0.01079 0.62740 1.06362
 C1499 C -0.01056 0.60986 1.05256
 C1500 C -0.02142 0.59368 1.05805
 C1501 C -0.01996 0.57602 1.04816
 C1502 C -0.00753 0.57437 1.03268
 C1503 C 0.00294 0.59094 1.02699
 C1504 C 0.00144 0.60859 1.03693
 H1505 H 0.02339 0.69686 1.09240
 H1506 H -0.03267 0.68940 1.11803
 H1507 H -0.02893 0.72023 1.13495
 H1508 H 0.02724 0.72812 1.10883
 H1509 H -0.03070 0.59459 1.07019
 H1510 H -0.02829 0.56358 1.05287
 H1511 H 0.01260 0.59016 1.01513
 H1512 H 0.00995 0.62110 1.03267
 C1513 C 0.49579 0.70721 -0.09735
 C1514 C 0.50672 0.69173 -0.10521
 C1515 C 0.51522 0.69400 -0.12264
 C1516 C 0.51303 0.71189 -0.13212
 C1517 C 0.50279 0.72808 -0.12408
 C1518 C 0.49358 0.72514 -0.10678
 C1519 C 0.50846 0.67321 -0.09568
 C1520 C 0.50952 0.65771 -0.08760
 C1521 C 0.51024 0.63965 -0.07804
 C1522 C 0.51040 0.62426 -0.06974
 C1523 C 0.51004 0.60603 -0.05971
 C1524 C 0.52151 0.58986 -0.06552
 C1525 C 0.52077 0.57198 -0.05591
 C1526 C 0.50850 0.57013 -0.04039
 C1527 C 0.49709 0.58656 -0.03466
 C1528 C 0.49787 0.60439 -0.04429
 H1529 H 0.48869 0.70532 -0.08406
 H1530 H 0.52332 0.68187 -0.12902
 H1531 H 0.51935 0.71316 -0.14583
 H1532 H 0.48423 0.73642 -0.10064
 H1533 H 0.53094 0.59105 -0.07749
 H1534 H 0.52975 0.55963 -0.06067
 H1535 H 0.48751 0.58565 -0.02278
 H1536 H 0.48892 0.61689 -0.03977
 C1537 C 0.02145 1.19634 0.38192
 C1538 C 0.01595 1.19653 0.40060
 C1539 C 0.00775 1.21360 0.40844
 C1540 C 0.00503 1.23057 0.39764
 C1541 C 0.01100 1.23095 0.37883
 C1542 C 0.01877 1.21330 0.37107
 C1543 C 0.01699 1.17873 0.41132
 C1544 C 0.01702 1.16374 0.42023
 C1545 C 0.01616 1.14612 0.43041
 C1546 C 0.01480 1.13089 0.43880
 C1547 C 0.01265 1.11254 0.44831
 C1548 C -0.00044 1.11121 0.46308
 C1549 C -0.00330 1.09304 0.47170
 C1550 C 0.00691 1.07601 0.46555
 C1551 C 0.02017 1.07760 0.45076
 C1552 C 0.02299 1.09577 0.44220
 H1553 H 0.02732 1.18295 0.37562
 H1554 H 0.00286 1.21362 0.42276
 H1555 H -0.00246 1.24304 0.40400
 H1556 H 0.02251 1.21261 0.35645
 H1557 H -0.00858 1.12417 0.46779
 H1558 H -0.01357 1.09232 0.48306
 H1559 H 0.02834 1.06482 0.44572
 H1560 H 0.03308 1.09670 0.43070
 C1561 C 0.76583 0.67985 0.96358
 C1562 C 0.75319 0.67655 0.94846
 C1563 C 0.74066 0.66054 0.94890
 C1564 C 0.73998 0.64850 0.96469
 C1565 C 0.75133 0.65264 0.98082
 C1566 C 0.76519 0.66778 0.97942
 C1567 C 0.75307 0.68926 0.93229
 C1568 C 0.75255 0.69934 0.91839
 C1569 C 0.75181 0.71025 0.90155
 C1570 C 0.75145 0.71850 0.88661
 C1571 C 0.75176 0.72668 0.86804
 C1572 C 0.76612 0.71973 0.85582
 C1573 C 0.76557 0.72541 0.83715
 C1574 C 0.75063 0.73823 0.83028
 C1575 C 0.73670 0.74598 0.84277
 C1576 C 0.73719 0.74009 0.86158
 H1577 H 0.77604 0.69185 0.96321
 H1578 H 0.73133 0.65735 0.93699
 H1579 H 0.73049 0.63597 0.96403
 H1580 H 0.77506 0.67072 0.99098
 H1581 H 0.77744 0.70936 0.86059
 H1582 H 0.77663 0.71934 0.82793
 H1583 H 0.72501 0.75581 0.83784
 H1584 H 0.72592 0.74551 0.87091
 C1585 C 0.25705 0.17991 0.46427
 C1586 C 0.24406 0.17568 0.44965
 C1587 C 0.23149 0.15982 0.45130
 C1588 C 0.23117 0.14880 0.46774
 C1589 C 0.24296 0.15385 0.48333
 C1590 C 0.25678 0.16885 0.48078
 C1591 C 0.24364 0.18716 0.43271
 C1592 C 0.24264 0.19603 0.41811
 C1593 C 0.24104 0.20534 0.40049
 C1594 C 0.23964 0.21209 0.38494
 C1595 C 0.23825 0.21843 0.36577
 C1596 C 0.23839 0.23848 0.36082
 C1597 C 0.23852 0.24400 0.34194
 C1598 C 0.23871 0.22948 0.32791
 C1599 C 0.23784 0.20947 0.33311
 C1600 C 0.23760 0.20403 0.35184
 H1601 H 0.26730 0.19180 0.46296
 H1602 H 0.22188 0.15590 0.43981
 H1603 H 0.22169 0.13625 0.46796
 H1604 H 0.26700 0.17240 0.49188
 H1605 H 0.23887 0.24976 0.37151
 H1606 H 0.23928 0.25951 0.33836
 H1607 H 0.23780 0.19791 0.32267
 H1608 H 0.23740 0.18849 0.35547
 C1609 C 0.75574 0.34530 0.44880
 C1610 C 0.76119 0.32526 0.44886
 C1611 C 0.76504 0.31569 0.46583
 C1612 C 0.76324 0.32601 0.48266
 C1613 C 0.75697 0.34611 0.48295
 C1614 C 0.75393 0.35565 0.46558
 C1615 C 0.76324 0.31478 0.43142
 C1616 C 0.76479 0.30658 0.41653
 C1617 C 0.76630 0.29787 0.39864
 C1618 C 0.76719 0.29148 0.38293
 C1619 C 0.76762 0.28547 0.36362
 C1620 C 0.77029 0.26561 0.35840
 C1621 C 0.76964 0.26024 0.33947
 C1622 C 0.76618 0.27469 0.32560
 C1623 C 0.76396 0.29460 0.33109
 C1624 C 0.76468 0.29988 0.34986
 H1625 H 0.75307 0.35302 0.43574
 H1626 H 0.76974 0.30029 0.46606
 H1627 H 0.76729 0.31822 0.49534
 H1628 H 0.75014 0.37126 0.46503
 H1629 H 0.77258 0.25429 0.36894
 H1630 H 0.77138 0.24481 0.33573
 H1631 H 0.76143 0.30619 0.32087
 H1632 H 0.76264 0.31528 0.35367
 C1633 C 0.27212 0.81615 0.96518
 C1634 C 0.26067 0.82016 0.94927
 C1635 C 0.24655 0.83547 0.94969
 C1636 C 0.24376 0.84662 0.96591
 C1637 C 0.25471 0.84237 0.98236
 C1638 C 0.26936 0.82727 0.98142
 C1639 C 0.26395 0.80929 0.93220
 C1640 C 0.26649 0.80079 0.91758
 C1641 C 0.26909 0.79175 0.89993
 C1642 C 0.27084 0.78509 0.88439
 C1643 C 0.27218 0.77878 0.86519
 C1644 C 0.27194 0.79321 0.85124
 C1645 C 0.27108 0.78779 0.83250
 C1646 C 0.27046 0.76777 0.82727
 C1647 C 0.27164 0.75322 0.84129
 C1648 C 0.27239 0.75873 0.86020
 H1649 H 0.28340 0.80462 0.96496
 H1650 H 0.23793 0.83909 0.93732
 H1651 H 0.23338 0.85891 0.96524
 H1652 H 0.27880 0.82415 0.99336
 H1653 H 0.27180 0.80875 0.85486
 H1654 H 0.27035 0.79938 0.82208
 H1655 H 0.27108 0.73771 0.83770
 H1656 H 0.27253 0.74740 0.87088
 C1657 C 0.24339 0.81287 0.03494
 C1658 C 0.24641 0.82221 0.05208
 C1659 C 0.25202 0.84195 0.05239
 C1660 C 0.25465 0.85226 0.03573
 C1661 C 0.25227 0.84295 0.01823
 C1662 C 0.24602 0.82314 0.01822
 C1663 C 0.24316 0.81187 0.06937
 C1664 C 0.24050 0.80373 0.08412
 C1665 C 0.23759 0.79500 0.10182
 C1666 C 0.23546 0.78849 0.11735
 C1667 C 0.23353 0.78220 0.13650
 C1668 C 0.23352 0.79653 0.15052
 C1669 C 0.23350 0.79097 0.16924
 C1670 C 0.23347 0.77089 0.17440
 C1671 C 0.23263 0.75650 0.16026
 C1672 C 0.23277 0.76215 0.14139
 H1673 H 0.23860 0.79773 0.03447
 H1674 H 0.25406 0.84952 0.06556
 H1675 H 0.25838 0.86769 0.03647
 H1676 H 0.24250 0.81560 0.00538
 H1677 H 0.23405 0.81207 0.14698
 H1678 H 0.23398 0.80245 0.17974
 H1679 H 0.23271 0.74094 0.16379
 H1680 H 0.23280 0.75089 0.13066
 C1681 C 0.73933 0.31937 0.53635
 C1682 C 0.75143 0.32264 0.55184
 C1683 C 0.76539 0.33743 0.55108
 C1684 C 0.76738 0.34879 0.53490
 C1685 C 0.75573 0.34526 0.51885
 C1686 C 0.74127 0.33068 0.52017
 C1687 C 0.74908 0.31139 0.56878
 C1688 C 0.74729 0.30236 0.58319
 C1689 C 0.74561 0.29245 0.60050
 C1690 C 0.74479 0.28481 0.61571
 C1691 C 0.74480 0.27705 0.63450
 C1692 C 0.75962 0.28274 0.64684
 C1693 C 0.75911 0.27723 0.66556
 C1694 C 0.74374 0.26583 0.67237
 C1695 C 0.72929 0.25936 0.65976
 C1696 C 0.72977 0.26506 0.64091
 H1697 H 0.72820 0.30824 0.53684
 H1698 H 0.77454 0.34046 0.56314
 H1699 H 0.77769 0.36065 0.53532
 H1700 H 0.73136 0.32811 0.50857
 H1701 H 0.77134 0.29197 0.64211
 H1702 H 0.77056 0.28233 0.67485
 H1703 H 0.71723 0.25070 0.66463
 H1704 H 0.71816 0.26059 0.63149
 C1705 C 0.24204 0.16012 0.55317
 C1706 C 0.23940 0.18058 0.55137
 C1707 C 0.23588 0.18879 0.53372
 C1708 C 0.23603 0.17675 0.51785
 C1709 C 0.24046 0.15626 0.51924
 C1710 C 0.24220 0.14807 0.53735
 C1711 C 0.24036 0.19300 0.56769
 C1712 C 0.24131 0.20286 0.58168
 C1713 C 0.24223 0.21357 0.59860
 C1714 C 0.24250 0.22170 0.61359
 C1715 C 0.24183 0.22982 0.63217
 C1716 C 0.25631 0.24241 0.63901
 C1717 C 0.25622 0.24837 0.65780
 C1718 C 0.24177 0.24151 0.66988
 C1719 C 0.22696 0.22948 0.66261
 C1720 C 0.22700 0.22374 0.64397
 H1721 H 0.24427 0.15348 0.56680
 H1722 H 0.23312 0.20454 0.53219
 H1723 H 0.23264 0.18370 0.50461
 H1724 H 0.24454 0.13231 0.53916
 H1725 H 0.26793 0.24716 0.63001
 H1726 H 0.26782 0.25757 0.66304
 H1727 H 0.21551 0.22411 0.67149
 H1728 H 0.21572 0.21402 0.63890
 C1729 C 0.74722 0.65641 0.05065
 C1730 C 0.74426 0.67687 0.04936
 C1731 C 0.74142 0.68562 0.03184
 C1732 C 0.74252 0.67413 0.01565
 C1733 C 0.74725 0.65367 0.01660
 C1734 C 0.74832 0.64490 0.03450
 C1735 C 0.74436 0.68881 0.06602
 C1736 C 0.74470 0.69839 0.08022
 C1737 C 0.74513 0.70890 0.09727
 C1738 C 0.74528 0.71698 0.11228
 C1739 C 0.74493 0.72523 0.13082
 C1740 C 0.75854 0.73924 0.13667
 C1741 C 0.75903 0.74552 0.15534
 C1742 C 0.74604 0.73765 0.16833
 C1743 C 0.73202 0.72414 0.16208
 C1744 C 0.73148 0.71803 0.14353
 H1745 H 0.74897 0.64935 0.06415
 H1746 H 0.73845 0.70137 0.03068
 H1747 H 0.73960 0.68149 0.00251
 H1748 H 0.75083 0.62911 0.03592
 H1749 H 0.76908 0.74488 0.12695
 H1750 H 0.77004 0.75586 0.15975
 H1751 H 0.72168 0.71790 0.17166
 H1752 H 0.72089 0.70720 0.13922
 C1753 C 0.14964 0.53741 0.24144
 C1754 C 0.14009 0.55564 0.24434
 C1755 C 0.12026 0.55613 0.24904
 C1756 C 0.11013 0.53855 0.25106
 C1757 C 0.11969 0.51992 0.24897
 C1758 C 0.13954 0.51978 0.24346
 C1759 C 0.15060 0.57381 0.24242
 C1760 C 0.15946 0.58900 0.24108
 C1761 C 0.16996 0.60678 0.23996
 C1762 C 0.17907 0.62188 0.23957
 C1763 C 0.19018 0.63980 0.24002
 C1764 C 0.18851 0.65379 0.22562
 C1765 C 0.19896 0.67138 0.22664
 C1766 C 0.21118 0.67524 0.24214
 C1767 C 0.21288 0.66093 0.25638
 C1768 C 0.20250 0.64341 0.25531
 H1769 H 0.16489 0.53682 0.23740
 H1770 H 0.11257 0.57014 0.25104
 H1771 H 0.09468 0.53944 0.25432
 H1772 H 0.14731 0.50615 0.24021
 H1773 H 0.17900 0.65120 0.21372
 H1774 H 0.19721 0.68209 0.21548
 H1775 H 0.22214 0.66330 0.26850
 H1776 H 0.20394 0.63274 0.26654
 C1777 C 0.63886 0.04473 0.76027
 C1778 C 0.63358 0.05927 0.74712
 C1779 C 0.61764 0.05623 0.73518
 C1780 C 0.60750 0.03857 0.73581
 C1781 C 0.61349 0.02299 0.74798
 C1782 C 0.62868 0.02697 0.76095
 C1783 C 0.64415 0.07749 0.74590
 C1784 C 0.65269 0.09287 0.74455
 C1785 C 0.66249 0.11104 0.74306
 C1786 C 0.67082 0.12660 0.74233
 C1787 C 0.68083 0.14519 0.74261
 C1788 C 0.68776 0.15238 0.75965
 C1789 C 0.69736 0.17033 0.76048
 C1790 C 0.70029 0.18159 0.74424
 C1791 C 0.69332 0.17428 0.72707
 C1792 C 0.68362 0.15618 0.72628
 H1793 H 0.65085 0.04709 0.76999
 H1794 H 0.61293 0.06762 0.72537
 H1795 H 0.59478 0.03745 0.72678
 H1796 H 0.63293 0.01608 0.77139
 H1797 H 0.68572 0.14408 0.77238
 H1798 H 0.70251 0.17532 0.77398
 H1799 H 0.69527 0.18254 0.71432
 H1800 H 0.67830 0.15080 0.71298
 C1801 C 0.87574 0.05402 0.24114
 C1802 C 0.86029 0.05524 0.25375
 C1803 C 0.85541 0.03853 0.26400
 C1804 C 0.86582 0.02069 0.26158
 C1805 C 0.88107 0.01893 0.24845
 C1806 C 0.88619 0.03619 0.23868
 C1807 C 0.84965 0.07372 0.25633
 C1808 C 0.84071 0.08920 0.25823
 C1809 C 0.83014 0.10735 0.25994
 C1810 C 0.82097 0.12282 0.26071
 C1811 C 0.80980 0.14121 0.26054
 C1812 C 0.81202 0.15526 0.27473
 C1813 C 0.80174 0.17345 0.27374
 C1814 C 0.78920 0.17782 0.25847
 C1815 C 0.78684 0.16340 0.24452
 C1816 C 0.79703 0.14530 0.24557
 H1817 H 0.87994 0.06696 0.23338
 H1818 H 0.84368 0.03933 0.27404
 H1819 H 0.86206 0.00817 0.27012
 H1820 H 0.89862 0.03623 0.22949
 H1821 H 0.82191 0.15230 0.28638
 H1822 H 0.80399 0.18426 0.28465
 H1823 H 0.77727 0.16616 0.23260
 H1824 H 0.79516 0.13458 0.23451
 C1825 C 0.35866 0.53722 0.73610
 C1826 C 0.35753 0.54795 0.75275
 C1827 C 0.36760 0.54091 0.76855
 C1828 C 0.37938 0.52380 0.76759
 C1829 C 0.38205 0.51359 0.75053
 C1830 C 0.37046 0.52001 0.73511
 C1831 C 0.34631 0.56629 0.75378
 C1832 C 0.33731 0.58183 0.75497
 C1833 C 0.32702 0.60019 0.75640
 C1834 C 0.31828 0.61590 0.75734
 C1835 C 0.30769 0.63465 0.75774
 C1836 C 0.31078 0.64830 0.77213
 C1837 C 0.30082 0.66670 0.77193
 C1838 C 0.28769 0.67168 0.75727
 C1839 C 0.28458 0.65770 0.74304
 C1840 C 0.29447 0.63941 0.74329
 H1841 H 0.35055 0.54222 0.72383
 H1842 H 0.36639 0.54871 0.78170
 H1843 H 0.38628 0.51868 0.78041
 H1844 H 0.37097 0.51194 0.72208
 H1845 H 0.32101 0.64482 0.78339
 H1846 H 0.30364 0.67711 0.78305
 H1847 H 0.27456 0.66092 0.73155
 H1848 H 0.29193 0.62902 0.73208
 C1849 C 0.35659 0.45643 0.76212
 C1850 C 0.35419 0.44601 0.74541
 C1851 C 0.36421 0.45197 0.72960
 C1852 C 0.37713 0.46765 0.73058
 C1853 C 0.38099 0.47742 0.74766
 C1854 C 0.36953 0.47222 0.76313
 C1855 C 0.34166 0.42910 0.74434
 C1856 C 0.33156 0.41470 0.74312
 C1857 C 0.32000 0.39761 0.74168
 C1858 C 0.31025 0.38293 0.74081
 C1859 C 0.29864 0.36533 0.74061
 C1860 C 0.29870 0.35249 0.72525
 C1861 C 0.28801 0.33501 0.72570
 C1862 C 0.27720 0.33012 0.74159
 C1863 C 0.27702 0.34334 0.75678
 C1864 C 0.28762 0.36073 0.75626
 H1865 H 0.34856 0.45230 0.77440
 H1866 H 0.36206 0.44445 0.71642
 H1867 H 0.38390 0.47206 0.71774
 H1868 H 0.37096 0.48012 0.77617
 H1869 H 0.30721 0.35585 0.71304
 H1870 H 0.28857 0.32515 0.71382
 H1871 H 0.26883 0.34017 0.76922
 H1872 H 0.28742 0.37049 0.76824
 C1873 C 0.87906 0.94474 0.24571
 C1874 C 0.85963 0.94592 0.23932
 C1875 C 0.85082 0.96445 0.23589
 C1876 C 0.86132 0.98171 0.23891
 C1877 C 0.88079 0.98087 0.24597
 C1878 C 0.88958 0.96195 0.24874
 C1879 C 0.84879 0.92811 0.23623
 C1880 C 0.83972 0.91314 0.23404
 C1881 C 0.82903 0.89555 0.23219
 C1882 C 0.81978 0.88055 0.23153
 C1883 C 0.80857 0.86273 0.23223
 C1884 C 0.79856 0.85843 0.24856
 C1885 C 0.78837 0.84090 0.25012
 C1886 C 0.78792 0.82724 0.23531
 C1887 C 0.79766 0.83181 0.21871
 C1888 C 0.80799 0.84946 0.21721
 H1889 H 0.88617 0.93048 0.24817
 H1890 H 0.83590 0.96557 0.23060
 H1891 H 0.85422 0.99562 0.23517
 H1892 H 0.90477 0.96050 0.25316
 H1893 H 0.79885 0.86854 0.26027
 H1894 H 0.78096 0.83800 0.26307
 H1895 H 0.79769 0.82158 0.20711
 H1896 H 0.81572 0.85260 0.20449
 C1897 C 0.64827 0.96761 0.74675
 C1898 C 0.63983 0.94947 0.75084
 C1899 C 0.61952 0.94855 0.75264
 C1900 C 0.60783 0.96572 0.75125
 C1901 C 0.61619 0.98445 0.74866
 C1902 C 0.63657 0.98488 0.74536
 C1903 C 0.65186 0.93177 0.75329
 C1904 C 0.66159 0.91675 0.75545
 C1905 C 0.67276 0.89897 0.75776
 C1906 C 0.68223 0.88371 0.75916
 C1907 C 0.69360 0.86541 0.75972
 C1908 C 0.69279 0.85245 0.77496
 C1909 C 0.70311 0.83424 0.77465
 C1910 C 0.71426 0.82876 0.75901
 C1911 C 0.71526 0.84214 0.74400
 C1912 C 0.70506 0.86024 0.74438
 H1913 H 0.66394 0.96843 0.74472
 H1914 H 0.61270 0.93457 0.75539
 H1915 H 0.59215 0.96453 0.75297
 H1916 H 0.64367 0.99839 0.74166
 H1917 H 0.68393 0.85625 0.78692
 H1918 H 0.70193 0.82426 0.78637
 H1919 H 0.72377 0.83853 0.73176
 H1920 H 0.70585 0.87009 0.73250
 C1921 C 0.12817 0.44736 0.24287
 C1922 C 0.14343 0.44647 0.25606
 C1923 C 0.14700 0.46293 0.26725
 C1924 C 0.13558 0.48025 0.26508
 C1925 C 0.12065 0.48178 0.25125
 C1926 C 0.11672 0.46466 0.24065
 C1927 C 0.15526 0.42859 0.25817
 C1928 C 0.16513 0.41358 0.25966
 C1929 C 0.17667 0.39594 0.26098
 C1930 C 0.18652 0.38086 0.26163
 C1931 C 0.19829 0.36281 0.26166
 C1932 C 0.19657 0.34881 0.27592
 C1933 C 0.20734 0.33091 0.27527
 C1934 C 0.21993 0.32674 0.26028
 C1935 C 0.22179 0.34111 0.24622
 C1936 C 0.21107 0.35895 0.24693
 H1937 H 0.12494 0.43457 0.23440
 H1938 H 0.15854 0.46236 0.27776
 H1939 H 0.13844 0.49261 0.27421
 H1940 H 0.10456 0.46429 0.23089
 H1941 H 0.18669 0.35158 0.28739
 H1942 H 0.20543 0.32017 0.28626
 H1943 H 0.23132 0.33846 0.23448
 H1944 H 0.21255 0.36962 0.23580
 C1945 C 0.02898 0.25305 0.84113
 C1946 C 0.04234 0.23762 0.84493
 C1947 C 0.03960 0.22519 0.86015
 C1948 C 0.02353 0.22826 0.87171
 C1949 C 0.00959 0.24357 0.86793
 C1950 C 0.01293 0.25618 0.85265
 C1951 C 0.05998 0.23601 0.83444
 C1952 C 0.07512 0.23559 0.82611
 C1953 C 0.09308 0.23617 0.81689
 C1954 C 0.10860 0.23749 0.80939
 C1955 C 0.12718 0.23990 0.80079
 C1956 C 0.14363 0.22924 0.80737
 C1957 C 0.16190 0.23225 0.79950
 C1958 C 0.16389 0.24602 0.78496
 C1959 C 0.14720 0.25667 0.77848
 C1960 C 0.12896 0.25361 0.78638
 H1961 H 0.03134 0.26311 0.82966
 H1962 H 0.05028 0.21359 0.86352
 H1963 H 0.02259 0.21908 0.88399
 H1964 H 0.00328 0.26878 0.84986
 H1965 H 0.14234 0.21869 0.81863
 H1966 H 0.17443 0.22376 0.80477
 H1967 H 0.14820 0.26734 0.76729
 H1968 H 0.11627 0.26202 0.78133
 C1969 C 0.55363 0.72771 0.36774
 C1970 C 0.55865 0.73871 0.35211
 C1971 C 0.54556 0.75289 0.34477
 C1972 C 0.52748 0.75621 0.35308
 C1973 C 0.52182 0.74499 0.36864
 C1974 C 0.53548 0.73096 0.37610
 C1975 C 0.57776 0.73671 0.34429
 C1976 C 0.59368 0.73622 0.33740
 C1977 C 0.61202 0.73693 0.32888
 C1978 C 0.62740 0.73847 0.32116
 C1979 C 0.64529 0.74116 0.31144
 C1980 C 0.64575 0.75493 0.29693
 C1981 C 0.66299 0.75754 0.28711
 C1982 C 0.68000 0.74636 0.29173
 C1983 C 0.67943 0.73271 0.30654
 C1984 C 0.66214 0.73014 0.31633
 H1985 H 0.56397 0.71708 0.37381
 H1986 H 0.54956 0.76180 0.33291
 H1987 H 0.51796 0.76787 0.34755
 H1988 H 0.53262 0.72300 0.38880
 H1989 H 0.63274 0.76356 0.29312
 H1990 H 0.66292 0.76815 0.27580
 H1991 H 0.69225 0.72385 0.31043
 H1992 H 0.66186 0.71948 0.32760
 C1993 C 0.55330 0.26470 0.14095
 C1994 C 0.55217 0.27113 0.15939
 C1995 C 0.53441 0.27054 0.16882
 C1996 C 0.51793 0.26278 0.16003
 C1997 C 0.51921 0.25471 0.14189
 C1998 C 0.53692 0.25689 0.13218
 C1999 C 0.56975 0.27634 0.16903
 C2000 C 0.58507 0.27912 0.17687
 C2001 C 0.60342 0.28045 0.18571
 C2002 C 0.61934 0.27999 0.19300
 C2003 C 0.63837 0.27772 0.20140
 C2004 C 0.64080 0.26573 0.21716
 C2005 C 0.65952 0.26172 0.22439
 C2006 C 0.67606 0.26963 0.21587
 C2007 C 0.67342 0.28192 0.20014
 C2008 C 0.65465 0.28589 0.19293
 H2009 H 0.56699 0.26526 0.13349
 H2010 H 0.53337 0.27580 0.18305
 H2011 H 0.50430 0.26315 0.16755
 H2012 H 0.53819 0.25201 0.11786
 H2013 H 0.62825 0.25918 0.22366
 H2014 H 0.66101 0.25229 0.23656
 H2015 H 0.68583 0.28834 0.19331
 H2016 H 0.65287 0.29501 0.18057
 C2017 C 0.04923 0.76328 0.64647
 C2018 C 0.04738 0.75760 0.66506
 C2019 C 0.03040 0.74851 0.67098
 C2020 C 0.01507 0.74540 0.65837
 C2021 C 0.01627 0.75186 0.63966
 C2022 C 0.03397 0.76018 0.63384
 C2023 C 0.06361 0.75982 0.67761
 C2024 C 0.07786 0.76131 0.68741
 C2025 C 0.09528 0.76250 0.69784
 C2026 C 0.11082 0.76299 0.70579
 C2027 C 0.12998 0.76290 0.71406
 C2028 C 0.14455 0.77417 0.70600
 C2029 C 0.16384 0.77237 0.71247
 C2030 C 0.16877 0.75920 0.72706
 C2031 C 0.15388 0.74835 0.73542
 C2032 C 0.13458 0.75016 0.72889
 H2033 H 0.06261 0.76983 0.64166
 H2034 H 0.02919 0.74344 0.68524
 H2035 H 0.00260 0.73744 0.66330
 H2036 H 0.03592 0.76433 0.61940
 H2037 H 0.14108 0.78395 0.69439
 H2038 H 0.17492 0.78105 0.70581
 H2039 H 0.15718 0.73812 0.74671
 H2040 H 0.12338 0.74125 0.73506
 C2041 C 0.95409 0.75179 0.65491
 C2042 C 0.94333 0.73573 0.64876
 C2043 C 0.95062 0.72342 0.63475
 C2044 C 0.96890 0.72697 0.62708
 C2045 C 0.98047 0.74261 0.63375
 C2046 C 0.97231 0.75539 0.64729
 C2047 C 0.92453 0.73248 0.65660
 C2048 C 0.90887 0.73078 0.66374
 C2049 C 0.89079 0.73010 0.67274
 C2050 C 0.87559 0.73066 0.68095
 C2051 C 0.85786 0.73259 0.69124
 C2052 C 0.84098 0.72300 0.68534
 C2053 C 0.82355 0.72577 0.69509
 C2054 C 0.82290 0.73824 0.71080
 C2055 C 0.84005 0.74767 0.71665
 C2056 C 0.85741 0.74485 0.70690
 H2057 H 0.94831 0.76166 0.66550
 H2058 H 0.94206 0.71126 0.62956
 H2059 H 0.97360 0.71767 0.61566
 H2060 H 0.98017 0.76818 0.65205
 H2061 H 0.84124 0.71355 0.67316
 H2062 H 0.81061 0.71827 0.69024
 H2063 H 0.84008 0.75732 0.72869
 H2064 H 0.87046 0.75239 0.71148
 C2065 C 0.45016 0.23784 0.15171
 C2066 C 0.45481 0.22745 0.16804
 C2067 C 0.47429 0.22245 0.17238
 C2068 C 0.48918 0.22841 0.16059
 C2069 C 0.48487 0.24018 0.14469
 C2070 C 0.46496 0.24386 0.13998
 C2071 C 0.43931 0.22287 0.18043
 C2072 C 0.42525 0.22053 0.18998
 C2073 C 0.40777 0.21964 0.19997
 C2074 C 0.39214 0.22038 0.20744
 C2075 C 0.37299 0.22285 0.21508
 C2076 C 0.36998 0.23585 0.22995
 C2077 C 0.35097 0.24051 0.23569
 C2078 C 0.33476 0.23227 0.22650
 C2079 C 0.33800 0.21888 0.21179
 C2080 C 0.35702 0.21425 0.20611
 H2081 H 0.43502 0.24138 0.14805
 H2082 H 0.47797 0.21409 0.18488
 H2083 H 0.50417 0.22410 0.16402
 H2084 H 0.46063 0.25125 0.12716
 H2085 H 0.38228 0.24280 0.23677
 H2086 H 0.34899 0.25078 0.24712
 H2087 H 0.32587 0.21214 0.20453
 H2088 H 0.35925 0.20438 0.19439
 C2089 C 0.46776 0.74595 0.33636
 C2090 C 0.45112 0.75607 0.34277
 C2091 C 0.45107 0.76437 0.36057
 C2092 C 0.46776 0.76281 0.37189
 C2093 C 0.48508 0.75343 0.36541
 C2094 C 0.48450 0.74436 0.34765
 C2095 C 0.43367 0.75703 0.33153
 C2096 C 0.41873 0.75763 0.32254
 C2097 C 0.40088 0.75809 0.31265
 C2098 C 0.38526 0.75825 0.30478
 C2099 C 0.36628 0.75819 0.29612
 C2100 C 0.35098 0.76943 0.30384
 C2101 C 0.33213 0.76847 0.29626
 C2102 C 0.32837 0.75621 0.28085
 C2103 C 0.34395 0.74520 0.27301
 C2104 C 0.36281 0.74617 0.28065
 H2105 H 0.46767 0.73895 0.32278
 H2106 H 0.43802 0.77181 0.36582
 H2107 H 0.46719 0.76894 0.38582
 H2108 H 0.49673 0.73559 0.34254
 H2109 H 0.35357 0.77870 0.31589
 H2110 H 0.32050 0.77721 0.30260
 H2111 H 0.34156 0.73564 0.26114
 H2112 H 0.37460 0.73736 0.27467
 C2113 C 0.95019 0.25127 0.84646
 C2114 C 0.93590 0.26129 0.85680
 C2115 C 0.94012 0.26767 0.87486
 C2116 C 0.95870 0.26407 0.88258
 C2117 C 0.97360 0.25450 0.87217
 C2118 C 0.96877 0.24763 0.85413
 C2119 C 0.91654 0.26369 0.84921
 C2120 C 0.90041 0.26483 0.84243
 C2121 C 0.88180 0.26512 0.83396
 C2122 C 0.86619 0.26452 0.82617
 C2123 C 0.84801 0.26295 0.81626
 C2124 C 0.83203 0.27530 0.82061
 C2125 C 0.81448 0.27378 0.81059
 C2126 C 0.81280 0.25987 0.79610
 C2127 C 0.82896 0.24741 0.79199
 C2128 C 0.84645 0.24897 0.80202
 H2129 H 0.94680 0.24577 0.83263
 H2130 H 0.92894 0.27501 0.88313
 H2131 H 0.96143 0.26857 0.89684
 H2132 H 0.97905 0.23888 0.84607
 H2133 H 0.83318 0.28615 0.83165
 H2134 H 0.80231 0.28358 0.81410
 H2135 H 0.82817 0.23656 0.78094
 H2136 H 0.85880 0.23935 0.79861
 C2137 C 0.58656 1.00163 0.69716
 C2138 C 0.56626 0.99977 0.69815
 C2139 C 0.55759 0.99659 0.71543
 C2140 C 0.56904 0.99654 0.73178
 C2141 C 0.58930 1.00052 0.73118
 C2142 C 0.59800 1.00162 0.71343
 C2143 C 0.55448 1.00202 0.68143
 C2144 C 0.54549 1.00456 0.66700
 C2145 C 0.53620 1.00796 0.64954
 C2146 C 0.52954 1.01091 0.63410
 C2147 C 0.52341 1.01415 0.61501
 C2148 C 0.50376 1.01256 0.60935
 C2149 C 0.49865 1.01373 0.59035
 C2150 C 0.51323 1.01625 0.57690
 C2151 C 0.53273 1.01871 0.58287
 C2152 C 0.53774 1.01769 0.60175
 H2153 H 0.59353 1.00365 0.68382
 H2154 H 0.54194 0.99448 0.71632
 H2155 H 0.56181 0.99355 0.74475
 H2156 H 0.61364 1.00361 0.71225
 H2157 H 0.49253 1.00979 0.61952
 H2158 H 0.48355 1.01165 0.58612
 H2159 H 0.54427 1.02081 0.57287
 H2160 H 0.55297 1.01901 0.60594
 C2161 C 0.09329 0.50145 1.19785
 C2162 C 0.07334 0.50663 1.19812
 C2163 C 0.06416 0.50991 1.21519
 C2164 C 0.07480 0.50781 1.23193
 C2165 C 0.09483 0.50182 1.23198
 C2166 C 0.10395 0.49935 1.21452
 C2167 C 0.06258 0.50899 1.18077
 C2168 C 0.05423 0.51076 1.16589
 C2169 C 0.04541 0.51250 1.14797
 C2170 C 0.03895 0.51355 1.13224
 C2171 C 0.03282 0.51415 1.11291
 C2172 C 0.01294 0.51480 1.10763
 C2173 C 0.00751 0.51381 1.08870
 C2174 C 0.02194 0.51198 1.07489
 C2175 C 0.04182 0.51197 1.08041
 C2176 C 0.04717 0.51304 1.09919
 H2177 H 0.10069 0.49922 1.18471
 H2178 H 0.04883 0.51440 1.21558
 H2179 H 0.06731 0.51143 1.24471
 H2180 H 0.11947 0.49579 1.21381
 H2181 H 0.00168 0.51563 1.11814
 H2182 H -0.00790 0.51382 1.08492
 H2183 H 0.05335 0.51075 1.07020
 H2184 H 0.06258 0.51256 1.10306
 C2185 C -0.06322 -0.01261 1.21458
 C2186 C -0.07171 -0.00846 1.19716
 C2187 C -0.09112 -0.00143 1.19603
 C2188 C -0.10196 0.00153 1.21224
 C2189 C -0.09348 -0.00194 1.23005
 C2190 C -0.07402 -0.00967 1.23083
 C2191 C -0.06086 -0.01208 1.18036
 C2192 C -0.05233 -0.01503 1.16596
 C2193 C -0.04325 -0.01821 1.14858
 C2194 C -0.03657 -0.02047 1.13322
 C2195 C -0.03022 -0.02240 1.11421
 C2196 C -0.04446 -0.02365 1.10013
 C2197 C -0.03908 -0.02306 1.08146
 C2198 C -0.01931 -0.02126 1.07652
 C2199 C -0.00490 -0.02105 1.09072
 C2200 C -0.01037 -0.02149 1.10952
 H2201 H -0.04835 -0.01853 1.21561
 H2202 H -0.09800 0.00148 1.18258
 H2203 H -0.11714 0.00638 1.21088
 H2204 H -0.06718 -0.01408 1.24390
 H2205 H -0.05984 -0.02437 1.10357
 H2206 H -0.05051 -0.02342 1.07086
 H2207 H 0.01041 -0.01957 1.08731
 H2208 H 0.00078 -0.02046 1.12034
 C2209 C 0.42457 0.51050 0.70527
 C2210 C 0.43427 0.49272 0.70080
 C2211 C 0.43258 0.47639 0.71252
 C2212 C 0.42058 0.47754 0.72813
 C2213 C 0.40940 0.49487 0.73209
 C2214 C 0.41253 0.51171 0.72093
 C2215 C 0.44503 0.49081 0.68368
 C2216 C 0.45330 0.48887 0.66899
 C2217 C 0.46200 0.48650 0.65130
 C2218 C 0.46841 0.48469 0.63576
 C2219 C 0.47461 0.48310 0.61666
 C2220 C 0.49451 0.48301 0.61198
 C2221 C 0.50002 0.48349 0.59319
 C2222 C 0.48565 0.48426 0.57894
 C2223 C 0.46577 0.48347 0.58385
 C2224 C 0.46033 0.48288 0.60252
 H2225 H 0.42612 0.52341 0.69651
 H2226 H 0.44022 0.46260 0.70938
 H2227 H 0.41940 0.46456 0.73684
 H2228 H 0.40581 0.52589 0.72413
 H2229 H 0.50570 0.48319 0.62281
 H2230 H 0.51543 0.48421 0.58985
 H2231 H 0.45433 0.48392 0.57325
 H2232 H 0.44491 0.48290 0.60594
 C2233 C 0.42491 0.47636 -0.20710
 C2234 C 0.43574 0.49312 -0.20283
 C2235 C 0.43468 0.50944 -0.21473
 C2236 C 0.42221 0.50940 -0.23030
 C2237 C 0.40993 0.49328 -0.23406
 C2238 C 0.41239 0.47627 -0.22274
 C2239 C 0.44690 0.49419 -0.18565
 C2240 C 0.45545 0.49565 -0.17089
 C2241 C 0.46433 0.49769 -0.15309
 C2242 C 0.47070 0.49940 -0.13740
 C2243 C 0.47652 0.50110 -0.11807
 C2244 C 0.49608 0.50395 -0.11264
 C2245 C 0.50125 0.50459 -0.09362
 C2246 C 0.48690 0.50224 -0.07990
 C2247 C 0.46726 0.49994 -0.08563
 C2248 C 0.46217 0.49938 -0.10449
 H2249 H 0.42592 0.46345 -0.19818
 H2250 H 0.44316 0.52243 -0.21174
 H2251 H 0.42152 0.52240 -0.23912
 H2252 H 0.40475 0.46284 -0.22577
 H2253 H 0.50733 0.50535 -0.12305
 H2254 H 0.51648 0.50633 -0.08967
 H2255 H 0.45576 0.49826 -0.07551
 H2256 H 0.44699 0.49728 -0.10848
 C2257 C -0.06838 1.01603 0.28411
 C2258 C -0.07290 1.00462 0.29964
 C2259 C -0.08824 0.99131 0.29851
 C2260 C -0.09893 0.98925 0.28188
 C2261 C -0.09413 1.00014 0.26580
 C2262 C -0.07903 1.01401 0.26749
 C2263 C -0.06245 1.00723 0.31702
 C2264 C -0.05421 1.00938 0.33183
 C2265 C -0.04541 1.01170 0.34960
 C2266 C -0.03891 1.01332 0.36523
 C2267 C -0.03272 1.01462 0.38446
 C2268 C -0.04704 1.01492 0.39822
 C2269 C -0.04163 1.01425 0.41700
 C2270 C -0.02173 1.01329 0.42243
 C2271 C -0.00733 1.01384 0.40856
 C2272 C -0.01283 1.01439 0.38963
 H2273 H -0.05682 1.02670 0.28492
 H2274 H -0.09221 0.98278 0.31062
 H2275 H -0.11124 0.97950 0.28191
 H2276 H -0.07550 1.02340 0.25583
 H2277 H -0.06246 1.01512 0.39441
 H2278 H -0.05311 1.01403 0.42730
 H2279 H 0.00809 1.01305 0.41231
 H2280 H -0.00161 1.01413 0.37907
 C2281 C 0.08850 0.50890 0.30035
 C2282 C 0.07383 0.49487 0.30131
 C2283 C 0.07000 0.48297 0.28583
 C2284 C 0.08066 0.48523 0.26945
 C2285 C 0.09507 0.49982 0.26793
 C2286 C 0.09919 0.51119 0.28400
 C2287 C 0.06340 0.49219 0.31850
 C2288 C 0.05527 0.49019 0.33323
 C2289 C 0.04661 0.48821 0.35096
 C2290 C 0.04022 0.48696 0.36654
 C2291 C 0.03411 0.48613 0.38572
 C2292 C 0.04831 0.48779 0.39980
 C2293 C 0.04285 0.48846 0.41846
 C2294 C 0.02301 0.48749 0.42350
 C2295 C 0.00879 0.48518 0.40931
 C2296 C 0.01432 0.48459 0.39050
 H2297 H 0.09198 0.51785 0.31241
 H2298 H 0.05898 0.47174 0.28650
 H2299 H 0.07770 0.47547 0.25784
 H2300 H 0.11102 0.52152 0.28429
 H2301 H 0.06365 0.48896 0.39632
 H2302 H 0.05425 0.49008 0.42896
 H2303 H -0.00660 0.48443 0.41271
 H2304 H 0.00317 0.48332 0.37972
 C2305 C 0.56314 0.01844 -0.21513
 C2306 C 0.56766 0.00574 -0.20021
 C2307 C 0.58440 -0.00648 -0.20096
 C2308 C 0.59595 -0.00690 -0.21686
 C2309 C 0.59062 0.00437 -0.23285
 C2310 C 0.57478 0.01810 -0.23111
 C2311 C 0.55549 0.00499 -0.18394
 C2312 C 0.54625 0.00340 -0.16978
 C2313 C 0.53683 0.00078 -0.15253
 C2314 C 0.53031 -0.00175 -0.13716
 C2315 C 0.52473 -0.00476 -0.11806
 C2316 C 0.53962 -0.00657 -0.10459
 C2317 C 0.53502 -0.00823 -0.08581
 C2318 C 0.51537 -0.00815 -0.08004
 C2319 C 0.50037 -0.00712 -0.09368
 C2320 C 0.50505 -0.00533 -0.11265
 H2321 H 0.55054 0.02845 -0.21450
 H2322 H 0.58851 -0.01583 -0.18921
 H2323 H 0.60903 -0.01620 -0.21643
 H2324 H 0.57095 0.02802 -0.24250
 H2325 H 0.55488 -0.00627 -0.10857
 H2326 H 0.54695 -0.00920 -0.07572
 H2327 H 0.48513 -0.00696 -0.08965
 H2328 H 0.49339 -0.00400 -0.12298
 C2329 C 0.69606 0.62494 -0.00540
 C2330 C 0.69733 0.60442 -0.00335
 C2331 C 0.71546 0.59539 0.00107
 C2332 C 0.73237 0.60667 0.00255
 C2333 C 0.73163 0.62724 -0.00102
 C2334 C 0.71290 0.63623 -0.00393
 C2335 C 0.68005 0.59271 -0.00583
 C2336 C 0.66552 0.58303 -0.00799
 C2337 C 0.64842 0.57174 -0.01026
 C2338 C 0.63378 0.56209 -0.01165
 C2339 C 0.61626 0.55049 -0.01224
 C2340 C 0.61250 0.53776 0.00258
 C2341 C 0.59499 0.52752 0.00309
 C2342 C 0.58081 0.52980 -0.01125
 C2343 C 0.58495 0.54210 -0.02647
 C2344 C 0.60256 0.55244 -0.02692
 H2345 H 0.68206 0.63222 -0.00838
 H2346 H 0.71655 0.57957 0.00330
 H2347 H 0.74587 0.59909 0.00654
 H2348 H 0.71146 0.65208 -0.00580
 H2349 H 0.62295 0.53607 0.01400
 H2350 H 0.59240 0.51811 0.01498
 H2351 H 0.57433 0.54427 -0.03767
 H2352 H 0.60527 0.56228 -0.03847
 C2353 C 0.18843 1.12671 0.49945
 C2354 C 0.18988 1.10622 0.50172
 C2355 C 0.20810 1.09737 0.50607
 C2356 C 0.22495 1.10877 0.50711
 C2357 C 0.22404 1.12925 0.50310
 C2358 C 0.20522 1.13812 0.50048
 C2359 C 0.17275 1.09429 0.49922
 C2360 C 0.15841 1.08438 0.49691
 C2361 C 0.14156 1.07281 0.49429
 C2362 C 0.12712 1.06294 0.49246
 C2363 C 0.10978 1.05115 0.49115
 C2364 C 0.10623 1.03723 0.50504
 C2365 C 0.08873 1.02692 0.50498
 C2366 C 0.07439 1.03033 0.49097
 C2367 C 0.07838 1.04378 0.47659
 C2368 C 0.09595 1.05418 0.47673
 H2369 H 0.17436 1.13385 0.49650
 H2370 H 0.20934 1.08159 0.50848
 H2371 H 0.23857 1.10133 0.51096
 H2372 H 0.20368 1.15392 0.49830
 H2373 H 0.11678 1.03471 0.51626
 H2374 H 0.08622 1.01665 0.51623
 H2375 H 0.06761 1.04688 0.46570
 H2376 H 0.09849 1.06494 0.46590
 C2377 C 0.21631 -0.10094 1.00830
 C2378 C 0.19837 -0.10993 1.00489
 C2379 C 0.19819 -0.12987 0.99981
 C2380 C 0.21580 -0.14068 0.99800
 C2381 C 0.23414 -0.13171 1.00068
 C2382 C 0.23395 -0.11171 1.00649
 C2383 C 0.18016 -0.09878 1.00686
 C2384 C 0.16492 -0.08945 1.00834
 C2385 C 0.14701 -0.07850 1.00974
 C2386 C 0.13171 -0.06915 1.01047
 C2387 C 0.11336 -0.05799 1.01054
 C2388 C 0.10000 -0.06003 1.02508
 C2389 C 0.08176 -0.05001 1.02437
 C2390 C 0.07659 -0.03787 1.00903
 C2391 C 0.09036 -0.03557 0.99475
 C2392 C 0.10854 -0.04553 0.99552
 H2393 H 0.21667 -0.08562 1.01264
 H2394 H 0.18441 -0.13714 0.99743
 H2395 H 0.21514 -0.15621 0.99452
 H2396 H 0.24735 -0.10437 1.01015
 H2397 H 0.10352 -0.06965 1.03678
 H2398 H 0.07150 -0.05223 1.03555
 H2399 H 0.08697 -0.02634 0.98275
 H2400 H 0.11871 -0.04378 0.98418
 C2401 C 0.71888 0.39740 0.51933
 C2402 C 0.70233 0.39419 0.50816
 C2403 C 0.70296 0.37925 0.49469
 C2404 C 0.72009 0.36781 0.49218
 C2405 C 0.73728 0.37143 0.50275
 C2406 C 0.73601 0.38600 0.51686
 C2407 C 0.68467 0.40609 0.51058
 C2408 C 0.66990 0.41610 0.51237
 C2409 C 0.65254 0.42785 0.51406
 C2410 C 0.63768 0.43789 0.51501
 C2411 C 0.61985 0.44984 0.51535
 C2412 C 0.61601 0.46356 0.50110
 C2413 C 0.59818 0.47416 0.50041
 C2414 C 0.58379 0.47123 0.51400
 C2415 C 0.58802 0.45786 0.52866
 C2416 C 0.60591 0.44722 0.52928
 H2417 H 0.71853 0.40868 0.53004
 H2418 H 0.69010 0.37628 0.48623
 H2419 H 0.71957 0.35590 0.48217
 H2420 H 0.74847 0.38862 0.52595
 H2421 H 0.62664 0.46576 0.49023
 H2422 H 0.59549 0.48431 0.48894
 H2423 H 0.57727 0.45513 0.53928
 H2424 H 0.60867 0.43661 0.54039
 C2425 C -0.20856 0.40169 0.49202
 C2426 C -0.19020 0.39243 0.49461
 C2427 C -0.18914 0.37242 0.49949
 C2428 C -0.20631 0.36181 0.50193
 C2429 C -0.22504 0.37106 0.50006
 C2430 C -0.22575 0.39113 0.49444
 C2431 C -0.17252 0.40346 0.49203
 C2432 C -0.15783 0.41289 0.49005
 C2433 C -0.14067 0.42413 0.48815
 C2434 C -0.12607 0.43387 0.48714
 C2435 C -0.10863 0.44563 0.48696
 C2436 C -0.09476 0.44354 0.47278
 C2437 C -0.07724 0.45403 0.47362
 C2438 C -0.07334 0.46665 0.48876
 C2439 C -0.08769 0.46908 0.50259
 C2440 C -0.10513 0.45868 0.50167
 H2441 H -0.20963 0.41707 0.48785
 H2442 H -0.17503 0.36494 0.50125
 H2443 H -0.20500 0.34622 0.50521
 H2444 H -0.23951 0.39872 0.49135
 H2445 H -0.09726 0.43347 0.46131
 H2446 H -0.06648 0.45169 0.46282
 H2447 H -0.08527 0.47869 0.51441
 H2448 H -0.11571 0.46049 0.51273
 C2449 C 0.29021 -0.10636 -0.01703
 C2450 C 0.30670 -0.11028 -0.00575
 C2451 C 0.30606 -0.12530 0.00764
 C2452 C 0.28903 -0.13618 0.00989
 C2453 C 0.27194 -0.13194 -0.00090
 C2454 C 0.27318 -0.11721 -0.01482
 C2455 C 0.32433 -0.09910 -0.00806
 C2456 C 0.33909 -0.08972 -0.00978
 C2457 C 0.35643 -0.07870 -0.01137
 C2458 C 0.37128 -0.06930 -0.01211
 C2459 C 0.38908 -0.05808 -0.01199
 C2460 C 0.39433 -0.04770 0.00409
 C2461 C 0.41203 -0.03776 0.00500
 C2462 C 0.42492 -0.03797 -0.01021
 C2463 C 0.41932 -0.04799 -0.02657
 C2464 C 0.40153 -0.05802 -0.02742
 H2465 H 0.29055 -0.09501 -0.02767
 H2466 H 0.31886 -0.12879 0.01622
 H2467 H 0.28957 -0.14821 0.01981
 H2468 H 0.26082 -0.11410 -0.02407
 H2469 H 0.38487 -0.04757 0.01612
 H2470 H 0.41576 -0.03018 0.01780
 H2471 H 0.42891 -0.04857 -0.03849
 H2472 H 0.39767 -0.06602 -0.03997
 C2473 C 0.28270 1.10344 0.48993
 C2474 C 0.29757 1.10758 0.50285
 C2475 C 0.29525 1.12366 0.51487
 C2476 C 0.27791 1.13507 0.51455
 C2477 C 0.26204 1.13024 0.50260
 C2478 C 0.26531 1.11487 0.48957
 C2479 C 0.31529 1.09552 0.50378
 C2480 C 0.33021 1.08557 0.50482
 C2481 C 0.34780 1.07410 0.50608
 C2482 C 0.36293 1.06448 0.50691
 C2483 C 0.38117 1.05321 0.50732
 C2484 C 0.39420 1.05462 0.52250
 C2485 C 0.41252 1.04480 0.52212
 C2486 C 0.41808 1.03351 0.50648
 C2487 C 0.40460 1.03173 0.49157
 C2488 C 0.38633 1.04150 0.49201
 H2489 H 0.28448 1.09133 0.48019
 H2490 H 0.30691 1.12745 0.52452
 H2491 H 0.27726 1.14779 0.52363
 H2492 H 0.25410 1.11139 0.47935
 H2493 H 0.39041 1.06367 0.53443
 H2494 H 0.42256 1.04660 0.53378
 H2495 H 0.40831 1.02316 0.47932
 H2496 H 0.37640 1.04027 0.48018
 C2497 C -0.20904 0.60191 0.98748
 C2498 C -0.19473 0.60568 1.00109
 C2499 C -0.19763 0.62140 1.01342
 C2500 C -0.21498 0.63279 1.01271
 C2501 C -0.23032 0.62830 1.00002
 C2502 C -0.22644 0.61333 0.98672
 C2503 C -0.17700 0.59358 1.00244
 C2504 C -0.16213 0.58359 1.00384
 C2505 C -0.14462 0.57197 1.00550
 C2506 C -0.12961 0.56214 1.00661
 C2507 C -0.11159 0.55046 1.00723
 C2508 C -0.09804 0.55247 1.02194
 C2509 C -0.07997 0.54212 1.02165
 C2510 C -0.07518 0.52969 1.00656
 C2511 C -0.08919 0.52733 0.99217
 C2512 C -0.10718 0.53761 0.99253
 H2513 H -0.20680 0.59009 0.97750
 H2514 H -0.18641 0.62493 1.02363
 H2515 H -0.21606 0.64524 1.02209
 H2516 H -0.23720 0.61014 0.97598
 H2517 H -0.10124 0.56239 1.03341
 H2518 H -0.06952 0.54440 1.03288
 H2519 H -0.08608 0.51787 0.98035
 H2520 H -0.11750 0.53587 0.98107
 C2521 C 0.01877 0.69578 0.61216
 C2522 C 0.02443 0.69809 0.59368
 C2523 C 0.02375 0.71678 0.58541
 C2524 C 0.01649 0.73303 0.59537
 C2525 C 0.00903 0.73063 0.61352
 C2526 C 0.01145 0.71192 0.62208
 C2527 C 0.02870 0.68085 0.58281
 C2528 C 0.03062 0.66577 0.57416
 C2529 C 0.03093 0.64767 0.56467
 C2530 C 0.02968 0.63194 0.55708
 C2531 C 0.02664 0.61311 0.54864
 C2532 C 0.01378 0.61170 0.53340
 C2533 C 0.00912 0.59321 0.52627
 C2534 C 0.01722 0.57590 0.53438
 C2535 C 0.03034 0.57751 0.54958
 C2536 C 0.03498 0.59603 0.55668
 H2537 H 0.01941 0.68135 0.61873
 H2538 H 0.02840 0.71871 0.57115
 H2539 H 0.01668 0.74734 0.58869
 H2540 H 0.00693 0.70968 0.63634
 H2541 H 0.00708 0.62487 0.52725
 H2542 H -0.00095 0.59251 0.51451
 H2543 H 0.03697 0.56449 0.55606
 H2544 H 0.04477 0.59702 0.56863
 C2545 C 0.49695 0.20113 0.09935
 C2546 C 0.51355 0.18978 0.10426
 C2547 C 0.52637 0.19630 0.11812
 C2548 C 0.52279 0.21440 0.12687
 C2549 C 0.50658 0.22660 0.12145
 C2550 C 0.49332 0.21919 0.10805
 C2551 C 0.51686 0.17112 0.09539
 C2552 C 0.51875 0.15553 0.08760
 C2553 C 0.51978 0.13747 0.07808
 C2554 C 0.51959 0.12221 0.06961
 C2555 C 0.51812 0.10430 0.05920
 C2556 C 0.52785 0.08705 0.06529
 C2557 C 0.52531 0.06939 0.05561
 C2558 C 0.51291 0.06887 0.03978
 C2559 C 0.50341 0.08641 0.03368
 C2560 C 0.50601 0.10400 0.04336
 H2561 H 0.48669 0.19593 0.08891
 H2562 H 0.53897 0.18727 0.12236
 H2563 H 0.53254 0.21851 0.13813
 H2564 H 0.48011 0.22750 0.10428
 H2565 H 0.53718 0.08718 0.07762
 H2566 H 0.53287 0.05616 0.06064
 H2567 H 0.49383 0.08656 0.02153
 H2568 H 0.49836 0.11733 0.03863
 C2569 C -0.02154 0.19708 0.89659
 C2570 C -0.02406 0.19924 0.91575
 C2571 C -0.02158 0.21760 0.92420
 C2572 C -0.01601 0.23373 0.91351
 C2573 C -0.01211 0.23150 0.89430
 C2574 C -0.01593 0.21310 0.88592
 C2575 C -0.02778 0.18211 0.92670
 C2576 C -0.02968 0.16700 0.93516
 C2577 C -0.03034 0.14865 0.94415
 C2578 C -0.02954 0.13255 0.95117
 C2579 C -0.02700 0.11315 0.95882
 C2580 C -0.01469 0.11023 0.97433
 C2581 C -0.01017 0.09114 0.98053
 C2582 C -0.01787 0.07470 0.97120
 C2583 C -0.03057 0.07783 0.95582
 C2584 C -0.03506 0.09697 0.94964
 H2585 H -0.02363 0.18292 0.88991
 H2586 H -0.02381 0.21942 0.93903
 H2587 H -0.01494 0.24789 0.92036
 H2588 H -0.01426 0.21105 0.87105
 H2589 H -0.00821 0.12270 0.98136
 H2590 H -0.00043 0.08928 0.99247
 H2591 H -0.03687 0.06551 0.94842
 H2592 H -0.04443 0.09914 0.93747
 C2593 C 0.48870 0.70037 0.39808
 C2594 C 0.48324 0.70495 0.41629
 C2595 C 0.48309 0.72453 0.42239
 C2596 C 0.48910 0.73946 0.41047
 C2597 C 0.49613 0.73489 0.39246
 C2598 C 0.49477 0.71521 0.38618
 C2599 C 0.47926 0.68922 0.42890
 C2600 C 0.47722 0.67518 0.43885
 C2601 C 0.47641 0.65785 0.44949
 C2602 C 0.47703 0.64234 0.45760
 C2603 C 0.47918 0.62322 0.46598
 C2604 C 0.49236 0.62025 0.48085
 C2605 C 0.49683 0.60112 0.48710
 C2606 C 0.48826 0.58477 0.47838
 C2607 C 0.47455 0.58802 0.46381
 C2608 C 0.47009 0.60714 0.45764
 H2609 H 0.48862 0.68523 0.39317
 H2610 H 0.47852 0.72822 0.43640
 H2611 H 0.48817 0.75451 0.41546
 H2612 H 0.49888 0.71127 0.37211
 H2613 H 0.49966 0.63264 0.48720
 H2614 H 0.50736 0.59912 0.49840
 H2615 H 0.46752 0.57578 0.45694
 H2616 H 0.46004 0.60933 0.44596
 C2617 C 0.52728 0.78693 0.41276
 C2618 C 0.52082 0.80522 0.40579
 C2619 C 0.50889 0.80623 0.38985
 C2620 C 0.50292 0.78896 0.38114
 C2621 C 0.50827 0.77025 0.38861
 C2622 C 0.52137 0.76961 0.40405
 C2623 C 0.52536 0.82300 0.41549
 C2624 C 0.52789 0.83822 0.42363
 C2625 C 0.52917 0.85627 0.43308
 C2626 C 0.52874 0.87185 0.44105
 C2627 C 0.52646 0.89042 0.45033
 C2628 C 0.51510 0.89160 0.46639
 C2629 C 0.51057 0.90993 0.47424
 C2630 C 0.51732 0.92735 0.46604
 C2631 C 0.52924 0.92596 0.45018
 C2632 C 0.53371 0.90756 0.44234
 H2633 H 0.53674 0.78604 0.42499
 H2634 H 0.50411 0.82042 0.38419
 H2635 H 0.49434 0.79043 0.36843
 H2636 H 0.52684 0.75560 0.40951
 H2637 H 0.50928 0.87837 0.47254
 H2638 H 0.50148 0.91046 0.48651
 H2639 H 0.53478 0.93907 0.44360
 H2640 H 0.54237 0.90676 0.42978
 C2641 C 0.00627 0.30181 0.89667
 C2642 C 0.02028 0.29812 0.91065
 C2643 C 0.02588 0.27874 0.91520
 C2644 C 0.01707 0.26301 0.90600
 C2645 C 0.00194 0.26643 0.89265
 C2646 C -0.00259 0.28619 0.88755
 C2647 C 0.02775 0.31453 0.92082
 C2648 C 0.03213 0.32926 0.92900
 C2649 C 0.03481 0.34734 0.93809
 C2650 C 0.03496 0.36324 0.94545
 C2651 C 0.03274 0.38234 0.95376
 C2652 C 0.03897 0.39911 0.94433
 C2653 C 0.03382 0.41791 0.95092
 C2654 C 0.02222 0.42007 0.96692
 C2655 C 0.01652 0.40307 0.97655
 C2656 C 0.02173 0.38434 0.96997
 H2657 H 0.00210 0.31683 0.89286
 H2658 H 0.03693 0.27578 0.92588
 H2659 H 0.02195 0.24810 0.90942
 H2660 H -0.01281 0.28973 0.87634
 H2661 H 0.04724 0.39766 0.93158
 H2662 H 0.03860 0.43069 0.94327
 H2663 H 0.00774 0.40418 0.98900
 H2664 H 0.01660 0.37141 0.97719
 C2665 C 0.48221 0.29655 0.11410
 C2666 C 0.48745 0.29614 0.09537
 C2667 C 0.49664 0.27936 0.08789
 C2668 C 0.50070 0.26295 0.09917
 C2669 C 0.49516 0.26287 0.11810
 C2670 C 0.48625 0.28020 0.12541
 C2671 C 0.48552 0.31377 0.08446
 C2672 C 0.48488 0.32894 0.07581
 C2673 C 0.48528 0.34701 0.06631
 C2674 C 0.48655 0.36267 0.05864
 C2675 C 0.48901 0.38145 0.04998
 C2676 C 0.50226 0.38320 0.03541
 C2677 C 0.50567 0.40168 0.02768
 C2678 C 0.49587 0.41865 0.03453
 C2679 C 0.48247 0.41668 0.04915
 C2680 C 0.47910 0.39816 0.05684
 H2681 H 0.47561 0.30974 0.12013
 H2682 H 0.50136 0.27923 0.07351
 H2683 H 0.50890 0.25075 0.09312
 H2684 H 0.48275 0.28119 0.14007
 H2685 H 0.51011 0.37031 0.03015
 H2686 H 0.51603 0.40267 0.01641
 H2687 H 0.47458 0.42942 0.05465
 H2688 H 0.46892 0.39690 0.06823
 C2689 C -0.02289 0.78087 0.58647
 C2690 C -0.01760 0.79968 0.59234
 C2691 C -0.00685 0.80201 0.60882
 C2692 C -0.00093 0.78555 0.61927
 C2693 C -0.00511 0.76626 0.61309
 C2694 C -0.01702 0.76433 0.59694
 C2695 C -0.02241 0.81676 0.58131
 C2696 C -0.02516 0.83170 0.57256
 C2697 C -0.02675 0.84971 0.56293
 C2698 C -0.02668 0.86542 0.55518
 C2699 C -0.02497 0.88430 0.54645
 C2700 C -0.01328 0.88601 0.53071
 C2701 C -0.00951 0.90461 0.52341
 C2702 C -0.01736 0.92175 0.53187
 C2703 C -0.02949 0.91982 0.54747
 C2704 C -0.03321 0.90117 0.55475
 H2705 H -0.03148 0.77898 0.57382
 H2706 H -0.00305 0.81661 0.61365
 H2707 H 0.00659 0.78817 0.63235
 H2708 H -0.02163 0.74991 0.59236
 H2709 H -0.00666 0.87301 0.52435
 H2710 H -0.00020 0.90554 0.51134
 H2711 H -0.03588 0.93270 0.55423
 H2712 H -0.04211 0.89995 0.56709
 C2713 C 0.25873 0.34103 0.05378
 C2714 C 0.26490 0.32120 0.05365
 C2715 C 0.26802 0.31164 0.03663
 C2716 C 0.26490 0.32181 0.01983
 C2717 C 0.25805 0.34172 0.01964
 C2718 C 0.25561 0.35124 0.03702
 C2719 C 0.26855 0.31094 0.07103
 C2720 C 0.27145 0.30288 0.08587
 C2721 C 0.27449 0.29419 0.10364
 C2722 C 0.27657 0.28762 0.11922
 C2723 C 0.27822 0.28104 0.13832
 C2724 C 0.27771 0.26092 0.14292
 C2725 C 0.27692 0.25505 0.16167
 C2726 C 0.27642 0.26929 0.17595
 C2727 C 0.27788 0.28937 0.17115
 C2728 C 0.27877 0.29516 0.15251
 H2729 H 0.25660 0.34873 0.06686
 H2730 H 0.27323 0.29640 0.03635
 H2731 H 0.26848 0.31412 0.00707
 H2732 H 0.25142 0.36675 0.03760
 H2733 H 0.27722 0.24985 0.13204
 H2734 H 0.27570 0.23950 0.16491
 H2735 H 0.27765 0.30071 0.18179
 H2736 H 0.27918 0.31075 0.14916
 C2737 C 0.74728 0.83988 0.55180
 C2738 C 0.74550 0.81942 0.55025
 C2739 C 0.74292 0.81093 0.53266
 C2740 C 0.74317 0.82272 0.51660
 C2741 C 0.74679 0.84319 0.51783
 C2742 C 0.74756 0.85166 0.53583
 C2743 C 0.74692 0.80734 0.56680
 C2744 C 0.74862 0.79812 0.58117
 C2745 C 0.75093 0.78862 0.59864
 C2746 C 0.75292 0.78191 0.61416
 C2747 C 0.75506 0.77597 0.63340
 C2748 C 0.75538 0.75604 0.63882
 C2749 C 0.75620 0.75099 0.65783
 C2750 C 0.75650 0.76587 0.67153
 C2751 C 0.75679 0.78576 0.66580
 C2752 C 0.75610 0.79072 0.64696
 H2753 H 0.74886 0.84672 0.56538
 H2754 H 0.74091 0.79517 0.53131
 H2755 H 0.74056 0.81558 0.50338
 H2756 H 0.74930 0.86742 0.53746
 H2757 H 0.75461 0.74448 0.62842
 H2758 H 0.75590 0.73557 0.66182
 H2759 H 0.75722 0.79760 0.67594
 H2760 H 0.75594 0.80617 0.64297
 C2761 C 0.23629 0.68660 0.53621
 C2762 C 0.23996 0.67763 0.55351
 C2763 C 0.24702 0.65808 0.55419
 C2764 C 0.25044 0.64758 0.53773
 C2765 C 0.24741 0.65651 0.52007
 C2766 C 0.23972 0.67612 0.51968
 C2767 C 0.23595 0.68812 0.57064
 C2768 C 0.23277 0.69629 0.58531
 C2769 C 0.22941 0.70504 0.60296
 C2770 C 0.22705 0.71161 0.61846
 C2771 C 0.22511 0.71813 0.63755
 C2772 C 0.22431 0.70393 0.65166
 C2773 C 0.22511 0.70958 0.67036
 C2774 C 0.22669 0.72960 0.67533
 C2775 C 0.22634 0.74395 0.66111
 C2776 C 0.22567 0.73821 0.64229
 H2777 H 0.23041 0.70159 0.53547
 H2778 H 0.24959 0.65081 0.56749
 H2779 H 0.25531 0.63228 0.53876
 H2780 H 0.23572 0.68331 0.50668
 H2781 H 0.22387 0.68836 0.64822
 H2782 H 0.22525 0.69816 0.68096
 H2783 H 0.22770 0.75945 0.66449
 H2784 H 0.22635 0.74936 0.63149
 C2785 C 0.72723 0.17282 0.04247
 C2786 C 0.74380 0.18314 0.04794
 C2787 C 0.76083 0.18153 0.03731
 C2788 C 0.76146 0.16905 0.02171
 C2789 C 0.74536 0.15719 0.01690
 C2790 C 0.72784 0.16033 0.02700
 C2791 C 0.74327 0.19459 0.06493
 C2792 C 0.74227 0.20324 0.07964
 C2793 C 0.74076 0.21219 0.09743
 C2794 C 0.73948 0.21869 0.11307
 C2795 C 0.73827 0.22488 0.13230
 C2796 C 0.73730 0.24492 0.13728
 C2797 C 0.73747 0.25043 0.15617
 C2798 C 0.73877 0.23593 0.17025
 C2799 C 0.73907 0.21588 0.16501
 C2800 C 0.73882 0.21044 0.14625
 H2801 H 0.71377 0.17431 0.05026
 H2802 H 0.77369 0.18976 0.04116
 H2803 H 0.77475 0.16823 0.01363
 H2804 H 0.71437 0.15329 0.02304
 H2805 H 0.73684 0.25625 0.12660
 H2806 H 0.73732 0.26598 0.15972
 H2807 H 0.73996 0.20430 0.17544
 H2808 H 0.73949 0.19491 0.14263
 C2809 C 0.76312 0.17450 0.95752
 C2810 C 0.74586 0.18474 0.95251
 C2811 C 0.72902 0.18234 0.96317
 C2812 C 0.72933 0.16924 0.97834
 C2813 C 0.74625 0.15759 0.98274
 C2814 C 0.76345 0.16141 0.97260
 C2815 C 0.74545 0.19707 0.93603
 C2816 C 0.74540 0.20660 0.92176
 C2817 C 0.74532 0.21676 0.90446
 C2818 C 0.74488 0.22436 0.88919
 C2819 C 0.74355 0.23184 0.87032
 C2820 C 0.72928 0.22424 0.85837
 C2821 C 0.72855 0.22974 0.83963
 C2822 C 0.74209 0.24303 0.83238
 C2823 C 0.75604 0.25121 0.84457
 C2824 C 0.75683 0.24554 0.86345
 H2825 H 0.77640 0.17658 0.94971
 H2826 H 0.71561 0.19046 0.95968
 H2827 H 0.71617 0.16789 0.98647
 H2828 H 0.77742 0.15453 0.97627
 H2829 H 0.71894 0.21365 0.86345
 H2830 H 0.71750 0.22327 0.83071
 H2831 H 0.76672 0.26139 0.83940
 H2832 H 0.76801 0.25148 0.87255
 C2833 C 0.26644 0.68220 0.46653
 C2834 C 0.25596 0.67719 0.45041
 C2835 C 0.24284 0.66164 0.45102
 C2836 C 0.24016 0.65116 0.46760
 C2837 C 0.25021 0.65634 0.48420
 C2838 C 0.26379 0.67177 0.48313
 C2839 C 0.25932 0.68729 0.43302
 C2840 C 0.26204 0.69524 0.41820
 C2841 C 0.26495 0.70383 0.40044
 C2842 C 0.26703 0.71034 0.38490
 C2843 C 0.26879 0.71685 0.36581
 C2844 C 0.26889 0.70273 0.35160
 C2845 C 0.26841 0.70859 0.33293
 C2846 C 0.26782 0.72876 0.32807
 C2847 C 0.26869 0.74293 0.34240
 C2848 C 0.26907 0.73699 0.36119
 H2849 H 0.27695 0.69395 0.46620
 H2850 H 0.23498 0.65727 0.43853
 H2851 H 0.23066 0.63862 0.46712
 H2852 H 0.27259 0.67560 0.49520
 H2853 H 0.26870 0.68712 0.35494
 H2854 H 0.26787 0.69727 0.32228
 H2855 H 0.26813 0.75855 0.33912
 H2856 H 0.26895 0.74809 0.37206
 C2857 C 0.76574 0.81868 0.46354
 C2858 C 0.75303 0.82302 0.44857
 C2859 C 0.73997 0.83913 0.44975
 C2860 C 0.73890 0.85032 0.46605
 C2861 C 0.75042 0.84521 0.48197
 C2862 C 0.76472 0.82991 0.47992
 C2863 C 0.75344 0.81139 0.43173
 C2864 C 0.75321 0.80240 0.41720
 C2865 C 0.75263 0.79294 0.39964
 C2866 C 0.75224 0.78603 0.38414
 C2867 C 0.75225 0.77949 0.36501
 C2868 C 0.74186 0.76291 0.35915
 C2869 C 0.74145 0.75760 0.34021
 C2870 C 0.75133 0.76893 0.32697
 C2871 C 0.76186 0.78539 0.33317
 C2872 C 0.76230 0.79057 0.35196
 H2873 H 0.77636 0.80659 0.46261
 H2874 H 0.73056 0.84312 0.43799
 H2875 H 0.72904 0.86304 0.46592
 H2876 H 0.77473 0.82626 0.49131
 H2877 H 0.73393 0.75426 0.36915
 H2878 H 0.73319 0.74487 0.33592
 H2879 H 0.76978 0.79443 0.32348
 H2880 H 0.77034 0.80344 0.35628
 C2881 C 0.23725 0.31529 0.96675
 C2882 C 0.24781 0.31929 0.95066
 C2883 C 0.26162 0.33423 0.95096
 C2884 C 0.26492 0.34512 0.96722
 C2885 C 0.25479 0.34096 0.98380
 C2886 C 0.24052 0.32614 0.98303
 C2887 C 0.24373 0.30894 0.93351
 C2888 C 0.24038 0.30095 0.91880
 C2889 C 0.23671 0.29257 0.90108
 C2890 C 0.23393 0.28649 0.88546
 C2891 C 0.23126 0.28088 0.86621
 C2892 C 0.23036 0.29573 0.85267
 C2893 C 0.22973 0.29086 0.83380
 C2894 C 0.22995 0.27098 0.82805
 C2895 C 0.22999 0.25605 0.84172
 C2896 C 0.23076 0.26099 0.86074
 H2897 H 0.22620 0.30405 0.96661
 H2898 H 0.26952 0.33783 0.93844
 H2899 H 0.27495 0.35720 0.96647
 H2900 H 0.23167 0.32312 0.99509
 H2901 H 0.23071 0.31115 0.85669
 H2902 H 0.22954 0.30274 0.82366
 H2903 H 0.23026 0.24062 0.83772
 H2904 H 0.23149 0.24935 0.87111
 C2905 C 0.86366 0.45068 0.73552
 C2906 C 0.85407 0.44714 0.75232
 C2907 C 0.85626 0.46032 0.76713
 C2908 C 0.86852 0.47645 0.76545
 C2909 C 0.87945 0.47954 0.74910
 C2910 C 0.87598 0.46688 0.73380
 C2911 C 0.84208 0.42997 0.75453
 C2912 C 0.83215 0.41558 0.75663
 C2913 C 0.82055 0.39866 0.75899
 C2914 C 0.81064 0.38418 0.76052
 C2915 C 0.79873 0.36681 0.76130
 C2916 C 0.79949 0.35406 0.77675
 C2917 C 0.78877 0.33657 0.77661
 C2918 C 0.77728 0.33160 0.76093
 C2919 C 0.77623 0.34485 0.74577
 C2920 C 0.78683 0.36224 0.74597
 H2921 H 0.86166 0.44089 0.72375
 H2922 H 0.84865 0.45803 0.78009
 H2923 H 0.87000 0.48631 0.77725
 H2924 H 0.88260 0.46937 0.72043
 H2925 H 0.80866 0.35741 0.78871
 H2926 H 0.79000 0.32666 0.78845
 H2927 H 0.76747 0.34161 0.73350
 H2928 H 0.78605 0.37195 0.73395
 C2929 C 0.35846 0.95416 0.23641
 C2930 C 0.35715 0.94444 0.25358
 C2931 C 0.36780 0.95134 0.26889
 C2932 C 0.38014 0.96739 0.26699
 C2933 C 0.38276 0.97660 0.24947
 C2934 C 0.37082 0.97028 0.23447
 C2935 C 0.34500 0.92738 0.25566
 C2936 C 0.33513 0.91293 0.25767
 C2937 C 0.32378 0.89584 0.26000
 C2938 C 0.31417 0.88116 0.26161
 C2939 C 0.30266 0.86354 0.26270
 C2940 C 0.30682 0.84896 0.27618
 C2941 C 0.29654 0.83122 0.27608
 C2942 C 0.28206 0.82781 0.26238
 C2943 C 0.27759 0.84287 0.24932
 C2944 C 0.28778 0.86053 0.24950
 H2945 H 0.34994 0.94926 0.22450
 H2946 H 0.36651 0.94435 0.28240
 H2947 H 0.38737 0.97258 0.27948
 H2948 H 0.37135 0.97767 0.22109
 H2949 H 0.31833 0.85108 0.28647
 H2950 H 0.30045 0.81992 0.28624
 H2951 H 0.26648 0.84084 0.23861
 H2952 H 0.28438 0.87166 0.23900
 C2953 C 0.14287 0.96225 0.76292
 C2954 C 0.13887 0.94739 0.74994
 C2955 C 0.12277 0.94970 0.73788
 C2956 C 0.11122 0.96702 0.73818
 C2957 C 0.11591 0.98293 0.75014
 C2958 C 0.13128 0.97963 0.76327
 C2959 C 0.15112 0.92972 0.74886
 C2960 C 0.16116 0.91483 0.74750
 C2961 C 0.17275 0.89729 0.74572
 C2962 C 0.18256 0.88225 0.74435
 C2963 C 0.19424 0.86420 0.74325
 C2964 C 0.19064 0.85022 0.72926
 C2965 C 0.20121 0.83219 0.72905
 C2966 C 0.21548 0.82786 0.74291
 C2967 C 0.21932 0.84227 0.75657
 C2968 C 0.20880 0.86024 0.75672
 H2969 H 0.15500 0.96046 0.77270
 H2970 H 0.11908 0.93806 0.72819
 H2971 H 0.09851 0.96761 0.72906
 H2972 H 0.13464 0.99082 0.77353
 H2973 H 0.17939 0.85308 0.71875
 H2974 H 0.19778 0.82142 0.71842
 H2975 H 0.23020 0.83952 0.76744
 H2976 H 0.21176 0.87090 0.76760
 C2977 C 0.64598 0.46884 0.23359
 C2978 C 0.64290 0.45197 0.24429
 C2979 C 0.62812 0.45225 0.25765
 C2980 C 0.61668 0.46940 0.26052
 C2981 C 0.62017 0.48690 0.25041
 C2982 C 0.63459 0.48596 0.23642
 C2983 C 0.65489 0.43439 0.24147
 C2984 C 0.66510 0.41979 0.23922
 C2985 C 0.67721 0.40273 0.23693
 C2986 C 0.68762 0.38814 0.23551
 C2987 C 0.70006 0.37062 0.23473
 C2988 C 0.71417 0.36724 0.24876
 C2989 C 0.72506 0.34952 0.24927
 C2990 C 0.72204 0.33481 0.23572
 C2991 C 0.70841 0.33865 0.22119
 C2992 C 0.69744 0.35643 0.22075
 H2993 H 0.65716 0.46874 0.22299
 H2994 H 0.62530 0.43912 0.26575
 H2995 H 0.60489 0.46867 0.27040
 H2996 H 0.63712 0.49868 0.22768
 H2997 H 0.71635 0.37809 0.25965
 H2998 H 0.73545 0.34710 0.26063
 H2999 H 0.70560 0.32760 0.21064
 H3000 H 0.68653 0.35886 0.20984
 C3001 C 0.62145 0.56085 0.25438
 C3002 C 0.64129 0.55963 0.25948
 C3003 C 0.65027 0.54111 0.26238
 C3004 C 0.63963 0.52388 0.25992
 C3005 C 0.61978 0.52472 0.25388
 C3006 C 0.61075 0.54364 0.25191
 C3007 C 0.65253 0.57731 0.26168
 C3008 C 0.66220 0.59195 0.26320
 C3009 C 0.67376 0.60902 0.26442
 C3010 C 0.68372 0.62354 0.26474
 C3011 C 0.69565 0.64086 0.26402
 C3012 C 0.70629 0.64458 0.24790
 C3013 C 0.71679 0.66194 0.24628
 C3014 C 0.71689 0.67595 0.26079
 C3015 C 0.70669 0.67181 0.27724
 C3016 C 0.69607 0.65438 0.27881
 H3017 H 0.61421 0.57512 0.25238
 H3018 H 0.66551 0.53995 0.26674
 H3019 H 0.64700 0.50998 0.26317
 H3020 H 0.59531 0.54506 0.24837
 H3021 H 0.70612 0.63424 0.23637
 H3022 H 0.72453 0.66455 0.23345
 H3023 H 0.70635 0.68232 0.28862
 H3024 H 0.68788 0.65168 0.29136
 C3025 C 0.14743 0.03829 0.74693
 C3026 C 0.13811 0.05647 0.75066
 C3027 C 0.11776 0.05737 0.75258
 C3028 C 0.10694 0.04012 0.75173
 C3029 C 0.11625 0.02137 0.74963
 C3030 C 0.13661 0.02096 0.74608
 C3031 C 0.14933 0.07419 0.75277
 C3032 C 0.15849 0.08913 0.75471
 C3033 C 0.16906 0.10677 0.75687
 C3034 C 0.17802 0.12190 0.75824
 C3035 C 0.18872 0.14006 0.75893
 C3036 C 0.20094 0.14475 0.74415
 C3037 C 0.21032 0.16285 0.74380
 C3038 C 0.20767 0.17669 0.75828
 C3039 C 0.19585 0.17164 0.77343
 C3040 C 0.18638 0.15344 0.77371
 H3041 H 0.16312 0.03747 0.74481
 H3042 H 0.11026 0.07139 0.75504
 H3043 H 0.09122 0.04128 0.75356
 H3044 H 0.14439 0.00740 0.74264
 H3045 H 0.20291 0.13455 0.73264
 H3046 H 0.21938 0.16614 0.73195
 H3047 H 0.19341 0.18197 0.78473
 H3048 H 0.17692 0.15000 0.78523
 C3049 C 0.36535 0.03884 0.22690
 C3050 C 0.35548 0.04561 0.24269
 C3051 C 0.35776 0.03526 0.25950
 C3052 C 0.37047 0.01873 0.26068
 C3053 C 0.38180 0.01261 0.24524
 C3054 C 0.37805 0.02237 0.22803
 C3055 C 0.34340 0.06340 0.24160
 C3056 C 0.33371 0.07856 0.24055
 C3057 C 0.32274 0.09656 0.23940
 C3058 C 0.31363 0.11209 0.23873
 C3059 C 0.30298 0.13079 0.23855
 C3060 C 0.28978 0.13522 0.25280
 C3061 C 0.28052 0.15383 0.25364
 C3062 C 0.28430 0.16842 0.24021
 C3063 C 0.29715 0.16365 0.22558
 C3064 C 0.30646 0.14497 0.22480
 H3065 H 0.36331 0.04637 0.21365
 H3066 H 0.34988 0.04008 0.27177
 H3067 H 0.37193 0.01099 0.27386
 H3068 H 0.38480 0.01739 0.21527
 H3069 H 0.28696 0.12442 0.26354
 H3070 H 0.27071 0.15692 0.26509
 H3071 H 0.30050 0.17452 0.21508
 H3072 H 0.31669 0.14176 0.21371
 C3073 C 0.85519 0.53608 0.73136
 C3074 C 0.85382 0.54914 0.74639
 C3075 C 0.86427 0.54487 0.76289
 C3076 C 0.87665 0.52808 0.76409
 C3077 C 0.87935 0.51552 0.74853
 C3078 C 0.86752 0.51933 0.73253
 C3079 C 0.84194 0.56703 0.74471
 C3080 C 0.83220 0.58211 0.74315
 C3081 C 0.82098 0.59993 0.74146
 C3082 C 0.81153 0.61524 0.74045
 C3083 C 0.80037 0.63366 0.74009
 C3084 C 0.78903 0.63895 0.75548
 C3085 C 0.77934 0.65735 0.75606
 C3086 C 0.78078 0.67086 0.74121
 C3087 C 0.79169 0.66519 0.72547
 C3088 C 0.80147 0.64672 0.72496
 H3089 H 0.84690 0.53895 0.71863
 H3090 H 0.86292 0.55458 0.77483
 H3091 H 0.88394 0.52507 0.77727
 H3092 H 0.86836 0.50956 0.72060
 H3093 H 0.78803 0.62902 0.76727
 H3094 H 0.77103 0.66113 0.76837
 H3095 H 0.79321 0.67525 0.71386
 H3096 H 0.81024 0.64282 0.71295
 C3097 C 0.94790 0.76557 0.13508
 C3098 C 0.94669 0.77180 0.15356
 C3099 C 0.96342 0.77159 0.16497
 C3100 C 0.98123 0.76428 0.15814
 C3101 C 0.98236 0.75632 0.13996
 C3102 C 0.96562 0.75824 0.12824
 C3103 C 0.92786 0.77597 0.16133
 C3104 C 0.91183 0.77770 0.16791
 C3105 C 0.89312 0.77763 0.17573
 C3106 C 0.87734 0.77590 0.18264
 C3107 C 0.85899 0.77212 0.19120
 C3108 C 0.85836 0.75788 0.20528
 C3109 C 0.84058 0.75337 0.21338
 C3110 C 0.82315 0.76307 0.20745
 C3111 C 0.82391 0.77733 0.19318
 C3112 C 0.84178 0.78181 0.18508
 H3113 H 0.93500 0.76580 0.12610
 H3114 H 0.96262 0.77665 0.17928
 H3115 H 0.99396 0.76489 0.16722
 H3116 H 0.96613 0.75337 0.11387
 H3117 H 0.87165 0.75020 0.20996
 H3118 H 0.84054 0.74236 0.22434
 H3119 H 0.81077 0.78516 0.18839
 H3120 H 0.84217 0.79275 0.17407
 C3121 C 0.45287 0.25870 0.66360
 C3122 C 0.43677 0.26818 0.65503
 C3123 C 0.43729 0.27310 0.63615
 C3124 C 0.45399 0.26868 0.62586
 C3125 C 0.47076 0.25976 0.63438
 C3126 C 0.46963 0.25426 0.65334
 C3127 C 0.41906 0.27121 0.66517
 C3128 C 0.40397 0.27288 0.67346
 C3129 C 0.38610 0.27370 0.68288
 C3130 C 0.37068 0.27337 0.69070
 C3131 C 0.35224 0.27180 0.69973
 C3132 C 0.33559 0.28153 0.69237
 C3133 C 0.31732 0.27858 0.70029
 C3134 C 0.31555 0.26578 0.71562
 C3135 C 0.33248 0.25633 0.72308
 C3136 C 0.35071 0.25932 0.71514
 H3137 H 0.45228 0.25423 0.67809
 H3138 H 0.42462 0.27994 0.62929
 H3139 H 0.45385 0.27215 0.61111
 H3140 H 0.48134 0.24598 0.66025
 H3141 H 0.33669 0.29111 0.68034
 H3142 H 0.30460 0.28617 0.69428
 H3143 H 0.33166 0.24644 0.73491
 H3144 H 0.36355 0.25162 0.72081
 C3145 C 0.47448 0.73034 0.81862
 C3146 C 0.45517 0.72864 0.82453
 C3147 C 0.45042 0.73224 0.84310
 C3148 C 0.46478 0.73817 0.85566
 C3149 C 0.48415 0.74119 0.84982
 C3150 C 0.48897 0.73619 0.83125
 C3151 C 0.43964 0.72458 0.81163
 C3152 C 0.42533 0.72240 0.80204
 C3153 C 0.40736 0.72143 0.79244
 C3154 C 0.39121 0.72196 0.78563
 C3155 C 0.37140 0.72411 0.77910
 C3156 C 0.35644 0.71517 0.78896
 C3157 C 0.33687 0.71975 0.78464
 C3158 C 0.33208 0.73343 0.77043
 C3159 C 0.34726 0.74190 0.76024
 C3160 C 0.36681 0.73731 0.76462
 H3161 H 0.47830 0.72725 0.80428
 H3162 H 0.43550 0.73076 0.84783
 H3163 H 0.46068 0.74075 0.87001
 H3164 H 0.50389 0.73663 0.82640
 H3165 H 0.35990 0.70514 0.80038
 H3166 H 0.32555 0.71279 0.79261
 H3167 H 0.34407 0.75240 0.74915
 H3168 H 0.37833 0.74453 0.75712
 C3169 C 0.97347 0.22911 0.32605
 C3170 C 0.95536 0.22867 0.33486
 C3171 C 0.95387 0.23365 0.35367
 C3172 C 0.97031 0.23985 0.36350
 C3173 C 0.98847 0.24188 0.35454
 C3174 C 0.98999 0.23527 0.33589
 C3175 C 0.93791 0.22500 0.32431
 C3176 C 0.92278 0.22339 0.31582
 C3177 C 0.90465 0.22328 0.30643
 C3178 C 0.88887 0.22465 0.29893
 C3179 C 0.86990 0.22785 0.29067
 C3180 C 0.85340 0.22024 0.29922
 C3181 C 0.83471 0.22532 0.29248
 C3182 C 0.83234 0.23819 0.27714
 C3183 C 0.84907 0.24543 0.26841
 C3184 C 0.86774 0.24031 0.27519
 H3185 H 0.97476 0.22496 0.31152
 H3186 H 0.93988 0.23316 0.36064
 H3187 H 0.96877 0.24362 0.37809
 H3188 H 1.00386 0.23479 0.32877
 H3189 H 0.85498 0.21075 0.31134
 H3190 H 0.82214 0.21935 0.29942
 H3191 H 0.84777 0.25527 0.25653
 H3192 H 0.88048 0.24644 0.26865
 C3193 C 0.03601 0.27419 0.32804
 C3194 C 0.05503 0.26742 0.33213
 C3195 C 0.05862 0.25481 0.34726
 C3196 C 0.04317 0.24856 0.35811
 C3197 C 0.02365 0.25435 0.35365
 C3198 C 0.02049 0.26799 0.33890
 C3199 C 0.07107 0.27285 0.32072
 C3200 C 0.08530 0.27610 0.31168
 C3201 C 0.10278 0.27817 0.30190
 C3202 C 0.11835 0.27835 0.29433
 C3203 C 0.13741 0.27671 0.28636
 C3204 C 0.15345 0.28452 0.29587
 C3205 C 0.17243 0.28000 0.29001
 C3206 C 0.17554 0.26749 0.27461
 C3207 C 0.15925 0.26033 0.26472
 C3208 C 0.14029 0.26487 0.27063
 H3209 H 0.03317 0.28422 0.31649
 H3210 H 0.07344 0.24984 0.35073
 H3211 H 0.04672 0.23951 0.37015
 H3212 H 0.00589 0.27371 0.33571
 H3213 H 0.15132 0.29349 0.30822
 H3214 H 0.18465 0.28593 0.29781
 H3215 H 0.16113 0.25076 0.25275
 H3216 H 0.12792 0.25854 0.26337
 C3217 C 0.55427 0.75721 0.85664
 C3218 C 0.55320 0.77055 0.84181
 C3219 C 0.53502 0.77666 0.83447
 C3220 C 0.51789 0.76899 0.84171
 C3221 C 0.51870 0.75448 0.85591
 C3222 C 0.53722 0.74949 0.86384
 C3223 C 0.57098 0.77660 0.83339
 C3224 C 0.58637 0.77995 0.82629
 C3225 C 0.60470 0.78166 0.81790
 C3226 C 0.62041 0.78119 0.81058
 C3227 C 0.63890 0.77844 0.80167
 C3228 C 0.63974 0.76725 0.78533
 C3229 C 0.65778 0.76225 0.77758
 C3230 C 0.67527 0.76839 0.78612
 C3231 C 0.67427 0.78003 0.80237
 C3232 C 0.65613 0.78494 0.81015
 H3233 H 0.56834 0.75264 0.86257
 H3234 H 0.53408 0.78716 0.82307
 H3235 H 0.50392 0.77424 0.83608
 H3236 H 0.53870 0.73980 0.87578
 H3237 H 0.62644 0.76197 0.77881
 H3238 H 0.65799 0.75342 0.76500
 H3239 H 0.68747 0.78507 0.80922
 H3240 H 0.65558 0.79341 0.82295
 C3241 C 0.53123 0.25841 0.65686
 C3242 C 0.54311 0.24211 0.65231
 C3243 C 0.53728 0.22909 0.63835
 C3244 C 0.51950 0.23234 0.62892
 C3245 C 0.50696 0.24847 0.63365
 C3246 C 0.51350 0.26173 0.64746
 C3247 C 0.56194 0.23975 0.66110
 C3248 C 0.57780 0.23878 0.66849
 C3249 C 0.59629 0.23885 0.67721
 C3250 C 0.61198 0.23992 0.68481
 C3251 C 0.63044 0.24226 0.69410
 C3252 C 0.64693 0.23121 0.68859
 C3253 C 0.66496 0.23403 0.69746
 C3254 C 0.66664 0.24798 0.71192
 C3255 C 0.64992 0.25900 0.71730
 C3256 C 0.63194 0.25614 0.70842
 H3257 H 0.53590 0.26885 0.66737
 H3258 H 0.54673 0.21675 0.63439
 H3259 H 0.51608 0.22256 0.61749
 H3260 H 0.50491 0.27487 0.65081
 H3261 H 0.64585 0.22049 0.67743
 H3262 H 0.67753 0.22525 0.69302
 H3263 H 0.65066 0.26982 0.72839
 H3264 H 0.61922 0.26480 0.71268
 C3265 C 0.05165 0.74252 0.15684
 C3266 C 0.04683 0.73170 0.17262
 C3267 C 0.02758 0.72588 0.17526
 C3268 C 0.01307 0.73127 0.16218
 C3269 C 0.01748 0.74317 0.14661
 C3270 C 0.03727 0.74793 0.14383
 C3271 C 0.06211 0.72698 0.18579
 C3272 C 0.07633 0.72454 0.19558
 C3273 C 0.09425 0.72362 0.20533
 C3274 C 0.11030 0.72443 0.21223
 C3275 C 0.12990 0.72710 0.21888
 C3276 C 0.14557 0.71858 0.20914
 C3277 C 0.16475 0.72357 0.21368
 C3278 C 0.16844 0.73724 0.22800
 C3279 C 0.15256 0.74542 0.23795
 C3280 C 0.13339 0.74041 0.23335
 H3281 H 0.06668 0.74666 0.15449
 H3282 H 0.02381 0.71716 0.18731
 H3283 H -0.00169 0.72623 0.16420
 H3284 H 0.04195 0.75546 0.13142
 H3285 H 0.14293 0.70849 0.19770
 H3286 H 0.17665 0.71683 0.20590
 H3287 H 0.15489 0.75589 0.24912
 H3288 H 0.12129 0.74734 0.24072
   
