data_POSCAR
  _audit_creation_date              2014-09-24
  _audit_creation_method            'ToBaCCo'
  _symmetry_space_group_name_H-M    'P1'
  _symmetry_Int_Tables_number       1
  _symmetry_cell_setting            triclinic
  loop_
  _symmetry_equiv_pos_as_xyz
 x,y,z
_cell_length_a 63.4643
_cell_length_b 63.8628
_cell_length_c 65.2279
_cell_angle_alpha 90.137900
_cell_angle_beta 89.245400
_cell_angle_gamma 90.476900
loop_
  _atom_site_label
  _atom_site_type_symbol
  _atom_site_fract_x
  _atom_site_fract_y
  _atom_site_fract_z
C1 C 0.73306 0.65563 0.97386
 H2 H 0.74903 0.65684 0.96793
 C3 C 0.71667 0.66559 0.96368
 H4 H 0.72017 0.67449 0.94993
 C5 C 0.70890 0.64114 0.99803
 H6 H 0.70572 0.63104 1.01096
 C7 C 0.69213 0.65082 0.98840
 H8 H 0.67631 0.64846 0.99444
 N9 N 0.72887 0.64342 0.99051
 C10 C 0.78814 0.63090 1.02103
 H11 H 0.78653 0.61404 1.02177
 C12 C 0.80596 0.64066 1.02893
 H13 H 0.81797 0.63120 1.03595
 C14 C 0.77424 0.66362 1.01103
 H15 H 0.76181 0.67242 1.00397
 C16 C 0.79184 0.67410 1.01894
 H17 H 0.79296 0.69098 1.01777
 Zn18 Zn 0.75054 0.62646 1.00099
 N19 N 0.77295 0.64236 1.01193
 C20 C 0.78119 0.61165 0.97266
 N21 N 0.76070 0.60995 0.97887
 C22 C 0.74683 0.59756 0.96861
 C23 C 0.75350 0.58600 0.95154
 C24 C 0.78850 0.60041 0.95569
 C25 C 0.73323 0.61948 1.03976
 C26 C 0.72450 0.60828 1.05616
 C27 C 0.73023 0.57637 1.03708
 C28 C 0.73880 0.58830 1.02103
 N29 N 0.73974 0.60947 1.02249
 H30 H 0.79188 0.62197 0.98061
 H31 H 0.73051 0.59687 0.97358
 H32 H 0.74219 0.57642 0.94340
 H33 H 0.80491 0.60185 0.95113
 H34 H 0.73433 0.63638 1.04056
 H35 H 0.71843 0.61749 1.06876
 H36 H 0.73071 0.55958 1.03522
 H37 H 0.74480 0.58053 1.00746
 C38 C 0.80813 0.66250 1.02772
 C39 C 0.69581 0.66277 0.97066
 C40 C 0.72248 0.58615 1.05521
 C41 C 0.77458 0.58744 0.94482
 C42 C 0.73609 0.35337 0.52219
 H43 H 0.75216 0.35216 0.52735
 C44 C 0.71974 0.34365 0.53333
 H45 H 0.72334 0.33486 0.54700
 C46 C 0.71159 0.36786 0.49919
 H47 H 0.70822 0.37792 0.48642
 C48 C 0.69487 0.35847 0.50983
 H49 H 0.67893 0.36104 0.50472
 N50 N 0.73171 0.36551 0.50568
 C51 C 0.78936 0.37969 0.47108
 H52 H 0.78657 0.39628 0.46944
 C53 C 0.80741 0.37089 0.46249
 H54 H 0.81829 0.38082 0.45396
 C55 C 0.77834 0.34674 0.48422
 H56 H 0.76699 0.33750 0.49285
 C57 C 0.79635 0.33723 0.47585
 H58 H 0.79882 0.32067 0.47823
 Zn59 Zn 0.75311 0.38290 0.49411
 N60 N 0.77548 0.36771 0.48202
 C61 C 0.78452 0.39888 0.52044
 N62 N 0.76373 0.39964 0.51569
 C63 C 0.74996 0.41116 0.52709
 C64 C 0.75700 0.42268 0.54395
 C65 C 0.79222 0.41015 0.53712
 C66 C 0.73443 0.38964 0.45633
 C67 C 0.72491 0.40079 0.44066
 C68 C 0.73131 0.43277 0.45954
 C69 C 0.74055 0.42096 0.47498
 N70 N 0.74157 0.39975 0.47327
 H71 H 0.79515 0.38919 0.51160
 H72 H 0.73345 0.41121 0.52319
 H73 H 0.74583 0.43185 0.55278
 H74 H 0.80873 0.40898 0.54087
 H75 H 0.73578 0.37280 0.45523
 H76 H 0.71907 0.39244 0.42739
 H77 H 0.73018 0.44959 0.46130
 H78 H 0.74672 0.42875 0.48837
 C79 C 0.81135 0.34949 0.46516
 C80 C 0.69877 0.34673 0.52749
 C81 C 0.72306 0.42261 0.44226
 C82 C 0.77839 0.42219 0.54919
 C83 C 0.23776 -0.14647 0.01239
 H84 H 0.25379 -0.14673 0.01782
 C85 C 0.22201 -0.15799 0.02266
 H86 H 0.22605 -0.16715 0.03597
 C87 C 0.21269 -0.13295 -0.01058
 H88 H 0.20885 -0.12274 -0.02310
 C89 C 0.19657 -0.14418 -0.00084
 H90 H 0.18063 -0.14280 -0.00638
 N91 N 0.23281 -0.13404 -0.00374
 C92 C 0.28867 -0.11721 -0.03983
 H93 H 0.28547 -0.10067 -0.04123
 C94 C 0.30634 -0.12566 -0.04952
 H95 H 0.31649 -0.11551 -0.05862
 C96 C 0.27903 -0.15042 -0.02636
 H97 H 0.26835 -0.15993 -0.01723
 C98 C 0.29667 -0.15956 -0.03578
 H99 H 0.29954 -0.17609 -0.03362
 Zn100 Zn 0.25333 -0.11536 -0.01486
 N101 N 0.27566 -0.12950 -0.02824
 C102 C 0.28529 -0.09810 0.01009
 N103 N 0.26414 -0.09924 0.00708
 C104 C 0.25034 -0.08992 0.02028
 C105 C 0.25768 -0.07894 0.03736
 C106 C 0.29330 -0.08716 0.02684
 C107 C 0.23440 -0.10721 -0.05220
 C108 C 0.22418 -0.09570 -0.06717
 C109 C 0.22796 -0.06489 -0.04599
 C110 C 0.23800 -0.07713 -0.03137
 N111 N 0.24066 -0.09795 -0.03455
 H112 H 0.29604 -0.10582 -0.00035
 H113 H 0.23358 -0.09135 0.01771
 H114 H 0.24640 -0.07208 0.04794
 H115 H 0.31020 -0.08625 0.02873
 H116 H 0.23723 -0.12373 -0.05456
 H117 H 0.22031 -0.10393 -0.08112
 H118 H 0.22529 -0.04871 -0.04197
 H119 H 0.24331 -0.07000 -0.01729
 C120 C 0.31078 -0.14702 -0.04726
 C121 C 0.20101 -0.15649 0.01633
 C122 C 0.22034 -0.07403 -0.06435
 C123 C 0.27946 -0.07755 0.04089
 C124 C 0.23778 0.14973 0.46688
 H125 H 0.25185 0.14457 0.45888
 C126 C 0.22274 0.16134 0.45645
 H127 H 0.22545 0.16525 0.44048
 C128 C 0.21669 0.15013 0.49710
 H129 H 0.21398 0.14529 0.51273
 C130 C 0.20137 0.16189 0.48735
 H131 H 0.18706 0.16581 0.49567
 N132 N 0.23431 0.14398 0.48672
 C133 C 0.28716 0.12474 0.52383
 H134 H 0.28355 0.10816 0.52447
 C135 C 0.30383 0.13284 0.53508
 H136 H 0.31320 0.12231 0.54414
 C137 C 0.27933 0.15843 0.51093
 H138 H 0.26954 0.16825 0.50159
 C139 C 0.29602 0.16724 0.52195
 H140 H 0.29898 0.18394 0.52108
 Zn141 Zn 0.25271 0.12427 0.49862
 N142 N 0.27534 0.13750 0.51207
 C143 C 0.28442 0.10498 0.47438
 N144 N 0.26326 0.10665 0.47747
 C145 C 0.24939 0.09670 0.46498
 C146 C 0.25667 0.08427 0.44876
 C147 C 0.29237 0.09266 0.45843
 C148 C 0.23361 0.11837 0.53680
 C149 C 0.22326 0.10784 0.55273
 C150 C 0.22274 0.07663 0.53174
 C151 C 0.23306 0.08783 0.51613
 N152 N 0.23802 0.10841 0.51883
 H153 H 0.29523 0.11341 0.48409
 H154 H 0.23263 0.09857 0.46756
 H155 H 0.24540 0.07633 0.43907
 H156 H 0.30926 0.09178 0.45607
 H157 H 0.23820 0.13460 0.53877
 H158 H 0.21952 0.11628 0.56671
 H159 H 0.21911 0.06021 0.52940
 H160 H 0.23721 0.07999 0.50198
 C161 C 0.30841 0.15436 0.53433
 C162 C 0.20404 0.16719 0.46661
 C163 C 0.21769 0.08666 0.55035
 C164 C 0.27844 0.08213 0.44535
 C165 C 0.15904 0.47485 0.23632
 H166 H 0.15995 0.46899 0.25182
 C167 C 0.16941 0.46432 0.22029
 H168 H 0.17834 0.45039 0.22359
 C169 C 0.14490 0.49913 0.21289
 H170 H 0.13485 0.51226 0.20983
 C171 C 0.15498 0.48917 0.19653
 H172 H 0.15289 0.49513 0.18117
 N173 N 0.14675 0.49168 0.23230
 C174 C 0.13168 0.52736 0.28751
 H175 H 0.11479 0.52766 0.28551
 C176 C 0.14073 0.53840 0.30360
 H177 H 0.13063 0.54698 0.31410
 C178 C 0.16518 0.51545 0.27626
 H179 H 0.17458 0.50658 0.26542
 C180 C 0.17494 0.52622 0.29235
 H181 H 0.19191 0.52563 0.29380
 Zn182 Zn 0.12887 0.50276 0.25307
 N183 N 0.14388 0.51615 0.27428
 C184 C 0.11318 0.47626 0.28452
 N185 N 0.11267 0.48032 0.26408
 C186 C 0.10148 0.46790 0.25112
 C187 C 0.08986 0.45085 0.25869
 C188 C 0.10186 0.45938 0.29273
 C189 C 0.12092 0.54174 0.23625
 C190 C 0.10951 0.55763 0.22704
 C191 C 0.07837 0.53566 0.22917
 C192 C 0.09038 0.52020 0.23851
 N193 N 0.11134 0.52336 0.24151
 H194 H 0.12250 0.48598 0.29455
 H195 H 0.10171 0.47120 0.23485
 H196 H 0.08119 0.44104 0.24814
 H197 H 0.10226 0.45661 0.30909
 H198 H 0.13758 0.54387 0.23893
 H199 H 0.11756 0.57193 0.22249
 H200 H 0.06174 0.53288 0.22672
 H201 H 0.08296 0.50566 0.24314
 C202 C 0.16263 0.53799 0.30618
 C203 C 0.16690 0.47116 0.20002
 C204 C 0.08799 0.55461 0.22320
 C205 C 0.09000 0.44640 0.27977
 C206 C -0.15479 0.00804 0.23669
 H207 H -0.16408 0.00418 0.25017
 C208 C -0.16402 0.01910 0.22061
 H209 H -0.18021 0.02394 0.22251
 C210 C -0.12233 0.00696 0.21856
 H211 H -0.10620 0.00170 0.21755
 C212 C -0.13074 0.01803 0.20233
 H213 H -0.12075 0.02054 0.18899
 N214 N -0.13414 0.00262 0.23554
 C215 C -0.13517 -0.04527 0.27947
 H216 H -0.12446 -0.05422 0.27001
 C217 C -0.14527 -0.05505 0.29599
 H218 H -0.14253 -0.07152 0.29867
 C219 C -0.15092 -0.01288 0.28816
 H220 H -0.15235 0.00375 0.28551
 C221 C -0.16127 -0.02206 0.30500
 H222 H -0.17073 -0.01238 0.31512
 Zn223 Zn -0.11938 -0.01111 0.25669
 N224 N -0.13767 -0.02442 0.27614
 C225 C -0.10252 0.01001 0.29129
 N226 N -0.10212 0.00884 0.27045
 C227 C -0.08983 0.02213 0.25912
 C228 C -0.07804 0.03783 0.26863
 C229 C -0.09095 0.02549 0.30144
 C230 C -0.11187 -0.04520 0.23097
 C231 C -0.10022 -0.06062 0.22091
 C232 C -0.06888 -0.04741 0.23738
 C233 C -0.08118 -0.03229 0.24725
 N234 N -0.10227 -0.03154 0.24392
 H235 H -0.11192 -0.00095 0.30015
 H236 H -0.08928 0.02076 0.24264
 H237 H -0.06846 0.04829 0.25928
 H238 H -0.09199 0.02652 0.31799
 H239 H -0.12865 -0.04409 0.22850
 H240 H -0.10811 -0.07127 0.21055
 H241 H -0.05215 -0.04800 0.24033
 H242 H -0.07391 -0.02125 0.25762
 C243 C -0.15791 -0.04328 0.30946
 C244 C -0.15183 0.02482 0.20316
 C245 C -0.07843 -0.06187 0.22407
 C246 C -0.07876 0.03987 0.29005
 C247 C 0.33104 0.50563 0.73154
 H248 H 0.32281 0.50328 0.74594
 C249 C 0.32073 0.51542 0.71534
 H250 H 0.30469 0.52068 0.71755
 C251 C 0.36204 0.50229 0.71122
 H252 H 0.37817 0.49716 0.70966
 C253 C 0.35239 0.51191 0.69472
 H254 H 0.36119 0.51388 0.68052
 N255 N 0.35148 0.49963 0.72931
 C256 C 0.35347 0.45502 0.77583
 H257 H 0.36440 0.44596 0.76671
 C258 C 0.34327 0.44555 0.79249
 H259 H 0.34619 0.42920 0.79564
 C260 C 0.33690 0.48730 0.78326
 H261 H 0.33509 0.50378 0.78003
 C262 C 0.32641 0.47844 0.80017
 H263 H 0.31647 0.48822 0.80975
 Zn264 Zn 0.36760 0.48846 0.75096
 N265 N 0.35044 0.47563 0.77168
 C266 C 0.38372 0.51388 0.78319
 N267 N 0.38380 0.51055 0.76258
 C268 C 0.39513 0.52316 0.74969
 C269 C 0.40644 0.54025 0.75733
 C270 C 0.39478 0.53083 0.79149
 C271 C 0.37735 0.45315 0.72729
 C272 C 0.39007 0.43781 0.71840
 C273 C 0.42027 0.45382 0.73451
 C274 C 0.40695 0.46886 0.74315
 N275 N 0.38591 0.46820 0.73946
 H276 H 0.37503 0.50348 0.79328
 H277 H 0.39533 0.52007 0.73342
 H278 H 0.41538 0.55003 0.74677
 H279 H 0.39406 0.53350 0.80788
 H280 H 0.36058 0.45310 0.72452
 H281 H 0.38297 0.42606 0.70862
 H282 H 0.43694 0.45439 0.73785
 H283 H 0.41339 0.48093 0.75294
 C284 C 0.32994 0.45740 0.80524
 C285 C 0.33161 0.51901 0.69676
 C286 C 0.41184 0.43799 0.72200
 C287 C 0.40617 0.54443 0.77847
 C288 C 0.66203 0.97346 0.73722
 H289 H 0.66239 0.96669 0.75239
 C290 C 0.67234 0.96348 0.72083
 H291 H 0.68069 0.94906 0.72355
 C292 C 0.64906 0.99941 0.71487
 H293 H 0.63940 1.01296 0.71235
 C294 C 0.65914 0.99004 0.69817
 H295 H 0.65748 0.99685 0.68309
 N296 N 0.65023 0.99078 0.73386
 C297 C 0.63277 1.02177 0.79112
 H298 H 0.61590 1.02114 0.78893
 C299 C 0.64090 1.03209 0.80809
 H300 H 0.62972 1.03846 0.81902
 C301 C 0.66700 1.01280 0.77953
 H302 H 0.67704 1.00550 0.76811
 C303 C 0.67593 1.02297 0.79645
 H304 H 0.69292 1.02354 0.79733
 Zn305 Zn 0.63163 1.00041 0.75473
 N306 N 0.64575 1.01240 0.77727
 C307 C 0.61590 0.97106 0.78364
 N308 N 0.61531 0.97709 0.76367
 C309 C 0.60421 0.96588 0.74964
 C310 C 0.59275 0.94807 0.75563
 C311 C 0.60477 0.95335 0.79025
 C312 C 0.62424 1.04049 0.74054
 C313 C 0.61308 1.05732 0.73272
 C314 C 0.58176 1.03555 0.73244
 C315 C 0.59351 1.01913 0.74047
 N316 N 0.61443 1.02181 0.74408
 H317 H 0.62521 0.97979 0.79449
 H318 H 0.60443 0.97068 0.73375
 H319 H 0.58414 0.93924 0.74424
 H320 H 0.60526 0.94899 0.80627
 H321 H 0.64086 1.04222 0.74368
 H322 H 0.62128 1.07195 0.72970
 H323 H 0.56513 1.03322 0.72959
 H324 H 0.58590 1.00431 0.74376
 C325 C 0.66288 1.03316 0.81109
 C326 C 0.67033 0.97142 0.70088
 C327 C 0.59159 1.05494 0.72847
 C328 C 0.59300 0.94159 0.77618
 C329 C 0.01664 0.24185 -0.15034
 H330 H 0.02256 0.25777 -0.15076
 C331 C 0.02596 0.22660 -0.16285
 H332 H 0.03870 0.23104 -0.17319
 C333 C -0.00655 0.21654 -0.13581
 H334 H -0.01880 0.21243 -0.12488
 C335 C 0.00226 0.20086 -0.14801
 H336 H -0.00339 0.18492 -0.14621
 N337 N 0.00071 0.23660 -0.13710
 C338 C -0.03679 0.29104 -0.12087
 H339 H -0.04025 0.28662 -0.10519
 C340 C -0.04638 0.30859 -0.12909
 H341 H -0.05717 0.31752 -0.11958
 C342 C -0.01922 0.28422 -0.15241
 H343 H -0.00870 0.27466 -0.16149
 C344 C -0.02850 0.30177 -0.16129
 H345 H -0.02473 0.30570 -0.17706
 Zn346 Zn -0.01046 0.25679 -0.11849
 N347 N -0.02316 0.27947 -0.13237
 C348 C 0.00759 0.28435 -0.08958
 N349 N 0.01148 0.26742 -0.10171
 C350 C 0.03098 0.25872 -0.10263
 C351 C 0.04767 0.26761 -0.09178
 C352 C 0.02382 0.29378 -0.07855
 C353 C -0.04987 0.23872 -0.11172
 C354 C -0.06638 0.22915 -0.10093
 C355 C -0.04539 0.23082 -0.07036
 C356 C -0.02926 0.24039 -0.08187
 N357 N -0.03175 0.24402 -0.10217
 H358 H -0.00803 0.29084 -0.08871
 H359 H 0.03375 0.24504 -0.11201
 H360 H 0.06321 0.26084 -0.09322
 H361 H 0.02043 0.30739 -0.06919
 H362 H -0.05133 0.24167 -0.12797
 H363 H -0.07977 0.22431 -0.10985
 H364 H -0.04272 0.22919 -0.05414
 H365 H -0.01474 0.24498 -0.07454
 C366 C -0.04202 0.31441 -0.14944
 C367 C 0.01886 0.20573 -0.16165
 C368 C -0.06465 0.22485 -0.07968
 C369 C 0.04427 0.28562 -0.07985
 C370 C 0.47299 0.23232 0.15508
 H371 H 0.46866 0.24860 0.15669
 C372 C 0.46157 0.21687 0.16570
 H373 H 0.44871 0.22142 0.17579
 C374 C 0.49454 0.20657 0.13943
 H375 H 0.50684 0.20245 0.12861
 C376 C 0.48359 0.19068 0.14970
 H377 H 0.48776 0.17455 0.14663
 N378 N 0.48914 0.22695 0.14225
 C379 C 0.52718 0.28313 0.13099
 H380 H 0.52829 0.28180 0.11448
 C381 C 0.53729 0.29961 0.14096
 H382 H 0.54598 0.31107 0.13194
 C383 C 0.51392 0.26999 0.16261
 H384 H 0.50491 0.25830 0.17096
 C385 C 0.52375 0.28636 0.17325
 H386 H 0.52223 0.28714 0.18978
 Zn387 Zn 0.50235 0.24790 0.12588
 N388 N 0.51556 0.26889 0.14182
 C389 C 0.47682 0.28081 0.11151
 N390 N 0.48113 0.26005 0.10973
 C391 C 0.46955 0.24735 0.09738
 C392 C 0.45304 0.25549 0.08598
 C393 C 0.46043 0.28958 0.10046
 C394 C 0.54012 0.22707 0.11913
 C395 C 0.55620 0.21722 0.10811
 C396 C 0.53870 0.22631 0.07672
 C397 C 0.52280 0.23584 0.08838
 N398 N 0.52363 0.23573 0.10922
 H399 H 0.48585 0.29059 0.12174
 H400 H 0.47303 0.23081 0.09657
 H401 H 0.44382 0.24510 0.07643
 H402 H 0.45737 0.30617 0.10198
 H403 H 0.54055 0.22755 0.13571
 H404 H 0.56911 0.21025 0.11629
 H405 H 0.53764 0.22617 0.06016
 H406 H 0.50981 0.24322 0.08077
 C407 C 0.53556 0.30149 0.16236
 C408 C 0.46673 0.19567 0.16292
 C409 C 0.55552 0.21660 0.08662
 C410 C 0.44824 0.27688 0.08754
 C411 C 0.97340 0.74026 0.65292
 H412 H 0.96825 0.75635 0.65366
 C413 C 0.96211 0.72470 0.66349
 H414 H 0.94849 0.72902 0.67267
 C415 C 0.99708 0.71504 0.63954
 H416 H 1.01033 0.71120 0.62973
 C417 C 0.98626 0.69903 0.64978
 H418 H 0.99137 0.68303 0.64761
 N419 N 0.99049 0.73518 0.64119
 C420 C 1.02790 0.79166 0.63048
 H421 H 1.03033 0.78974 0.61414
 C422 C 1.03644 0.80898 0.64046
 H423 H 1.04569 0.82023 0.63172
 C424 C 1.01281 0.77919 0.66161
 H425 H 1.00351 0.76757 0.66973
 C426 C 1.02113 0.79636 0.67227
 H427 H 1.01795 0.79793 0.68855
 Zn428 Zn 1.00363 0.75610 0.62487
 N429 N 1.01591 0.77749 0.64100
 C430 C 0.97875 0.78879 0.60941
 N431 N 0.98261 0.76791 0.60813
 C432 C 0.97067 0.75515 0.59614
 C433 C 0.95422 0.76339 0.58466
 C434 C 0.96259 0.79766 0.59817
 C435 C 1.04299 0.73822 0.61939
 C436 C 1.06018 0.72957 0.60901
 C437 C 1.04142 0.73324 0.57724
 C438 C 1.02460 0.74205 0.58824
 N439 N 1.02563 0.74417 0.60896
 H440 H 0.98786 0.79864 0.61949
 H441 H 0.97378 0.73852 0.59570
 H442 H 0.94491 0.75304 0.57515
 H443 H 0.95958 0.81426 0.59975
 H444 H 1.04341 0.74022 0.63585
 H445 H 1.07377 0.72474 0.61762
 H446 H 1.04044 0.73170 0.56074
 H447 H 1.01081 0.74719 0.58019
 C448 C 1.03273 0.81175 0.66155
 C449 C 0.96837 0.70369 0.66180
 C450 C 1.05952 0.72695 0.58767
 C451 C 0.95004 0.78494 0.58561
 C452 C 0.52251 0.73667 0.34210
 H453 H 0.52746 0.75282 0.34028
 C454 C 0.53310 0.72082 0.33145
 H455 H 0.54598 0.72495 0.32114
 C456 C 0.50006 0.71167 0.35820
 H457 H 0.48761 0.70805 0.36909
 C458 C 0.51021 0.69538 0.34792
 H459 H 0.50537 0.67941 0.35112
 N460 N 0.50636 0.73185 0.35522
 C461 C 0.46997 0.78843 0.36614
 H462 H 0.46962 0.78784 0.38272
 C463 C 0.45930 0.80422 0.35601
 H464 H 0.45157 0.81591 0.36537
 C465 C 0.48182 0.77410 0.33462
 H466 H 0.49032 0.76208 0.32637
 C467 C 0.47143 0.78975 0.32376
 H468 H 0.47196 0.78899 0.30721
 Zn469 Zn 0.49432 0.75333 0.37152
 N470 N 0.48107 0.77389 0.35544
 C471 C 0.52068 0.78659 0.38469
 N472 N 0.51629 0.76581 0.38683
 C473 C 0.52815 0.75344 0.39900
 C474 C 0.54499 0.76198 0.40992
 C475 C 0.53738 0.79574 0.39525
 C476 C 0.45540 0.73486 0.37962
 C477 C 0.43865 0.72668 0.39118
 C478 C 0.45860 0.73314 0.42189
 C479 C 0.47495 0.74138 0.40972
 N480 N 0.47313 0.74191 0.38897
 H481 H 0.51142 0.79610 0.37461
 H482 H 0.52461 0.73688 0.40009
 H483 H 0.55439 0.75186 0.41937
 H484 H 0.54046 0.81234 0.39349
 H485 H 0.45431 0.73565 0.36310
 H486 H 0.42475 0.72096 0.38343
 H487 H 0.46020 0.73292 0.43840
 H488 H 0.48897 0.74747 0.41690
 C489 C 0.45980 0.80527 0.33437
 C490 C 0.52713 0.69979 0.33447
 C491 C 0.44013 0.72572 0.41260
 C492 C 0.54983 0.78340 0.40804
 C493 C 0.35630 -0.00828 0.21673
 C494 C 0.36393 0.00194 0.23420
 C495 C 0.37365 0.02166 0.23221
 C496 C 0.37614 0.03107 0.21287
 C497 C 0.36840 0.02059 0.19550
 C498 C 0.35830 0.00098 0.19728
 C499 C 0.36164 -0.00797 0.25459
 C500 C 0.36857 -0.02854 0.25766
 C501 C 0.36665 -0.03798 0.27703
 C502 C 0.35741 -0.02668 0.29327
 C503 C 0.35033 -0.00612 0.29043
 C504 C 0.35263 0.00316 0.27102
 H505 H 0.34830 -0.02324 0.21844
 H506 H 0.37938 0.02959 0.24577
 H507 H 0.37558 -0.03712 0.24498
 H508 H 0.34743 0.01909 0.26866
 H509 H 0.37077 0.02744 0.18047
 H510 H 0.35584 -0.03387 0.30824
 C511 C 0.12755 1.01934 0.72204
 C512 C 0.11776 1.00904 0.73862
 C513 C 0.10665 0.99028 0.73528
 C514 C 0.10477 0.98211 0.71539
 C515 C 0.11470 0.99256 0.69894
 C516 C 0.12634 1.01106 0.70212
 C517 C 0.11898 1.01807 0.75942
 C518 C 0.11213 1.03857 0.76310
 C519 C 0.11291 1.04727 0.78289
 C520 C 0.12128 1.03530 0.79888
 C521 C 0.12868 1.01490 0.79529
 C522 C 0.12715 1.00630 0.77552
 H523 H 0.13658 1.03351 0.72483
 H524 H 0.09888 0.98246 0.74806
 H525 H 0.10609 1.04766 0.75050
 H526 H 0.13296 0.99069 0.77241
 H527 H 0.11336 0.98622 0.68359
 H528 H 0.12160 1.04164 0.81428
 C529 C 0.63623 0.50720 0.22342
 C530 C 0.62660 0.49591 0.23945
 C531 C 0.61966 0.47530 0.23597
 C532 C 0.62210 0.46596 0.21657
 C533 C 0.63189 0.47746 0.20069
 C534 C 0.63915 0.49802 0.20402
 C535 C 0.62426 0.50549 0.25999
 C536 C 0.61465 0.52507 0.26239
 C537 C 0.61245 0.53422 0.28191
 C538 C 0.62029 0.52360 0.29903
 C539 C 0.63026 0.50414 0.29682
 C540 C 0.63199 0.49513 0.27722
 H541 H 0.64163 0.52309 0.22616
 H542 H 0.61242 0.46654 0.24844
 H543 H 0.60890 0.53313 0.24901
 H544 H 0.63997 0.48033 0.27517
 H545 H 0.63395 0.47036 0.18571
 H546 H 0.61820 0.53026 0.31419
 C547 C 0.86099 0.49861 0.71770
 C548 C 0.86803 0.50947 0.73505
 C549 C 0.87744 0.52929 0.73277
 C550 C 0.88016 0.53825 0.71326
 C551 C 0.87287 0.52724 0.69602
 C552 C 0.86313 0.50750 0.69810
 C553 C 0.86562 0.50017 0.75565
 C554 C 0.87447 0.48063 0.75995
 C555 C 0.87334 0.47238 0.77988
 C556 C 0.86250 0.48353 0.79527
 C557 C 0.85330 0.50295 0.79110
 C558 C 0.85514 0.51126 0.77125
 H559 H 0.85377 0.48328 0.71952
 H560 H 0.88272 0.53767 0.74624
 H561 H 0.88306 0.47235 0.74801
 H562 H 0.84814 0.52625 0.76780
 H563 H 0.87479 0.53405 0.68091
 H564 H 0.86153 0.47721 0.81066
 C565 C 0.22091 0.36257 -0.00109
 C566 C 0.23745 0.37187 0.00981
 C567 C 0.23327 0.38165 0.02870
 C568 C 0.21262 0.38245 0.03662
 C569 C 0.19629 0.37264 0.02576
 C570 C 0.20023 0.36263 0.00689
 C571 C 0.25915 0.37142 0.00143
 C572 C 0.26387 0.38047 -0.01769
 C573 C 0.28458 0.38035 -0.02557
 C574 C 0.30037 0.37036 -0.01436
 C575 C 0.29581 0.36104 0.00469
 C576 C 0.27516 0.36191 0.01262
 H577 H 0.22423 0.35524 -0.01577
 H578 H 0.24601 0.38924 0.03684
 H579 H 0.25152 0.38818 -0.02607
 H580 H 0.27136 0.35467 0.02723
 H581 H 0.18049 0.37249 0.03226
 H582 H 0.31632 0.36990 -0.02044
 C583 C 0.72480 0.12082 1.01598
 C584 C 0.74260 0.11258 1.00598
 C585 C 0.74084 0.10473 0.98596
 C586 C 0.72143 0.10513 0.97590
 C587 C 0.70376 0.11355 0.98605
 C588 C 0.70528 0.12152 1.00609
 C589 C 0.76324 0.11316 1.01620
 C590 C 0.76549 0.10463 1.03586
 C591 C 0.78490 0.10592 1.04593
 C592 C 0.80203 0.11602 1.03615
 C593 C 0.79991 0.12479 1.01657
 C594 C 0.78050 0.12309 1.00662
 H595 H 0.72642 0.12742 1.03120
 H596 H 0.75462 0.09851 0.97816
 H597 H 0.75208 0.09717 1.04336
 H598 H 0.77869 0.12979 0.99150
 H599 H 0.68870 0.11350 0.97843
 H600 H 0.81700 0.11722 1.04387
 C601 C 0.22364 0.62912 0.51078
 C602 C 0.24129 0.62056 0.50079
 C603 C 0.23926 0.61232 0.48094
 C604 C 0.21979 0.61272 0.47100
 C605 C 0.20233 0.62166 0.48107
 C606 C 0.20410 0.62999 0.50094
 C607 C 0.26211 0.62128 0.51070
 C608 C 0.26460 0.61360 0.53065
 C609 C 0.28422 0.61499 0.54030
 C610 C 0.30132 0.62441 0.52983
 C611 C 0.29905 0.63220 0.50986
 C612 C 0.27939 0.63036 0.50035
 H613 H 0.22528 0.63545 0.52610
 H614 H 0.25292 0.60584 0.47316
 H615 H 0.25124 0.60663 0.53868
 H616 H 0.27742 0.63621 0.48492
 H617 H 0.18736 0.62230 0.47330
 H618 H 0.31643 0.62569 0.53728
 C619 C 0.71760 0.85835 0.50027
 C620 C 0.73429 0.86826 0.51039
 C621 C 0.73061 0.87827 0.52924
 C622 C 0.71020 0.87882 0.53784
 C623 C 0.69367 0.86851 0.52768
 C624 C 0.69722 0.85817 0.50892
 C625 C 0.75551 0.86856 0.50090
 C626 C 0.75879 0.87823 0.48183
 C627 C 0.77895 0.87881 0.47272
 C628 C 0.79568 0.86897 0.48267
 C629 C 0.79261 0.85906 0.50170
 C630 C 0.77243 0.85917 0.51085
 H631 H 0.72064 0.85042 0.48585
 H632 H 0.74347 0.88636 0.53674
 H633 H 0.74572 0.88581 0.47441
 H634 H 0.76981 0.85186 0.52565
 H635 H 0.67791 0.86878 0.53427
 H636 H 0.81106 0.86861 0.47529
 C637 C -0.00201 0.21749 0.36533
 C638 C 0.00988 0.23461 0.37228
 C639 C 0.03061 0.23151 0.37875
 C640 C 0.03950 0.21144 0.37850
 C641 C 0.02745 0.19446 0.37125
 C642 C 0.00674 0.19736 0.36447
 C643 C 0.00087 0.25588 0.37235
 C644 C -0.01868 0.25974 0.38191
 C645 C -0.02686 0.28009 0.38256
 C646 C -0.01562 0.29646 0.37292
 C647 C 0.00376 0.29276 0.36299
 C648 C 0.01199 0.27243 0.36298
 H649 H -0.01802 0.21994 0.36033
 H650 H 0.03983 0.24481 0.38395
 H651 H -0.02710 0.24705 0.38949
 H652 H 0.02685 0.26932 0.35522
 H653 H 0.03425 0.17897 0.37077
 H654 H -0.02193 0.31217 0.37329
 C655 C 1.01528 0.72139 0.12685
 C656 C 1.00402 0.73677 0.11647
 C657 C 0.98492 0.73157 0.10712
 C658 C 0.97703 0.71097 0.10793
 C659 C 0.98823 0.69579 0.11882
 C660 C 1.00732 0.70085 0.12842
 C661 C 1.01184 0.75853 0.11608
 C662 C 1.03064 0.76369 0.10566
 C663 C 1.03788 0.78454 0.10513
 C664 C 1.02653 0.79997 0.11586
 C665 C 1.00787 0.79490 0.12660
 C666 C 1.00046 0.77414 0.12636
 H667 H 1.03009 0.72558 0.13392
 H668 H 0.97648 0.74351 0.09888
 H669 H 1.03919 0.75161 0.09744
 H670 H 0.98615 0.76995 0.13468
 H671 H 0.98171 0.68014 0.12031
 H672 H 1.03216 0.81604 0.11575
 C673 C 0.51348 0.21754 0.63423
 C674 C 0.50293 0.23469 0.62591
 C675 C 0.48324 0.23166 0.61682
 C676 C 0.47395 0.21167 0.61605
 C677 C 0.48450 0.19468 0.62477
 C678 C 0.50425 0.19745 0.63397
 C679 C 0.51205 0.25598 0.62737
 C680 C 0.53226 0.26037 0.61944
 C681 C 0.54056 0.28083 0.62021
 C682 C 0.52863 0.29671 0.62968
 C683 C 0.50844 0.29248 0.63780
 C684 C 0.50023 0.27206 0.63643
 H685 H 0.52873 0.21997 0.64117
 H686 H 0.47506 0.24496 0.61051
 H687 H 0.54109 0.24802 0.61194
 H688 H 0.48476 0.26851 0.64281
 H689 H 0.47721 0.17928 0.62451
 H690 H 0.53494 0.31250 0.63047
 C691 C 0.49364 0.71280 0.85934
 C692 C 0.50563 0.72968 0.86674
 C693 C 0.52459 0.72588 0.87684
 C694 C 0.53145 0.70529 0.87993
 C695 C 0.51947 0.68856 0.87209
 C696 C 0.50055 0.69213 0.86177
 C697 C 0.49788 0.75128 0.86464
 C698 C 0.47812 0.75669 0.87285
 C699 C 0.47089 0.77735 0.87162
 C700 C 0.48333 0.79240 0.86135
 C701 C 0.50301 0.78715 0.85277
 C702 C 0.51035 0.76657 0.85479
 H703 H 0.47886 0.71582 0.85180
 H704 H 0.53349 0.73893 0.88305
 H705 H 0.46877 0.74497 0.88091
 H706 H 0.52550 0.76228 0.84826
 H707 H 0.52507 0.67269 0.87381
 H708 H 0.47776 0.80834 0.86020
 C709 C 0.45578 -0.17181 0.30411
 C710 C 0.44598 -0.15503 0.29440
 C711 C 0.42908 -0.14463 0.30384
 C712 C 0.42212 -0.15138 0.32328
 C713 C 0.43189 -0.16805 0.33303
 C714 C 0.44917 -0.17849 0.32384
 C715 C 0.42012 -0.12590 0.29381
 C716 C 0.40052 -0.11905 0.29778
 C717 C 0.39178 -0.09890 0.29041
 C718 C 0.37158 -0.09322 0.29740
 C719 C 0.36320 -0.07372 0.29260
 C720 C 0.37479 -0.05938 0.28060
 C721 C 0.39466 -0.06526 0.27290
 C722 C 0.40312 -0.08477 0.27776
 H723 H 0.46926 -0.17864 0.29641
 H724 H 0.45187 -0.14994 0.27955
 H725 H 0.40949 -0.14352 0.33139
 H726 H 0.42537 -0.17286 0.34768
 H727 H 0.43030 -0.11763 0.28315
 H728 H 0.39028 -0.12838 0.30758
 H729 H 0.36239 -0.10373 0.30706
 H730 H 0.34770 -0.06975 0.29849
 H731 H 0.40400 -0.05446 0.26371
 H732 H 0.41865 -0.08831 0.27185
 C733 C 0.94720 0.35180 0.85444
 C734 C 0.93775 0.36986 0.84709
 C735 C 0.92972 0.37055 0.82717
 C736 C 0.93145 0.35262 0.81463
 C737 C 0.94093 0.33445 0.82205
 C738 C 0.94872 0.33380 0.84212
 C739 C 0.91915 0.39004 0.82071
 C740 C 0.91506 0.39523 0.80124
 C741 C 0.90482 0.41525 0.79577
 C742 C 0.89339 0.41650 0.77752
 C743 C 0.88322 0.43506 0.77219
 C744 C 0.88436 0.45273 0.78503
 C745 C 0.89631 0.45165 0.80295
 C746 C 0.90653 0.43322 0.80820
 H747 H 0.95338 0.35196 0.86984
 H748 H 0.93670 0.38341 0.85707
 H749 H 0.92509 0.35227 0.79935
 H750 H 0.94165 0.32073 0.81229
 H751 H 0.91466 0.40069 0.83289
 H752 H 0.91890 0.38458 0.78887
 H753 H 0.89204 0.40299 0.76754
 H754 H 0.87416 0.43549 0.75825
 H755 H 0.89800 0.46523 0.81280
 H756 H 0.91601 0.43330 0.82186
 C757 C 0.01727 1.17226 0.81820
 C758 C 0.02713 1.15521 0.80883
 C759 C 0.04919 1.15420 0.80746
 C760 C 0.06119 1.17130 0.81466
 C761 C 0.05130 1.18836 0.82409
 C762 C 0.02926 1.18881 0.82638
 C763 C 0.05881 1.13489 0.79888
 C764 C 0.07867 1.12899 0.80254
 C765 C 0.08754 1.10844 0.79622
 C766 C 0.10616 1.10173 0.80548
 C767 C 0.11459 1.08209 0.80093
 C768 C 0.10458 1.06861 0.78698
 C769 C 0.08628 1.07554 0.77724
 C770 C 0.07793 1.09525 0.78167
 H771 H 0.00024 1.17234 0.81931
 H772 H 0.01746 1.14245 0.80314
 H773 H 0.07818 1.17158 0.81326
 H774 H 0.06099 1.20086 0.83023
 H775 H 0.04835 1.12443 0.79077
 H776 H 0.08858 1.13883 0.81195
 H777 H 0.11408 1.11161 0.81654
 H778 H 0.12897 1.07747 0.80836
 H779 H 0.07809 1.06554 0.76649
 H780 H 0.06397 1.09988 0.77361
 C781 C 0.56122 0.68336 0.32320
 C782 C 0.57262 0.66623 0.31581
 C783 C 0.56227 0.64775 0.30973
 C784 C 0.54009 0.64698 0.31082
 C785 C 0.52870 0.66416 0.31811
 C786 C 0.53912 0.68242 0.32472
 C787 C 0.57526 0.62934 0.30390
 C788 C 0.56766 0.61206 0.29471
 C789 C 0.58028 0.59292 0.29084
 C790 C 0.57285 0.57810 0.27668
 C791 C 0.58345 0.55924 0.27350
 C792 C 0.60171 0.55468 0.28454
 C793 C 0.60929 0.56958 0.29859
 C794 C 0.59867 0.58841 0.30181
 H795 H 0.56978 0.69704 0.32845
 H796 H 0.58967 0.66725 0.31532
 H797 H 0.53136 0.63302 0.30677
 H798 H 0.51168 0.66299 0.31890
 H799 H 0.59185 0.63027 0.30741
 H800 H 0.55156 0.61172 0.28954
 H801 H 0.55861 0.58102 0.26820
 H802 H 0.57700 0.54797 0.26280
 H803 H 0.62341 0.56662 0.30722
 H804 H 0.60468 0.59901 0.31331
 C805 C 0.53464 0.33053 0.18838
 C806 C 0.54335 0.34868 0.19697
 C807 C 0.56326 0.35609 0.19054
 C808 C 0.57441 0.34477 0.17542
 C809 C 0.56568 0.32667 0.16682
 C810 C 0.54558 0.31952 0.17297
 C811 C 0.57103 0.37643 0.19869
 C812 C 0.59140 0.38231 0.19826
 C813 C 0.59906 0.40351 0.20414
 C814 C 0.61888 0.41014 0.19672
 C815 C 0.62645 0.43028 0.20094
 C816 C 0.61442 0.44426 0.21282
 C817 C 0.59486 0.43745 0.22081
 C818 C 0.58726 0.41729 0.21658
 H819 H 0.51901 0.32556 0.19325
 H820 H 0.53433 0.35719 0.20843
 H821 H 0.58949 0.35016 0.16954
 H822 H 0.57455 0.31844 0.15506
 H823 H 0.55924 0.38701 0.20468
 H824 H 0.60312 0.37153 0.19246
 H825 H 0.62842 0.39982 0.18731
 H826 H 0.64177 0.43490 0.19491
 H827 H 0.58522 0.44786 0.23002
 H828 H 0.57223 0.41268 0.22318
 C829 C 0.04960 0.83024 0.69135
 C830 C 0.05742 0.84852 0.70052
 C831 C 0.05581 0.86794 0.69062
 C832 C 0.04639 0.86867 0.67123
 C833 C 0.03867 0.85046 0.66208
 C834 C 0.04033 0.83103 0.67192
 C835 C 0.06535 0.88686 0.70008
 C836 C 0.05878 0.90629 0.69591
 C837 C 0.06996 0.92564 0.70232
 C838 C 0.06706 0.94380 0.69067
 C839 C 0.07814 0.96216 0.69513
 C840 C 0.09222 0.96287 0.71153
 C841 C 0.09455 0.94498 0.72377
 C842 C 0.08357 0.92648 0.71919
 H843 H 0.05126 0.81543 0.69920
 H844 H 0.06486 0.84749 0.71533
 H845 H 0.04549 0.88313 0.66270
 H846 H 0.03144 0.85160 0.64717
 H847 H 0.07856 0.88453 0.71010
 H848 H 0.04528 0.90832 0.68616
 H849 H 0.05654 0.94366 0.67772
 H850 H 0.07577 0.97584 0.68567
 H851 H 0.10527 0.94517 0.73656
 H852 H 0.08578 0.91300 0.72890
 C853 C 0.93362 0.68704 0.67136
 C854 C 0.92177 0.66999 0.67858
 C855 C 0.93169 0.65202 0.68605
 C856 C 0.95388 0.65174 0.68658
 C857 C 0.96571 0.66884 0.67946
 C858 C 0.95576 0.68653 0.67141
 C859 C 0.91835 0.63358 0.69160
 C860 C 0.92539 0.61663 0.70145
 C861 C 0.91257 0.59737 0.70501
 C862 C 0.91953 0.58281 0.71947
 C863 C 0.90883 0.56381 0.72239
 C864 C 0.89092 0.55887 0.71083
 C865 C 0.88379 0.57351 0.69651
 C866 C 0.89453 0.59248 0.69352
 H867 H 0.92543 0.70028 0.66499
 H868 H 0.90474 0.67064 0.67784
 H869 H 0.96236 0.63820 0.69178
 H870 H 0.98273 0.66805 0.67993
 H871 H 0.90200 0.63418 0.68721
 H872 H 0.94119 0.61661 0.70739
 H873 H 0.93349 0.58601 0.72836
 H874 H 0.91494 0.55274 0.73331
 H875 H 0.86994 0.57026 0.68749
 H876 H 0.88888 0.60287 0.68180
 C877 C 0.43187 0.18002 0.17372
 C878 C 0.41974 0.16310 0.18086
 C879 C 0.42933 0.14449 0.18713
 C880 C 0.45150 0.14338 0.18656
 C881 C 0.46361 0.16033 0.17952
 C882 C 0.45394 0.17869 0.17264
 C883 C 0.41565 0.12625 0.19254
 C884 C 0.42252 0.10894 0.20194
 C885 C 0.40942 0.08984 0.20532
 C886 C 0.41636 0.07485 0.21937
 C887 C 0.40540 0.05597 0.22207
 C888 C 0.38723 0.05156 0.21070
 C889 C 0.38013 0.06663 0.19678
 C890 C 0.39112 0.08549 0.19402
 H891 H 0.42389 0.19381 0.16827
 H892 H 0.40272 0.16439 0.18097
 H893 H 0.45969 0.12931 0.19078
 H894 H 0.48060 0.15888 0.17908
 H895 H 0.39924 0.12730 0.18848
 H896 H 0.43843 0.10854 0.20762
 H897 H 0.43052 0.07763 0.22810
 H898 H 0.41150 0.04457 0.23267
 H899 H 0.36609 0.06378 0.18789
 H900 H 0.38547 0.09624 0.18261
 C901 C 0.30040 0.45263 -0.16892
 C902 C 0.29249 0.44423 -0.15052
 C903 C 0.30515 0.43154 -0.13827
 C904 C 0.32566 0.42680 -0.14516
 C905 C 0.33352 0.43511 -0.16350
 C906 C 0.32105 0.44820 -0.17557
 C907 C 0.29656 0.42309 -0.11868
 C908 C 0.30894 0.41885 -0.10271
 C909 C 0.30138 0.40987 -0.08298
 C910 C 0.31442 0.41180 -0.06587
 C911 C 0.30877 0.40254 -0.04722
 C912 C 0.28997 0.39090 -0.04525
 C913 C 0.27671 0.38915 -0.06228
 C914 C 0.28236 0.39848 -0.08100
 H915 H 0.29033 0.46246 -0.17801
 H916 H 0.27654 0.44789 -0.14569
 H917 H 0.33567 0.41650 -0.13653
 H918 H 0.34956 0.43153 -0.16807
 H919 H 0.27964 0.42126 -0.11720
 H920 H 0.32557 0.42272 -0.10380
 H921 H 0.32915 0.42045 -0.06695
 H922 H 0.31915 0.40449 -0.03431
 H923 H 0.26225 0.38005 -0.06130
 H924 H 0.27213 0.39615 -0.09395
 C925 C 0.84779 0.93449 0.34031
 C926 C 0.84125 0.92619 0.35911
 C927 C 0.82110 0.93037 0.36708
 C928 C 0.80755 0.94324 0.35582
 C929 C 0.81417 0.95168 0.33696
 C930 C 0.83437 0.94734 0.32900
 C931 C 0.81550 0.92178 0.38754
 C932 C 0.79573 0.91899 0.39459
 C933 C 0.79118 0.90958 0.41497
 C934 C 0.77256 0.89791 0.41800
 C935 C 0.76840 0.88806 0.43679
 C936 C 0.78274 0.88983 0.45297
 C937 C 0.80098 0.90216 0.45014
 C938 C 0.80512 0.91199 0.43142
 H939 H 0.86362 0.93123 0.33488
 H940 H 0.85208 0.91653 0.36753
 H941 H 0.79208 0.94725 0.36169
 H942 H 0.80353 0.96159 0.32860
 H943 H 0.82846 0.91646 0.39677
 H944 H 0.78254 0.92229 0.38480
 H945 H 0.76146 0.89600 0.40564
 H946 H 0.75422 0.87864 0.43851
 H947 H 0.81202 0.90432 0.46251
 H948 H 0.81919 0.92159 0.42996
 C949 C 0.85329 0.04949 1.17453
 C950 C 0.84550 0.06097 1.15820
 C951 C 0.82406 0.06032 1.15350
 C952 C 0.81030 0.04850 1.16606
 C953 C 0.81806 0.03708 1.18264
 C954 C 0.83984 0.03699 1.18697
 C955 C 0.81700 0.07237 1.13549
 C956 C 0.79963 0.06781 1.12480
 C957 C 0.79463 0.07856 1.10532
 C958 C 0.78295 0.06777 1.09045
 C959 C 0.77937 0.07680 1.07129
 C960 C 0.78736 0.09685 1.06667
 C961 C 0.79822 0.10802 1.08186
 C962 C 0.80170 0.09906 1.10102
 H963 H 0.86991 0.05115 1.17765
 H964 H 0.85640 0.07030 1.14905
 H965 H 0.79355 0.04804 1.16322
 H966 H 0.80694 0.02766 1.19138
 H967 H 0.82773 0.08433 1.12980
 H968 H 0.78985 0.05458 1.12926
 H969 H 0.77715 0.05206 1.09343
 H970 H 0.77095 0.06783 1.05987
 H971 H 0.80404 0.12372 1.07890
 H972 H 0.80995 0.10826 1.11236
 C973 C 0.30072 0.52697 0.67427
 C974 C 0.29203 0.53738 0.65753
 C975 C 0.30413 0.55180 0.64606
 C976 C 0.32518 0.55551 0.65163
 C977 C 0.33382 0.54516 0.66829
 C978 C 0.32180 0.53061 0.67969
 C979 C 0.29492 0.56162 0.62764
 C980 C 0.30221 0.57973 0.61974
 C981 C 0.29541 0.58889 0.60000
 C982 C 0.30265 0.60910 0.59496
 C983 C 0.29856 0.61777 0.57581
 C984 C 0.28708 0.60644 0.56120
 C985 C 0.27923 0.58648 0.56636
 C986 C 0.28343 0.57771 0.58551
 H987 H 0.29113 0.51569 0.68263
 H988 H 0.27586 0.53403 0.65342
 H989 H 0.33533 0.56592 0.64286
 H990 H 0.35004 0.54847 0.67220
 H991 H 0.28180 0.55358 0.62064
 H992 H 0.31408 0.58843 0.62802
 H993 H 0.31193 0.61809 0.60574
 H994 H 0.30458 0.63330 0.57233
 H995 H 0.27053 0.57731 0.55528
 H996 H 0.27785 0.56197 0.58844
 C997 C 0.16496 0.56980 0.32849
 C998 C 0.17212 0.58005 0.34599
 C999 C 0.18677 0.57056 0.35887
 C1000 C 0.19462 0.55069 0.35344
 C1001 C 0.18744 0.54042 0.33583
 C1002 C 0.17219 0.54969 0.32344
 C1003 C 0.19198 0.58138 0.37835
 C1004 C 0.20827 0.57658 0.39034
 C1005 C 0.21189 0.58674 0.41052
 C1006 C 0.22351 0.57601 0.42530
 C1007 C 0.22637 0.58455 0.44484
 C1008 C 0.21767 0.60406 0.45000
 C1009 C 0.20668 0.61514 0.43504
 C1010 C 0.20394 0.60669 0.41547
 H1011 H 0.15343 0.57747 0.31905
 H1012 H 0.16584 0.59534 0.34971
 H1013 H 0.20559 0.54256 0.36306
 H1014 H 0.19311 0.52483 0.33240
 H1015 H 0.18127 0.59357 0.38317
 H1016 H 0.21890 0.56419 0.38586
 H1017 H 0.22999 0.56074 0.42186
 H1018 H 0.23491 0.57567 0.45610
 H1019 H 0.20030 0.63046 0.43844
 H1020 H 0.19573 0.61597 0.40433
 C1021 C 0.65971 0.06024 0.83796
 C1022 C 0.66722 0.07032 0.85539
 C1023 C 0.68654 0.06484 0.86388
 C1024 C 0.69869 0.04941 0.85394
 C1025 C 0.69119 0.03924 0.83637
 C1026 C 0.67128 0.04411 0.82824
 C1027 C 0.69290 0.07565 0.88307
 C1028 C 0.70890 0.06990 0.89505
 C1029 C 0.71318 0.07997 0.91519
 C1030 C 0.72441 0.06876 0.92992
 C1031 C 0.72756 0.07709 0.94952
 C1032 C 0.71947 0.09681 0.95478
 C1033 C 0.70897 0.10840 0.93985
 C1034 C 0.70604 0.10021 0.92022
 H1035 H 0.64499 0.06575 0.83191
 H1036 H 0.65768 0.08246 0.86238
 H1037 H 0.71392 0.04494 0.85962
 H1038 H 0.70076 0.02689 0.82991
 H1039 H 0.68277 0.08821 0.88816
 H1040 H 0.71828 0.05645 0.89095
 H1041 H 0.73029 0.05326 0.92644
 H1042 H 0.73574 0.06786 0.96077
 H1043 H 0.70305 0.12387 0.94340
 H1044 H 0.69821 0.10988 0.90913
 C1045 C 0.69768 0.94957 0.68253
 C1046 C 0.70441 0.93823 0.66524
 C1047 C 0.69165 0.93664 0.64785
 C1048 C 0.67172 0.94615 0.64835
 C1049 C 0.66508 0.95750 0.66550
 C1050 C 0.67800 0.95950 0.68273
 C1051 C 0.69899 0.92428 0.62983
 C1052 C 0.69197 0.92772 0.61080
 C1053 C 0.69736 0.91479 0.59257
 C1054 C 0.68401 0.91576 0.57563
 C1055 C 0.68813 0.90398 0.55801
 C1056 C 0.70587 0.89103 0.55681
 C1057 C 0.71948 0.89021 0.57362
 C1058 C 0.71527 0.90194 0.59138
 H1059 H 0.70793 0.95075 0.69563
 H1060 H 0.71969 0.93079 0.66539
 H1061 H 0.66090 0.94449 0.63578
 H1062 H 0.64952 0.96434 0.66545
 H1063 H 0.71029 0.91205 0.63255
 H1064 H 0.68106 0.94036 0.60831
 H1065 H 0.67021 0.92564 0.57604
 H1066 H 0.67758 0.90526 0.54517
 H1067 H 0.73329 0.88037 0.57309
 H1068 H 0.72624 0.90109 0.60388
 C1069 C 0.19540 0.45023 0.18232
 C1070 C 0.20290 0.43908 0.16521
 C1071 C 0.19029 0.43647 0.14782
 C1072 C 0.16971 0.44449 0.14823
 C1073 C 0.16230 0.45562 0.16521
 C1074 C 0.17511 0.45888 0.18233
 C1075 C 0.19857 0.42483 0.12974
 C1076 C 0.19183 0.42858 0.11067
 C1077 C 0.19803 0.41649 0.09213
 C1078 C 0.18536 0.41822 0.07475
 C1079 C 0.19011 0.40713 0.05686
 C1080 C 0.20781 0.39413 0.05580
 C1081 C 0.22079 0.39260 0.07303
 C1082 C 0.21595 0.40363 0.09107
 H1083 H 0.20557 0.45240 0.19537
 H1084 H 0.21868 0.43276 0.16541
 H1085 H 0.15908 0.44191 0.13563
 H1086 H 0.14633 0.46146 0.16504
 H1087 H 0.21035 0.41305 0.13241
 H1088 H 0.18052 0.44092 0.10838
 H1089 H 0.17156 0.42811 0.07505
 H1090 H 0.18003 0.40894 0.04373
 H1091 H 0.23454 0.38267 0.07263
 H1092 H 0.22641 0.40218 0.10392
 C1093 C -0.14976 0.35200 0.45902
 C1094 C -0.13104 0.34455 0.45046
 C1095 C -0.13053 0.32529 0.44010
 C1096 C -0.14927 0.31340 0.43875
 C1097 C -0.16813 0.32093 0.44734
 C1098 C -0.16861 0.34049 0.45727
 C1099 C -0.11035 0.31909 0.43020
 C1100 C -0.10549 0.29956 0.42425
 C1101 C -0.08497 0.29437 0.41431
 C1102 C -0.08361 0.27665 0.40157
 C1103 C -0.06469 0.27177 0.39141
 C1104 C -0.04677 0.28455 0.39382
 C1105 C -0.04792 0.30185 0.40708
 C1106 C -0.06670 0.30662 0.41734
 H1107 H -0.14950 0.36693 0.46694
 H1108 H -0.11687 0.35401 0.45182
 H1109 H -0.14968 0.29867 0.43056
 H1110 H -0.18246 0.31181 0.44560
 H1111 H -0.09898 0.33157 0.42774
 H1112 H -0.11688 0.28701 0.42617
 H1113 H -0.09733 0.26678 0.39917
 H1114 H -0.06419 0.25829 0.38131
 H1115 H -0.03416 0.31161 0.40966
 H1116 H -0.06667 0.31979 0.42779
 C1117 C 0.34917 0.85598 0.94387
 C1118 C 0.36750 0.84834 0.93465
 C1119 C 0.36765 0.82865 0.92511
 C1120 C 0.34893 0.81665 0.92499
 C1121 C 0.33048 0.82436 0.93420
 C1122 C 0.33037 0.84420 0.94358
 C1123 C 0.38749 0.82185 0.91496
 C1124 C 0.39222 0.80191 0.91043
 C1125 C 0.41258 0.79582 0.90075
 C1126 C 0.41371 0.77701 0.88960
 C1127 C 0.43262 0.77091 0.88014
 C1128 C 0.45079 0.78350 0.88170
 C1129 C 0.44979 0.80205 0.89326
 C1130 C 0.43098 0.80808 0.90279
 H1131 H 0.34975 0.87115 0.95131
 H1132 H 0.38168 0.85790 0.93501
 H1133 H 0.34821 0.80161 0.91737
 H1134 H 0.31618 0.81504 0.93351
 H1135 H 0.39880 0.83411 0.91134
 H1136 H 0.38090 0.78956 0.91363
 H1137 H 0.39986 0.76715 0.88800
 H1138 H 0.43296 0.75651 0.87133
 H1139 H 0.46370 0.81174 0.89522
 H1140 H 0.43114 0.82216 0.91202
 C1141 C 1.18506 0.81322 0.03603
 C1142 C 1.16811 0.80411 0.04685
 C1143 C 1.14930 0.81520 0.04994
 C1144 C 1.14810 0.83589 0.04273
 C1145 C 1.16493 0.84492 0.03194
 C1146 C 1.18349 0.83364 0.02822
 C1147 C 1.13144 0.80526 0.06129
 C1148 C 1.11136 0.81055 0.05791
 C1149 C 1.09292 0.80286 0.06999
 C1150 C 1.07426 0.81445 0.06913
 C1151 C 1.05648 0.80841 0.08048
 C1152 C 1.05683 0.79049 0.09287
 C1153 C 1.07530 0.77851 0.09341
 C1154 C 1.09323 0.78465 0.08211
 H1155 H 1.19923 0.80420 0.03346
 H1156 H 1.16955 0.78828 0.05255
 H1157 H 1.13433 0.84536 0.04570
 H1158 H 1.16351 0.86093 0.02674
 H1159 H 1.13514 0.79357 0.07261
 H1160 H 1.10809 0.82186 0.04606
 H1161 H 1.07349 0.82843 0.05979
 H1162 H 1.04235 0.81772 0.07945
 H1163 H 1.07595 0.76459 0.10282
 H1164 H 1.10710 0.77498 0.08283
 C1165 C 0.66413 0.35315 0.54475
 C1166 C 0.64700 0.34669 0.55678
 C1167 C 0.64600 0.32636 0.56482
 C1168 C 0.66296 0.31270 0.56101
 C1169 C 0.68028 0.31928 0.54903
 C1170 C 0.68087 0.33949 0.54056
 C1171 C 0.62697 0.32047 0.57698
 C1172 C 0.62054 0.30075 0.58065
 C1173 C 0.60009 0.29596 0.59098
 C1174 C 0.59766 0.27730 0.60214
 C1175 C 0.57841 0.27236 0.61178
 C1176 C 0.56116 0.28593 0.61028
 C1177 C 0.56351 0.30436 0.59875
 C1178 C 0.58268 0.30929 0.58916
 H1179 H 0.66436 0.36899 0.53883
 H1180 H 0.63430 0.35761 0.55961
 H1181 H 0.66306 0.29707 0.56733
 H1182 H 0.69307 0.30850 0.54613
 H1183 H 0.61728 0.33326 0.58243
 H1184 H 0.63018 0.28768 0.57590
 H1185 H 0.61075 0.26664 0.60355
 H1186 H 0.57708 0.25804 0.62057
 H1187 H 0.55034 0.31481 0.59676
 H1188 H 0.58357 0.32332 0.57992
 C1189 C 0.32972 0.15567 0.56632
 C1190 C 0.34744 0.16221 0.57710
 C1191 C 0.36196 0.17637 0.56834
 C1192 C 0.35811 0.18421 0.54857
 C1193 C 0.34032 0.17763 0.53776
 C1194 C 0.32615 0.16300 0.54639
 C1195 C 0.38142 0.18122 0.57983
 C1196 C 0.39394 0.19788 0.57624
 C1197 C 0.41399 0.20166 0.58720
 C1198 C 0.42941 0.21456 0.57799
 C1199 C 0.44881 0.21796 0.58741
 C1200 C 0.45317 0.20856 0.60631
 C1201 C 0.43758 0.19611 0.61583
 C1202 C 0.41815 0.19280 0.60649
 H1203 H 0.31891 0.14463 0.57351
 H1204 H 0.34998 0.15593 0.59228
 H1205 H 0.36913 0.19473 0.54101
 H1206 H 0.33810 0.18333 0.52232
 H1207 H 0.38559 0.17015 0.59158
 H1208 H 0.38991 0.20890 0.56438
 H1209 H 0.42659 0.22172 0.56325
 H1210 H 0.46057 0.22760 0.57970
 H1211 H 0.44034 0.18911 0.63065
 H1212 H 0.40646 0.18351 0.61462
 C1213 C 0.82657 0.69084 0.04764
 C1214 C 0.84496 0.69930 0.05610
 C1215 C 0.86455 0.68981 0.05250
 C1216 C 0.86557 0.67238 0.03929
 C1217 C 0.84726 0.66390 0.03095
 C1218 C 0.82753 0.67276 0.03536
 C1219 C 0.88359 0.69831 0.06266
 C1220 C 0.90007 0.68620 0.06726
 C1221 C 0.91954 0.69358 0.07747
 C1222 C 0.93708 0.68034 0.07704
 C1223 C 0.95570 0.68607 0.08679
 C1224 C 0.95722 0.70518 0.09737
 C1225 C 0.93972 0.71853 0.09782
 C1226 C 0.92103 0.71280 0.08803
 H1227 H 0.81156 0.69800 0.05123
 H1228 H 0.84380 0.71292 0.06597
 H1229 H 0.88046 0.66523 0.03528
 H1230 H 0.84851 0.65032 0.02105
 H1231 H 0.88353 0.71468 0.06688
 H1232 H 0.89945 0.66972 0.06339
 H1233 H 0.93642 0.66546 0.06906
 H1234 H 0.96900 0.67557 0.08590
 H1235 H 0.94032 0.73322 0.10613
 H1236 H 0.90780 0.72329 0.08921
 C1237 C 0.67837 0.69069 0.94969
 C1238 C 0.66120 0.69784 0.93846
 C1239 C 0.64311 0.68527 0.93620
 C1240 C 0.64281 0.66511 0.94486
 C1241 C 0.65988 0.65801 0.95605
 C1242 C 0.67778 0.67075 0.95877
 C1243 C 0.62515 0.69310 0.92414
 C1244 C 0.60526 0.68664 0.92773
 C1245 C 0.58678 0.69238 0.91527
 C1246 C 0.56820 0.68058 0.91798
 C1247 C 0.55035 0.68482 0.90652
 C1248 C 0.55057 0.70107 0.89206
 C1249 C 0.56900 0.71320 0.88953
 C1250 C 0.58697 0.70891 0.90099
 H1251 H 0.69199 0.70083 0.95148
 H1252 H 0.66195 0.71331 0.93169
 H1253 H 0.62964 0.65453 0.94265
 H1254 H 0.65923 0.64230 0.96224
 H1255 H 0.62866 0.70431 0.91218
 H1256 H 0.60220 0.67596 0.94031
 H1257 H 0.56750 0.66787 0.92895
 H1258 H 0.53626 0.67546 0.90912
 H1259 H 0.56960 0.72583 0.87848
 H1260 H 0.60075 0.71869 0.89865
 C1261 C 0.17437 0.19283 0.46470
 C1262 C 0.15634 0.20030 0.45517
 C1263 C 0.15010 0.19232 0.43608
 C1264 C 0.16270 0.17702 0.42645
 C1265 C 0.18077 0.16961 0.43598
 C1266 C 0.18657 0.17713 0.45538
 C1267 C 0.12958 0.19910 0.42776
 C1268 C 0.12372 0.19627 0.40824
 C1269 C 0.10234 0.20116 0.40067
 C1270 C 0.09533 0.19111 0.38282
 C1271 C 0.07504 0.19453 0.37552
 C1272 C 0.06130 0.20822 0.38587
 C1273 C 0.06849 0.21872 0.40343
 C1274 C 0.08879 0.21534 0.41071
 H1275 H 0.17855 0.19905 0.47958
 H1276 H 0.14696 0.21205 0.46296
 H1277 H 0.15828 0.16995 0.41206
 H1278 H 0.18962 0.15721 0.42860
 H1279 H 0.11871 0.20611 0.43862
 H1280 H 0.13454 0.18922 0.39736
 H1281 H 0.10549 0.18030 0.37463
 H1282 H 0.07014 0.18652 0.36171
 H1283 H 0.05828 0.22934 0.41178
 H1284 H 0.09371 0.22399 0.42410
 C1285 C 0.58245 0.09299 0.72750
 C1286 C 0.57200 0.10985 0.71874
 C1287 C 0.55884 0.10679 0.70187
 C1288 C 0.55563 0.08632 0.69441
 C1289 C 0.56595 0.06940 0.70331
 C1290 C 0.57968 0.07262 0.71976
 C1291 C 0.54855 0.12524 0.69277
 C1292 C 0.54339 0.12635 0.67291
 C1293 C 0.53371 0.14498 0.66334
 C1294 C 0.52389 0.14252 0.64431
 C1295 C 0.51452 0.15954 0.63468
 C1296 C 0.51485 0.17949 0.64381
 C1297 C 0.52502 0.18207 0.66267
 C1298 C 0.53443 0.16507 0.67229
 H1299 H 0.59270 0.09587 0.74037
 H1300 H 0.57451 0.12542 0.72493
 H1301 H 0.54506 0.08326 0.68186
 H1302 H 0.56353 0.05386 0.69706
 H1303 H 0.54591 0.13847 0.70281
 H1304 H 0.54631 0.11301 0.66303
 H1305 H 0.52333 0.12733 0.63692
 H1306 H 0.50713 0.15710 0.61999
 H1307 H 0.52544 0.19720 0.67017
 H1308 H 0.54238 0.16794 0.68658
 C1309 C 1.06200 0.56564 0.19678
 C1310 C 1.05165 0.58122 0.18588
 C1311 C 1.05499 0.60249 0.19044
 C1312 C 1.06840 0.60781 0.20672
 C1313 C 1.07882 0.59223 0.21754
 C1314 C 1.07592 0.57101 0.21253
 C1315 C 1.04409 0.61839 0.17792
 C1316 C 1.04960 0.63872 0.17726
 C1317 C 1.03869 0.65423 0.16442
 C1318 C 1.03832 0.67520 0.17081
 C1319 C 1.02822 0.69033 0.15912
 C1320 C 1.01854 0.68485 0.14058
 C1321 C 1.01933 0.66389 0.13395
 C1322 C 1.02930 0.64874 0.14573
 H1323 H 1.05956 0.54941 0.19250
 H1324 H 1.04129 0.57663 0.17355
 H1325 H 1.07088 0.62387 0.21138
 H1326 H 1.08912 0.59678 0.22991
 H1327 H 1.03116 0.61291 0.16861
 H1328 H 1.06226 0.64461 0.18663
 H1329 H 1.04557 0.67984 0.18508
 H1330 H 1.02766 0.70625 0.16483
 H1331 H 1.01246 0.65924 0.11951
 H1332 H 1.02996 0.63286 0.13993
 C1333 C 0.95387 0.92673 0.20461
 C1334 C 0.96536 0.91144 0.19407
 C1335 C 0.95740 0.89096 0.19211
 C1336 C 0.93790 0.88593 0.20149
 C1337 C 0.92638 0.90124 0.21192
 C1338 C 0.93415 0.92183 0.21347
 C1339 C 0.97006 0.87531 0.18061
 C1340 C 0.96180 0.85782 0.17241
 C1341 C 0.97420 0.84214 0.16066
 C1342 C 0.96334 0.82767 0.14836
 C1343 C 0.97423 0.81238 0.13725
 C1344 C 0.99627 0.81122 0.13821
 C1345 C 1.00719 0.82556 0.15060
 C1346 C 0.99629 0.84078 0.16181
 H1347 H 0.96020 0.94250 0.20548
 H1348 H 0.98041 0.91570 0.18718
 H1349 H 0.93155 0.87017 0.20112
 H1350 H 0.91145 0.89691 0.21902
 H1351 H 0.98653 0.87904 0.17804
 H1352 H 0.94497 0.85512 0.17348
 H1353 H 0.94633 0.82824 0.14728
 H1354 H 0.96544 0.80159 0.12773
 H1355 H 1.02415 0.82472 0.15194
 H1356 H 1.00529 0.85106 0.17162
 C1357 C 0.44552 0.42693 0.70460
 C1358 C 0.45823 0.41157 0.69559
 C1359 C 0.45125 0.39069 0.69444
 C1360 C 0.43148 0.38535 0.70306
 C1361 C 0.41878 0.40070 0.71203
 C1362 C 0.42558 0.42168 0.71278
 C1363 C 0.46517 0.37490 0.68465
 C1364 C 0.45790 0.35700 0.67643
 C1365 C 0.47151 0.34108 0.66643
 C1366 C 0.46215 0.32654 0.65310
 C1367 C 0.47415 0.31091 0.64370
 C1368 C 0.49581 0.30936 0.64752
 C1369 C 0.50522 0.32384 0.66089
 C1370 C 0.49321 0.33949 0.67033
 H1371 H 0.45115 0.44298 0.70484
 H1372 H 0.47346 0.41608 0.68924
 H1373 H 0.42587 0.36932 0.70327
 H1374 H 0.40372 0.39609 0.71866
 H1375 H 0.48175 0.37880 0.68331
 H1376 H 0.44108 0.35413 0.67612
 H1377 H 0.44547 0.32732 0.64990
 H1378 H 0.46648 0.30010 0.63331
 H1379 H 0.52180 0.32278 0.66441
 H1380 H 0.50093 0.34990 0.68101
 C1381 C 0.41759 0.58209 0.77615
 C1382 C 0.42814 0.59959 0.78399
 C1383 C 0.43859 0.59851 0.80277
 C1384 C 0.43864 0.57935 0.81340
 C1385 C 0.42814 0.56182 0.80553
 C1386 C 0.41745 0.56299 0.78683
 C1387 C 0.44981 0.61742 0.81030
 C1388 C 0.45375 0.62098 0.83017
 C1389 C 0.46531 0.63966 0.83783
 C1390 C 0.47438 0.63870 0.85731
 C1391 C 0.48567 0.65574 0.86513
 C1392 C 0.48804 0.67424 0.85368
 C1393 C 0.47857 0.67542 0.83437
 C1394 C 0.46727 0.65837 0.82654
 H1395 H 0.40930 0.58362 0.76184
 H1396 H 0.42796 0.61410 0.77543
 H1397 H 0.44716 0.57763 0.82754
 H1398 H 0.42872 0.54722 0.81390
 H1399 H 0.45468 0.62877 0.79888
 H1400 H 0.44869 0.60957 0.84149
 H1401 H 0.47291 0.62462 0.86646
 H1402 H 0.49243 0.65448 0.88023
 H1403 H 0.48015 0.68945 0.82517
 H1404 H 0.45997 0.66011 0.81177
 C1405 C -0.05692 0.05395 0.31896
 C1406 C -0.04644 0.07047 0.32871
 C1407 C -0.04633 0.09065 0.32024
 C1408 C -0.05648 0.09386 0.30146
 C1409 C -0.06691 0.07736 0.29171
 C1410 C -0.06732 0.05724 0.30037
 C1411 C -0.03491 0.10771 0.33099
 C1412 C -0.03952 0.12804 0.32871
 C1413 C -0.02771 0.14539 0.33858
 C1414 C -0.02878 0.16541 0.32986
 C1415 C -0.01773 0.18226 0.33833
 C1416 C -0.00548 0.17952 0.35589
 C1417 C -0.00472 0.15957 0.36491
 C1418 C -0.01575 0.14268 0.35640
 H1419 H -0.05668 0.03854 0.32585
 H1420 H -0.03850 0.06750 0.34301
 H1421 H -0.05616 0.10897 0.29401
 H1422 H -0.07487 0.08044 0.27746
 H1423 H -0.02240 0.10314 0.34110
 H1424 H -0.05221 0.13245 0.31872
 H1425 H -0.03794 0.16798 0.31620
 H1426 H -0.01845 0.19736 0.33087
 H1427 H 0.00423 0.15707 0.37869
 H1428 H -0.01508 0.12770 0.36404
 C1429 C 0.05758 0.42361 0.28142
 C1430 C 0.04608 0.40691 0.28991
 C1431 C 0.05480 0.39437 0.30522
 C1432 C 0.07524 0.39907 0.31209
 C1433 C 0.08670 0.41578 0.30365
 C1434 C 0.07799 0.42828 0.28827
 C1435 C 0.04181 0.37723 0.31426
 C1436 C 0.05009 0.36031 0.32320
 C1437 C 0.03755 0.34321 0.33302
 C1438 C 0.04822 0.32851 0.34495
 C1439 C 0.03730 0.31217 0.35467
 C1440 C 0.01539 0.31010 0.35267
 C1441 C 0.00465 0.32466 0.34063
 C1442 C 0.01557 0.34098 0.33084
 H1443 H 0.05033 0.43314 0.26981
 H1444 H 0.03029 0.40378 0.28451
 H1445 H 0.08230 0.39025 0.32431
 H1446 H 0.10243 0.41892 0.30917
 H1447 H 0.02494 0.37884 0.31320
 H1448 H 0.06705 0.35880 0.32358
 H1449 H 0.06511 0.32976 0.34691
 H1450 H 0.04598 0.30129 0.36400
 H1451 H -0.01219 0.32321 0.33851
 H1452 H 0.00662 0.35149 0.32146
 C1453 C 0.56064 0.91871 0.77604
 C1454 C 0.54918 0.90137 0.78320
 C1455 C 0.55802 0.88744 0.79724
 C1456 C 0.57863 0.89131 0.80411
 C1457 C 0.59005 0.90870 0.79702
 C1458 C 0.58115 0.92266 0.78301
 C1459 C 0.54484 0.86991 0.80525
 C1460 C 0.55279 0.85232 0.81321
 C1461 C 0.53970 0.83530 0.82242
 C1462 C 0.54934 0.82103 0.83563
 C1463 C 0.53755 0.80520 0.84528
 C1464 C 0.51582 0.80327 0.84187
 C1465 C 0.50625 0.81713 0.82821
 C1466 C 0.51804 0.83289 0.81849
 H1467 H 0.55327 0.92934 0.76546
 H1468 H 0.53326 0.89889 0.77784
 H1469 H 0.58583 0.88136 0.81538
 H1470 H 0.60587 0.91126 0.80258
 H1471 H 0.52798 0.87194 0.80459
 H1472 H 0.56970 0.85039 0.81363
 H1473 H 0.56601 0.82238 0.83882
 H1474 H 0.54533 0.79478 0.85579
 H1475 H 0.48962 0.81568 0.82493
 H1476 H 0.51004 0.84290 0.80784
 C1477 C 0.70564 0.55411 0.06795
 C1478 C 0.69572 0.54294 0.08380
 C1479 C 0.69311 0.55177 0.10330
 C1480 C 0.70058 0.57222 0.10663
 C1481 C 0.71056 0.58345 0.09088
 C1482 C 0.71328 0.57484 0.07093
 C1483 C 0.68179 0.53951 0.11939
 C1484 C 0.68313 0.54360 0.13953
 C1485 C 0.67156 0.53156 0.15559
 C1486 C 0.67889 0.53241 0.17579
 C1487 C 0.66836 0.52158 0.19149
 C1488 C 0.65015 0.50974 0.18736
 C1489 C 0.64262 0.50907 0.16721
 C1490 C 0.65313 0.51993 0.15149
 H1491 H 0.70603 0.54648 0.05317
 H1492 H 0.68980 0.52730 0.08068
 H1493 H 0.69857 0.57989 0.12131
 H1494 H 0.71671 0.59866 0.09505
 H1495 H 0.67262 0.52616 0.11431
 H1496 H 0.69380 0.55571 0.14477
 H1497 H 0.69293 0.54137 0.17941
 H1498 H 0.67465 0.52224 0.20683
 H1499 H 0.62838 0.50041 0.16366
 H1500 H 0.64647 0.51947 0.13632
 C1501 C 0.19078 1.06050 0.56315
 C1502 C 0.18021 1.05020 0.57919
 C1503 C 0.18521 1.05458 0.59965
 C1504 C 0.20154 1.06892 0.60379
 C1505 C 0.21219 1.07911 0.58778
 C1506 C 0.20680 1.07520 0.56728
 C1507 C 0.17358 1.04356 0.61628
 C1508 C 0.17043 1.05204 0.63489
 C1509 C 0.15884 1.04117 0.65164
 C1510 C 0.14877 1.05315 0.66687
 C1511 C 0.13806 1.04343 0.68316
 C1512 C 0.13744 1.02148 0.68469
 C1513 C 0.14776 1.00950 0.66955
 C1514 C 0.15836 1.01921 0.65321
 H1515 H 0.18613 1.05724 0.54755
 H1516 H 0.16782 1.03905 0.57563
 H1517 H 0.20637 1.07207 0.61936
 H1518 H 0.22485 1.08989 0.59147
 H1519 H 0.16650 1.02854 0.61265
 H1520 H 0.17564 1.06795 0.63778
 H1521 H 0.14905 1.07009 0.66607
 H1522 H 0.13010 1.05310 0.69445
 H1523 H 0.14803 0.99258 0.67056
 H1524 H 0.16657 1.00949 0.64216
 C1525 C 0.21107 0.95958 0.92063
 C1526 C 0.20025 0.97106 0.90595
 C1527 C 0.18765 0.96102 0.89141
 C1528 C 0.18570 0.93913 0.89214
 C1529 C 0.19657 0.92757 0.90668
 C1530 C 0.20970 0.93741 0.92135
 C1531 C 0.17657 0.97399 0.87611
 C1532 C 0.16886 0.96642 0.85849
 C1533 C 0.15816 0.97947 0.84307
 C1534 C 0.14441 0.96965 0.82930
 C1535 C 0.13456 0.98117 0.81402
 C1536 C 0.13840 1.00277 0.81205
 C1537 C 0.15217 1.01262 0.82583
 C1538 C 0.16200 1.00112 0.84114
 H1539 H 0.22129 0.96845 0.93058
 H1540 H 0.20205 0.98795 0.90576
 H1541 H 0.17538 0.93071 0.88191
 H1542 H 0.19341 0.91093 0.90684
 H1543 H 0.17507 0.99049 0.87956
 H1544 H 0.17020 0.94994 0.85496
 H1545 H 0.14126 0.95299 0.83038
 H1546 H 0.12387 0.97315 0.80378
 H1547 H 0.15582 1.02916 0.82441
 H1548 H 0.17304 1.00917 0.85095
 C1549 C 0.72078 0.45343 0.41862
 C1550 C 0.71065 0.46440 0.40311
 C1551 C 0.69175 0.45679 0.39479
 C1552 C 0.68292 0.43815 0.40275
 C1553 C 0.69316 0.42711 0.41810
 C1554 C 0.71223 0.43456 0.42611
 C1555 C 0.68174 0.46891 0.37816
 C1556 C 0.66711 0.46092 0.36558
 C1557 C 0.65755 0.47265 0.34846
 C1558 C 0.64676 0.46129 0.33336
 C1559 C 0.63770 0.47148 0.31677
 C1560 C 0.63918 0.49335 0.31488
 C1561 C 0.64960 0.50482 0.33019
 C1562 C 0.65857 0.49464 0.34685
 H1563 H 0.73550 0.45951 0.42450
 H1564 H 0.71773 0.47879 0.39744
 H1565 H 0.66800 0.43207 0.39748
 H1566 H 0.68598 0.41285 0.42396
 H1567 H 0.68759 0.48465 0.37571
 H1568 H 0.66254 0.44465 0.36703
 H1569 H 0.64546 0.44439 0.33430
 H1570 H 0.62943 0.46221 0.30546
 H1571 H 0.65112 0.52168 0.32914
 H1572 H 0.66612 0.50416 0.35838
 C1573 C 0.77438 0.43397 0.58580
 C1574 C 0.78224 0.44394 0.60323
 C1575 C 0.80218 0.45361 0.60281
 C1576 C 0.81382 0.45377 0.58429
 C1577 C 0.80595 0.44382 0.56685
 C1578 C 0.78625 0.43362 0.56746
 C1579 C 0.81003 0.46363 0.62180
 C1580 C 0.83056 0.46669 0.62559
 C1581 C 0.83851 0.47673 0.64453
 C1582 C 0.85857 0.48615 0.64402
 C1583 C 0.86664 0.49598 0.66142
 C1584 C 0.85490 0.49641 0.67982
 C1585 C 0.83505 0.48652 0.68052
 C1586 C 0.82693 0.47674 0.66310
 H1587 H 0.75922 0.42611 0.58682
 H1588 H 0.77286 0.44375 0.61723
 H1589 H 0.82885 0.46178 0.58303
 H1590 H 0.81525 0.44424 0.55281
 H1591 H 0.79832 0.46825 0.63310
 H1592 H 0.84225 0.46203 0.61429
 H1593 H 0.86794 0.48611 0.63001
 H1594 H 0.88214 0.50317 0.66051
 H1595 H 0.82563 0.48664 0.69448
 H1596 H 0.81173 0.46905 0.66437
 C1597 C 0.27824 -0.04812 0.06661
 C1598 C 0.28616 -0.03780 0.08385
 C1599 C 0.30369 -0.04562 0.09420
 C1600 C 0.31333 -0.06394 0.08669
 C1601 C 0.30533 -0.07431 0.06956
 C1602 C 0.28773 -0.06653 0.05927
 C1603 C 0.31168 -0.03386 0.11224
 C1604 C 0.32488 -0.04193 0.12604
 C1605 C 0.33309 -0.03031 0.14407
 C1606 C 0.34310 -0.04170 0.15949
 C1607 C 0.35134 -0.03160 0.17666
 C1608 C 0.34978 -0.00977 0.17886
 C1609 C 0.33995 0.00170 0.16336
 C1610 C 0.33181 -0.00839 0.14611
 H1611 H 0.26488 -0.04149 0.05887
 H1612 H 0.27854 -0.02361 0.08910
 H1613 H 0.32723 -0.07027 0.09367
 H1614 H 0.31291 -0.08857 0.06447
 H1615 H 0.30571 -0.01821 0.11442
 H1616 H 0.32951 -0.05813 0.12467
 H1617 H 0.34457 -0.05855 0.15825
 H1618 H 0.35916 -0.04088 0.18811
 H1619 H 0.33835 0.01853 0.16465
 H1620 H 0.32480 0.00120 0.13445
 C1621 C 0.30431 0.05649 0.43070
 C1622 C 0.31259 0.04501 0.41427
 C1623 C 0.30363 0.04628 0.39476
 C1624 C 0.28568 0.05876 0.39218
 C1625 C 0.27734 0.07019 0.40867
 C1626 C 0.28670 0.06934 0.42805
 C1627 C 0.31331 0.03410 0.37775
 C1628 C 0.31147 0.03915 0.35789
 C1629 C 0.32176 0.02732 0.34097
 C1630 C 0.31340 0.02869 0.32120
 C1631 C 0.32268 0.01791 0.30478
 C1632 C 0.34064 0.00562 0.30776
 C1633 C 0.34925 0.00455 0.32746
 C1634 C 0.33999 0.01533 0.34387
 H1635 H 0.31165 0.05524 0.44554
 H1636 H 0.32625 0.03532 0.41674
 H1637 H 0.27787 0.05965 0.37758
 H1638 H 0.26378 0.07999 0.40615
 H1639 H 0.32275 0.02082 0.38200
 H1640 H 0.30198 0.05240 0.35362
 H1641 H 0.29950 0.03796 0.31850
 H1642 H 0.31559 0.01893 0.28981
 H1643 H 0.36339 -0.00437 0.33012
 H1644 H 0.34747 0.01452 0.35864
 C1645 C 0.77560 0.55496 0.92306
 C1646 C 0.78316 0.54385 0.90603
 C1647 C 0.79709 0.55335 0.89190
 C1648 C 0.80352 0.57420 0.89530
 C1649 C 0.79601 0.58527 0.91234
 C1650 C 0.78204 0.57577 0.92645
 C1651 C 0.80540 0.54073 0.87452
 C1652 C 0.81284 0.54918 0.85701
 C1653 C 0.82242 0.53686 0.84001
 C1654 C 0.83550 0.54733 0.82578
 C1655 C 0.84536 0.53640 0.80980
 C1656 C 0.84227 0.51471 0.80763
 C1657 C 0.82879 0.50427 0.82156
 C1658 C 0.81889 0.51521 0.83752
 H1659 H 0.76507 0.54712 0.93382
 H1660 H 0.77816 0.52774 0.90391
 H1661 H 0.81476 0.58193 0.88521
 H1662 H 0.80116 0.60133 0.91447
 H1663 H 0.80538 0.52394 0.87653
 H1664 H 0.81256 0.56599 0.85509
 H1665 H 0.83841 0.56401 0.82723
 H1666 H 0.85579 0.54485 0.79941
 H1667 H 0.82575 0.48764 0.81998
 H1668 H 0.80835 0.50660 0.84762
 C1669 C 0.09835 0.72405 0.58113
 C1670 C 0.11557 0.71502 0.57104
 C1671 C 0.11258 0.69926 0.55633
 C1672 C 0.09189 0.69319 0.55134
 C1673 C 0.07463 0.70239 0.56131
 C1674 C 0.07770 0.71774 0.57646
 C1675 C 0.13138 0.68995 0.54628
 C1676 C 0.13182 0.67024 0.53908
 C1677 C 0.15073 0.66037 0.52960
 C1678 C 0.14809 0.64168 0.51849
 C1679 C 0.16535 0.63173 0.50932
 C1680 C 0.18575 0.64021 0.51111
 C1681 C 0.18848 0.65875 0.52245
 C1682 C 0.17125 0.66866 0.53168
 H1683 H 0.10117 0.73608 0.59252
 H1684 H 0.13133 0.72015 0.57497
 H1685 H 0.08895 0.68155 0.53962
 H1686 H 0.05887 0.69725 0.55741
 H1687 H 0.14538 0.69966 0.54557
 H1688 H 0.11768 0.66068 0.54017
 H1689 H 0.13255 0.63477 0.51682
 H1690 H 0.16275 0.61729 0.50097
 H1691 H 0.20396 0.66579 0.52399
 H1692 H 0.17429 0.68263 0.54055
 C1693 C 0.58116 0.21481 1.05706
 C1694 C 0.59729 0.20466 1.04624
 C1695 C 0.60480 0.18518 1.05279
 C1696 C 0.59536 0.17580 1.07020
 C1697 C 0.57938 0.18605 1.08110
 C1698 C 0.57221 0.20570 1.07473
 C1699 C 0.62215 0.17518 1.04089
 C1700 C 0.63411 0.15968 1.04818
 C1701 C 0.65193 0.14996 1.03671
 C1702 C 0.66594 0.13734 1.04756
 C1703 C 0.68308 0.12796 1.03764
 C1704 C 0.68666 0.13097 1.01654
 C1705 C 0.67247 0.14331 1.00556
 C1706 C 0.65524 0.15260 1.01546
 H1707 H 0.57597 0.22998 1.05184
 H1708 H 0.60409 0.21218 1.03280
 H1709 H 0.59994 0.16048 1.07541
 H1710 H 0.57240 0.17845 1.09441
 H1711 H 0.62566 0.18171 1.02596
 H1712 H 0.63155 0.15430 1.06372
 H1713 H 0.66369 0.13478 1.06386
 H1714 H 0.69346 0.11822 1.04649
 H1715 H 0.67484 0.14607 0.98932
 H1716 H 0.64463 0.16166 1.00627
 C1717 C 0.89834 0.21467 0.92365
 C1718 C 0.88208 0.20451 0.93435
 C1719 C 0.88579 0.19448 0.95297
 C1720 C 0.90618 0.19533 0.96103
 C1721 C 0.92257 0.20549 0.95037
 C1722 C 0.91923 0.21529 0.93117
 C1723 C 0.86780 0.18386 0.96351
 C1724 C 0.86984 0.16930 0.97815
 C1725 C 0.85161 0.15832 0.98795
 C1726 C 0.85498 0.13907 0.99770
 C1727 C 0.83825 0.12814 1.00700
 C1728 C 0.81776 0.13627 1.00676
 C1729 C 0.81440 0.15567 0.99731
 C1730 C 0.83113 0.16666 0.98814
 H1731 H 0.89382 0.22279 0.90992
 H1732 H 0.86639 0.20454 0.92798
 H1733 H 0.90968 0.18827 0.97562
 H1734 H 0.93797 0.20453 0.95710
 H1735 H 0.85226 0.18751 0.95801
 H1736 H 0.88538 0.16425 0.98245
 H1737 H 0.87060 0.13236 0.99795
 H1738 H 0.84127 0.11319 1.01414
 H1739 H 0.79885 0.16254 0.99735
 H1740 H 0.82790 0.18181 0.98159
 C1741 C 0.40155 0.72263 0.42069
 C1742 C 0.38475 0.71420 0.43206
 C1743 C 0.38835 0.69986 0.44786
 C1744 C 0.40925 0.69465 0.45257
 C1745 C 0.42610 0.70325 0.44129
 C1746 C 0.42239 0.71715 0.42509
 C1747 C 0.36997 0.69108 0.45924
 C1748 C 0.36993 0.67205 0.46797
 C1749 C 0.35139 0.66248 0.47866
 C1750 C 0.35447 0.64435 0.49037
 C1751 C 0.33755 0.63452 0.50048
 C1752 C 0.31708 0.64255 0.49907
 C1753 C 0.31393 0.66061 0.48728
 C1754 C 0.33082 0.67041 0.47711
 H1755 H 0.39826 0.73358 0.40850
 H1756 H 0.36883 0.71867 0.42830
 H1757 H 0.41268 0.68416 0.46506
 H1758 H 0.44201 0.69876 0.44501
 H1759 H 0.35592 0.70050 0.45958
 H1760 H 0.38411 0.66276 0.46712
 H1761 H 0.37005 0.63774 0.49170
 H1762 H 0.34046 0.62044 0.50918
 H1763 H 0.29839 0.66731 0.48603
 H1764 H 0.32741 0.68398 0.46793
 C1765 C 0.58108 0.80764 0.40931
 C1766 C 0.59787 0.81683 0.41974
 C1767 C 0.60201 0.81144 0.44014
 C1768 C 0.58877 0.79661 0.44996
 C1769 C 0.57198 0.78737 0.43948
 C1770 C 0.56790 0.79284 0.41907
 C1771 C 0.61984 0.82214 0.45049
 C1772 C 0.62828 0.81582 0.46818
 C1773 C 0.64605 0.82694 0.47815
 C1774 C 0.64841 0.82499 0.49942
 C1775 C 0.66494 0.83518 0.50942
 C1776 C 0.67964 0.84737 0.49831
 C1777 C 0.67750 0.84905 0.47696
 C1778 C 0.66094 0.83891 0.46697
 H1779 H 0.57851 0.81199 0.39351
 H1780 H 0.60772 0.82820 0.41177
 H1781 H 0.59090 0.79233 0.46580
 H1782 H 0.56188 0.77627 0.44750
 H1783 H 0.62624 0.83594 0.44300
 H1784 H 0.62187 0.80231 0.47610
 H1785 H 0.63733 0.81566 0.50836
 H1786 H 0.66638 0.83330 0.52584
 H1787 H 0.68855 0.85837 0.46799
 H1788 H 0.66013 0.84026 0.45047
 C1789 C 0.06374 0.31820 -0.06957
 C1790 C 0.08059 0.32831 -0.06004
 C1791 C 0.09619 0.31677 -0.05015
 C1792 C 0.09435 0.29477 -0.04972
 C1793 C 0.07751 0.28465 -0.05935
 C1794 C 0.06203 0.29626 -0.06937
 C1795 C 0.11358 0.32842 -0.04005
 C1796 C 0.13186 0.31976 -0.03452
 C1797 C 0.14914 0.33152 -0.02433
 C1798 C 0.16932 0.32266 -0.02407
 C1799 C 0.18595 0.33284 -0.01420
 C1800 C 0.18277 0.35213 -0.00426
 C1801 C 0.16260 0.36104 -0.00455
 C1802 C 0.14595 0.35082 -0.01432
 H1803 H 0.05220 0.32758 -0.07738
 H1804 H 0.08151 0.34525 -0.06054
 H1805 H 0.10556 0.28525 -0.04171
 H1806 H 0.07640 0.26774 -0.05866
 H1807 H 0.11133 0.34504 -0.03793
 H1808 H 0.13482 0.30352 -0.03818
 H1809 H 0.17222 0.30773 -0.03146
 H1810 H 0.20119 0.32536 -0.01397
 H1811 H 0.15965 0.37596 0.00280
 H1812 H 0.13062 0.35803 -0.01354
 C1813 C 0.42688 0.27999 0.05557
 C1814 C 0.41031 0.28874 0.04467
 C1815 C 0.39680 0.30333 0.05401
 C1816 C 0.40042 0.30927 0.07446
 C1817 C 0.41703 0.30058 0.08533
 C1818 C 0.43045 0.28586 0.07601
 C1819 C 0.37979 0.31262 0.04167
 C1820 C 0.36210 0.32062 0.04993
 C1821 C 0.34519 0.33050 0.03783
 C1822 C 0.33059 0.34333 0.04811
 C1823 C 0.31450 0.35316 0.03743
 C1824 C 0.31263 0.35034 0.01617
 C1825 C 0.32697 0.33723 0.00590
 C1826 C 0.34301 0.32733 0.01658
 H1827 H 0.43713 0.26891 0.04789
 H1828 H 0.40802 0.28408 0.02887
 H1829 H 0.39082 0.32093 0.08204
 H1830 H 0.41931 0.30533 0.10109
 H1831 H 0.38215 0.31261 0.02524
 H1832 H 0.35985 0.32032 0.06639
 H1833 H 0.33177 0.34596 0.06447
 H1834 H 0.30374 0.36327 0.04574
 H1835 H 0.32560 0.33439 -0.01041
 H1836 H 0.35334 0.31702 0.00807
 C1837 C 0.93475 0.81387 0.56476
 C1838 C 0.91776 0.82335 0.55520
 C1839 C 0.89797 0.81340 0.55466
 C1840 C 0.89560 0.79354 0.56383
 C1841 C 0.91265 0.78404 0.57339
 C1842 C 0.93235 0.79421 0.57415
 C1843 C 0.88026 0.82480 0.54521
 C1844 C 0.86218 0.81575 0.53923
 C1845 C 0.84463 0.82750 0.52988
 C1846 C 0.82433 0.81860 0.53033
 C1847 C 0.80740 0.82892 0.52145
 C1848 C 0.81042 0.84838 0.51177
 C1849 C 0.83075 0.85727 0.51124
 C1850 C 0.84768 0.84694 0.52007
 H1851 H 0.94979 0.82200 0.56488
 H1852 H 0.92007 0.83862 0.54829
 H1853 H 0.88055 0.78551 0.56431
 H1854 H 0.91023 0.76905 0.58081
 H1855 H 0.88248 0.84147 0.54320
 H1856 H 0.85976 0.79913 0.54138
 H1857 H 0.82155 0.80356 0.53757
 H1858 H 0.79201 0.82147 0.52180
 H1859 H 0.83359 0.87228 0.50398
 H1860 H 0.86311 0.85412 0.51873
   
