data_POSCAR
  _audit_creation_date              2014-09-24
  _audit_creation_method            'ToBaCCo'
  _symmetry_space_group_name_H-M    'P1'
  _symmetry_Int_Tables_number       1
  _symmetry_cell_setting            triclinic
  loop_
  _symmetry_equiv_pos_as_xyz
 x,y,z
_cell_length_a 74.7144
_cell_length_b 74.7187
_cell_length_c 75.1699
_cell_angle_alpha 89.920900
_cell_angle_beta 89.930000
_cell_angle_gamma 89.924300
loop_
  _atom_site_label
  _atom_site_type_symbol
  _atom_site_fract_x
  _atom_site_fract_y
  _atom_site_fract_z
N1 N 0.36502 0.31320 0.32587
 N2 N 0.36430 0.32523 0.31313
 C3 C 0.37739 0.32189 0.30126
 C4 C 0.38686 0.30696 0.30685
 C5 C 0.37859 0.30183 0.32256
 H6 H 0.37970 0.32956 0.28930
 H7 H 0.38197 0.29051 0.33086
 Cu8 Cu 0.34627 0.34400 0.31356
 Cu9 Cu 0.34784 0.31263 0.34545
 Cu10 Cu 0.31574 0.34628 0.34622
 N11 N 0.32840 0.36293 0.31401
 N12 N 0.31664 0.36383 0.32698
 C13 C 0.30642 0.37849 0.32472
 C14 C 0.31200 0.38730 0.30947
 C15 C 0.32603 0.37701 0.30304
 H16 H 0.29596 0.38262 0.33375
 H17 H 0.33418 0.37977 0.29149
 N18 N 0.31713 0.32725 0.36441
 N19 N 0.32926 0.31440 0.36406
 C20 C 0.32681 0.30365 0.37824
 C21 C 0.31247 0.31002 0.38807
 C22 C 0.30672 0.32505 0.37889
 H23 H 0.33506 0.29217 0.38131
 H24 H 0.29593 0.33391 0.38262
 H25 H 0.32723 0.32539 0.33236
 H26 H 0.34261 0.33980 0.34555
 N27 N 0.36427 0.81410 -0.17356
 N28 N 0.36385 0.82632 -0.18612
 C29 C 0.37792 0.82386 -0.19707
 C30 C 0.38773 0.80925 -0.19106
 C31 C 0.37857 0.80345 -0.17607
 H32 H 0.38087 0.83227 -0.20840
 H33 H 0.38227 0.79262 -0.16728
 Cu34 Cu 0.34548 0.84484 -0.18658
 Cu35 Cu 0.34679 0.81337 -0.15442
 Cu36 Cu 0.31517 0.84718 -0.15332
 N37 N 0.32786 0.86403 -0.18530
 N38 N 0.31621 0.86499 -0.17223
 C39 C 0.30614 0.87978 -0.17432
 C40 C 0.31173 0.88869 -0.18956
 C41 C 0.32559 0.87821 -0.19615
 H42 H 0.29579 0.88392 -0.16515
 H43 H 0.33364 0.88078 -0.20783
 N44 N 0.31622 0.82789 -0.13542
 N45 N 0.32808 0.81482 -0.13605
 C46 C 0.32553 0.80388 -0.12203
 C47 C 0.31139 0.81037 -0.11199
 C48 C 0.30586 0.82565 -0.12092
 H49 H 0.33362 0.79224 -0.11916
 H50 H 0.29529 0.83467 -0.11695
 H51 H 0.32628 0.82644 -0.16768
 H52 H 0.34203 0.84070 -0.15460
 N53 N 0.86443 0.31472 -0.17266
 N54 N 0.86364 0.32641 -0.18571
 C55 C 0.87758 0.32369 -0.19676
 C56 C 0.88762 0.30950 -0.19031
 C57 C 0.87886 0.30417 -0.17496
 H58 H 0.88029 0.33159 -0.20852
 H59 H 0.88283 0.29359 -0.16596
 Cu60 Cu 0.84500 0.34461 -0.18685
 Cu61 Cu 0.84668 0.31394 -0.15375
 Cu62 Cu 0.81325 0.34583 -0.15507
 N63 N 0.82786 0.36423 -0.18520
 N64 N 0.81573 0.36483 -0.17255
 C65 C 0.80585 0.37976 -0.17446
 C66 C 0.81202 0.38911 -0.18921
 C67 C 0.82610 0.37880 -0.19563
 H68 H 0.79509 0.38354 -0.16561
 H69 H 0.83452 0.38162 -0.20700
 N70 N 0.81475 0.32755 -0.13626
 N71 N 0.82742 0.31526 -0.13588
 C72 C 0.82427 0.30404 -0.12219
 C73 C 0.80891 0.30957 -0.11342
 C74 C 0.80331 0.32460 -0.12272
 H75 H 0.83229 0.29240 -0.11916
 H76 H 0.79149 0.33253 -0.12015
 H77 H 0.82641 0.32512 -0.16830
 H78 H 0.84039 0.34098 -0.15503
 N79 N 0.86399 0.81431 0.32688
 N80 N 0.86394 0.82702 0.31479
 C81 C 0.87784 0.82445 0.30364
 C82 C 0.88713 0.80934 0.30909
 C83 C 0.87792 0.80329 0.32390
 H84 H 0.88109 0.83309 0.29258
 H85 H 0.88135 0.79199 0.33221
 Cu86 Cu 0.84614 0.84605 0.31515
 Cu87 Cu 0.84661 0.81344 0.34611
 Cu88 Cu 0.81461 0.84697 0.34722
 N89 N 0.82737 0.86414 0.31542
 N90 N 0.81524 0.86455 0.32807
 C91 C 0.80370 0.87801 0.32483
 C92 C 0.80880 0.88655 0.30921
 C93 C 0.82394 0.87731 0.30366
 H94 H 0.79229 0.88106 0.33313
 H95 H 0.83160 0.87965 0.29169
 N96 N 0.81611 0.82789 0.36531
 N97 N 0.82799 0.81485 0.36459
 C98 C 0.82554 0.80389 0.37861
 C99 C 0.81146 0.81035 0.38874
 C100 C 0.80585 0.82563 0.37988
 H101 H 0.83366 0.79225 0.38141
 H102 H 0.79525 0.83460 0.38389
 H103 H 0.82644 0.82679 0.33257
 H104 H 0.84149 0.84059 0.34685
 N105 N 0.63597 0.68655 0.32739
 N106 N 0.63616 0.67405 0.31512
 C107 C 0.62252 0.67693 0.30377
 C108 C 0.61324 0.69201 0.30926
 C109 C 0.62222 0.69776 0.32431
 H110 H 0.61964 0.66878 0.29227
 H111 H 0.61900 0.70920 0.33248
 Cu112 Cu 0.65426 0.65530 0.31521
 Cu113 Cu 0.65346 0.68737 0.34652
 Cu114 Cu 0.68532 0.65365 0.34752
 N115 N 0.67210 0.63634 0.31604
 N116 N 0.68429 0.63587 0.32862
 C117 C 0.69484 0.62148 0.32618
 C118 C 0.68897 0.61236 0.31125
 C119 C 0.67446 0.62219 0.30520
 H120 H 0.70589 0.61790 0.33474
 H121 H 0.66610 0.61911 0.29390
 N122 N 0.68415 0.67289 0.36542
 N123 N 0.67220 0.68589 0.36485
 C124 C 0.67465 0.69672 0.37894
 C125 C 0.68877 0.69021 0.38896
 C126 C 0.69443 0.67505 0.37996
 H127 H 0.66646 0.70827 0.38189
 H128 H 0.70499 0.66601 0.38392
 H129 H 0.67376 0.67416 0.33316
 H130 H 0.65844 0.66014 0.34699
 N131 N 0.63513 0.18627 -0.17234
 N132 N 0.63539 0.17390 -0.18475
 C133 C 0.62187 0.17697 -0.19619
 C134 C 0.61262 0.19205 -0.19063
 C135 C 0.62146 0.19759 -0.17543
 H136 H 0.61910 0.16899 -0.20784
 H137 H 0.61827 0.20902 -0.16722
 Cu138 Cu 0.65348 0.15513 -0.18483
 Cu139 Cu 0.65279 0.18713 -0.15339
 Cu140 Cu 0.68448 0.15327 -0.15249
 N141 N 0.67122 0.13604 -0.18398
 N142 N 0.68322 0.13539 -0.17124
 C143 C 0.69383 0.12106 -0.17372
 C144 C 0.68823 0.11211 -0.18889
 C145 C 0.67375 0.12205 -0.19499
 H146 H 0.70482 0.11757 -0.16506
 H147 H 0.66555 0.11922 -0.20647
 N148 N 0.68362 0.17263 -0.13474
 N149 N 0.67174 0.18569 -0.13526
 C150 C 0.67538 0.19744 -0.12219
 C151 C 0.69025 0.19150 -0.11293
 C152 C 0.69507 0.17568 -0.12126
 H153 H 0.66806 0.20969 -0.11991
 H154 H 0.70636 0.16724 -0.11807
 H155 H 0.67300 0.17386 -0.16680
 H156 H 0.65760 0.15986 -0.15302
 N157 N 0.13519 0.68724 -0.17234
 N158 N 0.13529 0.67453 -0.18438
 C159 C 0.12127 0.67691 -0.19540
 C160 C 0.11183 0.69189 -0.18992
 C161 C 0.12109 0.69808 -0.17521
 H162 H 0.11807 0.66821 -0.20640
 H163 H 0.11758 0.70936 -0.16692
 Cu164 Cu 0.15337 0.65579 -0.18415
 Cu165 Cu 0.15289 0.68839 -0.15338
 Cu166 Cu 0.18520 0.65500 -0.15261
 N167 N 0.17160 0.63719 -0.18365
 N168 N 0.18411 0.63704 -0.17141
 C169 C 0.19491 0.62286 -0.17407
 C170 C 0.18884 0.61355 -0.18882
 C171 C 0.17399 0.62306 -0.19453
 H172 H 0.20624 0.61952 -0.16578
 H173 H 0.16540 0.61977 -0.20559
 N174 N 0.18403 0.67435 -0.13479
 N175 N 0.17191 0.68720 -0.13525
 C176 C 0.17437 0.69807 -0.12118
 C177 C 0.18869 0.69176 -0.11130
 C178 C 0.19444 0.67667 -0.12036
 H179 H 0.16602 0.70947 -0.11810
 H180 H 0.20514 0.66777 -0.11647
 H181 H 0.17310 0.67528 -0.16695
 H182 H 0.15833 0.66135 -0.15253
 N183 N 0.13539 0.18567 0.32689
 N184 N 0.13607 0.17343 0.31438
 C185 C 0.12288 0.17655 0.30255
 C186 C 0.11334 0.19150 0.30799
 C187 C 0.12171 0.19689 0.32354
 H188 H 0.12062 0.16880 0.29065
 H189 H 0.11839 0.20834 0.33164
 Cu190 Cu 0.15455 0.15503 0.31456
 Cu191 Cu 0.15289 0.18686 0.34606
 Cu192 Cu 0.18605 0.15439 0.34644
 N193 N 0.17282 0.13644 0.31533
 N194 N 0.18535 0.13655 0.32758
 C195 C 0.19605 0.12223 0.32529
 C196 C 0.18990 0.11251 0.31086
 C197 C 0.17508 0.12195 0.30491
 H198 H 0.20717 0.11892 0.33386
 H199 H 0.16635 0.11831 0.29407
 N200 N 0.18443 0.17350 0.36443
 N201 N 0.17181 0.18586 0.36431
 C202 C 0.17404 0.19662 0.37851
 C203 C 0.18873 0.19072 0.38811
 C204 C 0.19492 0.17600 0.37876
 H205 H 0.16535 0.20770 0.38180
 H206 H 0.20602 0.16747 0.38234
 H207 H 0.17346 0.17461 0.33239
 H208 H 0.15895 0.15986 0.34634
 N209 N 0.63448 0.31645 0.67108
 N210 N 0.63500 0.32860 0.68370
 C211 C 0.62112 0.32599 0.69485
 C212 C 0.61137 0.31140 0.68893
 C213 C 0.62027 0.30574 0.67378
 H214 H 0.61832 0.33410 0.70642
 H215 H 0.61659 0.29474 0.66522
 Cu216 Cu 0.65376 0.34666 0.68418
 Cu217 Cu 0.65235 0.31522 0.65224
 Cu218 Cu 0.68586 0.34730 0.65280
 N219 N 0.67266 0.36458 0.68438
 N220 N 0.68496 0.36495 0.67186
 C221 C 0.69654 0.37829 0.67529
 C222 C 0.69132 0.38675 0.69087
 C223 C 0.67610 0.37763 0.69625
 H224 H 0.70814 0.38126 0.66724
 H225 H 0.66835 0.38003 0.70816
 N226 N 0.68450 0.32830 0.63466
 N227 N 0.67167 0.31619 0.63437
 C228 C 0.67485 0.30466 0.62098
 C229 C 0.69052 0.30965 0.61245
 C230 C 0.69624 0.32472 0.62152
 H231 H 0.66662 0.29318 0.61800
 H232 H 0.70836 0.33219 0.61908
 H233 H 0.67291 0.32698 0.66647
 H234 H 0.65877 0.34200 0.65243
 N235 N 0.63470 0.81563 1.17214
 N236 N 0.63527 0.82760 1.18493
 C237 C 0.62134 0.82496 1.19600
 C238 C 0.61151 0.81053 1.18985
 C239 C 0.62040 0.80499 1.17465
 H240 H 0.61849 0.83303 1.20758
 H241 H 0.61665 0.79414 1.16594
 Cu242 Cu 0.65376 0.84589 1.18525
 Cu243 Cu 0.65262 0.81457 1.15331
 Cu244 Cu 0.68605 0.84674 1.15417
 N245 N 0.67242 0.86400 1.18560
 N246 N 0.68482 0.86443 1.17317
 C247 C 0.69533 0.87879 1.17578
 C248 C 0.68930 0.88786 1.19070
 C249 C 0.67471 0.87804 1.19656
 H250 H 0.70629 0.88256 1.16718
 H251 H 0.66608 0.88116 1.20767
 N252 N 0.68496 0.82768 1.13606
 N253 N 0.67204 0.81566 1.13555
 C254 C 0.67523 0.80428 1.12203
 C255 C 0.69098 0.80928 1.11365
 C256 C 0.69674 0.82419 1.12293
 H257 H 0.66692 0.79292 1.11884
 H258 H 0.70888 0.83167 1.12059
 H259 H 0.67298 0.82644 1.16755
 H260 H 0.65894 0.84151 1.15351
 N261 N 0.13621 0.31471 1.17261
 N262 N 0.13659 0.32682 1.18526
 C263 C 0.12297 0.32381 1.19662
 C264 C 0.11350 0.30902 1.19075
 C265 C 0.12236 0.30359 1.17549
 H266 H 0.12012 0.33181 1.20824
 H267 H 0.11913 0.29223 1.16721
 Cu268 Cu 0.15510 0.34502 1.18553
 Cu269 Cu 0.15373 0.31414 1.15332
 Cu270 Cu 0.18673 0.34687 1.15398
 N271 N 0.17320 0.36363 1.18575
 N272 N 0.18554 0.36424 1.17330
 C273 C 0.19584 0.37875 1.17585
 C274 C 0.18972 0.38774 1.19077
 C275 C 0.17532 0.37770 1.19673
 H276 H 0.20665 0.38272 1.16715
 H277 H 0.16668 0.38071 1.20785
 N278 N 0.18549 0.32810 1.13560
 N279 N 0.17273 0.31591 1.13514
 C280 C 0.17501 0.30569 1.12057
 C281 C 0.18997 0.31163 1.11143
 C282 C 0.19627 0.32586 1.12140
 H283 H 0.16618 0.29494 1.11672
 H284 H 0.20762 0.33427 1.11835
 H285 H 0.17421 0.32614 1.16716
 H286 H 0.15964 0.34120 1.15367
 N287 N 0.13457 0.81520 0.67274
 N288 N 0.13422 0.82817 0.68452
 C289 C 0.12093 0.82498 0.69624
 C290 C 0.11254 0.80913 0.69157
 C291 C 0.12162 0.80332 0.67658
 H292 H 0.11782 0.83342 0.70749
 H293 H 0.11926 0.79114 0.66923
 Cu294 Cu 0.15175 0.84746 0.68412
 Cu295 Cu 0.15207 0.81431 0.65364
 Cu296 Cu 0.18428 0.84746 0.65293
 N297 N 0.17082 0.86523 0.68404
 N298 N 0.18329 0.86530 0.67172
 C299 C 0.19504 0.87847 0.67518
 C300 C 0.18975 0.88714 0.69060
 C301 C 0.17429 0.87834 0.69584
 H302 H 0.20684 0.88114 0.66730
 H303 H 0.16646 0.88092 0.70765
 N304 N 0.18314 0.82828 0.63506
 N305 N 0.17085 0.81564 0.63532
 C306 C 0.17387 0.80429 0.62173
 C307 C 0.18883 0.81003 0.61247
 C308 C 0.19435 0.82527 0.62134
 H309 H 0.16584 0.79262 0.61890
 H310 H 0.20591 0.83337 0.61825
 H311 H 0.17175 0.82766 0.66769
 H312 H 0.15727 0.84142 0.65267
 N313 N 0.36393 0.68615 0.67191
 N314 N 0.36347 0.67407 0.68462
 C315 C 0.37758 0.67651 0.69547
 C316 C 0.38742 0.69092 0.68924
 C317 C 0.37832 0.69669 0.67426
 H318 H 0.38057 0.66828 0.70692
 H319 H 0.38212 0.70751 0.66548
 Cu320 Cu 0.34503 0.65572 0.68541
 Cu321 Cu 0.34611 0.68706 0.65311
 Cu322 Cu 0.31432 0.65343 0.65265
 N323 N 0.32732 0.63667 0.68452
 N324 N 0.31568 0.63559 0.67148
 C325 C 0.30561 0.62085 0.67376
 C326 C 0.31116 0.61218 0.68911
 C327 C 0.32500 0.62265 0.69556
 H328 H 0.29519 0.61663 0.66475
 H329 H 0.33300 0.62011 0.70727
 N330 N 0.31505 0.67277 0.63479
 N331 N 0.32699 0.68575 0.63515
 C332 C 0.32337 0.69743 0.62198
 C333 C 0.30843 0.69155 0.61281
 C334 C 0.30356 0.67583 0.62133
 H335 H 0.33079 0.70958 0.61953
 H336 H 0.29221 0.66745 0.61826
 H337 H 0.32575 0.67417 0.66671
 H338 H 0.34124 0.65976 0.65343
 N339 N 0.36513 0.18449 1.17095
 N340 N 0.36426 0.17278 1.18398
 C341 C 0.37747 0.17614 1.19569
 C342 C 0.38723 0.19068 1.18965
 C343 C 0.37898 0.19560 1.17387
 H344 H 0.37955 0.16884 1.20793
 H345 H 0.38248 0.20668 1.16531
 Cu346 Cu 0.34560 0.15466 1.18455
 Cu347 Cu 0.34744 0.18535 1.15188
 Cu348 Cu 0.31377 0.15351 1.15309
 N349 N 0.32710 0.13636 1.18463
 N350 N 0.31474 0.13603 1.17222
 C351 C 0.30401 0.12186 1.17492
 C352 C 0.30984 0.11281 1.18990
 C353 C 0.32456 0.12242 1.19573
 H354 H 0.29303 0.11819 1.16633
 H355 H 0.33292 0.11940 1.20706
 N356 N 0.31513 0.17223 1.13473
 N357 N 0.32821 0.18404 1.13393
 C358 C 0.32584 0.19439 1.11944
 C359 C 0.31046 0.18891 1.11073
 C360 C 0.30405 0.17482 1.12085
 H361 H 0.33478 0.20498 1.11539
 H362 H 0.29236 0.16679 1.11815
 H363 H 0.32684 0.17404 1.16628
 H364 H 0.34093 0.15856 1.15271
 N365 N 0.86383 0.68432 1.17183
 N366 N 0.86375 0.67194 1.18427
 C367 C 0.87724 0.67513 1.19568
 C368 C 0.88634 0.69027 1.19007
 C369 C 0.87739 0.69574 1.17488
 H370 H 0.88009 0.66717 1.20736
 H371 H 0.88045 0.70720 1.16664
 Cu372 Cu 0.84591 0.65296 1.18458
 Cu373 Cu 0.84619 0.68491 1.15285
 Cu374 Cu 0.81329 0.65238 1.15362
 N375 N 0.82678 0.63530 1.18512
 N376 N 0.81421 0.63504 1.17291
 C377 C 0.80261 0.62179 1.17661
 C378 C 0.80812 0.61327 1.19205
 C379 C 0.82351 0.62227 1.19707
 H380 H 0.79089 0.61881 1.16877
 H381 H 0.83151 0.61976 1.20878
 N382 N 0.81455 0.67105 1.13516
 N383 N 0.82719 0.68334 1.13478
 C384 C 0.82476 0.69380 1.12038
 C385 C 0.80977 0.68792 1.11129
 C386 C 0.80367 0.67344 1.12108
 H387 H 0.83343 0.70473 1.11666
 H388 H 0.79232 0.66505 1.11803
 H389 H 0.82624 0.67249 1.16746
 H390 H 0.84038 0.65791 1.15293
 N391 N 0.86416 0.18468 0.67196
 N392 N 0.86415 0.17217 0.68426
 C393 C 0.87764 0.17529 0.69570
 C394 C 0.88668 0.19052 0.69021
 C395 C 0.87769 0.19611 0.67509
 H396 H 0.88053 0.16722 0.70728
 H397 H 0.88069 0.20766 0.66695
 Cu398 Cu 0.84645 0.15311 0.68431
 Cu399 Cu 0.84646 0.18543 0.65304
 Cu400 Cu 0.81431 0.15213 0.65291
 N401 N 0.82762 0.13515 0.68451
 N402 N 0.81535 0.13464 0.67203
 C403 C 0.80377 0.12136 0.67562
 C404 C 0.80896 0.11310 0.69129
 C405 C 0.82418 0.12224 0.69656
 H406 H 0.79215 0.11832 0.66764
 H407 H 0.83185 0.12001 0.70853
 N408 N 0.81539 0.17108 0.63476
 N409 N 0.82748 0.18392 0.63497
 C410 C 0.82416 0.19532 0.62150
 C411 C 0.80927 0.18939 0.61232
 C412 C 0.80407 0.17396 0.62111
 H413 H 0.83175 0.20733 0.61883
 H414 H 0.79273 0.16559 0.61799
 H415 H 0.82653 0.17237 0.66719
 H416 H 0.84124 0.15833 0.65269
 N417 N 0.31376 0.36517 0.67224
 N418 N 0.32596 0.36468 0.68481
 C419 C 0.32344 0.37865 0.69585
 C420 C 0.30880 0.38838 0.68990
 C421 C 0.30304 0.37938 0.67488
 H422 H 0.33173 0.38163 0.70723
 H423 H 0.29211 0.38313 0.66624
 Cu424 Cu 0.34436 0.34628 0.68468
 Cu425 Cu 0.31291 0.34764 0.65310
 Cu426 Cu 0.34621 0.31515 0.65267
 N427 N 0.36313 0.32826 0.68450
 N428 N 0.36392 0.31627 0.67175
 C429 C 0.37854 0.30601 0.67414
 C430 C 0.38744 0.31184 0.68923
 C431 C 0.37724 0.32603 0.69543
 H432 H 0.38257 0.29536 0.66530
 H433 H 0.38007 0.33436 0.70681
 N434 N 0.32698 0.31640 0.63466
 N435 N 0.31433 0.32874 0.63490
 C436 C 0.30327 0.32610 0.62103
 C437 C 0.30919 0.31139 0.61153
 C438 C 0.32428 0.30559 0.62059
 H439 H 0.29180 0.33436 0.61803
 H440 H 0.33270 0.29435 0.61720
 H441 H 0.32560 0.32706 0.66648
 H442 H 0.34010 0.34210 0.65286
 N443 N 0.31440 0.86528 0.17219
 N444 N 0.32628 0.86435 0.18502
 C445 C 0.32402 0.87839 0.19602
 C446 C 0.30997 0.88873 0.18974
 C447 C 0.30423 0.87997 0.17455
 H448 H 0.33228 0.88108 0.20749
 H449 H 0.29372 0.88416 0.16561
 Cu450 Cu 0.34416 0.84543 0.18567
 Cu451 Cu 0.31339 0.84775 0.15307
 Cu452 Cu 0.34569 0.81446 0.15317
 N453 N 0.36247 0.82692 0.18520
 N454 N 0.36295 0.81481 0.17256
 C455 C 0.37675 0.80361 0.17556
 C456 C 0.38548 0.80903 0.19088
 C457 C 0.37600 0.82389 0.19663
 H458 H 0.38006 0.79226 0.16730
 H459 H 0.37877 0.83192 0.20825
 N460 N 0.32707 0.81634 0.13471
 N461 N 0.31457 0.82884 0.13486
 C462 C 0.30390 0.82660 0.12061
 C463 C 0.31003 0.81209 0.11095
 C464 C 0.32475 0.80591 0.12029
 H465 H 0.29272 0.83515 0.11722
 H466 H 0.33314 0.79465 0.11681
 H467 H 0.32519 0.82687 0.16684
 H468 H 0.34043 0.84164 0.15367
 N469 N 0.81447 0.36482 0.17192
 N470 N 0.82679 0.36432 0.18434
 C471 C 0.82436 0.37827 0.19544
 C472 C 0.80978 0.38809 0.18955
 C473 C 0.80387 0.37914 0.17456
 H474 H 0.83272 0.38113 0.20683
 H475 H 0.79293 0.38296 0.16595
 Cu476 Cu 0.84514 0.34583 0.18436
 Cu477 Cu 0.81329 0.34723 0.15294
 Cu478 Cu 0.84622 0.31453 0.15229
 N479 N 0.86371 0.32756 0.18373
 N480 N 0.86413 0.31547 0.17107
 C481 C 0.87850 0.30486 0.17345
 C482 C 0.88754 0.31052 0.18849
 C483 C 0.87773 0.32497 0.19469
 H484 H 0.88224 0.29402 0.16467
 H485 H 0.88061 0.33309 0.20624
 N486 N 0.82688 0.31586 0.13447
 N487 N 0.81432 0.32828 0.13477
 C488 C 0.80311 0.32564 0.12102
 C489 C 0.80884 0.31081 0.11156
 C490 C 0.82399 0.30499 0.12048
 H491 H 0.79167 0.33399 0.11806
 H492 H 0.83233 0.29370 0.11706
 H493 H 0.82598 0.32673 0.16637
 H494 H 0.84038 0.34152 0.15251
 N495 N 0.81403 0.86544 0.67244
 N496 N 0.82659 0.86523 0.68465
 C497 C 0.82413 0.87922 0.69568
 C498 C 0.80924 0.88873 0.69004
 C499 C 0.80321 0.87956 0.67523
 H500 H 0.83269 0.88237 0.70681
 H501 H 0.79199 0.88309 0.66687
 Cu502 Cu 0.84527 0.84709 0.68438
 Cu503 Cu 0.81284 0.84769 0.65356
 Cu504 Cu 0.84591 0.81508 0.65301
 N505 N 0.86362 0.82863 0.68415
 N506 N 0.86395 0.81630 0.67170
 C507 C 0.87840 0.80578 0.67410
 C508 C 0.88760 0.81181 0.68890
 C509 C 0.87779 0.82630 0.69495
 H510 H 0.88202 0.79467 0.66562
 H511 H 0.88110 0.83483 0.70607
 N512 N 0.82645 0.81618 0.63531
 N513 N 0.81388 0.82859 0.63556
 C514 C 0.80270 0.82590 0.62179
 C515 C 0.80849 0.81109 0.61235
 C516 C 0.82360 0.80528 0.62134
 H517 H 0.79128 0.83424 0.61876
 H518 H 0.83198 0.79401 0.61795
 H519 H 0.82582 0.82746 0.66728
 H520 H 0.83995 0.84201 0.65280
 N521 N 0.68560 0.63530 0.67263
 N522 N 0.67328 0.63558 0.68512
 C523 C 0.67638 0.62206 0.69659
 C524 C 0.69142 0.61278 0.69096
 C525 C 0.69691 0.62161 0.67570
 H526 H 0.66844 0.61930 0.70830
 H527 H 0.70828 0.61838 0.66741
 Cu528 Cu 0.65464 0.65382 0.68523
 Cu529 Cu 0.68629 0.65284 0.65344
 Cu530 Cu 0.65247 0.68464 0.65273
 N531 N 0.63581 0.67187 0.68483
 N532 N 0.63486 0.68362 0.67184
 C533 C 0.62116 0.69488 0.67497
 C534 C 0.61306 0.69005 0.69086
 C535 C 0.62275 0.67535 0.69673
 H536 H 0.61774 0.70609 0.66654
 H537 H 0.62078 0.66809 0.70901
 N538 N 0.67160 0.68355 0.63467
 N539 N 0.68465 0.67165 0.63511
 C540 C 0.69609 0.67500 0.62165
 C541 C 0.68997 0.68972 0.61224
 C542 C 0.67438 0.69475 0.62089
 H543 H 0.70812 0.66742 0.61907
 H544 H 0.66587 0.70598 0.61764
 H545 H 0.67324 0.67324 0.66685
 H546 H 0.65910 0.65781 0.65335
 N547 N 0.68746 0.13516 0.17202
 N548 N 0.67430 0.13467 0.18361
 C549 C 0.67631 0.12013 0.19404
 C550 C 0.69162 0.11106 0.18877
 C551 C 0.69834 0.12106 0.17475
 H552 H 0.66707 0.11620 0.20439
 H553 H 0.70995 0.11806 0.16670
 Cu554 Cu 0.65557 0.15282 0.18354
 Cu555 Cu 0.68867 0.15300 0.15316
 Cu556 Cu 0.65478 0.18470 0.15195
 N557 N 0.63703 0.17117 0.18312
 N558 N 0.63676 0.18351 0.17065
 C559 C 0.62291 0.19466 0.17359
 C560 C 0.61398 0.18906 0.18876
 C561 C 0.62335 0.17409 0.19445
 H562 H 0.61974 0.20611 0.16537
 H563 H 0.62063 0.16618 0.20618
 N564 N 0.67426 0.18376 0.13427
 N565 N 0.68743 0.17202 0.13502
 C566 C 0.69838 0.17459 0.12099
 C567 C 0.69176 0.18859 0.11085
 C568 C 0.67644 0.19405 0.11972
 H569 H 0.70999 0.16647 0.11809
 H570 H 0.66727 0.20445 0.11560
 H571 H 0.67494 0.17285 0.16658
 H572 H 0.66149 0.15780 0.15198
 N573 N 0.18504 0.63493 0.17151
 N574 N 0.17258 0.63521 0.18387
 C575 C 0.17511 0.62126 0.19496
 C576 C 0.18996 0.61173 0.18928
 C577 C 0.19587 0.62081 0.17431
 H578 H 0.16670 0.61823 0.20627
 H579 H 0.20708 0.61728 0.16593
 Cu580 Cu 0.15410 0.65357 0.18392
 Cu581 Cu 0.18624 0.65283 0.15266
 Cu582 Cu 0.15291 0.68519 0.15216
 N583 N 0.13569 0.67200 0.18380
 N584 N 0.13505 0.68405 0.17107
 C585 C 0.12141 0.69537 0.17428
 C586 C 0.11304 0.69024 0.18994
 C587 C 0.12250 0.67533 0.19559
 H588 H 0.11823 0.70682 0.16607
 H589 H 0.12026 0.66777 0.20764
 N590 N 0.17223 0.68417 0.13429
 N591 N 0.18510 0.67205 0.13468
 C592 C 0.19683 0.67557 0.12151
 C593 C 0.19109 0.69062 0.11239
 C594 C 0.17542 0.69566 0.12083
 H595 H 0.20879 0.66787 0.11886
 H596 H 0.16726 0.70720 0.11778
 H597 H 0.17329 0.67308 0.16624
 H598 H 0.15915 0.65822 0.15217
 N599 N 0.18571 0.13503 0.67172
 N600 N 0.17328 0.13523 0.68411
 C601 C 0.17636 0.12174 0.69561
 C602 C 0.19152 0.11255 0.69013
 C603 C 0.19709 0.12142 0.67491
 H604 H 0.16835 0.11897 0.70726
 H605 H 0.20861 0.11830 0.66676
 Cu606 Cu 0.15446 0.15330 0.68409
 Cu607 Cu 0.18643 0.15262 0.65257
 Cu608 Cu 0.15261 0.18443 0.65186
 N609 N 0.13577 0.17151 0.68378
 N610 N 0.13492 0.18339 0.67090
 C611 C 0.12128 0.19470 0.67411
 C612 C 0.11311 0.18975 0.68994
 C613 C 0.12271 0.17494 0.69568
 H614 H 0.11798 0.20605 0.66581
 H615 H 0.12070 0.16758 0.70789
 N616 N 0.17178 0.18339 0.63384
 N617 N 0.18483 0.17148 0.63427
 C618 C 0.19628 0.17486 0.62081
 C619 C 0.19018 0.18963 0.61144
 C620 C 0.17458 0.19462 0.62009
 H621 H 0.20830 0.16728 0.61821
 H622 H 0.16606 0.20584 0.61685
 H623 H 0.17330 0.17289 0.66609
 H624 H 0.15929 0.15759 0.65230
 N625 N 0.31447 0.63539 0.32824
 N626 N 0.32678 0.63576 0.31574
 C627 C 0.32376 0.62228 0.30426
 C628 C 0.30877 0.61295 0.30988
 C629 C 0.30325 0.62168 0.32517
 H630 H 0.33167 0.61962 0.29251
 H631 H 0.29185 0.61842 0.33342
 Cu632 Cu 0.34519 0.65415 0.31552
 Cu633 Cu 0.31351 0.65299 0.34728
 Cu634 Cu 0.34670 0.68536 0.34760
 N635 N 0.36379 0.67236 0.31584
 N636 N 0.36447 0.68431 0.32862
 C637 C 0.37810 0.69562 0.32543
 C638 C 0.38641 0.69060 0.30972
 C639 C 0.37693 0.67574 0.30401
 H640 H 0.38132 0.70698 0.33371
 H641 H 0.37911 0.66831 0.29189
 N642 N 0.32749 0.68422 0.36558
 N643 N 0.31483 0.67193 0.36542
 C644 C 0.30341 0.67506 0.37894
 C645 C 0.30911 0.69008 0.38807
 C646 C 0.32442 0.69552 0.37919
 H647 H 0.29170 0.66710 0.38180
 H648 H 0.33248 0.70713 0.38217
 H649 H 0.32616 0.67342 0.33362
 H650 H 0.34058 0.65840 0.34736
 N651 N 0.31381 0.13606 0.82748
 N652 N 0.32571 0.13661 0.81460
 C653 C 0.32263 0.12298 0.80331
 C654 C 0.30802 0.11336 0.80941
 C655 C 0.30277 0.12209 0.82481
 H656 H 0.33030 0.12038 0.79140
 H657 H 0.29173 0.11860 0.83344
 Cu658 Cu 0.34407 0.15508 0.81371
 Cu659 Cu 0.31332 0.15366 0.84653
 Cu660 Cu 0.34663 0.18576 0.84649
 N661 N 0.36309 0.17288 0.81440
 N662 N 0.36413 0.18463 0.82734
 C663 C 0.37880 0.19477 0.82496
 C664 C 0.38747 0.18917 0.80964
 C665 C 0.37708 0.17520 0.80331
 H666 H 0.38302 0.20522 0.83394
 H667 H 0.37968 0.16710 0.79170
 N668 N 0.32769 0.18477 0.86473
 N669 N 0.31497 0.17255 0.86470
 C670 C 0.30416 0.17529 0.87879
 C671 C 0.31037 0.18994 0.88819
 C672 C 0.32533 0.19559 0.87887
 H673 H 0.29266 0.16716 0.88198
 H674 H 0.33401 0.20661 0.88229
 H675 H 0.32576 0.17416 0.83276
 H676 H 0.34059 0.15878 0.84574
 N677 N 0.81484 0.63556 0.82860
 N678 N 0.82704 0.63588 0.81601
 C679 C 0.82458 0.62174 0.80520
 C680 C 0.81002 0.61204 0.81131
 C681 C 0.80421 0.62123 0.82623
 H682 H 0.83285 0.61868 0.79379
 H683 H 0.79324 0.61763 0.83490
 Cu684 Cu 0.84523 0.65448 0.81512
 Cu685 Cu 0.81368 0.65367 0.84716
 Cu686 Cu 0.84660 0.68622 0.84691
 N687 N 0.86394 0.67258 0.81562
 N688 N 0.86454 0.68478 0.82818
 C689 C 0.87905 0.69514 0.82568
 C690 C 0.88804 0.68915 0.81072
 C691 C 0.87804 0.67481 0.80467
 H692 H 0.88282 0.70618 0.83417
 H693 H 0.88111 0.66637 0.79340
 N694 N 0.82730 0.68549 0.86476
 N695 N 0.81473 0.67311 0.86482
 C696 C 0.80337 0.67635 0.87835
 C697 C 0.80905 0.69149 0.88731
 C698 C 0.82427 0.69692 0.87829
 H699 H 0.79165 0.66844 0.88133
 H700 H 0.83253 0.70838 0.88130
 H701 H 0.82616 0.67390 0.83308
 H702 H 0.84083 0.65916 0.84692
 N703 N 0.81457 0.13540 0.32892
 N704 N 0.82700 0.13548 0.31654
 C705 C 0.82399 0.12186 0.30522
 C706 C 0.80890 0.11267 0.31084
 C707 C 0.80327 0.12171 0.32593
 H708 H 0.83201 0.11898 0.29361
 H709 H 0.79179 0.11864 0.33413
 Cu710 Cu 0.84583 0.15347 0.31624
 Cu711 Cu 0.81375 0.15326 0.34775
 Cu712 Cu 0.84611 0.18638 0.34678
 N713 N 0.86372 0.17241 0.31578
 N714 N 0.86371 0.18522 0.32773
 C715 C 0.87768 0.19615 0.32474
 C716 C 0.88701 0.18993 0.31007
 C717 C 0.87772 0.17482 0.30471
 H718 H 0.88106 0.20752 0.33293
 H719 H 0.88103 0.16608 0.29376
 N720 N 0.82725 0.18531 0.36505
 N721 N 0.81511 0.17251 0.36562
 C722 C 0.80474 0.17494 0.38007
 C723 C 0.81053 0.19006 0.38902
 C724 C 0.82485 0.19626 0.37907
 H725 H 0.79398 0.16613 0.38399
 H726 H 0.83320 0.20766 0.38202
 H727 H 0.82607 0.17317 0.33307
 H728 H 0.84071 0.15930 0.34778
 N729 N 0.68375 0.36391 0.32787
 N730 N 0.67143 0.36361 0.31540
 C731 C 0.67381 0.37779 0.30457
 C732 C 0.68840 0.38750 0.31057
 C733 C 0.69430 0.37827 0.32543
 H734 H 0.66554 0.38081 0.29317
 H735 H 0.70535 0.38184 0.33398
 Cu736 Cu 0.65339 0.34482 0.31478
 Cu737 Cu 0.68532 0.34568 0.34629
 Cu738 Cu 0.65327 0.31225 0.34574
 N739 N 0.63500 0.32636 0.31518
 N740 N 0.63526 0.31350 0.32713
 C741 C 0.62107 0.30274 0.32462
 C742 C 0.61126 0.30918 0.31036
 C743 C 0.62052 0.32424 0.30473
 H744 H 0.61794 0.29132 0.33288
 H745 H 0.61681 0.33320 0.29407
 N746 N 0.67253 0.31329 0.36356
 N747 N 0.68472 0.32604 0.36379
 C748 C 0.69596 0.32308 0.37747
 C749 C 0.69056 0.30777 0.38636
 C750 C 0.67566 0.30193 0.37713
 H751 H 0.70735 0.33136 0.38064
 H752 H 0.66762 0.29029 0.38009
 H753 H 0.67326 0.32545 0.33193
 H754 H 0.65839 0.33937 0.34635
 N755 N 0.68492 0.86467 0.82861
 N756 N 0.67238 0.86472 0.81637
 C757 C 0.67543 0.87831 0.80499
 C758 C 0.69068 0.88731 0.81041
 C759 C 0.69632 0.87824 0.82547
 H760 H 0.66734 0.88126 0.79346
 H761 H 0.70794 0.88116 0.83350
 Cu762 Cu 0.65354 0.84679 0.81620
 Cu763 Cu 0.68583 0.84674 0.84738
 Cu764 Cu 0.65304 0.81403 0.84697
 N765 N 0.63548 0.82806 0.81593
 N766 N 0.63549 0.81523 0.82791
 C767 C 0.62204 0.80383 0.82443
 C768 C 0.61302 0.80981 0.80947
 C769 C 0.62194 0.82525 0.80444
 H770 H 0.61923 0.79188 0.83204
 H771 H 0.61886 0.83376 0.79322
 N772 N 0.67196 0.81509 0.86518
 N773 N 0.68451 0.82749 0.86525
 C774 C 0.69564 0.82441 0.87898
 C775 C 0.68981 0.80939 0.88808
 C776 C 0.67475 0.80384 0.87892
 H777 H 0.70731 0.83236 0.88199
 H778 H 0.66646 0.79240 0.88196
 H779 H 0.67312 0.82689 0.83302
 H780 H 0.65877 0.84105 0.84773
 N781 N 0.18439 0.36514 0.82788
 N782 N 0.17205 0.36495 0.81543
 C783 C 0.17458 0.37904 0.80453
 C784 C 0.18932 0.38857 0.81043
 C785 C 0.19518 0.37932 0.82530
 H786 H 0.16629 0.38211 0.79318
 H787 H 0.20624 0.38286 0.83384
 Cu788 Cu 0.15383 0.34639 0.81515
 Cu789 Cu 0.18561 0.34706 0.84657
 Cu790 Cu 0.15315 0.31390 0.84591
 N791 N 0.13567 0.32777 0.81469
 N792 N 0.13558 0.31509 0.82682
 C793 C 0.12209 0.30371 0.82345
 C794 C 0.11306 0.30962 0.80847
 C795 C 0.12209 0.32494 0.80325
 H796 H 0.11913 0.29191 0.83124
 H797 H 0.11911 0.33331 0.79192
 N798 N 0.17211 0.31502 0.86409
 N799 N 0.18454 0.32756 0.86426
 C800 C 0.19572 0.32445 0.87795
 C801 C 0.19004 0.30929 0.88692
 C802 C 0.17504 0.30366 0.87772
 H803 H 0.20732 0.33249 0.88101
 H804 H 0.16688 0.29210 0.88065
 H805 H 0.17338 0.32687 0.83240
 H806 H 0.15868 0.34093 0.84674
 N807 N 0.18428 0.86441 0.32790
 N808 N 0.17157 0.86449 0.31584
 C809 C 0.17405 0.87852 0.30485
 C810 C 0.18915 0.88773 0.31030
 C811 C 0.19528 0.87835 0.32499
 H812 H 0.16535 0.88199 0.29391
 H813 H 0.20682 0.88145 0.33307
 Cu814 Cu 0.15292 0.84636 0.31583
 Cu815 Cu 0.18543 0.84655 0.34674
 Cu816 Cu 0.15241 0.81403 0.34700
 N817 N 0.13489 0.82762 0.31574
 N818 N 0.13473 0.81508 0.32801
 C819 C 0.12124 0.80367 0.32466
 C820 C 0.11240 0.80934 0.30948
 C821 C 0.12148 0.82460 0.30417
 H822 H 0.11834 0.79187 0.33247
 H823 H 0.11861 0.83283 0.29269
 N824 N 0.17154 0.81519 0.36503
 N825 N 0.18430 0.82737 0.36473
 C826 C 0.19588 0.82400 0.37804
 C827 C 0.19015 0.80901 0.38725
 C828 C 0.17463 0.80381 0.37860
 H829 H 0.20785 0.83166 0.38058
 H830 H 0.16641 0.79234 0.38167
 H831 H 0.17249 0.82657 0.33281
 H832 H 0.15833 0.84106 0.34738
 C833 C 0.24252 1.00026 0.25618
 C834 C 0.25553 1.00054 0.24346
 C835 C 0.26291 1.01755 0.23629
 C836 C 0.26327 0.98388 0.23585
 C837 C 0.23512 0.98325 0.26337
 C838 C 0.23499 1.01696 0.26393
 C839 C 0.25178 1.03074 0.22893
 C840 C 0.25912 1.04641 0.22184
 C841 C 0.27779 1.04912 0.22165
 C842 C 0.28884 1.03557 0.22869
 C843 C 0.28149 1.02007 0.23600
 C844 C 0.26326 0.98153 0.21735
 C845 C 0.27123 0.96649 0.20973
 C846 C 0.27946 0.95343 0.22044
 C847 C 0.27934 0.95573 0.23904
 C848 C 0.27144 0.97090 0.24666
 C849 C 0.23443 0.98073 0.28182
 C850 C 0.22715 0.96516 0.28902
 C851 C 0.22054 0.95148 0.27795
 C852 C 0.22103 0.95420 0.25939
 C853 C 0.22809 0.96997 0.25220
 C854 C 0.24595 1.02963 0.27236
 C855 C 0.23841 1.04481 0.28028
 C856 C 0.21975 1.04749 0.28014
 C857 C 0.20888 1.03478 0.27162
 C858 C 0.21642 1.01968 0.26365
 H859 H 0.23742 1.02885 0.22855
 H860 H 0.24999 1.05624 0.21660
 H861 H 0.30327 1.03664 0.22820
 H862 H 0.29036 1.00991 0.24131
 H863 H 0.25716 0.99147 0.20876
 H864 H 0.27126 0.96530 0.19538
 H865 H 0.27184 0.97259 0.26096
 H866 H 0.23947 0.99093 0.29073
 H867 H 0.22638 0.96413 0.30335
 H868 H 0.21609 0.94428 0.25026
 H869 H 0.22802 0.97183 0.23791
 H870 H 0.26029 1.02765 0.27295
 H871 H 0.24722 1.05445 0.28648
 H872 H 0.19446 1.03628 0.27143
 H873 H 0.20772 1.01000 0.25734
 H874 H 0.28531 0.94583 0.24772
 C875 C 0.24304 0.50135 0.75674
 C876 C 0.25569 0.50124 0.74362
 C877 C 0.26327 0.51797 0.73599
 C878 C 0.26286 0.48429 0.73605
 C879 C 0.23576 0.48449 0.76444
 C880 C 0.23557 0.51828 0.76411
 C881 C 0.26308 0.52039 0.71749
 C882 C 0.27114 0.53534 0.70980
 C883 C 0.27965 0.54825 0.72042
 C884 C 0.27962 0.54593 0.73902
 C885 C 0.27161 0.53086 0.74673
 C886 C 0.25154 0.47124 0.72882
 C887 C 0.25866 0.45548 0.72167
 C888 C 0.27730 0.45256 0.72128
 C889 C 0.28854 0.46604 0.72807
 C890 C 0.28141 0.48161 0.73544
 C891 C 0.24700 0.47134 0.77174
 C892 C 0.23980 0.45559 0.77883
 C893 C 0.22115 0.45272 0.77908
 C894 C 0.20998 0.46629 0.77221
 C895 C 0.21720 0.48188 0.76492
 C896 C 0.23495 0.52065 0.78258
 C897 C 0.22737 0.53604 0.78991
 C898 C 0.22042 0.54971 0.77896
 C899 C 0.22090 0.54713 0.76038
 C900 C 0.22823 0.53154 0.75307
 H901 H 0.25683 0.51054 0.70896
 H902 H 0.27107 0.53655 0.69544
 H903 H 0.28577 0.55573 0.74764
 H904 H 0.27215 0.52912 0.76102
 H905 H 0.23718 0.47324 0.72871
 H906 H 0.24939 0.44573 0.71660
 H907 H 0.29043 0.49167 0.74064
 H908 H 0.26136 0.47324 0.77190
 H909 H 0.24901 0.44576 0.78394
 H910 H 0.19557 0.46513 0.77273
 H911 H 0.20825 0.49197 0.75962
 H912 H 0.24023 0.51046 0.79141
 H913 H 0.22664 0.53692 0.80425
 H914 H 0.21572 0.55702 0.75130
 H915 H 0.22808 0.52979 0.73877
 H916 H 0.30295 0.46485 0.72741
 C917 C 0.74408 -0.00075 0.24444
 C918 C 0.75698 -0.00092 0.25725
 C919 C 0.76459 -0.01799 0.26408
 C920 C 0.76421 0.01582 0.26518
 C921 C 0.73662 0.01610 0.23697
 C922 C 0.73661 -0.01752 0.23687
 C923 C 0.76391 -0.02168 0.28236
 C924 C 0.77057 -0.03782 0.28901
 C925 C 0.77812 -0.05060 0.27750
 C926 C 0.77927 -0.04662 0.25923
 C927 C 0.77263 -0.03044 0.25259
 C928 C 0.75292 0.02899 0.27234
 C929 C 0.76007 0.04467 0.27956
 C930 C 0.77876 0.04738 0.28032
 C931 C 0.78995 0.03389 0.27336
 C932 C 0.78277 0.01837 0.26594
 C933 C 0.74766 0.02900 0.22898
 C934 C 0.74016 0.04415 0.22094
 C935 C 0.72146 0.04654 0.22052
 C936 C 0.71052 0.03363 0.22871
 C937 C 0.71802 0.01859 0.23680
 C938 C 0.73712 -0.02014 0.21841
 C939 C 0.72922 -0.03520 0.21082
 C940 C 0.72051 -0.04797 0.22152
 C941 C 0.72019 -0.04542 0.24008
 C942 C 0.72810 -0.03028 0.24768
 H943 H 0.75800 -0.01212 0.29146
 H944 H 0.76989 -0.04023 0.30319
 H945 H 0.78504 -0.05617 0.25002
 H946 H 0.77362 -0.02767 0.23848
 H947 H 0.73854 0.02720 0.27224
 H948 H 0.75082 0.05477 0.28422
 H949 H 0.79177 0.00832 0.26063
 H950 H 0.76205 0.02720 0.22872
 H951 H 0.74902 0.05395 0.21501
 H952 H 0.69608 0.03490 0.22847
 H953 H 0.70925 0.00871 0.24276
 H954 H 0.74352 -0.01039 0.20985
 H955 H 0.72956 -0.03662 0.19650
 H956 H 0.71383 -0.05510 0.24873
 H957 H 0.72736 -0.02838 0.26194
 H958 H 0.80429 0.03501 0.27363
 C959 C 0.74395 0.49912 0.74427
 C960 C 0.75668 0.49947 0.75728
 C961 C 0.76438 0.48281 0.76494
 C962 C 0.76386 0.51650 0.76465
 C963 C 0.73661 0.51578 0.73620
 C964 C 0.73659 0.48198 0.73739
 C965 C 0.76380 0.48017 0.78340
 C966 C 0.77194 0.46524 0.79109
 C967 C 0.78097 0.45263 0.78049
 C968 C 0.78139 0.45520 0.76193
 C969 C 0.77323 0.47019 0.75423
 C970 C 0.75256 0.52970 0.77174
 C971 C 0.75972 0.54539 0.77897
 C972 C 0.77839 0.54813 0.77956
 C973 C 0.78959 0.53454 0.77281
 C974 C 0.78242 0.51904 0.76539
 C975 C 0.74783 0.52892 0.72891
 C976 C 0.74060 0.54465 0.72181
 C977 C 0.72190 0.54742 0.72127
 C978 C 0.71079 0.53393 0.72830
 C979 C 0.71805 0.51835 0.73563
 C980 C 0.73692 0.47859 0.71904
 C981 C 0.73022 0.46255 0.71228
 C982 C 0.72298 0.44953 0.72373
 C983 C 0.72221 0.45316 0.74208
 C984 C 0.72887 0.46927 0.74884
 H985 H 0.75714 0.48982 0.79189
 H986 H 0.77150 0.46379 0.80542
 H987 H 0.78801 0.44563 0.75335
 H988 H 0.77402 0.47210 0.73997
 H989 H 0.73819 0.52783 0.77176
 H990 H 0.75048 0.55524 0.78399
 H991 H 0.79143 0.50889 0.76028
 H992 H 0.76221 0.52712 0.72891
 H993 H 0.74981 0.55475 0.71709
 H994 H 0.69644 0.53509 0.72820
 H995 H 0.70912 0.50831 0.74105
 H996 H 0.74254 0.48834 0.70995
 H997 H 0.73060 0.46043 0.69804
 H998 H 0.71671 0.44343 0.75126
 H999 H 0.72808 0.47179 0.76300
 H1000 H 0.80400 0.53559 0.77359
 C1001 C 0.24396 0.49950 0.24393
 C1002 C 0.25661 0.49939 0.25699
 C1003 C 0.26419 0.48250 0.26433
 C1004 C 0.26385 0.51621 0.26468
 C1005 C 0.23666 0.51642 0.23636
 C1006 C 0.23646 0.48273 0.23644
 C1007 C 0.26437 0.47994 0.28282
 C1008 C 0.27248 0.46486 0.29022
 C1009 C 0.28066 0.45193 0.27931
 C1010 C 0.28027 0.45440 0.26074
 C1011 C 0.27224 0.46961 0.25333
 C1012 C 0.25257 0.52931 0.27195
 C1013 C 0.25973 0.54507 0.27893
 C1014 C 0.27841 0.54790 0.27937
 C1015 C 0.28958 0.53447 0.27226
 C1016 C 0.28239 0.51888 0.26504
 C1017 C 0.24789 0.52960 0.22913
 C1018 C 0.24066 0.54532 0.22199
 C1019 C 0.22199 0.54813 0.22160
 C1020 C 0.21085 0.53455 0.22844
 C1021 C 0.21809 0.51899 0.23578
 C1022 C 0.23671 0.48019 0.21797
 C1023 C 0.22872 0.46515 0.21045
 C1024 C 0.22024 0.45231 0.22123
 C1025 C 0.22017 0.45478 0.23979
 C1026 C 0.22812 0.46992 0.24732
 H1027 H 0.25839 0.48980 0.29157
 H1028 H 0.27271 0.46355 0.30456
 H1029 H 0.28620 0.44461 0.25191
 H1030 H 0.27256 0.47146 0.23904
 H1031 H 0.23820 0.52741 0.27206
 H1032 H 0.25048 0.55512 0.28367
 H1033 H 0.29135 0.50887 0.25961
 H1034 H 0.26226 0.52771 0.22899
 H1035 H 0.24987 0.55515 0.21688
 H1036 H 0.19643 0.53564 0.22779
 H1037 H 0.20915 0.50885 0.24099
 H1038 H 0.24296 0.48999 0.20934
 H1039 H 0.22885 0.46379 0.19611
 H1040 H 0.21399 0.44504 0.24850
 H1041 H 0.22754 0.47178 0.26160
 H1042 H 0.30392 0.53568 0.27225
 C1043 C 0.74303 1.00103 0.75748
 C1044 C 0.75601 1.00116 0.74470
 C1045 C 0.76369 1.01814 0.73785
 C1046 C 0.76328 0.98442 0.73678
 C1047 C 0.73580 0.98410 0.76502
 C1048 C 0.73522 1.01785 0.76473
 C1049 C 0.76307 1.02177 0.71956
 C1050 C 0.76978 1.03785 0.71288
 C1051 C 0.77733 1.05060 0.72438
 C1052 C 0.77844 1.04667 0.74265
 C1053 C 0.77173 1.03056 0.74933
 C1054 C 0.75199 0.97138 0.72946
 C1055 C 0.75914 0.95571 0.72219
 C1056 C 0.77779 0.95283 0.72173
 C1057 C 0.78900 0.96635 0.72853
 C1058 C 0.78183 0.98184 0.73604
 C1059 C 0.74708 0.97097 0.77227
 C1060 C 0.73991 0.95518 0.77927
 C1061 C 0.72123 0.95235 0.77971
 C1062 C 0.71007 0.96577 0.77259
 C1063 C 0.71726 0.98139 0.76537
 C1064 C 0.73442 1.02030 0.78318
 C1065 C 0.72678 1.03572 0.79035
 C1066 C 0.71990 1.04930 0.77925
 C1067 C 0.72048 1.04662 0.76070
 C1068 C 0.72790 1.03101 0.75354
 H1069 H 0.75712 1.01224 0.71048
 H1070 H 0.76914 1.04025 0.69869
 H1071 H 0.78422 1.05621 0.75182
 H1072 H 0.77261 1.02784 0.76345
 H1073 H 0.73762 0.97332 0.72940
 H1074 H 0.74987 0.94597 0.71709
 H1075 H 0.79083 0.99188 0.74130
 H1076 H 0.76144 0.97288 0.77240
 H1077 H 0.74915 0.94513 0.78405
 H1078 H 0.69574 0.96456 0.77261
 H1079 H 0.70830 0.99141 0.75993
 H1080 H 0.73968 1.01017 0.79208
 H1081 H 0.72599 1.03675 0.80468
 H1082 H 0.71536 1.05647 0.75156
 H1083 H 0.72788 1.02918 0.73925
 H1084 H 0.80341 0.96524 0.72778
 C1085 C 0.74300 0.49996 0.25712
 C1086 C 0.75618 0.50020 0.24452
 C1087 C 0.76387 0.51726 0.23782
 C1088 C 0.76357 0.48355 0.23654
 C1089 C 0.73553 0.48297 0.26434
 C1090 C 0.73528 0.51675 0.26456
 C1091 C 0.76321 0.52107 0.21956
 C1092 C 0.76987 0.53723 0.21301
 C1093 C 0.77744 0.54988 0.22459
 C1094 C 0.77864 0.54577 0.24282
 C1095 C 0.77194 0.52957 0.24938
 C1096 C 0.75242 0.47054 0.22898
 C1097 C 0.75970 0.45497 0.22163
 C1098 C 0.77837 0.45214 0.22132
 C1099 C 0.78945 0.46563 0.22837
 C1100 C 0.78215 0.48103 0.23596
 C1101 C 0.74659 0.46969 0.27164
 C1102 C 0.73921 0.45402 0.27869
 C1103 C 0.72052 0.45135 0.27892
 C1104 C 0.70953 0.46500 0.27194
 C1105 C 0.71694 0.48051 0.26468
 C1106 C 0.73442 0.51899 0.28304
 C1107 C 0.72688 0.53441 0.29036
 C1108 C 0.72020 0.54820 0.27939
 C1109 C 0.72084 0.54569 0.26080
 C1110 C 0.72813 0.53009 0.25350
 H1111 H 0.75724 0.51162 0.21041
 H1112 H 0.76915 0.53978 0.19885
 H1113 H 0.78443 0.55523 0.25206
 H1114 H 0.77287 0.52671 0.26348
 H1115 H 0.73804 0.47242 0.22879
 H1116 H 0.75050 0.44529 0.21630
 H1117 H 0.79107 0.49104 0.24141
 H1118 H 0.76097 0.47149 0.27195
 H1119 H 0.74832 0.44414 0.28386
 H1120 H 0.69510 0.46402 0.27243
 H1121 H 0.70810 0.49072 0.25940
 H1122 H 0.73955 0.50871 0.29185
 H1123 H 0.72600 0.53524 0.30469
 H1124 H 0.71584 0.55564 0.25171
 H1125 H 0.72816 0.52844 0.23919
 H1126 H 0.80387 0.46461 0.22774
 C1127 C 0.24361 -0.00115 0.74398
 C1128 C 0.25628 -0.00082 0.75705
 C1129 C 0.26400 -0.01751 0.76469
 C1130 C 0.26343 0.01620 0.76445
 C1131 C 0.23637 0.01553 0.73583
 C1132 C 0.23618 -0.01827 0.73714
 C1133 C 0.26376 -0.02001 0.78318
 C1134 C 0.27192 -0.03496 0.79082
 C1135 C 0.28062 -0.04775 0.78014
 C1136 C 0.28070 -0.04530 0.76156
 C1137 C 0.27256 -0.03026 0.75392
 C1138 C 0.25210 0.02940 0.77148
 C1139 C 0.25924 0.04517 0.77853
 C1140 C 0.27792 0.04794 0.77919
 C1141 C 0.28913 0.03447 0.77226
 C1142 C 0.28198 0.01885 0.76503
 C1143 C 0.24766 0.02864 0.72859
 C1144 C 0.24052 0.04437 0.72140
 C1145 C 0.22184 0.04720 0.72073
 C1146 C 0.21064 0.03373 0.72771
 C1147 C 0.21781 0.01815 0.73511
 C1148 C 0.23674 -0.02182 0.71883
 C1149 C 0.22995 -0.03785 0.71211
 C1150 C 0.22236 -0.05066 0.72357
 C1151 C 0.22141 -0.04687 0.74189
 C1152 C 0.22820 -0.03081 0.74860
 H1153 H 0.25738 -0.01025 0.79174
 H1154 H 0.27177 -0.03628 0.80516
 H1155 H 0.28704 -0.05499 0.75291
 H1156 H 0.27315 -0.02845 0.73964
 H1157 H 0.23773 0.02753 0.77146
 H1158 H 0.24999 0.05528 0.78319
 H1159 H 0.29100 0.00877 0.75981
 H1160 H 0.26204 0.02679 0.72869
 H1161 H 0.24979 0.05443 0.71672
 H1162 H 0.19630 0.03491 0.72750
 H1163 H 0.20882 0.00814 0.74049
 H1164 H 0.24260 -0.01221 0.70974
 H1165 H 0.23050 -0.04011 0.69790
 H1166 H 0.21563 -0.05645 0.75106
 H1167 H 0.22728 -0.02816 0.76273
 H1168 H 0.30347 0.03564 0.77247
 C1169 C 0.25617 0.24407 1.00004
 C1170 C 0.24291 0.25663 1.00005
 C1171 C 0.23541 0.26418 1.01677
 C1172 C 0.23520 0.26389 0.98329
 C1173 C 0.26386 0.23676 0.98326
 C1174 C 0.26377 0.23666 1.01677
 C1175 C 0.21681 0.26412 1.01933
 C1176 C 0.20925 0.27223 1.03425
 C1177 C 0.22011 0.28065 1.04699
 C1178 C 0.23880 0.28051 1.04452
 C1179 C 0.24637 0.27247 1.02947
 C1180 C 0.22794 0.25267 0.97022
 C1181 C 0.22082 0.25991 0.95459
 C1182 C 0.22028 0.27861 0.95184
 C1183 C 0.22739 0.28971 0.96521
 C1184 C 0.23471 0.28244 0.98068
 C1185 C 0.27108 0.24797 0.97011
 C1186 C 0.27838 0.24072 0.95454
 C1187 C 0.27891 0.22204 0.95189
 C1188 C 0.27211 0.21092 0.96547
 C1189 C 0.26461 0.21818 0.98085
 C1190 C 0.28238 0.23674 1.01918
 C1191 C 0.29002 0.22880 1.03415
 C1192 C 0.27922 0.22053 1.04710
 C1193 C 0.26052 0.22068 1.04480
 C1194 C 0.25288 0.22855 1.02970
 H1195 H 0.20810 0.25794 1.00960
 H1196 H 0.19482 0.27226 1.03558
 H1197 H 0.24761 0.28662 1.05418
 H1198 H 0.26073 0.27295 1.02761
 H1199 H 0.22791 0.23829 0.97206
 H1200 H 0.21606 0.25072 0.94457
 H1201 H 0.24013 0.29137 0.99066
 H1202 H 0.27108 0.26235 0.97189
 H1203 H 0.28346 0.24990 0.94472
 H1204 H 0.27286 0.19650 0.96449
 H1205 H 0.25942 0.20925 0.99098
 H1206 H 0.29103 0.24281 1.00930
 H1207 H 0.30446 0.22874 1.03534
 H1208 H 0.25177 0.21468 1.05461
 H1209 H 0.23850 0.22807 1.02797
 H1210 H 0.22730 0.30405 0.96407
 C1211 C 0.25574 0.74408 0.50039
 C1212 C 0.24279 0.75700 0.49997
 C1213 C 0.23472 0.76444 0.51650
 C1214 C 0.23594 0.76448 0.48294
 C1215 C 0.26319 0.73603 0.48386
 C1216 C 0.26325 0.73727 0.51743
 C1217 C 0.22737 0.75328 0.52961
 C1218 C 0.22014 0.76057 0.54516
 C1219 C 0.21953 0.77928 0.54777
 C1220 C 0.22666 0.79033 0.53432
 C1221 C 0.23412 0.78301 0.51892
 C1222 C 0.21749 0.76424 0.47952
 C1223 C 0.21078 0.77084 0.46347
 C1224 C 0.22238 0.77788 0.45049
 C1225 C 0.24083 0.77860 0.45419
 C1226 C 0.24753 0.77205 0.47029
 C1227 C 0.28177 0.73547 0.48139
 C1228 C 0.28912 0.72807 0.46598
 C1229 C 0.27809 0.72094 0.45255
 C1230 C 0.25937 0.72151 0.45520
 C1231 C 0.25206 0.72869 0.47077
 C1232 C 0.27078 0.74890 0.53000
 C1233 C 0.27735 0.74225 0.54613
 C1234 C 0.27669 0.72380 0.54990
 C1235 C 0.26968 0.71216 0.53700
 C1236 C 0.26306 0.71882 0.52093
 H1237 H 0.22738 0.73889 0.52790
 H1238 H 0.21538 0.75140 0.55523
 H1239 H 0.22653 0.80468 0.53536
 H1240 H 0.23960 0.79189 0.50891
 H1241 H 0.20829 0.75872 0.48922
 H1242 H 0.19646 0.77051 0.46129
 H1243 H 0.26178 0.77271 0.47284
 H1244 H 0.29064 0.74094 0.49139
 H1245 H 0.30346 0.72798 0.46491
 H1246 H 0.25021 0.71677 0.44515
 H1247 H 0.23767 0.72867 0.47250
 H1248 H 0.27143 0.76315 0.52738
 H1249 H 0.28267 0.75158 0.55576
 H1250 H 0.26939 0.69785 0.53923
 H1251 H 0.25758 0.70959 0.51128
 H1252 H 0.25013 0.78396 0.44449
 C1253 C 0.24434 0.74412 0.00009
 C1254 C 0.25623 0.75786 -0.00020
 C1255 C 0.26372 0.76531 -0.01699
 C1256 C 0.26332 0.76535 0.01662
 C1257 C 0.23755 0.73713 0.01729
 C1258 C 0.23639 0.73653 -0.01641
 C1259 C 0.27225 0.75421 -0.02947
 C1260 C 0.28016 0.76153 -0.04473
 C1261 C 0.27989 0.78014 -0.04769
 C1262 C 0.27115 0.79114 -0.03524
 C1263 C 0.26317 0.78382 -0.02013
 C1264 C 0.27767 0.75695 0.02523
 C1265 C 0.28511 0.76450 0.04054
 C1266 C 0.27855 0.78082 0.04735
 C1267 C 0.26372 0.78881 0.03888
 C1268 C 0.25607 0.78103 0.02382
 C1269 C 0.22454 0.74672 0.02674
 C1270 C 0.21801 0.74023 0.04293
 C1271 C 0.22403 0.72374 0.04981
 C1272 C 0.23724 0.71428 0.04027
 C1273 C 0.24416 0.72109 0.02437
 C1274 C 0.22781 0.74762 -0.02888
 C1275 C 0.21983 0.74032 -0.04406
 C1276 C 0.21999 0.72170 -0.04694
 C1277 C 0.22864 0.71068 -0.03444
 C1278 C 0.23675 0.71800 -0.01941
 H1279 H 0.27301 0.73990 -0.02727
 H1280 H 0.28648 0.75259 -0.05415
 H1281 H 0.27079 0.80552 -0.03696
 H1282 H 0.25661 0.79273 -0.01087
 H1283 H 0.28318 0.74462 0.01999
 H1284 H 0.29604 0.75751 0.04693
 H1285 H 0.24468 0.78744 0.01760
 H1286 H 0.21954 0.75932 0.02159
 H1287 H 0.20836 0.74825 0.05008
 H1288 H 0.24213 0.70146 0.04487
 H1289 H 0.25463 0.71376 0.01759
 H1290 H 0.22714 0.76195 -0.02678
 H1291 H 0.21358 0.74928 -0.05352
 H1292 H 0.22888 0.69629 -0.03607
 H1293 H 0.24330 0.70905 -0.01021
 H1294 H 0.25824 0.80135 0.04359
 C1295 C 0.24420 0.24350 0.49928
 C1296 C 0.25667 0.25683 0.49915
 C1297 C 0.26404 0.26433 0.48232
 C1298 C 0.26388 0.26473 0.51584
 C1299 C 0.23703 0.23583 0.51615
 C1300 C 0.23657 0.23603 0.48260
 C1301 C 0.27236 0.25337 0.46959
 C1302 C 0.28036 0.26093 0.45450
 C1303 C 0.28041 0.27962 0.45198
 C1304 C 0.27187 0.29047 0.46470
 C1305 C 0.26382 0.28291 0.47968
 C1306 C 0.28247 0.26570 0.51826
 C1307 C 0.28962 0.27340 0.53358
 C1308 C 0.27835 0.28026 0.54691
 C1309 C 0.25970 0.27941 0.54440
 C1310 C 0.25254 0.27191 0.52893
 C1311 C 0.21846 0.23517 0.51879
 C1312 C 0.21134 0.22815 0.53448
 C1313 C 0.22264 0.22164 0.54797
 C1314 C 0.24127 0.22201 0.54518
 C1315 C 0.24839 0.22887 0.52935
 C1316 C 0.22816 0.24703 0.46995
 C1317 C 0.22009 0.23954 0.45490
 C1318 C 0.22009 0.22087 0.45233
 C1319 C 0.22862 0.20996 0.46502
 C1320 C 0.23673 0.21745 0.47997
 H1321 H 0.27295 0.23901 0.47150
 H1322 H 0.28655 0.25213 0.44487
 H1323 H 0.27181 0.30490 0.46333
 H1324 H 0.25761 0.29163 0.48941
 H1325 H 0.29148 0.26049 0.50822
 H1326 H 0.30401 0.27429 0.53477
 H1327 H 0.23816 0.27170 0.52718
 H1328 H 0.20942 0.24023 0.50869
 H1329 H 0.19693 0.22768 0.53593
 H1330 H 0.25038 0.21728 0.55532
 H1331 H 0.26276 0.22888 0.52745
 H1332 H 0.22760 0.26138 0.47186
 H1333 H 0.21387 0.24838 0.44532
 H1334 H 0.22868 0.19554 0.46362
 H1335 H 0.24300 0.20871 0.48964
 H1336 H 0.25059 0.28443 0.55444
 C1337 C 0.75642 0.74419 1.00065
 C1338 C 0.74344 0.75706 1.00106
 C1339 C 0.73666 0.76452 1.01811
 C1340 C 0.73525 0.76441 0.98455
 C1341 C 0.76379 0.73698 0.98370
 C1342 C 0.76398 0.73631 1.01720
 C1343 C 0.71824 0.76424 1.02168
 C1344 C 0.71159 0.77087 1.03775
 C1345 C 0.72325 0.77799 1.05059
 C1346 C 0.74168 0.77875 1.04674
 C1347 C 0.74831 0.77215 1.03063
 C1348 C 0.72781 0.75319 0.97158
 C1349 C 0.72047 0.76043 0.95605
 C1350 C 0.71988 0.77912 0.95331
 C1351 C 0.72705 0.79024 0.96664
 C1352 C 0.73460 0.78297 0.98202
 C1353 C 0.77086 0.74824 0.97051
 C1354 C 0.77787 0.74103 0.95480
 C1355 C 0.77848 0.72233 0.95207
 C1356 C 0.77148 0.71121 0.96553
 C1357 C 0.76428 0.71843 0.98108
 C1358 C 0.78257 0.73625 1.01968
 C1359 C 0.79010 0.72810 1.03460
 C1360 C 0.77921 0.71971 1.04740
 C1361 C 0.76053 0.71991 1.04497
 C1362 C 0.75299 0.72802 1.02995
 H1363 H 0.70900 0.75867 1.01208
 H1364 H 0.69729 0.77050 1.04004
 H1365 H 0.75101 0.78418 1.05632
 H1366 H 0.76254 0.77287 1.02796
 H1367 H 0.72786 0.73881 0.97338
 H1368 H 0.71563 0.75124 0.94606
 H1369 H 0.74012 0.79190 0.99194
 H1370 H 0.77090 0.76261 0.97235
 H1371 H 0.78252 0.75026 0.94472
 H1372 H 0.77158 0.69687 0.96441
 H1373 H 0.75901 0.70946 0.99114
 H1374 H 0.79129 0.74244 1.00993
 H1375 H 0.80453 0.72803 1.03592
 H1376 H 0.75171 0.71382 1.05467
 H1377 H 0.73862 0.72766 1.02816
 H1378 H 0.72688 0.80458 0.96549
 C1379 C 0.75561 0.24336 0.50029
 C1380 C 0.74291 0.25651 0.50036
 C1381 C 0.73614 0.26437 0.51723
 C1382 C 0.73499 0.26368 0.48366
 C1383 C 0.76311 0.23587 0.48355
 C1384 C 0.76302 0.23573 0.51702
 C1385 C 0.71773 0.26412 0.52085
 C1386 C 0.71115 0.27075 0.53693
 C1387 C 0.72287 0.27787 0.54973
 C1388 C 0.74127 0.27867 0.54580
 C1389 C 0.74784 0.27208 0.52966
 C1390 C 0.72775 0.25233 0.47070
 C1391 C 0.72071 0.25938 0.45496
 C1392 C 0.72015 0.27804 0.45200
 C1393 C 0.72711 0.28930 0.46532
 C1394 C 0.73440 0.28221 0.48090
 C1395 C 0.77124 0.24687 0.47073
 C1396 C 0.77916 0.23935 0.45560
 C1397 C 0.77931 0.22066 0.45315
 C1398 C 0.77105 0.20976 0.46602
 C1399 C 0.76308 0.21728 0.48104
 C1400 C 0.78160 0.23518 0.51939
 C1401 C 0.78899 0.22775 0.53475
 C1402 C 0.77798 0.22061 0.54822
 C1403 C 0.75926 0.22128 0.54574
 C1404 C 0.75190 0.22849 0.53022
 H1405 H 0.70847 0.25848 0.51131
 H1406 H 0.69687 0.27037 0.53929
 H1407 H 0.75064 0.28410 0.55534
 H1408 H 0.76206 0.27275 0.52695
 H1409 H 0.72771 0.23797 0.47268
 H1410 H 0.71608 0.25003 0.44503
 H1411 H 0.73977 0.29126 0.49080
 H1412 H 0.77167 0.26124 0.47257
 H1413 H 0.78516 0.24818 0.44586
 H1414 H 0.77111 0.19534 0.46472
 H1415 H 0.75702 0.20855 0.49086
 H1416 H 0.79045 0.24057 0.50930
 H1417 H 0.80334 0.22758 0.53571
 H1418 H 0.75016 0.21650 0.55588
 H1419 H 0.73750 0.22850 0.52855
 H1420 H 0.72699 0.30363 0.46402
 C1421 C 0.74313 0.24411 -0.00106
 C1422 C 0.75624 0.25681 -0.00093
 C1423 C 0.76405 0.26384 -0.01776
 C1424 C 0.76342 0.26450 0.01585
 C1425 C 0.73581 0.23610 0.01552
 C1426 C 0.73549 0.23725 -0.01797
 C1427 C 0.77183 0.25232 -0.03033
 C1428 C 0.77844 0.25909 -0.04638
 C1429 C 0.77761 0.27754 -0.05009
 C1430 C 0.77041 0.28909 -0.03716
 C1431 C 0.76373 0.28230 -0.02116
 C1432 C 0.78200 0.26546 0.01833
 C1433 C 0.78910 0.27303 0.03374
 C1434 C 0.77777 0.27972 0.04712
 C1435 C 0.75913 0.27887 0.04455
 C1436 C 0.75204 0.27152 0.02898
 C1437 C 0.71723 0.23578 0.01815
 C1438 C 0.70992 0.22760 0.03318
 C1439 C 0.72104 0.21947 0.04594
 C1440 C 0.73970 0.21987 0.04333
 C1441 C 0.74701 0.22800 0.02819
 C1442 C 0.72779 0.24888 -0.03050
 C1443 C 0.72121 0.24223 -0.04658
 C1444 C 0.72203 0.22380 -0.05034
 C1445 C 0.72919 0.21216 -0.03747
 C1446 C 0.73583 0.21882 -0.02145
 H1447 H 0.77256 0.23807 -0.02779
 H1448 H 0.78392 0.24983 -0.05603
 H1449 H 0.76999 0.30340 -0.03935
 H1450 H 0.75804 0.29143 -0.01150
 H1451 H 0.79106 0.26039 0.00825
 H1452 H 0.80348 0.27396 0.03496
 H1453 H 0.73766 0.27138 0.02717
 H1454 H 0.70834 0.24181 0.00846
 H1455 H 0.69550 0.22734 0.03462
 H1456 H 0.74869 0.21397 0.05297
 H1457 H 0.76137 0.22781 0.02626
 H1458 H 0.72706 0.26311 -0.02789
 H1459 H 0.71577 0.25155 -0.05620
 H1460 H 0.72959 0.19786 -0.03970
 H1461 H 0.74148 0.20961 -0.01183
 H1462 H 0.74999 0.28378 0.05460
 C1463 C 0.74410 0.74309 0.50000
 C1464 C 0.75649 0.75649 0.49985
 C1465 C 0.76383 0.76402 0.48303
 C1466 C 0.76359 0.76448 0.51653
 C1467 C 0.73692 0.73547 0.51686
 C1468 C 0.73653 0.73554 0.48334
 C1469 C 0.77211 0.75311 0.47024
 C1470 C 0.77997 0.76072 0.45510
 C1471 C 0.77993 0.77941 0.45262
 C1472 C 0.77147 0.79021 0.46542
 C1473 C 0.76354 0.78261 0.48044
 C1474 C 0.78216 0.76552 0.51902
 C1475 C 0.78922 0.77328 0.53435
 C1476 C 0.77785 0.78010 0.54764
 C1477 C 0.75922 0.77921 0.54504
 C1478 C 0.75216 0.77166 0.52954
 C1479 C 0.71834 0.73484 0.51947
 C1480 C 0.71120 0.72790 0.53518
 C1481 C 0.72249 0.72147 0.54872
 C1482 C 0.74112 0.72182 0.54596
 C1483 C 0.74827 0.72860 0.53011
 C1484 C 0.72813 0.74650 0.47066
 C1485 C 0.72010 0.73895 0.45563
 C1486 C 0.72007 0.72027 0.45316
 C1487 C 0.72859 0.70940 0.46589
 C1488 C 0.73669 0.71696 0.48080
 H1489 H 0.77274 0.73875 0.47211
 H1490 H 0.78611 0.75195 0.44541
 H1491 H 0.77136 0.80464 0.46409
 H1492 H 0.75736 0.79129 0.49021
 H1493 H 0.79123 0.76033 0.50902
 H1494 H 0.80359 0.77423 0.53559
 H1495 H 0.73779 0.77140 0.52772
 H1496 H 0.70933 0.73985 0.50934
 H1497 H 0.69680 0.72744 0.53662
 H1498 H 0.75022 0.71715 0.55614
 H1499 H 0.76264 0.72862 0.52823
 H1500 H 0.72755 0.76086 0.47252
 H1501 H 0.71390 0.74776 0.44600
 H1502 H 0.72863 0.69498 0.46455
 H1503 H 0.74294 0.70825 0.49052
 H1504 H 0.75005 0.78421 0.55502
 C1505 C 0.99961 0.25608 0.24291
 C1506 C 0.99975 0.24288 0.25549
 C1507 C 1.01677 0.23510 0.26230
 C1508 C 0.98300 0.23561 0.26339
 C1509 C 0.98270 0.26353 0.23548
 C1510 C 1.01644 0.26385 0.23566
 C1511 C 1.02944 0.22745 0.25075
 C1512 C 1.04565 0.22086 0.25739
 C1513 C 1.04942 0.22166 0.27571
 C1514 C 1.03639 0.22870 0.28727
 C1515 C 1.02024 0.23532 0.28063
 C1516 C 0.98035 0.21706 0.26394
 C1517 C 0.96484 0.20991 0.27146
 C1518 C 0.95138 0.22112 0.27848
 C1519 C 0.95435 0.23976 0.27821
 C1520 C 0.97002 0.24689 0.27091
 C1521 C 0.98024 0.28211 0.23497
 C1522 C 0.96482 0.28951 0.22751
 C1523 C 0.95125 0.27851 0.22048
 C1524 C 0.95391 0.25982 0.22087
 C1525 C 0.96951 0.25244 0.22813
 C1526 C 1.02966 0.27092 0.24684
 C1527 C 1.04539 0.27807 0.23968
 C1528 C 1.04806 0.27890 0.22109
 C1529 C 1.03449 0.27204 0.21002
 C1530 C 1.01895 0.26464 0.21721
 H1531 H 1.02686 0.22681 0.23659
 H1532 H 1.05539 0.21549 0.24815
 H1533 H 1.03864 0.22907 0.30149
 H1534 H 1.01054 0.24093 0.28978
 H1535 H 0.99035 0.20807 0.25854
 H1536 H 0.96369 0.19549 0.27203
 H1537 H 0.97201 0.26124 0.27112
 H1538 H 0.99038 0.29097 0.24028
 H1539 H 0.96388 0.30393 0.22689
 H1540 H 0.94412 0.25070 0.21562
 H1541 H 0.97131 0.23806 0.22792
 H1542 H 1.02789 0.27078 0.26114
 H1543 H 1.05553 0.28260 0.24887
 H1544 H 1.03554 0.27235 0.19576
 H1545 H 1.00885 0.25939 0.20831
 H1546 H 0.94470 0.24904 0.28350
 C1547 C 0.49908 0.25718 0.74312
 C1548 C 0.49903 0.24454 0.75622
 C1549 C 0.51590 0.23729 0.76390
 C1550 C 0.48220 0.23697 0.76365
 C1551 C 0.48228 0.26464 0.73552
 C1552 C 0.51600 0.26453 0.73560
 C1553 C 0.51859 0.21874 0.76429
 C1554 C 0.53416 0.21150 0.77159
 C1555 C 0.54753 0.22262 0.77878
 C1556 C 0.54470 0.24131 0.77830
 C1557 C 0.52897 0.24852 0.77122
 C1558 C 0.46935 0.22880 0.75274
 C1559 C 0.45421 0.22073 0.76026
 C1560 C 0.45180 0.22044 0.77885
 C1561 C 0.46472 0.22871 0.78965
 C1562 C 0.47971 0.23686 0.78214
 C1563 C 0.46925 0.27277 0.74632
 C1564 C 0.45413 0.28072 0.73867
 C1565 C 0.45189 0.28092 0.72007
 C1566 C 0.46495 0.27265 0.70937
 C1567 C 0.47995 0.26463 0.71702
 C1568 C 0.51854 0.28310 0.73511
 C1569 C 0.53411 0.29037 0.72784
 C1570 C 0.54773 0.27926 0.72099
 C1571 C 0.54495 0.26059 0.72129
 C1572 C 0.52921 0.25334 0.72836
 H1573 H 0.50861 0.20980 0.75882
 H1574 H 0.53537 0.19716 0.77158
 H1575 H 0.55472 0.25054 0.78308
 H1576 H 0.52706 0.26289 0.77133
 H1577 H 0.47116 0.22843 0.73845
 H1578 H 0.44444 0.21472 0.75151
 H1579 H 0.48955 0.24292 0.79082
 H1580 H 0.47092 0.27320 0.76062
 H1581 H 0.44423 0.28672 0.74733
 H1582 H 0.46381 0.27273 0.69501
 H1583 H 0.48991 0.25855 0.70845
 H1584 H 0.50837 0.29202 0.74034
 H1585 H 0.53519 0.30479 0.72726
 H1586 H 0.55480 0.25140 0.71618
 H1587 H 0.52735 0.23897 0.72818
 H1588 H 0.46347 0.22854 0.80400
 C1589 C 0.00042 0.24258 0.74299
 C1590 C 0.00019 0.25563 0.75569
 C1591 C -0.01681 0.26292 0.76314
 C1592 C 0.01694 0.26346 0.76299
 C1593 C 0.01746 0.23486 0.73616
 C1594 C -0.01630 0.23530 0.73511
 C1595 C -0.01940 0.28149 0.76368
 C1596 C -0.03492 0.28873 0.77109
 C1597 C -0.04846 0.27759 0.77802
 C1598 C -0.04565 0.25892 0.77765
 C1599 C -0.02995 0.25170 0.77044
 C1600 C 0.03015 0.27073 0.75186
 C1601 C 0.04572 0.27809 0.75910
 C1602 C 0.04825 0.27887 0.77769
 C1603 C 0.03472 0.27178 0.78870
 C1604 C 0.01933 0.26419 0.78144
 C1605 C 0.03016 0.22725 0.74769
 C1606 C 0.04632 0.22058 0.74100
 C1607 C 0.05000 0.22121 0.72264
 C1608 C 0.03695 0.22824 0.71111
 C1609 C 0.02086 0.23496 0.71781
 C1610 C -0.01899 0.21676 0.73475
 C1611 C -0.03459 0.20958 0.72750
 C1612 C -0.04798 0.22075 0.72032
 C1613 C -0.04509 0.23942 0.72068
 C1614 C -0.02934 0.24657 0.72771
 H1615 H -0.00928 0.29045 0.75845
 H1616 H -0.03602 0.30315 0.77172
 H1617 H -0.05546 0.24973 0.78281
 H1618 H -0.02804 0.23733 0.77063
 H1619 H 0.02848 0.27062 0.73755
 H1620 H 0.05587 0.28285 0.75000
 H1621 H 0.00923 0.25879 0.79030
 H1622 H 0.02763 0.22667 0.76186
 H1623 H 0.05607 0.21522 0.75023
 H1624 H 0.03911 0.22849 0.69688
 H1625 H 0.01111 0.24050 0.70867
 H1626 H -0.00903 0.20779 0.74027
 H1627 H -0.03585 0.19524 0.72755
 H1628 H -0.05511 0.24869 0.71589
 H1629 H -0.02743 0.26093 0.72755
 H1630 H 0.03568 0.27207 0.80296
 C1631 C 0.50061 0.24229 0.24198
 C1632 C 0.50039 0.25568 0.25431
 C1633 C 0.48332 0.26328 0.26114
 C1634 C 0.51700 0.26333 0.26202
 C1635 C 0.51752 0.23487 0.23456
 C1636 C 0.48373 0.23443 0.23504
 C1637 C 0.47063 0.27085 0.24961
 C1638 C 0.45441 0.27738 0.25628
 C1639 C 0.45067 0.27659 0.27461
 C1640 C 0.46371 0.26957 0.28616
 C1641 C 0.47987 0.26301 0.27948
 C1642 C 0.51940 0.28194 0.26193
 C1643 C 0.53431 0.28960 0.27005
 C1644 C 0.54716 0.27882 0.27856
 C1645 C 0.54483 0.26012 0.27846
 C1646 C 0.52982 0.25245 0.27039
 C1647 C 0.52009 0.21629 0.23425
 C1648 C 0.53563 0.20891 0.22697
 C1649 C 0.54910 0.21991 0.21973
 C1650 C 0.54643 0.23862 0.22018
 C1651 C 0.53074 0.24598 0.22725
 C1652 C 0.47100 0.22682 0.24652
 C1653 C 0.45485 0.22026 0.23982
 C1654 C 0.45120 0.22101 0.22147
 C1655 C 0.46430 0.22801 0.20996
 C1656 C 0.48040 0.23461 0.21668
 H1657 H 0.47320 0.27151 0.23544
 H1658 H 0.44466 0.28276 0.24705
 H1659 H 0.46147 0.26921 0.30038
 H1660 H 0.48962 0.25746 0.28862
 H1661 H 0.50959 0.29058 0.25567
 H1662 H 0.53553 0.30404 0.27005
 H1663 H 0.52809 0.23807 0.27088
 H1664 H 0.51001 0.20743 0.23972
 H1665 H 0.53674 0.19456 0.22700
 H1666 H 0.55654 0.24776 0.21533
 H1667 H 0.52894 0.26036 0.22701
 H1668 H 0.47349 0.22621 0.26070
 H1669 H 0.44506 0.21494 0.24905
 H1670 H 0.46216 0.22836 0.19573
 H1671 H 0.49018 0.24017 0.20758
 H1672 H 0.55458 0.25138 0.28464
 C1673 C 0.99894 0.75759 0.74344
 C1674 C 0.99862 0.74422 0.75569
 C1675 C 1.01526 0.73680 0.76373
 C1676 C 0.98144 0.73703 0.76240
 C1677 C 0.98213 0.76518 0.73626
 C1678 C 1.01598 0.76447 0.73586
 C1679 C 1.01831 0.71829 0.76393
 C1680 C 1.03388 0.71126 0.77144
 C1681 C 1.04705 0.72254 0.77877
 C1682 C 1.04369 0.74112 0.77888
 C1683 C 1.02796 0.74812 0.77159
 C1684 C 0.97433 0.72126 0.75532
 C1685 C 0.95937 0.71328 0.76313
 C1686 C 0.95090 0.72118 0.77794
 C1687 C 0.95748 0.73769 0.78421
 C1688 C 0.97274 0.74541 0.77664
 C1689 C 0.97532 0.78132 0.74286
 C1690 C 0.96026 0.78916 0.73508
 C1691 C 0.95145 0.78079 0.72077
 C1692 C 0.95788 0.76409 0.71484
 C1693 C 0.97319 0.75647 0.72240
 C1694 C 1.02026 0.78270 0.73715
 C1695 C 1.03658 0.78910 0.73071
 C1696 C 1.04903 0.77739 0.72285
 C1697 C 1.04452 0.75920 0.72117
 C1698 C 1.02814 0.75282 0.72754
 H1699 H 1.00874 0.70915 0.75819
 H1700 H 1.03533 0.69686 0.77173
 H1701 H 1.05308 0.75047 0.78445
 H1702 H 1.02570 0.76243 0.77207
 H1703 H 0.98073 0.71481 0.74409
 H1704 H 0.95483 0.70060 0.75789
 H1705 H 0.97795 0.75776 0.78208
 H1706 H 0.98184 0.78802 0.75385
 H1707 H 0.95582 0.80202 0.74002
 H1708 H 0.95121 0.75687 0.70431
 H1709 H 0.97818 0.74384 0.71735
 H1710 H 1.01118 0.79201 0.74346
 H1711 H 1.03940 0.80326 0.73185
 H1712 H 1.05380 0.74981 0.71520
 H1713 H 1.02502 0.73874 0.72620
 H1714 H 0.95104 0.74461 0.79510
 C1715 C 0.49917 0.75639 0.24380
 C1716 C 0.49894 0.74335 0.25656
 C1717 C 0.51566 0.73611 0.26455
 C1718 C 0.48192 0.73566 0.26340
 C1719 C 0.48241 0.76416 0.23639
 C1720 C 0.51617 0.76370 0.23645
 C1721 C 0.51843 0.71757 0.26499
 C1722 C 0.53404 0.71042 0.27231
 C1723 C 0.54737 0.72164 0.27944
 C1724 C 0.54439 0.74030 0.27902
 C1725 C 0.52862 0.74741 0.27195
 C1726 C 0.46926 0.72802 0.25192
 C1727 C 0.45312 0.72134 0.25864
 C1728 C 0.44944 0.72202 0.27700
 C1729 C 0.46246 0.72911 0.28849
 C1730 C 0.47852 0.73583 0.28175
 C1731 C 0.46911 0.77136 0.24744
 C1732 C 0.45344 0.77848 0.24013
 C1733 C 0.45090 0.77916 0.22153
 C1734 C 0.46455 0.77219 0.21058
 C1735 C 0.48005 0.76481 0.21792
 C1736 C 0.51876 0.78227 0.23602
 C1737 C 0.53435 0.78951 0.22878
 C1738 C 0.54795 0.77839 0.22192
 C1739 C 0.54515 0.75972 0.22221
 C1740 C 0.52939 0.75249 0.22923
 H1741 H 0.50852 0.70858 0.25947
 H1742 H 0.53536 0.69609 0.27233
 H1743 H 0.55436 0.74960 0.28378
 H1744 H 0.52664 0.76177 0.27206
 H1745 H 0.47179 0.72740 0.23774
 H1746 H 0.44340 0.71593 0.24944
 H1747 H 0.48823 0.74142 0.29087
 H1748 H 0.47077 0.77134 0.26175
 H1749 H 0.44321 0.78311 0.24922
 H1750 H 0.46359 0.77238 0.19631
 H1751 H 0.49024 0.75949 0.20911
 H1752 H 0.50861 0.79121 0.24122
 H1753 H 0.53545 0.80393 0.22820
 H1754 H 0.55501 0.75054 0.21710
 H1755 H 0.52748 0.73813 0.22898
 H1756 H 0.46030 0.72937 0.30272
 C1757 C 0.00015 0.74280 0.24256
 C1758 C -0.00009 0.75587 0.25523
 C1759 C -0.01710 0.76313 0.26262
 C1760 C 0.01665 0.76359 0.26271
 C1761 C 0.01720 0.73505 0.23584
 C1762 C -0.01656 0.73547 0.23466
 C1763 C -0.01977 0.78169 0.26307
 C1764 C -0.03535 0.78887 0.27040
 C1765 C -0.04885 0.77768 0.27733
 C1766 C -0.04593 0.75903 0.27706
 C1767 C -0.03018 0.75187 0.26995
 C1768 C 0.03005 0.77077 0.25174
 C1769 C 0.04566 0.77788 0.25915
 C1770 C 0.04805 0.77854 0.27778
 C1771 C 0.03434 0.77153 0.28862
 C1772 C 0.01891 0.76419 0.28119
 C1773 C 0.02981 0.72742 0.24745
 C1774 C 0.04604 0.72082 0.24087
 C1775 C 0.04986 0.72153 0.22254
 C1776 C 0.03687 0.72855 0.21093
 C1777 C 0.02073 0.73522 0.21752
 C1778 C -0.01927 0.71692 0.23445
 C1779 C -0.03489 0.70968 0.22728
 C1780 C -0.04830 0.72079 0.22003
 C1781 C -0.04541 0.73947 0.22026
 C1782 C -0.02964 0.74667 0.22721
 H1783 H -0.00969 0.79066 0.25781
 H1784 H -0.03652 0.80329 0.27097
 H1785 H -0.05568 0.74979 0.28224
 H1786 H -0.02817 0.73752 0.27022
 H1787 H 0.02849 0.77075 0.23742
 H1788 H 0.05593 0.78252 0.25014
 H1789 H 0.00868 0.75885 0.28994
 H1790 H 0.02717 0.72681 0.26160
 H1791 H 0.05574 0.71546 0.25015
 H1792 H 0.03914 0.72884 0.19671
 H1793 H 0.01105 0.74080 0.20832
 H1794 H -0.00930 0.70800 0.24002
 H1795 H -0.03614 0.69535 0.22747
 H1796 H -0.05544 0.74870 0.21543
 H1797 H -0.02773 0.76104 0.22696
 H1798 H 0.03519 0.77168 0.30289
 C1799 C 0.50039 0.74329 0.74343
 C1800 C 0.50017 0.75637 0.75610
 C1801 C 0.48317 0.76362 0.76353
 C1802 C 0.51692 0.76415 0.76347
 C1803 C 0.51742 0.73550 0.73669
 C1804 C 0.48365 0.73609 0.73546
 C1805 C 0.48042 0.78217 0.76389
 C1806 C 0.46480 0.78932 0.77118
 C1807 C 0.45139 0.77810 0.77822
 C1808 C 0.45437 0.75947 0.77804
 C1809 C 0.47014 0.75233 0.77092
 C1810 C 0.53025 0.77130 0.75239
 C1811 C 0.54586 0.77850 0.75969
 C1812 C 0.54832 0.77928 0.77830
 C1813 C 0.53468 0.77231 0.78925
 C1814 C 0.51925 0.76486 0.78193
 C1815 C 0.53004 0.72784 0.74827
 C1816 C 0.54618 0.72106 0.74165
 C1817 C 0.54993 0.72164 0.72330
 C1818 C 0.53695 0.72873 0.71172
 C1819 C 0.52089 0.73557 0.71835
 C1820 C 0.48100 0.71754 0.73482
 C1821 C 0.46552 0.71045 0.72725
 C1822 C 0.45207 0.72172 0.72028
 C1823 C 0.45504 0.74035 0.72064
 C1824 C 0.47069 0.74742 0.72799
 H1825 H 0.49045 0.79115 0.75855
 H1826 H 0.46346 0.80374 0.77162
 H1827 H 0.44463 0.75023 0.78324
 H1828 H 0.47218 0.73798 0.77121
 H1829 H 0.52862 0.77120 0.73808
 H1830 H 0.55610 0.78315 0.75062
 H1831 H 0.50907 0.75955 0.79075
 H1832 H 0.52745 0.72729 0.76244
 H1833 H 0.55588 0.71566 0.75091
 H1834 H 0.53916 0.72893 0.69749
 H1835 H 0.51122 0.74117 0.70916
 H1836 H 0.49098 0.70851 0.74020
 H1837 H 0.46437 0.69604 0.72660
 H1838 H 0.44539 0.74967 0.71541
 H1839 H 0.47267 0.76178 0.72787
 H1840 H 0.53559 0.77259 0.80352
 C1841 C 0.40892 0.30465 0.28163
 C1842 C 0.40190 0.29792 0.29759
 C1843 C 0.40949 0.28194 0.30424
 C1844 C 0.42490 0.27450 0.29635
 C1845 C 0.43315 0.28284 0.28162
 C1846 C 0.42408 0.29726 0.27385
 C1847 C 0.43098 0.31505 0.26806
 C1848 C 0.41444 0.32321 0.27663
 H1849 H 0.40410 0.27553 0.31597
 H1850 H 0.43068 0.26259 0.30223
 H1851 H 0.43114 0.31642 0.25334
 H1852 H 0.44366 0.31877 0.27482
 H1853 H 0.40517 0.32935 0.26680
 H1854 H 0.41751 0.33169 0.28838
 C1855 C 0.41191 0.78705 0.80931
 C1856 C 0.40379 0.80229 0.80195
 C1857 C 0.41256 0.81034 0.78733
 C1858 C 0.42782 0.80242 0.77963
 C1859 C 0.43490 0.78614 0.78619
 C1860 C 0.42687 0.77908 0.80156
 C1861 C 0.41991 0.76071 0.80549
 C1862 C 0.40386 0.76946 0.81421
 H1863 H 0.40749 0.82250 0.78136
 H1864 H 0.43359 0.80879 0.76803
 H1865 H 0.42856 0.75334 0.81504
 H1866 H 0.41614 0.75316 0.79332
 H1867 H 0.40345 0.76737 0.82884
 H1868 H 0.39106 0.76684 0.80714
 C1869 C -0.08823 0.28614 0.80893
 C1870 C -0.09558 0.30204 0.80228
 C1871 C -0.08642 0.31057 0.78826
 C1872 C -0.07136 0.30254 0.78033
 C1873 C -0.06487 0.28571 0.78615
 C1874 C -0.07342 0.27807 0.80100
 C1875 C -0.08133 0.25984 0.80363
 C1876 C -0.09721 0.26873 0.81254
 H1877 H -0.09112 0.32320 0.78298
 H1878 H -0.06527 0.30934 0.76915
 H1879 H -0.07327 0.25149 0.81290
 H1880 H -0.08504 0.25324 0.79090
 H1881 H -0.09810 0.26577 0.82701
 H1882 H -0.10994 0.26716 0.80504
 C1883 C -0.08876 0.78594 0.30808
 C1884 C -0.09611 0.80189 0.30155
 C1885 C -0.08687 0.81055 0.28766
 C1886 C -0.07179 0.80260 0.27970
 C1887 C -0.06530 0.78573 0.28542
 C1888 C -0.07390 0.77797 0.30017
 C1889 C -0.08176 0.75969 0.30264
 C1890 C -0.09769 0.76847 0.31154
 H1891 H -0.09156 0.82320 0.28244
 H1892 H -0.06570 0.80946 0.26856
 H1893 H -0.07372 0.75132 0.31190
 H1894 H -0.08540 0.75316 0.28987
 H1895 H -0.09862 0.76542 0.32598
 H1896 H -0.11038 0.76690 0.30397
 C1897 C 0.58841 0.69184 0.28679
 C1898 C 0.59741 0.70033 0.30073
 C1899 C 0.59060 0.71692 0.30652
 C1900 C 0.57442 0.72371 0.29972
 C1901 C 0.56450 0.71423 0.28676
 C1902 C 0.57232 0.69844 0.28012
 C1903 C 0.56497 0.67987 0.27832
 C1904 C 0.58266 0.67283 0.28524
 H1905 H 0.59731 0.72442 0.31683
 H1906 H 0.56938 0.73603 0.30536
 H1907 H 0.56243 0.67620 0.26422
 H1908 H 0.55376 0.67709 0.28766
 H1909 H 0.59045 0.66544 0.27501
 H1910 H 0.58153 0.66602 0.29835
 C1911 C 0.58799 0.19215 0.78675
 C1912 C 0.59704 0.20063 0.80065
 C1913 C 0.59053 0.21742 0.80619
 C1914 C 0.57456 0.22448 0.79915
 C1915 C 0.56454 0.21504 0.78624
 C1916 C 0.57209 0.19898 0.77987
 C1917 C 0.56440 0.18051 0.77830
 C1918 C 0.58190 0.17324 0.78544
 H1919 H 0.59731 0.22489 0.81649
 H1920 H 0.56973 0.23696 0.80462
 H1921 H 0.56188 0.17666 0.76425
 H1922 H 0.55307 0.17809 0.78761
 H1923 H 0.58963 0.16555 0.77539
 H1924 H 0.58056 0.16665 0.79866
 C1925 C 1.08738 0.71492 0.80916
 C1926 C 1.09491 0.69908 0.80264
 C1927 C 1.08572 0.69027 0.78885
 C1928 C 1.07043 0.69796 0.78103
 C1929 C 1.06365 0.71469 0.78681
 C1930 C 1.07229 0.72262 0.80142
 C1931 C 1.07991 0.74102 0.80366
 C1932 C 1.09611 0.73253 0.81232
 H1933 H 1.09060 0.67772 0.78358
 H1934 H 1.06445 0.69101 0.76992
 H1935 H 1.07188 0.74929 0.81302
 H1936 H 1.08323 0.74759 0.79078
 H1937 H 1.09725 0.73566 0.82672
 H1938 H 1.10864 0.73423 0.80449
 C1939 C 1.09126 0.19369 0.28277
 C1940 C 1.09827 0.20046 0.29868
 C1941 C 1.09063 0.21645 0.30525
 C1942 C 1.07521 0.22384 0.29737
 C1943 C 1.06697 0.21546 0.28269
 C1944 C 1.07608 0.20104 0.27497
 C1945 C 1.06925 0.18322 0.26925
 C1946 C 1.08582 0.17511 0.27781
 H1947 H 1.09599 0.22291 0.31695
 H1948 H 1.06939 0.23573 0.30322
 H1949 H 1.06908 0.18186 0.25453
 H1950 H 1.05656 0.17948 0.27606
 H1951 H 1.09511 0.16901 0.26797
 H1952 H 1.08276 0.16662 0.28959
 C1953 C 0.58751 0.28783 0.69014
 C1954 C 0.59475 0.30380 0.69663
 C1955 C 0.58558 0.31230 0.71067
 C1956 C 0.57058 0.30424 0.71869
 C1957 C 0.56415 0.28740 0.71293
 C1958 C 0.57275 0.27974 0.69812
 C1959 C 0.58079 0.26153 0.69568
 C1960 C 0.59663 0.27044 0.68674
 H1961 H 0.59023 0.32494 0.71590
 H1962 H 0.56450 0.31100 0.72989
 H1963 H 0.57282 0.25310 0.68645
 H1964 H 0.58451 0.25502 0.70846
 H1965 H 0.59760 0.26739 0.67231
 H1966 H 0.60933 0.26898 0.69431
 C1967 C 0.58755 0.78706 0.19091
 C1968 C 0.59483 0.80299 0.19745
 C1969 C 0.58570 0.81146 0.21152
 C1970 C 0.57077 0.80335 0.21960
 C1971 C 0.56434 0.78652 0.21383
 C1972 C 0.57285 0.77893 0.19895
 C1973 C 0.58089 0.76073 0.19639
 C1974 C 0.59664 0.76968 0.18735
 H1975 H 0.59035 0.82410 0.21675
 H1976 H 0.56473 0.81009 0.23084
 H1977 H 0.57285 0.75231 0.18721
 H1978 H 0.58471 0.75419 0.20913
 H1979 H 0.59748 0.76670 0.17289
 H1980 H 0.60942 0.76820 0.19479
 C1981 C 1.08830 0.28691 0.19054
 C1982 C 1.09778 0.30045 0.19921
 C1983 C 1.09157 0.30576 0.21610
 C1984 C 1.07552 0.29884 0.22312
 C1985 C 1.06511 0.28631 0.21354
 C1986 C 1.07233 0.28018 0.19734
 C1987 C 1.06439 0.27924 0.17905
 C1988 C 1.08195 0.28622 0.17179
 H1989 H 1.09866 0.31577 0.22371
 H1990 H 1.07099 0.30408 0.23575
 H1991 H 1.05323 0.28890 0.17704
 H1992 H 1.06152 0.26526 0.17491
 H1993 H 1.08081 0.29970 0.16559
 H1994 H 1.08935 0.27614 0.16380
 C1995 C 1.09022 0.78413 0.69413
 C1996 C 1.09777 0.79983 0.70097
 C1997 C 1.09087 0.80622 0.71727
 C1998 C 1.07552 0.79842 0.72494
 C1999 C 1.06665 0.78408 0.71650
 C2000 C 1.07512 0.77646 0.70171
 C2001 C 1.06761 0.77130 0.68408
 C2002 C 1.08412 0.77971 0.67573
 H2003 H 1.09675 0.81771 0.72374
 H2004 H 1.07025 0.80412 0.73710
 H2005 H 1.05499 0.77852 0.68089
 H2006 H 1.06706 0.75653 0.68238
 H2007 H 1.08111 0.79184 0.66767
 H2008 H 1.09301 0.76976 0.66918
 C2009 C 0.41167 0.71410 0.69001
 C2010 C 0.40441 0.69809 0.69642
 C2011 C 0.41388 0.68913 0.70997
 C2012 C 0.42913 0.69687 0.71775
 C2013 C 0.43556 0.71380 0.71221
 C2014 C 0.42669 0.72188 0.69778
 C2015 C 0.41873 0.74020 0.69586
 C2016 C 0.40266 0.73163 0.68708
 H2017 H 0.40926 0.67639 0.71502
 H2018 H 0.43536 0.68975 0.72865
 H2019 H 0.42658 0.74880 0.68665
 H2020 H 0.41531 0.74642 0.70887
 H2021 H 0.40148 0.73499 0.67272
 H2022 H 0.39010 0.73304 0.69492
 C2023 C 0.40929 0.19320 0.21477
 C2024 C 0.40240 0.19967 0.19867
 C2025 C 0.41018 0.21541 0.19170
 C2026 C 0.42561 0.22285 0.19948
 C2027 C 0.43371 0.21475 0.21443
 C2028 C 0.42448 0.20058 0.22245
 C2029 C 0.43121 0.18282 0.22858
 C2030 C 0.41463 0.17468 0.22016
 H2031 H 0.40488 0.22165 0.17984
 H2032 H 0.43149 0.23459 0.19339
 H2033 H 0.43132 0.18174 0.24333
 H2034 H 0.44389 0.17885 0.22188
 H2035 H 0.40529 0.16885 0.23011
 H2036 H 0.41767 0.16594 0.20857
 C2037 C -0.08900 0.69056 0.21274
 C2038 C -0.09804 0.69887 0.19868
 C2039 C -0.09146 0.71554 0.19286
 C2040 C -0.07543 0.72259 0.19975
 C2041 C -0.06539 0.71324 0.21277
 C2042 C -0.07303 0.69737 0.21945
 C2043 C -0.06547 0.67888 0.22145
 C2044 C -0.08303 0.67163 0.21451
 H2045 H -0.09824 0.72292 0.18247
 H2046 H -0.07057 0.73497 0.19409
 H2047 H -0.06294 0.67532 0.23559
 H2048 H -0.05418 0.67617 0.21217
 H2049 H -0.09080 0.66423 0.22477
 H2050 H -0.08176 0.66473 0.20147
 C2051 C -0.08878 0.19075 0.71296
 C2052 C -0.09772 0.19908 0.69886
 C2053 C -0.09103 0.21570 0.69301
 C2054 C -0.07499 0.22267 0.69994
 C2055 C -0.06506 0.21328 0.71301
 C2056 C -0.07280 0.19748 0.71970
 C2057 C -0.06535 0.17895 0.72177
 C2058 C -0.08294 0.17179 0.71481
 H2059 H -0.09771 0.22308 0.68256
 H2060 H -0.07003 0.23501 0.69428
 H2061 H -0.06288 0.17542 0.73593
 H2062 H -0.05406 0.17612 0.71252
 H2063 H -0.09078 0.16449 0.72508
 H2064 H -0.08168 0.16484 0.70179
 C2065 C 0.29152 0.41393 0.31106
 C2066 C 0.30522 0.40457 0.30238
 C2067 C 0.31263 0.41258 0.28701
 C2068 C 0.30505 0.42824 0.27967
 C2069 C 0.28986 0.43629 0.28751
 C2070 C 0.28411 0.42933 0.30384
 C2071 C 0.26572 0.42459 0.30996
 C2072 C 0.27379 0.40769 0.31787
 H2073 H 0.32381 0.40648 0.28017
 H2074 H 0.31085 0.43369 0.26762
 H2075 H 0.25641 0.42197 0.29873
 H2076 H 0.26062 0.43406 0.32019
 H2077 H 0.26917 0.39522 0.31125
 H2078 H 0.27329 0.40746 0.33265
 C2079 C 0.29099 -0.08591 0.81189
 C2080 C 0.30526 -0.09493 0.80369
 C2081 C 0.31305 -0.08654 0.78866
 C2082 C 0.30546 -0.07093 0.78124
 C2083 C 0.28983 -0.06326 0.78857
 C2084 C 0.28357 -0.07055 0.80456
 C2085 C 0.26502 -0.07571 0.80977
 C2086 C 0.27306 -0.09258 0.81777
 H2087 H 0.32466 -0.09219 0.78215
 H2088 H 0.31161 -0.06519 0.76950
 H2089 H 0.25628 -0.07833 0.79809
 H2090 H 0.25930 -0.06651 0.81990
 H2091 H 0.26898 -0.10502 0.81075
 H2092 H 0.27182 -0.09307 0.83250
 C2093 C 0.79083 0.41413 0.81195
 C2094 C 0.80558 0.40552 0.80413
 C2095 C 0.81375 0.41428 0.78952
 C2096 C 0.80614 0.42986 0.78207
 C2097 C 0.79013 0.43713 0.78897
 C2098 C 0.78341 0.42948 0.80460
 C2099 C 0.76478 0.42391 0.80899
 C2100 C 0.77279 0.40705 0.81700
 H2101 H 0.82570 0.40893 0.78336
 H2102 H 0.81258 0.43592 0.77066
 H2103 H 0.75655 0.42136 0.79694
 H2104 H 0.75851 0.43284 0.81905
 H2105 H 0.76919 0.39467 0.80963
 H2106 H 0.77098 0.40629 0.83166
 C2107 C 0.80701 -0.09176 0.28472
 C2108 C 0.80012 -0.09919 0.30048
 C2109 C 0.78383 -0.09193 0.30687
 C2110 C 0.77619 -0.07663 0.29895
 C2111 C 0.78462 -0.06806 0.28447
 C2112 C 0.79943 -0.07668 0.27695
 C2113 C 0.81715 -0.06925 0.27164
 C2114 C 0.82553 -0.08569 0.28016
 H2115 H 0.77717 -0.09754 0.31836
 H2116 H 0.76402 -0.07119 0.30461
 H2117 H 0.82040 -0.05658 0.27867
 H2118 H 0.81882 -0.06883 0.25695
 H2119 H 0.83368 -0.08258 0.29213
 H2120 H 0.83209 -0.09465 0.27032
 C2121 C 0.29032 0.58586 0.68815
 C2122 C 0.30434 0.59505 0.69644
 C2123 C 0.31195 0.58704 0.71170
 C2124 C 0.30430 0.57158 0.71934
 C2125 C 0.28883 0.56373 0.71192
 C2126 C 0.28284 0.57065 0.69566
 C2127 C 0.26440 0.57569 0.68995
 C2128 C 0.27255 0.59237 0.68171
 H2129 H 0.32341 0.59296 0.71817
 H2130 H 0.31030 0.56608 0.73125
 H2131 H 0.25539 0.57856 0.70139
 H2132 H 0.25894 0.56624 0.67992
 H2133 H 0.26826 0.60497 0.68832
 H2134 H 0.27171 0.59250 0.66695
 C2135 C 0.28680 1.08844 0.19046
 C2136 C 0.30245 1.09601 0.19735
 C2137 C 0.31079 1.08701 0.21158
 C2138 C 0.30270 1.07200 0.21955
 C2139 C 0.28602 1.06542 0.21351
 C2140 C 0.27869 1.07370 0.19840
 C2141 C 0.26043 1.08132 0.19511
 C2142 C 0.26938 1.09713 0.18617
 H2143 H 0.32325 1.09185 0.21707
 H2144 H 0.30927 1.06607 0.23095
 H2145 H 0.25338 1.08525 0.20755
 H2146 H 0.25250 1.07299 0.18577
 H2147 H 0.26738 1.10997 0.19337
 H2148 H 0.26690 1.09768 0.17160
 C2149 C 0.80636 0.59085 0.21701
 C2150 C 0.79904 0.59845 0.20158
 C2151 C 0.78248 0.59157 0.19568
 C2152 C 0.77497 0.57624 0.20364
 C2153 C 0.78381 0.56739 0.21772
 C2154 C 0.79890 0.57578 0.22489
 C2155 C 0.81675 0.56813 0.22946
 C2156 C 0.82497 0.58459 0.22083
 H2157 H 0.77565 0.59742 0.18442
 H2158 H 0.76262 0.57096 0.19830
 H2159 H 0.81966 0.55550 0.22218
 H2160 H 0.81892 0.56751 0.24408
 H2161 H 0.83269 0.58154 0.20854
 H2162 H 0.83192 0.59340 0.23052
 C2163 C 0.80660 1.09123 0.71663
 C2164 C 0.79958 1.09858 0.70096
 C2165 C 0.78304 1.09177 0.69493
 C2166 C 0.77528 1.07666 0.70305
 C2167 C 0.78386 1.06797 0.71738
 C2168 C 0.79891 1.07635 0.72463
 C2169 C 0.81662 1.06865 0.72963
 C2170 C 0.82510 1.08491 0.72086
 H2171 H 0.77642 1.09748 0.68347
 H2172 H 0.76295 1.07140 0.69761
 H2173 H 0.81957 1.05589 0.72261
 H2174 H 0.81855 1.06828 0.74429
 H2175 H 0.83299 1.08160 0.70874
 H2176 H 0.83194 1.09385 0.73050
 C2177 C 0.68975 0.58854 0.28771
 C2178 C 0.69614 0.59545 0.30379
 C2179 C 0.70968 0.58571 0.31254
 C2180 C 0.71755 0.57061 0.30454
 C2181 C 0.71207 0.56457 0.28756
 C2182 C 0.69758 0.57365 0.27970
 C2183 C 0.69563 0.58187 0.26162
 C2184 C 0.68681 0.59784 0.27042
 H2185 H 0.71473 0.59002 0.32530
 H2186 H 0.72849 0.56419 0.31149
 H2187 H 0.68634 0.57417 0.25300
 H2188 H 0.70869 0.58537 0.25542
 H2189 H 0.67236 0.59911 0.26715
 H2190 H 0.69469 0.61039 0.26918
 C2191 C 0.68865 1.08891 0.78801
 C2192 C 0.69540 1.09631 0.80379
 C2193 C 0.70970 1.08711 0.81203
 C2194 C 0.71769 1.07215 0.80394
 C2195 C 0.71171 1.06567 0.78732
 C2196 C 0.69666 1.07414 0.77991
 C2197 C 0.69377 1.08189 0.76177
 C2198 C 0.68477 1.09773 0.77062
 H2199 H 0.71522 1.09161 0.82452
 H2200 H 0.72905 1.06610 0.81054
 H2201 H 0.68443 1.07371 0.75366
 H2202 H 0.70647 1.08569 0.75503
 H2203 H 0.67018 1.09847 0.76785
 H2204 H 0.69219 1.11050 0.76885
 C2205 C 0.18950 0.58961 0.78769
 C2206 C 0.19609 0.59671 0.80362
 C2207 C 0.20992 0.58718 0.81215
 C2208 C 0.21787 0.57217 0.80407
 C2209 C 0.21220 0.56600 0.78720
 C2210 C 0.19743 0.57482 0.77959
 C2211 C 0.19491 0.58285 0.76150
 C2212 C 0.18595 0.59870 0.77039
 H2213 H 0.21513 0.59160 0.82482
 H2214 H 0.22903 0.56594 0.81084
 H2215 H 0.18560 0.57487 0.75314
 H2216 H 0.20776 0.58658 0.75499
 H2217 H 0.17141 0.59961 0.76743
 H2218 H 0.19352 0.61141 0.76883
 C2219 C 0.18832 1.08616 0.29015
 C2220 C 0.19677 1.09513 0.30416
 C2221 C 0.21169 1.08659 0.31201
 C2222 C 0.21895 1.07084 0.30460
 C2223 C 0.21147 1.06318 0.28915
 C2224 C 0.19544 1.07062 0.28292
 C2225 C 0.19012 1.07570 0.26448
 C2226 C 0.18233 1.09275 0.27234
 H2227 H 0.21829 1.09234 0.32344
 H2228 H 0.23068 1.06500 0.31074
 H2229 H 0.17977 1.06658 0.25900
 H2230 H 0.20183 1.07810 0.25565
 H2231 H 0.16751 1.09340 0.27130
 H2232 H 0.18949 1.10507 0.26806
 C2233 C 0.69416 0.40839 0.71639
 C2234 C 0.70065 0.40148 0.70029
 C2235 C 0.71673 0.40885 0.69366
 C2236 C 0.72450 0.42399 0.70170
 C2237 C 0.71641 0.43219 0.71659
 C2238 C 0.70186 0.42328 0.72432
 C2239 C 0.68422 0.43040 0.73036
 C2240 C 0.67574 0.41413 0.72168
 H2241 H 0.72298 0.40353 0.68182
 H2242 H 0.73646 0.42962 0.69580
 H2243 H 0.68062 0.44325 0.72376
 H2244 H 0.68300 0.43038 0.74510
 H2245 H 0.66716 0.41751 0.71007
 H2246 H 0.66960 0.40481 0.73147
 C2247 C 0.71064 -0.08622 0.18992
 C2248 C 0.69616 -0.09501 0.19791
 C2249 C 0.68808 -0.08654 0.21269
 C2250 C 0.69564 -0.07101 0.22019
 C2251 C 0.71147 -0.06352 0.21312
 C2252 C 0.71802 -0.07092 0.19730
 C2253 C 0.73662 -0.07634 0.19247
 C2254 C 0.72858 -0.09315 0.18441
 H2255 H 0.67632 -0.09217 0.21892
 H2256 H 0.68931 -0.06517 0.23178
 H2257 H 0.74509 -0.07903 0.20434
 H2258 H 0.74264 -0.06725 0.18241
 H2259 H 0.73239 -0.10561 0.19157
 H2260 H 0.73005 -0.09369 0.16971
 C2261 C 0.21051 0.41403 0.18970
 C2262 C 0.19635 0.40496 0.19792
 C2263 C 0.18832 0.41325 0.21280
 C2264 C 0.19569 0.42892 0.22022
 C2265 C 0.21127 0.43670 0.21290
 C2266 C 0.21770 0.42946 0.19697
 C2267 C 0.23632 0.42442 0.19186
 C2268 C 0.22850 0.40747 0.18390
 H2269 H 0.17676 0.40738 0.21922
 H2270 H 0.18945 0.43459 0.23193
 H2271 H 0.24503 0.42189 0.20359
 H2272 H 0.24199 0.43365 0.18171
 H2273 H 0.23266 0.39508 0.19098
 H2274 H 0.22975 0.40698 0.16917
 C2275 C 0.19269 -0.09112 0.71601
 C2276 C 0.19931 -0.09833 0.70010
 C2277 C 0.21573 -0.09145 0.69375
 C2278 C 0.22373 -0.07645 0.70182
 C2279 C 0.21555 -0.06792 0.71648
 C2280 C 0.20062 -0.07637 0.72399
 C2281 C 0.18306 -0.06873 0.72958
 C2282 C 0.17432 -0.08484 0.72084
 H2283 H 0.22207 -0.09702 0.68207
 H2284 H 0.23594 -0.07117 0.69612
 H2285 H 0.17996 -0.05585 0.72281
 H2286 H 0.18151 -0.06859 0.74429
 H2287 H 0.16612 -0.08133 0.70900
 H2288 H 0.16772 -0.09392 0.73055
 C2289 C 0.29141 0.31151 0.41415
 C2290 C 0.30546 0.30297 0.40519
 C2291 C 0.31299 0.28772 0.41344
 C2292 C 0.30524 0.28033 0.42891
 C2293 C 0.28973 0.28796 0.43654
 C2294 C 0.28383 0.30425 0.42939
 C2295 C 0.26545 0.31009 0.42431
 C2296 C 0.27369 0.31802 0.40757
 H2297 H 0.32444 0.28100 0.40768
 H2298 H 0.31118 0.26840 0.43458
 H2299 H 0.26006 0.32039 0.43353
 H2300 H 0.25634 0.29864 0.42165
 H2301 H 0.27294 0.33288 0.40719
 H2302 H 0.26937 0.31118 0.39516
 C2303 C 0.29044 0.81177 -0.08587
 C2304 C 0.30448 0.80326 -0.09487
 C2305 C 0.31212 0.78807 -0.08660
 C2306 C 0.30449 0.78070 -0.07105
 C2307 C 0.28901 0.78832 -0.06335
 C2308 C 0.28297 0.80452 -0.07058
 C2309 C 0.26452 0.81020 -0.07564
 C2310 C 0.27266 0.81813 -0.09242
 H2311 H 0.32360 0.78142 -0.09237
 H2312 H 0.31053 0.76883 -0.06537
 H2313 H 0.25906 0.82049 -0.06645
 H2314 H 0.25551 0.79866 -0.07824
 H2315 H 0.27182 0.83298 -0.09284
 H2316 H 0.26837 0.81123 -0.10480
 C2317 C 0.80606 0.28433 -0.09139
 C2318 C 0.79970 0.30053 -0.09838
 C2319 C 0.78381 0.30751 -0.09089
 C2320 C 0.77612 0.29967 -0.07562
 C2321 C 0.78410 0.28463 -0.06743
 C2322 C 0.79842 0.27658 -0.07641
 C2323 C 0.81604 0.27030 -0.06950
 C2324 C 0.82447 0.27882 -0.08585
 H2325 H 0.77767 0.31947 -0.09623
 H2326 H 0.76430 0.30581 -0.06993
 H2327 H 0.81706 0.25546 -0.06942
 H2328 H 0.81985 0.27694 -0.05683
 H2329 H 0.83040 0.26885 -0.09511
 H2330 H 0.83319 0.29044 -0.08269
 C2331 C 0.79062 0.81160 0.41497
 C2332 C 0.80459 0.80312 0.40582
 C2333 C 0.81215 0.78777 0.41385
 C2334 C 0.80452 0.78024 0.42931
 C2335 C 0.78908 0.78782 0.43713
 C2336 C 0.78314 0.80418 0.43017
 C2337 C 0.76472 0.81004 0.42523
 C2338 C 0.77287 0.81818 0.40855
 H2339 H 0.82355 0.78111 0.40794
 H2340 H 0.81049 0.76825 0.43480
 H2341 H 0.75933 0.82022 0.43459
 H2342 H 0.75563 0.79860 0.42247
 H2343 H 0.77213 0.83304 0.40836
 H2344 H 0.76851 0.81150 0.39608
 C2345 C 0.71608 0.30648 0.59083
 C2346 C 0.69986 0.30016 0.59780
 C2347 C 0.69304 0.28413 0.59055
 C2348 C 0.70099 0.27631 0.57542
 C2349 C 0.71595 0.28432 0.56713
 C2350 C 0.72392 0.29872 0.57597
 C2351 C 0.73016 0.31630 0.56891
 C2352 C 0.72154 0.32485 0.58514
 H2353 H 0.68111 0.27800 0.59593
 H2354 H 0.69494 0.26441 0.56986
 H2355 H 0.72356 0.32000 0.55617
 H2356 H 0.74500 0.31733 0.56888
 H2357 H 0.70990 0.33353 0.58185
 H2358 H 0.73145 0.33086 0.59438
 C2359 C 0.71640 0.80645 1.09182
 C2360 C 0.70026 0.79999 1.09883
 C2361 C 0.69345 0.78401 1.09147
 C2362 C 0.70135 0.77633 1.07625
 C2363 C 0.71627 0.78443 1.06797
 C2364 C 0.72420 0.79883 1.07685
 C2365 C 0.73023 0.81651 1.06985
 C2366 C 0.72165 0.82489 1.08619
 H2367 H 0.68158 0.77778 1.09686
 H2368 H 0.69532 0.76446 1.07063
 H2369 H 0.72349 0.82022 1.05718
 H2370 H 0.74506 0.81768 1.06971
 H2371 H 0.70991 0.83350 1.08303
 H2372 H 0.73158 0.83095 1.09538
 C2373 C 0.18832 0.29116 1.08499
 C2374 C 0.19694 0.30498 1.09416
 C2375 C 0.21214 0.31265 1.08595
 C2376 C 0.21945 0.30518 1.07032
 C2377 C 0.21178 0.28983 1.06249
 C2378 C 0.19551 0.28386 1.06960
 C2379 C 0.18966 0.26540 1.07438
 C2380 C 0.18180 0.27334 1.09127
 H2381 H 0.21889 0.32394 1.09189
 H2382 H 0.23137 0.31117 1.06471
 H2383 H 0.20111 0.25620 1.07684
 H2384 H 0.17932 0.26023 1.06509
 H2385 H 0.18866 0.26875 1.10358
 H2386 H 0.16694 0.27266 1.09168
 C2387 C 0.21156 0.80981 0.58787
 C2388 C 0.19751 0.80143 0.59692
 C2389 C 0.19188 0.78465 0.59051
 C2390 C 0.19897 0.77754 0.57465
 C2391 C 0.21200 0.78693 0.56463
 C2392 C 0.21847 0.80294 0.57208
 C2393 C 0.22025 0.82138 0.56440
 C2394 C 0.21309 0.82871 0.58178
 H2395 H 0.18150 0.77721 0.59730
 H2396 H 0.19348 0.76504 0.56992
 H2397 H 0.21093 0.82390 0.55314
 H2398 H 0.23444 0.82508 0.56189
 H2399 H 0.19987 0.83543 0.58044
 H2400 H 0.22327 0.83629 0.58945
 C2401 C 0.30526 0.71701 0.59108
 C2402 C 0.29901 0.70075 0.59801
 C2403 C 0.28312 0.69379 0.59061
 C2404 C 0.27532 0.70169 0.57544
 C2405 C 0.28321 0.71677 0.56725
 C2406 C 0.29754 0.72481 0.57616
 C2407 C 0.31513 0.73106 0.56916
 C2408 C 0.32363 0.72252 0.58546
 H2409 H 0.27706 0.68179 0.59594
 H2410 H 0.26351 0.69555 0.56980
 H2411 H 0.31615 0.74591 0.56907
 H2412 H 0.31891 0.72441 0.55647
 H2413 H 0.32957 0.73248 0.59469
 H2414 H 0.33238 0.71091 0.58225
 C2415 C 0.31156 0.20977 1.08453
 C2416 C 0.30309 0.19588 1.09377
 C2417 C 0.28763 0.18843 1.08592
 C2418 C 0.28002 0.19607 1.07053
 C2419 C 0.28766 0.21139 1.06256
 C2420 C 0.30408 0.21725 1.06936
 C2421 C 0.31001 0.23566 1.07420
 C2422 C 0.31817 0.22752 1.09087
 H2423 H 0.28095 0.17709 1.09192
 H2424 H 0.26795 0.19020 1.06518
 H2425 H 0.29859 0.24481 1.07697
 H2426 H 0.32018 0.24095 1.06476
 H2427 H 0.31150 0.23194 1.10335
 H2428 H 0.33303 0.22822 1.09100
 C2429 C 0.81103 0.70900 1.08526
 C2430 C 0.80257 0.69493 1.09426
 C2431 C 0.78734 0.68736 1.08609
 C2432 C 0.77992 0.69503 1.07061
 C2433 C 0.78752 0.71050 1.06288
 C2434 C 0.80374 0.71650 1.07001
 C2435 C 0.80933 0.73495 1.07508
 C2436 C 0.81730 0.72679 1.09183
 H2437 H 0.78067 0.67594 1.09193
 H2438 H 0.76800 0.68908 1.06500
 H2439 H 0.79776 0.74393 1.07772
 H2440 H 0.81960 0.74043 1.06587
 H2441 H 0.81036 0.73104 1.10423
 H2442 H 0.83214 0.72768 1.09223
 C2443 C 0.80861 0.21251 0.58817
 C2444 C 0.80047 0.19817 0.59696
 C2445 C 0.78378 0.19236 0.59048
 C2446 C 0.77653 0.19961 0.57475
 C2447 C 0.78573 0.21294 0.56495
 C2448 C 0.80164 0.21955 0.57249
 C2449 C 0.82006 0.22173 0.56484
 C2450 C 0.82749 0.21444 0.58213
 H2451 H 0.77653 0.18175 0.59711
 H2452 H 0.76411 0.19405 0.56991
 H2453 H 0.82355 0.23600 0.56253
 H2454 H 0.82277 0.21259 0.55348
 H2455 H 0.83489 0.22463 0.58997
 H2456 H 0.83444 0.20135 0.58062
 C2457 C 0.70950 0.68857 0.41520
 C2458 C 0.69554 0.69715 0.40616
 C2459 C 0.68786 0.71231 0.41442
 C2460 C 0.69542 0.71962 0.42998
 C2461 C 0.71087 0.71197 0.43769
 C2462 C 0.71690 0.69575 0.43053
 C2463 C 0.73536 0.69002 0.42555
 C2464 C 0.72731 0.68218 0.40872
 H2465 H 0.67645 0.71902 0.40861
 H2466 H 0.68942 0.73152 0.43561
 H2467 H 0.74071 0.67968 0.43476
 H2468 H 0.74443 0.70153 0.42300
 H2469 H 0.72811 0.66733 0.40827
 H2470 H 0.73170 0.68913 0.39637
 C2471 C 0.69338 0.21699 -0.09136
 C2472 C 0.69971 0.20075 -0.09827
 C2473 C 0.71570 0.19386 -0.09096
 C2474 C 0.72352 0.20179 -0.07586
 C2475 C 0.71553 0.21680 -0.06766
 C2476 C 0.70112 0.22480 -0.07651
 C2477 C 0.68352 0.23100 -0.06944
 C2478 C 0.67500 0.22242 -0.08568
 H2479 H 0.72183 0.18191 -0.09630
 H2480 H 0.73541 0.19571 -0.07026
 H2481 H 0.68242 0.24584 -0.06940
 H2482 H 0.67984 0.22434 -0.05672
 H2483 H 0.66895 0.23236 -0.09491
 H2484 H 0.66635 0.21077 -0.08239
 C2485 C 0.20947 0.69018 -0.08510
 C2486 C 0.19554 0.69879 -0.09416
 C2487 C 0.18796 0.71403 -0.08595
 C2488 C 0.19551 0.72130 -0.07036
 C2489 C 0.21089 0.71357 -0.06258
 C2490 C 0.21688 0.69735 -0.06978
 C2491 C 0.23533 0.69158 -0.07477
 C2492 C 0.22726 0.68372 -0.09157
 H2493 H 0.17660 0.72080 -0.09181
 H2494 H 0.18951 0.73320 -0.06472
 H2495 H 0.24068 0.68123 -0.06554
 H2496 H 0.24442 0.70307 -0.07735
 H2497 H 0.22801 0.66886 -0.09196
 H2498 H 0.23167 0.69061 -0.10394
 C2499 C 0.20965 0.18927 0.41424
 C2500 C 0.19559 0.19777 0.40525
 C2501 C 0.18787 0.21289 0.41355
 C2502 C 0.19544 0.22021 0.42911
 C2503 C 0.21092 0.21261 0.43681
 C2504 C 0.21702 0.19645 0.42958
 C2505 C 0.23550 0.19082 0.42458
 C2506 C 0.22749 0.18300 0.40773
 H2507 H 0.17642 0.21956 0.40775
 H2508 H 0.18940 0.23208 0.43477
 H2509 H 0.24090 0.18046 0.43375
 H2510 H 0.24453 0.20238 0.42207
 H2511 H 0.22837 0.16816 0.40723
 H2512 H 0.23184 0.19002 0.39541
 C2513 C 0.28558 0.41262 0.69067
 C2514 C 0.30144 0.40521 0.69730
 C2515 C 0.31003 0.41438 0.71122
 C2516 C 0.30210 0.42951 0.71909
 C2517 C 0.28532 0.43608 0.71326
 C2518 C 0.27761 0.42751 0.69850
 C2519 C 0.25932 0.41969 0.69604
 C2520 C 0.26810 0.40373 0.68721
 H2521 H 0.32262 0.40963 0.71650
 H2522 H 0.30891 0.43556 0.73025
 H2523 H 0.25099 0.42773 0.68675
 H2524 H 0.25275 0.41607 0.70882
 H2525 H 0.26510 0.40279 0.67276
 H2526 H 0.26647 0.39105 0.69480
 C2527 C 0.28954 0.91543 0.18850
 C2528 C 0.30337 0.90601 0.19691
 C2529 C 0.31108 0.91396 0.21212
 C2530 C 0.30371 0.92963 0.21959
 C2531 C 0.28843 0.93777 0.21205
 C2532 C 0.28234 0.93087 0.19584
 C2533 C 0.26382 0.92621 0.19012
 C2534 C 0.27166 0.90926 0.18210
 H2535 H 0.32235 0.90780 0.21874
 H2536 H 0.30974 0.93502 0.23151
 H2537 H 0.25859 0.93570 0.17996
 H2538 H 0.25469 0.92365 0.20154
 H2539 H 0.27087 0.90900 0.16734
 H2540 H 0.26710 0.89683 0.18886
 C2541 C 0.78643 0.41212 0.19068
 C2542 C 0.80253 0.40494 0.19695
 C2543 C 0.81144 0.41435 0.21052
 C2544 C 0.80356 0.42949 0.21846
 C2545 C 0.78651 0.43580 0.21308
 C2546 C 0.77849 0.42697 0.19862
 C2547 C 0.76025 0.41887 0.19669
 C2548 C 0.76899 0.40299 0.18770
 H2549 H 0.82424 0.40977 0.21549
 H2550 H 0.81061 0.43567 0.22939
 H2551 H 0.75155 0.42674 0.18759
 H2552 H 0.75408 0.41524 0.20967
 H2553 H 0.76565 0.40195 0.17333
 H2554 H 0.76773 0.39032 0.19538
 C2555 C 0.78579 0.91273 0.69120
 C2556 C 0.80186 0.90552 0.69753
 C2557 C 0.81067 0.91486 0.71120
 C2558 C 0.80277 0.92998 0.71915
 C2559 C 0.78581 0.93637 0.71363
 C2560 C 0.77786 0.92762 0.69911
 C2561 C 0.75959 0.91960 0.69709
 C2562 C 0.76833 0.90365 0.68820
 H2563 H 0.82341 0.91025 0.71626
 H2564 H 0.80976 0.93613 0.73014
 H2565 H 0.75099 0.92749 0.68791
 H2566 H 0.75332 0.91603 0.71004
 H2567 H 0.76503 0.90256 0.67383
 H2568 H 0.76699 0.89102 0.69594
 C2569 C 0.69159 0.58809 0.71364
 C2570 C 0.69999 0.59713 0.69963
 C2571 C 0.71672 0.59056 0.69394
 C2572 C 0.72375 0.57453 0.70091
 C2573 C 0.71434 0.56449 0.71389
 C2574 C 0.69840 0.57212 0.72043
 C2575 C 0.67991 0.56454 0.72228
 C2576 C 0.67266 0.58211 0.71524
 H2577 H 0.72416 0.59736 0.68361
 H2578 H 0.73620 0.56966 0.69537
 H2579 H 0.67624 0.56200 0.73639
 H2580 H 0.67731 0.55327 0.71299
 H2581 H 0.66515 0.58986 0.72542
 H2582 H 0.66589 0.58084 0.70214
 C2583 C 0.68965 0.08456 0.20932
 C2584 C 0.69850 0.09377 0.19567
 C2585 C 0.71389 0.08554 0.18836
 C2586 C 0.72113 0.06991 0.19602
 C2587 C 0.71321 0.06207 0.21121
 C2588 C 0.69679 0.06916 0.21682
 C2589 C 0.69054 0.07402 0.23503
 C2590 C 0.68273 0.09093 0.22687
 H2591 H 0.72081 0.09146 0.17718
 H2592 H 0.73319 0.06430 0.19030
 H2593 H 0.70180 0.07661 0.24434
 H2594 H 0.68016 0.06463 0.24006
 H2595 H 0.68942 0.10338 0.23146
 H2596 H 0.66786 0.09124 0.22729
 C2597 C 0.21358 0.58787 0.19064
 C2598 C 0.19753 0.59510 0.19702
 C2599 C 0.18895 0.58596 0.21103
 C2600 C 0.19699 0.57099 0.21913
 C2601 C 0.21389 0.56455 0.21347
 C2602 C 0.22166 0.57312 0.19869
 C2603 C 0.23985 0.58121 0.19640
 C2604 C 0.23097 0.59701 0.18736
 H2605 H 0.17625 0.59061 0.21618
 H2606 H 0.19014 0.56493 0.23030
 H2607 H 0.24844 0.57326 0.18726
 H2608 H 0.24619 0.58494 0.20925
 H2609 H 0.23416 0.59798 0.17295
 H2610 H 0.23227 0.60974 0.19491
 C2611 C 0.19158 0.08789 0.71287
 C2612 C 0.20007 0.09695 0.69892
 C2613 C 0.21687 0.09039 0.69338
 C2614 C 0.22387 0.07437 0.70042
 C2615 C 0.21435 0.06431 0.71331
 C2616 C 0.19835 0.07193 0.71971
 C2617 C 0.17985 0.06434 0.72143
 C2618 C 0.17264 0.08190 0.71435
 H2619 H 0.22437 0.09719 0.68309
 H2620 H 0.23636 0.06951 0.69498
 H2621 H 0.17608 0.06180 0.73552
 H2622 H 0.17730 0.05307 0.71213
 H2623 H 0.16505 0.08964 0.72448
 H2624 H 0.16597 0.08062 0.70119
 C2625 C 0.30864 0.58847 0.28708
 C2626 C 0.30022 0.59741 0.30113
 C2627 C 0.28349 0.59084 0.30678
 C2628 C 0.27649 0.57487 0.29976
 C2629 C 0.28593 0.56492 0.28675
 C2630 C 0.30186 0.57256 0.28023
 C2631 C 0.32036 0.56498 0.27835
 C2632 C 0.32758 0.58249 0.28545
 H2633 H 0.27603 0.59758 0.31714
 H2634 H 0.26406 0.56998 0.30530
 H2635 H 0.32405 0.56254 0.26423
 H2636 H 0.32299 0.55364 0.28760
 H2637 H 0.33508 0.59030 0.27530
 H2638 H 0.33436 0.58113 0.29855
 C2639 C 0.30785 0.08876 0.78673
 C2640 C 0.29958 0.09757 0.80095
 C2641 C 0.28306 0.09073 0.80691
 C2642 C 0.27609 0.07471 0.79988
 C2643 C 0.28540 0.06495 0.78665
 C2644 C 0.30115 0.07280 0.77993
 C2645 C 0.31969 0.06542 0.77772
 C2646 C 0.32683 0.08300 0.78474
 H2647 H 0.27573 0.09732 0.81745
 H2648 H 0.26378 0.06964 0.80553
 H2649 H 0.32316 0.06304 0.76354
 H2650 H 0.32263 0.05411 0.78690
 H2651 H 0.33405 0.09093 0.77448
 H2652 H 0.33386 0.08169 0.79772
 C2653 C 0.78668 0.58789 0.81045
 C2654 C 0.80267 0.59517 0.80398
 C2655 C 0.81137 0.58590 0.79014
 C2656 C 0.80339 0.57087 0.78214
 C2657 C 0.78647 0.56449 0.78776
 C2658 C 0.77868 0.57310 0.80248
 C2659 C 0.76042 0.58105 0.80490
 C2660 C 0.76923 0.59690 0.81387
 H2661 H 0.82405 0.59054 0.78495
 H2662 H 0.81028 0.56480 0.77101
 H2663 H 0.75198 0.57303 0.81411
 H2664 H 0.75394 0.58482 0.79212
 H2665 H 0.76614 0.59777 0.82831
 H2666 H 0.76772 0.60963 0.80632
 C2667 C 0.80889 0.08800 0.28821
 C2668 C 0.80045 0.09696 0.30224
 C2669 C 0.78377 0.09028 0.30794
 C2670 C 0.77680 0.07428 0.30088
 C2671 C 0.78626 0.06436 0.28785
 C2672 C 0.80217 0.07206 0.28136
 C2673 C 0.82068 0.06453 0.27947
 C2674 C 0.82785 0.08207 0.28655
 H2675 H 0.77631 0.09698 0.31832
 H2676 H 0.76436 0.06935 0.30636
 H2677 H 0.82436 0.06207 0.26535
 H2678 H 0.82335 0.05321 0.28872
 H2679 H 0.83530 0.08991 0.27639
 H2680 H 0.83464 0.08076 0.29965
 C2681 C 0.71183 0.41151 0.30969
 C2682 C 0.69584 0.40432 0.30318
 C2683 C 0.68723 0.41369 0.28935
 C2684 C 0.69530 0.42873 0.28139
 C2685 C 0.71225 0.43501 0.28704
 C2686 C 0.71993 0.42629 0.30177
 C2687 C 0.73814 0.41825 0.30424
 C2688 C 0.72922 0.40241 0.31317
 H2689 H 0.67452 0.40915 0.28419
 H2690 H 0.68846 0.43492 0.27030
 H2691 H 0.74657 0.42622 0.31348
 H2692 H 0.74466 0.41452 0.29146
 H2693 H 0.73223 0.40148 0.32762
 H2694 H 0.73072 0.38970 0.30563
 C2695 C 0.69110 0.91168 0.78740
 C2696 C 0.69932 0.90284 0.80162
 C2697 C 0.71597 0.90948 0.80738
 C2698 C 0.72303 0.92543 0.80028
 C2699 C 0.71372 0.93531 0.78713
 C2700 C 0.69791 0.92757 0.78051
 C2701 C 0.67942 0.93505 0.77822
 C2702 C 0.67216 0.91753 0.78532
 H2703 H 0.72330 0.90284 0.81789
 H2704 H 0.73539 0.93038 0.80589
 H2705 H 0.67603 0.93741 0.76402
 H2706 H 0.67649 0.94639 0.78734
 H2707 H 0.66497 0.90961 0.77507
 H2708 H 0.66505 0.91891 0.79826
 C2709 C 0.21263 0.41271 0.80968
 C2710 C 0.19679 0.40536 0.80299
 C2711 C 0.18831 0.41460 0.78899
 C2712 C 0.19630 0.42972 0.78114
 C2713 C 0.21306 0.43623 0.78705
 C2714 C 0.22066 0.42760 0.80186
 C2715 C 0.23893 0.41972 0.80444
 C2716 C 0.23009 0.40378 0.81325
 H2717 H 0.17575 0.40991 0.78363
 H2718 H 0.18957 0.43581 0.76993
 H2719 H 0.24721 0.42773 0.81376
 H2720 H 0.24559 0.41610 0.79170
 H2721 H 0.23302 0.40280 0.82772
 H2722 H 0.23177 0.39111 0.80569
 C2723 C 0.18996 0.91147 0.28664
 C2724 C 0.19657 0.90440 0.30259
 C2725 C 0.21052 0.91378 0.31101
 C2726 C 0.21843 0.92876 0.30287
 C2727 C 0.21260 0.93502 0.28607
 C2728 C 0.19782 0.92626 0.27849
 C2729 C 0.19553 0.91808 0.26045
 C2730 C 0.18668 0.90222 0.26941
 H2731 H 0.21581 0.90931 0.32364
 H2732 H 0.22963 0.93497 0.30956
 H2733 H 0.20848 0.91444 0.25407
 H2734 H 0.18621 0.92591 0.25195
 H2735 H 0.19442 0.88957 0.26809
 H2736 H 0.17217 0.90114 0.26636
 C2737 C 0.41412 0.29138 0.68796
 C2738 C 0.40469 0.30516 0.69642
 C2739 C 0.41260 0.31275 0.71171
 C2740 C 0.42821 0.30529 0.71922
 C2741 C 0.43633 0.29003 0.71163
 C2742 C 0.42950 0.28409 0.69535
 C2743 C 0.42486 0.26562 0.68946
 C2744 C 0.40798 0.27355 0.68139
 H2745 H 0.40645 0.32401 0.71836
 H2746 H 0.43356 0.31122 0.73121
 H2747 H 0.42220 0.25644 0.70082
 H2748 H 0.43440 0.26045 0.67934
 H2749 H 0.39549 0.26894 0.68801
 H2750 H 0.40785 0.27285 0.66662
 C2751 C 0.41065 0.78677 0.19097
 C2752 C 0.40124 0.80055 0.19940
 C2753 C 0.40752 0.80618 0.21614
 C2754 C 0.42355 0.79932 0.22323
 C2755 C 0.43390 0.78653 0.21386
 C2756 C 0.42662 0.78008 0.19783
 C2757 C 0.43452 0.77872 0.17953
 C2758 C 0.41695 0.78563 0.17221
 H2759 H 0.40047 0.81637 0.22357
 H2760 H 0.42814 0.80479 0.23573
 H2761 H 0.43736 0.76464 0.17567
 H2762 H 0.44568 0.78829 0.17727
 H2763 H 0.40948 0.77541 0.16448
 H2764 H 0.41806 0.79897 0.16573
 C2765 C 0.91154 0.28706 0.18951
 C2766 C 0.90439 0.30315 0.19584
 C2767 C 0.91378 0.31191 0.20953
 C2768 C 0.92879 0.30387 0.21756
 C2769 C 0.93501 0.28679 0.21216
 C2770 C 0.92627 0.27896 0.19754
 C2771 C 0.91809 0.26078 0.19536
 C2772 C 0.90234 0.26970 0.18628
 H2773 H 0.90926 0.32470 0.21456
 H2774 H 0.93494 0.31082 0.22857
 H2775 H 0.91429 0.25452 0.20825
 H2776 H 0.92601 0.25213 0.18627
 H2777 H 0.88959 0.26845 0.19382
 H2778 H 0.90144 0.26651 0.17187
 C2779 C 0.91054 0.81012 0.71308
 C2780 C 0.90473 0.80508 0.69614
 C2781 C 0.91610 0.79385 0.68615
 C2782 C 0.93162 0.78641 0.69384
 C2783 C 0.93604 0.78977 0.71183
 C2784 C 0.92569 0.80262 0.72072
 C2785 C 0.91730 0.80206 0.73875
 C2786 C 0.90070 0.81031 0.73038
 H2787 H 0.91281 0.79038 0.67257
 H2788 H 0.93982 0.77770 0.68573
 H2789 H 0.92406 0.81117 0.74828
 H2790 H 0.91519 0.78817 0.74364
 H2791 H 0.89800 0.82415 0.73508
 H2792 H 0.88891 0.80123 0.73044
 C2793 C 0.58502 0.31079 0.28950
 C2794 C 0.59403 0.30222 0.30345
 C2795 C 0.58570 0.28703 0.31099
 C2796 C 0.57018 0.27964 0.30330
 C2797 C 0.56255 0.28724 0.28786
 C2798 C 0.56971 0.30353 0.28199
 C2799 C 0.57482 0.30940 0.26371
 C2800 C 0.59162 0.31734 0.27189
 H2801 H 0.59145 0.28033 0.32239
 H2802 H 0.56449 0.26771 0.30921
 H2803 H 0.56550 0.31970 0.25838
 H2804 H 0.57754 0.29796 0.25465
 H2805 H 0.59194 0.33220 0.27118
 H2806 H 0.60413 0.31053 0.26756
 C2807 C 0.58842 0.78710 0.80890
 C2808 C 0.59756 0.80117 0.80067
 C2809 C 0.59127 0.80688 0.78393
 C2810 C 0.57539 0.79979 0.77670
 C2811 C 0.56523 0.78678 0.78598
 C2812 C 0.57259 0.78027 0.80196
 C2813 C 0.56472 0.77850 0.82025
 C2814 C 0.58218 0.78553 0.82765
 H2815 H 0.59817 0.81728 0.77665
 H2816 H 0.57074 0.80527 0.76421
 H2817 H 0.56212 0.76432 0.82392
 H2818 H 0.55343 0.78790 0.82268
 H2819 H 0.58983 0.77528 0.83520
 H2820 H 0.58083 0.79873 0.83434
 C2821 C 0.08845 0.28689 0.80810
 C2822 C 0.09750 0.30100 0.79981
 C2823 C 0.09105 0.30673 0.78314
 C2824 C 0.07515 0.29960 0.77601
 C2825 C 0.06513 0.28649 0.78531
 C2826 C 0.07262 0.27998 0.80124
 C2827 C 0.06484 0.27817 0.81956
 C2828 C 0.08229 0.28531 0.82688
 H2829 H 0.09784 0.31720 0.77583
 H2830 H 0.07038 0.30507 0.76355
 H2831 H 0.06235 0.26396 0.82324
 H2832 H 0.05350 0.28750 0.82204
 H2833 H 0.09002 0.27511 0.83442
 H2834 H 0.08089 0.29852 0.83355
 C2835 C 0.08778 0.78660 0.30888
 C2836 C 0.09706 0.80056 0.30060
 C2837 C 0.09103 0.80603 0.28369
 C2838 C 0.07526 0.79889 0.27632
 C2839 C 0.06492 0.78602 0.28560
 C2840 C 0.07204 0.77969 0.30177
 C2841 C 0.06390 0.77816 0.31997
 C2842 C 0.08124 0.78530 0.32754
 H2843 H 0.09805 0.81633 0.27635
 H2844 H 0.07083 0.80424 0.26370
 H2845 H 0.06125 0.76402 0.32378
 H2846 H 0.05255 0.78757 0.32209
 H2847 H 0.08877 0.77516 0.33538
 H2848 H 0.07978 0.79860 0.33402
 C2849 C 0.59137 0.69304 0.71635
 C2850 C 0.59826 0.69941 0.70019
 C2851 C 0.59080 0.71539 0.69341
 C2852 C 0.57558 0.72315 0.70136
 C2853 C 0.56738 0.71513 0.71630
 C2854 C 0.57638 0.70073 0.72420
 C2855 C 0.56940 0.68310 0.73036
 C2856 C 0.58577 0.67463 0.72176
 H2857 H 0.59612 0.72157 0.68152
 H2858 H 0.56988 0.73503 0.69535
 H2859 H 0.55660 0.67938 0.72380
 H2860 H 0.56938 0.68199 0.74511
 H2861 H 0.58250 0.66597 0.71020
 H2862 H 0.59511 0.66861 0.73160
 C2863 C 0.58946 0.18932 0.21162
 C2864 C 0.59837 0.19763 0.19748
 C2865 C 0.59177 0.21436 0.19180
 C2866 C 0.57588 0.22150 0.19896
 C2867 C 0.56600 0.21221 0.21213
 C2868 C 0.57362 0.19623 0.21860
 C2869 C 0.56594 0.17780 0.22055
 C2870 C 0.58337 0.17043 0.21332
 H2871 H 0.59845 0.22174 0.18134
 H2872 H 0.57100 0.23395 0.19344
 H2873 H 0.55452 0.17526 0.21141
 H2874 H 0.56354 0.17414 0.23470
 H2875 H 0.58191 0.16365 0.20024
 H2876 H 0.59120 0.16288 0.22342
 C2877 C 0.09134 0.69307 0.21548
 C2878 C 0.09821 0.69952 0.19933
 C2879 C 0.09075 0.71554 0.19265
 C2880 C 0.07554 0.72326 0.20066
 C2881 C 0.06736 0.71515 0.21557
 C2882 C 0.07638 0.70073 0.22339
 C2883 C 0.06942 0.68310 0.22960
 C2884 C 0.08576 0.67465 0.22091
 H2885 H 0.09602 0.72176 0.18076
 H2886 H 0.06981 0.73515 0.19470
 H2887 H 0.05659 0.67937 0.22311
 H2888 H 0.06948 0.68200 0.24436
 H2889 H 0.08244 0.66598 0.20937
 H2890 H 0.09515 0.66862 0.23070
 C2891 C 0.09149 0.19270 0.71553
 C2892 C 0.09834 0.19910 0.69935
 C2893 C 0.09083 0.21509 0.69262
 C2894 C 0.07560 0.22280 0.70061
 C2895 C 0.06745 0.21475 0.71557
 C2896 C 0.07651 0.20035 0.72342
 C2897 C 0.06956 0.18270 0.72960
 C2898 C 0.08594 0.17428 0.72095
 H2899 H 0.09610 0.22128 0.68071
 H2900 H 0.06985 0.23465 0.69461
 H2901 H 0.05676 0.17896 0.72306
 H2902 H 0.06957 0.18158 0.74434
 H2903 H 0.08265 0.16563 0.70938
 H2904 H 0.09531 0.16827 0.73076
 C2905 C 0.40810 0.69347 0.28422
 C2906 C 0.40122 0.69990 0.30035
 C2907 C 0.40867 0.71588 0.30705
 C2908 C 0.42387 0.72360 0.29904
 C2909 C 0.43204 0.71555 0.28410
 C2910 C 0.42305 0.70113 0.27631
 C2911 C 0.43009 0.68349 0.27023
 C2912 C 0.41376 0.67505 0.27891
 H2913 H 0.40336 0.72209 0.31892
 H2914 H 0.42957 0.73548 0.30498
 H2915 H 0.44291 0.67981 0.27679
 H2916 H 0.43009 0.68235 0.25548
 H2917 H 0.41709 0.66641 0.29051
 H2918 H 0.40443 0.66899 0.26912
 C2919 C 0.41401 0.20970 0.81088
 C2920 C 0.40464 0.19594 0.80236
 C2921 C 0.41256 0.18849 0.78697
 C2922 C 0.42815 0.19605 0.77949
 C2923 C 0.43622 0.21127 0.78717
 C2924 C 0.42934 0.21708 0.80351
 C2925 C 0.42458 0.23550 0.80952
 C2926 C 0.40775 0.22746 0.81757
 H2927 H 0.40645 0.17726 0.78027
 H2928 H 0.43357 0.19019 0.76747
 H2929 H 0.42188 0.24475 0.79823
 H2930 H 0.43408 0.24063 0.81966
 H2931 H 0.39524 0.23205 0.81099
 H2932 H 0.40760 0.22807 0.83235
 C2933 C 0.91056 0.69123 0.78611
 C2934 C 0.90506 0.69593 0.80326
 C2935 C 0.91653 0.70708 0.81318
 C2936 C 0.93178 0.71482 0.80525
 C2937 C 0.93581 0.71185 0.78709
 C2938 C 0.92545 0.69901 0.77824
 C2939 C 0.91668 0.69972 0.76042
 C2940 C 0.90037 0.69117 0.76904
 H2941 H 0.91349 0.71031 0.82688
 H2942 H 0.94003 0.72348 0.81332
 H2943 H 0.92338 0.69080 0.75063
 H2944 H 0.91428 0.71365 0.75576
 H2945 H 0.89776 0.67737 0.76420
 H2946 H 0.88847 0.70011 0.76937
 C2947 C 0.91106 0.21331 0.30890
 C2948 C 0.90384 0.19726 0.30258
 C2949 C 0.91329 0.18837 0.28898
 C2950 C 0.92848 0.19619 0.28108
 C2951 C 0.93489 0.21313 0.28659
 C2952 C 0.92603 0.22114 0.30106
 C2953 C 0.91809 0.23946 0.30306
 C2954 C 0.90204 0.23083 0.31188
 H2955 H 0.90870 0.17564 0.28394
 H2956 H 0.93468 0.18915 0.27012
 H2957 H 0.91464 0.24577 0.29009
 H2958 H 0.92595 0.24799 0.31227
 H2959 H 0.88947 0.23227 0.30408
 H2960 H 0.90087 0.23414 0.32624
 C2961 C 0.30887 0.28942 0.58612
 C2962 C 0.30118 0.30377 0.59517
 C2963 C 0.28520 0.31066 0.58762
 C2964 C 0.27774 0.30315 0.57194
 C2965 C 0.28603 0.28849 0.56321
 C2966 C 0.30184 0.28233 0.57098
 C2967 C 0.31593 0.26824 0.56967
 C2968 C 0.32388 0.27631 0.58673
 H2969 H 0.27832 0.32182 0.59370
 H2970 H 0.26562 0.30901 0.56662
 H2971 H 0.32475 0.26999 0.55790
 H2972 H 0.31041 0.25456 0.57156
 H2973 H 0.33711 0.28279 0.58467
 H2974 H 0.32297 0.26724 0.59843
 C2975 C 0.28571 0.81007 0.08815
 C2976 C 0.30287 0.80534 0.09390
 C2977 C 0.31313 0.79433 0.08257
 C2978 C 0.30554 0.78681 0.06713
 C2979 C 0.28736 0.78984 0.06276
 C2980 C 0.27816 0.80249 0.07309
 C2981 C 0.26007 0.80154 0.08150
 C2982 C 0.26835 0.80985 0.09799
 H2983 H 0.32687 0.79112 0.08582
 H2984 H 0.31390 0.77832 0.05896
 H2985 H 0.25546 0.78755 0.08356
 H2986 H 0.25025 0.81051 0.07485
 H2987 H 0.26856 0.80069 0.10967
 H2988 H 0.26333 0.82358 0.10076
 C2989 C 0.80824 0.28866 0.08637
 C2990 C 0.80065 0.30308 0.09537
 C2991 C 0.78461 0.30996 0.08792
 C2992 C 0.77708 0.30241 0.07229
 C2993 C 0.78537 0.28779 0.06351
 C2994 C 0.80116 0.28157 0.07126
 C2995 C 0.81534 0.26759 0.06980
 C2996 C 0.82333 0.27562 0.08685
 H2997 H 0.77776 0.32113 0.09404
 H2998 H 0.76495 0.30828 0.06701
 H2999 H 0.82409 0.26947 0.05799
 H3000 H 0.80993 0.25386 0.07164
 H3001 H 0.83650 0.28219 0.08474
 H3002 H 0.82253 0.26650 0.09852
 C3003 C 0.80819 0.78913 0.58697
 C3004 C 0.80048 0.80347 0.59601
 C3005 C 0.78453 0.81040 0.58843
 C3006 C 0.77712 0.80291 0.57272
 C3007 C 0.78543 0.78826 0.56400
 C3008 C 0.80120 0.78206 0.57181
 C3009 C 0.81530 0.76799 0.57050
 C3010 C 0.82322 0.77603 0.58759
 H3011 H 0.77764 0.82155 0.59452
 H3012 H 0.76502 0.80879 0.56736
 H3013 H 0.82415 0.76977 0.55875
 H3014 H 0.80979 0.75430 0.57235
 H3015 H 0.83644 0.78253 0.58555
 H3016 H 0.82230 0.76693 0.59926
 C3017 C 0.30881 0.71290 0.41252
 C3018 C 0.30042 0.69888 0.40349
 C3019 C 0.28355 0.69336 0.40983
 C3020 C 0.27637 0.70048 0.42564
 C3021 C 0.28577 0.71344 0.43569
 C3022 C 0.30187 0.71983 0.42828
 C3023 C 0.32028 0.72154 0.43600
 C3024 C 0.32768 0.71436 0.41866
 H3025 H 0.27611 0.68302 0.40304
 H3026 H 0.26382 0.69505 0.43033
 H3027 H 0.32271 0.71221 0.44729
 H3028 H 0.32403 0.73571 0.43848
 H3029 H 0.33435 0.70112 0.42004
 H3030 H 0.33533 0.72452 0.41098
 C3031 C 0.30962 0.21352 0.91200
 C3032 C 0.30307 0.19749 0.90494
 C3033 C 0.28924 0.18888 0.91438
 C3034 C 0.28133 0.19694 0.92936
 C3035 C 0.28703 0.21388 0.93557
 C3036 C 0.30175 0.22161 0.92677
 C3037 C 0.30406 0.23982 0.91872
 C3038 C 0.31291 0.23092 0.90289
 H3039 H 0.28402 0.17616 0.90994
 H3040 H 0.27021 0.19009 0.93557
 H3041 H 0.31339 0.24831 0.92652
 H3042 H 0.29113 0.24628 0.91515
 H3043 H 0.32742 0.23400 0.90178
 H3044 H 0.30517 0.23234 0.89034
 C3045 C 0.78638 0.69176 0.91194
 C3046 C 0.80036 0.70017 0.90281
 C3047 C 0.80594 0.71700 0.90914
 C3048 C 0.79886 0.72415 0.92501
 C3049 C 0.78591 0.71473 0.93512
 C3050 C 0.77951 0.69865 0.92775
 C3051 C 0.77789 0.68020 0.93548
 C3052 C 0.78497 0.67287 0.91808
 H3053 H 0.81628 0.72442 0.90229
 H3054 H 0.80432 0.73667 0.92969
 H3055 H 0.76374 0.67642 0.93809
 H3056 H 0.78730 0.67775 0.94668
 H3057 H 0.77478 0.66523 0.91049
 H3058 H 0.79823 0.66620 0.91936
 C3059 C 0.78982 0.18871 0.41535
 C3060 C 0.80370 0.19725 0.40613
 C3061 C 0.81128 0.21256 0.41414
 C3062 C 0.80373 0.22001 0.42967
 C3063 C 0.78840 0.21235 0.43760
 C3064 C 0.78245 0.19604 0.43064
 C3065 C 0.76400 0.19021 0.42584
 C3066 C 0.77202 0.18220 0.40906
 H3067 H 0.82259 0.21927 0.40816
 H3068 H 0.80968 0.23199 0.43515
 H3069 H 0.75486 0.20168 0.42322
 H3070 H 0.75874 0.17997 0.43521
 H3071 H 0.76754 0.18899 0.39666
 H3072 H 0.77130 0.16734 0.40880
 C3073 C 0.71284 0.30801 0.41130
 C3074 C 0.69906 0.29940 0.40211
 C3075 C 0.69343 0.28265 0.40865
 C3076 C 0.70019 0.27581 0.42476
 C3077 C 0.71292 0.28542 0.43489
 C3078 C 0.71945 0.30138 0.42732
 C3079 C 0.72092 0.31993 0.43477
 C3080 C 0.71410 0.32700 0.41715
 H3081 H 0.68326 0.27505 0.40178
 H3082 H 0.69467 0.26334 0.42957
 H3083 H 0.73503 0.32378 0.43749
 H3084 H 0.71135 0.32251 0.44581
 H3085 H 0.72439 0.33456 0.40957
 H3086 H 0.70080 0.33364 0.41814
 C3087 C 0.71241 0.80920 0.91274
 C3088 C 0.69824 0.80092 0.90384
 C3089 C 0.69225 0.78437 0.91060
 C3090 C 0.69917 0.77740 0.92660
 C3091 C 0.71239 0.78670 0.93640
 C3092 C 0.71917 0.80246 0.92865
 C3093 C 0.72125 0.82098 0.93602
 C3094 C 0.71423 0.82816 0.91852
 H3095 H 0.68174 0.77703 0.90395
 H3096 H 0.69347 0.76508 0.93159
 H3097 H 0.73549 0.82448 0.93844
 H3098 H 0.71195 0.82383 0.94724
 H3099 H 0.72454 0.83548 0.91071
 H3100 H 0.70110 0.83510 0.91975
 C3101 C 0.21270 0.30899 0.91151
 C3102 C 0.19859 0.30069 0.90253
 C3103 C 0.19278 0.28399 0.90907
 C3104 C 0.19974 0.27692 0.92500
 C3105 C 0.21283 0.28624 0.93494
 C3106 C 0.21948 0.30215 0.92737
 C3107 C 0.22138 0.32062 0.93490
 C3108 C 0.21437 0.32791 0.91745
 H3109 H 0.18233 0.27663 0.90236
 H3110 H 0.19413 0.26451 0.92986
 H3111 H 0.23559 0.32422 0.93742
 H3112 H 0.21204 0.32330 0.94612
 H3113 H 0.22465 0.33535 0.90974
 H3114 H 0.20121 0.33477 0.91872
 C3115 C 0.21550 0.80622 0.40913
 C3116 C 0.19932 0.79981 0.40221
 C3117 C 0.19242 0.78392 0.40976
 C3118 C 0.20030 0.77629 0.42502
 C3119 C 0.21531 0.78431 0.43314
 C3120 C 0.22329 0.79864 0.42411
 C3121 C 0.22940 0.81630 0.43099
 C3122 C 0.22084 0.82467 0.41464
 H3123 H 0.18047 0.77776 0.40450
 H3124 H 0.19420 0.76450 0.43078
 H3125 H 0.24424 0.81742 0.43107
 H3126 H 0.22271 0.82010 0.44366
 H3127 H 0.23077 0.83065 0.40537
 H3128 H 0.20915 0.83333 0.41778
 C3129 C 0.71470 0.69274 0.58958
 C3130 C 0.69850 0.69859 0.59676
 C3131 C 0.69066 0.71359 0.58819
 C3132 C 0.69863 0.72137 0.57287
 C3133 C 0.71474 0.71445 0.56556
 C3134 C 0.72244 0.70032 0.57498
 C3135 C 0.73673 0.68644 0.57386
 C3136 C 0.72804 0.67793 0.59039
 H3137 H 0.67823 0.71921 0.59299
 H3138 H 0.69204 0.73272 0.56676
 H3139 H 0.75027 0.69196 0.57649
 H3140 H 0.73553 0.67808 0.56171
 H3141 H 0.73652 0.67867 0.60251
 H3142 H 0.72192 0.66466 0.58770
 C3143 C 0.68977 0.20899 0.08436
 C3144 C 0.69862 0.19529 0.09356
 C3145 C 0.71387 0.18775 0.08533
 C3146 C 0.72096 0.19519 0.06958
 C3147 C 0.71300 0.21037 0.06164
 C3148 C 0.69674 0.21627 0.06885
 C3149 C 0.69079 0.23472 0.07358
 C3150 C 0.68317 0.22680 0.09061
 H3151 H 0.72080 0.17654 0.09130
 H3152 H 0.73293 0.18929 0.06394
 H3153 H 0.68031 0.23979 0.06437
 H3154 H 0.70218 0.24398 0.07587
 H3155 H 0.66831 0.22740 0.09117
 H3156 H 0.69013 0.23146 0.10282
 C3157 C 0.19168 0.71287 0.08727
 C3158 C 0.20020 0.69985 0.09749
 C3159 C 0.21815 0.69609 0.09274
 C3160 C 0.22623 0.70431 0.07770
 C3161 C 0.21655 0.71642 0.06673
 C3162 C 0.19936 0.72068 0.07275
 C3163 C 0.18212 0.72874 0.06670
 C3164 C 0.17352 0.71993 0.08311
 H3165 H 0.22598 0.68668 0.10043
 H3166 H 0.23997 0.70094 0.07469
 H3167 H 0.17738 0.72300 0.05390
 H3168 H 0.18218 0.74360 0.06742
 H3169 H 0.16386 0.70917 0.07970
 H3170 H 0.16880 0.72975 0.09319
 C3171 C 0.21492 0.19275 0.58876
 C3172 C 0.19871 0.19855 0.59597
 C3173 C 0.19085 0.21356 0.58745
 C3174 C 0.19878 0.22140 0.57213
 C3175 C 0.21490 0.21453 0.56480
 C3176 C 0.22264 0.20039 0.57417
 C3177 C 0.23698 0.18657 0.57304
 C3178 C 0.22832 0.17799 0.58956
 H3179 H 0.17842 0.21917 0.59228
 H3180 H 0.19216 0.23274 0.56605
 H3181 H 0.25050 0.19214 0.57569
 H3182 H 0.23583 0.17823 0.56087
 H3183 H 0.23678 0.17874 0.60168
 H3184 H 0.22226 0.16470 0.58683
   
