data_POSCAR
  _audit_creation_date              2014-09-24
  _audit_creation_method            'ToBaCCo'
  _symmetry_space_group_name_H-M    'P1'
  _symmetry_Int_Tables_number       1
  _symmetry_cell_setting            triclinic
  loop_
  _symmetry_equiv_pos_as_xyz
 x,y,z
_cell_length_a 39.0557
_cell_length_b 38.3716
_cell_length_c 38.2118
_cell_angle_alpha 89.602400
_cell_angle_beta 90.215300
_cell_angle_gamma 89.982100
loop_
  _atom_site_label
  _atom_site_type_symbol
  _atom_site_fract_x
  _atom_site_fract_y
  _atom_site_fract_z
N1 N 0.33950 1.34628 0.33765
 N2 N 0.34458 0.85241 0.85979
 N3 N 0.85998 1.35278 0.86090
 N4 N 0.84330 0.84483 0.34994
 N5 N 0.65417 0.65330 0.34826
 N6 N 0.65794 0.15597 0.84291
 N7 N 1.15233 0.64734 0.85187
 N8 N 1.15537 0.15494 0.34481
 N9 N 0.65834 1.34411 0.65166
 N10 N 0.64698 0.85130 1.15202
 N11 N 1.15653 1.35981 1.14483
 N12 N 1.15555 0.84223 0.66087
 N13 N 0.34032 0.65985 0.64707
 N14 N 0.34076 0.15780 1.15198
 N15 N 0.83992 0.65720 1.16406
 N16 N 0.85406 0.14094 0.64263
 N17 N 1.35749 0.35657 0.63861
 N18 N 1.35369 0.85312 1.14721
 N19 N 0.85119 0.35288 1.14776
 N20 N 0.85158 0.84952 0.65089
 N21 N 0.65345 0.65460 0.63909
 N22 N 0.65065 1.15231 1.15604
 N23 N 0.16206 0.64694 1.15113
 N24 N 0.15406 1.15185 0.65506
 N25 N 1.34673 0.64736 0.34759
 N26 N 1.33247 1.15288 0.83964
 N27 N 0.85734 0.64492 0.85690
 N28 N 0.84412 1.15447 0.34755
 N29 N 0.65279 0.35678 0.34779
 N30 N 0.64786 0.85782 0.85790
 N31 N 0.15439 0.35071 0.85818
 N32 N 0.15899 0.84126 0.34667
 O33 O 0.96799 0.86184 0.84009
 O34 O 0.96880 0.81920 0.80169
 C35 C 0.95652 0.84787 0.81230
 C36 C 0.92830 0.86478 0.79240
 C37 C 0.91745 0.85119 0.76016
 H38 H 0.93027 0.82864 0.74939
 O39 O 1.01997 1.12322 0.82594
 O40 O 1.01591 1.16256 0.78379
 C41 C 1.02986 1.13534 0.79673
 C42 C 1.05846 1.11802 0.77829
 C43 C 1.07012 1.13088 0.74603
 H44 H 1.05731 1.15295 0.73389
 O45 O 0.82830 0.95212 0.88083
 O46 O 0.78828 0.94787 0.84020
 C47 C 0.80066 0.93874 0.86964
 C48 C 0.78295 0.91215 0.89103
 C49 C 0.75101 0.89898 0.88061
 H50 H 0.73926 0.90849 0.85668
 O51 O 1.15982 1.03917 0.87316
 O52 O 1.19950 1.03987 0.83228
 C53 C 1.18711 1.05209 0.86043
 C54 C 1.20414 1.08169 0.87868
 C55 C 1.23747 1.09272 0.86956
 H56 H 1.25126 1.07952 0.84899
 O57 O 0.87745 0.82492 0.98339
 O58 O 0.83898 0.78292 0.98590
 C59 C 0.86621 0.79571 0.97293
 C60 C 0.88414 0.77669 0.94472
 C61 C 0.86969 0.74608 0.93151
 H62 H 0.84628 0.73595 0.94286
 O63 O 1.10811 1.18186 0.96202
 O64 O 1.14732 1.22303 0.95843
 C65 C 1.11940 1.20957 0.94793
 C66 C 1.10062 1.22586 0.91830
 C67 C 1.11310 1.25656 0.90307
 H68 H 1.13623 1.26793 0.91363
 O69 O 0.87159 1.01997 0.82935
 O70 O 0.83177 1.01556 0.78855
 C71 C 0.85856 1.03006 0.80054
 C72 C 0.87385 1.05980 0.78139
 C73 C 0.85973 1.07077 0.74937
 H74 H 0.83849 1.05659 0.73795
 O75 O 1.11653 0.96585 0.82917
 O76 O 1.15541 0.96629 0.78756
 C77 C 1.12886 0.95287 0.80138
 C78 C 1.11240 0.92130 0.78597
 C79 C 1.12259 0.90781 0.75327
 H80 H 1.14223 0.92100 0.73828
 O81 O 1.03785 0.81859 0.88917
 O82 O 1.03815 0.77586 0.85095
 C83 C 1.05062 0.79027 0.87792
 C84 C 1.08124 0.77502 0.89552
 C85 C 1.09692 0.74452 0.88277
 H86 H 1.08574 0.73132 0.86057
 O87 O 0.95187 1.16680 0.87474
 O88 O 0.94760 1.20696 0.83343
 C89 C 0.93786 1.19413 0.86253
 C90 C 0.90949 1.21050 0.88214
 C91 C 0.89779 1.24411 0.87337
 H92 H 0.90992 1.25840 0.85227
 O93 O 0.81547 1.10932 0.96865
 O94 O 0.77331 1.14750 0.96716
 C95 C 0.78726 1.11993 0.95580
 C96 C 0.77151 1.10093 0.92617
 C97 C 0.74078 1.11271 0.91086
 H98 H 0.72726 1.13433 0.92249
 O99 O 1.17415 0.88096 0.97402
 O100 O 1.21742 0.84406 0.97401
 C101 C 1.20254 0.87099 0.96149
 C102 C 1.21773 0.89064 0.93160
 C103 C 1.25065 0.88246 0.91917
 H104 H 1.26555 0.86262 0.93250
 O105 O 0.95347 1.12004 0.82573
 O106 O 0.94891 1.15976 0.78407
 C107 C 0.94005 1.13065 0.79719
 C108 C 0.91345 1.10917 0.77962
 C109 C 0.89923 1.11945 0.74719
 H110 H 0.90817 1.14304 0.73449
 O111 O 1.03437 0.86654 0.84110
 O112 O 1.03496 0.82415 0.80243
 C113 C 1.04552 0.85376 0.81281
 C114 C 1.07129 0.87323 0.79192
 C115 C 1.08105 0.86101 0.75898
 H116 H 1.06907 0.83783 0.74845
 O117 O 1.16302 0.97132 0.87742
 O118 O 1.20225 0.97204 0.83608
 C119 C 1.19145 0.96079 0.86542
 C120 C 1.21208 0.93473 0.88516
 C121 C 1.24508 0.92639 0.87360
 H122 H 1.25567 0.93982 0.85105
 O123 O 0.82443 1.01916 0.87653
 O124 O 0.78457 1.01493 0.83570
 C125 C 0.79585 1.02866 0.86363
 C126 C 0.77597 1.05652 0.88086
 C127 C 0.74511 1.06846 0.86612
 H128 H 0.73513 1.05646 0.84259
 O129 O 0.86030 1.15872 0.96673
 O130 O 0.81833 1.19724 0.96569
 C131 C 0.84694 1.18633 0.95434
 C132 C 0.86477 1.20610 0.92656
 C133 C 0.85330 1.23945 0.91719
 H134 H 0.83153 1.25075 0.93051
 O135 O 1.13164 0.82938 0.97673
 O136 O 1.17457 0.79204 0.97653
 C137 C 1.14546 0.80181 0.96520
 C138 C 1.12791 0.78131 0.93783
 C139 C 1.14317 0.75104 0.92471
 H140 H 1.16738 0.74211 0.93546
 O141 O 1.11228 1.03458 0.82566
 O142 O 1.15162 1.03535 0.78450
 C143 C 1.12352 1.04648 0.79677
 C144 C 1.10434 1.07453 0.77814
 C145 C 1.11588 1.08806 0.74590
 H146 H 1.13791 1.07641 0.73352
 O147 O 0.87503 0.95162 0.83252
 O148 O 0.83527 0.94728 0.79168
 C149 C 0.86365 0.93753 0.80482
 C150 C 0.88321 0.90887 0.78838
 C151 C 0.87290 0.89503 0.75598
 H152 H 0.85081 0.90595 0.74270
 O153 O 1.01841 1.17437 0.86970
 O154 O 1.01436 1.21406 0.82791
 C155 C 1.02807 1.20314 0.85612
 C156 C 1.05625 1.22315 0.87304
 C157 C 1.06927 1.25423 0.85807
 H158 H 1.05791 1.26475 0.83434
 O159 O 0.97018 0.81839 0.89254
 O160 O 0.97023 0.77593 0.85400
 C161 C 0.95830 0.78963 0.88165
 C162 C 0.92919 0.77301 0.90041
 C163 C 0.91410 0.74221 0.88762
 H164 H 0.92465 0.72984 0.86470
 O165 O 1.15629 1.13549 0.96332
 O166 O 1.19564 1.17661 0.95985
 C167 C 1.18378 1.14733 0.95021
 C168 C 1.20232 1.12725 0.92333
 C169 C 1.23582 1.13681 0.91470
 H170 H 1.24825 1.15796 0.92849
 O171 O 0.82862 0.87034 0.98207
 O172 O 0.79011 0.82836 0.98468
 C173 C 0.80125 0.85637 0.97097
 C174 C 0.78300 0.87217 0.94094
 C175 C 0.75126 0.85901 0.92999
 H176 H 0.73923 0.83798 0.94450
 Cu177 Cu 1.00251 0.84532 0.86979
 Cu178 Cu 1.00326 0.79438 0.82372
 Cu179 Cu 0.98628 1.14231 0.85325
 Cu180 Cu 0.98109 1.18970 0.80323
 Cu181 Cu 0.85403 0.98601 0.85875
 Cu182 Cu 0.80615 0.98082 0.80974
 Cu183 Cu 1.13382 1.00273 0.85521
 Cu184 Cu 1.18090 1.00340 0.80593
 C185 C 0.91125 0.89386 0.80608
 H186 H 0.91912 0.90412 0.83120
 C187 C 0.89013 0.86631 0.74154
 C188 C 1.07552 1.08963 0.79392
 H189 H 1.06689 1.07986 0.81904
 C190 C 1.09899 1.11650 0.72983
 C191 C 0.79847 0.89900 0.92153
 H192 H 0.82329 0.90883 0.92951
 C193 C 0.73492 0.87260 0.90020
 C194 C 1.18681 1.09931 0.90567
 H195 H 1.16096 1.09174 0.91250
 C196 C 1.25341 1.12015 0.88788
 C197 C 0.91411 0.78986 0.92924
 H198 H 0.92500 0.81394 0.93887
 C199 C 0.88417 0.72877 0.90308
 C200 C 1.07191 1.20962 0.90348
 H201 H 1.06258 1.18556 0.91494
 C202 C 1.09747 1.27143 0.87332
 C203 C 0.90088 1.07896 0.79617
 H204 H 0.91135 1.07100 0.82128
 C205 C 0.87237 1.10019 0.73194
 C206 C 1.08673 0.90362 0.80497
 H207 H 1.07918 0.91316 0.83041
 C208 C 1.10670 0.87770 0.73961
 C209 C 1.09678 0.79286 0.92338
 H210 H 1.08524 0.81659 0.93303
 C211 C 1.12796 0.73234 0.89742
 C212 C 0.89309 1.19189 0.90916
 H213 H 0.90178 1.16591 0.91603
 C214 C 0.86991 1.25882 0.89122
 C215 C 0.78878 1.07270 0.91105
 H216 H 0.81284 1.06394 0.92223
 C217 C 0.72771 1.09688 0.88049
 C218 C 1.19870 0.91698 0.91440
 H219 H 1.17308 0.92310 0.92323
 C220 C 1.26435 0.90017 0.88994
 O221 O 1.04317 0.88035 1.17828
 O222 O 1.04632 0.84115 1.22060
 C223 C 1.05626 0.86960 1.20682
 C224 C 1.08367 0.89007 1.22385
 C225 C 1.09750 0.87919 1.25607
 H226 H 1.08667 0.85669 1.26914
 O227 O 0.96368 1.13336 1.16853
 O228 O 0.96161 1.17501 1.20801
 C229 C 0.95251 1.14521 1.19732
 C230 C 0.92834 1.12465 1.21857
 C231 C 0.91992 1.13577 1.25230
 H232 H 0.93212 1.15866 1.26321
 O233 O 0.82940 1.02974 1.13661
 O234 O 0.79241 1.03006 1.18011
 C235 C 0.80163 1.04052 1.14997
 C236 C 0.78018 1.06572 1.13028
 C237 C 0.74780 1.07542 1.14262
 H238 H 0.73791 1.06376 1.16644
 O239 O 1.17366 0.97861 1.12700
 O240 O 1.21346 0.98318 1.16781
 C241 C 1.20201 0.96885 1.14028
 C242 C 1.22106 0.93964 1.12424
 C243 C 1.25189 0.92761 1.13906
 H244 H 1.26266 0.94068 1.16161
 O245 O 1.13385 0.83028 1.04455
 O246 O 1.17590 0.79196 1.04478
 C247 C 1.14738 0.80256 1.05669
 C248 C 1.12914 0.78332 1.08502
 C249 C 1.13801 0.74903 1.09547
 H250 H 1.15896 0.73572 1.08275
 O251 O 0.86043 1.16237 1.03408
 O252 O 0.81810 1.20045 1.03302
 C253 C 0.84713 1.19066 1.04454
 C254 C 0.86550 1.21214 1.07061
 C255 C 0.85197 1.24420 1.08142
 H256 H 0.82819 1.25365 1.07011
 O257 O 0.88275 0.96638 1.18425
 O258 O 0.84583 0.96635 1.22777
 C259 C 0.87306 0.95491 1.21385
 C260 C 0.89302 0.92711 1.23161
 C261 C 0.88213 0.91328 1.26387
 H262 H 0.86008 0.92441 1.27675
 O263 O 1.12215 1.04606 1.17016
 O264 O 1.16185 1.05058 1.21107
 C265 C 1.13340 1.06013 1.19790
 C266 C 1.11370 1.08846 1.21458
 C267 C 1.12280 1.10017 1.24807
 H268 H 1.14311 1.08700 1.26224
 O269 O 0.97584 0.82859 1.13607
 O270 O 0.97818 0.78954 1.17866
 C271 C 0.96487 0.80077 1.15034
 C272 C 0.93561 0.78218 1.13423
 C273 C 0.92425 0.74994 1.14755
 H274 H 0.93766 0.73780 1.16932
 O275 O 1.02458 1.18676 1.11826
 O276 O 1.02184 1.22801 1.15801
 C277 C 1.03425 1.21616 1.12998
 C278 C 1.06147 1.23578 1.11176
 C279 C 1.07298 1.26802 1.12433
 H280 H 1.06021 1.27994 1.14637
 O281 O 0.82839 0.87165 1.05060
 O282 O 0.78995 0.82968 1.05319
 C283 C 0.80127 0.85875 1.06377
 C284 C 0.78395 0.87744 1.09263
 C285 C 0.75205 0.86662 1.10620
 H286 H 0.73889 0.84464 1.09471
 O287 O 1.15893 1.13902 1.03115
 O288 O 1.19826 1.18011 1.02738
 C289 C 1.18730 1.15194 1.04095
 C290 C 1.20756 1.13417 1.06857
 C291 C 1.24062 1.14575 1.07712
 H292 H 1.25172 1.16754 1.06298
 O293 O 1.02961 1.13716 1.16424
 O294 O 1.02735 1.17816 1.20439
 C295 C 1.04056 1.15029 1.19252
 C296 C 1.06882 1.13286 1.21176
 C297 C 1.07833 1.14416 1.24526
 H298 H 1.06487 1.16572 1.25719
 O299 O 0.97679 0.87789 1.18176
 O300 O 0.98009 0.83889 1.22432
 C301 C 0.96696 0.86636 1.21132
 C302 C 0.93917 0.88416 1.23033
 C303 C 0.92820 0.87108 1.26277
 H304 H 0.94118 0.84895 1.27461
 O305 O 1.16918 1.04646 1.12276
 O306 O 1.20921 1.05109 1.16334
 C307 C 1.19623 1.06074 1.13432
 C308 C 1.21207 1.08950 1.11418
 C309 C 1.24497 1.10162 1.12265
 H310 H 1.25946 1.08862 1.14311
 O311 O 0.83291 0.96276 1.13987
 O312 O 0.79577 0.96300 1.18326
 C313 C 0.80622 0.95074 1.15442
 C314 C 0.78731 0.92212 1.13764
 C315 C 0.75598 0.91082 1.15120
 H316 H 0.74533 0.92347 1.17400
 O317 O 1.11300 1.18806 1.02997
 O318 O 1.15211 1.22931 1.02658
 C319 C 1.12496 1.21719 1.04006
 C320 C 1.10706 1.23615 1.06835
 C321 C 1.11893 1.26823 1.08166
 H322 H 1.14110 1.28054 1.07000
 O323 O 0.87902 0.82775 1.05119
 O324 O 0.84073 0.78560 1.05366
 C325 C 0.86854 0.79918 1.06414
 C326 C 0.88849 0.78178 1.09209
 C327 C 0.87781 0.74947 1.10534
 H328 H 0.85609 0.73668 1.09341
 O329 O 1.12681 0.97815 1.17443
 O330 O 1.16653 0.98270 1.21532
 C331 C 1.13971 0.96822 1.20338
 C332 C 1.12409 0.93861 1.22253
 C333 C 1.13769 0.92727 1.25473
 H334 H 1.15896 0.94116 1.26644
 O335 O 0.87987 1.03439 1.18050
 O336 O 0.84318 1.03452 1.22424
 C337 C 0.86935 1.04705 1.20909
 C338 C 0.88732 1.07711 1.22440
 C339 C 0.87849 1.08921 1.25778
 H340 H 0.85917 1.07575 1.27299
 O341 O 0.95784 1.17783 1.11723
 O342 O 0.95529 1.21917 1.15687
 C343 C 0.94376 1.20498 1.12928
 C344 C 0.91304 1.21946 1.11164
 C345 C 0.89905 1.25140 1.12223
 H346 H 0.91138 1.26553 1.14315
 O347 O 1.04290 0.82973 1.13342
 O348 O 1.04495 0.79035 1.17568
 C349 C 1.05534 0.80187 1.14642
 C350 C 1.08278 0.78309 1.12787
 C351 C 1.09116 0.74877 1.13720
 H352 H 1.07647 0.73540 1.15722
 O353 O 1.17706 0.88174 1.04237
 O354 O 1.21960 0.84399 1.04294
 C355 C 1.20589 0.87172 1.05422
 C356 C 1.22302 0.89206 1.08209
 C357 C 1.25404 0.88059 1.09703
 H358 H 1.26584 0.85699 1.08749
 O359 O 0.81638 1.11204 1.03766
 O360 O 0.77396 1.14995 1.03636
 C361 C 0.78834 1.12338 1.04989
 C362 C 0.77334 1.10617 1.08108
 C363 C 0.74119 1.11615 1.09416
 H364 H 0.72616 1.13551 1.08022
 Cu365 Cu 1.00948 0.85798 1.15294
 Cu366 Cu 1.01287 0.81117 1.20394
 Cu367 Cu 0.99411 1.15484 1.13778
 Cu368 Cu 0.99128 1.20428 1.18545
 Cu369 Cu 0.85702 0.85314 1.01672
 Cu370 Cu 0.81116 0.80246 1.01967
 Cu371 Cu 1.14999 0.85936 1.00959
 Cu372 Cu 1.20127 0.81442 1.00958
 Cu373 Cu 0.84210 1.13143 1.00204
 Cu374 Cu 0.79145 1.17733 1.00036
 Cu375 Cu 1.12998 1.15714 0.99723
 Cu376 Cu 1.17714 1.20644 0.99257
 Cu377 Cu 0.86012 0.99838 1.15605
 Cu378 Cu 0.81576 0.99858 1.20844
 Cu379 Cu 1.14397 1.01187 1.14448
 Cu380 Cu 1.19172 1.01750 1.19348
 C381 C 1.09697 0.91992 1.20740
 H382 H 1.08671 0.92813 1.18229
 C383 C 1.12494 0.89732 1.27141
 C384 C 0.91237 1.09495 1.20496
 H385 H 0.91869 1.08638 1.17881
 C386 C 0.89477 1.11860 1.27170
 C387 C 0.79249 1.08088 1.09930
 H388 H 0.81758 1.07361 1.08982
 C389 C 0.72831 1.10079 1.12500
 C390 C 1.20708 0.92190 1.09554
 H391 H 1.18298 0.93063 1.08441
 C392 C 1.26870 0.89832 1.12552
 C393 C 1.10154 0.79990 1.10160
 H394 H 1.09492 0.82645 1.09450
 C395 C 1.11865 0.73154 1.12145
 C396 C 0.89629 1.20023 1.08553
 H397 H 0.90669 1.17535 1.07760
 C398 C 0.86867 1.26419 1.10690
 C399 C 0.92169 0.91244 1.21510
 H400 H 0.92974 0.92231 1.18981
 C401 C 0.89939 0.88490 1.27930
 C402 C 1.08655 1.10483 1.19668
 H403 H 1.07962 1.09613 1.17069
 C404 C 1.10543 1.12824 1.26343
 C405 C 0.91753 0.79782 1.10643
 H406 H 0.92561 0.82297 1.09640
 C407 C 0.89509 0.73364 1.13350
 C408 C 1.07822 1.22055 1.08351
 H409 H 1.06936 1.19558 1.07403
 C410 C 1.10185 1.28435 1.10986
 C411 C 0.80090 0.90558 1.10828
 H412 H 0.82547 0.91400 1.09824
 C413 C 0.73791 0.88357 1.13552
 C414 C 1.19365 1.10583 1.08703
 H415 H 1.16804 1.09692 1.08077
 C416 C 1.25937 1.12989 1.10427
 O417 O 0.96849 0.36253 0.33515
 O418 O 0.96914 0.31977 0.29683
 C419 C 0.95680 0.34843 0.30768
 C420 C 0.92831 0.36542 0.28853
 C421 C 0.91712 0.35233 0.25632
 H422 H 0.92979 0.32993 0.24505
 O423 O 1.02398 0.62631 0.32432
 O424 O 1.01996 0.66765 0.28413
 C425 C 1.03370 0.63978 0.29545
 C426 C 1.06189 0.62322 0.27562
 C427 C 1.07676 0.64002 0.24648
 H428 H 1.06687 0.66492 0.23751
 O429 O 0.82975 0.45134 0.38027
 O430 O 0.79009 0.44866 0.33914
 C431 C 0.80230 0.43835 0.36829
 C432 C 0.78481 0.41066 0.38834
 C433 C 0.75336 0.39720 0.37701
 H434 H 0.74214 0.40732 0.35311
 O435 O 1.16016 0.53520 0.36220
 O436 O 1.19786 0.53559 0.31933
 C437 C 1.18741 0.54708 0.34852
 C438 C 1.20731 0.57446 0.36657
 C439 C 1.23811 0.58637 0.35216
 H440 H 1.24738 0.57528 0.32795
 O441 O 0.88271 0.32236 0.47661
 O442 O 0.84377 0.28081 0.48003
 C443 C 0.87109 0.29313 0.46691
 C444 C 0.88877 0.27334 0.43954
 C445 C 0.87580 0.24099 0.42950
 H446 H 0.85392 0.22994 0.44299
 O447 O 1.12286 0.66772 0.45963
 O448 O 1.16264 0.70841 0.45739
 C449 C 1.13409 0.69614 0.44694
 C450 C 1.11377 0.71472 0.41959
 C451 C 1.12447 0.74724 0.40646
 H452 H 1.14710 0.75928 0.41741
 O453 O 0.87498 0.51951 0.33170
 O454 O 0.83552 0.51703 0.29034
 C455 C 0.86260 0.53047 0.30298
 C456 C 0.87884 0.56012 0.28472
 C457 C 0.86604 0.57109 0.25222
 H458 H 0.84557 0.55668 0.23970
 O459 O 1.11352 0.46446 0.31800
 O460 O 1.15111 0.46527 0.27514
 C461 C 1.12498 0.45191 0.28966
 C462 C 1.10886 0.42041 0.27441
 C463 C 1.12115 0.40629 0.24302
 H464 H 1.14171 0.41946 0.22941
 O465 O 1.03876 0.32134 0.38380
 O466 O 1.03939 0.27796 0.34633
 C467 C 1.05169 0.29307 0.37307
 C468 C 1.08209 0.27842 0.39111
 C469 C 1.09504 0.24561 0.38192
 H470 H 1.08159 0.23005 0.36274
 O471 O 0.95689 0.66938 0.37610
 O472 O 0.95302 0.71082 0.33607
 C473 C 0.94301 0.69727 0.36461
 C474 C 0.91425 0.71319 0.38418
 C475 C 0.90197 0.74691 0.37596
 H476 H 0.91457 0.76219 0.35588
 O477 O 0.81928 0.60975 0.46780
 O478 O 0.77725 0.64810 0.46750
 C479 C 0.79089 0.62067 0.45550
 C480 C 0.77441 0.60197 0.42600
 C481 C 0.74310 0.61356 0.41164
 H482 H 0.72985 0.63509 0.42373
 O483 O 1.17946 0.38627 0.46416
 O484 O 1.22205 0.34859 0.46390
 C485 C 1.20716 0.37517 0.45095
 C486 C 1.22107 0.39259 0.41926
 C487 C 1.25283 0.38272 0.40504
 H488 H 1.26833 0.36323 0.41826
 O489 O 0.95805 0.61928 0.33091
 O490 O 0.95388 0.66008 0.29025
 C491 C 0.94469 0.63073 0.30282
 C492 C 0.91796 0.60987 0.28498
 C493 C 0.90430 0.62077 0.25265
 H494 H 0.91419 0.64405 0.24012
 O495 O 1.03444 0.36390 0.33078
 O496 O 1.03553 0.32062 0.29314
 C497 C 1.04563 0.35057 0.30265
 C498 C 1.07093 0.37011 0.28126
 C499 C 1.08375 0.35628 0.24989
 H500 H 1.07467 0.33125 0.24072
 O501 O 1.16277 0.46837 0.36379
 O502 O 1.20037 0.46901 0.32085
 C503 C 1.19083 0.45805 0.35070
 C504 C 1.21259 0.43297 0.37018
 C505 C 1.24470 0.42356 0.35700
 H506 H 1.25393 0.43525 0.33291
 O507 O 0.82546 0.51878 0.37647
 O508 O 0.78598 0.51611 0.33515
 C509 C 0.79718 0.52915 0.36341
 C510 C 0.77767 0.55725 0.38086
 C511 C 0.74626 0.56898 0.36707
 H512 H 0.73556 0.55660 0.34408
 O513 O 0.86510 0.65853 0.46675
 O514 O 0.82322 0.69716 0.46702
 C515 C 0.85182 0.68661 0.45539
 C516 C 0.86970 0.70742 0.42850
 C517 C 0.85833 0.74115 0.42056
 H518 H 0.83677 0.75201 0.43458
 O519 O 1.13571 0.33567 0.46800
 O520 O 1.17820 0.29774 0.46788
 C521 C 1.14882 0.30743 0.45722
 C522 C 1.12980 0.28574 0.43194
 C523 C 1.14208 0.25268 0.42281
 H524 H 1.16535 0.24266 0.43474
 O525 O 1.11122 0.53379 0.31626
 O526 O 1.14900 0.53435 0.27357
 C527 C 1.12207 0.54639 0.28752
 C528 C 1.10445 0.57675 0.27131
 C529 C 1.11872 0.59369 0.24209
 H530 H 1.14181 0.58325 0.23064
 O531 O 0.87556 0.45131 0.33133
 O532 O 0.83615 0.44886 0.28995
 C533 C 0.86422 0.43824 0.30304
 C534 C 0.88341 0.40976 0.28584
 C535 C 0.87275 0.39648 0.25332
 H536 H 0.85061 0.40770 0.24036
 O537 O 1.02443 0.66990 0.37582
 O538 O 1.02089 0.71119 0.33555
 C539 C 1.03492 0.69852 0.36300
 C540 C 1.06471 0.71629 0.37933
 C541 C 1.07584 0.74878 0.36672
 H542 H 1.06162 0.76175 0.34599
 O543 O 0.97146 0.31607 0.38399
 O544 O 0.97182 0.27287 0.34630
 C545 C 0.95996 0.28682 0.37372
 C546 C 0.93166 0.26989 0.39338
 C547 C 0.91725 0.23792 0.38261
 H548 H 0.92766 0.22442 0.36023
 O549 O 1.17123 0.62159 0.45862
 O550 O 1.21152 0.66172 0.45667
 C551 C 1.19848 0.63376 0.44507
 C552 C 1.21386 0.61601 0.41440
 C553 C 1.24511 0.62736 0.39968
 H554 H 1.25908 0.64851 0.41172
 O555 O 0.83209 0.36570 0.47633
 O556 O 0.79309 0.32420 0.47926
 C557 C 0.80422 0.35219 0.46570
 C558 C 0.78540 0.36869 0.43643
 C559 C 0.75373 0.35552 0.42496
 H560 H 0.74197 0.33382 0.43867
 Cu561 Cu 1.00336 0.34505 0.36246
 Cu562 Cu 1.00409 0.29338 0.31721
 Cu563 Cu 0.99123 0.64228 0.35589
 Cu564 Cu 0.98625 0.69153 0.30782
 Cu565 Cu 0.85544 0.48540 0.35904
 Cu566 Cu 0.80814 0.48233 0.30941
 Cu567 Cu 1.13264 0.50030 0.34399
 Cu568 Cu 1.17796 0.50103 0.29259
 C569 C 0.91153 0.39433 0.30293
 H570 H 0.91974 0.40419 0.32810
 C571 C 0.88975 0.36789 0.23831
 C572 C 1.07572 0.59143 0.28747
 H573 H 1.06493 0.57875 0.31031
 C574 C 1.10504 0.62531 0.22934
 C575 C 0.80036 0.39661 0.41832
 H576 H 0.82492 0.40662 0.42684
 C577 C 0.73725 0.37000 0.39560
 C578 C 1.19553 0.58916 0.39782
 H579 H 1.17141 0.58039 0.40865
 C580 C 1.25737 0.61239 0.36849
 C581 C 0.91705 0.28734 0.42192
 H582 H 0.92700 0.31246 0.42978
 C583 C 0.88917 0.22354 0.40081
 C584 C 1.08376 0.69959 0.40593
 H585 H 1.07561 0.67429 0.41549
 C586 C 1.10580 0.76428 0.37974
 C587 C 0.90509 0.57937 0.30080
 H588 H 0.91480 0.57116 0.32614
 C589 C 0.87802 0.60160 0.23644
 C590 C 1.08338 0.40238 0.29298
 H591 H 1.07414 0.41290 0.31743
 C592 C 1.10856 0.37434 0.23035
 C593 C 1.09959 0.29824 0.41626
 H594 H 1.09015 0.32387 0.42301
 C595 C 1.12517 0.23273 0.39757
 C596 C 0.89791 0.69379 0.41060
 H597 H 0.90666 0.66764 0.41670
 C598 C 0.87396 0.76102 0.39435
 C599 C 0.79130 0.57372 0.41048
 H600 H 0.81570 0.56509 0.42097
 C601 C 0.72897 0.59736 0.38190
 C602 C 1.20120 0.41779 0.40156
 H603 H 1.17635 0.42496 0.41174
 C604 C 1.26470 0.39826 0.37387
 O605 O 1.04237 0.37304 0.67653
 O606 O 1.04529 0.33131 0.71647
 C607 C 1.05398 0.36113 0.70531
 C608 C 1.07796 0.38201 0.72600
 C609 C 1.08528 0.37281 0.76066
 H610 H 1.07244 0.35078 0.77276
 O611 O 0.96679 0.63029 0.66535
 O612 O 0.96625 0.67296 0.70372
 C613 C 0.95568 0.64331 0.69359
 C614 C 0.93011 0.62416 0.71500
 C615 C 0.91957 0.63804 0.74699
 H616 H 0.93064 0.66229 0.75601
 O617 O 0.83343 0.52713 0.63645
 O618 O 0.79613 0.52677 0.67965
 C619 C 0.80567 0.53792 0.64983
 C620 C 0.78487 0.56403 0.63046
 C621 C 0.75386 0.57670 0.64410
 H622 H 0.74443 0.56683 0.66889
 O623 O 1.16921 0.46985 0.63278
 O624 O 1.20892 0.47270 0.67389
 C625 C 1.19788 0.46013 0.64527
 C626 C 1.21858 0.43418 0.62609
 C627 C 1.25047 0.42322 0.63916
 H628 H 1.26012 0.43393 0.66345
 O629 O 1.13745 0.33757 0.53497
 O630 O 1.17969 0.29933 0.53481
 C631 C 1.15108 0.30975 0.54660
 C632 C 1.13340 0.28935 0.57405
 C633 C 1.14428 0.25548 0.58243
 H634 H 1.16567 0.24410 0.56858
 O635 O 0.86547 0.66118 0.53399
 O636 O 0.82306 0.69919 0.53403
 C637 C 0.85228 0.68936 0.54498
 C638 C 0.87098 0.71088 0.57082
 C639 C 0.85671 0.74216 0.58277
 H640 H 0.83217 0.75080 0.57258
 O641 O 0.88662 0.46224 0.68235
 O642 O 0.84932 0.46088 0.72537
 C643 C 0.87647 0.44950 0.71125
 C644 C 0.89558 0.42010 0.72760
 C645 C 0.88481 0.40531 0.75956
 H646 H 0.86306 0.41634 0.77302
 O647 O 1.11973 0.53813 0.67670
 O648 O 1.15929 0.54132 0.71782
 C649 C 1.13151 0.55217 0.70421
 C650 C 1.11341 0.58227 0.71968
 C651 C 1.12483 0.59694 0.75126
 H652 H 1.14651 0.58541 0.76468
 O653 O 0.97925 0.32176 0.62826
 O654 O 0.98281 0.28013 0.66824
 C655 C 0.96946 0.29260 0.64063
 C656 C 0.94098 0.27397 0.62384
 C657 C 0.92962 0.24198 0.63744
 H658 H 0.94319 0.22971 0.65905
 O659 O 1.03226 0.67857 0.61520
 O660 O 1.03176 0.72110 0.65364
 C661 C 1.04430 0.70720 0.62647
 C662 C 1.07425 0.72338 0.60867
 C663 C 1.08872 0.75481 0.62078
 H664 H 1.07672 0.76854 0.64213
 O665 O 0.83739 0.37102 0.54439
 O666 O 0.79819 0.32965 0.54669
 C667 C 0.81006 0.35860 0.55714
 C668 C 0.79159 0.37759 0.58449
 C669 C 0.75739 0.36959 0.59081
 H670 H 0.74447 0.35040 0.57474
 O671 O 1.17192 0.62158 0.52802
 O672 O 1.21234 0.66161 0.52639
 C673 C 1.19981 0.63395 0.53979
 C674 C 1.21677 0.61634 0.57013
 C675 C 1.24983 0.62598 0.58164
 H676 H 1.26393 0.64597 0.56770
 O677 O 1.03266 0.63293 0.66551
 O678 O 1.03202 0.67556 0.70395
 C679 C 1.04382 0.64658 0.69352
 C680 C 1.07103 0.62882 0.71393
 C681 C 1.08277 0.64307 0.74548
 H682 H 1.07135 0.66681 0.75530
 O683 O 0.97679 0.37038 0.67425
 O684 O 0.97969 0.32890 0.71447
 C685 C 0.96650 0.35704 0.70281
 C686 C 0.93886 0.37429 0.72262
 C687 C 0.92757 0.35986 0.75429
 H688 H 0.93941 0.33629 0.76442
 O689 O 1.16619 0.53643 0.62867
 O690 O 1.20605 0.53943 0.66961
 C691 C 1.19415 0.54890 0.64000
 C692 C 1.21335 0.57455 0.61878
 C693 C 1.24657 0.58355 0.62887
 H694 H 1.25819 0.57112 0.65156
 O695 O 0.83617 0.46013 0.63825
 O696 O 0.79801 0.45919 0.68061
 C697 C 0.80889 0.44776 0.65149
 C698 C 0.79048 0.41983 0.63208
 C699 C 0.75611 0.41033 0.63913
 H700 H 0.74211 0.42297 0.65991
 O701 O 1.12576 0.67030 0.52716
 O702 O 1.16601 0.71055 0.52526
 C703 C 1.13809 0.69902 0.53780
 C704 C 1.12015 0.71891 0.56542
 C705 C 1.13369 0.75055 0.57738
 H706 H 1.15678 0.76094 0.56562
 O707 O 0.88303 0.32163 0.54394
 O708 O 0.84370 0.28047 0.54721
 C709 C 0.87215 0.29313 0.55684
 C710 C 0.89269 0.27469 0.58349
 C711 C 0.88166 0.24264 0.59720
 H712 H 0.85791 0.23139 0.58794
 O713 O 1.12353 0.46971 0.68209
 O714 O 1.16287 0.47276 0.72344
 C715 C 1.13588 0.45911 0.71113
 C716 C 1.11879 0.42978 0.72945
 C717 C 1.12721 0.41938 0.76398
 H718 H 1.14656 0.43335 0.77864
 O719 O 0.88379 0.53113 0.68039
 O720 O 0.84704 0.53062 0.72393
 C721 C 0.87300 0.54395 0.70886
 C722 C 0.89019 0.57548 0.72342
 C723 C 0.87997 0.59008 0.75559
 H724 H 0.85987 0.57758 0.77048
 O725 O 0.96396 0.67673 0.61588
 O726 O 0.96347 0.71951 0.65405
 C727 C 0.95095 0.70483 0.62721
 C728 C 0.91977 0.71933 0.61014
 C729 C 0.90498 0.75064 0.62184
 H730 H 0.91747 0.76490 0.64257
 O731 O 1.04616 0.32815 0.62584
 O732 O 1.04931 0.28654 0.66581
 C733 C 1.05988 0.30044 0.63757
 C734 C 1.08874 0.28460 0.61839
 C735 C 1.10014 0.25079 0.62666
 H736 H 1.08681 0.23578 0.64644
 O737 O 1.18141 0.38760 0.53373
 O738 O 1.22391 0.34981 0.53368
 C739 C 1.20972 0.37677 0.54615
 C740 C 1.22516 0.39456 0.57671
 C741 C 1.25703 0.38386 0.59026
 H742 H 1.27083 0.36332 0.57719
 O743 O 0.82212 0.60984 0.53705
 O744 O 0.77994 0.64803 0.53659
 C745 C 0.79423 0.62115 0.54961
 C746 C 0.77906 0.60394 0.58069
 C747 C 0.74824 0.61623 0.59464
 H748 H 0.73544 0.63776 0.58171
 Cu749 Cu 1.01109 0.35231 0.64682
 Cu750 Cu 1.01474 0.30246 0.69504
 Cu751 Cu 0.99903 0.65079 0.63612
 Cu752 Cu 0.99819 0.70184 0.68232
 Cu753 Cu 0.86261 0.34959 0.51014
 Cu754 Cu 0.81570 0.29968 0.51370
 Cu755 Cu 1.15464 0.36608 0.50010
 Cu756 Cu 1.20564 0.32050 0.50003
 Cu757 Cu 0.84692 0.63058 0.50147
 Cu758 Cu 0.79637 0.67663 0.50119
 Cu759 Cu 1.14430 0.64098 0.49360
 Cu760 Cu 1.19229 0.68936 0.49117
 Cu761 Cu 0.86394 0.49521 0.65530
 Cu762 Cu 0.81954 0.49422 0.70700
 Cu763 Cu 1.14021 0.50298 0.65135
 Cu764 Cu 1.18796 0.50699 0.70047
 C765 C 1.09414 0.41076 0.71089
 H766 H 1.08817 0.41769 0.68401
 C767 C 1.10990 0.39102 0.77969
 C768 C 0.91558 0.59270 0.70357
 H769 H 0.92339 0.58213 0.67863
 C770 C 0.89482 0.62144 0.76758
 C771 C 0.79690 0.57749 0.59847
 H772 H 0.82100 0.56831 0.58804
 C773 C 0.73513 0.60252 0.62611
 C774 C 1.20637 0.42003 0.59463
 H775 H 1.18159 0.42805 0.58462
 C776 C 1.27003 0.39831 0.62141
 C777 C 1.10545 0.30361 0.59196
 H778 H 1.09703 0.32984 0.58570
 C779 C 1.12799 0.23611 0.60875
 C780 C 0.90271 0.69992 0.58430
 H781 H 0.91358 0.67554 0.57553
 C782 C 0.87342 0.76236 0.60805
 C783 C 0.92296 0.40460 0.70961
 H784 H 0.93121 0.41551 0.68482
 C785 C 0.90084 0.37516 0.77302
 C786 C 1.08620 0.59817 0.70146
 H787 H 1.07758 0.58733 0.67685
 C788 C 1.10937 0.62725 0.76448
 C789 C 0.92269 0.28987 0.59649
 H790 H 0.93099 0.31490 0.58636
 C791 C 0.90020 0.22607 0.62408
 C792 C 1.09023 0.70577 0.58094
 H793 H 1.07983 0.68123 0.57197
 C794 C 1.11859 0.76847 0.60523
 C795 C 0.80786 0.40297 0.60473
 H796 H 0.83441 0.40919 0.59941
 C797 C 0.73952 0.38539 0.61786
 C798 C 1.19880 0.59051 0.58905
 H799 H 1.17305 0.58344 0.58121
 C800 C 1.26478 0.60929 0.61101
 O801 O 0.46498 0.86087 0.33945
 O802 O 0.46641 0.81844 0.30081
 C803 C 0.45418 0.84722 0.31128
 C804 C 0.42695 0.86488 0.29070
 C805 C 0.41669 0.85178 0.25809
 H806 H 0.42915 0.82889 0.24761
 O807 O 0.51962 1.12513 0.32720
 O808 O 0.51619 1.16361 0.28419
 C809 C 0.52939 1.13618 0.29755
 C810 C 0.55690 1.11759 0.27870
 C811 C 0.56762 1.12989 0.24593
 H812 H 0.55499 1.15218 0.23400
 O813 O 0.32949 0.95364 0.37796
 O814 O 0.28940 0.94949 0.33742
 C815 C 0.30191 0.94010 0.36677
 C816 C 0.28452 0.91305 0.38815
 C817 C 0.25239 0.89982 0.37822
 H818 H 0.23979 0.91051 0.35530
 O819 O 0.66146 1.03605 0.36844
 O820 O 0.69876 1.03549 0.32525
 C821 C 0.68830 1.04803 0.35400
 C822 C 0.70738 1.07700 0.37058
 C823 C 0.74070 1.08512 0.35979
 H824 H 0.75265 1.06965 0.33958
 O825 O 0.37612 0.82272 0.48073
 O826 O 0.33723 0.78127 0.48502
 C827 C 0.36409 0.79348 0.47096
 C828 C 0.38057 0.77410 0.44204
 C829 C 0.36440 0.74479 0.42768
 H830 H 0.34060 0.73553 0.43889
 O831 O 0.61764 1.18109 0.45294
 O832 O 0.65645 1.22265 0.44983
 C833 C 0.62837 1.20942 0.43948
 C834 C 0.60829 1.22662 0.41102
 C835 C 0.61991 1.25767 0.39533
 H836 H 0.64360 1.26911 0.40448
 O837 O 0.37249 1.02231 0.32694
 O838 O 0.33269 1.01840 0.28609
 C839 C 0.35941 1.03294 0.29832
 C840 C 0.37460 1.06341 0.27991
 C841 C 0.36142 1.07459 0.24745
 H842 H 0.34103 1.05991 0.23511
 O843 O 0.61441 0.96366 0.32713
 O844 O 0.65122 0.96365 0.28356
 C845 C 0.62526 0.95062 0.29875
 C846 C 0.60837 0.91915 0.28408
 C847 C 0.61967 0.90467 0.25233
 H848 H 0.64019 0.91731 0.23823
 O849 O 0.53395 0.81806 0.38960
 O850 O 0.53480 0.77504 0.35170
 C851 C 0.54699 0.78984 0.37865
 C852 C 0.57755 0.77506 0.39659
 C853 C 0.59127 0.74273 0.38650
 H854 H 0.57830 0.72749 0.36673
 O855 O 0.45276 1.17292 0.37405
 O856 O 0.44908 1.21188 0.33157
 C857 C 0.43882 1.19984 0.36079
 C858 C 0.40960 1.21621 0.37913
 C859 C 0.39705 1.24924 0.36917
 H860 H 0.40992 1.26377 0.34872
 O861 O 0.31756 1.11174 0.46487
 O862 O 0.27519 1.14969 0.46411
 C863 C 0.28908 1.12213 0.45259
 C864 C 0.27283 1.10274 0.42358
 C865 C 0.24140 1.11373 0.40937
 H866 H 0.22785 1.13509 0.42143
 O867 O 0.67609 0.88324 0.46847
 O868 O 0.71730 0.84399 0.46969
 C869 C 0.70365 0.87105 0.45608
 C870 C 0.71894 0.88835 0.42493
 C871 C 0.75101 0.87826 0.41168
 H872 H 0.76564 0.85824 0.42511
 O873 O 0.45320 1.12430 0.32663
 O874 O 0.44963 1.16335 0.28422
 C875 C 0.44012 1.13469 0.29781
 C876 C 0.41339 1.11352 0.28005
 C877 C 0.39980 1.12421 0.24749
 H878 H 0.41004 1.14728 0.23499
 O879 O 0.53098 0.86415 0.33995
 O880 O 0.53239 0.82137 0.30173
 C881 C 0.54263 0.85110 0.31197
 C882 C 0.56855 0.87034 0.29118
 C883 C 0.58017 0.85651 0.25951
 H884 H 0.56959 0.83217 0.25013
 O885 O 0.66459 0.96835 0.37155
 O886 O 0.70156 0.96805 0.32807
 C887 C 0.69218 0.95720 0.35805
 C888 C 0.71311 0.93088 0.37715
 C889 C 0.74542 0.92097 0.36473
 H890 H 0.75571 0.93340 0.34148
 O891 O 0.32505 1.02073 0.37384
 O892 O 0.28513 1.01672 0.33307
 C893 C 0.29642 1.03026 0.36107
 C894 C 0.27659 1.05796 0.37858
 C895 C 0.24506 1.06923 0.36480
 H896 H 0.23452 1.05683 0.34175
 O897 O 0.36048 1.16341 0.46262
 O898 O 0.31817 1.20152 0.46254
 C899 C 0.34680 1.19119 0.45079
 C900 C 0.36440 1.21154 0.42306
 C901 C 0.35257 1.24473 0.41321
 H902 H 0.33060 1.25583 0.42634
 O903 O 0.63181 0.83290 0.47324
 O904 O 0.67297 0.79353 0.47473
 C905 C 0.64415 0.80394 0.46327
 C906 C 0.62510 0.78229 0.43779
 C907 C 0.63792 0.74962 0.42790
 H908 H 0.66134 0.73976 0.43964
 O909 O 0.61127 1.03255 0.32398
 O910 O 0.64832 1.03260 0.28063
 C911 C 0.62119 1.04435 0.29456
 C912 C 0.60174 1.07294 0.27705
 C913 C 0.61242 1.08623 0.24444
 H914 H 0.63385 1.07433 0.23118
 O915 O 0.37579 0.95365 0.32937
 O916 O 0.33610 0.94964 0.28843
 C917 C 0.36435 0.93963 0.30165
 C918 C 0.38354 0.91056 0.28549
 C919 C 0.37373 0.89716 0.25276
 H920 H 0.35238 0.90887 0.23890
 O921 O 0.52029 1.17792 0.36890
 O922 O 0.51651 1.21676 0.32631
 C923 C 0.53067 1.20596 0.35431
 C924 C 0.56041 1.22520 0.36939
 C925 C 0.57274 1.25623 0.35381
 H926 H 0.55965 1.26724 0.33126
 O927 O 0.46611 0.81542 0.39005
 O928 O 0.46670 0.77301 0.35148
 C929 C 0.45432 0.78667 0.37886
 C930 C 0.42480 0.77018 0.39704
 C931 C 0.40813 0.74072 0.38300
 H932 H 0.41791 0.72905 0.35936
 O933 O 0.66524 1.13379 0.45341
 O934 O 0.70467 1.17475 0.45004
 C935 C 0.69258 1.14565 0.44000
 C936 C 0.70976 1.12514 0.41225
 C937 C 0.74317 1.13310 0.40085
 H938 H 0.75694 1.15426 0.41305
 O939 O 0.33073 0.87208 0.47950
 O940 O 0.29194 0.83048 0.48332
 C941 C 0.30313 0.85822 0.46895
 C942 C 0.28475 0.87373 0.43875
 C943 C 0.25268 0.86087 0.42849
 H944 H 0.24055 0.84042 0.44373
 Cu945 Cu 0.49881 0.84355 0.36899
 Cu946 Cu 0.50029 0.79244 0.32289
 Cu947 Cu 0.48662 1.14654 0.35374
 Cu948 Cu 0.48250 1.19272 0.30256
 Cu949 Cu 0.35490 0.98789 0.35590
 Cu950 Cu 0.30708 0.98299 0.30695
 Cu951 Cu 0.63406 1.00013 0.35193
 Cu952 Cu 0.67838 0.99996 0.29984
 C953 C 0.41051 0.89451 0.30396
 H954 H 0.41796 0.90442 0.32935
 C955 C 0.39050 0.86793 0.23871
 C956 C 0.57385 1.08884 0.29396
 H957 H 0.56593 1.07944 0.31947
 C958 C 0.59562 1.11496 0.22900
 C959 C 0.30035 0.89996 0.41857
 H960 H 0.32533 0.90965 0.42613
 C961 C 0.23646 0.87341 0.39815
 C962 C 0.69226 1.09695 0.39697
 H963 H 0.66644 1.09080 0.40524
 C964 C 0.75889 1.11295 0.37461
 C965 C 0.41093 0.78632 0.42679
 H966 H 0.42312 0.80932 0.43738
 C967 C 0.37770 0.72793 0.39820
 C968 C 0.57826 1.21098 0.39817
 H969 H 0.56939 1.18686 0.40991
 C970 C 0.60220 1.27299 0.36689
 C971 C 0.40072 1.08298 0.29589
 H972 H 0.41069 1.07486 0.32115
 C973 C 0.37349 1.10508 0.23112
 C974 C 0.58253 0.90189 0.30312
 H975 H 0.57400 0.91247 0.32780
 C976 C 0.60550 0.87332 0.23980
 C977 C 0.59467 0.79457 0.42233
 H978 H 0.58480 0.81986 0.42968
 C979 C 0.62157 0.72995 0.40202
 C980 C 0.39312 1.19773 0.40614
 H981 H 0.40225 1.17204 0.41353
 C982 C 0.36851 1.26373 0.38628
 C983 C 0.29009 1.07469 0.40814
 H984 H 0.31466 1.06649 0.41855
 C985 C 0.22762 1.09743 0.37961
 C986 C 0.70034 0.91470 0.40743
 H987 H 0.67534 0.92218 0.41700
 C988 C 0.76442 0.89461 0.38154
 O989 O 0.54147 0.88979 0.68165
 O990 O 0.54614 0.84978 0.72298
 C991 C 0.55562 0.87845 0.70944
 C992 C 0.58397 0.89823 0.72564
 C993 C 0.59867 0.88699 0.75739
 H994 H 0.58863 0.86394 0.77016
 O995 O 0.46495 1.13354 0.66595
 O996 O 0.46435 1.17661 0.70388
 C997 C 0.45412 1.14679 0.69428
 C998 C 0.42879 1.12772 0.71582
 C999 C 0.41844 1.14068 0.74851
 H1000 H 0.42984 1.16423 0.75884
 O1001 O 0.33114 1.03070 0.63449
 O1002 O 0.29301 1.03235 0.67692
 C1003 C 0.30307 1.04191 0.64679
 C1004 C 0.28194 1.06652 0.62613
 C1005 C 0.24905 1.07519 0.63767
 H1006 H 0.23879 1.06304 0.66109
 O1007 O 0.67655 0.98040 0.62351
 O1008 O 0.71664 0.98496 0.66402
 C1009 C 0.70481 0.97042 0.63676
 C1010 C 0.72339 0.94076 0.62103
 C1011 C 0.75301 0.92732 0.63708
 H1012 H 0.76321 0.93969 0.66030
 O1013 O 0.63168 0.83953 0.54047
 O1014 O 0.67169 0.79893 0.54214
 C1015 C 0.64363 0.81153 0.55338
 C1016 C 0.62438 0.79365 0.58156
 C1017 C 0.63136 0.75870 0.59035
 H1018 H 0.65076 0.74473 0.57598
 O1019 O 0.36319 1.16405 0.52994
 O1020 O 0.32069 1.20195 0.52991
 C1021 C 0.34995 1.19213 0.54084
 C1022 C 0.36873 1.21347 0.56654
 C1023 C 0.35585 1.24594 0.57664
 H1024 H 0.33221 1.25563 0.56522
 O1025 O 0.38114 0.96849 0.68715
 O1026 O 0.34293 0.96979 0.72942
 C1027 C 0.37053 0.95798 0.71685
 C1028 C 0.39032 0.93100 0.73601
 C1029 C 0.37944 0.91735 0.76845
 H1030 H 0.35687 0.92796 0.78081
 O1031 O 0.62664 1.04931 0.66606
 O1032 O 0.66665 1.05395 0.70664
 C1033 C 0.63809 1.06342 0.69368
 C1034 C 0.61820 1.09139 0.71068
 C1035 C 0.62736 1.10313 0.74414
 H1036 H 0.64816 1.09037 0.75790
 O1037 O 0.47402 0.83741 0.64011
 O1038 O 0.47807 0.79734 0.68162
 C1039 C 0.46418 0.80874 0.65363
 C1040 C 0.43596 0.78912 0.63655
 C1041 C 0.42512 0.75632 0.64934
 H1042 H 0.43757 0.74470 0.67196
 O1043 O 0.52742 1.18119 0.61130
 O1044 O 0.52617 1.22391 0.64952
 C1045 C 0.53812 1.21060 0.62180
 C1046 C 0.56591 1.22909 0.60301
 C1047 C 0.57715 1.26138 0.61531
 H1048 H 0.56387 1.27364 0.63685
 O1049 O 0.32975 0.87219 0.54829
 O1050 O 0.29098 0.83059 0.55207
 C1051 C 0.30270 0.85965 0.56211
 C1052 C 0.28561 0.87875 0.59083
 C1053 C 0.25271 0.86939 0.60292
 H1054 H 0.23888 0.84853 0.59023
 O1055 O 0.66868 1.13693 0.52146
 O1056 O 0.70778 1.17827 0.51850
 C1057 C 0.69673 1.15009 0.53201
 C1058 C 0.71604 1.13275 0.56085
 C1059 C 0.74849 1.14490 0.57141
 H1060 H 0.76019 1.16663 0.55770
 O1061 O 0.53125 1.13655 0.66226
 O1062 O 0.53042 1.17927 0.70062
 C1063 C 0.54302 1.15079 0.68970
 C1064 C 0.57184 1.13414 0.70876
 C1065 C 0.58147 1.14565 0.74219
 H1066 H 0.56742 1.16666 0.75438
 O1067 O 0.47507 0.88572 0.68706
 O1068 O 0.47984 0.84582 0.72855
 C1069 C 0.46593 0.87320 0.71646
 C1070 C 0.43782 0.88983 0.73590
 C1071 C 0.42718 0.87682 0.76851
 H1072 H 0.44101 0.85544 0.78073
 O1073 O 0.67331 1.04820 0.61791
 O1074 O 0.71354 1.05273 0.65826
 C1075 C 0.70079 1.06199 0.62901
 C1076 C 0.71780 1.08953 0.60813
 C1077 C 0.75010 1.10197 0.61822
 H1078 H 0.76228 1.09095 0.64122
 O1079 O 0.33486 0.96375 0.63879
 O1080 O 0.29621 0.96543 0.68073
 C1081 C 0.30744 0.95249 0.65246
 C1082 C 0.28842 0.92415 0.63517
 C1083 C 0.25554 0.91505 0.64646
 H1084 H 0.24391 0.92916 0.66784
 O1085 O 0.61986 1.18247 0.52107
 O1086 O 0.65847 1.22429 0.51880
 C1087 C 0.63133 1.21138 0.53196
 C1088 C 0.61278 1.22938 0.56057
 C1089 C 0.62454 1.26123 0.57448
 H1090 H 0.64731 1.27348 0.56399
 O1091 O 0.38232 0.83087 0.54843
 O1092 O 0.34385 0.78900 0.55248
 C1093 C 0.37186 0.80286 0.56242
 C1094 C 0.39170 0.78652 0.59118
 C1095 C 0.38225 0.75361 0.60343
 H1096 H 0.36263 0.73947 0.58939
 O1097 O 0.63044 0.98177 0.67188
 O1098 O 0.67059 0.98652 0.71233
 C1099 C 0.64330 0.97246 0.70109
 C1100 C 0.62689 0.94425 0.72158
 C1101 C 0.64129 0.93268 0.75335
 H1102 H 0.66389 0.94540 0.76373
 O1103 O 0.38109 1.03617 0.67901
 O1104 O 0.34308 1.03775 0.72150
 C1105 C 0.36981 1.04975 0.70683
 C1106 C 0.38743 1.08033 0.72173
 C1107 C 0.37708 1.09391 0.75394
 H1108 H 0.35705 1.08100 0.76868
 O1109 O 0.46004 1.17751 0.61403
 O1110 O 0.45921 1.22046 0.65198
 C1111 C 0.44699 1.20567 0.62507
 C1112 C 0.41661 1.22064 0.60713
 C1113 C 0.40337 1.25326 0.61688
 H1114 H 0.41605 1.26786 0.63729
 O1115 O 0.54048 0.84153 0.63454
 O1116 O 0.54432 0.80123 0.67585
 C1117 C 0.55352 0.81352 0.64640
 C1118 C 0.57975 0.79482 0.62615
 C1119 C 0.58682 0.75997 0.63425
 H1120 H 0.57240 0.74689 0.65468
 O1121 O 0.67994 0.88547 0.53716
 O1122 O 0.72062 0.84569 0.53906
 C1123 C 0.70806 0.87416 0.54980
 C1124 C 0.72535 0.89369 0.57828
 C1125 C 0.75522 0.88068 0.59461
 H1126 H 0.76646 0.85667 0.58539
 O1127 O 0.31852 1.11459 0.53380
 O1128 O 0.27569 1.15202 0.53324
 C1129 C 0.29038 1.12542 0.54636
 C1130 C 0.27541 1.10749 0.57727
 C1131 C 0.24280 1.11666 0.58995
 H1132 H 0.22768 1.13616 0.57628
 Cu1133 Cu 0.50721 0.86774 0.65666
 Cu1134 Cu 0.51279 0.81989 0.70630
 Cu1135 Cu 0.49585 1.15296 0.63440
 Cu1136 Cu 0.49493 1.20446 0.67992
 Cu1137 Cu 0.35840 0.85368 0.51382
 Cu1138 Cu 0.31223 0.80376 0.51875
 Cu1139 Cu 0.65111 0.86446 0.50456
 Cu1140 Cu 0.69992 0.81681 0.50668
 Cu1141 Cu 0.34393 1.13435 0.49777
 Cu1142 Cu 0.29291 1.17981 0.49745
 Cu1143 Cu 0.63906 1.15449 0.48746
 Cu1144 Cu 0.68565 1.20420 0.48386
 Cu1145 Cu 0.36115 0.99957 0.65582
 Cu1146 Cu 0.31514 1.00155 0.70650
 Cu1147 Cu 0.64772 1.01447 0.64075
 Cu1148 Cu 0.69595 1.02022 0.68930
 C1149 C 0.59795 0.92717 0.70823
 H1150 H 0.58704 0.93559 0.68347
 C1151 C 0.62722 0.90429 0.77161
 C1152 C 0.41344 1.09728 0.70291
 H1153 H 0.42101 1.08736 0.67762
 C1154 C 0.39225 1.12418 0.76732
 C1155 C 0.29473 1.08230 0.59560
 H1156 H 0.32020 1.07569 0.58671
 C1157 C 0.22959 1.10042 0.62018
 C1158 C 0.71005 0.92402 0.59143
 H1159 H 0.68682 0.93391 0.57938
 C1160 C 0.76922 0.89746 0.62411
 C1161 C 0.59832 0.81147 0.59950
 H1162 H 0.59294 0.83851 0.59323
 C1163 C 0.61247 0.74174 0.61675
 C1164 C 0.39931 1.20119 0.58159
 H1165 H 0.40911 1.17589 0.57419
 C1166 C 0.37309 1.26619 0.60140
 C1167 C 0.41964 0.91722 0.72030
 H1168 H 0.42773 0.92707 0.69502
 C1169 C 0.39784 0.89005 0.78482
 C1170 C 0.59028 1.10688 0.69329
 H1171 H 0.58327 1.09809 0.66735
 C1172 C 0.60928 1.13048 0.76000
 C1173 C 0.41881 0.80403 0.60758
 H1174 H 0.42613 0.82962 0.59809
 C1175 C 0.39770 0.73876 0.63323
 C1176 C 0.58348 1.21352 0.57525
 H1177 H 0.57485 1.18847 0.56576
 C1178 C 0.60660 1.27724 0.60197
 C1179 C 0.30307 0.90617 0.60717
 H1180 H 0.32855 0.91315 0.59847
 C1181 C 0.23749 0.88775 0.63076
 C1182 C 0.70120 1.10470 0.57915
 H1183 H 0.67605 1.09543 0.57162
 C1184 C 0.76594 1.12929 0.59976
 O1185 O 0.62097 0.54404 1.17264
 O1186 O 0.65929 0.54572 1.21509
 C1187 C 0.63172 0.55678 1.20125
 C1188 C 0.61250 0.58546 1.21789
 C1189 C 0.62170 0.59759 1.25125
 H1190 H 0.64184 0.58442 1.26568
 O1191 O 0.38119 0.46812 1.16822
 O1192 O 0.34068 0.46723 1.20818
 C1193 C 0.36870 0.45536 1.19615
 C1194 C 0.38657 0.42556 1.21363
 C1195 C 0.37506 0.41156 1.24578
 H1196 H 0.35363 0.42353 1.25896
 O1197 O 0.53222 0.67986 1.11318
 O1198 O 0.53147 0.72217 1.15189
 C1199 C 0.54399 0.70851 1.12452
 C1200 C 0.57338 0.72523 1.10636
 C1201 C 0.58909 0.75532 1.12008
 H1202 H 0.57902 0.76708 1.14357
 O1203 O 0.47397 0.32654 1.11722
 O1204 O 0.47520 0.28643 1.15881
 C1205 C 0.46330 0.29789 1.13000
 C1206 C 0.43576 0.27837 1.11213
 C1207 C 0.42452 0.24636 1.12571
 H1208 H 0.43745 0.23488 1.14815
 O1209 O 0.67128 0.62851 1.02536
 O1210 O 0.71065 0.66968 1.02398
 C1211 C 0.69853 0.64193 1.03752
 C1212 C 0.71562 0.62586 1.06847
 C1213 C 0.74720 0.63867 1.08030
 H1214 H 0.75974 0.65944 1.06588
 O1215 O 0.33856 0.37175 1.02689
 O1216 O 0.29797 0.33186 1.02786
 C1217 C 0.31079 0.35999 1.03949
 C1218 C 0.29322 0.37835 1.06846
 C1219 C 0.26289 0.36425 1.08190
 H1220 H 0.25221 0.34077 1.07061
 O1221 O 0.46461 0.63307 1.16131
 O1222 O 0.46327 0.67548 1.19993
 C1223 C 0.45235 0.64625 1.18895
 C1224 C 0.42485 0.62774 1.20837
 C1225 C 0.41242 0.64147 1.23971
 H1226 H 0.42357 0.66520 1.24993
 O1227 O 0.53707 0.37897 1.16572
 O1228 O 0.53768 0.33856 1.20702
 C1229 C 0.54786 0.36768 1.19505
 C1230 C 0.57277 0.38801 1.21565
 C1231 C 0.58023 0.37773 1.25003
 H1232 H 0.56675 0.35593 1.26181
 O1233 O 0.67119 0.47694 1.12767
 O1234 O 0.70962 0.47872 1.17006
 C1235 C 0.69900 0.46622 1.14129
 C1236 C 0.71880 0.43837 1.12403
 C1237 C 0.74924 0.42606 1.13923
 H1238 H 0.75886 0.43777 1.16306
 O1239 O 0.33438 0.53490 1.11767
 O1240 O 0.29342 0.53505 1.15715
 C1241 C 0.30605 0.54669 1.12869
 C1242 C 0.28837 0.57480 1.10843
 C1243 C 0.25668 0.58842 1.11948
 H1244 H 0.24455 0.57721 1.14228
 O1245 O 0.37767 0.67371 1.01773
 O1246 O 0.33625 0.71273 1.01519
 C1247 C 0.36420 0.70191 1.02836
 C1248 C 0.38050 0.72166 1.05719
 C1249 C 0.36516 0.75215 1.06996
 H1250 H 0.34207 0.76210 1.05763
 O1251 O 0.63651 0.33620 1.03442
 O1252 O 0.67788 0.29704 1.03638
 C1253 C 0.64902 0.30811 1.04670
 C1254 C 0.62981 0.28814 1.07326
 C1255 C 0.64008 0.25434 1.08245
 H1256 H 0.66191 0.24267 1.06956
 O1257 O 0.37898 0.53697 1.16808
 O1258 O 0.33857 0.53679 1.20811
 C1259 C 0.36611 0.54957 1.19583
 C1260 C 0.38290 0.58029 1.21267
 C1261 C 0.37084 0.59462 1.24441
 H1262 H 0.34943 0.58250 1.25762
 O1263 O 0.62291 0.47564 1.17382
 O1264 O 0.66096 0.47696 1.21653
 C1265 C 0.63413 0.46388 1.20286
 C1266 C 0.61581 0.43419 1.21990
 C1267 C 0.62411 0.42228 1.25400
 H1268 H 0.64415 0.43500 1.26885
 O1269 O 0.54123 0.32910 1.12009
 O1270 O 0.54202 0.28868 1.16136
 C1271 C 0.55397 0.30138 1.13321
 C1272 C 0.58345 0.28447 1.11578
 C1273 C 0.59454 0.25069 1.12530
 H1274 H 0.58074 0.23616 1.14511
 O1275 O 0.46495 0.68024 1.11238
 O1276 O 0.46387 0.72285 1.15073
 C1277 C 0.45255 0.70892 1.12295
 C1278 C 0.42379 0.72535 1.10340
 C1279 C 0.40807 0.75590 1.11576
 H1280 H 0.41786 0.76793 1.13927
 O1281 O 0.33460 0.62231 1.01905
 O1282 O 0.29332 0.66146 1.01650
 C1283 C 0.30632 0.63413 1.03013
 C1284 C 0.28871 0.61689 1.05989
 C1285 C 0.25712 0.62975 1.07120
 H1286 H 0.24521 0.65123 1.05716
 O1287 O 0.68060 0.38654 1.03516
 O1288 O 0.72203 0.34756 1.03751
 C1289 C 0.70826 0.37536 1.04867
 C1290 C 0.72373 0.39420 1.07854
 C1291 C 0.75425 0.38228 1.09415
 H1292 H 0.76695 0.35966 1.08352
 O1293 O 0.47072 0.37494 1.16442
 O1294 O 0.47180 0.33463 1.20582
 C1295 C 0.45929 0.36255 1.19302
 C1296 C 0.43097 0.38039 1.21154
 C1297 C 0.41960 0.36748 1.24386
 H1298 H 0.43213 0.34501 1.25555
 O1299 O 0.53104 0.63538 1.16475
 O1300 O 0.52967 0.67762 1.20357
 C1301 C 0.54162 0.64872 1.19318
 C1302 C 0.56852 0.63061 1.21386
 C1303 C 0.57792 0.64232 1.24732
 H1304 H 0.56480 0.66441 1.25864
 O1305 O 0.33505 0.46677 1.11953
 O1306 O 0.29412 0.46632 1.15906
 C1307 C 0.30719 0.45416 1.13121
 C1308 C 0.29067 0.42428 1.11286
 C1309 C 0.25973 0.40981 1.12533
 H1310 H 0.24714 0.42109 1.14778
 O1311 O 0.66892 0.54451 1.12582
 O1312 O 0.70768 0.54670 1.16781
 C1313 C 0.69624 0.55741 1.13837
 C1314 C 0.71437 0.58532 1.11837
 C1315 C 0.74602 0.59877 1.12989
 H1316 H 0.75778 0.58785 1.15316
 O1317 O 0.38341 0.32215 1.02665
 O1318 O 0.34306 0.28202 1.02785
 C1319 C 0.37121 0.29415 1.03937
 C1320 C 0.38982 0.27658 1.06851
 C1321 C 0.37830 0.24488 1.08312
 H1322 H 0.35610 0.23207 1.07206
 O1323 O 0.62385 0.67517 1.02182
 O1324 O 0.66315 0.71641 1.02071
 C1325 C 0.63549 0.70395 1.03293
 C1326 C 0.61781 0.72256 1.06142
 C1327 C 0.63293 0.75238 1.07554
 H1328 H 0.65642 0.76251 1.06438
 Cu1329 Cu 0.64202 0.51015 1.14595
 Cu1330 Cu 0.68812 0.51230 1.19665
 Cu1331 Cu 0.36151 0.50180 1.13968
 Cu1332 Cu 0.31277 0.50136 1.18712
 Cu1333 Cu 0.49840 0.65308 1.13390
 Cu1334 Cu 0.49688 0.70390 1.18020
 Cu1335 Cu 0.50572 0.35625 1.13741
 Cu1336 Cu 0.50688 0.30812 1.18721
 C1337 C 0.58578 0.60199 1.19956
 H1338 H 0.57896 0.59310 1.17361
 C1339 C 0.60466 0.62621 1.26610
 C1340 C 0.41458 0.40965 1.19684
 H1341 H 0.42325 0.41961 1.17180
 C1342 C 0.39164 0.38241 1.26101
 C1343 C 0.58784 0.70927 1.07674
 H1344 H 0.57650 0.68573 1.06636
 C1345 C 0.61908 0.76878 1.10474
 C1346 C 0.41865 0.29295 1.08323
 H1347 H 0.42717 0.31783 1.07293
 C1348 C 0.39564 0.22973 1.11190
 C1349 C 0.69954 0.59905 1.08754
 H1350 H 0.67498 0.58931 1.07869
 C1351 C 0.76254 0.62568 1.11099
 C1352 C 0.30698 0.40848 1.08402
 H1353 H 0.33087 0.41902 1.07430
 C1354 C 0.24594 0.37965 1.10991
 C1355 C 0.41020 0.59701 1.19527
 H1356 H 0.41948 0.58665 1.17078
 C1357 C 0.38576 0.62531 1.25815
 C1358 C 0.59007 0.41661 1.20101
 H1359 H 0.58407 0.42457 1.17443
 C1360 C 0.60595 0.39413 1.26912
 C1361 C 0.70644 0.42259 1.09344
 H1362 H 0.68261 0.43161 1.08194
 C1363 C 0.76722 0.39827 1.12447
 C1364 C 0.30407 0.58924 1.07847
 H1365 H 0.32871 0.57951 1.07005
 C1366 C 0.24100 0.61622 1.10099
 C1367 C 0.41005 0.70876 1.07382
 H1368 H 0.42162 0.68492 1.06451
 C1369 C 0.37871 0.76957 1.09905
 C1370 C 0.60129 0.30284 1.08970
 H1371 H 0.59336 0.32903 1.08263
 C1372 C 0.62289 0.23546 1.10844
 O1373 O 0.62528 0.46483 0.82545
 O1374 O 0.66490 0.46426 0.78446
 C1375 C 0.63740 0.45245 0.79746
 C1376 C 0.61998 0.42389 0.77949
 C1377 C 0.62962 0.41577 0.74543
 H1378 H 0.64868 0.43156 0.73216
 O1379 O 0.38359 0.52876 0.80983
 O1380 O 0.34408 0.52557 0.76863
 C1381 C 0.37126 0.53906 0.78066
 C1382 C 0.38855 0.56770 0.76152
 C1383 C 0.37629 0.58060 0.72914
 H1384 H 0.35401 0.56901 0.71691
 O1385 O 0.46874 0.66904 0.85589
 O1386 O 0.46888 0.70941 0.81453
 C1387 C 0.45698 0.69723 0.84301
 C1388 C 0.42886 0.71546 0.86127
 C1389 C 0.41666 0.74789 0.84920
 H1390 H 0.42827 0.76026 0.82660
 O1391 O 0.54188 0.32332 0.87886
 O1392 O 0.54541 0.28173 0.83957
 C1393 C 0.55579 0.29568 0.86780
 C1394 C 0.58520 0.28047 0.88718
 C1395 C 0.59808 0.24758 0.87820
 H1396 H 0.58520 0.23243 0.85830
 O1397 O 0.68381 0.38377 0.96672
 O1398 O 0.72548 0.34504 0.96868
 C1399 C 0.71226 0.37234 0.95552
 C1400 C 0.72895 0.39043 0.92584
 C1401 C 0.76074 0.37933 0.91253
 H1402 H 0.77397 0.35778 0.92501
 O1403 O 0.33330 0.62193 0.95031
 O1404 O 0.29210 0.66117 0.94808
 C1405 C 0.30523 0.63298 0.93733
 C1406 C 0.28828 0.61349 0.90872
 C1407 C 0.25616 0.62410 0.89564
 H1408 H 0.24356 0.64631 0.90718
 O1409 O 0.53657 0.62221 0.81007
 O1410 O 0.53727 0.66210 0.76830
 C1411 C 0.54865 0.63399 0.78151
 C1412 C 0.57647 0.61460 0.76427
 C1413 C 0.58857 0.62371 0.73073
 H1414 H 0.57712 0.64530 0.71650
 O1415 O 0.47533 0.36666 0.82652
 O1416 O 0.47850 0.32547 0.78664
 C1417 C 0.46549 0.35377 0.79771
 C1418 C 0.43821 0.37162 0.77738
 C1419 C 0.42701 0.35814 0.74529
 H1420 H 0.43895 0.33495 0.73484
 O1421 O 0.67117 0.53632 0.86759
 O1422 O 0.71053 0.53514 0.82631
 C1423 C 0.69868 0.54786 0.85432
 C1424 C 0.71714 0.57640 0.87145
 C1425 C 0.74843 0.58784 0.85809
 H1426 H 0.75931 0.57532 0.83532
 O1427 O 0.33997 0.46244 0.86325
 O1428 O 0.30021 0.45953 0.82221
 C1429 C 0.31214 0.44980 0.85167
 C1430 C 0.29320 0.42356 0.87238
 C1431 C 0.25913 0.41634 0.86384
 H1432 H 0.24686 0.43065 0.84267
 O1433 O 0.62472 0.67261 0.95356
 O1434 O 0.66355 0.71427 0.95257
 C1435 C 0.63604 0.70099 0.94079
 C1436 C 0.61738 0.71829 0.91152
 C1437 C 0.62735 0.75146 0.89932
 H1438 H 0.64866 0.76462 0.91167
 O1439 O 0.38184 0.32065 0.95846
 O1440 O 0.34076 0.28128 0.95903
 C1441 C 0.36881 0.29263 0.94676
 C1442 C 0.38616 0.27399 0.91784
 C1443 C 0.37035 0.24592 0.90040
 H1444 H 0.34549 0.23682 0.90894
 O1445 O 0.38768 0.46086 0.81633
 O1446 O 0.34818 0.45752 0.77516
 C1447 C 0.37612 0.44692 0.78870
 C1448 C 0.39480 0.41741 0.77279
 C1449 C 0.38397 0.40351 0.74071
 H1450 H 0.36213 0.41497 0.72748
 O1451 O 0.62571 0.53216 0.81812
 O1452 O 0.66542 0.53055 0.77726
 C1453 C 0.63735 0.54213 0.78865
 C1454 C 0.61887 0.56829 0.76772
 C1455 C 0.62983 0.57658 0.73382
 H1456 H 0.65076 0.56226 0.72213
 O1457 O 0.47455 0.31796 0.87308
 O1458 O 0.47793 0.27634 0.83379
 C1459 C 0.46377 0.28937 0.86049
 C1460 C 0.43316 0.27238 0.87582
 C1461 C 0.41688 0.24476 0.85848
 H1462 H 0.42803 0.23430 0.83484
 O1463 O 0.53534 0.66862 0.85870
 O1464 O 0.53573 0.70890 0.81718
 C1465 C 0.54690 0.69697 0.84621
 C1466 C 0.57394 0.71602 0.86530
 C1467 C 0.58445 0.74891 0.85343
 H1468 H 0.57216 0.76067 0.83076
 O1469 O 0.33698 0.37062 0.95841
 O1470 O 0.29558 0.33158 0.95934
 C1471 C 0.30847 0.35950 0.94697
 C1472 C 0.29085 0.37917 0.91853
 C1473 C 0.25662 0.37191 0.90915
 H1474 H 0.24256 0.35226 0.92355
 O1475 O 0.67443 0.62756 0.95682
 O1476 O 0.71349 0.66898 0.95533
 C1477 C 0.70212 0.64003 0.94455
 C1478 C 0.71996 0.62109 0.91632
 C1479 C 0.75194 0.63201 0.90303
 H1480 H 0.76501 0.65408 0.91449
 O1481 O 0.54138 0.36646 0.82618
 O1482 O 0.54491 0.32489 0.78678
 C1483 C 0.55433 0.35427 0.79831
 C1484 C 0.58067 0.37475 0.77964
 C1485 C 0.59175 0.36587 0.74569
 H1486 H 0.58102 0.34345 0.73255
 O1487 O 0.47044 0.61992 0.80974
 O1488 O 0.47097 0.65998 0.76816
 C1489 C 0.45961 0.63157 0.78057
 C1490 C 0.43276 0.61253 0.76148
 C1491 C 0.42129 0.62424 0.72865
 H1492 H 0.43344 0.64643 0.71614
 O1493 O 0.33833 0.52996 0.85912
 O1494 O 0.29856 0.52696 0.81810
 C1495 C 0.31010 0.54035 0.84614
 C1496 C 0.29092 0.56861 0.86370
 C1497 C 0.25891 0.57968 0.85090
 H1498 H 0.24775 0.56702 0.82831
 O1499 O 0.67540 0.46901 0.87012
 O1500 O 0.71462 0.46845 0.82867
 C1501 C 0.70372 0.45803 0.85810
 C1502 C 0.72404 0.43237 0.87799
 C1503 C 0.75567 0.42128 0.86514
 H1504 H 0.76573 0.43273 0.84128
 O1505 O 0.63684 0.33607 0.96704
 O1506 O 0.67817 0.29689 0.96905
 C1507 C 0.64968 0.30755 0.95674
 C1508 C 0.63135 0.28660 0.93022
 C1509 C 0.64348 0.25345 0.92119
 H1510 H 0.66606 0.24289 0.93400
 O1511 O 0.38028 0.66984 0.94936
 O1512 O 0.33911 0.70914 0.94717
 C1513 C 0.36753 0.69741 0.93618
 C1514 C 0.38545 0.71557 0.90721
 C1515 C 0.37379 0.74803 0.89495
 H1516 H 0.35173 0.75985 0.90716
 Cu1517 Cu 0.64527 0.50073 0.84963
 Cu1518 Cu 0.69257 0.49943 0.80015
 Cu1519 Cu 0.36657 0.49594 0.84107
 Cu1520 Cu 0.31897 0.49186 0.79191
 Cu1521 Cu 0.64477 0.64666 0.98925
 Cu1522 Cu 0.69154 0.69642 0.98798
 Cu1523 Cu 0.65553 0.36486 1.00058
 Cu1524 Cu 0.70526 0.31795 1.00307
 Cu1525 Cu 0.36060 0.64302 0.98427
 Cu1526 Cu 0.31107 0.68991 0.98145
 Cu1527 Cu 0.36433 0.35014 0.99234
 Cu1528 Cu 0.31525 0.30281 0.99365
 Cu1529 Cu 0.50272 0.64085 0.83783
 Cu1530 Cu 0.50314 0.68894 0.78807
 Cu1531 Cu 0.50817 0.34752 0.85534
 Cu1532 Cu 0.51201 0.29774 0.80819
 C1533 C 0.59511 0.40380 0.79630
 H1534 H 0.58763 0.41035 0.82273
 C1535 C 0.61623 0.38679 0.72855
 C1536 C 0.41684 0.58385 0.77722
 H1537 H 0.42583 0.57485 0.80256
 C1538 C 0.39296 0.60874 0.71258
 C1539 C 0.41330 0.69974 0.89052
 H1540 H 0.42220 0.67454 0.89969
 C1541 C 0.38956 0.76463 0.86629
 C1542 C 0.60195 0.29976 0.91335
 H1543 H 0.59258 0.32545 0.91996
 C1544 C 0.62734 0.23407 0.89500
 C1545 C 0.71116 0.41736 0.90863
 H1546 H 0.68642 0.42566 0.91820
 C1547 C 0.77426 0.39497 0.88204
 C1548 C 0.30517 0.58545 0.89285
 H1549 H 0.33006 0.57742 0.90258
 C1550 C 0.24114 0.60712 0.86687
 C1551 C 0.59186 0.58684 0.78243
 H1552 H 0.58355 0.58031 0.80869
 C1553 C 0.61531 0.60446 0.71542
 C1554 C 0.42222 0.40155 0.79071
 H1555 H 0.43039 0.41185 0.81570
 C1556 C 0.40019 0.37405 0.72664
 C1557 C 0.70323 0.59284 0.90064
 H1558 H 0.67862 0.58428 0.91046
 C1559 C 0.76619 0.61513 0.87379
 C1560 C 0.30881 0.40524 0.90002
 H1561 H 0.33527 0.41073 0.90655
 C1562 C 0.24063 0.39071 0.88175
 C1563 C 0.59030 0.70100 0.89458
 H1564 H 0.58261 0.67533 0.90353
 C1565 C 0.61070 0.76697 0.87039
 C1566 C 0.41779 0.28645 0.90565
 H1567 H 0.42989 0.30825 0.91862
 C1568 C 0.38560 0.23127 0.87048
 C1569 C 1.14649 1.13958 1.31170
 C1570 C 1.11473 1.14159 1.29841
 H1571 H 1.16648 1.12668 1.29712
 H1572 H 1.09504 1.15503 1.31296
 C1573 C 1.13895 0.62849 0.82233
 C1574 C 1.12175 0.64472 0.79656
 H1575 H 1.14424 0.60088 0.82061
 H1576 H 1.11648 0.67233 0.79895
 C1577 C 0.64966 1.14082 0.80950
 C1578 C 0.61832 1.14369 0.79520
 H1579 H 0.66976 1.12740 0.79562
 H1580 H 0.59859 1.15753 0.80932
 C1581 C 0.64544 0.63775 1.31502
 C1582 C 0.61383 0.63991 1.30114
 H1583 H 0.66544 0.62461 1.30069
 H1584 H 0.59402 0.65358 1.31528
 C1585 C 0.85430 0.86530 1.32029
 C1586 C 0.88743 0.86785 1.31180
 H1587 H 0.83507 0.87794 1.30415
 H1588 H 0.90629 0.85437 1.32777
 C1589 C 0.87320 0.37249 0.83160
 C1590 C 0.88871 0.35681 0.80477
 H1591 H 0.86897 0.40037 0.83076
 H1592 H 0.89296 0.32893 0.80590
 C1593 C 0.35433 0.87033 0.82791
 C1594 C 0.38715 0.87412 0.81852
 H1595 H 0.33432 0.88097 0.81131
 H1596 H 0.40695 0.86296 0.83507
 C1597 C 0.34883 0.36540 1.30633
 C1598 C 0.38112 0.36630 1.29473
 H1599 H 0.32898 0.37894 1.29177
 H1600 H 0.40061 0.35239 1.30948
 C1601 C 0.87169 1.12647 0.67268
 C1602 C 0.85499 1.11163 0.69937
 H1603 H 0.89918 1.12980 0.67462
 H1604 H 0.82760 1.10759 0.69750
 C1605 C 0.85697 0.64663 0.19572
 C1606 C 0.86155 0.61306 0.20361
 H1607 H 0.86684 0.66660 0.21292
 H1608 H 0.85094 0.59340 0.18647
 C1609 C 0.35873 1.14830 0.18382
 C1610 C 0.35754 1.11585 0.19725
 H1611 H 0.37312 1.16835 0.19709
 H1612 H 0.34293 1.09629 0.18338
 C1613 C 0.35019 0.63974 0.67740
 C1614 C 0.38056 0.62394 0.67938
 H1615 H 0.33246 0.63775 0.69907
 H1616 H 0.39839 0.62652 0.65789
 C1617 C 1.14742 0.86040 0.69293
 C1618 C 1.11538 0.86273 0.70507
 H1619 H 1.16803 0.87205 0.70787
 H1620 H 1.09479 0.85059 0.69052
 C1621 C 1.13706 0.37613 0.17223
 C1622 C 1.12322 0.35779 0.19866
 H1623 H 1.13680 0.40432 0.17317
 H1624 H 1.12352 0.32959 0.19764
 C1625 C 0.63567 0.87081 0.18202
 C1626 C 0.61736 0.85570 0.20755
 H1627 H 0.64338 0.89778 0.18412
 H1628 H 0.61050 0.82851 0.20473
 C1629 C 0.63739 0.34797 0.68217
 C1630 C 0.62998 0.37972 0.69355
 H1631 H 0.62878 0.32500 0.69623
 H1632 H 0.63927 0.40180 0.67843
 C1633 C 1.30791 1.14229 1.14446
 C1634 C 1.29395 1.14342 1.11234
 H1635 H 1.29402 1.13005 1.16569
 H1636 H 1.30763 1.15626 1.09130
 C1637 C 1.30949 0.65108 0.62826
 C1638 C 1.29886 0.61824 0.62513
 H1639 H 1.29425 0.67177 0.61660
 H1640 H 1.31374 0.59755 0.63724
 C1641 C 0.82279 1.12542 0.62977
 C1642 C 0.79945 1.14368 0.61113
 H1643 H 0.81795 1.09840 0.63626
 H1644 H 0.80468 1.17055 0.60418
 C1645 C 0.80812 0.64041 1.15461
 C1646 C 0.79583 0.64115 1.12182
 H1647 H 0.79417 0.62673 1.17489
 H1648 H 0.81026 0.65498 1.10195
 C1649 C 1.31282 0.86049 0.87698
 C1650 C 1.29838 0.89207 0.87503
 H1651 H 1.30033 0.83999 0.89178
 H1652 H 1.31095 0.91237 0.86000
 C1653 C 1.30871 0.35572 0.35617
 C1654 C 1.29767 0.38867 0.35775
 H1655 H 1.29384 0.33538 0.36874
 H1656 H 1.31186 0.40905 0.34445
 C1657 C 0.81156 0.85325 0.36745
 C1658 C 0.79836 0.88556 0.36692
 H1659 H 0.79764 0.83258 0.38057
 H1660 H 0.81192 0.90614 0.35327
 C1661 C 0.83130 0.36576 0.88055
 C1662 C 0.80587 0.38300 0.86465
 H1663 H 0.82954 0.35927 0.90810
 H1664 H 0.80817 0.38869 0.83694
 C1665 C 0.67829 0.86096 1.13439
 C1666 C 0.70539 0.87284 1.15212
 H1667 H 0.68010 0.85741 1.10635
 H1668 H 0.70321 0.87652 1.18011
 C1669 C 0.69111 0.36130 0.65118
 C1670 C 0.70345 0.37475 0.62165
 H1671 H 0.70577 0.36328 0.67523
 H1672 H 0.68838 0.37211 0.59793
 C1673 C 0.18822 0.84861 0.64427
 C1674 C 0.20268 0.88023 0.64420
 H1675 H 0.20140 0.82705 0.63208
 H1676 H 0.18924 0.90147 0.65668
 C1677 C 0.18696 0.37820 1.13385
 C1678 C 0.21522 0.36161 1.12343
 H1679 H 0.18718 0.40642 1.13502
 H1680 H 0.21566 0.33347 1.12282
 C1681 C 0.68737 1.14350 0.86219
 C1682 C 0.69650 1.10982 0.86248
 H1683 H 0.70259 1.16220 0.87652
 H1684 H 0.68170 1.09134 0.84737
 C1685 C 0.68490 0.64219 0.36649
 C1686 C 0.69641 0.60921 0.36534
 H1687 H 0.69924 0.66142 0.38103
 H1688 H 0.68224 0.59025 0.35021
 C1689 C 0.18565 1.14312 0.36304
 C1690 C 0.19557 1.10967 0.36279
 H1691 H 0.20093 1.16217 0.37683
 H1692 H 0.18068 1.09087 0.34818
 C1693 C 0.18362 0.63580 0.86871
 C1694 C 0.20815 0.61868 0.85118
 H1695 H 0.18735 0.64170 0.89610
 H1696 H 0.20399 0.61250 0.82389
 C1697 C 1.14602 1.32776 1.12780
 C1698 C 1.11314 1.31789 1.12548
 H1699 H 1.16507 1.31146 1.11570
 H1700 H 1.09365 1.33396 1.13737
 C1701 C 1.13535 0.81246 0.65015
 C1702 C 1.13536 0.80113 0.61699
 H1703 H 1.12065 0.79851 0.66970
 H1704 H 1.15050 0.81511 0.59780
 C1705 C 0.65033 1.31738 0.62659
 C1706 C 0.61772 1.30968 0.61921
 H1707 H 0.67094 1.30236 0.61525
 H1708 H 0.59785 1.32539 0.63104
 C1709 C 0.62562 0.82405 1.13790
 C1710 C 0.63909 0.79763 1.11999
 H1711 H 0.59832 0.82473 1.14272
 H1712 H 0.66644 0.79729 1.11539
 C1713 C 0.87523 1.31994 0.87064
 C1714 C 0.85606 1.29355 0.88247
 H1715 H 0.90241 1.31624 0.86653
 H1716 H 0.82894 1.29768 0.88666
 C1717 C 0.85970 0.81159 0.35609
 C1718 C 0.85995 0.79633 0.38762
 H1719 H 0.87213 0.79882 0.33437
 H1720 H 0.84727 0.80927 0.40910
 C1721 C 0.35608 1.31339 0.34558
 C1722 C 0.35473 1.29878 0.37758
 H1723 H 0.36925 1.29995 0.32477
 H1724 H 0.34128 1.31224 0.39820
 C1725 C 0.36257 0.82239 0.87326
 C1726 C 0.37651 0.79828 0.85245
 H1727 H 0.36169 0.81771 0.90124
 H1728 H 0.37767 0.80276 0.82448
 C1729 C 1.13240 0.67547 0.86640
 C1730 C 1.14702 0.70201 0.88344
 H1731 H 1.10499 0.67556 0.86206
 H1732 H 1.17445 0.70158 0.88769
 C1733 C 1.13933 0.18719 0.35485
 C1734 C 1.13990 0.19876 0.38782
 H1735 H 1.12677 0.20274 0.33480
 H1736 H 1.15322 0.18400 0.40793
 C1737 C 0.63715 0.68507 0.35860
 C1738 C 0.63710 0.69634 0.39173
 H1739 H 0.62437 0.70057 0.33867
 H1740 H 0.65060 0.68160 0.41173
 C1741 C 0.64227 0.18855 0.85251
 C1742 C 0.64188 0.19992 0.88555
 H1743 H 0.63078 0.20446 0.83209
 H1744 H 0.65415 0.18476 0.90606
 C1745 C 0.85067 0.68899 1.14706
 C1746 C 0.88329 0.70022 1.14880
 H1747 H 0.83152 0.70428 1.13342
 H1748 H 0.90203 0.68495 1.16318
 C1749 C 0.86905 0.17004 0.62434
 C1750 C 0.88755 0.19409 0.64115
 H1751 H 0.86390 0.17313 0.59663
 H1752 H 0.89323 0.19078 0.66873
 C1753 C 0.35263 0.69485 0.64212
 C1754 C 0.38542 0.70458 0.64667
 H1755 H 0.33465 0.71369 0.63154
 H1756 H 0.40376 0.68723 0.65885
 C1757 C 0.35128 0.18840 1.13261
 C1758 C 0.38426 0.19705 1.12906
 H1759 H 0.33177 0.20485 1.12087
 H1760 H 0.40360 0.18088 1.14149
 C1761 C 1.14332 1.13231 0.68556
 C1762 C 1.11075 1.13270 0.69660
 H1763 H 1.16244 1.11782 0.70017
 H1764 H 1.09209 1.14762 0.68172
 C1765 C 1.13963 0.62893 0.17515
 C1766 C 1.12226 0.64497 0.20067
 H1767 H 1.13965 0.60071 0.17441
 H1768 H 1.12177 0.67316 0.20163
 C1769 C 0.63998 1.13311 0.18666
 C1770 C 0.60704 1.13108 0.19583
 H1771 H 0.65935 1.12069 0.20282
 H1772 H 0.58799 1.14427 0.17985
 C1773 C 0.63733 0.64597 0.67193
 C1774 C 0.62971 0.61324 0.68086
 H1775 H 0.63053 0.66692 0.68949
 H1776 H 0.63715 0.59212 0.66383
 C1777 C 0.86292 0.86697 0.68230
 C1778 C 0.87902 0.84984 0.70835
 H1779 H 0.85772 0.89453 0.68496
 H1780 H 0.88474 0.82242 0.70527
 C1781 C 0.86309 0.36983 0.17914
 C1782 C 0.87842 0.35198 0.20507
 H1783 H 0.85845 0.39747 0.18206
 H1784 H 0.88341 0.32443 0.20180
 C1785 C 0.36520 0.87000 0.17880
 C1786 C 0.38003 0.85210 0.20504
 H1787 H 0.36064 0.89766 0.18160
 H1788 H 0.38497 0.82453 0.20175
 C1789 C 0.37116 0.37452 0.66857
 C1790 C 0.38811 0.35747 0.69403
 H1791 H 0.36624 0.40215 0.67092
 H1792 H 0.39321 0.32989 0.69118
 C1793 C 1.14134 0.85218 1.31529
 C1794 C 1.14124 0.88552 1.30448
 H1795 H 1.12827 0.83252 1.30010
 H1796 H 1.15502 0.90475 1.31965
 C1797 C 1.14788 0.36643 0.82440
 C1798 C 1.11713 0.37870 0.81553
 H1799 H 1.16896 0.36941 0.80622
 H1800 H 1.09585 0.37524 0.83331
 C1801 C 0.62924 0.87290 0.82883
 C1802 C 0.64481 0.89156 0.80368
 H1803 H 0.60217 0.86728 0.82665
 H1804 H 0.67184 0.89734 0.80615
 C1805 C 0.64482 0.36989 1.31337
 C1806 C 0.61344 0.38025 1.30446
 H1807 H 0.66574 0.37469 1.29538
 H1808 H 0.59236 0.37549 1.32221
 C1809 C 0.85298 1.13560 1.31642
 C1810 C 0.88551 1.13290 1.30594
 H1811 H 0.83272 1.12463 1.30049
 H1812 H 0.90574 1.14471 1.32127
 C1813 C 0.86784 0.62478 0.82697
 C1814 C 0.88439 0.63956 0.80012
 H1815 H 0.86033 0.59768 0.82569
 H1816 H 0.89096 0.66692 0.80205
 C1817 C 0.34635 1.14247 0.80642
 C1818 C 0.37997 1.13906 0.80049
 H1819 H 0.32861 1.13416 0.78621
 H1820 H 0.39861 1.14709 0.81984
 C1821 C 0.35677 0.62799 1.31681
 C1822 C 0.37384 0.64315 1.29044
 H1823 H 0.34938 0.60089 1.31486
 H1824 H 0.38049 0.67043 1.29299
 C1825 C 1.13159 1.32597 0.87444
 C1826 C 1.11296 1.30270 0.85626
 H1827 H 1.13274 1.32387 0.90269
 H1828 H 1.11105 1.30507 0.82806
 C1829 C 1.14922 0.80922 0.36393
 C1830 C 1.11666 0.79812 0.36444
 H1831 H 1.16908 0.79377 0.37632
 H1832 H 1.09717 0.81374 0.35156
 C1833 C 0.63443 1.32901 0.36549
 C1834 C 0.61583 1.30470 0.34876
 H1835 H 0.63780 1.32662 0.39354
 H1836 H 0.61124 1.30736 0.32091
 C1837 C 0.63533 0.82640 0.87429
 C1838 C 0.62145 0.80081 0.85540
 H1839 H 0.63909 0.82288 0.90218
 H1840 H 0.61754 0.80479 0.82756
 C1841 C 0.86898 1.32277 1.13472
 C1842 C 0.85230 1.29702 1.11835
 H1843 H 0.89614 1.32060 1.13989
 H1844 H 0.82512 1.29990 1.11330
 C1845 C 0.87084 0.82019 0.63794
 C1846 C 0.85561 0.79408 0.62071
 H1847 H 0.89798 0.81903 0.64356
 H1848 H 0.82837 0.79593 0.61554
 C1849 C 0.37469 1.32611 0.62560
 C1850 C 0.35717 1.29944 0.61204
 H1851 H 0.40216 1.32420 0.62895
 H1852 H 0.32971 1.30190 0.60868
 C1853 C 0.37365 0.82485 1.13296
 C1854 C 0.35968 0.80011 1.11275
 H1855 H 0.40049 0.82329 1.13987
 H1856 H 0.33282 0.80203 1.10587
 C1857 C 0.87840 0.67302 0.86987
 C1858 C 0.86489 0.69887 0.88876
 H1859 H 0.90540 0.67334 0.86356
 H1860 H 0.83780 0.69811 0.89468
 C1861 C 0.86457 0.18418 0.35690
 C1862 C 0.87149 0.19133 0.39019
 H1863 H 0.87503 0.20048 0.33626
 H1864 H 0.86042 0.17500 0.41046
 C1865 C 0.36884 0.67440 0.36144
 C1866 C 0.35693 0.69928 0.38280
 H1867 H 0.39553 0.67460 0.35397
 H1868 H 0.33014 0.69872 0.38994
 C1869 C 0.34842 0.17888 0.86189
 C1870 C 0.36830 0.20439 0.84889
 H1871 H 0.34348 0.17853 0.88968
 H1872 H 0.37309 0.20538 0.82102
 C1873 C 1.15648 0.68215 1.13836
 C1874 C 1.12514 0.69495 1.13239
 H1875 H 1.17854 0.69827 1.13255
 H1876 H 1.10310 0.67887 1.13834
 C1877 C 1.13883 0.18543 0.64794
 C1878 C 1.14064 0.20053 0.61628
 H1879 H 1.12633 0.19892 0.66915
 H1880 H 1.15360 0.18706 0.59531
 C1881 C 0.64796 0.68839 0.62364
 C1882 C 0.61828 0.70519 0.62750
 H1883 H 0.66879 0.70041 0.60940
 H1884 H 0.59777 0.69230 0.64156
 C1885 C 0.63448 0.18540 1.14840
 C1886 C 0.63559 0.19992 1.11650
 H1887 H 0.62162 0.19896 1.16937
 H1888 H 0.64866 0.18623 1.09576
 C1889 C 1.29927 1.13839 0.84764
 C1890 C 1.28850 1.13241 0.88025
 H1891 H 1.28253 1.13128 0.82613
 H1892 H 1.30452 1.13919 0.90229
 C1893 C 1.31662 0.63668 0.36682
 C1894 C 1.28887 0.62428 0.35046
 H1895 H 1.31637 0.63944 0.39501
 H1896 H 1.28961 0.62137 0.32229
 C1897 C 0.81115 1.14947 0.36395
 C1898 C 0.79429 1.11910 0.36185
 H1899 H 0.79977 1.17120 0.37756
 H1900 H 0.80644 1.09767 0.34840
 C1901 C 0.82626 0.63557 0.87491
 C1902 C 0.79841 0.62607 0.85710
 H1903 H 0.82520 0.63765 0.90316
 H1904 H 0.79992 0.62397 0.82887
 C1905 C 1.32458 0.86692 1.12811
 C1906 C 1.29973 0.88523 1.14381
 H1907 H 1.32260 0.86175 1.10037
 H1908 H 1.30193 0.89104 1.17141
 C1909 C 1.32762 0.36988 0.62065
 C1910 C 1.30256 0.38644 0.63778
 H1911 H 1.32504 0.36470 0.59299
 H1912 H 1.30573 0.39130 0.66549
 C1913 C 0.82364 0.86360 0.63015
 C1914 C 0.79878 0.88316 0.64414
 H1915 H 0.82258 0.85748 0.60255
 H1916 H 0.80003 0.88947 0.67169
 C1917 C 0.82311 0.36740 1.12790
 C1918 C 0.79773 0.38496 1.14331
 H1919 H 0.82209 0.36258 1.10004
 H1920 H 0.79912 0.38982 1.17116
 C1921 C 0.68220 1.14295 1.13877
 C1922 C 0.69464 1.11038 1.13968
 H1923 H 0.69662 1.16313 1.12545
 H1924 H 0.68079 1.09023 1.15368
 C1925 C 0.67943 0.63339 0.62331
 C1926 C 0.70389 0.61738 0.64222
 H1927 H 0.68106 0.63388 0.59505
 H1928 H 0.70195 0.61673 0.67049
 C1929 C 0.18531 1.14257 0.63737
 C1930 C 0.19595 1.10958 0.63499
 H1931 H 0.20089 1.16311 0.62610
 H1932 H 0.18108 1.08895 0.64704
 C1933 C 0.19329 0.62895 1.14265
 C1934 C 0.20822 0.63279 1.11141
 H1935 H 0.20407 0.61136 1.16198
 H1936 H 0.19615 0.65007 1.09250
 C1937 C 0.67810 0.87460 0.87141
 C1938 C 0.70246 0.85675 0.88865
 H1939 H 0.68164 0.90216 0.86635
 H1940 H 0.69881 0.82936 0.89450
 C1941 C 0.68188 0.37281 0.36410
 C1942 C 0.70452 0.35473 0.38340
 H1943 H 0.68668 0.39998 0.35808
 H1944 H 0.69949 0.32765 0.38973
 C1945 C 0.19116 0.85743 0.35541
 C1946 C 0.20301 0.85810 0.38831
 H1947 H 0.20578 0.86933 0.33452
 H1948 H 0.18820 0.84563 0.40879
 C1949 C 0.18725 0.35557 0.87465
 C1950 C 0.20488 0.38510 0.87014
 H1951 H 0.19781 0.33455 0.89035
 H1952 H 0.19320 0.40578 0.85475
   
