data_POSCAR
  _audit_creation_date              2014-09-24
  _audit_creation_method            'ToBaCCo'
  _symmetry_space_group_name_H-M    'P1'
  _symmetry_Int_Tables_number       1
  _symmetry_cell_setting            triclinic
  loop_
  _symmetry_equiv_pos_as_xyz
 x,y,z
_cell_length_a 63.5312
_cell_length_b 63.5058
_cell_length_c 63.7556
_cell_angle_alpha 91.463600
_cell_angle_beta 91.385500
_cell_angle_gamma 91.504500
loop_
  _atom_site_label
  _atom_site_type_symbol
  _atom_site_fract_x
  _atom_site_fract_y
  _atom_site_fract_z
N1 N 0.17518 0.22461 0.22940
 N2 N 0.18059 0.20755 0.23919
 C3 C 0.16750 0.20447 0.25518
 C4 C 0.15305 0.22044 0.25542
 C5 C 0.15846 0.23293 0.23878
 H6 H 0.16837 0.19148 0.26575
 H7 H 0.15096 0.24713 0.23389
 Cu8 Cu 0.20425 0.19104 0.23025
 Cu9 Cu 0.19016 0.23482 0.20530
 Cu10 Cu 0.23330 0.20672 0.18969
 N11 N 0.22904 0.17604 0.22168
 N12 N 0.24030 0.18223 0.20585
 C13 C 0.25648 0.16922 0.20342
 C14 C 0.25537 0.15399 0.21856
 C15 C 0.23771 0.15888 0.22988
 H16 H 0.26827 0.17091 0.19160
 H17 H 0.23155 0.15054 0.24305
 N18 N 0.22373 0.23193 0.17533
 N19 N 0.20732 0.24265 0.18129
 C20 C 0.20475 0.25888 0.16839
 C21 C 0.22030 0.25841 0.15353
 C22 C 0.23203 0.24105 0.15848
 H23 H 0.19246 0.27022 0.16979
 H24 H 0.24553 0.23533 0.15032
 H25 H 0.20142 0.20605 0.19547
 H26 H 0.21876 0.22237 0.21399
 N27 N 0.67507 0.72508 0.73100
 N28 N 0.68112 0.70857 0.74133
 C29 C 0.66808 0.70545 0.75736
 C30 C 0.65299 0.72085 0.75709
 C31 C 0.65801 0.73302 0.74007
 H32 H 0.66947 0.69287 0.76835
 H33 H 0.64990 0.74664 0.73458
 Cu34 Cu 0.70537 0.69277 0.73272
 Cu35 Cu 0.68962 0.73506 0.70651
 Cu36 Cu 0.73289 0.70709 0.69077
 N37 N 0.72969 0.67728 0.72373
 N38 N 0.74034 0.68295 0.70730
 C39 C 0.75625 0.66969 0.70451
 C40 C 0.75563 0.65482 0.72004
 C41 C 0.73850 0.66019 0.73196
 H42 H 0.76738 0.67085 0.69202
 H43 H 0.73287 0.65233 0.74564
 N44 N 0.72285 0.73198 0.67614
 N45 N 0.70641 0.74265 0.68213
 C46 C 0.70360 0.75871 0.66907
 C47 C 0.71902 0.75817 0.65407
 C48 C 0.73092 0.74096 0.65910
 H49 H 0.69127 0.77001 0.67046
 H50 H 0.74441 0.73527 0.65092
 H51 H 0.70120 0.70620 0.69743
 H52 H 0.71874 0.72358 0.71473
 N53 N 0.31913 0.76451 0.73718
 N54 N 0.31474 0.78264 0.74621
 C55 C 0.32734 0.78585 0.76334
 C56 C 0.34041 0.76881 0.76518
 C57 C 0.33466 0.75557 0.74825
 H58 H 0.32704 0.79965 0.77360
 H59 H 0.34157 0.74075 0.74396
 Cu60 Cu 0.29354 0.80078 0.73446
 Cu61 Cu 0.30491 0.75422 0.71139
 Cu62 Cu 0.26317 0.78321 0.69329
 N63 N 0.26813 0.81502 0.72593
 N64 N 0.25636 0.80819 0.70985
 C65 C 0.24010 0.82111 0.70729
 C66 C 0.24166 0.83705 0.72266
 C67 C 0.25975 0.83251 0.73423
 H68 H 0.22813 0.81895 0.69505
 H69 H 0.26649 0.84121 0.74765
 N70 N 0.27255 0.75750 0.67874
 N71 N 0.28851 0.74648 0.68557
 C72 C 0.29133 0.73019 0.67207
 C73 C 0.27637 0.73093 0.65594
 C74 C 0.26475 0.74849 0.66075
 H75 H 0.30339 0.71865 0.67386
 H76 H 0.25183 0.75454 0.65160
 H77 H 0.29514 0.78275 0.70026
 H78 H 0.27726 0.76893 0.71866
 N79 N 0.81982 0.26312 0.23772
 N80 N 0.81378 0.27969 0.24850
 C81 C 0.82663 0.28270 0.26550
 C82 C 0.84163 0.26713 0.26544
 C83 C 0.83665 0.25499 0.24746
 H84 H 0.82518 0.29541 0.27690
 H85 H 0.84469 0.24135 0.24162
 Cu86 Cu 0.78992 0.29594 0.23908
 Cu87 Cu 0.80574 0.25346 0.21163
 Cu88 Cu 0.76387 0.28259 0.19389
 N89 N 0.76676 0.31247 0.22848
 N90 N 0.75666 0.30715 0.21084
 C91 C 0.74146 0.32107 0.20722
 C92 C 0.74200 0.33602 0.22347
 C93 C 0.75833 0.33000 0.23667
 H94 H 0.73090 0.32035 0.19368
 H95 H 0.76358 0.33769 0.25125
 N96 N 0.77351 0.25724 0.17890
 N97 N 0.78950 0.24618 0.18560
 C98 C 0.79232 0.23004 0.17192
 C99 C 0.77735 0.23092 0.15582
 C100 C 0.76571 0.24841 0.16083
 H101 H 0.80433 0.21842 0.17362
 H102 H 0.75269 0.25446 0.15182
 H103 H 0.79524 0.28273 0.20340
 H104 H 0.77667 0.26556 0.21804
 N105 N 0.81470 0.72972 0.26710
 N106 N 0.80903 0.71191 0.25737
 C107 C 0.82247 0.70812 0.24178
 C108 C 0.83743 0.72442 0.24174
 C109 C 0.83192 0.73784 0.25808
 H110 H 0.82150 0.69445 0.23134
 H111 H 0.83969 0.75255 0.26297
 Cu112 Cu 0.78460 0.69547 0.26601
 Cu113 Cu 0.79928 0.74120 0.29060
 Cu114 Cu 0.75497 0.71292 0.30558
 N115 N 0.75944 0.68002 0.27438
 N116 N 0.74794 0.68689 0.28985
 C117 C 0.73176 0.67318 0.29250
 C118 C 0.73310 0.65679 0.27786
 C119 C 0.75091 0.66172 0.26662
 H120 H 0.71989 0.67507 0.30420
 H121 H 0.75737 0.65253 0.25395
 N122 N 0.76466 0.73960 0.31956
 N123 N 0.78163 0.75027 0.31397
 C124 C 0.78439 0.76738 0.32676
 C125 C 0.76837 0.76756 0.34111
 C126 C 0.75616 0.74968 0.33601
 H127 H 0.79714 0.77887 0.32571
 H128 H 0.74235 0.74415 0.34401
 H129 H 0.78697 0.71281 0.30062
 H130 H 0.77050 0.72745 0.28152
 N131 N 0.31479 0.22982 -0.23342
 N132 N 0.30921 0.21198 -0.24311
 C133 C 0.32266 0.20824 -0.25871
 C134 C 0.33759 0.22465 -0.25885
 C135 C 0.33194 0.23804 -0.24245
 H136 H 0.32155 0.19457 -0.26914
 H137 H 0.33961 0.25272 -0.23735
 Cu138 Cu 0.28485 0.19542 -0.23441
 Cu139 Cu 0.29944 0.24116 -0.20981
 Cu140 Cu 0.25535 0.21266 -0.19464
 N141 N 0.25975 0.17988 -0.22599
 N142 N 0.24831 0.18667 -0.21044
 C143 C 0.23215 0.17294 -0.20780
 C144 C 0.23344 0.15661 -0.22252
 C145 C 0.25119 0.16162 -0.23380
 H146 H 0.22031 0.17478 -0.19605
 H147 H 0.25760 0.15250 -0.24656
 N148 N 0.26505 0.23932 -0.18060
 N149 N 0.28190 0.25009 -0.18631
 C150 C 0.28470 0.26717 -0.17348
 C151 C 0.26883 0.26721 -0.15897
 C152 C 0.25666 0.24929 -0.16402
 H153 H 0.29738 0.27872 -0.17460
 H154 H 0.24296 0.24366 -0.15592
 H155 H 0.28731 0.21269 -0.19977
 H156 H 0.27065 0.22728 -0.21875
 N157 N 0.67840 0.27143 -0.24107
 N158 N 0.68522 0.28747 -0.25184
 C159 C 0.67153 0.29065 -0.26784
 C160 C 0.65513 0.27576 -0.26714
 C161 C 0.66019 0.26382 -0.24983
 H162 H 0.67342 0.30297 -0.27907
 H163 H 0.65133 0.25065 -0.24382
 Cu164 Cu 0.71124 0.30273 -0.24366
 Cu165 Cu 0.69338 0.26170 -0.21626
 Cu166 Cu 0.73965 0.28876 -0.20132
 N167 N 0.73732 0.31772 -0.23512
 N168 N 0.74826 0.31221 -0.21850
 C169 C 0.76519 0.32528 -0.21582
 C170 C 0.76492 0.33983 -0.23164
 C171 C 0.74696 0.33450 -0.24362
 H172 H 0.77679 0.32423 -0.20324
 H173 H 0.74111 0.34251 -0.25723
 N174 N 0.72836 0.26460 -0.18596
 N175 N 0.71078 0.25427 -0.19164
 C176 C 0.70732 0.23870 -0.17807
 C177 C 0.72351 0.23922 -0.16308
 C178 C 0.73655 0.25589 -0.16866
 H179 H 0.69391 0.22788 -0.17898
 H180 H 0.75103 0.26124 -0.16079
 H181 H 0.70772 0.29039 -0.20798
 H182 H 0.72297 0.27208 -0.22480
 N183 N 0.17945 0.77144 0.25854
 N184 N 0.18659 0.78715 0.24749
 C185 C 0.17307 0.79019 0.23131
 C186 C 0.15657 0.77552 0.23221
 C187 C 0.16122 0.76390 0.24975
 H188 H 0.17510 0.80215 0.21973
 H189 H 0.15190 0.75111 0.25592
 Cu190 Cu 0.21275 0.80225 0.25544
 Cu191 Cu 0.19409 0.76210 0.28368
 Cu192 Cu 0.24011 0.78938 0.29890
 N193 N 0.23836 0.81771 0.26456
 N194 N 0.24896 0.81262 0.28154
 C195 C 0.26564 0.82596 0.28444
 C196 C 0.26559 0.84037 0.26840
 C197 C 0.24794 0.83451 0.25607
 H198 H 0.27677 0.82522 0.29746
 H199 H 0.24222 0.84200 0.24211
 N200 N 0.22865 0.76540 0.31442
 N201 N 0.21112 0.75501 0.30864
 C202 C 0.20754 0.73955 0.32229
 C203 C 0.22358 0.74018 0.33744
 C204 C 0.23666 0.75682 0.33187
 H205 H 0.19418 0.72867 0.32127
 H206 H 0.25110 0.76219 0.33981
 H207 H 0.20834 0.79101 0.29136
 H208 H 0.22390 0.77211 0.27549
 N209 N 0.47623 0.42587 0.48012
 N210 N 0.46011 0.43175 0.49115
 C211 C 0.45748 0.41836 0.50698
 C212 C 0.47281 0.40321 0.50588
 C213 C 0.48442 0.40858 0.48856
 H214 H 0.44526 0.41955 0.51839
 H215 H 0.49782 0.40053 0.48244
 Cu216 Cu 0.44401 0.45627 0.48369
 Cu217 Cu 0.48535 0.44099 0.45558
 Cu218 Cu 0.45650 0.48417 0.44134
 N219 N 0.42763 0.48025 0.47515
 N220 N 0.43263 0.49107 0.45862
 C221 C 0.41887 0.50662 0.45619
 C222 C 0.40435 0.50557 0.47205
 C223 C 0.41046 0.48856 0.48378
 H224 H 0.41935 0.51772 0.44364
 H225 H 0.40303 0.48270 0.49761
 N226 N 0.48117 0.47471 0.42583
 N227 N 0.49213 0.45827 0.43126
 C228 C 0.50785 0.45578 0.41769
 C229 C 0.50681 0.47140 0.40293
 C230 C 0.48964 0.48310 0.40865
 H231 H 0.51913 0.44338 0.41846
 H232 H 0.48374 0.49677 0.40094
 H233 H 0.47397 0.47000 0.46450
 H234 H 0.45606 0.45243 0.44779
 N235 N -0.02347 -0.07408 0.97969
 N236 N -0.03960 -0.06824 0.99073
 C237 C -0.04221 -0.08166 1.00654
 C238 C -0.02687 -0.09679 1.00541
 C239 C -0.01526 -0.09138 0.98810
 H240 H -0.05443 -0.08050 1.01795
 H241 H -0.00186 -0.09941 0.98196
 Cu242 Cu -0.05574 -0.04373 0.98333
 Cu243 Cu -0.01438 -0.05889 0.95517
 Cu244 Cu -0.04333 -0.01572 0.94105
 N245 N -0.07216 -0.01974 0.97488
 N246 N -0.06719 -0.00888 0.95837
 C247 C -0.08098 0.00666 0.95599
 C248 C -0.09549 0.00555 0.97187
 C249 C -0.08933 -0.01147 0.98355
 H250 H -0.08053 0.01779 0.94347
 H251 H -0.09674 -0.01739 0.99737
 N252 N -0.01865 -0.02511 0.92549
 N253 N -0.00764 -0.04153 0.93088
 C254 C 0.00809 -0.04393 0.91731
 C255 C 0.00701 -0.02827 0.90259
 C256 C -0.01020 -0.01664 0.90834
 H257 H 0.01940 -0.05631 0.91802
 H258 H -0.01610 -0.00294 0.90068
 H259 H -0.02580 -0.02994 0.96417
 H260 H -0.04368 -0.04749 0.94743
 N261 N 1.03240 0.58200 0.97553
 N262 N 1.05004 0.57813 0.98573
 C263 C 1.05297 0.59252 1.00152
 C264 C 1.03630 0.60621 1.00111
 C265 C 1.02358 0.59896 0.98436
 H266 H 1.06627 0.59306 1.01242
 H267 H 1.00878 0.60530 0.97916
 Cu268 Cu 1.06734 0.55459 0.97730
 Cu269 Cu 1.02184 0.56468 0.95176
 Cu270 Cu 1.05162 0.52217 0.93699
 N271 N 1.08355 0.53019 0.96911
 N272 N 1.07732 0.51776 0.95324
 C273 C 1.09108 0.50221 0.95090
 C274 C 1.10689 0.50490 0.96613
 C275 C 1.10154 0.52285 0.97745
 H276 H 1.08942 0.48963 0.93920
 H277 H 1.11010 0.53004 0.99075
 N278 N 1.02515 0.52917 0.92247
 N279 N 1.01377 0.54534 0.92812
 C280 C 0.99672 0.54598 0.91521
 C281 C 0.99737 0.52943 0.90068
 C282 C 1.01566 0.51912 0.90581
 H283 H 0.98486 0.55783 0.91615
 H284 H 1.02159 0.50526 0.89804
 H285 H 1.03613 0.53742 0.96092
 H286 H 1.05076 0.55437 0.94236
 N287 N 0.53265 0.08218 0.47601
 N288 N 0.55027 0.07829 0.48623
 C289 C 0.55317 0.09265 0.50205
 C290 C 0.53649 0.10633 0.50165
 C291 C 0.52381 0.09911 0.48487
 H292 H 0.56645 0.09316 0.51299
 H293 H 0.50902 0.10546 0.47965
 Cu294 Cu 0.56757 0.05476 0.47778
 Cu295 Cu 0.52211 0.06487 0.45221
 Cu296 Cu 0.55190 0.02238 0.43742
 N297 N 0.58382 0.03040 0.46955
 N298 N 0.57762 0.01799 0.45367
 C299 C 0.59141 0.00246 0.45131
 C300 C 0.60720 0.00516 0.46656
 C301 C 0.60182 0.02309 0.47790
 H302 H 0.58979 -0.01010 0.43959
 H303 H 0.61035 0.03027 0.49121
 N304 N 0.52540 0.02937 0.42291
 N305 N 0.51404 0.04555 0.42856
 C306 C 0.49699 0.04621 0.41566
 C307 C 0.49760 0.02964 0.40113
 C308 C 0.51588 0.01931 0.40627
 H309 H 0.48515 0.05807 0.41662
 H310 H 0.52182 0.00545 0.39850
 H311 H 0.53640 0.03756 0.46134
 H312 H 0.55105 0.05454 0.44281
 N313 N -0.02815 0.08504 0.52979
 N314 N -0.04447 0.07868 0.51799
 C315 C -0.04728 0.09238 0.50248
 C316 C -0.03192 0.10823 0.50457
 C317 C -0.02003 0.10300 0.52213
 H318 H -0.05937 0.09070 0.49029
 H319 H -0.00647 0.11157 0.52886
 Cu320 Cu -0.06012 0.05285 0.52368
 Cu321 Cu -0.01858 0.06938 0.55403
 Cu322 Cu -0.04664 0.02337 0.56455
 N323 N -0.07561 0.02696 0.52962
 N324 N -0.07021 0.01549 0.54563
 C325 C -0.08334 -0.00142 0.54627
 C326 C -0.09785 -0.00058 0.52975
 C327 C -0.09242 0.01771 0.51952
 H328 H -0.08250 -0.01330 0.55808
 H329 H -0.10006 0.02380 0.50571
 N330 N -0.02232 0.03391 0.58186
 N331 N -0.01149 0.05129 0.57783
 C332 C 0.00432 0.05392 0.59223
 C333 C 0.00337 0.03741 0.60603
 C334 C -0.01375 0.02508 0.59891
 H335 H 0.01566 0.06692 0.59268
 H336 H -0.01933 0.01049 0.60544
 H337 H -0.02957 0.04021 0.54301
 H338 H -0.04744 0.05554 0.56007
 N339 N 0.47313 0.58315 0.02894
 N340 N 0.45874 0.57506 0.01573
 C341 C 0.45578 0.58837 -0.00008
 C342 C 0.46909 0.60582 0.00328
 C343 C 0.47989 0.60190 0.02191
 H344 H 0.44496 0.58532 -0.01321
 H345 H 0.49179 0.61189 0.02981
 Cu346 Cu 0.44547 0.54771 0.01986
 Cu347 Cu 0.48211 0.56849 0.05404
 Cu348 Cu 0.45370 0.52303 0.06519
 N349 N 0.42747 0.52436 0.02800
 N350 N 0.43077 0.51470 0.04569
 C351 C 0.41628 0.49903 0.04727
 C352 C 0.40311 0.49885 0.02960
 C353 C 0.41071 0.51524 0.01773
 H354 H 0.41537 0.48867 0.06042
 H355 H 0.40469 0.52010 0.00267
 N356 N 0.47752 0.53402 0.08290
 N357 N 0.48852 0.55123 0.07862
 C358 C 0.50409 0.55415 0.09322
 C359 C 0.50281 0.53801 0.10743
 C360 C 0.48574 0.52559 0.10033
 H361 H 0.51557 0.56702 0.09344
 H362 H 0.48006 0.51112 0.10703
 H363 H 0.47339 0.53811 0.04450
 H364 H 0.45276 0.55438 0.05702
 N365 N 0.52714 -0.07696 0.02703
 N366 N 0.54311 -0.07099 0.01571
 C367 C 0.54401 -0.08390 -0.00131
 C368 C 0.52769 -0.09880 -0.00066
 C369 C 0.51732 -0.09382 0.01762
 H370 H 0.55584 -0.08266 -0.01314
 H371 H 0.50365 -0.10183 0.02372
 Cu372 Cu 0.56128 -0.04706 0.02443
 Cu373 Cu 0.52034 -0.06253 0.05318
 Cu374 Cu 0.55274 -0.02011 0.06946
 N375 N 0.57970 -0.02365 0.03405
 N376 N 0.57627 -0.01308 0.05156
 C377 C 0.59109 0.00239 0.05423
 C378 C 0.60462 0.00144 0.03751
 C379 C 0.59685 -0.01533 0.02504
 H380 H 0.59194 0.01345 0.06741
 H381 H 0.60300 -0.02084 0.01029
 N382 N 0.52814 -0.02976 0.08535
 N383 N 0.51596 -0.04600 0.07916
 C384 C 0.50054 -0.04860 0.09303
 C385 C 0.50302 -0.03326 0.10877
 C386 C 0.52072 -0.02158 0.10334
 H387 H 0.48810 -0.06051 0.09153
 H388 H 0.52767 -0.00809 0.11185
 H389 H 0.53332 -0.03340 0.04607
 H390 H 0.55073 -0.05159 0.06057
 N391 N 1.02770 0.42281 0.52703
 N392 N 1.04426 0.42820 0.51625
 C393 C 1.04517 0.41535 0.49919
 C394 C 1.02829 0.40107 0.49928
 C395 C 1.01755 0.40634 0.51725
 H396 H 1.05739 0.41616 0.48772
 H397 H 1.00336 0.39884 0.52282
 Cu398 Cu 1.06313 0.45137 0.52560
 Cu399 Cu 1.02061 0.43745 0.55296
 Cu400 Cu 1.05299 0.47979 0.56940
 N401 N 1.08086 0.47543 0.53483
 N402 N 1.07680 0.48659 0.55182
 C403 C 1.09125 0.50243 0.55421
 C404 C 1.10518 0.50113 0.53784
 C405 C 1.09802 0.48377 0.52586
 H406 H 1.09158 0.51400 0.56696
 H407 H 1.10457 0.47789 0.51144
 N408 N 1.02814 0.47036 0.58501
 N409 N 1.01594 0.45416 0.57875
 C410 C 1.00037 0.45167 0.59248
 C411 C 1.00277 0.46705 0.60818
 C412 C 1.02057 0.47864 0.60289
 H413 H 0.98793 0.43977 0.59091
 H414 H 1.02752 0.49210 0.61144
 H415 H 1.03444 0.46614 0.54545
 H416 H 1.05082 0.44813 0.56136
 C417 C 0.36043 0.02132 0.24420
 C418 C 0.34791 0.00059 0.24623
 C419 C 0.36024 -0.01624 0.24980
 C420 C 0.38401 -0.01089 0.25102
 C421 C 0.37393 0.02365 0.26439
 C422 C 0.38626 0.00679 0.26792
 C423 C 0.37608 0.01711 0.22676
 C424 C 0.38842 0.00027 0.23039
 H425 H 0.33082 -0.00066 0.24509
 H426 H 0.39404 -0.02465 0.25394
 H427 H 0.37418 0.03761 0.27464
 H428 H 0.37755 0.02680 0.21304
 C429 C 0.13956 -0.02843 0.74739
 C430 C 0.15265 -0.00817 0.75206
 C431 C 0.14076 0.00902 0.75577
 C432 C 0.11685 0.00448 0.75454
 C433 C 0.12517 -0.03072 0.76618
 C434 C 0.11330 -0.01351 0.76990
 C435 C 0.12486 -0.02321 0.72892
 C436 C 0.11300 -0.00598 0.73271
 H437 H 0.16976 -0.00739 0.75192
 H438 H 0.10717 0.01851 0.75762
 H439 H 0.12435 -0.04473 0.77560
 H440 H 0.12400 -0.03222 0.71419
 C441 C 0.63958 0.47168 0.24766
 C442 C 0.65264 0.49193 0.25243
 C443 C 0.64072 0.50905 0.25639
 C444 C 0.61683 0.50446 0.25527
 C445 C 0.62530 0.46917 0.26651
 C446 C 0.61341 0.48632 0.27046
 C447 C 0.62474 0.47703 0.22933
 C448 C 0.61287 0.49420 0.23337
 H449 H 0.66974 0.49277 0.25217
 H450 H 0.60714 0.51844 0.25854
 H451 H 0.62453 0.45505 0.27577
 H452 H 0.62377 0.46812 0.21454
 C453 C 0.86025 0.52147 0.74394
 C454 C 0.84776 0.50069 0.74575
 C455 C 0.86012 0.48385 0.74916
 C456 C 0.88388 0.48923 0.75047
 C457 C 0.87372 0.52362 0.76416
 C458 C 0.88608 0.50675 0.76753
 C459 C 0.87592 0.51747 0.72649
 C460 C 0.88829 0.50061 0.72995
 H461 H 0.83067 0.49943 0.74462
 H462 H 0.89393 0.47546 0.75326
 H463 H 0.87393 0.53747 0.77455
 H464 H 0.87737 0.52726 0.71284
 C465 C 0.24407 0.36378 0.02106
 C466 C 0.24610 0.35125 0.00042
 C467 C 0.24946 0.36360 -0.01640
 C468 C 0.25048 0.38739 -0.01115
 C469 C 0.26422 0.37752 0.02319
 C470 C 0.26753 0.38987 0.00634
 C471 C 0.22640 0.37922 0.01696
 C472 C 0.22980 0.39157 0.00011
 H473 H 0.24516 0.33414 -0.00076
 H474 H 0.25322 0.39742 -0.02491
 H475 H 0.27462 0.37787 0.03699
 H476 H 0.21267 0.38056 0.02670
 C477 C 0.74775 0.13652 -0.02811
 C478 C 0.75239 0.14960 -0.00792
 C479 C 0.75612 0.13769 0.00919
 C480 C 0.75493 0.11378 0.00466
 C481 C 0.76663 0.12220 -0.03040
 C482 C 0.77036 0.11031 -0.01326
 C483 C 0.72924 0.12174 -0.02292
 C484 C 0.73303 0.10986 -0.00576
 H485 H 0.75223 0.16671 -0.00713
 H486 H 0.75801 0.10408 0.01862
 H487 H 0.77615 0.12148 -0.04432
 H488 H 0.71445 0.12085 -0.03186
 C489 C 0.24776 0.63680 0.47187
 C490 C 0.25230 0.64982 0.49211
 C491 C 0.25602 0.63786 0.50919
 C492 C 0.25490 0.61396 0.50457
 C493 C 0.26669 0.62254 0.46958
 C494 C 0.27040 0.61060 0.48669
 C495 C 0.22927 0.62194 0.47695
 C496 C 0.23304 0.61003 0.49408
 H497 H 0.25210 0.66692 0.49297
 H498 H 0.25796 0.60422 0.51851
 H499 H 0.27624 0.62188 0.45568
 H500 H 0.21451 0.62105 0.46795
 C501 C 0.74347 0.86335 0.52154
 C502 C 0.74534 0.85089 0.50082
 C503 C 0.74895 0.86329 0.48409
 C504 C 0.75037 0.88705 0.48949
 C505 C 0.76385 0.87675 0.52379
 C506 C 0.76741 0.88914 0.50702
 C507 C 0.72608 0.87911 0.51749
 C508 C 0.72974 0.89151 0.50074
 H509 H 0.74410 0.83380 0.49953
 H510 H 0.75331 0.89713 0.47581
 H511 H 0.77420 0.87687 0.53762
 H512 H 0.71230 0.88054 0.52714
 C513 C 0.02110 0.24403 0.36174
 C514 C 0.00036 0.24594 0.34932
 C515 C -0.01648 0.24941 0.36165
 C516 C -0.01114 0.25067 0.38533
 C517 C 0.02331 0.26433 0.37521
 C518 C 0.00644 0.26775 0.38755
 C519 C 0.01701 0.22651 0.37733
 C520 C 0.00015 0.23002 0.38966
 H521 H -0.00088 0.24484 0.33229
 H522 H -0.02491 0.25350 0.39535
 H523 H 0.03719 0.27472 0.37543
 H524 H 0.02680 0.21282 0.37879
 C525 C -0.02797 0.74779 0.13803
 C526 C -0.00772 0.75245 0.15105
 C527 C 0.00947 0.75622 0.13918
 C528 C 0.00493 0.75505 0.11536
 C529 C -0.03025 0.76669 0.12378
 C530 C -0.01304 0.77046 0.11192
 C531 C -0.02276 0.72930 0.12330
 C532 C -0.00554 0.73313 0.11146
 H533 H -0.00692 0.75222 0.16809
 H534 H 0.01896 0.75817 0.10571
 H535 H -0.04426 0.77613 0.12299
 H536 H -0.03181 0.71453 0.12235
 C537 C 0.47180 0.24783 0.63852
 C538 C 0.49203 0.25247 0.65157
 C539 C 0.50924 0.25625 0.63974
 C540 C 0.50475 0.25509 0.61591
 C541 C 0.46955 0.26674 0.62428
 C542 C 0.48678 0.27052 0.61245
 C543 C 0.47703 0.22934 0.62378
 C544 C 0.49428 0.23318 0.61198
 H545 H 0.49279 0.25224 0.66861
 H546 H 0.51879 0.25822 0.60628
 H547 H 0.45555 0.27619 0.62349
 H548 H 0.46800 0.21456 0.62283
 C549 C 0.51992 0.74369 0.86221
 C550 C 0.49916 0.74573 0.84984
 C551 C 0.48236 0.74920 0.86224
 C552 C 0.48776 0.75032 0.88590
 C553 C 0.52223 0.76391 0.87579
 C554 C 0.50540 0.76734 0.88817
 C555 C 0.51579 0.72610 0.87770
 C556 C 0.49898 0.72961 0.89009
 H557 H 0.49788 0.74470 0.83281
 H558 H 0.47402 0.75315 0.89597
 H559 H 0.53615 0.77424 0.87604
 H560 H 0.52547 0.71232 0.87899
 C561 C 0.10357 0.24111 0.27997
 C562 C 0.10241 0.22917 0.29805
 C563 C 0.11781 0.21442 0.30228
 C564 C 0.13430 0.21157 0.28846
 C565 C 0.13561 0.22348 0.27018
 C566 C 0.12003 0.23831 0.26613
 C567 C 0.08534 0.23200 0.31215
 C568 C 0.07090 0.23450 0.32377
 C569 C 0.05386 0.23759 0.33715
 C570 C 0.03916 0.24040 0.34837
 H571 H 0.09169 0.25255 0.27653
 H572 H 0.11706 0.20510 0.31626
 H573 H 0.14603 0.20014 0.29223
 H574 H 0.12036 0.24765 0.25219
 C575 C 0.61562 0.71248 0.80198
 C576 C 0.60170 0.72891 0.79914
 C577 C 0.60452 0.74273 0.78267
 C578 C 0.62119 0.74015 0.76903
 C579 C 0.63533 0.72365 0.77167
 C580 C 0.63233 0.70985 0.78836
 C581 C 0.58444 0.73162 0.81303
 C582 C 0.56987 0.73409 0.82448
 C583 C 0.55271 0.73721 0.83770
 C584 C 0.53796 0.74004 0.84883
 H585 H 0.61356 0.70169 0.81470
 H586 H 0.59381 0.75551 0.78033
 H587 H 0.62287 0.75112 0.75646
 H588 H 0.64279 0.69698 0.79100
 C589 C 0.38430 0.74392 0.79664
 C590 C 0.39135 0.76079 0.80972
 C591 C 0.38131 0.78010 0.80879
 C592 C 0.36447 0.78262 0.79461
 C593 C 0.35751 0.76586 0.78106
 C594 C 0.36750 0.74640 0.78244
 C595 C 0.40969 0.75859 0.82310
 C596 C 0.42555 0.75661 0.83355
 C597 C 0.44471 0.75416 0.84477
 C598 C 0.46159 0.75196 0.85335
 H599 H 0.39202 0.72892 0.79716
 H600 H 0.38673 0.79332 0.81875
 H601 H 0.35731 0.79786 0.79398
 H602 H 0.36251 0.73307 0.77247
 C603 C -0.12119 0.27624 0.31139
 C604 C -0.10723 0.25985 0.30837
 C605 C -0.11050 0.24562 0.29146
 C606 C -0.12748 0.24786 0.27744
 C607 C -0.14159 0.26450 0.28002
 C608 C -0.13824 0.27855 0.29740
 C609 C -0.08898 0.25803 0.32197
 C610 C -0.07319 0.25632 0.33258
 C611 C -0.05409 0.25411 0.34398
 C612 C -0.03724 0.25205 0.35268
 H613 H -0.11876 0.28740 0.32441
 H614 H -0.09974 0.23289 0.28894
 H615 H -0.12923 0.23654 0.26454
 H616 H -0.14854 0.29153 0.30025
 C617 C -0.11194 0.74500 0.21819
 C618 C -0.11076 0.73218 0.20012
 C619 C -0.12646 0.71675 0.19563
 C620 C -0.14330 0.71417 0.20915
 C621 C -0.14467 0.72703 0.22738
 C622 C -0.12875 0.74247 0.23172
 C623 C -0.09340 0.73493 0.18626
 C624 C -0.07873 0.73749 0.17487
 C625 C -0.06138 0.74077 0.16182
 C626 C -0.04640 0.74381 0.15094
 H627 H -0.09985 0.75697 0.22185
 H628 H -0.12571 0.70675 0.18166
 H629 H -0.15528 0.70223 0.20516
 H630 H -0.12910 0.75255 0.24562
 C631 C 0.37524 0.21467 0.69803
 C632 C 0.38872 0.23237 0.70028
 C633 C 0.38526 0.24750 0.71603
 C634 C 0.36841 0.24498 0.72951
 C635 C 0.35462 0.22720 0.72750
 C636 C 0.35835 0.21207 0.71148
 C637 C 0.40618 0.23507 0.68652
 C638 C 0.42092 0.23759 0.67521
 C639 C 0.43833 0.24084 0.66223
 C640 C 0.45334 0.24385 0.65139
 H641 H 0.37779 0.20284 0.68587
 H642 H 0.39562 0.26128 0.71792
 H643 H 0.36640 0.25711 0.74143
 H644 H 0.34835 0.19814 0.70916
 C645 C 0.60409 0.25515 0.70909
 C646 C 0.60108 0.26898 0.69266
 C647 C 0.61610 0.28495 0.68935
 C648 C 0.63403 0.28716 0.70250
 C649 C 0.63724 0.27341 0.71929
 C650 C 0.62195 0.25729 0.72227
 C651 C 0.58226 0.26697 0.67963
 C652 C 0.56614 0.26499 0.66931
 C653 C 0.54681 0.26231 0.65803
 C654 C 0.52992 0.25972 0.64920
 H655 H 0.59253 0.24274 0.71184
 H656 H 0.61389 0.29580 0.67669
 H657 H 0.64518 0.29978 0.69941
 H658 H 0.62351 0.24625 0.73479
 C659 C 0.10674 0.75281 0.20533
 C660 C 0.10172 0.76870 0.19143
 C661 C 0.11481 0.78671 0.19055
 C662 C 0.13277 0.78887 0.20365
 C663 C 0.13784 0.77306 0.21787
 C664 C 0.12465 0.75494 0.21845
 C665 C 0.08275 0.76672 0.17862
 C666 C 0.06653 0.76476 0.16847
 C667 C 0.04712 0.76214 0.15733
 C668 C 0.03017 0.75961 0.14858
 H669 H 0.09670 0.73880 0.20616
 H670 H 0.11101 0.79917 0.17992
 H671 H 0.14243 0.80310 0.20283
 H672 H 0.12810 0.74233 0.22898
 C673 C 0.29878 0.11489 0.21024
 C674 C 0.29734 0.10295 0.22830
 C675 C 0.28228 0.10769 0.24321
 C676 C 0.26865 0.12429 0.24008
 C677 C 0.26990 0.13641 0.22195
 C678 C 0.28517 0.13151 0.20707
 C679 C 0.31119 0.08573 0.23147
 C680 C 0.32267 0.07121 0.23420
 C681 C 0.33592 0.05410 0.23750
 C682 C 0.34708 0.03937 0.24044
 H683 H 0.31037 0.11131 0.19857
 H684 H 0.28106 0.09853 0.25726
 H685 H 0.25727 0.12762 0.25197
 H686 H 0.28656 0.14032 0.19286
 C687 C 0.80107 0.61774 0.71323
 C688 C 0.79731 0.60337 0.72905
 C689 C 0.78002 0.60579 0.74197
 C690 C 0.76649 0.62251 0.73908
 C691 C 0.77006 0.63709 0.72318
 C692 C 0.78756 0.63448 0.71030
 C693 C 0.81110 0.58606 0.73198
 C694 C 0.82253 0.57147 0.73452
 C695 C 0.83574 0.55430 0.73760
 C696 C 0.84688 0.53954 0.74037
 H697 H 0.81443 0.61600 0.70315
 H698 H 0.77698 0.59472 0.75426
 H699 H 0.75323 0.62385 0.74929
 H700 H 0.79095 0.64533 0.69796
 C701 C 0.79383 0.38577 0.74387
 C702 C 0.80782 0.39233 0.76017
 C703 C 0.80817 0.38143 0.77896
 C704 C 0.79444 0.36417 0.78153
 C705 C 0.78007 0.35763 0.76535
 C706 C 0.78006 0.36854 0.74641
 C707 C 0.82096 0.41090 0.75795
 C708 C 0.83130 0.42689 0.75605
 C709 C 0.84250 0.44613 0.75375
 C710 C 0.85112 0.46305 0.75171
 H711 H 0.79338 0.39414 0.72927
 H712 H 0.81883 0.38648 0.79174
 H713 H 0.79483 0.35631 0.79638
 H714 H 0.76941 0.36388 0.73354
 C715 C 0.29113 -0.11182 0.24603
 C716 C 0.30760 -0.10761 0.26058
 C717 C 0.31049 -0.12093 0.27746
 C718 C 0.29682 -0.13826 0.27994
 C719 C 0.27987 -0.14256 0.26557
 C720 C 0.27742 -0.12910 0.24843
 C721 C 0.32086 -0.08909 0.25857
 C722 C 0.33129 -0.07313 0.25677
 C723 C 0.34255 -0.05391 0.25451
 C724 C 0.35122 -0.03701 0.25243
 H725 H 0.28871 -0.10157 0.23290
 H726 H 0.32317 -0.11777 0.28887
 H727 H 0.29956 -0.14803 0.29332
 H728 H 0.26485 -0.13161 0.23685
 C729 C 0.21853 -0.11404 0.74512
 C730 C 0.20112 -0.11168 0.73164
 C731 C 0.19707 -0.12636 0.71525
 C732 C 0.21037 -0.14332 0.71228
 C733 C 0.22808 -0.14592 0.72571
 C734 C 0.23189 -0.13095 0.74223
 C735 C 0.18752 -0.09414 0.73463
 C736 C 0.17628 -0.07935 0.73725
 C737 C 0.16333 -0.06190 0.74052
 C738 C 0.15248 -0.04688 0.74350
 H739 H 0.22181 -0.10275 0.75789
 H740 H 0.18362 -0.12468 0.70470
 H741 H 0.20663 -0.15424 0.69937
 H742 H 0.24514 -0.13209 0.75304
 C743 C 0.71925 0.38681 0.24472
 C744 C 0.70150 0.38877 0.23157
 C745 C 0.69703 0.37360 0.21570
 C746 C 0.71021 0.35649 0.21301
 C747 C 0.72808 0.35429 0.22620
 C748 C 0.73245 0.36972 0.24207
 C749 C 0.68786 0.40630 0.23447
 C750 C 0.67655 0.42104 0.23709
 C751 C 0.66349 0.43838 0.24042
 C752 C 0.65255 0.45332 0.24353
 H753 H 0.72288 0.39849 0.25705
 H754 H 0.68332 0.37495 0.20543
 H755 H 0.70620 0.34496 0.20069
 H756 H 0.74609 0.36875 0.25244
 C757 C 0.70707 0.60671 0.25459
 C758 C 0.69278 0.60150 0.27009
 C759 C 0.69138 0.61452 0.28801
 C760 C 0.70433 0.63262 0.29048
 C761 C 0.71894 0.63790 0.27506
 C762 C 0.72005 0.62476 0.25702
 C763 C 0.68008 0.58243 0.26779
 C764 C 0.66998 0.56615 0.26561
 C765 C 0.65888 0.54671 0.26273
 C766 C 0.65014 0.52975 0.26000
 H767 H 0.70831 0.59673 0.24066
 H768 H 0.68043 0.61058 0.30017
 H769 H 0.70310 0.64222 0.30463
 H770 H 0.73089 0.62836 0.24472
 C771 C 0.20730 0.10664 0.75406
 C772 C 0.19301 0.10139 0.76956
 C773 C 0.19165 0.11435 0.78752
 C774 C 0.20464 0.13243 0.79005
 C775 C 0.21924 0.13774 0.77463
 C776 C 0.22032 0.12466 0.75655
 C777 C 0.18026 0.08235 0.76720
 C778 C 0.17013 0.06609 0.76497
 C779 C 0.15899 0.04666 0.76207
 C780 C 0.15022 0.02972 0.75934
 H781 H 0.20851 0.09670 0.74009
 H782 H 0.18071 0.11039 0.79968
 H783 H 0.20343 0.14198 0.80423
 H784 H 0.23115 0.12829 0.74425
 C785 C 0.24434 0.28539 0.10697
 C786 C 0.22949 0.30066 0.10270
 C787 C 0.21171 0.30228 0.11509
 C788 C 0.20874 0.28861 0.13165
 C789 C 0.22354 0.27309 0.13607
 C790 C 0.24142 0.27170 0.12353
 C791 C 0.23240 0.31453 0.08549
 C792 C 0.23488 0.32601 0.07096
 C793 C 0.23788 0.33926 0.05384
 C794 C 0.24057 0.35043 0.03911
 H795 H 0.25817 0.28402 0.09746
 H796 H 0.20010 0.31404 0.11188
 H797 H 0.19474 0.29018 0.14081
 H798 H 0.25324 0.26013 0.12643
 C799 C 0.71015 0.80186 0.61545
 C800 C 0.72788 0.80022 0.60300
 C801 C 0.74275 0.78496 0.60724
 C802 C 0.73991 0.77133 0.62385
 C803 C 0.72209 0.77275 0.63648
 C804 C 0.70725 0.78823 0.63207
 C805 C 0.73082 0.81409 0.58579
 C806 C 0.73344 0.82556 0.57127
 C807 C 0.73672 0.83880 0.55419
 C808 C 0.73967 0.84996 0.53951
 H809 H 0.69853 0.81363 0.61228
 H810 H 0.75656 0.78359 0.59770
 H811 H 0.75177 0.75978 0.62674
 H812 H 0.69331 0.78983 0.64131
 C813 C 0.77936 0.81079 0.38249
 C814 C 0.76024 0.81105 0.39292
 C815 C 0.74360 0.79755 0.38604
 C816 C 0.74613 0.78361 0.36901
 C817 C 0.76540 0.78297 0.35861
 C818 C 0.78193 0.79690 0.36542
 C819 C 0.75802 0.82424 0.41139
 C820 C 0.75608 0.83459 0.42730
 C821 C 0.75372 0.84576 0.44649
 C822 C 0.75160 0.85434 0.46336
 H823 H 0.79241 0.82108 0.38778
 H824 H 0.72873 0.79758 0.39402
 H825 H 0.73299 0.77333 0.36409
 H826 H 0.79702 0.79677 0.35793
 C827 C 0.24437 0.29693 -0.11368
 C828 C 0.26090 0.31074 -0.10715
 C829 C 0.27985 0.31072 -0.11787
 C830 C 0.28235 0.29678 -0.13492
 C831 C 0.26593 0.28259 -0.14142
 C832 C 0.24684 0.28296 -0.13068
 C833 C 0.25871 0.32407 -0.08878
 C834 C 0.25677 0.33455 -0.07295
 C835 C 0.25437 0.34586 -0.05387
 C836 C 0.25219 0.35455 -0.03707
 H837 H 0.22965 0.29676 -0.10544
 H838 H 0.29281 0.32123 -0.11284
 H839 H 0.29732 0.29687 -0.14265
 H840 H 0.23378 0.27246 -0.13533
 C841 C 0.71603 0.19370 -0.12613
 C842 C 0.73184 0.19824 -0.11092
 C843 C 0.74488 0.21616 -0.11269
 C844 C 0.74216 0.22949 -0.12960
 C845 C 0.72633 0.22508 -0.14505
 C846 C 0.71327 0.20700 -0.14308
 C847 C 0.73476 0.18457 -0.09348
 C848 C 0.73741 0.17330 -0.07877
 C849 C 0.74075 0.16032 -0.06142
 C850 C 0.74380 0.14945 -0.04647
 H851 H 0.70585 0.17985 -0.12492
 H852 H 0.75715 0.21986 -0.10098
 H853 H 0.75244 0.24327 -0.13040
 H854 H 0.70100 0.20297 -0.15463
 C855 C 0.21606 0.69454 0.37424
 C856 C 0.23181 0.69908 0.38951
 C857 C 0.24475 0.71708 0.38789
 C858 C 0.24204 0.73048 0.37104
 C859 C 0.22631 0.72605 0.35549
 C860 C 0.21331 0.70791 0.35735
 C861 C 0.23476 0.68529 0.40685
 C862 C 0.23742 0.67390 0.42147
 C863 C 0.24078 0.66078 0.43870
 C864 C 0.24383 0.64981 0.45357
 H865 H 0.20594 0.68064 0.37534
 H866 H 0.25697 0.72078 0.39967
 H867 H 0.25225 0.74432 0.37034
 H868 H 0.20109 0.70387 0.34573
 C869 C 0.25295 0.70365 0.60676
 C870 C 0.26898 0.69003 0.60126
 C871 C 0.28730 0.68946 0.61384
 C872 C 0.28965 0.70257 0.63177
 C873 C 0.27370 0.71652 0.63730
 C874 C 0.25526 0.71679 0.62463
 C875 C 0.26683 0.67725 0.58232
 C876 C 0.26477 0.66710 0.56612
 C877 C 0.26205 0.65597 0.54676
 C878 C 0.25946 0.64724 0.52985
 H879 H 0.23870 0.70424 0.59712
 H880 H 0.29987 0.67905 0.60968
 H881 H 0.30411 0.70201 0.64101
 H882 H 0.24255 0.72709 0.62846
 C883 C 0.75365 0.20379 0.10668
 C884 C 0.76959 0.19008 0.10112
 C885 C 0.78795 0.18944 0.11363
 C886 C 0.79043 0.20255 0.13154
 C887 C 0.77457 0.21657 0.13714
 C888 C 0.75609 0.21693 0.12454
 C889 C 0.76730 0.17728 0.08220
 C890 C 0.76514 0.16711 0.06602
 C891 C 0.76232 0.15594 0.04669
 C892 C 0.75965 0.14715 0.02981
 H893 H 0.73936 0.20444 0.09710
 H894 H 0.80045 0.17896 0.10942
 H895 H 0.80492 0.20193 0.14073
 H896 H 0.74345 0.22730 0.12842
 C897 C 0.49516 0.35402 0.52996
 C898 C 0.48177 0.35099 0.54678
 C899 C 0.46555 0.36503 0.55030
 C900 C 0.46266 0.38199 0.53707
 C901 C 0.47598 0.38521 0.52004
 C902 C 0.49231 0.37099 0.51669
 C903 C 0.48442 0.33342 0.56037
 C904 C 0.48607 0.31879 0.57196
 C905 C 0.48726 0.30180 0.58579
 C906 C 0.48751 0.28745 0.59781
 H907 H 0.50776 0.34324 0.52706
 H908 H 0.45506 0.36283 0.56326
 H909 H 0.44993 0.39246 0.54027
 H910 H 0.50291 0.37284 0.50382
 C911 C -0.00456 0.85395 0.02939
 C912 C -0.01792 0.85093 0.04623
 C913 C -0.03411 0.86499 0.04979
 C914 C -0.03699 0.88197 0.03660
 C915 C -0.02369 0.88519 0.01954
 C916 C -0.00740 0.87095 0.01614
 C917 C -0.01530 0.83333 0.05980
 C918 C -0.01369 0.81871 0.07139
 C919 C -0.01255 0.80173 0.08523
 C920 C -0.01232 0.78738 0.09727
 H921 H 0.00803 0.84316 0.02646
 H922 H -0.04458 0.86279 0.06278
 H923 H -0.04969 0.89247 0.03985
 H924 H 0.00319 0.87279 0.00326
 C925 C 0.01324 0.65598 0.02417
 C926 C 0.02411 0.65804 0.04348
 C927 C 0.03935 0.64344 0.04879
 C928 C 0.04356 0.62672 0.03492
 C929 C 0.03249 0.62433 0.01557
 C930 C 0.01739 0.63928 0.01031
 C931 C 0.01900 0.67473 0.05807
 C932 C 0.01417 0.68853 0.07023
 C933 C 0.00790 0.70442 0.08448
 C934 C 0.00205 0.71769 0.09671
 H935 H 0.00141 0.66718 0.01989
 H936 H 0.04780 0.64483 0.06375
 H937 H 0.05518 0.61548 0.03957
 H938 H 0.00873 0.63816 -0.00450
 C939 C 0.53949 0.14351 0.54939
 C940 C 0.52416 0.15804 0.54414
 C941 C 0.51326 0.15595 0.52485
 C942 C 0.51745 0.13929 0.51096
 C943 C 0.53263 0.12441 0.51616
 C944 C 0.54374 0.12682 0.53549
 C945 C 0.51903 0.17472 0.55873
 C946 C 0.51416 0.18852 0.57088
 C947 C 0.50783 0.20442 0.58509
 C948 C 0.50193 0.21771 0.59728
 H949 H 0.54797 0.14493 0.56432
 H950 H 0.50136 0.16711 0.52060
 H951 H 0.50875 0.13816 0.49616
 H952 H 0.55544 0.11564 0.54009
 C953 C -0.00615 0.15453 0.47756
 C954 C -0.02179 0.15943 0.46277
 C955 C -0.04093 0.14802 0.46205
 C956 C -0.04434 0.13160 0.47585
 C957 C -0.02860 0.12629 0.49057
 C958 C -0.00953 0.13810 0.49141
 C959 C -0.01788 0.17553 0.44774
 C960 C -0.01442 0.18863 0.43482
 C961 C -0.00998 0.20351 0.41936
 C962 C -0.00570 0.21582 0.40593
 H963 H 0.00878 0.16321 0.47820
 H964 H -0.05314 0.15167 0.45065
 H965 H -0.05931 0.12309 0.47488
 H966 H 0.00299 0.13443 0.50240
 C967 C 0.49164 0.65525 0.97892
 C968 C 0.47745 0.65786 0.96212
 C969 C 0.46022 0.64386 0.95914
 C970 C 0.45732 0.62715 0.97271
 C971 C 0.47168 0.62415 0.98947
 C972 C 0.48877 0.63855 0.99254
 C973 C 0.48106 0.67428 0.94738
 C974 C 0.48438 0.68763 0.93468
 C975 C 0.48876 0.70277 0.91946
 C976 C 0.49305 0.71526 0.90619
 H977 H 0.50510 0.66595 0.98132
 H978 H 0.44915 0.64570 0.94616
 H979 H 0.44386 0.61660 0.96992
 H980 H 0.50020 0.63675 1.00518
 C981 C 0.50271 0.85144 0.97404
 C982 C 0.51400 0.84967 0.95555
 C983 C 0.52946 0.86490 0.95116
 C984 C 0.53379 0.88174 0.96527
 C985 C 0.52271 0.88359 0.98407
 C986 C 0.50700 0.86828 0.98820
 C987 C 0.51031 0.83192 0.94135
 C988 C 0.50790 0.81703 0.92937
 C989 C 0.50597 0.79962 0.91520
 C990 C 0.50519 0.78484 0.90296
 H991 H 0.49074 0.83970 0.97762
 H992 H 0.53832 0.86367 0.93689
 H993 H 0.54586 0.89320 0.96138
 H994 H 0.49815 0.86905 1.00245
 C995 C 0.00387 0.35109 0.47402
 C996 C 0.01450 0.34999 0.45508
 C997 C 0.02924 0.36580 0.45036
 C998 C 0.03356 0.38253 0.46461
 C999 C 0.02319 0.38367 0.48385
 C1000 C 0.00815 0.36782 0.48830
 C1001 C 0.01094 0.33230 0.44078
 C1002 C 0.00864 0.31744 0.42874
 C1003 C 0.00684 0.30006 0.41454
 C1004 C 0.00615 0.28528 0.40230
 H1005 H -0.00752 0.33887 0.47786
 H1006 H 0.03758 0.36510 0.43574
 H1007 H 0.04505 0.39449 0.46049
 H1008 H -0.00008 0.36805 0.50295
 C1009 C 0.36666 0.55073 0.46683
 C1010 C 0.35166 0.54576 0.48176
 C1011 C 0.35393 0.52772 0.49367
 C1012 C 0.37107 0.51468 0.49062
 C1013 C 0.38622 0.51949 0.47555
 C1014 C 0.38379 0.53774 0.46374
 C1015 C 0.33386 0.55907 0.48447
 C1016 C 0.31907 0.57048 0.48612
 C1017 C 0.30191 0.58414 0.48726
 C1018 C 0.28744 0.59606 0.48746
 H1019 H 0.36507 0.56466 0.45750
 H1020 H 0.34239 0.52367 0.50524
 H1021 H 0.37227 0.50076 0.49995
 H1022 H 0.39509 0.54214 0.45212
 C1023 C 0.86647 0.05042 -0.03352
 C1024 C 0.85170 0.04558 -0.01833
 C1025 C 0.85424 0.02775 -0.00618
 C1026 C 0.87143 0.01476 -0.00926
 C1027 C 0.88634 0.01943 -0.02459
 C1028 C 0.88364 0.03749 -0.03663
 C1029 C 0.83386 0.05884 -0.01557
 C1030 C 0.81905 0.07021 -0.01388
 C1031 C 0.80188 0.08385 -0.01271
 C1032 C 0.78740 0.09576 -0.01249
 H1033 H 0.86467 0.06419 -0.04303
 H1034 H 0.84288 0.02381 0.00561
 H1035 H 0.87284 0.00101 0.00028
 H1036 H 0.89475 0.04177 -0.04848
 C1037 C 0.65450 0.02347 0.01367
 C1038 C 0.65717 0.04281 0.02452
 C1039 C 0.64296 0.04845 0.03999
 C1040 C 0.62602 0.03490 0.04446
 C1041 C 0.62301 0.01553 0.03341
 C1042 C 0.63757 0.00992 0.01807
 C1043 C 0.67408 0.05709 0.01919
 C1044 C 0.68804 0.06905 0.01422
 C1045 C 0.70410 0.08311 0.00783
 C1046 C 0.71749 0.09522 0.00190
 H1047 H 0.66539 0.01893 0.00165
 H1048 H 0.64483 0.06344 0.04843
 H1049 H 0.61510 0.03983 0.05626
 H1050 H 0.63597 -0.00492 0.00941
 C1051 C 0.15530 0.52309 0.51444
 C1052 C 0.15731 0.54289 0.52451
 C1053 C 0.14254 0.54890 0.53930
 C1054 C 0.12571 0.53525 0.54387
 C1055 C 0.12339 0.51540 0.53361
 C1056 C 0.13850 0.50943 0.51895
 C1057 C 0.17414 0.55722 0.51909
 C1058 C 0.18806 0.56921 0.51407
 C1059 C 0.20409 0.58328 0.50765
 C1060 C 0.21747 0.59538 0.50171
 H1061 H 0.16665 0.51825 0.50297
 H1062 H 0.14390 0.56424 0.54713
 H1063 H 0.11436 0.54045 0.55513
 H1064 H 0.13742 0.49422 0.51092
 C1065 C 0.15342 0.47890 -0.00759
 C1066 C 0.15839 0.46366 -0.02280
 C1067 C 0.14693 0.46229 -0.04181
 C1068 C 0.13040 0.47590 -0.04552
 C1069 C 0.12503 0.49109 -0.03022
 C1070 C 0.13689 0.49256 -0.01127
 C1071 C 0.17464 0.44887 -0.01860
 C1072 C 0.18788 0.43614 -0.01491
 C1073 C 0.20294 0.42089 -0.01026
 C1074 C 0.21540 0.40763 -0.00584
 H1075 H 0.16213 0.48003 0.00723
 H1076 H 0.15062 0.45054 -0.05368
 H1077 H 0.12185 0.47442 -0.06038
 H1078 H 0.13317 0.50393 0.00091
 C1079 C 0.64731 0.96259 0.45870
 C1080 C 0.65875 0.96399 0.47771
 C1081 C 0.65376 0.97924 0.49289
 C1082 C 0.63722 0.99288 0.48919
 C1083 C 0.62537 0.99137 0.47024
 C1084 C 0.63077 0.97617 0.45496
 C1085 C 0.67499 0.94918 0.48195
 C1086 C 0.68819 0.93641 0.48565
 C1087 C 0.70317 0.92108 0.49032
 C1088 C 0.71552 0.90773 0.49476
 H1089 H 0.65103 0.95083 0.44683
 H1090 H 0.66247 0.98040 0.50772
 H1091 H 0.63348 1.00426 0.50135
 H1092 H 0.62223 0.97467 0.44009
 C1093 C 0.85153 0.97538 0.50552
 C1094 C 0.85033 0.95606 0.51551
 C1095 C 0.86625 0.95071 0.52979
 C1096 C 0.88319 0.96470 0.53425
 C1097 C 0.88446 0.98431 0.52450
 C1098 C 0.86849 0.98941 0.50994
 C1099 C 0.83245 0.94197 0.51181
 C1100 C 0.81745 0.93007 0.50941
 C1101 C 0.79993 0.91599 0.50752
 C1102 C 0.78504 0.90383 0.50678
 H1103 H 0.83924 0.97971 0.49449
 H1104 H 0.86547 0.93578 0.53764
 H1105 H 0.89523 0.96008 0.54537
 H1106 H 0.86881 1.00437 0.50219
 C1107 C 0.35332 0.47487 0.00362
 C1108 C 0.35028 0.45679 0.01538
 C1109 C 0.36456 0.45236 0.03160
 C1110 C 0.38177 0.46598 0.03616
 C1111 C 0.38495 0.48428 0.02455
 C1112 C 0.37055 0.48853 0.00814
 C1113 C 0.33227 0.44297 0.01133
 C1114 C 0.31724 0.43115 0.00873
 C1115 C 0.29976 0.41704 0.00672
 C1116 C 0.28497 0.40476 0.00598
 H1117 H 0.34229 0.47849 -0.00892
 H1118 H 0.36235 0.43840 0.04080
 H1119 H 0.39256 0.46204 0.04875
 H1120 H 0.37237 0.50251 -0.00104
 C1121 C 0.55210 0.46555 0.36551
 C1122 C 0.54755 0.48076 0.35071
 C1123 C 0.52974 0.49303 0.35297
 C1124 C 0.51651 0.49007 0.36995
 C1125 C 0.52091 0.47475 0.38494
 C1126 C 0.53893 0.46256 0.38248
 C1127 C 0.56112 0.48348 0.33313
 C1128 C 0.57273 0.48520 0.31855
 C1129 C 0.58662 0.48647 0.30162
 C1130 C 0.59870 0.48684 0.28733
 H1131 H 0.56585 0.45594 0.36391
 H1132 H 0.52603 0.50484 0.34158
 H1133 H 0.50281 0.49973 0.37116
 H1134 H 0.54300 0.45070 0.39363
 C1135 C 0.05271 -0.03336 0.86556
 C1136 C 0.04772 -0.01865 0.85039
 C1137 C 0.02949 -0.00694 0.85231
 C1138 C 0.01627 -0.00997 0.86930
 C1139 C 0.02111 -0.02482 0.88462
 C1140 C 0.03956 -0.03643 0.88254
 C1141 C 0.06122 -0.01593 0.83277
 C1142 C 0.07276 -0.01423 0.81812
 C1143 C 0.08657 -0.01303 0.80112
 C1144 C 0.09861 -0.01277 0.78679
 H1145 H 0.06679 -0.04254 0.86424
 H1146 H 0.02542 0.00447 0.84064
 H1147 H 0.00222 -0.00080 0.87022
 H1148 H 0.04397 -0.04788 0.89399
 C1149 C 0.02578 0.01420 0.65583
 C1150 C 0.04552 0.02444 0.65768
 C1151 C 0.05133 0.03933 0.64292
 C1152 C 0.03753 0.04381 0.62627
 C1153 C 0.01775 0.03335 0.62410
 C1154 C 0.01200 0.01861 0.63920
 C1155 C 0.06000 0.01908 0.67433
 C1156 C 0.07206 0.01407 0.68810
 C1157 C 0.08620 0.00764 0.70398
 C1158 C 0.09834 0.00168 0.71725
 H1159 H 0.02111 0.00265 0.66716
 H1160 H 0.06662 0.04730 0.64414
 H1161 H 0.04257 0.05514 0.61491
 H1162 H -0.00316 0.01044 0.63826
 C1163 C 0.55064 0.54001 0.14446
 C1164 C 0.54468 0.52532 0.15935
 C1165 C 0.52481 0.51534 0.15765
 C1166 C 0.51107 0.51973 0.14097
 C1167 C 0.51704 0.53418 0.12567
 C1168 C 0.53691 0.54446 0.12775
 C1169 C 0.55920 0.51980 0.17588
 C1170 C 0.57138 0.51463 0.18949
 C1171 C 0.58570 0.50802 0.20511
 C1172 C 0.59802 0.50194 0.21815
 H1173 H 0.56603 0.54779 0.14558
 H1174 H 0.52001 0.50395 0.16910
 H1175 H 0.49583 0.51173 0.14010
 H1176 H 0.54210 0.55558 0.11626
 C1177 C 0.47639 -0.00696 0.15488
 C1178 C 0.46152 -0.02251 0.16004
 C1179 C 0.46066 -0.04178 0.14890
 C1180 C 0.47438 -0.04540 0.13247
 C1181 C 0.48917 -0.02975 0.12689
 C1182 C 0.49016 -0.01055 0.13845
 C1183 C 0.44653 -0.01840 0.17612
 C1184 C 0.43363 -0.01477 0.18919
 C1185 C 0.41816 -0.01014 0.20401
 C1186 C 0.40471 -0.00572 0.21626
 H1187 H 0.47712 0.00807 0.16334
 H1188 H 0.44920 -0.05393 0.15276
 H1189 H 0.47330 -0.06047 0.12416
 H1190 H 0.50121 0.00191 0.13456
 C1191 C 0.97607 0.49344 0.65420
 C1192 C 0.96110 0.47796 0.65928
 C1193 C 0.96015 0.45872 0.64808
 C1194 C 0.97390 0.45507 0.63168
 C1195 C 0.98881 0.47064 0.62620
 C1196 C 0.98987 0.48981 0.63780
 C1197 C 0.94615 0.48209 0.67538
 C1198 C 0.93330 0.48574 0.68849
 C1199 C 0.91790 0.49034 0.70340
 C1200 C 0.90452 0.49471 0.71572
 H1201 H 0.97687 0.50844 0.66271
 H1202 H 0.94860 0.44663 0.65186
 H1203 H 0.97274 0.44003 0.62332
 H1204 H 1.00101 0.50222 0.63398
 C1205 C 0.94824 0.52929 0.86563
 C1206 C 0.95355 0.51519 0.84953
 C1207 C 0.97300 0.50539 0.85032
 C1208 C 0.98718 0.50983 0.86705
 C1209 C 0.98211 0.52420 0.88322
 C1210 C 0.96238 0.53377 0.88237
 C1211 C 0.93932 0.51147 0.83187
 C1212 C 0.92730 0.50907 0.81704
 C1213 C 0.91311 0.50718 0.79971
 C1214 C 0.90086 0.50645 0.78498
 H1215 H 0.93321 0.53698 0.86516
 H1216 H 0.97731 0.49451 0.83787
 H1217 H 1.00223 0.50225 0.86706
 H1218 H 0.95779 0.54473 0.89458
 C1219 C 0.47282 0.00507 0.35115
 C1220 C 0.45370 0.01545 0.34998
 C1221 C 0.44872 0.03011 0.36571
 C1222 C 0.46288 0.03456 0.38244
 C1223 C 0.48229 0.02443 0.38368
 C1224 C 0.48702 0.00949 0.36788
 C1225 C 0.43947 0.01173 0.33231
 C1226 C 0.42746 0.00930 0.31747
 C1227 C 0.41328 0.00738 0.30013
 C1228 C 0.40103 0.00660 0.28539
 H1229 H 0.47686 -0.00626 0.33900
 H1230 H 0.43396 0.03825 0.36495
 H1231 H 0.45853 0.04598 0.39433
 H1232 H 0.50179 0.00142 0.36818
   
