data_POSCAR
  _audit_creation_date              2014-09-24
  _audit_creation_method            'ToBaCCo'
  _symmetry_space_group_name_H-M    'P1'
  _symmetry_Int_Tables_number       1
  _symmetry_cell_setting            triclinic
  loop_
  _symmetry_equiv_pos_as_xyz
 x,y,z
_cell_length_a 79.5619
_cell_length_b 78.8866
_cell_length_c 79.7908
_cell_angle_alpha 89.960800
_cell_angle_beta 89.980000
_cell_angle_gamma 89.954800
loop_
  _atom_site_label
  _atom_site_type_symbol
  _atom_site_fract_x
  _atom_site_fract_y
  _atom_site_fract_z
C1 C 0.35024 0.35026 0.32801
 C2 C 0.36443 0.34272 0.32071
 C3 C 0.37143 0.32805 0.32772
 C4 C 0.36436 0.32083 0.34213
 C5 C 0.35016 0.32820 0.34960
 C6 C 0.34304 0.34299 0.34252
 C7 C 0.34298 0.36481 0.32095
 C8 C 0.32865 0.37209 0.32821
 C9 C 0.32153 0.36494 0.34263
 C10 C 0.32862 0.35039 0.34985
 C11 C 0.32144 0.34295 0.36413
 C12 C 0.32847 0.32826 0.37107
 C13 C 0.34280 0.32093 0.36388
 H14 H 0.36996 0.34816 0.30950
 H15 H 0.36983 0.30942 0.34742
 H16 H 0.34834 0.37041 0.30974
 H17 H 0.31039 0.37064 0.34810
 H18 H 0.31030 0.34848 0.36976
 H19 H 0.34810 0.30952 0.36931
 C20 C 0.34934 0.84957 -0.17356
 C21 C 0.36358 0.84211 -0.18086
 C22 C 0.37095 0.82774 -0.17355
 C23 C 0.36417 0.82079 -0.15886
 C24 C 0.34993 0.82810 -0.15141
 C25 C 0.34246 0.84256 -0.15878
 C26 C 0.34175 0.86383 -0.18088
 C27 C 0.32741 0.87108 -0.17359
 C28 C 0.32059 0.86416 -0.15890
 C29 C 0.32803 0.84991 -0.15143
 C30 C 0.32119 0.84276 -0.13684
 C31 C 0.32859 0.82840 -0.12960
 C32 C 0.34293 0.82112 -0.13682
 H33 H 0.36886 0.84739 -0.19226
 H34 H 0.36990 0.80963 -0.15330
 H35 H 0.34694 0.86922 -0.19228
 H36 H 0.30946 0.86980 -0.15336
 H37 H 0.31006 0.84826 -0.13117
 H38 H 0.34852 0.80996 -0.13115
 C39 C 0.84996 0.34919 -0.17218
 C40 C 0.86417 0.34165 -0.17946
 C41 C 0.87116 0.32696 -0.17243
 C42 C 0.86403 0.31974 -0.15803
 C43 C 0.84981 0.32713 -0.15060
 C44 C 0.84273 0.34192 -0.15769
 C45 C 0.84274 0.36377 -0.17924
 C46 C 0.82842 0.37108 -0.17200
 C47 C 0.82125 0.36392 -0.15759
 C48 C 0.82831 0.34934 -0.15037
 C49 C 0.82111 0.34193 -0.13609
 C50 C 0.82812 0.32723 -0.12913
 C51 C 0.84244 0.31988 -0.13632
 H52 H 0.86971 0.34714 -0.19064
 H53 H 0.86946 0.30834 -0.15268
 H54 H 0.84818 0.36934 -0.19044
 H55 H 0.81013 0.36961 -0.15208
 H56 H 0.80998 0.34748 -0.13046
 H57 H 0.84774 0.30847 -0.13086
 C58 C 0.84924 0.84832 0.32768
 C59 C 0.86349 0.84083 0.32043
 C60 C 0.87052 0.82618 0.32749
 C61 C 0.86341 0.81894 0.34186
 C62 C 0.84915 0.82626 0.34927
 C63 C 0.84201 0.84101 0.34216
 C64 C 0.84199 0.86288 0.32061
 C65 C 0.82763 0.87014 0.32785
 C66 C 0.82046 0.86294 0.34223
 C67 C 0.82756 0.84839 0.34946
 C68 C 0.82039 0.84097 0.36375
 C69 C 0.82747 0.82632 0.37074
 C70 C 0.84181 0.81901 0.36356
 H71 H 0.86907 0.84630 0.30927
 H72 H 0.86892 0.80757 0.34719
 H73 H 0.84745 0.86849 0.30944
 H74 H 0.80931 0.86860 0.34773
 H75 H 0.80925 0.84650 0.36938
 H76 H 0.84716 0.80764 0.36905
 C77 C 0.65157 0.65217 0.32721
 C78 C 0.63727 0.65967 0.32008
 C79 C 0.63016 0.67417 0.32732
 C80 C 0.63724 0.68126 0.34177
 C81 C 0.65155 0.67393 0.34907
 C82 C 0.65877 0.65932 0.34177
 C83 C 0.65892 0.63777 0.31995
 C84 C 0.67332 0.63050 0.32707
 C85 C 0.68045 0.63753 0.34153
 C86 C 0.67327 0.65193 0.34895
 C87 C 0.68042 0.65920 0.36332
 C88 C 0.67326 0.67371 0.37050
 C89 C 0.65886 0.68103 0.36343
 H90 H 0.63172 0.65431 0.30886
 H91 H 0.63167 0.69253 0.34724
 H92 H 0.65353 0.63226 0.30872
 H93 H 0.69163 0.63183 0.34691
 H94 H 0.69161 0.65367 0.36885
 H95 H 0.65346 0.69230 0.36906
 C96 C 0.65108 0.15208 -0.17270
 C97 C 0.63677 0.15950 -0.17989
 C98 C 0.62963 0.17404 -0.17276
 C99 C 0.63668 0.18124 -0.15835
 C100 C 0.65099 0.17398 -0.15099
 C101 C 0.65825 0.15934 -0.15819
 C102 C 0.65846 0.13764 -0.17987
 C103 C 0.67290 0.13046 -0.17271
 C104 C 0.68000 0.13761 -0.15828
 C105 C 0.67277 0.15205 -0.15095
 C106 C 0.67990 0.15943 -0.13663
 C107 C 0.67270 0.17397 -0.12955
 C108 C 0.65829 0.18120 -0.13667
 H109 H 0.63124 0.15406 -0.19109
 H110 H 0.63109 0.19253 -0.15296
 H111 H 0.65306 0.13208 -0.19107
 H112 H 0.69121 0.13203 -0.15283
 H113 H 0.69109 0.15397 -0.13106
 H114 H 0.65285 0.19249 -0.13112
 C115 C 0.14925 0.65003 -0.17100
 C116 C 0.13502 0.65753 -0.17828
 C117 C 0.12806 0.67225 -0.17134
 C118 C 0.13519 0.67955 -0.15702
 C119 C 0.14942 0.67222 -0.14957
 C120 C 0.15651 0.65740 -0.15658
 C121 C 0.15648 0.63544 -0.17801
 C122 C 0.17086 0.62822 -0.17078
 C123 C 0.17805 0.63546 -0.15644
 C124 C 0.17096 0.65005 -0.14928
 C125 C 0.17821 0.65756 -0.13508
 C126 C 0.17119 0.67228 -0.12820
 C127 C 0.15683 0.67956 -0.13537
 H128 H 0.12943 0.65202 -0.18942
 H129 H 0.12974 0.69099 -0.15179
 H130 H 0.15102 0.62980 -0.18915
 H131 H 0.18922 0.62984 -0.15095
 H132 H 0.18938 0.65208 -0.12948
 H133 H 0.15155 0.69101 -0.12999
 C134 C 0.15086 0.15136 0.32770
 C135 C 0.13659 0.15879 0.32044
 C136 C 0.12956 0.17348 0.32741
 C137 C 0.13670 0.18079 0.34174
 C138 C 0.15097 0.17351 0.34916
 C139 C 0.15811 0.15873 0.34212
 C140 C 0.15812 0.13678 0.32069
 C141 C 0.17251 0.12958 0.32792
 C142 C 0.17969 0.13684 0.34225
 C143 C 0.17258 0.15141 0.34942
 C144 C 0.17979 0.15891 0.36364
 C145 C 0.17271 0.17358 0.37056
 C146 C 0.15834 0.18084 0.36338
 H147 H 0.13103 0.15323 0.30931
 H148 H 0.13123 0.19220 0.34705
 H149 H 0.15266 0.13112 0.30956
 H150 H 0.19087 0.13123 0.34775
 H151 H 0.19095 0.15343 0.36926
 H152 H 0.15300 0.19224 0.36881
 C153 C 0.65040 0.34952 0.67109
 C154 C 0.63610 0.34213 0.67832
 C155 C 0.62899 0.32755 0.67126
 C156 C 0.63605 0.32031 0.65686
 C157 C 0.65034 0.32753 0.64946
 C158 C 0.65758 0.34220 0.65659
 C159 C 0.65777 0.36398 0.67820
 C160 C 0.67219 0.37110 0.67100
 C161 C 0.67931 0.36391 0.65661
 C162 C 0.67210 0.34946 0.64933
 C163 C 0.67924 0.34201 0.63505
 C164 C 0.67206 0.32745 0.62802
 C165 C 0.65765 0.32026 0.63516
 H166 H 0.63058 0.34760 0.68951
 H167 H 0.63048 0.30898 0.65153
 H168 H 0.65240 0.36961 0.68938
 H169 H 0.69052 0.36949 0.65118
 H170 H 0.69044 0.34744 0.62946
 H171 H 0.65223 0.30894 0.62966
 C172 C 0.65007 0.84925 1.17185
 C173 C 0.63578 0.84186 1.17912
 C174 C 0.62873 0.82719 1.17214
 C175 C 0.63587 0.81986 1.15780
 C176 C 0.65015 0.82710 1.15038
 C177 C 0.65731 0.84185 1.15743
 C178 C 0.65737 0.86379 1.17887
 C179 C 0.67177 0.87093 1.17165
 C180 C 0.67895 0.86365 1.15732
 C181 C 0.67181 0.84912 1.15014
 C182 C 0.67902 0.84160 1.13593
 C183 C 0.67192 0.82695 1.12899
 C184 C 0.65753 0.81975 1.13616
 H185 H 0.63023 0.84743 1.19025
 H186 H 0.63039 0.80847 1.15250
 H187 H 0.65195 0.86949 1.19000
 H188 H 0.69014 0.86925 1.15187
 H189 H 0.69021 0.84703 1.13032
 H190 H 0.65217 0.80836 1.13073
 C191 C 0.15030 0.34879 1.17241
 C192 C 0.13605 0.34135 1.17970
 C193 C 0.12909 0.32661 1.17279
 C194 C 0.13628 0.31925 1.15849
 C195 C 0.15052 0.32654 1.15105
 C196 C 0.15759 0.34137 1.15802
 C197 C 0.15750 0.36342 1.17935
 C198 C 0.17186 0.37061 1.17210
 C199 C 0.17908 0.36332 1.15780
 C200 C 0.17204 0.34870 1.15069
 C201 C 0.17928 0.34117 1.13650
 C202 C 0.17227 0.32645 1.12964
 C203 C 0.15793 0.31917 1.13685
 H204 H 0.13046 0.34695 1.19081
 H205 H 0.13086 0.30781 1.15324
 H206 H 0.15205 0.36914 1.19046
 H207 H 0.19023 0.36896 1.15232
 H208 H 0.19042 0.34666 1.13085
 H209 H 0.15264 0.30774 1.13147
 C210 C 0.15196 0.84693 0.67425
 C211 C 0.13761 0.83963 0.68149
 C212 C 0.13038 0.82511 0.67442
 C213 C 0.13740 0.81781 0.66001
 C214 C 0.15175 0.82495 0.65261
 C215 C 0.15908 0.83957 0.65974
 C216 C 0.15940 0.86137 0.68132
 C217 C 0.17382 0.86845 0.67407
 C218 C 0.18088 0.86120 0.65968
 C219 C 0.17360 0.84677 0.65244
 C220 C 0.18066 0.83931 0.63811
 C221 C 0.17338 0.82480 0.63108
 C222 C 0.15897 0.81766 0.63828
 H223 H 0.13214 0.84520 0.69267
 H224 H 0.13177 0.80654 0.65462
 H225 H 0.15406 0.86705 0.69249
 H226 H 0.19207 0.86676 0.65419
 H227 H 0.19185 0.84472 0.63247
 H228 H 0.15347 0.80639 0.63276
 C229 C 0.34969 0.65001 0.67207
 C230 C 0.36395 0.65745 0.67931
 C231 C 0.37110 0.67198 0.67215
 C232 C 0.36411 0.67913 0.65766
 C233 C 0.34985 0.67185 0.65027
 C234 C 0.34258 0.65722 0.65749
 C235 C 0.34226 0.63562 0.67929
 C236 C 0.32785 0.62847 0.67211
 C237 C 0.32082 0.63555 0.65762
 C238 C 0.32808 0.64993 0.65024
 C239 C 0.32098 0.65731 0.63589
 C240 C 0.32817 0.67184 0.62880
 C241 C 0.34258 0.67906 0.63592
 H242 H 0.36942 0.65207 0.69057
 H243 H 0.36970 0.69042 0.65227
 H244 H 0.34755 0.63009 0.69056
 H245 H 0.30961 0.62997 0.65222
 H246 H 0.30978 0.65187 0.63032
 H247 H 0.34800 0.69036 0.63037
 C248 C 0.35081 0.14788 1.17068
 C249 C 0.36533 0.15500 1.17773
 C250 C 0.37257 0.16953 1.17064
 C251 C 0.36541 0.17698 1.15637
 C252 C 0.35089 0.17002 1.14916
 C253 C 0.34353 0.15542 1.15634
 C254 C 0.34330 0.13351 1.17784
 C255 C 0.32863 0.12668 1.17085
 C256 C 0.32142 0.13411 1.15659
 C257 C 0.32878 0.14847 1.14927
 C258 C 0.32153 0.15615 1.13515
 C259 C 0.32883 0.17064 1.12810
 C260 C 0.34347 0.17754 1.13504
 H261 H 0.37090 0.14933 1.18882
 H262 H 0.37104 0.18827 1.15099
 H263 H 0.34877 0.12774 1.18892
 H264 H 0.31002 0.12881 1.15130
 H265 H 0.31015 0.15096 1.12972
 H266 H 0.34898 0.18881 1.12953
 C267 C 0.84844 0.65161 1.17431
 C268 C 0.86282 0.65897 1.18140
 C269 C 0.87001 0.67341 1.17414
 C270 C 0.86294 0.68059 1.15971
 C271 C 0.84856 0.67340 1.15245
 C272 C 0.84125 0.65884 1.15977
 C273 C 0.84102 0.63724 1.18158
 C274 C 0.82654 0.63010 1.17449
 C275 C 0.81942 0.63724 1.16005
 C276 C 0.82668 0.65161 1.15263
 C277 C 0.81954 0.65896 1.13829
 C278 C 0.82679 0.67341 1.13108
 C279 C 0.84126 0.68058 1.13811
 H280 H 0.86836 0.65354 1.19261
 H281 H 0.86859 0.69181 1.15422
 H282 H 0.84645 0.63168 1.19278
 H283 H 0.80818 0.63168 1.15465
 H284 H 0.80831 0.65354 1.13277
 H285 H 0.84674 0.69180 1.13246
 C286 C 0.84792 0.15218 0.67249
 C287 C 0.86228 0.15953 0.67962
 C288 C 0.86951 0.17397 0.67237
 C289 C 0.86250 0.18112 0.65790
 C290 C 0.84813 0.17394 0.65060
 C291 C 0.84078 0.15940 0.65792
 C292 C 0.84045 0.13785 0.67976
 C293 C 0.82598 0.13074 0.67266
 C294 C 0.81890 0.13785 0.65820
 C295 C 0.82621 0.15218 0.65076
 C296 C 0.81912 0.15953 0.63640
 C297 C 0.82640 0.17396 0.62919
 C298 C 0.84087 0.18112 0.63624
 H299 H 0.86777 0.15413 0.69086
 H300 H 0.86817 0.19234 0.65242
 H301 H 0.84579 0.13228 0.69100
 H302 H 0.80767 0.13229 0.65283
 H303 H 0.80787 0.15413 0.63088
 H304 H 0.84638 0.19233 0.63059
 C305 C 0.34939 0.35044 0.67166
 C306 C 0.34197 0.36484 0.67885
 C307 C 0.32752 0.37197 0.67171
 C308 C 0.32044 0.36485 0.65727
 C309 C 0.32770 0.35045 0.64991
 C310 C 0.34224 0.34319 0.65713
 C311 C 0.36370 0.34302 0.67886
 C312 C 0.37084 0.32848 0.67173
 C313 C 0.36382 0.32129 0.65730
 C314 C 0.34951 0.32855 0.64993
 C315 C 0.34220 0.32131 0.63563
 C316 C 0.32776 0.32850 0.62854
 C317 C 0.32056 0.34304 0.63561
 H318 H 0.34729 0.37040 0.69008
 H319 H 0.30919 0.37042 0.65189
 H320 H 0.36919 0.34843 0.69009
 H321 H 0.36941 0.30999 0.65193
 H322 H 0.34763 0.31000 0.63010
 H323 H 0.30933 0.34847 0.63006
 C324 C 0.34890 0.84927 0.17223
 C325 C 0.34143 0.86364 0.17943
 C326 C 0.32697 0.87075 0.17228
 C327 C 0.31991 0.86361 0.15784
 C328 C 0.32721 0.84923 0.15048
 C329 C 0.34176 0.84200 0.15770
 C330 C 0.36324 0.84190 0.17942
 C331 C 0.37044 0.82740 0.17226
 C332 C 0.36343 0.82020 0.15783
 C333 C 0.34909 0.82740 0.15048
 C334 C 0.34182 0.82017 0.13616
 C335 C 0.32737 0.82734 0.12906
 C336 C 0.32011 0.84183 0.13616
 H337 H 0.34676 0.86923 0.19065
 H338 H 0.30866 0.86917 0.15245
 H339 H 0.36872 0.84733 0.19064
 H340 H 0.36908 0.80894 0.15243
 H341 H 0.34731 0.80891 0.13059
 H342 H 0.30888 0.84725 0.13060
 C343 C 0.85065 0.34981 0.17136
 C344 C 0.84328 0.36433 0.17834
 C345 C 0.82886 0.37142 0.17108
 C346 C 0.82177 0.36412 0.15674
 C347 C 0.82898 0.34960 0.14959
 C348 C 0.84349 0.34238 0.15692
 C349 C 0.86493 0.34243 0.17867
 C350 C 0.87204 0.32778 0.17173
 C351 C 0.86500 0.32043 0.15738
 C352 C 0.85072 0.32763 0.14991
 C353 C 0.84342 0.32024 0.13569
 C354 C 0.82901 0.32740 0.12848
 C355 C 0.82184 0.34204 0.13537
 H356 H 0.84863 0.37005 0.18949
 H357 H 0.81056 0.36967 0.15127
 H358 H 0.87044 0.34798 0.18982
 H359 H 0.87056 0.30904 0.15216
 H360 H 0.84882 0.30885 0.13029
 H361 H 0.81065 0.34745 0.12973
 C362 C 0.84972 0.85013 0.67197
 C363 C 0.84215 0.86436 0.67934
 C364 C 0.82743 0.87122 0.67249
 C365 C 0.82019 0.86396 0.65820
 C366 C 0.82759 0.84973 0.65067
 C367 C 0.84242 0.84275 0.65757
 C368 C 0.86434 0.84301 0.67885
 C369 C 0.87165 0.82866 0.67152
 C370 C 0.86448 0.82136 0.65722
 C371 C 0.84987 0.82831 0.65017
 C372 C 0.84244 0.82097 0.63598
 C373 C 0.82771 0.82788 0.62920
 C374 C 0.82034 0.84222 0.63648
 H375 H 0.84762 0.87004 0.69045
 H376 H 0.80876 0.86933 0.65304
 H377 H 0.86996 0.84852 0.68997
 H378 H 0.87022 0.81020 0.65169
 H379 H 0.84802 0.80982 0.63028
 H380 H 0.80890 0.84743 0.63117
 C381 C 0.65046 0.65047 0.67257
 C382 C 0.65772 0.63590 0.67959
 C383 C 0.67211 0.62872 0.67237
 C384 C 0.67931 0.63599 0.65805
 C385 C 0.67221 0.65056 0.65087
 C386 C 0.65773 0.65787 0.65815
 C387 C 0.63618 0.65791 0.67981
 C388 C 0.62917 0.67260 0.67283
 C389 C 0.63632 0.67992 0.65850
 C390 C 0.65060 0.67265 0.65109
 C391 C 0.65799 0.67999 0.63687
 C392 C 0.67237 0.67274 0.62971
 C393 C 0.67944 0.65807 0.63665
 H394 H 0.65228 0.63020 0.69071
 H395 H 0.69050 0.63036 0.65261
 H396 H 0.63058 0.65238 0.69094
 H397 H 0.63083 0.69133 0.65323
 H398 H 0.65265 0.69139 0.63143
 H399 H 0.69062 0.65259 0.63105
 C400 C 0.65130 0.15050 0.17234
 C401 C 0.65862 0.13594 0.17933
 C402 C 0.67303 0.12883 0.17210
 C403 C 0.68020 0.13615 0.15779
 C404 C 0.67304 0.15071 0.15063
 C405 C 0.65853 0.15795 0.15793
 C406 C 0.63698 0.15785 0.17959
 C407 C 0.62989 0.17250 0.17262
 C408 C 0.63701 0.17989 0.15831
 C409 C 0.65133 0.17271 0.15090
 C410 C 0.65867 0.18009 0.13667
 C411 C 0.67308 0.17291 0.12949
 C412 C 0.68022 0.15826 0.13641
 H413 H 0.65320 0.13020 0.19044
 H414 H 0.69140 0.13057 0.15233
 H415 H 0.63139 0.15226 0.19070
 H416 H 0.63145 0.19127 0.15304
 H417 H 0.65328 0.19147 0.13124
 H418 H 0.69141 0.15283 0.13078
 C419 C 0.14960 0.65026 0.16962
 C420 C 0.15684 0.63570 0.17669
 C421 C 0.17133 0.62859 0.16962
 C422 C 0.17864 0.63589 0.15537
 C423 C 0.17156 0.65044 0.14813
 C424 C 0.15698 0.65770 0.15528
 C425 C 0.13525 0.65767 0.17676
 C426 C 0.12830 0.67237 0.16976
 C427 C 0.13555 0.67974 0.15552
 C428 C 0.14989 0.67250 0.14820
 C429 C 0.15741 0.67989 0.13408
 C430 C 0.17188 0.67270 0.12703
 C431 C 0.17891 0.65801 0.13400
 H432 H 0.15132 0.62999 0.18777
 H433 H 0.18990 0.63031 0.15004
 H434 H 0.12957 0.65211 0.18784
 H435 H 0.13011 0.69117 0.15025
 H436 H 0.15211 0.69131 0.12863
 H437 H 0.19015 0.65258 0.12849
 C438 C 0.14992 0.15092 0.67118
 C439 C 0.15716 0.13630 0.67814
 C440 C 0.17154 0.12913 0.67090
 C441 C 0.17875 0.13643 0.65660
 C442 C 0.17167 0.15104 0.64947
 C443 C 0.15720 0.15835 0.65678
 C444 C 0.13566 0.15835 0.67845
 C445 C 0.12867 0.17308 0.67153
 C446 C 0.13583 0.18045 0.65723
 C447 C 0.15009 0.17318 0.64979
 C448 C 0.15750 0.18057 0.63560
 C449 C 0.17186 0.17332 0.62840
 C450 C 0.17891 0.15860 0.63528
 H451 H 0.15172 0.13057 0.68925
 H452 H 0.18992 0.13081 0.65113
 H453 H 0.13005 0.15278 0.68956
 H454 H 0.13036 0.19189 0.65201
 H455 H 0.15218 0.19201 0.63021
 H456 H 0.19007 0.15313 0.62964
 C457 C 0.34943 0.65143 0.32735
 C458 C 0.34221 0.63693 0.32019
 C459 C 0.32785 0.62963 0.32734
 C460 C 0.32064 0.63671 0.34175
 C461 C 0.32769 0.65122 0.34906
 C462 C 0.34215 0.65864 0.34184
 C463 C 0.36369 0.65896 0.32017
 C464 C 0.37067 0.67357 0.32730
 C465 C 0.36350 0.68073 0.34169
 C466 C 0.34924 0.67336 0.34903
 C467 C 0.34183 0.68054 0.36332
 C468 C 0.32747 0.67319 0.37042
 C469 C 0.32045 0.65857 0.36335
 H470 H 0.34765 0.63138 0.30899
 H471 H 0.30949 0.63100 0.34715
 H472 H 0.36930 0.65356 0.30899
 H473 H 0.36897 0.69208 0.34708
 H474 H 0.34712 0.69190 0.36885
 H475 H 0.30930 0.65302 0.36892
 C476 C 0.34969 0.15102 0.82788
 C477 C 0.34245 0.13649 0.82078
 C478 C 0.32812 0.12921 0.82800
 C479 C 0.32094 0.13634 0.84240
 C480 C 0.32801 0.15087 0.84966
 C481 C 0.34245 0.15827 0.84238
 C482 C 0.36391 0.15855 0.82063
 C483 C 0.37089 0.17319 0.82769
 C484 C 0.36378 0.18038 0.84209
 C485 C 0.34955 0.17302 0.84950
 C486 C 0.34218 0.18023 0.86379
 C487 C 0.32785 0.17290 0.87096
 C488 C 0.32081 0.15825 0.86395
 H489 H 0.34786 0.13090 0.80959
 H490 H 0.30980 0.13064 0.84785
 H491 H 0.36948 0.15312 0.80944
 H492 H 0.36925 0.19175 0.84742
 H493 H 0.34749 0.19161 0.86928
 H494 H 0.30967 0.15271 0.86956
 C495 C 0.85046 0.64954 0.82918
 C496 C 0.84297 0.63517 0.82205
 C497 C 0.82852 0.62812 0.82926
 C498 C 0.82151 0.63530 0.84371
 C499 C 0.82884 0.64967 0.85101
 C500 C 0.84338 0.65686 0.84373
 C501 C 0.86476 0.65689 0.82190
 C502 C 0.87197 0.67141 0.82897
 C503 C 0.86503 0.67865 0.84342
 C504 C 0.85072 0.67148 0.85087
 C505 C 0.84347 0.67879 0.86517
 C506 C 0.82902 0.67168 0.87233
 C507 C 0.82176 0.65715 0.86532
 H508 H 0.84824 0.62956 0.81081
 H509 H 0.81027 0.62979 0.84915
 H510 H 0.87019 0.65144 0.81065
 H511 H 0.87066 0.68994 0.84875
 H512 H 0.84895 0.69008 0.87065
 H513 H 0.81053 0.65179 0.87091
 C514 C 0.85110 0.14938 0.32876
 C515 C 0.84399 0.13477 0.32171
 C516 C 0.82955 0.12756 0.32878
 C517 C 0.82217 0.13481 0.34302
 C518 C 0.82912 0.14941 0.35024
 C519 C 0.84364 0.15677 0.34308
 C520 C 0.86540 0.15689 0.32163
 C521 C 0.87222 0.17164 0.32862
 C522 C 0.86488 0.17895 0.34285
 C523 C 0.85059 0.17161 0.35015
 C524 C 0.84300 0.17897 0.36425
 C525 C 0.82858 0.17167 0.37129
 C526 C 0.82169 0.15693 0.36434
 H527 H 0.84956 0.12909 0.31064
 H528 H 0.81095 0.12916 0.34835
 H529 H 0.87114 0.15137 0.31057
 H530 H 0.87023 0.19042 0.34812
 H531 H 0.84819 0.19042 0.36969
 H532 H 0.81048 0.15142 0.36985
 C533 C 0.64914 0.34860 0.32676
 C534 C 0.65634 0.36322 0.31978
 C535 C 0.67068 0.37044 0.32704
 C536 C 0.67788 0.36318 0.34136
 C537 C 0.67084 0.34857 0.34851
 C538 C 0.65642 0.34121 0.34118
 C539 C 0.63492 0.34112 0.31948
 C540 C 0.62798 0.32639 0.32643
 C541 C 0.63514 0.31907 0.34075
 C542 C 0.64936 0.32638 0.34819
 C543 C 0.65676 0.31903 0.36241
 C544 C 0.67108 0.32633 0.36961
 C545 C 0.67808 0.34106 0.36272
 H546 H 0.65091 0.36891 0.30865
 H547 H 0.68902 0.36885 0.34684
 H548 H 0.62931 0.34666 0.30836
 H549 H 0.62970 0.30763 0.34599
 H550 H 0.65148 0.30759 0.36781
 H551 H 0.68920 0.34657 0.36836
 C552 C 0.65102 0.84819 0.82786
 C553 C 0.65839 0.86265 0.82076
 C554 C 0.67285 0.86973 0.82791
 C555 C 0.68001 0.86246 0.84225
 C556 C 0.67280 0.84800 0.84952
 C557 C 0.65824 0.84080 0.84231
 C558 C 0.63667 0.84086 0.82069
 C559 C 0.62954 0.82628 0.82776
 C560 C 0.63664 0.81896 0.84210
 C561 C 0.65100 0.82612 0.84945
 C562 C 0.65834 0.81878 0.86370
 C563 C 0.67279 0.82592 0.87080
 C564 C 0.67998 0.84049 0.86377
 H565 H 0.65299 0.86835 0.80962
 H566 H 0.69125 0.86800 0.84765
 H567 H 0.63110 0.84640 0.80955
 H568 H 0.63106 0.80764 0.84745
 H569 H 0.65292 0.80746 0.86920
 H570 H 0.69120 0.84588 0.86933
 C571 C 0.14970 0.34881 0.82887
 C572 C 0.15689 0.36343 0.82189
 C573 C 0.17122 0.37066 0.82913
 C574 C 0.17844 0.36340 0.84346
 C575 C 0.17141 0.34879 0.85061
 C576 C 0.15698 0.34143 0.84330
 C577 C 0.13548 0.34133 0.82160
 C578 C 0.12854 0.32660 0.82855
 C579 C 0.13570 0.31928 0.84287
 C580 C 0.14992 0.32660 0.85031
 C581 C 0.15732 0.31926 0.86453
 C582 C 0.17165 0.32657 0.87173
 C583 C 0.17864 0.34129 0.86483
 H584 H 0.15145 0.36912 0.81076
 H585 H 0.18957 0.36907 0.84892
 H586 H 0.12987 0.34686 0.81047
 H587 H 0.13026 0.30784 0.84811
 H588 H 0.15205 0.30782 0.86994
 H589 H 0.18977 0.34680 0.87046
 C590 C 0.14923 0.85070 0.32989
 C591 C 0.15660 0.86524 0.32292
 C592 C 0.17109 0.87221 0.33010
 C593 C 0.17828 0.86479 0.34434
 C594 C 0.17108 0.85025 0.35148
 C595 C 0.15649 0.84315 0.34424
 C596 C 0.13486 0.84346 0.32267
 C597 C 0.12776 0.82880 0.32960
 C598 C 0.13489 0.82132 0.34385
 C599 C 0.14926 0.82839 0.35124
 C600 C 0.15665 0.82088 0.36537
 C601 C 0.17114 0.82792 0.37249
 C602 C 0.17831 0.84257 0.36561
 H603 H 0.15117 0.87105 0.31185
 H604 H 0.18955 0.87026 0.34975
 H605 H 0.12928 0.84910 0.31159
 H606 H 0.12932 0.80993 0.34907
 H607 H 0.15124 0.80949 0.37075
 H608 H 0.18956 0.84788 0.37119
 O609 O 0.25099 1.01663 0.22906
 O610 O 0.22802 0.98403 0.25287
 O611 O 0.22822 1.01708 0.25245
 O612 O 0.25075 0.98357 0.22949
 O613 O 0.27071 0.98365 0.24879
 O614 O 0.24816 1.01718 0.27175
 O615 O 0.24797 0.98412 0.27217
 O616 O 0.27095 1.01672 0.24836
 Cu617 Cu 0.23748 1.00033 0.23902
 Cu618 Cu 0.26146 1.00043 0.26221
 C619 C 0.26482 1.02222 0.23472
 C620 C 0.23415 0.97852 0.26650
 C621 C 0.23441 1.02282 0.26594
 C622 C 0.26449 0.97789 0.23531
 O623 O 0.24725 0.51665 0.77245
 O624 O 0.27020 0.48367 0.74913
 O625 O 0.27018 0.51673 0.74923
 O626 O 0.24728 0.48360 0.77236
 O627 O 0.22747 0.48366 0.75293
 O628 O 0.25037 0.51680 0.72979
 O629 O 0.25038 0.48374 0.72970
 O630 O 0.22743 0.51672 0.75301
 Cu631 Cu 0.26073 0.50016 0.76275
 Cu632 Cu 0.23692 0.50024 0.73939
 C633 C 0.23350 0.52230 0.76663
 C634 C 0.26412 0.47808 0.73553
 C635 C 0.26410 0.52241 0.73564
 C636 C 0.23355 0.47799 0.76651
 O637 O 0.74909 -0.01724 0.22873
 O638 O 0.77232 0.01555 0.25199
 O639 O 0.77204 -0.01751 0.25193
 O640 O 0.74935 0.01582 0.22881
 O641 O 0.72957 0.01594 0.24829
 O642 O 0.75226 -0.01739 0.27141
 O643 O 0.75254 0.01567 0.27146
 O644 O 0.72931 -0.01711 0.24821
 Cu645 Cu 0.76270 -0.00086 0.23840
 Cu646 Cu 0.73892 -0.00071 0.26181
 C647 C 0.73531 -0.02275 0.23457
 C648 C 0.76632 0.02119 0.26562
 C649 C 0.76594 -0.02312 0.26554
 C650 C 0.73566 0.02154 0.23468
 O651 O 0.72893 0.51582 0.74848
 O652 O 0.75211 0.48280 0.77156
 O653 O 0.75184 0.51587 0.77168
 O654 O 0.72916 0.48277 0.74834
 O655 O 0.74896 0.48300 0.72888
 O656 O 0.77164 0.51610 0.75223
 O657 O 0.77191 0.48304 0.75209
 O658 O 0.74874 0.51605 0.72903
 Cu659 Cu 0.73851 0.49928 0.76198
 Cu660 Cu 0.76232 0.49956 0.73860
 C661 C 0.73497 0.52156 0.73490
 C662 C 0.76589 0.47730 0.76568
 C663 C 0.76551 0.52164 0.76584
 C664 C 0.73525 0.47727 0.73469
 O665 O 0.27126 0.51702 0.25072
 O666 O 0.24829 0.48372 0.22793
 O667 O 0.24821 0.51677 0.22762
 O668 O 0.27137 0.48397 0.25099
 O669 O 0.25168 0.48407 0.27056
 O670 O 0.22851 0.51689 0.24718
 O671 O 0.22860 0.48384 0.24749
 O672 O 0.25156 0.51714 0.27029
 Cu673 Cu 0.26177 0.50036 0.23734
 Cu674 Cu 0.23810 0.50050 0.26086
 C675 C 0.26525 0.52274 0.26432
 C676 C 0.23460 0.47811 0.23390
 C677 C 0.23448 0.52241 0.23348
 C678 C 0.26540 0.47843 0.26468
 O679 O 0.77074 0.98406 0.74878
 O680 O 0.74774 1.01710 0.77193
 O681 O 0.74789 0.98399 0.77200
 O682 O 0.77057 1.01715 0.74870
 O683 O 0.75072 1.01704 0.72930
 O684 O 0.72804 0.98388 0.75260
 O685 O 0.72789 1.01700 0.75253
 O686 O 0.75089 0.98395 0.72938
 Cu687 Cu 0.76124 1.00059 0.76232
 Cu688 Cu 0.73738 1.00045 0.73900
 C689 C 0.76464 0.97834 0.73524
 C690 C 0.73402 1.02274 0.76606
 C691 C 0.73421 0.97824 0.76616
 C692 C 0.76440 1.02278 0.73513
 O693 O 0.75153 0.51643 0.22873
 O694 O 0.72825 0.48324 0.25140
 O695 O 0.72846 0.51632 0.25165
 O696 O 0.75146 0.48335 0.22838
 O697 O 0.77107 0.48305 0.24801
 O698 O 0.74807 0.51602 0.27129
 O699 O 0.74786 0.48293 0.27104
 O700 O 0.77114 0.51613 0.24838
 Cu701 Cu 0.73795 0.49982 0.23805
 Cu702 Cu 0.76152 0.49946 0.26166
 C703 C 0.76517 0.52201 0.23483
 C704 C 0.73414 0.47746 0.26503
 C705 C 0.73448 0.52186 0.26530
 C706 C 0.76513 0.47761 0.23428
 O707 O 0.25167 -0.01614 0.77084
 O708 O 0.22856 0.01680 0.74759
 O709 O 0.22872 -0.01629 0.74783
 O710 O 0.25161 0.01694 0.77076
 O711 O 0.27134 0.01692 0.75123
 O712 O 0.24845 -0.01632 0.72829
 O713 O 0.24829 0.01677 0.72806
 O714 O 0.27141 -0.01616 0.75130
 Cu715 Cu 0.23815 0.00038 0.76122
 Cu716 Cu 0.26186 0.00034 0.73775
 C717 C 0.26535 -0.02183 0.76490
 C718 C 0.23455 0.02237 0.73392
 C719 C 0.23482 -0.02205 0.73429
 C720 C 0.26533 0.02256 0.76486
 O721 O 0.24786 0.27091 0.98418
 O722 O 0.27148 0.24791 1.01671
 O723 O 0.27133 0.24806 0.98399
 O724 O 0.24799 0.27076 1.01691
 O725 O 0.22870 0.25059 1.01693
 O726 O 0.25203 0.22789 0.98401
 O727 O 0.25218 0.22774 1.01672
 O728 O 0.22856 0.25074 0.98420
 Cu729 Cu 0.26161 0.26145 1.00045
 Cu730 Cu 0.23842 0.23720 1.00047
 C731 C 0.23431 0.26462 0.97859
 C732 C 0.26575 0.23400 1.02229
 C733 C 0.26555 0.23421 0.97835
 C734 C 0.23448 0.26444 1.02257
 O735 O 0.24754 0.77092 0.48408
 O736 O 0.27127 0.74777 0.51642
 O737 O 0.27101 0.74806 0.48369
 O738 O 0.24779 0.77059 0.51681
 O739 O 0.22850 0.75042 0.51679
 O740 O 0.25172 0.72789 0.48367
 O741 O 0.25198 0.72760 0.51640
 O742 O 0.22825 0.75075 0.48405
 Cu743 Cu 0.26135 0.76138 0.50024
 Cu744 Cu 0.23816 0.73713 0.50022
 C745 C 0.23397 0.76467 0.47851
 C746 C 0.26554 0.73386 0.52198
 C747 C 0.26522 0.73424 0.47800
 C748 C 0.23431 0.76422 0.52250
 O749 O 0.22928 0.74956 -0.01743
 O750 O 0.25245 0.77232 0.01554
 O751 O 0.25270 0.77255 -0.01719
 O752 O 0.22910 0.74942 0.01528
 O753 O 0.24849 0.72931 0.01530
 O754 O 0.27208 0.75244 -0.01716
 O755 O 0.27184 0.75221 0.01556
 O756 O 0.24866 0.72946 -0.01740
 Cu757 Cu 0.23893 0.76300 -0.00098
 Cu758 Cu 0.26223 0.73883 -0.00095
 C759 C 0.23509 0.73570 -0.02302
 C760 C 0.26597 0.76602 0.02123
 C761 C 0.26634 0.76636 -0.02271
 C762 C 0.23489 0.73554 0.02087
 O763 O 0.22877 0.24946 0.48328
 O764 O 0.25198 0.27243 0.51607
 O765 O 0.25211 0.27241 0.48335
 O766 O 0.22863 0.24946 0.51602
 O767 O 0.24804 0.22938 0.51611
 O768 O 0.27152 0.25232 0.48345
 O769 O 0.27139 0.25234 0.51617
 O770 O 0.24818 0.22937 0.48338
 Cu771 Cu 0.23841 0.26296 0.49967
 Cu772 Cu 0.26174 0.23882 0.49979
 C773 C 0.23463 0.23561 0.47769
 C774 C 0.26553 0.26619 0.52174
 C775 C 0.26571 0.26616 0.47779
 C776 C 0.23444 0.23562 0.52168
 O777 O 0.72874 0.75080 1.01671
 O778 O 0.75244 0.72774 0.98429
 O779 O 0.75216 0.72791 1.01702
 O780 O 0.72898 0.75061 0.98398
 O781 O 0.74830 0.77075 0.98400
 O782 O 0.77149 0.74805 1.01705
 O783 O 0.77176 0.74788 0.98432
 O784 O 0.74807 0.77093 1.01673
 Cu785 Cu 0.73863 0.73723 1.00049
 Cu786 Cu 0.76186 0.76144 1.00052
 C787 C 0.73448 0.76468 1.02230
 C788 C 0.76604 0.73399 0.97874
 C789 C 0.76565 0.73423 1.02272
 C790 C 0.73480 0.76444 0.97832
 O791 O 0.74732 0.27120 0.48234
 O792 O 0.77066 0.24858 0.51533
 O793 O 0.77075 0.24829 0.48260
 O794 O 0.74729 0.27151 0.51507
 O795 O 0.72793 0.25141 0.51525
 O796 O 0.75139 0.22818 0.48276
 O797 O 0.75130 0.22848 0.51549
 O798 O 0.72796 0.25110 0.48251
 Cu799 Cu 0.76096 0.26193 0.49881
 Cu800 Cu 0.73768 0.23776 0.49901
 C801 C 0.73376 0.26490 0.47677
 C802 C 0.76483 0.23479 0.52108
 C803 C 0.76496 0.23438 0.47711
 C804 C 0.73374 0.26530 0.52076
 O805 O 0.77170 0.25146 -0.01640
 O806 O 0.74836 0.22857 0.01640
 O807 O 0.74823 0.22866 -0.01634
 O808 O 0.77186 0.25136 0.01632
 O809 O 0.75258 0.27157 0.01646
 O810 O 0.72894 0.24886 -0.01621
 O811 O 0.72908 0.24878 0.01654
 O812 O 0.75242 0.27167 -0.01626
 Cu813 Cu 0.76198 0.23797 -0.00001
 Cu814 Cu 0.73880 0.26226 0.00015
 C815 C 0.76592 0.26536 -0.02196
 C816 C 0.73486 0.23489 0.02211
 C817 C 0.73468 0.23501 -0.02190
 C818 C 0.76614 0.26523 0.02199
 O819 O 0.77147 0.75140 0.48422
 O820 O 0.74812 0.72850 0.51699
 O821 O 0.74819 0.72841 0.48425
 O822 O 0.77140 0.75153 0.51695
 O823 O 0.75193 0.77156 0.51683
 O824 O 0.72873 0.74845 0.48414
 O825 O 0.72865 0.74853 0.51688
 O826 O 0.75201 0.77143 0.48409
 Cu827 Cu 0.76176 0.73794 0.50062
 Cu828 Cu 0.73836 0.76202 0.50048
 C829 C 0.76560 0.76520 0.47852
 C830 C 0.73452 0.73472 0.52257
 C831 C 0.73463 0.73462 0.47856
 C832 C 0.76551 0.76538 0.52250
 O833 O 0.98425 0.24855 0.27175
 O834 O 1.01699 0.27149 0.24832
 O835 O 0.98418 0.27153 0.24843
 O836 O 1.01707 0.24856 0.27163
 O837 O 1.01702 0.22847 0.25230
 O838 O 0.98411 0.25145 0.22910
 O839 O 1.01693 0.25140 0.22900
 O840 O 0.98419 0.22847 0.25243
 Cu841 Cu 1.00062 0.26206 0.26199
 Cu842 Cu 1.00055 0.23792 0.23876
 C843 C 0.97862 0.23470 0.26599
 C844 C 1.02259 0.26524 0.23478
 C845 C 0.97852 0.26531 0.23491
 C846 C 1.02270 0.23471 0.26580
 O847 O 0.48347 0.24934 0.77100
 O848 O 0.51625 0.27223 0.74758
 O849 O 0.48343 0.27227 0.74767
 O850 O 0.51629 0.24935 0.77095
 O851 O 0.51628 0.22923 0.75166
 O852 O 0.48340 0.25216 0.72837
 O853 O 0.51621 0.25211 0.72829
 O854 O 0.48345 0.22922 0.75170
 Cu855 Cu 0.49986 0.26283 0.76125
 Cu856 Cu 0.49983 0.23865 0.73806
 C857 C 0.47783 0.23548 0.76523
 C858 C 0.52186 0.26596 0.73405
 C859 C 0.47778 0.26602 0.73416
 C860 C 0.52193 0.23550 0.76516
 O861 O 0.01588 0.25121 0.77128
 O862 O -0.01697 0.22855 0.74782
 O863 O 0.01586 0.22844 0.74782
 O864 O -0.01693 0.25133 0.77125
 O865 O -0.01686 0.27155 0.75204
 O866 O 0.01592 0.24866 0.72861
 O867 O -0.01691 0.24877 0.72861
 O868 O 0.01596 0.27143 0.75208
 Cu869 Cu -0.00054 0.23783 0.76148
 Cu870 Cu -0.00046 0.26215 0.73839
 C871 C 0.02155 0.26508 0.76557
 C872 C -0.02260 0.23491 0.73434
 C873 C 0.02152 0.23476 0.73433
 C874 C -0.02253 0.26523 0.76552
 O875 O 0.48278 0.22676 0.24718
 O876 O 0.51522 0.25023 0.27047
 O877 O 0.48241 0.25008 0.27027
 O878 O 0.51559 0.22706 0.24747
 O879 O 0.51558 0.24693 0.22789
 O880 O 0.48243 0.26993 0.25069
 O881 O 0.51523 0.27009 0.25089
 O882 O 0.48278 0.24662 0.22761
 Cu883 Cu 0.49896 0.23653 0.26083
 Cu884 Cu 0.49896 0.26040 0.23729
 C885 C 0.47727 0.23275 0.23349
 C886 C 0.52083 0.26402 0.26452
 C887 C 0.47679 0.26387 0.26431
 C888 C 0.52130 0.23321 0.23392
 O889 O 1.01597 0.72857 0.75201
 O890 O 0.98356 0.75192 0.72846
 O891 O 1.01638 0.75162 0.72887
 O892 O 0.98318 0.72872 0.75167
 O893 O 0.98306 0.74867 0.77114
 O894 O 1.01628 0.77158 0.74832
 O895 O 0.98346 0.77187 0.74792
 O896 O 1.01585 0.74853 0.77146
 Cu897 Cu 0.99975 0.73820 0.73828
 Cu898 Cu 0.99961 0.76218 0.76167
 C899 C 1.02149 0.73470 0.76563
 C900 C 0.97800 0.76580 0.73425
 C901 C 1.02206 0.76536 0.73484
 C902 C 0.97749 0.73484 0.76523
 O903 O 0.51657 0.77234 0.24785
 O904 O 0.48381 0.74941 0.27127
 O905 O 0.51665 0.74948 0.27125
 O906 O 0.48375 0.77229 0.24790
 O907 O 0.48379 0.75214 0.22863
 O908 O 0.51670 0.72933 0.25199
 O909 O 0.48386 0.72926 0.25200
 O910 O 0.51661 0.75219 0.22859
 Cu911 Cu 0.50019 0.76291 0.26151
 Cu912 Cu 0.50024 0.73869 0.23836
 C913 C 0.52221 0.76606 0.23434
 C914 C 0.47819 0.73554 0.26550
 C915 C 0.52233 0.73564 0.26548
 C916 C 0.47812 0.76599 0.23440
 O917 O -0.01600 0.77144 0.25201
 O918 O 0.01691 0.74892 0.22841
 O919 O -0.01591 0.74860 0.22871
 O920 O 0.01680 0.77184 0.25188
 O921 O 0.01714 0.75169 0.27116
 O922 O -0.01555 0.72845 0.24800
 O923 O 0.01727 0.72877 0.24768
 O924 O -0.01566 0.75129 0.27130
 Cu925 Cu 0.00045 0.76223 0.23830
 Cu926 Cu 0.00088 0.73801 0.26148
 C927 C -0.02151 0.76508 0.26554
 C928 C 0.02268 0.73507 0.23409
 C929 C -0.02139 0.73470 0.23456
 C930 C 0.02251 0.76567 0.26541
 O931 O 0.51599 0.75157 0.77155
 O932 O 0.48324 0.72856 0.74827
 O933 O 0.51606 0.72849 0.74841
 O934 O 0.48315 0.75172 0.77136
 O935 O 0.48331 0.77166 0.75186
 O936 O 0.51620 0.74844 0.72891
 O937 O 0.48338 0.74850 0.72877
 O938 O 0.51615 0.77152 0.75205
 Cu939 Cu 0.49959 0.73807 0.76187
 Cu940 Cu 0.49977 0.76204 0.73843
 C941 C 0.52171 0.76534 0.76565
 C942 C 0.47769 0.73470 0.73466
 C943 C 0.52178 0.73462 0.73486
 C944 C 0.47758 0.76554 0.76540
 C945 C 0.43862 0.28869 0.28838
 C946 C 0.42398 0.29300 0.27922
 C947 C 0.41038 0.30128 0.28738
 C948 C 0.41148 0.30518 0.30467
 C949 C 0.42616 0.30097 0.31380
 C950 C 0.43977 0.29271 0.30563
 C951 C 0.45431 0.28861 0.31503
 C952 C 0.45537 0.29257 0.33202
 C953 C 0.44206 0.30064 0.34000
 C954 C 0.42759 0.30482 0.33107
 C955 C 0.39587 0.30544 0.27796
 C956 C 0.39483 0.30153 0.26096
 C957 C 0.40812 0.29343 0.25298
 C958 C 0.42256 0.28919 0.26194
 C959 C 0.39745 0.31339 0.31304
 C960 C 0.38567 0.32011 0.31982
 C961 C 0.45238 0.27998 0.28006
 C962 C 0.46363 0.27267 0.27297
 H963 H 0.46499 0.28234 0.30936
 H964 H 0.46658 0.28935 0.33902
 H965 H 0.44294 0.30368 0.35320
 H966 H 0.41757 0.31110 0.33783
 H967 H 0.38520 0.31175 0.28360
 H968 H 0.38364 0.30481 0.25395
 H969 H 0.40725 0.29042 0.23978
 H970 H 0.43256 0.28290 0.25517
 C971 C 0.43851 0.78955 0.78878
 C972 C 0.42213 0.78736 0.78219
 C973 C 0.40820 0.79538 0.79005
 C974 C 0.41074 0.80556 0.80444
 C975 C 0.42712 0.80778 0.81100
 C976 C 0.44105 0.79976 0.80314
 C977 C 0.45731 0.80217 0.80992
 C978 C 0.45974 0.81222 0.82407
 C979 C 0.44612 0.82006 0.83176
 C980 C 0.42997 0.81791 0.82536
 C981 C 0.39195 0.79299 0.78324
 C982 C 0.38952 0.78298 0.76906
 C983 C 0.40314 0.77515 0.76137
 C984 C 0.41928 0.77725 0.76781
 C985 C 0.39648 0.81368 0.81249
 C986 C 0.38454 0.82034 0.81909
 C987 C 0.45269 0.78125 0.78077
 C988 C 0.46423 0.77419 0.77390
 H989 H 0.46830 0.79634 0.80437
 H990 H 0.47227 0.81393 0.82909
 H991 H 0.44808 0.82785 0.84275
 H992 H 0.41977 0.82427 0.83177
 H993 H 0.38095 0.79883 0.78877
 H994 H 0.37701 0.78130 0.76401
 H995 H 0.40119 0.76742 0.75034
 H996 H 0.42946 0.77088 0.76138
 C997 C -0.06149 0.28889 0.78942
 C998 C -0.07791 0.28672 0.78292
 C999 C -0.09180 0.29466 0.79093
 C1000 C -0.08919 0.30472 0.80539
 C1001 C -0.07276 0.30690 0.81187
 C1002 C -0.05887 0.29896 0.80386
 C1003 C -0.04257 0.30133 0.81056
 C1004 C -0.04007 0.31126 0.82478
 C1005 C -0.05365 0.31901 0.83262
 C1006 C -0.06984 0.31691 0.82630
 C1007 C -0.10810 0.29231 0.78420
 C1008 C -0.11060 0.28241 0.76996
 C1009 C -0.09702 0.27467 0.76212
 C1010 C -0.08084 0.27673 0.76848
 C1011 C -0.10339 0.31283 0.81354
 C1012 C -0.11529 0.31950 0.82019
 C1013 C -0.04735 0.28071 0.78123
 C1014 C -0.03584 0.27375 0.77421
 H1015 H -0.03162 0.29555 0.80490
 H1016 H -0.02751 0.31294 0.82974
 H1017 H -0.05163 0.32671 0.84367
 H1018 H -0.08000 0.32319 0.83283
 H1019 H -0.11906 0.29808 0.78985
 H1020 H -0.12314 0.28076 0.76498
 H1021 H -0.09902 0.26703 0.75103
 H1022 H -0.07070 0.27043 0.76193
 C1023 C -0.06084 0.78819 0.28936
 C1024 C -0.07715 0.78617 0.28254
 C1025 C -0.09116 0.79399 0.29045
 C1026 C -0.08878 0.80378 0.30513
 C1027 C -0.07248 0.80578 0.31195
 C1028 C -0.05846 0.79796 0.30404
 C1029 C -0.04228 0.80015 0.31108
 C1030 C -0.04001 0.80978 0.32554
 C1031 C -0.05371 0.81742 0.33328
 C1032 C -0.06979 0.81549 0.32662
 C1033 C -0.10734 0.79180 0.28340
 C1034 C -0.10961 0.78217 0.26894
 C1035 C -0.09591 0.77454 0.26120
 C1036 C -0.07985 0.77645 0.26787
 C1037 C -0.10311 0.81179 0.31317
 C1038 C -0.11509 0.81838 0.31976
 C1039 C -0.04656 0.78019 0.28123
 C1040 C -0.03494 0.77340 0.27423
 H1041 H -0.03124 0.79445 0.30551
 H1042 H -0.02755 0.81132 0.33076
 H1043 H -0.05188 0.82489 0.34450
 H1044 H -0.08005 0.82168 0.33309
 H1045 H -0.11839 0.79749 0.28896
 H1046 H -0.12207 0.78064 0.26371
 H1047 H -0.09774 0.76711 0.24994
 H1048 H -0.06960 0.77025 0.26140
 C1049 C 0.56152 0.71241 0.28943
 C1050 C 0.57791 0.71888 0.28683
 C1051 C 0.59190 0.71103 0.29476
 C1052 C 0.58941 0.69674 0.30523
 C1053 C 0.57300 0.69032 0.30787
 C1054 C 0.55902 0.69818 0.29995
 C1055 C 0.54274 0.69153 0.30278
 C1056 C 0.54035 0.67751 0.31314
 C1057 C 0.55402 0.66983 0.32089
 C1058 C 0.57019 0.67610 0.31833
 C1059 C 0.60816 0.71773 0.29198
 C1060 C 0.61055 0.73180 0.28168
 C1061 C 0.59688 0.73949 0.27394
 C1062 C 0.58073 0.73315 0.27642
 C1063 C 0.60373 0.68864 0.31319
 C1064 C 0.61572 0.68200 0.31969
 C1065 C 0.54729 0.72038 0.28118
 C1066 C 0.53572 0.72720 0.27414
 H1067 H 0.53172 0.69708 0.29703
 H1068 H 0.52781 0.67259 0.31518
 H1069 H 0.55210 0.65894 0.32893
 H1070 H 0.58043 0.66969 0.32463
 H1071 H 0.61920 0.71220 0.29773
 H1072 H 0.62307 0.73677 0.27971
 H1073 H 0.59879 0.75045 0.26599
 H1074 H 0.57050 0.73958 0.27012
 C1075 C 0.56107 0.21216 0.78908
 C1076 C 0.57748 0.21861 0.78650
 C1077 C 0.59144 0.21075 0.79445
 C1078 C 0.58892 0.19648 0.80493
 C1079 C 0.57251 0.19006 0.80755
 C1080 C 0.55854 0.19793 0.79960
 C1081 C 0.54226 0.19129 0.80241
 C1082 C 0.53985 0.17727 0.81277
 C1083 C 0.55350 0.16958 0.82054
 C1084 C 0.56968 0.17585 0.81800
 C1085 C 0.60772 0.21744 0.79168
 C1086 C 0.61013 0.23149 0.78137
 C1087 C 0.59647 0.23919 0.77361
 C1088 C 0.58031 0.23287 0.77608
 C1089 C 0.60323 0.18842 0.81296
 C1090 C 0.61520 0.18181 0.81953
 C1091 C 0.54686 0.22015 0.78083
 C1092 C 0.53530 0.22701 0.77380
 H1093 H 0.53125 0.19684 0.79664
 H1094 H 0.52730 0.17236 0.81478
 H1095 H 0.55156 0.15870 0.82858
 H1096 H 0.57990 0.16944 0.82432
 H1097 H 0.61874 0.21190 0.79744
 H1098 H 0.62266 0.23645 0.77940
 H1099 H 0.59840 0.25013 0.76565
 H1100 H 0.57010 0.23930 0.76976
 C1101 C 1.06021 0.71095 0.78983
 C1102 C 1.07671 0.71718 0.78731
 C1103 C 1.09053 0.70919 0.79539
 C1104 C 1.08777 0.69502 0.80594
 C1105 C 1.07127 0.68882 0.80849
 C1106 C 1.05744 0.69681 0.80041
 C1107 C 1.04106 0.69039 0.80315
 C1108 C 1.03841 0.67646 0.81357
 C1109 C 1.05193 0.66864 0.82146
 C1110 C 1.06819 0.67469 0.81899
 C1111 C 1.10691 0.71565 0.79267
 C1112 C 1.10955 0.72961 0.78229
 C1113 C 1.09604 0.73743 0.77440
 C1114 C 1.07979 0.73134 0.77682
 C1115 C 1.10192 0.68683 0.81412
 C1116 C 1.11377 0.68013 0.82081
 C1117 C 1.04614 0.71909 0.78148
 C1118 C 1.03471 0.72607 0.77436
 H1119 H 1.03016 0.69606 0.79729
 H1120 H 1.02580 0.67171 0.81552
 H1121 H 1.04980 0.65782 0.82953
 H1122 H 1.07830 0.66819 0.82541
 H1123 H 1.11782 0.71000 0.79853
 H1124 H 1.12216 0.73438 0.78036
 H1125 H 1.09816 0.74830 0.76639
 H1126 H 1.06969 0.73786 0.77040
 C1127 C 1.06186 0.21127 0.28959
 C1128 C 1.07829 0.21762 0.28691
 C1129 C 1.09224 0.20973 0.29485
 C1130 C 1.08969 0.19553 0.30541
 C1131 C 1.07326 0.18919 0.30811
 C1132 C 1.05930 0.19709 0.30018
 C1133 C 1.04300 0.19053 0.30306
 C1134 C 1.04055 0.17657 0.31348
 C1135 C 1.05420 0.16885 0.32124
 C1136 C 1.07040 0.17503 0.31863
 C1137 C 1.10854 0.21631 0.29197
 C1138 C 1.11099 0.23029 0.28158
 C1139 C 1.09734 0.23802 0.27383
 C1140 C 1.08116 0.23180 0.27640
 C1141 C 1.10397 0.18746 0.31346
 C1142 C 1.11594 0.18084 0.32006
 C1143 C 1.04765 0.21931 0.28139
 C1144 C 1.03608 0.22621 0.27440
 H1145 H 1.03199 0.19612 0.29730
 H1146 H 1.02800 0.17172 0.31555
 H1147 H 1.05224 0.15800 0.32932
 H1148 H 1.08061 0.16860 0.32494
 H1149 H 1.11956 0.21074 0.29772
 H1150 H 1.12354 0.23516 0.27953
 H1151 H 1.09930 0.24890 0.26580
 H1152 H 1.07095 0.23825 0.27009
 C1153 C 0.56079 0.28935 0.70988
 C1154 C 0.57724 0.28296 0.71239
 C1155 C 0.59112 0.29085 0.70435
 C1156 C 0.58848 0.30507 0.69383
 C1157 C 0.57203 0.31142 0.69127
 C1158 C 0.55814 0.30353 0.69932
 C1159 C 0.54181 0.31010 0.69658
 C1160 C 0.53927 0.32407 0.68619
 C1161 C 0.55285 0.33179 0.67832
 C1162 C 0.56907 0.32559 0.68079
 C1163 C 0.60745 0.28424 0.70706
 C1164 C 0.60998 0.27023 0.71741
 C1165 C 0.59640 0.26251 0.72526
 C1166 C 0.58020 0.26875 0.72285
 C1167 C 0.60270 0.31316 0.68569
 C1168 C 0.61462 0.31978 0.67905
 C1169 C 0.54665 0.28133 0.71822
 C1170 C 0.53516 0.27445 0.72533
 H1171 H 0.53085 0.30452 0.70242
 H1172 H 0.52669 0.32893 0.68422
 H1173 H 0.55081 0.34264 0.67026
 H1174 H 0.57923 0.33202 0.67440
 H1175 H 0.61842 0.28980 0.70122
 H1176 H 0.62255 0.26533 0.71933
 H1177 H 0.59843 0.25160 0.73325
 H1178 H 0.57005 0.26231 0.72925
 C1179 C 0.56119 0.78945 0.21023
 C1180 C 0.55858 0.80366 0.19970
 C1181 C 0.57250 0.81153 0.19168
 C1182 C 0.58894 0.80514 0.19424
 C1183 C 0.59154 0.79089 0.20473
 C1184 C 0.57762 0.78302 0.21275
 C1185 C 0.58054 0.76878 0.22317
 C1186 C 0.59673 0.76249 0.22559
 C1187 C 0.61033 0.77020 0.21776
 C1188 C 0.60784 0.78424 0.20745
 C1189 C 0.56958 0.82573 0.18122
 C1190 C 0.55338 0.83197 0.17874
 C1191 C 0.53977 0.82426 0.18657
 C1192 C 0.54227 0.81027 0.19695
 C1193 C 0.60319 0.81322 0.18614
 C1194 C 0.61513 0.81983 0.17952
 C1195 C 0.54703 0.78144 0.21854
 C1196 C 0.53552 0.77456 0.22563
 H1197 H 0.57037 0.76234 0.22954
 H1198 H 0.59872 0.75156 0.23355
 H1199 H 0.62289 0.76527 0.21968
 H1200 H 0.61883 0.78979 0.20163
 H1201 H 0.57977 0.83215 0.17486
 H1202 H 0.55137 0.84284 0.17070
 H1203 H 0.52721 0.82915 0.18460
 H1204 H 0.53129 0.80470 0.20276
 C1205 C 1.06157 0.28868 0.21074
 C1206 C 1.05899 0.30306 0.20043
 C1207 C 1.07291 0.31098 0.19246
 C1208 C 1.08933 0.30447 0.19485
 C1209 C 1.09190 0.29005 0.20513
 C1210 C 1.07798 0.28213 0.21309
 C1211 C 1.08087 0.26773 0.22330
 C1212 C 1.09704 0.26133 0.22556
 C1213 C 1.11065 0.26908 0.21778
 C1214 C 1.10819 0.28328 0.20768
 C1215 C 1.07002 0.32536 0.18223
 C1216 C 1.05384 0.33171 0.17992
 C1217 C 1.04023 0.32396 0.18770
 C1218 C 1.04270 0.30979 0.19785
 C1219 C 1.10357 0.31258 0.18679
 C1220 C 1.11551 0.31922 0.18017
 C1221 C 1.04741 0.28063 0.21901
 C1222 C 1.03590 0.27374 0.22608
 H1223 H 1.07070 0.26125 0.22963
 H1224 H 1.09902 0.25028 0.23336
 H1225 H 1.12319 0.26406 0.21958
 H1226 H 1.11917 0.28886 0.20189
 H1227 H 1.08021 0.33182 0.17592
 H1228 H 1.05185 0.34272 0.17205
 H1229 H 1.02768 0.32895 0.18586
 H1230 H 1.03172 0.30419 0.20363
 C1231 C 1.06178 0.78837 0.71161
 C1232 C 1.07801 0.78137 0.71396
 C1233 C 1.09218 0.78904 0.70620
 C1234 C 1.09003 0.80367 0.69612
 C1235 C 1.07381 0.81067 0.69376
 C1236 C 1.05964 0.80299 0.70153
 C1237 C 1.04355 0.81020 0.69899
 C1238 C 1.04150 0.82460 0.68906
 C1239 C 1.05535 0.83211 0.68147
 C1240 C 1.07135 0.82528 0.68375
 C1241 C 1.10827 0.78182 0.70874
 C1242 C 1.11031 0.76741 0.71865
 C1243 C 1.09646 0.75989 0.72623
 C1244 C 1.08048 0.76675 0.72397
 C1245 C 1.10452 0.81150 0.68821
 C1246 C 1.11663 0.81793 0.68170
 C1247 C 1.04736 0.78052 0.71961
 C1248 C 1.03563 0.77376 0.72644
 H1249 H 1.03239 0.80480 0.70463
 H1250 H 1.02910 0.82995 0.68725
 H1251 H 1.05370 0.84329 0.67378
 H1252 H 1.08174 0.83157 0.67760
 H1253 H 1.11943 0.78720 0.70310
 H1254 H 1.12271 0.76204 0.72045
 H1255 H 1.09811 0.74868 0.73388
 H1256 H 1.07010 0.76044 0.73015
 C1257 C 0.43893 0.71078 0.71078
 C1258 C 0.42239 0.71346 0.71680
 C1259 C 0.40858 0.70542 0.70879
 C1260 C 0.41139 0.69473 0.69481
 C1261 C 0.42793 0.69204 0.68880
 C1262 C 0.44174 0.70008 0.69682
 C1263 C 0.45816 0.69719 0.69061
 C1264 C 0.46086 0.68665 0.67686
 C1265 C 0.44736 0.67879 0.66901
 C1266 C 0.43105 0.68141 0.67486
 C1267 C 0.39217 0.70830 0.71504
 C1268 C 0.38947 0.71879 0.72882
 C1269 C 0.40297 0.72664 0.73667
 C1270 C 0.41926 0.72407 0.73078
 C1271 C 0.39726 0.68654 0.68663
 C1272 C 0.38540 0.67984 0.67996
 C1273 C 0.45299 0.71907 0.71898
 C1274 C 0.46443 0.72611 0.72600
 H1275 H 0.46906 0.70302 0.69630
 H1276 H 0.47350 0.68457 0.67227
 H1277 H 0.44952 0.67062 0.65833
 H1278 H 0.42096 0.67502 0.66835
 H1279 H 0.38126 0.70247 0.70937
 H1280 H 0.37684 0.72084 0.73344
 H1281 H 0.40082 0.73475 0.74739
 H1282 H 0.42934 0.73047 0.73731
 C1283 C 0.43994 0.20759 0.20856
 C1284 C 0.43324 0.21445 0.19357
 C1285 C 0.41961 0.20622 0.18543
 C1286 C 0.41276 0.19119 0.19231
 C1287 C 0.41964 0.18417 0.20714
 C1288 C 0.43327 0.19239 0.21528
 C1289 C 0.43989 0.18517 0.23013
 C1290 C 0.43325 0.17026 0.23673
 C1291 C 0.41992 0.16222 0.22877
 C1292 C 0.41314 0.16904 0.21414
 C1293 C 0.41307 0.21337 0.17051
 C1294 C 0.41981 0.22820 0.16382
 C1295 C 0.43314 0.23624 0.17178
 C1296 C 0.43982 0.22950 0.18650
 C1297 C 0.39841 0.18318 0.18436
 C1298 C 0.38634 0.17668 0.17787
 C1299 C 0.45340 0.21636 0.21725
 C1300 C 0.46440 0.22378 0.22460
 H1301 H 0.45027 0.19095 0.23677
 H1302 H 0.43847 0.16491 0.24809
 H1303 H 0.41480 0.15064 0.23395
 H1304 H 0.40279 0.16232 0.20839
 H1305 H 0.40272 0.20757 0.16385
 H1306 H 0.41467 0.23348 0.15240
 H1307 H 0.43833 0.24776 0.16654
 H1308 H 0.45019 0.23621 0.19222
 C1309 C -0.06081 0.71113 0.21143
 C1310 C -0.05853 0.70078 0.19713
 C1311 C -0.07264 0.69296 0.18941
 C1312 C -0.08895 0.69554 0.19606
 C1313 C -0.09123 0.70587 0.21040
 C1314 C -0.07712 0.71368 0.21811
 C1315 C -0.07972 0.72394 0.23244
 C1316 C -0.09578 0.72639 0.23897
 C1317 C -0.10957 0.71876 0.23142
 C1318 C -0.10740 0.70861 0.21729
 C1319 C -0.07004 0.68268 0.17512
 C1320 C -0.05396 0.68018 0.16863
 C1321 C -0.04017 0.68782 0.17618
 C1322 C -0.04235 0.69802 0.19027
 C1323 C -0.10338 0.68761 0.18817
 C1324 C -0.11546 0.68109 0.18172
 C1325 C -0.04646 0.71923 0.21930
 C1326 C -0.03481 0.72616 0.22610
 H1327 H -0.06940 0.73016 0.23876
 H1328 H -0.09753 0.73422 0.24997
 H1329 H -0.12203 0.72070 0.23654
 H1330 H -0.11852 0.70294 0.21187
 H1331 H -0.08038 0.67647 0.16881
 H1332 H -0.05220 0.67227 0.15769
 H1333 H -0.02771 0.68583 0.17109
 H1334 H -0.03124 0.70369 0.19571
 C1335 C -0.06181 0.21168 0.71055
 C1336 C -0.07821 0.21413 0.71705
 C1337 C -0.09220 0.20636 0.70910
 C1338 C -0.08972 0.19616 0.69470
 C1339 C -0.07333 0.19370 0.68821
 C1340 C -0.05933 0.20148 0.69616
 C1341 C -0.04307 0.19883 0.68946
 C1342 C -0.04070 0.18878 0.67530
 C1343 C -0.05438 0.18119 0.66752
 C1344 C -0.07054 0.18357 0.67384
 C1345 C -0.10846 0.20900 0.71583
 C1346 C -0.11083 0.21901 0.73001
 C1347 C -0.09715 0.22660 0.73780
 C1348 C -0.08100 0.22425 0.73144
 C1349 C -0.10404 0.18821 0.68662
 C1350 C -0.11603 0.18168 0.68004
 C1351 C -0.04757 0.21969 0.71868
 C1352 C -0.03599 0.22652 0.72568
 H1353 H -0.03204 0.20448 0.69508
 H1354 H -0.02817 0.18689 0.67034
 H1355 H -0.05247 0.17339 0.65651
 H1356 H -0.08079 0.17740 0.66736
 H1357 H -0.11950 0.20336 0.71022
 H1358 H -0.12335 0.22088 0.73500
 H1359 H -0.09905 0.23433 0.74884
 H1360 H -0.07077 0.23044 0.73794
 C1361 C 0.29031 0.44052 0.28937
 C1362 C 0.28689 0.43714 0.30647
 C1363 C 0.29504 0.42340 0.31467
 C1364 C 0.30656 0.41313 0.30573
 C1365 C 0.31015 0.41665 0.28870
 C1366 C 0.30200 0.43038 0.28049
 C1367 C 0.30573 0.43360 0.26344
 C1368 C 0.31720 0.42355 0.25474
 C1369 C 0.32517 0.41013 0.26276
 C1370 C 0.32174 0.40666 0.27954
 C1371 C 0.29137 0.42023 0.33175
 C1372 C 0.27999 0.43034 0.34048
 C1373 C 0.27203 0.44378 0.33246
 C1374 C 0.27539 0.44720 0.31566
 C1375 C 0.31448 0.39876 0.31392
 C1376 C 0.32098 0.38667 0.32054
 C1377 C 0.28157 0.45418 0.28082
 C1378 C 0.27423 0.46536 0.27354
 H1379 H 0.29987 0.44391 0.25665
 H1380 H 0.31991 0.42620 0.24170
 H1381 H 0.33408 0.40236 0.25595
 H1382 H 0.32827 0.39609 0.28524
 H1383 H 0.29726 0.40992 0.33853
 H1384 H 0.27733 0.42774 0.35354
 H1385 H 0.26320 0.45161 0.33930
 H1386 H 0.26890 0.45780 0.30997
 C1387 C 0.28900 -0.06111 0.78866
 C1388 C 0.28290 -0.07775 0.78599
 C1389 C 0.29091 -0.09174 0.79390
 C1390 C 0.30497 -0.08902 0.80442
 C1391 C 0.31105 -0.07237 0.80712
 C1392 C 0.30304 -0.05838 0.79922
 C1393 C 0.30934 -0.04186 0.80210
 C1394 C 0.32317 -0.03924 0.81249
 C1395 C 0.33100 -0.05293 0.82022
 C1396 C 0.32507 -0.06933 0.81761
 C1397 C 0.28458 -0.10826 0.79104
 C1398 C 0.27072 -0.11087 0.78068
 C1399 C 0.26288 -0.09719 0.77296
 C1400 C 0.26885 -0.08080 0.77552
 C1401 C 0.31318 -0.10333 0.81244
 C1402 C 0.31991 -0.11531 0.81903
 C1403 C 0.28085 -0.04686 0.78048
 C1404 C 0.27390 -0.03526 0.77350
 H1405 H 0.30367 -0.03082 0.79636
 H1406 H 0.32783 -0.02653 0.81456
 H1407 H 0.34173 -0.05082 0.82829
 H1408 H 0.33158 -0.07956 0.82390
 H1409 H 0.29024 -0.11931 0.79677
 H1410 H 0.26603 -0.12359 0.77865
 H1411 H 0.25210 -0.09929 0.76496
 H1412 H 0.26233 -0.07058 0.76923
 C1413 C 0.79080 0.43919 0.79007
 C1414 C 0.78740 0.43569 0.80714
 C1415 C 0.79550 0.42185 0.81523
 C1416 C 0.80696 0.41161 0.80619
 C1417 C 0.81056 0.41526 0.78919
 C1418 C 0.80246 0.42909 0.78110
 C1419 C 0.80621 0.43245 0.76407
 C1420 C 0.81764 0.42244 0.75529
 C1421 C 0.82557 0.40892 0.76320
 C1422 C 0.82212 0.40531 0.77995
 C1423 C 0.79184 0.41855 0.83228
 C1424 C 0.78051 0.42865 0.84111
 C1425 C 0.77259 0.44219 0.83321
 C1426 C 0.77594 0.44572 0.81642
 C1427 C 0.81480 0.39712 0.81425
 C1428 C 0.82123 0.38495 0.82079
 C1429 C 0.78207 0.45293 0.78162
 C1430 C 0.77473 0.46416 0.77444
 H1431 H 0.80038 0.44284 0.75738
 H1432 H 0.82037 0.42519 0.74228
 H1433 H 0.83445 0.40119 0.75632
 H1434 H 0.82862 0.39467 0.78555
 H1435 H 0.79769 0.40818 0.83897
 H1436 H 0.77786 0.42596 0.85415
 H1437 H 0.76381 0.44999 0.84012
 H1438 H 0.76949 0.45640 0.81083
 C1439 C 0.79010 -0.06147 0.29031
 C1440 C 0.78165 -0.07035 0.30324
 C1441 C 0.78965 -0.08425 0.31131
 C1442 C 0.80604 -0.08919 0.30642
 C1443 C 0.81459 -0.08015 0.29367
 C1444 C 0.80660 -0.06625 0.28559
 C1445 C 0.81537 -0.05744 0.27285
 C1446 C 0.83158 -0.06223 0.26822
 C1447 C 0.83940 -0.07582 0.27611
 C1448 C 0.83106 -0.08474 0.28869
 C1449 C 0.78093 -0.09298 0.32416
 C1450 C 0.76477 -0.08810 0.32889
 C1451 C 0.75695 -0.07452 0.32099
 C1452 C 0.76523 -0.06570 0.30830
 C1453 C 0.81397 -0.10375 0.31427
 C1454 C 0.82044 -0.11596 0.32069
 C1455 C 0.78169 -0.04766 0.28165
 C1456 C 0.77457 -0.03636 0.27435
 H1457 H 0.80982 -0.04677 0.26635
 H1458 H 0.83812 -0.05535 0.25845
 H1459 H 0.85199 -0.07949 0.27247
 H1460 H 0.83766 -0.09521 0.29447
 H1461 H 0.78650 -0.10362 0.33069
 H1462 H 0.75829 -0.09491 0.33874
 H1463 H 0.74440 -0.07078 0.32471
 H1464 H 0.75863 -0.05521 0.30254
 C1465 C 0.28826 0.56096 0.71125
 C1466 C 0.30182 0.55771 0.70021
 C1467 C 0.31006 0.57140 0.69204
 C1468 C 0.30468 0.58826 0.69495
 C1469 C 0.29109 0.59151 0.70595
 C1470 C 0.28285 0.57782 0.71413
 C1471 C 0.26930 0.58139 0.72508
 C1472 C 0.26403 0.59800 0.72787
 C1473 C 0.27207 0.61138 0.71988
 C1474 C 0.28546 0.60825 0.70903
 C1475 C 0.32360 0.56784 0.68107
 C1476 C 0.32884 0.55123 0.67825
 C1477 C 0.32078 0.53784 0.68624
 C1478 C 0.30742 0.54097 0.69711
 C1479 C 0.31311 0.60229 0.68668
 C1480 C 0.31993 0.61413 0.67996
 C1481 C 0.27988 0.54702 0.71971
 C1482 C 0.27276 0.53566 0.72689
 H1483 H 0.26263 0.57141 0.73159
 H1484 H 0.25364 0.60049 0.73628
 H1485 H 0.26793 0.62426 0.72208
 H1486 H 0.29131 0.61909 0.70312
 H1487 H 0.33025 0.57784 0.67457
 H1488 H 0.33921 0.54873 0.66982
 H1489 H 0.32490 0.52495 0.68400
 H1490 H 0.30154 0.53014 0.70303
 C1491 C 0.28921 1.05993 0.20928
 C1492 C 0.27971 1.07348 0.20247
 C1493 C 0.28801 1.08707 0.19421
 C1494 C 0.30576 1.08705 0.19281
 C1495 C 0.31523 1.07341 0.19943
 C1496 C 0.30693 1.05980 0.20768
 C1497 C 0.31667 1.04632 0.21423
 C1498 C 0.33412 1.04627 0.21268
 C1499 C 0.34224 1.05958 0.20462
 C1500 C 0.33297 1.07303 0.19806
 C1501 C 0.27825 1.10050 0.18755
 C1502 C 0.26080 1.10049 0.18901
 C1503 C 0.25269 1.08721 0.19710
 C1504 C 0.26197 1.07383 0.20378
 C1505 C 0.31423 1.10118 0.18477
 C1506 C 0.32108 1.11308 0.17819
 C1507 C 0.28073 1.04632 0.21816
 C1508 C 0.27355 1.03520 0.22566
 H1509 H 0.31093 1.03568 0.22059
 H1510 H 0.34138 1.03586 0.21775
 H1511 H 0.35579 1.05949 0.20345
 H1512 H 0.33984 1.08309 0.19189
 H1513 H 0.28398 1.11111 0.18113
 H1514 H 0.25354 1.11086 0.18384
 H1515 H 0.23913 1.08726 0.19820
 H1516 H 0.25508 1.06377 0.20994
 C1517 C 0.78887 0.56166 0.21178
 C1518 C 0.80121 0.55903 0.19926
 C1519 C 0.80911 0.57315 0.19149
 C1520 C 0.80463 0.58983 0.19630
 C1521 C 0.79231 0.59247 0.20885
 C1522 C 0.78441 0.57835 0.21662
 C1523 C 0.77215 0.58131 0.22915
 C1524 C 0.76782 0.59774 0.23387
 C1525 C 0.77553 0.61155 0.22626
 C1526 C 0.78764 0.60902 0.21388
 C1527 C 0.82141 0.57020 0.17901
 C1528 C 0.82578 0.55376 0.17433
 C1529 C 0.81805 0.53995 0.18192
 C1530 C 0.80589 0.54248 0.19425
 C1531 C 0.81265 0.60428 0.18834
 C1532 C 0.81922 0.61636 0.18180
 C1533 C 0.78073 0.54727 0.21971
 C1534 C 0.77376 0.53556 0.22648
 H1535 H 0.76579 0.57099 0.23544
 H1536 H 0.75845 0.59977 0.24350
 H1537 H 0.77212 0.62430 0.22996
 H1538 H 0.79328 0.62017 0.20834
 H1539 H 0.82777 0.58054 0.17274
 H1540 H 0.83521 0.55173 0.16476
 H1541 H 0.82149 0.52720 0.17825
 H1542 H 0.80024 0.53134 0.19980
 C1543 C 0.78770 1.06206 0.71108
 C1544 C 0.78153 1.07868 0.71375
 C1545 C 0.78942 1.09268 0.70576
 C1546 C 0.80343 1.08997 0.69513
 C1547 C 0.80957 1.07334 0.69242
 C1548 C 0.80167 1.05934 0.70041
 C1549 C 0.80802 1.04283 0.69752
 C1550 C 0.82178 1.04023 0.68701
 C1551 C 0.82950 1.05392 0.67920
 C1552 C 0.82352 1.07031 0.68183
 C1553 C 0.78304 1.10918 0.70863
 C1554 C 0.76924 1.11178 0.71908
 C1555 C 0.76151 1.09809 0.72688
 C1556 C 0.76754 1.08171 0.72431
 C1557 C 0.81153 1.10430 0.68705
 C1558 C 0.81817 1.11630 0.68043
 C1559 C 0.77968 1.04781 0.71937
 C1560 C 0.77283 1.03621 0.72645
 H1561 H 0.80243 1.03179 0.70331
 H1562 H 0.82647 1.02752 0.68493
 H1563 H 0.84019 1.05183 0.67105
 H1564 H 0.82994 1.08055 0.67547
 H1565 H 0.78861 1.12024 0.70284
 H1566 H 0.76451 1.12448 0.72112
 H1567 H 0.75077 1.10017 0.73495
 H1568 H 0.76110 1.07148 0.73067
 C1569 C 0.71096 0.56132 0.28887
 C1570 C 0.71135 0.57745 0.28108
 C1571 C 0.70354 0.59155 0.28898
 C1572 C 0.69539 0.58944 0.30462
 C1573 C 0.69498 0.57331 0.31240
 C1574 C 0.70278 0.55920 0.30449
 C1575 C 0.70222 0.54320 0.31250
 C1576 C 0.69417 0.54119 0.32789
 C1577 C 0.68655 0.55498 0.33563
 C1578 C 0.68691 0.57088 0.32803
 C1579 C 0.70411 0.60756 0.28095
 C1580 C 0.71214 0.60957 0.26555
 C1581 C 0.71976 0.59578 0.25782
 C1582 C 0.71943 0.57988 0.26544
 C1583 C 0.68748 0.60389 0.31271
 C1584 C 0.68098 0.61597 0.31932
 C1585 C 0.71907 0.54698 0.28081
 C1586 C 0.72599 0.53533 0.27389
 H1587 H 0.70797 0.53209 0.30697
 H1588 H 0.69386 0.52886 0.33385
 H1589 H 0.68032 0.55335 0.34758
 H1590 H 0.68081 0.58123 0.33453
 H1591 H 0.69835 0.61867 0.28646
 H1592 H 0.71244 0.62189 0.25959
 H1593 H 0.72596 0.59740 0.24585
 H1594 H 0.72555 0.56956 0.25893
 C1595 C 0.71059 1.06215 0.78978
 C1596 C 0.71715 1.07868 0.78746
 C1597 C 0.70927 1.09275 0.79534
 C1598 C 0.69489 1.09022 0.80550
 C1599 C 0.68836 1.07369 0.80784
 C1600 C 0.69624 1.05962 0.79996
 C1601 C 0.68948 1.04322 0.80248
 C1602 C 0.67534 1.04079 0.81250
 C1603 C 0.66763 1.05456 0.82021
 C1604 C 0.67401 1.07085 0.81795
 C1605 C 0.71605 1.10915 0.79283
 C1606 C 0.73021 1.11157 0.78283
 C1607 C 0.73792 1.09781 0.77513
 C1608 C 0.73151 1.08153 0.77736
 C1609 C 0.68683 1.10463 0.81349
 C1610 C 0.68023 1.11670 0.82002
 C1611 C 0.71862 1.04783 0.78161
 C1612 C 0.72551 1.03619 0.77464
 H1613 H 0.69504 1.03212 0.79675
 H1614 H 0.67034 1.02817 0.81430
 H1615 H 0.65665 1.05260 0.82799
 H1616 H 0.66759 1.08115 0.82421
 H1617 H 0.71051 1.12025 0.79856
 H1618 H 0.73524 1.12420 0.78106
 H1619 H 0.74894 1.09976 0.76741
 H1620 H 0.73795 1.07125 0.77109
 C1621 C 0.20894 0.56027 0.79153
 C1622 C 0.21687 0.56854 0.80514
 C1623 C 0.20872 0.58232 0.81325
 C1624 C 0.19270 0.58776 0.80770
 C1625 C 0.18466 0.57933 0.79425
 C1626 C 0.19280 0.56555 0.78614
 C1627 C 0.18454 0.55737 0.77268
 C1628 C 0.16869 0.56265 0.76739
 C1629 C 0.16073 0.57613 0.77532
 C1630 C 0.16857 0.58443 0.78860
 C1631 C 0.21693 0.59043 0.82679
 C1632 C 0.23273 0.58507 0.83216
 C1633 C 0.24070 0.57160 0.82423
 C1634 C 0.23292 0.56338 0.81087
 C1635 C 0.18466 0.60222 0.81560
 C1636 C 0.17811 0.61436 0.82205
 C1637 C 0.21752 0.54660 0.78285
 C1638 C 0.22476 0.53541 0.77551
 H1639 H 0.19022 0.54681 0.76613
 H1640 H 0.16255 0.55625 0.75708
 H1641 H 0.14842 0.58019 0.77116
 H1642 H 0.16187 0.59484 0.79438
 H1643 H 0.21123 0.60096 0.83337
 H1644 H 0.23882 0.59141 0.84254
 H1645 H 0.25297 0.56748 0.82845
 H1646 H 0.23961 0.55295 0.80511
 C1647 C 0.21016 1.06124 0.29048
 C1648 C 0.21754 1.06869 0.30484
 C1649 C 0.20950 1.08258 0.31288
 C1650 C 0.19413 1.08893 0.30651
 C1651 C 0.18662 1.08132 0.29230
 C1652 C 0.19466 1.06743 0.28426
 C1653 C 0.18694 1.06008 0.27004
 C1654 C 0.17171 1.06626 0.26393
 C1655 C 0.16385 1.07984 0.27179
 C1656 C 0.17116 1.08734 0.28582
 C1657 C 0.21716 1.08987 0.32717
 C1658 C 0.23232 1.08361 0.33335
 C1659 C 0.24018 1.07003 0.32549
 C1660 C 0.23294 1.06261 0.31139
 C1661 C 0.18620 1.10348 0.31438
 C1662 C 0.17973 1.11568 0.32079
 C1663 C 0.21865 1.04743 0.28193
 C1664 C 0.22580 1.03610 0.27470
 H1665 H 0.19256 1.04948 0.26350
 H1666 H 0.16598 1.06048 0.25304
 H1667 H 0.15202 1.08460 0.26701
 H1668 H 0.16456 1.09787 0.29151
 H1669 H 0.21151 1.10045 0.33373
 H1670 H 0.23799 1.08933 0.34430
 H1671 H 0.25196 1.06522 0.33034
 H1672 H 0.23953 1.05207 0.30572
 C1673 C 0.71090 0.43936 0.70957
 C1674 C 0.69409 0.43520 0.71372
 C1675 C 0.68596 0.42149 0.70551
 C1676 C 0.69467 0.41203 0.69318
 C1677 C 0.71140 0.41633 0.68886
 C1678 C 0.71953 0.43004 0.69708
 C1679 C 0.73628 0.43406 0.69260
 C1680 C 0.74474 0.42481 0.68034
 C1681 C 0.73679 0.41142 0.67230
 C1682 C 0.72031 0.40717 0.67646
 C1683 C 0.66918 0.41753 0.70992
 C1684 C 0.66067 0.42685 0.72209
 C1685 C 0.66862 0.44026 0.73012
 C1686 C 0.68514 0.44444 0.72604
 C1687 C 0.68657 0.39767 0.68518
 C1688 C 0.67995 0.38562 0.67866
 C1689 C 0.71941 0.45299 0.71836
 C1690 C 0.72658 0.46416 0.72576
 H1691 H 0.74300 0.44438 0.69849
 H1692 H 0.75755 0.42806 0.67707
 H1693 H 0.74341 0.40427 0.66279
 H1694 H 0.71465 0.39665 0.66985
 H1695 H 0.66246 0.40721 0.70401
 H1696 H 0.64784 0.42365 0.72530
 H1697 H 0.66196 0.44747 0.73956
 H1698 H 0.69078 0.45499 0.73262
 C1699 C 0.71045 -0.06050 0.20970
 C1700 C 0.71803 -0.06836 0.19564
 C1701 C 0.70984 -0.08210 0.18754
 C1702 C 0.69411 -0.08790 0.19353
 C1703 C 0.68640 -0.07987 0.20742
 C1704 C 0.69459 -0.06613 0.21552
 C1705 C 0.68667 -0.05835 0.22942
 C1706 C 0.67109 -0.06398 0.23514
 C1707 C 0.66308 -0.07741 0.22722
 C1708 C 0.67059 -0.08532 0.21351
 C1709 C 0.71770 -0.08980 0.17356
 C1710 C 0.73321 -0.08408 0.16775
 C1711 C 0.74122 -0.07064 0.17567
 C1712 C 0.73378 -0.06283 0.18946
 C1713 C 0.68604 -0.10234 0.18564
 C1714 C 0.67946 -0.11446 0.17920
 C1715 C 0.71913 -0.04690 0.21838
 C1716 C 0.72646 -0.03578 0.22571
 H1717 H 0.69239 -0.04784 0.23598
 H1718 H 0.66520 -0.05787 0.24578
 H1719 H 0.65098 -0.08174 0.23171
 H1720 H 0.66386 -0.09572 0.20776
 H1721 H 0.71195 -0.10028 0.16696
 H1722 H 0.73904 -0.09010 0.15703
 H1723 H 0.75327 -0.06624 0.17110
 H1724 H 0.74050 -0.05241 0.19520
 C1725 C 0.21017 0.43976 0.20950
 C1726 C 0.21862 0.43058 0.19680
 C1727 C 0.21052 0.41669 0.18884
 C1728 C 0.19402 0.41206 0.19364
 C1729 C 0.18547 0.42140 0.20618
 C1730 C 0.19357 0.43529 0.21413
 C1731 C 0.18479 0.44439 0.22667
 C1732 C 0.16848 0.43989 0.23122
 C1733 C 0.16056 0.42631 0.22345
 C1734 C 0.16890 0.41712 0.21106
 C1735 C 0.21926 0.40766 0.17622
 C1736 C 0.23553 0.41222 0.17159
 C1737 C 0.24345 0.42580 0.17937
 C1738 C 0.23516 0.43491 0.19184
 C1739 C 0.18598 0.39752 0.18591
 C1740 C 0.17945 0.38532 0.17957
 C1741 C 0.21867 0.45357 0.21803
 C1742 C 0.22587 0.46487 0.22522
 H1743 H 0.19041 0.45506 0.23307
 H1744 H 0.16194 0.44699 0.24083
 H1745 H 0.14789 0.42287 0.22703
 H1746 H 0.16222 0.40666 0.20537
 H1747 H 0.21362 0.39702 0.16979
 H1748 H 0.24202 0.40518 0.16190
 H1749 H 0.25609 0.42929 0.17573
 H1750 H 0.24184 0.44538 0.19751
 C1751 C 0.21167 -0.06188 0.71105
 C1752 C 0.21861 -0.07828 0.71320
 C1753 C 0.21081 -0.09250 0.70552
 C1754 C 0.19612 -0.09024 0.69575
 C1755 C 0.18921 -0.07383 0.69357
 C1756 C 0.19701 -0.05961 0.70125
 C1757 C 0.18987 -0.04334 0.69891
 C1758 C 0.17543 -0.04118 0.68926
 C1759 C 0.16780 -0.05508 0.68176
 C1760 C 0.17456 -0.07125 0.68385
 C1761 C 0.21797 -0.10876 0.70785
 C1762 C 0.23243 -0.11092 0.71748
 C1763 C 0.24006 -0.09702 0.72497
 C1764 C 0.23328 -0.08086 0.72292
 C1765 C 0.18813 -0.10479 0.68798
 C1766 C 0.18156 -0.11695 0.68160
 C1767 C 0.21961 -0.04741 0.71903
 C1768 C 0.22641 -0.03564 0.72586
 H1769 H 0.19536 -0.03214 0.70449
 H1770 H 0.17013 -0.02865 0.68760
 H1771 H 0.15658 -0.05334 0.67428
 H1772 H 0.16817 -0.08167 0.67776
 H1773 H 0.21250 -0.11997 0.70227
 H1774 H 0.23775 -0.12345 0.71912
 H1775 H 0.25132 -0.09875 0.73240
 H1776 H 0.23968 -0.07045 0.72901
 C1777 C 0.28991 0.28970 0.43902
 C1778 C 0.28784 0.28305 0.42267
 C1779 C 0.29588 0.29101 0.40884
 C1780 C 0.30595 0.30557 0.41144
 C1781 C 0.30806 0.31219 0.42780
 C1782 C 0.30001 0.30423 0.44163
 C1783 C 0.30230 0.31107 0.45786
 C1784 C 0.31224 0.32538 0.46036
 C1785 C 0.32010 0.33317 0.44684
 C1786 C 0.31808 0.32670 0.43071
 C1787 C 0.29361 0.28414 0.39261
 C1788 C 0.28370 0.26980 0.39012
 C1789 C 0.27585 0.26201 0.40364
 C1790 C 0.27783 0.26851 0.41975
 C1791 C 0.31407 0.31374 0.39727
 C1792 C 0.32070 0.32042 0.38540
 C1793 C 0.28156 0.28161 0.45309
 C1794 C 0.27444 0.27469 0.46454
 H1795 H 0.29644 0.30545 0.46877
 H1796 H 0.31385 0.33045 0.47286
 H1797 H 0.32781 0.34428 0.44884
 H1798 H 0.32445 0.33320 0.42059
 H1799 H 0.29947 0.28974 0.38169
 H1800 H 0.28211 0.26471 0.37762
 H1801 H 0.26819 0.25086 0.40164
 H1802 H 0.27146 0.26200 0.42985
 C1803 C 0.29130 0.79068 -0.06055
 C1804 C 0.28690 0.80748 -0.06502
 C1805 C 0.29489 0.81545 -0.07888
 C1806 C 0.30724 0.80657 -0.08817
 C1807 C 0.31186 0.78988 -0.08352
 C1808 C 0.30386 0.78191 -0.06967
 C1809 C 0.30863 0.76518 -0.06530
 C1810 C 0.32095 0.75659 -0.07436
 C1811 C 0.32876 0.76438 -0.08790
 C1812 C 0.32432 0.78083 -0.09249
 C1813 C 0.29022 0.83221 -0.08317
 C1814 C 0.27801 0.84087 -0.07402
 C1815 C 0.27020 0.83308 -0.06046
 C1816 C 0.27454 0.81658 -0.05596
 C1817 C 0.31495 0.81446 -0.10271
 C1818 C 0.32123 0.82089 -0.11491
 C1819 C 0.28262 0.78225 -0.04686
 C1820 C 0.27527 0.77509 -0.03571
 H1821 H 0.30293 0.75859 -0.05486
 H1822 H 0.32445 0.74380 -0.07085
 H1823 H 0.33833 0.75765 -0.09490
 H1824 H 0.33077 0.78636 -0.10310
 H1825 H 0.29595 0.83881 -0.09360
 H1826 H 0.27460 0.85369 -0.07746
 H1827 H 0.26073 0.83986 -0.05339
 H1828 H 0.26813 0.81106 -0.04531
 C1829 C 0.78990 0.28883 -0.06091
 C1830 C 0.78782 0.28208 -0.07722
 C1831 C 0.79578 0.29002 -0.09112
 C1832 C 0.80576 0.30466 -0.08862
 C1833 C 0.80787 0.31138 -0.07230
 C1834 C 0.79992 0.30344 -0.05840
 C1835 C 0.80220 0.31038 -0.04222
 C1836 C 0.81206 0.32477 -0.03982
 C1837 C 0.81984 0.33253 -0.05341
 C1838 C 0.81781 0.32597 -0.06949
 C1839 C 0.79351 0.28304 -0.10730
 C1840 C 0.78368 0.26863 -0.10969
 C1841 C 0.77592 0.26086 -0.09611
 C1842 C 0.77790 0.26746 -0.08004
 C1843 C 0.81380 0.31279 -0.10285
 C1844 C 0.82038 0.31944 -0.11477
 C1845 C 0.78164 0.28076 -0.04678
 C1846 C 0.77459 0.27386 -0.03527
 H1847 H 0.79641 0.30478 -0.03126
 H1848 H 0.81368 0.32992 -0.02735
 H1849 H 0.82748 0.34371 -0.05148
 H1850 H 0.82411 0.33245 -0.07966
 H1851 H 0.79930 0.28862 -0.11827
 H1852 H 0.78210 0.26345 -0.12215
 H1853 H 0.76833 0.24965 -0.09803
 H1854 H 0.77159 0.26097 -0.06988
 C1855 C 0.78952 0.78839 0.43937
 C1856 C 0.78753 0.78140 0.42315
 C1857 C 0.79545 0.78921 0.40916
 C1858 C 0.80530 0.80397 0.41148
 C1859 C 0.80734 0.81091 0.42771
 C1860 C 0.79943 0.80310 0.44170
 C1861 C 0.80165 0.81027 0.45780
 C1862 C 0.81142 0.82475 0.46003
 C1863 C 0.81915 0.83240 0.44635
 C1864 C 0.81718 0.82561 0.43035
 C1865 C 0.79327 0.78199 0.39307
 C1866 C 0.78358 0.76746 0.39086
 C1867 C 0.77585 0.75981 0.40453
 C1868 C 0.77774 0.76665 0.42051
 C1869 C 0.81327 0.81200 0.39716
 C1870 C 0.81979 0.81858 0.38517
 C1871 C 0.78129 0.78046 0.45360
 C1872 C 0.77425 0.77365 0.46516
 H1873 H 0.79589 0.80477 0.46882
 H1874 H 0.81299 0.83007 0.47243
 H1875 H 0.82672 0.84365 0.44815
 H1876 H 0.82344 0.83201 0.42010
 H1877 H 0.79904 0.78747 0.38204
 H1878 H 0.78207 0.76209 0.37847
 H1879 H 0.76838 0.74849 0.40276
 H1880 H 0.77147 0.76024 0.43075
 C1881 C 0.71009 0.28911 0.55969
 C1882 C 0.71711 0.28740 0.57591
 C1883 C 0.70922 0.29535 0.58983
 C1884 C 0.69436 0.30496 0.58745
 C1885 C 0.68737 0.30668 0.57122
 C1886 C 0.69526 0.29874 0.55729
 C1887 C 0.68804 0.30064 0.54119
 C1888 C 0.67344 0.31012 0.53890
 C1889 C 0.66571 0.31788 0.55252
 C1890 C 0.67254 0.31623 0.56852
 C1891 C 0.71647 0.29346 0.60593
 C1892 C 0.73110 0.28402 0.60821
 C1893 C 0.73882 0.27626 0.59460
 C1894 C 0.73195 0.27787 0.57862
 C1895 C 0.68631 0.31303 0.60170
 C1896 C 0.67974 0.31965 0.61363
 C1897 C 0.71815 0.28090 0.54552
 C1898 C 0.72510 0.27389 0.53402
 H1899 H 0.69360 0.29484 0.53022
 H1900 H 0.66808 0.31145 0.52650
 H1901 H 0.65437 0.32524 0.55068
 H1902 H 0.66608 0.32250 0.57871
 H1903 H 0.71093 0.29926 0.61691
 H1904 H 0.73648 0.28272 0.62060
 H1905 H 0.75021 0.26898 0.59643
 H1906 H 0.73843 0.27159 0.56844
 C1907 C 0.71045 0.78840 1.06105
 C1908 C 0.71687 0.78607 1.07745
 C1909 C 0.70886 0.79403 1.09129
 C1910 C 0.69447 0.80427 1.08865
 C1911 C 0.68807 0.80662 1.07226
 C1912 C 0.69609 0.79866 1.05841
 C1913 C 0.68946 0.80120 1.04214
 C1914 C 0.67532 0.81131 1.03961
 C1915 C 0.66747 0.81908 1.05315
 C1916 C 0.67372 0.81681 1.06931
 C1917 C 0.71551 0.79151 1.10756
 C1918 C 0.72969 0.78144 1.11008
 C1919 C 0.73754 0.77368 1.09654
 C1920 C 0.73125 0.77590 1.08039
 C1921 C 0.68632 0.81240 1.10282
 C1922 C 0.67967 0.81907 1.11469
 C1923 C 0.71866 0.78021 1.04696
 C1924 C 0.72572 0.77324 1.03551
 H1925 H 0.69514 0.79541 1.03122
 H1926 H 0.67042 0.81311 1.02708
 H1927 H 0.65649 0.82692 1.05112
 H1928 H 0.66718 0.82312 1.07944
 H1929 H 0.70985 0.79729 1.11849
 H1930 H 0.73462 0.77967 1.12260
 H1931 H 0.74858 0.76592 1.09856
 H1932 H 0.73780 0.76959 1.07028
 C1933 C 0.21049 0.28784 1.06154
 C1934 C 0.21315 0.28153 1.07796
 C1935 C 0.20520 0.28950 1.09184
 C1936 C 0.19465 0.30372 1.08923
 C1937 C 0.19195 0.30999 1.07281
 C1938 C 0.19989 0.30202 1.05893
 C1939 C 0.19702 0.30852 1.04264
 C1940 C 0.18659 0.32250 1.04013
 C1941 C 0.17883 0.33029 1.05371
 C1942 C 0.18144 0.32417 1.06989
 C1943 C 0.20807 0.28297 1.10812
 C1944 C 0.21846 0.26896 1.11062
 C1945 C 0.22621 0.26117 1.09705
 C1946 C 0.22365 0.26733 1.08088
 C1947 C 0.18661 0.31188 1.10344
 C1948 C 0.18002 0.31857 1.11533
 C1949 C 0.21875 0.27977 1.04742
 C1950 C 0.22580 0.27288 1.03591
 H1951 H 0.20277 0.30288 1.03169
 H1952 H 0.18452 0.32730 1.02759
 H1953 H 0.17074 0.34115 1.05170
 H1954 H 0.17512 0.33065 1.08005
 H1955 H 0.20231 0.28859 1.11908
 H1956 H 0.22049 0.26413 1.12316
 H1957 H 0.23424 0.25027 1.09906
 H1958 H 0.22997 0.26083 1.07074
 C1959 C 0.21069 0.78711 0.56199
 C1960 C 0.21358 0.78058 0.57828
 C1961 C 0.20579 0.78832 0.59237
 C1962 C 0.19516 0.80254 0.59009
 C1963 C 0.19223 0.80903 0.57380
 C1964 C 0.20001 0.80129 0.55971
 C1965 C 0.19690 0.80800 0.54355
 C1966 C 0.18640 0.82198 0.54137
 C1967 C 0.17879 0.82955 0.55515
 C1968 C 0.18162 0.82321 0.57121
 C1969 C 0.20888 0.78157 0.60852
 C1970 C 0.21935 0.76756 0.61069
 C1971 C 0.22694 0.75998 0.59692
 C1972 C 0.22415 0.76637 0.58087
 C1973 C 0.18732 0.81051 0.60452
 C1974 C 0.18091 0.81706 0.61658
 C1975 C 0.21879 0.77926 0.54765
 C1976 C 0.22574 0.77253 0.53599
 H1977 H 0.20254 0.80254 0.53245
 H1978 H 0.18415 0.82695 0.52892
 H1979 H 0.17064 0.84040 0.55339
 H1980 H 0.17542 0.82953 0.58153
 H1981 H 0.20325 0.78702 0.61963
 H1982 H 0.22156 0.76256 0.62314
 H1983 H 0.23502 0.74908 0.59867
 H1984 H 0.23036 0.76003 0.57056
 C1985 C 0.28981 0.71031 0.56070
 C1986 C 0.30005 0.69587 0.55810
 C1987 C 0.30808 0.68792 0.57196
 C1988 C 0.30581 0.69447 0.58832
 C1989 C 0.29561 0.70896 0.59091
 C1990 C 0.28759 0.71690 0.57706
 C1991 C 0.27746 0.73137 0.57997
 C1992 C 0.27533 0.73782 0.59608
 C1993 C 0.28316 0.73004 0.60962
 C1994 C 0.29319 0.71577 0.60714
 C1995 C 0.31824 0.67348 0.56905
 C1996 C 0.32042 0.66708 0.55292
 C1997 C 0.31258 0.67486 0.53938
 C1998 C 0.30250 0.68909 0.54186
 C1999 C 0.31389 0.68631 0.60251
 C2000 C 0.32048 0.67964 0.61442
 C2001 C 0.28147 0.71838 0.54662
 C2002 C 0.27433 0.72530 0.53518
 H2003 H 0.27109 0.73788 0.56985
 H2004 H 0.26759 0.74893 0.59807
 H2005 H 0.28147 0.73509 0.62212
 H2006 H 0.29903 0.71018 0.61808
 H2007 H 0.32460 0.66700 0.57919
 H2008 H 0.32824 0.65603 0.55092
 H2009 H 0.31432 0.66984 0.52687
 H2010 H 0.29666 0.69470 0.53094
 C2011 C 0.29016 0.21017 1.06077
 C2012 C 0.30072 0.19602 1.05789
 C2013 C 0.30880 0.18788 1.07160
 C2014 C 0.30626 0.19395 1.08811
 C2015 C 0.29574 0.20815 1.09098
 C2016 C 0.28767 0.21628 1.07727
 C2017 C 0.27721 0.23046 1.08045
 C2018 C 0.27481 0.23643 1.09671
 C2019 C 0.28269 0.22846 1.11012
 C2020 C 0.29305 0.21448 1.10736
 C2021 C 0.31929 0.17375 1.06842
 C2022 C 0.32174 0.16783 1.05214
 C2023 C 0.31385 0.17579 1.03874
 C2024 C 0.30345 0.18973 1.04150
 C2025 C 0.31439 0.18558 1.10215
 C2026 C 0.32103 0.17871 1.11392
 C2027 C 0.28175 0.21841 1.04682
 C2028 C 0.27457 0.22542 1.03546
 H2029 H 0.27079 0.23708 1.07045
 H2030 H 0.26681 0.24730 1.09891
 H2031 H 0.28079 0.23314 1.12272
 H2032 H 0.29891 0.20873 1.11820
 H2033 H 0.32570 0.16714 1.07844
 H2034 H 0.32981 0.15700 1.04993
 H2035 H 0.31579 0.17114 1.02612
 H2036 H 0.29759 0.19551 1.03067
 C2037 C 0.78909 0.71098 1.06212
 C2038 C 0.80365 0.70091 1.05986
 C2039 C 0.81147 0.69314 1.07393
 C2040 C 0.80468 0.69549 1.09017
 C2041 C 0.79010 0.70554 1.09243
 C2042 C 0.78228 0.71331 1.07836
 C2043 C 0.76771 0.72330 1.08094
 C2044 C 0.76104 0.72553 1.09694
 C2045 C 0.76870 0.71794 1.11069
 C2046 C 0.78306 0.70806 1.10853
 C2047 C 0.82602 0.68314 1.07136
 C2048 C 0.83265 0.68087 1.05534
 C2049 C 0.82500 0.68846 1.04159
 C2050 C 0.81066 0.69838 1.04375
 C2051 C 0.81265 0.68758 1.10456
 C2052 C 0.81916 0.68108 1.11660
 C2053 C 0.78109 0.71899 1.04781
 C2054 C 0.77420 0.72582 1.03617
 H2055 H 0.76130 0.72948 1.07065
 H2056 H 0.74986 0.73316 1.09867
 H2057 H 0.76347 0.71972 1.12309
 H2058 H 0.78855 0.70242 1.11962
 H2059 H 0.83241 0.67697 1.08166
 H2060 H 0.84378 0.67317 1.05360
 H2061 H 0.83020 0.68665 1.02918
 H2062 H 0.80515 0.70403 1.03267
 C2063 C 0.78849 0.21161 0.56039
 C2064 C 0.80257 0.20091 0.55797
 C2065 C 0.81047 0.19314 0.57200
 C2066 C 0.80423 0.19613 0.58836
 C2067 C 0.79014 0.20684 0.59078
 C2068 C 0.78224 0.21460 0.57675
 C2069 C 0.76816 0.22523 0.57948
 C2070 C 0.76204 0.22809 0.59560
 C2071 C 0.76977 0.22052 0.60931
 C2072 C 0.78366 0.21001 0.60700
 C2073 C 0.82453 0.18249 0.56927
 C2074 C 0.83061 0.17958 0.55315
 C2075 C 0.82288 0.18717 0.53943
 C2076 C 0.80902 0.19772 0.54174
 C2077 C 0.81225 0.18819 0.60271
 C2078 C 0.81878 0.18166 0.61472
 C2079 C 0.78041 0.21960 0.54611
 C2080 C 0.77345 0.22641 0.53450
 H2081 H 0.76171 0.23142 0.56923
 H2082 H 0.75122 0.23621 0.59745
 H2083 H 0.76497 0.22279 0.62181
 H2084 H 0.78924 0.20441 0.61807
 H2085 H 0.83096 0.17631 0.57955
 H2086 H 0.84137 0.17140 0.55129
 H2087 H 0.82765 0.18486 0.52693
 H2088 H 0.80343 0.20333 0.53069
 C2089 C 0.71104 0.71131 0.43933
 C2090 C 0.70022 0.69728 0.44174
 C2091 C 0.69239 0.68949 0.42770
 C2092 C 0.69541 0.69578 0.41136
 C2093 C 0.70621 0.70984 0.40896
 C2094 C 0.71405 0.71763 0.42298
 C2095 C 0.72478 0.73168 0.42026
 C2096 C 0.72767 0.73787 0.40416
 C2097 C 0.72003 0.73024 0.39045
 C2098 C 0.70942 0.71639 0.39274
 C2099 C 0.68163 0.67547 0.43042
 C2100 C 0.67869 0.66932 0.44654
 C2101 C 0.68635 0.67695 0.46025
 C2102 C 0.69701 0.69076 0.45795
 C2103 C 0.68745 0.68783 0.39700
 C2104 C 0.68093 0.68133 0.38498
 C2105 C 0.71914 0.71926 0.45361
 C2106 C 0.72607 0.72611 0.46520
 H2107 H 0.73103 0.73805 0.43052
 H2108 H 0.73587 0.74866 0.40232
 H2109 H 0.72232 0.73509 0.37796
 H2110 H 0.70376 0.71089 0.38168
 H2111 H 0.67538 0.66912 0.42015
 H2112 H 0.67042 0.65859 0.44839
 H2113 H 0.68402 0.67213 0.47274
 H2114 H 0.70267 0.69627 0.46901
 C2115 C 0.71065 0.21191 -0.06099
 C2116 C 0.69972 0.19798 -0.05848
 C2117 C 0.69180 0.19016 -0.07244
 C2118 C 0.69486 0.19632 -0.08884
 C2119 C 0.70575 0.21029 -0.09134
 C2120 C 0.71367 0.21810 -0.07738
 C2121 C 0.72451 0.23205 -0.08020
 C2122 C 0.72742 0.23811 -0.09635
 C2123 C 0.71970 0.23045 -0.11000
 C2124 C 0.70898 0.21670 -0.10761
 C2125 C 0.68093 0.17625 -0.06962
 C2126 C 0.67797 0.17024 -0.05346
 C2127 C 0.68571 0.17788 -0.03981
 C2128 C 0.69647 0.19160 -0.04221
 C2129 C 0.68687 0.18829 -0.10314
 C2130 C 0.68035 0.18171 -0.11512
 C2131 C 0.71888 0.21983 -0.04678
 C2132 C 0.72595 0.22663 -0.03523
 H2133 H 0.73082 0.23843 -0.06999
 H2134 H 0.73570 0.24882 -0.09827
 H2135 H 0.72201 0.23521 -0.12252
 H2136 H 0.70326 0.21118 -0.11863
 H2137 H 0.67462 0.16989 -0.07985
 H2138 H 0.66962 0.15958 -0.05153
 H2139 H 0.68337 0.17317 -0.02728
 H2140 H 0.70220 0.19714 -0.03120
 C2141 C 0.21064 0.71165 -0.06129
 C2142 C 0.19831 0.69912 -0.05809
 C2143 C 0.19006 0.69096 -0.07167
 C2144 C 0.19419 0.69538 -0.08838
 C2145 C 0.20652 0.70792 -0.09158
 C2146 C 0.21476 0.71607 -0.07800
 C2147 C 0.22705 0.72855 -0.08152
 C2148 C 0.23107 0.73285 -0.09798
 C2149 C 0.22301 0.72489 -0.11126
 C2150 C 0.21086 0.71255 -0.10817
 C2151 C 0.17778 0.67848 -0.06816
 C2152 C 0.17377 0.67418 -0.05170
 C2153 C 0.18184 0.68215 -0.03842
 C2154 C 0.19397 0.69449 -0.04150
 C2155 C 0.18584 0.68704 -0.10229
 C2156 C 0.17907 0.68024 -0.11401
 C2157 C 0.21911 0.71999 -0.04746
 C2158 C 0.22631 0.72708 -0.03617
 H2159 H 0.23368 0.73511 -0.07163
 H2160 H 0.24050 0.74243 -0.10044
 H2161 H 0.22617 0.72827 -0.12402
 H2162 H 0.20494 0.70672 -0.11892
 H2163 H 0.17117 0.67193 -0.07807
 H2164 H 0.16435 0.66460 -0.04923
 H2165 H 0.17867 0.67876 -0.02565
 H2166 H 0.19991 0.70034 -0.03076
 C2167 C 0.21083 0.21208 0.43872
 C2168 C 0.19995 0.19814 0.44136
 C2169 C 0.19202 0.19019 0.42746
 C2170 C 0.19502 0.19624 0.41102
 C2171 C 0.20587 0.21022 0.40839
 C2172 C 0.21380 0.21816 0.42227
 C2173 C 0.22459 0.23211 0.41932
 C2174 C 0.22745 0.23806 0.40312
 C2175 C 0.21971 0.23028 0.38955
 C2176 C 0.20904 0.21652 0.39207
 C2177 C 0.18121 0.17627 0.43041
 C2178 C 0.17831 0.17036 0.44662
 C2179 C 0.18606 0.17813 0.46020
 C2180 C 0.19677 0.19186 0.45767
 C2181 C 0.18700 0.18810 0.39680
 C2182 C 0.18043 0.18143 0.38490
 C2183 C 0.21903 0.22018 0.45286
 C2184 C 0.22602 0.22709 0.46437
 H2185 H 0.23091 0.23859 0.42947
 H2186 H 0.23570 0.24877 0.40110
 H2187 H 0.22198 0.23495 0.37698
 H2188 H 0.20331 0.21090 0.38110
 H2189 H 0.17489 0.16981 0.42025
 H2190 H 0.17000 0.15970 0.44865
 H2191 H 0.18377 0.17349 0.47277
 H2192 H 0.20251 0.19749 0.46863
 C2193 C 0.28818 0.43955 0.71099
 C2194 C 0.30170 0.44278 0.69990
 C2195 C 0.30987 0.42907 0.69167
 C2196 C 0.30446 0.41223 0.69458
 C2197 C 0.29091 0.40901 0.70565
 C2198 C 0.28275 0.42271 0.71388
 C2199 C 0.26924 0.41917 0.72490
 C2200 C 0.26395 0.40257 0.72770
 C2201 C 0.27192 0.38918 0.71965
 C2202 C 0.28525 0.39228 0.70874
 C2203 C 0.32336 0.43261 0.68065
 C2204 C 0.32863 0.44921 0.67783
 C2205 C 0.32065 0.46261 0.68587
 C2206 C 0.30733 0.45950 0.69680
 C2207 C 0.31282 0.39818 0.68628
 C2208 C 0.31961 0.38633 0.67954
 C2209 C 0.27986 0.45350 0.71950
 C2210 C 0.27277 0.46486 0.72672
 H2211 H 0.26263 0.42915 0.73145
 H2212 H 0.25360 0.40010 0.73616
 H2213 H 0.26776 0.37631 0.72186
 H2214 H 0.29105 0.38144 0.70278
 H2215 H 0.32996 0.42260 0.67410
 H2216 H 0.33897 0.45169 0.66935
 H2217 H 0.32479 0.47548 0.68363
 H2218 H 0.30151 0.47034 0.70276
 C2219 C 0.28811 0.93889 0.21108
 C2220 C 0.28158 0.92229 0.21289
 C2221 C 0.28960 0.90845 0.20476
 C2222 C 0.30412 0.91129 0.19487
 C2223 C 0.31061 0.92789 0.19302
 C2224 C 0.30258 0.94174 0.20115
 C2225 C 0.30931 0.95821 0.19912
 C2226 C 0.32357 0.96094 0.18934
 C2227 C 0.33142 0.94741 0.18139
 C2228 C 0.32508 0.93104 0.18317
 C2229 C 0.28285 0.89198 0.20676
 C2230 C 0.26857 0.88925 0.21652
 C2231 C 0.26073 0.90278 0.22447
 C2232 C 0.26710 0.91913 0.22273
 C2233 C 0.31237 0.89710 0.18670
 C2234 C 0.31910 0.88517 0.18005
 C2235 C 0.27993 0.95298 0.21951
 C2236 C 0.27298 0.96448 0.22664
 H2237 H 0.30364 0.96914 0.20506
 H2238 H 0.32855 0.97363 0.18792
 H2239 H 0.34249 0.94959 0.17380
 H2240 H 0.33162 0.92092 0.17674
 H2241 H 0.28849 0.88104 0.20082
 H2242 H 0.26357 0.87657 0.21791
 H2243 H 0.24964 0.90060 0.23204
 H2244 H 0.26054 0.92924 0.22916
 C2245 C 0.78967 0.43974 0.20919
 C2246 C 0.80718 0.43735 0.21131
 C2247 C 0.81541 0.42364 0.20316
 C2248 C 0.80608 0.41241 0.19293
 C2249 C 0.78861 0.41495 0.19060
 C2250 C 0.78038 0.42865 0.19876
 C2251 C 0.76290 0.43088 0.19631
 C2252 C 0.75381 0.41991 0.18607
 C2253 C 0.76186 0.40652 0.17808
 C2254 C 0.77906 0.40400 0.18028
 C2255 C 0.83291 0.42147 0.20551
 C2256 C 0.84203 0.43254 0.21563
 C2257 C 0.83398 0.44594 0.22360
 C2258 C 0.81676 0.44838 0.22151
 C2259 C 0.81435 0.39805 0.18506
 C2260 C 0.82106 0.38599 0.17864
 C2261 C 0.78113 0.45338 0.21797
 C2262 C 0.77390 0.46454 0.22537
 H2263 H 0.75607 0.44112 0.20224
 H2264 H 0.74045 0.42181 0.18433
 H2265 H 0.75475 0.39803 0.17013
 H2266 H 0.78476 0.39342 0.17378
 H2267 H 0.83973 0.41123 0.19956
 H2268 H 0.85541 0.43070 0.21728
 H2269 H 0.84112 0.45450 0.23144
 H2270 H 0.81107 0.45900 0.22796
 C2271 C 0.78847 0.93932 0.71127
 C2272 C 0.78331 0.92253 0.71486
 C2273 C 0.79137 0.90865 0.70682
 C2274 C 0.80454 0.91164 0.69524
 C2275 C 0.80967 0.92844 0.69164
 C2276 C 0.80161 0.94232 0.69968
 C2277 C 0.80695 0.95900 0.69588
 C2278 C 0.81989 0.96188 0.68445
 C2279 C 0.82777 0.94831 0.67658
 C2280 C 0.82277 0.93176 0.68009
 C2281 C 0.78599 0.89197 0.71061
 C2282 C 0.77301 0.88909 0.72199
 C2283 C 0.76513 0.90266 0.72984
 C2284 C 0.77017 0.91921 0.72638
 C2285 C 0.81277 0.89744 0.68707
 C2286 C 0.81951 0.88555 0.68037
 C2287 C 0.78024 0.95346 0.71955
 C2288 C 0.77323 0.96498 0.72660
 H2289 H 0.80120 0.96996 0.70167
 H2290 H 0.82382 0.97472 0.68168
 H2291 H 0.83781 0.95062 0.66772
 H2292 H 0.82928 0.92162 0.67366
 H2293 H 0.79173 0.88100 0.70482
 H2294 H 0.76905 0.87626 0.72472
 H2295 H 0.75503 0.90036 0.73864
 H2296 H 0.76364 0.92933 0.73281
 C2297 C 0.71046 0.55975 0.71024
 C2298 C 0.71889 0.56878 0.69740
 C2299 C 0.71079 0.58264 0.68934
 C2300 C 0.69432 0.58738 0.69418
 C2301 C 0.68581 0.57821 0.70685
 C2302 C 0.69390 0.56435 0.71490
 C2303 C 0.68516 0.55540 0.72758
 C2304 C 0.66888 0.56002 0.73217
 C2305 C 0.66097 0.57357 0.72429
 C2306 C 0.66928 0.58261 0.71178
 C2307 C 0.71949 0.59151 0.67659
 C2308 C 0.73572 0.58683 0.67192
 C2309 C 0.74364 0.57329 0.67980
 C2310 C 0.73538 0.56433 0.69240
 C2311 C 0.68629 0.60189 0.68634
 C2312 C 0.67975 0.61406 0.67992
 C2313 C 0.71897 0.54599 0.71887
 C2314 C 0.72618 0.53473 0.72614
 H2315 H 0.69078 0.54476 0.73406
 H2316 H 0.66238 0.55303 0.74188
 H2317 H 0.64833 0.57710 0.72790
 H2318 H 0.66260 0.59305 0.70601
 H2319 H 0.71385 0.60212 0.67008
 H2320 H 0.74219 0.59375 0.66214
 H2321 H 0.75625 0.56971 0.67613
 H2322 H 0.74206 0.55388 0.69815
 C2323 C 0.71130 0.05980 0.20996
 C2324 C 0.69534 0.06535 0.21559
 C2325 C 0.68726 0.07921 0.20752
 C2326 C 0.69520 0.08744 0.19388
 C2327 C 0.71104 0.08173 0.18808
 C2328 C 0.71912 0.06787 0.19615
 C2329 C 0.73499 0.06243 0.19018
 C2330 C 0.74265 0.07045 0.17662
 C2331 C 0.73475 0.08400 0.16873
 C2332 C 0.71913 0.08963 0.17434
 C2333 C 0.67134 0.08458 0.21341
 C2334 C 0.66360 0.07647 0.22688
 C2335 C 0.67150 0.06292 0.23477
 C2336 C 0.68718 0.05737 0.22925
 C2337 C 0.68722 0.10197 0.18601
 C2338 C 0.68070 0.11416 0.17961
 C2339 C 0.71982 0.04604 0.21858
 C2340 C 0.72700 0.03476 0.22586
 H2341 H 0.74162 0.05194 0.19590
 H2342 H 0.75479 0.06612 0.17221
 H2343 H 0.74076 0.09018 0.15820
 H2344 H 0.71348 0.10021 0.16779
 H2345 H 0.66469 0.09505 0.20768
 H2346 H 0.65142 0.08073 0.23122
 H2347 H 0.66544 0.05666 0.24523
 H2348 H 0.69281 0.04676 0.23578
 C2349 C 0.20989 0.56019 0.20829
 C2350 C 0.19310 0.56440 0.21245
 C2351 C 0.18496 0.57812 0.20421
 C2352 C 0.19366 0.58754 0.19184
 C2353 C 0.21037 0.58317 0.18749
 C2354 C 0.21851 0.56946 0.19574
 C2355 C 0.23524 0.56539 0.19124
 C2356 C 0.24369 0.57459 0.17893
 C2357 C 0.23573 0.58799 0.17087
 C2358 C 0.21926 0.59229 0.17505
 C2359 C 0.16819 0.58213 0.20864
 C2360 C 0.15970 0.57286 0.22086
 C2361 C 0.16766 0.55944 0.22891
 C2362 C 0.18416 0.55521 0.22482
 C2363 C 0.18557 0.60192 0.18383
 C2364 C 0.17900 0.61400 0.17728
 C2365 C 0.21843 0.54658 0.21713
 C2366 C 0.22567 0.53545 0.22455
 H2367 H 0.24197 0.55506 0.19715
 H2368 H 0.25648 0.57130 0.17564
 H2369 H 0.24234 0.59510 0.16131
 H2370 H 0.21360 0.60281 0.16841
 H2371 H 0.16147 0.59245 0.20271
 H2372 H 0.14688 0.57610 0.22409
 H2373 H 0.16101 0.55227 0.23840
 H2374 H 0.18981 0.54466 0.23142
 C2375 C 0.20987 0.06022 0.70891
 C2376 C 0.19363 0.06536 0.71412
 C2377 C 0.18552 0.07917 0.70600
 C2378 C 0.19369 0.08775 0.69271
 C2379 C 0.20981 0.08243 0.68731
 C2380 C 0.21792 0.06863 0.69543
 C2381 C 0.23406 0.06359 0.68986
 C2382 C 0.24196 0.07194 0.67663
 C2383 C 0.23403 0.08544 0.66869
 C2384 C 0.21814 0.09068 0.67391
 C2385 C 0.16932 0.08412 0.71148
 C2386 C 0.16136 0.07567 0.72460
 C2387 C 0.16928 0.06217 0.73254
 C2388 C 0.18524 0.05702 0.72742
 C2389 C 0.18569 0.10226 0.68483
 C2390 C 0.17917 0.11444 0.67841
 C2391 C 0.21845 0.04658 0.71765
 C2392 C 0.22572 0.03542 0.72502
 H2393 H 0.24073 0.05315 0.69563
 H2394 H 0.25430 0.06792 0.67253
 H2395 H 0.24021 0.09188 0.65842
 H2396 H 0.21247 0.10123 0.66733
 H2397 H 0.16264 0.09455 0.70568
 H2398 H 0.14896 0.07962 0.72863
 H2399 H 0.16304 0.05564 0.74272
 H2400 H 0.19088 0.04644 0.73397
 C2401 C 0.28989 0.56102 0.28862
 C2402 C 0.30127 0.57139 0.27960
 C2403 C 0.30934 0.58519 0.28774
 C2404 C 0.30598 0.58854 0.30485
 C2405 C 0.29476 0.57805 0.31392
 C2406 C 0.28670 0.56425 0.30578
 C2407 C 0.27550 0.55397 0.31510
 C2408 C 0.27236 0.55723 0.33198
 C2409 C 0.28024 0.57073 0.33993
 C2410 C 0.29133 0.58106 0.33107
 C2411 C 0.32062 0.59540 0.27845
 C2412 C 0.32383 0.59209 0.26160
 C2413 C 0.31593 0.57861 0.25364
 C2414 C 0.30477 0.56834 0.26247
 C2415 C 0.31383 0.60295 0.31300
 C2416 C 0.32026 0.61505 0.31963
 C2417 C 0.28127 0.54725 0.28015
 C2418 C 0.27401 0.53597 0.27299
 H2419 H 0.26908 0.54331 0.30947
 H2420 H 0.26377 0.54924 0.33892
 H2421 H 0.27776 0.57321 0.35304
 H2422 H 0.29716 0.59140 0.33781
 H2423 H 0.32708 0.60603 0.28409
 H2424 H 0.33249 0.60003 0.25468
 H2425 H 0.31847 0.57609 0.24054
 H2426 H 0.29895 0.55799 0.25573
 C2427 C 0.28996 0.06053 0.78962
 C2428 C 0.30504 0.06727 0.78294
 C2429 C 0.31314 0.08104 0.79109
 C2430 C 0.30611 0.08799 0.80588
 C2431 C 0.29119 0.08108 0.81271
 C2432 C 0.28309 0.06731 0.80456
 C2433 C 0.26814 0.06066 0.81158
 C2434 C 0.26140 0.06741 0.82626
 C2435 C 0.26932 0.08087 0.83423
 C2436 C 0.28404 0.08768 0.82759
 C2437 C 0.32816 0.08761 0.78414
 C2438 C 0.33499 0.08076 0.76955
 C2439 C 0.32707 0.06730 0.76158
 C2440 C 0.31226 0.06058 0.76813
 C2441 C 0.31404 0.10246 0.81387
 C2442 C 0.32052 0.11459 0.82038
 C2443 C 0.28136 0.04687 0.78096
 C2444 C 0.27410 0.03568 0.77366
 H2445 H 0.26153 0.05018 0.80585
 H2446 H 0.24996 0.06216 0.83146
 H2447 H 0.26403 0.08607 0.84562
 H2448 H 0.28975 0.09814 0.83426
 H2449 H 0.33479 0.09806 0.78990
 H2450 H 0.34649 0.08593 0.76442
 H2451 H 0.33243 0.06202 0.75025
 H2452 H 0.30658 0.05010 0.76149
 C2453 C 0.78927 0.56036 0.79032
 C2454 C 0.78372 0.57717 0.78742
 C2455 C 0.79182 0.59092 0.79560
 C2456 C 0.80542 0.58779 0.80662
 C2457 C 0.81093 0.57098 0.80956
 C2458 C 0.80282 0.55722 0.80139
 C2459 C 0.80855 0.54052 0.80452
 C2460 C 0.82191 0.53750 0.81541
 C2461 C 0.82984 0.55095 0.82340
 C2462 C 0.82446 0.56753 0.82056
 C2463 C 0.78606 0.60762 0.79249
 C2464 C 0.77268 0.61064 0.78162
 C2465 C 0.76477 0.59719 0.77362
 C2466 C 0.77017 0.58063 0.77644
 C2467 C 0.81376 0.60189 0.81483
 C2468 C 0.82056 0.61375 0.82150
 C2469 C 0.78104 0.54635 0.78184
 C2470 C 0.77405 0.53493 0.77464
 H2471 H 0.80279 0.52965 0.79860
 H2472 H 0.82613 0.52465 0.81767
 H2473 H 0.84021 0.54854 0.83186
 H2474 H 0.83102 0.57757 0.82707
 H2475 H 0.79180 0.61850 0.79842
 H2476 H 0.76844 0.62348 0.77939
 H2477 H 0.75438 0.59960 0.76519
 H2478 H 0.76360 0.57060 0.76993
 C2479 C 0.79105 0.05898 0.29056
 C2480 C 0.80759 0.06356 0.28583
 C2481 C 0.81577 0.07730 0.29396
 C2482 C 0.80736 0.08637 0.30677
 C2483 C 0.79092 0.08163 0.31168
 C2484 C 0.78274 0.06789 0.30354
 C2485 C 0.76627 0.06344 0.30861
 C2486 C 0.75812 0.07229 0.32136
 C2487 C 0.76611 0.08571 0.32931
 C2488 C 0.78232 0.09039 0.32458
 C2489 C 0.83228 0.08170 0.28897
 C2490 C 0.84048 0.07277 0.27631
 C2491 C 0.83249 0.05933 0.26837
 C2492 C 0.81623 0.05473 0.27302
 C2493 C 0.81545 0.10080 0.31467
 C2494 C 0.82199 0.11292 0.32115
 C2495 C 0.78245 0.04536 0.28183
 C2496 C 0.77516 0.03422 0.27449
 H2497 H 0.75953 0.05307 0.30282
 H2498 H 0.74552 0.06871 0.32508
 H2499 H 0.75973 0.09255 0.33920
 H2500 H 0.78802 0.10091 0.33115
 H2501 H 0.83902 0.09205 0.29479
 H2502 H 0.85311 0.07629 0.27265
 H2503 H 0.83892 0.05243 0.25855
 H2504 H 0.81055 0.04418 0.26648
 C2505 C 0.70918 0.43941 0.28940
 C2506 C 0.69375 0.43325 0.28299
 C2507 C 0.68556 0.41943 0.29099
 C2508 C 0.69285 0.41184 0.30534
 C2509 C 0.70814 0.41816 0.31190
 C2510 C 0.71633 0.43198 0.30391
 C2511 C 0.73164 0.43803 0.31066
 C2512 C 0.73866 0.43064 0.32490
 C2513 C 0.73066 0.41712 0.33271
 C2514 C 0.71557 0.41090 0.32634
 C2515 C 0.67019 0.41345 0.28431
 C2516 C 0.66310 0.42092 0.27015
 C2517 C 0.67110 0.43445 0.26234
 C2518 C 0.68626 0.44059 0.26863
 C2519 C 0.68481 0.39732 0.31314
 C2520 C 0.67828 0.38513 0.31952
 C2521 C 0.71788 0.45311 0.28087
 C2522 C 0.72523 0.46432 0.27369
 H2523 H 0.73834 0.44853 0.30503
 H2524 H 0.75038 0.43543 0.32990
 H2525 H 0.73616 0.41142 0.34377
 H2526 H 0.70981 0.40037 0.33287
 H2527 H 0.66348 0.40297 0.28996
 H2528 H 0.65133 0.41620 0.26522
 H2529 H 0.66554 0.44021 0.25134
 H2530 H 0.69200 0.45114 0.26212
 C2531 C 0.71098 0.93884 0.79007
 C2532 C 0.69603 0.94123 0.79940
 C2533 C 0.68815 0.92716 0.80730
 C2534 C 0.69529 0.91078 0.80582
 C2535 C 0.71028 0.90839 0.79653
 C2536 C 0.71814 0.92246 0.78863
 C2537 C 0.73311 0.91975 0.77940
 C2538 C 0.74012 0.90361 0.77804
 C2539 C 0.73242 0.88986 0.78575
 C2540 C 0.71767 0.89214 0.79490
 C2541 C 0.67320 0.92987 0.81653
 C2542 C 0.66623 0.94602 0.81794
 C2543 C 0.67393 0.95977 0.81022
 C2544 C 0.68866 0.95749 0.80104
 C2545 C 0.68720 0.89636 0.81377
 C2546 C 0.68060 0.88428 0.82027
 C2547 C 0.71897 0.95314 0.78184
 C2548 C 0.72580 0.96477 0.77481
 H2549 H 0.73958 0.93004 0.77317
 H2550 H 0.75159 0.90178 0.77097
 H2551 H 0.73790 0.87735 0.78465
 H2552 H 0.71216 0.88105 0.80068
 H2553 H 0.66675 0.91956 0.82276
 H2554 H 0.65478 0.94786 0.82505
 H2555 H 0.66846 0.97229 0.81135
 H2556 H 0.69419 0.96857 0.79527
 C2557 C 0.20922 0.43976 0.79123
 C2558 C 0.21738 0.43125 0.80459
 C2559 C 0.20934 0.41738 0.81266
 C2560 C 0.19321 0.41209 0.80733
 C2561 C 0.18494 0.42075 0.79414
 C2562 C 0.19297 0.43463 0.78607
 C2563 C 0.18449 0.44304 0.77287
 C2564 C 0.16853 0.43790 0.76780
 C2565 C 0.16069 0.42433 0.77569
 C2566 C 0.16874 0.41581 0.78871
 C2567 C 0.21777 0.40904 0.82594
 C2568 C 0.23368 0.41425 0.83109
 C2569 C 0.24154 0.42781 0.82319
 C2570 C 0.23354 0.43626 0.81009
 C2571 C 0.18526 0.39756 0.81519
 C2572 C 0.17879 0.38536 0.82161
 C2573 C 0.21769 0.45353 0.78259
 C2574 C 0.22485 0.46480 0.77531
 H2575 H 0.19008 0.45367 0.76636
 H2576 H 0.16222 0.44449 0.75769
 H2577 H 0.14829 0.42039 0.77170
 H2578 H 0.16212 0.40534 0.79448
 H2579 H 0.21217 0.39843 0.83248
 H2580 H 0.23994 0.40773 0.84127
 H2581 H 0.25390 0.43181 0.82725
 H2582 H 0.24016 0.44674 0.80435
 C2583 C 0.20963 0.94078 0.29178
 C2584 C 0.21770 0.93239 0.30526
 C2585 C 0.20958 0.91864 0.31346
 C2586 C 0.19344 0.91336 0.30813
 C2587 C 0.18526 0.92191 0.29482
 C2588 C 0.19338 0.93566 0.28662
 C2589 C 0.18498 0.94397 0.27330
 C2590 C 0.16902 0.93884 0.26823
 C2591 C 0.16108 0.92540 0.27624
 C2592 C 0.16905 0.91698 0.28939
 C2593 C 0.21792 0.91041 0.32686
 C2594 C 0.23384 0.91561 0.33201
 C2595 C 0.24178 0.92905 0.32400
 C2596 C 0.23387 0.93738 0.31077
 C2597 C 0.18541 0.89893 0.31609
 C2598 C 0.17883 0.88682 0.32256
 C2599 C 0.21820 0.95439 0.28299
 C2600 C 0.22542 0.96551 0.27554
 H2601 H 0.19064 0.95450 0.26669
 H2602 H 0.16277 0.94534 0.25802
 H2603 H 0.14868 0.92146 0.27225
 H2604 H 0.16236 0.90661 0.29524
 H2605 H 0.21225 0.89991 0.33349
 H2606 H 0.24003 0.90918 0.34229
 H2607 H 0.25414 0.93304 0.32805
 H2608 H 0.24055 0.94778 0.30494
 C2609 C 0.43888 0.28984 0.71030
 C2610 C 0.44160 0.30031 0.69615
 C2611 C 0.42775 0.30832 0.68814
 C2612 C 0.41126 0.30582 0.69435
 C2613 C 0.40854 0.29536 0.70852
 C2614 C 0.42239 0.28735 0.71653
 C2615 C 0.41935 0.27696 0.73069
 C2616 C 0.40311 0.27458 0.73678
 C2617 C 0.38957 0.28241 0.72895
 C2618 C 0.39218 0.29269 0.71498
 C2619 C 0.43078 0.31873 0.67400
 C2620 C 0.44704 0.32115 0.66795
 C2621 C 0.46058 0.31332 0.67578
 C2622 C 0.45797 0.30300 0.68973
 C2623 C 0.39708 0.31397 0.68618
 C2624 C 0.38519 0.32064 0.67952
 C2625 C 0.45298 0.28159 0.71849
 C2626 C 0.46447 0.27458 0.72550
 H2627 H 0.42947 0.27059 0.73722
 H2628 H 0.40102 0.26665 0.74766
 H2629 H 0.37697 0.28051 0.73372
 H2630 H 0.38124 0.29850 0.70932
 H2631 H 0.42065 0.32509 0.66749
 H2632 H 0.44913 0.32916 0.65712
 H2633 H 0.47318 0.31525 0.67104
 H2634 H 0.46890 0.29718 0.69540
 C2635 C 0.43897 0.78945 0.21062
 C2636 C 0.42256 0.78699 0.21704
 C2637 C 0.40860 0.79483 0.20907
 C2638 C 0.41113 0.80509 0.19472
 C2639 C 0.42754 0.80756 0.18831
 C2640 C 0.44151 0.79972 0.19628
 C2641 C 0.45780 0.80238 0.18965
 C2642 C 0.46022 0.81250 0.17554
 C2643 C 0.44657 0.82016 0.16773
 C2644 C 0.43039 0.81776 0.17398
 C2645 C 0.39231 0.79217 0.21573
 C2646 C 0.38989 0.78209 0.22987
 C2647 C 0.40354 0.77444 0.23768
 C2648 C 0.41971 0.77679 0.23139
 C2649 C 0.39684 0.81310 0.18661
 C2650 C 0.38487 0.81967 0.17999
 C2651 C 0.45319 0.78136 0.21876
 C2652 C 0.46475 0.77446 0.22575
 H2653 H 0.46881 0.79669 0.19530
 H2654 H 0.47277 0.81441 0.17063
 H2655 H 0.44852 0.82800 0.15676
 H2656 H 0.42016 0.82398 0.16748
 H2657 H 0.38129 0.79786 0.21010
 H2658 H 0.37735 0.78021 0.23479
 H2659 H 0.40160 0.76666 0.24868
 H2660 H 0.42992 0.77056 0.23790
 C2661 C 0.93979 0.28924 0.21088
 C2662 C 0.92325 0.28674 0.21695
 C2663 C 0.90947 0.29477 0.20884
 C2664 C 0.91231 0.30523 0.19469
 C2665 C 0.92885 0.30772 0.18861
 C2666 C 0.94264 0.29971 0.19674
 C2667 C 0.95906 0.30238 0.19044
 C2668 C 0.96178 0.31267 0.17650
 C2669 C 0.94831 0.32050 0.16855
 C2670 C 0.93200 0.31810 0.17448
 C2671 C 0.89305 0.29208 0.21514
 C2672 C 0.89031 0.28174 0.22904
 C2673 C 0.90378 0.27388 0.23696
 C2674 C 0.92008 0.27631 0.23105
 C2675 C 0.89820 0.31336 0.18639
 C2676 C 0.88635 0.32000 0.17963
 C2677 C 0.95382 0.28096 0.21916
 C2678 C 0.96525 0.27392 0.22623
 H2679 H 0.96994 0.29657 0.19621
 H2680 H 0.97442 0.31458 0.17185
 H2681 H 0.95049 0.32847 0.15772
 H2682 H 0.92193 0.32445 0.16787
 H2683 H 0.88216 0.29791 0.20940
 H2684 H 0.87767 0.27981 0.23368
 H2685 H 0.90159 0.26584 0.24774
 H2686 H 0.93014 0.26993 0.23766
 C2687 C 0.94046 0.79073 0.70932
 C2688 C 0.93411 0.78414 0.69408
 C2689 C 0.92035 0.79224 0.68601
 C2690 C 0.91302 0.80688 0.69322
 C2691 C 0.91956 0.81366 0.70829
 C2692 C 0.93332 0.80556 0.71637
 C2693 C 0.93960 0.81252 0.73147
 C2694 C 0.93248 0.82707 0.73839
 C2695 C 0.91903 0.83498 0.73049
 C2696 C 0.91259 0.82841 0.71561
 C2697 C 0.91417 0.78537 0.67083
 C2698 C 0.92138 0.77092 0.66383
 C2699 C 0.93484 0.76300 0.67172
 C2700 C 0.94118 0.76947 0.68668
 C2701 C 0.89852 0.81474 0.68535
 C2702 C 0.88634 0.82115 0.67897
 C2703 C 0.95402 0.78203 0.71797
 C2704 C 0.96508 0.77469 0.72531
 H2705 H 0.95006 0.80683 0.73806
 H2706 H 0.93744 0.83222 0.74994
 H2707 H 0.91355 0.84628 0.73591
 H2708 H 0.90212 0.83503 0.70993
 H2709 H 0.90373 0.79109 0.66421
 H2710 H 0.91650 0.76584 0.65221
 H2711 H 0.94040 0.75177 0.66622
 H2712 H 0.95167 0.76288 0.69234
 C2713 C 0.55976 0.28781 0.28826
 C2714 C 0.55712 0.30204 0.29874
 C2715 C 0.57104 0.31003 0.30663
 C2716 C 0.58750 0.30374 0.30400
 C2717 C 0.59013 0.28948 0.29354
 C2718 C 0.57623 0.28149 0.28565
 C2719 C 0.57918 0.26725 0.27525
 C2720 C 0.59540 0.26107 0.27275
 C2721 C 0.60899 0.26890 0.28045
 C2722 C 0.60647 0.28294 0.29074
 C2723 C 0.56809 0.32425 0.31704
 C2724 C 0.55186 0.33039 0.31959
 C2725 C 0.53826 0.32257 0.31188
 C2726 C 0.54078 0.30855 0.30156
 C2727 C 0.60173 0.31189 0.31204
 C2728 C 0.61364 0.31856 0.31865
 C2729 C 0.54560 0.27966 0.28009
 C2730 C 0.53411 0.27267 0.27311
 H2731 H 0.56902 0.26073 0.26898
 H2732 H 0.59742 0.25014 0.26481
 H2733 H 0.62157 0.26406 0.27846
 H2734 H 0.61745 0.28859 0.29645
 H2735 H 0.57826 0.33076 0.32331
 H2736 H 0.54983 0.34128 0.32759
 H2737 H 0.52567 0.32738 0.31390
 H2738 H 0.52981 0.30289 0.29583
 C2739 C 0.56086 0.78858 0.78955
 C2740 C 0.57722 0.78187 0.78721
 C2741 C 0.59120 0.78965 0.79517
 C2742 C 0.58876 0.80410 0.80542
 C2743 C 0.57240 0.81077 0.80780
 C2744 C 0.55841 0.80299 0.79984
 C2745 C 0.54219 0.80988 0.80239
 C2746 C 0.53984 0.82407 0.81253
 C2747 C 0.55352 0.83169 0.82030
 C2748 C 0.56964 0.82517 0.81801
 C2749 C 0.60743 0.78272 0.79263
 C2750 C 0.60976 0.76849 0.78255
 C2751 C 0.59608 0.76087 0.77479
 C2752 C 0.57998 0.76744 0.77703
 C2753 C 0.60309 0.81207 0.81347
 C2754 C 0.61508 0.81861 0.82005
 C2755 C 0.54663 0.78065 0.78131
 C2756 C 0.53507 0.77382 0.77428
 H2757 H 0.53116 0.80439 0.79661
 H2758 H 0.52734 0.82918 0.81435
 H2759 H 0.55163 0.84271 0.82816
 H2760 H 0.57989 0.83153 0.82432
 H2761 H 0.61846 0.78819 0.79841
 H2762 H 0.62225 0.76335 0.78077
 H2763 H 0.59796 0.74980 0.76701
 H2764 H 0.56975 0.76106 0.77071
 C2765 C 0.06046 0.28835 0.78984
 C2766 C 0.07692 0.28197 0.78734
 C2767 C 0.09079 0.28984 0.79541
 C2768 C 0.08812 0.30404 0.80594
 C2769 C 0.07166 0.31038 0.80848
 C2770 C 0.05779 0.30250 0.80041
 C2771 C 0.04145 0.30906 0.80313
 C2772 C 0.03889 0.32301 0.81354
 C2773 C 0.05245 0.33071 0.82143
 C2774 C 0.06868 0.32452 0.81897
 C2775 C 0.10712 0.28325 0.79271
 C2776 C 0.10968 0.26926 0.78235
 C2777 C 0.09612 0.26156 0.77447
 C2778 C 0.07990 0.26779 0.77687
 C2779 C 0.10233 0.31213 0.81408
 C2780 C 0.11422 0.31877 0.82074
 C2781 C 0.04635 0.28035 0.78146
 C2782 C 0.03486 0.27351 0.77432
 H2783 H 0.03051 0.30349 0.79727
 H2784 H 0.02631 0.32786 0.81549
 H2785 H 0.05039 0.34154 0.82949
 H2786 H 0.07883 0.33094 0.82538
 H2787 H 0.11808 0.28879 0.79857
 H2788 H 0.12225 0.26437 0.78044
 H2789 H 0.09816 0.25067 0.76647
 H2790 H 0.06977 0.26136 0.77046
 C2791 C 0.06000 0.79060 0.29033
 C2792 C 0.06883 0.80388 0.28224
 C2793 C 0.08242 0.81200 0.29054
 C2794 C 0.08711 0.80680 0.30687
 C2795 C 0.07815 0.79369 0.31505
 C2796 C 0.06455 0.78556 0.30675
 C2797 C 0.05581 0.77245 0.31516
 C2798 C 0.06037 0.76750 0.33130
 C2799 C 0.07367 0.77543 0.33940
 C2800 C 0.08250 0.78838 0.33143
 C2801 C 0.09108 0.82521 0.28219
 C2802 C 0.08645 0.83023 0.26609
 C2803 C 0.07317 0.82229 0.25797
 C2804 C 0.06441 0.80925 0.26590
 C2805 C 0.10137 0.81471 0.31511
 C2806 C 0.11333 0.82118 0.32180
 C2807 C 0.04651 0.78190 0.28162
 C2808 C 0.03546 0.77456 0.27427
 H2809 H 0.04537 0.76590 0.30937
 H2810 H 0.05354 0.75744 0.33754
 H2811 H 0.07716 0.77154 0.35194
 H2812 H 0.09274 0.79418 0.33826
 H2813 H 0.10149 0.83179 0.28799
 H2814 H 0.09321 0.84036 0.25989
 H2815 H 0.06962 0.82624 0.24547
 H2816 H 0.05416 0.80347 0.25907
 C2817 C 0.56085 0.71095 0.71116
 C2818 C 0.55824 0.69674 0.70064
 C2819 C 0.57217 0.68881 0.69269
 C2820 C 0.58861 0.69513 0.69530
 C2821 C 0.59121 0.70936 0.70580
 C2822 C 0.57729 0.71729 0.71375
 C2823 C 0.58021 0.73151 0.72418
 C2824 C 0.59640 0.73771 0.72666
 C2825 C 0.61002 0.72994 0.71891
 C2826 C 0.60753 0.71592 0.70859
 C2827 C 0.56926 0.67462 0.68224
 C2828 C 0.55304 0.66846 0.67971
 C2829 C 0.53943 0.67622 0.68748
 C2830 C 0.54192 0.69021 0.69784
 C2831 C 0.60286 0.68702 0.68722
 C2832 C 0.61480 0.68039 0.68060
 C2833 C 0.54667 0.71906 0.71935
 C2834 C 0.53513 0.72601 0.72632
 H2835 H 0.57003 0.73799 0.73050
 H2836 H 0.59840 0.74863 0.73463
 H2837 H 0.62258 0.73481 0.72088
 H2838 H 0.61852 0.71032 0.70282
 H2839 H 0.57945 0.66816 0.67592
 H2840 H 0.55104 0.65759 0.67167
 H2841 H 0.52686 0.67139 0.68547
 H2842 H 0.53094 0.69583 0.70361
 C2843 C 0.56085 0.21000 0.21054
 C2844 C 0.55861 0.19535 0.20056
 C2845 C 0.57270 0.18760 0.19271
 C2846 C 0.58895 0.19456 0.19489
 C2847 C 0.59120 0.20923 0.20487
 C2848 C 0.57711 0.21697 0.21271
 C2849 C 0.57967 0.23163 0.22262
 C2850 C 0.59568 0.23845 0.22470
 C2851 C 0.60945 0.23087 0.21704
 C2852 C 0.60732 0.21643 0.20723
 C2853 C 0.57014 0.17295 0.18281
 C2854 C 0.55412 0.16615 0.18070
 C2855 C 0.54034 0.17373 0.18837
 C2856 C 0.54248 0.18816 0.19820
 C2857 C 0.60337 0.18665 0.18691
 C2858 C 0.61541 0.18016 0.18035
 C2859 C 0.54650 0.21792 0.21862
 C2860 C 0.53482 0.22474 0.22549
 H2861 H 0.56936 0.23799 0.22885
 H2862 H 0.59740 0.24970 0.23227
 H2863 H 0.62187 0.23622 0.21870
 H2864 H 0.61842 0.21100 0.20152
 H2865 H 0.58047 0.16661 0.17659
 H2866 H 0.55239 0.15494 0.17308
 H2867 H 0.52792 0.16840 0.18670
 H2868 H 0.53139 0.19361 0.20391
 C2869 C 0.06072 0.71133 0.20878
 C2870 C 0.07482 0.72097 0.20363
 C2871 C 0.08845 0.71290 0.19532
 C2872 C 0.08792 0.69523 0.19224
 C2873 C 0.07376 0.68562 0.19724
 C2874 C 0.06011 0.69370 0.20553
 C2875 C 0.04610 0.68383 0.21045
 C2876 C 0.04558 0.66647 0.20727
 C2877 C 0.05893 0.65857 0.19917
 C2878 C 0.07289 0.66797 0.19419
 C2879 C 0.10242 0.72279 0.19033
 C2880 C 0.10291 0.74016 0.19345
 C2881 C 0.08958 0.74805 0.20157
 C2882 C 0.07567 0.73864 0.20663
 C2883 C 0.10205 0.68695 0.18412
 C2884 C 0.11394 0.68022 0.17751
 C2885 C 0.04699 0.71954 0.21763
 C2886 C 0.03578 0.72653 0.22509
 H2887 H 0.03541 0.68941 0.21677
 H2888 H 0.03477 0.65911 0.21111
 H2889 H 0.05847 0.64508 0.19674
 H2890 H 0.08296 0.66126 0.18793
 H2891 H 0.11310 0.71724 0.18396
 H2892 H 0.11370 0.74753 0.18954
 H2893 H 0.09002 0.76155 0.20396
 H2894 H 0.06561 0.74536 0.21289
 C2895 C 0.06047 0.21135 0.71018
 C2896 C 0.05781 0.19730 0.69948
 C2897 C 0.07170 0.18940 0.69143
 C2898 C 0.08818 0.19561 0.69413
 C2899 C 0.09084 0.20970 0.70480
 C2900 C 0.07695 0.21759 0.71284
 C2901 C 0.07992 0.23166 0.72344
 C2902 C 0.09615 0.23777 0.72600
 C2903 C 0.10973 0.23004 0.71814
 C2904 C 0.10718 0.21616 0.70766
 C2905 C 0.06873 0.17537 0.68080
 C2906 C 0.05249 0.16931 0.67818
 C2907 C 0.03891 0.17704 0.68605
 C2908 C 0.04146 0.19087 0.69659
 C2909 C 0.10240 0.18750 0.68600
 C2910 C 0.11432 0.18087 0.67934
 C2911 C 0.04634 0.21938 0.71852
 C2912 C 0.03483 0.22627 0.72562
 H2913 H 0.06977 0.23811 0.72985
 H2914 H 0.09818 0.24858 0.73410
 H2915 H 0.12231 0.23484 0.72017
 H2916 H 0.11815 0.21059 0.70182
 H2917 H 0.07889 0.16894 0.67440
 H2918 H 0.05044 0.15857 0.67001
 H2919 H 0.02632 0.17229 0.68397
 H2920 H 0.03050 0.19647 0.70243
 C2921 C 0.43909 0.71197 0.28922
 C2922 C 0.44159 0.70188 0.30369
 C2923 C 0.42764 0.69397 0.31161
 C2924 C 0.41126 0.69618 0.30500
 C2925 C 0.40876 0.70627 0.29052
 C2926 C 0.42271 0.71418 0.28260
 C2927 C 0.41989 0.72418 0.26813
 C2928 C 0.40376 0.72629 0.26165
 C2929 C 0.39012 0.71857 0.26940
 C2930 C 0.39252 0.70866 0.28367
 C2931 C 0.43045 0.68396 0.32606
 C2932 C 0.44659 0.68182 0.33251
 C2933 C 0.46023 0.68955 0.32476
 C2934 C 0.45784 0.69948 0.31051
 C2935 C 0.39699 0.68809 0.31305
 C2936 C 0.38505 0.68144 0.31962
 C2937 C 0.45329 0.72011 0.28111
 C2938 C 0.46484 0.72704 0.27414
 H2939 H 0.43009 0.73046 0.26165
 H2940 H 0.40185 0.73394 0.25055
 H2941 H 0.37762 0.72026 0.26433
 H2942 H 0.38151 0.70291 0.28924
 H2943 H 0.42024 0.67769 0.33253
 H2944 H 0.44852 0.67412 0.34358
 H2945 H 0.47275 0.68784 0.32982
 H2946 H 0.46884 0.70524 0.30493
 C2947 C 0.43892 0.21178 0.78914
 C2948 C 0.44159 0.20159 0.80351
 C2949 C 0.42773 0.19362 0.81152
 C2950 C 0.41128 0.19588 0.80510
 C2951 C 0.40862 0.20606 0.79072
 C2952 C 0.42248 0.21403 0.78271
 C2953 C 0.41950 0.22414 0.76834
 C2954 C 0.40330 0.22629 0.76205
 C2955 C 0.38975 0.21850 0.76989
 C2956 C 0.39230 0.20849 0.78406
 C2957 C 0.43070 0.18349 0.82587
 C2958 C 0.44691 0.18130 0.83212
 C2959 C 0.46047 0.18910 0.82428
 C2960 C 0.45791 0.19914 0.81013
 C2961 C 0.39710 0.18774 0.81326
 C2962 C 0.38521 0.18106 0.81991
 C2963 C 0.45304 0.21999 0.78094
 C2964 C 0.46453 0.22696 0.77391
 H2965 H 0.42963 0.23047 0.76180
 H2966 H 0.40126 0.23401 0.75102
 H2967 H 0.37719 0.22022 0.76496
 H2968 H 0.38135 0.20270 0.78971
 H2969 H 0.42056 0.17717 0.83239
 H2970 H 0.44896 0.17352 0.84311
 H2971 H 0.47304 0.18735 0.82919
 H2972 H 0.46885 0.20494 0.80447
 C2973 C 0.93930 0.71018 0.78938
 C2974 C 0.94064 0.70582 0.80655
 C2975 C 0.92702 0.69765 0.81478
 C2976 C 0.91214 0.69387 0.80579
 C2977 C 0.91086 0.69810 0.78859
 C2978 C 0.92447 0.70628 0.78036
 C2979 C 0.92287 0.71043 0.76317
 C2980 C 0.90824 0.70659 0.75435
 C2981 C 0.89494 0.69858 0.76239
 C2982 C 0.89616 0.69436 0.77931
 C2983 C 0.92863 0.69346 0.83196
 C2984 C 0.94329 0.69721 0.84075
 C2985 C 0.95661 0.70519 0.83270
 C2986 C 0.95537 0.70948 0.81580
 C2987 C 0.89809 0.68579 0.81423
 C2988 C 0.88627 0.67918 0.82106
 C2989 C 0.95306 0.71882 0.78102
 C2990 C 0.96432 0.72609 0.77391
 H2991 H 0.93287 0.71665 0.75635
 H2992 H 0.90724 0.70985 0.74121
 H2993 H 0.88361 0.69562 0.75549
 H2994 H 0.88547 0.68813 0.78500
 H2995 H 0.91861 0.68723 0.83876
 H2996 H 0.94432 0.69391 0.85388
 H2997 H 0.96798 0.70808 0.83958
 H2998 H 0.96607 0.71566 0.81008
 C2999 C 0.94005 0.21090 0.29037
 C3000 C 0.92414 0.21895 0.29083
 C3001 C 0.91037 0.21083 0.29885
 C3002 C 0.91258 0.19471 0.30636
 C3003 C 0.92851 0.18670 0.30597
 C3004 C 0.94229 0.19482 0.29796
 C3005 C 0.95809 0.18657 0.29772
 C3006 C 0.96022 0.17074 0.30519
 C3007 C 0.94675 0.16279 0.31302
 C3008 C 0.93104 0.17062 0.31344
 C3009 C 0.89458 0.21912 0.29914
 C3010 C 0.89247 0.23498 0.29173
 C3011 C 0.90593 0.24292 0.28390
 C3012 C 0.92161 0.23505 0.28340
 C3013 C 0.89843 0.18636 0.31437
 C3014 C 0.88656 0.17956 0.32092
 C3015 C 0.95402 0.21911 0.28194
 C3016 C 0.96541 0.22611 0.27476
 H3017 H 0.96894 0.19225 0.29179
 H3018 H 0.97239 0.16460 0.30490
 H3019 H 0.94847 0.15050 0.31880
 H3020 H 0.92095 0.16395 0.31969
 H3021 H 0.88372 0.21347 0.30509
 H3022 H 0.88031 0.24115 0.29208
 H3023 H 0.90423 0.25526 0.27819
 H3024 H 0.93169 0.24175 0.27715
 C3025 C 0.28950 0.28983 0.56056
 C3026 C 0.28713 0.28339 0.57696
 C3027 C 0.29510 0.29138 0.59079
 C3028 C 0.30539 0.30578 0.58815
 C3029 C 0.30779 0.31220 0.57174
 C3030 C 0.29982 0.30420 0.55790
 C3031 C 0.30240 0.31084 0.54162
 C3032 C 0.31257 0.32498 0.53908
 C3033 C 0.32036 0.33281 0.55261
 C3034 C 0.31805 0.32654 0.56878
 C3035 C 0.29254 0.28471 0.60707
 C3036 C 0.28241 0.27053 0.60961
 C3037 C 0.27462 0.26271 0.59608
 C3038 C 0.27689 0.26901 0.57992
 C3039 C 0.31345 0.31398 0.60232
 C3040 C 0.32004 0.32067 0.61420
 C3041 C 0.28123 0.28170 0.54648
 C3042 C 0.27418 0.27475 0.53502
 H3043 H 0.29661 0.30518 0.53071
 H3044 H 0.31441 0.32990 0.52654
 H3045 H 0.32825 0.34379 0.55056
 H3046 H 0.32437 0.33306 0.57890
 H3047 H 0.29833 0.29034 0.61799
 H3048 H 0.28060 0.26559 0.62214
 H3049 H 0.26680 0.25168 0.59811
 H3050 H 0.27056 0.26248 0.56982
 C3051 C 0.28969 0.78922 0.06045
 C3052 C 0.29948 0.80401 0.05812
 C3053 C 0.30733 0.81187 0.07210
 C3054 C 0.30534 0.80489 0.08834
 C3055 C 0.29558 0.79006 0.09066
 C3056 C 0.28774 0.78221 0.07668
 C3057 C 0.27804 0.76739 0.07933
 C3058 C 0.27618 0.76053 0.09531
 C3059 C 0.28384 0.76822 0.10898
 C3060 C 0.29344 0.78282 0.10676
 C3061 C 0.31704 0.82666 0.06946
 C3062 C 0.31895 0.83349 0.05346
 C3063 C 0.31128 0.82580 0.03979
 C3064 C 0.30164 0.81123 0.04202
 C3065 C 0.31326 0.81296 0.10265
 C3066 C 0.31975 0.81957 0.11463
 C3067 C 0.28151 0.78125 0.04623
 C3068 C 0.27454 0.77443 0.03465
 H3069 H 0.27183 0.76095 0.06910
 H3070 H 0.26877 0.74917 0.09710
 H3071 H 0.28235 0.76284 0.12138
 H3072 H 0.29916 0.78833 0.11779
 H3073 H 0.32325 0.83310 0.07970
 H3074 H 0.32643 0.84480 0.05166
 H3075 H 0.31281 0.83114 0.02738
 H3076 H 0.29593 0.80569 0.03100
 C3077 C 0.79056 0.28863 0.06067
 C3078 C 0.80053 0.30325 0.05803
 C3079 C 0.80859 0.31122 0.07184
 C3080 C 0.80664 0.30451 0.08819
 C3081 C 0.79673 0.28983 0.09081
 C3082 C 0.78867 0.28187 0.07701
 C3083 C 0.77882 0.26722 0.07995
 C3084 C 0.77701 0.26062 0.09605
 C3085 C 0.78487 0.26841 0.10954
 C3086 C 0.79464 0.28285 0.10703
 C3087 C 0.81845 0.32584 0.06890
 C3088 C 0.82032 0.33241 0.05279
 C3089 C 0.81244 0.32461 0.03929
 C3090 C 0.80265 0.31019 0.04181
 C3091 C 0.81472 0.31272 0.10233
 C3092 C 0.82131 0.31946 0.11419
 C3093 C 0.78215 0.28057 0.04664
 C3094 C 0.77496 0.27369 0.03522
 H3095 H 0.77244 0.26070 0.06986
 H3096 H 0.76947 0.24938 0.09806
 H3097 H 0.78342 0.26324 0.12202
 H3098 H 0.80051 0.28845 0.11792
 H3099 H 0.82483 0.33235 0.07900
 H3100 H 0.82791 0.34360 0.05076
 H3101 H 0.81393 0.32975 0.02680
 H3102 H 0.79678 0.30457 0.03092
 C3103 C 0.78923 0.78928 0.56130
 C3104 C 0.78256 0.78730 0.57764
 C3105 C 0.79054 0.79529 0.59148
 C3106 C 0.80514 0.80521 0.58889
 C3107 C 0.81179 0.80721 0.57255
 C3108 C 0.80381 0.79923 0.55871
 C3109 C 0.81068 0.80142 0.54249
 C3110 C 0.82504 0.81121 0.54001
 C3111 C 0.83285 0.81901 0.55354
 C3112 C 0.82636 0.81708 0.56965
 C3113 C 0.78363 0.79312 0.60770
 C3114 C 0.76925 0.78336 0.61017
 C3115 C 0.76144 0.77557 0.59665
 C3116 C 0.76797 0.77745 0.58055
 C3117 C 0.81328 0.81334 0.60305
 C3118 C 0.81993 0.82001 0.61491
 C3119 C 0.78110 0.78103 0.54722
 C3120 C 0.77412 0.77400 0.53576
 H3121 H 0.80505 0.79560 0.53157
 H3122 H 0.83013 0.81276 0.52751
 H3123 H 0.84400 0.82661 0.55154
 H3124 H 0.83287 0.82340 0.57977
 H3125 H 0.78924 0.79894 0.61862
 H3126 H 0.76413 0.78186 0.62265
 H3127 H 0.75025 0.76803 0.59863
 H3128 H 0.76145 0.77112 0.57044
 C3129 C 0.28914 0.71109 0.43883
 C3130 C 0.29935 0.69660 0.44128
 C3131 C 0.30731 0.68877 0.42733
 C3132 C 0.30501 0.69548 0.41102
 C3133 C 0.29482 0.71000 0.40859
 C3134 C 0.28686 0.71783 0.42253
 C3135 C 0.27672 0.73233 0.41978
 C3136 C 0.27454 0.73892 0.40372
 C3137 C 0.28231 0.73126 0.39008
 C3138 C 0.29234 0.71696 0.39241
 C3139 C 0.31745 0.67428 0.43008
 C3140 C 0.31967 0.66772 0.44615
 C3141 C 0.31189 0.67538 0.45979
 C3142 C 0.30183 0.68966 0.45745
 C3143 C 0.31308 0.68746 0.39675
 C3144 C 0.31969 0.68090 0.38480
 C3145 C 0.28089 0.71906 0.45303
 C3146 C 0.27385 0.72587 0.46459
 H3147 H 0.27040 0.73875 0.42997
 H3148 H 0.26679 0.75005 0.40184
 H3149 H 0.28057 0.73642 0.37763
 H3150 H 0.29813 0.71145 0.38141
 H3151 H 0.32377 0.66788 0.41987
 H3152 H 0.32747 0.65663 0.44803
 H3153 H 0.31365 0.67024 0.47224
 H3154 H 0.29604 0.69518 0.46844
 C3155 C 0.28954 0.21096 0.93930
 C3156 C 0.30007 0.19671 0.94183
 C3157 C 0.30805 0.18885 0.92790
 C3158 C 0.30546 0.19529 0.91154
 C3159 C 0.29496 0.20958 0.90902
 C3160 C 0.28698 0.21743 0.92294
 C3161 C 0.27654 0.23169 0.92010
 C3162 C 0.27407 0.23803 0.90398
 C3163 C 0.28186 0.23034 0.89037
 C3164 C 0.29220 0.21628 0.89278
 C3165 C 0.31851 0.17461 0.93074
 C3166 C 0.32102 0.16832 0.94687
 C3167 C 0.31322 0.17600 0.96048
 C3168 C 0.30285 0.19004 0.95806
 C3169 C 0.31352 0.18724 0.89728
 C3170 C 0.32011 0.18064 0.88534
 C3171 C 0.28128 0.21895 0.95347
 C3172 C 0.27422 0.22578 0.96500
 H3173 H 0.27019 0.23811 0.93027
 H3174 H 0.26609 0.24897 0.90204
 H3175 H 0.27991 0.23531 0.87787
 H3176 H 0.29799 0.21075 0.88180
 H3177 H 0.32486 0.16821 0.92055
 H3178 H 0.32906 0.15742 0.94882
 H3179 H 0.31521 0.17106 0.97299
 H3180 H 0.29706 0.19558 0.96904
 C3181 C 0.79052 0.71044 0.94016
 C3182 C 0.80024 0.69563 0.94276
 C3183 C 0.80833 0.68766 0.92897
 C3184 C 0.80666 0.69455 0.91266
 C3185 C 0.79701 0.70942 0.91008
 C3186 C 0.78892 0.71738 0.92387
 C3187 C 0.77933 0.73223 0.92096
 C3188 C 0.77781 0.73902 0.90491
 C3189 C 0.78571 0.73122 0.89143
 C3190 C 0.79522 0.71659 0.89391
 C3191 C 0.81797 0.67285 0.93187
 C3192 C 0.81956 0.66612 0.94795
 C3193 C 0.81165 0.67391 0.96143
 C3194 C 0.80208 0.68850 0.95894
 C3195 C 0.81476 0.68632 0.89852
 C3196 C 0.82134 0.67958 0.88665
 C3197 C 0.78207 0.71851 0.95418
 C3198 C 0.77486 0.72543 0.96557
 H3199 H 0.77293 0.73876 0.93104
 H3200 H 0.77047 0.75041 0.90293
 H3201 H 0.78449 0.73655 0.87898
 H3202 H 0.80114 0.71100 0.88302
 H3203 H 0.82436 0.66634 0.92178
 H3204 H 0.82698 0.65479 0.94995
 H3205 H 0.81293 0.66863 0.97389
 H3206 H 0.79616 0.69412 0.96982
 C3207 C 0.78932 0.21053 0.43864
 C3208 C 0.78742 0.21714 0.42224
 C3209 C 0.79557 0.20910 0.40852
 C3210 C 0.80556 0.19450 0.41128
 C3211 C 0.80748 0.18791 0.42768
 C3212 C 0.79934 0.19596 0.44141
 C3213 C 0.80145 0.18915 0.45769
 C3214 C 0.81131 0.17479 0.46034
 C3215 C 0.81926 0.16692 0.44692
 C3216 C 0.81741 0.17335 0.43075
 C3217 C 0.79348 0.21594 0.39224
 C3218 C 0.78365 0.23032 0.38960
 C3219 C 0.77570 0.23820 0.40301
 C3220 C 0.77750 0.23173 0.41917
 C3221 C 0.81383 0.18628 0.39723
 C3222 C 0.82061 0.17956 0.38547
 C3223 C 0.78089 0.21872 0.45260
 C3224 C 0.77372 0.22573 0.46396
 H3225 H 0.79551 0.19483 0.46852
 H3226 H 0.81279 0.16975 0.47287
 H3227 H 0.82691 0.15576 0.44904
 H3228 H 0.82385 0.16678 0.42072
 H3229 H 0.79941 0.21028 0.38140
 H3230 H 0.78220 0.23539 0.37707
 H3231 H 0.76811 0.24939 0.40090
 H3232 H 0.77106 0.23831 0.42918
 C3233 C 0.70963 0.28810 0.43775
 C3234 C 0.71287 0.28224 0.42128
 C3235 C 0.70482 0.29010 0.40740
 C3236 C 0.69358 0.30376 0.41005
 C3237 C 0.69029 0.30957 0.42652
 C3238 C 0.69834 0.30172 0.44041
 C3239 C 0.69486 0.30774 0.45675
 C3240 C 0.68374 0.32115 0.45930
 C3241 C 0.67587 0.32884 0.44572
 C3242 C 0.67906 0.32317 0.42949
 C3243 C 0.70827 0.28402 0.39106
 C3244 C 0.71932 0.27056 0.38852
 C3245 C 0.72718 0.26287 0.40209
 C3246 C 0.72406 0.26860 0.41831
 C3247 C 0.68547 0.31185 0.39584
 C3248 C 0.67884 0.31849 0.38394
 C3249 C 0.71796 0.28012 0.45189
 C3250 C 0.72506 0.27330 0.46341
 H3251 H 0.70067 0.30217 0.46771
 H3252 H 0.68121 0.32560 0.47189
 H3253 H 0.66724 0.33925 0.44777
 H3254 H 0.67263 0.32954 0.41933
 H3255 H 0.70245 0.28958 0.38010
 H3256 H 0.72180 0.26606 0.37594
 H3257 H 0.73573 0.25239 0.40005
 H3258 H 0.73048 0.26220 0.42846
 C3259 C 0.71095 0.78770 0.93917
 C3260 C 0.69944 0.80115 0.94177
 C3261 C 0.69149 0.80901 0.92783
 C3262 C 0.69509 0.80338 0.91137
 C3263 C 0.70656 0.78990 0.90877
 C3264 C 0.71451 0.78203 0.92270
 C3265 C 0.72593 0.76857 0.91978
 C3266 C 0.72938 0.76303 0.90356
 C3267 C 0.72162 0.77073 0.88994
 C3268 C 0.71034 0.78402 0.89243
 C3269 C 0.68004 0.82243 0.93075
 C3270 C 0.67655 0.82793 0.94698
 C3271 C 0.68432 0.82024 0.96061
 C3272 C 0.69565 0.80700 0.95811
 C3273 C 0.68705 0.81145 0.89710
 C3274 C 0.68048 0.81809 0.88516
 C3275 C 0.71917 0.77970 0.95336
 C3276 C 0.72618 0.77286 0.96492
 H3277 H 0.73229 0.76218 0.92997
 H3278 H 0.73810 0.75269 0.90156
 H3279 H 0.72435 0.76639 0.87736
 H3280 H 0.70461 0.78959 0.88143
 H3281 H 0.67368 0.82881 0.92055
 H3282 H 0.66776 0.83821 0.94899
 H3283 H 0.68157 0.82455 0.97319
 H3284 H 0.70139 0.80141 0.96910
 C3285 C 0.21012 0.28810 0.93978
 C3286 C 0.21264 0.28172 0.92338
 C3287 C 0.20462 0.28965 0.90952
 C3288 C 0.19412 0.30391 0.91214
 C3289 C 0.19156 0.31026 0.92854
 C3290 C 0.19958 0.30233 0.94240
 C3291 C 0.19684 0.30890 0.95868
 C3292 C 0.18647 0.32292 0.96119
 C3293 C 0.17863 0.33067 0.94763
 C3294 C 0.18110 0.32447 0.93147
 C3295 C 0.20734 0.28304 0.89325
 C3296 C 0.21768 0.26900 0.89075
 C3297 C 0.22551 0.26124 0.90430
 C3298 C 0.22309 0.26748 0.92045
 C3299 C 0.18603 0.31205 0.89794
 C3300 C 0.17941 0.31872 0.88605
 C3301 C 0.21844 0.28004 0.95388
 C3302 C 0.22555 0.27314 0.96534
 H3303 H 0.20267 0.30330 0.96961
 H3304 H 0.18451 0.32778 0.97372
 H3305 H 0.17058 0.34155 0.94965
 H3306 H 0.17472 0.33093 0.92132
 H3307 H 0.20152 0.28863 0.88231
 H3308 H 0.21961 0.26411 0.87822
 H3309 H 0.23350 0.25031 0.90229
 H3310 H 0.22947 0.26101 0.93058
 C3311 C 0.20963 0.78851 0.44000
 C3312 C 0.19873 0.80240 0.44286
 C3313 C 0.19069 0.81051 0.42911
 C3314 C 0.19360 0.80467 0.41258
 C3315 C 0.20445 0.79073 0.40972
 C3316 C 0.21249 0.78262 0.42347
 C3317 C 0.22329 0.76870 0.42030
 C3318 C 0.22604 0.76295 0.40402
 C3319 C 0.21819 0.77089 0.39058
 C3320 C 0.20751 0.78462 0.39332
 C3321 C 0.17985 0.82438 0.43227
 C3322 C 0.17704 0.83008 0.44857
 C3323 C 0.18490 0.82215 0.46201
 C3324 C 0.19563 0.80846 0.45926
 C3325 C 0.18551 0.81302 0.39850
 C3326 C 0.17889 0.81987 0.38670
 C3327 C 0.21799 0.78029 0.45399
 C3328 C 0.22515 0.77328 0.46536
 H3329 H 0.22969 0.76211 0.43034
 H3330 H 0.23429 0.75226 0.40183
 H3331 H 0.22038 0.76638 0.37796
 H3332 H 0.20169 0.79037 0.38246
 H3333 H 0.17345 0.83095 0.42222
 H3334 H 0.16870 0.84070 0.45077
 H3335 H 0.18267 0.82662 0.47464
 H3336 H 0.20146 0.80270 0.47012
 C3337 C 0.71072 0.71112 0.56155
 C3338 C 0.71688 0.71390 0.57797
 C3339 C 0.70892 0.70598 0.59187
 C3340 C 0.69485 0.69532 0.58926
 C3341 C 0.68870 0.69253 0.57284
 C3342 C 0.69667 0.70045 0.55894
 C3343 C 0.69031 0.69746 0.54264
 C3344 C 0.67648 0.68694 0.54014
 C3345 C 0.66868 0.67920 0.55373
 C3346 C 0.67467 0.68192 0.56992
 C3347 C 0.71531 0.70895 0.60816
 C3348 C 0.72918 0.71943 0.61066
 C3349 C 0.73697 0.72716 0.59707
 C3350 C 0.73094 0.72449 0.58089
 C3351 C 0.68674 0.68723 0.60348
 C3352 C 0.68012 0.68059 0.61538
 C3353 C 0.71887 0.71928 0.54740
 C3354 C 0.72587 0.72622 0.53589
 H3355 H 0.69596 0.70320 0.53168
 H3356 H 0.67178 0.68479 0.52759
 H3357 H 0.65794 0.67104 0.55172
 H3358 H 0.66819 0.67561 0.58009
 H3359 H 0.70968 0.70321 0.61913
 H3360 H 0.73390 0.72154 0.62320
 H3361 H 0.74777 0.73525 0.59907
 H3362 H 0.73744 0.73081 0.57074
 C3363 C 0.71101 0.21145 0.06116
 C3364 C 0.69988 0.19771 0.05856
 C3365 C 0.69199 0.18977 0.07249
 C3366 C 0.69527 0.19562 0.08894
 C3367 C 0.70636 0.20940 0.09154
 C3368 C 0.71425 0.21734 0.07761
 C3369 C 0.72529 0.23110 0.08053
 C3370 C 0.72843 0.23685 0.09674
 C3371 C 0.72073 0.22908 0.11035
 C3372 C 0.70981 0.21550 0.10786
 C3373 C 0.68092 0.17604 0.06957
 C3374 C 0.67774 0.17033 0.05336
 C3375 C 0.68545 0.17810 0.03974
 C3376 C 0.69641 0.19164 0.04224
 C3377 C 0.68728 0.18747 0.10320
 C3378 C 0.68075 0.18079 0.11513
 C3379 C 0.71920 0.21951 0.04699
 C3380 C 0.72621 0.22640 0.03545
 H3381 H 0.73159 0.23757 0.07035
 H3382 H 0.73686 0.24742 0.09873
 H3383 H 0.72321 0.23359 0.12292
 H3384 H 0.70412 0.20988 0.11885
 H3385 H 0.67462 0.16959 0.07977
 H3386 H 0.66924 0.15981 0.05135
 H3387 H 0.68294 0.17362 0.02717
 H3388 H 0.70210 0.19728 0.03125
 C3389 C 0.21065 0.71175 0.05947
 C3390 C 0.19953 0.69805 0.05661
 C3391 C 0.19148 0.68997 0.07038
 C3392 C 0.19461 0.69565 0.08692
 C3393 C 0.20570 0.70938 0.08977
 C3394 C 0.21374 0.71746 0.07601
 C3395 C 0.22476 0.73117 0.07917
 C3396 C 0.22774 0.73675 0.09547
 C3397 C 0.21990 0.72885 0.10893
 C3398 C 0.20899 0.71531 0.10619
 C3399 C 0.18043 0.67629 0.06722
 C3400 C 0.17740 0.67076 0.05091
 C3401 C 0.18526 0.67866 0.03745
 C3402 C 0.19621 0.69216 0.04019
 C3403 C 0.18644 0.68739 0.10101
 C3404 C 0.17975 0.68063 0.11281
 C3405 C 0.21899 0.71995 0.04546
 C3406 C 0.22612 0.72694 0.03406
 H3407 H 0.23117 0.73774 0.06913
 H3408 H 0.23617 0.74729 0.09765
 H3409 H 0.22226 0.73323 0.12156
 H3410 H 0.20319 0.70958 0.11707
 H3411 H 0.17403 0.66974 0.07728
 H3412 H 0.16891 0.66028 0.04872
 H3413 H 0.18286 0.67432 0.02481
 H3414 H 0.20202 0.69790 0.02932
 C3415 C 0.21030 0.21207 0.56048
 C3416 C 0.21298 0.21825 0.57692
 C3417 C 0.20497 0.21027 0.59076
 C3418 C 0.19432 0.19615 0.58807
 C3419 C 0.19160 0.19000 0.57163
 C3420 C 0.19961 0.19799 0.55779
 C3421 C 0.19671 0.19161 0.54147
 C3422 C 0.18619 0.17774 0.53889
 C3423 C 0.17836 0.16993 0.55242
 C3424 C 0.18099 0.17594 0.56863
 C3425 C 0.20785 0.21668 0.60707
 C3426 C 0.21833 0.23059 0.60965
 C3427 C 0.22615 0.23840 0.59612
 C3428 C 0.22357 0.23235 0.57992
 C3429 C 0.18624 0.18795 0.60224
 C3430 C 0.17963 0.18123 0.61411
 C3431 C 0.21861 0.22017 0.54639
 C3432 C 0.22571 0.22710 0.53494
 H3433 H 0.20252 0.19727 0.53055
 H3434 H 0.18411 0.17303 0.52632
 H3435 H 0.17020 0.15916 0.55035
 H3436 H 0.17462 0.16945 0.57875
 H3437 H 0.20205 0.21104 0.61800
 H3438 H 0.22038 0.23533 0.62221
 H3439 H 0.23424 0.24922 0.59818
 H3440 H 0.22994 0.23886 0.56981
   
