data_POSCAR
  _audit_creation_date              2014-09-24
  _audit_creation_method            'ToBaCCo'
  _symmetry_space_group_name_H-M    'P1'
  _symmetry_Int_Tables_number       1
  _symmetry_cell_setting            triclinic
  loop_
  _symmetry_equiv_pos_as_xyz
 x,y,z
_cell_length_a 49.9438
_cell_length_b 49.5287
_cell_length_c 49.0171
_cell_angle_alpha 92.116800
_cell_angle_beta 90.550200
_cell_angle_gamma 90.685900
loop_
  _atom_site_label
  _atom_site_type_symbol
  _atom_site_fract_x
  _atom_site_fract_y
  _atom_site_fract_z
C1 C 0.72997 0.67310 0.97332
 H2 H 0.74997 0.67011 0.96557
 C3 C 0.71007 0.68347 0.95642
 H4 H 0.71498 0.68858 0.93576
 C5 C 0.69858 0.66755 1.00865
 H6 H 0.69375 0.66052 1.02859
 C7 C 0.67825 0.67791 0.99261
 H8 H 0.65822 0.67925 1.00077
 N9 N 0.72373 0.66466 0.99862
 C10 C 0.79162 0.64780 1.05177
 H11 H 0.78475 0.62786 1.05696
 C12 C 0.81581 0.65780 1.06241
 H13 H 0.82731 0.64516 1.07559
 C14 C 0.78574 0.68698 1.02616
 H15 H 0.77413 0.69788 1.01153
 C16 C 0.80992 0.69796 1.03657
 H17 H 0.81652 0.71762 1.03018
 Zn18 Zn 0.74814 0.64271 1.01750
 N19 N 0.77746 0.66205 1.03352
 C20 C 0.78864 0.61394 0.98971
 N21 N 0.76168 0.61666 0.99202
 C22 C 0.74446 0.60199 0.97549
 C23 C 0.75427 0.58358 0.95580
 C24 C 0.79926 0.59566 0.97058
 C25 C 0.72378 0.64111 1.06841
 C26 C 0.71050 0.62992 1.09027
 C27 C 0.71127 0.58658 1.06613
 C28 C 0.72452 0.59873 1.04475
 N29 N 0.73017 0.62559 1.04609
 H30 H 0.80214 0.62619 1.00237
 H31 H 0.72310 0.60482 0.97742
 H32 H 0.74037 0.57205 0.94275
 H33 H 0.82079 0.59413 0.96884
 H34 H 0.72915 0.66236 1.06924
 H35 H 0.70707 0.64322 1.10780
 H36 H 0.70601 0.56548 1.06296
 H37 H 0.72996 0.58664 1.02692
 C38 C 0.82560 0.68302 1.05456
 C39 C 0.68359 0.68501 0.96574
 C40 C 0.70363 0.60204 1.08970
 C41 C 0.78204 0.58024 0.95328
 C42 C 0.70447 0.34711 0.49173
 H43 H 0.70730 0.35071 0.47031
 C44 C 0.68192 0.33275 0.50006
 H45 H 0.66762 0.32497 0.48491
 C46 C 0.71845 0.35486 0.53774
 H47 H 0.73204 0.36450 0.55245
 C48 C 0.69639 0.34034 0.54693
 H49 H 0.69332 0.33892 0.56868
 N50 N 0.72167 0.35854 0.51060
 C51 C 0.79411 0.38799 0.47234
 H52 H 0.79066 0.40933 0.47610
 C53 C 0.81799 0.37952 0.46068
 H54 H 0.83259 0.39457 0.45498
 C55 C 0.77906 0.34266 0.47561
 H56 H 0.76396 0.32849 0.48207
 C57 C 0.80293 0.33321 0.46408
 H58 H 0.80608 0.31166 0.46172
 Zn59 Zn 0.74622 0.38486 0.49882
 N60 N 0.77533 0.36967 0.47969
 C61 C 0.78068 0.39034 0.54306
 N62 N 0.76142 0.40385 0.52957
 C63 C 0.75444 0.42933 0.53774
 C64 C 0.76642 0.44178 0.56091
 C65 C 0.79360 0.40223 0.56585
 C66 C 0.73350 0.40859 0.44895
 C67 C 0.71875 0.42410 0.43118
 C68 C 0.69074 0.43815 0.46885
 C69 C 0.70575 0.42189 0.48581
 N70 N 0.72704 0.40796 0.47580
 H71 H 0.78612 0.37023 0.53595
 H72 H 0.73948 0.44003 0.52655
 H73 H 0.75984 0.46167 0.56755
 H74 H 0.80930 0.39117 0.57570
 H75 H 0.74966 0.39644 0.44100
 H76 H 0.72391 0.42350 0.40978
 H77 H 0.67435 0.44959 0.47750
 H78 H 0.70028 0.42021 0.50698
 C79 C 0.82297 0.35180 0.45695
 C80 C 0.67728 0.32998 0.52804
 C81 C 0.69713 0.43941 0.44103
 C82 C 0.78632 0.42820 0.57539
 C83 C 0.22863 -0.17170 -0.00748
 H84 H 0.24504 -0.18474 -0.01288
 C85 C 0.20526 -0.18282 0.00347
 H86 H 0.20401 -0.20434 0.00649
 C87 C 0.20950 -0.12818 -0.00575
 H88 H 0.21079 -0.10701 -0.01011
 C89 C 0.18602 -0.13832 0.00511
 H90 H 0.16998 -0.12448 0.00994
 N91 N 0.23044 -0.14466 -0.01145
 C92 C 0.29545 -0.14194 -0.06748
 H93 H 0.28702 -0.12493 -0.07752
 C94 C 0.31734 -0.15494 -0.07915
 H95 H 0.32524 -0.14812 -0.09825
 C96 C 0.29727 -0.17000 -0.02938
 H97 H 0.29037 -0.17476 -0.00927
 C98 C 0.31908 -0.18389 -0.04061
 H99 H 0.32854 -0.19965 -0.02935
 Zn100 Zn 0.26017 -0.12603 -0.02627
 N101 N 0.28601 -0.14931 -0.04284
 C102 C 0.30360 -0.10876 0.00782
 N103 N 0.27731 -0.10441 0.00202
 C104 C 0.26309 -0.08597 0.01701
 C105 C 0.27496 -0.07182 0.03924
 C106 C 0.31618 -0.09522 0.03000
 C107 C 0.23188 -0.11853 -0.07370
 C108 C 0.21834 -0.10514 -0.09402
 C109 C 0.23261 -0.06272 -0.07252
 C110 C 0.24629 -0.07711 -0.05279
 N111 N 0.24534 -0.10451 -0.05356
 H112 H 0.31486 -0.12307 -0.00443
 H113 H 0.24241 -0.08234 0.01204
 H114 H 0.26307 -0.05779 0.05132
 H115 H 0.33700 -0.09923 0.03447
 H116 H 0.23170 -0.14039 -0.07393
 H117 H 0.20939 -0.11781 -0.11007
 H118 H 0.23288 -0.04102 -0.06964
 H119 H 0.25701 -0.06633 -0.03644
 C120 C 0.32961 -0.17585 -0.06549
 C121 C 0.18355 -0.16597 0.00985
 C122 C 0.21766 -0.07650 -0.09372
 C123 C 0.30171 -0.07675 0.04625
 C124 C 0.22159 0.17152 0.45565
 H125 H 0.23965 0.16719 0.44439
 C126 C 0.20037 0.18446 0.44291
 H127 H 0.20228 0.19000 0.42184
 C128 C 0.19619 0.16730 0.49588
 H129 H 0.19419 0.15994 0.51618
 C130 C 0.17457 0.18013 0.48396
 H131 H 0.15631 0.18279 0.49546
 N132 N 0.21883 0.16248 0.48138
 C133 C 0.28746 0.13671 0.52845
 H134 H 0.28176 0.11558 0.52863
 C135 C 0.31059 0.14568 0.54209
 H136 H 0.32228 0.13137 0.55320
 C137 C 0.27902 0.18078 0.51338
 H138 H 0.26677 0.19414 0.50172
 C139 C 0.30229 0.19068 0.52675
 H140 H 0.30791 0.21175 0.52527
 Zn141 Zn 0.24390 0.13736 0.49425
 N142 N 0.27245 0.15409 0.51414
 C143 C 0.28521 0.12042 0.45916
 N144 N 0.25841 0.11826 0.46357
 C145 C 0.24207 0.10435 0.44549
 C146 C 0.25271 0.09146 0.42220
 C147 C 0.29656 0.10820 0.43606
 C148 C 0.22190 0.12406 0.54388
 C149 C 0.20968 0.10832 0.56329
 C150 C 0.20769 0.07110 0.53006
 C151 C 0.22011 0.08759 0.51124
 N152 N 0.22662 0.11369 0.51833
 H153 H 0.29788 0.13204 0.47327
 H154 H 0.22072 0.10359 0.44896
 H155 H 0.23949 0.08056 0.40790
 H156 H 0.31794 0.11013 0.43297
 H157 H 0.22786 0.14466 0.54924
 H158 H 0.20655 0.11697 0.58360
 H159 H 0.20223 0.05053 0.52392
 H160 H 0.22449 0.07946 0.49108
 C161 C 0.31867 0.17282 0.54083
 C162 C 0.17611 0.18790 0.45678
 C163 C 0.20223 0.08148 0.55648
 C164 C 0.28028 0.09354 0.41723
 C165 C 0.16456 0.45695 0.23078
 H166 H 0.16034 0.44591 0.24891
 C167 C 0.17711 0.44396 0.20863
 H168 H 0.18285 0.42304 0.21003
 C169 C 0.16090 0.49711 0.20630
 H170 H 0.15384 0.51750 0.20496
 C171 C 0.17358 0.48502 0.18384
 H172 H 0.17600 0.49636 0.16554
 N173 N 0.15612 0.48286 0.22899
 C174 C 0.13600 0.52932 0.30306
 H175 H 0.11483 0.53138 0.29888
 C176 C 0.14734 0.54188 0.32636
 H177 H 0.13464 0.55342 0.34012
 C178 C 0.17784 0.51071 0.29056
 H179 H 0.18947 0.49834 0.27655
 C180 C 0.19004 0.52285 0.31387
 H181 H 0.21120 0.51995 0.31757
 Zn182 Zn 0.13259 0.49683 0.25612
 N183 N 0.15120 0.51396 0.28585
 C184 C 0.11231 0.46257 0.29615
 N185 N 0.11207 0.46753 0.26904
 C186 C 0.09848 0.45100 0.25081
 C187 C 0.08392 0.42879 0.25973
 C188 C 0.09810 0.44059 0.30593
 C189 C 0.12126 0.54738 0.23562
 C190 C 0.10626 0.56727 0.22337
 C191 C 0.06789 0.53711 0.22289
 C192 C 0.08368 0.51772 0.23510
 N193 N 0.11002 0.52295 0.24068
 H194 H 0.12377 0.47545 0.31029
 H195 H 0.09905 0.45505 0.22929
 H196 H 0.07287 0.41614 0.24495
 H197 H 0.09889 0.43685 0.32754
 H198 H 0.14206 0.55130 0.24089
 H199 H 0.11565 0.58653 0.21941
 H200 H 0.04714 0.53236 0.21795
 H201 H 0.07487 0.49847 0.23979
 C202 C 0.17466 0.53862 0.33216
 C203 C 0.18115 0.45786 0.18452
 C204 C 0.07928 0.56214 0.21653
 C205 C 0.08355 0.42339 0.28767
 C206 C -0.14576 0.01363 0.22036
 H207 H -0.14832 0.02354 0.24019
 C208 C -0.15579 0.02551 0.19697
 H209 H -0.16574 0.04468 0.19961
 C210 C -0.12696 -0.02184 0.19351
 H211 H -0.11529 -0.04003 0.19208
 C212 C -0.13654 -0.01074 0.16967
 H213 H -0.13295 -0.02168 0.15059
 N214 N -0.13108 -0.00924 0.21815
 C215 C -0.12079 -0.04843 0.29549
 H216 H -0.09921 -0.04984 0.29499
 C217 C -0.13501 -0.06054 0.31613
 H218 H -0.12418 -0.07108 0.33167
 C219 C -0.16099 -0.03271 0.27581
 H220 H -0.17093 -0.02200 0.25986
 C221 C -0.17606 -0.04428 0.29645
 H222 H -0.19765 -0.04245 0.29633
 Zn223 Zn -0.11156 -0.02070 0.24876
 N224 N -0.13385 -0.03493 0.27584
 C225 C -0.09509 0.01761 0.29010
 N226 N -0.09229 0.00972 0.26341
 C227 C -0.07686 0.02417 0.24633
 C228 C -0.06274 0.04706 0.25616
 C229 C -0.08157 0.04056 0.30069
 C230 C -0.09892 -0.07353 0.23279
 C231 C -0.08331 -0.09483 0.22291
 C232 C -0.04528 -0.06424 0.22219
 C233 C -0.06152 -0.04360 0.23259
 N234 N -0.08795 -0.04846 0.23720
 H235 H -0.10791 0.00626 0.30321
 H236 H -0.07564 0.01794 0.22499
 H237 H -0.05050 0.05833 0.24232
 H238 H -0.08378 0.04643 0.32205
 H239 H -0.11999 -0.07683 0.23654
 H240 H -0.09244 -0.11456 0.21906
 H241 H -0.02438 -0.06006 0.21815
 H242 H -0.05302 -0.02370 0.23648
 C243 C -0.16299 -0.05863 0.31676
 C244 C -0.15035 0.01397 0.17081
 C245 C -0.05624 -0.09016 0.21715
 C246 C -0.06504 0.05548 0.28367
 C247 C 0.34460 0.51834 0.73397
 H248 H 0.34653 0.52777 0.75417
 C249 C 0.33053 0.53129 0.71353
 H250 H 0.32134 0.55059 0.71819
 C251 C 0.35534 0.48233 0.70296
 H252 H 0.36571 0.46368 0.69863
 C253 C 0.34125 0.49441 0.68204
 H254 H 0.34099 0.48487 0.66180
 N255 N 0.35700 0.49452 0.72825
 C256 C 0.37453 0.45260 0.80272
 H257 H 0.39589 0.45040 0.80015
 C258 C 0.36186 0.44100 0.82469
 H259 H 0.37372 0.43018 0.83921
 C260 C 0.33331 0.46973 0.78690
 H261 H 0.32230 0.48075 0.77191
 C262 C 0.31980 0.45857 0.80879
 H263 H 0.29836 0.46104 0.81051
 Zn264 Zn 0.37987 0.48044 0.75509
 N265 N 0.36023 0.46667 0.78441
 C266 C 0.40279 0.51680 0.79502
 N267 N 0.40286 0.50900 0.76811
 C268 C 0.41807 0.52233 0.74993
 C269 C 0.43474 0.54385 0.75876
 C270 C 0.41882 0.53846 0.80465
 C271 C 0.38613 0.42765 0.73454
 C272 C 0.39912 0.40530 0.72292
 C273 C 0.43984 0.43203 0.72165
 C274 C 0.42618 0.45375 0.73374
 N275 N 0.39968 0.45134 0.73952
 H276 H 0.39009 0.50646 0.80908
 H277 H 0.41717 0.51629 0.72850
 H278 H 0.44677 0.55423 0.74407
 H279 H 0.41863 0.54433 0.82615
 H280 H 0.36511 0.42621 0.73950
 H281 H 0.38799 0.38666 0.71885
 H282 H 0.46088 0.43425 0.71699
 H283 H 0.43682 0.47247 0.73833
 C284 C 0.33413 0.44385 0.82794
 C285 C 0.32910 0.51948 0.68705
 C286 C 0.42624 0.40746 0.71611
 C287 C 0.43515 0.55216 0.78644
 C288 C 0.67209 0.95420 0.72146
 H289 H 0.66431 0.94321 0.73837
 C290 C 0.68486 0.94022 0.70009
 H291 H 0.68713 0.91856 0.70102
 C292 C 0.67782 0.99555 0.69936
 H293 H 0.67441 1.01698 0.69870
 C294 C 0.69052 0.98238 0.67750
 H295 H 0.69649 0.99399 0.66025
 N296 N 0.66809 0.98125 0.72034
 C297 C 0.64511 1.03257 0.79000
 H298 H 0.62400 1.03332 0.78496
 C299 C 0.65487 1.04616 0.81339
 H300 H 0.64091 1.05806 0.82537
 C301 C 0.68839 1.01672 0.77916
 H302 H 0.70115 1.00476 0.76587
 C303 C 0.69922 1.03045 0.80234
 H304 H 0.72035 1.02833 0.80665
 Zn305 Zn 0.64391 0.99800 0.74513
 N306 N 0.66165 1.01759 0.77390
 C307 C 0.62286 0.96816 0.78808
 N308 N 0.62194 0.97079 0.76055
 C309 C 0.60675 0.95360 0.74432
 C310 C 0.59104 0.93344 0.75585
 C311 C 0.60746 0.94850 0.80039
 C312 C 0.63565 1.04761 0.72225
 C313 C 0.62252 1.06787 0.70862
 C314 C 0.58367 1.03854 0.70380
 C315 C 0.59757 1.01878 0.71771
 N316 N 0.62325 1.02350 0.72628
 H317 H 0.63581 0.98104 0.80071
 H318 H 0.60697 0.95542 0.72241
 H319 H 0.57876 0.92019 0.74272
 H320 H 0.60866 0.94678 0.82233
 H321 H 0.65586 1.05116 0.72978
 H322 H 0.63278 1.08696 0.70599
 H323 H 0.56346 1.03421 0.69661
 H324 H 0.58782 0.99974 0.72144
 C325 C 0.68223 1.04479 0.82053
 C326 C 0.69338 0.95418 0.67721
 C327 C 0.59624 1.06344 0.69895
 C328 C 0.59107 0.93096 0.78431
 C329 C 0.02381 0.23794 -0.16507
 H330 H 0.03103 0.25863 -0.16392
 C331 C 0.03912 0.21786 -0.17815
 H332 H 0.05806 0.22326 -0.18715
 C333 C -0.00845 0.20527 -0.15266
 H334 H -0.02649 0.20008 -0.14206
 C335 C 0.00606 0.18473 -0.16552
 H336 H -0.00139 0.16413 -0.16506
 N337 N 0.00082 0.23122 -0.15210
 C338 C -0.05044 0.29954 -0.13164
 H339 H -0.05330 0.29506 -0.11042
 C340 C -0.06357 0.32129 -0.14267
 H341 H -0.07634 0.33359 -0.12966
 C342 C -0.02925 0.28945 -0.17380
 H343 H -0.01571 0.27700 -0.18569
 C344 C -0.04192 0.31128 -0.18569
 H345 H -0.03818 0.31541 -0.20686
 Zn346 Zn -0.01595 0.25683 -0.12832
 N347 N -0.03348 0.28432 -0.14710
 C348 C 0.01393 0.30014 -0.10368
 N349 N 0.01090 0.27279 -0.10513
 C350 C 0.02778 0.25661 -0.09141
 C351 C 0.04848 0.26789 -0.07514
 C352 C 0.03429 0.31224 -0.08767
 C353 C -0.06505 0.23107 -0.12140
 C354 C -0.08479 0.21619 -0.10853
 C355 C -0.05784 0.21849 -0.06738
 C356 C -0.03863 0.23339 -0.08117
 N357 N -0.04229 0.23885 -0.10786
 H358 H 0.00084 0.31271 -0.11524
 H359 H 0.02526 0.23489 -0.09330
 H360 H 0.06157 0.25471 -0.06417
 H361 H 0.03658 0.33402 -0.08719
 H362 H -0.06772 0.23621 -0.14251
 H363 H -0.10277 0.21160 -0.12028
 H364 H -0.05281 0.21341 -0.04674
 H365 H -0.02047 0.23994 -0.07064
 C366 C -0.05925 0.32759 -0.16996
 C367 C 0.03063 0.19073 -0.17764
 C368 C -0.08152 0.20890 -0.08100
 C369 C 0.05193 0.29610 -0.07313
 C370 C 0.46862 0.22799 0.15913
 H371 H 0.45738 0.24644 0.15789
 C372 C 0.45606 0.20454 0.16802
 H373 H 0.43518 0.20521 0.17369
 C374 C 0.50857 0.20400 0.15031
 H375 H 0.52867 0.20349 0.14247
 C376 C 0.49691 0.18025 0.15923
 H377 H 0.50848 0.16188 0.15865
 N378 N 0.49410 0.22705 0.14959
 C379 C 0.53276 0.30439 0.13532
 H380 H 0.53526 0.30116 0.11355
 C381 C 0.54248 0.32802 0.14821
 H382 H 0.55283 0.34275 0.13623
 C383 C 0.51638 0.28873 0.17722
 H384 H 0.50600 0.27331 0.18824
 C385 C 0.52592 0.31225 0.19107
 H386 H 0.52276 0.31494 0.21281
 Zn387 Zn 0.50657 0.25574 0.12843
 N388 N 0.51966 0.28555 0.14977
 C389 C 0.46982 0.29318 0.10787
 N390 N 0.47743 0.26688 0.10667
 C391 C 0.46369 0.24805 0.09102
 C392 C 0.44187 0.25557 0.07509
 C393 C 0.44809 0.30154 0.09241
 C394 C 0.55929 0.24039 0.11846
 C395 C 0.58093 0.23039 0.10359
 C396 C 0.55263 0.22766 0.06332
 C397 C 0.53158 0.23792 0.07893
 N398 N 0.53507 0.24346 0.10612
 H399 H 0.48047 0.30779 0.12090
 H400 H 0.46969 0.22713 0.09099
 H401 H 0.43112 0.24033 0.06278
 H402 H 0.44263 0.32265 0.09332
 H403 H 0.56165 0.24538 0.14002
 H404 H 0.60000 0.22806 0.11386
 H405 H 0.54912 0.22243 0.04194
 H406 H 0.51239 0.24095 0.06931
 C407 C 0.53877 0.33242 0.17635
 C408 C 0.46994 0.18002 0.16703
 C409 C 0.57765 0.22345 0.07571
 C410 C 0.43386 0.28266 0.07568
 C411 C 0.95885 0.73554 0.67373
 H412 H 0.95167 0.75591 0.67183
 C413 C 0.94327 0.71650 0.68699
 H414 H 0.92431 0.72248 0.69572
 C415 C 0.99118 0.70236 0.66264
 H416 H 1.00917 0.69651 0.65206
 C417 C 0.97642 0.68281 0.67594
 H418 H 0.98339 0.66218 0.67546
 N419 N 0.98189 0.72798 0.66117
 C420 C 1.02809 0.79815 0.63644
 H421 H 1.02906 0.79276 0.61489
 C422 C 1.04059 0.82176 0.64660
 H423 H 1.05084 0.83458 0.63254
 C424 C 1.01242 0.78825 0.68049
 H425 H 1.00132 0.77506 0.69350
 C426 C 1.02473 0.81179 0.69159
 H427 H 1.02319 0.81646 0.71327
 Zn428 Zn 0.99713 0.75168 0.63603
 N429 N 1.01406 0.78215 0.65328
 C430 C 0.96327 0.78995 0.61213
 N431 N 0.96864 0.76318 0.61359
 C432 C 0.95262 0.74413 0.60084
 C433 C 0.93047 0.75177 0.58542
 C434 C 0.94136 0.79847 0.59700
 C435 C 1.04663 0.72735 0.62801
 C436 C 1.06667 0.71324 0.61416
 C437 C 1.03866 0.71181 0.57366
 C438 C 1.01920 0.72614 0.58825
 N439 N 1.02332 0.73321 0.61506
 H440 H 0.97562 0.80479 0.62312
 H441 H 0.95695 0.72294 0.60285
 H442 H 0.91816 0.73632 0.57514
 H443 H 0.93722 0.81986 0.59651
 H444 H 1.04946 0.73340 0.64929
 H445 H 1.08487 0.70831 0.62497
 H446 H 1.03507 0.70627 0.55235
 H447 H 1.00082 0.73146 0.57813
 C448 C 1.03894 0.82899 0.67450
 C449 C 0.95166 0.68955 0.68744
 C450 C 1.06271 0.70509 0.58668
 C451 C 0.92461 0.77930 0.58336
 C452 C 0.51645 0.74191 0.34361
 H453 H 0.52544 0.76181 0.34636
 C454 C 0.53094 0.72096 0.33101
 H455 H 0.55103 0.72495 0.32395
 C456 C 0.48043 0.71183 0.35186
 H457 H 0.46114 0.70795 0.36068
 C458 C 0.49410 0.69045 0.33941
 H459 H 0.48490 0.67053 0.33843
 N460 N 0.49201 0.73679 0.35448
 C461 C 0.43978 0.80309 0.37689
 H462 H 0.43709 0.79800 0.39797
 C463 C 0.42422 0.82312 0.36579
 H464 H 0.41024 0.83351 0.37909
 C465 C 0.46265 0.79623 0.33519
 H466 H 0.47752 0.78539 0.32338
 C467 C 0.44795 0.81679 0.32336
 H468 H 0.45153 0.82099 0.30219
 Zn469 Zn 0.47687 0.76243 0.37933
 N470 N 0.45827 0.78986 0.36152
 C471 C 0.50816 0.80549 0.40254
 N472 N 0.50511 0.77815 0.40082
 C473 C 0.52320 0.76172 0.41253
 C474 C 0.54543 0.77269 0.42668
 C475 C 0.53010 0.81731 0.41644
 C476 C 0.42753 0.73839 0.38952
 C477 C 0.40850 0.72339 0.40323
 C478 C 0.43947 0.72095 0.44119
 C479 C 0.45792 0.73622 0.42677
 N480 N 0.45183 0.74418 0.40120
 H481 H 0.49386 0.81820 0.39266
 H482 H 0.52059 0.74002 0.41043
 H483 H 0.55951 0.75926 0.43597
 H484 H 0.53245 0.83908 0.41701
 H485 H 0.42316 0.74500 0.36918
 H486 H 0.38931 0.71907 0.39346
 H487 H 0.44498 0.71402 0.46114
 H488 H 0.47726 0.74111 0.43578
 C489 C 0.42798 0.83044 0.33855
 C490 C 0.52012 0.69463 0.32980
 C491 C 0.41449 0.71403 0.42924
 C492 C 0.54922 0.80087 0.42861
 C493 C 0.35168 0.00146 0.19936
 C494 C 0.36124 0.01425 0.22359
 C495 C 0.37389 0.03964 0.22274
 C496 C 0.37747 0.05210 0.19776
 C497 C 0.36727 0.03935 0.17370
 C498 C 0.35423 0.01411 0.17433
 C499 C 0.35810 0.00105 0.24988
 C500 C 0.36909 -0.02449 0.25375
 C501 C 0.36700 -0.03674 0.27909
 C502 C 0.35291 -0.02333 0.30020
 C503 C 0.34134 0.00195 0.29637
 C504 C 0.34439 0.01421 0.27124
 H505 H 0.34156 -0.01797 0.20016
 H506 H 0.38179 0.04920 0.24142
 H507 H 0.37957 -0.03457 0.23710
 H508 H 0.33562 0.03377 0.26803
 H509 H 0.36968 0.04900 0.15438
 H510 H 0.35170 -0.03206 0.32009
 C511 C 0.13010 1.02524 0.70853
 C512 C 0.12273 1.00986 0.73075
 C513 C 0.11441 0.98286 0.72624
 C514 C 0.11360 0.97114 0.69971
 C515 C 0.12150 0.98669 0.67771
 C516 C 0.12991 1.01369 0.68193
 C517 C 0.12531 1.02155 0.75882
 C518 C 0.11244 1.04572 0.76636
 C519 C 0.11478 1.05659 0.79320
 C520 C 0.13119 1.04364 0.81205
 C521 C 0.14422 1.01957 0.80470
 C522 C 0.14093 1.00849 0.77812
 H523 H 0.13718 1.04585 0.71215
 H524 H 0.10889 0.97091 0.74344
 H525 H 0.09976 1.05537 0.75165
 H526 H 0.15105 0.98996 0.77223
 H527 H 0.12071 0.97788 0.65714
 H528 H 0.13334 1.05196 0.83273
 C529 C 0.63002 0.52540 0.22562
 C530 C 0.61549 0.51261 0.24588
 C531 C 0.60074 0.48893 0.23935
 C532 C 0.60000 0.47829 0.21243
 C533 C 0.61490 0.49107 0.19236
 C534 C 0.63017 0.51446 0.19879
 C535 C 0.61587 0.52390 0.27402
 C536 C 0.60101 0.54695 0.28086
 C537 C 0.60038 0.55710 0.30799
 C538 C 0.61517 0.54408 0.32812
 C539 C 0.63065 0.52145 0.32121
 C540 C 0.63080 0.51134 0.29413
 H541 H 0.64173 0.54342 0.23097
 H542 H 0.58937 0.47924 0.25506
 H543 H 0.58935 0.55644 0.26519
 H544 H 0.64240 0.49361 0.28872
 H545 H 0.61460 0.48274 0.17160
 H546 H 0.61519 0.55192 0.34906
 C547 C 0.84906 0.50366 0.72483
 C548 C 0.86064 0.51490 0.74883
 C549 C 0.87555 0.53900 0.74800
 C550 C 0.87908 0.55177 0.72320
 C551 C 0.86762 0.54016 0.69918
 C552 C 0.85245 0.51605 0.69971
 C553 C 0.85638 0.50166 0.77489
 C554 C 0.86486 0.47508 0.77822
 C555 C 0.86040 0.46217 0.80284
 C556 C 0.84672 0.47609 0.82391
 C557 C 0.83779 0.50259 0.82064
 C558 C 0.84305 0.51534 0.79613
 H559 H 0.83678 0.48560 0.72607
 H560 H 0.88430 0.54783 0.76664
 H561 H 0.87492 0.46451 0.76157
 H562 H 0.83661 0.53590 0.79342
 H563 H 0.87116 0.54968 0.67999
 H564 H 0.84306 0.46631 0.84294
 C565 C 0.21158 0.34986 -0.00705
 C566 C 0.23300 0.36118 0.00836
 C567 C 0.22829 0.37207 0.03471
 C568 C 0.20249 0.37159 0.04583
 C569 C 0.18133 0.35984 0.03025
 C570 C 0.18567 0.34881 0.00383
 C571 C 0.26059 0.36017 -0.00240
 C572 C 0.26626 0.36816 -0.02900
 C573 C 0.29241 0.36635 -0.03922
 C574 C 0.31280 0.35633 -0.02259
 C575 C 0.30743 0.34830 0.00396
 C576 C 0.28131 0.35040 0.01393
 H577 H 0.21524 0.34140 -0.02735
 H578 H 0.24487 0.38061 0.04671
 H579 H 0.25035 0.37573 -0.04170
 H580 H 0.27690 0.34367 0.03421
 H581 H 0.16143 0.35913 0.03879
 H582 H 0.33314 0.35549 -0.03005
 C583 C 0.72315 0.13545 1.01976
 C584 C 0.74229 0.12152 1.00425
 C585 C 0.73524 0.11000 0.97856
 C586 C 0.70904 0.11236 0.96822
 C587 C 0.69036 0.12737 0.98364
 C588 C 0.69717 0.13870 1.00948
 C589 C 0.76977 0.11929 1.01493
 C590 C 0.77462 0.10588 1.03912
 C591 C 0.80076 0.10411 1.04960
 C592 C 0.82195 0.11663 1.03601
 C593 C 0.81722 0.13070 1.01208
 C594 C 0.79103 0.13153 1.00146
 H595 H 0.72873 0.14435 1.03958
 H596 H 0.74999 0.09848 0.96718
 H597 H 0.75810 0.09634 1.04942
 H598 H 0.78689 0.14264 0.98328
 H599 H 0.67024 0.12990 0.97579
 H600 H 0.84212 0.11556 1.04421
 C601 C 0.21665 0.63446 0.52857
 C602 C 0.23730 0.62269 0.51326
 C603 C 0.23229 0.61368 0.48618
 C604 C 0.20678 0.61643 0.47433
 C605 C 0.18643 0.62876 0.48984
 C606 C 0.19123 0.63812 0.51689
 C607 C 0.26464 0.62213 0.52499
 C608 C 0.26944 0.61060 0.55029
 C609 C 0.29501 0.61229 0.56249
 C610 C 0.31568 0.62596 0.54923
 C611 C 0.31113 0.63755 0.52394
 C612 C 0.28561 0.63525 0.51180
 H613 H 0.22072 0.64151 0.54940
 H614 H 0.24840 0.60497 0.47424
 H615 H 0.25318 0.60067 0.56063
 H616 H 0.28167 0.64482 0.49266
 H617 H 0.16688 0.63143 0.48066
 H618 H 0.33552 0.62715 0.55837
 C619 C 0.71560 0.84747 0.48361
 C620 C 0.73806 0.85740 0.49845
 C621 C 0.73474 0.86777 0.52528
 C622 C 0.70936 0.86824 0.53736
 C623 C 0.68718 0.85806 0.52221
 C624 C 0.69005 0.84753 0.49540
 C625 C 0.76514 0.85627 0.48626
 C626 C 0.76937 0.86420 0.45932
 C627 C 0.79503 0.86293 0.44788
 C628 C 0.81648 0.85391 0.46369
 C629 C 0.81270 0.84613 0.49059
 C630 C 0.78693 0.84719 0.50168
 H631 H 0.71810 0.83942 0.46296
 H632 H 0.75203 0.87535 0.53681
 H633 H 0.75277 0.87140 0.44731
 H634 H 0.78385 0.84107 0.52242
 H635 H 0.66756 0.85822 0.53141
 H636 H 0.83635 0.85311 0.45503
 C637 C -0.01470 0.21575 0.35723
 C638 C -0.00002 0.23741 0.36939
 C639 C 0.02462 0.23252 0.38227
 C640 C 0.03431 0.20611 0.38352
 C641 C 0.01969 0.18474 0.37069
 C642 C -0.00479 0.18938 0.35750
 C643 C -0.01097 0.26499 0.36967
 C644 C -0.03679 0.26980 0.37970
 C645 C -0.04677 0.29613 0.38150
 C646 C -0.03106 0.31757 0.37226
 C647 C -0.00540 0.31304 0.36170
 C648 C 0.00462 0.28665 0.36071
 H649 H -0.03365 0.21953 0.34719
 H650 H 0.03554 0.24910 0.39244
 H651 H -0.04863 0.25320 0.38717
 H652 H 0.02459 0.28292 0.35311
 H653 H 0.02712 0.16431 0.37147
 H654 H -0.03907 0.33782 0.37295
 C655 C 1.02856 0.70585 0.12816
 C656 C 1.01434 0.72773 0.11828
 C657 C 0.98706 0.72453 0.11172
 C658 C 0.97380 0.69984 0.11539
 C659 C 0.98817 0.67818 0.12576
 C660 C 1.01557 0.68102 0.13223
 C661 C 1.02744 0.75453 0.11669
 C662 C 1.05181 0.75762 0.10307
 C663 C 1.06349 0.78335 0.10108
 C664 C 1.05131 0.80586 0.11382
 C665 C 1.02736 0.80292 0.12827
 C666 C 1.01535 0.77718 0.12908
 H667 H 1.04944 0.70862 0.13394
 H668 H 0.97600 0.74150 0.10426
 H669 H 1.06112 0.74024 0.09319
 H670 H 0.99649 0.77463 0.13947
 H671 H 0.97807 0.65899 0.12841
 H672 H 1.06088 0.82554 0.11281
 C673 C 0.51446 0.20057 0.63318
 C674 C 0.50108 0.22152 0.62045
 C675 C 0.47613 0.21637 0.60779
 C676 C 0.46458 0.19039 0.60753
 C677 C 0.47785 0.16979 0.62102
 C678 C 0.50273 0.17470 0.63392
 C679 C 0.51313 0.24887 0.62031
 C680 C 0.53868 0.25287 0.60943
 C681 C 0.54945 0.27903 0.60801
 C682 C 0.53508 0.30111 0.61870
 C683 C 0.50977 0.29738 0.63044
 C684 C 0.49874 0.27112 0.63059
 H685 H 0.53360 0.20465 0.64319
 H686 H 0.46619 0.23242 0.59734
 H687 H 0.54969 0.23579 0.60110
 H688 H 0.47893 0.26785 0.63875
 H689 H 0.46891 0.14976 0.62126
 H690 H 0.54402 0.32113 0.61835
 C691 C 0.49985 0.70984 0.85185
 C692 C 0.51589 0.73122 0.86245
 C693 C 0.54018 0.72572 0.87566
 C694 C 0.54834 0.69889 0.87862
 C695 C 0.53247 0.67772 0.86694
 C696 C 0.50814 0.68303 0.85373
 C697 C 0.50660 0.75925 0.86048
 C698 C 0.48243 0.76701 0.87269
 C699 C 0.47300 0.79348 0.87060
 C700 C 0.48786 0.81181 0.85533
 C701 C 0.51239 0.80456 0.84350
 C702 C 0.52168 0.77813 0.84627
 H703 H 0.48104 0.71415 0.84177
 H704 H 0.55195 0.74228 0.88477
 H705 H 0.47146 0.75252 0.88442
 H706 H 0.54060 0.77215 0.83741
 H707 H 0.53864 0.65697 0.86880
 H708 H 0.48016 0.83184 0.85236
 C709 C 0.38630 -0.14367 0.33687
 C710 C 0.41245 -0.14876 0.32734
 C711 C 0.42291 -0.13189 0.30725
 C712 C 0.40842 -0.10956 0.29851
 C713 C 0.38264 -0.10454 0.30896
 C714 C 0.37156 -0.12205 0.32762
 C715 C 0.36867 -0.08158 0.30135
 C716 C 0.38047 -0.06278 0.28416
 C717 C 0.40593 -0.06826 0.27336
 C718 C 0.41967 -0.09153 0.28029
 H719 H 0.44305 -0.13474 0.29978
 H720 H 0.35166 -0.11869 0.33558
 H721 H 0.34884 -0.07802 0.30940
 H722 H 0.43947 -0.09495 0.27209
 H723 H 0.37674 -0.15673 0.35117
 H724 H 0.41572 -0.05408 0.26033
 C725 C 0.94317 0.36984 0.80336
 C726 C 0.92814 0.35190 0.81888
 C727 C 0.90164 0.35846 0.82568
 C728 C 0.89077 0.38319 0.81841
 C729 C 0.90640 0.40154 0.80372
 C730 C 0.93238 0.39444 0.79582
 C731 C 0.89608 0.42699 0.79794
 C732 C 0.87040 0.43444 0.80688
 C733 C 0.85477 0.41562 0.82071
 C734 C 0.86483 0.39023 0.82638
 H735 H 0.88971 0.34459 0.83727
 H736 H 0.94463 0.40822 0.78447
 H737 H 0.90845 0.44136 0.78746
 H738 H 0.85250 0.37630 0.83747
 H739 H 0.96368 0.36536 0.79805
 H740 H 0.83475 0.42062 0.82733
 C741 C 0.06185 1.16944 0.78784
 C742 C 0.04810 1.16838 0.81266
 C743 C 0.05105 1.14565 0.82869
 C744 C 0.06701 1.12403 0.81997
 C745 C 0.08043 1.12494 0.79476
 C746 C 0.07781 1.14783 0.77889
 C747 C 0.09615 1.10294 0.78597
 C748 C 0.09871 1.08024 0.80225
 C749 C 0.08531 1.07981 0.82732
 C750 C 0.06964 1.10146 0.83609
 H751 H 0.04104 1.14486 0.84819
 H752 H 0.08800 1.14897 0.75955
 H753 H 0.10653 1.10356 0.76668
 H754 H 0.05941 1.10046 0.85544
 H755 H 0.05987 1.18677 0.77516
 H756 H 0.08656 1.06240 0.83999
 C757 C 0.55286 0.67170 0.29810
 C758 C 0.53659 0.67113 0.32130
 C759 C 0.53649 0.64804 0.33715
 C760 C 0.55220 0.62573 0.32993
 C761 C 0.56827 0.62628 0.30639
 C762 C 0.56847 0.64938 0.29061
 C763 C 0.58394 0.60379 0.29919
 C764 C 0.58390 0.58091 0.31543
 C765 C 0.56792 0.58076 0.33885
 C766 C 0.55217 0.60292 0.34601
 H767 H 0.52449 0.64762 0.35545
 H768 H 0.58073 0.65020 0.27254
 H769 H 0.59642 0.60421 0.28124
 H770 H 0.53994 0.60221 0.36411
 H771 H 0.55325 0.68929 0.28563
 H772 H 0.56733 0.56326 0.35146
 C773 C 0.56274 0.35855 0.21442
 C774 C 0.54829 0.35819 0.18967
 C775 C 0.54450 0.38253 0.17638
 C776 C 0.55639 0.40659 0.18659
 C777 C 0.57184 0.40667 0.21090
 C778 C 0.57440 0.38264 0.22500
 C779 C 0.58519 0.43051 0.22007
 C780 C 0.58366 0.45398 0.20484
 C781 C 0.56749 0.45380 0.18122
 C782 C 0.55387 0.43037 0.17225
 H783 H 0.53293 0.38256 0.15755
 H784 H 0.58608 0.38230 0.24371
 H785 H 0.59771 0.43048 0.23826
 H786 H 0.54195 0.43066 0.15367
 H787 H 0.56594 0.34003 0.22499
 H788 H 0.56571 0.47179 0.16946
 C789 C 0.03772 0.87142 0.70429
 C790 C 0.05122 0.85485 0.68513
 C791 C 0.07574 0.86398 0.67471
 C792 C 0.08592 0.88974 0.68215
 C793 C 0.07181 0.90654 0.70083
 C794 C 0.04797 0.89698 0.71215
 C795 C 0.08138 0.93283 0.70722
 C796 C 0.10463 0.94269 0.69479
 C797 C 0.11879 0.92554 0.67673
 C798 C 0.10960 0.89927 0.67057
 H799 H 0.08666 0.85124 0.66033
 H800 H 0.03687 0.90956 0.72650
 H801 H 0.07021 0.94596 0.72103
 H802 H 0.12074 0.88661 0.65632
 H803 H 0.01870 0.86505 0.71248
 H804 H 0.13696 0.93255 0.66724
 C805 C 0.90659 0.66709 0.68743
 C806 C 0.93341 0.66785 0.69645
 C807 C 0.94325 0.64632 0.71141
 C808 C 0.92689 0.62375 0.71617
 C809 C 0.90034 0.62271 0.70585
 C810 C 0.89022 0.64472 0.69206
 C811 C 0.88463 0.59936 0.70878
 C812 C 0.89500 0.57708 0.72210
 C813 C 0.92098 0.57870 0.73331
 C814 C 0.93686 0.60182 0.73027
 H815 H 0.96384 0.64683 0.71864
 H816 H 0.86988 0.64429 0.68413
 H817 H 0.86446 0.59831 0.70039
 H818 H 0.95710 0.60231 0.73844
 H819 H 0.89864 0.68325 0.67558
 H820 H 0.92929 0.56169 0.74363
 C821 C 0.46058 0.13189 0.15268
 C822 C 0.45571 0.15393 0.17081
 C823 C 0.43637 0.15117 0.19126
 C824 C 0.42203 0.12673 0.19340
 C825 C 0.42702 0.10491 0.17479
 C826 C 0.44643 0.10764 0.15467
 C827 C 0.41240 0.08073 0.17643
 C828 C 0.39282 0.07783 0.19650
 C829 C 0.38823 0.09941 0.21524
 C830 C 0.40265 0.12371 0.21365
 H831 H 0.43251 0.16796 0.20542
 H832 H 0.45045 0.09113 0.14022
 H833 H 0.41643 0.06402 0.16220
 H834 H 0.39855 0.14015 0.22814
 H835 H 0.47491 0.13361 0.13637
 H836 H 0.37317 0.09761 0.23084
 C837 C 0.30192 0.44642 -0.13299
 C838 C 0.32061 0.43167 -0.14855
 C839 C 0.32757 0.40565 -0.14064
 C840 C 0.31708 0.39501 -0.11683
 C841 C 0.29904 0.41038 -0.10074
 C842 C 0.29121 0.43586 -0.10929
 C843 C 0.28993 0.40038 -0.07596
 C844 C 0.29901 0.37542 -0.06692
 C845 C 0.31613 0.35993 -0.08366
 C846 C 0.32502 0.36958 -0.10841
 H847 H 0.34162 0.39390 -0.15275
 H848 H 0.27736 0.44792 -0.09727
 H849 H 0.27686 0.41257 -0.06313
 H850 H 0.33866 0.35745 -0.12062
 H851 H 0.29632 0.46653 -0.13862
 H852 H 0.32304 0.34046 -0.07732
 C853 C 0.80336 0.94329 0.35450
 C854 C 0.82206 0.92858 0.33894
 C855 C 0.82835 0.90221 0.34618
 C856 C 0.81753 0.89126 0.36966
 C857 C 0.79981 0.90669 0.38608
 C858 C 0.79231 0.93243 0.37791
 C859 C 0.79100 0.89663 0.41097
 C860 C 0.80016 0.87159 0.41974
 C861 C 0.81661 0.85590 0.40247
 C862 C 0.82515 0.86559 0.37763
 H863 H 0.84248 0.89060 0.33403
 H864 H 0.77865 0.94452 0.39013
 H865 H 0.77840 0.90892 0.42419
 H866 H 0.83850 0.85340 0.36513
 H867 H 0.79828 0.96367 0.34926
 H868 H 0.82352 0.83637 0.40863
 C869 C 0.85804 0.02309 1.12250
 C870 C 0.84293 0.02738 1.14653
 C871 C 0.82178 0.04612 1.14578
 C872 C 0.81623 0.06023 1.12206
 C873 C 0.83201 0.05588 1.09861
 C874 C 0.85269 0.03717 1.09900
 C875 C 0.82693 0.07037 1.07511
 C876 C 0.80598 0.08898 1.07456
 C877 C 0.79001 0.09286 1.09779
 C878 C 0.79516 0.07869 1.12139
 H879 H 0.80898 0.04935 1.16327
 H880 H 0.86506 0.03368 1.08120
 H881 H 0.83906 0.06694 1.05712
 H882 H 0.78274 0.08226 1.13914
 H883 H 0.87514 0.00991 1.12193
 H884 H 0.77380 0.10719 1.09780
 C885 C 0.30104 0.52026 0.64434
 C886 C 0.31706 0.53408 0.66417
 C887 C 0.32337 0.56150 0.66089
 C888 C 0.31482 0.57464 0.63753
 C889 C 0.29921 0.56039 0.61740
 C890 C 0.29203 0.53335 0.62125
 C891 C 0.29186 0.57314 0.59338
 C892 C 0.30042 0.59975 0.58896
 C893 C 0.31542 0.61389 0.60938
 C894 C 0.32244 0.60151 0.63351
 H895 H 0.33605 0.57224 0.67584
 H896 H 0.28003 0.52212 0.60608
 H897 H 0.28048 0.56200 0.57763
 H898 H 0.33433 0.61275 0.64876
 H899 H 0.29578 0.49919 0.64655
 H900 H 0.32193 0.63453 0.60654
 C901 C 0.20351 0.53588 0.37424
 C902 C 0.18641 0.55084 0.35777
 C903 C 0.17892 0.57691 0.36689
 C904 C 0.18725 0.58737 0.39260
 C905 C 0.20366 0.57179 0.40943
 C906 C 0.21208 0.54626 0.39984
 C907 C 0.21070 0.58168 0.43582
 C908 C 0.20129 0.60686 0.44568
 C909 C 0.18570 0.62248 0.42835
 C910 C 0.17877 0.61286 0.40207
 H911 H 0.16609 0.58884 0.35419
 H912 H 0.22472 0.53404 0.41241
 H913 H 0.22262 0.56937 0.44901
 H914 H 0.16636 0.62516 0.38934
 H915 H 0.20941 0.51569 0.36778
 H916 H 0.17869 0.64218 0.43520
 C917 C 0.71844 0.06668 0.84858
 C918 C 0.69183 0.05699 0.84548
 C919 C 0.67469 0.05969 0.86817
 C920 C 0.68347 0.07218 0.89276
 C921 C 0.70981 0.08262 0.89521
 C922 C 0.72720 0.07960 0.87303
 C923 C 0.71821 0.09585 0.91977
 C924 C 0.70064 0.09833 0.94206
 C925 C 0.67473 0.08698 0.93943
 C926 C 0.66618 0.07426 0.91502
 H927 H 0.65462 0.05116 0.86729
 H928 H 0.74755 0.08739 0.87452
 H929 H 0.73823 0.10449 0.92135
 H930 H 0.64602 0.06597 0.91359
 H931 H 0.73232 0.06551 0.83178
 H932 H 0.66100 0.08769 0.95638
 C933 C 0.72224 0.95055 0.63538
 C934 C 0.70256 0.93935 0.65209
 C935 C 0.68994 0.91490 0.64345
 C936 C 0.69600 0.90246 0.61812
 C937 C 0.71505 0.91446 0.60107
 C938 C 0.72841 0.93824 0.61012
 C939 C 0.71986 0.90289 0.57500
 C940 C 0.70581 0.87944 0.56569
 C941 C 0.68762 0.86721 0.58332
 C942 C 0.68270 0.87863 0.60922
 H943 H 0.67442 0.90616 0.65580
 H944 H 0.74326 0.94762 0.59743
 H945 H 0.73379 0.91271 0.56163
 H946 H 0.66821 0.86902 0.62214
 H947 H 0.73260 0.96910 0.64165
 H948 H 0.67702 0.84879 0.57703
 C949 C 0.20875 0.45653 0.14195
 C950 C 0.19079 0.44368 0.15933
 C951 C 0.18022 0.41810 0.15137
 C952 C 0.18664 0.40601 0.12596
 C953 C 0.20422 0.41941 0.10838
 C954 C 0.21550 0.44446 0.11676
 C955 C 0.20971 0.40787 0.08247
 C956 C 0.19766 0.38316 0.07374
 C957 C 0.18059 0.36981 0.09164
 C958 C 0.17515 0.38110 0.11750
 H959 H 0.16602 0.40817 0.16439
 H960 H 0.22911 0.45498 0.10360
 H961 H 0.22269 0.41852 0.06878
 H962 H 0.16172 0.37049 0.13076
 H963 H 0.21731 0.47613 0.14772
 H964 H 0.17144 0.35054 0.08564
 C965 C -0.12720 0.35681 0.45548
 C966 C -0.15059 0.34282 0.44664
 C967 C -0.14844 0.32102 0.42756
 C968 C -0.12336 0.31398 0.41677
 C969 C -0.10023 0.32889 0.42524
 C970 C -0.10232 0.34999 0.44484
 C971 C -0.07537 0.32269 0.41381
 C972 C -0.07310 0.30166 0.39401
 C973 C -0.09599 0.28641 0.38616
 C974 C -0.12097 0.29260 0.39736
 H975 H -0.16629 0.31009 0.42054
 H976 H -0.08473 0.36139 0.45177
 H977 H -0.05770 0.33424 0.42030
 H978 H -0.13842 0.28087 0.39065
 H979 H -0.12815 0.37319 0.47067
 H980 H -0.09462 0.27010 0.37092
 C981 C 0.35674 0.78592 0.91501
 C982 C 0.35492 0.81304 0.92397
 C983 C 0.37715 0.83035 0.92171
 C984 C 0.40092 0.82089 0.91009
 C985 C 0.40248 0.79380 0.90017
 C986 C 0.38033 0.77638 0.90299
 C987 C 0.42600 0.78478 0.88736
 C988 C 0.44813 0.80243 0.88472
 C989 C 0.44645 0.82903 0.89568
 C990 C 0.42306 0.83822 0.90799
 H991 H 0.37577 0.85128 0.92885
 H992 H 0.38116 0.75550 0.89567
 H993 H 0.42678 0.76426 0.87898
 H994 H 0.42229 0.85894 0.91585
 H995 H 0.33969 0.77238 0.91663
 H996 H 0.46334 0.84288 0.89487
 C997 C 1.13361 0.83399 0.01330
 C998 C 1.15833 0.82349 0.02156
 C999 C 1.15880 0.80469 0.04242
 C1000 C 1.13506 0.79778 0.05589
 C1001 C 1.11065 0.80975 0.04829
 C1002 C 1.11005 0.82729 0.02659
 C1003 C 1.08733 0.80450 0.06292
 C1004 C 1.08789 0.78717 0.08487
 C1005 C 1.11186 0.77439 0.09166
 C1006 C 1.13536 0.77979 0.07738
 H1007 H 1.17769 0.79645 0.04900
 H1008 H 1.09143 0.83630 0.02025
 H1009 H 1.06872 0.81413 0.05748
 H1010 H 1.15380 0.77028 0.08341
 H1011 H 1.13257 0.84794 -0.00316
 H1012 H 1.11251 0.76088 0.10853
 C1013 C 0.62734 0.32979 0.52683
 C1014 C 0.65119 0.31969 0.53771
 C1015 C 0.64988 0.30191 0.55940
 C1016 C 0.62505 0.29495 0.57060
 C1017 C 0.60131 0.30616 0.56016
 C1018 C 0.60264 0.32317 0.53800
 C1019 C 0.57670 0.30062 0.57239
 C1020 C 0.57536 0.28363 0.59461
 C1021 C 0.59879 0.27168 0.60424
 C1022 C 0.62352 0.27746 0.59245
 H1023 H 0.66819 0.29394 0.56781
 H1024 H 0.58462 0.33182 0.52969
 H1025 H 0.55853 0.30961 0.56475
 H1026 H 0.64146 0.26853 0.60062
 H1027 H 0.62789 0.34378 0.51037
 H1028 H 0.59800 0.25846 0.62134
 C1029 C 0.34719 0.20618 0.56858
 C1030 C 0.34464 0.18168 0.55333
 C1031 C 0.36697 0.16479 0.55078
 C1032 C 0.39114 0.17158 0.56411
 C1033 C 0.39342 0.19593 0.57996
 C1034 C 0.37140 0.21326 0.58179
 C1035 C 0.41753 0.20225 0.59393
 C1036 C 0.43923 0.18437 0.59238
 C1037 C 0.43672 0.16045 0.57618
 C1038 C 0.41294 0.15413 0.56215
 H1039 H 0.36545 0.14612 0.53856
 H1040 H 0.37277 0.23204 0.59380
 H1041 H 0.41921 0.22069 0.60646
 H1042 H 0.41152 0.13547 0.54994
 H1043 H 0.33025 0.21949 0.57089
 H1044 H 0.45330 0.14664 0.57421
 C1045 C 0.87001 0.70539 0.04556
 C1046 C 0.85289 0.69225 0.06360
 C1047 C 0.86293 0.68552 0.08940
 C1048 C 0.88995 0.69009 0.09633
 C1049 C 0.90710 0.70263 0.07774
 C1050 C 0.89680 0.71073 0.05266
 C1051 C 0.93439 0.70621 0.08426
 C1052 C 0.94483 0.69689 0.10890
 C1053 C 0.92752 0.68467 0.12733
 C1054 C 0.90028 0.68148 0.12120
 H1055 H 0.84992 0.67595 0.10384
 H1056 H 0.90967 0.72037 0.03814
 H1057 H 0.94765 0.71549 0.06984
 H1058 H 0.88738 0.67185 0.13570
 H1059 H 0.86307 0.71054 0.02545
 H1060 H 0.93508 0.67770 0.14659
 C1061 C 0.66312 0.71235 0.92858
 C1062 C 0.66109 0.69140 0.94706
 C1063 C 0.63734 0.67590 0.94750
 C1064 C 0.61578 0.68140 0.93019
 C1065 C 0.61776 0.70273 0.91193
 C1066 C 0.64160 0.71803 0.91122
 C1067 C 0.59586 0.70833 0.89483
 C1068 C 0.57209 0.69276 0.89577
 C1069 C 0.57060 0.67155 0.91402
 C1070 C 0.59221 0.66589 0.93099
 H1071 H 0.63572 0.65925 0.96117
 H1072 H 0.64356 0.73443 0.89732
 H1073 H 0.59734 0.72464 0.88075
 H1074 H 0.59037 0.64952 0.94495
 H1075 H 0.68121 0.72456 0.92784
 H1076 H 0.55243 0.65960 0.91561
 C1077 C 0.15229 0.21784 0.42416
 C1078 C 0.15166 0.19640 0.44216
 C1079 C 0.12763 0.18182 0.44521
 C1080 C 0.10463 0.18825 0.43039
 C1081 C 0.10534 0.20987 0.41236
 C1082 C 0.12926 0.22466 0.40952
 C1083 C 0.08225 0.21598 0.39725
 C1084 C 0.05870 0.20039 0.39967
 C1085 C 0.05834 0.17904 0.41777
 C1086 C 0.08104 0.17308 0.43304
 H1087 H 0.12705 0.16484 0.45856
 H1088 H 0.13024 0.24127 0.39577
 H1089 H 0.08273 0.23240 0.38324
 H1090 H 0.08018 0.15647 0.44681
 H1091 H 0.17060 0.22934 0.42148
 H1092 H 0.04030 0.16706 0.42028
 C1093 C 0.59633 0.10087 0.66578
 C1094 C 0.58221 0.08484 0.68406
 C1095 C 0.55487 0.08978 0.68839
 C1096 C 0.54193 0.11059 0.67493
 C1097 C 0.55650 0.12681 0.65697
 C1098 C 0.58363 0.12168 0.65244
 C1099 C 0.54368 0.14785 0.64381
 C1100 C 0.51636 0.15273 0.64812
 C1101 C 0.50201 0.13637 0.66584
 C1102 C 0.51470 0.11556 0.67923
 H1103 H 0.54377 0.07782 0.70261
 H1104 H 0.59506 0.13376 0.63859
 H1105 H 0.55481 0.16018 0.62992
 H1106 H 0.50321 0.10336 0.69293
 H1107 H 0.61726 0.09723 0.66165
 H1108 H 0.48098 0.13993 0.66959
 C1109 C 1.03676 0.58789 0.21047
 C1110 C 1.06329 0.58276 0.20268
 C1111 C 1.07463 0.59761 0.18169
 C1112 C 1.05988 0.61756 0.16890
 C1113 C 1.03333 0.62277 0.17710
 C1114 C 1.02192 0.60774 0.19782
 C1115 C 1.01878 0.64314 0.16470
 C1116 C 1.03046 0.65850 0.14426
 C1117 C 1.05677 0.65288 0.13605
 C1118 C 1.07133 0.63257 0.14822
 H1119 H 1.09493 0.59354 0.17520
 H1120 H 1.00160 0.61149 0.20439
 H1121 H 0.99864 0.64751 0.17147
 H1122 H 1.09162 0.62876 0.14160
 H1123 H 1.02765 0.57690 0.22673
 H1124 H 1.06608 0.66421 0.12014
 C1125 C 0.96034 0.86247 0.21692
 C1126 C 0.96013 0.88787 0.20514
 C1127 C 0.97461 0.89186 0.18115
 C1128 C 0.98853 0.87040 0.16856
 C1129 C 0.98851 0.84488 0.18053
 C1130 C 0.97464 0.84120 0.20486
 C1131 C 1.00189 0.82328 0.16769
 C1132 C 1.01472 0.82647 0.14254
 C1133 C 1.01477 0.85203 0.13093
 C1134 C 1.00194 0.87383 0.14391
 H1135 H 0.97425 0.91137 0.17183
 H1136 H 0.97442 0.82176 0.21429
 H1137 H 1.00214 0.80389 0.17725
 H1138 H 1.00206 0.89323 0.13439
 H1139 H 0.94937 0.85910 0.23547
 H1140 H 1.02419 0.85506 0.11146
 C1141 C 0.43826 0.35855 0.71446
 C1142 C 0.44026 0.38418 0.70327
 C1143 C 0.45553 0.38746 0.67966
 C1144 C 0.46858 0.36534 0.66727
 C1145 C 0.46676 0.33970 0.67891
 C1146 C 0.45156 0.33653 0.70251
 C1147 C 0.48018 0.31768 0.66680
 C1148 C 0.49514 0.32072 0.64288
 C1149 C 0.49639 0.34626 0.63125
 C1150 C 0.48337 0.36837 0.64340
 H1151 H 0.45688 0.40714 0.67075
 H1152 H 0.44989 0.31701 0.71168
 H1153 H 0.47931 0.29829 0.67632
 H1154 H 0.48479 0.38782 0.63406
 H1155 H 0.42668 0.35567 0.73271
 H1156 H 0.50729 0.34916 0.61259
 C1157 C 0.47939 0.57657 0.78894
 C1158 C 0.45232 0.57517 0.79632
 C1159 C 0.44171 0.59571 0.81340
 C1160 C 0.45795 0.61738 0.82308
 C1161 C 0.48532 0.61835 0.81597
 C1162 C 0.49581 0.59788 0.79882
 C1163 C 0.50168 0.63977 0.82611
 C1164 C 0.49090 0.66051 0.84284
 C1165 C 0.46359 0.65958 0.84938
 C1166 C 0.44729 0.63813 0.83973
 H1167 H 0.42074 0.59494 0.81889
 H1168 H 0.51671 0.59833 0.79309
 H1169 H 0.52268 0.64052 0.82077
 H1170 H 0.42635 0.63775 0.84531
 H1171 H 0.48796 0.56086 0.77590
 H1172 H 0.45497 0.67528 0.86239
 C1173 C -0.02301 0.08329 0.28871
 C1174 C -0.05025 0.07967 0.29460
 C1175 C -0.06324 0.09906 0.31125
 C1176 C -0.04912 0.12172 0.32208
 C1177 C -0.02157 0.12490 0.31645
 C1178 C -0.00875 0.10566 0.29963
 C1179 C -0.00728 0.14717 0.32786
 C1180 C -0.02020 0.16648 0.34465
 C1181 C -0.04770 0.16345 0.34967
 C1182 C -0.06203 0.14120 0.33856
 H1183 H -0.08435 0.09658 0.31559
 H1184 H 0.01234 0.10782 0.29505
 H1185 H 0.01387 0.14956 0.32364
 H1186 H -0.08314 0.13912 0.34303
 H1187 H -0.01261 0.06850 0.27606
 H1188 H -0.05797 0.17801 0.36271
 C1189 C 0.06769 0.37505 0.28308
 C1190 C 0.06821 0.39997 0.29782
 C1191 C 0.05417 0.40238 0.32251
 C1192 C 0.03991 0.38029 0.33240
 C1193 C 0.03952 0.35535 0.31743
 C1194 C 0.05347 0.35295 0.29279
 C1195 C 0.02503 0.33333 0.32725
 C1196 C 0.01079 0.33596 0.35181
 C1197 C 0.01152 0.36083 0.36660
 C1198 C 0.02594 0.38279 0.35700
 H1199 H 0.05403 0.42157 0.33389
 H1200 H 0.05345 0.33397 0.28106
 H1201 H 0.02437 0.31434 0.31552
 H1202 H 0.02611 0.40173 0.36879
 H1203 H 0.07862 0.37251 0.26421
 H1204 H 0.00102 0.36326 0.38575
 C1205 C 0.56056 0.91737 0.82168
 C1206 C 0.57424 0.91039 0.79754
 C1207 C 0.57246 0.88363 0.78689
 C1208 C 0.55768 0.86401 0.80056
 C1209 C 0.54435 0.87132 0.82499
 C1210 C 0.54577 0.89806 0.83526
 C1211 C 0.52989 0.85179 0.83889
 C1212 C 0.52827 0.82489 0.82872
 C1213 C 0.54163 0.81777 0.80442
 C1214 C 0.55621 0.83715 0.79046
 H1215 H 0.58311 0.87796 0.76843
 H1216 H 0.53555 0.90402 0.85389
 H1217 H 0.52013 0.85751 0.85787
 H1218 H 0.56626 0.83114 0.77176
 H1219 H 0.56129 0.93791 0.83007
 H1220 H 0.54049 0.79727 0.79596
 C1221 C 0.67537 0.60662 0.12989
 C1222 C 0.69016 0.59064 0.11081
 C1223 C 0.69020 0.56232 0.11443
 C1224 C 0.67590 0.55062 0.13555
 C1225 C 0.66121 0.56707 0.15394
 C1226 C 0.66120 0.59500 0.15099
 C1227 C 0.64657 0.55529 0.17482
 C1228 C 0.64636 0.52713 0.17744
 C1229 C 0.66137 0.51095 0.15923
 C1230 C 0.67606 0.52258 0.13853
 H1231 H 0.70223 0.54898 0.10179
 H1232 H 0.64983 0.60794 0.16480
 H1233 H 0.63491 0.56793 0.18863
 H1234 H 0.68737 0.50960 0.12472
 H1235 H 0.67313 0.62813 0.12809
 H1236 H 0.66186 0.48924 0.16110
 C1237 C 0.19633 1.03717 0.57921
 C1238 C 0.18938 1.06445 0.57712
 C1239 C 0.17077 1.07571 0.59555
 C1240 C 0.15990 1.06025 0.61623
 C1241 C 0.16734 1.03297 0.61834
 C1242 C 0.18536 1.02156 0.59958
 C1243 C 0.15703 1.01772 0.63949
 C1244 C 0.13956 1.02946 0.65876
 C1245 C 0.13208 1.05653 0.65628
 C1246 C 0.14206 1.07176 0.63513
 H1247 H 0.16485 1.09658 0.59392
 H1248 H 0.19132 1.00068 0.60094
 H1249 H 0.16320 0.99696 0.64141
 H1250 H 0.13609 1.09263 0.63376
 H1251 H 0.21082 1.02806 0.56553
 H1252 H 0.11845 1.06589 0.67073
 C1253 C 0.18285 0.92347 0.87095
 C1254 C 0.20300 0.93699 0.88720
 C1255 C 0.20690 0.96503 0.88299
 C1256 C 0.19155 0.97862 0.86374
 C1257 C 0.17208 0.96432 0.84779
 C1258 C 0.16793 0.93685 0.85157
 C1259 C 0.15687 0.97775 0.82842
 C1260 C 0.16061 1.00554 0.82498
 C1261 C 0.17987 1.01978 0.84107
 C1262 C 0.19536 1.00640 0.86015
 H1263 H 0.22248 0.97662 0.89361
 H1264 H 0.15272 0.92567 0.83979
 H1265 H 0.14180 0.96670 0.81631
 H1266 H 0.21020 1.01781 0.87218
 H1267 H 0.17711 0.90269 0.87364
 H1268 H 0.18314 1.04121 0.83862
 C1269 C 0.65329 0.45894 0.42576
 C1270 C 0.68105 0.45586 0.42214
 C1271 C 0.69325 0.46788 0.39974
 C1272 C 0.67797 0.48179 0.38080
 C1273 C 0.65013 0.48471 0.38469
 C1274 C 0.63805 0.47343 0.40737
 C1275 C 0.63481 0.49837 0.36552
 C1276 C 0.64690 0.50838 0.34215
 C1277 C 0.67452 0.50530 0.33839
 C1278 C 0.69001 0.49238 0.35772
 H1279 H 0.71465 0.46631 0.39684
 H1280 H 0.61671 0.47530 0.41058
 H1281 H 0.61342 0.50055 0.36831
 H1282 H 0.71131 0.49026 0.35439
 H1283 H 0.64313 0.44959 0.44244
 H1284 H 0.68410 0.51301 0.32049
 C1285 C 0.80785 0.42458 0.62169
 C1286 C 0.79935 0.44078 0.60031
 C1287 C 0.80343 0.46897 0.60299
 C1288 C 0.81564 0.48067 0.62657
 C1289 C 0.82458 0.46402 0.64748
 C1290 C 0.82061 0.43603 0.64484
 C1291 C 0.83712 0.47561 0.67085
 C1292 C 0.84009 0.50384 0.67425
 C1293 C 0.83077 0.52024 0.65338
 C1294 C 0.81895 0.50876 0.62967
 H1295 H 0.79742 0.48185 0.58670
 H1296 H 0.82705 0.42298 0.66085
 H1297 H 0.84465 0.46250 0.68630
 H1298 H 0.81201 0.52188 0.61394
 H1299 H 0.80441 0.40295 0.62076
 H1300 H 0.83218 0.54204 0.65550
 C1301 C 0.32971 -0.07837 0.08882
 C1302 C 0.31415 -0.06337 0.07089
 C1303 C 0.31003 -0.03578 0.07698
 C1304 C 0.32116 -0.02337 0.10074
 C1305 C 0.33646 -0.03875 0.11881
 C1306 C 0.34071 -0.06620 0.11260
 C1307 C 0.34720 -0.02644 0.14281
 C1308 C 0.34308 0.00114 0.14888
 C1309 C 0.32811 0.01631 0.13062
 C1310 C 0.31718 0.00416 0.10680
 H1311 H 0.29832 -0.02397 0.06314
 H1312 H 0.35239 -0.07830 0.12620
 H1313 H 0.35899 -0.03823 0.15663
 H1314 H 0.30552 0.01627 0.09319
 H1315 H 0.33291 -0.09972 0.08472
 H1316 H 0.32450 0.03754 0.13501
 C1317 C 0.31047 0.09538 0.37693
 C1318 C 0.29223 0.08076 0.39251
 C1319 C 0.28640 0.05365 0.38503
 C1320 C 0.29927 0.04105 0.36271
 C1321 C 0.31776 0.05591 0.34732
 C1322 C 0.32300 0.08312 0.35444
 C1323 C 0.33106 0.04318 0.32538
 C1324 C 0.32648 0.01564 0.31885
 C1325 C 0.30800 0.00108 0.33420
 C1326 C 0.29440 0.01369 0.35585
 H1327 H 0.27256 0.04218 0.39712
 H1328 H 0.33708 0.09482 0.34286
 H1329 H 0.34551 0.05450 0.31386
 H1330 H 0.28031 0.00199 0.36740
 H1331 H 0.31505 0.11636 0.38223
 H1332 H 0.30398 -0.02010 0.32934
 C1333 C 0.81515 0.54530 0.93836
 C1334 C 0.79336 0.56173 0.93207
 C1335 C 0.78364 0.56174 0.90507
 C1336 C 0.79620 0.54631 0.88441
 C1337 C 0.81847 0.53030 0.89088
 C1338 C 0.82754 0.52964 0.91798
 C1339 C 0.83168 0.51571 0.87008
 C1340 C 0.82309 0.51706 0.84278
 C1341 C 0.80066 0.53271 0.83664
 C1342 C 0.78731 0.54717 0.85726
 H1343 H 0.76704 0.57459 0.89997
 H1344 H 0.84451 0.51740 0.92334
 H1345 H 0.84913 0.50396 0.87504
 H1346 H 0.77022 0.55925 0.85193
 H1347 H 0.82279 0.54478 0.95909
 H1348 H 0.79341 0.53373 0.81582
 C1349 C 0.07648 0.66710 0.55481
 C1350 C 0.08355 0.68962 0.57176
 C1351 C 0.11068 0.69717 0.57461
 C1352 C 0.13050 0.68246 0.56072
 C1353 C 0.12321 0.65974 0.54387
 C1354 C 0.09613 0.65221 0.54107
 C1355 C 0.14308 0.64503 0.53000
 C1356 C 0.17019 0.65294 0.53242
 C1357 C 0.17710 0.67569 0.54919
 C1358 C 0.15749 0.69022 0.56329
 H1359 H 0.11632 0.71471 0.58736
 H1360 H 0.09016 0.63485 0.52824
 H1361 H 0.13742 0.62738 0.51742
 H1362 H 0.16341 0.70769 0.57598
 H1363 H 0.05573 0.66075 0.55252
 H1364 H 0.19769 0.68264 0.55102
 C1365 C 0.60390 0.21732 1.03245
 C1366 C 0.59986 0.21105 1.05988
 C1367 C 0.61674 0.19223 1.07197
 C1368 C 0.63708 0.17963 1.05687
 C1369 C 0.64060 0.18573 1.02918
 C1370 C 0.62404 0.20475 1.01723
 C1371 C 0.66044 0.17253 1.01387
 C1372 C 0.67692 0.15338 1.02591
 C1373 C 0.67357 0.14782 1.05358
 C1374 C 0.65376 0.16077 1.06891
 H1375 H 0.61366 0.18684 1.09295
 H1376 H 0.62658 0.20980 0.99609
 H1377 H 0.66313 0.17715 0.99261
 H1378 H 0.65134 0.15588 1.09012
 H1379 H 0.59151 0.23204 1.02275
 H1380 H 0.68592 0.13299 1.06318
 C1381 C 0.88080 0.17714 0.91632
 C1382 C 0.89974 0.19324 0.93166
 C1383 C 0.89847 0.19220 0.96056
 C1384 C 0.87914 0.17630 0.97332
 C1385 C 0.86050 0.16087 0.95738
 C1386 C 0.86162 0.16133 0.92897
 C1387 C 0.84081 0.14545 0.97009
 C1388 C 0.83926 0.14545 0.99871
 C1389 C 0.85813 0.16065 1.01445
 C1390 C 0.87789 0.17591 1.00189
 H1391 H 0.91134 0.20475 0.97370
 H1392 H 0.84767 0.14929 0.91641
 H1393 H 0.82660 0.13355 0.95770
 H1394 H 0.89197 0.18768 1.01453
 H1395 H 0.88116 0.17532 0.89431
 H1396 H 0.85718 0.16132 1.03653
 C1397 C 0.37957 0.67721 0.42845
 C1398 C 0.39490 0.69677 0.44341
 C1399 C 0.39117 0.69983 0.47176
 C1400 C 0.37209 0.68394 0.48487
 C1401 C 0.35646 0.66477 0.46946
 C1402 C 0.36050 0.66143 0.44133
 C1403 C 0.33689 0.64941 0.48239
 C1404 C 0.33270 0.65287 0.51059
 C1405 C 0.34865 0.67164 0.52583
 C1406 C 0.36814 0.68709 0.51308
 H1407 H 0.40266 0.71495 0.48353
 H1408 H 0.34886 0.64667 0.42925
 H1409 H 0.32489 0.63475 0.47053
 H1410 H 0.37992 0.70167 0.52523
 H1411 H 0.38242 0.67398 0.40671
 H1412 H 0.34559 0.67483 0.54755
 C1413 C 0.57098 0.83704 0.45882
 C1414 C 0.57318 0.81307 0.44274
 C1415 C 0.59844 0.80102 0.43996
 C1416 C 0.62112 0.81268 0.45307
 C1417 C 0.61861 0.83677 0.46913
 C1418 C 0.59347 0.84880 0.47184
 C1419 C 0.64123 0.84836 0.48237
 C1420 C 0.66640 0.83602 0.48012
 C1421 C 0.66865 0.81212 0.46392
 C1422 C 0.64626 0.80061 0.45046
 H1423 H 0.60055 0.78278 0.42730
 H1424 H 0.59116 0.86723 0.48416
 H1425 H 0.63922 0.86702 0.49439
 H1426 H 0.64855 0.78210 0.43828
 H1427 H 0.55176 0.84657 0.46161
 H1428 H 0.68765 0.80194 0.46212
 C1429 C 0.06977 0.33269 -0.04091
 C1430 C 0.07406 0.30875 -0.05650
 C1431 C 0.09974 0.29739 -0.05668
 C1432 C 0.12088 0.30992 -0.04177
 C1433 C 0.11636 0.33411 -0.02638
 C1434 C 0.09071 0.34526 -0.02601
 C1435 C 0.13756 0.34679 -0.01171
 C1436 C 0.16331 0.33559 -0.01206
 C1437 C 0.16753 0.31146 -0.02738
 C1438 C 0.14654 0.29878 -0.04212
 H1439 H 0.10342 0.27914 -0.06888
 H1440 H 0.08684 0.36372 -0.01423
 H1441 H 0.13406 0.36556 -0.00029
 H1442 H 0.15037 0.28020 -0.05372
 H1443 H 0.05012 0.34167 -0.04013
 H1444 H 0.18702 0.30213 -0.02764
 C1445 C 0.40775 0.28189 0.03172
 C1446 C 0.41085 0.29133 0.05897
 C1447 C 0.39222 0.30965 0.07004
 C1448 C 0.37103 0.31880 0.05400
 C1449 C 0.36836 0.30953 0.02648
 C1450 C 0.38671 0.29094 0.01559
 C1451 C 0.34749 0.31913 0.01028
 C1452 C 0.32915 0.33781 0.02126
 C1453 C 0.33179 0.34660 0.04875
 C1454 C 0.35257 0.33721 0.06498
 H1455 H 0.39419 0.31674 0.09116
 H1456 H 0.38494 0.28361 -0.00546
 H1457 H 0.34539 0.31195 -0.01080
 H1458 H 0.35432 0.34450 0.08604
 H1459 H 0.42198 0.26795 0.02270
 H1460 H 0.31801 0.36115 0.05756
 C1461 C 0.87657 0.77382 0.56815
 C1462 C 0.90106 0.78809 0.56738
 C1463 C 0.90288 0.81112 0.55153
 C1464 C 0.88060 0.81990 0.53683
 C1465 C 0.85606 0.80547 0.53781
 C1466 C 0.85428 0.78243 0.55350
 C1467 C 0.83381 0.81426 0.52297
 C1468 C 0.83585 0.83721 0.50702
 C1469 C 0.86035 0.85145 0.50636
 C1470 C 0.88251 0.84289 0.52112
 H1471 H 0.92172 0.82209 0.55040
 H1472 H 0.83563 0.77113 0.55453
 H1473 H 0.81510 0.80298 0.52340
 H1474 H 0.90114 0.85425 0.52022
 H1475 H 0.87451 0.75623 0.58046
 H1476 H 0.86231 0.86939 0.49453
   
