data_POSCAR
  _audit_creation_date              2014-09-24
  _audit_creation_method            'ToBaCCo'
  _symmetry_space_group_name_H-M    'P1'
  _symmetry_Int_Tables_number       1
  _symmetry_cell_setting            triclinic
  loop_
  _symmetry_equiv_pos_as_xyz
 x,y,z
_cell_length_a 48.6209
_cell_length_b 48.7187
_cell_length_c 48.7602
_cell_angle_alpha 90.045900
_cell_angle_beta 90.044200
_cell_angle_gamma 89.990000
loop_
  _atom_site_label
  _atom_site_type_symbol
  _atom_site_fract_x
  _atom_site_fract_y
  _atom_site_fract_z
C1 C 0.26459 1.07225 0.00027
 C2 C 0.26712 1.05766 0.02501
 C3 C 0.26499 1.02887 0.02411
 C4 C 0.25898 1.01479 -0.00054
 C5 C 0.25527 1.03046 -0.02469
 C6 C 0.25932 1.05913 -0.02492
 C7 C 0.25771 0.98385 -0.00122
 C8 C 0.26196 0.96920 -0.02597
 C9 C 0.26150 0.94043 -0.02658
 C10 C 0.25808 0.92594 -0.00208
 C11 C 0.25465 0.93969 0.02290
 C12 C 0.25331 0.96848 0.02305
 H13 H 0.26420 1.09442 0.00098
 H14 H 0.26948 1.01754 0.04257
 H15 H 0.25028 1.02023 -0.04362
 H16 H 0.26651 0.97971 -0.04491
 H17 H 0.25774 0.90370 -0.00248
 H18 H 0.24940 0.97858 0.04237
 C19 C 0.76053 0.57227 0.50164
 C20 C 0.76274 0.55758 0.52615
 C21 C 0.76182 0.52883 0.52546
 C22 C 0.75727 0.51442 0.50062
 C23 C 0.75413 0.53006 0.47631
 C24 C 0.75687 0.55875 0.47659
 C25 C 0.75674 0.48343 0.50001
 C26 C 0.76057 0.46883 0.47517
 C27 C 0.76068 0.44005 0.47458
 C28 C 0.75833 0.42551 0.49918
 C29 C 0.75531 0.43923 0.52421
 C30 C 0.75336 0.46796 0.52438
 H31 H 0.76120 0.59450 0.50209
 H32 H 0.76542 0.51818 0.54451
 H33 H 0.75006 0.52035 0.45685
 H34 H 0.76427 0.47935 0.45607
 H35 H 0.75844 0.40327 0.49883
 H36 H 0.74975 0.47785 0.54384
 C37 C 0.73551 1.00192 1.07414
 C38 C 0.73945 0.97639 1.06123
 C39 C 0.74320 0.97609 1.03256
 C40 C 0.74017 1.00018 1.01663
 C41 C 0.73511 1.02517 1.03053
 C42 C 0.73377 1.02657 1.05930
 C43 C 0.74125 0.99924 0.98568
 C44 C 0.74517 1.02349 0.97013
 C45 C 0.74338 1.02321 0.94143
 C46 C 0.74028 0.99815 0.92780
 C47 C 0.73762 0.97361 0.94239
 C48 C 0.73738 0.97431 0.97116
 H49 H 0.73634 1.00276 1.09628
 H50 H 0.74734 0.95680 1.02264
 H51 H 0.73081 1.04362 1.01914
 H52 H 0.74901 1.04297 0.97994
 H53 H 0.74033 0.99776 0.90557
 H54 H 0.73336 0.95527 0.98169
 C55 C 0.24045 0.49561 0.57184
 C56 C 0.23817 0.47134 0.55670
 C57 C 0.23882 0.47255 0.52797
 C58 C 0.24302 0.49772 0.51405
 C59 C 0.24626 0.52175 0.53014
 C60 C 0.24387 0.52095 0.55881
 C61 C 0.24308 0.49904 0.48312
 C62 C 0.23855 0.52416 0.46923
 C63 C 0.23815 0.52547 0.44051
 C64 C 0.24091 0.50126 0.42531
 C65 C 0.24459 0.47592 0.43831
 C66 C 0.24675 0.47509 0.46702
 H67 H 0.24000 0.49475 0.59405
 H68 H 0.23523 0.45368 0.51694
 H69 H 0.25013 0.54141 0.52075
 H70 H 0.23453 0.54292 0.48028
 H71 H 0.24062 0.50218 0.40310
 H72 H 0.25079 0.45548 0.47643
 C73 C 1.07460 0.24471 -0.00171
 C74 C 1.06087 0.24123 0.02348
 C75 C 1.03189 0.24326 0.02360
 C76 C 1.01693 0.25012 -0.00036
 C77 C 1.03174 0.25455 -0.02482
 C78 C 1.06028 0.25129 -0.02572
 C79 C 0.98611 0.25306 0.00017
 C80 C 0.97033 0.25053 -0.02414
 C81 C 0.94171 0.25547 -0.02434
 C82 C 0.92871 0.26043 0.00098
 C83 C 0.94360 0.26179 0.02550
 C84 C 0.97223 0.25896 0.02488
 H85 H 1.09679 0.24356 -0.00279
 H86 H 1.02101 0.23833 0.04224
 H87 H 1.02153 0.26129 -0.04331
 H88 H 0.98048 0.24569 -0.04316
 H89 H 0.90651 0.26160 0.00210
 H90 H 0.98338 0.26180 0.04385
 C91 C 0.57099 0.74638 0.50127
 C92 C 0.55672 0.75115 0.52574
 C93 C 0.52788 0.75145 0.52548
 C94 C 0.51306 0.74616 0.50111
 C95 C 0.52802 0.74096 0.47682
 C96 C 0.55688 0.74152 0.47670
 C97 C 0.48222 0.74622 0.50101
 C98 C 0.46740 0.75226 0.47684
 C99 C 0.43855 0.75209 0.47659
 C100 C 0.42428 0.74671 0.50094
 C101 C 0.43843 0.74107 0.52533
 C102 C 0.46727 0.74037 0.52514
 H103 H 0.59328 0.74654 0.50133
 H104 H 0.51727 0.75646 0.54430
 H105 H 0.51751 0.73596 0.45791
 H106 H 0.47802 0.75775 0.45816
 H107 H 0.40200 0.74696 0.50092
 H108 H 0.47779 0.73473 0.54385
 C109 C -0.00120 0.75097 -0.07185
 C110 C 0.02314 0.75565 -0.05727
 C111 C 0.02233 0.75684 -0.02865
 C112 C -0.00232 0.75202 -0.01415
 C113 C -0.02663 0.74732 -0.02934
 C114 C -0.02654 0.74721 -0.05831
 C115 C -0.00234 0.75153 0.01666
 C116 C -0.02647 0.75701 0.03194
 C117 C -0.02627 0.75702 0.06094
 C118 C -0.00103 0.75226 0.07437
 C119 C 0.02303 0.74670 0.05968
 C120 C 0.02211 0.74571 0.03108
 H121 H -0.00021 0.75125 -0.09400
 H122 H 0.04113 0.76196 -0.01797
 H123 H -0.04543 0.74229 -0.01869
 H124 H -0.04516 0.76266 0.02137
 H125 H 0.00007 0.75181 0.09652
 H126 H 0.04066 0.73990 0.02036
 C127 C 0.49973 0.26216 0.42666
 C128 C 0.52477 0.25748 0.44009
 C129 C 0.52489 0.25385 0.46864
 C130 C 0.50050 0.25667 0.48418
 C131 C 0.47571 0.26217 0.47003
 C132 C 0.47511 0.26423 0.44136
 C133 C 0.50093 0.25429 0.51491
 C134 C 0.47681 0.24761 0.52963
 C135 C 0.47676 0.24658 0.55838
 C136 C 0.50141 0.25087 0.57264
 C137 C 0.52582 0.25679 0.55862
 C138 C 0.52535 0.25903 0.52994
 H139 H 0.49932 0.26349 0.40448
 H140 H 0.54421 0.24910 0.47850
 H141 H 0.45669 0.26543 0.48101
 H142 H 0.45790 0.24278 0.51903
 H143 H 0.50158 0.24973 0.59484
 H144 H 0.54408 0.26518 0.51975
 C145 C 1.07332 -0.00307 0.23661
 C146 C 1.06138 0.02286 0.24138
 C147 C 1.03244 0.02413 0.24416
 C148 C 1.01567 0.00074 0.23988
 C149 C 1.02864 -0.02451 0.23404
 C150 C 1.05727 -0.02663 0.23319
 C151 C 0.98478 0.00270 0.24061
 C152 C 0.96843 -0.02071 0.24615
 C153 C 0.93944 -0.01991 0.24422
 C154 C 0.92701 0.00572 0.23920
 C155 C 0.94262 0.02940 0.23473
 C156 C 0.97134 0.02770 0.23480
 H157 H 1.09544 -0.00552 0.23698
 H158 H 1.02284 0.04355 0.24865
 H159 H 1.01680 -0.04273 0.22955
 H160 H 0.97839 -0.03987 0.25089
 H161 H 0.90487 0.00788 0.24010
 H162 H 0.98283 0.04595 0.22962
 C163 C 0.57413 0.49932 0.75793
 C164 C 0.55956 0.52402 0.75982
 C165 C 0.53078 0.52362 0.75816
 C166 C 0.51637 0.49893 0.75321
 C167 C 0.53177 0.47442 0.75048
 C168 C 0.56044 0.47436 0.75384
 C169 C 0.48551 0.49868 0.75156
 C170 C 0.47055 0.47442 0.75693
 C171 C 0.44178 0.47397 0.75536
 C172 C 0.42755 0.49826 0.74959
 C173 C 0.44171 0.52282 0.74477
 C174 C 0.47058 0.52275 0.74510
 H175 H 0.59639 0.49955 0.75905
 H176 H 0.51992 0.54270 0.76138
 H177 H 0.52172 0.45513 0.74615
 H178 H 0.48089 0.45578 0.76304
 H179 H 0.40527 0.49807 0.74899
 H180 H 0.48108 0.54159 0.73993
 C181 C 1.00150 1.07179 0.75302
 C182 C 0.97632 1.05796 0.75666
 C183 C 0.97650 1.02902 0.75545
 C184 C 1.00060 1.01411 0.74886
 C185 C 1.02510 1.02895 0.74441
 C186 C 1.02577 1.05754 0.74707
 C187 C 0.99997 0.98334 0.74614
 C188 C 1.02424 0.96744 0.74862
 C189 C 1.02407 0.93877 0.74421
 C190 C 0.99848 0.92593 0.73985
 C191 C 0.97404 0.94101 0.73837
 C192 C 0.97505 0.96961 0.74053
 H193 H 1.00239 1.09396 0.75361
 H194 H 0.95794 1.01814 0.76078
 H195 H 1.04378 1.01875 0.73812
 H196 H 1.04346 0.97748 0.75302
 H197 H 0.99710 0.90377 0.73920
 H198 H 0.95614 0.98084 0.73743
 C199 C 0.50219 0.57561 0.26224
 C200 C 0.47700 0.56228 0.25832
 C201 C 0.47651 0.53357 0.25602
 C202 C 0.50065 0.51776 0.25971
 C203 C 0.52566 0.53193 0.26444
 C204 C 0.52662 0.56070 0.26504
 C205 C 0.49961 0.48683 0.25936
 C206 C 0.52378 0.47109 0.25554
 C207 C 0.52326 0.44235 0.25720
 C208 C 0.49805 0.42895 0.26062
 C209 C 0.47361 0.44379 0.26351
 C210 C 0.47455 0.47256 0.26353
 H211 H 0.50284 0.59784 0.26263
 H212 H 0.45701 0.52391 0.25180
 H213 H 0.54458 0.52104 0.26840
 H214 H 0.54332 0.48083 0.25169
 H215 H 0.49739 0.40671 0.26051
 H216 H 0.45559 0.48335 0.26754
 O217 O 0.25595 0.17702 0.21084
 O218 O 0.28856 0.17392 0.25013
 O219 O 0.18286 0.20794 0.24941
 O220 O 0.17138 0.24405 0.27596
 O221 O 0.21502 0.24668 0.17667
 O222 O 0.25207 0.27845 0.16893
 O223 O 0.25157 0.28866 0.31823
 O224 O 0.21996 0.25146 0.32568
 O225 O 0.32284 0.25376 0.28646
 O226 O 0.32896 0.21704 0.25114
 O227 O 0.28923 0.32019 0.24926
 O228 O 0.24985 0.32672 0.21544
 O229 O 0.25071 0.32043 0.28419
 O230 O 0.22078 0.32795 0.24510
 O231 O 0.32291 0.28779 0.24986
 O232 O 0.33136 0.25428 0.21803
 O233 O 0.28982 0.25383 0.31938
 O234 O 0.25322 0.22065 0.32846
 O235 O 0.25508 0.20980 0.17773
 O236 O 0.28291 0.25011 0.16856
 O237 O 0.18144 0.24501 0.20900
 O238 O 0.17356 0.27796 0.24586
 O239 O 0.21721 0.17616 0.24914
 O240 O 0.25276 0.17032 0.27989
 Zr241 Zr 0.25337 0.19964 0.24786
 O242 O 0.27757 0.22457 0.27366
 Zr243 Zr 0.20324 0.24613 0.24648
 O244 O 0.22576 0.27322 0.27190
 Zr245 Zr 0.25202 0.24713 0.19893
 O246 O 0.27687 0.27358 0.22226
 Zr247 Zr 0.25268 0.25085 0.29714
 O248 O 0.22807 0.22353 0.27377
 Zr249 Zr 0.30135 0.25073 0.24928
 O250 O 0.27931 0.22391 0.22316
 Zr251 Zr 0.25193 0.29772 0.24770
 O252 O 0.22662 0.27316 0.22211
 O253 O 0.22727 0.22109 0.22178
 O254 O 0.27780 0.27643 0.27407
 C255 C 0.25667 0.18469 0.18558
 C256 C 0.19166 0.18299 0.25006
 C257 C 0.18963 0.24573 0.18391
 C258 C 0.25094 0.31361 0.30961
 C259 C 0.31507 0.25494 0.31159
 C260 C 0.31469 0.31284 0.25030
 H261 H 0.28950 0.21291 0.28523
 H262 H 0.28842 0.28477 0.20988
 H263 H 0.21611 0.20861 0.21024
 H264 H 0.21297 0.28443 0.28298
 H265 H 0.20693 0.23688 0.32003
 H266 H 0.17637 0.25646 0.29123
 H267 H 0.32917 0.23813 0.20593
 H268 H 0.29715 0.23635 0.17313
 H269 H 0.26817 0.20750 0.32443
 H270 H 0.24168 0.17835 0.29491
 H271 H 0.26643 0.32443 0.20392
 H272 H 0.23872 0.29249 0.17514
 H273 H 0.28331 0.15509 0.24441
 H274 H 0.34757 0.22439 0.25506
 H275 H 0.17924 0.29104 0.23140
 H276 H 0.20598 0.32263 0.25793
 O277 O 0.74923 0.82424 0.21636
 O278 O 0.71544 0.82859 0.25431
 O279 O 0.82064 0.79318 0.25544
 O280 O 0.83166 0.75726 0.28244
 O281 O 0.78858 0.75423 0.18258
 O282 O 0.75130 0.72258 0.17528
 O283 O 0.75099 0.71525 0.32477
 O284 O 0.78250 0.75198 0.33211
 O285 O 0.67966 0.74979 0.29246
 O286 O 0.67436 0.78602 0.25612
 O287 O 0.71277 0.68227 0.25593
 O288 O 0.75196 0.67415 0.22344
 O289 O 0.75067 0.68213 0.29197
 O290 O 0.78167 0.67414 0.25254
 O291 O 0.67953 0.71512 0.25597
 O292 O 0.67157 0.74816 0.22382
 O293 O 0.71310 0.75003 0.32502
 O294 O 0.74980 0.78310 0.33389
 O295 O 0.74936 0.79173 0.18292
 O296 O 0.72001 0.75145 0.17482
 O297 O 0.82143 0.75468 0.21576
 O298 O 0.82897 0.72293 0.25330
 O299 O 0.78657 0.82526 0.25509
 O300 O 0.75042 0.83202 0.28509
 Zr301 Zr 0.75024 0.80226 0.25341
 O302 O 0.72546 0.77826 0.27925
 Zr303 Zr 0.79971 0.75515 0.25301
 O304 O 0.77676 0.72886 0.27866
 Zr305 Zr 0.75134 0.75438 0.20481
 O306 O 0.72608 0.72850 0.22861
 Zr307 Zr 0.75014 0.75230 0.30309
 O308 O 0.77527 0.77872 0.27971
 Zr309 Zr 0.70151 0.75192 0.25516
 O310 O 0.72412 0.77809 0.22876
 Zr311 Zr 0.75036 0.70425 0.25475
 O312 O 0.77600 0.72818 0.22880
 O313 O 0.77629 0.78017 0.22779
 O314 O 0.72470 0.72647 0.28054
 C315 C 0.74869 0.81686 0.19106
 C316 C 0.81204 0.81823 0.25608
 C317 C 0.81383 0.75422 0.19051
 C318 C 0.75091 0.69002 0.31716
 C319 C 0.68777 0.74904 0.31757
 C320 C 0.68740 0.68997 0.25660
 H321 H 0.71365 0.79030 0.29055
 H322 H 0.71446 0.71725 0.21631
 H323 H 0.78788 0.79226 0.21630
 H324 H 0.78936 0.71776 0.29007
 H325 H 0.79587 0.76615 0.32625
 H326 H 0.82624 0.74562 0.29814
 H327 H 0.67440 0.76376 0.21117
 H328 H 0.70672 0.76636 0.17856
 H329 H 0.73466 0.79605 0.32989
 H330 H 0.76167 0.82440 0.30020
 H331 H 0.73657 0.67766 0.21065
 H332 H 0.76422 0.70840 0.18203
 H333 H 0.72116 0.84726 0.24854
 H334 H 0.65568 0.77901 0.26029
 H335 H 0.82291 0.70934 0.23946
 H336 H 0.79544 0.67847 0.26684
 O337 O 0.75005 0.17733 0.78754
 O338 O 0.71786 0.17168 0.74930
 O339 O 0.82169 0.20950 0.74969
 O340 O 0.83104 0.24753 0.72034
 O341 O 0.78886 0.24846 0.82096
 O342 O 0.75094 0.27856 0.82894
 O343 O 0.75111 0.28558 0.67879
 O344 O 0.78156 0.24606 0.67034
 O345 O 0.68066 0.25102 0.71181
 O346 O 0.67627 0.21461 0.75121
 O347 O 0.71389 0.31891 0.74844
 O348 O 0.75265 0.32844 0.77877
 O349 O 0.75085 0.31899 0.71124
 O350 O 0.78299 0.32666 0.75100
 O351 O 0.68009 0.28668 0.74888
 O352 O 0.67019 0.25045 0.77830
 O353 O 0.71325 0.25021 0.67855
 O354 O 0.75196 0.21717 0.67083
 O355 O 0.75045 0.20991 0.82093
 O356 O 0.71991 0.24853 0.82824
 O357 O 0.82246 0.24821 0.78859
 O358 O 0.83036 0.27853 0.75006
 O359 O 0.78875 0.17628 0.75052
 O360 O 0.75289 0.17016 0.71804
 Zr361 Zr 0.75178 0.19910 0.75049
 O362 O 0.72616 0.22284 0.72485
 Zr363 Zr 0.80047 0.24704 0.75113
 O364 O 0.77733 0.27254 0.72492
 Zr365 Zr 0.75190 0.24725 0.79891
 O366 O 0.72689 0.27322 0.77521
 Zr367 Zr 0.75058 0.24870 0.70071
 O368 O 0.77644 0.22303 0.72436
 Zr369 Zr 0.70228 0.24949 0.74896
 O370 O 0.72532 0.22330 0.77489
 Zr371 Zr 0.75112 0.29713 0.74868
 O372 O 0.77652 0.27376 0.77517
 O373 O 0.77727 0.22173 0.77622
 O374 O 0.72518 0.27474 0.72312
 C375 C 0.74957 0.18476 0.81281
 C376 C 0.81403 0.18421 0.74983
 C377 C 0.81423 0.24881 0.81369
 C378 C 0.75095 0.31087 0.68613
 C379 C 0.68807 0.25125 0.68657
 C380 C 0.68846 0.31175 0.74861
 H381 H 0.71434 0.21064 0.71370
 H382 H 0.71565 0.28473 0.78757
 H383 H 0.78888 0.20998 0.78807
 H384 H 0.78997 0.28365 0.71360
 H385 H 0.79552 0.26024 0.67445
 H386 H 0.82424 0.23562 0.70535
 H387 H 0.67701 0.26074 0.79441
 H388 H 0.70601 0.23489 0.82233
 H389 H 0.73631 0.20464 0.67421
 H390 H 0.76622 0.17708 0.70436
 H391 H 0.73916 0.32377 0.79319
 H392 H 0.76330 0.29327 0.82233
 H393 H 0.72439 0.15300 0.75415
 H394 H 0.65926 0.21846 0.74067
 H395 H 0.82413 0.29285 0.76307
 H396 H 0.79559 0.32350 0.73539
 O397 O 0.25010 0.81756 0.78886
 O398 O 0.28204 0.82188 0.74947
 O399 O 0.17773 0.78471 0.75046
 O400 O 0.16651 0.74890 0.72386
 O401 O 0.21052 0.74759 0.82301
 O402 O 0.24838 0.71544 0.82979
 O403 O 0.24749 0.70681 0.68069
 O404 O 0.21452 0.74356 0.67401
 O405 O 0.31829 0.74287 0.71168
 O406 O 0.32379 0.77928 0.74762
 O407 O 0.28578 0.67553 0.74987
 O408 O 0.24740 0.66721 0.78257
 O409 O 0.24776 0.67473 0.71444
 O410 O 0.21740 0.66676 0.75412
 O411 O 0.31936 0.70798 0.74839
 O412 O 0.32736 0.74176 0.78037
 O413 O 0.28437 0.74300 0.67962
 O414 O 0.24769 0.77438 0.67058
 O415 O 0.25078 0.78461 0.82180
 O416 O 0.27856 0.74473 0.83086
 O417 O 0.17749 0.74738 0.79005
 O418 O 0.16999 0.71479 0.75305
 O419 O 0.21055 0.81803 0.75139
 O420 O 0.24591 0.82456 0.71970
 Zr421 Zr 0.24755 0.79525 0.75172
 O422 O 0.27222 0.77096 0.72565
 Zr423 Zr 0.19893 0.74729 0.75280
 O424 O 0.22161 0.72102 0.72706
 Zr425 Zr 0.24768 0.74735 0.80042
 O426 O 0.27300 0.72168 0.77657
 Zr427 Zr 0.24769 0.74441 0.70211
 O428 O 0.22270 0.77099 0.72570
 Zr429 Zr 0.29701 0.74493 0.74936
 O430 O 0.27433 0.77111 0.77588
 Zr431 Zr 0.24835 0.69717 0.75115
 O432 O 0.22281 0.72084 0.77717
 O433 O 0.22225 0.77286 0.77772
 O434 O 0.27358 0.71904 0.72464
 C435 C 0.25166 0.80978 0.81404
 C436 C 0.18529 0.81002 0.75047
 C437 C 0.18519 0.74752 0.81524
 C438 C 0.24763 0.68179 0.68908
 C439 C 0.30980 0.74227 0.68669
 C440 C 0.31116 0.68287 0.74851
 H441 H 0.28374 0.78301 0.71407
 H442 H 0.28486 0.71064 0.78881
 H443 H 0.21094 0.78501 0.78945
 H444 H 0.20897 0.70964 0.71595
 H445 H 0.20161 0.75826 0.67962
 H446 H 0.17181 0.73723 0.70811
 H447 H 0.32489 0.75776 0.79263
 H448 H 0.29315 0.75785 0.82566
 H449 H 0.26034 0.78929 0.67604
 H450 H 0.23359 0.81698 0.70540
 H451 H 0.26250 0.67133 0.79553
 H452 H 0.23443 0.70183 0.82396
 H453 H 0.27623 0.84060 0.75505
 H454 H 0.34252 0.77239 0.74346
 H455 H 0.17597 0.70166 0.76734
 H456 H 0.20340 0.67073 0.73994
 O457 O 0.25017 0.31891 0.71068
 O458 O 0.21925 0.32667 0.74903
 O459 O 0.32196 0.28718 0.75145
 O460 O 0.33225 0.25144 0.77832
 O461 O 0.28981 0.24712 0.67850
 O462 O 0.25153 0.21705 0.67097
 O463 O 0.24939 0.21184 0.82071
 O464 O 0.28192 0.24777 0.82784
 O465 O 0.17961 0.24836 0.78713
 O466 O 0.17189 0.27926 0.75140
 O467 O 0.21272 0.17769 0.75039
 O468 O 0.25277 0.16891 0.72029
 O469 O 0.24930 0.17811 0.78856
 O470 O 0.28127 0.16913 0.75007
 O471 O 0.18006 0.21100 0.75040
 O472 O 0.17221 0.24968 0.71829
 O473 O 0.21283 0.24829 0.81988
 O474 O 0.24999 0.27968 0.82875
 O475 O 0.25040 0.28592 0.67775
 O476 O 0.22093 0.24723 0.67034
 O477 O 0.32231 0.24801 0.71198
 O478 O 0.32876 0.21675 0.75023
 O479 O 0.28865 0.31990 0.74893
 O480 O 0.25262 0.32671 0.78054
 Zr481 Zr 0.25187 0.29769 0.74812
 O482 O 0.22611 0.27453 0.77369
 Zr483 Zr 0.30028 0.24963 0.74890
 O484 O 0.27660 0.22424 0.77478
 Zr485 Zr 0.25232 0.24902 0.70031
 O486 O 0.22649 0.22366 0.72408
 Zr487 Zr 0.25000 0.24849 0.79834
 O488 O 0.27607 0.27402 0.77500
 Zr489 Zr 0.20197 0.24796 0.75004
 O490 O 0.22545 0.27353 0.72387
 Zr491 Zr 0.25021 0.19958 0.75096
 O492 O 0.27633 0.22275 0.72486
 O493 O 0.27767 0.27478 0.72295
 O494 O 0.22429 0.22245 0.77616
 C495 C 0.24925 0.31114 0.68552
 C496 C 0.31388 0.31239 0.75110
 C497 C 0.31498 0.24662 0.68671
 C498 C 0.24905 0.18647 0.81359
 C499 C 0.18756 0.24843 0.81232
 C500 C 0.18752 0.18574 0.75022
 H501 H 0.21437 0.28710 0.78449
 H502 H 0.21526 0.21220 0.71166
 H503 H 0.28945 0.28644 0.71119
 H504 H 0.28882 0.21318 0.78663
 H505 H 0.29570 0.26155 0.82202
 H506 H 0.32622 0.24077 0.79447
 H507 H 0.17567 0.23423 0.70559
 H508 H 0.20619 0.25979 0.67658
 H509 H 0.23637 0.29377 0.82343
 H510 H 0.26586 0.31994 0.79441
 H511 H 0.23832 0.17270 0.70652
 H512 H 0.26418 0.20265 0.67776
 H513 H 0.22643 0.34497 0.74365
 H514 H 0.17969 0.29512 0.74142
 H515 H 0.32268 0.20311 0.73644
 H516 H 0.29454 0.17330 0.76488
 O517 O 0.75158 0.67872 0.71154
 O518 O 0.78436 0.67426 0.75036
 O519 O 0.67948 0.71041 0.75136
 O520 O 0.66842 0.74636 0.77776
 O521 O 0.71211 0.74997 0.67872
 O522 O 0.74980 0.78073 0.67129
 O523 O 0.74922 0.78821 0.82096
 O524 O 0.71753 0.75121 0.82766
 O525 O 0.82029 0.75265 0.78831
 O526 O 0.82563 0.71658 0.75236
 O527 O 0.78791 0.82050 0.75036
 O528 O 0.74783 0.82865 0.71921
 O529 O 0.74976 0.82072 0.78763
 O530 O 0.71963 0.82964 0.74900
 O531 O 0.82098 0.78749 0.75078
 O532 O 0.82890 0.75397 0.71998
 O533 O 0.78743 0.75162 0.82138
 O534 O 0.75039 0.72039 0.83009
 O535 O 0.75162 0.71197 0.67893
 O536 O 0.77993 0.75195 0.67037
 O537 O 0.67863 0.74905 0.71114
 O538 O 0.67156 0.78070 0.74901
 O539 O 0.71318 0.67799 0.75007
 O540 O 0.74879 0.67087 0.78038
 Zr541 Zr 0.74969 0.70074 0.74885
 O542 O 0.77446 0.72467 0.77497
 Zr543 Zr 0.70053 0.74823 0.74854
 O544 O 0.72369 0.77429 0.77440
 Zr545 Zr 0.74912 0.74898 0.70082
 O546 O 0.77443 0.77449 0.72457
 Zr547 Zr 0.75025 0.75093 0.79909
 O548 O 0.72500 0.72462 0.77530
 Zr549 Zr 0.79869 0.75086 0.75110
 O550 O 0.77607 0.72491 0.72456
 Zr551 Zr 0.75022 0.79875 0.75060
 O552 O 0.72441 0.77517 0.72460
 O553 O 0.72382 0.72308 0.72322
 O554 O 0.77592 0.77667 0.77661
 C555 C 0.75273 0.68673 0.68643
 C556 C 0.68784 0.68530 0.75177
 C557 C 0.68676 0.75021 0.68606
 C558 C 0.74903 0.81333 0.81289
 C559 C 0.81266 0.75232 0.81351
 C560 C 0.81324 0.81268 0.75018
 H561 H 0.78615 0.71247 0.78623
 H562 H 0.78601 0.78558 0.71213
 H563 H 0.71228 0.71110 0.71151
 H564 H 0.71109 0.78547 0.78573
 H565 H 0.70432 0.73691 0.82170
 H566 H 0.67403 0.75765 0.79367
 H567 H 0.82606 0.73825 0.70745
 H568 H 0.79403 0.73799 0.67472
 H569 H 0.76371 0.70600 0.82481
 H570 H 0.73731 0.67848 0.79532
 H571 H 0.76304 0.82516 0.70619
 H572 H 0.73659 0.79486 0.67758
 H573 H 0.77867 0.65561 0.74444
 H574 H 0.84438 0.72342 0.75654
 H575 H 0.67759 0.79420 0.73508
 H576 H 0.70500 0.82453 0.76212
 O577 O 0.24867 0.68017 0.28904
 O578 O 0.21761 0.67270 0.25046
 O579 O 0.31989 0.71435 0.25074
 O580 O 0.33091 0.75002 0.22476
 O581 O 0.28452 0.75316 0.32216
 O582 O 0.24577 0.78198 0.32894
 O583 O 0.24703 0.78625 0.17818
 O584 O 0.28009 0.75140 0.17162
 O585 O 0.17812 0.74870 0.21129
 O586 O 0.17466 0.71432 0.25301
 O587 O 0.20871 0.81969 0.24597
 O588 O 0.24597 0.83145 0.27698
 O589 O 0.24633 0.82020 0.21010
 O590 O 0.27771 0.82931 0.25055
 O591 O 0.17593 0.78644 0.24631
 O592 O 0.16627 0.75157 0.27702
 O593 O 0.21099 0.74872 0.17829
 O594 O 0.25016 0.71755 0.17174
 O595 O 0.24670 0.71319 0.32191
 O596 O 0.21542 0.75141 0.32800
 O597 O 0.31842 0.75336 0.29013
 O598 O 0.32422 0.78516 0.25069
 O599 O 0.28820 0.68000 0.25205
 O600 O 0.25298 0.67189 0.21986
 Zr601 Zr 0.25046 0.70141 0.25172
 O602 O 0.22431 0.72372 0.22544
 Zr603 Zr 0.29732 0.75101 0.25227
 O604 O 0.27373 0.77491 0.22492
 Zr605 Zr 0.24806 0.75030 0.29940
 O606 O 0.22266 0.77507 0.27475
 Zr607 Zr 0.24805 0.74984 0.20088
 O608 O 0.27460 0.72573 0.22541
 Zr609 Zr 0.19925 0.75002 0.24869
 O610 O 0.22278 0.72507 0.27533
 Zr611 Zr 0.24650 0.79912 0.24796
 O612 O 0.27209 0.77718 0.27551
 O613 O 0.27475 0.72526 0.27757
 O614 O 0.22160 0.77542 0.22255
 C615 C 0.24673 0.68791 0.31414
 C616 C 0.31316 0.68883 0.25110
 C617 C 0.30994 0.75433 0.31512
 C618 C 0.24647 0.81167 0.18512
 C619 C 0.18574 0.74827 0.18613
 C620 C 0.18354 0.81172 0.24510
 H621 H 0.21304 0.71074 0.21461
 H622 H 0.21081 0.78656 0.28655
 H623 H 0.28655 0.71399 0.28970
 H624 H 0.28603 0.78609 0.21327
 H625 H 0.29471 0.73888 0.17821
 H626 H 0.32448 0.75814 0.20732
 H627 H 0.17263 0.76207 0.29317
 H628 H 0.20185 0.73751 0.32193
 H629 H 0.23555 0.70410 0.17599
 H630 H 0.26614 0.67902 0.20613
 H631 H 0.23288 0.82634 0.29161
 H632 H 0.25723 0.79723 0.32191
 H633 H 0.22469 0.65433 0.25574
 H634 H 0.15816 0.71629 0.24122
 H635 H 0.31881 0.79771 0.26572
 H636 H 0.29015 0.82679 0.23470
 O637 O 0.74940 0.32132 0.28744
 O638 O 0.78172 0.32774 0.24870
 O639 O 0.67822 0.28854 0.24665
 O640 O 0.66795 0.25337 0.21902
 O641 O 0.71086 0.24890 0.31851
 O642 O 0.74939 0.21791 0.32480
 O643 O 0.74939 0.21451 0.17527
 O644 O 0.71687 0.25153 0.16949
 O645 O 0.82016 0.25244 0.20889
 O646 O 0.82412 0.28625 0.24720
 O647 O 0.78844 0.18171 0.24363
 O648 O 0.75007 0.17125 0.27556
 O649 O 0.75050 0.18139 0.20800
 O650 O 0.72023 0.17143 0.24717
 O651 O 0.82141 0.21479 0.24349
 O652 O 0.82844 0.24663 0.27711
 O653 O 0.78685 0.25213 0.17619
 O654 O 0.74988 0.28218 0.16733
 O655 O 0.75002 0.28727 0.31926
 O656 O 0.77894 0.24772 0.32710
 O657 O 0.67823 0.24975 0.28516
 O658 O 0.67191 0.21841 0.24674
 O659 O 0.71040 0.32236 0.24940
 O660 O 0.74601 0.33082 0.21862
 Zr661 Zr 0.74778 0.30033 0.24953
 O662 O 0.77322 0.27752 0.22298
 Zr663 Zr 0.70014 0.25149 0.24819
 O664 O 0.72370 0.22667 0.22185
 Zr665 Zr 0.74825 0.25074 0.29648
 O666 O 0.77439 0.22647 0.27208
 Zr667 Zr 0.74966 0.25138 0.19803
 O668 O 0.72381 0.27659 0.22226
 Zr669 Zr 0.79825 0.25117 0.24611
 O670 O 0.77472 0.27592 0.27323
 Zr671 Zr 0.75060 0.20250 0.24541
 O672 O 0.72424 0.22464 0.27191
 O673 O 0.72257 0.27656 0.27439
 O674 O 0.77581 0.22571 0.21996
 C675 C 0.75067 0.31271 0.31236
 C676 C 0.68534 0.31395 0.24770
 C677 C 0.68565 0.24873 0.31042
 C678 C 0.74977 0.18923 0.18289
 C679 C 0.81216 0.25287 0.18376
 C680 C 0.81367 0.18955 0.24263
 H681 H 0.78457 0.29035 0.21210
 H682 H 0.78632 0.21519 0.28403
 H683 H 0.71081 0.28802 0.28637
 H684 H 0.71133 0.21549 0.21025
 H685 H 0.70371 0.26581 0.17560
 H686 H 0.67393 0.24291 0.20269
 H687 H 0.82517 0.26140 0.29063
 H688 H 0.79288 0.26190 0.32300
 H689 H 0.76090 0.29778 0.17420
 H690 H 0.73383 0.32368 0.20398
 H691 H 0.76496 0.17514 0.28884
 H692 H 0.73624 0.20394 0.31805
 H693 H 0.77549 0.34611 0.25494
 H694 H 0.84310 0.28021 0.24289
 H695 H 0.67779 0.20499 0.26080
 H696 H 0.70622 0.17563 0.23306
 C697 C 0.27016 0.10533 0.09793
 C698 C 0.25885 0.07881 0.09848
 C699 C 0.25930 0.06223 0.07495
 C700 C 0.27066 0.07206 0.05014
 C701 C 0.28399 0.09779 0.05065
 C702 C 0.28379 0.11405 0.07414
 C703 C 0.26608 0.12491 0.12097
 C704 C 0.25951 0.15236 0.11513
 C705 C 0.25617 0.17141 0.13615
 C706 C 0.25916 0.16361 0.16374
 C707 C 0.26504 0.13596 0.16977
 C708 C 0.26844 0.11676 0.14854
 H709 H 0.24868 0.04273 0.07579
 H710 H 0.29469 0.10560 0.03283
 H711 H 0.25127 0.19238 0.13063
 H712 H 0.26744 0.12928 0.19081
 H713 H 0.29375 0.13392 0.07344
 H714 H 0.25676 0.15917 0.09417
 H715 H 0.24826 0.07149 0.11658
 H716 H 0.27345 0.09572 0.15365
 C717 C 0.76471 0.60663 0.59934
 C718 C 0.78278 0.61214 0.57755
 C719 C 0.78309 0.59539 0.55434
 C720 C 0.76542 0.57269 0.55242
 C721 C 0.74857 0.56612 0.57489
 C722 C 0.74820 0.58297 0.59816
 C723 C 0.76169 0.62671 0.62204
 C724 C 0.75894 0.61819 0.64944
 C725 C 0.75592 0.63756 0.67049
 C726 C 0.75539 0.66581 0.66447
 C727 C 0.75784 0.67416 0.63699
 C728 C 0.76094 0.65490 0.61610
 H729 H 0.79666 0.60061 0.53752
 H730 H 0.73465 0.54880 0.57385
 H731 H 0.75409 0.63043 0.69144
 H732 H 0.75743 0.69569 0.63148
 H733 H 0.73398 0.57828 0.61459
 H734 H 0.75950 0.59658 0.65460
 H735 H 0.79621 0.62986 0.57816
 H736 H 0.76240 0.66210 0.59514
 C737 C 0.74207 0.90510 0.11177
 C738 C 0.75627 0.90541 0.08671
 C739 C 0.75502 0.92848 0.06953
 C740 C 0.73969 0.95195 0.07720
 C741 C 0.72444 0.95061 0.10183
 C742 C 0.72563 0.92766 0.11872
 C743 C 0.74499 0.88206 0.13147
 C744 C 0.74780 0.88777 0.15956
 C745 C 0.74916 0.86659 0.17866
 C746 C 0.74785 0.83902 0.17023
 C747 C 0.74573 0.83319 0.14202
 C748 C 0.74435 0.85455 0.12279
 H749 H 0.76750 0.92829 0.05119
 H750 H 0.71087 0.96711 0.10801
 H751 H 0.75115 0.87195 0.20013
 H752 H 0.74480 0.81217 0.13483
 H753 H 0.71363 0.92761 0.13743
 H754 H 0.74896 0.90875 0.16683
 H755 H 0.76920 0.88827 0.08088
 H756 H 0.74213 0.84957 0.10126
 C757 C 0.23679 0.39773 0.60500
 C758 C 0.25325 0.39914 0.58136
 C759 C 0.25263 0.42251 0.56464
 C760 C 0.23557 0.44482 0.57137
 C761 C 0.21787 0.44260 0.59398
 C762 C 0.21843 0.41931 0.61057
 C763 C 0.24020 0.37514 0.62513
 C764 C 0.24114 0.38129 0.65324
 C765 C 0.24437 0.36053 0.67260
 C766 C 0.24674 0.33295 0.66442
 C767 C 0.24614 0.32672 0.63623
 C768 C 0.24301 0.34766 0.61675
 H769 H 0.26656 0.42379 0.54737
 H770 H 0.20415 0.45929 0.59930
 H771 H 0.24488 0.36623 0.69406
 H772 H 0.24793 0.30570 0.62922
 H773 H 0.20503 0.41851 0.62828
 H774 H 0.23967 0.40231 0.66033
 H775 H 0.26765 0.38286 0.57662
 H776 H 0.24236 0.34235 0.59519
 C777 C 0.74430 0.09621 0.89179
 C778 C 0.76302 0.09349 0.91363
 C779 C 0.76253 0.07005 0.93031
 C780 C 0.74333 0.04905 0.92534
 C781 C 0.72394 0.05245 0.90427
 C782 C 0.72441 0.07572 0.88773
 C783 C 0.74624 0.11929 0.87209
 C784 C 0.74400 0.11392 0.84390
 C785 C 0.74510 0.13520 0.82492
 C786 C 0.74846 0.16254 0.83356
 C787 C 0.75101 0.16800 0.86180
 C788 C 0.75004 0.14650 0.88091
 H789 H 0.77771 0.06793 0.94643
 H790 H 0.70845 0.03693 0.90044
 H791 H 0.74322 0.13009 0.80338
 H792 H 0.75378 0.18881 0.86912
 H793 H 0.70934 0.07756 0.87146
 H794 H 0.74159 0.09310 0.83646
 H795 H 0.77863 0.10895 0.91713
 H796 H 0.75177 0.15118 0.90256
 C797 C 0.23544 0.59989 0.39331
 C798 C 0.21791 0.57783 0.38699
 C799 C 0.21785 0.55419 0.40310
 C800 C 0.23524 0.55208 0.42600
 C801 C 0.25147 0.57479 0.43342
 C802 C 0.25159 0.59852 0.41719
 C803 C 0.23849 0.62293 0.37363
 C804 C 0.24024 0.65039 0.38243
 C805 C 0.24306 0.67170 0.36327
 C806 C 0.24444 0.66587 0.33503
 C807 C 0.24313 0.63831 0.32649
 C808 C 0.24020 0.61721 0.34548
 H809 H 0.20472 0.53721 0.39723
 H810 H 0.26513 0.57364 0.45094
 H811 H 0.24404 0.69269 0.37055
 H812 H 0.24426 0.63287 0.30498
 H813 H 0.26537 0.61515 0.42250
 H814 H 0.23900 0.65536 0.40404
 H815 H 0.20476 0.57856 0.36906
 H816 H 0.23957 0.59625 0.33809
 C817 C 0.26367 0.89065 0.90065
 C818 C 0.28113 0.88490 0.92291
 C819 C 0.28139 0.90185 0.94598
 C820 C 0.26430 0.92505 0.94730
 C821 C 0.24813 0.93186 0.92439
 C822 C 0.24778 0.91477 0.90126
 C823 C 0.26064 0.87038 0.87805
 C824 C 0.25839 0.87866 0.85051
 C825 C 0.25540 0.85911 0.82958
 C826 C 0.25443 0.83092 0.83583
 C827 C 0.25640 0.82283 0.86344
 C828 C 0.25943 0.84226 0.88421
 H829 H 0.29443 0.89643 0.96316
 H830 H 0.23469 0.94958 0.92496
 H831 H 0.25394 0.86607 0.80854
 H832 H 0.25559 0.80137 0.86916
 H833 H 0.23404 0.91968 0.88448
 H834 H 0.25931 0.90020 0.84514
 H835 H 0.29414 0.86686 0.92277
 H836 H 0.26046 0.83521 0.90524
 C837 C 0.76171 0.39111 0.40119
 C838 C 0.77940 0.38498 0.42317
 C839 C 0.77995 0.40159 0.44647
 C840 C 0.76289 0.42477 0.44834
 C841 C 0.74635 0.43185 0.42578
 C842 C 0.74574 0.41514 0.40240
 C843 C 0.75871 0.37144 0.37811
 C844 C 0.75651 0.38049 0.35082
 C845 C 0.75372 0.36153 0.32935
 C846 C 0.75292 0.33317 0.33481
 C847 C 0.75476 0.32429 0.36218
 C848 C 0.75761 0.34315 0.38350
 H849 H 0.79330 0.39596 0.46336
 H850 H 0.73289 0.44954 0.42676
 H851 H 0.75236 0.36908 0.30851
 H852 H 0.75409 0.30267 0.36726
 H853 H 0.73182 0.42032 0.38585
 H854 H 0.75737 0.40217 0.34605
 H855 H 0.79244 0.36697 0.42256
 H856 H 0.75863 0.33554 0.40434
 C857 C 0.11060 0.23647 0.09516
 C858 C 0.11918 0.22424 0.07056
 C859 C 0.10234 0.22460 0.04741
 C860 C 0.07617 0.23715 0.04803
 C861 C 0.06672 0.24733 0.07351
 C862 C 0.08382 0.24719 0.09668
 C863 C 0.13029 0.23939 0.11836
 C864 C 0.12196 0.23592 0.14576
 C865 C 0.14103 0.23841 0.16722
 C866 C 0.16879 0.24444 0.16168
 C867 C 0.17688 0.24839 0.13430
 C868 C 0.15791 0.24598 0.11299
 H869 H 0.11003 0.21476 0.02905
 H870 H 0.04700 0.25747 0.07528
 H871 H 0.13413 0.23515 0.18808
 H872 H 0.19799 0.25330 0.12921
 H873 H 0.07658 0.25678 0.11536
 H874 H 0.10085 0.23075 0.15056
 H875 H 0.13926 0.21474 0.06902
 H876 H 0.16489 0.24949 0.09221
 C877 C 0.60666 0.75706 0.59822
 C878 C 0.61250 0.77321 0.57507
 C879 C 0.59558 0.77221 0.55198
 C880 C 0.57231 0.75516 0.55157
 C881 C 0.56547 0.74026 0.57526
 C882 C 0.58253 0.74116 0.59839
 C883 C 0.62677 0.75541 0.62110
 C884 C 0.61818 0.75459 0.64862
 C885 C 0.63754 0.75279 0.66986
 C886 C 0.66585 0.75166 0.66394
 C887 C 0.67426 0.75221 0.63636
 C888 C 0.65501 0.75403 0.61528
 H889 H 0.60102 0.78429 0.53416
 H890 H 0.54770 0.72685 0.57539
 H891 H 0.63035 0.75243 0.69087
 H892 H 0.69583 0.75121 0.63093
 H893 H 0.57756 0.72839 0.61586
 H894 H 0.59654 0.75571 0.65372
 H895 H 0.63057 0.78619 0.57457
 H896 H 0.66228 0.75396 0.59429
 C897 C 0.09701 0.75793 0.89447
 C898 C 0.07438 0.77452 0.88759
 C899 C 0.05089 0.77479 0.90398
 C900 C 0.04951 0.75855 0.92770
 C901 C 0.07275 0.74329 0.93559
 C902 C 0.09633 0.74297 0.91909
 C903 C 0.12006 0.75465 0.87479
 C904 C 0.14765 0.75416 0.88350
 C905 C 0.16901 0.75140 0.86435
 C906 C 0.16309 0.74887 0.83619
 C907 C 0.13542 0.74875 0.82776
 C908 C 0.11426 0.75160 0.84676
 H909 H 0.03348 0.78718 0.89774
 H910 H 0.07217 0.73051 0.95374
 H911 H 0.19009 0.75162 0.87153
 H912 H 0.12994 0.74669 0.80633
 H913 H 0.11342 0.72994 0.92485
 H914 H 0.15269 0.75646 0.90501
 H915 H 0.07458 0.78677 0.86907
 H916 H 0.09322 0.75123 0.83947
 C917 C 0.59748 0.25400 0.38989
 C918 C 0.57778 0.27472 0.38612
 C919 C 0.55469 0.27616 0.40295
 C920 C 0.55063 0.25684 0.42393
 C921 C 0.57091 0.23676 0.42853
 C922 C 0.59421 0.23538 0.41165
 C923 C 0.62033 0.25118 0.37001
 C924 C 0.64762 0.24721 0.37866
 C925 C 0.66902 0.24603 0.35941
 C926 C 0.66338 0.24850 0.33119
 C927 C 0.63590 0.25170 0.32272
 C928 C 0.61472 0.25307 0.34185
 H929 H 0.53979 0.29230 0.39935
 H930 H 0.56828 0.22155 0.44449
 H931 H 0.68994 0.24350 0.36661
 H932 H 0.63065 0.25361 0.30122
 H933 H 0.60909 0.21916 0.41490
 H934 H 0.65245 0.24572 0.40029
 H935 H 0.58010 0.28968 0.36986
 H936 H 0.59382 0.25567 0.33459
 C937 C 0.90230 0.76135 0.11112
 C938 C 0.92736 0.77249 0.12005
 C939 C 0.95044 0.77218 0.10315
 C940 C 0.94931 0.76083 0.07652
 C941 C 0.92345 0.75180 0.06678
 C942 C 0.90032 0.75183 0.08398
 C943 C 0.87906 0.75851 0.13077
 C944 C 0.85165 0.76321 0.12277
 C945 C 0.83023 0.76125 0.14194
 C946 C 0.83585 0.75460 0.16947
 C947 C 0.86317 0.74925 0.17718
 C948 C 0.88442 0.75106 0.15810
 H949 H 0.96916 0.78119 0.11112
 H950 H 0.92132 0.74269 0.04664
 H951 H 0.80940 0.76557 0.13536
 H952 H 0.86825 0.74372 0.19809
 H953 H 0.88127 0.74313 0.07644
 H954 H 0.84685 0.76905 0.10189
 H955 H 0.92928 0.78115 0.14043
 H956 H 0.90516 0.74653 0.16481
 C957 C 0.40375 0.23945 0.60761
 C958 C 0.42709 0.22341 0.61343
 C959 C 0.45038 0.22482 0.59677
 C960 C 0.45084 0.24218 0.57381
 C961 C 0.42699 0.25704 0.56705
 C962 C 0.40367 0.25571 0.58381
 C963 C 0.38060 0.24073 0.62746
 C964 C 0.35306 0.24178 0.61864
 C965 C 0.33159 0.24366 0.63775
 C966 C 0.33729 0.24466 0.66603
 C967 C 0.36488 0.24369 0.67468
 C968 C 0.38619 0.24178 0.65569
 H969 H 0.46830 0.21277 0.60218
 H970 H 0.42685 0.27073 0.54956
 H971 H 0.31059 0.24433 0.63037
 H972 H 0.37017 0.24451 0.69625
 H973 H 0.38610 0.26845 0.57888
 H974 H 0.34812 0.24091 0.59700
 H975 H 0.42755 0.21018 0.63126
 H976 H 0.40716 0.24164 0.66316
 C977 C 0.89246 0.25420 0.90326
 C978 C 0.88545 0.27082 0.92565
 C979 C 0.90187 0.27150 0.94903
 C980 C 0.92607 0.25555 0.95096
 C981 C 0.93377 0.23992 0.92772
 C982 C 0.91710 0.23922 0.90423
 C983 C 0.87311 0.25173 0.87983
 C984 C 0.88228 0.25212 0.85248
 C985 C 0.86332 0.25103 0.83077
 C986 C 0.83491 0.24941 0.83610
 C987 C 0.82602 0.24835 0.86352
 C988 C 0.84482 0.24946 0.88501
 H989 H 0.89569 0.28528 0.96531
 H990 H 0.95173 0.22685 0.92796
 H991 H 0.87086 0.25175 0.80989
 H992 H 0.80439 0.24675 0.86855
 H993 H 0.92292 0.22610 0.88726
 H994 H 0.90400 0.25389 0.84791
 H995 H 0.86705 0.28335 0.92514
 H996 H 0.83716 0.24848 0.90584
 C997 C 0.38902 0.76043 0.40401
 C998 C 0.38309 0.77588 0.42765
 C999 C 0.39982 0.77402 0.45084
 C1000 C 0.42300 0.75684 0.45086
 C1001 C 0.42990 0.74260 0.42676
 C1002 C 0.41303 0.74432 0.40355
 C1003 C 0.36913 0.75962 0.38086
 C1004 C 0.37803 0.75900 0.35343
 C1005 C 0.35892 0.75743 0.33194
 C1006 C 0.33054 0.75637 0.33750
 C1007 C 0.32178 0.75703 0.36497
 C1008 C 0.34079 0.75859 0.38631
 H1009 H 0.39434 0.78560 0.46900
 H1010 H 0.44759 0.72909 0.42632
 H1011 H 0.36638 0.75698 0.31103
 H1012 H 0.30014 0.75612 0.37013
 H1013 H 0.41806 0.73203 0.38574
 H1014 H 0.39973 0.75990 0.34858
 H1015 H 0.36513 0.78900 0.42843
 H1016 H 0.33324 0.75841 0.40720
 C1017 C 0.11368 0.09310 0.24707
 C1018 C 0.12123 0.07019 0.23140
 C1019 C 0.10395 0.04749 0.22938
 C1020 C 0.07832 0.04670 0.24307
 C1021 C 0.07044 0.07029 0.25809
 C1022 C 0.08792 0.09312 0.26006
 C1023 C 0.13307 0.11652 0.24981
 C1024 C 0.12394 0.14383 0.24785
 C1025 C 0.14282 0.16557 0.24847
 C1026 C 0.17119 0.16040 0.25114
 C1027 C 0.18009 0.13308 0.25397
 C1028 C 0.16129 0.11148 0.25336
 H1029 H 0.11058 0.03098 0.21610
 H1030 H 0.05145 0.07092 0.26957
 H1031 H 0.13525 0.18636 0.24624
 H1032 H 0.20170 0.12827 0.25637
 H1033 H 0.08163 0.11048 0.27244
 H1034 H 0.10232 0.14832 0.24498
 H1035 H 0.14054 0.06992 0.22034
 H1036 H 0.16891 0.09070 0.25548
 C1037 C 0.60852 0.59732 0.76271
 C1038 C 0.58494 0.59621 0.74606
 C1039 C 0.56819 0.57286 0.74607
 C1040 C 0.57477 0.55023 0.76270
 C1041 C 0.59744 0.55202 0.78046
 C1042 C 0.61411 0.57532 0.78050
 C1043 C 0.62843 0.62023 0.76013
 C1044 C 0.65672 0.61455 0.75941
 C1045 C 0.67580 0.63566 0.75653
 C1046 C 0.66714 0.66311 0.75430
 C1047 C 0.63878 0.66887 0.75490
 C1048 C 0.61959 0.64760 0.75769
 H1049 H 0.55092 0.57192 0.73206
 H1050 H 0.60266 0.53509 0.79388
 H1051 H 0.69743 0.63036 0.75609
 H1052 H 0.63140 0.68977 0.75324
 H1053 H 0.63179 0.57588 0.79400
 H1054 H 0.66415 0.59362 0.76066
 H1055 H 0.58022 0.61279 0.73205
 H1056 H 0.59789 0.65255 0.75825
 C1057 C 0.90357 0.10639 0.75945
 C1058 C 0.90251 0.07927 0.74978
 C1059 C 0.92607 0.06269 0.75022
 C1060 C 0.95146 0.07298 0.76005
 C1061 C 0.95160 0.09958 0.77157
 C1062 C 0.92808 0.11593 0.77128
 C1063 C 0.88000 0.12547 0.75578
 C1064 C 0.88498 0.15262 0.74754
 C1065 C 0.86344 0.17127 0.74493
 C1066 C 0.83619 0.16330 0.75036
 C1067 C 0.83096 0.13587 0.75771
 C1068 C 0.85270 0.11709 0.76038
 H1069 H 0.92463 0.04263 0.74081
 H1070 H 0.96985 0.10799 0.78110
 H1071 H 0.86825 0.19210 0.73888
 H1072 H 0.81021 0.12911 0.76212
 H1073 H 0.92923 0.13638 0.77994
 H1074 H 0.90567 0.15953 0.74310
 H1075 H 0.88388 0.07134 0.74053
 H1076 H 0.84824 0.09628 0.76674
 C1077 C 0.40378 0.61192 0.25551
 C1078 C 0.40675 0.58969 0.23738
 C1079 C 0.43033 0.57317 0.23839
 C1080 C 0.45122 0.57861 0.25762
 C1081 C 0.44762 0.60023 0.27635
 C1082 C 0.42423 0.61669 0.27528
 C1083 C 0.38027 0.63113 0.25324
 C1084 C 0.38508 0.65949 0.25448
 C1085 C 0.36330 0.67800 0.25343
 C1086 C 0.33602 0.66867 0.25117
 C1087 C 0.33114 0.64024 0.24948
 C1088 C 0.35313 0.62162 0.25036
 H1089 H 0.43260 0.55670 0.22364
 H1090 H 0.46300 0.60448 0.29186
 H1091 H 0.36795 0.69970 0.25471
 H1092 H 0.31038 0.63238 0.24766
 H1093 H 0.42219 0.63335 0.28987
 H1094 H 0.40583 0.66741 0.25625
 H1095 H 0.39131 0.58568 0.22187
 H1096 H 0.34890 0.59982 0.24943
 C1097 C 0.09616 0.88886 0.74536
 C1098 C 0.07338 0.88179 0.72924
 C1099 C 0.05011 0.89841 0.72859
 C1100 C 0.04868 0.92289 0.74408
 C1101 C 0.07231 0.93064 0.75918
 C1102 C 0.09569 0.91376 0.75986
 C1103 C 0.11951 0.86937 0.74780
 C1104 C 0.14702 0.87824 0.74684
 C1105 C 0.16862 0.85913 0.74786
 C1106 C 0.16302 0.83086 0.74995
 C1107 C 0.13545 0.82227 0.75160
 C1108 C 0.11407 0.84122 0.75058
 H1109 H 0.03351 0.89214 0.71518
 H1110 H 0.07247 0.94884 0.77188
 H1111 H 0.18962 0.86644 0.74669
 H1112 H 0.13023 0.80076 0.75363
 H1113 H 0.11297 0.91965 0.77260
 H1114 H 0.15179 0.89984 0.74467
 H1115 H 0.07350 0.86318 0.71706
 H1116 H 0.09313 0.83379 0.75201
 C1117 C 0.59603 0.39219 0.25343
 C1118 C 0.59328 0.41482 0.23579
 C1119 C 0.56989 0.43159 0.23719
 C1120 C 0.54899 0.42598 0.25632
 C1121 C 0.55245 0.40401 0.27464
 C1122 C 0.57563 0.38731 0.27318
 C1123 C 0.61921 0.37266 0.25063
 C1124 C 0.61391 0.34437 0.25112
 C1125 C 0.63537 0.32553 0.24972
 C1126 C 0.66282 0.33446 0.24786
 C1127 C 0.66817 0.36283 0.24685
 C1128 C 0.64650 0.38179 0.24807
 H1129 H 0.56773 0.44834 0.22277
 H1130 H 0.53705 0.39962 0.29007
 H1131 H 0.63036 0.30389 0.25050
 H1132 H 0.68907 0.37038 0.24535
 H1133 H 0.57753 0.37034 0.28740
 H1134 H 0.59303 0.33677 0.25263
 H1135 H 0.60871 0.41893 0.22032
 H1136 H 0.65109 0.40354 0.24770
 C1137 C 0.88886 0.90884 0.25184
 C1138 C 0.88034 0.93145 0.23628
 C1139 C 0.89702 0.95453 0.23370
 C1140 C 0.92298 0.95600 0.24672
 C1141 C 0.93178 0.93271 0.26172
 C1142 C 0.91491 0.90948 0.26421
 C1143 C 0.87004 0.88510 0.25526
 C1144 C 0.87941 0.85792 0.25256
 C1145 C 0.86078 0.83595 0.25348
 C1146 C 0.83249 0.84082 0.25721
 C1147 C 0.82346 0.86798 0.26098
 C1148 C 0.84196 0.88977 0.26005
 H1149 H 0.88964 0.97076 0.22049
 H1150 H 0.95105 0.93260 0.27276
 H1151 H 0.86842 0.81527 0.25055
 H1152 H 0.80192 0.87257 0.26427
 H1153 H 0.92191 0.89234 0.27650
 H1154 H 0.90095 0.85376 0.24877
 H1155 H 0.86072 0.93120 0.22574
 H1156 H 0.83422 0.91044 0.26278
 C1157 C 0.39285 0.40085 0.76065
 C1158 C 0.38587 0.42429 0.77599
 C1159 C 0.40240 0.44766 0.77518
 C1160 C 0.42636 0.44805 0.75918
 C1161 C 0.43429 0.42410 0.74518
 C1162 C 0.41765 0.40069 0.74587
 C1163 C 0.37312 0.37775 0.75836
 C1164 C 0.38194 0.35026 0.75870
 C1165 C 0.36284 0.32883 0.75621
 C1166 C 0.33464 0.33458 0.75319
 C1167 C 0.32606 0.36214 0.75254
 C1168 C 0.34501 0.38338 0.75507
 H1169 H 0.39612 0.46568 0.78660
 H1170 H 0.45264 0.42395 0.73259
 H1171 H 0.37014 0.30784 0.75680
 H1172 H 0.30457 0.36746 0.75007
 H1173 H 0.42347 0.38299 0.73374
 H1174 H 0.40351 0.34535 0.76124
 H1175 H 0.36721 0.42478 0.78808
 H1176 H 0.33764 0.40433 0.75405
 C1177 C 0.10873 0.25554 0.90088
 C1178 C 0.08355 0.24137 0.90081
 C1179 C 0.06705 0.24101 0.92433
 C1180 C 0.07554 0.25476 0.94824
 C1181 C 0.09987 0.27021 0.94771
 C1182 C 0.11625 0.27065 0.92428
 C1183 C 0.12826 0.25298 0.87769
 C1184 C 0.15626 0.24875 0.88320
 C1185 C 0.17519 0.24682 0.86192
 C1186 C 0.16668 0.24904 0.83443
 C1187 C 0.13852 0.25257 0.82878
 C1188 C 0.11944 0.25447 0.85026
 H1189 H 0.04837 0.22891 0.92429
 H1190 H 0.10655 0.28145 0.96570
 H1191 H 0.19662 0.24372 0.86714
 H1192 H 0.13129 0.25430 0.80784
 H1193 H 0.13522 0.28229 0.92468
 H1194 H 0.16358 0.24679 0.90409
 H1195 H 0.07731 0.22949 0.88309
 H1196 H 0.09793 0.25767 0.84547
 C1197 C 0.60737 0.73764 0.40455
 C1198 C 0.61350 0.72138 0.42756
 C1199 C 0.59637 0.72161 0.45049
 C1200 C 0.57263 0.73801 0.45091
 C1201 C 0.56553 0.75298 0.42731
 C1202 C 0.58277 0.75283 0.40434
 C1203 C 0.62761 0.74026 0.38191
 C1204 C 0.61921 0.74124 0.35433
 C1205 C 0.63863 0.74421 0.33332
 C1206 C 0.66682 0.74641 0.33952
 C1207 C 0.67508 0.74554 0.36715
 C1208 C 0.65575 0.74254 0.38802
 H1209 H 0.60204 0.70949 0.46823
 H1210 H 0.54741 0.76592 0.42718
 H1211 H 0.63157 0.74465 0.31226
 H1212 H 0.69656 0.74722 0.37278
 H1213 H 0.57757 0.76568 0.38698
 H1214 H 0.59766 0.73939 0.34900
 H1215 H 0.63196 0.70894 0.42807
 H1216 H 0.66286 0.74245 0.40907
 C1217 C 0.90146 0.74500 0.89223
 C1218 C 0.90001 0.75453 0.91937
 C1219 C 0.92334 0.75398 0.93629
 C1220 C 0.94882 0.74422 0.92628
 C1221 C 0.94936 0.73291 0.89962
 C1222 C 0.92610 0.73328 0.88296
 C1223 C 0.87807 0.74835 0.87292
 C1224 C 0.88322 0.75639 0.84575
 C1225 C 0.86186 0.75828 0.82681
 C1226 C 0.83468 0.75234 0.83453
 C1227 C 0.82925 0.74531 0.86198
 C1228 C 0.85079 0.74332 0.88103
 H1229 H 0.92166 0.76316 0.95643
 H1230 H 0.96771 0.72338 0.89144
 H1231 H 0.86677 0.76418 0.80596
 H1232 H 0.80852 0.74061 0.86857
 H1233 H 0.92753 0.72468 0.86252
 H1234 H 0.90391 0.76116 0.83904
 H1235 H 0.88125 0.76366 0.92710
 H1236 H 0.84621 0.73709 0.90184
 C1237 C 0.40180 0.26773 0.39226
 C1238 C 0.40291 0.25065 0.41546
 C1239 C 0.42619 0.25056 0.43237
 C1240 C 0.44879 0.26748 0.42631
 C1241 C 0.44697 0.28571 0.40410
 C1242 C 0.42371 0.28589 0.38731
 C1243 C 0.37912 0.26510 0.37200
 C1244 C 0.38515 0.26531 0.34384
 C1245 C 0.36436 0.26196 0.32445
 C1246 C 0.33688 0.25826 0.33263
 C1247 C 0.33073 0.25814 0.36083
 C1248 C 0.35168 0.26142 0.38033
 H1249 H 0.42715 0.23620 0.44928
 H1250 H 0.46390 0.29932 0.39927
 H1251 H 0.36995 0.26225 0.30295
 H1252 H 0.30978 0.25545 0.36784
 H1253 H 0.42318 0.29976 0.36997
 H1254 H 0.40613 0.26754 0.33673
 H1255 H 0.38644 0.23633 0.41972
 H1256 H 0.34640 0.26130 0.40190
 C1257 C 0.09705 0.74046 0.10724
 C1258 C 0.09671 0.75610 0.08305
 C1259 C 0.07301 0.75710 0.06678
 C1260 C 0.04929 0.74254 0.07451
 C1261 C 0.05023 0.72565 0.09777
 C1262 C 0.07388 0.72455 0.11391
 C1263 C 0.12027 0.74254 0.12686
 C1264 C 0.11466 0.74516 0.15495
 C1265 C 0.13595 0.74729 0.17387
 C1266 C 0.16357 0.74689 0.16530
 C1267 C 0.16931 0.74470 0.13710
 C1268 C 0.14780 0.74262 0.11802
 H1269 H 0.07273 0.77034 0.04895
 H1270 H 0.03239 0.71381 0.10384
 H1271 H 0.13062 0.74921 0.19535
 H1272 H 0.19034 0.74437 0.12983
 H1273 H 0.07379 0.71182 0.13211
 H1274 H 0.09367 0.74588 0.16234
 H1275 H 0.11421 0.76865 0.07749
 H1276 H 0.15267 0.74068 0.09644
 C1277 C 0.59914 0.26094 0.60781
 C1278 C 0.59924 0.24651 0.58282
 C1279 C 0.57578 0.24618 0.56613
 C1280 C 0.55183 0.26017 0.57418
 C1281 C 0.55227 0.27578 0.59838
 C1282 C 0.57568 0.27625 0.61493
 C1283 C 0.62238 0.25845 0.62747
 C1284 C 0.61684 0.25537 0.65554
 C1285 C 0.63818 0.25283 0.67443
 C1286 C 0.66579 0.25318 0.66583
 C1287 C 0.67147 0.25597 0.63768
 C1288 C 0.64994 0.25852 0.61865
 H1289 H 0.57591 0.23389 0.54760
 H1290 H 0.53426 0.28718 0.60478
 H1291 H 0.63289 0.25056 0.69588
 H1292 H 0.69249 0.25641 0.63037
 H1293 H 0.57520 0.28813 0.63371
 H1294 H 0.59587 0.25456 0.66297
 H1295 H 0.61693 0.23441 0.57684
 H1296 H 0.65484 0.26093 0.59713
 C1297 C 0.89378 0.26383 0.09803
 C1298 C 0.91694 0.24659 0.09679
 C1299 C 0.93420 0.24705 0.07385
 C1300 C 0.92858 0.26474 0.05179
 C1301 C 0.90648 0.28318 0.05388
 C1302 C 0.88928 0.28273 0.07675
 C1303 C 0.87322 0.26083 0.12028
 C1304 C 0.84504 0.26104 0.11391
 C1305 C 0.82537 0.25807 0.13446
 C1306 C 0.83333 0.25486 0.16199
 C1307 C 0.86157 0.25434 0.16839
 C1308 C 0.88132 0.25720 0.14770
 H1309 H 0.95100 0.23249 0.07265
 H1310 H 0.90198 0.29734 0.03736
 H1311 H 0.80385 0.25850 0.12871
 H1312 H 0.86842 0.25189 0.18938
 H1313 H 0.87197 0.29671 0.07747
 H1314 H 0.83818 0.26321 0.09288
 H1315 H 0.92084 0.23175 0.11285
 H1316 H 0.90291 0.25699 0.15318
 C1317 C 0.38872 0.73447 0.59789
 C1318 C 0.41323 0.74979 0.59834
 C1319 C 0.43014 0.75090 0.57515
 C1320 C 0.42278 0.73682 0.55107
 C1321 C 0.39907 0.72038 0.55113
 C1322 C 0.38229 0.71915 0.57429
 C1323 C 0.36886 0.73600 0.62101
 C1324 C 0.34058 0.73803 0.61551
 C1325 C 0.32163 0.74011 0.63682
 C1326 C 0.33039 0.74031 0.66432
 C1327 C 0.35871 0.73831 0.66992
 C1328 C 0.37777 0.73623 0.64846
 H1329 H 0.44823 0.76386 0.57557
 H1330 H 0.39321 0.70893 0.53300
 H1331 H 0.30002 0.74168 0.63163
 H1332 H 0.36616 0.73828 0.69086
 H1333 H 0.36390 0.70662 0.57353
 H1334 H 0.33306 0.73851 0.59461
 H1335 H 0.41865 0.76196 0.61613
 H1336 H 0.39943 0.73454 0.65334
 C1337 C 0.25419 0.10864 0.90310
 C1338 C 0.24022 0.08346 0.90421
 C1339 C 0.24218 0.06671 0.92755
 C1340 C 0.25814 0.07484 0.95045
 C1341 C 0.27311 0.09962 0.94829
 C1342 C 0.27108 0.11617 0.92513
 C1343 C 0.25079 0.12781 0.87971
 C1344 C 0.24726 0.15593 0.88487
 C1345 C 0.24615 0.17469 0.86337
 C1346 C 0.24855 0.16587 0.83601
 C1347 C 0.25109 0.13757 0.83069
 C1348 C 0.25214 0.11868 0.85239
 H1349 H 0.22983 0.04826 0.92795
 H1350 H 0.28715 0.10621 0.96421
 H1351 H 0.24375 0.19623 0.86833
 H1352 H 0.25285 0.13008 0.80986
 H1353 H 0.28287 0.13503 0.92444
 H1354 H 0.24558 0.16350 0.90570
 H1355 H 0.22698 0.07721 0.88747
 H1356 H 0.25488 0.09709 0.84786
 C1357 C 0.75536 0.60951 0.40438
 C1358 C 0.73655 0.58774 0.40698
 C1359 C 0.73732 0.57060 0.43008
 C1360 C 0.75693 0.57500 0.45084
 C1361 C 0.77646 0.59596 0.44745
 C1362 C 0.77567 0.61300 0.42455
 C1363 C 0.75319 0.62967 0.38172
 C1364 C 0.75544 0.65779 0.38757
 C1365 C 0.75446 0.67716 0.36662
 C1366 C 0.75128 0.66898 0.33914
 C1367 C 0.74856 0.64081 0.33323
 C1368 C 0.74937 0.62133 0.35438
 H1369 H 0.72200 0.55462 0.43220
 H1370 H 0.79225 0.59939 0.46276
 H1371 H 0.75644 0.69863 0.37206
 H1372 H 0.74591 0.63383 0.31231
 H1373 H 0.79080 0.62921 0.42277
 H1374 H 0.75789 0.66485 0.40850
 H1375 H 0.72065 0.58467 0.39173
 H1376 H 0.74761 0.59975 0.34935
 C1377 C 0.73566 0.10054 0.10540
 C1378 C 0.74565 0.10019 0.07842
 C1379 C 0.74366 0.07631 0.06248
 C1380 C 0.73188 0.05209 0.07335
 C1381 C 0.71987 0.05361 0.09966
 C1382 C 0.72180 0.07740 0.11538
 C1383 C 0.74116 0.12394 0.12408
 C1384 C 0.74992 0.11863 0.15099
 C1385 C 0.75360 0.13997 0.16959
 C1386 C 0.74861 0.16731 0.16184
 C1387 C 0.74102 0.17286 0.13454
 C1388 C 0.73737 0.15130 0.11576
 H1389 H 0.75339 0.07642 0.04253
 H1390 H 0.70887 0.03640 0.10838
 H1391 H 0.75992 0.13492 0.19029
 H1392 H 0.73708 0.19370 0.12793
 H1393 H 0.71292 0.07748 0.13575
 H1394 H 0.75374 0.09780 0.15776
 H1395 H 0.75637 0.11785 0.07020
 H1396 H 0.73072 0.15593 0.09508
 C1397 C 0.24488 0.59299 0.61006
 C1398 C 0.22516 0.57231 0.61388
 C1399 C 0.22462 0.54938 0.59681
 C1400 C 0.24383 0.54646 0.57550
 C1401 C 0.26295 0.56762 0.57093
 C1402 C 0.26346 0.59074 0.58808
 C1403 C 0.24655 0.61602 0.62990
 C1404 C 0.24980 0.64330 0.62113
 C1405 C 0.25019 0.66482 0.64024
 C1406 C 0.24758 0.65937 0.66847
 C1407 C 0.24492 0.63197 0.67710
 C1408 C 0.24438 0.61063 0.65809
 H1409 H 0.20918 0.53376 0.60040
 H1410 H 0.27803 0.56588 0.55469
 H1411 H 0.25245 0.68567 0.63291
 H1412 H 0.24304 0.62690 0.69864
 H1413 H 0.27893 0.60636 0.58476
 H1414 H 0.25145 0.64800 0.59949
 H1415 H 0.21020 0.57379 0.63026
 H1416 H 0.24236 0.58977 0.66549
 C1417 C 0.73761 0.90064 0.89289
 C1418 C 0.75317 0.90163 0.91718
 C1419 C 0.75211 0.92481 0.93418
 C1420 C 0.73549 0.94734 0.92712
 C1421 C 0.71872 0.94557 0.90373
 C1422 C 0.71974 0.92249 0.88683
 C1423 C 0.74120 0.87796 0.87285
 C1424 C 0.74298 0.88397 0.84475
 C1425 C 0.74599 0.86302 0.82551
 C1426 C 0.74729 0.83542 0.83381
 C1427 C 0.74601 0.82937 0.86201
 C1428 C 0.74309 0.85047 0.88136
 H1429 H 0.76534 0.92572 0.95203
 H1430 H 0.70532 0.96243 0.89811
 H1431 H 0.74706 0.86855 0.80403
 H1432 H 0.74697 0.80834 0.86913
 H1433 H 0.70700 0.92201 0.86861
 H1434 H 0.74222 0.90499 0.83760
 H1435 H 0.76717 0.88513 0.92232
 H1436 H 0.74176 0.84526 0.90290
 C1437 C 0.24670 0.40350 0.38749
 C1438 C 0.26503 0.40607 0.40967
 C1439 C 0.26422 0.42935 0.42659
 C1440 C 0.24505 0.45039 0.42161
 C1441 C 0.22615 0.44722 0.40003
 C1442 C 0.22698 0.42411 0.38319
 C1443 C 0.24863 0.38018 0.36796
 C1444 C 0.24647 0.38513 0.33969
 C1445 C 0.24735 0.36354 0.32098
 C1446 C 0.25038 0.33628 0.32998
 C1447 C 0.25294 0.33126 0.35829
 C1448 C 0.25218 0.35304 0.37711
 H1449 H 0.27909 0.43128 0.44303
 H1450 H 0.21067 0.46272 0.39611
 H1451 H 0.24550 0.36831 0.29936
 H1452 H 0.25545 0.31054 0.36591
 H1453 H 0.21219 0.42241 0.36665
 H1454 H 0.24423 0.40586 0.33198
 H1455 H 0.28053 0.39054 0.41336
 H1456 H 0.25382 0.34865 0.39882
 C1457 C 0.25087 0.88983 0.09575
 C1458 C 0.27075 0.88499 0.07546
 C1459 C 0.27222 0.90164 0.05231
 C1460 C 0.25379 0.92356 0.04874
 C1461 C 0.23457 0.92921 0.06955
 C1462 C 0.23315 0.91247 0.09292
 C1463 C 0.24816 0.87030 0.11893
 C1464 C 0.24532 0.87943 0.14613
 C1465 C 0.24450 0.86051 0.16780
 C1466 C 0.24627 0.83213 0.16257
 C1467 C 0.24827 0.82318 0.13521
 C1468 C 0.24923 0.84199 0.11375
 H1469 H 0.28774 0.89722 0.03701
 H1470 H 0.22011 0.94596 0.06734
 H1471 H 0.24277 0.86809 0.18861
 H1472 H 0.24945 0.80154 0.13026
 H1473 H 0.21760 0.91660 0.10827
 H1474 H 0.24447 0.90118 0.15067
 H1475 H 0.28510 0.86809 0.07741
 H1476 H 0.25090 0.83433 0.09295
 C1477 C 0.75441 0.38969 0.59732
 C1478 C 0.77403 0.38530 0.57667
 C1479 C 0.77454 0.40183 0.55340
 C1480 C 0.75542 0.42319 0.55010
 C1481 C 0.73648 0.42843 0.57126
 C1482 C 0.73599 0.41179 0.59473
 C1483 C 0.75245 0.37004 0.62045
 C1484 C 0.74957 0.37897 0.64772
 C1485 C 0.74899 0.35989 0.66928
 C1486 C 0.75104 0.33158 0.66382
 C1487 C 0.75327 0.32285 0.63641
 C1488 C 0.75398 0.34179 0.61508
 H1489 H 0.78985 0.39776 0.53778
 H1490 H 0.72150 0.44475 0.56924
 H1491 H 0.74709 0.36729 0.69014
 H1492 H 0.75469 0.30127 0.63129
 H1493 H 0.72060 0.41554 0.61033
 H1494 H 0.74836 0.40067 0.65239
 H1495 H 0.78886 0.36880 0.57841
 H1496 H 0.75569 0.33429 0.59424
 C1497 C 0.09899 0.10657 0.74293
 C1498 C 0.07571 0.11346 0.72727
 C1499 C 0.05237 0.09687 0.72767
 C1500 C 0.05181 0.07292 0.74363
 C1501 C 0.07562 0.06505 0.75796
 C1502 C 0.09904 0.08177 0.75765
 C1503 C 0.12210 0.12630 0.74535
 C1504 C 0.14966 0.11756 0.74483
 C1505 C 0.17111 0.13672 0.74677
 C1506 C 0.16531 0.16490 0.74939
 C1507 C 0.13768 0.17338 0.75051
 C1508 C 0.11642 0.15436 0.74853
 H1509 H 0.03446 0.10308 0.71599
 H1510 H 0.07563 0.04669 0.77047
 H1511 H 0.19215 0.12950 0.74586
 H1512 H 0.13234 0.19484 0.75279
 H1513 H 0.11665 0.07599 0.76996
 H1514 H 0.15461 0.09603 0.74240
 H1515 H 0.07533 0.13211 0.71519
 H1516 H 0.09541 0.16166 0.74970
 C1517 C 0.60029 0.60938 0.26777
 C1518 C 0.59922 0.58562 0.25141
 C1519 C 0.57581 0.56885 0.25157
 C1520 C 0.55307 0.57562 0.26804
 C1521 C 0.55488 0.59839 0.28561
 C1522 C 0.57823 0.61502 0.28553
 C1523 C 0.62306 0.62952 0.26484
 C1524 C 0.61699 0.65768 0.26404
 C1525 C 0.63786 0.67702 0.26109
 C1526 C 0.66551 0.66882 0.25880
 C1527 C 0.67168 0.64059 0.25937
 C1528 C 0.65062 0.62111 0.26225
 H1529 H 0.57487 0.55146 0.23775
 H1530 H 0.53785 0.60377 0.29888
 H1531 H 0.63220 0.69852 0.26072
 H1532 H 0.69275 0.63356 0.25775
 H1533 H 0.57872 0.63280 0.29887
 H1534 H 0.59594 0.66482 0.26537
 H1535 H 0.61585 0.58080 0.23745
 H1536 H 0.65590 0.59953 0.26285
 C1537 C 0.10332 0.89839 0.23029
 C1538 C 0.07974 0.90026 0.24684
 C1539 C 0.06364 0.92409 0.24658
 C1540 C 0.07095 0.94640 0.22984
 C1541 C 0.09335 0.94371 0.21192
 C1542 C 0.10930 0.91993 0.21206
 C1543 C 0.12329 0.87565 0.23392
 C1544 C 0.15148 0.88168 0.23506
 C1545 C 0.17073 0.86093 0.23898
 C1546 C 0.16240 0.83344 0.24190
 C1547 C 0.13413 0.82729 0.24096
 C1548 C 0.11472 0.84827 0.23713
 H1549 H 0.04649 0.92575 0.26065
 H1550 H 0.09911 0.96045 0.19849
 H1551 H 0.19227 0.86657 0.23961
 H1552 H 0.12703 0.80634 0.24305
 H1553 H 0.12698 0.91878 0.19861
 H1554 H 0.15871 0.90263 0.23331
 H1555 H 0.07471 0.88404 0.26114
 H1556 H 0.09308 0.84307 0.23634
 C1557 C 0.60987 0.40101 0.75256
 C1558 C 0.58820 0.40411 0.73371
 C1559 C 0.57159 0.42764 0.73434
 C1560 C 0.57640 0.44837 0.75386
 C1561 C 0.59731 0.44455 0.77339
 C1562 C 0.61383 0.42121 0.77273
 C1563 C 0.62950 0.37780 0.75052
 C1564 C 0.65779 0.38297 0.75280
 C1565 C 0.67669 0.36152 0.75190
 C1566 C 0.66785 0.33421 0.74878
 C1567 C 0.63950 0.32898 0.74604
 C1568 C 0.62049 0.35064 0.74677
 H1569 H 0.55566 0.43006 0.71900
 H1570 H 0.60104 0.45982 0.78912
 H1571 H 0.69831 0.36646 0.75393
 H1572 H 0.63203 0.30820 0.74345
 H1573 H 0.63000 0.41907 0.78787
 H1574 H 0.66537 0.40374 0.75521
 H1575 H 0.58479 0.38886 0.71789
 H1576 H 0.59875 0.34614 0.74498
 C1577 C 0.89471 0.10315 0.23026
 C1578 C 0.88911 0.08096 0.21268
 C1579 C 0.90567 0.05760 0.21301
 C1580 C 0.92833 0.05597 0.23078
 C1581 C 0.93521 0.07887 0.24690
 C1582 C 0.91849 0.10229 0.24669
 C1583 C 0.87441 0.12574 0.23316
 C1584 C 0.88270 0.15326 0.23581
 C1585 C 0.86310 0.17414 0.23900
 C1586 C 0.83486 0.16781 0.23981
 C1587 C 0.82675 0.14022 0.23734
 C1588 C 0.84623 0.11952 0.23409
 H1589 H 0.90021 0.04034 0.20008
 H1590 H 0.95253 0.07802 0.26085
 H1591 H 0.87005 0.19518 0.24076
 H1592 H 0.80524 0.13448 0.23788
 H1593 H 0.92328 0.11903 0.26051
 H1594 H 0.90430 0.15865 0.23511
 H1595 H 0.87132 0.08130 0.19930
 H1596 H 0.83918 0.09848 0.23272
 C1597 C 0.39128 0.59510 0.73938
 C1598 C 0.38525 0.57182 0.72341
 C1599 C 0.40237 0.54883 0.72411
 C1600 C 0.42599 0.54861 0.74070
 C1601 C 0.43295 0.57245 0.75541
 C1602 C 0.41573 0.59548 0.75478
 C1603 C 0.37109 0.61792 0.74143
 C1604 C 0.37962 0.64550 0.74211
 C1605 C 0.36028 0.66669 0.74454
 C1606 C 0.33203 0.66071 0.74651
 C1607 C 0.32364 0.63309 0.74596
 C1608 C 0.34289 0.61202 0.74348
 H1609 H 0.39678 0.53092 0.71217
 H1610 H 0.45093 0.57276 0.76853
 H1611 H 0.36745 0.68773 0.74475
 H1612 H 0.30211 0.62762 0.74745
 H1613 H 0.42086 0.61304 0.76742
 H1614 H 0.40121 0.65068 0.74043
 H1615 H 0.36690 0.57115 0.71083
 H1616 H 0.33567 0.59100 0.74360
 C1617 C 0.90014 0.89289 0.73791
 C1618 C 0.90181 0.91661 0.75420
 C1619 C 0.92528 0.93323 0.75327
 C1620 C 0.94740 0.92637 0.73600
 C1621 C 0.94486 0.90367 0.71843
 C1622 C 0.92149 0.88711 0.71937
 C1623 C 0.87752 0.87287 0.74171
 C1624 C 0.88368 0.84479 0.74337
 C1625 C 0.86284 0.82551 0.74672
 C1626 C 0.83517 0.83374 0.74842
 C1627 C 0.82896 0.86194 0.74729
 C1628 C 0.84999 0.88136 0.74409
 H1629 H 0.92677 0.95053 0.76716
 H1630 H 0.96137 0.89824 0.70455
 H1631 H 0.86852 0.80403 0.74767
 H1632 H 0.80787 0.86898 0.74856
 H1633 H 0.92045 0.86927 0.70615
 H1634 H 0.90477 0.83770 0.74223
 H1635 H 0.88568 0.92147 0.76872
 H1636 H 0.84472 0.90292 0.74293
 C1637 C 0.40037 0.39453 0.26411
 C1638 C 0.40149 0.41853 0.24814
 C1639 C 0.42471 0.43554 0.24907
 C1640 C 0.44718 0.42877 0.26591
 C1641 C 0.44525 0.40578 0.28314
 C1642 C 0.42209 0.38891 0.28230
 C1643 C 0.37798 0.37412 0.26029
 C1644 C 0.38449 0.34607 0.25914
 C1645 C 0.36398 0.32646 0.25550
 C1646 C 0.33625 0.33428 0.25287
 C1647 C 0.32964 0.36241 0.25371
 C1648 C 0.35035 0.38216 0.25727
 H1649 H 0.42576 0.45310 0.23551
 H1650 H 0.46208 0.40039 0.29667
 H1651 H 0.36997 0.30506 0.25495
 H1652 H 0.30850 0.36914 0.25185
 H1653 H 0.42152 0.37095 0.29536
 H1654 H 0.40562 0.33922 0.26077
 H1655 H 0.38511 0.42334 0.23387
 H1656 H 0.34474 0.40365 0.25812
   
