data_POSCAR
  _audit_creation_date              2014-09-24
  _audit_creation_method            'ToBaCCo'
  _symmetry_space_group_name_H-M    'P1'
  _symmetry_Int_Tables_number       1
  _symmetry_cell_setting            triclinic
  loop_
  _symmetry_equiv_pos_as_xyz
 x,y,z
_cell_length_a 69.0227
_cell_length_b 68.2448
_cell_length_c 66.8232
_cell_angle_alpha 90.860700
_cell_angle_beta 89.893500
_cell_angle_gamma 89.739400
loop_
  _atom_site_label
  _atom_site_type_symbol
  _atom_site_fract_x
  _atom_site_fract_y
  _atom_site_fract_z
C1 C 0.19600 0.23036 0.20926
 C2 C 0.20642 0.23623 0.19239
 C3 C 0.22207 0.22533 0.18560
 C4 C 0.22750 0.20829 0.19566
 C5 C 0.21722 0.20243 0.21234
 C6 C 0.20127 0.21357 0.21920
 C7 C 0.18020 0.23854 0.21872
 N8 N 0.17448 0.22707 0.23555
 C9 C 0.18862 0.21124 0.23496
 C10 C 0.22571 0.18536 0.21889
 N11 N 0.24087 0.18081 0.20659
 C12 C 0.24199 0.19473 0.19236
 C13 C 0.22914 0.23442 0.16882
 N14 N 0.21809 0.25057 0.16537
 C15 C 0.20419 0.25173 0.17970
 H16 H 0.17287 0.25184 0.21427
 H17 H 0.18902 0.19941 0.24557
 H18 H 0.22098 0.17692 0.23155
 H19 H 0.25261 0.19493 0.18041
 H20 H 0.24120 0.22938 0.15972
 H21 H 0.19311 0.26300 0.18069
 C22 C 0.69638 0.72141 0.71333
 C23 C 0.70806 0.72630 0.69697
 C24 C 0.72275 0.71377 0.69084
 C25 C 0.72602 0.69626 0.70096
 C26 C 0.71459 0.69140 0.71717
 C27 C 0.69955 0.70407 0.72335
 C28 C 0.68102 0.73079 0.72247
 N29 N 0.67464 0.71959 0.73770
 C30 C 0.68592 0.70320 0.73844
 C31 C 0.72120 0.67360 0.72397
 N32 N 0.73631 0.66769 0.71222
 C33 C 0.73926 0.68141 0.69810
 C34 C 0.73168 0.72213 0.67468
 N35 N 0.72278 0.73941 0.67082
 C36 C 0.70828 0.74213 0.68442
 H37 H 0.67482 0.74474 0.71830
 H38 H 0.68453 0.69158 0.74918
 H39 H 0.71527 0.66553 0.73635
 H40 H 0.75031 0.68063 0.68659
 H41 H 0.74381 0.71608 0.66631
 H42 H 0.69861 0.75462 0.68533
 C43 C 0.30803 0.77694 0.70518
 C44 C 0.29582 0.76821 0.69075
 C45 C 0.27885 0.77762 0.68536
 C46 C 0.27390 0.79578 0.69393
 C47 C 0.28589 0.80445 0.70793
 C48 C 0.30303 0.79496 0.71362
 C49 C 0.32527 0.77127 0.71388
 N50 N 0.33069 0.78541 0.72732
 C51 C 0.31722 0.79992 0.72713
 C52 C 0.27740 0.82199 0.71363
 N53 N 0.26050 0.82406 0.70334
 C54 C 0.25833 0.80805 0.69127
 C55 C 0.26962 0.76602 0.67150
 N56 N 0.28056 0.74981 0.66802
 C57 C 0.29666 0.75090 0.67972
 H58 H 0.33318 0.75788 0.71058
 H59 H 0.31765 0.81310 0.73635
 H60 H 0.28327 0.83229 0.72445
 H61 H 0.24624 0.80553 0.68126
 H62 H 0.25593 0.76917 0.66431
 H63 H 0.30797 0.73989 0.68038
 C64 C 0.81486 0.27172 0.21709
 C65 C 0.80297 0.26616 0.20106
 C66 C 0.78591 0.27621 0.19737
 C67 C 0.78061 0.29219 0.20981
 C68 C 0.79246 0.29765 0.22566
 C69 C 0.80970 0.28736 0.22932
 C70 C 0.83206 0.26434 0.22413
 N71 N 0.83756 0.27513 0.24036
 C72 C 0.82392 0.28932 0.24367
 C73 C 0.78387 0.31342 0.23517
 N74 N 0.76714 0.31780 0.22558
 C75 C 0.76497 0.30488 0.21002
 C76 C 0.77756 0.26746 0.18071
 N77 N 0.78927 0.25248 0.17438
 C78 C 0.80478 0.25167 0.18673
 H79 H 0.83999 0.25193 0.21793
 H80 H 0.82401 0.30013 0.25566
 H81 H 0.78938 0.32119 0.24820
 H82 H 0.75294 0.30453 0.19968
 H83 H 0.76422 0.27193 0.17360
 H84 H 0.81664 0.24130 0.18527
 C85 C 0.80219 0.71891 0.28748
 C86 C 0.78981 0.72233 0.30385
 C87 C 0.77564 0.70888 0.30853
 C88 C 0.77363 0.69176 0.29688
 C89 C 0.78582 0.68843 0.28073
 C90 C 0.80021 0.70207 0.27598
 C91 C 0.81730 0.72963 0.27999
 N92 N 0.82597 0.71972 0.26274
 C93 C 0.81405 0.70212 0.26118
 C94 C 0.78069 0.67072 0.27223
 N95 N 0.76572 0.66322 0.28279
 C96 C 0.76129 0.67601 0.29795
 C97 C 0.76595 0.71603 0.32514
 N98 N 0.77390 0.73344 0.33067
 C99 C 0.78850 0.73743 0.31767
 H100 H 0.82230 0.74352 0.28601
 H101 H 0.81605 0.69071 0.24995
 H102 H 0.78739 0.66372 0.25928
 H103 H 0.75004 0.67418 0.30902
 H104 H 0.75399 0.70908 0.33272
 H105 H 0.79754 0.75032 0.31797
 C106 C 0.30170 0.21484 -0.21323
 C107 C 0.29146 0.22177 -0.19635
 C108 C 0.27637 0.21086 -0.18878
 C109 C 0.27121 0.19308 -0.19789
 C110 C 0.28112 0.18628 -0.21458
 C111 C 0.29652 0.19724 -0.22229
 C112 C 0.31717 0.22212 -0.22377
 N113 N 0.32149 0.20935 -0.23902
 C114 C 0.30888 0.19416 -0.23819
 C115 C 0.27275 0.16876 -0.22029
 N116 N 0.25799 0.16491 -0.20736
 C117 C 0.25706 0.17972 -0.19363
 C118 C 0.26889 0.22094 -0.17262
 N119 N 0.27894 0.23778 -0.17013
 C120 C 0.29286 0.23848 -0.18456
 H121 H 0.32462 0.23565 -0.22032
 H122 H 0.30880 0.18165 -0.24837
 H123 H 0.27723 0.15966 -0.23286
 H124 H 0.24671 0.18076 -0.18145
 H125 H 0.25682 0.21645 -0.16341
 H126 H 0.30315 0.25020 -0.18652
 C127 C 0.69069 0.27461 -0.21240
 C128 C 0.70311 0.27144 -0.19619
 C129 C 0.71838 0.28402 -0.19259
 C130 C 0.72146 0.29995 -0.20521
 C131 C 0.70919 0.30311 -0.22118
 C132 C 0.69367 0.29034 -0.22480
 C133 C 0.67458 0.26487 -0.21925
 N134 N 0.66764 0.27426 -0.23552
 C135 C 0.67928 0.28993 -0.23904
 C136 C 0.71555 0.31965 -0.23067
 N137 N 0.73141 0.32658 -0.22091
 C138 C 0.73510 0.31458 -0.20524
 C139 C 0.72779 0.27750 -0.17580
 N140 N 0.71861 0.26129 -0.16916
 C141 C 0.70346 0.25747 -0.18160
 H142 H 0.66826 0.25191 -0.21277
 H143 H 0.67751 0.30045 -0.25083
 H144 H 0.70910 0.32618 -0.24376
 H145 H 0.74665 0.31622 -0.19445
 H146 H 0.74038 0.28409 -0.16885
 H147 H 0.69330 0.24557 -0.18027
 C148 C 0.18902 0.78424 0.28526
 C149 C 0.20196 0.77797 0.30009
 C150 C 0.21830 0.78897 0.30442
 C151 C 0.22193 0.80638 0.29416
 C152 C 0.20914 0.81255 0.27974
 C153 C 0.19267 0.80146 0.27529
 C154 C 0.17179 0.77691 0.27781
 N155 N 0.16511 0.78939 0.26367
 C156 C 0.17776 0.80440 0.26214
 C157 C 0.21557 0.82993 0.27215
 N158 N 0.23346 0.83593 0.28170
 C159 C 0.23661 0.81992 0.29572
 C160 C 0.22810 0.77966 0.31944
 N161 N 0.21814 0.76338 0.32449
 C162 C 0.20213 0.76214 0.31268
 H163 H 0.16458 0.76373 0.28260
 H164 H 0.17613 0.81667 0.25218
 H165 H 0.20839 0.83825 0.26063
 H166 H 0.24877 0.81910 0.30588
 H167 H 0.24145 0.78448 0.32638
 H168 H 0.19141 0.75064 0.31309
 C169 C 0.46422 0.43558 0.46370
 C170 C 0.47155 0.44459 0.44657
 C171 C 0.46324 0.46176 0.43973
 C172 C 0.44744 0.47021 0.45008
 C173 C 0.44037 0.46126 0.46703
 C174 C 0.44872 0.44390 0.47381
 C175 C 0.46937 0.41887 0.47377
 N176 N 0.45728 0.41698 0.48973
 C177 C 0.44462 0.43222 0.48981
 C178 C 0.42558 0.47266 0.47449
 N179 N 0.42329 0.48832 0.46251
 C180 C 0.43658 0.48705 0.44747
 C181 C 0.47365 0.46726 0.42310
 N182 N 0.48800 0.45383 0.41981
 C183 C 0.48680 0.44001 0.43411
 H184 H 0.48090 0.40884 0.46958
 H185 H 0.43323 0.43459 0.50075
 H186 H 0.41716 0.46991 0.48784
 H187 H 0.43854 0.49772 0.43584
 H188 H 0.47111 0.48027 0.41442
 H189 H 0.49648 0.42756 0.43542
 C190 C -0.02373 -0.05268 0.96984
 C191 C -0.02050 -0.03994 0.95392
 C192 C -0.03312 -0.02451 0.95076
 C193 C -0.04919 -0.02160 0.96339
 C194 C -0.05241 -0.03422 0.97901
 C195 C -0.03955 -0.04984 0.98228
 C196 C -0.01384 -0.06884 0.97658
 N197 N -0.02321 -0.07589 0.99284
 C198 C -0.03904 -0.06433 0.99640
 C199 C -0.06897 -0.02835 0.98893
 N200 N -0.07734 -0.01106 0.97980
 C201 C -0.06368 -0.00770 0.96347
 C202 C -0.02651 -0.01468 0.93428
 N203 N -0.01024 -0.02374 0.92735
 C204 C -0.00644 -0.03926 0.93932
 H205 H -0.00071 -0.07500 0.97014
 H206 H -0.04954 -0.06610 1.00824
 H207 H -0.07513 -0.03547 1.00182
 H208 H -0.06495 0.00411 0.95292
 H209 H -0.03313 -0.00188 0.92771
 H210 H 0.00550 -0.04944 0.93763
 C211 C 1.03472 0.55880 0.96222
 C212 C 1.02717 0.54918 0.94532
 C213 C 1.03573 0.53209 0.93815
 C214 C 1.05207 0.52443 0.94784
 C215 C 1.05949 0.53396 0.96453
 C216 C 1.05075 0.55124 0.97178
 C217 C 1.02939 0.57569 0.97231
 N218 N 1.04182 0.57854 0.98789
 C219 C 1.05492 0.56362 0.98761
 C220 C 1.07543 0.52355 0.97067
 N221 N 1.07794 0.50784 0.95809
 C222 C 1.06368 0.50831 0.94411
 C223 C 1.02540 0.52615 0.92152
 N224 N 1.01079 0.53925 0.91856
 C225 C 1.01184 0.55336 0.93300
 H226 H 1.01733 0.58501 0.96837
 H227 H 1.06668 0.56193 0.99816
 H228 H 1.08449 0.52753 0.98325
 H229 H 1.06196 0.49776 0.93197
 H230 H 1.02851 0.51338 0.91227
 H231 H 1.00212 0.56581 0.93440
 C232 C 0.53315 0.06113 0.46415
 C233 C 0.52615 0.05269 0.44634
 C234 C 0.53553 0.03667 0.43779
 C235 C 0.55213 0.02894 0.44691
 C236 C 0.55905 0.03734 0.46443
 C237 C 0.54946 0.05349 0.47314
 C238 C 0.52701 0.07681 0.47571
 N239 N 0.53922 0.07882 0.49156
 C240 C 0.55299 0.06463 0.49006
 C241 C 0.57539 0.02714 0.46978
 N242 N 0.57863 0.01265 0.45591
 C243 C 0.56439 0.01364 0.44193
 C244 C 0.52567 0.03178 0.42053
 N245 N 0.51056 0.04447 0.41850
 C246 C 0.51081 0.05730 0.43419
 H247 H 0.51461 0.08600 0.47258
 H248 H 0.56477 0.06261 0.50052
 H249 H 0.58401 0.03017 0.48295
 H250 H 0.56314 0.00400 0.42897
 H251 H 0.52952 0.02008 0.41015
 H252 H 0.50059 0.06921 0.43650
 C253 C -0.02748 0.05805 0.53801
 C254 C -0.02421 0.04483 0.55357
 C255 C -0.03714 0.02983 0.55679
 C256 C -0.05345 0.02776 0.54446
 C257 C -0.05664 0.04071 0.52910
 C258 C -0.04356 0.05601 0.52586
 C259 C -0.01740 0.07409 0.53147
 N260 N -0.02695 0.08184 0.51569
 C261 C -0.04299 0.07082 0.51211
 C262 C -0.07346 0.03504 0.51965
 N263 N -0.08051 0.01897 0.52889
 C264 C -0.06834 0.01445 0.54414
 C265 C -0.03073 0.01912 0.57274
 N266 N -0.01290 0.02704 0.58052
 C267 C -0.00963 0.04347 0.56749
 H268 H -0.00406 0.07975 0.53773
 H269 H -0.05351 0.07321 0.50043
 H270 H -0.08011 0.04205 0.50693
 H271 H -0.07001 0.00246 0.55437
 H272 H -0.03789 0.00642 0.57877
 H273 H 0.00261 0.05326 0.56873
 C274 C 0.47829 0.56249 0.03974
 C275 C 0.48413 0.55020 0.05528
 C276 C 0.47199 0.53549 0.06156
 C277 C 0.45392 0.53285 0.05252
 C278 C 0.44808 0.54489 0.03717
 C279 C 0.46038 0.55992 0.03075
 C280 C 0.48713 0.57796 0.03055
 N281 N 0.47509 0.58497 0.01626
 C282 C 0.45864 0.57398 0.01626
 C283 C 0.42986 0.53874 0.03138
 N284 N 0.42472 0.52335 0.04294
 C285 C 0.43932 0.51975 0.05590
 C286 C 0.48122 0.52578 0.07667
 N287 N 0.49866 0.53428 0.07986
 C288 C 0.50066 0.54925 0.06680
 H289 H 0.50134 0.58374 0.03404
 H290 H 0.44633 0.57579 0.00647
 H291 H 0.42102 0.54517 0.01982
 H292 H 0.43930 0.50834 0.06699
 H293 H 0.47565 0.51342 0.08482
 H294 H 0.51318 0.55863 0.06556
 C295 C 0.52022 -0.05720 0.03329
 C296 C 0.51515 -0.04485 0.04946
 C297 C 0.52755 -0.03007 0.05534
 C298 C 0.54510 -0.02740 0.04530
 C299 C 0.55020 -0.03945 0.02928
 C300 C 0.53756 -0.05456 0.02317
 C301 C 0.51111 -0.07303 0.02463
 N302 N 0.52230 -0.08010 0.00944
 C303 C 0.53857 -0.06892 0.00839
 C304 C 0.56833 -0.03349 0.02297
 N305 N 0.57408 -0.01824 0.03491
 C306 C 0.55996 -0.01452 0.04854
 C307 C 0.51919 -0.02045 0.07137
 N308 N 0.50198 -0.02899 0.07544
 C309 C 0.49932 -0.04400 0.06209
 H310 H 0.49732 -0.07908 0.02912
 H311 H 0.55041 -0.07117 -0.00203
 H312 H 0.57680 -0.04006 0.01097
 H313 H 0.56060 -0.00333 0.06019
 H314 H 0.52520 -0.00807 0.07954
 H315 H 0.48685 -0.05353 0.06145
 C316 C 1.03022 0.45177 0.54315
 C317 C 1.02506 0.46384 0.55946
 C318 C 1.03713 0.47889 0.56542
 C319 C 1.05448 0.48214 0.55511
 C320 C 1.05963 0.47029 0.53895
 C321 C 1.04738 0.45486 0.53294
 C322 C 1.02113 0.43613 0.53413
 N323 N 1.03230 0.42951 0.51874
 C324 C 1.04842 0.44089 0.51780
 C325 C 1.07710 0.47711 0.53184
 N326 N 1.08254 0.49280 0.54335
 C327 C 1.06878 0.49586 0.55759
 C328 C 1.02852 0.48814 0.58160
 N329 N 1.01153 0.47906 0.58560
 C330 C 1.00927 0.46415 0.57207
 H331 H 1.00732 0.42998 0.53842
 H332 H 1.05993 0.43937 0.50687
 H333 H 1.08506 0.47099 0.51925
 H334 H 1.06909 0.50738 0.56892
 H335 H 1.03420 0.50058 0.58991
 H336 H 0.99716 0.45419 0.57129
 C337 C 0.39302 0.01286 0.21822
 H338 H 0.39531 0.02687 0.22561
 C339 C 0.40278 0.00835 0.20039
 H340 H 0.41218 0.01932 0.19422
 C341 C 0.37778 -0.01816 0.21771
 H342 H 0.36839 -0.02866 0.22469
 C343 C 0.38727 -0.02330 0.19992
 H344 H 0.38484 -0.03766 0.19329
 N345 N 0.38070 -0.00028 0.22642
 C346 C 0.34268 0.03466 0.26559
 H347 H 0.34433 0.02679 0.27942
 C348 C 0.33012 0.05073 0.26475
 H349 H 0.32220 0.05525 0.27806
 C350 C 0.35077 0.03811 0.23137
 H351 H 0.35867 0.03303 0.21831
 C352 C 0.33831 0.05421 0.22984
 H353 H 0.33734 0.06158 0.21567
 Zn354 Zn 0.36895 0.00633 0.25129
 N355 N 0.35283 0.02878 0.24909
 C356 C 0.39044 0.02733 0.28111
 N357 N 0.38916 0.01060 0.26991
 C358 C 0.40253 -0.00395 0.27154
 C359 C 0.41761 -0.00229 0.28530
 C360 C 0.40526 0.02960 0.29518
 C361 C 0.33778 -0.01947 0.24832
 C362 C 0.32600 -0.03520 0.25342
 C363 C 0.34564 -0.03984 0.28289
 C364 C 0.35708 -0.02409 0.27712
 N365 N 0.35320 -0.01452 0.25988
 H366 H 0.37989 0.03890 0.27932
 H367 H 0.40127 -0.01702 0.26228
 H368 H 0.42789 -0.01427 0.28647
 H369 H 0.40543 0.04300 0.30395
 H370 H 0.33485 -0.01136 0.23486
 H371 H 0.31418 -0.03869 0.24349
 H372 H 0.34920 -0.04738 0.29657
 H373 H 0.36910 -0.01961 0.28642
 C374 C 0.32766 0.06062 0.24668
 C375 C 0.40010 -0.01009 0.19107
 C376 C 0.32996 -0.04587 0.27091
 C377 C 0.41912 0.01454 0.29757
 C378 C 0.09997 -0.01499 0.72329
 H379 H 0.09895 -0.02900 0.73057
 C380 C 0.08838 -0.01107 0.70663
 H381 H 0.07874 -0.02237 0.70123
 C382 C 0.11405 0.01652 0.72168
 H383 H 0.12380 0.02741 0.72773
 C384 C 0.10274 0.02108 0.70513
 H385 H 0.10413 0.03540 0.69851
 N386 N 0.11269 -0.00135 0.73027
 C387 C 0.15649 -0.03341 0.76371
 H388 H 0.15628 -0.02460 0.77731
 C389 C 0.16951 -0.04897 0.76175
 H390 H 0.17927 -0.05217 0.77396
 C391 C 0.14423 -0.03961 0.73113
 H392 H 0.13452 -0.03571 0.71915
 C393 C 0.15720 -0.05524 0.72844
 H394 H 0.15686 -0.06353 0.71454
 Zn395 Zn 0.12825 -0.00677 0.75289
 N396 N 0.14408 -0.02913 0.74861
 C397 C 0.11181 -0.02812 0.78455
 N398 N 0.11179 -0.01054 0.77526
 C399 C 0.09976 0.00421 0.78139
 C400 C 0.08750 0.00177 0.79787
 C401 C 0.09988 -0.03120 0.80104
 C402 C 0.15913 0.01642 0.74262
 C403 C 0.17298 0.03112 0.74420
 C404 C 0.15914 0.04079 0.77612
 C405 C 0.14553 0.02578 0.77391
 N406 N 0.14567 0.01412 0.75724
 H407 H 0.12098 -0.03991 0.77914
 H408 H 0.09979 0.01795 0.77352
 H409 H 0.07846 0.01400 0.80242
 H410 H 0.10033 -0.04533 0.80821
 H411 H 0.15903 0.00677 0.72963
 H412 H 0.18346 0.03264 0.73223
 H413 H 0.15834 0.04982 0.78949
 H414 H 0.13494 0.02346 0.78554
 C415 C 0.17017 -0.05994 0.74388
 C416 C 0.08970 0.00726 0.69733
 C417 C 0.17320 0.04365 0.76106
 C418 C 0.08749 -0.01621 0.80805
 C419 C 0.60297 0.49241 0.22176
 H420 H 0.59968 0.47835 0.22818
 C421 C 0.59272 0.49884 0.20509
 H422 H 0.58137 0.48964 0.19904
 C423 C 0.62104 0.52184 0.22286
 H424 H 0.63174 0.53099 0.23008
 C425 C 0.61111 0.52886 0.20624
 H426 H 0.61448 0.54327 0.20065
 N427 N 0.61705 0.50376 0.23008
 C428 C 0.65362 0.46189 0.26154
 H429 H 0.65323 0.46831 0.27644
 C430 C 0.66457 0.44499 0.25796
 H431 H 0.67244 0.43854 0.27022
 C432 C 0.64374 0.46351 0.22753
 H433 H 0.63594 0.47116 0.21602
 C434 C 0.65423 0.44672 0.22226
 H435 H 0.65411 0.44160 0.20685
 Zn436 Zn 0.62987 0.49409 0.25299
 N437 N 0.64350 0.47054 0.24665
 C438 C 0.60734 0.47226 0.28085
 N439 N 0.61050 0.49005 0.27261
 C440 C 0.59931 0.50581 0.27762
 C441 C 0.58469 0.50422 0.29193
 C442 C 0.59275 0.46994 0.29517
 C443 C 0.66290 0.51751 0.24995
 C444 C 0.67597 0.53221 0.25538
 C445 C 0.65907 0.53595 0.28691
 C446 C 0.64632 0.52122 0.28081
 N447 N 0.64812 0.51271 0.26238
 H448 H 0.61606 0.45978 0.27629
 H449 H 0.60189 0.51972 0.27056
 H450 H 0.57617 0.51712 0.29577
 H451 H 0.59089 0.45554 0.30131
 H452 H 0.66415 0.51030 0.23547
 H453 H 0.68702 0.53595 0.24466
 H454 H 0.65704 0.54281 0.30150
 H455 H 0.63485 0.51684 0.29076
 C456 C 0.66584 0.43579 0.23731
 C457 C 0.59696 0.51722 0.19696
 C458 C 0.67399 0.54196 0.27405
 C459 C 0.58118 0.48616 0.30108
 C460 C 0.89214 0.50718 0.72385
 H461 H 0.89351 0.52035 0.73294
 C462 C 0.90315 0.50491 0.70641
 H463 H 0.91256 0.51674 0.70210
 C464 C 0.87790 0.47599 0.71870
 H465 H 0.86839 0.46456 0.72374
 C466 C 0.88864 0.47312 0.70116
 H467 H 0.88708 0.45952 0.69275
 N468 N 0.87981 0.49284 0.72963
 C469 C 0.83855 0.52182 0.77007
 H470 H 0.84011 0.51278 0.78313
 C471 C 0.82505 0.53712 0.77011
 H472 H 0.81629 0.53988 0.78333
 C473 C 0.84786 0.52897 0.73683
 H474 H 0.85662 0.52563 0.72381
 C475 C 0.83452 0.54440 0.73622
 H476 H 0.83372 0.55306 0.72283
 Zn477 Zn 0.86678 0.49637 0.75438
 N478 N 0.84968 0.51810 0.75362
 C479 C 0.88652 0.51638 0.78603
 N480 N 0.88609 0.50010 0.77408
 C481 C 0.90000 0.48603 0.77532
 C482 C 0.91486 0.48777 0.78933
 C483 C 0.90115 0.51876 0.80028
 C484 C 0.83672 0.46970 0.74786
 C485 C 0.82492 0.45358 0.75154
 C486 C 0.84386 0.44713 0.78111
 C487 C 0.85529 0.46335 0.77681
 N488 N 0.85170 0.47412 0.76028
 H489 H 0.87555 0.52759 0.78453
 H490 H 0.89945 0.47335 0.76542
 H491 H 0.92568 0.47624 0.79009
 H492 H 0.90067 0.53179 0.80962
 H493 H 0.83403 0.47871 0.73496
 H494 H 0.81344 0.45053 0.74103
 H495 H 0.84709 0.43875 0.79435
 H496 H 0.86693 0.46735 0.78681
 C497 C 0.82272 0.54848 0.75297
 C498 C 0.90167 0.48752 0.69495
 C499 C 0.82839 0.44194 0.76845
 C500 C 0.91569 0.50428 0.80213
 C501 C 0.22932 0.41426 0.01110
 H502 H 0.23848 0.41514 0.02420
 C503 C 0.21198 0.42479 0.01059
 H504 H 0.20782 0.43378 0.02340
 C505 C 0.22381 0.40164 -0.02161
 H506 H 0.22857 0.39280 -0.03423
 C507 C 0.20636 0.41203 -0.02281
 H508 H 0.19773 0.41050 -0.03622
 N509 N 0.23479 0.40279 -0.00475
 C510 C 0.27436 0.36090 0.02266
 H511 H 0.28726 0.36303 0.01375
 C512 C 0.27431 0.34697 0.03778
 H513 H 0.28730 0.33847 0.04054
 C514 C 0.24163 0.36914 0.02962
 H515 H 0.22881 0.37756 0.02623
 C516 C 0.24093 0.35534 0.04481
 H517 H 0.22767 0.35394 0.05330
 Zn518 Zn 0.25882 0.38952 -0.00257
 N519 N 0.25821 0.37174 0.01896
 C520 C 0.28923 0.40953 0.01799
 N521 N 0.27787 0.40899 0.00140
 C522 C 0.27930 0.42290 -0.01285
 C523 C 0.29292 0.43785 -0.01101
 C524 C 0.30301 0.42428 0.02051
 C525 C 0.25149 0.36044 -0.03105
 C526 C 0.25433 0.34845 -0.04780
 C527 C 0.28547 0.36653 -0.05344
 C528 C 0.28088 0.37772 -0.03649
 N529 N 0.26430 0.37468 -0.02603
 H530 H 0.28761 0.39854 0.02933
 H531 H 0.26989 0.42226 -0.02577
 H532 H 0.29386 0.44865 -0.02270
 H533 H 0.31196 0.42382 0.03372
 H534 H 0.23877 0.35841 -0.02183
 H535 H 0.24364 0.33737 -0.05123
 H536 H 0.29884 0.36938 -0.06135
 H537 H 0.29093 0.38884 -0.03149
 C538 C 0.25738 0.34386 0.04890
 C539 C 0.20032 0.42390 -0.00656
 C540 C 0.27225 0.35047 -0.06100
 C541 C 0.30505 0.43882 0.00584
 C542 C 0.72346 0.08236 -0.01050
 H543 H 0.73375 0.08360 -0.02265
 C544 C 0.70964 0.06750 -0.01098
 H545 H 0.70939 0.05730 -0.02355
 C546 C 0.71126 0.09436 0.02051
 H547 H 0.71191 0.10490 0.03271
 C548 C 0.69715 0.07969 0.02064
 H549 H 0.68686 0.07952 0.03285
 N550 N 0.72388 0.09556 0.00493
 C551 C 0.74872 0.14744 -0.02169
 H552 H 0.76123 0.14947 -0.01216
 C553 C 0.74541 0.16039 -0.03722
 H554 H 0.75545 0.17227 -0.03950
 C555 C 0.72046 0.12903 -0.02945
 H556 H 0.71098 0.11702 -0.02593
 C557 C 0.71569 0.14110 -0.04531
 H558 H 0.70272 0.13808 -0.05389
 Zn559 Zn 0.74279 0.11550 0.00309
 N560 N 0.73667 0.13216 -0.01841
 C561 C 0.77667 0.10564 -0.01911
 N562 N 0.76693 0.10286 -0.00169
 C563 C 0.77361 0.09012 0.01216
 C564 C 0.79095 0.07987 0.00898
 C565 C 0.79398 0.09565 -0.02298
 C566 C 0.72798 0.14248 0.03157
 C567 C 0.72880 0.15614 0.04735
 C568 C 0.76229 0.14722 0.05246
 C569 C 0.76078 0.13369 0.03665
 N570 N 0.74385 0.13162 0.02649
 H571 H 0.77089 0.11536 -0.03023
 H572 H 0.76539 0.08791 0.02574
 H573 H 0.79566 0.07005 0.02052
 H574 H 0.80139 0.09813 -0.03702
 H575 H 0.71478 0.14088 0.02301
 H576 H 0.71600 0.16478 0.05090
 H577 H 0.77604 0.14813 0.06007
 H578 H 0.77337 0.12526 0.03218
 C579 C 0.72811 0.15807 -0.05081
 C580 C 0.69625 0.06599 0.00469
 C581 C 0.74623 0.15906 0.05785
 C582 C 0.80145 0.08248 -0.00893
 C583 C 0.22793 0.58736 0.47899
 H584 H 0.23445 0.58925 0.46442
 C585 C 0.21384 0.57302 0.48166
 H586 H 0.20951 0.56396 0.46900
 C587 C 0.22582 0.59683 0.51317
 H588 H 0.23081 0.60586 0.52551
 C589 C 0.21168 0.58263 0.51652
 H590 H 0.20618 0.58102 0.53154
 N591 N 0.23338 0.59915 0.49455
 C592 C 0.25513 0.65081 0.46416
 H593 H 0.26949 0.65196 0.47052
 C594 C 0.24913 0.66406 0.44966
 H595 H 0.25894 0.67553 0.44528
 C596 C 0.22476 0.63482 0.46295
 H597 H 0.21519 0.62360 0.46835
 C598 C 0.21815 0.64777 0.44848
 H599 H 0.20357 0.64622 0.44271
 Zn600 Zn 0.25252 0.61820 0.48911
 N601 N 0.24313 0.63628 0.47015
 C602 C 0.28192 0.60786 0.46044
 N603 N 0.27439 0.60451 0.47890
 C604 C 0.28224 0.59083 0.49104
 C605 C 0.29904 0.58077 0.48539
 C606 C 0.29864 0.59794 0.45404
 C607 C 0.24582 0.64281 0.52288
 C608 C 0.25060 0.65329 0.54034
 C609 C 0.28384 0.64288 0.53598
 C610 C 0.27840 0.63261 0.51870
 N611 N 0.25959 0.63242 0.51267
 H612 H 0.27509 0.61831 0.45070
 H613 H 0.27558 0.58803 0.50539
 H614 H 0.30460 0.56994 0.49553
 H615 H 0.30458 0.60107 0.43942
 H616 H 0.23106 0.64288 0.51746
 H617 H 0.23917 0.66137 0.54785
 H618 H 0.29892 0.64264 0.54044
 H619 H 0.28933 0.62493 0.51004
 C620 C 0.23050 0.66234 0.44131
 C621 C 0.20529 0.57067 0.50052
 C622 C 0.26991 0.65326 0.54730
 C623 C 0.30785 0.58461 0.46680
 C624 C 0.72470 0.91403 0.51214
 H625 H 0.73259 0.91385 0.52611
 C626 C 0.71019 0.92796 0.50922
 H627 H 0.70692 0.93845 0.52109
 C628 C 0.71967 0.90070 0.47963
 H629 H 0.72370 0.89029 0.46800
 C630 C 0.70503 0.91442 0.47605
 H631 H 0.69811 0.91436 0.46156
 N632 N 0.72898 0.90061 0.49756
 C633 C 0.75476 0.85254 0.53067
 H634 H 0.76859 0.85099 0.52314
 C635 C 0.75006 0.84015 0.54639
 H636 H 0.76035 0.82895 0.55060
 C637 C 0.72426 0.86842 0.53337
 H638 H 0.71407 0.87918 0.52804
 C639 C 0.71893 0.85629 0.54906
 H640 H 0.70474 0.85802 0.55584
 Zn641 Zn 0.74919 0.88274 0.50316
 N642 N 0.74204 0.86656 0.52472
 C643 C 0.78055 0.89611 0.52750
 N644 N 0.77125 0.89792 0.50971
 C645 C 0.77701 0.91131 0.49611
 C646 C 0.79297 0.92327 0.49991
 C647 C 0.79662 0.90773 0.53193
 C648 C 0.74005 0.85402 0.47459
 C649 C 0.74273 0.84101 0.45858
 C650 C 0.77672 0.85380 0.45609
 C651 C 0.77225 0.86615 0.47221
 N652 N 0.75441 0.86618 0.48079
 H653 H 0.77550 0.88574 0.53836
 H654 H 0.76919 0.91259 0.48216
 H655 H 0.79717 0.93336 0.48842
 H656 H 0.80385 0.90592 0.54618
 H657 H 0.72624 0.85447 0.48227
 H658 H 0.73087 0.83164 0.45406
 H659 H 0.79112 0.85426 0.44966
 H660 H 0.78336 0.87572 0.47804
 C661 C 0.73198 0.84214 0.55596
 C662 C 0.70001 0.92819 0.49109
 C663 C 0.76208 0.83970 0.44748
 C664 C 0.80311 0.92161 0.51812
 C665 C 0.01058 0.22774 0.41150
 H666 H 0.02501 0.23384 0.41233
 C667 C 0.00529 0.21257 0.42420
 H668 H 0.01574 0.20734 0.43494
 C669 C -0.02070 0.22793 0.39698
 H670 H -0.03091 0.23411 0.38658
 C671 C -0.02663 0.21289 0.40948
 H672 H -0.04133 0.20747 0.40838
 N673 N -0.00225 0.23480 0.39794
 C674 C 0.03311 0.25914 0.35015
 H675 H 0.02637 0.27341 0.34886
 C676 C 0.04845 0.25384 0.33750
 H677 H 0.05307 0.26414 0.32636
 C678 C 0.03431 0.22821 0.36572
 H679 H 0.02857 0.21812 0.37648
 C680 C 0.04968 0.22230 0.35337
 H681 H 0.05577 0.20775 0.35493
 Zn682 Zn 0.00581 0.25512 0.38076
 N683 N 0.02659 0.24651 0.36415
 C684 C 0.03167 0.28435 0.39552
 N685 N 0.01357 0.27671 0.39700
 C686 C 0.00055 0.28410 0.41042
 C687 C 0.00518 0.30034 0.42243
 C688 C 0.03697 0.30055 0.40727
 C689 C -0.02118 0.24884 0.35022
 C690 C -0.03678 0.25294 0.33765
 C691 C -0.03880 0.28528 0.35269
 C692 C -0.02312 0.28055 0.36491
 N693 N -0.01491 0.26243 0.36376
 H694 H 0.04205 0.27797 0.38520
 H695 H -0.01360 0.27744 0.41163
 H696 H -0.00569 0.30557 0.43286
 H697 H 0.05141 0.30649 0.40561
 H698 H -0.01416 0.23464 0.34939
 H699 H -0.04120 0.24154 0.32730
 H700 H -0.04525 0.29975 0.35413
 H701 H -0.01765 0.29137 0.37537
 C702 C 0.05718 0.23528 0.33927
 C703 C -0.01350 0.20476 0.42304
 C704 C -0.04611 0.27137 0.33894
 C705 C 0.02360 0.30908 0.42076
 C706 C -0.00958 0.72864 0.09068
 H707 H -0.02252 0.73764 0.09088
 C708 C -0.00685 0.71461 0.07554
 H709 H -0.01783 0.71283 0.06410
 C710 C 0.02044 0.72011 0.10540
 H711 H 0.03119 0.72254 0.11688
 C712 C 0.02377 0.70589 0.09052
 H713 H 0.03720 0.69773 0.09085
 N714 N 0.00379 0.73084 0.10545
 C715 C -0.02919 0.75407 0.15613
 H716 H -0.02094 0.76711 0.15967
 C717 C -0.04522 0.74923 0.16779
 H718 H -0.04894 0.75860 0.18041
 C719 C -0.03338 0.72557 0.13595
 H720 H -0.02852 0.71617 0.12380
 C721 C -0.04946 0.72014 0.14724
 H722 H -0.05698 0.70669 0.14348
 Zn723 Zn -0.00157 0.74977 0.12567
 N724 N -0.02378 0.74244 0.14038
 C725 C -0.02289 0.78374 0.11487
 N726 N -0.00578 0.77398 0.11282
 C727 C 0.00835 0.78062 0.10049
 C728 C 0.00557 0.79772 0.08958
 C729 C -0.02628 0.80092 0.10434
 C730 C 0.02305 0.73531 0.15508
 C731 C 0.03766 0.73573 0.16949
 C732 C 0.04378 0.76950 0.16128
 C733 C 0.02911 0.76836 0.14693
 N734 N 0.01915 0.75143 0.14407
 H735 H -0.03414 0.77806 0.12438
 H736 H 0.02176 0.77246 0.09897
 H737 H 0.01729 0.80246 0.08012
 H738 H -0.04010 0.80833 0.10618
 H739 H 0.01471 0.72210 0.15268
 H740 H 0.04047 0.72265 0.17803
 H741 H 0.05148 0.78317 0.16273
 H742 H 0.02559 0.78110 0.13822
 C743 C -0.05572 0.73213 0.16322
 C744 C 0.00981 0.70277 0.07550
 C745 C 0.04819 0.75302 0.17300
 C746 C -0.01210 0.80810 0.09124
 C747 C 0.48224 0.22185 0.60320
 H748 H 0.46940 0.23100 0.60306
 C749 C 0.48331 0.20523 0.59087
 H750 H 0.47118 0.20157 0.58127
 C751 C 0.51382 0.21581 0.61560
 H752 H 0.52577 0.22014 0.62507
 C753 C 0.51558 0.19911 0.60335
 H754 H 0.52875 0.19051 0.60404
 N755 N 0.49730 0.22675 0.61533
 C756 C 0.46911 0.26437 0.66025
 H757 H 0.47752 0.27765 0.65910
 C758 C 0.45372 0.26350 0.67382
 H759 H 0.45026 0.27625 0.68301
 C760 C 0.46367 0.23151 0.64994
 H761 H 0.46789 0.21888 0.64101
 C762 C 0.44825 0.22997 0.66335
 H763 H 0.44105 0.21601 0.66440
 Zn764 Zn 0.49468 0.25032 0.63033
 N765 N 0.47356 0.24861 0.64839
 C766 C 0.47514 0.28250 0.61197
 N767 N 0.49076 0.27031 0.61148
 C768 C 0.50435 0.27153 0.59683
 C769 C 0.50284 0.28576 0.58218
 C770 C 0.47304 0.29704 0.59760
 C771 C 0.52274 0.24263 0.65963
 C772 C 0.53934 0.24599 0.67111
 C773 C 0.54421 0.27613 0.65331
 C774 C 0.52756 0.27217 0.64222
 N775 N 0.51732 0.25554 0.64537
 H776 H 0.46426 0.28102 0.62347
 H777 H 0.51649 0.26144 0.59665
 H778 H 0.51401 0.28648 0.57079
 H779 H 0.46055 0.30655 0.59878
 H780 H 0.51419 0.22962 0.66197
 H781 H 0.54323 0.23514 0.68198
 H782 H 0.55213 0.28948 0.65042
 H783 H 0.52280 0.28252 0.63118
 C784 C 0.44289 0.24623 0.67534
 C785 C 0.50022 0.19378 0.59062
 C786 C 0.55040 0.26304 0.66804
 C787 C 0.48711 0.29890 0.58237
 C788 C 0.50203 0.72358 0.90167
 H789 H 0.51560 0.73136 0.90304
 C790 C 0.49724 0.70919 0.91548
 H791 H 0.50716 0.70632 0.92760
 C792 C 0.47242 0.71866 0.88452
 H793 H 0.46265 0.72252 0.87260
 C794 C 0.46705 0.70419 0.89797
 H795 H 0.45323 0.69693 0.89612
 N796 N 0.48983 0.72775 0.88633
 C797 C 0.52658 0.74988 0.83866
 H798 H 0.51907 0.76343 0.83547
 C799 C 0.54299 0.74448 0.82762
 H800 H 0.54773 0.75392 0.81573
 C801 C 0.52865 0.72081 0.85749
 H802 H 0.52284 0.71146 0.86891
 C803 C 0.54511 0.71483 0.84680
 H804 H 0.55196 0.70098 0.85025
 Zn805 Zn 0.49755 0.74688 0.86763
 N806 N 0.51993 0.73823 0.85349
 C807 C 0.52137 0.77774 0.88198
 N808 N 0.50307 0.77045 0.88207
 C809 C 0.48892 0.77906 0.89336
 C810 C 0.49282 0.79588 0.90490
 C811 C 0.52595 0.79442 0.89332
 C812 C 0.47408 0.73490 0.83600
 C813 C 0.45968 0.73600 0.82144
 C814 C 0.45333 0.76943 0.83196
 C815 C 0.46791 0.76764 0.84637
 N816 N 0.47775 0.75047 0.84830
 H817 H 0.53262 0.77044 0.87342
 H818 H 0.47457 0.77275 0.89353
 H819 H 0.48106 0.80210 0.91358
 H820 H 0.54070 0.79979 0.89299
 H821 H 0.48229 0.72148 0.83767
 H822 H 0.45697 0.72325 0.81201
 H823 H 0.44572 0.78325 0.83123
 H824 H 0.47128 0.77999 0.85603
 C825 C 0.55268 0.72685 0.83187
 C826 C 0.47964 0.69902 0.91348
 C827 C 0.44893 0.75337 0.81919
 C828 C 0.51168 0.80384 0.90508
 C829 C 0.15669 0.23212 0.25030
 C830 C 0.15047 0.21988 0.26540
 C831 C 0.13390 0.22544 0.27846
 C832 C 0.12702 0.21214 0.29260
 C833 C 0.11137 0.21711 0.30507
 C834 C 0.10229 0.23555 0.30360
 C835 C 0.10936 0.24890 0.28964
 C836 C 0.12490 0.24392 0.27715
 C837 C 0.08590 0.24176 0.31662
 C838 C 0.07366 0.22877 0.32648
 H839 H 0.15769 0.20591 0.26754
 H840 H 0.13380 0.19789 0.29403
 H841 H 0.10675 0.20660 0.31602
 H842 H 0.10275 0.26325 0.28830
 H843 H 0.12986 0.25462 0.26652
 H844 H 0.08327 0.25734 0.31807
 H845 H 0.16573 0.22853 0.24372
 H846 H 0.07633 0.21318 0.32518
 C847 C 0.65874 0.72503 0.75055
 C848 C 0.64991 0.71190 0.76351
 C849 C 0.63296 0.71740 0.77606
 C850 C 0.61984 0.70285 0.78173
 C851 C 0.60338 0.70766 0.79307
 C852 C 0.59991 0.72718 0.79927
 C853 C 0.61325 0.74164 0.79388
 C854 C 0.62964 0.73683 0.78250
 C855 C 0.58239 0.73327 0.81072
 C856 C 0.57023 0.72034 0.82075
 H857 H 0.65460 0.69675 0.76344
 H858 H 0.62212 0.68776 0.77699
 H859 H 0.59332 0.69611 0.79650
 H860 H 0.61099 0.75677 0.79850
 H861 H 0.63974 0.74836 0.77898
 H862 H 0.57949 0.74883 0.81192
 H863 H 0.65279 0.73964 0.74916
 H864 H 0.57416 0.70502 0.82156
 C865 C 0.34748 0.78586 0.74001
 C866 C 0.35948 0.76960 0.74287
 C867 C 0.37603 0.76986 0.75705
 C868 C 0.38235 0.75217 0.76533
 C869 C 0.39753 0.75193 0.77920
 C870 C 0.40695 0.76941 0.78484
 C871 C 0.40076 0.78705 0.77636
 C872 C 0.38559 0.78730 0.76252
 C873 C 0.42271 0.77000 0.79995
 C874 C 0.43426 0.75372 0.80451
 H875 H 0.35585 0.75581 0.73566
 H876 H 0.37524 0.73854 0.76139
 H877 H 0.40142 0.73808 0.78576
 H878 H 0.40775 0.80073 0.78040
 H879 H 0.38159 0.80116 0.75604
 H880 H 0.42556 0.78407 0.80691
 H881 H 0.35010 0.79915 0.74860
 H882 H 0.43198 0.74038 0.79588
 C883 C -0.14612 0.27136 0.25109
 C884 C -0.14000 0.28295 0.26731
 C885 C -0.12254 0.27806 0.27912
 C886 C -0.11210 0.29315 0.28857
 C887 C -0.09548 0.28896 0.29973
 C888 C -0.08919 0.26945 0.30198
 C889 C -0.09980 0.25439 0.29265
 C890 C -0.11631 0.25859 0.28143
 C891 C -0.07164 0.26401 0.31353
 C892 C -0.06238 0.27650 0.32733
 H893 H -0.14746 0.29651 0.27094
 H894 H -0.11664 0.30827 0.28704
 H895 H -0.08759 0.30112 0.30620
 H896 H -0.09538 0.23923 0.29415
 H897 H -0.12432 0.24651 0.27490
 H898 H -0.06658 0.24915 0.31143
 H899 H -0.13726 0.25893 0.24655
 H900 H -0.06839 0.29099 0.32978
 C901 C -0.15692 0.72643 0.25015
 C902 C -0.15013 0.71551 0.23387
 C903 C -0.13330 0.72177 0.22187
 C904 C -0.12731 0.71009 0.20554
 C905 C -0.11134 0.71542 0.19399
 C906 C -0.10091 0.73255 0.19868
 C907 C -0.10711 0.74441 0.21482
 C908 C -0.12309 0.73907 0.22636
 C909 C -0.08385 0.73878 0.18692
 C910 C -0.07276 0.72596 0.17502
 H911 H -0.15723 0.70188 0.22982
 H912 H -0.13506 0.69679 0.20164
 H913 H -0.10752 0.70621 0.18128
 H914 H -0.09945 0.75776 0.21863
 H915 H -0.12737 0.74847 0.23880
 H916 H -0.07980 0.75404 0.18808
 H917 H -0.16542 0.72270 0.25608
 H918 H -0.07677 0.71068 0.17391
 C919 C 0.33590 0.21057 0.74710
 C920 C 0.34913 0.22607 0.74654
 C921 C 0.36527 0.22708 0.73188
 C922 C 0.37425 0.24521 0.72872
 C923 C 0.38960 0.24681 0.71515
 C924 C 0.39642 0.23019 0.70456
 C925 C 0.38748 0.21208 0.70773
 C926 C 0.37222 0.21046 0.72136
 C927 C 0.41238 0.23110 0.68976
 C928 C 0.42662 0.24564 0.68990
 H929 H 0.34747 0.23833 0.75683
 H930 H 0.36923 0.25824 0.73664
 H931 H 0.39576 0.26112 0.71278
 H932 H 0.39249 0.19905 0.69980
 H933 H 0.36625 0.19608 0.72373
 H934 H 0.41301 0.21942 0.67869
 H935 H 0.33698 0.19897 0.73594
 H936 H 0.42593 0.25722 0.70110
 C937 C 0.65154 0.26849 0.75427
 C938 C 0.64461 0.27813 0.73737
 C939 C 0.62676 0.27221 0.72664
 C940 C 0.62443 0.27777 0.70666
 C941 C 0.60770 0.27273 0.69607
 C942 C 0.59277 0.26225 0.70539
 C943 C 0.59513 0.25661 0.72534
 C944 C 0.61185 0.26166 0.73594
 C945 C 0.57479 0.25670 0.69471
 C946 C 0.56733 0.26758 0.67885
 H947 H 0.65281 0.29004 0.73114
 H948 H 0.63569 0.28588 0.69914
 H949 H 0.60670 0.27682 0.68053
 H950 H 0.58383 0.24854 0.73285
 H951 H 0.61278 0.25760 0.75148
 H952 H 0.56686 0.24442 0.70053
 H953 H 0.64396 0.25564 0.75939
 H954 H 0.57489 0.28086 0.67490
 C955 C 0.14758 0.78827 0.25224
 C956 C 0.13651 0.77128 0.25042
 C957 C 0.11929 0.77050 0.23723
 C958 C 0.11449 0.75288 0.22740
 C959 C 0.09917 0.75222 0.21370
 C960 C 0.08817 0.76918 0.20985
 C961 C 0.09263 0.78660 0.22019
 C962 C 0.10789 0.78725 0.23384
 C963 C 0.07267 0.76965 0.19455
 C964 C 0.06261 0.75301 0.18791
 H965 H 0.14151 0.75790 0.25724
 H966 H 0.12304 0.73977 0.22980
 H967 H 0.09647 0.73860 0.20573
 H968 H 0.08432 0.79984 0.21762
 H969 H 0.11074 0.80093 0.24166
 H970 H 0.06858 0.78397 0.18928
 H971 H 0.14358 0.80095 0.24359
 H972 H 0.06561 0.73929 0.19524
 C973 C 0.25375 0.16423 0.20752
 C974 C 0.25353 0.15098 0.22326
 C975 C 0.26688 0.13393 0.22439
 C976 C 0.27040 0.12548 0.24306
 C977 C 0.28292 0.10941 0.24476
 C978 C 0.29222 0.10140 0.22771
 C979 C 0.28830 0.10957 0.20899
 C980 C 0.27579 0.12562 0.20729
 C981 C 0.30560 0.08433 0.22858
 C982 C 0.31424 0.07765 0.24615
 H983 H 0.24389 0.15363 0.23580
 H984 H 0.26347 0.13138 0.25642
 H985 H 0.28495 0.10327 0.25941
 H986 H 0.29498 0.10352 0.19556
 H987 H 0.27295 0.13118 0.19252
 H988 H 0.30887 0.07688 0.21458
 H989 H 0.26443 0.16251 0.19576
 H990 H 0.31088 0.08476 0.26030
 C991 C 0.74754 0.65001 0.71347
 C992 C 0.74754 0.63820 0.73035
 C993 C 0.76021 0.62071 0.73182
 C994 C 0.76700 0.61499 0.75062
 C995 C 0.77978 0.59912 0.75233
 C996 C 0.78580 0.58845 0.73518
 C997 C 0.77845 0.59386 0.71647
 C998 C 0.76579 0.60975 0.71477
 C999 C 0.79989 0.57194 0.73580
 C1000 C 0.80820 0.56456 0.75322
 H1001 H 0.73934 0.64275 0.74344
 H1002 H 0.76277 0.62313 0.76398
 H1003 H 0.78495 0.59562 0.76709
 H1004 H 0.78264 0.58584 0.70302
 H1005 H 0.76033 0.61331 0.70010
 H1006 H 0.80371 0.56512 0.72161
 H1007 H 0.75735 0.64651 0.70125
 H1008 H 0.80348 0.56996 0.76771
 C1009 C 0.74130 0.34287 0.77356
 C1010 C 0.75805 0.34935 0.78336
 C1011 C 0.76882 0.36713 0.77760
 C1012 C 0.78836 0.36874 0.78308
 C1013 C 0.79902 0.38536 0.77824
 C1014 C 0.79022 0.40094 0.76806
 C1015 C 0.77070 0.39930 0.76249
 C1016 C 0.76003 0.38266 0.76731
 C1017 C 0.80103 0.41880 0.76262
 C1018 C 0.81731 0.42537 0.77323
 H1019 H 0.76423 0.34072 0.79518
 H1020 H 0.79548 0.35698 0.79096
 H1021 H 0.81420 0.38574 0.78222
 H1022 H 0.76359 0.41108 0.75462
 H1023 H 0.74487 0.38225 0.76329
 H1024 H 0.79514 0.42729 0.75055
 H1025 H 0.73613 0.35084 0.76073
 H1026 H 0.82151 0.41734 0.78639
 C1027 C 0.24484 -0.14555 0.27728
 C1028 C 0.26211 -0.14073 0.28670
 C1029 C 0.27256 -0.12256 0.28173
 C1030 C 0.29087 -0.11905 0.29005
 C1031 C 0.30117 -0.10212 0.28529
 C1032 C 0.29318 -0.08824 0.27223
 C1033 C 0.27486 -0.09182 0.26393
 C1034 C 0.26463 -0.10873 0.26862
 C1035 C 0.30362 -0.07034 0.26618
 C1036 C 0.31923 -0.06233 0.27683
 H1037 H 0.26825 -0.15053 0.29767
 H1038 H 0.29735 -0.12955 0.30006
 H1039 H 0.31548 -0.10032 0.29155
 H1040 H 0.26841 -0.08147 0.25373
 H1041 H 0.25053 -0.11093 0.26191
 H1042 H 0.29822 -0.06324 0.25299
 H1043 H 0.23997 -0.15499 0.28025
 H1044 H 0.32345 -0.06922 0.29063
 C1045 C 0.24745 -0.16094 0.70429
 C1046 C 0.24947 -0.14468 0.71709
 C1047 C 0.23485 -0.12876 0.71840
 C1048 C 0.23353 -0.11755 0.73611
 C1049 C 0.21965 -0.10268 0.73811
 C1050 C 0.20678 -0.09869 0.72235
 C1051 C 0.20860 -0.10942 0.70438
 C1052 C 0.22246 -0.12431 0.70238
 C1053 C 0.19176 -0.08316 0.72388
 C1054 C 0.18445 -0.07611 0.74213
 H1055 H 0.26147 -0.14399 0.72744
 H1056 H 0.24316 -0.12042 0.74852
 H1057 H 0.21934 -0.09422 0.75192
 H1058 H 0.19916 -0.10635 0.69186
 H1059 H 0.22355 -0.13206 0.68818
 H1060 H 0.18620 -0.07732 0.71006
 H1061 H 0.23465 -0.16198 0.69500
 H1062 H 0.18988 -0.08208 0.75594
 C1063 C 0.75443 0.33350 0.23179
 C1064 C 0.73817 0.33920 0.22083
 C1065 C 0.72541 0.35573 0.22717
 C1066 C 0.71448 0.36553 0.21269
 C1067 C 0.70265 0.38147 0.21807
 C1068 C 0.70138 0.38784 0.23817
 C1069 C 0.71191 0.37772 0.25271
 C1070 C 0.72374 0.36180 0.24733
 C1071 C 0.68948 0.40499 0.24439
 C1072 C 0.67878 0.41580 0.23080
 H1073 H 0.73529 0.33215 0.20655
 H1074 H 0.71533 0.36103 0.19709
 H1075 H 0.69463 0.38886 0.20647
 H1076 H 0.71102 0.38217 0.26832
 H1077 H 0.73133 0.35422 0.25907
 H1078 H 0.68941 0.40940 0.26003
 H1079 H 0.75822 0.34167 0.24521
 H1080 H 0.67253 0.42580 0.23499
 C1081 C 0.75668 0.64480 0.27805
 C1082 C 0.74120 0.63742 0.28906
 C1083 C 0.73139 0.61869 0.28408
 C1084 C 0.71256 0.61567 0.29131
 C1085 C 0.70264 0.59837 0.28674
 C1086 C 0.71150 0.58354 0.27504
 C1087 C 0.73039 0.58647 0.26793
 C1088 C 0.74033 0.60377 0.27252
 C1089 C 0.70118 0.56536 0.26914
 C1090 C 0.68570 0.55781 0.28016
 H1091 H 0.73528 0.64606 0.30132
 H1092 H 0.70534 0.62691 0.30023
 H1093 H 0.68789 0.59697 0.29198
 H1094 H 0.73753 0.57529 0.25887
 H1095 H 0.75502 0.60520 0.26713
 H1096 H 0.70648 0.55772 0.25595
 H1097 H 0.76193 0.63674 0.26506
 H1098 H 0.68236 0.56476 0.29444
 C1099 C 0.24575 0.14935 0.79265
 C1100 C 0.24582 0.13469 0.77783
 C1101 C 0.23184 0.11832 0.77800
 C1102 C 0.22581 0.10999 0.75977
 C1103 C 0.21217 0.09492 0.75939
 C1104 C 0.20457 0.08759 0.77736
 C1105 C 0.21079 0.09582 0.79559
 C1106 C 0.22437 0.11093 0.79595
 C1107 C 0.18981 0.07190 0.77769
 C1108 C 0.18735 0.05843 0.76190
 H1109 H 0.25524 0.13585 0.76496
 H1110 H 0.23133 0.11548 0.74574
 H1111 H 0.20733 0.08948 0.74498
 H1112 H 0.20521 0.09044 0.80964
 H1113 H 0.22912 0.11662 0.81032
 H1114 H 0.18134 0.07072 0.79121
 H1115 H 0.23496 0.14870 0.80441
 H1116 H 0.19730 0.05920 0.74940
 C1117 C 0.21963 0.26417 0.14926
 C1118 C 0.23513 0.26409 0.13578
 C1119 C 0.23645 0.27811 0.11911
 C1120 C 0.25470 0.28285 0.11132
 C1121 C 0.25643 0.29626 0.09577
 C1122 C 0.23982 0.30512 0.08760
 C1123 C 0.22156 0.29990 0.09504
 C1124 C 0.21985 0.28656 0.11057
 C1125 C 0.24061 0.31961 0.07126
 C1126 C 0.25747 0.32890 0.06476
 H1127 H 0.24718 0.25420 0.13806
 H1128 H 0.26769 0.27629 0.11742
 H1129 H 0.27077 0.29938 0.09023
 H1130 H 0.20849 0.30623 0.08886
 H1131 H 0.20547 0.28272 0.11560
 H1132 H 0.22701 0.32326 0.06418
 H1133 H 0.20851 0.27531 0.14806
 H1134 H 0.27135 0.32494 0.07099
 C1135 C 0.72845 0.75212 0.65491
 C1136 C 0.71839 0.76931 0.65043
 C1137 C 0.72398 0.78234 0.63387
 C1138 C 0.71002 0.79509 0.62601
 C1139 C 0.71465 0.80751 0.61027
 C1140 C 0.73346 0.80745 0.60205
 C1141 C 0.74754 0.79510 0.61032
 C1142 C 0.74291 0.78269 0.62605
 C1143 C 0.73917 0.82023 0.58530
 C1144 C 0.72599 0.82945 0.57262
 H1145 H 0.70533 0.77296 0.65866
 H1146 H 0.69543 0.79537 0.63201
 H1147 H 0.70349 0.81724 0.60492
 H1148 H 0.76222 0.79500 0.60454
 H1149 H 0.75431 0.77369 0.63216
 H1150 H 0.75452 0.82221 0.58279
 H1151 H 0.74068 0.74767 0.64576
 H1152 H 0.71061 0.82784 0.57510
 C1153 C 0.76742 0.74521 0.34744
 C1154 C 0.77710 0.76217 0.35368
 C1155 C 0.77097 0.77463 0.37092
 C1156 C 0.78445 0.78769 0.37930
 C1157 C 0.77934 0.79992 0.39541
 C1158 C 0.76050 0.79944 0.40346
 C1159 C 0.74694 0.78652 0.39499
 C1160 C 0.75206 0.77427 0.37884
 C1161 C 0.75467 0.81225 0.42051
 C1162 C 0.76744 0.82560 0.42910
 H1163 H 0.79033 0.76622 0.34616
 H1164 H 0.79906 0.78838 0.37341
 H1165 H 0.79018 0.80974 0.40152
 H1166 H 0.73230 0.78599 0.40081
 H1167 H 0.74104 0.76486 0.37248
 H1168 H 0.74006 0.81111 0.42633
 H1169 H 0.75496 0.74022 0.35573
 H1170 H 0.76366 0.83236 0.43850
 C1171 C 0.27452 0.25195 -0.15470
 C1172 C 0.28396 0.26991 -0.15275
 C1173 C 0.27866 0.28432 -0.13686
 C1174 C 0.29267 0.29745 -0.12962
 C1175 C 0.28823 0.31056 -0.11395
 C1176 C 0.26959 0.31081 -0.10537
 C1177 C 0.25543 0.29817 -0.11308
 C1178 C 0.25983 0.28516 -0.12874
 C1179 C 0.26454 0.32362 -0.08812
 C1180 C 0.27725 0.33747 -0.08032
 H1181 H 0.29611 0.27318 -0.16236
 H1182 H 0.30719 0.29725 -0.13580
 H1183 H 0.29946 0.32022 -0.10839
 H1184 H 0.24091 0.29827 -0.10691
 H1185 H 0.24839 0.27588 -0.13448
 H1186 H 0.25041 0.32191 -0.08131
 H1187 H 0.26334 0.24825 -0.14406
 H1188 H 0.27412 0.34376 -0.07037
 C1189 C 0.72441 0.25059 -0.15178
 C1190 C 0.71469 0.23382 -0.14553
 C1191 C 0.72010 0.22235 -0.12771
 C1192 C 0.70677 0.20871 -0.12042
 C1193 C 0.71124 0.19728 -0.10390
 C1194 C 0.72926 0.19919 -0.09430
 C1195 C 0.74263 0.21277 -0.10157
 C1196 C 0.73819 0.22419 -0.11816
 C1197 C 0.73451 0.18713 -0.07692
 C1198 C 0.72250 0.17237 -0.07015
 H1199 H 0.70208 0.22897 -0.15374
 H1200 H 0.69278 0.20691 -0.12753
 H1201 H 0.70056 0.18695 -0.09870
 H1202 H 0.75667 0.21442 -0.09452
 H1203 H 0.74912 0.23410 -0.12353
 H1204 H 0.74829 0.18966 -0.06960
 H1205 H 0.73654 0.25612 -0.14323
 H1206 H 0.72607 0.16566 -0.06023
 C1207 C 0.22429 0.75022 0.33983
 C1208 C 0.21237 0.73559 0.34740
 C1209 C 0.21847 0.72260 0.36384
 C1210 C 0.20427 0.71407 0.37592
 C1211 C 0.20948 0.70200 0.39179
 C1212 C 0.22914 0.69798 0.39577
 C1213 C 0.24330 0.70627 0.38341
 C1214 C 0.23807 0.71837 0.36761
 C1215 C 0.23570 0.68534 0.41240
 C1216 C 0.22336 0.67548 0.42544
 H1217 H 0.19762 0.73442 0.34210
 H1218 H 0.18905 0.71698 0.37323
 H1219 H 0.19797 0.69605 0.40076
 H1220 H 0.25853 0.70334 0.38595
 H1221 H 0.24945 0.72411 0.35826
 H1222 H 0.25117 0.68324 0.41394
 H1223 H 0.23840 0.75261 0.34644
 H1224 H 0.20787 0.67626 0.42340
 C1225 C 0.27497 0.73454 0.65425
 C1226 C 0.28818 0.72148 0.64549
 C1227 C 0.28232 0.70788 0.62911
 C1228 C 0.29557 0.70318 0.61383
 C1229 C 0.28989 0.69170 0.59734
 C1230 C 0.27086 0.68438 0.59603
 C1231 C 0.25784 0.68862 0.61166
 C1232 C 0.26350 0.70013 0.62808
 C1233 C 0.26376 0.67316 0.57832
 C1234 C 0.27603 0.66331 0.56475
 H1235 H 0.30342 0.72282 0.64902
 H1236 H 0.31014 0.70900 0.61431
 H1237 H 0.30027 0.68922 0.58543
 H1238 H 0.24314 0.68312 0.61110
 H1239 H 0.25308 0.70300 0.63990
 H1240 H 0.24824 0.67219 0.57662
 H1241 H 0.26014 0.73458 0.64897
 H1242 H 0.29134 0.66292 0.56816
 C1243 C 0.78701 0.23966 0.15731
 C1244 C 0.76977 0.23789 0.14654
 C1245 C 0.76796 0.22386 0.12947
 C1246 C 0.75000 0.21516 0.12530
 C1247 C 0.74827 0.20101 0.10998
 C1248 C 0.76450 0.19554 0.09833
 C1249 C 0.78230 0.20470 0.10219
 C1250 C 0.78401 0.21878 0.11744
 C1251 C 0.76387 0.17990 0.08268
 C1252 C 0.74691 0.17374 0.07296
 H1253 H 0.75698 0.24575 0.15161
 H1254 H 0.73741 0.21889 0.13430
 H1255 H 0.73438 0.19406 0.10776
 H1256 H 0.79500 0.20091 0.09337
 H1257 H 0.79793 0.22567 0.11972
 H1258 H 0.77773 0.17400 0.07803
 H1259 H 0.79910 0.23018 0.15338
 H1260 H 0.73356 0.18140 0.07657
 C1261 C 0.45694 0.40167 0.50420
 C1262 C 0.47155 0.38756 0.50556
 C1263 C 0.47129 0.37200 0.52073
 C1264 C 0.48890 0.36377 0.52693
 C1265 C 0.48922 0.34921 0.54141
 C1266 C 0.47183 0.34232 0.54974
 C1267 C 0.45422 0.35051 0.54347
 C1268 C 0.45390 0.36508 0.52901
 C1269 C 0.47150 0.32712 0.56532
 C1270 C 0.48635 0.31327 0.56750
 H1271 H 0.48420 0.38859 0.49607
 H1272 H 0.50248 0.36888 0.52080
 H1273 H 0.50314 0.34376 0.54629
 H1274 H 0.44063 0.34546 0.54963
 H1275 H 0.44000 0.37064 0.52420
 H1276 H 0.45866 0.32655 0.57455
 H1277 H 0.44519 0.40172 0.51495
 H1278 H 0.49808 0.31340 0.55672
 C1279 C -0.01715 0.90816 0.00321
 C1280 C -0.02671 0.90138 0.02026
 C1281 C -0.02042 0.88396 0.03164
 C1282 C -0.02730 0.88177 0.05126
 C1283 C -0.02215 0.86542 0.06245
 C1284 C -0.01016 0.85070 0.05412
 C1285 C -0.00309 0.85296 0.03459
 C1286 C -0.00828 0.86931 0.02337
 C1287 C -0.00459 0.83302 0.06541
 C1288 C -0.01634 0.82513 0.08038
 H1289 H -0.03900 0.90944 0.02616
 H1290 H -0.03662 0.89285 0.05804
 H1291 H -0.02740 0.86453 0.07767
 H1292 H 0.00618 0.84184 0.02784
 H1293 H -0.00303 0.87008 0.00816
 H1294 H 0.00840 0.82545 0.06054
 H1295 H -0.00413 0.90072 -0.00185
 H1296 H -0.03017 0.83220 0.08327
 C1297 C 0.04182 0.59340 0.00172
 C1298 C 0.02812 0.60860 0.00184
 C1299 C 0.02776 0.62476 0.01690
 C1300 C 0.01057 0.63559 0.01940
 C1301 C 0.00945 0.65094 0.03342
 C1302 C 0.02566 0.65596 0.04511
 C1303 C 0.04286 0.64517 0.04262
 C1304 C 0.04400 0.62984 0.02855
 C1305 C 0.02491 0.67180 0.06047
 C1306 C 0.01192 0.68754 0.05959
 H1307 H 0.01655 0.60845 -0.00902
 H1308 H -0.00216 0.63198 0.01065
 H1309 H -0.00426 0.65846 0.03531
 H1310 H 0.05553 0.64875 0.05147
 H1311 H 0.05771 0.62230 0.02675
 H1312 H 0.03507 0.67087 0.07270
 H1313 H 0.05275 0.59313 0.01330
 H1314 H 0.00227 0.68854 0.04690
 C1315 C 0.53848 0.09328 0.50741
 C1316 C 0.52391 0.10753 0.50869
 C1317 C 0.52281 0.12283 0.52464
 C1318 C 0.50534 0.13314 0.52724
 C1319 C 0.50364 0.14800 0.54175
 C1320 C 0.51946 0.15286 0.55409
 C1321 C 0.53702 0.14275 0.55129
 C1322 C 0.53874 0.12790 0.53675
 C1323 C 0.51852 0.16890 0.56928
 C1324 C 0.50117 0.17657 0.57692
 H1325 H 0.51233 0.10727 0.49783
 H1326 H 0.49293 0.12977 0.51791
 H1327 H 0.49004 0.15584 0.54278
 H1328 H 0.54953 0.14642 0.56035
 H1329 H 0.55267 0.12083 0.53487
 H1330 H 0.53212 0.17498 0.57437
 H1331 H 0.54951 0.09266 0.51884
 H1332 H 0.48753 0.17049 0.57201
 C1333 C -0.02047 0.09879 0.50508
 C1334 C -0.03107 0.10706 0.48949
 C1335 C -0.02475 0.12452 0.47826
 C1336 C -0.03849 0.13457 0.46678
 C1337 C -0.03321 0.15092 0.45570
 C1338 C -0.01396 0.15766 0.45587
 C1339 C -0.00016 0.14741 0.46708
 C1340 C -0.00543 0.13103 0.47814
 C1341 C -0.00749 0.17469 0.44404
 C1342 C -0.02008 0.18852 0.43582
 H1343 H -0.04502 0.10096 0.48567
 H1344 H -0.05340 0.12970 0.46633
 H1345 H -0.04426 0.15785 0.44680
 H1346 H 0.01483 0.15206 0.46723
 H1347 H 0.00580 0.12340 0.48619
 H1348 H 0.00793 0.17621 0.44165
 H1349 H -0.00707 0.10552 0.50987
 H1350 H -0.03552 0.18713 0.43801
 C1351 C 0.47963 0.60030 1.00434
 C1352 C 0.46684 0.60815 0.99030
 C1353 C 0.47214 0.62469 0.97728
 C1354 C 0.45748 0.63702 0.97012
 C1355 C 0.46196 0.65275 0.95778
 C1356 C 0.48126 0.65625 0.95200
 C1357 C 0.49588 0.64382 0.95911
 C1358 C 0.49141 0.62817 0.97153
 C1359 C 0.48685 0.67266 0.93885
 C1360 C 0.47374 0.68330 0.92728
 H1361 H 0.45212 0.60287 0.98943
 H1362 H 0.44252 0.63462 0.97432
 H1363 H 0.45024 0.66216 0.95310
 H1364 H 0.51086 0.64611 0.95488
 H1365 H 0.50306 0.61865 0.97625
 H1366 H 0.50216 0.67564 0.93740
 H1367 H 0.49370 0.60704 1.00620
 H1368 H 0.45865 0.67916 0.92710
 C1369 C 0.51711 0.90308 0.99744
 C1370 C 0.52675 0.89770 0.97975
 C1371 C 0.52089 0.88077 0.96685
 C1372 C 0.53395 0.87349 0.95240
 C1373 C 0.52902 0.85760 0.93993
 C1374 C 0.51078 0.84854 0.94168
 C1375 C 0.49760 0.85613 0.95586
 C1376 C 0.50250 0.87203 0.96823
 C1377 C 0.50463 0.83149 0.92906
 C1378 C 0.51709 0.82046 0.91661
 H1379 H 0.53928 0.90601 0.97522
 H1380 H 0.54810 0.88010 0.95075
 H1381 H 0.53954 0.85277 0.92893
 H1382 H 0.48336 0.84971 0.95741
 H1383 H 0.49162 0.87750 0.97854
 H1384 H 0.48960 0.82739 0.93031
 H1385 H 0.50497 0.89449 1.00246
 H1386 H 0.53213 0.82470 0.91591
 C1387 C 0.02688 0.41341 0.50587
 C1388 C 0.03954 0.40464 0.49204
 C1389 C 0.03376 0.38765 0.47935
 C1390 C 0.04796 0.37430 0.47263
 C1391 C 0.04284 0.35777 0.46120
 C1392 C 0.02335 0.35445 0.45598
 C1393 C 0.00924 0.36800 0.46243
 C1394 C 0.01436 0.38448 0.47385
 C1395 C 0.01701 0.33685 0.44450
 C1396 C 0.02928 0.32579 0.43193
 H1397 H 0.05444 0.40943 0.49142
 H1398 H 0.06301 0.37644 0.47664
 H1399 H 0.05412 0.34747 0.45697
 H1400 H -0.00585 0.36587 0.45856
 H1401 H 0.00306 0.39476 0.47814
 H1402 H 0.00177 0.33344 0.44532
 H1403 H 0.01257 0.40730 0.50782
 H1404 H 0.04400 0.33083 0.43001
 C1405 C 0.40947 0.50360 0.46658
 C1406 C 0.40342 0.51702 0.45232
 C1407 C 0.38776 0.53126 0.45700
 C1408 C 0.37426 0.53622 0.44222
 C1409 C 0.35809 0.54785 0.44708
 C1410 C 0.35537 0.55489 0.46681
 C1411 C 0.36943 0.55071 0.48126
 C1412 C 0.38552 0.53916 0.47641
 C1413 C 0.33756 0.56531 0.47336
 C1414 C 0.32526 0.57556 0.46053
 H1415 H 0.40869 0.51570 0.43709
 H1416 H 0.37575 0.53036 0.42714
 H1417 H 0.34741 0.55054 0.43561
 H1418 H 0.36778 0.55609 0.49651
 H1419 H 0.39602 0.53618 0.48799
 H1420 H 0.33480 0.56560 0.48928
 H1421 H 0.40239 0.50366 0.48107
 H1422 H 0.32992 0.57757 0.44521
 C1423 C 0.90437 0.00005 -0.01386
 C1424 C 0.89828 0.01693 -0.02348
 C1425 C 0.88044 0.02761 -0.01747
 C1426 C 0.87600 0.04542 -0.02664
 C1427 C 0.85918 0.05581 -0.02148
 C1428 C 0.84623 0.04841 -0.00717
 C1429 C 0.85086 0.03073 0.00224
 C1430 C 0.86774 0.02040 -0.00286
 C1431 C 0.82805 0.05876 -0.00139
 C1432 C 0.81887 0.07252 -0.01358
 H1433 H 0.90686 0.02262 -0.03568
 H1434 H 0.88567 0.05139 -0.03778
 H1435 H 0.85664 0.06971 -0.02857
 H1436 H 0.84126 0.02479 0.01344
 H1437 H 0.87073 0.00672 0.00456
 H1438 H 0.82148 0.05445 0.01252
 H1439 H 0.91349 -0.00509 -0.01742
 H1440 H 0.82536 0.07550 -0.02796
 C1441 C 0.59208 -0.00780 0.03478
 C1442 C 0.60517 -0.00853 0.01884
 C1443 C 0.62289 0.00369 0.01894
 C1444 C 0.63010 0.01094 0.00087
 C1445 C 0.64588 0.02378 0.00080
 C1446 C 0.65498 0.02934 0.01887
 C1447 C 0.64817 0.02144 0.03682
 C1448 C 0.63240 0.00870 0.03688
 C1449 C 0.67091 0.04390 0.01995
 C1450 C 0.68120 0.05057 0.00339
 H1451 H 0.60151 -0.01670 0.00537
 H1452 H 0.62307 0.00719 -0.01316
 H1453 H 0.65040 0.02964 -0.01338
 H1454 H 0.65497 0.02532 0.05094
 H1455 H 0.62767 0.00286 0.05103
 H1456 H 0.67491 0.04928 0.03469
 H1457 H 0.59492 0.00210 0.04724
 H1458 H 0.67879 0.04382 -0.01112
 C1459 C 0.09862 0.50416 0.54169
 C1460 C 0.11253 0.50168 0.52658
 C1461 C 0.12957 0.51472 0.52489
 C1462 C 0.13799 0.51757 0.50603
 C1463 C 0.15360 0.53038 0.50380
 C1464 C 0.16131 0.54041 0.52053
 C1465 C 0.15312 0.53722 0.53943
 C1466 C 0.13755 0.52443 0.54165
 C1467 C 0.17720 0.55488 0.51889
 C1468 C 0.19008 0.55553 0.50274
 H1469 H 0.11036 0.49084 0.51485
 H1470 H 0.13216 0.51023 0.49289
 H1471 H 0.15912 0.53272 0.48889
 H1472 H 0.15882 0.54467 0.55258
 H1473 H 0.13195 0.52211 0.55655
 H1474 H 0.17861 0.56537 0.53106
 H1475 H 0.10038 0.51613 0.55234
 H1476 H 0.18877 0.54479 0.49076
 C1477 C 0.09222 0.49399 -0.04147
 C1478 C 0.10670 0.49385 -0.02680
 C1479 C 0.12302 0.47966 -0.02636
 C1480 C 0.13410 0.47856 -0.00882
 C1481 C 0.15013 0.46608 -0.00779
 C1482 C 0.15546 0.45426 -0.02436
 C1483 C 0.14448 0.45544 -0.04197
 C1484 C 0.12844 0.46799 -0.04301
 C1485 C 0.17281 0.44134 -0.02422
 C1486 C 0.18209 0.43541 -0.00672
 H1487 H 0.10609 0.50444 -0.01464
 H1488 H 0.13046 0.48759 0.00413
 H1489 H 0.15849 0.46626 0.00585
 H1490 H 0.14843 0.44673 -0.05505
 H1491 H 0.12073 0.46873 -0.05704
 H1492 H 0.17854 0.43663 -0.03858
 H1493 H 0.09216 0.48261 -0.05291
 H1494 H 0.17630 0.43993 0.00767
 C1495 C 0.59329 0.99921 0.45550
 C1496 C 0.60853 0.99950 0.46930
 C1497 C 0.62443 0.98489 0.46935
 C1498 C 0.64206 0.99010 0.47831
 C1499 C 0.65723 0.97657 0.47949
 C1500 C 0.65494 0.95733 0.47204
 C1501 C 0.63742 0.95220 0.46275
 C1502 C 0.62224 0.96579 0.46149
 C1503 C 0.67044 0.94235 0.47372
 C1504 C 0.68479 0.94329 0.48844
 H1505 H 0.60957 1.01140 0.48007
 H1506 H 0.64413 1.00474 0.48440
 H1507 H 0.67072 0.98135 0.48611
 H1508 H 0.63531 0.93751 0.45683
 H1509 H 0.60872 0.96109 0.45487
 H1510 H 0.66956 0.92957 0.46401
 H1511 H 0.59338 0.98820 0.44366
 H1512 H 0.68423 0.95504 0.49947
 C1513 C 0.90208 1.00896 0.52298
 C1514 C 0.89578 0.99191 0.53230
 C1515 C 0.87803 0.98105 0.52657
 C1516 C 0.87590 0.96176 0.53319
 C1517 C 0.85935 0.95095 0.52841
 C1518 C 0.84441 0.95934 0.51706
 C1519 C 0.84656 0.97858 0.51033
 C1520 C 0.86310 0.98942 0.51515
 C1521 C 0.82673 0.94830 0.51153
 C1522 C 0.81947 0.93297 0.52303
 H1523 H 0.90457 0.98567 0.54396
 H1524 H 0.88718 0.95492 0.54196
 H1525 H 0.85853 0.93595 0.53334
 H1526 H 0.83528 0.98536 0.50151
 H1527 H 0.86387 1.00437 0.51012
 H1528 H 0.81886 0.95340 0.49866
 H1529 H 0.89402 1.01474 0.51051
 H1530 H 0.82668 0.92989 0.53702
 C1531 C 0.40708 0.51233 0.04257
 C1532 C 0.39399 0.51287 0.02671
 C1533 C 0.37689 0.49986 0.02595
 C1534 C 0.36995 0.49324 0.00735
 C1535 C 0.35473 0.47979 0.00627
 C1536 C 0.34595 0.47297 0.02387
 C1537 C 0.35254 0.48007 0.04243
 C1538 C 0.36773 0.49347 0.04349
 C1539 C 0.33072 0.45774 0.02360
 C1540 C 0.31879 0.45400 0.00707
 H1541 H 0.39729 0.52154 0.01373
 H1542 H 0.37676 0.49797 -0.00637
 H1543 H 0.35040 0.47434 -0.00832
 H1544 H 0.34599 0.47513 0.05619
 H1545 H 0.37226 0.49876 0.05809
 H1546 H 0.32858 0.44992 0.03734
 H1547 H 0.40470 0.50209 0.05453
 H1548 H 0.31987 0.46372 -0.00554
 C1549 C 0.50274 0.45380 0.40459
 C1550 C 0.50225 0.46631 0.38822
 C1551 C 0.51730 0.46647 0.37228
 C1552 C 0.51766 0.48223 0.35903
 C1553 C 0.53162 0.48311 0.34386
 C1554 C 0.54568 0.46821 0.34166
 C1555 C 0.54499 0.45221 0.35459
 C1556 C 0.53100 0.45128 0.36968
 C1557 C 0.56099 0.46845 0.32600
 C1558 C 0.56639 0.48529 0.31564
 H1559 H 0.49050 0.47678 0.38712
 H1560 H 0.50710 0.49397 0.36043
 H1561 H 0.53102 0.49537 0.33385
 H1562 H 0.55540 0.44035 0.35306
 H1563 H 0.53097 0.43848 0.37896
 H1564 H 0.56862 0.45481 0.32337
 H1565 H 0.51454 0.44350 0.40614
 H1566 H 0.55895 0.49885 0.31926
 C1567 C 0.00044 -0.01750 0.91009
 C1568 C 0.01722 -0.02709 0.90334
 C1569 C 0.02851 -0.02125 0.88548
 C1570 C 0.04726 -0.02893 0.88296
 C1571 C 0.05836 -0.02429 0.86619
 C1572 C 0.05082 -0.01200 0.85138
 C1573 C 0.03219 -0.00405 0.85400
 C1574 C 0.02105 -0.00873 0.87077
 C1575 C 0.06211 -0.00705 0.83327
 C1576 C 0.07589 -0.01992 0.82493
 H1577 H 0.02277 -0.03927 0.91178
 H1578 H 0.05342 -0.03853 0.89407
 H1579 H 0.07290 -0.03017 0.86505
 H1580 H 0.02610 0.00552 0.84282
 H1581 H 0.00655 -0.00278 0.87181
 H1582 H 0.05845 0.00647 0.82594
 H1583 H -0.00473 -0.00468 0.90240
 H1584 H 0.07749 -0.03413 0.83178
 C1585 C -0.00037 0.01919 0.59905
 C1586 C 0.01779 0.02672 0.60351
 C1587 C 0.02933 0.01981 0.62066
 C1588 C 0.04815 0.02701 0.62338
 C1589 C 0.05936 0.02106 0.63960
 C1590 C 0.05184 0.00792 0.65366
 C1591 C 0.03316 0.00040 0.65069
 C1592 C 0.02196 0.00630 0.63441
 C1593 C 0.06311 0.00159 0.67133
 C1594 C 0.07817 0.01273 0.67952
 H1595 H 0.02380 0.03796 0.59406
 H1596 H 0.05423 0.03725 0.61287
 H1597 H 0.07394 0.02664 0.64084
 H1598 H 0.02709 -0.00988 0.66116
 H1599 H 0.00752 0.00040 0.63272
 H1600 H 0.05851 -0.01162 0.67863
 H1601 H -0.00623 0.02341 0.58983
 H1602 H 0.08135 0.02678 0.67303
 C1603 C 0.51221 0.52767 0.09457
 C1604 C 0.52845 0.53846 0.10030
 C1605 C 0.54165 0.53186 0.11630
 C1606 C 0.55166 0.54584 0.12781
 C1607 C 0.56349 0.54007 0.14367
 C1608 C 0.56569 0.52008 0.14819
 C1609 C 0.55619 0.50611 0.13614
 C1610 C 0.54435 0.51189 0.12036
 C1611 C 0.57734 0.51295 0.16528
 C1612 C 0.58643 0.52502 0.17948
 H1613 H 0.53073 0.55283 0.09411
 H1614 H 0.54999 0.56131 0.12480
 H1615 H 0.57066 0.55143 0.15224
 H1616 H 0.55778 0.49061 0.13905
 H1617 H 0.53744 0.50064 0.11134
 H1618 H 0.57867 0.49724 0.16676
 H1619 H 0.50892 0.51424 0.10227
 H1620 H 0.58645 0.54071 0.17771
 C1621 C 0.48933 -0.02237 0.09125
 C1622 C 0.47239 -0.03215 0.09655
 C1623 C 0.45988 -0.02528 0.11331
 C1624 C 0.44857 -0.03889 0.12359
 C1625 C 0.43726 -0.03297 0.14003
 C1626 C 0.43685 -0.01318 0.14630
 C1627 C 0.44783 0.00046 0.13571
 C1628 C 0.45908 -0.00545 0.11930
 C1629 C 0.42601 -0.00628 0.16424
 C1630 C 0.41034 -0.01630 0.17245
 H1631 H 0.46883 -0.04588 0.08919
 H1632 H 0.44888 -0.05425 0.11923
 H1633 H 0.42939 -0.04405 0.14804
 H1634 H 0.44771 0.01580 0.14015
 H1635 H 0.46703 0.00562 0.11133
 H1636 H 0.43072 0.00735 0.17099
 H1637 H 0.49370 -0.00958 0.09984
 H1638 H 0.40543 -0.02964 0.16517
 C1639 C 0.99872 0.48478 0.60166
 C1640 C 0.98153 0.47485 0.60573
 C1641 C 0.96840 0.48011 0.62257
 C1642 C 0.95535 0.46597 0.62940
 C1643 C 0.94286 0.47016 0.64540
 C1644 C 0.94298 0.48877 0.65477
 C1645 C 0.95592 0.50295 0.64784
 C1646 C 0.96840 0.49877 0.63182
 C1647 C 0.93052 0.49365 0.67225
 C1648 C 0.91341 0.48370 0.67669
 H1649 H 0.97785 0.46203 0.59686
 H1650 H 0.95505 0.45149 0.62255
 H1651 H 0.93355 0.45861 0.65061
 H1652 H 0.95629 0.51739 0.65478
 H1653 H 0.97778 0.51029 0.62668
 H1654 H 0.93524 0.50555 0.68188
 H1655 H 1.00307 0.49691 0.61121
 H1656 H 0.90862 0.47203 0.66678
 C1657 C 0.99650 0.53914 0.90296
 C1658 C 0.99409 0.52335 0.88970
 C1659 C 0.97899 0.52305 0.87398
 C1660 C 0.97214 0.50495 0.86683
 C1661 C 0.95763 0.50410 0.85227
 C1662 C 0.94989 0.52143 0.84432
 C1663 C 0.95688 0.53953 0.85136
 C1664 C 0.97137 0.54038 0.86591
 C1665 C 0.93416 0.52127 0.82927
 C1666 C 0.93082 0.50539 0.81621
 H1667 H 1.00268 0.51022 0.89160
 H1668 H 0.97777 0.49140 0.87282
 H1669 H 0.95226 0.48987 0.84770
 H1670 H 0.95119 0.55309 0.84546
 H1671 H 0.97667 0.55461 0.87055
 H1672 H 0.92574 0.53456 0.82809
 H1673 H 0.98675 0.55156 0.90219
 H1674 H 0.94087 0.49318 0.81666
 C1675 C 0.49668 0.04520 0.40255
 C1676 C 0.49483 0.03017 0.38829
 C1677 C 0.48033 0.03063 0.37202
 C1678 C 0.47386 0.01287 0.36367
 C1679 C 0.46001 0.01268 0.34844
 C1680 C 0.45259 0.03037 0.34096
 C1681 C 0.45919 0.04814 0.34923
 C1682 C 0.47299 0.04832 0.36451
 C1683 C 0.43749 0.03090 0.32523
 C1684 C 0.43413 0.01530 0.31182
 H1685 H 0.50346 0.01700 0.38975
 H1686 H 0.47928 -0.00095 0.36922
 H1687 H 0.45490 -0.00136 0.34299
 H1688 H 0.45372 0.06197 0.34377
 H1689 H 0.47802 0.06232 0.37017
 H1690 H 0.42929 0.04434 0.32414
 H1691 H 0.48678 0.05754 0.40226
 H1692 H 0.44383 0.00281 0.31237
   
