data_POSCAR
  _audit_creation_date              2014-09-24
  _audit_creation_method            'ToBaCCo'
  _symmetry_space_group_name_H-M    'P1'
  _symmetry_Int_Tables_number       1
  _symmetry_cell_setting            triclinic
  loop_
  _symmetry_equiv_pos_as_xyz
 x,y,z
_cell_length_a 51.6346
_cell_length_b 51.7188
_cell_length_c 45.5343
_cell_angle_alpha 90.019400
_cell_angle_beta 88.556200
_cell_angle_gamma 87.016800
loop_
  _atom_site_label
  _atom_site_type_symbol
  _atom_site_fract_x
  _atom_site_fract_y
  _atom_site_fract_z
C1 C 0.38796 0.01110 0.29524
 H2 H 0.38894 0.02132 0.27455
 C3 C 0.39759 0.02218 0.32052
 H4 H 0.40618 0.04081 0.31908
 C5 C 0.37386 -0.02476 0.32258
 H6 H 0.36392 -0.04260 0.32358
 C7 C 0.38330 -0.01448 0.34826
 H8 H 0.38122 -0.02512 0.36859
 N9 N 0.37609 -0.01179 0.29679
 C10 C 0.37119 -0.04048 0.20720
 H11 H 0.35057 -0.04319 0.20676
 C12 C 0.38677 -0.04603 0.18231
 H13 H 0.37796 -0.05309 0.16274
 C14 C 0.40755 -0.02782 0.23340
 H15 H 0.41552 -0.02067 0.25338
 C16 C 0.42388 -0.03304 0.20891
 H17 H 0.44425 -0.02927 0.21010
 Zn18 Zn 0.35828 -0.02237 0.26332
 N19 N 0.38163 -0.03094 0.23180
 C20 C 0.33980 0.01944 0.22749
 N21 N 0.33660 0.00687 0.25351
 C22 C 0.32231 0.01799 0.27610
 C23 C 0.31228 0.04348 0.27384
 C24 C 0.32969 0.04488 0.22414
 C25 C 0.35345 -0.07427 0.27772
 C26 C 0.34141 -0.09760 0.28188
 C27 C 0.30027 -0.07522 0.27266
 C28 C 0.31319 -0.05221 0.26907
 N29 N 0.33933 -0.05220 0.27147
 H30 H 0.35186 0.01063 0.21013
 H31 H 0.32067 0.00785 0.29678
 H32 H 0.30261 0.05281 0.29271
 H33 H 0.33373 0.05533 0.20407
 H34 H 0.37433 -0.07386 0.27882
 H35 H 0.35409 -0.11455 0.28524
 H36 H 0.27939 -0.07376 0.27148
 H37 H 0.30231 -0.03442 0.26398
 C38 C 0.41339 -0.04170 0.18270
 C39 C 0.39475 0.00962 0.34761
 C40 C 0.31424 -0.09889 0.27895
 C41 C 0.31667 0.05738 0.24794
 C42 C 0.10140 0.02380 0.71428
 H43 H 0.09646 0.02711 0.73716
 C44 C 0.08300 0.03007 0.69314
 H45 H 0.06410 0.03828 0.70003
 C46 C 0.13154 0.00843 0.67738
 H47 H 0.15029 -0.00067 0.67147
 C48 C 0.11380 0.01442 0.65557
 H49 H 0.11901 0.00966 0.63295
 N50 N 0.12513 0.01314 0.70609
 C51 C 0.13179 -0.02363 0.78462
 H52 H 0.13968 -0.04092 0.77377
 C53 C 0.11966 -0.02578 0.81218
 H54 H 0.11829 -0.04466 0.82222
 C55 C 0.12464 0.02200 0.78563
 H56 H 0.12671 0.04057 0.77514
 C57 C 0.11280 0.02077 0.81343
 H58 H 0.10569 0.03847 0.82429
 Zn59 Zn 0.15002 0.00283 0.73400
 N60 N 0.13383 -0.00002 0.77175
 C61 C 0.18458 0.03590 0.76131
 N62 N 0.17562 0.02794 0.73512
 C63 C 0.18260 0.03962 0.70960
 C64 C 0.19788 0.06106 0.70989
 C65 C 0.20013 0.05721 0.76260
 C66 C 0.14774 -0.04882 0.71725
 C67 C 0.15691 -0.07451 0.71369
 C68 C 0.20060 -0.06053 0.71791
 C69 C 0.19053 -0.03515 0.72193
 N70 N 0.16447 -0.03001 0.72258
 H71 H 0.17906 0.02620 0.78136
 H72 H 0.17539 0.03310 0.68900
 H73 H 0.20183 0.07082 0.68936
 H74 H 0.20669 0.06348 0.78371
 H75 H 0.12708 -0.04408 0.71772
 H76 H 0.14304 -0.08937 0.71181
 H77 H 0.22139 -0.06434 0.71826
 H78 H 0.20344 -0.01977 0.72585
 C79 C 0.11019 -0.00338 0.82692
 C80 C 0.08906 0.02514 0.66338
 C81 C 0.18363 -0.08081 0.71504
 C82 C 0.20646 0.07054 0.73670
 C83 C 0.59779 0.51950 0.20987
 H84 H 0.59326 0.52527 0.23233
 C85 C 0.58089 0.52699 0.18759
 H86 H 0.56333 0.53855 0.19299
 C87 C 0.62604 0.49704 0.17561
 H88 H 0.64368 0.48542 0.17105
 C89 C 0.60984 0.50434 0.15261
 H90 H 0.61488 0.49773 0.13054
 N91 N 0.61944 0.50414 0.20368
 C92 C 0.62725 0.47577 0.29269
 H93 H 0.64655 0.48152 0.29747
 C94 C 0.61088 0.46781 0.31544
 H95 H 0.61765 0.46819 0.33773
 C96 C 0.59464 0.47023 0.25794
 H97 H 0.58845 0.47115 0.23545
 C98 C 0.57783 0.46160 0.27988
 H99 H 0.55873 0.45605 0.27392
 Zn100 Zn 0.63982 0.49297 0.23574
 N101 N 0.61843 0.47811 0.26488
 C102 C 0.64232 0.53558 0.27353
 N103 N 0.65474 0.52256 0.25085
 C104 C 0.67517 0.53257 0.23614
 C105 C 0.68386 0.55663 0.24414
 C106 C 0.65008 0.55985 0.28189
 C107 C 0.65493 0.44603 0.21125
 C108 C 0.67034 0.42351 0.20659
 C109 C 0.70629 0.44443 0.22778
 C110 C 0.69011 0.46673 0.23202
 N111 N 0.66480 0.46688 0.22423
 H112 H 0.62529 0.52796 0.28391
 H113 H 0.68388 0.52247 0.21727
 H114 H 0.69929 0.56501 0.23137
 H115 H 0.63912 0.57071 0.29882
 H116 H 0.63460 0.44647 0.20599
 H117 H 0.66179 0.40658 0.19771
 H118 H 0.72586 0.44380 0.23585
 H119 H 0.69731 0.48311 0.24339
 C120 C 0.58541 0.46143 0.30934
 C121 C 0.58667 0.51906 0.15860
 C122 C 0.69604 0.42227 0.21590
 C123 C 0.67079 0.57072 0.26677
 C124 C 0.88726 0.53208 0.78963
 H125 H 0.89553 0.53478 0.76786
 C126 C 0.90032 0.54037 0.81416
 H127 H 0.91858 0.54937 0.81056
 C128 C 0.85245 0.51902 0.81985
 H129 H 0.83355 0.51108 0.82194
 C130 C 0.86449 0.52749 0.84491
 H131 H 0.85484 0.52449 0.86589
 N132 N 0.86443 0.52037 0.79303
 C133 C 0.85883 0.48516 0.70617
 H134 H 0.83813 0.48864 0.70393
 C135 C 0.87399 0.47589 0.68227
 H136 H 0.86469 0.47205 0.66179
 C137 C 0.89593 0.48647 0.73554
 H138 H 0.90441 0.49040 0.75640
 C139 C 0.91194 0.47747 0.71198
 H140 H 0.93270 0.47543 0.71479
 Zn141 Zn 0.84705 0.50823 0.75989
 N142 N 0.87003 0.49124 0.73179
 C143 C 0.84769 0.55090 0.72354
 N144 N 0.83192 0.53814 0.74233
 C145 C 0.80932 0.54953 0.75316
 C146 C 0.80215 0.57506 0.74556
 C147 C 0.84151 0.57652 0.71586
 C148 C 0.83321 0.46541 0.79050
 C149 C 0.81934 0.44410 0.79844
 C150 C 0.78412 0.46047 0.76860
 C151 C 0.79861 0.48201 0.76163
 N152 N 0.82292 0.48373 0.77222
 H153 H 0.86606 0.54183 0.71622
 H154 H 0.79778 0.53947 0.76917
 H155 H 0.78482 0.58445 0.75544
 H156 H 0.85496 0.58694 0.70225
 H157 H 0.85278 0.46687 0.79804
 H158 H 0.82837 0.42932 0.81223
 H159 H 0.76560 0.45830 0.75850
 H160 H 0.79108 0.49641 0.74644
 C161 C 0.90108 0.47301 0.68455
 C162 C 0.88937 0.53753 0.84265
 C163 C 0.79496 0.44081 0.78647
 C164 C 0.81886 0.58901 0.72753
 C165 C 0.22194 0.43678 0.99381
 H166 H 0.23997 0.44629 0.99566
 C167 C 0.19844 0.45150 0.99437
 H168 H 0.19852 0.47240 0.99607
 C169 C 0.19961 0.39796 0.99084
 H170 H 0.20026 0.37701 0.99036
 C171 C 0.17578 0.41189 0.99093
 H172 H 0.15807 0.40156 0.99046
 N173 N 0.22204 0.41048 0.99200
 C174 C 0.29497 0.41068 1.02470
 H175 H 0.28916 0.39920 1.04329
 C176 C 0.31679 0.42539 1.02656
 H177 H 0.32721 0.42544 1.04689
 C178 C 0.28869 0.42432 0.97559
 H179 H 0.27776 0.42344 0.95568
 C180 C 0.31053 0.43903 0.97636
 H181 H 0.31646 0.44915 0.95671
 Zn182 Zn 0.25292 0.38955 0.99537
 N183 N 0.28143 0.41047 0.99949
 C184 C 0.28216 0.35408 0.95862
 N185 N 0.25964 0.36893 0.96138
 C186 C 0.24309 0.37164 0.93875
 C187 C 0.24913 0.35968 0.91193
 C188 C 0.28907 0.34178 0.93190
 C189 C 0.23991 0.38333 1.05345
 C190 C 0.23603 0.37099 1.08017
 C191 C 0.24802 0.33005 1.05656
 C192 C 0.25163 0.34327 1.03008
 N193 N 0.24814 0.36952 1.02930
 H194 H 0.29523 0.35262 0.97682
 H195 H 0.22561 0.38389 0.94100
 H196 H 0.23568 0.36234 0.89417
 H197 H 0.30742 0.33075 0.92964
 H198 H 0.23681 0.40413 1.05197
 H199 H 0.23002 0.38240 1.09933
 H200 H 0.25190 0.30929 1.05735
 H201 H 0.25766 0.33268 1.01040
 C202 C 0.32501 0.43961 1.00206
 C203 C 0.17503 0.43900 0.99286
 C204 C 0.24068 0.34411 1.08211
 C205 C 0.27270 0.34515 0.90791
 C206 C 0.80030 0.08800 0.98746
 H207 H 0.79860 0.10743 0.97867
 C208 C 0.82435 0.07451 0.98705
 H209 H 0.84075 0.08424 0.97792
 C210 C 0.78099 0.05373 1.01286
 H211 H 0.76411 0.04608 1.02357
 C212 C 0.80489 0.03976 1.01369
 H213 H 0.80559 0.02092 1.02403
 N214 N 0.77924 0.07749 1.00011
 C215 C 0.70659 0.08739 1.04332
 H216 H 0.71203 0.10319 1.05701
 C217 C 0.68445 0.07405 1.05074
 H218 H 0.67330 0.07938 1.07047
 C219 C 0.71386 0.06184 1.00040
 H220 H 0.72517 0.05759 0.98049
 C221 C 0.69197 0.04809 1.00692
 H222 H 0.68646 0.03343 0.99164
 Zn223 Zn 0.74929 0.09959 1.00509
 N224 N 0.72075 0.08104 1.01849
 C225 C 0.75123 0.10925 0.94330
 N226 N 0.73954 0.11594 0.96950
 C227 C 0.72025 0.13487 0.97131
 C228 C 0.71320 0.14913 0.94647
 C229 C 0.74454 0.12279 0.91782
 C230 C 0.76325 0.11667 1.06044
 C231 C 0.77061 0.13435 1.08143
 C232 C 0.76967 0.16754 1.04409
 C233 C 0.76205 0.14931 1.02393
 N234 N 0.75833 0.12459 1.03259
 H235 H 0.76595 0.09363 0.94213
 H236 H 0.71092 0.13943 0.99235
 H237 H 0.69839 0.16468 0.94845
 H238 H 0.75467 0.11782 0.89732
 H239 H 0.76105 0.09665 1.06644
 H240 H 0.77316 0.12790 1.10384
 H241 H 0.77233 0.18716 1.03677
 H242 H 0.75942 0.15490 1.00131
 C243 C 0.67685 0.05414 1.03234
 C244 C 0.82728 0.05016 1.00094
 C245 C 0.77349 0.16031 1.07347
 C246 C 0.72566 0.14335 0.91936
 C247 C 0.27519 0.56759 0.49428
 H248 H 0.25773 0.55761 0.49885
 C249 C 0.29848 0.55307 0.48911
 H250 H 0.29828 0.53214 0.48883
 C251 C 0.29706 0.60659 0.49096
 H252 H 0.29676 0.62738 0.49318
 C253 C 0.32078 0.59281 0.48585
 H254 H 0.33829 0.60337 0.48388
 N255 N 0.27484 0.59395 0.49539
 C256 C 0.20486 0.59225 0.54556
 H257 H 0.21141 0.60485 0.56249
 C258 C 0.18349 0.57718 0.55128
 H259 H 0.17399 0.57801 0.57276
 C260 C 0.20879 0.57623 0.49685
 H261 H 0.21832 0.57642 0.47542
 C262 C 0.18773 0.56081 0.50165
 H263 H 0.18128 0.54923 0.48369
 Zn264 Zn 0.24459 0.61381 0.50941
 N265 N 0.21699 0.59160 0.51861
 C266 C 0.20819 0.63796 0.47108
 N267 N 0.23268 0.63915 0.48133
 C268 C 0.24825 0.65816 0.47207
 C269 C 0.23980 0.67607 0.45085
 C270 C 0.19919 0.65513 0.44952
 C271 C 0.26831 0.61490 0.56303
 C272 C 0.27742 0.62517 0.58885
 C273 C 0.25872 0.66708 0.57502
 C274 C 0.25013 0.65600 0.54921
 N275 N 0.25479 0.63025 0.54396
 H276 H 0.19555 0.62352 0.47924
 H277 H 0.26729 0.65947 0.48101
 H278 H 0.25273 0.69054 0.44303
 H279 H 0.18001 0.65326 0.44091
 H280 H 0.27202 0.59456 0.55810
 H281 H 0.28807 0.61253 0.60376
 H282 H 0.25399 0.68737 0.57946
 H283 H 0.23938 0.66784 0.53368
 C284 C 0.17468 0.56114 0.52912
 C285 C 0.32184 0.56561 0.48546
 C286 C 0.27229 0.65151 0.59542
 C287 C 0.21519 0.67423 0.43886
 C288 C 0.71533 0.95364 0.45726
 H289 H 0.73266 0.95849 0.44509
 C290 C 0.69189 0.96785 0.45283
 H291 H 0.69111 0.98351 0.43704
 C292 C 0.69465 0.92621 0.49122
 H293 H 0.69509 0.90921 0.50486
 C294 C 0.67144 0.94031 0.48841
 H295 H 0.65483 0.93459 0.50140
 N296 N 0.71611 0.93304 0.47596
 C297 C 0.78248 0.93952 0.51171
 H298 H 0.77271 0.93298 0.53132
 C299 C 0.80381 0.95475 0.51421
 H300 H 0.81008 0.95991 0.53585
 C301 C 0.78628 0.94090 0.45975
 H302 H 0.77929 0.93539 0.43857
 C303 C 0.80786 0.95580 0.46121
 H304 H 0.81778 0.96102 0.44101
 Zn305 Zn 0.74636 0.91158 0.48006
 N306 N 0.77441 0.93267 0.48476
 C307 C 0.77477 0.87794 0.44088
 N308 N 0.75208 0.89212 0.44553
 C309 C 0.73319 0.89314 0.42531
 C310 C 0.73681 0.87980 0.39897
 C311 C 0.77914 0.86404 0.41475
 C312 C 0.73350 0.89986 0.53845
 C313 C 0.72684 0.88435 0.56208
 C314 C 0.73904 0.84651 0.53283
 C315 C 0.74456 0.86285 0.50924
 N316 N 0.74192 0.88903 0.51252
 H317 H 0.78945 0.87757 0.45744
 H318 H 0.71518 0.90419 0.42960
 H319 H 0.72136 0.88056 0.38328
 H320 H 0.79723 0.85281 0.41113
 H321 H 0.73055 0.92066 0.54026
 H322 H 0.71904 0.89368 0.58191
 H323 H 0.74215 0.82580 0.53003
 H324 H 0.75083 0.85452 0.48834
 C325 C 0.81710 0.96263 0.48873
 C326 C 0.66947 0.96069 0.46810
 C327 C 0.73008 0.85723 0.55981
 C328 C 0.76004 0.86518 0.39338
 C329 C 0.02689 0.28260 0.42660
 H330 H 0.04259 0.26804 0.42408
 C331 C 0.02901 0.30295 0.44655
 H332 H 0.04625 0.30353 0.45953
 C333 C -0.01378 0.30035 0.41154
 H334 H -0.02997 0.30006 0.39704
 C335 C -0.01247 0.32101 0.43131
 H336 H -0.02774 0.33618 0.43170
 N337 N 0.00577 0.28160 0.40940
 C338 C 0.00139 0.20182 0.37759
 H339 H -0.00520 0.20686 0.35588
 C340 C 0.00264 0.17594 0.38615
 H341 H -0.00401 0.16204 0.37070
 C342 C 0.01561 0.21487 0.42391
 H343 H 0.02059 0.23008 0.43865
 C344 C 0.01723 0.18901 0.43349
 H345 H 0.02428 0.18524 0.45530
 Zn346 Zn 0.00576 0.25491 0.37970
 N347 N 0.00820 0.22075 0.39612
 C348 C 0.04632 0.23813 0.33896
 N349 N 0.03476 0.25893 0.35336
 C350 C 0.04496 0.28262 0.35144
 C351 C 0.06831 0.28576 0.33591
 C352 C 0.06969 0.24043 0.32315
 C353 C -0.04781 0.25596 0.37597
 C354 C -0.07176 0.25371 0.36315
 C355 C -0.05038 0.25233 0.31540
 C356 C -0.02672 0.25562 0.32920
 N357 N -0.02587 0.25687 0.35905
 H358 H 0.03810 0.21943 0.34063
 H359 H 0.03544 0.29897 0.36282
 H360 H 0.07644 0.30464 0.33541
 H361 H 0.07920 0.22333 0.31317
 H362 H -0.04660 0.25639 0.39965
 H363 H -0.08883 0.25364 0.37742
 H364 H -0.05043 0.24995 0.29179
 H365 H -0.00892 0.25572 0.31618
 C366 C 0.01105 0.16871 0.41442
 C367 C 0.00937 0.32282 0.44881
 C368 C -0.07333 0.25068 0.33251
 C369 C 0.08141 0.26432 0.32219
 C370 C -0.03300 0.71654 0.08114
 H371 H -0.05064 0.72845 0.07857
 C372 C -0.03076 0.69175 0.06880
 H373 H -0.04672 0.68472 0.05663
 C374 C 0.00845 0.71045 0.10208
 H375 H 0.02353 0.71754 0.11546
 C376 C 0.01142 0.68557 0.09030
 H377 H 0.02891 0.67384 0.09456
 N378 N -0.01380 0.72513 0.09802
 C379 C -0.02150 0.80908 0.10518
 H380 H -0.02108 0.81151 0.12875
 C381 C -0.01916 0.83052 0.08691
 H382 H -0.01752 0.84948 0.09659
 C383 C -0.02195 0.78128 0.06382
 H384 H -0.02201 0.76198 0.05485
 C385 C -0.01992 0.80231 0.04470
 H386 H -0.01856 0.79903 0.02122
 Zn387 Zn -0.01962 0.75638 0.11972
 N388 N -0.02237 0.78496 0.09349
 C389 C 0.03033 0.77066 0.13058
 N390 N 0.00933 0.76034 0.14371
 C391 C 0.01058 0.74987 0.17112
 C392 C 0.03415 0.74844 0.18584
 C393 C 0.05408 0.76965 0.14443
 C394 C -0.05828 0.72901 0.14743
 C395 C -0.08195 0.72491 0.16144
 C396 C -0.08793 0.77094 0.16962
 C397 C -0.06419 0.77414 0.15478
 N398 N -0.05028 0.75336 0.14328
 H399 H 0.02899 0.77837 0.10857
 H400 H -0.00629 0.74134 0.18084
 H401 H 0.03532 0.73878 0.20690
 H402 H 0.07082 0.77703 0.13306
 H403 H -0.04634 0.71253 0.13966
 H404 H -0.08689 0.70501 0.16454
 H405 H -0.09891 0.78828 0.17670
 H406 H -0.05739 0.79336 0.15168
 C407 C -0.01777 0.82715 0.05630
 C408 C -0.00865 0.67568 0.07414
 C409 C -0.09801 0.74601 0.17216
 C410 C 0.05644 0.75759 0.17193
 C411 C 0.51034 0.23051 0.57376
 H412 H 0.50754 0.24934 0.56380
 C413 C 0.50933 0.20825 0.55641
 H414 H 0.50525 0.21012 0.53328
 C415 C 0.51825 0.20492 0.61611
 H416 H 0.52142 0.20383 0.63948
 C417 C 0.51763 0.18234 0.59967
 H418 H 0.52067 0.16385 0.61054
 N419 N 0.51387 0.22835 0.60322
 C420 C 0.53027 0.30529 0.61449
 H421 H 0.54544 0.30020 0.62964
 C422 C 0.52973 0.32950 0.60114
 H423 H 0.54463 0.34276 0.60596
 C424 C 0.49174 0.29496 0.59081
 H425 H 0.47668 0.28155 0.58751
 C426 C 0.49070 0.31895 0.57657
 H427 H 0.47477 0.32406 0.56231
 Zn428 Zn 0.51235 0.25663 0.62952
 N429 N 0.51146 0.28854 0.60918
 C430 C 0.56497 0.25000 0.63505
 N431 N 0.54282 0.25362 0.65158
 C432 C 0.54342 0.25593 0.68134
 C433 C 0.56723 0.25642 0.69533
 C434 C 0.58901 0.25013 0.64806
 C435 C 0.46479 0.23722 0.64758
 C436 C 0.44120 0.23681 0.66300
 C437 C 0.45324 0.27365 0.69127
 C438 C 0.47660 0.27358 0.67495
 N439 N 0.48194 0.25547 0.65362
 H440 H 0.56389 0.24789 0.61149
 H441 H 0.52557 0.25829 0.69415
 H442 H 0.56750 0.25958 0.71883
 H443 H 0.60642 0.24770 0.63435
 H444 H 0.46892 0.22340 0.63011
 H445 H 0.42753 0.22251 0.65743
 H446 H 0.44888 0.28847 0.70773
 H447 H 0.49023 0.28833 0.67882
 C448 C 0.50975 0.33657 0.58204
 C449 C 0.51223 0.18380 0.56963
 C450 C 0.43511 0.25532 0.68492
 C451 C 0.59039 0.25426 0.67844
 C452 C 0.53612 0.78482 0.92000
 H453 H 0.55217 0.77078 0.91645
 C454 C 0.53915 0.80641 0.93780
 H455 H 0.55758 0.80883 0.94801
 C456 C 0.49295 0.79925 0.91002
 H457 H 0.47526 0.79699 0.89838
 C458 C 0.49506 0.82101 0.92783
 H459 H 0.47892 0.83521 0.92962
 N460 N 0.51333 0.78166 0.90643
 C461 C 0.51368 0.69965 0.88458
 H462 H 0.51060 0.70115 0.86121
 C463 C 0.51473 0.67544 0.89798
 H464 H 0.51300 0.65838 0.88453
 C465 C 0.51951 0.72026 0.93023
 H466 H 0.52078 0.73785 0.94280
 C467 C 0.52036 0.69634 0.94467
 H468 H 0.52225 0.69580 0.96828
 Zn469 Zn 0.51176 0.75317 0.88023
 N470 N 0.51613 0.72144 0.90069
 C471 C 0.55656 0.73656 0.84575
 N472 N 0.53850 0.75624 0.85120
 C473 C 0.54064 0.77985 0.83845
 C474 C 0.56228 0.78479 0.82065
 C475 C 0.57817 0.74052 0.82754
 C476 C 0.45832 0.75098 0.88211
 C477 C 0.43339 0.74880 0.87176
 C478 C 0.45090 0.74972 0.82211
 C479 C 0.47557 0.75254 0.83350
 N480 N 0.47877 0.75295 0.86306
 H481 H 0.55501 0.71814 0.85657
 H482 H 0.52626 0.79527 0.84350
 H483 H 0.56464 0.80411 0.81216
 H484 H 0.59304 0.72512 0.82456
 H485 H 0.46147 0.75096 0.90551
 H486 H 0.41747 0.74798 0.88759
 H487 H 0.44892 0.74850 0.79855
 H488 H 0.49224 0.75357 0.81876
 C489 C 0.51757 0.67353 0.92854
 C490 C 0.51851 0.82500 0.94164
 C491 C 0.42935 0.74753 0.84136
 C492 C 0.58148 0.76505 0.81547
 C493 C -0.23140 0.64348 0.95102
 H494 H -0.21944 0.64383 0.97017
 C495 C -0.22363 0.65587 0.92516
 H496 H -0.20570 0.66582 0.92459
 C497 C -0.26855 0.62872 0.92802
 H498 H -0.28572 0.61771 0.92886
 C499 C -0.26172 0.64100 0.90199
 H500 H -0.27431 0.63983 0.88343
 N501 N -0.25334 0.62997 0.95182
 C502 C -0.28030 0.61752 1.04176
 H503 H -0.28002 0.59658 1.04157
 C504 C -0.28998 0.63116 1.06640
 H505 H -0.29747 0.62002 1.08450
 C506 C -0.27283 0.65656 1.01669
 H507 H -0.26635 0.66632 0.99706
 C508 C -0.28235 0.67110 1.04096
 H509 H -0.28185 0.69193 1.03963
 Zn510 Zn -0.26069 0.60951 0.98510
 N511 N -0.27159 0.63027 1.01776
 C512 C -0.21919 0.58792 1.01964
 N513 N -0.23009 0.58907 0.99275
 C514 C -0.21880 0.57624 0.96930
 C515 C -0.19569 0.56144 0.97232
 C516 C -0.19603 0.57319 1.02369
 C517 C -0.31234 0.59937 0.97555
 C518 C -0.33375 0.58447 0.97176
 C519 C -0.30510 0.54602 0.97176
 C520 C -0.28421 0.56168 0.97563
 N521 N -0.28817 0.58785 0.97739
 H522 H -0.22829 0.59851 1.03792
 H523 H -0.22769 0.57782 0.94807
 H524 H -0.18678 0.55195 0.95313
 H525 H -0.18772 0.57232 1.04528
 H526 H -0.31500 0.62019 0.97760
 H527 H -0.35289 0.59402 0.97124
 H528 H -0.30158 0.52523 0.97045
 H529 H -0.26494 0.55283 0.97767
 C530 C -0.29068 0.65852 1.06684
 C531 C -0.23867 0.65427 0.90002
 C532 C -0.33032 0.55738 0.97002
 C533 C -0.18392 0.55975 0.99979
 C534 C -0.23086 0.35382 0.54617
 H535 H -0.23370 0.34117 0.52774
 C536 C -0.22492 0.34368 0.57237
 H537 H -0.22388 0.32283 0.57462
 C538 C -0.22935 0.39708 0.56390
 H539 H -0.23024 0.41775 0.56014
 C540 C -0.22343 0.38685 0.59327
 H541 H -0.22013 0.40079 0.61031
 N542 N -0.23330 0.38141 0.54236
 C543 C -0.22379 0.36474 0.45613
 H544 H -0.20575 0.37433 0.45682
 C545 C -0.22848 0.34900 0.43232
 H546 H -0.21385 0.34653 0.41492
 C547 C -0.26551 0.35767 0.47663
 H548 H -0.28012 0.36194 0.49363
 C549 C -0.27119 0.34199 0.45281
 H550 H -0.29024 0.33433 0.45136
 Zn551 Zn -0.23865 0.39595 0.50492
 N552 N -0.24249 0.36940 0.47723
 C553 C -0.18543 0.40239 0.49999
 N554 N -0.20886 0.41471 0.49523
 C555 C -0.21056 0.43954 0.48531
 C556 C -0.18805 0.45287 0.47969
 C557 C -0.16251 0.41498 0.49476
 C558 C -0.28554 0.42155 0.52789
 C559 C -0.30977 0.43473 0.52534
 C560 C -0.30089 0.43947 0.47342
 C561 C -0.27688 0.42629 0.47704
 N562 N -0.26971 0.41746 0.50386
 H563 H -0.18460 0.38278 0.50831
 H564 H -0.22933 0.44917 0.48201
 H565 H -0.18982 0.47260 0.47176
 H566 H -0.14419 0.40495 0.49960
 H567 H -0.27970 0.41413 0.54902
 H568 H -0.32131 0.43802 0.54524
 H569 H -0.30604 0.44469 0.45128
 H570 H -0.26427 0.42217 0.45810
 C571 C -0.25285 0.33847 0.42980
 C572 C -0.22153 0.36101 0.59806
 C573 C -0.31829 0.44372 0.49765
 C574 C -0.16355 0.44065 0.48461
 C575 C 0.27388 -0.14819 0.03902
 H576 H 0.27138 -0.15722 0.01800
 C577 C 0.27847 -0.16304 0.06255
 H578 H 0.28076 -0.18368 0.05905
 C579 C 0.27671 -0.10939 0.06655
 H580 H 0.27564 -0.08848 0.06800
 C581 C 0.28092 -0.12492 0.09331
 H582 H 0.28158 -0.11419 0.11357
 N583 N 0.27276 -0.12050 0.04157
 C584 C 0.23015 -0.10865 -0.03560
 H585 H 0.21846 -0.09242 -0.02677
 C586 C 0.22144 -0.12183 -0.05992
 H587 H 0.20299 -0.11591 -0.06927
 C588 C 0.26885 -0.13532 -0.03539
 H589 H 0.28763 -0.14001 -0.02620
 C590 C 0.26063 -0.14940 -0.05933
 H591 H 0.27313 -0.16501 -0.06844
 Zn592 Zn 0.26421 -0.09781 0.01015
 N593 N 0.25325 -0.11589 -0.02341
 C594 C 0.29142 -0.05909 -0.01990
 N595 N 0.29344 -0.07940 -0.00095
 C596 C 0.31680 -0.08820 0.00919
 C597 C 0.33930 -0.07614 0.00087
 C598 C 0.31348 -0.04605 -0.02835
 C599 C 0.21545 -0.08999 0.03220
 C600 C 0.19136 -0.07761 0.03753
 C601 C 0.21074 -0.03637 0.03111
 C602 C 0.23463 -0.04978 0.02501
 N603 N 0.23605 -0.07615 0.02421
 H604 H 0.27268 -0.05295 -0.02831
 H605 H 0.31809 -0.10480 0.02358
 H606 H 0.35769 -0.08315 0.00957
 H607 H 0.31169 -0.02955 -0.04294
 H608 H 0.21740 -0.11091 0.03228
 H609 H 0.17495 -0.08932 0.04221
 H610 H 0.20945 -0.01546 0.02952
 H611 H 0.25152 -0.03914 0.01940
 C612 C 0.23658 -0.14274 -0.07173
 C613 C 0.28104 -0.15110 0.09226
 C614 C 0.18835 -0.05049 0.03536
 C615 C 0.33775 -0.05469 -0.01791
 C616 C 0.25690 1.13795 0.47287
 H617 H 0.24948 1.15039 0.49048
 C618 C 0.26585 1.14897 0.44674
 H619 H 0.26420 1.16980 0.44418
 C620 C 0.26747 1.09582 0.45435
 H621 H 0.26760 1.07507 0.45732
 C622 C 0.27666 1.10597 0.42797
 H623 H 0.28390 1.09289 0.41072
 N624 N 0.25641 1.11176 0.47542
 C625 C 0.22522 1.11265 0.56326
 H626 H 0.23476 1.09468 0.57021
 C627 C 0.21661 1.13084 0.58428
 H628 H 0.22060 1.12705 0.60716
 C629 C 0.20906 1.13948 0.52504
 H630 H 0.20597 1.14252 0.50187
 C631 C 0.20042 1.15849 0.54534
 H632 H 0.19120 1.17644 0.53767
 Zn633 Zn 0.23957 1.09471 0.50684
 N634 N 0.22289 1.11799 0.53419
 C635 C 0.28170 1.08788 0.54231
 N636 N 0.26557 1.07452 0.52558
 C637 C 0.27047 1.04897 0.51943
 C638 C 0.29343 1.03631 0.52878
 C639 C 0.30415 1.07580 0.55301
 C640 C 0.20676 1.07592 0.46357
 C641 C 0.18504 1.06355 0.45426
 C642 C 0.17856 1.04793 0.50381
 C643 C 0.20056 1.06031 0.51205
 N644 N 0.21385 1.07430 0.49212
 H645 H 0.27769 1.10834 0.54624
 H646 H 0.25759 1.03897 0.50547
 H647 H 0.29825 1.01665 0.52160
 H648 H 0.31704 1.08707 0.56566
 H649 H 0.21711 1.08777 0.44823
 H650 H 0.17942 1.06541 0.43159
 H651 H 0.16744 1.03819 0.52052
 H652 H 0.20636 1.05986 0.53472
 C653 C 0.20521 1.15465 0.57527
 C654 C 0.27471 1.13282 0.42339
 C655 C 0.17025 1.04984 0.47466
 C656 C 0.31109 1.05018 0.54473
 C657 C 0.15645 0.44738 0.27649
 H658 H 0.14009 0.45335 0.29063
 C659 C 0.16827 0.42268 0.27963
 H660 H 0.16108 0.40974 0.29629
 C661 C 0.18388 0.45569 0.23538
 H662 H 0.18907 0.46826 0.21743
 C663 C 0.19617 0.43106 0.23767
 H664 H 0.21081 0.42466 0.22142
 N665 N 0.16425 0.46324 0.25450
 C666 C 0.15276 0.53725 0.21223
 H667 H 0.13374 0.53411 0.20395
 C668 C 0.16467 0.56019 0.20555
 H669 H 0.15487 0.57435 0.19161
 C670 C 0.18749 0.52372 0.24266
 H671 H 0.19565 0.50990 0.25815
 C672 C 0.20010 0.54645 0.23654
 H673 H 0.21798 0.54997 0.24746
 Zn674 Zn 0.14366 0.49364 0.24654
 N675 N 0.16402 0.51983 0.23095
 C676 C 0.14221 0.50612 0.30650
 N677 N 0.12794 0.50762 0.28182
 C678 C 0.10409 0.52018 0.28218
 C679 C 0.09240 0.52876 0.30873
 C680 C 0.13156 0.51496 0.33336
 C681 C 0.12708 0.48024 0.19058
 C682 C 0.10974 0.47369 0.16902
 C683 C 0.07578 0.47385 0.20640
 C684 C 0.09401 0.47952 0.22728
 N685 N 0.11880 0.48399 0.21889
 H686 H 0.16176 0.49751 0.30544
 H687 H 0.09381 0.52311 0.26198
 H688 H 0.07267 0.53694 0.30872
 H689 H 0.14317 0.51297 0.35278
 H690 H 0.14713 0.48306 0.18455
 H691 H 0.11713 0.47265 0.14660
 H692 H 0.05635 0.47035 0.21431
 H693 H 0.08825 0.48016 0.25023
 C694 C 0.18816 0.56546 0.21866
 C695 C 0.18802 0.41422 0.25974
 C696 C 0.08311 0.47151 0.17630
 C697 C 0.10583 0.52536 0.33503
 C698 C -0.20258 1.02004 0.23257
 H699 H -0.20231 1.00879 0.21253
 C700 C -0.21585 1.04431 0.23383
 H701 H -0.22574 1.05173 0.21466
 C702 C -0.18856 1.02493 0.28132
 H703 H -0.17789 1.01743 0.29981
 C704 C -0.20119 1.04934 0.28338
 H705 H -0.19984 1.06057 0.30332
 N706 N -0.18820 1.01150 0.25561
 C707 C -0.19927 0.94201 0.25885
 H708 H -0.20353 0.95092 0.28004
 C709 C -0.21091 0.91916 0.25124
 H710 H -0.22394 0.91037 0.26687
 C711 C -0.17650 0.94208 0.21302
 H712 H -0.16334 0.95115 0.19791
 C713 C -0.18749 0.91927 0.20465
 H714 H -0.18247 0.91093 0.18331
 Zn715 Zn -0.16450 0.98255 0.25051
 N716 N -0.18199 0.95266 0.23998
 C717 C -0.14180 0.95445 0.29931
 N718 N -0.14446 0.97727 0.28450
 C719 C -0.12951 0.99735 0.29057
 C720 C -0.11077 0.99495 0.31189
 C721 C -0.12306 0.95117 0.32098
 C722 C -0.14060 1.00947 0.20176
 C723 C -0.12129 1.01160 0.17985
 C724 C -0.09963 0.97286 0.19881
 C725 C -0.11943 0.97128 0.21977
 N726 N -0.13965 0.98906 0.22060
 H727 H -0.15332 0.93845 0.29348
 H728 H -0.13165 1.01508 0.27806
 H729 H -0.09905 1.01124 0.31619
 H730 H -0.12049 0.93272 0.33203
 H731 H -0.15654 1.02381 0.20318
 H732 H -0.12360 1.02725 0.16427
 H733 H -0.08358 0.95868 0.20008
 H734 H -0.11880 0.95561 0.23552
 C735 C -0.20463 0.90729 0.22400
 C736 C -0.21413 1.05967 0.25902
 C737 C -0.10056 0.99267 0.17744
 C738 C -0.10686 0.97147 0.32691
 C739 C 0.31737 0.52358 -0.22716
 H740 H 0.31527 0.50525 -0.21614
 C741 C 0.30388 0.54605 -0.21626
 H742 H 0.29140 0.54498 -0.19687
 C743 C 0.33765 0.54796 -0.26436
 H744 H 0.35188 0.54945 -0.28184
 C745 C 0.32432 0.57038 -0.25481
 H746 H 0.32768 0.58828 -0.26631
 N747 N 0.33392 0.52498 -0.25088
 C748 C 0.35377 0.44732 -0.28820
 H749 H 0.37338 0.45150 -0.29483
 C750 C 0.34517 0.42394 -0.29290
 H751 H 0.35787 0.40977 -0.30435
 C752 C 0.31295 0.46349 -0.26825
 H753 H 0.30083 0.47871 -0.25790
 C754 C 0.30247 0.43767 -0.27300
 H755 H 0.28297 0.43468 -0.26495
 Zn756 Zn 0.35554 0.49640 -0.26474
 N757 N 0.33731 0.46705 -0.27421
 C758 C 0.37860 0.46391 -0.22121
 N759 N 0.37931 0.48728 -0.23491
 C760 C 0.39640 0.50498 -0.22697
 C761 C 0.41422 0.49917 -0.20507
 C762 C 0.39582 0.45746 -0.19882
 C763 C 0.35883 0.51571 -0.32208
 C764 C 0.37058 0.52584 -0.34715
 C765 C 0.41228 0.51246 -0.32798
 C766 C 0.39971 0.50388 -0.30252
 N767 N 0.37344 0.50611 -0.29979
 H768 H 0.36449 0.45031 -0.22737
 H769 H 0.39623 0.52360 -0.23780
 H770 H 0.42769 0.51351 -0.19901
 H771 H 0.39505 0.43881 -0.18812
 H772 H 0.33790 0.51686 -0.31960
 H773 H 0.35806 0.53504 -0.36311
 H774 H 0.43310 0.50935 -0.32961
 H775 H 0.41100 0.49519 -0.28510
 C776 C 0.31840 0.41786 -0.28317
 C777 C 0.30782 0.56991 -0.22992
 C778 C 0.39783 0.52435 -0.35071
 C779 C 0.41407 0.47513 -0.19072
 C780 C 0.69758 -0.01213 -0.24667
 H781 H 0.70744 0.00346 -0.25716
 C782 C 0.71116 -0.03393 -0.23917
 H783 H 0.73182 -0.03557 -0.24393
 C784 C 0.65772 -0.02821 -0.22877
 H785 H 0.63691 -0.02617 -0.22535
 C786 C 0.67165 -0.05254 -0.22076
 H787 H 0.66043 -0.06751 -0.21085
 N788 N 0.66986 -0.00983 -0.24167
 C789 C 0.68583 0.05410 -0.24701
 H790 H 0.69166 0.04153 -0.22916
 C791 C 0.69756 0.07758 -0.25069
 H792 H 0.71153 0.08243 -0.23459
 C793 C 0.65891 0.06307 -0.28731
 H794 H 0.64360 0.05750 -0.30134
 C795 C 0.67008 0.08687 -0.29183
 H796 H 0.66359 0.09849 -0.31022
 Zn797 Zn 0.64748 0.01814 -0.25422
 N798 N 0.66644 0.04751 -0.26470
 C799 C 0.63607 0.03801 -0.19788
 N800 N 0.62502 0.02751 -0.22161
 C801 C 0.59934 0.02267 -0.22111
 C802 C 0.58386 0.02835 -0.19604
 C803 C 0.62137 0.04395 -0.17246
 C804 C 0.63671 -0.01552 -0.30100
 C805 C 0.62369 -0.02432 -0.32536
 C806 C 0.59262 0.01193 -0.31952
 C807 C 0.60658 0.02041 -0.29570
 N808 N 0.62816 0.00661 -0.28676
 H809 H 0.65652 0.04122 -0.19826
 H810 H 0.59095 0.01346 -0.23962
 H811 H 0.56371 0.02349 -0.19566
 H812 H 0.63071 0.05200 -0.15375
 H813 H 0.65407 -0.02608 -0.29394
 H814 H 0.63122 -0.04144 -0.33707
 H815 H 0.57578 0.02335 -0.32672
 H816 H 0.60029 0.03815 -0.28444
 C817 C 0.68936 0.09504 -0.27288
 C818 C 0.69731 -0.05626 -0.22693
 C819 C 0.60134 -0.01055 -0.33478
 C820 C 0.59500 0.03876 -0.17112
 C821 C 0.04404 0.25193 0.84320
 H822 H 0.03027 0.26770 0.83818
 C823 C 0.06790 0.24977 0.82807
 H824 H 0.07236 0.26398 0.81149
 C825 C 0.05566 0.21544 0.87242
 H826 H 0.05098 0.20226 0.88993
 C827 C 0.07978 0.21263 0.85794
 H828 H 0.09343 0.19719 0.86440
 N829 N 0.03864 0.23531 0.86544
 C830 C -0.04544 0.24262 0.87851
 H831 H -0.04686 0.24339 0.90218
 C832 C -0.06800 0.24298 0.86237
 H833 H -0.08656 0.24418 0.87402
 C834 C -0.01962 0.23827 0.83493
 H835 H -0.00078 0.23591 0.82423
 C836 C -0.04179 0.23895 0.81781
 H837 H -0.03964 0.23786 0.79413
 Zn838 Zn 0.00789 0.24131 0.88881
 N839 N -0.02178 0.24081 0.86471
 C840 C -0.01063 0.28249 0.92686
 N841 N 0.00901 0.27403 0.90812
 C842 C 0.02961 0.28884 0.90256
 C843 C 0.02990 0.31388 0.91377
 C844 C -0.01090 0.30740 0.93901
 C845 C -0.00939 0.19499 0.91274
 C846 C -0.00956 0.17425 0.93226
 C847 C 0.02171 0.19521 0.96147
 C848 C 0.02112 0.21571 0.94145
 N849 N 0.00598 0.21504 0.91747
 H850 H -0.02633 0.27017 0.93209
 H851 H 0.04576 0.28160 0.88898
 H852 H 0.04593 0.32579 0.90809
 H853 H -0.02710 0.31431 0.95295
 H854 H -0.02086 0.19459 0.89324
 H855 H -0.02116 0.15800 0.92742
 H856 H 0.03428 0.19571 0.98012
 H857 H 0.03329 0.23185 0.94456
 C858 C -0.06641 0.24187 0.83152
 C859 C 0.08639 0.23036 0.83600
 C860 C 0.00643 0.17397 0.95675
 C861 C 0.00918 0.32360 0.93162
 C862 C 0.46635 0.25719 0.16753
 H863 H 0.47329 0.27640 0.16903
 C864 C 0.44328 0.25156 0.18251
 H865 H 0.43267 0.26678 0.19480
 C866 C 0.47091 0.21445 0.14897
 H867 H 0.48171 0.19987 0.13603
 C868 C 0.44806 0.20797 0.16365
 H869 H 0.44165 0.18846 0.16170
 N870 N 0.47933 0.23893 0.15040
 C871 C 0.56040 0.25597 0.13299
 H872 H 0.55943 0.25780 0.10937
 C873 C 0.58365 0.25958 0.14683
 H874 H 0.60055 0.26362 0.13340
 C875 C 0.53942 0.24761 0.17861
 H876 H 0.52199 0.24305 0.19078
 C877 C 0.56239 0.25145 0.19353
 H878 H 0.56238 0.24999 0.21724
 Zn879 Zn 0.50902 0.24666 0.12622
 N880 N 0.53894 0.24997 0.14885
 C881 C 0.50497 0.28005 0.07591
 N882 N 0.50381 0.27878 0.10583
 C883 C 0.50206 0.30076 0.12230
 C884 C 0.50127 0.32503 0.10892
 C885 C 0.50451 0.30401 0.06159
 C886 C 0.53721 0.20346 0.09919
 C887 C 0.54073 0.18251 0.07981
 C888 C 0.49945 0.19479 0.05878
 C889 C 0.49657 0.21525 0.07875
 N890 N 0.51531 0.21927 0.09846
 H891 H 0.50753 0.26262 0.06297
 H892 H 0.50260 0.29955 0.14594
 H893 H 0.49996 0.34217 0.12265
 H894 H 0.50652 0.30451 0.03788
 H895 H 0.55162 0.20647 0.11546
 H896 H 0.55773 0.16950 0.08169
 H897 H 0.48420 0.19202 0.04338
 H898 H 0.47914 0.22781 0.07887
 C899 C 0.58492 0.25773 0.17757
 C900 C 0.43349 0.22681 0.18013
 C901 C 0.52150 0.17769 0.05953
 C902 C 0.50313 0.32695 0.07815
 C903 C -0.02633 0.76312 0.66388
 H904 H -0.01468 0.77954 0.66763
 C905 C -0.04999 0.76225 0.67667
 H906 H -0.05708 0.77838 0.69027
 C907 C -0.02992 0.72255 0.63995
 H908 H -0.02245 0.70742 0.62522
 C909 C -0.05620 0.72095 0.65314
 H910 H -0.06652 0.70383 0.64838
 N911 N -0.01652 0.74269 0.64452
 C912 C 0.06758 0.74888 0.63420
 H913 H 0.06910 0.74911 0.61046
 C914 C 0.09001 0.74844 0.65066
 H915 H 0.10878 0.74819 0.63947
 C916 C 0.04133 0.74788 0.67758
 H917 H 0.02234 0.74717 0.68796
 C918 C 0.06341 0.74778 0.69500
 H919 H 0.06130 0.74675 0.71868
 Zn920 Zn 0.01485 0.74673 0.62235
 N921 N 0.04382 0.74821 0.64769
 C922 C 0.02731 0.79780 0.60598
 N923 N 0.01051 0.77881 0.60154
 C924 C -0.01087 0.78338 0.58495
 C925 C -0.01584 0.80762 0.57191
 C926 C 0.02287 0.82234 0.59374
 C927 C 0.03926 0.69880 0.60272
 C928 C 0.04332 0.67664 0.58513
 C929 C 0.01004 0.69354 0.55317
 C930 C 0.00672 0.71546 0.57126
 N931 N 0.02111 0.71774 0.59572
 H932 H 0.04373 0.79436 0.61989
 H933 H -0.02479 0.76865 0.58292
 H934 H -0.03325 0.81117 0.55945
 H935 H 0.03613 0.83737 0.59808
 H936 H 0.05012 0.70037 0.62255
 H937 H 0.05726 0.66154 0.59178
 H938 H -0.00188 0.69210 0.53408
 H939 H -0.00781 0.73031 0.56595
 C940 C 0.08811 0.74758 0.68142
 C941 C -0.06675 0.74039 0.67020
 C942 C 0.02836 0.67357 0.56014
 C943 C 0.00096 0.82754 0.57670
 C944 C 0.51945 0.78213 0.34567
 H945 H 0.51476 0.79936 0.35855
 C946 C 0.54082 0.78156 0.32605
 H947 H 0.55260 0.79824 0.32420
 C948 C 0.51096 0.73893 0.33333
 H949 H 0.49950 0.72221 0.33660
 C950 C 0.53239 0.73738 0.31394
 H951 H 0.53746 0.71941 0.30248
 N952 N 0.50507 0.76093 0.34910
 C953 C 0.42298 0.76808 0.37297
 H954 H 0.42450 0.77562 0.39498
 C955 C 0.39859 0.76574 0.36108
 H956 H 0.38146 0.77171 0.37407
 C957 C 0.44344 0.75105 0.32948
 H958 H 0.46091 0.74507 0.31729
 C959 C 0.41936 0.74839 0.31670
 H960 H 0.41860 0.74011 0.29491
 Zn961 Zn 0.47679 0.76064 0.37712
 N962 N 0.44480 0.76020 0.35743
 C963 C 0.46993 0.81369 0.38999
 N964 N 0.47619 0.79015 0.40182
 C965 C 0.48162 0.78758 0.43084
 C966 C 0.48160 0.80940 0.44901
 C967 C 0.46979 0.83595 0.40728
 C968 C 0.50326 0.71681 0.40204
 C969 C 0.50538 0.69375 0.41790
 C970 C 0.46035 0.70018 0.43307
 C971 C 0.45906 0.72310 0.41681
 N972 N 0.48014 0.73060 0.40106
 H973 H 0.46535 0.81514 0.36697
 H974 H 0.48646 0.76864 0.43983
 H975 H 0.48674 0.80717 0.47182
 H976 H 0.46513 0.85460 0.39735
 H977 H 0.52005 0.72353 0.39028
 H978 H 0.52378 0.68271 0.41789
 H979 H 0.44310 0.69395 0.44446
 H980 H 0.44101 0.73457 0.41625
 C981 C 0.39653 0.75520 0.33286
 C982 C 0.54762 0.75884 0.31027
 C983 C 0.48357 0.68488 0.43312
 C984 C 0.47608 0.83401 0.43710
 B985 B -0.00756 0.00625 1.03448
 B986 B -0.02116 0.00626 1.00110
 B987 B 0.00120 0.02780 1.00886
 B988 B 0.02405 0.01310 1.03009
 B989 B 0.01555 -0.01783 1.03525
 B990 B -0.01287 -0.02190 1.01746
 B991 B 0.02427 -0.01123 0.97647
 B992 B 0.03805 -0.01131 1.00933
 B993 B 0.01541 -0.03273 1.00238
 B994 B -0.00716 -0.01796 0.98082
 B995 B 0.00167 0.01317 0.97552
 B996 B 0.02968 0.01703 0.99338
 B997 B 0.48879 0.52259 0.51101
 B998 B 0.47266 0.51422 0.48078
 B999 B 0.49847 0.53295 0.47767
 B1000 B 0.52083 0.52283 0.50209
 B1001 B 0.50858 0.49732 0.52046
 B1002 B 0.47859 0.49216 0.50748
 B1003 B 0.51402 0.48385 0.46254
 B1004 B 0.53019 0.49220 0.49261
 B1005 B 0.50445 0.47353 0.49579
 B1006 B 0.48206 0.48362 0.47135
 B1007 B 0.49422 0.50925 0.45303
 B1008 B 0.52431 0.51413 0.46603
 B1009 B 0.50803 0.99016 0.53013
 B1010 B 0.51992 0.99803 0.49676
 B1011 B 0.49478 0.97854 0.49931
 B1012 B 0.47538 0.98862 0.52799
 B1013 B 0.48868 1.01505 0.54266
 B1014 B 0.51654 1.02076 0.52331
 B1015 B 0.47604 1.02661 0.48591
 B1016 B 0.46404 1.01882 0.51925
 B1017 B 0.48916 1.03823 0.51652
 B1018 B 0.50864 1.02812 0.48806
 B1019 B 0.49527 1.00188 0.47343
 B1020 B 0.46747 0.99606 0.49277
 B1021 B 0.00880 0.48384 1.02796
 B1022 B 0.02454 0.48968 0.99590
 B1023 B -0.00022 0.46964 0.99697
 B1024 B -0.02307 0.48131 1.02133
 B1025 B -0.01217 0.50917 1.03534
 B1026 B 0.01763 0.51405 1.01980
 B1027 B -0.01790 0.51611 0.97625
 B1028 B -0.03372 0.51034 1.00837
 B1029 B -0.00890 0.53034 1.00737
 B1030 B 0.01392 0.51867 0.98304
 B1031 B 0.00292 0.49082 0.96899
 B1032 B -0.02676 0.48583 0.98447
 B1033 B 0.02823 0.50609 0.48814
 B1034 B 0.03237 0.50807 0.52478
 B1035 B 0.01019 0.52796 0.50815
 B1036 B -0.00361 0.51124 0.48121
 B1037 B 0.01030 0.48062 0.48132
 B1038 B 0.03259 0.47888 0.50840
 B1039 B -0.01477 0.48892 0.53446
 B1040 B -0.01882 0.48697 0.49776
 B1041 B 0.00328 0.46710 0.51431
 B1042 B 0.01711 0.48376 0.54141
 B1043 B 0.00318 0.51452 0.54129
 B1044 B -0.01916 0.51610 0.51433
 B1045 B 0.52583 0.01335 -0.01553
 B1046 B 0.53184 0.01182 0.02082
 B1047 B 0.50717 0.03122 0.00828
 B1048 B 0.49339 0.01622 -0.01980
 B1049 B 0.50991 -0.01289 -0.02497
 B1050 B 0.53382 -0.01541 0.00017
 B1051 B 0.48742 -0.01237 0.03021
 B1052 B 0.48148 -0.01092 -0.00613
 B1053 B 0.50606 -0.03030 0.00629
 B1054 B 0.51985 -0.01539 0.03449
 B1055 B 0.50337 0.01387 0.03961
 B1056 B 0.47949 0.01620 0.01447
 B1057 B 0.48544 0.47740 -0.03920
 B1058 B 0.47186 0.48422 -0.00569
 B1059 B 0.49854 0.46405 -0.00884
 B1060 B 0.51802 0.47495 -0.03596
 B1061 B 0.50305 0.50255 -0.04941
 B1062 B 0.47426 0.50779 -0.03081
 B1063 B 0.51321 0.51121 0.00830
 B1064 B 0.52672 0.50437 -0.02526
 B1065 B 0.49999 0.52456 -0.02200
 B1066 B 0.48058 0.51364 0.00510
 B1067 B 0.49551 0.48613 0.01859
 B1068 B 0.52438 0.48073 -0.00003
 B1069 B -0.01820 0.98184 0.46683
 B1070 B -0.03318 0.99272 0.49800
 B1071 B -0.01093 0.96770 0.49902
 B1072 B 0.01295 0.97309 0.47412
 B1073 B 0.00537 1.00209 0.45775
 B1074 B -0.02357 1.01407 0.47240
 B1075 B 0.01141 1.01106 0.51626
 B1076 B 0.02658 1.00017 0.48516
 B1077 B 0.00427 1.02530 0.48417
 B1078 B -0.01972 1.01984 0.50890
 B1079 B -0.01201 0.99095 0.52520
 B1080 B 0.01679 0.97896 0.51066
 B1081 B 0.77169 0.23357 0.22559
 B1082 B 0.76712 0.21634 0.25656
 B1083 B 0.78715 0.24141 0.25623
 B1084 B 0.77414 0.26500 0.23438
 B1085 B 0.74574 0.25441 0.22189
 B1086 B 0.74169 0.22428 0.23530
 B1087 B 0.74148 0.25792 0.28171
 B1088 B 0.74542 0.27474 0.25043
 B1089 B 0.72580 0.24985 0.25114
 B1090 B 0.73869 0.22641 0.27281
 B1091 B 0.76696 0.23692 0.28544
 B1092 B 0.77122 0.26723 0.27153
 B1093 B 0.74224 0.78375 0.71448
 B1094 B 0.74466 0.79412 0.74919
 B1095 B 0.72518 0.76976 0.74209
 B1096 B 0.73908 0.75141 0.71491
 B1097 B 0.76801 0.76392 0.70569
 B1098 B 0.77163 0.79062 0.72705
 B1099 B 0.76969 0.74878 0.76328
 B1100 B 0.76678 0.73828 0.72853
 B1101 B 0.78668 0.76218 0.73567
 B1102 B 0.77273 0.78130 0.76279
 B1103 B 0.74386 0.76851 0.77205
 B1104 B 0.74037 0.74179 0.75078
 B1105 B 0.27063 0.26163 0.76316
 B1106 B 0.26005 0.27688 0.73261
 B1107 B 0.28261 0.25217 0.72976
 B1108 B 0.27603 0.22967 0.75524
 B1109 B 0.24866 0.24064 0.77409
 B1110 B 0.23876 0.27015 0.76012
 B1111 B 0.23611 0.23418 0.71674
 B1112 B 0.24710 0.21873 0.74685
 B1113 B 0.22436 0.24334 0.74992
 B1114 B 0.23086 0.26594 0.72442
 B1115 B 0.25819 0.25511 0.70565
 B1116 B 0.26801 0.22568 0.71936
 B1117 B 0.21111 0.73111 0.27787
 B1118 B 0.21674 0.71602 0.24511
 B1119 B 0.19688 0.74301 0.24730
 B1120 B 0.20870 0.76356 0.27175
 B1121 B 0.23651 0.74914 0.28471
 B1122 B 0.24131 0.71935 0.26840
 B1123 B 0.24359 0.75636 0.22564
 B1124 B 0.23776 0.77161 0.25810
 B1125 B 0.25778 0.74470 0.25618
 B1126 B 0.24609 0.72412 0.23170
 B1127 B 0.21823 0.73847 0.21874
 B1128 B 0.21330 0.76803 0.23482
 B1129 B 0.27227 0.73517 0.74138
 B1130 B 0.26764 0.72072 0.77405
 B1131 B 0.28620 0.74651 0.77164
 B1132 B 0.27329 0.76739 0.74700
 B1133 B 0.24600 0.75452 0.73427
 B1134 B 0.24273 0.72535 0.75114
 B1135 B 0.23892 0.76277 0.79347
 B1136 B 0.24409 0.77742 0.76067
 B1137 B 0.22503 0.75184 0.76311
 B1138 B 0.23793 0.73052 0.78772
 B1139 B 0.26531 0.74335 0.80045
 B1140 B 0.26877 0.77245 0.78397
 B1141 B 0.24626 0.25367 0.22591
 B1142 B 0.24923 0.26683 0.25930
 B1143 B 0.22766 0.24407 0.25456
 B1144 B 0.24039 0.22208 0.22998
 B1145 B 0.27056 0.23142 0.21992
 B1146 B 0.27602 0.25935 0.23826
 B1147 B 0.27006 0.22133 0.27894
 B1148 B 0.26699 0.20823 0.24546
 B1149 B 0.28858 0.23097 0.25045
 B1150 B 0.27578 0.25306 0.27494
 B1151 B 0.24573 0.24362 0.28500
 B1152 B 0.24026 0.21565 0.26668
 B1153 B 0.74066 0.76096 0.26832
 B1154 B 0.73303 0.77102 0.23399
 B1155 B 0.75662 0.74758 0.23917
 B1156 B 0.74766 0.72864 0.26739
 B1157 B 0.71832 0.74083 0.28028
 B1158 B 0.70937 0.76722 0.25975
 B1159 B 0.71298 0.72506 0.22323
 B1160 B 0.72020 0.71510 0.25744
 B1161 B 0.69692 0.73869 0.25297
 B1162 B 0.70582 0.75730 0.22424
 B1163 B 0.73556 0.74529 0.21149
 B1164 B 0.74415 0.71884 0.23221
 B1165 B 0.74111 0.24580 0.79119
 B1166 B 0.74983 0.23186 0.75846
 B1167 B 0.72767 0.25706 0.76014
 B1168 B 0.73638 0.27822 0.78604
 B1169 B 0.76439 0.26565 0.80050
 B1170 B 0.77246 0.23675 0.78375
 B1171 B 0.77369 0.27471 0.74202
 B1172 B 0.76546 0.28877 0.77446
 B1173 B 0.78724 0.26335 0.77337
 B1174 B 0.77858 0.24252 0.74729
 B1175 B 0.75049 0.25503 0.73274
 B1176 B 0.74243 0.28390 0.74983
 C1177 C 0.38763 1.01887 0.40105
 C1178 C 0.40299 1.02144 0.37540
 C1179 C 0.42681 1.03346 0.37719
 C1180 C 0.43646 1.03984 0.40480
 C1181 C 0.42184 1.03455 0.43047
 C1182 C 0.39694 1.02538 0.42832
 C1183 C 0.43331 1.03553 0.45785
 C1184 C 0.45972 1.04077 0.46031
 C1185 C 0.47287 1.04974 0.43508
 C1186 C 0.46137 1.04913 0.40750
 H1187 H 0.43873 1.03583 0.35755
 H1188 H 0.38529 1.02171 0.44787
 H1189 H 0.42256 1.02797 0.47623
 H1190 H 0.47274 1.05388 0.38811
 H1191 H 0.36876 1.01072 0.40015
 H1192 H 0.49308 1.05424 0.43596
 C1193 C -0.10951 0.54877 0.89533
 C1194 C -0.09658 0.54275 0.86824
 C1195 C -0.06920 0.53967 0.86796
 C1196 C -0.05564 0.53932 0.89428
 C1197 C -0.06916 0.54358 0.92126
 C1198 C -0.09591 0.54949 0.92143
 C1199 C -0.05609 0.54005 0.94771
 C1200 C -0.03028 0.52986 0.94772
 C1201 C -0.01645 0.52819 0.92059
 C1202 C -0.02894 0.53303 0.89419
 H1203 H -0.05844 0.53471 0.84787
 H1204 H -0.10658 0.55328 0.94192
 H1205 H -0.06656 0.54422 0.96796
 H1206 H -0.01805 0.53022 0.87369
 H1207 H -0.13026 0.55287 0.89662
 H1208 H 0.00379 0.52158 0.91946
 C1209 C 0.10782 0.01069 0.87908
 C1210 C 0.09866 -0.00491 0.85682
 C1211 C 0.07832 -0.02132 0.86315
 C1212 C 0.06642 -0.02114 0.89128
 C1213 C 0.07553 -0.00487 0.91321
 C1214 C 0.09650 0.01056 0.90712
 C1215 C 0.06298 -0.00338 0.94066
 C1216 C 0.04068 -0.01725 0.94675
 C1217 C 0.03223 -0.03416 0.92523
 C1218 C 0.04511 -0.03620 0.89775
 H1219 H 0.07120 -0.03339 0.84595
 H1220 H 0.10375 0.02302 0.92385
 H1221 H 0.07029 0.00948 0.95691
 H1222 H 0.03792 -0.04893 0.88127
 H1223 H 0.12372 0.02310 0.87467
 H1224 H 0.01530 -0.04526 0.92933
 C1225 C 0.54060 0.46917 0.33070
 C1226 C 0.56599 0.45839 0.33369
 C1227 C 0.57326 0.44801 0.36114
 C1228 C 0.55639 0.45101 0.38578
 C1229 C 0.53175 0.46362 0.38262
 C1230 C 0.52355 0.47145 0.35483
 C1231 C 0.51657 0.47043 0.40752
 C1232 C 0.52629 0.46646 0.43590
 C1233 C 0.54911 0.45067 0.43875
 C1234 C 0.56421 0.44318 0.41387
 H1235 H 0.59252 0.43911 0.36375
 H1236 H 0.50461 0.48107 0.35210
 H1237 H 0.49818 0.48101 0.40449
 H1238 H 0.58262 0.43258 0.41675
 H1239 H 0.53431 0.47755 0.31014
 H1240 H 0.55608 0.44518 0.46014
 C1241 C 0.54158 0.51904 0.13980
 C1242 C 0.56780 0.52422 0.13504
 C1243 C 0.57625 0.53196 0.10696
 C1244 C 0.55918 0.53255 0.08344
 C1245 C 0.53333 0.52557 0.08804
 C1246 C 0.52445 0.51976 0.11651
 C1247 C 0.51740 0.52261 0.06387
 C1248 C 0.52730 0.52522 0.03486
 C1249 C 0.55204 0.53520 0.03116
 C1250 C 0.56785 0.53872 0.05510
 H1251 H 0.59636 0.53638 0.10318
 H1252 H 0.50462 0.51453 0.12051
 H1253 H 0.49804 0.51599 0.06774
 H1254 H 0.58731 0.54506 0.05122
 H1255 H 0.53463 0.51304 0.16125
 H1256 H 0.55982 0.53979 0.00985
 C1257 C 0.04408 1.01974 0.64651
 C1258 C 0.06904 1.02844 0.64082
 C1259 C 0.07554 1.03738 0.61254
 C1260 C 0.05814 1.03543 0.58960
 C1261 C 0.03382 1.02494 0.59520
 C1262 C 0.02655 1.01813 0.62389
 C1263 C 0.01787 1.01973 0.57182
 C1264 C 0.02619 1.02396 0.54258
 C1265 C 0.04918 1.03692 0.53759
 C1266 C 0.06512 1.04247 0.56087
 H1267 H 0.09459 1.04457 0.60810
 H1268 H 0.00785 1.01025 0.62856
 H1269 H -0.00025 1.01077 0.57659
 H1270 H 0.08340 1.05120 0.55624
 H1271 H 0.03862 1.01268 0.66806
 H1272 H 0.05542 1.04206 0.51567
 C1273 C -0.05888 0.45329 0.65792
 C1274 C -0.08218 0.46869 0.65766
 C1275 C -0.08880 0.48194 0.63178
 C1276 C -0.07214 0.48084 0.60707
 C1277 C -0.04850 0.46584 0.60750
 C1278 C -0.04231 0.45166 0.63295
 C1279 C -0.03103 0.46648 0.58315
 C1280 C -0.03660 0.48279 0.55895
 C1281 C -0.06049 0.49727 0.55925
 C1282 C -0.07820 0.49587 0.58255
 H1283 H -0.10630 0.49444 0.63137
 H1284 H -0.02430 0.44000 0.63387
 H1285 H -0.01260 0.45550 0.58382
 H1286 H -0.09611 0.50775 0.58206
 H1287 H -0.05337 0.44273 0.67752
 H1288 H -0.06521 0.51120 0.54245
 C1289 C 0.45546 -0.05316 0.15524
 C1290 C 0.42945 -0.04361 0.15519
 C1291 C 0.41918 -0.03377 0.12894
 C1292 C 0.43493 -0.03201 0.10364
 C1293 C 0.46127 -0.04080 0.10405
 C1294 C 0.47118 -0.05199 0.12979
 C1295 C 0.47752 -0.03679 0.07939
 C1296 C 0.46798 -0.02304 0.05481
 C1297 C 0.44147 -0.01518 0.05472
 C1298 C 0.42506 -0.02004 0.07853
 H1299 H 0.39932 -0.02589 0.12867
 H1300 H 0.49132 -0.05892 0.13058
 H1301 H 0.49786 -0.04296 0.08018
 H1302 H 0.40493 -0.01302 0.07793
 H1303 H 0.46375 -0.06113 0.17510
 H1304 H 0.43343 -0.00371 0.03718
 C1305 C 0.35136 0.47711 -0.01292
 C1306 C 0.34931 0.45375 0.00258
 C1307 C 0.37115 0.44315 0.01709
 C1308 C 0.39496 0.45492 0.01484
 C1309 C 0.39705 0.47760 -0.00209
 C1310 C 0.37503 0.48890 -0.01529
 C1311 C 0.42134 0.48795 -0.00670
 C1312 C 0.44386 0.47544 0.00462
 C1313 C 0.44112 0.45425 0.02360
 C1314 C 0.41694 0.44391 0.02841
 H1315 H 0.37004 0.42504 0.02890
 H1316 H 0.37624 0.50648 -0.02808
 H1317 H 0.42273 0.50481 -0.02064
 H1318 H 0.41557 0.42689 0.04212
 H1319 H 0.33473 0.48609 -0.02365
 H1320 H 0.45768 0.44512 0.03421
 C1321 C -0.15113 0.99405 0.46961
 C1322 C -0.15813 0.97560 0.49065
 C1323 C -0.14021 0.96757 0.51193
 C1324 C -0.11512 0.97645 0.51104
 C1325 C -0.10779 0.99380 0.48877
 C1326 C -0.12613 1.00309 0.46867
 C1327 C -0.08194 1.00046 0.48599
 C1328 C -0.06315 0.98939 0.50472
 C1329 C -0.07115 0.97379 0.52819
 C1330 C -0.09688 0.96726 0.53123
 H1331 H -0.14516 0.95310 0.52805
 H1332 H -0.12091 1.01662 0.45163
 H1333 H -0.07631 1.01290 0.46805
 H1334 H -0.10231 0.95430 0.54877
 H1335 H -0.16478 1.00096 0.45336
 H1336 H -0.05746 0.96589 0.54375
 C1337 C -0.14153 0.02177 1.02777
 C1338 C -0.14780 0.03752 1.00331
 C1339 C -0.12807 0.04150 0.98201
 C1340 C -0.10271 0.03132 0.98570
 C1341 C -0.09651 0.01680 1.01102
 C1342 C -0.11616 0.01175 1.03166
 C1343 C -0.07071 0.00802 1.01550
 C1344 C -0.05094 0.01389 0.99509
 C1345 C -0.05780 0.02708 0.96910
 C1346 C -0.08334 0.03587 0.96459
 H1347 H -0.13236 0.05225 0.96215
 H1348 H -0.11179 0.00059 1.05123
 H1349 H -0.06612 -0.00298 1.03507
 H1350 H -0.08782 0.04673 0.94485
 H1351 H -0.15569 0.01847 1.04509
 H1352 H -0.04334 0.03157 0.95253
 C1353 C 0.35164 0.52844 0.50133
 C1354 C 0.34732 0.55057 0.48376
 C1355 C 0.36799 0.55910 0.46611
 C1356 C 0.39274 0.54646 0.46700
 C1357 C 0.39693 0.52469 0.48532
 C1358 C 0.37610 0.51555 0.50196
 C1359 C 0.42206 0.51319 0.48780
 C1360 C 0.44347 0.52406 0.47341
 C1361 C 0.43862 0.54452 0.45358
 C1362 C 0.41359 0.55566 0.45051
 H1363 H 0.36497 0.57589 0.45215
 H1364 H 0.37896 0.49898 0.51630
 H1365 H 0.42510 0.49698 0.50259
 H1366 H 0.41069 0.57199 0.43584
 H1367 H 0.33633 0.52162 0.51555
 H1368 H 0.45415 0.55237 0.44066
 C1369 C 0.15189 0.52022 0.52160
 C1370 C 0.15169 0.54522 0.53379
 C1371 C 0.12881 0.55544 0.54805
 C1372 C 0.10590 0.54173 0.54771
 C1373 C 0.10612 0.51750 0.53343
 C1374 C 0.12938 0.50647 0.52149
 C1375 C 0.08283 0.50537 0.52958
 C1376 C 0.05888 0.51783 0.53784
 C1377 C 0.05917 0.54011 0.55560
 C1378 C 0.08247 0.55219 0.56016
 H1379 H 0.12836 0.57462 0.55768
 H1380 H 0.12991 0.48771 0.51082
 H1381 H 0.08347 0.48684 0.51866
 H1382 H 0.08193 0.57038 0.57202
 H1383 H 0.16938 0.51158 0.51126
 H1384 H 0.04120 0.54944 0.56389
 C1385 C 0.65169 0.01411 0.03138
 C1386 C 0.65256 0.04057 0.03816
 C1387 C 0.62955 0.05435 0.04752
 C1388 C 0.60568 0.04247 0.04710
 C1389 C 0.60495 0.01654 0.03760
 C1390 C 0.62811 0.00219 0.03111
 C1391 C 0.58107 0.00594 0.03261
 C1392 C 0.55785 0.02141 0.03507
 C1393 C 0.55856 0.04542 0.04942
 C1394 C 0.58233 0.05625 0.05463
 H1395 H 0.62988 0.07472 0.05300
 H1396 H 0.62789 -0.01790 0.02439
 H1397 H 0.58096 -0.01369 0.02435
 H1398 H 0.58240 0.07572 0.06341
 H1399 H 0.66922 0.00284 0.02509
 H1400 H 0.54084 0.05644 0.05531
 C1401 C 0.63856 0.99968 0.46118
 C1402 C 0.64345 0.97271 0.46259
 C1403 C 0.62254 0.95658 0.46344
 C1404 C 0.59757 0.96685 0.46888
 C1405 C 0.59233 0.99390 0.46854
 C1406 C 0.61293 1.01022 0.46326
 C1407 C 0.56705 1.00391 0.47546
 C1408 C 0.54794 0.98720 0.48548
 C1409 C 0.55478 0.96060 0.48815
 C1410 C 0.57859 0.95037 0.47814
 H1411 H 0.62606 0.93571 0.46333
 H1412 H 0.60945 1.03105 0.46309
 H1413 H 0.56281 1.02464 0.47485
 H1414 H 0.58288 0.92970 0.48009
 H1415 H 0.65445 1.01253 0.46019
 H1416 H 0.54230 0.94743 0.49913
 C1417 C 0.14449 0.47257 1.01641
 C1418 C 0.14971 0.45378 0.99447
 C1419 C 0.13004 0.44782 0.97525
 C1420 C 0.10509 0.45956 0.97871
 C1421 C 0.09968 0.47765 1.00157
 C1422 C 0.11964 0.48441 1.01997
 C1423 C 0.07426 0.48806 1.00619
 C1424 C 0.05397 0.48013 0.98868
 C1425 C 0.06010 0.46336 0.96489
 C1426 C 0.08532 0.45304 0.96007
 H1427 H 0.13404 0.43360 0.95801
 H1428 H 0.11586 0.49832 1.03755
 H1429 H 0.07018 0.50140 1.02427
 H1430 H 0.08925 0.43961 0.94203
 H1431 H 0.15937 0.47737 1.03152
 H1432 H 0.04544 0.45792 0.94995
 C1433 C 0.03747 0.35790 0.46473
 C1434 C 0.01321 0.34676 0.46626
 C1435 C -0.00730 0.35974 0.48249
 C1436 C -0.00378 0.38404 0.49567
 C1437 C 0.02038 0.39535 0.49241
 C1438 C 0.04103 0.38183 0.47768
 C1439 C 0.02321 0.42074 0.50207
 C1440 C 0.00195 0.43588 0.51411
 C1441 C -0.02119 0.42347 0.52034
 C1442 C -0.02413 0.39787 0.51093
 H1443 H -0.02605 0.35130 0.48414
 H1444 H 0.05972 0.39028 0.47507
 H1445 H 0.04165 0.42921 0.49775
 H1446 H -0.04275 0.38943 0.51418
 H1447 H 0.05350 0.34868 0.45220
 H1448 H -0.03784 0.43421 0.52996
 C1449 C 0.54460 -0.13672 -0.04885
 C1450 C 0.52221 -0.15030 -0.04278
 C1451 C 0.50269 -0.13906 -0.02391
 C1452 C 0.50495 -0.11398 -0.01259
 C1453 C 0.52689 -0.10007 -0.02034
 C1454 C 0.54692 -0.11186 -0.03774
 C1455 C 0.52790 -0.07410 -0.01202
 C1456 C 0.50708 -0.06133 0.00367
 C1457 C 0.48633 -0.07604 0.01345
 C1458 C 0.48519 -0.10205 0.00520
 H1459 H 0.48548 -0.14950 -0.01882
 H1460 H 0.56396 -0.10147 -0.04371
 H1461 H 0.54439 -0.06356 -0.01953
 H1462 H 0.46830 -0.11248 0.01165
 H1463 H 0.55980 -0.14483 -0.06344
 H1464 H 0.46993 -0.06710 0.02544
 C1465 C -0.02721 -0.14292 1.01375
 C1466 C -0.01146 -0.15082 1.03715
 C1467 C 0.01016 -0.13677 1.04350
 C1468 C 0.01492 -0.11390 1.02841
 C1469 C -0.00178 -0.10496 1.00606
 C1470 C -0.02236 -0.12013 0.99822
 C1471 C 0.00118 -0.08018 0.99380
 C1472 C 0.01965 -0.06375 1.00500
 C1473 C 0.03689 -0.07402 1.02619
 C1474 C 0.03500 -0.09890 1.03709
 H1475 H 0.02263 -0.14308 1.06124
 H1476 H -0.03536 -0.11381 0.98103
 H1477 H -0.01270 -0.07275 0.97805
 H1478 H 0.04787 -0.10547 1.05431
 H1479 H -0.04385 -0.15375 1.00835
 H1480 H 0.05035 -0.06212 1.03696
 C1481 C 0.50843 0.38416 0.58909
 C1482 C 0.50801 0.36301 0.56985
 C1483 C 0.50666 0.36734 0.53940
 C1484 C 0.50630 0.39275 0.52832
 C1485 C 0.50662 0.41380 0.54803
 C1486 C 0.50755 0.40934 0.57831
 C1487 C 0.50602 0.43909 0.53732
 C1488 C 0.50598 0.44415 0.50693
 C1489 C 0.50541 0.42310 0.48742
 C1490 C 0.50564 0.39763 0.49800
 H1491 H 0.50648 0.35101 0.52450
 H1492 H 0.50784 0.42533 0.59367
 H1493 H 0.50556 0.45482 0.55305
 H1494 H 0.50522 0.38177 0.48250
 H1495 H 0.50933 0.38113 0.61259
 H1496 H 0.50433 0.42621 0.46400
 C1497 C 0.51821 1.15522 0.52472
 C1498 C 0.50783 1.15976 0.55322
 C1499 C 0.49346 1.14071 0.56690
 C1500 C 0.49078 1.11685 0.55337
 C1501 C 0.50186 1.11188 0.52511
 C1502 C 0.51517 1.13144 0.51071
 C1503 C 0.50012 1.08724 0.51236
 C1504 C 0.48803 1.06747 0.52801
 C1505 C 0.47693 1.07315 0.55606
 C1506 C 0.47792 1.09760 0.56833
 H1507 H 0.48475 1.14428 0.58855
 H1508 H 0.52377 1.12811 0.48900
 H1509 H 0.50897 1.08325 0.49090
 H1510 H 0.46934 1.10118 0.59002
 H1511 H 0.52927 1.16973 0.51369
 H1512 H 0.46753 1.05859 0.56895
 C1513 C 0.00074 0.62913 1.08577
 C1514 C -0.00743 0.64805 1.06539
 C1515 C -0.01491 0.64031 1.03733
 C1516 C -0.01380 0.61393 1.02965
 C1517 C -0.00560 0.59521 1.05044
 C1518 C 0.00157 0.60296 1.07841
 C1519 C -0.00452 0.56897 1.04301
 C1520 C -0.01128 0.56068 1.01484
 C1521 C -0.01892 0.57955 0.99410
 C1522 C -0.02045 0.60588 1.00152
 H1523 H -0.02121 0.65479 1.02147
 H1524 H 0.00785 0.58879 1.09462
 H1525 H 0.00184 0.55501 1.05941
 H1526 H -0.02653 0.61996 0.98515
 H1527 H 0.00610 0.63457 1.10768
 H1528 H -0.02346 0.57427 0.97203
 C1529 C 0.53211 0.64106 -0.03297
 C1530 C 0.51621 0.64798 -0.05668
 C1531 C 0.49891 0.63009 -0.06675
 C1532 C 0.49820 0.60539 -0.05440
 C1533 C 0.51442 0.59834 -0.03091
 C1534 C 0.53113 0.61648 -0.02009
 C1535 C 0.51407 0.57314 -0.01925
 C1536 C 0.49856 0.55456 -0.03161
 C1537 C 0.48217 0.56241 -0.05473
 C1538 C 0.48182 0.58747 -0.06572
 H1539 H 0.48601 0.63530 -0.08445
 H1540 H 0.54380 0.61149 -0.00213
 H1541 H 0.52633 0.56812 -0.00123
 H1542 H 0.46921 0.59261 -0.08372
 H1543 H 0.54569 0.65442 -0.02479
 H1544 H 0.46983 0.54907 -0.06520
 C1545 C 0.01536 1.12216 0.40160
 C1546 C 0.01282 1.14207 0.42302
 C1547 C 0.01167 1.13442 0.45294
 C1548 C 0.01171 1.10804 0.46084
 C1549 C 0.01312 1.08882 0.43883
 C1550 C 0.01536 1.09608 0.40938
 C1551 C 0.01173 1.06261 0.44646
 C1552 C 0.00939 1.05493 0.47606
 C1553 C 0.00816 1.07434 0.49786
 C1554 C 0.00947 1.10052 0.49037
 H1555 H 0.00928 1.14871 0.47026
 H1556 H 0.01703 1.08153 0.39220
 H1557 H 0.01193 1.04827 0.42909
 H1558 H 0.00810 1.11495 0.50768
 H1559 H 0.01803 1.12637 0.37852
 H1560 H 0.00525 1.06950 0.52076
 C1561 C 0.76423 0.65323 0.84523
 C1562 C 0.76925 0.66599 0.87160
 C1563 C 0.77986 0.69057 0.87031
 C1564 C 0.78280 0.70321 0.84314
 C1565 C 0.77514 0.69102 0.81729
 C1566 C 0.76698 0.66567 0.81836
 C1567 C 0.77367 0.70494 0.79112
 C1568 C 0.78027 0.73101 0.78969
 C1569 C 0.79034 0.74221 0.81490
 C1570 C 0.79146 0.72848 0.84145
 H1571 H 0.78408 0.70056 0.89042
 H1572 H 0.76167 0.65585 0.79852
 H1573 H 0.76479 0.69594 0.77277
 H1574 H 0.79775 0.73811 0.86095
 H1575 H 0.75718 0.63387 0.84543
 H1576 H 0.79549 0.76223 0.81481
 C1577 C 0.26647 0.13106 0.36987
 C1578 C 0.27786 0.14350 0.39338
 C1579 C 0.28934 0.16728 0.38841
 C1580 C 0.28798 0.17918 0.36068
 C1581 C 0.27493 0.16714 0.33796
 C1582 C 0.26503 0.14276 0.34243
 C1583 C 0.27063 0.18019 0.31159
 C1584 C 0.27977 0.20504 0.30677
 C1585 C 0.29415 0.21627 0.32885
 C1586 C 0.29817 0.20347 0.35561
 H1587 H 0.29840 0.17691 0.40633
 H1588 H 0.25523 0.13318 0.32502
 H1589 H 0.25896 0.17126 0.29538
 H1590 H 0.30843 0.21296 0.37268
 H1591 H 0.25725 0.11290 0.37311
 H1592 H 0.30130 0.23543 0.32607
 C1593 C 0.74460 0.34347 0.37625
 C1594 C 0.74003 0.32816 0.40106
 C1595 C 0.73048 0.30329 0.39759
 C1596 C 0.72798 0.29306 0.36909
 C1597 C 0.73475 0.30821 0.34463
 C1598 C 0.74203 0.33361 0.34831
 C1599 C 0.73636 0.29731 0.31678
 C1600 C 0.73074 0.27135 0.31178
 C1601 C 0.72202 0.25679 0.33588
 C1602 C 0.72068 0.26756 0.36435
 H1603 H 0.72662 0.29154 0.41674
 H1604 H 0.74688 0.34550 0.32955
 H1605 H 0.74483 0.30877 0.29963
 H1606 H 0.71527 0.25554 0.38275
 H1607 H 0.75121 0.36290 0.37854
 H1608 H 0.71804 0.23660 0.33310
 C1609 C 0.22086 0.85659 0.87677
 C1610 C 0.22798 0.84309 0.90234
 C1611 C 0.22851 0.81592 0.90240
 C1612 C 0.22396 0.80231 0.87654
 C1613 C 0.21876 0.81601 0.85034
 C1614 C 0.21624 0.84315 0.85094
 C1615 C 0.21836 0.80251 0.82363
 C1616 C 0.22514 0.77582 0.82237
 C1617 C 0.22651 0.76211 0.84916
 C1618 C 0.22604 0.77524 0.87597
 H1619 H 0.23354 0.80544 0.92225
 H1620 H 0.21207 0.85398 0.83109
 H1621 H 0.21472 0.81332 0.80391
 H1622 H 0.22923 0.76433 0.89598
 H1623 H 0.22019 0.87755 0.87639
 H1624 H 0.23059 0.74136 0.84942
 C1625 C 0.28870 0.84355 0.14581
 C1626 C 0.28150 0.83350 0.11835
 C1627 C 0.27323 0.80783 0.11804
 C1628 C 0.27014 0.79377 0.14409
 C1629 C 0.27540 0.80505 0.17129
 C1630 C 0.28549 0.82961 0.17183
 C1631 C 0.26945 0.79209 0.19750
 C1632 C 0.25742 0.76827 0.19696
 C1633 C 0.25464 0.75627 0.16944
 C1634 C 0.26077 0.76890 0.14338
 H1635 H 0.26720 0.79894 0.09807
 H1636 H 0.29030 0.83835 0.19250
 H1637 H 0.27378 0.80102 0.21800
 H1638 H 0.25717 0.75962 0.12265
 H1639 H 0.29687 0.86225 0.14775
 H1640 H 0.24646 0.73749 0.16776
 C1641 C 0.77240 0.36489 0.65160
 C1642 C 0.78181 0.35066 0.62670
 C1643 C 0.79295 0.32534 0.63118
 C1644 C 0.79299 0.31411 0.65937
 C1645 C 0.78157 0.32819 0.68318
 C1646 C 0.77217 0.35374 0.67934
 C1647 C 0.77789 0.31610 0.71015
 C1648 C 0.78608 0.28999 0.71473
 C1649 C 0.79955 0.27669 0.69155
 C1650 C 0.80289 0.28862 0.66406
 H1651 H 0.80148 0.31421 0.61291
 H1652 H 0.76354 0.36481 0.69765
 H1653 H 0.76630 0.32675 0.72659
 H1654 H 0.81208 0.27750 0.64614
 H1655 H 0.76314 0.38403 0.64975
 H1656 H 0.80585 0.25653 0.69395
 C1657 C 0.21372 0.19988 0.58898
 C1658 C 0.20280 0.17637 0.59644
 C1659 C 0.19463 0.17213 0.62565
 C1660 C 0.20019 0.18975 0.64771
 C1661 C 0.21347 0.21212 0.64030
 C1662 C 0.21894 0.21769 0.61076
 C1663 C 0.22283 0.22748 0.66254
 C1664 C 0.21969 0.22054 0.69228
 C1665 C 0.20384 0.19996 0.69932
 C1666 C 0.19441 0.18452 0.67725
 H1667 H 0.18585 0.15417 0.63149
 H1668 H 0.22885 0.23494 0.60469
 H1669 H 0.23400 0.24387 0.65636
 H1670 H 0.18367 0.16781 0.68336
 H1671 H 0.22028 0.20354 0.56666
 H1672 H 0.19954 0.19497 0.72189
 C1673 C 0.69306 0.69901 0.09217
 C1674 C 0.70198 0.67267 0.09289
 C1675 C 0.70517 0.66108 0.12072
 C1676 C 0.70195 0.67564 0.14657
 C1677 C 0.69402 0.70210 0.14548
 C1678 C 0.68879 0.71339 0.11814
 C1679 C 0.69359 0.71717 0.17137
 C1680 C 0.70318 0.70650 0.19779
 C1681 C 0.71084 0.67987 0.19795
 C1682 C 0.70909 0.66450 0.17321
 H1683 H 0.71285 0.64131 0.12266
 H1684 H 0.68253 0.73366 0.11669
 H1685 H 0.68848 0.73772 0.17009
 H1686 H 0.71577 0.64430 0.17432
 H1687 H 0.68911 0.70871 0.07161
 H1688 H 0.72067 0.67089 0.21613
 C1689 C 0.22438 0.59630 0.21464
 C1690 C 0.19778 0.59199 0.21764
 C1691 C 0.18014 0.61320 0.22260
 C1692 C 0.18887 0.63817 0.22581
 C1693 C 0.21562 0.64241 0.22346
 C1694 C 0.23322 0.62137 0.21721
 C1695 C 0.22430 0.66736 0.22854
 C1696 C 0.20660 0.68804 0.23668
 C1697 C 0.17998 0.68313 0.23858
 C1698 C 0.17124 0.65870 0.23290
 H1699 H 0.15964 0.61009 0.22563
 H1700 H 0.25383 0.62417 0.21516
 H1701 H 0.24491 0.67032 0.22716
 H1702 H 0.15070 0.65562 0.23539
 H1703 H 0.23833 0.58023 0.21073
 H1704 H 0.16573 0.69729 0.24690
 C1705 C 0.68433 0.14122 0.71285
 C1706 C 0.69907 0.12033 0.72530
 C1707 C 0.72308 0.12580 0.73762
 C1708 C 0.73092 0.15126 0.73978
 C1709 C 0.71532 0.17188 0.72844
 C1710 C 0.69243 0.16658 0.71430
 C1711 C 0.72236 0.19750 0.73236
 C1712 C 0.74409 0.20289 0.74898
 C1713 C 0.76033 0.18196 0.75854
 C1714 C 0.75384 0.15646 0.75393
 H1715 H 0.73597 0.11039 0.74569
 H1716 H 0.68016 0.18219 0.70546
 H1717 H 0.71039 0.21303 0.72317
 H1718 H 0.76626 0.14084 0.76246
 H1719 H 0.66558 0.13863 0.70359
 H1720 H 0.77765 0.18515 0.77064
 C1721 C 0.75258 0.09571 0.24966
 C1722 C 0.77745 0.08740 0.25862
 C1723 C 0.79524 0.10583 0.26592
 C1724 C 0.78845 0.13230 0.26408
 C1725 C 0.76340 0.14064 0.25531
 C1726 C 0.74550 0.12218 0.24828
 C1727 C 0.75681 0.16725 0.25339
 C1728 C 0.77511 0.18588 0.25946
 C1729 C 0.80000 0.17689 0.26784
 C1730 C 0.80655 0.15054 0.27033
 H1731 H 0.81467 0.09951 0.27224
 H1732 H 0.72619 0.12821 0.24138
 H1733 H 0.73737 0.17327 0.24694
 H1734 H 0.82601 0.14441 0.27667
 H1735 H 0.73866 0.08172 0.24388
 H1736 H 0.81506 0.18978 0.27144
 C1737 C 0.27015 0.59922 0.78867
 C1738 C 0.29672 0.59495 0.78178
 C1739 C 0.31269 0.61602 0.78155
 C1740 C 0.30202 0.64124 0.78336
 C1741 C 0.27517 0.64589 0.78898
 C1742 C 0.25951 0.62460 0.79286
 C1743 C 0.26446 0.67155 0.78854
 C1744 C 0.28005 0.69215 0.78019
 C1745 C 0.30650 0.68639 0.77339
 C1746 C 0.31757 0.66164 0.77643
 H1747 H 0.33334 0.61285 0.77699
 H1748 H 0.23884 0.62762 0.79711
 H1749 H 0.24382 0.67515 0.79259
 H1750 H 0.33799 0.65815 0.77083
 H1751 H 0.25746 0.58320 0.78911
 H1752 H 0.31874 0.70038 0.76362
 C1753 C 0.33058 0.37179 0.72105
 C1754 C 0.31122 0.39176 0.71740
 C1755 C 0.28510 0.38480 0.71557
 C1756 C 0.27879 0.35866 0.71751
 C1757 C 0.29858 0.33942 0.72202
 C1758 C 0.32433 0.34610 0.72355
 C1759 C 0.29247 0.31371 0.72597
 C1760 C 0.26678 0.30612 0.72471
 C1761 C 0.24712 0.32530 0.71912
 C1762 C 0.25305 0.35133 0.71567
 H1763 H 0.26974 0.39944 0.71200
 H1764 H 0.33971 0.33145 0.72716
 H1765 H 0.30785 0.30024 0.73225
 H1766 H 0.23748 0.36575 0.71209
 H1767 H 0.35071 0.37585 0.72382
 H1768 H 0.22703 0.32039 0.71834
 C1769 C 0.80249 0.86208 0.20479
 C1770 C 0.78543 0.88179 0.21648
 C1771 C 0.75936 0.87652 0.22222
 C1772 C 0.75089 0.85143 0.21825
 C1773 C 0.76862 0.83144 0.20820
 C1774 C 0.79412 0.83716 0.20050
 C1775 C 0.76116 0.80576 0.20823
 C1776 C 0.73744 0.79954 0.22141
 C1777 C 0.71852 0.81982 0.22672
 C1778 C 0.72531 0.84562 0.22542
 H1779 H 0.74595 0.89171 0.23071
 H1780 H 0.80795 0.82207 0.19268
 H1781 H 0.77461 0.79067 0.19993
 H1782 H 0.71112 0.86078 0.23212
 H1783 H 0.82267 0.86566 0.20020
 H1784 H 0.69927 0.81585 0.23492
 C1785 C 0.73623 0.91438 0.78077
 C1786 C 0.70965 0.91865 0.77469
 C1787 C 0.69554 0.89707 0.76766
 C1788 C 0.70750 0.87236 0.76553
 C1789 C 0.73378 0.86783 0.77267
 C1790 C 0.74795 0.88913 0.78070
 C1791 C 0.74543 0.84244 0.76995
 C1792 C 0.73146 0.82235 0.75776
 C1793 C 0.70599 0.82868 0.74853
 C1794 C 0.69377 0.85260 0.75388
 H1795 H 0.67557 0.89966 0.76097
 H1796 H 0.76826 0.88640 0.78591
 H1797 H 0.76558 0.83877 0.77546
 H1798 H 0.67401 0.85616 0.74678
 H1799 H 0.74786 0.93042 0.78634
 H1800 H 0.69544 0.81588 0.73525
 C1801 C 0.18162 0.37009 0.24186
 C1802 C 0.19624 0.38658 0.25842
 C1803 C 0.21804 0.37652 0.27334
 C1804 C 0.22527 0.34992 0.27137
 C1805 C 0.21043 0.33360 0.25441
 C1806 C 0.18862 0.34380 0.23986
 C1807 C 0.21774 0.30734 0.25170
 C1808 C 0.24003 0.29660 0.26526
 C1809 C 0.25448 0.31288 0.28258
 C1810 C 0.24713 0.33927 0.28568
 H1811 H 0.22927 0.38933 0.28619
 H1812 H 0.17708 0.33146 0.22678
 H1813 H 0.20625 0.29551 0.23806
 H1814 H 0.25873 0.35141 0.29893
 H1815 H 0.16474 0.37768 0.23038
 H1816 H 0.27169 0.30538 0.29343
 C1817 C 0.13422 0.22727 0.84252
 C1818 C 0.11319 0.23020 0.82360
 C1819 C 0.11799 0.23451 0.79347
 C1820 C 0.14353 0.23616 0.78250
 C1821 C 0.16438 0.23368 0.80194
 C1822 C 0.15956 0.22906 0.83181
 C1823 C 0.18977 0.23617 0.79138
 C1824 C 0.19513 0.24011 0.76130
 C1825 C 0.17417 0.24298 0.74219
 C1826 C 0.14864 0.24084 0.75263
 H1827 H 0.10189 0.23671 0.77869
 H1828 H 0.17538 0.22710 0.84698
 H1829 H 0.20528 0.23530 0.80696
 H1830 H 0.13290 0.24311 0.73740
 H1831 H 0.13101 0.22441 0.86586
 H1832 H 0.17738 0.24718 0.71915
 C1833 C 0.57680 0.76993 0.26739
 C1834 C 0.57249 0.75617 0.29350
 C1835 C 0.59254 0.74017 0.30469
 C1836 C 0.61699 0.73844 0.29065
 C1837 C 0.62144 0.75201 0.26419
 C1838 C 0.60101 0.76755 0.25255
 C1839 C 0.64644 0.75058 0.25068
 C1840 C 0.66721 0.73670 0.26417
 C1841 C 0.66213 0.72414 0.29111
 C1842 C 0.63733 0.72425 0.30357
 H1843 H 0.58931 0.72983 0.32509
 H1844 H 0.60394 0.77832 0.23245
 H1845 H 0.64993 0.76122 0.23060
 H1846 H 0.63433 0.71411 0.32410
 H1847 H 0.56145 0.78245 0.25854
 H1848 H 0.67750 0.71429 0.30315
 C1849 C 0.62627 0.28078 0.18033
 C1850 C 0.60979 0.26240 0.19223
 C1851 C 0.61808 0.24775 0.21674
 C1852 C 0.64313 0.25025 0.22772
 C1853 C 0.65997 0.26738 0.21388
 C1854 C 0.65114 0.28304 0.19080
 C1855 C 0.68572 0.26798 0.22249
 C1856 C 0.69517 0.25234 0.24560
 C1857 C 0.67783 0.23642 0.26045
 C1858 C 0.65211 0.23526 0.25146
 H1859 H 0.60566 0.23360 0.22635
 H1860 H 0.66369 0.29670 0.18040
 H1861 H 0.69863 0.28015 0.21030
 H1862 H 0.63947 0.22212 0.26258
 H1863 H 0.62016 0.29312 0.16232
 H1864 H 0.68435 0.22402 0.27822
 C1865 C 0.12870 0.72193 0.69172
 C1866 C 0.11207 0.74353 0.69847
 C1867 C 0.11930 0.76134 0.71988
 C1868 C 0.14367 0.75808 0.73326
 C1869 C 0.16034 0.73654 0.72552
 C1870 C 0.15248 0.71835 0.70523
 C1871 C 0.18518 0.73393 0.73705
 C1872 C 0.19457 0.75294 0.75573
 C1873 C 0.17739 0.77368 0.76452
 C1874 C 0.15220 0.77625 0.75340
 H1875 H 0.10656 0.77812 0.72509
 H1876 H 0.16509 0.70170 0.69913
 H1877 H 0.19751 0.71744 0.72996
 H1878 H 0.13974 0.79290 0.75978
 H1879 H 0.12338 0.70796 0.67550
 H1880 H 0.18372 0.78857 0.77891
 C1881 C 0.88821 0.72879 0.66302
 C1882 C 0.90677 0.74085 0.67993
 C1883 C 0.89785 0.75422 0.70579
 C1884 C 0.87128 0.75547 0.71423
 C1885 C 0.85331 0.74408 0.69614
 C1886 C 0.86195 0.73063 0.67085
 C1887 C 0.82681 0.74642 0.70330
 C1888 C 0.81748 0.75885 0.72935
 C1889 C 0.83558 0.76950 0.74785
 C1890 C 0.86221 0.76802 0.74024
 H1891 H 0.91148 0.76305 0.71989
 H1892 H 0.84829 0.72173 0.65680
 H1893 H 0.81343 0.73824 0.68836
 H1894 H 0.87567 0.77677 0.75464
 H1895 H 0.89350 0.71908 0.64253
 H1896 H 0.82915 0.77942 0.76788
 C1897 C 0.39063 0.20652 0.17627
 C1898 C 0.40735 0.22125 0.19262
 C1899 C 0.39827 0.23173 0.21982
 C1900 C 0.37257 0.22849 0.22977
 C1901 C 0.35586 0.21444 0.21247
 C1902 C 0.36524 0.20305 0.18613
 C1903 C 0.32963 0.21318 0.22084
 C1904 C 0.31942 0.22626 0.24608
 C1905 C 0.33660 0.23893 0.26406
 C1906 C 0.36292 0.23993 0.25605
 H1907 H 0.41097 0.24285 0.23290
 H1908 H 0.35266 0.19221 0.17260
 H1909 H 0.31688 0.20328 0.20657
 H1910 H 0.37545 0.25064 0.26977
 H1911 H 0.39682 0.19848 0.15513
 H1912 H 0.32954 0.24926 0.28357
 C1913 C 0.35204 0.73933 0.34026
 C1914 C 0.37066 0.74989 0.32138
 C1915 C 0.36436 0.75508 0.29194
 C1916 C 0.33941 0.75057 0.28191
 C1917 C 0.32085 0.74049 0.30144
 C1918 C 0.32743 0.73464 0.33040
 C1919 C 0.29569 0.73709 0.29211
 C1920 C 0.28804 0.74445 0.26365
 C1921 C 0.30707 0.75303 0.24382
 C1922 C 0.33247 0.75621 0.25290
 H1923 H 0.37856 0.76321 0.27716
 H1924 H 0.31341 0.72673 0.34557
 H1925 H 0.28175 0.72972 0.30776
 H1926 H 0.34654 0.76351 0.23737
 H1927 H 0.35658 0.73457 0.36278
 H1928 H 0.30251 0.75763 0.22143
 C1929 C 0.90617 0.23031 0.78847
 C1930 C 0.90955 0.24474 0.81421
 C1931 C 0.88931 0.26186 0.82424
 C1932 C 0.86556 0.26340 0.81025
 C1933 C 0.86186 0.24854 0.78478
 C1934 C 0.88255 0.23233 0.77376
 C1935 C 0.83736 0.24959 0.77161
 C1936 C 0.81646 0.26469 0.78436
 C1937 C 0.82087 0.27904 0.81000
 C1938 C 0.84513 0.27890 0.82228
 H1939 H 0.89184 0.27372 0.84349
 H1940 H 0.88025 0.22070 0.75430
 H1941 H 0.83436 0.23793 0.75233
 H1942 H 0.84764 0.29022 0.84195
 H1943 H 0.92147 0.21696 0.78018
 H1944 H 0.80541 0.29045 0.82107
 C1945 C 0.60312 0.98596 0.61091
 C1946 C 0.58924 0.98258 0.63735
 C1947 C 0.56342 0.97503 0.63663
 C1948 C 0.55119 0.97235 0.60950
 C1949 C 0.56485 0.97781 0.58321
 C1950 C 0.59102 0.98374 0.58406
 C1951 C 0.55168 0.97957 0.55673
 C1952 C 0.52477 0.97603 0.55560
 C1953 C 0.51212 0.96760 0.58141
 C1954 C 0.52513 0.96598 0.60813
 H1955 H 0.55270 0.97226 0.65706
 H1956 H 0.60182 0.98777 0.56401
 H1957 H 0.56212 0.98695 0.53804
 H1958 H 0.51437 0.96129 0.62798
 H1959 H 0.62300 0.99169 0.61112
 H1960 H 0.49149 0.96472 0.58169
 C1961 C 0.03908 0.47837 1.15958
 C1962 C 0.06512 0.46883 1.15502
 C1963 C 0.07201 0.45813 1.12699
 C1964 C 0.05442 0.45925 1.10389
 C1965 C 0.02968 0.47157 1.10836
 C1966 C 0.02184 0.48008 1.13647
 C1967 C 0.01375 0.47660 1.08434
 C1968 C 0.02234 0.46978 1.05559
 C1969 C 0.04517 0.45386 1.05223
 C1970 C 0.06138 0.44912 1.07604
 H1971 H 0.09098 0.44872 1.12289
 H1972 H 0.00271 0.48926 1.14035
 H1973 H -0.00455 0.48744 1.08805
 H1974 H 0.07979 0.43843 1.07239
 H1975 H 0.03230 0.48709 1.18013
 H1976 H 0.05132 0.44618 1.03099
 C1977 C -0.06816 -0.03070 1.14557
 C1978 C -0.08177 -0.00731 1.15401
 C1979 C -0.07647 0.01541 1.13788
 C1980 C -0.05838 0.01449 1.11414
 C1981 C -0.04528 -0.00920 1.10663
 C1982 C -0.05009 -0.03152 1.12253
 C1983 C -0.02810 -0.01070 1.08262
 C1984 C -0.02389 0.01098 1.06469
 C1985 C -0.03612 0.03489 1.07299
 C1986 C -0.05323 0.03665 1.09750
 H1987 H -0.08580 0.03393 1.14385
 H1988 H -0.04038 -0.04995 1.11660
 H1989 H -0.01888 -0.02947 1.07733
 H1990 H -0.06282 0.05519 1.10305
 H1991 H -0.07213 -0.04906 1.15556
 H1992 H -0.03290 0.05215 1.06055
 C1993 C 0.39707 0.53725 0.59548
 C1994 C 0.41092 0.53386 0.62172
 C1995 C 0.43777 0.53821 0.62071
 C1996 C 0.45080 0.54228 0.59379
 C1997 C 0.43664 0.54452 0.56781
 C1998 C 0.40966 0.54336 0.56913
 C1999 C 0.44979 0.54511 0.54059
 C2000 C 0.47658 0.53900 0.53858
 C2001 C 0.49078 0.54017 0.56460
 C2002 C 0.47795 0.54223 0.59201
 H2003 H 0.44901 0.53713 0.64041
 H2004 H 0.39851 0.54504 0.54933
 H2005 H 0.43868 0.54782 0.52119
 H2006 H 0.48927 0.54113 0.61173
 H2007 H 0.37664 0.53403 0.59448
 H2008 H 0.51166 0.53679 0.56409
 C2009 C 0.45870 0.47459 -0.17066
 C2010 C 0.43247 0.46911 -0.16688
 C2011 C 0.42364 0.45976 -0.13957
 C2012 C 0.44033 0.45813 -0.11563
 C2013 C 0.46630 0.46501 -0.11938
 C2014 C 0.47555 0.47226 -0.14722
 C2015 C 0.48200 0.46666 -0.09487
 C2016 C 0.47163 0.46366 -0.06614
 C2017 C 0.44672 0.45396 -0.06315
 C2018 C 0.43123 0.45119 -0.08762
 H2019 H 0.40341 0.45553 -0.13644
 H2020 H 0.49549 0.47743 -0.15052
 H2021 H 0.50155 0.47295 -0.09820
 H2022 H 0.41163 0.44500 -0.08438
 H2023 H 0.46600 0.48133 -0.19166
 H2024 H 0.43864 0.44920 -0.04196
 C2025 C -0.06125 0.97860 0.34038
 C2026 C -0.08533 0.96852 0.34782
 C2027 C -0.08906 0.95769 0.37585
 C2028 C -0.06974 0.95906 0.39698
 C2029 C -0.04643 0.97102 0.38975
 C2030 C -0.04198 0.97981 0.36111
 C2031 C -0.02865 0.97558 0.41165
 C2032 C -0.03402 0.96904 0.44111
 C2033 C -0.05591 0.95463 0.44738
 C2034 C -0.07375 0.94993 0.42562
 H2035 H -0.10750 0.94975 0.38178
 H2036 H -0.02403 0.98864 0.35506
 H2037 H -0.01154 0.98591 0.40584
 H2038 H -0.09121 0.94020 0.43152
 H2039 H -0.05764 0.98634 0.31864
 H2040 H -0.06020 0.94823 0.46948
 C2041 C 0.07252 0.54927 0.36849
 C2042 C 0.09235 0.52977 0.36412
 C2043 C 0.09785 0.51250 0.38718
 C2044 C 0.08310 0.51360 0.41334
 C2045 C 0.06256 0.53249 0.41729
 C2046 C 0.05785 0.55070 0.39491
 C2047 C 0.04631 0.53176 0.44267
 C2048 C 0.04995 0.51174 0.46346
 C2049 C 0.07102 0.49354 0.45903
 C2050 C 0.08763 0.49480 0.43475
 H2051 H 0.11253 0.49692 0.38415
 H2052 H 0.04227 0.56546 0.39740
 H2053 H 0.02993 0.54563 0.44517
 H2054 H 0.10316 0.48002 0.43188
 H2055 H 0.06801 0.56312 0.35132
 H2056 H 0.07408 0.47700 0.47318
 C2057 C 0.55396 0.05120 -0.14231
 C2058 C 0.57996 0.04165 -0.14300
 C2059 C 0.59123 0.03291 -0.11680
 C2060 C 0.57640 0.03217 -0.09069
 C2061 C 0.55005 0.04097 -0.09032
 C2062 C 0.53919 0.05114 -0.11609
 C2063 C 0.53461 0.03778 -0.06484
 C2064 C 0.54482 0.02451 -0.04027
 C2065 C 0.57138 0.01687 -0.04083
 C2066 C 0.58709 0.02112 -0.06546
 H2067 H 0.61112 0.02507 -0.11712
 H2068 H 0.51902 0.05804 -0.11627
 H2069 H 0.51422 0.04384 -0.06514
 H2070 H 0.60726 0.01417 -0.06542
 H2071 H 0.54495 0.05830 -0.16217
 H2072 H 0.57992 0.00588 -0.02321
 C2073 C 0.64560 0.51858 -0.01453
 C2074 C 0.64684 0.54118 -0.03156
 C2075 C 0.62534 0.54926 -0.04826
 C2076 C 0.60233 0.53602 -0.04636
 C2077 C 0.60098 0.51400 -0.02817
 C2078 C 0.62293 0.50501 -0.01301
 C2079 C 0.57728 0.50233 -0.02390
 C2080 C 0.55447 0.51342 -0.03609
 C2081 C 0.55657 0.53391 -0.05620
 C2082 C 0.58028 0.54514 -0.06124
 H2083 H 0.62619 0.56638 -0.06190
 H2084 H 0.62222 0.48815 0.00107
 H2085 H 0.57633 0.48607 -0.00900
 H2086 H 0.58108 0.56167 -0.07580
 H2087 H 0.66175 0.51202 -0.00125
 H2088 H 0.53974 0.54198 -0.06729
 C2089 C 0.12808 1.05428 0.44843
 C2090 C 0.14496 1.03980 0.46671
 C2091 C 0.13630 1.01729 0.48016
 C2092 C 0.11046 1.01083 0.47795
 C2093 C 0.09328 1.02619 0.46075
 C2094 C 0.10253 1.04731 0.44517
 C2095 C 0.06687 1.02117 0.46088
 C2096 C 0.05708 1.00218 0.47955
 C2097 C 0.07477 0.98598 0.49511
 C2098 C 0.10119 0.99013 0.49408
 H2099 H 0.14928 1.00558 0.49370
 H2100 H 0.08964 1.05931 0.43183
 H2101 H 0.05395 1.03303 0.44770
 H2102 H 0.11417 0.97794 0.50711
 H2103 H 0.13410 1.07182 0.43792
 H2104 H 0.06828 0.97058 0.50909
 C2105 C 0.15612 -0.01447 1.04658
 C2106 C 0.16323 -0.03867 1.03368
 C2107 C 0.14473 -0.05114 1.01748
 C2108 C 0.11972 -0.04029 1.01463
 C2109 C 0.11190 -0.01712 1.02946
 C2110 C 0.13042 -0.00415 1.04521
 C2111 C 0.08585 -0.00756 1.02804
 C2112 C 0.06812 -0.02060 1.01100
 C2113 C 0.07742 -0.04229 0.99432
 C2114 C 0.10257 -0.05239 0.99673
 H2115 H 0.15013 -0.06895 1.00574
 H2116 H 0.12506 0.01393 1.05635
 H2117 H 0.07949 0.00981 1.04004
 H2118 H 0.10859 -0.06975 0.98449
 H2119 H 0.16999 -0.00418 1.05894
 H2120 H 0.06503 -0.05239 0.97996
 C2121 C 0.65082 0.47177 0.46949
 C2122 C 0.65641 0.45575 0.49400
 C2123 C 0.63574 0.45153 0.51424
 C2124 C 0.61055 0.46224 0.50970
 C2125 C 0.60548 0.47759 0.48473
 C2126 C 0.62580 0.48242 0.46494
 C2127 C 0.58013 0.48761 0.47974
 C2128 C 0.55943 0.48204 0.49915
 C2129 C 0.56505 0.46746 0.52451
 C2130 C 0.59021 0.45753 0.52963
 H2131 H 0.63855 0.43886 0.53290
 H2132 H 0.62236 0.49446 0.44581
 H2133 H 0.57649 0.49908 0.46023
 H2134 H 0.59372 0.44605 0.54917
 H2135 H 0.66579 0.47692 0.45388
 H2136 H 0.55007 0.46368 0.54064
 C2137 C -0.13902 0.48096 0.49048
 C2138 C -0.13932 0.45498 0.48136
 C2139 C -0.11590 0.44229 0.47135
 C2140 C -0.09237 0.45470 0.47259
 C2141 C -0.09227 0.48031 0.48323
 C2142 C -0.11577 0.49357 0.49116
 C2143 C -0.06860 0.49171 0.48750
 C2144 C -0.04496 0.47709 0.48400
 C2145 C -0.04527 0.45299 0.46969
 C2146 C -0.06877 0.44172 0.46435
 H2147 H -0.11584 0.42247 0.46361
 H2148 H -0.11602 0.51326 0.49933
 H2149 H -0.06882 0.51157 0.49495
 H2150 H -0.06842 0.42240 0.45509
 H2151 H -0.15660 0.49122 0.49849
 H2152 H -0.02735 0.44212 0.46408
 C2153 C 0.36172 -0.01411 -0.01812
 C2154 C 0.36136 -0.04063 -0.02450
 C2155 C 0.38453 -0.05435 -0.03311
 C2156 C 0.40820 -0.04230 -0.03256
 C2157 C 0.40860 -0.01618 -0.02370
 C2158 C 0.38521 -0.00192 -0.01779
 C2159 C 0.43239 -0.00536 -0.01865
 C2160 C 0.45567 -0.02083 -0.02032
 C2161 C 0.45521 -0.04533 -0.03362
 C2162 C 0.43162 -0.05624 -0.03912
 H2163 H 0.38425 -0.07477 -0.03843
 H2164 H 0.38520 0.01822 -0.01118
 H2165 H 0.43237 0.01445 -0.01093
 H2166 H 0.43171 -0.07594 -0.04724
 H2167 H 0.34404 -0.00326 -0.01143
 H2168 H 0.47295 -0.05657 -0.03874
 C2169 C 0.34523 1.01429 0.55353
 C2170 C 0.33841 1.04036 0.54736
 C2171 C 0.35806 1.05725 0.54055
 C2172 C 0.38393 1.04832 0.53874
 C2173 C 0.39086 1.02207 0.54439
 C2174 C 0.37135 1.00525 0.55237
 C2175 C 0.41690 1.01299 0.54041
 C2176 C 0.43569 1.02971 0.52968
 C2177 C 0.42800 1.05580 0.52424
 C2178 C 0.40268 1.06510 0.52940
 H2179 H 0.35312 1.07719 0.53472
 H2180 H 0.37618 0.98500 0.55671
 H2181 H 0.42209 0.99269 0.54401
 H2182 H 0.39748 1.08516 0.52439
 H2183 H 0.33037 1.00088 0.55873
 H2184 H 0.44091 1.06897 0.51392
 C2185 C -0.15346 0.52165 0.98725
 C2186 C -0.15866 0.54491 1.00287
 C2187 C -0.13903 0.55468 1.01996
 C2188 C -0.11424 0.54216 1.02020
 C2189 C -0.10903 0.51935 1.00356
 C2190 C -0.12892 0.50897 0.98765
 C2191 C -0.08375 0.50801 1.00190
 C2192 C -0.06320 0.51991 1.01552
 C2193 C -0.06908 0.54150 1.03376
 C2194 C -0.09430 0.55258 1.03597
 H2195 H -0.14262 0.57269 1.03190
 H2196 H -0.12532 0.49143 0.97483
 H2197 H -0.07989 0.49100 0.98828
 H2198 H -0.09802 0.56980 1.04930
 H2199 H -0.16833 0.51340 0.97437
 H2200 H -0.05415 0.55038 1.04581
 C2201 C 0.05444 0.63551 0.53731
 C2202 C 0.03032 0.64879 0.54308
 C2203 C 0.00766 0.63729 0.53433
 C2204 C 0.00885 0.61233 0.52204
 C2205 C 0.03302 0.59867 0.51739
 C2206 C 0.05580 0.61085 0.52424
 C2207 C 0.03376 0.57256 0.50804
 C2208 C 0.01065 0.55926 0.50656
 C2209 C -0.01310 0.57415 0.50823
 C2210 C -0.01395 0.60030 0.51572
 H2211 H -0.01111 0.64704 0.53887
 H2212 H 0.07459 0.60085 0.52077
 H2213 H 0.05229 0.56217 0.50432
 H2214 H -0.03265 0.61068 0.51835
 H2215 H 0.07226 0.64404 0.54337
 H2216 H -0.03147 0.56546 0.50543
 C2217 C 0.54644 0.14248 0.03024
 C2218 C 0.52281 0.15335 0.04194
 C2219 C 0.50027 0.13964 0.03907
 C2220 C 0.50142 0.11492 0.02655
 C2221 C 0.52528 0.10361 0.01578
 C2222 C 0.54762 0.11791 0.01699
 C2223 C 0.52658 0.07765 0.00607
 C2224 C 0.50493 0.06235 0.00998
 C2225 C 0.48092 0.07483 0.01850
 C2226 C 0.47918 0.10079 0.02638
 H2227 H 0.48199 0.14737 0.04848
 H2228 H 0.56617 0.10966 0.00892
 H2229 H 0.54496 0.06882 -0.00175
 H2230 H 0.46063 0.10937 0.03404
 H2231 H 0.56409 0.15275 0.03186
 H2232 H 0.46331 0.06449 0.02054
 C2233 C 0.03353 0.14005 0.98271
 C2234 C 0.00886 0.15044 0.97528
 C2235 C -0.01311 0.13656 0.98254
 C2236 C -0.01031 0.11164 0.99456
 C2237 C 0.01468 0.10069 1.00007
 C2238 C 0.03641 0.11543 0.99516
 C2239 C 0.01773 0.07463 1.00832
 C2240 C -0.00375 0.05881 1.00982
 C2241 C -0.02869 0.07082 1.00723
 C2242 C -0.03195 0.09692 0.99963
 H2243 H -0.03227 0.14460 0.97737
 H2244 H 0.05574 0.10737 0.99944
 H2245 H 0.03719 0.06631 1.01131
 H2246 H -0.05137 0.10523 0.99640
 H2247 H 0.05078 0.15029 0.97727
 H2248 H -0.04588 0.06024 1.01053
 C2249 C 0.47324 0.65446 0.47463
 C2250 C 0.48457 0.65882 0.44677
 C2251 C 0.49623 0.63783 0.43105
 C2252 C 0.49664 0.61283 0.44276
 C2253 C 0.48546 0.60844 0.47085
 C2254 C 0.47382 0.62949 0.48667
 C2255 C 0.48600 0.58314 0.48241
 C2256 C 0.49743 0.56222 0.46602
 C2257 C 0.50821 0.56722 0.43791
 C2258 C 0.50789 0.59213 0.42652
 H2259 H 0.50451 0.64087 0.40927
 H2260 H 0.46508 0.62661 0.50823
 H2261 H 0.47740 0.57995 0.50386
 H2262 H 0.51638 0.59517 0.40487
 H2263 H 0.46414 0.67041 0.48716
 H2264 H 0.51694 0.55181 0.42429
 C2265 C 0.46828 0.86069 0.48341
 C2266 C 0.47877 0.85782 0.45469
 C2267 C 0.49194 0.87819 0.44212
 C2268 C 0.49373 0.90150 0.45717
 C2269 C 0.48272 0.90480 0.48577
 C2270 C 0.47022 0.88403 0.49884
 C2271 C 0.48397 0.92890 0.50022
 C2272 C 0.49571 0.94966 0.48596
 C2273 C 0.50644 0.94552 0.45733
 C2274 C 0.50586 0.92178 0.44345
 H2275 H 0.50066 0.87596 0.42027
 H2276 H 0.46158 0.88600 0.52071
 H2277 H 0.47523 0.93166 0.52195
 H2278 H 0.51440 0.91951 0.42155
 H2279 H 0.45808 0.84513 0.49359
 H2280 H 0.51559 0.96070 0.44521
 C2281 C 0.00855 0.36992 0.91763
 C2282 C 0.00759 0.35124 0.93991
 C2283 C 0.00527 0.35916 0.96946
 C2284 C 0.00438 0.38569 0.97661
 C2285 C 0.00509 0.40423 0.95388
 C2286 C 0.00709 0.39618 0.92451
 C2287 C 0.00370 0.43061 0.96071
 C2288 C 0.00257 0.43923 0.99008
 C2289 C 0.00171 0.42062 1.01258
 C2290 C 0.00265 0.39412 1.00592
 H2291 H 0.00460 0.34473 0.98669
 H2292 H 0.00767 0.41019 0.90684
 H2293 H 0.00331 0.44436 0.94278
 H2294 H 0.00186 0.38022 1.02368
 H2295 H 0.01016 0.36409 0.89475
 H2296 H -0.00021 0.42645 1.03535
 C2297 C 0.52021 0.37131 0.07746
 C2298 C 0.50566 0.35265 0.06386
 C2299 C 0.49410 0.35873 0.03677
 C2300 C 0.49643 0.38340 0.02409
 C2301 C 0.51049 0.40200 0.03864
 C2302 C 0.52252 0.39570 0.06507
 C2303 C 0.51194 0.42689 0.02701
 C2304 C 0.49931 0.43411 0.00090
 C2305 C 0.48630 0.41510 -0.01415
 C2306 C 0.48476 0.39004 -0.00261
 H2307 H 0.48286 0.34458 0.02594
 H2308 H 0.53363 0.40972 0.07631
 H2309 H 0.52233 0.44090 0.03915
 H2310 H 0.47413 0.37597 -0.01437
 H2311 H 0.53005 0.36702 0.09774
 H2312 H 0.47690 0.41951 -0.03450
 C2313 C -0.00691 0.87455 0.58694
 C2314 C -0.00529 0.85426 0.56640
 C2315 C -0.00870 0.85988 0.53643
 C2316 C -0.01238 0.88578 0.52703
 C2317 C -0.01351 0.90595 0.54799
 C2318 C -0.01125 0.90011 0.57789
 C2319 C -0.01547 0.93179 0.53879
 C2320 C -0.01554 0.93831 0.50869
 C2321 C -0.01481 0.91802 0.48800
 C2322 C -0.01371 0.89206 0.49708
 H2323 H -0.00731 0.84429 0.52046
 H2324 H -0.01208 0.91540 0.59422
 H2325 H -0.01526 0.94678 0.55537
 H2326 H -0.01268 0.87690 0.48060
 H2327 H -0.00459 0.87057 0.61011
 H2328 H -0.01384 0.92208 0.46471
 C2329 C 0.25345 0.34295 0.13425
 C2330 C 0.24050 0.33151 0.11123
 C2331 C 0.22855 0.30798 0.11610
 C2332 C 0.23012 0.29576 0.14366
 C2333 C 0.24392 0.30722 0.16618
 C2334 C 0.25514 0.33094 0.16146
 C2335 C 0.24737 0.29435 0.19277
 C2336 C 0.23712 0.27001 0.19786
 C2337 C 0.22239 0.25919 0.17584
 C2338 C 0.21891 0.27197 0.14895
 H2339 H 0.21836 0.29916 0.09848
 H2340 H 0.26576 0.33993 0.17862
 H2341 H 0.25915 0.30304 0.20906
 H2342 H 0.20815 0.26289 0.13200
 H2343 H 0.26302 0.36090 0.13090
 H2344 H 0.21448 0.24037 0.17883
 C2345 C 0.71759 0.81523 0.58410
 C2346 C 0.72587 0.84072 0.58613
 C2347 C 0.73152 0.85038 0.61385
 C2348 C 0.72974 0.83505 0.63886
 C2349 C 0.72239 0.80920 0.63682
 C2350 C 0.71586 0.79960 0.60926
 C2351 C 0.72334 0.79322 0.66199
 C2352 C 0.73249 0.80278 0.68865
 C2353 C 0.73899 0.82898 0.68976
 C2354 C 0.73698 0.84496 0.66558
 H2355 H 0.73881 0.86954 0.61599
 H2356 H 0.71008 0.77988 0.60702
 H2357 H 0.71895 0.77303 0.66017
 H2358 H 0.74291 0.86470 0.66737
 H2359 H 0.71271 0.80726 0.56309
 H2360 H 0.74782 0.83715 0.70856
 C2361 C 0.27382 0.64678 0.64979
 C2362 C 0.27855 0.66182 0.62472
 C2363 C 0.28720 0.68706 0.62824
 C2364 C 0.28937 0.69760 0.65656
 C2365 C 0.28295 0.68264 0.68130
 C2366 C 0.27609 0.65703 0.67777
 C2367 C 0.28113 0.69403 0.70908
 C2368 C 0.28527 0.72052 0.71312
 C2369 C 0.29409 0.73467 0.68874
 C2370 C 0.29614 0.72330 0.66070
 H2371 H 0.29122 0.69875 0.60907
 H2372 H 0.27124 0.64529 0.69665
 H2373 H 0.27333 0.68263 0.72669
 H2374 H 0.30144 0.73508 0.64204
 H2375 H 0.26695 0.62744 0.64785
 H2376 H 0.29734 0.75509 0.69081
 C2377 C 0.76428 0.20438 0.09479
 C2378 C 0.77784 0.18014 0.09616
 C2379 C 0.79324 0.17430 0.12068
 C2380 C 0.79304 0.19145 0.14463
 C2381 C 0.77794 0.21493 0.14355
 C2382 C 0.76455 0.22172 0.11813
 C2383 C 0.77456 0.23028 0.16869
 C2384 C 0.78454 0.22176 0.19576
 C2385 C 0.80216 0.20013 0.19572
 C2386 C 0.80635 0.18499 0.17034
 H2387 H 0.80425 0.15592 0.12177
 H2388 H 0.75293 0.23974 0.11700
 H2389 H 0.76209 0.24770 0.16742
 H2390 H 0.81880 0.16751 0.17133
 H2391 H 0.75210 0.20941 0.07643
 H2392 H 0.81177 0.19413 0.21549
 C2393 C 0.71809 0.14811 0.86547
 C2394 C 0.72038 0.15961 0.89317
 C2395 C 0.72002 0.18678 0.89534
 C2396 C 0.71963 0.20210 0.86989
 C2397 C 0.71875 0.19020 0.84208
 C2398 C 0.71695 0.16329 0.84015
 C2399 C 0.72163 0.20505 0.81661
 C2400 C 0.72735 0.23133 0.81828
 C2401 C 0.72554 0.24341 0.84610
 C2402 C 0.72164 0.22896 0.87163
 H2403 H 0.72191 0.19584 0.91659
 H2404 H 0.71606 0.15387 0.81895
 H2405 H 0.72061 0.19550 0.79581
 H2406 H 0.72181 0.23856 0.89277
 H2407 H 0.71788 0.12726 0.86338
 H2408 H 0.72891 0.26378 0.84845
 C2409 C 0.20929 0.71713 0.41301
 C2410 C 0.20742 0.69013 0.41316
 C2411 C 0.20013 0.67767 0.38753
 C2412 C 0.19680 0.69161 0.36140
 C2413 C 0.19929 0.71864 0.36103
 C2414 C 0.20472 0.73138 0.38728
 C2415 C 0.19880 0.73199 0.33405
 C2416 C 0.19876 0.71827 0.30710
 C2417 C 0.19522 0.69144 0.30847
 C2418 C 0.19333 0.67850 0.33516
 H2419 H 0.19909 0.65678 0.38736
 H2420 H 0.20685 0.75211 0.38752
 H2421 H 0.20171 0.75259 0.33403
 H2422 H 0.19167 0.65769 0.33505
 H2423 H 0.21477 0.72709 0.43266
 H2424 H 0.19638 0.67936 0.28947
 C2425 C 0.75532 0.86226 0.33941
 C2426 C 0.76322 0.85046 0.36570
 C2427 C 0.77048 0.82388 0.36597
 C2428 C 0.76712 0.80874 0.34091
 C2429 C 0.75692 0.82055 0.31549
 C2430 C 0.75221 0.84741 0.31444
 C2431 C 0.74986 0.80528 0.29214
 C2432 C 0.75308 0.77822 0.29298
 C2433 C 0.76507 0.76669 0.31757
 C2434 C 0.77194 0.78181 0.34138
 H2435 H 0.77665 0.81470 0.38621
 H2436 H 0.74484 0.85676 0.29482
 H2437 H 0.74036 0.81479 0.27436
 H2438 H 0.78001 0.77236 0.36057
 H2439 H 0.75021 0.88283 0.33867
 H2440 H 0.76809 0.74588 0.31914
 C2441 C 0.27453 0.35048 0.85372
 C2442 C 0.28001 0.33486 0.87825
 C2443 C 0.28995 0.30917 0.87384
 C2444 C 0.29138 0.29851 0.84528
 C2445 C 0.28300 0.31386 0.82141
 C2446 C 0.27586 0.34007 0.82560
 C2447 C 0.27939 0.30244 0.79421
 C2448 C 0.28453 0.27573 0.78956
 C2449 C 0.29568 0.26111 0.81260
 C2450 C 0.29890 0.27235 0.84028
 H2451 H 0.29460 0.29704 0.89258
 H2452 H 0.26999 0.35222 0.80728
 H2453 H 0.26940 0.31421 0.77822
 H2454 H 0.30576 0.26022 0.85816
 H2455 H 0.26790 0.37057 0.85644
 H2456 H 0.29977 0.24047 0.81010
 C2457 C 0.75816 0.41077 0.79585
 C2458 C 0.78415 0.41483 0.78799
 C2459 C 0.80082 0.39349 0.78077
 C2460 C 0.79213 0.36848 0.78147
 C2461 C 0.76619 0.36401 0.78972
 C2462 C 0.74927 0.38546 0.79695
 C2463 C 0.75774 0.33838 0.78954
 C2464 C 0.77493 0.31759 0.78028
 C2465 C 0.80048 0.32325 0.77158
 C2466 C 0.80908 0.34803 0.77285
 H2467 H 0.82071 0.39646 0.77385
 H2468 H 0.72921 0.38269 0.80313
 H2469 H 0.73775 0.33485 0.79526
 H2470 H 0.82883 0.35132 0.76573
 H2471 H 0.74491 0.42706 0.80135
 H2472 H 0.81387 0.30891 0.76175
 C2473 C 0.31431 0.85615 0.29536
 C2474 C 0.30230 0.87793 0.28116
 C2475 C 0.27784 0.87440 0.26854
 C2476 C 0.26680 0.85008 0.26863
 C2477 C 0.27964 0.82875 0.28220
 C2478 C 0.30310 0.83211 0.29595
 C2479 C 0.26926 0.80418 0.28098
 C2480 C 0.24690 0.80023 0.26481
 C2481 C 0.23361 0.82203 0.25261
 C2482 C 0.24343 0.84662 0.25452
 H2483 H 0.26790 0.88974 0.25646
 H2484 H 0.31310 0.81600 0.30684
 H2485 H 0.27918 0.78817 0.29187
 H2486 H 0.23310 0.86280 0.24415
 H2487 H 0.33205 0.85741 0.30721
 H2488 H 0.21603 0.82011 0.24054
 C2489 C 0.18147 0.87176 0.70209
 C2490 C 0.19338 0.89165 0.71704
 C2491 C 0.21357 0.88494 0.73612
 C2492 C 0.22141 0.85903 0.74077
 C2493 C 0.20891 0.83910 0.72642
 C2494 C 0.18916 0.84572 0.70676
 C2495 C 0.21619 0.81304 0.73235
 C2496 C 0.23552 0.80678 0.75286
 C2497 C 0.24861 0.82713 0.76562
 C2498 C 0.24139 0.85284 0.75998
 H2499 H 0.22261 0.89982 0.74841
 H2500 H 0.17941 0.83078 0.69533
 H2501 H 0.20675 0.79779 0.72114
 H2502 H 0.25137 0.86792 0.77090
 H2503 H 0.16603 0.87630 0.68700
 H2504 H 0.26408 0.82345 0.78087
 C2505 C 0.73467 0.39120 0.20671
 C2506 C 0.70974 0.39674 0.21885
 C2507 C 0.69740 0.37777 0.23504
 C2508 C 0.70947 0.35335 0.23896
 C2509 C 0.73432 0.34737 0.22628
 C2510 C 0.74683 0.36652 0.21019
 C2511 C 0.74602 0.32241 0.22997
 C2512 C 0.73316 0.30363 0.24646
 C2513 C 0.70869 0.31055 0.25945
 C2514 C 0.69695 0.33495 0.25559
 H2515 H 0.67836 0.38221 0.24498
 H2516 H 0.76594 0.36244 0.20040
 H2517 H 0.76494 0.31771 0.22000
 H2518 H 0.67802 0.33941 0.26572
 H2519 H 0.74450 0.40582 0.19433
 H2520 H 0.69832 0.29709 0.27287
 C2521 C 0.65519 0.61625 0.26182
 C2522 C 0.67504 0.59842 0.27007
 C2523 C 0.69919 0.60719 0.27813
 C2524 C 0.70368 0.63377 0.27685
 C2525 C 0.68400 0.65121 0.26669
 C2526 C 0.65968 0.64244 0.25990
 C2527 C 0.68923 0.67699 0.26179
 C2528 C 0.71351 0.68657 0.26812
 C2529 C 0.73255 0.66940 0.27999
 C2530 C 0.72775 0.64316 0.28408
 H2531 H 0.71451 0.59334 0.28449
 H2532 H 0.64437 0.65575 0.25232
 H2533 H 0.67481 0.68891 0.25061
 H2534 H 0.74308 0.63013 0.29210
 H2535 H 0.63655 0.60969 0.25542
 H2536 H 0.75160 0.67587 0.28476
 C2537 C 0.23699 0.10169 0.71409
 C2538 C 0.22025 0.09514 0.73749
 C2539 C 0.21516 0.11318 0.76040
 C2540 C 0.22538 0.13782 0.75905
 C2541 C 0.24095 0.14453 0.73460
 C2542 C 0.24715 0.12614 0.71261
 C2543 C 0.24919 0.16982 0.73187
 C2544 C 0.24161 0.18893 0.75296
 C2545 C 0.22793 0.18138 0.77834
 C2546 C 0.21963 0.15618 0.78123
 H2547 H 0.20217 0.10865 0.77852
 H2548 H 0.25933 0.13089 0.69385
 H2549 H 0.26024 0.17483 0.71235
 H2550 H 0.20824 0.15122 0.80054
 H2551 H 0.24187 0.08804 0.69654
 H2552 H 0.22315 0.19497 0.79582
 C2553 C 0.32739 0.10108 0.26447
 C2554 C 0.31170 0.08571 0.24773
 C2555 C 0.29158 0.09746 0.23146
 C2556 C 0.28667 0.12448 0.23275
 C2557 C 0.30266 0.13977 0.24964
 C2558 C 0.32310 0.12791 0.26519
 C2559 C 0.29743 0.16656 0.25170
 C2560 C 0.27546 0.17845 0.23861
 C2561 C 0.25999 0.16310 0.22130
 C2562 C 0.26570 0.13646 0.21816
 H2563 H 0.27943 0.08555 0.21858
 H2564 H 0.33543 0.13934 0.27841
 H2565 H 0.30975 0.17781 0.26505
 H2566 H 0.25320 0.12512 0.20508
 H2567 H 0.34303 0.09221 0.27702
 H2568 H 0.24303 0.17146 0.21066
 C2569 C 0.83321 0.63333 0.73632
 C2570 C 0.81482 0.61732 0.72479
 C2571 C 0.79215 0.62845 0.71269
 C2572 C 0.78755 0.65546 0.71289
 C2573 C 0.80562 0.67133 0.72579
 C2574 C 0.82860 0.66013 0.73698
 C2575 C 0.79986 0.69797 0.72875
 C2576 C 0.77624 0.70933 0.71893
 C2577 C 0.75919 0.69345 0.70442
 C2578 C 0.76475 0.66683 0.70154
 H2579 H 0.77797 0.61607 0.70375
 H2580 H 0.84269 0.67203 0.74688
 H2581 H 0.81293 0.70928 0.74100
 H2582 H 0.75075 0.65502 0.69134
 H2583 H 0.85072 0.62497 0.74589
 H2584 H 0.74079 0.70124 0.69656
 C2585 C 0.86400 0.72042 0.17531
 C2586 C 0.87760 0.74237 0.18347
 C2587 C 0.86456 0.76046 0.20296
 C2588 C 0.83916 0.75675 0.21350
 C2589 C 0.82597 0.73529 0.20384
 C2590 C 0.83862 0.71718 0.18505
 C2591 C 0.80012 0.73239 0.21265
 C2592 C 0.78700 0.75035 0.23177
 C2593 C 0.80097 0.77078 0.24285
 C2594 C 0.82659 0.77419 0.23344
 H2595 H 0.87429 0.77692 0.21117
 H2596 H 0.82870 0.70057 0.17742
 H2597 H 0.79020 0.71625 0.20390
 H2598 H 0.83641 0.79073 0.24138
 H2599 H 0.87193 0.70634 0.15954
 H2600 H 0.79184 0.78519 0.25735
 C2601 C 0.40523 0.25560 0.72948
 C2602 C 0.40892 0.25657 0.69885
 C2603 C 0.38731 0.25772 0.68085
 C2604 C 0.36224 0.25716 0.69305
 C2605 C 0.35845 0.25522 0.72381
 C2606 C 0.38014 0.25476 0.74190
 C2607 C 0.33314 0.25356 0.73571
 C2608 C 0.31164 0.25437 0.71716
 C2609 C 0.31603 0.25683 0.68660
 C2610 C 0.34096 0.25813 0.67475
 H2611 H 0.39009 0.25885 0.65720
 H2612 H 0.37771 0.25348 0.76555
 H2613 H 0.33022 0.25168 0.75923
 H2614 H 0.34360 0.25970 0.65114
 H2615 H 0.42178 0.25474 0.74366
 H2616 H 0.30024 0.25754 0.67142
 C2617 C 0.38579 0.72845 0.84708
 C2618 C 0.40290 0.74326 0.83034
 C2619 C 0.39425 0.75414 0.80365
 C2620 C 0.36871 0.75103 0.79458
 C2621 C 0.35155 0.73734 0.81263
 C2622 C 0.36037 0.72580 0.83853
 C2623 C 0.32569 0.73560 0.80480
 C2624 C 0.31652 0.74656 0.77845
 C2625 C 0.33402 0.75929 0.75998
 C2626 C 0.35980 0.76170 0.76810
 H2627 H 0.40702 0.76558 0.79035
 H2628 H 0.34755 0.71478 0.85231
 H2629 H 0.31271 0.72558 0.81941
 H2630 H 0.37269 0.77213 0.75379
 H2631 H 0.39198 0.71886 0.86702
 H2632 H 0.32768 0.76800 0.73960
 C2633 C 0.88400 0.22995 0.33635
 C2634 C 0.90144 0.24425 0.31946
 C2635 C 0.89418 0.25220 0.29090
 C2636 C 0.86932 0.24724 0.28050
 C2637 C 0.85164 0.23484 0.29911
 C2638 C 0.85933 0.22574 0.32657
 C2639 C 0.82620 0.23214 0.29051
 C2640 C 0.81777 0.24012 0.26255
 C2641 C 0.83590 0.25122 0.24335
 C2642 C 0.86136 0.25496 0.25233
 H2643 H 0.90737 0.26285 0.27723
 H2644 H 0.84614 0.21543 0.34066
 H2645 H 0.81287 0.22378 0.30613
 H2646 H 0.87462 0.26437 0.23749
 H2647 H 0.88923 0.22209 0.35753
 H2648 H 0.83010 0.25809 0.22191
 C2649 C 0.12623 0.27997 0.32573
 C2650 C 0.10833 0.26619 0.31001
 C2651 C 0.11694 0.25286 0.28420
 C2652 C 0.14323 0.25263 0.27496
 C2653 C 0.16100 0.26577 0.29177
 C2654 C 0.15224 0.27979 0.31672
 C2655 C 0.18747 0.26394 0.28415
 C2656 C 0.19690 0.24939 0.25956
 C2657 C 0.17890 0.23727 0.24219
 C2658 C 0.15234 0.23885 0.24982
 H2659 H 0.10333 0.24233 0.27170
 H2660 H 0.16566 0.29006 0.32977
 H2661 H 0.20081 0.27330 0.29818
 H2662 H 0.13902 0.22873 0.23650
 H2663 H 0.12035 0.29009 0.34583
 H2664 H 0.18538 0.22577 0.22328
 C2665 C 0.62321 0.78576 0.81963
 C2666 C 0.60697 0.77116 0.80274
 C2667 C 0.61615 0.76082 0.77560
 C2668 C 0.64177 0.76470 0.76578
 C2669 C 0.65825 0.77832 0.78383
 C2670 C 0.64870 0.78916 0.81039
 C2671 C 0.68429 0.78033 0.77559
 C2672 C 0.69441 0.77003 0.74873
 C2673 C 0.67754 0.75756 0.73019
 C2674 C 0.65152 0.75473 0.73875
 H2675 H 0.60358 0.74951 0.76256
 H2676 H 0.66111 0.79986 0.82430
 H2677 H 0.69678 0.78986 0.79049
 H2678 H 0.63915 0.74440 0.72445
 H2679 H 0.61640 0.79369 0.84063
 H2680 H 0.68461 0.74921 0.70952
 C2681 C 0.63388 0.27286 0.67631
 C2682 C 0.61587 0.25807 0.69160
 C2683 C 0.62255 0.24713 0.71889
 C2684 C 0.64731 0.25031 0.73019
 C2685 C 0.66528 0.26470 0.71409
 C2686 C 0.65834 0.27607 0.68738
 C2687 C 0.69017 0.26724 0.72454
 C2688 C 0.69798 0.25554 0.75105
 C2689 C 0.67971 0.24185 0.76742
 C2690 C 0.65466 0.23916 0.75703
 H2691 H 0.60883 0.23569 0.73086
 H2692 H 0.67191 0.28732 0.67489
 H2693 H 0.70366 0.27795 0.71132
 H2694 H 0.64114 0.22813 0.76982
 H2695 H 0.62901 0.28206 0.65568
 H2696 H 0.68465 0.23279 0.78793
 C2697 C 0.10202 0.74098 0.16435
 C2698 C 0.08264 0.75167 0.18358
 C2699 C 0.08873 0.75657 0.21304
 C2700 C 0.11436 0.75187 0.22260
 C2701 C 0.13361 0.74189 0.20250
 C2702 C 0.12719 0.73612 0.17368
 C2703 C 0.15926 0.73828 0.21111
 C2704 C 0.16666 0.74454 0.23973
 C2705 C 0.14732 0.75373 0.26001
 C2706 C 0.12137 0.75735 0.25152
 H2707 H 0.07384 0.76464 0.22809
 H2708 H 0.14176 0.72815 0.15817
 H2709 H 0.17349 0.73073 0.19503
 H2710 H 0.10692 0.76490 0.26739
 H2711 H 0.09765 0.73641 0.14184
 H2712 H 0.15231 0.75862 0.28222
   
