data_POSCAR
  _audit_creation_date              2014-09-24
  _audit_creation_method            'ToBaCCo'
  _symmetry_space_group_name_H-M    'P1'
  _symmetry_Int_Tables_number       1
  _symmetry_cell_setting            triclinic
  loop_
  _symmetry_equiv_pos_as_xyz
 x,y,z
_cell_length_a 54.5254
_cell_length_b 53.2238
_cell_length_c 55.9830
_cell_angle_alpha 89.942200
_cell_angle_beta 90.111200
_cell_angle_gamma 90.292000
loop_
  _atom_site_label
  _atom_site_type_symbol
  _atom_site_fract_x
  _atom_site_fract_y
  _atom_site_fract_z
O1 O 0.31799 0.36238 0.02442
 O2 O 0.36246 0.33955 -0.01986
 O3 O 0.32329 0.36745 -0.02116
 O4 O 0.35745 0.33541 0.02615
 O5 O 0.33536 0.30100 0.02059
 O6 O 0.30072 0.33353 -0.02730
 O7 O 0.33990 0.30547 -0.02539
 O8 O 0.29517 0.32854 0.01855
 Cu9 Cu 0.34259 0.35456 0.00292
 Cu10 Cu 0.31552 0.31367 -0.00387
 C11 C 0.29879 0.34955 0.02870
 C12 C 0.35886 0.31853 -0.03002
 C13 C 0.30596 0.35629 -0.03210
 C14 C 0.35252 0.31276 0.03129
 O15 O 0.66459 0.62918 0.01814
 O16 O 0.64066 0.67410 -0.02593
 O17 O 0.67411 0.63919 -0.02628
 O18 O 0.63117 0.66364 0.01845
 O19 O 0.65874 0.69173 0.02989
 O20 O 0.70208 0.66668 -0.01457
 O21 O 0.66829 0.70211 -0.01450
 O22 O 0.69220 0.65715 0.02976
 Cu23 Cu 0.64986 0.64878 -0.00516
 Cu24 Cu 0.68315 0.68230 0.00864
 C25 C 0.68245 0.63549 0.03144
 C26 C 0.65013 0.69589 -0.02746
 C27 C 0.69563 0.64832 -0.02768
 C28 C 0.63760 0.68178 0.03179
 O29 O 0.68513 0.34565 0.97952
 O30 O 0.64932 0.31109 1.02441
 O31 O 0.68338 0.34552 1.02591
 O32 O 0.65062 0.31209 0.97824
 O33 O 0.67844 0.28209 0.97878
 O34 O 0.71181 0.31617 1.02657
 O35 O 0.67741 0.28136 1.02524
 O36 O 0.71337 0.31606 0.98004
 Cu37 Cu 0.66435 0.33158 1.00202
 Cu38 Cu 0.69811 0.29594 1.00277
 C39 C 0.70530 0.33677 0.97208
 C40 C 0.65708 0.29018 1.03226
 C41 C 0.70327 0.33681 1.03428
 C42 C 0.65876 0.29136 0.97044
 O43 O 0.36982 0.67355 1.02414
 O44 O 0.34559 0.63244 0.97663
 O45 O 0.37658 0.66928 0.97840
 O46 O 0.34087 0.63475 1.02274
 O47 O 0.30909 0.65955 1.01682
 O48 O 0.34614 0.69591 0.97284
 O49 O 0.31498 0.65879 0.97078
 O50 O 0.33863 0.69928 1.01880
 Cu51 Cu 0.36128 0.64996 1.00112
 Cu52 Cu 0.32408 0.68107 0.99444
 C53 C 0.35841 0.69356 1.02938
 C54 C 0.32624 0.63874 0.96551
 C55 C 0.36767 0.68830 0.96800
 C56 C 0.31885 0.64066 1.02704
 O57 O -0.01746 0.36385 0.33523
 O58 O 0.03554 0.33093 0.35953
 O59 O 0.02957 0.36544 0.32740
 O60 O -0.01168 0.32705 0.36500
 O61 O -0.01654 0.30016 0.33534
 O62 O 0.02798 0.33618 0.29950
 O63 O 0.03102 0.30089 0.33262
 O64 O -0.01957 0.33721 0.30505
 Cu65 Cu 0.00931 0.34963 0.34963
 Cu66 Cu 0.00555 0.31580 0.31515
 C67 C -0.02733 0.35656 0.31595
 C68 C 0.04186 0.31002 0.35083
 C69 C 0.03596 0.35716 0.30705
 C70 C -0.02141 0.30719 0.35644
 O71 O -0.03095 0.64825 0.68848
 O72 O 0.01482 0.67018 0.64523
 O73 O 0.01568 0.64180 0.68307
 O74 O -0.03179 0.67760 0.65122
 O75 O -0.02453 0.71034 0.67437
 O76 O 0.02428 0.67494 0.70532
 O77 O 0.02222 0.70359 0.66754
 O78 O -0.02243 0.68045 0.71198
 Cu79 Cu -0.00888 0.65621 0.66470
 Cu80 Cu 0.00057 0.69572 0.69207
 C81 C -0.03406 0.66017 0.70784
 C82 C 0.02615 0.69069 0.64886
 C83 C 0.02799 0.65218 0.69969
 C84 C -0.03618 0.70016 0.65722
 O85 O 1.01909 0.63969 0.32745
 O86 O 0.97197 0.67532 0.35891
 O87 O 0.97140 0.64104 0.32540
 O88 O 1.01909 0.67430 0.35988
 O89 O 1.02077 0.70381 0.33218
 O90 O 0.97304 0.67040 0.29756
 O91 O 0.97327 0.70493 0.33129
 O92 O 1.02091 0.66885 0.29939
 Cu93 Cu 0.99509 0.65456 0.34558
 Cu94 Cu 0.99706 0.68989 0.31221
 C95 C 1.02816 0.64815 0.30822
 C96 C 0.96513 0.69650 0.35100
 C97 C 0.96424 0.64991 0.30550
 C98 C 1.02789 0.69490 0.35207
 O99 O 1.02450 0.37447 0.65716
 O100 O 0.97368 0.33572 0.63410
 O101 O 0.97717 0.37340 0.66307
 O102 O 1.02034 0.33852 0.62619
 O103 O 1.02552 0.31062 0.65496
 O104 O 0.98272 0.34714 0.69315
 O105 O 0.97890 0.30883 0.66374
 O106 O 1.03021 0.34704 0.68624
 Cu107 Cu 0.99837 0.35828 0.64226
 Cu108 Cu 1.00491 0.32575 0.67757
 C109 C 1.03607 0.36725 0.67560
 C110 C 0.96784 0.31554 0.64488
 C111 C 0.97256 0.36651 0.68425
 C112 C 1.02999 0.31848 0.63389
 O113 O 0.36979 0.02829 0.34352
 O114 O 0.33901 -0.02115 0.37787
 O115 O 0.37482 -0.02007 0.34762
 O116 O 0.33327 0.02693 0.37315
 O117 O 0.30750 0.02129 0.34314
 O118 O 0.34871 -0.02670 0.31804
 O119 O 0.31252 -0.02705 0.34846
 O120 O 0.34471 0.02172 0.31309
 Cu121 Cu 0.35681 0.00418 0.36349
 Cu122 Cu 0.32571 -0.00320 0.32764
 C123 C 0.36288 0.03318 0.32240
 C124 C 0.32050 -0.03242 0.36919
 C125 C 0.36881 -0.03149 0.32858
 C126 C 0.31325 0.03203 0.36261
 O127 O 0.66775 -0.02239 0.62921
 O128 O 0.62531 0.02110 0.65844
 O129 O 0.65685 0.02471 0.62385
 O130 O 0.63625 -0.02609 0.66355
 O131 O 0.66487 -0.01591 0.68983
 O132 O 0.68593 0.03492 0.64965
 O133 O 0.65407 0.03140 0.68454
 O134 O 0.69676 -0.01242 0.65515
 Cu135 Cu 0.64365 -0.00166 0.64117
 Cu136 Cu 0.67832 0.01058 0.67241
 C137 C 0.68944 -0.02489 0.63715
 C138 C 0.63236 0.03355 0.67652
 C139 C 0.67499 0.03834 0.62984
 C140 C 0.64696 -0.02970 0.68342
 O141 O 0.34484 1.02042 0.62422
 O142 O 0.37648 0.97506 0.66284
 O143 O 0.34643 0.97162 0.62668
 O144 O 0.37629 1.02332 0.65867
 O145 O 0.34630 1.02375 0.68516
 O146 O 0.31459 0.97342 0.65094
 O147 O 0.34501 0.97485 0.68761
 O148 O 0.31445 1.02227 0.65019
 Cu149 Cu 0.36404 0.99737 0.64053
 Cu150 Cu 0.32695 0.99858 0.67105
 C151 C 0.32435 1.02927 0.63077
 C152 C 0.36630 0.96747 0.68195
 C153 C 0.32530 0.96407 0.63286
 C154 C 0.36672 1.03214 0.67747
 O155 O 0.62698 0.98112 0.34754
 O156 O 0.66419 1.03276 0.37186
 O157 O 0.62784 1.02953 0.34241
 O158 O 0.66272 0.98431 0.37794
 O159 O 0.68950 0.97997 0.34869
 O160 O 0.65358 1.02511 0.31229
 O161 O 0.69066 1.02871 0.34237
 O162 O 0.65339 0.97661 0.31799
 Cu163 Cu 0.64287 1.00736 0.36292
 Cu164 Cu 0.67451 1.00222 0.32736
 C165 C 0.63376 0.97014 0.32857
 C166 C 0.68372 1.03965 0.36132
 C167 C 0.63446 1.03486 0.32131
 C168 C 0.68194 0.97439 0.36953
 C169 C 0.86636 0.79302 0.52664
 C170 C 0.87629 0.78336 0.50554
 C171 C 0.86964 0.79260 0.48299
 C172 C 0.85223 0.81217 0.48140
 C173 C 0.84180 0.82215 0.50258
 C174 C 0.84894 0.81260 0.52527
 C175 C 0.83782 0.82231 0.54590
 C176 C 0.82017 0.84103 0.54439
 C177 C 0.81297 0.85093 0.52219
 C178 C 0.82391 0.84146 0.50105
 C179 C 0.84510 0.82221 0.45920
 C180 C 0.82756 0.84103 0.45770
 C181 C 0.81664 0.85088 0.47835
 C182 C 0.79820 0.86945 0.47691
 C183 C 0.78769 0.87853 0.49796
 C184 C 0.79456 0.86949 0.52047
 H185 H 0.84227 0.81521 0.56348
 H186 H 0.81198 0.84734 0.56089
 H187 H 0.85299 0.81568 0.44265
 H188 H 0.82252 0.84757 0.44008
 H189 H 0.88935 0.76815 0.50675
 H190 H 0.77415 0.89334 0.49684
 C191 C 0.11904 0.19278 0.52256
 C192 C 0.10951 0.20023 0.50042
 C193 C 0.11936 0.19158 0.47885
 C194 C 0.13943 0.17483 0.47932
 C195 C 0.14915 0.16680 0.50159
 C196 C 0.13882 0.17566 0.52327
 C197 C 0.14919 0.16791 0.54506
 C198 C 0.16912 0.15172 0.54563
 C199 C 0.17966 0.14272 0.52442
 C200 C 0.16972 0.15046 0.50216
 C201 C 0.15066 0.16664 0.45812
 C202 C 0.17087 0.15084 0.45868
 C203 C 0.18068 0.14243 0.48047
 C204 C 0.20165 0.12690 0.48119
 C205 C 0.21084 0.11909 0.50331
 C206 C 0.20038 0.12684 0.52487
 H207 H 0.14231 0.17455 0.56200
 H208 H 0.17648 0.14682 0.56296
 H209 H 0.14434 0.17277 0.44076
 H210 H 0.17893 0.14564 0.44177
 H211 H 0.09389 0.21275 0.49998
 H212 H 0.22618 0.10621 0.50372
 C213 C 0.12627 0.79213 0.48033
 C214 C 0.11700 0.78500 0.50266
 C215 C 0.12595 0.79539 0.52394
 C216 C 0.14473 0.81380 0.52302
 C217 C 0.15407 0.82167 0.50056
 C218 C 0.14482 0.81083 0.47915
 C219 C 0.15488 0.81848 0.45720
 C220 C 0.17328 0.83665 0.45620
 C221 C 0.18252 0.84785 0.47711
 C222 C 0.17304 0.84011 0.49955
 C223 C 0.15492 0.82402 0.54399
 C224 C 0.17355 0.84191 0.54300
 C225 C 0.18277 0.85043 0.52101
 C226 C 0.20197 0.86840 0.51991
 C227 C 0.21076 0.87607 0.49756
 C228 C 0.20152 0.86602 0.47624
 H229 H 0.14895 0.81028 0.44049
 H230 H 0.18045 0.84145 0.43878
 H231 H 0.14899 0.81799 0.56150
 H232 H 0.18085 0.84868 0.55979
 H233 H 0.10197 0.77161 0.50346
 H234 H 0.22466 0.89068 0.49671
 C235 C 0.78020 0.15482 0.47443
 C236 C 0.77004 0.14658 0.49606
 C237 C 0.77810 0.15586 0.51811
 C238 C 0.79666 0.17453 0.51856
 C239 C 0.80789 0.18239 0.49688
 C240 C 0.79994 0.17219 0.47475
 C241 C 0.81174 0.17989 0.45362
 C242 C 0.83131 0.19686 0.45422
 C243 C 0.83930 0.20747 0.47587
 C244 C 0.82718 0.20044 0.49737
 C245 C 0.80410 0.18577 0.54012
 C246 C 0.82259 0.20380 0.54054
 C247 C 0.83447 0.21126 0.51944
 C248 C 0.85377 0.22893 0.51993
 C249 C 0.86583 0.23528 0.49881
 C250 C 0.85931 0.22459 0.47681
 H251 H 0.80613 0.17270 0.43638
 H252 H 0.84003 0.20159 0.43746
 H253 H 0.79549 0.18107 0.55693
 H254 H 0.82766 0.21163 0.55770
 H255 H 0.75622 0.13188 0.49564
 H256 H 0.88024 0.24938 0.49953
 C257 C 0.52657 0.79151 0.86182
 C258 C 0.50363 0.78667 0.87204
 C259 C 0.48221 0.79790 0.86331
 C260 C 0.48381 0.81501 0.84399
 C261 C 0.50699 0.82022 0.83349
 C262 C 0.52843 0.80843 0.84244
 C263 C 0.55123 0.81417 0.83201
 C264 C 0.55296 0.83082 0.81292
 C265 C 0.53199 0.84246 0.80353
 C266 C 0.50873 0.83704 0.81382
 C267 C 0.46281 0.82658 0.83448
 C268 C 0.46449 0.84299 0.81517
 C269 C 0.48721 0.84834 0.80443
 C270 C 0.48909 0.86496 0.78478
 C271 C 0.51213 0.86969 0.77469
 C272 C 0.53354 0.85891 0.78376
 H273 H 0.56805 0.80595 0.83857
 H274 H 0.57096 0.83427 0.80546
 H275 H 0.44477 0.82297 0.84176
 H276 H 0.44772 0.85148 0.80882
 H277 H 0.50235 0.77355 0.88682
 H278 H 0.51350 0.88214 0.75942
 C279 C 0.51968 0.11798 0.19284
 C280 C 0.49731 0.10861 0.20135
 C281 C 0.47478 0.11704 0.19249
 C282 C 0.47446 0.13467 0.17357
 C283 C 0.49695 0.14415 0.16438
 C284 C 0.51963 0.13582 0.17408
 C285 C 0.54157 0.14624 0.16534
 C286 C 0.54137 0.16437 0.14744
 C287 C 0.51921 0.17279 0.13741
 C288 C 0.49675 0.16262 0.14598
 C289 C 0.45228 0.14373 0.16419
 C290 C 0.45208 0.16168 0.14611
 C291 C 0.47406 0.17138 0.13669
 C292 C 0.47396 0.19023 0.11883
 C293 C 0.49632 0.19981 0.11046
 C294 C 0.51885 0.19172 0.11963
 H295 H 0.55920 0.14084 0.17254
 H296 H 0.55888 0.17198 0.14189
 H297 H 0.43475 0.13732 0.17093
 H298 H 0.43440 0.16816 0.13995
 H299 H 0.49739 0.09431 0.21516
 H300 H 0.49622 0.21356 0.09616
 C301 C 0.51977 0.13236 0.79466
 C302 C 0.49693 0.12371 0.78656
 C303 C 0.47491 0.13251 0.79619
 C304 C 0.47563 0.15038 0.81488
 C305 C 0.49861 0.15928 0.82349
 C306 C 0.52074 0.15029 0.81333
 C307 C 0.54321 0.16003 0.82163
 C308 C 0.54402 0.17784 0.83977
 C309 C 0.52241 0.18674 0.85039
 C310 C 0.49944 0.17755 0.84203
 C311 C 0.45399 0.16018 0.82466
 C312 C 0.45480 0.17809 0.84272
 C313 C 0.47730 0.18690 0.85187
 C314 C 0.47825 0.20531 0.87011
 C315 C 0.50109 0.21390 0.87827
 C316 C 0.52312 0.20513 0.86864
 H317 H 0.56049 0.15437 0.81394
 H318 H 0.56188 0.18484 0.84506
 H319 H 0.43612 0.15445 0.81821
 H320 H 0.43748 0.18520 0.84909
 H321 H 0.49624 0.10928 0.77292
 H322 H 0.50176 0.22714 0.89296
 C323 C 0.52431 0.78534 0.14517
 C324 C 0.50187 0.77591 0.13678
 C325 C 0.47957 0.78293 0.14700
 C326 C 0.47939 0.80040 0.16597
 C327 C 0.50186 0.81068 0.17438
 C328 C 0.52441 0.80293 0.16414
 C329 C 0.54646 0.81253 0.17354
 C330 C 0.54641 0.82993 0.19205
 C331 C 0.52429 0.83863 0.20184
 C332 C 0.50178 0.82870 0.19313
 C333 C 0.45731 0.80823 0.17640
 C334 C 0.45720 0.82598 0.19463
 C335 C 0.47918 0.83673 0.20309
 C336 C 0.47921 0.85501 0.22145
 C337 C 0.50163 0.86463 0.22971
 C338 C 0.52410 0.85662 0.22043
 H339 H 0.56409 0.80649 0.16692
 H340 H 0.56401 0.83629 0.19868
 H341 H 0.43981 0.80084 0.17045
 H342 H 0.43963 0.83098 0.20211
 H343 H 0.50170 0.76275 0.12201
 H344 H 0.50160 0.87950 0.24292
 C345 C 0.79439 0.47265 0.87100
 C346 C 0.78315 0.49495 0.87842
 C347 C 0.78991 0.51828 0.86901
 C348 C 0.80886 0.51967 0.85190
 C349 C 0.82108 0.49742 0.84472
 C350 C 0.81382 0.47380 0.85426
 C351 C 0.82577 0.45200 0.84631
 C352 C 0.84478 0.45336 0.82974
 C353 C 0.85263 0.47658 0.82041
 C354 C 0.84044 0.49881 0.82778
 C355 C 0.81627 0.54284 0.84222
 C356 C 0.83510 0.54419 0.82559
 C357 C 0.84733 0.52243 0.81802
 C358 C 0.86662 0.52380 0.80130
 C359 C 0.87886 0.50189 0.79468
 C360 C 0.87185 0.47820 0.80343
 H361 H 0.82045 0.43357 0.85267
 H362 H 0.85310 0.43591 0.82422
 H363 H 0.80774 0.56026 0.84756
 H364 H 0.84018 0.56260 0.81899
 H365 H 0.76857 0.49414 0.89155
 H366 H 0.89377 0.50331 0.78197
 C367 C 0.12981 0.53345 0.19815
 C368 C 0.12225 0.51161 0.21007
 C369 C 0.13101 0.48784 0.20377
 C370 C 0.14783 0.48575 0.18461
 C371 C 0.15547 0.50769 0.17208
 C372 C 0.14642 0.53160 0.17888
 C373 C 0.15476 0.55308 0.16664
 C374 C 0.17128 0.55117 0.14783
 C375 C 0.18019 0.52770 0.14045
 C376 C 0.17244 0.50576 0.15290
 C377 C 0.15763 0.46241 0.17794
 C378 C 0.17427 0.46053 0.15923
 C379 C 0.18197 0.48193 0.14652
 C380 C 0.19872 0.48007 0.12739
 C381 C 0.20564 0.50175 0.11491
 C382 C 0.19722 0.52562 0.12146
 H383 H 0.14885 0.57171 0.17164
 H384 H 0.17714 0.56845 0.13937
 H385 H 0.15278 0.44528 0.18723
 H386 H 0.18096 0.44201 0.15477
 H387 H 0.10862 0.51313 0.22405
 H388 H 0.21840 0.50001 0.10019
 C389 C 0.86543 0.47164 0.20720
 C390 C 0.87356 0.49452 0.21676
 C391 C 0.86407 0.51757 0.20914
 C392 C 0.84629 0.51786 0.19067
 C393 C 0.83799 0.49483 0.18054
 C394 C 0.84754 0.47166 0.18891
 C395 C 0.83843 0.44909 0.17925
 C396 C 0.82047 0.44918 0.16159
 C397 C 0.81097 0.47185 0.15271
 C398 C 0.81976 0.49493 0.16233
 C399 C 0.83603 0.54047 0.18252
 C400 C 0.81833 0.54058 0.16459
 C401 C 0.81005 0.51808 0.15409
 C402 C 0.79183 0.51806 0.13604
 C403 C 0.78351 0.49513 0.12673
 C404 C 0.79244 0.47207 0.13496
 H405 H 0.84478 0.43102 0.18552
 H406 H 0.81393 0.43118 0.15523
 H407 H 0.84130 0.55838 0.19012
 H408 H 0.81091 0.55859 0.15942
 H409 H 0.88803 0.49442 0.23007
 H410 H 0.77028 0.49523 0.11225
 C411 C 0.14744 0.47677 0.78308
 C412 C 0.13703 0.49880 0.77406
 C413 C 0.14377 0.52260 0.78254
 C414 C 0.16247 0.52455 0.80003
 C415 C 0.17305 0.50234 0.80966
 C416 C 0.16525 0.47837 0.80139
 C417 C 0.17576 0.45669 0.81138
 C418 C 0.19325 0.45839 0.82943
 C419 C 0.20146 0.48185 0.83779
 C420 C 0.19136 0.50408 0.82773
 C421 C 0.17058 0.54801 0.80851
 C422 C 0.18889 0.54973 0.82580
 C423 C 0.19939 0.52805 0.83581
 C424 C 0.21799 0.52963 0.85340
 C425 C 0.22740 0.50753 0.86330
 C426 C 0.21913 0.48373 0.85624
 H427 H 0.17061 0.43809 0.80539
 H428 H 0.20030 0.44102 0.83667
 H429 H 0.16293 0.56536 0.80183
 H430 H 0.19467 0.56834 0.83122
 H431 H 0.12311 0.49736 0.76028
 H432 H 0.24133 0.50891 0.87708
 C433 C 0.27986 0.35966 0.04463
 C434 C 0.28444 0.38039 0.05920
 C435 C 0.26474 0.39502 0.07064
 C436 C 0.26988 0.40838 0.09165
 C437 C 0.25257 0.42478 0.10127
 C438 C 0.22996 0.42848 0.08971
 C439 C 0.22469 0.41488 0.06887
 C440 C 0.24180 0.39809 0.05952
 C441 C 0.21296 0.44839 0.09745
 C442 C 0.21094 0.45619 0.12111
 H443 H 0.30319 0.38672 0.06172
 H444 H 0.28758 0.40657 0.10030
 H445 H 0.25745 0.43549 0.11702
 H446 H 0.20753 0.41773 0.05949
 H447 H 0.23753 0.38856 0.04294
 H448 H 0.20220 0.45787 0.08390
 H449 H 0.26165 0.35148 0.04391
 H450 H 0.21934 0.44527 0.13523
 C451 C 0.69189 0.61715 0.04874
 C452 C 0.71292 0.62172 0.06234
 C453 C 0.72381 0.60259 0.07827
 C454 C 0.74908 0.60347 0.08293
 C455 C 0.76024 0.58489 0.09681
 C456 C 0.74617 0.56517 0.10663
 C457 C 0.72073 0.56491 0.10266
 C458 C 0.70963 0.58340 0.08871
 C459 C 0.75707 0.54393 0.12005
 C460 C 0.78193 0.54163 0.12572
 H461 H 0.72284 0.63921 0.05980
 H462 H 0.76035 0.61821 0.07524
 H463 H 0.77985 0.58597 0.09926
 H464 H 0.70939 0.55010 0.11015
 H465 H 0.68997 0.58260 0.08621
 H466 H 0.74485 0.52877 0.12528
 H467 H 0.68271 0.59911 0.04971
 H468 H 0.79455 0.55689 0.12235
 C469 C 0.71971 0.35080 0.95426
 C470 C 0.71000 0.37177 0.94273
 C471 C 0.72392 0.38812 0.92615
 C472 C 0.71074 0.40397 0.91086
 C473 C 0.72291 0.42135 0.89640
 C474 C 0.74856 0.42349 0.89701
 C475 C 0.76192 0.40724 0.91198
 C476 C 0.74970 0.38969 0.92640
 C477 C 0.76007 0.44418 0.88322
 C478 C 0.78527 0.44865 0.88127
 H479 H 0.69096 0.37647 0.94589
 H480 H 0.69089 0.40323 0.91040
 H481 H 0.71212 0.43366 0.88515
 H482 H 0.78165 0.40846 0.91332
 H483 H 0.76046 0.37820 0.93838
 H484 H 0.74783 0.45752 0.87479
 H485 H 0.73800 0.34434 0.95013
 H486 H 0.79839 0.43500 0.88752
 C487 C 0.31687 0.62242 0.94637
 C488 C 0.29521 0.62781 0.93408
 C489 C 0.28462 0.61097 0.91572
 C490 C 0.25924 0.61142 0.91158
 C491 C 0.24837 0.59470 0.89542
 C492 C 0.26285 0.57737 0.88281
 C493 C 0.28837 0.57779 0.88620
 C494 C 0.29918 0.59440 0.90242
 C495 C 0.25228 0.55734 0.86752
 C496 C 0.22729 0.55391 0.86288
 H497 H 0.28469 0.64414 0.93925
 H498 H 0.24767 0.62423 0.92143
 H499 H 0.22867 0.59510 0.89349
 H500 H 0.30000 0.56479 0.87663
 H501 H 0.31890 0.59413 0.90448
 H502 H 0.26481 0.54323 0.86085
 H503 H 0.32688 0.60538 0.94260
 H504 H 0.21419 0.56829 0.86733
 C505 C 0.06153 0.29642 0.36295
 C506 C 0.05892 0.27115 0.36903
 C507 C 0.07212 0.25953 0.38944
 C508 C 0.07179 0.23329 0.39202
 C509 C 0.08214 0.22186 0.41219
 C510 C 0.09302 0.23659 0.43027
 C511 C 0.09339 0.26276 0.42761
 C512 C 0.08306 0.27414 0.40756
 C513 C 0.10328 0.22585 0.45256
 C514 C 0.10840 0.20047 0.45611
 H515 H 0.04489 0.26012 0.36008
 H516 H 0.06310 0.22160 0.37859
 H517 H 0.08094 0.20166 0.41371
 H518 H 0.10137 0.27458 0.44136
 H519 H 0.08298 0.29441 0.40701
 H520 H 0.10803 0.23886 0.46675
 H521 H 0.07573 0.30774 0.37114
 H522 H 0.10564 0.18711 0.44184
 C523 C 0.04369 0.69942 0.63078
 C524 C 0.05436 0.72327 0.63154
 C525 C 0.06968 0.73317 0.61187
 C526 C 0.07024 0.75913 0.60765
 C527 C 0.08325 0.76898 0.58826
 C528 C 0.09633 0.75296 0.57292
 C529 C 0.09633 0.72706 0.57763
 C530 C 0.08327 0.71724 0.59695
 C531 C 0.10915 0.76215 0.55130
 C532 C 0.11463 0.78735 0.54678
 H533 H 0.04948 0.73591 0.64591
 H534 H 0.05995 0.77177 0.61895
 H535 H 0.08233 0.78897 0.58511
 H536 H 0.10635 0.71432 0.56620
 H537 H 0.08391 0.69720 0.60012
 H538 H 0.11491 0.74828 0.53832
 H539 H 0.04683 0.68727 0.61562
 H540 H 0.11105 0.80144 0.56017
 C541 C 0.94863 0.71204 0.36554
 C542 C 0.94502 0.70632 0.38963
 C543 C 0.93407 0.72379 0.40702
 C544 C 0.94206 0.72254 0.43080
 C545 C 0.93250 0.73869 0.44796
 C546 C 0.91424 0.75598 0.44185
 C547 C 0.90604 0.75726 0.41803
 C548 C 0.91598 0.74133 0.40069
 C549 C 0.90439 0.77222 0.46087
 C550 C 0.88014 0.78045 0.46144
 H551 H 0.95339 0.68949 0.39681
 H552 H 0.95600 0.70919 0.43609
 H553 H 0.93912 0.73740 0.46618
 H554 H 0.89225 0.77071 0.41272
 H555 H 0.90927 0.74251 0.38252
 H556 H 0.91614 0.77597 0.47609
 H557 H 0.94202 0.72956 0.35820
 H558 H 0.86818 0.77658 0.44644
 C559 C 0.94892 0.29897 0.63484
 C560 C 0.93409 0.30657 0.61594
 C561 C 0.92013 0.28855 0.60119
 C562 C 0.89894 0.29659 0.58928
 C563 C 0.88698 0.28072 0.57310
 C564 C 0.89640 0.25672 0.56826
 C565 C 0.91743 0.24861 0.58035
 C566 C 0.92911 0.26427 0.59684
 C567 C 0.88628 0.24099 0.54896
 C568 C 0.86176 0.24152 0.54210
 H569 H 0.93351 0.32627 0.61107
 H570 H 0.89196 0.31537 0.59211
 H571 H 0.87114 0.28773 0.56356
 H572 H 0.92517 0.23032 0.57660
 H573 H 0.94583 0.25779 0.60521
 H574 H 0.89871 0.22872 0.53945
 H575 H 0.94772 0.27989 0.64149
 H576 H 0.84836 0.25131 0.55283
 C577 C 0.37687 0.05201 0.30889
 C578 C 0.37673 0.05320 0.28398
 C579 C 0.39498 0.06802 0.27013
 C580 C 0.39082 0.07262 0.24574
 C581 C 0.40836 0.08531 0.23190
 C582 C 0.43052 0.09352 0.24228
 C583 C 0.43451 0.08912 0.26667
 C584 C 0.41715 0.07639 0.28039
 C585 C 0.45036 0.10613 0.22871
 C586 C 0.45207 0.10728 0.20384
 H587 H 0.36347 0.04197 0.27421
 H588 H 0.37400 0.06623 0.23733
 H589 H 0.40441 0.08854 0.21323
 H590 H 0.45148 0.09505 0.27510
 H591 H 0.42175 0.07258 0.29880
 H592 H 0.46547 0.11388 0.23901
 H593 H 0.38914 0.06384 0.31912
 H594 H 0.43730 0.10062 0.19260
 C595 C 0.61477 0.05042 0.68809
 C596 C 0.61956 0.06219 0.70987
 C597 C 0.60097 0.07750 0.72235
 C598 C 0.60157 0.07904 0.74736
 C599 C 0.58345 0.09220 0.75975
 C600 C 0.56451 0.10445 0.74723
 C601 C 0.56447 0.10356 0.72217
 C602 C 0.58251 0.09034 0.70984
 C603 C 0.54391 0.11737 0.75929
 C604 C 0.54224 0.12156 0.78387
 H605 H 0.63672 0.05842 0.71896
 H606 H 0.61572 0.06942 0.75739
 H607 H 0.58421 0.09213 0.77902
 H608 H 0.55026 0.11295 0.71204
 H609 H 0.58192 0.09030 0.69052
 H610 H 0.52899 0.12390 0.74810
 H611 H 0.59695 0.05234 0.67976
 H612 H 0.55739 0.11700 0.79550
 C613 C 0.37965 0.95074 0.69828
 C614 C 0.40487 0.94741 0.69592
 C615 C 0.42025 0.93525 0.71427
 C616 C 0.44472 0.94307 0.71646
 C617 C 0.46000 0.93236 0.73360
 C618 C 0.45133 0.91315 0.74855
 C619 C 0.42680 0.90514 0.74640
 C620 C 0.41133 0.91618 0.72940
 C621 C 0.46873 0.90191 0.76568
 C622 C 0.46742 0.87707 0.77365
 H623 H 0.41425 0.95662 0.68124
 H624 H 0.45200 0.95773 0.70500
 H625 H 0.47883 0.93882 0.73489
 H626 H 0.41946 0.89059 0.75789
 H627 H 0.39262 0.90950 0.72790
 H628 H 0.48498 0.91280 0.77005
 H629 H 0.37009 0.94337 0.71371
 H630 H 0.45136 0.86572 0.76996
 C631 C 0.61823 0.94994 0.31893
 C632 C 0.62253 0.93896 0.29671
 C633 C 0.60529 0.92069 0.28586
 C634 C 0.60340 0.91940 0.26090
 C635 C 0.58597 0.90372 0.25010
 C636 C 0.57030 0.88869 0.26417
 C637 C 0.57294 0.88929 0.28910
 C638 C 0.59028 0.90501 0.29986
 C639 C 0.55004 0.87349 0.25390
 C640 C 0.54688 0.86862 0.22958
 H641 H 0.63775 0.94569 0.28602
 H642 H 0.61487 0.93122 0.24974
 H643 H 0.58443 0.90417 0.23087
 H644 H 0.56125 0.87780 0.30036
 H645 H 0.59180 0.90486 0.31913
 H646 H 0.53648 0.86603 0.26619
 H647 H 0.60205 0.94483 0.32903
 H648 H 0.56096 0.87383 0.21695
 C649 C 0.37725 0.30920 0.95303
 C650 C 0.37582 0.28506 0.94337
 C651 C 0.39526 0.27401 0.92828
 C652 C 0.39716 0.24776 0.92702
 C653 C 0.41580 0.23653 0.91371
 C654 C 0.43277 0.25142 0.90104
 C655 C 0.43052 0.27767 0.90192
 C656 C 0.41193 0.28889 0.91528
 C657 C 0.45363 0.24058 0.88766
 C658 C 0.45581 0.21519 0.88173
 H659 H 0.36066 0.27300 0.94854
 H660 H 0.38452 0.23588 0.93683
 H661 H 0.41705 0.21629 0.91398
 H662 H 0.44328 0.28959 0.89229
 H663 H 0.41066 0.30915 0.91521
 H664 H 0.46799 0.25336 0.88192
 H665 H 0.39295 0.32110 0.94943
 H666 H 0.44095 0.20228 0.88540
 C667 C 0.63929 0.71461 0.95641
 C668 C 0.62115 0.70806 0.93994
 C669 C 0.60582 0.72676 0.92747
 C670 C 0.59501 0.72037 0.90554
 C671 C 0.57850 0.73666 0.89444
 C672 C 0.57218 0.75951 0.90536
 C673 C 0.58303 0.76594 0.92725
 C674 C 0.59986 0.74984 0.93815
 C675 C 0.55293 0.77586 0.89533
 C676 C 0.54797 0.77742 0.87095
 H677 H 0.61754 0.68835 0.93646
 H678 H 0.59903 0.70251 0.89719
 H679 H 0.56994 0.73084 0.87788
 H680 H 0.57817 0.78329 0.93613
 H681 H 0.60731 0.75501 0.95540
 H682 H 0.54240 0.78733 0.90753
 H683 H 0.64483 0.73406 0.95840
 H684 H 0.55996 0.76832 0.85828
 C685 C 0.36862 0.71096 0.04718
 C686 C 0.38750 0.70393 0.06254
 C687 C 0.40152 0.72231 0.07690
 C688 C 0.41217 0.71467 0.09852
 C689 C 0.42757 0.73097 0.11123
 C690 C 0.43296 0.75502 0.10219
 C691 C 0.42214 0.76272 0.08068
 C692 C 0.40635 0.74663 0.06824
 C693 C 0.45184 0.77116 0.11332
 C694 C 0.45697 0.77098 0.13770
 H695 H 0.39253 0.68429 0.06380
 H696 H 0.40896 0.69589 0.10533
 H697 H 0.43617 0.72427 0.12745
 H698 H 0.42636 0.78103 0.07322
 H699 H 0.39894 0.75283 0.05129
 H700 H 0.46269 0.78319 0.10176
 H701 H 0.36166 0.72998 0.04763
 H702 H 0.44481 0.76141 0.15001
 C703 C 0.64204 0.27553 0.04912
 C704 C 0.61970 0.28462 0.05755
 C705 C 0.60186 0.26954 0.07148
 C706 C 0.58315 0.28213 0.08367
 C707 C 0.56470 0.26871 0.09540
 C708 C 0.56441 0.24235 0.09516
 C709 C 0.58331 0.22963 0.08316
 C710 C 0.60186 0.24310 0.07146
 C711 C 0.54333 0.22922 0.10641
 C712 C 0.54163 0.20328 0.11000
 H713 H 0.61474 0.30383 0.05338
 H714 H 0.58259 0.30248 0.08381
 H715 H 0.55033 0.27903 0.10437
 H716 H 0.58358 0.20938 0.08202
 H717 H 0.61553 0.23267 0.06170
 H718 H 0.52813 0.24070 0.11227
 H719 H 0.64840 0.25709 0.05428
 H720 H 0.55702 0.19128 0.10615
 C721 C 0.31210 0.04766 0.61533
 C722 C 0.28858 0.05650 0.62014
 C723 C 0.27527 0.07323 0.60355
 C724 C 0.24958 0.07212 0.60274
 C725 C 0.23653 0.08634 0.58605
 C726 C 0.24903 0.10230 0.57004
 C727 C 0.27466 0.10417 0.57162
 C728 C 0.28768 0.08988 0.58822
 C729 C 0.23653 0.11585 0.55041
 C730 C 0.21114 0.11724 0.54743
 H731 H 0.27880 0.04923 0.63552
 H732 H 0.23963 0.05955 0.61452
 H733 H 0.21685 0.08406 0.58538
 H734 H 0.28475 0.11642 0.55964
 H735 H 0.30742 0.09187 0.58890
 H736 H 0.24803 0.12451 0.53691
 H737 H 0.32144 0.05325 0.59913
 H738 H 0.19889 0.11091 0.56135
 C739 C 0.69784 0.05923 0.37070
 C740 C 0.69004 0.07293 0.39055
 C741 C 0.70491 0.09240 0.40271
 C742 C 0.69280 0.10979 0.41723
 C743 C 0.70608 0.12674 0.43120
 C744 C 0.73181 0.12656 0.43122
 C745 C 0.74405 0.10967 0.41606
 C746 C 0.73069 0.09275 0.40190
 C747 C 0.74463 0.14251 0.44900
 C748 C 0.77002 0.14409 0.45206
 H749 H 0.67184 0.06942 0.39761
 H750 H 0.67296 0.10986 0.41822
 H751 H 0.69614 0.13946 0.44272
 H752 H 0.76383 0.10867 0.41567
 H753 H 0.74064 0.07925 0.39127
 H754 H 0.73328 0.15225 0.46186
 H755 H 0.71503 0.06394 0.36211
 H756 H 0.78244 0.13661 0.43889
 C757 C 0.70641 0.95780 0.62520
 C758 C 0.69841 0.94237 0.60656
 C759 C 0.71449 0.92609 0.59202
 C760 C 0.70336 0.90873 0.57653
 C761 C 0.71745 0.89438 0.56094
 C762 C 0.74304 0.89698 0.56047
 C763 C 0.75437 0.91399 0.57630
 C764 C 0.74022 0.92843 0.59193
 C765 C 0.75678 0.88325 0.54188
 C766 C 0.78218 0.88013 0.54172
 H767 H 0.67905 0.94236 0.60211
 H768 H 0.68359 0.90660 0.57613
 H769 H 0.70824 0.88155 0.54884
 H770 H 0.77399 0.91702 0.57606
 H771 H 0.74954 0.94196 0.60315
 H772 H 0.74631 0.87540 0.52716
 H773 H 0.72523 0.95735 0.63127
 H774 H 0.79310 0.88544 0.55705
 C775 C 0.30849 0.94829 0.38386
 C776 C 0.28584 0.93762 0.37810
 C777 C 0.27309 0.92047 0.39484
 C778 C 0.24742 0.92091 0.39626
 C779 C 0.23515 0.90689 0.41375
 C780 C 0.24843 0.89185 0.42990
 C781 C 0.27400 0.89048 0.42758
 C782 C 0.28622 0.90451 0.41019
 C783 C 0.23685 0.87894 0.45045
 C784 C 0.21164 0.87559 0.45338
 H785 H 0.27617 0.94400 0.36231
 H786 H 0.23693 0.93297 0.38451
 H787 H 0.21548 0.90875 0.41504
 H788 H 0.28466 0.87891 0.43964
 H789 H 0.30597 0.90307 0.40903
 H790 H 0.24887 0.87212 0.46445
 H791 H 0.31716 0.94367 0.40070
 H792 H 0.19910 0.87995 0.43901
 C793 C 0.05630 0.38285 0.68471
 C794 C 0.06868 0.37699 0.70582
 C795 C 0.08718 0.39393 0.71660
 C796 C 0.09031 0.39383 0.74146
 C797 C 0.10612 0.41107 0.75245
 C798 C 0.11941 0.42854 0.73861
 C799 C 0.11717 0.42769 0.71364
 C800 C 0.10128 0.41056 0.70271
 C801 C 0.13410 0.44917 0.74925
 C802 C 0.13823 0.45244 0.77368
 H803 H 0.06304 0.36058 0.71593
 H804 H 0.07979 0.38101 0.75251
 H805 H 0.10711 0.41102 0.77171
 H806 H 0.12731 0.44077 0.70253
 H807 H 0.10000 0.41054 0.68342
 H808 H 0.14082 0.46364 0.73724
 H809 H 0.06051 0.40003 0.67518
 H810 H 0.13381 0.43772 0.78625
 C811 C 0.04725 0.63331 0.29650
 C812 C 0.05598 0.63839 0.27360
 C813 C 0.07364 0.62142 0.26187
 C814 C 0.07197 0.61718 0.23721
 C815 C 0.08668 0.59904 0.22627
 C816 C 0.10360 0.58512 0.23989
 C817 C 0.10614 0.59045 0.26430
 C818 C 0.09142 0.60846 0.27518
 C819 C 0.11744 0.56362 0.23008
 C820 C 0.11924 0.55774 0.20587
 H821 H 0.04793 0.65351 0.26331
 H822 H 0.05849 0.62709 0.22658
 H823 H 0.08393 0.59539 0.20747
 H824 H 0.11915 0.58018 0.27517
 H825 H 0.09376 0.61191 0.29410
 H826 H 0.12619 0.55112 0.24277
 H827 H 0.05362 0.61678 0.30589
 H828 H 0.11280 0.57071 0.19242
 C829 C 0.95220 0.37136 0.30660
 C830 C 0.94482 0.37081 0.28275
 C831 C 0.92739 0.38929 0.27253
 C832 C 0.91689 0.38472 0.25000
 C833 C 0.90127 0.40238 0.23942
 C834 C 0.89597 0.42501 0.25126
 C835 C 0.90619 0.42940 0.27383
 C836 C 0.92191 0.41199 0.28424
 C837 C 0.88047 0.44489 0.24081
 C838 C 0.87657 0.44817 0.21639
 H839 H 0.95271 0.35690 0.27096
 H840 H 0.92086 0.36749 0.24051
 H841 H 0.89336 0.39814 0.22215
 H842 H 0.90256 0.44678 0.28323
 H843 H 0.93014 0.41699 0.30114
 H844 H 0.87361 0.45916 0.25285
 H845 H 0.94388 0.38429 0.31899
 H846 H 0.88280 0.43430 0.20372
 C847 C 0.94972 0.64961 0.72625
 C848 C 0.93396 0.62963 0.72108
 C849 C 0.92303 0.61330 0.73957
 C850 C 0.90148 0.59995 0.73422
 C851 C 0.89239 0.58187 0.75004
 C852 C 0.90499 0.57651 0.77136
 C853 C 0.92639 0.59006 0.77686
 C854 C 0.93524 0.60848 0.76123
 C855 C 0.89749 0.55539 0.78687
 C856 C 0.87321 0.54752 0.78902
 H857 H 0.93045 0.62487 0.70256
 H858 H 0.89201 0.60307 0.71745
 H859 H 0.87620 0.57128 0.74497
 H860 H 0.93655 0.58600 0.79305
 H861 H 0.95229 0.61794 0.76557
 H862 H 0.91156 0.54557 0.79686
 H863 H 0.95151 0.65640 0.74440
 H864 H 0.85866 0.55874 0.78138
 C865 C 0.71278 0.63754 0.95705
 C866 C 0.70671 0.61772 0.94176
 C867 C 0.72530 0.60191 0.92997
 C868 C 0.71935 0.58982 0.90846
 C869 C 0.73551 0.57257 0.89828
 C870 C 0.75772 0.56673 0.90977
 C871 C 0.76373 0.57892 0.93120
 C872 C 0.74781 0.59656 0.94112
 C873 C 0.77374 0.54649 0.90093
 C874 C 0.77608 0.54065 0.87680
 H875 H 0.68759 0.61296 0.93882
 H876 H 0.70194 0.59336 0.89978
 H877 H 0.73009 0.56300 0.88204
 H878 H 0.78060 0.57445 0.94050
 H879 H 0.75261 0.60505 0.95807
 H880 H 0.78429 0.53588 0.91387
 H881 H 0.73159 0.64416 0.95787
 H882 H 0.76795 0.55269 0.86338
 C883 C 0.29209 0.36934 0.95097
 C884 C 0.29572 0.39506 0.94711
 C885 C 0.27911 0.41098 0.93281
 C886 C 0.27637 0.43612 0.93966
 C887 C 0.26115 0.45213 0.92677
 C888 C 0.24883 0.44360 0.90632
 C889 C 0.25158 0.41841 0.89922
 C890 C 0.26652 0.40213 0.91250
 C891 C 0.23340 0.46174 0.89324
 C892 C 0.22960 0.46142 0.86855
 H893 H 0.30990 0.40475 0.95717
 H894 H 0.28590 0.44337 0.95522
 H895 H 0.25932 0.47144 0.93260
 H896 H 0.24204 0.41123 0.88367
 H897 H 0.26856 0.38289 0.90664
 H898 H 0.22682 0.47778 0.90323
 H899 H 0.27718 0.35965 0.94202
 H900 H 0.23575 0.44563 0.85804
 C901 C 0.30581 0.62530 0.04270
 C902 C 0.28062 0.62691 0.04698
 C903 C 0.26741 0.60702 0.06057
 C904 C 0.24544 0.61257 0.07251
 C905 C 0.23320 0.59401 0.08586
 C906 C 0.24278 0.56954 0.08734
 C907 C 0.26433 0.56394 0.07492
 C908 C 0.27631 0.58225 0.06146
 C909 C 0.23169 0.54941 0.10208
 C910 C 0.20694 0.54791 0.10837
 H911 H 0.27037 0.64277 0.04015
 H912 H 0.23801 0.63140 0.07189
 H913 H 0.21674 0.59904 0.09544
 H914 H 0.27191 0.54516 0.07551
 H915 H 0.29243 0.57672 0.05159
 H916 H 0.24366 0.53422 0.10744
 H917 H 0.31607 0.61034 0.05114
 H918 H 0.19457 0.56282 0.10334
 C919 C 0.71614 0.35018 0.05178
 C920 C 0.70711 0.37263 0.06123
 C921 C 0.72081 0.38928 0.07779
 C922 C 0.70762 0.40733 0.09061
 C923 C 0.71976 0.42501 0.10477
 C924 C 0.74545 0.42527 0.10637
 C925 C 0.75876 0.40686 0.09389
 C926 C 0.74654 0.38902 0.07975
 C927 C 0.75722 0.44603 0.11994
 C928 C 0.78239 0.44870 0.12408
 H929 H 0.68882 0.37857 0.05620
 H930 H 0.68780 0.40805 0.08933
 H931 H 0.70900 0.43896 0.11408
 H932 H 0.77856 0.40651 0.09430
 H933 H 0.75739 0.37577 0.06971
 H934 H 0.74529 0.46062 0.12670
 H935 H 0.73354 0.34287 0.05791
 H936 H 0.79492 0.43391 0.11929
 C937 C 0.94654 0.71424 0.64457
 C938 C 0.93332 0.70412 0.62537
 C939 C 0.91756 0.71886 0.60892
 C940 C 0.90190 0.70573 0.59337
 C941 C 0.88851 0.71841 0.57587
 C942 C 0.89043 0.74458 0.57342
 C943 C 0.90567 0.75794 0.58933
 C944 C 0.91911 0.74520 0.60691
 C945 C 0.87799 0.75661 0.55281
 C946 C 0.87507 0.78250 0.54976
 H947 H 0.93497 0.68420 0.62170
 H948 H 0.90042 0.68544 0.59439
 H949 H 0.87705 0.70760 0.56379
 H950 H 0.90814 0.77803 0.58772
 H951 H 0.93140 0.75601 0.61811
 H952 H 0.87115 0.74434 0.53884
 H953 H 0.94392 0.73364 0.64966
 H954 H 0.87942 0.79528 0.56417
 C955 C 0.96254 0.29266 0.37015
 C956 C 0.95787 0.29783 0.39414
 C957 C 0.94241 0.28148 0.40934
 C958 C 0.94829 0.27931 0.43361
 C959 C 0.93418 0.26417 0.44865
 C960 C 0.91345 0.25142 0.43992
 C961 C 0.90732 0.25365 0.41561
 C962 C 0.92180 0.26848 0.40039
 C963 C 0.89885 0.23635 0.45700
 C964 C 0.87350 0.23252 0.45538
 H965 H 0.96758 0.31319 0.40275
 H966 H 0.96403 0.28918 0.44093
 H967 H 0.93925 0.26279 0.46733
 H968 H 0.89160 0.24383 0.40829
 H969 H 0.91659 0.27014 0.38179
 H970 H 0.90804 0.23062 0.47329
 H971 H 0.95435 0.27616 0.36202
 H972 H 0.86372 0.23753 0.43926
 C973 C 0.04527 0.30537 0.61842
 C974 C 0.05531 0.28182 0.62333
 C975 C 0.06949 0.26807 0.60495
 C976 C 0.06801 0.24176 0.60376
 C977 C 0.07948 0.22866 0.58519
 C978 C 0.09294 0.24172 0.56763
 C979 C 0.09517 0.26792 0.56945
 C980 C 0.08376 0.28094 0.58794
 C981 C 0.10395 0.22923 0.54658
 C982 C 0.10804 0.20344 0.54457
 H983 H 0.05070 0.27229 0.63984
 H984 H 0.05722 0.23142 0.61672
 H985 H 0.07705 0.20852 0.58432
 H986 H 0.10561 0.27844 0.55634
 H987 H 0.08604 0.30113 0.58876
 H988 H 0.10987 0.24116 0.53195
 H989 H 0.04824 0.31360 0.60095
 H990 H 0.10429 0.19109 0.55946
 C991 C 0.04509 0.70830 0.36554
 C992 C 0.05355 0.69966 0.38767
 C993 C 0.06944 0.71446 0.40398
 C994 C 0.08180 0.70181 0.42235
 C995 C 0.09548 0.71509 0.43930
 C996 C 0.09707 0.74140 0.43842
 C997 C 0.08489 0.75417 0.41986
 C998 C 0.07123 0.74083 0.40281
 C999 C 0.11026 0.75452 0.45802
 C1000 C 0.11552 0.78025 0.45865
 H1001 H 0.04818 0.68101 0.39355
 H1002 H 0.08060 0.68154 0.42381
 H1003 H 0.10453 0.70473 0.45344
 H1004 H 0.08511 0.77443 0.41873
 H1005 H 0.06140 0.75137 0.38936
 H1006 H 0.11607 0.74320 0.47310
 H1007 H 0.05163 0.72608 0.35858
 H1008 H 0.11181 0.79192 0.44329
 C1009 C 0.63823 0.95021 0.69942
 C1010 C 0.62103 0.93250 0.69159
 C1011 C 0.60842 0.91406 0.70721
 C1012 C 0.59487 0.89470 0.69637
 C1013 C 0.58006 0.87878 0.71000
 C1014 C 0.57841 0.88181 0.73482
 C1015 C 0.59274 0.90055 0.74591
 C1016 C 0.60761 0.91653 0.73223
 C1017 C 0.55935 0.86736 0.74777
 C1018 C 0.55717 0.86624 0.77259
 H1019 H 0.61595 0.93254 0.67286
 H1020 H 0.59510 0.89240 0.67714
 H1021 H 0.56912 0.86462 0.70097
 H1022 H 0.59158 0.90389 0.76492
 H1023 H 0.61735 0.93150 0.74126
 H1024 H 0.54497 0.85869 0.73714
 H1025 H 0.64533 0.94962 0.71745
 H1026 H 0.57217 0.87213 0.78397
 C1027 C 0.38566 0.94963 0.31889
 C1028 C 0.38137 0.93738 0.29723
 C1029 C 0.39901 0.91945 0.28674
 C1030 C 0.39960 0.91631 0.26188
 C1031 C 0.41696 0.90059 0.25129
 C1032 C 0.43388 0.88736 0.26550
 C1033 C 0.43265 0.88985 0.29043
 C1034 C 0.41538 0.90561 0.30097
 C1035 C 0.45407 0.87224 0.25527
 C1036 C 0.45623 0.86586 0.23115
 H1037 H 0.36538 0.94243 0.28678
 H1038 H 0.38707 0.92665 0.25054
 H1039 H 0.41738 0.89959 0.23203
 H1040 H 0.44536 0.87981 0.30182
 H1041 H 0.41494 0.90685 0.32025
 H1042 H 0.46848 0.86631 0.26735
 H1043 H 0.40239 0.94617 0.32874
 H1044 H 0.44129 0.86944 0.21895
 C1045 C 0.61907 0.05233 0.30766
 C1046 C 0.61946 0.05422 0.28279
 C1047 C 0.60051 0.06824 0.26915
 C1048 C 0.60507 0.07532 0.24537
 C1049 C 0.58714 0.08785 0.23193
 C1050 C 0.56420 0.09339 0.24208
 C1051 C 0.55972 0.08630 0.26580
 C1052 C 0.57745 0.07370 0.27909
 C1053 C 0.54414 0.10607 0.22896
 C1054 C 0.54263 0.10872 0.20415
 H1055 H 0.63370 0.04460 0.27296
 H1056 H 0.62258 0.07118 0.23719
 H1057 H 0.59144 0.09322 0.21378
 H1058 H 0.54214 0.09008 0.27401
 H1059 H 0.57256 0.06777 0.29692
 H1060 H 0.52871 0.11249 0.23947
 H1061 H 0.60579 0.06284 0.31784
 H1062 H 0.55774 0.10329 0.19286
 C1063 C 0.38014 0.05211 0.69009
 C1064 C 0.37501 0.05953 0.71344
 C1065 C 0.39150 0.07701 0.72648
 C1066 C 0.39488 0.07410 0.75119
 C1067 C 0.41252 0.08847 0.76334
 C1068 C 0.42688 0.10625 0.75095
 C1069 C 0.42252 0.11002 0.72651
 C1070 C 0.40492 0.09574 0.71443
 C1071 C 0.44784 0.11963 0.76211
 C1072 C 0.45157 0.12202 0.78668
 H1073 H 0.36039 0.05019 0.72313
 H1074 H 0.38466 0.05989 0.76089
 H1075 H 0.41553 0.08476 0.78211
 H1076 H 0.43316 0.12372 0.71658
 H1077 H 0.40216 0.09915 0.69556
 H1078 H 0.46140 0.12785 0.75027
 H1079 H 0.39619 0.05964 0.68120
 H1080 H 0.43743 0.11630 0.79908
 C1081 C 0.62003 0.69110 0.04951
 C1082 C 0.62456 0.71238 0.06342
 C1083 C 0.60638 0.72225 0.08057
 C1084 C 0.60620 0.74803 0.08576
 C1085 C 0.58846 0.75808 0.10099
 C1086 C 0.57070 0.74236 0.11162
 C1087 C 0.57154 0.71644 0.10706
 C1088 C 0.58917 0.70646 0.09179
 C1089 C 0.55037 0.75194 0.12657
 C1090 C 0.54714 0.77703 0.13317
 H1091 H 0.64123 0.72310 0.06049
 H1092 H 0.61944 0.76053 0.07749
 H1093 H 0.58859 0.77813 0.10385
 H1094 H 0.55826 0.70384 0.11514
 H1095 H 0.58928 0.68636 0.08890
 H1096 H 0.53665 0.73843 0.13231
 H1097 H 0.60262 0.68136 0.05088
 H1098 H 0.56109 0.79091 0.12938
 C1099 C 0.36772 0.30045 0.04951
 C1100 C 0.36985 0.27440 0.05150
 C1101 C 0.38938 0.26226 0.06597
 C1102 C 0.38692 0.23689 0.07252
 C1103 C 0.40559 0.22469 0.08523
 C1104 C 0.42723 0.23769 0.09147
 C1105 C 0.42958 0.26303 0.08495
 C1106 C 0.41107 0.27513 0.07223
 C1107 C 0.44807 0.22593 0.10428
 C1108 C 0.45091 0.20019 0.10831
 H1109 H 0.35741 0.26250 0.04144
 H1110 H 0.37051 0.22647 0.06775
 H1111 H 0.40285 0.20523 0.09006
 H1112 H 0.44611 0.27347 0.08930
 H1113 H 0.41432 0.29435 0.06682
 H1114 H 0.46272 0.23832 0.11017
 H1115 H 0.37914 0.31262 0.06032
 H1116 H 0.43660 0.18706 0.10341
 C1117 C 0.64488 0.27765 0.95194
 C1118 C 0.62449 0.28848 0.94092
 C1119 C 0.60739 0.27512 0.92466
 C1120 C 0.59085 0.28947 0.91121
 C1121 C 0.57272 0.27786 0.89742
 C1122 C 0.57060 0.25159 0.89676
 C1123 C 0.58749 0.23709 0.90984
 C1124 C 0.60573 0.24875 0.92365
 C1125 C 0.54946 0.24048 0.88377
 C1126 C 0.54650 0.21495 0.87873
 H1127 H 0.62049 0.30799 0.94475
 H1128 H 0.59161 0.30980 0.91176
 H1129 H 0.55992 0.28952 0.88764
 H1130 H 0.58621 0.21683 0.91029
 H1131 H 0.61773 0.23702 0.93420
 H1132 H 0.53510 0.25317 0.87806
 H1133 H 0.65063 0.25885 0.94734
 H1134 H 0.56123 0.20194 0.88218
 C1135 C 0.38300 0.70085 0.95002
 C1136 C 0.37761 0.72393 0.93949
 C1137 C 0.39474 0.73531 0.92199
 C1138 C 0.39894 0.76135 0.92195
 C1139 C 0.41720 0.77185 0.90735
 C1140 C 0.43128 0.75640 0.89229
 C1141 C 0.42602 0.73060 0.89147
 C1142 C 0.40791 0.72017 0.90602
 C1143 C 0.45273 0.76569 0.87862
 C1144 C 0.45854 0.79092 0.87463
 H1145 H 0.36197 0.73459 0.94560
 H1146 H 0.38888 0.77339 0.93400
 H1147 H 0.42079 0.79179 0.90867
 H1148 H 0.43639 0.71829 0.87991
 H1149 H 0.40454 0.70013 0.90504
 H1150 H 0.46509 0.75169 0.87147
 H1151 H 0.40006 0.69166 0.94553
 H1152 H 0.44581 0.80556 0.87943
 C1153 C 0.69495 0.95613 0.38455
 C1154 C 0.71774 0.94595 0.37889
 C1155 C 0.73008 0.92814 0.39528
 C1156 C 0.75573 0.92845 0.39744
 C1157 C 0.76745 0.91336 0.41451
 C1158 C 0.75362 0.89740 0.42946
 C1159 C 0.72810 0.89623 0.42634
 C1160 C 0.71646 0.91130 0.40941
 C1161 C 0.76443 0.88323 0.44968
 C1162 C 0.78949 0.88007 0.45387
 H1163 H 0.72745 0.95262 0.36324
 H1164 H 0.76662 0.94113 0.38660
 H1165 H 0.78712 0.91502 0.41643
 H1166 H 0.71701 0.88398 0.43744
 H1167 H 0.69673 0.90990 0.40762
 H1168 H 0.75178 0.87534 0.46263
 H1169 H 0.68639 0.95122 0.40138
 H1170 H 0.80281 0.88553 0.44055
 C1171 C 0.31343 0.94470 0.61809
 C1172 C 0.28810 0.94069 0.61770
 C1173 C 0.27567 0.92525 0.59911
 C1174 C 0.25146 0.91701 0.60284
 C1175 C 0.23890 0.90335 0.58519
 C1176 C 0.25036 0.89783 0.56331
 C1177 C 0.27456 0.90597 0.55968
 C1178 C 0.28700 0.91966 0.57718
 C1179 C 0.23808 0.88392 0.54366
 C1180 C 0.21279 0.88006 0.54166
 H1181 H 0.27685 0.94993 0.63096
 H1182 H 0.24221 0.92118 0.61947
 H1183 H 0.22041 0.89711 0.58891
 H1184 H 0.28379 0.90215 0.54295
 H1185 H 0.30524 0.92633 0.57299
 H1186 H 0.24961 0.87726 0.52927
 H1187 H 0.32512 0.93481 0.60574
 H1188 H 0.20062 0.88613 0.55569
 C1189 C 0.29616 0.05007 0.37341
 C1190 C 0.30271 0.06383 0.39367
 C1191 C 0.28555 0.07937 0.40775
 C1192 C 0.29540 0.09667 0.42406
 C1193 C 0.28017 0.10987 0.43957
 C1194 C 0.25470 0.10600 0.43928
 C1195 C 0.24466 0.08911 0.42253
 C1196 C 0.25995 0.07593 0.40690
 C1197 C 0.23990 0.11833 0.45806
 C1198 C 0.21431 0.11802 0.45932
 H1199 H 0.32151 0.06284 0.39992
 H1200 H 0.31505 0.09959 0.42519
 H1201 H 0.28845 0.12266 0.45233
 H1202 H 0.22520 0.08518 0.42196
 H1203 H 0.25169 0.06231 0.39499
 H1204 H 0.24984 0.12756 0.47240
 H1205 H 0.27814 0.05205 0.36553
 H1206 H 0.20343 0.11105 0.44459
 C1207 C 0.68324 0.05802 0.61320
 C1208 C 0.70485 0.07171 0.61665
 C1209 C 0.71453 0.08950 0.59856
 C1210 C 0.73991 0.09369 0.59729
 C1211 C 0.74985 0.10913 0.57949
 C1212 C 0.73446 0.12109 0.56279
 C1213 C 0.70901 0.11750 0.56459
 C1214 C 0.69911 0.10198 0.58231
 C1215 C 0.74408 0.13615 0.54249
 C1216 C 0.76841 0.14423 0.54037
 H1217 H 0.71614 0.06762 0.63211
 H1218 H 0.75217 0.08435 0.60965
 H1219 H 0.76956 0.11090 0.57863
 H1220 H 0.69671 0.12653 0.55207
 H1221 H 0.67939 0.09986 0.58319
 H1222 H 0.73134 0.14100 0.52837
 H1223 H 0.67269 0.06049 0.59698
 H1224 H 0.78097 0.14161 0.55508
 C1225 C 0.94602 0.63611 0.29103
 C1226 C 0.93527 0.61381 0.29913
 C1227 C 0.91908 0.59744 0.28447
 C1228 C 0.90506 0.57901 0.29612
 C1229 C 0.89110 0.56174 0.28308
 C1230 C 0.89087 0.56233 0.25802
 C1231 C 0.90458 0.58108 0.24623
 C1232 C 0.91855 0.59847 0.25934
 C1233 C 0.87768 0.54192 0.24521
 C1234 C 0.87376 0.54085 0.22053
 H1235 H 0.93906 0.60783 0.31727
 H1236 H 0.90522 0.57767 0.31544
 H1237 H 0.88086 0.54745 0.29267
 H1238 H 0.90537 0.58195 0.22697
 H1239 H 0.92957 0.61195 0.24962
 H1240 H 0.87112 0.52627 0.25589
 H1241 H 0.94144 0.64354 0.27361
 H1242 H 0.87803 0.55685 0.20937
 C1243 C 0.95522 0.38188 0.69788
 C1244 C 0.95217 0.38086 0.72262
 C1245 C 0.93694 0.39966 0.73536
 C1246 C 0.92613 0.39368 0.75745
 C1247 C 0.91120 0.41115 0.76924
 C1248 C 0.90697 0.43495 0.75908
 C1249 C 0.91825 0.44102 0.73736
 C1250 C 0.93327 0.42381 0.72581
 C1251 C 0.89078 0.45405 0.76989
 C1252 C 0.88485 0.45571 0.79411
 H1253 H 0.96100 0.36609 0.73276
 H1254 H 0.92889 0.37532 0.76535
 H1255 H 0.90263 0.40577 0.78590
 H1256 H 0.91562 0.45934 0.72933
 H1257 H 0.94216 0.42977 0.70950
 H1258 H 0.88432 0.46880 0.75812
 H1259 H 0.94506 0.39557 0.68762
 H1260 H 0.89048 0.44114 0.80640
 C1261 C 0.04636 0.63756 0.71306
 C1262 C 0.04768 0.61151 0.71072
 C1263 C 0.06315 0.59524 0.72593
 C1264 C 0.05562 0.57032 0.72953
 C1265 C 0.06948 0.55412 0.74366
 C1266 C 0.09152 0.56225 0.75412
 C1267 C 0.09929 0.58721 0.75048
 C1268 C 0.08515 0.60363 0.73654
 C1269 C 0.10549 0.54390 0.76854
 C1270 C 0.13081 0.54480 0.77251
 H1271 H 0.03507 0.60225 0.69855
 H1272 H 0.03879 0.56339 0.72154
 H1273 H 0.06307 0.53500 0.74616
 H1274 H 0.11604 0.59418 0.75853
 H1275 H 0.09167 0.62264 0.73381
 H1276 H 0.09553 0.52745 0.77471
 H1277 H 0.05748 0.64719 0.72625
 H1278 H 0.14139 0.56102 0.76700
 C1279 C 0.05243 0.37203 0.29165
 C1280 C 0.06227 0.39505 0.29896
 C1281 C 0.07734 0.41167 0.28348
 C1282 C 0.09122 0.43084 0.29423
 C1283 C 0.10453 0.44791 0.28033
 C1284 C 0.10425 0.44634 0.25531
 C1285 C 0.09047 0.42703 0.24445
 C1286 C 0.07717 0.40988 0.25838
 C1287 C 0.11715 0.46619 0.24146
 C1288 C 0.12122 0.46556 0.21680
 H1289 H 0.05889 0.40122 0.31710
 H1290 H 0.09155 0.43280 0.31349
 H1291 H 0.11479 0.46269 0.28921
 H1292 H 0.08916 0.42546 0.22525
 H1293 H 0.06615 0.39588 0.24932
 H1294 H 0.12365 0.48248 0.25126
 H1295 H 0.05670 0.36455 0.27421
 H1296 H 0.11694 0.44880 0.20674
   
