data_POSCAR
  _audit_creation_date              2014-09-24
  _audit_creation_method            'ToBaCCo'
  _symmetry_space_group_name_H-M    'P1'
  _symmetry_Int_Tables_number       1
  _symmetry_cell_setting            triclinic
  loop_
  _symmetry_equiv_pos_as_xyz
 x,y,z
_cell_length_a 69.7964
_cell_length_b 68.3100
_cell_length_c 68.8008
_cell_angle_alpha 92.191400
_cell_angle_beta 92.465100
_cell_angle_gamma 92.355000
loop_
  _atom_site_label
  _atom_site_type_symbol
  _atom_site_fract_x
  _atom_site_fract_y
  _atom_site_fract_z
C1 C 0.73375 0.65942 0.97623
 H2 H 0.74765 0.65958 0.96983
 C3 C 0.71924 0.67070 0.96852
 H4 H 0.72219 0.67981 0.95638
 C5 C 0.71294 0.64691 0.99955
 H6 H 0.71035 0.63720 1.01126
 C7 C 0.69804 0.65795 0.99231
 H8 H 0.68412 0.65657 0.99861
 N9 N 0.73036 0.64778 0.99141
 C10 C 0.78592 0.63427 1.01753
 H11 H 0.78377 0.61851 1.01776
 C12 C 0.80316 0.64322 1.02487
 H13 H 0.81416 0.63424 1.03096
 C14 C 0.77395 0.66505 1.00949
 H15 H 0.76250 0.67347 1.00350
 C16 C 0.79103 0.67465 1.01673
 H17 H 0.79266 0.69043 1.01600
 Zn18 Zn 0.74974 0.63090 0.99941
 N19 N 0.77190 0.64517 1.00970
 C20 C 0.77411 0.61765 0.97054
 N21 N 0.75603 0.61583 0.97707
 C22 C 0.74199 0.60498 0.96679
 C23 C 0.74591 0.59548 0.94910
 C24 C 0.77862 0.60848 0.95299
 C25 C 0.73843 0.62463 1.03665
 C26 C 0.73232 0.61448 1.05258
 C27 C 0.73158 0.58449 1.03279
 C28 C 0.73787 0.59532 1.01724
 N29 N 0.74096 0.61504 1.01940
 H30 H 0.78498 0.62669 0.97859
 H31 H 0.72761 0.60415 0.97207
 H32 H 0.73448 0.58728 0.94086
 H33 H 0.79309 0.61018 0.94806
 H34 H 0.74100 0.64036 1.03795
 H35 H 0.72960 0.62328 1.06546
 H36 H 0.73008 0.56878 1.03038
 H37 H 0.74046 0.58790 1.00351
 C38 C 0.80600 0.66365 1.02429
 C39 C 0.70101 0.66987 0.97643
 C40 C 0.72864 0.59388 1.05113
 C41 C 0.76438 0.59745 0.94188
 C42 C 0.73979 0.36590 0.50705
 H43 H 0.75365 0.36751 0.51474
 C44 C 0.72505 0.35452 0.51463
 H45 H 0.72776 0.34714 0.52807
 C46 C 0.71946 0.37376 0.48025
 H47 H 0.71718 0.38164 0.46709
 C48 C 0.70431 0.36253 0.48731
 H49 H 0.69050 0.36190 0.47946
 N50 N 0.73680 0.37516 0.49011
 C51 C 0.79342 0.38599 0.46746
 H52 H 0.79303 0.40160 0.46543
 C53 C 0.80958 0.37586 0.46248
 H54 H 0.82169 0.38385 0.45680
 C55 C 0.77811 0.35675 0.47761
 H56 H 0.76572 0.34930 0.48326
 C57 C 0.79399 0.34604 0.47285
 H58 H 0.79361 0.33038 0.47484
 Zn59 Zn 0.75710 0.39143 0.48163
 N60 N 0.77823 0.37641 0.47511
 C61 C 0.78240 0.41015 0.51050
 N62 N 0.76422 0.40948 0.50250
 C63 C 0.75032 0.42023 0.51041
 C64 C 0.75444 0.43211 0.52718
 C65 C 0.78716 0.42188 0.52718
 C66 C 0.74523 0.39298 0.44265
 C67 C 0.73890 0.40131 0.42546
 C68 C 0.74112 0.43311 0.44224
 C69 C 0.74744 0.42414 0.45913
 N70 N 0.74907 0.40437 0.45909
 H71 H 0.79313 0.40109 0.50441
 H72 H 0.73588 0.41914 0.50397
 H73 H 0.74315 0.44040 0.53341
 H74 H 0.80156 0.42169 0.53367
 H75 H 0.74693 0.37732 0.44298
 H76 H 0.73591 0.39196 0.41254
 H77 H 0.73941 0.44880 0.44268
 H78 H 0.75086 0.43297 0.47228
 C79 C 0.81004 0.35562 0.46525
 C80 C 0.70698 0.35279 0.50477
 C81 C 0.73657 0.42162 0.42515
 C82 C 0.77304 0.43286 0.53590
 C83 C 0.24046 -0.13319 0.00603
 H84 H 0.25421 -0.13107 0.01385
 C85 C 0.22608 -0.14521 0.01342
 H86 H 0.22897 -0.15254 0.02684
 C87 C 0.22001 -0.12604 -0.02094
 H88 H 0.21753 -0.11821 -0.03409
 C89 C 0.20523 -0.13794 -0.01408
 H90 H 0.19150 -0.13910 -0.02207
 N91 N 0.23724 -0.12398 -0.01091
 C92 C 0.29362 -0.11108 -0.03324
 H93 H 0.29281 -0.09549 -0.03516
 C94 C 0.31004 -0.12069 -0.03833
 H95 H 0.32193 -0.11235 -0.04400
 C96 C 0.27910 -0.14082 -0.02332
 H97 H 0.26688 -0.14868 -0.01779
 C98 C 0.29525 -0.15102 -0.02819
 H99 H 0.29530 -0.16669 -0.02635
 Zn100 Zn 0.25703 -0.10694 -0.01919
 N101 N 0.27868 -0.12116 -0.02567
 C102 C 0.28162 -0.08742 0.00987
 N103 N 0.26346 -0.08880 0.00179
 C104 C 0.24910 -0.07868 0.00966
 C105 C 0.25272 -0.06671 0.02645
 C106 C 0.28588 -0.07556 0.02658
 C107 C 0.24531 -0.10556 -0.05821
 C108 C 0.23887 -0.09741 -0.07545
 C109 C 0.24005 -0.06570 -0.05864
 C110 C 0.24649 -0.07456 -0.04173
 N111 N 0.24867 -0.09419 -0.04174
 H112 H 0.29272 -0.09599 0.00380
 H113 H 0.23471 -0.08034 0.00315
 H114 H 0.24108 -0.05892 0.03264
 H115 H 0.30029 -0.07516 0.03312
 H116 H 0.24767 -0.12111 -0.05793
 H117 H 0.23727 -0.10723 -0.08814
 H118 H 0.23759 -0.05023 -0.05725
 H119 H 0.24948 -0.06571 -0.02851
 C120 C 0.31102 -0.14093 -0.03576
 C121 C 0.20815 -0.14765 0.00336
 C122 C 0.23573 -0.07705 -0.07613
 C123 C 0.27130 -0.06517 0.03521
 C124 C 0.23493 0.15870 0.48045
 H125 H 0.24880 0.15878 0.47401
 C126 C 0.22053 0.17024 0.47291
 H127 H 0.22354 0.17944 0.46085
 C128 C 0.21405 0.14617 0.50369
 H129 H 0.21137 0.13636 0.51530
 C130 C 0.19926 0.15747 0.49662
 H131 H 0.18534 0.15619 0.50295
 N132 N 0.23145 0.14693 0.49552
 C133 C 0.28702 0.13277 0.52139
 H134 H 0.28484 0.11700 0.52144
 C135 C 0.30428 0.14162 0.52881
 H136 H 0.31528 0.13254 0.53476
 C137 C 0.27508 0.16367 0.51378
 H138 H 0.26364 0.17219 0.50793
 C139 C 0.29218 0.17317 0.52110
 H140 H 0.29383 0.18896 0.52057
 Zn141 Zn 0.25071 0.12977 0.50329
 N142 N 0.27299 0.14378 0.51376
 C143 C 0.27498 0.11669 0.47417
 N144 N 0.25690 0.11495 0.48073
 C145 C 0.24273 0.10443 0.47027
 C146 C 0.24650 0.09529 0.45237
 C147 C 0.27934 0.10785 0.45641
 C148 C 0.23922 0.12309 0.54047
 C149 C 0.23291 0.11271 0.55619
 C150 C 0.23205 0.08296 0.53595
 C151 C 0.23850 0.09395 0.52057
 N152 N 0.24176 0.11369 0.52307
 H153 H 0.28597 0.12545 0.48237
 H154 H 0.22837 0.10365 0.47558
 H155 H 0.23495 0.08740 0.44400
 H156 H 0.29381 0.10951 0.45145
 H157 H 0.24204 0.13878 0.54207
 H158 H 0.23064 0.12060 0.56979
 H159 H 0.22953 0.06727 0.53379
 H160 H 0.24091 0.08671 0.50671
 C161 C 0.30715 0.16206 0.52851
 C162 C 0.20232 0.16954 0.48087
 C163 C 0.22920 0.09237 0.55407
 C164 C 0.26495 0.09724 0.44510
 C165 C 0.15041 0.47344 0.23063
 H166 H 0.15048 0.46670 0.24460
 C167 C 0.16101 0.46557 0.21564
 H168 H 0.16921 0.45274 0.21823
 C169 C 0.13858 0.49758 0.20995
 H170 H 0.12949 0.50976 0.20760
 C171 C 0.14895 0.49022 0.19461
 H172 H 0.14804 0.49717 0.18073
 N173 N 0.13937 0.48907 0.22750
 C174 C 0.12629 0.51602 0.28358
 H175 H 0.11090 0.51659 0.28120
 C176 C 0.13506 0.52371 0.30095
 H177 H 0.12632 0.53039 0.31179
 C178 C 0.15630 0.50690 0.27206
 H179 H 0.16447 0.50035 0.26072
 C180 C 0.16570 0.51446 0.28927
 H181 H 0.18111 0.51344 0.29114
 Zn182 Zn 0.12292 0.49714 0.24720
 N183 N 0.13688 0.50755 0.26971
 C184 C 0.10842 0.46893 0.27233
 N185 N 0.10794 0.47475 0.25364
 C186 C 0.09812 0.46389 0.23918
 C187 C 0.08824 0.44641 0.24333
 C188 C 0.09866 0.45171 0.27713
 C189 C 0.11658 0.53485 0.23579
 C190 C 0.10639 0.55077 0.22965
 C191 C 0.07725 0.53032 0.22868
 C192 C 0.08804 0.51474 0.23498
 N193 N 0.10737 0.51725 0.23821
 H194 H 0.11675 0.47735 0.28354
 H195 H 0.09826 0.46864 0.22437
 H196 H 0.08055 0.43787 0.23168
 H197 H 0.09955 0.44718 0.29204
 H198 H 0.13194 0.53645 0.23863
 H199 H 0.11409 0.56455 0.22750
 H200 H 0.06187 0.52815 0.22621
 H201 H 0.08095 0.50072 0.23732
 C202 C 0.15500 0.52278 0.30409
 C203 C 0.16010 0.47379 0.19722
 C204 C 0.08645 0.54864 0.22599
 C205 C 0.08847 0.44014 0.26254
 C206 C -0.13928 0.00068 0.23201
 H207 H -0.14199 0.00571 0.24668
 C208 C -0.15133 0.00609 0.21657
 H209 H -0.16250 0.01599 0.21994
 C210 C -0.12094 -0.01781 0.21050
 H211 H -0.10933 -0.02740 0.20810
 C212 C -0.13260 -0.01280 0.19462
 H213 H -0.12968 -0.01925 0.18052
 N214 N -0.12409 -0.01062 0.22872
 C215 C -0.11685 -0.01422 0.28957
 H216 H -0.10446 -0.00419 0.29141
 C217 C -0.12709 -0.01923 0.30575
 H218 H -0.12264 -0.01272 0.31991
 C219 C -0.13763 -0.03490 0.26891
 H220 H -0.14149 -0.04104 0.25448
 C221 C -0.14830 -0.04031 0.28472
 H222 H -0.16030 -0.05081 0.28236
 Zn223 Zn -0.10727 -0.01595 0.25022
 N224 N -0.12214 -0.02220 0.27163
 C225 C -0.10039 0.02392 0.26029
 N226 N -0.09149 0.00681 0.25721
 C227 C -0.07212 0.00591 0.25998
 C228 C -0.06096 0.02269 0.26612
 C229 C -0.08984 0.04096 0.26642
 C230 C -0.09461 -0.05472 0.25264
 C231 C -0.08460 -0.07111 0.24689
 C232 C -0.06860 -0.05143 0.22353
 C233 C -0.07890 -0.03543 0.22974
 N234 N -0.09193 -0.03743 0.24374
 H235 H -0.11577 0.02434 0.25834
 H236 H -0.06531 -0.00789 0.25796
 H237 H -0.04563 0.02163 0.26869
 H238 H -0.09727 0.05440 0.26875
 H239 H -0.10486 -0.05602 0.26388
 H240 H -0.08749 -0.08492 0.25364
 H241 H -0.05849 -0.04959 0.21218
 H242 H -0.07681 -0.02146 0.22306
 C243 C -0.14294 -0.03258 0.30348
 C244 C -0.14796 -0.00027 0.19727
 C245 C -0.07167 -0.06969 0.23188
 C246 C -0.06989 0.04046 0.26962
 C247 C 0.36389 0.50596 0.73715
 H248 H 0.36458 0.51370 0.75120
 C249 C 0.35262 0.51283 0.72183
 H250 H 0.34475 0.52598 0.72419
 C251 C 0.37406 0.47989 0.71690
 H252 H 0.38265 0.46724 0.71495
 C253 C 0.36298 0.48626 0.70117
 H254 H 0.36290 0.47816 0.68732
 N255 N 0.37421 0.48970 0.73450
 C256 C 0.38367 0.46739 0.79241
 H257 H 0.39911 0.46642 0.79276
 C258 C 0.37337 0.46153 0.80828
 H259 H 0.38100 0.45588 0.82075
 C260 C 0.35499 0.47543 0.77540
 H261 H 0.34786 0.48068 0.76250
 C262 C 0.34411 0.46971 0.79096
 H263 H 0.32868 0.47094 0.78997
 Zn264 Zn 0.38979 0.48213 0.75587
 N265 N 0.37444 0.47443 0.77652
 C266 C 0.40484 0.51239 0.78214
 N267 N 0.40592 0.50422 0.76391
 C268 C 0.41723 0.51260 0.75062
 C269 C 0.42796 0.52998 0.75546
 C270 C 0.41528 0.52972 0.78758
 C271 C 0.39426 0.44325 0.74398
 C272 C 0.40384 0.42650 0.73856
 C273 C 0.43394 0.44515 0.74345
 C274 C 0.42376 0.46157 0.74880
 N275 N 0.40426 0.46039 0.74869
 H276 H 0.39550 0.50580 0.79240
 H277 H 0.41754 0.50601 0.73610
 H278 H 0.43649 0.53671 0.74455
 H279 H 0.41416 0.53598 0.80216
 H280 H 0.37876 0.44268 0.74426
 H281 H 0.39554 0.41314 0.73438
 H282 H 0.44946 0.44633 0.74364
 H283 H 0.43148 0.47520 0.75305
 C284 C 0.35332 0.46277 0.80774
 C285 C 0.35210 0.50298 0.70350
 C286 C 0.42395 0.42733 0.73812
 C287 C 0.42685 0.53890 0.77409
 C288 C 0.65818 0.97073 0.72747
 H289 H 0.65778 0.96447 0.74167
 C290 C 0.66978 0.96279 0.71338
 H291 H 0.67854 0.95060 0.71695
 C292 C 0.64686 0.99393 0.70545
 H293 H 0.63751 1.00568 0.70219
 C294 C 0.65826 0.98648 0.69097
 H295 H 0.65750 0.99266 0.67671
 N296 N 0.64702 0.98602 0.72330
 C297 C 0.63218 1.01400 0.77826
 H298 H 0.61686 1.01458 0.77532
 C299 C 0.64039 1.02189 0.79580
 H300 H 0.63102 1.02904 0.80568
 C301 C 0.66252 1.00489 0.76785
 H302 H 0.67107 0.99819 0.75690
 C303 C 0.67142 1.01266 0.78523
 H304 H 0.68670 1.01109 0.78731
 Zn305 Zn 0.62990 0.99467 0.74213
 N306 N 0.64319 1.00541 0.76487
 C307 C 0.61453 0.96698 0.76727
 N308 N 0.61445 0.97259 0.74852
 C309 C 0.60465 0.96176 0.73403
 C310 C 0.59434 0.94454 0.73821
 C311 C 0.60434 0.95002 0.77210
 C312 C 0.62447 1.03196 0.72893
 C313 C 0.61464 1.04777 0.72193
 C314 C 0.58505 1.02816 0.72220
 C315 C 0.59550 1.01263 0.72918
 N316 N 0.61488 1.01476 0.73218
 H317 H 0.62286 0.97535 0.77852
 H318 H 0.60510 0.96635 0.71917
 H319 H 0.58664 0.93604 0.72654
 H320 H 0.60491 0.94564 0.78707
 H321 H 0.63983 1.03335 0.73182
 H322 H 0.62257 1.06137 0.71956
 H323 H 0.56967 1.02617 0.71960
 H324 H 0.58811 0.99895 0.73222
 C325 C 0.66036 1.02114 0.79985
 C326 C 0.66981 0.97059 0.69478
 C327 C 0.59467 1.04598 0.71836
 C328 C 0.59413 0.93851 0.75749
 C329 C 0.00645 0.23655 -0.12623
 H330 H 0.01428 0.25056 -0.12458
 C331 C 0.01341 0.22152 -0.13792
 H332 H 0.02672 0.22404 -0.14513
 C333 C -0.02009 0.21613 -0.11823
 H334 H -0.03302 0.21399 -0.11037
 C335 C -0.01364 0.20068 -0.12975
 H336 H -0.02192 0.18690 -0.13090
 N337 N -0.01011 0.23369 -0.11683
 C338 C -0.03226 0.29174 -0.10702
 H339 H -0.03401 0.29170 -0.09147
 C340 C -0.03763 0.30788 -0.11749
 H341 H -0.04369 0.32018 -0.10991
 C342 C -0.02280 0.27538 -0.13582
 H343 H -0.01723 0.26261 -0.14296
 C344 C -0.02803 0.29120 -0.14687
 H345 H -0.02608 0.29055 -0.16241
 Zn346 Zn -0.01823 0.25468 -0.10089
 N347 N -0.02481 0.27602 -0.11623
 C348 C 0.01036 0.28075 -0.08282
 N349 N 0.00248 0.26219 -0.08310
 C350 C 0.01029 0.24823 -0.07202
 C351 C 0.02680 0.25267 -0.06018
 C352 C 0.02678 0.28584 -0.07116
 C353 C -0.05665 0.24300 -0.09915
 C354 C -0.07373 0.23715 -0.09087
 C355 C -0.05726 0.23982 -0.05925
 C356 C -0.04048 0.24562 -0.06825
 N357 N -0.04042 0.24683 -0.08788
 H358 H 0.00434 0.29151 -0.09212
 H359 H 0.00394 0.23348 -0.07277
 H360 H 0.03293 0.24133 -0.05161
 H361 H 0.03314 0.30053 -0.07166
 H362 H -0.05631 0.24461 -0.11472
 H363 H -0.08622 0.23520 -0.10066
 H364 H -0.05602 0.23815 -0.04372
 H365 H -0.02744 0.24894 -0.05950
 C366 C -0.03552 0.30775 -0.13770
 C367 C 0.00331 0.20329 -0.13982
 C368 C -0.07453 0.23516 -0.07046
 C369 C 0.03537 0.27167 -0.05981
 C370 C 0.47575 0.23161 0.15473
 H371 H 0.46994 0.24606 0.15483
 C372 C 0.46765 0.21707 0.16597
 H373 H 0.45557 0.22046 0.17468
 C374 C 0.49773 0.20935 0.14222
 H375 H 0.50910 0.20619 0.13258
 C376 C 0.49011 0.19442 0.15322
 H377 H 0.49608 0.18005 0.15224
 N378 N 0.49046 0.22752 0.14310
 C379 C 0.51856 0.28309 0.12907
 H380 H 0.51839 0.28091 0.11340
 C381 C 0.52706 0.30018 0.13789
 H382 H 0.53322 0.31123 0.12886
 C383 C 0.51029 0.27138 0.15973
 H384 H 0.50388 0.26003 0.16816
 C385 C 0.51861 0.28834 0.16918
 H386 H 0.51856 0.28987 0.18490
 Zn387 Zn 0.49897 0.24690 0.12610
 N388 N 0.51020 0.26922 0.13999
 C389 C 0.47137 0.27287 0.11269
 N390 N 0.47708 0.25409 0.11125
 C391 C 0.46621 0.23989 0.10106
 C392 C 0.44868 0.24432 0.09199
 C393 C 0.45400 0.27792 0.10389
 C394 C 0.53494 0.23312 0.11971
 C395 C 0.55001 0.22567 0.10949
 C396 C 0.53040 0.22663 0.07976
 C397 C 0.51561 0.23406 0.09061
 N398 N 0.51808 0.23689 0.11026
 H399 H 0.47993 0.28388 0.12119
 H400 H 0.47087 0.22498 0.10052
 H401 H 0.43994 0.23272 0.08442
 H402 H 0.44968 0.29293 0.10532
 H403 H 0.53660 0.23583 0.13530
 H404 H 0.56333 0.22282 0.11734
 H405 H 0.52813 0.22410 0.06418
 H406 H 0.50219 0.23746 0.08335
 C407 C 0.52708 0.30304 0.15821
 C408 C 0.47467 0.19809 0.16509
 C409 C 0.54782 0.22215 0.08926
 C410 C 0.44223 0.26350 0.09365
 C411 C 0.97415 0.72883 0.65197
 H412 H 0.96776 0.74300 0.65201
 C413 C 0.96661 0.71400 0.66320
 H414 H 0.95434 0.71687 0.67182
 C415 C 0.99720 0.70761 0.63971
 H416 H 1.00884 0.70501 0.63023
 C417 C 0.99013 0.69239 0.65071
 H418 H 0.99674 0.67834 0.64986
 N419 N 0.98916 0.72541 0.64051
 C420 C 1.01552 0.78227 0.62806
 H421 H 1.01557 0.78056 0.61236
 C422 C 1.02338 0.79938 0.63744
 H423 H 1.02925 0.81092 0.62880
 C424 C 1.00736 0.76934 0.65824
 H425 H 1.00127 0.75751 0.66629
 C426 C 1.01503 0.78629 0.66824
 H427 H 1.01480 0.78733 0.68397
 Zn428 Zn 0.99722 0.74539 0.62396
 N429 N 1.00753 0.76778 0.63848
 C430 C 0.96889 0.77068 0.61070
 N431 N 0.97527 0.75217 0.60894
 C432 C 0.96506 0.73791 0.59815
 C433 C 0.94760 0.74200 0.58872
 C434 C 0.95156 0.77539 0.60157
 C435 C 1.03392 0.73353 0.61785
 C436 C 1.04961 0.72739 0.60773
 C437 C 1.03014 0.72736 0.57782
 C438 C 1.01478 0.73363 0.58856
 N439 N 1.01692 0.73643 0.60823
 H440 H 0.97691 0.78173 0.61968
 H441 H 0.97022 0.72319 0.59734
 H442 H 0.93942 0.73035 0.58061
 H443 H 0.94674 0.79020 0.60324
 H444 H 1.03524 0.73600 0.63348
 H445 H 1.06291 0.72488 0.61575
 H446 H 1.02829 0.72527 0.56216
 H447 H 1.00123 0.73633 0.58115
 C448 C 1.02314 0.80161 0.65779
 C449 C 0.97449 0.69540 0.66250
 C450 C 1.04787 0.72425 0.58744
 C451 C 0.94052 0.76090 0.59064
 C452 C 0.50535 0.73804 0.36494
 H453 H 0.51253 0.75241 0.36570
 C454 C 0.51235 0.72302 0.35326
 H455 H 0.52503 0.72593 0.34514
 C456 C 0.48060 0.71664 0.37537
 H457 H 0.46843 0.71410 0.38426
 C458 C 0.48712 0.70120 0.36391
 H459 H 0.47961 0.68701 0.36381
 N460 N 0.48967 0.73466 0.37558
 C461 C 0.46609 0.79181 0.38674
 H462 H 0.46553 0.79171 0.40243
 C463 C 0.45957 0.80784 0.37680
 H464 H 0.45469 0.82006 0.38541
 C465 C 0.47427 0.77603 0.35725
 H466 H 0.47964 0.76342 0.34964
 C467 C 0.46794 0.79176 0.34666
 H468 H 0.46829 0.79045 0.33098
 Zn469 Zn 0.48178 0.75546 0.39189
 N470 N 0.47346 0.77645 0.37695
 C471 C 0.51075 0.78247 0.40736
 N472 N 0.50331 0.76383 0.40827
 C473 C 0.51222 0.75042 0.41919
 C474 C 0.52954 0.75548 0.42950
 C475 C 0.52797 0.78814 0.41741
 C476 C 0.44413 0.74230 0.39580
 C477 C 0.42780 0.73584 0.40506
 C478 C 0.44576 0.73955 0.43589
 C479 C 0.46182 0.74594 0.42600
 N480 N 0.46076 0.74694 0.40628
 H481 H 0.50375 0.79283 0.39830
 H482 H 0.50620 0.73558 0.41934
 H483 H 0.53677 0.74444 0.43759
 H484 H 0.53372 0.80301 0.41633
 H485 H 0.44364 0.74354 0.38016
 H486 H 0.41471 0.73228 0.39641
 H487 H 0.44693 0.73843 0.45154
 H488 H 0.47509 0.75001 0.43408
 C489 C 0.46042 0.80820 0.35632
 C490 C 0.50322 0.70428 0.35267
 C491 C 0.42850 0.73424 0.42535
 C492 C 0.53781 0.77448 0.42836
 C493 C 0.37674 -0.01576 0.25880
 C494 C 0.36452 -0.02024 0.24003
 C495 C 0.35346 -0.00536 0.23438
 C496 C 0.35589 0.01311 0.24800
 C497 C 0.38847 0.00304 0.25448
 C498 C 0.37767 0.01834 0.24907
 C499 C 0.36254 -0.00917 0.27379
 C500 C 0.35162 0.00585 0.26830
 H501 H 0.36521 -0.03386 0.23155
 H502 H 0.34657 0.02505 0.24360
 H503 H 0.40391 0.00373 0.25402
 H504 H 0.36197 -0.01533 0.28805
 C505 C 0.09806 1.03669 0.75108
 C506 C 0.11087 1.04215 0.73440
 C507 C 0.12280 1.02792 0.72876
 C508 C 0.12046 1.00903 0.74018
 C509 C 0.08726 1.01768 0.74339
 C510 C 0.09889 1.00303 0.73795
 C511 C 0.11188 1.03022 0.76722
 C512 C 0.12353 1.01573 0.76170
 H513 H 0.10989 1.05588 0.72713
 H514 H 0.13010 0.99731 0.73585
 H515 H 0.07182 1.01614 0.74145
 H516 H 0.11219 1.03657 0.78190
 C517 C 0.60341 0.53839 0.24858
 C518 C 0.61679 0.54365 0.23226
 C519 C 0.62871 0.52923 0.22714
 C520 C 0.62605 0.51059 0.23875
 C521 C 0.59277 0.51933 0.24071
 C522 C 0.60459 0.50470 0.23578
 C523 C 0.61671 0.53207 0.26522
 C524 C 0.62850 0.51749 0.26025
 H525 H 0.61577 0.55695 0.22428
 H526 H 0.63573 0.49884 0.23452
 H527 H 0.57731 0.51752 0.23922
 H528 H 0.61660 0.53861 0.27981
 C529 C 0.88046 0.48130 0.75994
 C530 C 0.86826 0.47644 0.74122
 C531 C 0.85709 0.49116 0.73533
 C532 C 0.85940 0.50982 0.74871
 C533 C 0.89205 0.50008 0.75531
 C534 C 0.88114 0.51523 0.74970
 C535 C 0.86620 0.48798 0.77484
 C536 C 0.85518 0.50284 0.76911
 H537 H 0.86910 0.46276 0.73287
 H538 H 0.84996 0.52160 0.74414
 H539 H 0.90748 0.50078 0.75476
 H540 H 0.86563 0.48199 0.78917
 C541 C 0.25691 0.37937 -0.01643
 C542 C 0.23882 0.36615 -0.02080
 C543 C 0.23345 0.35516 -0.00569
 C544 C 0.24670 0.35849 0.01270
 C545 C 0.25208 0.39164 0.00182
 C546 C 0.24662 0.38079 0.01708
 C547 C 0.27213 0.36559 -0.00925
 C548 C 0.26695 0.35456 0.00583
 H549 H 0.23027 0.36655 -0.03428
 H550 H 0.24235 0.34931 0.02484
 H551 H 0.25193 0.40744 0.00242
 H552 H 0.28615 0.36512 -0.01538
 C553 C 0.74844 0.10161 1.03307
 C554 C 0.72990 0.11220 1.03710
 C555 C 0.72394 0.12385 1.02261
 C556 C 0.73713 0.12408 1.00530
 C557 C 0.74410 0.09074 1.01335
 C558 C 0.73798 0.10228 0.99874
 C559 C 0.76295 0.11813 1.02880
 C560 C 0.75727 0.12989 1.01430
 H561 H 0.72203 0.11103 1.05017
 H562 H 0.73212 0.13381 0.99379
 H563 H 0.74572 0.07511 1.01138
 H564 H 0.77701 0.11969 1.03613
 C565 C 0.25061 0.60309 0.53530
 C566 C 0.23344 0.61525 0.54057
 C567 C 0.22764 0.62754 0.52656
 C568 C 0.23949 0.62642 0.50823
 C569 C 0.24393 0.59243 0.51593
 C570 C 0.23802 0.60452 0.50169
 C571 C 0.26607 0.61809 0.52980
 C572 C 0.26047 0.63039 0.51577
 H573 H 0.22580 0.61331 0.55378
 H574 H 0.23474 0.63665 0.49706
 H575 H 0.24322 0.57668 0.51384
 H576 H 0.28058 0.61830 0.53608
 C577 C 0.76163 0.88048 0.47847
 C578 C 0.74211 0.86993 0.47360
 C579 C 0.73559 0.85849 0.48790
 C580 C 0.74931 0.85861 0.50599
 C581 C 0.75864 0.89188 0.49782
 C582 C 0.75216 0.88044 0.51221
 C583 C 0.77502 0.86423 0.48404
 C584 C 0.76876 0.85281 0.49842
 H585 H 0.73401 0.87176 0.46005
 H586 H 0.74416 0.84918 0.51762
 H587 H 0.75953 0.90766 0.49960
 H588 H 0.78902 0.86292 0.47802
 C589 C -0.01438 0.25694 0.39030
 C590 C -0.01823 0.23765 0.37840
 C591 C -0.00360 0.23237 0.36711
 C592 C 0.01380 0.24700 0.36873
 C593 C 0.00450 0.25370 0.40195
 C594 C 0.01925 0.24849 0.39068
 C595 C -0.00894 0.27199 0.37541
 C596 C 0.00587 0.26709 0.36426
 H597 H -0.03125 0.22863 0.37941
 H598 H 0.02580 0.24289 0.35955
 H599 H 0.00573 0.25351 0.41765
 H600 H -0.01606 0.28572 0.37425
 C601 C 1.03869 0.75144 0.09775
 C602 C 1.04301 0.73359 0.10973
 C603 C 1.02884 0.72807 0.12162
 C604 C 1.01140 0.74111 0.12054
 C605 C 1.01935 0.74568 0.08689
 C606 C 1.00508 0.74035 0.09883
 C607 C 1.03375 0.76740 0.11272
 C608 C 1.01939 0.76226 0.12453
 H609 H 1.05613 0.72579 0.10853
 H610 H 0.99981 0.73652 0.13014
 H611 H 1.01677 0.74602 0.07134
 H612 H 1.04071 0.78189 0.11329
 C613 C 0.53838 0.25360 0.60267
 C614 C 0.54301 0.23526 0.61380
 C615 C 0.52918 0.22927 0.62587
 C616 C 0.51176 0.24234 0.62582
 C617 C 0.51882 0.24813 0.59215
 C618 C 0.50489 0.24231 0.60427
 C619 C 0.53390 0.26899 0.61836
 C620 C 0.51984 0.26338 0.63033
 H621 H 0.55595 0.22735 0.61171
 H622 H 0.50041 0.23764 0.63563
 H623 H 0.51640 0.24731 0.57653
 H624 H 0.54079 0.28351 0.61921
 C625 C 0.48514 0.75972 0.88617
 C626 C 0.48057 0.74046 0.87443
 C627 C 0.49490 0.73455 0.86306
 C628 C 0.51275 0.74860 0.86440
 C629 C 0.50395 0.75589 0.89769
 C630 C 0.51841 0.75009 0.88631
 C631 C 0.49096 0.77448 0.87115
 C632 C 0.50548 0.76895 0.85988
 H633 H 0.46731 0.73189 0.87566
 H634 H 0.52451 0.74401 0.85513
 H635 H 0.50529 0.75577 0.91338
 H636 H 0.48440 0.78852 0.87006
 C637 C 0.45455 -0.15524 0.31729
 C638 C 0.44112 -0.14305 0.32530
 C639 C 0.43400 -0.14697 0.34346
 C640 C 0.44028 -0.16298 0.35365
 C641 C 0.45392 -0.17555 0.34588
 C642 C 0.46088 -0.17131 0.32740
 C643 C 0.43447 -0.12654 0.31494
 C644 C 0.42852 -0.11267 0.30661
 C645 C 0.42109 -0.09640 0.29726
 C646 C 0.41429 -0.08253 0.28963
 C647 C 0.40556 -0.06605 0.28095
 C648 C 0.38635 -0.06770 0.27428
 C649 C 0.37742 -0.05149 0.26687
 C650 C 0.38758 -0.03332 0.26574
 C651 C 0.40694 -0.03183 0.27265
 C652 C 0.41585 -0.04812 0.28008
 H653 H 0.46026 -0.15225 0.30325
 H654 H 0.42342 -0.13773 0.34972
 H655 H 0.43370 -0.16574 0.36727
 H656 H 0.47182 -0.17982 0.32087
 H657 H 0.37815 -0.08143 0.27514
 H658 H 0.36238 -0.05304 0.26229
 H659 H 0.41521 -0.01812 0.27300
 H660 H 0.43065 -0.04661 0.28554
 C661 C 0.94290 0.33754 0.82206
 C662 C 0.94658 0.35669 0.82963
 C663 C 0.95643 0.35988 0.84769
 C664 C 0.96243 0.34398 0.85824
 C665 C 0.95862 0.32466 0.85085
 C666 C 0.94889 0.32161 0.83257
 C667 C 0.93966 0.37303 0.81920
 C668 C 0.93351 0.38669 0.81069
 C669 C 0.92586 0.40264 0.80100
 C670 C 0.91888 0.41618 0.79297
 C671 C 0.90998 0.43223 0.78371
 C672 C 0.91968 0.45052 0.78325
 C673 C 0.91055 0.46638 0.77522
 C674 C 0.89158 0.46409 0.76726
 C675 C 0.88199 0.44558 0.76799
 C676 C 0.89115 0.42979 0.77600
 H677 H 0.93517 0.33490 0.80814
 H678 H 0.95935 0.37466 0.85368
 H679 H 0.97010 0.34680 0.87214
 H680 H 0.94554 0.30691 0.82662
 H681 H 0.93417 0.45264 0.78951
 H682 H 0.91827 0.48042 0.77597
 H683 H 0.86719 0.44341 0.76269
 H684 H 0.88339 0.41577 0.77655
 C685 C 0.01694 1.15247 0.84300
 C686 C 0.02502 1.15637 0.82522
 C687 C 0.02572 1.17553 0.81869
 C688 C 0.01853 1.19077 0.82998
 C689 C 0.01054 1.18704 0.84798
 C690 C 0.00973 1.16769 0.85431
 C691 C 0.03311 1.14080 0.81397
 C692 C 0.04016 1.12777 0.80480
 C693 C 0.04878 1.11252 0.79438
 C694 C 0.05648 1.09954 0.78577
 C695 C 0.06613 1.08409 0.77590
 C696 C 0.08480 1.08755 0.76989
 C697 C 0.09472 1.07232 0.76142
 C698 C 0.08607 1.05336 0.75847
 C699 C 0.06726 1.05005 0.76475
 C700 C 0.05737 1.06534 0.77326
 H701 H 0.01641 1.13771 0.84823
 H702 H 0.03192 1.17871 0.80493
 H703 H 0.01912 1.20546 0.82460
 H704 H 0.00389 1.16438 0.86820
 H705 H 0.09186 1.10193 0.77216
 H706 H 0.10941 1.07529 0.75758
 H707 H 0.06030 1.03562 0.76385
 H708 H 0.04304 1.06242 0.77821
 C709 C 0.51903 0.65376 0.33717
 C710 C 0.52606 0.65720 0.31882
 C711 C 0.52529 0.67592 0.31133
 C712 C 0.51767 0.69121 0.32223
 C713 C 0.51075 0.68794 0.34080
 C714 C 0.51142 0.66901 0.34810
 C715 C 0.53464 0.64166 0.30799
 C716 C 0.54213 0.62865 0.29921
 C717 C 0.55129 0.61345 0.28929
 C718 C 0.55946 0.60051 0.28114
 C719 C 0.56968 0.58514 0.27184
 C720 C 0.58734 0.58950 0.26382
 C721 C 0.59793 0.57450 0.25587
 C722 C 0.59086 0.55483 0.25540
 C723 C 0.57317 0.55064 0.26385
 C724 C 0.56260 0.56569 0.27181
 H725 H 0.51967 0.63934 0.34316
 H726 H 0.53069 0.67875 0.29713
 H727 H 0.51713 0.70556 0.31612
 H728 H 0.50645 0.66608 0.36244
 H729 H 0.59316 0.60447 0.26415
 H730 H 0.61193 0.57832 0.25062
 H731 H 0.56769 0.53570 0.26493
 H732 H 0.54913 0.56211 0.27838
 C733 C 0.53373 0.34900 0.19101
 C734 C 0.55059 0.35753 0.18416
 C735 C 0.56016 0.34789 0.16938
 C736 C 0.55273 0.32998 0.16121
 C737 C 0.53559 0.32145 0.16772
 C738 C 0.52628 0.33105 0.18288
 C739 C 0.55776 0.37649 0.19175
 C740 C 0.56375 0.39250 0.19772
 C741 C 0.57074 0.41137 0.20435
 C742 C 0.57668 0.42755 0.20982
 C743 C 0.58374 0.44693 0.21622
 C744 C 0.60062 0.44944 0.22794
 C745 C 0.60744 0.46826 0.23420
 C746 C 0.59745 0.48482 0.22881
 C747 C 0.58054 0.48216 0.21696
 C748 C 0.57375 0.46333 0.21071
 H749 H 0.52617 0.35638 0.20240
 H750 H 0.57325 0.35434 0.16400
 H751 H 0.56037 0.32282 0.14976
 H752 H 0.51295 0.32497 0.18804
 H753 H 0.60844 0.43685 0.23233
 H754 H 0.62031 0.46978 0.24358
 H755 H 0.57267 0.49463 0.21236
 H756 H 0.56071 0.46156 0.20157
 C757 C 0.05490 0.84709 0.67057
 C758 C 0.04497 0.85593 0.68557
 C759 C 0.02828 0.84666 0.69202
 C760 C 0.02137 0.82876 0.68328
 C761 C 0.03105 0.81997 0.66791
 C762 C 0.04801 0.82924 0.66181
 C763 C 0.05163 0.87481 0.69381
 C764 C 0.05730 0.89077 0.70024
 C765 C 0.06407 0.90958 0.70728
 C766 C 0.06999 0.92572 0.71295
 C767 C 0.07723 0.94504 0.71935
 C768 C 0.06700 0.95644 0.73229
 C769 C 0.07401 0.97528 0.73830
 C770 C 0.09135 0.98305 0.73139
 C771 C 0.10153 0.97135 0.71849
 C772 C 0.09450 0.95254 0.71249
 H773 H 0.06785 0.85411 0.66549
 H774 H 0.02045 0.85340 0.70358
 H775 H 0.00818 0.82209 0.68817
 H776 H 0.05594 0.82270 0.65022
 H777 H 0.05364 0.95076 0.73777
 H778 H 0.06596 0.98360 0.74861
 H779 H 0.11481 0.97669 0.71278
 H780 H 0.10253 0.94385 0.70243
 C781 C 0.95567 0.64459 0.67458
 C782 C 0.94901 0.64796 0.69325
 C783 C 0.95087 0.66680 0.70205
 C784 C 0.95929 0.68224 0.69216
 C785 C 0.96596 0.67901 0.67332
 C786 C 0.96407 0.65998 0.66468
 C787 C 0.94000 0.63204 0.70310
 C788 C 0.93240 0.61837 0.71078
 C789 C 0.92346 0.60200 0.71913
 C790 C 0.91581 0.58771 0.72571
 C791 C 0.90668 0.57031 0.73287
 C792 C 0.91674 0.55857 0.74563
 C793 C 0.90830 0.54095 0.75147
 C794 C 0.88967 0.53464 0.74446
 C795 C 0.87948 0.54702 0.73220
 C796 C 0.88796 0.56461 0.72638
 H797 H 0.95421 0.63009 0.66759
 H798 H 0.94577 0.66956 0.71651
 H799 H 0.96070 0.69667 0.69928
 H800 H 0.96873 0.65705 0.65008
 H801 H 0.93120 0.56290 0.75089
 H802 H 0.91646 0.53235 0.76149
 H803 H 0.86513 0.54314 0.72665
 H804 H 0.88000 0.57362 0.71653
 C805 C 0.44997 0.16995 0.20431
 C806 C 0.44730 0.15129 0.19521
 C807 C 0.45368 0.14793 0.17643
 C808 C 0.46264 0.16312 0.16673
 C809 C 0.46541 0.18195 0.17569
 C810 C 0.45896 0.18521 0.19461
 C811 C 0.43786 0.13551 0.20488
 C812 C 0.42996 0.12188 0.21235
 C813 C 0.42073 0.10549 0.22039
 C814 C 0.41289 0.09116 0.22667
 C815 C 0.40358 0.07367 0.23345
 C816 C 0.38495 0.06808 0.22658
 C817 C 0.37635 0.05038 0.23199
 C818 C 0.38633 0.03782 0.24423
 C819 C 0.40486 0.04401 0.25161
 C820 C 0.41342 0.06172 0.24618
 H821 H 0.44509 0.17271 0.21886
 H822 H 0.45160 0.13358 0.16921
 H823 H 0.46710 0.16020 0.15206
 H824 H 0.46102 0.19950 0.20195
 H825 H 0.37716 0.07725 0.21674
 H826 H 0.36208 0.04655 0.22613
 H827 H 0.41284 0.03523 0.26161
 H828 H 0.42782 0.06597 0.25172
 C829 C 0.33902 0.45513 -0.14042
 C830 C 0.32160 0.44434 -0.14350
 C831 C 0.31433 0.43988 -0.16249
 C832 C 0.32451 0.44606 -0.17839
 C833 C 0.34215 0.45672 -0.17545
 C834 C 0.34922 0.46130 -0.15628
 C835 C 0.31154 0.43734 -0.12715
 C836 C 0.30341 0.43119 -0.11338
 C837 C 0.29426 0.42362 -0.09723
 C838 C 0.28677 0.41677 -0.08342
 C839 C 0.27827 0.40807 -0.06695
 C840 C 0.27216 0.38831 -0.06813
 C841 C 0.26496 0.37943 -0.05187
 C842 C 0.26350 0.39018 -0.03412
 C843 C 0.26980 0.41011 -0.03312
 C844 C 0.27702 0.41896 -0.04946
 H845 H 0.34478 0.45864 -0.12577
 H846 H 0.30092 0.43144 -0.16502
 H847 H 0.31881 0.44211 -0.19295
 H848 H 0.36261 0.46972 -0.15354
 H849 H 0.27329 0.37966 -0.08153
 H850 H 0.26082 0.36396 -0.05305
 H851 H 0.26983 0.41889 -0.01976
 H852 H 0.28203 0.43421 -0.04832
 C853 C 0.81672 0.95230 0.33585
 C854 C 0.82698 0.94852 0.35315
 C855 C 0.84698 0.95116 0.35428
 C856 C 0.85673 0.95744 0.33818
 C857 C 0.84658 0.96117 0.32068
 C858 C 0.82645 0.95858 0.31970
 C859 C 0.81714 0.94137 0.36958
 C860 C 0.80923 0.93500 0.38338
 C861 C 0.80032 0.92707 0.39952
 C862 C 0.79298 0.91984 0.41323
 C863 C 0.78451 0.91063 0.42944
 C864 C 0.77759 0.89114 0.42739
 C865 C 0.77007 0.88180 0.44324
 C866 C 0.76915 0.89179 0.46147
 C867 C 0.77628 0.91144 0.46337
 C868 C 0.78382 0.92076 0.44744
 H869 H 0.80123 0.95029 0.33482
 H870 H 0.85507 0.94814 0.36754
 H871 H 0.87224 0.95899 0.33930
 H872 H 0.81824 0.96152 0.30650
 H873 H 0.77824 0.88307 0.41358
 H874 H 0.76512 0.86658 0.44134
 H875 H 0.77658 0.91966 0.47708
 H876 H 0.78938 0.93579 0.44924
 C877 C 0.83728 0.01342 1.14662
 C878 C 0.81900 0.02031 1.14935
 C879 C 0.81131 0.01979 1.16774
 C880 C 0.82196 0.01271 1.18344
 C881 C 0.84070 0.00602 1.18114
 C882 C 0.84801 0.00633 1.16225
 C883 C 0.80855 0.02875 1.13348
 C884 C 0.80011 0.03629 1.12027
 C885 C 0.79055 0.04566 1.10495
 C886 C 0.78260 0.05414 1.09207
 C887 C 0.77332 0.06486 1.07699
 C888 C 0.75591 0.07353 1.08034
 C889 C 0.74743 0.08505 1.06627
 C890 C 0.75632 0.08821 1.04854
 C891 C 0.77363 0.07891 1.04521
 C892 C 0.78207 0.06742 1.05932
 H893 H 0.84345 0.01394 1.13246
 H894 H 0.79708 0.02499 1.16999
 H895 H 0.81510 0.01212 1.19720
 H896 H 0.86242 0.00214 1.15946
 H897 H 0.74901 0.07162 1.09399
 H898 H 0.73409 0.09144 1.06975
 H899 H 0.78081 0.08088 1.03174
 H900 H 0.79558 0.06079 1.05656
 C901 C 0.33763 0.51801 0.65256
 C902 C 0.31968 0.52575 0.65548
 C903 C 0.31212 0.52568 0.67399
 C904 C 0.32253 0.51806 0.68957
 C905 C 0.34069 0.51043 0.68683
 C906 C 0.34807 0.51038 0.66811
 C907 C 0.30932 0.53436 0.63964
 C908 C 0.30086 0.54190 0.62644
 C909 C 0.29125 0.55114 0.61107
 C910 C 0.28333 0.55939 0.59801
 C911 C 0.27425 0.56967 0.58248
 C912 C 0.26814 0.58866 0.58601
 C913 C 0.26021 0.59909 0.57078
 C914 C 0.25793 0.59063 0.55176
 C915 C 0.26443 0.57155 0.54838
 C916 C 0.27237 0.56115 0.56366
 H917 H 0.34367 0.51810 0.63832
 H918 H 0.29824 0.53166 0.67641
 H919 H 0.31635 0.51808 0.70373
 H920 H 0.36211 0.50487 0.66558
 H921 H 0.26982 0.59555 0.60046
 H922 H 0.25615 0.61399 0.57383
 H923 H 0.26408 0.56471 0.53396
 H924 H 0.27743 0.54659 0.56070
 C925 C 0.19027 0.54884 0.34106
 C926 C 0.18114 0.54564 0.35847
 C927 C 0.16380 0.53459 0.35812
 C928 C 0.15548 0.52696 0.34047
 C929 C 0.16437 0.53031 0.32285
 C930 C 0.18196 0.54118 0.32334
 C931 C 0.18931 0.55383 0.37672
 C932 C 0.19573 0.56059 0.39222
 C933 C 0.20289 0.56836 0.41054
 C934 C 0.20882 0.57486 0.42631
 C935 C 0.21580 0.58245 0.44523
 C936 C 0.21393 0.57099 0.46150
 C937 C 0.22090 0.57821 0.47986
 C938 C 0.23000 0.59703 0.48224
 C939 C 0.23140 0.60854 0.46578
 C940 C 0.22443 0.60128 0.44743
 H941 H 0.20370 0.55739 0.34116
 H942 H 0.15665 0.53195 0.37150
 H943 H 0.14211 0.51836 0.34061
 H944 H 0.18907 0.54412 0.31001
 H945 H 0.20707 0.55646 0.46002
 H946 H 0.21890 0.56906 0.49215
 H947 H 0.23813 0.62303 0.46686
 H948 H 0.22587 0.61034 0.43495
 C949 C 0.66613 0.03725 0.85261
 C950 C 0.68548 0.04335 0.85417
 C951 C 0.69665 0.04203 0.83785
 C952 C 0.68850 0.03468 0.81996
 C953 C 0.66886 0.02854 0.81799
 C954 C 0.65790 0.02993 0.83481
 C955 C 0.69369 0.05102 0.87260
 C956 C 0.70010 0.05744 0.88821
 C957 C 0.70715 0.06494 0.90666
 C958 C 0.71286 0.07136 0.92251
 C959 C 0.71939 0.07902 0.94154
 C960 C 0.72616 0.09853 0.94412
 C961 C 0.73217 0.10609 0.96265
 C962 C 0.73163 0.09424 0.97894
 C963 C 0.72459 0.07463 0.97612
 C964 C 0.71858 0.06711 0.95757
 H965 H 0.65737 0.03802 0.86522
 H966 H 0.71166 0.04685 0.83888
 H967 H 0.69759 0.03465 0.80764
 H968 H 0.64307 0.02470 0.83468
 H969 H 0.72675 0.10793 0.93181
 H970 H 0.73731 0.12118 0.96401
 H971 H 0.72331 0.06511 0.98824
 H972 H 0.71315 0.05203 0.95578
 C973 C 0.69124 0.93285 0.66110
 C974 C 0.70014 0.94483 0.64778
 C975 C 0.69986 0.96524 0.65032
 C976 C 0.69040 0.97365 0.66587
 C977 C 0.68106 0.96173 0.67910
 C978 C 0.68179 0.94122 0.67668
 C979 C 0.70870 0.93619 0.63101
 C980 C 0.71542 0.92895 0.61671
 C981 C 0.72277 0.92048 0.59969
 C982 C 0.72862 0.91324 0.58494
 C983 C 0.73509 0.90461 0.56709
 C984 C 0.75091 0.91296 0.55813
 C985 C 0.75664 0.90501 0.54036
 C986 C 0.74657 0.88859 0.53134
 C987 C 0.73081 0.88021 0.54057
 C988 C 0.72512 0.88817 0.55831
 H989 H 0.69127 0.91704 0.65922
 H990 H 0.70669 0.97467 0.64010
 H991 H 0.69029 0.98947 0.66748
 H992 H 0.67453 0.93164 0.68644
 H993 H 0.75873 0.92570 0.56479
 H994 H 0.76896 0.91166 0.53372
 H995 H 0.72251 0.86783 0.53385
 H996 H 0.71277 0.88167 0.56505
 C997 C 0.16969 0.45459 0.14622
 C998 C 0.18797 0.44721 0.14888
 C999 C 0.19728 0.44857 0.16736
 C1000 C 0.18830 0.45727 0.18312
 C1001 C 0.16990 0.46476 0.18056
 C1002 C 0.16071 0.46328 0.16191
 C1003 C 0.19700 0.43820 0.13256
 C1004 C 0.20411 0.43076 0.11857
 C1005 C 0.21198 0.42216 0.10188
 C1006 C 0.21837 0.41492 0.08739
 C1007 C 0.22567 0.40644 0.06985
 C1008 C 0.23515 0.38880 0.07028
 C1009 C 0.24196 0.38046 0.05314
 C1010 C 0.23949 0.38970 0.03534
 C1011 C 0.22979 0.40739 0.03508
 C1012 C 0.22298 0.41568 0.05221
 H1013 H 0.16231 0.45354 0.13201
 H1014 H 0.21145 0.44292 0.16958
 H1015 H 0.19581 0.45833 0.19724
 H1016 H 0.14642 0.46855 0.15950
 H1017 H 0.23727 0.38147 0.08384
 H1018 H 0.24929 0.36691 0.05398
 H1019 H 0.22708 0.41468 0.02162
 H1020 H 0.21549 0.42924 0.05165
 C1021 C -0.14698 0.33837 0.43848
 C1022 C -0.14027 0.32396 0.45065
 C1023 C -0.14983 0.31979 0.46758
 C1024 C -0.16604 0.33003 0.47232
 C1025 C -0.17287 0.34460 0.46019
 C1026 C -0.16316 0.34863 0.44320
 C1027 C -0.12361 0.31348 0.44560
 C1028 C -0.10967 0.30499 0.44078
 C1029 C -0.09344 0.29540 0.43437
 C1030 C -0.07972 0.28752 0.42812
 C1031 C -0.06359 0.27854 0.41964
 C1032 C -0.04573 0.27885 0.42972
 C1033 C -0.02979 0.27143 0.42071
 C1034 C -0.03157 0.26339 0.40149
 C1035 C -0.04969 0.26323 0.39159
 C1036 C -0.06554 0.27060 0.40062
 H1037 H -0.13974 0.34165 0.42530
 H1038 H -0.14473 0.30868 0.47711
 H1039 H -0.17308 0.32677 0.48561
 H1040 H -0.16821 0.35956 0.43343
 H1041 H -0.04401 0.28530 0.44436
 H1042 H -0.01611 0.27274 0.42869
 H1043 H -0.05149 0.25780 0.37660
 H1044 H -0.07923 0.27055 0.39256
 C1045 C 0.35200 0.82424 0.96572
 C1046 C 0.36112 0.82867 0.94861
 C1047 C 0.35388 0.84299 0.93664
 C1048 C 0.33760 0.85288 0.94172
 C1049 C 0.32831 0.84855 0.95888
 C1050 C 0.33567 0.83410 0.97083
 C1051 C 0.37774 0.81840 0.94309
 C1052 C 0.39156 0.80996 0.93791
 C1053 C 0.40758 0.80029 0.93111
 C1054 C 0.42107 0.79224 0.92460
 C1055 C 0.43690 0.78296 0.91589
 C1056 C 0.43460 0.77511 0.89685
 C1057 C 0.45015 0.76726 0.88768
 C1058 C 0.46829 0.76683 0.89746
 C1059 C 0.47043 0.77483 0.91669
 C1060 C 0.45479 0.78273 0.92583
 H1061 H 0.35750 0.81318 0.97510
 H1062 H 0.36077 0.84644 0.92330
 H1063 H 0.33210 0.86371 0.93209
 H1064 H 0.32894 0.83060 0.98423
 H1065 H 0.42088 0.77545 0.88891
 H1066 H 0.44810 0.76186 0.87270
 H1067 H 0.48416 0.77571 0.92457
 H1068 H 0.45677 0.78909 0.94049
 C1069 C 1.16495 0.81714 0.00630
 C1070 C 1.16185 0.81823 0.02626
 C1071 C 1.17406 0.83016 0.03877
 C1072 C 1.18924 0.84109 0.03135
 C1073 C 1.19240 0.84024 0.01128
 C1074 C 1.18013 0.82807 -0.00116
 C1075 C 1.14588 0.80753 0.03394
 C1076 C 1.13247 0.79893 0.04069
 C1077 C 1.11676 0.78932 0.04905
 C1078 C 1.10336 0.78155 0.05663
 C1079 C 1.08744 0.77283 0.06626
 C1080 C 1.08916 0.76980 0.08621
 C1081 C 1.07343 0.76251 0.09595
 C1082 C 1.05563 0.75806 0.08595
 C1083 C 1.05418 0.76094 0.06574
 C1084 C 1.06998 0.76827 0.05602
 H1085 H 1.15558 0.80793 -0.00350
 H1086 H 1.17172 0.83119 0.05423
 H1087 H 1.19825 0.85053 0.04126
 H1088 H 1.18233 0.82694 -0.01664
 H1089 H 1.10257 0.77340 0.09432
 H1090 H 1.07504 0.76067 0.11149
 H1091 H 1.04096 0.75806 0.05726
 H1092 H 1.06849 0.77070 0.04057
 C1093 C 0.66254 0.31939 0.50833
 C1094 C 0.65977 0.32060 0.52836
 C1095 C 0.67255 0.33208 0.54069
 C1096 C 0.68800 0.34241 0.53304
 C1097 C 0.69086 0.34140 0.51292
 C1098 C 0.67799 0.32972 0.50064
 C1099 C 0.64369 0.31036 0.53631
 C1100 C 0.63025 0.30207 0.54334
 C1101 C 0.61460 0.29272 0.55204
 C1102 C 0.60133 0.28506 0.55993
 C1103 C 0.58568 0.27631 0.56994
 C1104 C 0.58867 0.27074 0.58912
 C1105 C 0.57336 0.26318 0.59931
 C1106 C 0.55477 0.26081 0.59046
 C1107 C 0.55194 0.26662 0.57111
 C1108 C 0.56732 0.27421 0.56094
 H1109 H 0.65273 0.31052 0.49866
 H1110 H 0.67048 0.33319 0.55620
 H1111 H 0.69747 0.35150 0.54283
 H1112 H 0.67994 0.32847 0.48512
 H1113 H 0.60278 0.27254 0.59632
 H1114 H 0.57599 0.25942 0.61432
 H1115 H 0.53793 0.26595 0.56382
 H1116 H 0.56482 0.27878 0.54618
 C1117 C 0.36066 0.17141 0.53845
 C1118 C 0.36121 0.18885 0.54982
 C1119 C 0.34408 0.19780 0.55399
 C1120 C 0.32645 0.18924 0.54692
 C1121 C 0.32577 0.17157 0.53565
 C1122 C 0.34310 0.16283 0.53140
 C1123 C 0.37938 0.19728 0.55738
 C1124 C 0.39482 0.20386 0.56362
 C1125 C 0.41309 0.21110 0.57081
 C1126 C 0.42884 0.21695 0.57685
 C1127 C 0.44779 0.22359 0.58394
 C1128 C 0.45759 0.23873 0.57483
 C1129 C 0.47618 0.24483 0.58142
 C1130 C 0.48520 0.23585 0.59723
 C1131 C 0.47523 0.22069 0.60632
 C1132 C 0.45664 0.21460 0.59970
 H1133 H 0.37383 0.16439 0.53508
 H1134 H 0.34434 0.21129 0.56283
 H1135 H 0.31336 0.19622 0.55058
 H1136 H 0.34307 0.14940 0.52250
 H1137 H 0.45087 0.24578 0.56262
 H1138 H 0.48341 0.25672 0.57429
 H1139 H 0.48189 0.21326 0.61830
 H1140 H 0.44923 0.20278 0.60678
 C1141 C 0.84305 0.69952 0.04938
 C1142 C 0.86013 0.69046 0.04527
 C1143 C 0.85951 0.67294 0.03402
 C1144 C 0.84192 0.66438 0.02705
 C1145 C 0.82464 0.67321 0.03127
 C1146 C 0.82539 0.69098 0.04239
 C1147 C 0.87837 0.69882 0.05272
 C1148 C 0.89391 0.70525 0.05880
 C1149 C 0.91238 0.71217 0.06571
 C1150 C 0.92833 0.71765 0.07147
 C1151 C 0.94754 0.72372 0.07818
 C1152 C 0.96310 0.71858 0.06716
 C1153 C 0.98184 0.72405 0.07380
 C1154 C 0.98524 0.73471 0.09160
 C1155 C 0.96952 0.73989 0.10253
 C1156 C 0.95078 0.73441 0.09586
 H1157 H 0.84337 0.71307 0.05812
 H1158 H 0.87265 0.66583 0.03069
 H1159 H 0.84184 0.65089 0.01826
 H1160 H 0.81231 0.69803 0.04600
 H1161 H 0.96076 0.71022 0.05351
 H1162 H 0.99365 0.71961 0.06519
 H1163 H 0.97165 0.74837 0.11612
 H1164 H 0.93884 0.73848 0.10449
 C1165 C 0.66651 0.69005 0.93883
 C1166 C 0.65299 0.69844 0.95067
 C1167 C 0.65554 0.69820 0.97094
 C1168 C 0.67138 0.68930 0.97936
 C1169 C 0.68489 0.68050 0.96759
 C1170 C 0.68237 0.68115 0.94722
 C1171 C 0.63611 0.70656 0.94201
 C1172 C 0.62178 0.71298 0.93474
 C1173 C 0.60480 0.72010 0.92625
 C1174 C 0.59015 0.72587 0.91903
 C1175 C 0.57247 0.73241 0.91049
 C1176 C 0.56315 0.74790 0.91936
 C1177 C 0.54563 0.75380 0.91142
 C1178 C 0.53722 0.74423 0.89449
 C1179 C 0.54678 0.72879 0.88558
 C1180 C 0.56429 0.72292 0.89355
 H1181 H 0.66462 0.69005 0.92312
 H1182 H 0.64515 0.70465 0.98024
 H1183 H 0.67303 0.68923 0.99508
 H1184 H 0.69232 0.67424 0.93775
 H1185 H 0.56936 0.75535 0.93247
 H1186 H 0.53873 0.76589 0.91847
 H1187 H 0.54054 0.72090 0.87275
 H1188 H 0.57133 0.71083 0.88663
 C1189 C 0.15714 0.19843 0.47578
 C1190 C 0.15449 0.19879 0.45552
 C1191 C 0.16790 0.19035 0.44358
 C1192 C 0.18370 0.18125 0.45183
 C1193 C 0.18629 0.18044 0.47218
 C1194 C 0.17293 0.18933 0.48407
 C1195 C 0.13755 0.20694 0.44697
 C1196 C 0.12315 0.21329 0.43975
 C1197 C 0.10609 0.22024 0.43125
 C1198 C 0.09135 0.22579 0.42397
 C1199 C 0.07358 0.23199 0.41529
 C1200 C 0.06569 0.22235 0.39831
 C1201 C 0.04811 0.22786 0.39019
 C1202 C 0.03817 0.24308 0.39900
 C1203 C 0.04628 0.25281 0.41598
 C1204 C 0.06389 0.24729 0.42406
 H1205 H 0.14685 0.20492 0.48517
 H1206 H 0.16593 0.19044 0.42787
 H1207 H 0.19355 0.17430 0.44226
 H1208 H 0.17464 0.18914 0.49978
 H1209 H 0.07301 0.21041 0.39147
 H1210 H 0.04210 0.21985 0.37732
 H1211 H 0.03906 0.26473 0.42296
 H1212 H 0.06987 0.25486 0.43721
 C1213 C 0.55689 0.08391 0.71107
 C1214 C 0.56516 0.09537 0.69693
 C1215 C 0.58270 0.09034 0.68946
 C1216 C 0.59212 0.07414 0.69624
 C1217 C 0.58412 0.06268 0.71065
 C1218 C 0.56630 0.06761 0.71787
 C1219 C 0.55606 0.11251 0.69009
 C1220 C 0.54943 0.12709 0.68369
 C1221 C 0.54287 0.14427 0.67531
 C1222 C 0.53837 0.15890 0.66731
 C1223 C 0.53442 0.17615 0.65670
 C1224 C 0.54048 0.17723 0.63765
 C1225 C 0.53840 0.19437 0.62755
 C1226 C 0.53024 0.21078 0.63636
 C1227 C 0.52354 0.20940 0.65526
 C1228 C 0.52573 0.19218 0.66544
 H1229 H 0.54331 0.08767 0.71695
 H1230 H 0.58919 0.09904 0.67844
 H1231 H 0.60565 0.07054 0.69016
 H1232 H 0.55987 0.05916 0.72908
 H1233 H 0.54716 0.16491 0.63071
 H1234 H 0.54325 0.19478 0.61282
 H1235 H 0.51722 0.22181 0.66238
 H1236 H 0.52103 0.19151 0.68021
 C1237 C 1.05255 0.57898 0.19619
 C1238 C 1.05748 0.59793 0.20376
 C1239 C 1.07098 0.60060 0.21936
 C1240 C 1.07994 0.58449 0.22699
 C1241 C 1.07556 0.56545 0.21909
 C1242 C 1.06149 0.56281 0.20385
 C1243 C 1.05002 0.61476 0.19452
 C1244 C 1.04469 0.62901 0.18637
 C1245 C 1.03952 0.64576 0.17628
 C1246 C 1.03603 0.65998 0.16713
 C1247 C 1.03302 0.67676 0.15551
 C1248 C 1.02392 0.69316 0.16295
 C1249 C 1.02222 0.70980 0.15180
 C1250 C 1.02977 0.71025 0.13320
 C1251 C 1.03850 0.69352 0.12573
 C1252 C 1.04012 0.67695 0.13682
 H1253 H 1.04224 0.57676 0.18400
 H1254 H 1.07495 0.61520 0.22530
 H1255 H 1.09052 0.58695 0.23891
 H1256 H 1.05795 0.54836 0.19735
 H1257 H 1.01843 0.69320 0.17744
 H1258 H 1.01551 0.72247 0.15796
 H1259 H 1.04406 0.69322 0.11128
 H1260 H 1.04715 0.66433 0.13089
 C1261 C 0.95293 0.88167 0.22958
 C1262 C 0.95455 0.87874 0.20947
 C1263 C 0.94793 0.89278 0.19682
 C1264 C 0.93962 0.90961 0.20415
 C1265 C 0.93781 0.91269 0.22431
 C1266 C 0.94459 0.89854 0.23697
 C1267 C 0.96297 0.86144 0.20157
 C1268 C 0.96996 0.84735 0.19408
 C1269 C 0.97816 0.83146 0.18425
 C1270 C 0.98527 0.81856 0.17493
 C1271 C 0.99392 0.80416 0.16268
 C1272 C 1.00157 0.81001 0.14528
 C1273 C 1.00987 0.79640 0.13298
 C1274 C 1.01074 0.77663 0.13791
 C1275 C 1.00289 0.77080 0.15538
 C1276 C 0.99455 0.78452 0.16773
 H1277 H 0.95807 0.87093 0.23951
 H1278 H 0.94907 0.89064 0.18123
 H1279 H 0.93425 0.92003 0.19399
 H1280 H 0.94355 0.90058 0.25256
 H1281 H 1.00101 0.82513 0.14113
 H1282 H 1.01526 0.80135 0.11941
 H1283 H 1.00338 0.75574 0.15962
 H1284 H 0.98861 0.77982 0.18116
 C1285 C 0.43757 0.37442 0.73001
 C1286 C 0.45288 0.37661 0.71768
 C1287 C 0.45911 0.39538 0.71256
 C1288 C 0.44994 0.41188 0.71950
 C1289 C 0.43434 0.40985 0.73165
 C1290 C 0.42836 0.39093 0.73698
 C1291 C 0.46165 0.35968 0.70942
 C1292 C 0.46902 0.34593 0.70170
 C1293 C 0.47770 0.33046 0.69167
 C1294 C 0.48518 0.31794 0.68218
 C1295 C 0.49420 0.30401 0.66968
 C1296 C 0.50148 0.31035 0.65229
 C1297 C 0.50992 0.29716 0.63964
 C1298 C 0.51131 0.27735 0.64422
 C1299 C 0.50391 0.27103 0.66173
 C1300 C 0.49543 0.28432 0.67443
 H1301 H 0.43260 0.35997 0.73404
 H1302 H 0.47085 0.39724 0.70289
 H1303 H 0.45470 0.42619 0.71488
 H1304 H 0.41655 0.38889 0.74649
 H1305 H 0.50046 0.32550 0.64837
 H1306 H 0.51495 0.30246 0.62606
 H1307 H 0.50481 0.25591 0.66568
 H1308 H 0.48978 0.27925 0.68785
 C1309 C 0.46540 0.58006 0.77896
 C1310 C 0.45622 0.59413 0.79013
 C1311 C 0.43744 0.59027 0.79568
 C1312 C 0.42791 0.57241 0.79031
 C1313 C 0.43703 0.55803 0.77932
 C1314 C 0.45584 0.56211 0.77353
 C1315 C 0.46592 0.61239 0.79656
 C1316 C 0.47302 0.62784 0.80290
 C1317 C 0.48006 0.64598 0.81146
 C1318 C 0.48489 0.66136 0.81977
 C1319 C 0.48914 0.67941 0.83089
 C1320 C 0.48256 0.68119 0.84975
 C1321 C 0.48489 0.69899 0.86033
 C1322 C 0.49382 0.71539 0.85218
 C1323 C 0.50109 0.71335 0.83351
 C1324 C 0.49864 0.69545 0.82283
 H1325 H 0.47997 0.58287 0.77464
 H1326 H 0.43018 0.60105 0.80430
 H1327 H 0.41332 0.56989 0.79468
 H1328 H 0.46328 0.55129 0.76515
 H1329 H 0.47524 0.66888 0.85616
 H1330 H 0.47958 0.69996 0.87488
 H1331 H 0.50802 0.72574 0.82692
 H1332 H 0.50376 0.69425 0.80821
 C1333 C -0.03078 0.08084 0.27697
 C1334 C -0.03851 0.09274 0.29144
 C1335 C -0.05615 0.08730 0.29898
 C1336 C -0.06618 0.07021 0.29200
 C1337 C -0.05873 0.05826 0.27729
 C1338 C -0.04082 0.06363 0.26996
 C1339 C -0.02880 0.11075 0.29861
 C1340 C -0.02186 0.12608 0.30545
 C1341 C -0.01519 0.14414 0.31444
 C1342 C -0.01078 0.15948 0.32303
 C1343 C -0.00717 0.17750 0.33438
 C1344 C -0.01392 0.17878 0.35320
 C1345 C -0.01234 0.19653 0.36394
 C1346 C -0.00398 0.21334 0.35602
 C1347 C 0.00342 0.21184 0.33736
 C1348 C 0.00171 0.19399 0.32652
 H1349 H -0.01714 0.08494 0.27102
 H1350 H -0.06222 0.09633 0.31025
 H1351 H -0.07975 0.06628 0.29819
 H1352 H -0.03480 0.05476 0.25856
 H1353 H -0.02081 0.16613 0.35944
 H1354 H -0.01779 0.19712 0.37844
 H1355 H 0.00988 0.22456 0.33092
 H1356 H 0.00690 0.19319 0.31190
 C1357 C 0.06079 0.40235 0.29029
 C1358 C 0.06305 0.38525 0.27893
 C1359 C 0.07272 0.38623 0.26155
 C1360 C 0.08047 0.40423 0.25580
 C1361 C 0.07874 0.42139 0.26748
 C1362 C 0.06857 0.42029 0.28463
 C1363 C 0.05620 0.36675 0.28589
 C1364 C 0.05046 0.35187 0.29299
 C1365 C 0.04363 0.33536 0.30275
 C1366 C 0.03760 0.32223 0.31231
 C1367 C 0.03005 0.30794 0.32513
 C1368 C 0.02960 0.28781 0.32027
 C1369 C 0.02193 0.27435 0.33307
 C1370 C 0.01454 0.28097 0.35074
 C1371 C 0.01541 0.30120 0.35554
 C1372 C 0.02306 0.31453 0.34283
 H1373 H 0.05332 0.40177 0.30375
 H1374 H 0.07462 0.37306 0.25269
 H1375 H 0.08840 0.40463 0.24263
 H1376 H 0.06681 0.43329 0.29378
 H1377 H 0.03506 0.28254 0.30661
 H1378 H 0.02145 0.25889 0.32898
 H1379 H 0.01034 0.30677 0.36924
 H1380 H 0.02350 0.33005 0.34683
 C1381 C 0.57704 0.88499 0.75695
 C1382 C 0.56705 0.88452 0.77416
 C1383 C 0.56504 0.90185 0.78524
 C1384 C 0.57337 0.91950 0.77948
 C1385 C 0.58386 0.92007 0.76251
 C1386 C 0.58535 0.90270 0.75110
 C1387 C 0.55958 0.86630 0.78122
 C1388 C 0.55331 0.85167 0.78838
 C1389 C 0.54585 0.83546 0.79817
 C1390 C 0.53929 0.82260 0.80774
 C1391 C 0.53114 0.80868 0.82058
 C1392 C 0.52443 0.81564 0.83828
 C1393 C 0.51626 0.80268 0.85103
 C1394 C 0.51457 0.78245 0.84627
 C1395 C 0.52163 0.77545 0.82858
 C1396 C 0.52983 0.78853 0.81574
 H1397 H 0.57875 0.87164 0.74830
 H1398 H 0.55732 0.90167 0.79858
 H1399 H 0.57179 0.93268 0.78842
 H1400 H 0.59352 0.90269 0.73807
 H1401 H 0.52551 0.83117 0.84225
 H1402 H 0.51145 0.80853 0.86474
 H1403 H 0.52049 0.75998 0.82452
 H1404 H 0.53503 0.78298 0.80208
 C1405 C 0.70547 0.55528 0.08007
 C1406 C 0.70755 0.56392 0.09879
 C1407 C 0.71738 0.58203 0.10172
 C1408 C 0.72472 0.59177 0.08603
 C1409 C 0.72234 0.58373 0.06668
 C1410 C 0.71285 0.56492 0.06422
 C1411 C 0.69879 0.55499 0.11503
 C1412 C 0.69124 0.54869 0.12907
 C1413 C 0.68210 0.54271 0.14590
 C1414 C 0.67400 0.53881 0.16048
 C1415 C 0.66395 0.53565 0.17800
 C1416 C 0.66192 0.55149 0.19114
 C1417 C 0.65089 0.54922 0.20741
 C1418 C 0.64170 0.53105 0.21079
 C1419 C 0.64428 0.51501 0.19787
 C1420 C 0.65530 0.51732 0.18150
 H1421 H 0.69770 0.54128 0.07761
 H1422 H 0.71929 0.58878 0.11623
 H1423 H 0.73285 0.60532 0.08958
 H1424 H 0.70982 0.55788 0.05004
 H1425 H 0.66855 0.56573 0.18859
 H1426 H 0.64938 0.56176 0.21725
 H1427 H 0.63719 0.50090 0.19998
 H1428 H 0.65671 0.50499 0.17137
 C1429 C 0.19914 1.05797 0.58374
 C1430 C 0.20629 1.06304 0.60268
 C1431 C 0.22167 1.07676 0.60558
 C1432 C 0.22953 1.08582 0.58971
 C1433 C 0.22206 1.08132 0.57066
 C1434 C 0.20702 1.06700 0.56780
 C1435 C 0.19702 1.05536 0.61925
 C1436 C 0.18901 1.04982 0.63335
 C1437 C 0.17930 1.04433 0.65002
 C1438 C 0.17068 1.04045 0.66429
 C1439 C 0.15992 1.03679 0.68127
 C1440 C 0.15629 1.05241 0.69415
 C1441 C 0.14466 1.04939 0.70987
 C1442 C 0.13637 1.03067 0.71293
 C1443 C 0.14064 1.01494 0.70028
 C1444 C 0.15226 1.01800 0.68450
 H1445 H 0.18714 1.04746 0.58133
 H1446 H 0.22730 1.08083 0.62016
 H1447 H 0.24128 1.09657 0.59235
 H1448 H 0.20086 1.06336 0.55334
 H1449 H 0.16219 1.06701 0.69185
 H1450 H 0.14207 1.06176 0.71956
 H1451 H 0.13452 1.00042 0.70211
 H1452 H 0.15495 1.00580 0.67461
 C1453 C 0.22215 0.96003 0.88807
 C1454 C 0.21258 0.94820 0.87347
 C1455 C 0.21121 0.92796 0.87534
 C1456 C 0.21910 0.91951 0.89187
 C1457 C 0.22864 0.93116 0.90723
 C1458 C 0.23011 0.95172 0.90466
 C1459 C 0.20323 0.95689 0.85707
 C1460 C 0.19479 0.96414 0.84369
 C1461 C 0.18417 0.97267 0.82855
 C1462 C 0.17440 0.98004 0.81619
 C1463 C 0.16187 0.98896 0.80227
 C1464 C 0.14416 0.99530 0.80813
 C1465 C 0.13174 1.00401 0.79494
 C1466 C 0.13687 1.00653 0.77561
 C1467 C 0.15467 1.00003 0.76976
 C1468 C 0.16713 0.99131 0.78305
 H1469 H 0.22340 0.97577 0.88669
 H1470 H 0.20357 0.91866 0.86420
 H1471 H 0.21644 0.90391 0.89273
 H1472 H 0.23796 0.96171 0.91494
 H1473 H 0.13990 0.99346 0.82294
 H1474 H 0.11799 1.00850 0.79982
 H1475 H 0.15908 1.00196 0.75503
 H1476 H 0.18085 0.98647 0.77836
 C1477 C 0.72853 0.45771 0.38520
 C1478 C 0.71354 0.44808 0.37396
 C1479 C 0.70638 0.42970 0.37922
 C1480 C 0.71401 0.42103 0.39573
 C1481 C 0.72895 0.43064 0.40726
 C1482 C 0.73621 0.44905 0.40174
 C1483 C 0.70482 0.45736 0.35757
 C1484 C 0.69687 0.46503 0.34415
 C1485 C 0.68678 0.47394 0.32889
 C1486 C 0.67745 0.48155 0.31635
 C1487 C 0.66545 0.49067 0.30209
 C1488 C 0.64774 0.49745 0.30747
 C1489 C 0.63577 0.50620 0.29387
 C1490 C 0.64138 0.50833 0.27464
 C1491 C 0.65918 0.50141 0.26929
 C1492 C 0.67118 0.49264 0.28298
 H1493 H 0.73414 0.47198 0.38129
 H1494 H 0.69467 0.42219 0.37072
 H1495 H 0.70790 0.40701 0.39973
 H1496 H 0.74784 0.45672 0.41018
 H1497 H 0.64310 0.49588 0.32218
 H1498 H 0.62199 0.51099 0.29837
 H1499 H 0.66396 0.50301 0.25466
 H1500 H 0.68488 0.48742 0.27866
 C1501 C 0.76972 0.45159 0.58819
 C1502 C 0.78775 0.46113 0.59165
 C1503 C 0.80039 0.46265 0.57648
 C1504 C 0.79532 0.45412 0.55810
 C1505 C 0.77751 0.44390 0.55466
 C1506 C 0.76460 0.44307 0.56980
 C1507 C 0.79398 0.46784 0.61106
 C1508 C 0.79981 0.47270 0.62735
 C1509 C 0.80734 0.47754 0.64636
 C1510 C 0.81435 0.48096 0.66251
 C1511 C 0.82345 0.48421 0.68159
 C1512 C 0.83226 0.50245 0.68715
 C1513 C 0.84269 0.50494 0.70496
 C1514 C 0.84455 0.48918 0.71735
 C1515 C 0.83512 0.47108 0.71189
 C1516 C 0.82468 0.46862 0.69413
 H1517 H 0.75989 0.45018 0.59987
 H1518 H 0.81441 0.46995 0.57902
 H1519 H 0.80546 0.45519 0.54668
 H1520 H 0.75089 0.43508 0.56767
 H1521 H 0.83153 0.51459 0.67750
 H1522 H 0.84994 0.51892 0.70858
 H1523 H 0.83604 0.45873 0.72125
 H1524 H 0.81794 0.45442 0.68997
 C1525 C 0.26727 -0.04626 0.08736
 C1526 C 0.28488 -0.03586 0.09070
 C1527 C 0.29742 -0.03386 0.07550
 C1528 C 0.29269 -0.04277 0.05721
 C1529 C 0.27534 -0.05386 0.05389
 C1530 C 0.26249 -0.05516 0.06905
 C1531 C 0.29088 -0.02878 0.11007
 C1532 C 0.29652 -0.02365 0.12634
 C1533 C 0.30384 -0.01857 0.14538
 C1534 C 0.31071 -0.01504 0.16157
 C1535 C 0.31967 -0.01181 0.18072
 C1536 C 0.32856 0.00638 0.18636
 C1537 C 0.33901 0.00874 0.20418
 C1538 C 0.34080 -0.00710 0.21647
 C1539 C 0.33124 -0.02512 0.21096
 C1540 C 0.32078 -0.02745 0.19320
 H1541 H 0.25753 -0.04803 0.09906
 H1542 H 0.31111 -0.02589 0.07794
 H1543 H 0.30275 -0.04131 0.04575
 H1544 H 0.24913 -0.06378 0.06702
 H1545 H 0.32791 0.01856 0.17675
 H1546 H 0.34633 0.02267 0.20786
 H1547 H 0.33209 -0.03752 0.22025
 H1548 H 0.31398 -0.04161 0.18898
 C1549 C 0.28546 0.09168 0.39515
 C1550 C 0.27870 0.07276 0.38916
 C1551 C 0.26688 0.06199 0.40119
 C1552 C 0.26208 0.07002 0.41928
 C1553 C 0.26918 0.08888 0.42558
 C1554 C 0.28073 0.09970 0.41319
 C1555 C 0.28484 0.06416 0.37116
 C1556 C 0.29076 0.05711 0.35637
 C1557 C 0.29854 0.04886 0.33948
 C1558 C 0.30589 0.04164 0.32553
 C1559 C 0.31549 0.03267 0.30960
 C1560 C 0.31646 0.01226 0.30820
 C1561 C 0.32764 0.00348 0.29424
 C1562 C 0.33805 0.01502 0.28150
 C1563 C 0.33639 0.03547 0.28244
 C1564 C 0.32522 0.04425 0.29649
 H1565 H 0.29462 0.10015 0.38597
 H1566 H 0.26165 0.04728 0.39674
 H1567 H 0.25326 0.06131 0.42855
 H1568 H 0.28613 0.11440 0.41747
 H1569 H 0.30902 0.00315 0.31827
 H1570 H 0.32842 -0.01233 0.29365
 H1571 H 0.34440 0.04473 0.27296
 H1572 H 0.32467 0.06008 0.29753
 C1573 C 0.76736 0.56096 0.89916
 C1574 C 0.77909 0.57156 0.88691
 C1575 C 0.78533 0.59080 0.89229
 C1576 C 0.78023 0.59929 0.91000
 C1577 C 0.76882 0.58864 0.92264
 C1578 C 0.76218 0.56947 0.91691
 C1579 C 0.78573 0.56249 0.86936
 C1580 C 0.79210 0.55510 0.85496
 C1581 C 0.80043 0.54652 0.83854
 C1582 C 0.80823 0.53909 0.82500
 C1583 C 0.81833 0.52994 0.80953
 C1584 C 0.82821 0.54139 0.79643
 C1585 C 0.83968 0.53250 0.78273
 C1586 C 0.84149 0.51208 0.78212
 C1587 C 0.83102 0.50065 0.79491
 C1588 C 0.81953 0.50954 0.80852
 H1589 H 0.76254 0.54601 0.89518
 H1590 H 0.79441 0.59913 0.88293
 H1591 H 0.78527 0.61419 0.91385
 H1592 H 0.75348 0.56089 0.92640
 H1593 H 0.82749 0.55721 0.79718
 H1594 H 0.84775 0.54168 0.77322
 H1595 H 0.83193 0.48486 0.79458
 H1596 H 0.81198 0.50054 0.81860
 C1597 C 0.09903 0.71813 0.57255
 C1598 C 0.09664 0.70286 0.55841
 C1599 C 0.07816 0.69529 0.55293
 C1600 C 0.06217 0.70265 0.56191
 C1601 C 0.06452 0.71757 0.57660
 C1602 C 0.08311 0.72545 0.58157
 C1603 C 0.11332 0.69414 0.55071
 C1604 C 0.12761 0.68671 0.54522
 C1605 C 0.14466 0.67784 0.53991
 C1606 C 0.15939 0.67008 0.53635
 C1607 C 0.17711 0.66054 0.53332
 C1608 C 0.18126 0.65271 0.51494
 C1609 C 0.19801 0.64239 0.51256
 C1610 C 0.21069 0.63971 0.52859
 C1611 C 0.20660 0.64805 0.54688
 C1612 C 0.18994 0.65837 0.54921
 H1613 H 0.11325 0.72410 0.57693
 H1614 H 0.07615 0.68338 0.54208
 H1615 H 0.04806 0.69619 0.55789
 H1616 H 0.08535 0.73715 0.59261
 H1617 H 0.17141 0.65424 0.50255
 H1618 H 0.20066 0.63596 0.49835
 H1619 H 0.21624 0.64649 0.55943
 H1620 H 0.18692 0.66440 0.56349
 C1621 C 0.58968 0.19113 1.07677
 C1622 C 0.59480 0.19847 1.05893
 C1623 C 0.58417 0.21321 1.05059
 C1624 C 0.56862 0.22075 1.06024
 C1625 C 0.56364 0.21368 1.07838
 C1626 C 0.57424 0.19864 1.08642
 C1627 C 0.61124 0.19094 1.04965
 C1628 C 0.62523 0.18399 1.04290
 C1629 C 0.64174 0.17505 1.03623
 C1630 C 0.65583 0.16665 1.03165
 C1631 C 0.67247 0.15565 1.02760
 C1632 C 0.68838 0.16430 1.01896
 C1633 C 0.70505 0.15379 1.01680
 C1634 C 0.70598 0.13463 1.02347
 C1635 C 0.68973 0.12592 1.03158
 C1636 C 0.67313 0.13636 1.03363
 H1637 H 0.59774 0.17966 1.08332
 H1638 H 0.58801 0.21900 1.03678
 H1639 H 0.56081 0.23241 1.05376
 H1640 H 0.57056 0.19265 1.10019
 H1641 H 0.68805 0.17926 1.01431
 H1642 H 0.71739 0.16086 1.01058
 H1643 H 0.68988 0.11105 1.03648
 H1644 H 0.66091 0.12950 1.04030
 C1645 C 0.87689 0.21229 0.93536
 C1646 C 0.87473 0.21541 0.95526
 C1647 C 0.88934 0.22533 0.96663
 C1648 C 0.90615 0.23202 0.95817
 C1649 C 0.90886 0.22895 0.93793
 C1650 C 0.89360 0.21892 0.92678
 C1651 C 0.85782 0.20766 0.96405
 C1652 C 0.84376 0.20055 0.97109
 C1653 C 0.82751 0.19144 0.97903
 C1654 C 0.81391 0.18290 0.98556
 C1655 C 0.79814 0.17173 0.99309
 C1656 C 0.79750 0.16886 1.01308
 C1657 C 0.78360 0.15596 1.02011
 C1658 C 0.77021 0.14564 1.00721
 C1659 C 0.77042 0.14938 0.98729
 C1660 C 0.78433 0.16227 0.98027
 H1661 H 0.86575 0.20432 0.92644
 H1662 H 0.88777 0.22794 0.98210
 H1663 H 0.91646 0.24029 0.96771
 H1664 H 0.89461 0.21494 0.91154
 H1665 H 0.80811 0.17611 1.02316
 H1666 H 0.78362 0.15374 1.03561
 H1667 H 0.76053 0.14165 0.97696
 H1668 H 0.78474 0.16430 0.96474
 C1669 C 0.38342 0.70434 0.43590
 C1670 C 0.37845 0.71292 0.45367
 C1671 C 0.38995 0.72841 0.46236
 C1672 C 0.40631 0.73533 0.45325
 C1673 C 0.41134 0.72684 0.43531
 C1674 C 0.39973 0.71122 0.42679
 C1675 C 0.36170 0.70548 0.46294
 C1676 C 0.34770 0.69861 0.47030
 C1677 C 0.33149 0.68978 0.47855
 C1678 C 0.31791 0.68150 0.48538
 C1679 C 0.30216 0.67069 0.49339
 C1680 C 0.30254 0.66707 0.51326
 C1681 C 0.28849 0.65462 0.52069
 C1682 C 0.27390 0.64549 0.50829
 C1683 C 0.27314 0.64998 0.48852
 C1684 C 0.28723 0.66242 0.48110
 H1685 H 0.37472 0.69225 0.42911
 H1686 H 0.38625 0.73514 0.47614
 H1687 H 0.41487 0.74749 0.46008
 H1688 H 0.40338 0.70415 0.41317
 H1689 H 0.31400 0.67341 0.52293
 H1690 H 0.28928 0.65186 0.53608
 H1691 H 0.26226 0.64324 0.47858
 H1692 H 0.28682 0.66507 0.46566
 C1693 C 0.58841 0.79647 0.43600
 C1694 C 0.59357 0.79045 0.45464
 C1695 C 0.58056 0.77896 0.46475
 C1696 C 0.56239 0.77362 0.45624
 C1697 C 0.55705 0.77983 0.43757
 C1698 C 0.57034 0.79120 0.42752
 C1699 C 0.61215 0.79657 0.46319
 C1700 C 0.62784 0.80256 0.46930
 C1701 C 0.64623 0.81057 0.47521
 C1702 C 0.66184 0.81828 0.47916
 C1703 C 0.68019 0.82851 0.48255
 C1704 C 0.69551 0.81981 0.49226
 C1705 C 0.71354 0.82967 0.49432
 C1706 C 0.71643 0.84824 0.48652
 C1707 C 0.70084 0.85698 0.47716
 C1708 C 0.68290 0.84717 0.47518
 H1709 H 0.59838 0.80531 0.42801
 H1710 H 0.58439 0.77425 0.47921
 H1711 H 0.55242 0.76495 0.46436
 H1712 H 0.56683 0.79589 0.41298
 H1713 H 0.69360 0.80532 0.49795
 H1714 H 0.72531 0.82257 0.50152
 H1715 H 0.70247 0.87144 0.47138
 H1716 H 0.67115 0.85408 0.46768
 C1717 C 0.07523 0.30022 -0.03045
 C1718 C 0.09016 0.28720 -0.03130
 C1719 C 0.08678 0.26857 -0.04029
 C1720 C 0.06872 0.26321 -0.04891
 C1721 C 0.05381 0.27647 -0.04874
 C1722 C 0.05717 0.29491 -0.03908
 C1723 C 0.10928 0.29360 -0.02452
 C1724 C 0.12539 0.29946 -0.01971
 C1725 C 0.14429 0.30688 -0.01511
 C1726 C 0.16040 0.31370 -0.01211
 C1727 C 0.17953 0.32243 -0.00966
 C1728 C 0.19136 0.32260 -0.02556
 C1729 C 0.20920 0.33270 -0.02406
 C1730 C 0.21545 0.34282 -0.00660
 C1731 C 0.20379 0.34203 0.00954
 C1732 C 0.18588 0.33194 0.00798
 H1733 H 0.07769 0.31471 -0.02360
 H1734 H 0.09828 0.25843 -0.04120
 H1735 H 0.06667 0.24902 -0.05645
 H1736 H 0.04593 0.30535 -0.03850
 H1737 H 0.18659 0.31531 -0.03930
 H1738 H 0.21798 0.33284 -0.03666
 H1739 H 0.20812 0.34987 0.02309
 H1740 H 0.17678 0.33202 0.02035
 C1741 C 0.39365 0.28607 0.08837
 C1742 C 0.38713 0.27886 0.06986
 C1743 C 0.39842 0.26620 0.05921
 C1744 C 0.41627 0.26095 0.06700
 C1745 C 0.42307 0.26842 0.08547
 C1746 C 0.41145 0.28088 0.09614
 C1747 C 0.36928 0.28529 0.06157
 C1748 C 0.35458 0.29141 0.05480
 C1749 C 0.33778 0.29943 0.04689
 C1750 C 0.32389 0.30701 0.03998
 C1751 C 0.30802 0.31695 0.03140
 C1752 C 0.30636 0.31838 0.01118
 C1753 C 0.29247 0.32999 0.00283
 C1754 C 0.28007 0.34044 0.01460
 C1755 C 0.28125 0.33821 0.03483
 C1756 C 0.29522 0.32660 0.04319
 H1757 H 0.38504 0.29587 0.09674
 H1758 H 0.39356 0.26063 0.04481
 H1759 H 0.42494 0.25143 0.05840
 H1760 H 0.41611 0.28658 0.11055
 H1761 H 0.31617 0.31096 0.00190
 H1762 H 0.29168 0.33109 -0.01284
 H1763 H 0.27203 0.34609 0.04427
 H1764 H 0.29643 0.32568 0.05888
 C1765 C 0.89144 0.78219 0.58405
 C1766 C 0.88580 0.77535 0.56517
 C1767 C 0.89781 0.76327 0.55473
 C1768 C 0.91552 0.75829 0.56306
 C1769 C 0.92146 0.76544 0.58191
 C1770 C 0.90911 0.77727 0.59237
 C1771 C 0.86815 0.78165 0.55629
 C1772 C 0.85364 0.78773 0.54904
 C1773 C 0.83707 0.79578 0.54064
 C1774 C 0.82340 0.80346 0.53339
 C1775 C 0.80783 0.81363 0.52453
 C1776 C 0.80639 0.81487 0.50428
 C1777 C 0.79301 0.82692 0.49569
 C1778 C 0.78092 0.83796 0.50727
 C1779 C 0.78181 0.83590 0.52754
 C1780 C 0.79525 0.82385 0.53612
 H1781 H 0.88228 0.79155 0.59226
 H1782 H 0.89363 0.75798 0.54005
 H1783 H 0.92477 0.74926 0.55461
 H1784 H 0.91311 0.78272 0.60704
 H1785 H 0.81605 0.80706 0.49516
 H1786 H 0.79247 0.82801 0.48002
 H1787 H 0.77285 0.84438 0.53685
 H1788 H 0.79632 0.82310 0.55183
   
