data_POSCAR
  _audit_creation_date              2014-09-24
  _audit_creation_method            'ToBaCCo'
  _symmetry_space_group_name_H-M    'P1'
  _symmetry_Int_Tables_number       1
  _symmetry_cell_setting            triclinic
  loop_
  _symmetry_equiv_pos_as_xyz
 x,y,z
_cell_length_a 49.2693
_cell_length_b 49.1768
_cell_length_c 49.1226
_cell_angle_alpha 90.006100
_cell_angle_beta 90.047000
_cell_angle_gamma 89.988600
loop_
  _atom_site_label
  _atom_site_type_symbol
  _atom_site_fract_x
  _atom_site_fract_y
  _atom_site_fract_z
C1 C 0.20532 0.19189 0.23172
 C2 C 0.18324 0.19628 0.24918
 C3 C 0.16556 0.21833 0.24500
 C4 C 0.17021 0.23611 0.22308
 C5 C 0.19217 0.23194 0.20539
 C6 C 0.20980 0.20975 0.20971
 C7 C 0.22301 0.16994 0.23596
 C8 C 0.24508 0.16540 0.21838
 C9 C 0.24932 0.18326 0.19641
 C10 C 0.23189 0.20539 0.19200
 C11 C 0.23619 0.22319 0.17012
 C12 C 0.21865 0.24533 0.16558
 C13 C 0.19667 0.24952 0.18337
 H14 H 0.17995 0.18268 0.26623
 H15 H 0.15648 0.25299 0.21957
 H16 H 0.21975 0.15656 0.25319
 H17 H 0.26600 0.17973 0.18247
 H18 H 0.25342 0.22000 0.15679
 H19 H 0.18280 0.26627 0.17984
 C20 C 0.70626 0.69116 0.73220
 C21 C 0.68438 0.69572 0.74986
 C22 C 0.66661 0.71770 0.74563
 C23 C 0.67096 0.73520 0.72342
 C24 C 0.69272 0.73087 0.70555
 C25 C 0.71049 0.70880 0.70996
 C26 C 0.72400 0.66926 0.73645
 C27 C 0.74589 0.66458 0.71867
 C28 C 0.74995 0.68228 0.69654
 C29 C 0.73247 0.70436 0.69212
 C30 C 0.73654 0.72199 0.67004
 C31 C 0.71885 0.74397 0.66548
 C32 C 0.69697 0.74824 0.68332
 H33 H 0.68132 0.68232 0.76712
 H34 H 0.65714 0.75198 0.71982
 H35 H 0.72093 0.65601 0.75380
 H36 H 0.76651 0.67864 0.68249
 H37 H 0.75327 0.71842 0.65618
 H38 H 0.68344 0.76533 0.68009
 C39 C 0.29624 0.80892 0.73038
 C40 C 0.31868 0.80468 0.74748
 C41 C 0.33640 0.78269 0.74308
 C42 C 0.33152 0.76494 0.72117
 C43 C 0.30916 0.76891 0.70394
 C44 C 0.29137 0.79091 0.70863
 C45 C 0.27853 0.83080 0.73490
 C46 C 0.25564 0.83515 0.71805
 C47 C 0.25108 0.81673 0.69639
 C48 C 0.26874 0.79487 0.69157
 C49 C 0.26415 0.77700 0.66978
 C50 C 0.28191 0.75517 0.66475
 C51 C 0.30437 0.75128 0.68201
 H52 H 0.32216 0.81828 0.76450
 H53 H 0.34530 0.74818 0.71740
 H54 H 0.28223 0.84368 0.75238
 H55 H 0.23448 0.81986 0.68230
 H56 H 0.24653 0.77992 0.65688
 H57 H 0.31839 0.73473 0.67815
 C58 C 0.79530 0.30888 0.23150
 C59 C 0.81733 0.30434 0.24905
 C60 C 0.83581 0.28278 0.24448
 C61 C 0.83137 0.26578 0.22167
 C62 C 0.80934 0.27004 0.20407
 C63 C 0.79124 0.29166 0.20897
 C64 C 0.77734 0.33055 0.23612
 C65 C 0.75533 0.33528 0.21848
 C66 C 0.75134 0.31785 0.19612
 C67 C 0.76906 0.29605 0.19132
 C68 C 0.76499 0.27863 0.16908
 C69 C 0.78286 0.25690 0.16415
 C70 C 0.80504 0.25280 0.18171
 H71 H 0.82051 0.31854 0.26557
 H72 H 0.84428 0.24836 0.21797
 H73 H 0.78033 0.34358 0.25367
 H74 H 0.73467 0.32148 0.18218
 H75 H 0.74806 0.28213 0.15541
 H76 H 0.81874 0.23592 0.17817
 C77 C 0.79341 0.69275 0.26849
 C78 C 0.81532 0.69714 0.25081
 C79 C 0.83386 0.71868 0.25516
 C80 C 0.82962 0.73582 0.27790
 C81 C 0.80769 0.73173 0.29563
 C82 C 0.78953 0.71012 0.29095
 C83 C 0.77546 0.67102 0.26417
 C84 C 0.75363 0.66642 0.28200
 C85 C 0.74973 0.68402 0.30421
 C86 C 0.76748 0.70585 0.30876
 C87 C 0.76354 0.72346 0.33087
 C88 C 0.78148 0.74519 0.33557
 C89 C 0.80355 0.74912 0.31789
 H90 H 0.81837 0.68285 0.23433
 H91 H 0.84264 0.75320 0.28142
 H92 H 0.77874 0.65737 0.24715
 H93 H 0.73272 0.68085 0.31782
 H94 H 0.74670 0.72006 0.34465
 H95 H 0.81731 0.76600 0.32127
 C96 C 0.29598 0.19128 -0.23133
 C97 C 0.31797 0.19566 -0.24892
 C98 C 0.33539 0.21826 -0.24558
 C99 C 0.33013 0.23640 -0.22387
 C100 C 0.30848 0.23199 -0.20587
 C101 C 0.29127 0.20943 -0.20966
 C102 C 0.27849 0.16910 -0.23525
 C103 C 0.25647 0.16459 -0.21760
 C104 C 0.25219 0.18260 -0.19577
 C105 C 0.26935 0.20499 -0.19174
 C106 C 0.26499 0.22294 -0.16999
 C107 C 0.28224 0.24534 -0.16589
 C108 C 0.30389 0.24976 -0.18399
 H109 H 0.32065 0.18188 -0.26591
 H110 H 0.34355 0.25340 -0.21999
 H111 H 0.28181 0.15555 -0.25233
 H112 H 0.23561 0.17906 -0.18171
 H113 H 0.24841 0.21925 -0.15598
 H114 H 0.31704 0.26721 -0.18117
 C115 C 0.70542 0.30730 -0.23208
 C116 C 0.68333 0.30301 -0.24960
 C117 C 0.66477 0.28151 -0.24514
 C118 C 0.66917 0.26432 -0.22247
 C119 C 0.69129 0.26829 -0.20492
 C120 C 0.70945 0.28987 -0.20968
 C121 C 0.72340 0.32899 -0.23648
 C122 C 0.74539 0.33348 -0.21878
 C123 C 0.74944 0.31581 -0.19665
 C124 C 0.73165 0.29405 -0.19200
 C125 C 0.73574 0.27640 -0.16997
 C126 C 0.71779 0.25469 -0.16512
 C127 C 0.69556 0.25087 -0.18270
 H128 H 0.68017 0.31734 -0.26601
 H129 H 0.65616 0.24696 -0.21888
 H130 H 0.72003 0.34269 -0.25344
 H131 H 0.76658 0.31890 -0.18316
 H132 H 0.75314 0.27936 -0.15678
 H133 H 0.68133 0.23451 -0.17888
 C134 C 0.20309 0.80945 0.26833
 C135 C 0.18074 0.80532 0.25108
 C136 C 0.16298 0.78331 0.25525
 C137 C 0.16775 0.76545 0.27709
 C138 C 0.18996 0.76936 0.29453
 C139 C 0.20781 0.79134 0.29003
 C140 C 0.22081 0.83136 0.26406
 C141 C 0.24362 0.83559 0.28107
 C142 C 0.24802 0.81707 0.30268
 C143 C 0.23035 0.79520 0.30725
 C144 C 0.23477 0.77724 0.32901
 C145 C 0.21696 0.75543 0.33378
 C146 C 0.19463 0.75159 0.31636
 H147 H 0.17697 0.81945 0.23458
 H148 H 0.15440 0.74824 0.28031
 H149 H 0.21724 0.84435 0.24664
 H150 H 0.26454 0.82012 0.31689
 H151 H 0.25187 0.78048 0.34253
 H152 H 0.18103 0.73459 0.31966
 C153 C 0.44153 0.45564 0.48172
 C154 C 0.44608 0.43367 0.49935
 C155 C 0.46812 0.41595 0.49523
 C156 C 0.48569 0.42051 0.47312
 C157 C 0.48135 0.44235 0.45528
 C158 C 0.45921 0.46000 0.45958
 C159 C 0.41956 0.47329 0.48588
 C160 C 0.41488 0.49526 0.46814
 C161 C 0.43261 0.49943 0.44609
 C162 C 0.45472 0.48201 0.44173
 C163 C 0.47240 0.48623 0.41976
 C164 C 0.49452 0.46870 0.41527
 C165 C 0.49880 0.44677 0.43317
 H166 H 0.43217 0.43012 0.51606
 H167 H 0.50297 0.40724 0.46999
 H168 H 0.40628 0.47011 0.50317
 H169 H 0.42897 0.51604 0.43204
 H170 H 0.46912 0.50343 0.40635
 H171 H 0.51551 0.43287 0.42968
 C172 C -0.05936 -0.04603 0.98004
 C173 C -0.05520 -0.06843 0.99723
 C174 C -0.03309 -0.08609 0.99319
 C175 C -0.01522 -0.08119 0.97142
 C176 C -0.01917 -0.05892 0.95402
 C177 C -0.04122 -0.04116 0.95845
 C178 C -0.08131 -0.02837 0.98429
 C179 C -0.08558 -0.00548 0.96737
 C180 C -0.06704 -0.00092 0.94587
 C181 C -0.04512 -0.01856 0.94129
 C182 C -0.02710 -0.01396 0.91966
 C183 C -0.00520 -0.03170 0.91490
 C184 C -0.00138 -0.05412 0.93227
 H185 H -0.06939 -0.07230 1.01363
 H186 H 0.00207 -0.09445 0.96827
 H187 H -0.09428 -0.03206 1.00167
 H188 H -0.07009 0.01567 0.93172
 H189 H -0.02996 0.00364 0.90670
 H190 H 0.01520 -0.06813 0.92861
 C191 C 1.05747 0.54358 0.98325
 C192 C 1.05281 0.56548 1.00096
 C193 C 1.03030 0.58296 0.99740
 C194 C 1.01247 0.57778 0.97544
 C195 C 1.01719 0.55625 0.95731
 C196 C 1.03980 0.53913 0.96119
 C197 C 1.07966 0.52614 0.98732
 C198 C 1.08499 0.50438 0.96928
 C199 C 1.06723 0.50054 0.94699
 C200 C 1.04474 0.51757 0.94297
 C201 C 1.02701 0.51321 0.92104
 C202 C 1.00449 0.53029 0.91686
 C203 C 0.99976 0.55179 0.93514
 H204 H 1.06630 0.56809 1.01818
 H205 H 0.99551 0.59121 0.97145
 H206 H 1.09338 0.53045 1.00400
 H207 H 1.07002 0.48356 0.93324
 H208 H 1.03062 0.49630 0.90736
 H209 H 0.98273 0.56536 0.93190
 C210 C 0.55869 0.04543 0.48087
 C211 C 0.55448 0.06795 0.49790
 C212 C 0.53238 0.08554 0.49361
 C213 C 0.51451 0.08048 0.47187
 C214 C 0.51845 0.05805 0.45469
 C215 C 0.54055 0.04037 0.45928
 C216 C 0.58066 0.02783 0.48528
 C217 C 0.58501 0.00487 0.46847
 C218 C 0.56646 0.00012 0.44698
 C219 C 0.54449 0.01766 0.44228
 C220 C 0.52646 0.01288 0.42065
 C221 C 0.50453 0.03055 0.41573
 C222 C 0.50069 0.05310 0.43293
 H223 H 0.56819 0.07159 0.51479
 H224 H 0.49766 0.09417 0.46819
 H225 H 0.59363 0.03166 0.50266
 H226 H 0.56956 -0.01653 0.43292
 H227 H 0.52935 -0.00480 0.40780
 H228 H 0.48410 0.06707 0.42914
 C229 C -0.05828 0.04539 0.51930
 C230 C -0.05399 0.06748 0.50177
 C231 C -0.03184 0.08513 0.50569
 C232 C -0.01398 0.08042 0.52756
 C233 C -0.01815 0.05854 0.54539
 C234 C -0.04035 0.04090 0.54124
 C235 C -0.08031 0.02777 0.51530
 C236 C -0.08473 0.00573 0.53298
 C237 C -0.06680 0.00142 0.55484
 C238 C -0.04462 0.01880 0.55904
 C239 C -0.02665 0.01445 0.58078
 C240 C -0.00453 0.03199 0.58509
 C241 C -0.00042 0.05399 0.56728
 H242 H -0.06813 0.07113 0.48526
 H243 H 0.00339 0.09360 0.53055
 H244 H -0.09425 0.03139 0.49860
 H245 H -0.06993 -0.01571 0.56837
 H246 H -0.03010 -0.00237 0.59462
 H247 H 0.01677 0.06740 0.57031
 C248 C 0.44181 0.54567 0.01781
 C249 C 0.44615 0.56780 0.00033
 C250 C 0.46863 0.58533 0.00386
 C251 C 0.48664 0.58006 0.02566
 C252 C 0.48226 0.55825 0.04353
 C253 C 0.45986 0.54091 0.03954
 C254 C 0.41974 0.52809 0.01373
 C255 C 0.41529 0.50590 0.03125
 C256 C 0.43325 0.50152 0.05310
 C257 C 0.45549 0.51880 0.05731
 C258 C 0.47336 0.51439 0.07911
 C259 C 0.49556 0.53182 0.08344
 C260 C 0.49990 0.55366 0.06550
 H261 H 0.43247 0.57050 -0.01672
 H262 H 0.50351 0.59358 0.02970
 H263 H 0.40622 0.53147 -0.00336
 H264 H 0.42975 0.48480 0.06703
 H265 H 0.46975 0.49765 0.09299
 H266 H 0.51720 0.56695 0.06853
 C267 C 0.55866 -0.04487 0.01915
 C268 C 0.55412 -0.06685 0.00152
 C269 C 0.53203 -0.08452 0.00559
 C270 C 0.51445 -0.07993 0.02767
 C271 C 0.51879 -0.05809 0.04552
 C272 C 0.54095 -0.04046 0.04125
 C273 C 0.58066 -0.02724 0.01502
 C274 C 0.58532 -0.00525 0.03275
 C275 C 0.56755 -0.00104 0.05477
 C276 C 0.54541 -0.01844 0.05910
 C277 C 0.52767 -0.01415 0.08100
 C278 C 0.50552 -0.03165 0.08545
 C279 C 0.50129 -0.05362 0.06758
 H280 H 0.56805 -0.07042 -0.01517
 H281 H 0.49713 -0.09315 0.03078
 H282 H 0.59395 -0.03045 -0.00226
 H283 H 0.57117 0.01557 0.06880
 H284 H 0.53091 0.00307 0.09438
 H285 H 0.48456 -0.06750 0.07104
 C286 C 1.05803 0.45502 0.51785
 C287 C 1.05352 0.43302 0.50024
 C288 C 1.03198 0.41452 0.50468
 C289 C 1.01496 0.41892 0.52746
 C290 C 1.01917 0.44096 0.54510
 C291 C 1.04079 0.45905 0.54033
 C292 C 1.07970 0.47297 0.51335
 C293 C 1.08443 0.49495 0.53106
 C294 C 1.06697 0.49893 0.55336
 C295 C 1.04519 0.48118 0.55807
 C296 C 1.02775 0.48523 0.58026
 C297 C 1.00598 0.46738 0.58509
 C298 C 1.00192 0.44523 0.56742
 H299 H 1.06774 0.42986 0.48376
 H300 H 0.99757 0.40598 0.53106
 H301 H 1.09274 0.47000 0.49584
 H302 H 1.07059 0.51559 0.56734
 H303 H 1.03089 0.50256 0.59353
 H304 H 0.98550 0.43107 0.57123
 C305 C 0.41745 0.01183 0.21517
 H306 H 0.41945 0.02935 0.22835
 C307 C 0.43537 0.00828 0.19345
 H308 H 0.45099 0.02333 0.18980
 C309 C 0.39461 -0.02908 0.20398
 H310 H 0.37906 -0.04388 0.20840
 C311 C 0.41194 -0.03331 0.18191
 H312 H 0.40949 -0.05137 0.16953
 N313 N 0.39741 -0.00660 0.21987
 C314 C 0.33178 0.03502 0.26225
 H315 H 0.32941 0.02182 0.27970
 C316 C 0.31416 0.05695 0.25854
 H317 H 0.29841 0.06073 0.27342
 C318 C 0.35527 0.04606 0.22164
 H319 H 0.37101 0.04151 0.20706
 C320 C 0.33823 0.06833 0.21725
 H321 H 0.34106 0.08073 0.19926
 Zn322 Zn 0.37438 -0.00055 0.25013
 N323 N 0.35194 0.03010 0.24401
 C324 C 0.39399 0.02769 0.29670
 N325 N 0.39682 0.00516 0.28089
 C326 C 0.41648 -0.01356 0.28603
 C327 C 0.43415 -0.01015 0.30801
 C328 C 0.41110 0.03181 0.31901
 C329 C 0.33238 -0.03659 0.23664
 C330 C 0.31462 -0.05843 0.24013
 C331 C 0.33567 -0.06757 0.28360
 C332 C 0.35310 -0.04562 0.27923
 N333 N 0.35136 -0.03083 0.25591
 H334 H 0.37862 0.04262 0.29198
 H335 H 0.41843 -0.03116 0.27296
 H336 H 0.44953 -0.02538 0.31194
 H337 H 0.40871 0.04996 0.33125
 H338 H 0.33116 -0.02422 0.21847
 H339 H 0.30004 -0.06300 0.22427
 H340 H 0.33719 -0.07886 0.30246
 H341 H 0.36782 -0.04031 0.29464
 C342 C 0.31734 0.07399 0.23583
 C343 C 0.43262 -0.01447 0.17641
 C344 C 0.31615 -0.07431 0.26386
 C345 C 0.43152 0.01277 0.32485
 C346 C 0.08380 -0.01272 0.71427
 H347 H 0.08174 -0.03044 0.72717
 C348 C 0.06612 -0.00896 0.69237
 H349 H 0.05032 -0.02381 0.68871
 C350 C 0.10633 0.02863 0.70420
 H351 H 0.12184 0.04337 0.70903
 C352 C 0.08916 0.03315 0.68203
 H353 H 0.09205 0.05117 0.66971
 N354 N 0.10351 0.00586 0.71966
 C355 C 0.16767 -0.03682 0.76345
 H356 H 0.16902 -0.02456 0.78170
 C357 C 0.18527 -0.05877 0.75980
 H358 H 0.19984 -0.06353 0.77559
 C359 C 0.14680 -0.04543 0.72085
 H360 H 0.13209 -0.03991 0.70550
 C361 C 0.16405 -0.06750 0.71631
 H362 H 0.16242 -0.07867 0.69739
 Zn363 Zn 0.12599 -0.00032 0.75031
 N364 N 0.14870 -0.03079 0.74425
 C365 C 0.10557 -0.02903 0.79627
 N366 N 0.10299 -0.00636 0.78060
 C367 C 0.08322 0.01229 0.78557
 C368 C 0.06535 0.00877 0.80734
 C369 C 0.08828 -0.03325 0.81836
 C370 C 0.16891 0.03489 0.73833
 C371 C 0.18675 0.05662 0.74214
 C372 C 0.16294 0.06792 0.78361
 C373 C 0.14568 0.04584 0.77911
 N374 N 0.14876 0.03004 0.75660
 H375 H 0.12091 -0.04399 0.79163
 H376 H 0.08138 0.02995 0.77257
 H377 H 0.04994 0.02399 0.81119
 H378 H 0.09054 -0.05146 0.83054
 H379 H 0.17109 0.02181 0.72076
 H380 H 0.20249 0.06036 0.72723
 H381 H 0.16029 0.08022 0.80170
 H382 H 0.12995 0.04134 0.79372
 C383 C 0.18358 -0.07449 0.73597
 C384 C 0.06867 0.01424 0.67586
 C385 C 0.18380 0.07352 0.76498
 C386 C 0.06786 -0.01419 0.82414
 C387 C 0.58226 0.48780 0.21399
 H388 H 0.57999 0.47025 0.22706
 C389 C 0.56473 0.49148 0.19194
 H390 H 0.54884 0.47672 0.18833
 C391 C 0.60519 0.52885 0.20358
 H392 H 0.62078 0.54352 0.20831
 C393 C 0.58818 0.53327 0.18128
 H394 H 0.59130 0.55113 0.16878
 N395 N 0.60214 0.50625 0.21925
 C396 C 0.66757 0.46502 0.26244
 H397 H 0.66970 0.47821 0.27994
 C398 C 0.68534 0.44319 0.25890
 H399 H 0.70099 0.43949 0.27395
 C400 C 0.64450 0.45388 0.22158
 H401 H 0.62886 0.45834 0.20685
 C402 C 0.66171 0.43172 0.21734
 H403 H 0.65912 0.41934 0.19929
 Zn404 Zn 0.62468 0.50023 0.24991
 N405 N 0.64752 0.46982 0.24401
 C406 C 0.60509 0.47179 0.29631
 N407 N 0.60184 0.49411 0.28027
 C408 C 0.58159 0.51231 0.28499
 C409 C 0.56383 0.50863 0.30682
 C410 C 0.58791 0.46743 0.31848
 C411 C 0.66718 0.53604 0.23781
 C412 C 0.68464 0.55808 0.24158
 C413 C 0.66102 0.56869 0.28333
 C414 C 0.64404 0.54642 0.27878
 N415 N 0.64721 0.53078 0.25616
 H416 H 0.62092 0.45726 0.29193
 H417 H 0.57929 0.52973 0.27174
 H418 H 0.54803 0.52350 0.31046
 H419 H 0.59070 0.44949 0.33095
 H420 H 0.66954 0.52299 0.22023
 H421 H 0.70058 0.56173 0.22686
 H422 H 0.65783 0.58116 0.30120
 H423 H 0.62836 0.54169 0.29337
 C424 C 0.68246 0.42615 0.23615
 C425 C 0.56759 0.51446 0.17518
 C426 C 0.68164 0.57481 0.26457
 C427 C 0.56696 0.48600 0.32396
 C428 C 0.91862 0.51120 0.71515
 H429 H 0.92079 0.52869 0.72833
 C430 C 0.93643 0.50752 0.69336
 H431 H 0.95212 0.52248 0.68966
 C432 C 0.89543 0.47046 0.70402
 H433 H 0.87973 0.45582 0.70847
 C434 C 0.91267 0.46609 0.68191
 H435 H 0.91004 0.44805 0.66955
 N436 N 0.89848 0.49290 0.71993
 C437 C 0.83260 0.53410 0.76229
 H438 H 0.83018 0.52082 0.77968
 C439 C 0.81493 0.55599 0.75859
 H440 H 0.79910 0.55966 0.77342
 C441 C 0.85627 0.54541 0.72187
 H442 H 0.87213 0.54100 0.70738
 C443 C 0.83917 0.56762 0.71747
 H444 H 0.84204 0.58009 0.69954
 Zn445 Zn 0.87558 0.49888 0.75029
 N446 N 0.85290 0.52935 0.74416
 C447 C 0.89449 0.52701 0.79720
 N448 N 0.89805 0.50485 0.78100
 C449 C 0.91837 0.48675 0.78579
 C450 C 0.93593 0.49040 0.80781
 C451 C 0.91145 0.53131 0.81958
 C452 C 0.83300 0.46333 0.73759
 C453 C 0.81533 0.44142 0.74115
 C454 C 0.83868 0.43044 0.78300
 C455 C 0.85585 0.45260 0.77867
 N456 N 0.85289 0.46837 0.75612
 H457 H 0.87860 0.54147 0.79278
 H458 H 0.92091 0.46945 0.77242
 H459 H 0.95184 0.47564 0.81147
 H460 H 0.90843 0.54912 0.83218
 H461 H 0.83081 0.47647 0.72006
 H462 H 0.79943 0.43797 0.72633
 H463 H 0.84169 0.41788 0.80084
 H464 H 0.87150 0.45715 0.79337
 C465 C 0.81817 0.57314 0.73597
 C466 C 0.93349 0.48477 0.67635
 C467 C 0.81806 0.42459 0.76411
 C468 C 0.93250 0.51288 0.82508
 C469 C 0.21645 0.41965 0.01090
 H470 H 0.23096 0.42329 0.02704
 C471 C 0.19467 0.43745 0.00720
 H472 H 0.19287 0.45494 0.02044
 C473 C 0.20211 0.39297 -0.02659
 H474 H 0.20515 0.37575 -0.03986
 C475 C 0.17983 0.41001 -0.03078
 H476 H 0.16572 0.40523 -0.04698
 N477 N 0.21976 0.39792 -0.00588
 C478 C 0.26247 0.33220 0.03513
 H479 H 0.27960 0.32951 0.02164
 C480 C 0.25875 0.31453 0.05706
 H481 H 0.27333 0.29842 0.06054
 C482 C 0.22268 0.35659 0.04694
 H483 H 0.20850 0.37281 0.04273
 C484 C 0.21828 0.33949 0.06920
 H485 H 0.20060 0.34267 0.08188
 Zn486 Zn 0.25037 0.37536 -0.00007
 N487 N 0.24461 0.35279 0.03057
 C488 C 0.29699 0.39475 0.02792
 N489 N 0.28077 0.39819 0.00577
 C490 C 0.28527 0.41865 -0.01230
 C491 C 0.30703 0.43647 -0.00863
 C492 C 0.31909 0.41199 0.03227
 C493 C 0.23854 0.33197 -0.03522
 C494 C 0.24230 0.31434 -0.05717
 C495 C 0.28293 0.33912 -0.06902
 C496 C 0.27842 0.35625 -0.04681
 N497 N 0.25635 0.35259 -0.03060
 H498 H 0.29280 0.37873 0.04235
 H499 H 0.27187 0.42110 -0.02959
 H500 H 0.31048 0.45245 -0.02339
 H501 H 0.33170 0.40906 0.05010
 H502 H 0.22145 0.32918 -0.02170
 H503 H 0.22804 0.29788 -0.06031
 H504 H 0.30036 0.34271 -0.08194
 H505 H 0.29260 0.37244 -0.04260
 C506 C 0.23643 0.31810 0.07446
 C507 C 0.17589 0.43273 -0.01385
 C508 C 0.26473 0.31782 -0.07448
 C509 C 0.32432 0.43318 0.01386
 C510 C 0.71513 0.08171 -0.01148
 H511 H 0.72808 0.07947 -0.02911
 C512 C 0.69335 0.06397 -0.00761
 H513 H 0.68944 0.04825 -0.02255
 C514 C 0.70454 0.10502 0.02939
 H515 H 0.70920 0.12075 0.04399
 C516 C 0.68242 0.08787 0.03394
 H517 H 0.67025 0.09059 0.05208
 N518 N 0.72018 0.10186 0.00679
 C519 C 0.76256 0.16688 -0.03571
 H520 H 0.78031 0.16893 -0.02288
 C521 C 0.75869 0.18460 -0.05756
 H522 H 0.77372 0.20012 -0.06167
 C523 C 0.72140 0.14408 -0.04586
 H524 H 0.70669 0.12856 -0.04097
 C525 C 0.71682 0.16123 -0.06805
 H526 H 0.69855 0.15873 -0.08006
 Zn527 Zn 0.75048 0.12460 0.00026
 N528 N 0.74411 0.14703 -0.03037
 C529 C 0.79524 0.10367 -0.02951
 N530 N 0.78083 0.10183 -0.00598
 C531 C 0.78702 0.08289 0.01321
 C532 C 0.80887 0.06522 0.00939
 C533 C 0.81721 0.08636 -0.03420
 C534 C 0.73811 0.16747 0.03559
 C535 C 0.74190 0.18559 0.05714
 C536 C 0.78435 0.16321 0.06740
 C537 C 0.77978 0.14558 0.04559
 N538 N 0.75680 0.14780 0.03039
 H539 H 0.78959 0.11837 -0.04483
 H540 H 0.77497 0.08161 0.03157
 H541 H 0.81377 0.05064 0.02517
 H542 H 0.82820 0.08793 -0.05320
 H543 H 0.72027 0.16912 0.02284
 H544 H 0.72691 0.20129 0.06071
 H545 H 0.80252 0.16075 0.07955
 H546 H 0.79469 0.13022 0.04085
 C547 C 0.73559 0.18184 -0.07409
 C548 C 0.67660 0.06703 0.01529
 C549 C 0.76526 0.18356 0.07345
 C550 C 0.82434 0.06683 -0.01457
 C551 C 0.21407 0.58231 0.48693
 H552 H 0.22718 0.58007 0.46941
 C553 C 0.19223 0.56461 0.49059
 H554 H 0.18844 0.54890 0.47562
 C555 C 0.20315 0.60561 0.52772
 H556 H 0.20770 0.62133 0.54237
 C557 C 0.18099 0.58847 0.53208
 H558 H 0.16869 0.59118 0.55014
 N559 N 0.21900 0.60244 0.50527
 C560 C 0.26171 0.66775 0.46343
 H561 H 0.27934 0.66992 0.47640
 C562 C 0.25792 0.68543 0.44152
 H563 H 0.27268 0.70132 0.43787
 C564 C 0.22060 0.64495 0.45318
 H565 H 0.20595 0.62934 0.45792
 C566 C 0.21603 0.66214 0.43103
 H567 H 0.19808 0.65917 0.41866
 Zn568 Zn 0.24941 0.62513 0.49919
 N569 N 0.24328 0.64786 0.46870
 C570 C 0.29569 0.60551 0.47072
 N571 N 0.27980 0.60236 0.49313
 C572 C 0.28466 0.58222 0.51147
 C573 C 0.30651 0.56449 0.50786
 C574 C 0.31787 0.58836 0.46642
 C575 C 0.23726 0.66797 0.53469
 C576 C 0.24099 0.68567 0.55660
 C577 C 0.28241 0.66181 0.56775
 C578 C 0.27798 0.64468 0.54552
 N579 N 0.25553 0.64785 0.52969
 H580 H 0.29118 0.62122 0.45605
 H581 H 0.27151 0.57998 0.52895
 H582 H 0.31027 0.54879 0.52284
 H583 H 0.33023 0.59107 0.44840
 H584 H 0.21975 0.67023 0.52158
 H585 H 0.22606 0.70136 0.56046
 H586 H 0.30048 0.65911 0.58003
 H587 H 0.29257 0.62897 0.54091
 C588 C 0.23483 0.68273 0.42493
 C589 C 0.17531 0.56764 0.51338
 C590 C 0.26378 0.68263 0.57352
 C591 C 0.32350 0.56754 0.48514
 C592 C 0.71333 0.91742 0.51395
 H593 H 0.72546 0.91876 0.53227
 C594 C 0.69135 0.93497 0.51022
 H595 H 0.68646 0.94951 0.52602
 C596 C 0.70500 0.89660 0.47125
 H597 H 0.71063 0.88195 0.45590
 C598 C 0.68290 0.91379 0.46666
 H599 H 0.67181 0.91215 0.44770
 N600 N 0.71951 0.89850 0.49474
 C601 C 0.76252 0.83303 0.53637
 H602 H 0.78026 0.83134 0.52353
 C603 C 0.75891 0.81501 0.55803
 H604 H 0.77394 0.79934 0.56157
 C605 C 0.72092 0.85494 0.54655
 H606 H 0.70596 0.87028 0.54184
 C607 C 0.71656 0.83743 0.56848
 H608 H 0.69849 0.83996 0.58075
 Zn609 Zn 0.74992 0.87574 0.50095
 N610 N 0.74377 0.85266 0.53120
 C611 C 0.79565 0.89571 0.53018
 N612 N 0.78025 0.89851 0.50736
 C613 C 0.78554 0.91833 0.48882
 C614 C 0.80738 0.93603 0.49260
 C615 C 0.81776 0.91290 0.53472
 C616 C 0.73745 0.83358 0.46491
 C617 C 0.74115 0.81584 0.44305
 C618 C 0.78348 0.83847 0.43297
 C619 C 0.77902 0.85573 0.45510
 N620 N 0.75616 0.85316 0.47039
 H621 H 0.79088 0.88016 0.54493
 H622 H 0.77268 0.92040 0.47108
 H623 H 0.81102 0.95186 0.47773
 H624 H 0.83007 0.90995 0.55274
 H625 H 0.71968 0.83171 0.47769
 H626 H 0.72617 0.80018 0.43929
 H627 H 0.80157 0.84117 0.42077
 H628 H 0.79387 0.87110 0.46002
 C629 C 0.73570 0.81711 0.57450
 C630 C 0.67574 0.93325 0.48633
 C631 C 0.76441 0.81817 0.42668
 C632 C 0.82391 0.93340 0.51578
 C633 C 0.01213 0.21443 0.41736
 H634 H 0.02990 0.22722 0.41920
 C635 C 0.00842 0.19269 0.43524
 H636 H 0.02360 0.18864 0.45067
 C637 C -0.02926 0.20425 0.39496
 H638 H -0.04418 0.20909 0.37961
 C639 C -0.03366 0.18216 0.41227
 H640 H -0.05195 0.17017 0.40999
 N641 N -0.00647 0.21965 0.39756
 C642 C 0.03600 0.26242 0.33260
 H643 H 0.02330 0.28027 0.33071
 C644 C 0.05790 0.25874 0.31496
 H645 H 0.06175 0.27379 0.29936
 C646 C 0.04563 0.22070 0.35470
 H647 H 0.04064 0.20578 0.37002
 C648 C 0.06780 0.21625 0.33757
 H649 H 0.07995 0.19811 0.34033
 Zn650 Zn -0.00005 0.24997 0.37467
 N651 N 0.03042 0.24363 0.35210
 C652 C 0.02976 0.29469 0.39589
 N653 N 0.00621 0.28035 0.39747
 C654 C -0.01311 0.28668 0.41617
 C655 C -0.00943 0.30859 0.43385
 C656 C 0.03432 0.31674 0.41321
 C657 C -0.03647 0.23715 0.33273
 C658 C -0.05830 0.24096 0.31500
 C659 C -0.06639 0.28473 0.33579
 C660 C -0.04444 0.28006 0.35316
 N661 N -0.03021 0.25640 0.35159
 H662 H 0.04518 0.28895 0.38138
 H663 H -0.03150 0.27469 0.41722
 H664 H -0.02531 0.31360 0.44822
 H665 H 0.05332 0.32769 0.41184
 H666 H -0.02452 0.21872 0.33160
 H667 H -0.06329 0.22511 0.30054
 H668 H -0.07727 0.30380 0.33719
 H669 H -0.03869 0.29549 0.36768
 C670 C 0.07422 0.23542 0.31735
 C671 C -0.01467 0.17615 0.43272
 C672 C -0.07367 0.26498 0.31645
 C673 C 0.01454 0.32400 0.43249
 C674 C -0.01274 0.71440 0.08157
 H675 H -0.02909 0.72860 0.07780
 C676 C -0.00890 0.69229 0.06416
 H677 H -0.02224 0.68995 0.04681
 C678 C 0.02514 0.70118 0.10818
 H679 H 0.03851 0.70480 0.12521
 C680 C 0.02945 0.67856 0.09156
 H681 H 0.04586 0.66478 0.09649
 N682 N 0.00419 0.71845 0.10306
 C683 C -0.03819 0.76289 0.16681
 H684 H -0.02578 0.78098 0.16826
 C685 C -0.06010 0.75935 0.18446
 H686 H -0.06467 0.77509 0.19916
 C687 C -0.04729 0.72059 0.14558
 H688 H -0.04201 0.70539 0.13062
 C689 C -0.06931 0.71615 0.16290
 H690 H -0.08066 0.69739 0.16114
 Zn691 Zn -0.00193 0.74949 0.12500
 N692 N -0.03239 0.74377 0.14769
 C693 C -0.03060 0.79514 0.10410
 N694 N -0.00800 0.77945 0.10149
 C695 C 0.01044 0.78422 0.08146
 C696 C 0.00680 0.80585 0.06339
 C697 C -0.03493 0.81709 0.08661
 C698 C 0.03289 0.73863 0.16875
 C699 C 0.05460 0.74279 0.18655
 C700 C 0.06637 0.78324 0.16130
 C701 C 0.04435 0.77839 0.14405
 N702 N 0.02833 0.75618 0.14785
 H703 H -0.04539 0.79067 0.11965
 H704 H 0.02804 0.77120 0.07960
 H705 H 0.02189 0.80959 0.04782
 H706 H -0.05306 0.82931 0.08894
 H707 H 0.01959 0.72135 0.17155
 H708 H 0.05813 0.72837 0.20283
 H709 H 0.07881 0.80110 0.15806
 H710 H 0.04007 0.79247 0.12775
 C711 C -0.07602 0.73570 0.18266
 C712 C 0.01241 0.67389 0.06905
 C713 C 0.07174 0.76529 0.18286
 C714 C -0.01605 0.82271 0.06598
 C715 C 0.48814 0.21530 0.58145
 H716 H 0.47059 0.22835 0.57934
 C717 C 0.49196 0.19368 0.56341
 H718 H 0.47725 0.19032 0.54737
 C719 C 0.52913 0.20460 0.60431
 H720 H 0.54377 0.20907 0.62003
 C721 C 0.53372 0.18276 0.58676
 H722 H 0.55163 0.17032 0.58963
 N723 N 0.50644 0.22014 0.60161
 C724 C 0.46596 0.26085 0.66902
 H725 H 0.48016 0.27726 0.67253
 C726 C 0.44418 0.25701 0.68678
 H727 H 0.44210 0.27041 0.70413
 C728 C 0.45239 0.22286 0.64270
 H729 H 0.45575 0.20942 0.62566
 C730 C 0.43011 0.21851 0.65971
 H731 H 0.41632 0.20203 0.65505
 Zn732 Zn 0.50017 0.25023 0.62492
 N733 N 0.46963 0.24392 0.64746
 C734 C 0.47190 0.29698 0.60616
 N735 N 0.49416 0.28100 0.60266
 C736 C 0.51236 0.28601 0.58249
 C737 C 0.50861 0.30797 0.56488
 C738 C 0.46746 0.31928 0.58911
 C739 C 0.53647 0.23702 0.66692
 C740 C 0.55839 0.24065 0.68458
 C741 C 0.56715 0.28406 0.66331
 C742 C 0.54514 0.27953 0.64598
 N743 N 0.53048 0.25618 0.64788
 H744 H 0.45747 0.29241 0.62205
 H745 H 0.52977 0.27283 0.58007
 H746 H 0.52343 0.31178 0.54906
 H747 H 0.44952 0.33167 0.59201
 H748 H 0.52423 0.21880 0.66825
 H749 H 0.56313 0.22487 0.69919
 H750 H 0.57833 0.30293 0.66166
 H751 H 0.53967 0.29483 0.63119
 C752 C 0.42577 0.23564 0.68221
 C753 C 0.51496 0.17699 0.56600
 C754 C 0.57412 0.26443 0.68289
 C755 C 0.48593 0.32494 0.56810
 C756 C 0.51119 0.71642 0.91886
 H757 H 0.52743 0.73076 0.92253
 C758 C 0.50729 0.69460 0.93662
 H759 H 0.52050 0.69260 0.95412
 C760 C 0.47364 0.70255 0.89213
 H761 H 0.46041 0.70579 0.87491
 C762 C 0.46925 0.68023 0.90913
 H763 H 0.45294 0.66629 0.90431
 N764 N 0.49449 0.71997 0.89711
 C765 C 0.53663 0.76251 0.83201
 H766 H 0.52342 0.77988 0.82926
 C767 C 0.55867 0.75862 0.81461
 H768 H 0.56218 0.77304 0.79833
 C769 C 0.54735 0.72213 0.85605
 H770 H 0.54276 0.70786 0.87211
 C771 C 0.56964 0.71747 0.83914
 H772 H 0.58226 0.69980 0.84271
 Zn773 Zn 0.50074 0.75054 0.87452
 N774 N 0.53149 0.74446 0.85233
 C775 C 0.52881 0.79699 0.89431
 N776 N 0.50648 0.78103 0.89737
 C777 C 0.48813 0.78584 0.91748
 C778 C 0.49171 0.80766 0.93531
 C779 C 0.53308 0.81914 0.91157
 C780 C 0.46613 0.73863 0.83078
 C781 C 0.44453 0.74245 0.81277
 C782 C 0.43293 0.78366 0.83686
 C783 C 0.45477 0.77907 0.85439
 N784 N 0.47067 0.75667 0.85126
 H785 H 0.54346 0.79254 0.87860
 H786 H 0.47070 0.77264 0.91964
 H787 H 0.47676 0.81136 0.95103
 H788 H 0.55106 0.83153 0.90896
 H789 H 0.47943 0.72128 0.82841
 H790 H 0.44142 0.72797 0.79646
 H791 H 0.42022 0.80135 0.84002
 H792 H 0.45895 0.79344 0.87047
 C793 C 0.57555 0.73585 0.81806
 C794 C 0.48613 0.67601 0.93184
 C795 C 0.42753 0.76519 0.81572
 C796 C 0.51440 0.82469 0.93241
 C797 C 0.13598 0.24890 0.27310
 C798 C 0.14218 0.22273 0.26350
 C799 C 0.12590 0.20076 0.27168
 C800 C 0.10385 0.20487 0.28907
 C801 C 0.09765 0.23105 0.29879
 C802 C 0.11401 0.25301 0.29061
 H803 H 0.14841 0.26615 0.26741
 H804 H 0.12999 0.18043 0.26427
 H805 H 0.09139 0.18759 0.29455
 H806 H 0.11009 0.27335 0.29808
 C807 C 0.62748 0.70042 0.77332
 C808 C 0.64342 0.72233 0.76433
 C809 C 0.63698 0.74870 0.77323
 C810 C 0.61505 0.75308 0.79072
 C811 C 0.59902 0.73118 0.79965
 C812 C 0.60551 0.70479 0.79075
 H813 H 0.63172 0.67992 0.76647
 H814 H 0.64915 0.76593 0.76695
 H815 H 0.61087 0.77359 0.79756
 H816 H 0.59330 0.68754 0.79687
 C817 C 0.37588 0.80018 0.77024
 C818 C 0.35991 0.77819 0.76145
 C819 C 0.36645 0.75187 0.77047
 C820 C 0.38840 0.74765 0.78801
 C821 C 0.40434 0.76965 0.79688
 C822 C 0.39786 0.79596 0.78773
 H823 H 0.37157 0.82063 0.76329
 H824 H 0.35427 0.73459 0.76436
 H825 H 0.39259 0.72721 0.79502
 H826 H 0.41001 0.81327 0.79381
 C827 C -0.11781 0.26554 0.25306
 C828 C -0.14181 0.27833 0.26229
 C829 C -0.14276 0.28656 0.28986
 C830 C -0.12078 0.28215 0.30730
 C831 C -0.09706 0.26951 0.29786
 C832 C -0.09584 0.26127 0.27055
 H833 H -0.11521 0.25978 0.23198
 H834 H -0.16086 0.29538 0.29861
 H835 H -0.12261 0.28819 0.32842
 H836 H -0.07761 0.25201 0.26247
 C837 C -0.11970 0.73548 0.24632
 C838 C -0.14388 0.72295 0.23721
 C839 C -0.14514 0.71478 0.20965
 C840 C -0.12327 0.71901 0.19206
 C841 C -0.09933 0.73137 0.20137
 C842 C -0.09782 0.73950 0.22871
 H843 H -0.11691 0.74118 0.26740
 H844 H -0.16340 0.70614 0.20102
 H845 H -0.12536 0.71307 0.17094
 H846 H -0.07942 0.74850 0.23674
 C847 C 0.36736 0.24903 0.73103
 C848 C 0.35764 0.22258 0.73653
 C849 C 0.37083 0.20054 0.72369
 C850 C 0.39291 0.20477 0.70638
 C851 C 0.40232 0.23116 0.70085
 C852 C 0.38915 0.25322 0.71332
 H853 H 0.35747 0.26683 0.73933
 H854 H 0.36510 0.17973 0.72790
 H855 H 0.40297 0.18719 0.69777
 H856 H 0.39531 0.27391 0.70902
 C857 C 0.61826 0.26469 0.74629
 C858 C 0.64235 0.27729 0.73706
 C859 C 0.64336 0.28553 0.70951
 C860 C 0.62136 0.28127 0.69205
 C861 C 0.59754 0.26881 0.70148
 C862 C 0.59625 0.26061 0.72881
 H863 H 0.61563 0.25894 0.76737
 H864 H 0.66153 0.29422 0.70078
 H865 H 0.62327 0.28726 0.67093
 H866 H 0.57795 0.25153 0.73691
 C867 C 0.14224 0.78285 0.20851
 C868 C 0.13952 0.77890 0.23672
 C869 C 0.11426 0.77054 0.24707
 C870 C 0.09229 0.76611 0.22962
 C871 C 0.09504 0.77005 0.20142
 C872 C 0.12023 0.77853 0.19107
 H873 H 0.16153 0.78884 0.19984
 H874 H 0.11137 0.76776 0.26874
 H875 H 0.07301 0.75999 0.23822
 H876 H 0.12306 0.78135 0.16939
 C877 C 0.29174 0.14471 0.21880
 C878 C 0.26363 0.14197 0.22291
 C879 C 0.25337 0.11665 0.23135
 C880 C 0.27081 0.09465 0.23566
 C881 C 0.29887 0.09740 0.23144
 C882 C 0.30915 0.12264 0.22293
 H883 H 0.30036 0.16403 0.21275
 H884 H 0.23179 0.11371 0.23423
 H885 H 0.26228 0.07532 0.24183
 H886 H 0.33074 0.12544 0.21988
 C887 C 0.79254 0.64387 0.71895
 C888 C 0.76445 0.64115 0.72317
 C889 C 0.75420 0.61586 0.73169
 C890 C 0.77164 0.59384 0.73594
 C891 C 0.79969 0.59656 0.73162
 C892 C 0.80995 0.62180 0.72305
 H893 H 0.80114 0.66318 0.71283
 H894 H 0.73263 0.61295 0.73467
 H895 H 0.76311 0.57452 0.74216
 H896 H 0.83153 0.62459 0.71993
 C897 C 0.77257 0.37285 0.79882
 C898 C 0.76401 0.35678 0.77678
 C899 C 0.77329 0.36318 0.75051
 C900 C 0.79084 0.38513 0.74639
 C901 C 0.79942 0.40123 0.76844
 C902 C 0.79003 0.39485 0.79470
 H903 H 0.76540 0.36866 0.81922
 H904 H 0.76731 0.35093 0.73320
 H905 H 0.79803 0.38923 0.72598
 H906 H 0.79583 0.40712 0.81205
 C907 C 0.25258 -0.11798 0.26398
 C908 C 0.26159 -0.14219 0.27663
 C909 C 0.28909 -0.14349 0.28477
 C910 C 0.30667 -0.12163 0.28049
 C911 C 0.29744 -0.09764 0.26810
 C912 C 0.27020 -0.09610 0.25989
 H913 H 0.23157 -0.11514 0.25826
 H914 H 0.29766 -0.16179 0.29344
 H915 H 0.32772 -0.12375 0.28647
 H916 H 0.26226 -0.07767 0.25081
 C917 C 0.21023 -0.14372 0.71463
 C918 C 0.23777 -0.14258 0.72267
 C919 C 0.24694 -0.11846 0.73537
 C920 C 0.22943 -0.09652 0.73964
 C921 C 0.20215 -0.09790 0.73154
 C922 C 0.19276 -0.12178 0.71907
 H923 H 0.20155 -0.16194 0.70591
 H924 H 0.26798 -0.11573 0.74101
 H925 H 0.23749 -0.07816 0.74876
 H926 H 0.17168 -0.12377 0.71316
 C927 C 0.74665 0.38377 0.23215
 C928 C 0.73660 0.35850 0.22330
 C929 C 0.70853 0.35566 0.21892
 C930 C 0.69099 0.37759 0.22310
 C931 C 0.70107 0.40282 0.23191
 C932 C 0.72908 0.40565 0.23648
 H933 H 0.76820 0.38679 0.23527
 H934 H 0.70006 0.33636 0.21257
 H935 H 0.66944 0.37472 0.21979
 H936 H 0.73746 0.42497 0.24291
 C937 C 0.72661 0.62691 0.29953
 C938 C 0.73503 0.64310 0.27754
 C939 C 0.72573 0.63673 0.25126
 C940 C 0.70838 0.61464 0.24706
 C941 C 0.70000 0.59837 0.26904
 C942 C 0.70933 0.60478 0.29533
 H943 H 0.73379 0.63109 0.31995
 H944 H 0.73158 0.64908 0.23398
 H945 H 0.70120 0.61053 0.22663
 H946 H 0.70365 0.59239 0.31263
 C947 C 0.24800 0.11583 0.76948
 C948 C 0.23786 0.14119 0.77797
 C949 C 0.20976 0.14404 0.78212
 C950 C 0.19226 0.12207 0.77799
 C951 C 0.20242 0.09679 0.76943
 C952 C 0.23046 0.09391 0.76516
 H953 H 0.26957 0.11280 0.76654
 H954 H 0.20122 0.16341 0.78816
 H955 H 0.17069 0.12497 0.78107
 H956 H 0.23888 0.07455 0.75892
 C957 C 0.23154 0.25380 0.11683
 C958 C 0.22327 0.26401 0.14225
 C959 C 0.21942 0.29219 0.14517
 C960 C 0.22366 0.30972 0.12319
 C961 C 0.23197 0.29950 0.09782
 C962 C 0.23590 0.27135 0.09489
 H963 H 0.23423 0.23216 0.11376
 H964 H 0.21350 0.30076 0.16458
 H965 H 0.22084 0.33136 0.12615
 H966 H 0.24190 0.26284 0.07547
 C967 C 0.70125 0.77087 0.62586
 C968 C 0.72322 0.76251 0.64207
 C969 C 0.74935 0.77207 0.63584
 C970 C 0.75340 0.78977 0.61396
 C971 C 0.73143 0.79819 0.59772
 C972 C 0.70531 0.78844 0.60389
 H973 H 0.68095 0.76349 0.62996
 H974 H 0.76659 0.76624 0.64822
 H975 H 0.77370 0.79724 0.61006
 H976 H 0.68802 0.79409 0.59151
 C977 C 0.75100 0.77354 0.36500
 C978 C 0.77711 0.76382 0.35892
 C979 C 0.79903 0.77208 0.37525
 C980 C 0.79492 0.78965 0.39724
 C981 C 0.76880 0.79945 0.40331
 C982 C 0.74689 0.79120 0.38690
 H983 H 0.73380 0.76782 0.35252
 H984 H 0.81932 0.76460 0.37127
 H985 H 0.81215 0.79520 0.40974
 H986 H 0.72660 0.79873 0.39072
 C987 C 0.29975 0.27327 -0.12692
 C988 C 0.27774 0.26402 -0.14258
 C989 C 0.25141 0.27260 -0.13572
 C990 C 0.24719 0.29006 -0.11368
 C991 C 0.26920 0.29929 -0.09795
 C992 C 0.29553 0.29067 -0.10483
 H993 H 0.32022 0.26666 -0.13146
 H994 H 0.23410 0.26610 -0.14766
 H995 H 0.22671 0.29667 -0.10919
 H996 H 0.31287 0.29702 -0.09286
 C997 C 0.73136 0.24609 -0.11654
 C998 C 0.72229 0.23601 -0.14175
 C999 C 0.71760 0.20793 -0.14446
 C1000 C 0.72182 0.19038 -0.12249
 C1001 C 0.73100 0.20048 -0.09737
 C1002 C 0.73576 0.22851 -0.09464
 H1003 H 0.73471 0.26765 -0.11362
 H1004 H 0.71106 0.19944 -0.16371
 H1005 H 0.71833 0.16881 -0.12527
 H1006 H 0.74247 0.23690 -0.07539
 C1007 C 0.24778 0.72728 0.36315
 C1008 C 0.22157 0.73676 0.35706
 C1009 C 0.19976 0.72837 0.37344
 C1010 C 0.20407 0.71091 0.39545
 C1011 C 0.23028 0.70136 0.40155
 C1012 C 0.25209 0.70975 0.38512
 H1013 H 0.26491 0.73312 0.35065
 H1014 H 0.17940 0.73568 0.36949
 H1015 H 0.18691 0.70523 0.40798
 H1016 H 0.27245 0.70242 0.38900
 C1017 C 0.26803 0.74673 0.61625
 C1018 C 0.27706 0.73653 0.64142
 C1019 C 0.28154 0.70842 0.64409
 C1020 C 0.27723 0.69095 0.62207
 C1021 C 0.26821 0.70117 0.59693
 C1022 C 0.26359 0.72923 0.59428
 H1023 H 0.26484 0.76832 0.61338
 H1024 H 0.28805 0.69986 0.66332
 H1025 H 0.28059 0.66936 0.62481
 H1026 H 0.25701 0.73773 0.57503
 C1027 C 0.75216 0.22867 0.13482
 C1028 C 0.77831 0.23838 0.14075
 C1029 C 0.80012 0.23011 0.12431
 C1030 C 0.79587 0.21247 0.10242
 C1031 C 0.76973 0.20258 0.09655
 C1032 C 0.74792 0.21092 0.11300
 H1033 H 0.73504 0.23441 0.14738
 H1034 H 0.82043 0.23759 0.12818
 H1035 H 0.81303 0.20686 0.08986
 H1036 H 0.72761 0.20335 0.10932
 C1037 C 0.48129 0.36732 0.50378
 C1038 C 0.47275 0.39264 0.51395
 C1039 C 0.46860 0.39548 0.54214
 C1040 C 0.47281 0.37351 0.55969
 C1041 C 0.48142 0.34826 0.54949
 C1042 C 0.48565 0.34541 0.52135
 H1043 H 0.48419 0.36429 0.48214
 H1044 H 0.46247 0.41482 0.55069
 H1045 H 0.46974 0.37639 0.58133
 H1046 H 0.49190 0.32607 0.51288
 C1047 C -0.03316 0.89322 0.03994
 C1048 C -0.02861 0.89050 0.01181
 C1049 C -0.01972 0.86527 0.00167
 C1050 C -0.01549 0.84331 0.01925
 C1051 C -0.02023 0.84604 0.04731
 C1052 C -0.02910 0.87122 0.05746
 H1053 H -0.03950 0.91249 0.04849
 H1054 H -0.01644 0.86237 -0.01992
 H1055 H -0.00898 0.82404 0.01082
 H1056 H -0.03252 0.87401 0.07906
 C1057 C -0.00062 0.61500 0.02052
 C1058 C 0.02582 0.60523 0.01528
 C1059 C 0.04772 0.61846 0.02829
 C1060 C 0.04337 0.64069 0.04545
 C1061 C 0.01699 0.65018 0.05069
 C1062 C -0.00494 0.63692 0.03811
 H1063 H -0.01831 0.60507 0.01207
 H1064 H 0.06852 0.61268 0.02428
 H1065 H 0.06086 0.65080 0.05414
 H1066 H -0.02562 0.64313 0.04219
 C1067 C 0.50169 0.11546 0.52123
 C1068 C 0.52790 0.10913 0.51191
 C1069 C 0.54979 0.12541 0.52030
 C1070 C 0.54559 0.14749 0.53771
 C1071 C 0.51939 0.15375 0.54718
 C1072 C 0.49749 0.13749 0.53870
 H1073 H 0.48449 0.10304 0.51541
 H1074 H 0.57015 0.12126 0.51312
 H1075 H 0.56282 0.15988 0.54347
 H1076 H 0.47714 0.14149 0.54596
 C1077 C -0.01836 0.13368 0.49703
 C1078 C -0.02738 0.10847 0.48696
 C1079 C -0.03213 0.10576 0.45885
 C1080 C -0.02809 0.12774 0.44129
 C1081 C -0.01900 0.15286 0.45138
 C1082 C -0.01411 0.15559 0.47942
 H1083 H -0.01496 0.13662 0.51861
 H1084 H -0.03861 0.08651 0.45035
 H1085 H -0.03166 0.12497 0.41971
 H1086 H -0.00746 0.17483 0.48781
 C1087 C 0.45101 0.62083 0.97304
 C1088 C 0.47297 0.60768 0.98603
 C1089 C 0.49937 0.61753 0.98074
 C1090 C 0.50360 0.63940 0.96309
 C1091 C 0.48161 0.65251 0.95045
 C1092 C 0.45527 0.64299 0.95576
 H1093 H 0.43023 0.61501 0.97708
 H1094 H 0.51712 0.60768 0.98917
 H1095 H 0.52425 0.64567 0.95896
 H1096 H 0.43775 0.65300 0.94701
 C1097 C 0.53158 0.89514 0.95864
 C1098 C 0.52735 0.89223 0.98680
 C1099 C 0.51868 0.86692 0.99687
 C1100 C 0.51431 0.84506 0.97922
 C1101 C 0.51870 0.84797 0.95111
 C1102 C 0.52738 0.87323 0.94102
 H1103 H 0.53778 0.91448 0.95016
 H1104 H 0.51568 0.86385 1.01849
 H1105 H 0.50799 0.82571 0.98761
 H1106 H 0.53055 0.87616 0.91940
 C1107 C 0.03588 0.39318 0.45928
 C1108 C 0.02759 0.39215 0.48681
 C1109 C 0.01481 0.36808 0.49594
 C1110 C 0.01065 0.34611 0.47840
 C1111 C 0.01897 0.34740 0.45112
 C1112 C 0.03158 0.37120 0.44178
 H1113 H 0.04469 0.41135 0.45059
 H1114 H 0.00900 0.36542 0.51699
 H1115 H 0.00141 0.32781 0.48641
 H1116 H 0.03768 0.37309 0.42069
 C1117 C 0.36624 0.50352 0.48114
 C1118 C 0.39147 0.51381 0.47260
 C1119 C 0.39413 0.54196 0.46831
 C1120 C 0.37207 0.55936 0.47233
 C1121 C 0.34690 0.54905 0.48090
 C1122 C 0.34423 0.52096 0.48533
 H1123 H 0.36336 0.48191 0.48418
 H1124 H 0.41339 0.55060 0.46220
 H1125 H 0.37481 0.58098 0.46914
 H1126 H 0.32496 0.51241 0.49157
 C1127 C 0.86806 0.00326 -0.01546
 C1128 C 0.89214 0.01242 -0.02814
 C1129 C 0.89329 0.03999 -0.03620
 C1130 C 0.87142 0.05753 -0.03172
 C1131 C 0.84762 0.04817 -0.01918
 C1132 C 0.84621 0.02084 -0.01113
 H1133 H 0.86531 -0.01782 -0.00985
 H1134 H 0.91146 0.04868 -0.04493
 H1135 H 0.87341 0.07865 -0.03762
 H1136 H 0.82790 0.01280 -0.00198
 C1137 C 0.63395 0.00300 0.01966
 C1138 C 0.60874 0.01329 0.02828
 C1139 C 0.60610 0.04144 0.03260
 C1140 C 0.62813 0.05884 0.02848
 C1141 C 0.65326 0.04853 0.01977
 C1142 C 0.65592 0.02044 0.01536
 H1143 H 0.63682 -0.01862 0.01661
 H1144 H 0.58686 0.05009 0.03878
 H1145 H 0.62540 0.08046 0.03167
 H1146 H 0.67516 0.01189 0.00901
 C1147 C 0.13287 0.50347 0.51759
 C1148 C 0.10767 0.51364 0.52636
 C1149 C 0.10491 0.54177 0.53072
 C1150 C 0.12685 0.55927 0.52653
 C1151 C 0.15200 0.54908 0.51773
 C1152 C 0.15476 0.52100 0.51325
 H1153 H 0.13583 0.48187 0.51451
 H1154 H 0.08566 0.55031 0.53702
 H1155 H 0.12405 0.58087 0.52978
 H1156 H 0.17401 0.51253 0.50685
 C1157 C 0.11770 0.48168 -0.00015
 C1158 C 0.10754 0.48683 -0.02655
 C1159 C 0.12050 0.47388 -0.04867
 C1160 C 0.14269 0.45668 -0.04455
 C1161 C 0.15245 0.45140 -0.01820
 C1162 C 0.13961 0.46409 0.00393
 H1163 H 0.10803 0.49012 0.01772
 H1164 H 0.11445 0.47786 -0.06946
 H1165 H 0.15252 0.44791 -0.06219
 H1166 H 0.14608 0.46002 0.02459
 C1167 C 0.60644 0.95952 0.46500
 C1168 C 0.60741 0.98712 0.47301
 C1169 C 0.63147 0.99647 0.48563
 C1170 C 0.65349 0.97907 0.48990
 C1171 C 0.65227 0.95172 0.48185
 C1172 C 0.62847 0.94216 0.46941
 H1173 H 0.58830 0.95068 0.45633
 H1174 H 0.63409 1.01757 0.49122
 H1175 H 0.67178 0.98725 0.49899
 H1176 H 0.62662 0.92102 0.46353
 C1177 C 0.88547 0.97791 0.50232
 C1178 C 0.89190 0.98720 0.52859
 C1179 C 0.87585 0.97870 0.55062
 C1180 C 0.85378 0.96134 0.54647
 C1181 C 0.84734 0.95195 0.52020
 C1182 C 0.86348 0.96043 0.49818
 H1183 H 0.89772 0.98382 0.48502
 H1184 H 0.88011 0.98586 0.57103
 H1185 H 0.84150 0.95560 0.56381
 H1186 H 0.85939 0.95322 0.47776
 C1187 C 0.39488 0.45909 0.03057
 C1188 C 0.39195 0.48727 0.02672
 C1189 C 0.36658 0.49749 0.01849
 C1190 C 0.34468 0.47994 0.01420
 C1191 C 0.34761 0.45180 0.01819
 C1192 C 0.37294 0.44157 0.02643
 H1193 H 0.41426 0.45050 0.03641
 H1194 H 0.36351 0.51912 0.01579
 H1195 H 0.32529 0.48843 0.00822
 H1196 H 0.37589 0.41993 0.02927
 C1197 C 0.50289 0.48163 0.36648
 C1198 C 0.51311 0.47324 0.39187
 C1199 C 0.54122 0.46918 0.39471
 C1200 C 0.55867 0.47327 0.37267
 C1201 C 0.54843 0.48169 0.34734
 C1202 C 0.52037 0.48589 0.34449
 H1203 H 0.48131 0.48449 0.36346
 H1204 H 0.54981 0.46319 0.41410
 H1205 H 0.58025 0.47024 0.37555
 H1206 H 0.51188 0.49202 0.32510
 C1207 C 0.00363 -0.01780 0.86646
 C1208 C 0.01359 -0.02690 0.89171
 C1209 C 0.04161 -0.03157 0.89455
 C1210 C 0.05919 -0.02744 0.87264
 C1211 C 0.04920 -0.01837 0.84744
 C1212 C 0.02125 -0.01349 0.84460
 H1213 H -0.01789 -0.01446 0.86343
 H1214 H 0.05001 -0.03811 0.91384
 H1215 H 0.08070 -0.03099 0.87550
 H1216 H 0.01294 -0.00685 0.82530
 C1217 C 0.02293 0.04934 0.62443
 C1218 C 0.01424 0.02743 0.60828
 C1219 C 0.02358 0.00115 0.61446
 C1220 C 0.04129 -0.00312 0.63629
 C1221 C 0.04996 0.01878 0.65253
 C1222 C 0.04053 0.04506 0.64634
 H1223 H 0.01574 0.06975 0.62038
 H1224 H 0.01750 -0.01606 0.60212
 H1225 H 0.04851 -0.02355 0.64019
 H1226 H 0.04639 0.06231 0.65872
 C1227 C 0.52270 0.54935 0.12290
 C1228 C 0.51408 0.52735 0.10684
 C1229 C 0.52315 0.50106 0.11338
 C1230 C 0.54054 0.49688 0.13549
 C1231 C 0.54914 0.51888 0.15163
 C1232 C 0.53997 0.54516 0.14508
 H1233 H 0.51569 0.56977 0.11857
 H1234 H 0.51711 0.48378 0.10114
 H1235 H 0.54757 0.47644 0.13970
 H1236 H 0.54579 0.56249 0.15736
 C1237 C 0.45873 -0.03122 0.10580
 C1238 C 0.48682 -0.02703 0.10875
 C1239 C 0.49688 -0.01849 0.13415
 C1240 C 0.47929 -0.01425 0.15605
 C1241 C 0.45127 -0.01864 0.15310
 C1242 C 0.44118 -0.02717 0.12775
 H1243 H 0.45024 -0.03730 0.08640
 H1244 H 0.51844 -0.01553 0.13726
 H1245 H 0.48766 -0.00802 0.17547
 H1246 H 0.41962 -0.03033 0.12481
 C1247 C 0.95934 0.46753 0.60574
 C1248 C 0.98741 0.47191 0.60850
 C1249 C 0.99757 0.48067 0.63379
 C1250 C 0.98007 0.48497 0.65576
 C1251 C 0.95205 0.48045 0.65299
 C1252 C 0.94188 0.47167 0.62775
 H1253 H 0.95079 0.46126 0.58642
 H1254 H 1.01912 0.48381 0.63673
 H1255 H 0.98853 0.49138 0.67508
 H1256 H 0.92032 0.46841 0.62492
 C1257 C 0.95780 0.52927 0.89614
 C1258 C 0.98599 0.52573 0.89334
 C1259 C 0.99639 0.51784 0.86787
 C1260 C 0.97902 0.51353 0.84579
 C1261 C 0.95089 0.51721 0.84860
 C1262 C 0.94047 0.52516 0.87398
 H1263 H 0.94907 0.53486 0.91557
 H1264 H 1.01802 0.51542 0.86487
 H1265 H 0.98764 0.50778 0.82635
 H1266 H 0.91883 0.52779 0.87681
 C1267 C 0.45772 0.03025 0.39533
 C1268 C 0.48574 0.02560 0.39254
 C1269 C 0.49572 0.01642 0.36735
 C1270 C 0.47810 0.01206 0.34546
 C1271 C 0.45015 0.01695 0.34822
 C1272 C 0.44014 0.02606 0.37338
 H1273 H 0.44930 0.03685 0.41458
 H1274 H 0.51723 0.01309 0.36437
 H1275 H 0.48643 0.00539 0.32619
 H1276 H 0.41863 0.02962 0.37620
   
