data_POSCAR
  _audit_creation_date              2014-09-24
  _audit_creation_method            'ToBaCCo'
  _symmetry_space_group_name_H-M    'P1'
  _symmetry_Int_Tables_number       1
  _symmetry_cell_setting            triclinic
  loop_
  _symmetry_equiv_pos_as_xyz
 x,y,z
_cell_length_a 70.4099
_cell_length_b 70.4966
_cell_length_c 70.3395
_cell_angle_alpha 90.855500
_cell_angle_beta 90.228200
_cell_angle_gamma 91.260900
loop_
  _atom_site_label
  _atom_site_type_symbol
  _atom_site_fract_x
  _atom_site_fract_y
  _atom_site_fract_z
C1 C 0.11937 -0.00730 0.23483
 C2 C 0.12753 0.01274 0.23771
 C3 C 0.13767 0.01533 0.25401
 C4 C 0.13865 -0.00250 0.26631
 C5 C 0.13650 -0.02025 0.23645
 C6 C 0.14641 -0.01795 0.25298
 C7 C 0.10770 -0.01111 0.25277
 C8 C 0.11767 -0.00844 0.26930
 H9 H 0.12560 0.02393 0.22752
 H10 H 0.14701 -0.00037 0.27962
 H11 H 0.13917 -0.03178 0.22654
 H12 H 0.09273 -0.01501 0.25233
 C13 C 0.38289 -0.00154 0.73456
 C14 C 0.36594 -0.01534 0.73586
 C15 C 0.35556 -0.01334 0.75197
 C16 C 0.36298 0.00272 0.76537
 C17 C 0.37439 0.01807 0.73675
 C18 C 0.36395 0.02052 0.75279
 C19 C 0.39377 -0.00413 0.75191
 C20 C 0.38289 -0.00165 0.76896
 H21 H 0.36338 -0.02679 0.72564
 H22 H 0.35418 0.00456 0.77831
 H23 H 0.37687 0.02922 0.72655
 H24 H 0.40882 -0.00696 0.75203
 C25 C 0.87979 0.49469 0.23194
 C26 C 0.86271 0.48116 0.23343
 C27 C 0.85229 0.48352 0.24943
 C28 C 0.85977 0.49965 0.26266
 C29 C 0.87168 0.51444 0.23395
 C30 C 0.86124 0.51726 0.24992
 C31 C 0.89112 0.49204 0.25037
 C32 C 0.88069 0.49474 0.26651
 H33 H 0.86008 0.46956 0.22340
 H34 H 0.85110 0.50176 0.27564
 H35 H 0.87447 0.52547 0.22369
 H36 H 0.90613 0.48907 0.25061
 C37 C 0.61825 0.50123 0.73063
 C38 C 0.63474 0.51559 0.73154
 C39 C 0.64500 0.51530 0.74789
 C40 C 0.63803 0.50022 0.76201
 C41 C 0.62719 0.48211 0.73417
 C42 C 0.63760 0.48143 0.75048
 C43 C 0.60657 0.50516 0.74858
 C44 C 0.61684 0.50449 0.76507
 H45 H 0.63711 0.52617 0.72072
 H46 H 0.64660 0.49978 0.77529
 H47 H 0.62520 0.47003 0.72460
 H48 H 0.59140 0.50733 0.74831
 C49 C 0.23537 0.11781 1.00100
 C50 C 0.23553 0.13421 1.01536
 C51 C 0.25174 0.14499 1.01543
 C52 C 0.26646 0.13861 1.00066
 C53 C 0.23941 0.12697 0.98191
 C54 C 0.25556 0.13792 0.98159
 C55 C 0.25334 0.10674 1.00538
 C56 C 0.26968 0.11753 1.00503
 H57 H 0.22435 0.13612 1.02572
 H58 H 0.27961 0.14760 1.00049
 H59 H 0.23030 0.12473 0.96959
 H60 H 0.25322 0.09156 1.00748
 C61 C 0.72650 0.38523 1.00457
 C62 C 0.72790 0.37520 0.98655
 C63 C 0.74357 0.36258 0.98533
 C64 C 0.75510 0.36245 1.00286
 C65 C 0.72594 0.37043 1.01874
 C66 C 0.74177 0.35806 1.01831
 C67 C 0.74481 0.39489 1.00730
 C68 C 0.76075 0.38247 1.00615
 H69 H 0.71797 0.37718 0.97496
 H70 H 0.76722 0.35263 1.00210
 H71 H 0.71574 0.37013 1.03023
 H72 H 0.74630 0.41012 1.00943
 C73 C 0.23088 0.88314 0.49603
 C74 C 0.23298 0.86642 0.48227
 C75 C 0.24913 0.85657 0.48469
 C76 C 0.26184 0.86419 0.50106
 C77 C 0.23265 0.87470 0.51574
 C78 C 0.24874 0.86480 0.51858
 C79 C 0.24915 0.89520 0.49371
 C80 C 0.26541 0.88530 0.49643
 H81 H 0.22320 0.86356 0.47058
 H82 H 0.27491 0.85595 0.50319
 H83 H 0.22211 0.87685 0.52670
 H84 H 0.24920 0.91024 0.49081
 C85 C 0.73497 0.61957 0.49843
 C86 C 0.73589 0.63589 0.51288
 C87 C 0.75247 0.64605 0.51286
 C88 C 0.76681 0.63916 0.49797
 C89 C 0.73924 0.62867 0.47935
 C90 C 0.75579 0.63898 0.47898
 C91 C 0.75251 0.60776 0.50261
 C92 C 0.76925 0.61792 0.50219
 H93 H 0.72483 0.63826 0.52328
 H94 H 0.78029 0.64765 0.49774
 H95 H 0.73002 0.62680 0.46706
 H96 H 0.75183 0.59256 0.50458
 C97 C -0.00019 0.23066 0.11749
 C98 C 0.01414 0.23182 0.13378
 C99 C 0.01399 0.24833 0.14392
 C100 C -0.00093 0.26234 0.13706
 C101 C -0.01933 0.23444 0.12669
 C102 C -0.01986 0.25092 0.13697
 C103 C 0.00397 0.24835 0.10560
 C104 C 0.00342 0.26499 0.11578
 H105 H 0.02461 0.22103 0.13610
 H106 H -0.00127 0.27573 0.14555
 H107 H -0.03158 0.22502 0.12479
 H108 H 0.00604 0.24782 0.09036
 C109 C -0.00420 0.72800 0.38137
 C110 C -0.01615 0.72771 0.36465
 C111 C -0.01471 0.74441 0.35351
 C112 C -0.00057 0.75823 0.36079
 C113 C 0.01590 0.73144 0.37398
 C114 C 0.01800 0.74716 0.36311
 C115 C -0.00889 0.74645 0.39221
 C116 C -0.00663 0.76234 0.38147
 H117 H -0.02698 0.71676 0.36217
 H118 H 0.00106 0.77114 0.35201
 H119 H 0.02753 0.72221 0.37731
 H120 H -0.01175 0.74709 0.40732
 C121 C 0.49597 0.23293 0.88314
 C122 C 0.48227 0.23414 0.86638
 C123 C 0.48451 0.25006 0.85595
 C124 C 0.50068 0.26344 0.86306
 C125 C 0.51567 0.23506 0.87451
 C126 C 0.51835 0.25093 0.86404
 C127 C 0.49334 0.25140 0.89460
 C128 C 0.49589 0.26743 0.88411
 H129 H 0.47068 0.22399 0.86400
 H130 H 0.50270 0.27634 0.85435
 H131 H 0.52676 0.22496 0.87699
 H132 H 0.49035 0.25176 0.90968
 C133 C 0.50085 0.73600 0.61767
 C134 C 0.51524 0.73671 0.63391
 C135 C 0.51517 0.75295 0.64448
 C136 C 0.50026 0.76718 0.63807
 C137 C 0.48176 0.73958 0.62705
 C138 C 0.48130 0.75579 0.63777
 C139 C 0.50500 0.75398 0.60623
 C140 C 0.50453 0.77037 0.61683
 H141 H 0.52570 0.72584 0.63589
 H142 H 0.49999 0.78036 0.64690
 H143 H 0.46950 0.73019 0.62501
 H144 H 0.50705 0.75381 0.59098
 C145 C 0.88262 1.00264 0.76993
 C146 C 0.87400 1.02085 0.76756
 C147 C 0.86273 1.02229 0.75071
 C148 C 0.86238 1.00492 0.73900
 C149 C 0.86627 0.98810 0.76864
 C150 C 0.85573 0.98907 0.75249
 C151 C 0.89409 0.99946 0.75169
 C152 C 0.88358 1.00077 0.73539
 H153 H 0.87607 1.03243 0.77773
 H154 H 0.85366 1.00572 0.72585
 H155 H 0.86415 0.97701 0.77898
 H156 H 0.90922 0.99706 0.75166
 C157 C 0.38157 0.50641 0.26516
 C158 C 0.37055 0.52433 0.26101
 C159 C 0.35966 0.52309 0.24498
 C160 C 0.36075 0.50382 0.23443
 C161 C 0.36657 0.49053 0.26554
 C162 C 0.35577 0.48896 0.24956
 C163 C 0.39299 0.50281 0.24703
 C164 C 0.38221 0.50159 0.23087
 H165 H 0.37200 0.53727 0.26945
 H166 H 0.35177 0.50273 0.22143
 H167 H 0.36538 0.48061 0.27713
 H168 H 0.40836 0.50242 0.24697
 C169 C 0.61703 0.99824 0.26945
 C170 C 0.62522 0.97881 0.26521
 C171 C 0.63616 0.97811 0.24931
 C172 C 0.63777 0.99728 0.23891
 C173 C 0.63321 1.01116 0.27006
 C174 C 0.64446 1.01111 0.25326
 C175 C 0.60603 1.00300 0.25126
 C176 C 0.61684 1.00227 0.23514
 H177 H 0.62234 0.96658 0.27399
 H178 H 0.64672 0.99667 0.22595
 H179 H 0.63540 1.02143 0.28154
 H180 H 0.59089 1.00536 0.25101
 C181 C 0.11579 0.50234 0.76824
 C182 C 0.12430 0.48276 0.76603
 C183 C 0.13479 0.48033 0.75002
 C184 C 0.13586 0.49809 0.73745
 C185 C 0.13262 0.51621 0.76688
 C186 C 0.14305 0.51421 0.75083
 C187 C 0.10440 0.50496 0.74986
 C188 C 0.11484 0.50262 0.73369
 H189 H 0.12180 0.47160 0.77622
 H190 H 0.14454 0.49629 0.72444
 H191 H 0.13512 0.52768 0.77708
 H192 H 0.08933 0.50768 0.74966
 C193 C 0.76523 0.88236 0.00172
 C194 C 0.76041 0.87306 0.02058
 C195 C 0.74385 0.86275 0.02035
 C196 C 0.73338 0.86278 0.00107
 C197 C 0.76472 0.86620 -0.01291
 C198 C 0.74815 0.85604 -0.01347
 C199 C 0.74783 0.89423 -0.00283
 C200 C 0.73108 0.88408 -0.00296
 H201 H 0.76923 0.87484 0.03317
 H202 H 0.71990 0.85429 0.00083
 H203 H 0.77609 0.86393 -0.02299
 H204 H 0.74857 0.90948 -0.00445
 C205 C 0.26489 0.38393 0.50342
 C206 C 0.26046 0.37477 0.52243
 C207 C 0.24427 0.36387 0.52242
 C208 C 0.23374 0.36322 0.50314
 C209 C 0.26495 0.36754 0.48905
 C210 C 0.24872 0.35680 0.48866
 C211 C 0.24704 0.39505 0.49869
 C212 C 0.23067 0.38431 0.49872
 H213 H 0.26931 0.37700 0.53494
 H214 H 0.22056 0.35427 0.50305
 H215 H 0.27631 0.36562 0.47889
 H216 H 0.24724 0.41025 0.49663
 C217 C 0.26601 0.61587 0.00244
 C218 C 0.26394 0.62447 -0.01717
 C219 C 0.24794 0.63462 -0.01959
 C220 C 0.23523 0.63531 -0.00178
 C221 C 0.26445 0.63255 0.01634
 C222 C 0.24843 0.64267 0.01435
 C223 C 0.24764 0.60407 0.00508
 C224 C 0.23147 0.61420 0.00274
 H225 H 0.27419 0.62221 -0.02839
 H226 H 0.22223 0.64375 -0.00357
 H227 H 0.27461 0.63529 0.02773
 H228 H 0.24747 0.58897 0.00768
 C229 C 0.77083 0.11490 0.50238
 C230 C 0.76881 0.12355 0.48399
 C231 C 0.75283 0.13566 0.48240
 C232 C 0.74152 0.13658 0.49998
 C233 C 0.77121 0.13055 0.51595
 C234 C 0.75502 0.14239 0.51509
 C235 C 0.75281 0.10479 0.50548
 C236 C 0.73649 0.11666 0.50390
 H237 H 0.77840 0.12070 0.47230
 H238 H 0.72916 0.14604 0.49893
 H239 H 0.78185 0.13193 0.52713
 H240 H 0.75163 0.08962 0.50755
 C241 C 1.00022 0.76242 0.88257
 C242 C 1.01925 0.75837 0.87325
 C243 C 1.01932 0.74218 0.86248
 C244 C 1.00008 0.73127 0.86208
 C245 C 0.98590 0.76213 0.86628
 C246 C 0.98560 0.74593 0.85564
 C247 C 0.99556 0.74452 0.89394
 C248 C 0.99569 0.72813 0.88331
 H249 H 1.03173 0.76744 0.87536
 H250 H 1.00005 0.71810 0.85322
 H251 H 0.97580 0.77332 0.86423
 H252 H 0.99362 0.74469 0.90920
 C253 C 0.50036 0.26765 0.38264
 C254 C 0.51909 0.26366 0.37271
 C255 C 0.51899 0.24728 0.36222
 C256 C 0.49988 0.23618 0.36266
 C257 C 0.48546 0.26693 0.36687
 C258 C 0.48499 0.25055 0.35651
 C259 C 0.49633 0.24989 0.39445
 C260 C 0.49629 0.23335 0.38408
 H261 H 0.53157 0.27283 0.37435
 H262 H 0.49969 0.22287 0.35401
 H263 H 0.47519 0.27799 0.36498
 H264 H 0.49495 0.25029 0.40978
 C265 C 1.00406 0.26625 0.61513
 C266 C 0.98430 0.26354 0.62352
 C267 C 0.98200 0.24766 0.63405
 C268 C 1.00004 0.23571 0.63530
 C269 C 1.01758 0.26553 0.63206
 C270 C 1.01570 0.24962 0.64256
 C271 C 1.00738 0.24785 0.60379
 C272 C 1.00516 0.23179 0.61431
 H273 H 0.97292 0.27328 0.62088
 H274 H 0.99830 0.22280 0.64405
 H275 H 1.02876 0.27610 0.63461
 H276 H 1.01038 0.24753 0.58871
 C277 C 0.50474 0.77174 0.11759
 C278 C 0.48511 0.76958 0.12642
 C279 C 0.48242 0.75349 0.13659
 C280 C 0.50005 0.74086 0.13713
 C281 C 0.51859 0.77014 0.13415
 C282 C 0.51637 0.75405 0.14432
 C283 C 0.50710 0.75347 0.10577
 C284 C 0.50451 0.73725 0.11594
 H285 H 0.47403 0.77974 0.12414
 H286 H 0.49807 0.72780 0.14560
 H287 H 0.53015 0.78028 0.13671
 H288 H 0.50967 0.75338 0.09060
 O289 O 0.04063 0.99179 1.04206
 O290 O 0.04357 0.96327 1.02619
 O291 O 0.04408 1.03309 0.99751
 O292 O 0.02866 1.03954 0.97080
 O293 O 0.00002 1.03675 1.03985
 O294 O -0.02922 1.02021 1.04454
 O295 O -0.00916 0.98430 0.94768
 O296 O 0.02139 0.99585 0.94622
 O297 O -0.01025 0.94235 0.98971
 O298 O -0.00015 0.94094 1.02271
 O299 O -0.05149 0.98473 0.99077
 O300 O -0.05223 1.01742 1.00037
 O301 O -0.03522 0.99783 0.96078
 O302 O -0.03865 1.02917 0.97843
 O303 O -0.03955 0.95831 1.00408
 O304 O -0.02193 0.95414 1.03478
 O305 O 0.00293 0.95488 0.96309
 O306 O 0.03523 0.96991 0.96258
 O307 O 0.01459 1.00538 1.05520
 O308 O -0.01847 0.99572 1.05618
 O309 O 0.01349 1.04936 1.01342
 O310 O 0.00181 1.04907 0.98018
 O311 O 0.05634 1.00707 1.01141
 O312 O 0.05500 0.97424 0.99817
 Zr313 Zr 0.03304 0.98793 1.01334
 O314 O 0.01577 0.96970 0.99638
 Zr315 Zr 0.01508 1.02642 0.99407
 O316 O -0.00232 1.00976 0.97576
 Zr317 Zr -0.00478 1.00803 1.03252
 O318 O -0.02361 0.99104 1.01594
 Zr319 Zr 0.00968 0.98317 0.97076
 O320 O 0.02849 1.00086 0.98694
 Zr321 Zr -0.01076 0.96520 1.00923
 O322 O 0.00738 0.98149 1.02744
 Zr323 Zr -0.02811 1.00364 0.98944
 O324 O -0.01140 1.02199 1.00718
 O325 O 0.02121 1.01401 1.01990
 O326 O -0.01667 0.97732 0.98310
 C327 C 0.03130 0.99843 1.05625
 C328 C 0.05789 1.02378 1.00444
 C329 C 0.00690 1.05071 1.03036
 C330 C -0.02610 0.99061 0.94671
 C331 C -0.00437 0.94107 0.97250
 C332 C -0.05318 0.96778 0.99702
 H333 H 0.02244 0.95769 0.99408
 H334 H -0.03560 0.98918 1.02300
 H335 H 0.02962 1.02213 1.02807
 H336 H -0.00415 1.01656 0.96372
 H337 H 0.03357 1.00201 0.95020
 H338 H 0.02557 1.03163 0.95944
 H339 H -0.03294 0.96184 1.03848
 H340 H -0.01307 0.98298 1.05768
 H341 H 0.03317 0.96390 0.94987
 H342 H 0.06713 0.97611 1.00525
 H343 H -0.05446 1.01262 1.01333
 H344 H -0.03440 1.02873 1.03483
 H345 H 0.03310 0.95786 1.03390
 H346 H 0.01211 0.93790 1.01670
 H347 H -0.00989 1.05185 0.98737
 H348 H -0.03140 1.03220 0.96680
 O349 O 0.48765 0.49167 0.44429
 O350 O 0.51876 0.50255 0.44291
 O351 O 0.48867 0.44889 0.48749
 O352 O 0.49566 0.44697 0.51813
 O353 O 0.44511 0.49198 0.48825
 O354 O 0.44508 0.52422 0.49818
 O355 O 0.53829 0.50023 0.53820
 O356 O 0.54017 0.47087 0.52376
 O357 O 0.54080 0.54074 0.49554
 O358 O 0.52398 0.54549 0.46560
 O359 O 0.49811 0.54377 0.53640
 O360 O 0.46818 0.52734 0.54189
 O361 O 0.51228 0.51393 0.55125
 O362 O 0.47799 0.50334 0.55255
 O363 O 0.51137 0.55637 0.50988
 O364 O 0.50036 0.55676 0.47608
 O365 O 0.55302 0.51462 0.50922
 O366 O 0.55231 0.48255 0.49418
 O367 O 0.46211 0.50651 0.45703
 O368 O 0.45804 0.53578 0.47446
 O369 O 0.45733 0.46572 0.50167
 O370 O 0.47492 0.46313 0.53218
 O371 O 0.50147 0.46130 0.46062
 O372 O 0.53253 0.47827 0.45840
 Zr373 Zr 0.50655 0.49016 0.46737
 O374 O 0.52508 0.50781 0.48361
 Zr375 Zr 0.48628 0.47237 0.50599
 O376 O 0.50445 0.48877 0.52380
 Zr377 Zr 0.46871 0.51063 0.48606
 O378 O 0.48565 0.52880 0.50344
 Zr379 Zr 0.53005 0.49513 0.50989
 O380 O 0.51292 0.47646 0.49298
 Zr381 Zr 0.51208 0.53351 0.49039
 O382 O 0.49436 0.51686 0.47209
 Zr383 Zr 0.49226 0.51525 0.52898
 O384 O 0.47305 0.49808 0.51265
 O385 O 0.48038 0.48445 0.47995
 O386 O 0.51837 0.52138 0.51642
 C387 C 0.47120 0.49913 0.44303
 C388 C 0.49497 0.44740 0.47044
 C389 C 0.44350 0.47521 0.49503
 C390 C 0.52923 0.50757 0.55222
 C391 C 0.55451 0.53155 0.50287
 C392 C 0.50534 0.55762 0.52704
 H393 H 0.53707 0.50979 0.47656
 H394 H 0.47886 0.54074 0.50569
 H395 H 0.47203 0.47623 0.47183
 H396 H 0.50677 0.48179 0.53564
 H397 H 0.53700 0.45983 0.51538
 H398 H 0.50775 0.45011 0.52474
 H399 H 0.48906 0.56083 0.48326
 H400 H 0.46772 0.54050 0.46541
 H401 H 0.56402 0.48330 0.50206
 H402 H 0.53031 0.47107 0.44633
 H403 H 0.46306 0.53670 0.53300
 H404 H 0.44385 0.51942 0.51128
 H405 H 0.51432 0.51576 0.44249
 H406 H 0.53378 0.53680 0.46082
 H407 H 0.46466 0.47191 0.53563
 H408 H 0.48503 0.49206 0.55651
 O409 O 0.46103 -0.03751 0.49951
 O410 O 0.47617 -0.04115 0.47065
 O411 O 0.50657 -0.03664 0.54061
 O412 O 0.53315 -0.01968 0.54631
 O413 O 0.46310 0.00531 0.54324
 O414 O 0.45783 0.03387 0.52657
 O415 O 0.55412 0.01580 0.49081
 O416 O 0.55640 -0.01405 0.50267
 O417 O 0.51117 0.01263 0.44847
 O418 O 0.47845 0.00109 0.44738
 O419 O 0.50986 0.05639 0.48983
 O420 O 0.50099 0.05859 0.52270
 O421 O 0.54082 0.04224 0.50356
 O422 O 0.52359 0.04683 0.53466
 O423 O 0.49660 0.04216 0.46362
 O424 O 0.46612 0.02318 0.46019
 O425 O 0.53838 0.00153 0.46133
 O426 O 0.53999 -0.02983 0.47692
 O427 O 0.44753 -0.01090 0.51171
 O428 O 0.44577 0.02166 0.50218
 O429 O 0.49018 -0.00610 0.55611
 O430 O 0.52288 0.00729 0.55573
 O431 O 0.49274 -0.05089 0.51464
 O432 O 0.50470 -0.05088 0.48158
 Zr433 Zr 0.48946 -0.02882 0.49507
 O434 O 0.50569 -0.01193 0.47647
 Zr435 Zr 0.50915 -0.00790 0.53320
 O436 O 0.52664 0.00937 0.51614
 Zr437 Zr 0.46992 0.00933 0.51447
 O438 O 0.48569 0.02782 0.49698
 Zr439 Zr 0.53142 -0.00397 0.48978
 O440 O 0.51602 -0.02242 0.50785
 Zr441 Zr 0.49216 0.01373 0.47139
 O442 O 0.47469 -0.00414 0.48813
 Zr443 Zr 0.51234 0.03424 0.50940
 O444 O 0.49542 0.01780 0.52820
 O445 O 0.48323 -0.01577 0.52093
 O446 O 0.51840 0.02147 0.48331
 C447 C 0.44670 -0.02818 0.50554
 C448 C 0.49999 -0.05127 0.53144
 C449 C 0.47298 -0.00055 0.55729
 C450 C 0.55497 0.03313 0.49674
 C451 C 0.52852 0.00753 0.44735
 C452 C 0.50338 0.05671 0.47274
 H453 H 0.50794 -0.01918 0.46457
 H454 H 0.47830 0.03936 0.49485
 H455 H 0.47543 -0.02412 0.52915
 H456 H 0.53875 0.01209 0.52290
 H457 H 0.55275 -0.02595 0.50916
 H458 H 0.54432 -0.01593 0.53865
 H459 H 0.46251 0.03467 0.46744
 H460 H 0.44420 0.01582 0.48937
 H461 H 0.55251 -0.02756 0.47085
 H462 H 0.49792 -0.06316 0.48370
 H463 H 0.48781 0.05979 0.51805
 H464 H 0.46757 0.03961 0.53521
 H465 H 0.46790 -0.03138 0.46528
 H466 H 0.48457 -0.01115 0.44472
 H467 H 0.51547 0.01885 0.55813
 H468 H 0.53517 0.03995 0.53812
 O469 O -0.04295 0.45553 0.99717
 O470 O -0.02835 0.45239 0.96782
 O471 O 0.00305 0.45669 1.03740
 O472 O 0.02959 0.47376 1.04291
 O473 O -0.04052 0.49863 1.04077
 O474 O -0.04642 0.52695 1.02404
 O475 O 0.04982 0.50944 0.98764
 O476 O 0.05217 0.47933 0.99899
 O477 O 0.00640 0.50664 0.94555
 O478 O -0.02613 0.49474 0.94455
 O479 O 0.00537 0.54987 0.98707
 O480 O -0.00328 0.55194 1.02004
 O481 O 0.03647 0.53578 1.00055
 O482 O 0.01943 0.54023 1.03177
 O483 O -0.00834 0.53581 0.96099
 O484 O -0.03877 0.51646 0.95788
 O485 O 0.03390 0.49599 0.95819
 O486 O 0.03563 0.46412 0.97303
 O487 O -0.05631 0.48196 1.00994
 O488 O -0.05857 0.51447 0.99972
 O489 O -0.01334 0.48709 1.05328
 O490 O 0.01931 0.50057 1.05258
 O491 O -0.01087 0.44240 1.01150
 O492 O 0.00047 0.44268 0.97821
 Zr493 Zr -0.01468 0.46455 0.99211
 O494 O 0.00128 0.48164 0.97341
 Zr495 Zr 0.00537 0.48546 1.03013
 O496 O 0.02257 0.50287 1.01298
 Zr497 Zr -0.03416 0.50252 1.01190
 O498 O -0.01869 0.52120 0.99437
 Zr499 Zr 0.02710 0.48969 0.98649
 O500 O 0.01199 0.47107 1.00462
 Zr501 Zr -0.01245 0.50726 0.96863
 O502 O -0.02965 0.48919 0.98545
 Zr503 Zr 0.00804 0.52769 1.00654
 O504 O -0.00859 0.51108 1.02542
 O505 O -0.02062 0.47749 1.01811
 O506 O 0.01387 0.51508 0.98034
 C507 C -0.05716 0.46465 1.00386
 C508 C -0.00347 0.44204 1.02823
 C509 C -0.03051 0.49269 1.05468
 C510 C 0.05063 0.52674 0.99366
 C511 C 0.02391 0.50211 0.94435
 C512 C -0.00137 0.55030 0.97008
 H513 H 0.00348 0.47453 0.96143
 H514 H -0.02617 0.53271 0.99237
 H515 H -0.02819 0.46909 1.02647
 H516 H 0.03473 0.50561 1.01965
 H517 H 0.04854 0.46733 1.00530
 H518 H 0.04061 0.47740 1.03500
 H519 H -0.04237 0.52789 0.96523
 H520 H -0.06042 0.50823 0.98712
 H521 H 0.04804 0.46658 0.96682
 H522 H -0.00624 0.43037 0.98033
 H523 H -0.01645 0.55322 1.01537
 H524 H -0.03660 0.53292 1.03243
 H525 H -0.03684 0.46213 0.96275
 H526 H -0.02017 0.48239 0.94199
 H527 H 0.01187 0.51207 1.05516
 H528 H 0.03107 0.53339 1.03511
 O529 O 0.05237 0.48660 0.50709
 O530 O 0.05392 0.51760 0.49704
 O531 O 0.01138 0.48872 0.55289
 O532 O -0.01914 0.49474 0.55677
 O533 O 0.00759 0.44403 0.50878
 O534 O -0.00392 0.44341 0.47716
 O535 O -0.04044 0.53707 0.50551
 O536 O -0.02454 0.53913 0.53421
 O537 O -0.00039 0.53863 0.46239
 O538 O 0.02891 0.52225 0.45537
 O539 O -0.04209 0.49588 0.46097
 O540 O -0.04770 0.46670 0.47700
 O541 O -0.05491 0.51082 0.49224
 O542 O -0.05621 0.47634 0.50246
 O543 O -0.01575 0.50858 0.44702
 O544 O 0.01784 0.49808 0.44459
 O545 O -0.01213 0.55138 0.48970
 O546 O 0.00465 0.55124 0.52081
 O547 O 0.03819 0.46038 0.49339
 O548 O 0.01955 0.45666 0.46434
 O549 O -0.00380 0.45658 0.53634
 O550 O -0.03413 0.47393 0.54090
 O551 O 0.03811 0.50079 0.53906
 O552 O 0.04002 0.53166 0.52258
 Zr553 Zr 0.02989 0.50547 0.51068
 O554 O 0.01320 0.52363 0.49437
 Zr555 Zr -0.00823 0.48536 0.53041
 O556 O -0.02642 0.50326 0.51550
 Zr557 Zr 0.00932 0.46729 0.49055
 O558 O -0.00864 0.48382 0.47384
 Zr559 Zr -0.01223 0.52876 0.50879
 O560 O 0.00517 0.51196 0.52608
 Zr561 Zr 0.00477 0.51016 0.46882
 O562 O 0.02355 0.49285 0.48399
 Zr563 Zr -0.03330 0.49068 0.48904
 O564 O -0.01650 0.47174 0.50477
 O565 O 0.01699 0.47943 0.51663
 O566 O -0.02040 0.51664 0.48268
 C567 C 0.05279 0.46974 0.49987
 C568 C 0.02872 0.49482 0.55350
 C569 C 0.00210 0.44268 0.52609
 C570 C -0.05506 0.52795 0.49886
 C571 C -0.00690 0.55248 0.47229
 C572 C -0.03310 0.50259 0.44660
 H573 H 0.02037 0.53561 0.49216
 H574 H -0.01165 0.47680 0.46190
 H575 H 0.02532 0.47132 0.52426
 H576 H -0.03780 0.50569 0.52328
 H577 H -0.01562 0.53624 0.54464
 H578 H -0.02500 0.50712 0.55448
 H579 H 0.01040 0.48655 0.44084
 H580 H 0.02921 0.46596 0.45985
 H581 H -0.00301 0.56288 0.52087
 H582 H 0.05235 0.52960 0.52904
 H583 H -0.03903 0.46083 0.46771
 H584 H -0.01676 0.44215 0.48276
 H585 H 0.05341 0.51318 0.48362
 H586 H 0.03443 0.53209 0.46405
 H587 H -0.03795 0.46327 0.53229
 H588 H -0.05978 0.48390 0.51381
 O589 O 0.46212 1.04126 0.00707
 O590 O 0.47914 1.04419 0.03548
 O591 O 0.50403 1.04332 -0.03637
 O592 O 0.53046 1.02814 -0.04413
 O593 O 0.46088 0.99922 -0.03795
 O594 O 0.45643 0.97036 -0.02145
 O595 O 0.55523 0.99115 0.00923
 O596 O 0.55701 1.02145 -0.00214
 O597 O 0.51514 0.99192 0.05372
 O598 O 0.48239 1.00151 0.05685
 O599 O 0.51137 0.94911 0.01083
 O600 O 0.49986 0.94758 -0.02145
 O601 O 0.54085 0.96480 -0.00391
 O602 O 0.52173 0.96075 -0.03429
 O603 O 0.50007 0.96187 0.03830
 O604 O 0.46969 0.97898 0.04430
 O605 O 0.54166 1.00436 0.03986
 O606 O 0.54229 1.03611 0.02489
 O607 O 0.44758 1.01462 -0.00537
 O608 O 0.44625 0.98173 0.00395
 O609 O 0.48722 1.01185 -0.05200
 O610 O 0.52021 1.00089 -0.05368
 O611 O 0.49223 1.05618 -0.00912
 O612 O 0.50685 1.05579 0.02283
 Zr613 Zr 0.49061 1.03340 0.00981
 O614 O 0.50801 1.01666 0.02686
 Zr615 Zr 0.50758 1.01455 -0.03005
 O616 O 0.52621 0.99756 -0.01460
 Zr617 Zr 0.46955 0.99511 -0.00964
 O618 O 0.48648 0.97675 0.00622
 Zr619 Zr 0.53283 1.01019 0.01190
 O620 O 0.51625 1.02854 -0.00467
 Zr621 Zr 0.49473 0.99029 0.03182
 O622 O 0.47618 1.00794 0.01678
 Zr623 Zr 0.51220 0.97193 -0.00798
 O624 O 0.49406 0.98818 -0.02513
 O625 O 0.48257 1.02089 -0.01608
 O626 O 0.52007 0.98405 0.01815
 C627 C 0.44736 1.03174 0.00126
 C628 C 0.49796 1.05732 -0.02637
 C629 C 0.47000 1.00543 -0.05246
 C630 C 0.55546 0.97402 0.00269
 C631 C 0.53255 0.99774 0.05419
 C632 C 0.50636 0.94800 0.02830
 H633 H 0.51101 1.02368 0.03882
 H634 H 0.47929 0.96479 0.00841
 H635 H 0.47425 1.02901 -0.02371
 H636 H 0.53785 0.99554 -0.02212
 H637 H 0.55309 1.03347 -0.00796
 H638 H 0.54214 1.02491 -0.03716
 H639 H 0.46554 0.96769 0.03672
 H640 H 0.44564 0.98732 0.01692
 H641 H 0.55521 1.03424 0.03010
 H642 H 0.49974 1.06774 0.02182
 H643 H 0.48728 0.94527 -0.01562
 H644 H 0.46562 0.96498 -0.03055
 H645 H 0.47059 1.03416 0.04056
 H646 H 0.48852 1.01404 0.05949
 H647 H 0.51288 0.98894 -0.05607
 H648 H 0.53338 0.96790 -0.03789
 O649 O 0.49609 0.46370 -0.04229
 O650 O 0.46723 0.47829 -0.04593
 O651 O 0.53717 0.50971 -0.04223
 O652 O 0.54245 0.53670 -0.02581
 O653 O 0.53974 0.46721 0.00112
 O654 O 0.52245 0.46106 0.02915
 O655 O 0.48723 0.55677 0.01016
 O656 O 0.49889 0.55905 -0.02004
 O657 O 0.44488 0.51296 0.00799
 O658 O 0.44375 0.48034 -0.00341
 O659 O 0.48596 0.51279 0.05123
 O660 O 0.51931 0.50409 0.05300
 O661 O 0.49980 0.54368 0.03669
 O662 O 0.53054 0.52745 0.04158
 O663 O 0.45990 0.49875 0.03744
 O664 O 0.45667 0.46814 0.01860
 O665 O 0.45770 0.54046 -0.00326
 O666 O 0.47305 0.54214 -0.03515
 O667 O 0.50856 0.45068 -0.01565
 O668 O 0.49842 0.44869 0.01691
 O669 O 0.55259 0.49409 -0.01148
 O670 O 0.55203 0.52677 0.00136
 O671 O 0.51126 0.49545 -0.05619
 O672 O 0.47823 0.50698 -0.05608
 Zr673 Zr 0.49159 0.49204 -0.03389
 O674 O 0.47289 0.50796 -0.01699
 Zr675 Zr 0.52958 0.51251 -0.01346
 O676 O 0.51244 0.52970 0.00380
 Zr677 Zr 0.51081 0.47309 0.00447
 O678 O 0.49327 0.48853 0.02296
 Zr679 Zr 0.48609 0.53395 -0.00936
 O680 O 0.50425 0.51884 -0.02786
 Zr681 Zr 0.46776 0.49441 0.00891
 O682 O 0.48457 0.47726 -0.00895
 Zr683 Zr 0.50567 0.51538 0.02894
 O684 O 0.52450 0.49883 0.01250
 O685 O 0.51740 0.48634 -0.02090
 O686 O 0.47963 0.52086 0.01630
 C687 C 0.50234 0.44961 -0.03287
 C688 C 0.52809 0.50286 -0.05674
 C689 C 0.55382 0.47722 -0.00504
 C690 C 0.49308 0.55770 0.02750
 C691 C 0.44376 0.53035 0.00306
 C692 C 0.46893 0.50592 0.05181
 H693 H 0.46100 0.50996 -0.02416
 H694 H 0.49110 0.48116 0.03462
 H695 H 0.52574 0.47866 -0.02911
 H696 H 0.51918 0.54192 0.00634
 H697 H 0.50536 0.55542 -0.03199
 H698 H 0.53487 0.54772 -0.02192
 H699 H 0.46382 0.46475 0.03015
 H700 H 0.48574 0.44680 0.01096
 H701 H 0.46691 0.55449 -0.03287
 H702 H 0.48039 0.50019 -0.06831
 H703 H 0.51348 0.49146 0.05537
 H704 H 0.53049 0.47111 0.03528
 H705 H 0.46182 0.46999 -0.03600
 H706 H 0.44116 0.48635 -0.01575
 H707 H 0.55426 0.51963 0.01315
 H708 H 0.53443 0.53862 0.03407
 O709 O -0.05519 0.00511 0.51214
 O710 O -0.05660 -0.02574 0.50008
 O711 O -0.01195 0.00330 0.55539
 O712 O 0.01870 -0.00401 0.55729
 O713 O -0.01042 0.04871 0.51407
 O714 O -0.00174 0.05049 0.48176
 O715 O 0.03862 -0.04266 0.50182
 O716 O 0.02444 -0.04664 0.53110
 O717 O -0.00624 -0.04449 0.46157
 O718 O -0.03484 -0.02712 0.45671
 O719 O 0.03641 -0.00076 0.46052
 O720 O 0.04131 0.02931 0.47870
 O721 O 0.05143 -0.01552 0.48965
 O722 O 0.05324 0.01768 0.50148
 O723 O 0.00994 -0.01454 0.44722
 O724 O -0.02381 -0.00300 0.44675
 O725 O 0.00968 -0.05728 0.48632
 O726 O -0.00515 -0.05898 0.51842
 O727 O -0.04230 0.03198 0.49940
 O728 O -0.02581 0.03752 0.46990
 O729 O 0.00277 0.03556 0.54021
 O730 O 0.03293 0.01828 0.54245
 O731 O -0.03898 -0.00929 0.54205
 O732 O -0.04069 -0.03994 0.52426
 Zr733 Zr -0.03212 -0.01326 0.51318
 O734 O -0.01618 -0.03043 0.49475
 Zr735 Zr 0.00666 0.00692 0.53227
 O736 O 0.02424 -0.00990 0.51504
 Zr737 Zr -0.01354 0.02599 0.49453
 O738 O 0.00351 0.01046 0.47564
 Zr739 Zr 0.01032 -0.03551 0.50723
 O740 O -0.00636 -0.01981 0.52671
 Zr741 Zr -0.00973 -0.01595 0.46967
 O742 O -0.02774 0.00042 0.48707
 Zr743 Zr 0.02913 0.00381 0.48915
 O744 O 0.01310 0.02161 0.50718
 O745 O -0.01938 0.01287 0.52014
 O746 O 0.01644 -0.02223 0.48164
 C747 C -0.05631 0.02213 0.50602
 C748 C -0.02917 -0.00308 0.55636
 C749 C -0.00358 0.04974 0.53102
 C750 C 0.05250 -0.03281 0.49499
 C751 C 0.00189 -0.05831 0.46978
 C752 C 0.02713 -0.00811 0.44638
 H753 H -0.02336 -0.04242 0.49223
 H754 H 0.00570 0.01785 0.46400
 H755 H -0.02728 0.02074 0.52864
 H756 H 0.03618 -0.01232 0.52195
 H757 H 0.01617 -0.04434 0.54221
 H758 H 0.02576 -0.01539 0.55343
 H759 H -0.01604 0.00812 0.44282
 H760 H -0.03485 0.02777 0.46476
 H761 H 0.00276 -0.07038 0.51701
 H762 H -0.05278 -0.03844 0.53127
 H763 H 0.03334 0.03351 0.46802
 H764 H 0.01160 0.05156 0.48620
 H765 H -0.05774 -0.02003 0.48736
 H766 H -0.04024 -0.03683 0.46528
 H767 H 0.03657 0.02881 0.53395
 H768 H 0.05672 0.01070 0.51304
 O769 O 0.74445 0.19150 0.25966
 O770 O 0.77613 0.19448 0.25238
 O771 O 0.73642 0.23545 0.30254
 O772 O 0.74052 0.26686 0.30473
 O773 O 0.69657 0.22812 0.25620
 O774 O 0.69696 0.23788 0.22397
 O775 O 0.78266 0.29163 0.25632
 O776 O 0.78534 0.27754 0.28506
 O777 O 0.79309 0.24878 0.21501
 O778 O 0.78051 0.21595 0.20968
 O779 O 0.74638 0.28232 0.20781
 O780 O 0.71582 0.28479 0.22102
 O781 O 0.75662 0.30024 0.23944
 O782 O 0.72135 0.29615 0.24680
 O783 O 0.76391 0.25780 0.19688
 O784 O 0.75686 0.22309 0.19574
 O785 O 0.80215 0.26514 0.24176
 O786 O 0.80182 0.25031 0.27374
 O787 O 0.71870 0.19979 0.24213
 O788 O 0.71345 0.21632 0.21304
 O789 O 0.70560 0.24429 0.28308
 O790 O 0.71875 0.27723 0.28670
 O791 O 0.75337 0.21046 0.29161
 O792 O 0.78587 0.21260 0.27767
 Zr793 Zr 0.75992 0.21716 0.26315
 O794 O 0.77735 0.23531 0.24686
 Zr795 Zr 0.73395 0.25282 0.27869
 O796 O 0.75075 0.27250 0.26369
 Zr797 Zr 0.72125 0.22951 0.23920
 O798 O 0.73705 0.24860 0.22233
 Zr799 Zr 0.77831 0.26236 0.25970
 O800 O 0.76222 0.24375 0.27711
 Zr801 Zr 0.76511 0.23939 0.22004
 O802 O 0.74884 0.21931 0.23537
 Zr803 Zr 0.73974 0.27521 0.23608
 O804 O 0.72160 0.25681 0.25178
 O805 O 0.73209 0.22589 0.26636
 O806 O 0.76750 0.26640 0.23241
 C807 C 0.72910 0.18751 0.25033
 C808 C 0.74442 0.21943 0.30476
 C809 C 0.69332 0.23499 0.27289
 C810 C 0.77243 0.30400 0.24811
 C811 C 0.80517 0.25867 0.22489
 C812 C 0.75583 0.27376 0.19477
 H813 H 0.79023 0.23006 0.24589
 H814 H 0.73084 0.24954 0.20976
 H815 H 0.72438 0.21674 0.27378
 H816 H 0.75099 0.28467 0.27085
 H817 H 0.78248 0.26891 0.29571
 H818 H 0.75168 0.27522 0.30239
 H819 H 0.74513 0.22855 0.19055
 H820 H 0.72454 0.20900 0.20880
 H821 H 0.81244 0.25978 0.27382
 H822 H 0.78462 0.20072 0.28501
 H823 H 0.71085 0.27397 0.21325
 H824 H 0.69359 0.25052 0.22910
 H825 H 0.77325 0.19340 0.23862
 H826 H 0.79123 0.21391 0.21849
 H827 H 0.70848 0.27865 0.27720
 H828 H 0.72732 0.30184 0.25836
 O829 O 0.75507 0.71688 0.70556
 O830 O 0.78380 0.71375 0.71977
 O831 O 0.71620 0.70811 0.75351
 O832 O 0.70840 0.72271 0.78003
 O833 O 0.70796 0.75605 0.71394
 O834 O 0.72392 0.78520 0.70987
 O835 O 0.76408 0.76037 0.80341
 O836 O 0.75380 0.72979 0.80318
 O837 O 0.80453 0.76555 0.75949
 O838 O 0.80498 0.75813 0.72593
 O839 O 0.76055 0.80538 0.76364
 O840 O 0.72769 0.80556 0.75608
 O841 O 0.74805 0.78612 0.79339
 O842 O 0.71683 0.79006 0.77671
 O843 O 0.78638 0.79565 0.74720
 O844 O 0.79053 0.77953 0.71596
 O845 O 0.79377 0.74932 0.78513
 O846 O 0.77897 0.71736 0.78425
 O847 O 0.73939 0.74278 0.69534
 O848 O 0.74795 0.77600 0.69643
 O849 O 0.69728 0.73907 0.73911
 O850 O 0.69850 0.74909 0.77315
 O851 O 0.74134 0.69828 0.73604
 O852 O 0.77466 0.70025 0.74730
 Zr853 Zr 0.75934 0.72247 0.73469
 O854 O 0.77759 0.73929 0.75206
 Zr855 Zr 0.72103 0.73747 0.75724
 O856 O 0.73782 0.75428 0.77598
 Zr857 Zr 0.73708 0.76048 0.71963
 O858 O 0.75409 0.77879 0.73681
 Zr859 Zr 0.76507 0.74318 0.77881
 O860 O 0.74741 0.72483 0.76205
 Zr861 Zr 0.78074 0.76674 0.74125
 O862 O 0.76432 0.74922 0.72248
 Zr863 Zr 0.74252 0.78118 0.76422
 O864 O 0.72405 0.76492 0.74614
 O865 O 0.73244 0.73344 0.73032
 O866 O 0.76963 0.77057 0.76847
 C867 C 0.74751 0.72682 0.69248
 C868 C 0.72572 0.69522 0.74497
 C869 C 0.69472 0.74776 0.72342
 C870 C 0.75615 0.77639 0.80632
 C871 C 0.80698 0.75758 0.77560
 C872 C 0.77669 0.80843 0.75569
 H873 H 0.78989 0.73288 0.75313
 H874 H 0.75515 0.79121 0.73052
 H875 H 0.72429 0.72520 0.72200
 H876 H 0.73134 0.75493 0.78841
 H877 H 0.74761 0.71778 0.79870
 H878 H 0.71743 0.72381 0.79079
 H879 H 0.78179 0.78984 0.71285
 H880 H 0.76072 0.77104 0.69372
 H881 H 0.78540 0.71856 0.79680
 H882 H 0.77291 0.68850 0.73948
 H883 H 0.73175 0.80876 0.74305
 H884 H 0.71618 0.78999 0.72055
 H885 H 0.78885 0.72502 0.71308
 H886 H 0.80855 0.74551 0.73057
 H887 H 0.69467 0.76077 0.76665
 H888 H 0.71391 0.78153 0.78741
 O889 O 0.28711 0.21025 0.74748
 O890 O 0.28726 0.22233 0.71696
 O891 O 0.29433 0.26018 0.78333
 O892 O 0.27856 0.28613 0.79081
 O893 O 0.25050 0.21665 0.79488
 O894 O 0.21950 0.21054 0.78193
 O895 O 0.23756 0.30279 0.73681
 O896 O 0.26905 0.30553 0.74555
 O897 O 0.23190 0.25708 0.69849
 O898 O 0.24201 0.22479 0.69765
 O899 O 0.19485 0.25946 0.74464
 O900 O 0.19687 0.25355 0.77811
 O901 O 0.21239 0.29106 0.75352
 O902 O 0.21128 0.27706 0.78655
 O903 O 0.20439 0.24269 0.71864
 O904 O 0.22268 0.21251 0.71469
 O905 O 0.24640 0.28475 0.70810
 O906 O 0.28022 0.28673 0.71931
 O907 O 0.26190 0.19845 0.76414
 O908 O 0.22823 0.19612 0.75736
 O909 O 0.26566 0.24402 0.80441
 O910 O 0.25290 0.27688 0.80305
 O911 O 0.30398 0.24284 0.75771
 O912 O 0.29995 0.25161 0.72403
 Zr913 Zr 0.27917 0.23816 0.74133
 O914 O 0.26069 0.25308 0.72360
 Zr915 Zr 0.26462 0.26132 0.78013
 O916 O 0.24606 0.27762 0.76382
 Zr917 Zr 0.24302 0.22110 0.76643
 O918 O 0.22307 0.23561 0.75008
 Zr919 Zr 0.25593 0.27984 0.73583
 O920 O 0.27589 0.26572 0.75277
 Zr921 Zr 0.23381 0.23965 0.72256
 O922 O 0.25299 0.22333 0.73841
 Zr923 Zr 0.21972 0.26324 0.76111
 O924 O 0.23773 0.24767 0.77914
 O925 O 0.26950 0.23448 0.76895
 O926 O 0.22912 0.26680 0.73338
 C927 C 0.27828 0.19688 0.75635
 C928 C 0.30720 0.25229 0.77319
 C929 C 0.25921 0.22711 0.80737
 C930 C 0.22104 0.30428 0.74426
 C931 C 0.23749 0.27431 0.69575
 C932 C 0.19162 0.25070 0.72876
 H933 H 0.26630 0.25430 0.71080
 H934 H 0.21100 0.22818 0.74999
 H935 H 0.27866 0.22748 0.77675
 H936 H 0.24488 0.29033 0.76979
 H937 H 0.28165 0.30220 0.75068
 H938 H 0.27584 0.29632 0.78177
 H939 H 0.21232 0.20932 0.72362
 H940 H 0.23304 0.19291 0.74453
 H941 H 0.27770 0.29869 0.71258
 H942 H 0.31207 0.24478 0.72520
 H943 H 0.19428 0.24011 0.77461
 H944 H 0.21563 0.22091 0.79063
 H945 H 0.27634 0.21386 0.71352
 H946 H 0.25472 0.22970 0.69398
 H947 H 0.24175 0.26946 0.80758
 H948 H 0.21906 0.28885 0.78806
 O949 O 0.20988 0.74873 0.28799
 O950 O 0.22054 0.71790 0.28745
 O951 O 0.26131 0.78274 0.29441
 O952 O 0.28791 0.78832 0.27847
 O953 O 0.21832 0.79623 0.25244
 O954 O 0.21165 0.78394 0.22104
 O955 O 0.30151 0.73466 0.23588
 O956 O 0.30476 0.74273 0.26752
 O957 O 0.25365 0.69812 0.23086
 O958 O 0.22111 0.69913 0.24211
 O959 O 0.25814 0.74424 0.19434
 O960 O 0.25394 0.77777 0.19687
 O961 O 0.29040 0.75188 0.21123
 O962 O 0.27782 0.78533 0.21086
 O963 O 0.24021 0.71896 0.20396
 O964 O 0.21008 0.71623 0.22267
 O965 O 0.28206 0.70666 0.24429
 O966 O 0.28477 0.71713 0.27839
 O967 O 0.19867 0.76593 0.26334
 O968 O 0.19585 0.76002 0.22962
 O969 O 0.24694 0.80442 0.26565
 O970 O 0.27960 0.80133 0.25319
 O971 O 0.24309 0.75767 0.30418
 O972 O 0.25023 0.72372 0.29942
 Zr973 Zr 0.23743 0.74160 0.27924
 O974 O 0.25125 0.72331 0.26006
 Zr975 Zr 0.26253 0.77924 0.26465
 O976 O 0.27774 0.76237 0.24532
 Zr977 Zr 0.22137 0.76769 0.24400
 O978 O 0.23480 0.75072 0.22337
 Zr979 Zr 0.27857 0.73433 0.25472
 O980 O 0.26555 0.75172 0.27539
 Zr981 Zr 0.23752 0.72299 0.23353
 O982 O 0.22224 0.73954 0.25340
 Zr983 Zr 0.26295 0.76045 0.21935
 O984 O 0.24857 0.77907 0.23813
 O985 O 0.23514 0.76941 0.27015
 O986 O 0.26517 0.73258 0.22821
 C987 C 0.19680 0.75799 0.27958
 C988 C 0.25311 0.77285 0.30736
 C989 C 0.23003 0.80825 0.26022
 C990 C 0.30329 0.74222 0.21948
 C991 C 0.27089 0.69475 0.23566
 C992 C 0.24863 0.72875 0.19112
 H993 H 0.25186 0.71045 0.26544
 H994 H 0.22728 0.75100 0.21149
 H995 H 0.22859 0.77750 0.27958
 H996 H 0.29071 0.76781 0.24389
 H997 H 0.30175 0.74772 0.28037
 H998 H 0.29766 0.77902 0.27500
 H999 H 0.20717 0.72556 0.21276
 H1000 H 0.19219 0.74715 0.23391
 H1001 H 0.29636 0.70996 0.27538
 H1002 H 0.24359 0.72514 0.31176
 H1003 H 0.24020 0.77520 0.19494
 H1004 H 0.22243 0.79231 0.21727
 H1005 H 0.21196 0.71473 0.27663
 H1006 H 0.22660 0.69453 0.25411
 H1007 H 0.27279 0.80602 0.24191
 H1008 H 0.28979 0.78630 0.21825
 O1009 O 0.29330 0.75288 0.71561
 O1010 O 0.28153 0.72196 0.71056
 O1011 O 0.24558 0.78802 0.70971
 O1012 O 0.21677 0.79075 0.72246
 O1013 O 0.28232 0.79571 0.75915
 O1014 O 0.28712 0.77840 0.78717
 O1015 O 0.19673 0.73176 0.75619
 O1016 O 0.19607 0.74464 0.72645
 O1017 O 0.24287 0.69580 0.75870
 O1018 O 0.27678 0.69874 0.75213
 O1019 O 0.23522 0.73713 0.80213
 O1020 O 0.24157 0.77104 0.80503
 O1021 O 0.20608 0.74653 0.78379
 O1022 O 0.21915 0.77981 0.79014
 O1023 O 0.25215 0.71256 0.79033
 O1024 O 0.28479 0.71229 0.77617
 O1025 O 0.21667 0.70520 0.74264
 O1026 O 0.21673 0.72188 0.71191
 O1027 O 0.30289 0.76732 0.74335
 O1028 O 0.30232 0.75599 0.77571
 O1029 O 0.25633 0.80528 0.74284
 O1030 O 0.22241 0.80080 0.75087
 O1031 O 0.26316 0.76387 0.69790
 O1032 O 0.25362 0.72997 0.69632
 Zr1033 Zr 0.26495 0.74477 0.72047
 O1034 O 0.24863 0.72439 0.73509
 Zr1035 Zr 0.23995 0.78030 0.73800
 O1036 O 0.22213 0.76127 0.75283
 Zr1037 Zr 0.27849 0.76607 0.76087
 O1038 O 0.26223 0.74688 0.77720
 Zr1039 Zr 0.22114 0.73456 0.73918
 O1040 O 0.23691 0.75439 0.72286
 Zr1041 Zr 0.25953 0.72076 0.76257
 O1042 O 0.27742 0.73942 0.74708
 Zr1043 Zr 0.23419 0.75623 0.77957
 O1044 O 0.25116 0.77678 0.76549
 O1045 O 0.26746 0.77114 0.73407
 O1046 O 0.23180 0.72965 0.76635
 C1047 C 0.30584 0.76134 0.72623
 C1048 C 0.25484 0.77979 0.69631
 C1049 C 0.27203 0.80856 0.75182
 C1050 C 0.19381 0.73740 0.77338
 C1051 C 0.22685 0.69248 0.75034
 C1052 C 0.24274 0.72081 0.80358
 H1053 H 0.24839 0.71244 0.72754
 H1054 H 0.26828 0.74555 0.78980
 H1055 H 0.27527 0.78048 0.72699
 H1056 H 0.20925 0.76647 0.75386
 H1057 H 0.20010 0.75173 0.71505
 H1058 H 0.20591 0.78194 0.72461
 H1059 H 0.28675 0.72044 0.78761
 H1060 H 0.30553 0.74370 0.76967
 H1061 H 0.20463 0.71440 0.71220
 H1062 H 0.26184 0.73262 0.68520
 H1063 H 0.25414 0.76661 0.80916
 H1064 H 0.27596 0.78507 0.79226
 H1065 H 0.28966 0.71816 0.72130
 H1066 H 0.27244 0.69550 0.73907
 H1067 H 0.22798 0.80389 0.76352
 H1068 H 0.20781 0.78139 0.78202
 O1069 O 0.25149 0.21570 0.20847
 O1070 O 0.28012 0.21191 0.22232
 O1071 O 0.21204 0.20938 0.25560
 O1072 O 0.20633 0.22365 0.28309
 O1073 O 0.20577 0.25635 0.21635
 O1074 O 0.22235 0.28502 0.21181
 O1075 O 0.26270 0.26044 0.30552
 O1076 O 0.25160 0.23015 0.30583
 O1077 O 0.30268 0.26421 0.26124
 O1078 O 0.30290 0.25611 0.22792
 O1079 O 0.26010 0.30496 0.26536
 O1080 O 0.22754 0.30635 0.25811
 O1081 O 0.24717 0.28645 0.29536
 O1082 O 0.21582 0.29097 0.27852
 O1083 O 0.28533 0.29439 0.24851
 O1084 O 0.28864 0.27741 0.21738
 O1085 O 0.29186 0.24843 0.28714
 O1086 O 0.27619 0.21679 0.28680
 O1087 O 0.23674 0.24203 0.19790
 O1088 O 0.24623 0.27514 0.19853
 O1089 O 0.19472 0.24057 0.24213
 O1090 O 0.19649 0.25062 0.27599
 O1091 O 0.23762 0.19792 0.23989
 O1092 O 0.27126 0.19935 0.25027
 Zr1093 Zr 0.25622 0.22166 0.23748
 O1094 O 0.27510 0.23830 0.25436
 Zr1095 Zr 0.21856 0.23827 0.25999
 O1096 O 0.23601 0.25478 0.27841
 Zr1097 Zr 0.23499 0.26017 0.22193
 O1098 O 0.25258 0.27827 0.23874
 Zr1099 Zr 0.26295 0.24291 0.28116
 O1100 O 0.24455 0.22485 0.26485
 Zr1101 Zr 0.27888 0.26551 0.24311
 O1102 O 0.26186 0.24810 0.22479
 Zr1103 Zr 0.24135 0.28136 0.26625
 O1104 O 0.22229 0.26545 0.24846
 O1105 O 0.22969 0.23345 0.23309
 O1106 O 0.26814 0.27001 0.27038
 C1107 C 0.24429 0.22574 0.19526
 C1108 C 0.22136 0.19585 0.24794
 C1109 C 0.19235 0.24874 0.22613
 C1110 C 0.25517 0.27668 0.30833
 C1111 C 0.30512 0.25644 0.27745
 C1112 C 0.27617 0.30749 0.25712
 H1113 H 0.28725 0.23160 0.25543
 H1114 H 0.25393 0.29058 0.23228
 H1115 H 0.22126 0.22536 0.22491
 H1116 H 0.22965 0.25580 0.29087
 H1117 H 0.24502 0.21826 0.30158
 H1118 H 0.21505 0.22565 0.29401
 H1119 H 0.28042 0.28818 0.21438
 H1120 H 0.25870 0.26959 0.19564
 H1121 H 0.28283 0.21800 0.29924
 H1122 H 0.26897 0.18744 0.24282
 H1123 H 0.23098 0.30881 0.24475
 H1124 H 0.21488 0.29024 0.22250
 H1125 H 0.28567 0.22301 0.21573
 H1126 H 0.30603 0.24339 0.23261
 H1127 H 0.19297 0.26240 0.26948
 H1128 H 0.21297 0.28298 0.28965
 O1129 O 0.78901 0.70904 0.24418
 O1130 O 0.78878 0.72090 0.21358
 O1131 O 0.79783 0.75940 0.27936
 O1132 O 0.78248 0.78550 0.28713
 O1133 O 0.75356 0.71648 0.29226
 O1134 O 0.72220 0.71077 0.28006
 O1135 O 0.74077 0.80235 0.23389
 O1136 O 0.77248 0.80458 0.24182
 O1137 O 0.73351 0.75635 0.19599
 O1138 O 0.74321 0.72388 0.19519
 O1139 O 0.69750 0.75960 0.24285
 O1140 O 0.70031 0.75396 0.27649
 O1141 O 0.71561 0.79098 0.25088
 O1142 O 0.71498 0.77758 0.28412
 O1143 O 0.70629 0.74255 0.21676
 O1144 O 0.72404 0.71203 0.21273
 O1145 O 0.74849 0.78393 0.20511
 O1146 O 0.78264 0.78543 0.21543
 O1147 O 0.76397 0.69783 0.26147
 O1148 O 0.73019 0.69597 0.25546
 O1149 O 0.76933 0.74367 0.30129
 O1150 O 0.75703 0.77673 0.29991
 O1151 O 0.80660 0.74144 0.25383
 O1152 O 0.80202 0.75005 0.22015
 Zr1153 Zr 0.78141 0.73705 0.23798
 O1154 O 0.76280 0.75211 0.22051
 Zr1155 Zr 0.76805 0.76080 0.27688
 O1156 O 0.74937 0.77723 0.26082
 Zr1157 Zr 0.74554 0.72081 0.26396
 O1158 O 0.72547 0.73545 0.24790
 Zr1159 Zr 0.75869 0.77906 0.23262
 O1160 O 0.77878 0.76478 0.24924
 Zr1161 Zr 0.73572 0.73908 0.22013
 O1162 O 0.75497 0.72260 0.23573
 Zr1163 Zr 0.72278 0.76322 0.25877
 O1164 O 0.74094 0.74756 0.27656
 O1165 O 0.77227 0.73378 0.26584
 O1166 O 0.73166 0.76639 0.23083
 C1167 C 0.78014 0.69590 0.25334
 C1168 C 0.81033 0.75111 0.26908
 C1169 C 0.76267 0.72689 0.30451
 C1170 C 0.72431 0.80404 0.24144
 C1171 C 0.73916 0.77351 0.19305
 C1172 C 0.69384 0.75081 0.22708
 H1173 H 0.76814 0.75315 0.20757
 H1174 H 0.71331 0.72819 0.24812
 H1175 H 0.78149 0.72671 0.27350
 H1176 H 0.74850 0.79000 0.26670
 H1177 H 0.78513 0.80107 0.24668
 H1178 H 0.77986 0.79562 0.27797
 H1179 H 0.71378 0.70910 0.22186
 H1180 H 0.73462 0.69258 0.24254
 H1181 H 0.78013 0.79736 0.20866
 H1182 H 0.81406 0.74307 0.22115
 H1183 H 0.69723 0.74062 0.27295
 H1184 H 0.71868 0.72128 0.28875
 H1185 H 0.77764 0.71263 0.21038
 H1186 H 0.75585 0.72865 0.19115
 H1187 H 0.74581 0.76956 0.30465
 H1188 H 0.72302 0.78922 0.28536
 O1189 O 0.71592 0.29432 0.74971
 O1190 O 0.71133 0.28112 0.71939
 O1191 O 0.71013 0.24834 0.78750
 O1192 O 0.72285 0.22002 0.79169
 O1193 O 0.75810 0.28689 0.79309
 O1194 O 0.78704 0.29092 0.77622
 O1195 O 0.75781 0.19838 0.73309
 O1196 O 0.72806 0.19716 0.74596
 O1197 O 0.76029 0.24307 0.69517
 O1198 O 0.75363 0.27668 0.69644
 O1199 O 0.80309 0.23796 0.73720
 O1200 O 0.80572 0.24569 0.77048
 O1201 O 0.78474 0.20884 0.74833
 O1202 O 0.79050 0.22388 0.78093
 O1203 O 0.79157 0.25347 0.71167
 O1204 O 0.77725 0.28588 0.70997
 O1205 O 0.74391 0.21703 0.70547
 O1206 O 0.71324 0.21671 0.72261
 O1207 O 0.74343 0.30527 0.76358
 O1208 O 0.77606 0.30496 0.75264
 O1209 O 0.74350 0.26025 0.80437
 O1210 O 0.75105 0.22618 0.80117
 O1211 O 0.69841 0.26423 0.76224
 O1212 O 0.69737 0.25319 0.72875
 Zr1213 Zr 0.72118 0.26583 0.74305
 O1214 O 0.73626 0.24922 0.72345
 Zr1215 Zr 0.73848 0.24292 0.77999
 O1216 O 0.75359 0.22475 0.76172
 Zr1217 Zr 0.76109 0.28135 0.76383
 O1218 O 0.77787 0.26477 0.74553
 Zr1219 Zr 0.74043 0.22230 0.73488
 O1220 O 0.72375 0.23835 0.75407
 Zr1221 Zr 0.76370 0.26065 0.71944
 O1222 O 0.74770 0.27881 0.73714
 Zr1223 Zr 0.78029 0.23727 0.75628
 O1224 O 0.76586 0.25471 0.77599
 O1225 O 0.73437 0.26981 0.76939
 O1226 O 0.76757 0.23345 0.72965
 C1227 C 0.72635 0.30748 0.75749
 C1228 C 0.69673 0.25676 0.77870
 C1229 C 0.75142 0.27675 0.80664
 C1230 C 0.77473 0.19602 0.73948
 C1231 C 0.75183 0.22693 0.69237
 C1232 C 0.80472 0.24470 0.72045
 H1233 H 0.72888 0.24837 0.71146
 H1234 H 0.79044 0.27106 0.74396
 H1235 H 0.72709 0.27782 0.77831
 H1236 H 0.75463 0.21214 0.76757
 H1237 H 0.71658 0.20100 0.75299
 H1238 H 0.72452 0.20904 0.78299
 H1239 H 0.78884 0.28813 0.71774
 H1240 H 0.77023 0.30753 0.74014
 H1241 H 0.71368 0.20444 0.71555
 H1242 H 0.68612 0.26115 0.73099
 H1243 H 0.80921 0.25859 0.76620
 H1244 H 0.79168 0.28032 0.78393
 H1245 H 0.72204 0.28931 0.71513
 H1246 H 0.74055 0.27212 0.69350
 H1247 H 0.76352 0.23220 0.80433
 H1248 H 0.78266 0.21228 0.78295
 C1249 C 0.08986 0.99030 1.18262
 N1250 N 0.08313 1.00054 1.19754
 N1251 N 0.09219 1.00080 1.21420
 C1252 C 0.10824 0.99075 1.21660
 N1253 N 0.11483 0.98036 1.20171
 N1254 N 0.10580 0.98013 1.18504
 C1255 C 0.08067 0.99103 1.16393
 N1256 N 0.08863 0.98247 1.14860
 N1257 N 0.08077 0.98379 1.13144
 C1258 C 0.06468 0.99373 1.12899
 N1259 N 0.05665 1.00221 1.14434
 N1260 N 0.06455 1.00093 1.16151
 C1261 C 0.05617 0.99532 1.11006
 N1262 N 0.03940 1.00416 1.10772
 N1263 N 0.03157 1.00536 1.09052
 C1264 C 0.04030 0.99788 1.07505
 N1265 N 0.05712 0.98915 1.07738
 N1266 N 0.06491 0.98789 1.09458
 C1267 C 0.59044 0.50384 0.67761
 N1268 N 0.60879 0.49856 0.67886
 N1269 N 0.61737 0.49760 0.69568
 C1270 C 0.60790 0.50179 0.71193
 N1271 N 0.58949 0.50704 0.71071
 N1272 N 0.58090 0.50804 0.69384
 C1273 C 0.58127 0.50508 0.65895
 N1274 N 0.56317 0.51110 0.65726
 N1275 N 0.55501 0.51219 0.64019
 C1276 C 0.56467 0.50731 0.62425
 N1277 N 0.58276 0.50131 0.62596
 N1278 N 0.59092 0.50024 0.64300
 C1279 C 0.55566 0.50807 0.60547
 N1280 N 0.56505 0.50204 0.58976
 N1281 N 0.55673 0.50214 0.57274
 C1282 C 0.53872 0.50834 0.57080
 N1283 N 0.52937 0.51451 0.58649
 N1284 N 0.53769 0.51437 0.60353
 C1285 C 0.41105 -0.00523 0.68191
 N1286 N 0.42091 -0.00773 0.69830
 N1287 N 0.41215 -0.00689 0.71507
 C1288 C 0.39323 -0.00354 0.71598
 N1289 N 0.38345 -0.00121 0.69955
 N1290 N 0.39218 -0.00203 0.68286
 C1291 C 0.42051 -0.00529 0.66340
 N1292 N 0.41047 -0.00142 0.64748
 N1293 N 0.41892 -0.00089 0.63061
 C1294 C 0.43774 -0.00423 0.62904
 N1295 N 0.44782 -0.00820 0.64495
 N1296 N 0.43935 -0.00869 0.66187
 C1297 C 0.44696 -0.00333 0.61044
 N1298 N 0.46556 -0.00756 0.60846
 N1299 N 0.47386 -0.00665 0.59151
 C1300 C 0.46387 -0.00141 0.57596
 N1301 N 0.44528 0.00285 0.57795
 N1302 N 0.43698 0.00189 0.59489
 C1303 C -0.09197 0.48975 1.17951
 N1304 N -0.08221 0.48741 1.19598
 N1305 N -0.09101 0.48867 1.21270
 C1306 C -0.10987 0.49229 1.21347
 N1307 N -0.11957 0.49448 1.19697
 N1308 N -0.11080 0.49324 1.18033
 C1309 C -0.08250 0.48926 1.16103
 N1310 N -0.09254 0.49292 1.14505
 N1311 N -0.08411 0.49311 1.12817
 C1312 C -0.06531 0.48962 1.12664
 N1313 N -0.05524 0.48585 1.14260
 N1314 N -0.06369 0.48570 1.15954
 C1315 C -0.05616 0.49027 1.10800
 N1316 N -0.03759 0.48594 1.10595
 N1317 N -0.02939 0.48670 1.08894
 C1318 C -0.03946 0.49189 1.07341
 N1319 N -0.05801 0.49622 1.07549
 N1320 N -0.06621 0.49541 1.09248
 C1321 C -0.09499 0.49631 0.32102
 N1322 N -0.11416 0.49646 0.31878
 N1323 N -0.12192 0.49574 0.30145
 C1324 C -0.11083 0.49470 0.28573
 N1325 N -0.09168 0.49438 0.28802
 N1326 N -0.08392 0.49521 0.30531
 C1327 C -0.08624 0.49768 0.34001
 N1328 N -0.06717 0.50035 0.34183
 N1329 N -0.05909 0.50177 0.35895
 C1330 C -0.06976 0.50047 0.37493
 N1331 N -0.08885 0.49775 0.37314
 N1332 N -0.09695 0.49645 0.35599
 C1333 C -0.06060 0.50173 0.39374
 N1334 N -0.07044 0.49761 0.40979
 N1335 N -0.06180 0.49815 0.42671
 C1336 C -0.04305 0.50295 0.42820
 N1337 N -0.03330 0.50723 0.41216
 N1338 N -0.04190 0.50660 0.39526
 C1339 C 0.40737 0.99870 -0.17773
 N1340 N 0.38834 1.00070 -0.17976
 N1341 N 0.38036 1.00041 -0.19699
 C1342 C 0.39108 0.99797 -0.21285
 N1343 N 0.41009 0.99575 -0.21072
 N1344 N 0.41808 0.99617 -0.19352
 C1345 C 0.41639 0.99970 -0.15884
 N1346 N 0.43559 1.00098 -0.15723
 N1347 N 0.44388 1.00221 -0.14019
 C1348 C 0.43329 1.00209 -0.12411
 N1349 N 0.41407 1.00073 -0.12570
 N1350 N 0.40577 0.99963 -0.14276
 C1351 C 0.44260 1.00337 -0.10537
 N1352 N 0.43264 1.00015 -0.08919
 N1353 N 0.44130 1.00094 -0.07229
 C1354 C 0.46019 1.00513 -0.07095
 N1355 N 0.47008 1.00847 -0.08713
 N1356 N 0.46146 1.00756 -0.10401
 C1357 C 0.59120 0.50658 -0.18126
 N1358 N 0.58051 0.50627 -0.19736
 N1359 N 0.58870 0.50595 -0.21438
 C1360 C 0.60792 0.50585 -0.21601
 N1361 N 0.61863 0.50622 -0.19990
 N1362 N 0.61043 0.50664 -0.18284
 C1363 C 0.58198 0.50635 -0.16255
 N1364 N 0.59231 0.50861 -0.14629
 N1365 N 0.58383 0.50814 -0.12938
 C1366 C 0.56473 0.50528 -0.12811
 N1367 N 0.55444 0.50300 -0.14437
 N1368 N 0.56289 0.50357 -0.16126
 C1369 C 0.55530 0.50458 -0.10951
 N1370 N 0.53669 0.49932 -0.10828
 N1371 N 0.52806 0.49867 -0.09147
 C1372 C 0.53770 0.50336 -0.07526
 N1373 N 0.55632 0.50865 -0.07649
 N1374 N 0.56498 0.50920 -0.09330
 C1375 C 0.09196 -0.01180 0.32282
 N1376 N 0.11045 -0.00618 0.32123
 N1377 N 0.11872 -0.00536 0.30423
 C1378 C 0.10880 -0.01011 0.28820
 N1379 N 0.09034 -0.01583 0.28984
 N1380 N 0.08208 -0.01668 0.30681
 C1381 C 0.08258 -0.01210 0.34145
 N1382 N 0.06414 -0.01790 0.34293
 N1383 N 0.05543 -0.01770 0.35971
 C1384 C 0.06484 -0.01166 0.37564
 N1385 N 0.08331 -0.00591 0.37417
 N1386 N 0.09202 -0.00614 0.35739
 C1387 C 0.05510 -0.01102 0.39407
 N1388 N 0.06424 -0.00412 0.40982
 N1389 N 0.05533 -0.00324 0.42647
 C1390 C 0.03694 -0.00923 0.42800
 N1391 N 0.02781 -0.01618 0.41226
 N1392 N 0.03672 -0.01704 0.39560
 C1393 C 0.18300 1.08778 1.00188
 N1394 N 0.19925 1.07889 1.00650
 N1395 N 0.21592 1.08822 1.00612
 C1396 C 0.21689 1.10675 1.00110
 N1397 N 0.20061 1.11558 0.99650
 N1398 N 0.18399 1.10627 0.99684
 C1399 C 0.16454 1.07782 1.00240
 N1400 N 0.14862 1.08689 0.99709
 N1401 N 0.13174 1.07808 0.99761
 C1402 C 0.13013 1.05988 1.00350
 N1403 N 0.14605 1.05077 1.00883
 N1404 N 0.16298 1.05959 1.00828
 C1405 C 0.11144 1.05038 1.00397
 N1406 N 0.10935 1.03240 1.01044
 N1407 N 0.09226 1.02390 1.01071
 C1408 C 0.07670 1.03307 1.00451
 N1409 N 0.07883 1.05103 0.99806
 N1410 N 0.09588 1.05953 0.99782
 C1411 C 0.68130 0.59203 0.50020
 N1412 N 0.68310 0.61040 0.49494
 N1413 N 0.70013 0.61889 0.49424
 C1414 C 0.71603 0.60933 0.49868
 N1415 N 0.71425 0.59090 0.50390
 N1416 N 0.69717 0.58239 0.50464
 C1417 C 0.66241 0.58295 0.50118
 N1418 N 0.66016 0.56484 0.50720
 N1419 N 0.64290 0.55677 0.50810
 C1420 C 0.62731 0.56653 0.50301
 N1421 N 0.62958 0.58463 0.49701
 N1422 N 0.64681 0.59270 0.49614
 C1423 C 0.60832 0.55763 0.50362
 N1424 N 0.59297 0.56714 0.49745
 N1425 N 0.57577 0.55892 0.49746
 C1426 C 0.57329 0.54091 0.50369
 N1427 N 0.58862 0.53144 0.50998
 N1428 N 0.60584 0.53965 0.50994
 C1429 C 0.67850 0.41847 0.00381
 N1430 N 0.68006 0.40420 0.01635
 N1431 N 0.69566 0.39401 0.01697
 C1432 C 0.71047 0.39757 0.00512
 N1433 N 0.70899 0.41212 -0.00731
 N1434 N 0.69330 0.42240 -0.00793
 C1435 C 0.66046 0.42835 0.00245
 N1436 N 0.65821 0.44330 -0.00926
 N1437 N 0.64136 0.45149 -0.01074
 C1438 C 0.62622 0.44488 -0.00068
 N1439 N 0.62855 0.43000 0.01100
 N1440 N 0.64534 0.42192 0.01256
 C1441 C 0.60747 0.45331 -0.00236
 N1442 N 0.59219 0.44464 0.00573
 N1443 N 0.57508 0.45217 0.00461
 C1444 C 0.57260 0.46870 -0.00457
 N1445 N 0.58788 0.47741 -0.01271
 N1446 N 0.60502 0.46981 -0.01169
 C1447 C 0.17784 -0.09085 0.49077
 N1448 N 0.17908 -0.10963 0.49427
 N1449 N 0.19591 -0.11767 0.49563
 C1450 C 0.21220 -0.10727 0.49357
 N1451 N 0.21102 -0.08845 0.48993
 N1452 N 0.19411 -0.08038 0.48855
 C1453 C 0.15913 -0.08217 0.49011
 N1454 N 0.15728 -0.06346 0.48637
 N1455 N 0.14019 -0.05569 0.48642
 C1456 C 0.12439 -0.06634 0.49026
 N1457 N 0.12626 -0.08503 0.49393
 N1458 N 0.14331 -0.09280 0.49384
 C1459 C 0.10562 -0.05776 0.49098
 N1460 N 0.09017 -0.06812 0.49652
 N1461 N 0.07319 -0.06023 0.49770
 C1462 C 0.07105 -0.04172 0.49332
 N1463 N 0.08648 -0.03141 0.48767
 N1464 N 0.10347 -0.03927 0.48655
 C1465 C 0.31986 -0.08940 0.49777
 N1466 N 0.30419 -0.07857 0.49689
 N1467 N 0.28688 -0.08660 0.49615
 C1468 C 0.28458 -0.10578 0.49634
 N1469 N 0.30028 -0.11660 0.49717
 N1470 N 0.31759 -0.10857 0.49781
 C1471 C 0.33892 -0.08049 0.49904
 N1472 N 0.35473 -0.09114 0.49792
 N1473 N 0.37198 -0.08302 0.49924
 C1474 C 0.37405 -0.06396 0.50186
 N1475 N 0.35823 -0.05333 0.50303
 N1476 N 0.34100 -0.06143 0.50160
 C1477 C 0.39303 -0.05490 0.50329
 N1478 N 0.39493 -0.03621 0.50801
 N1479 N 0.41205 -0.02782 0.50900
 C1480 C 0.42793 -0.03778 0.50526
 N1481 N 0.42605 -0.05650 0.50058
 N1482 N 0.40891 -0.06492 0.49968
 C1483 C -0.18423 0.40371 1.00805
 N1484 N -0.18765 0.38488 1.00486
 N1485 N -0.20543 0.37785 1.00447
 C1486 C -0.22044 0.38941 1.00717
 N1487 N -0.21689 0.40820 1.01043
 N1488 N -0.19919 0.41519 1.01091
 C1489 C -0.16482 0.41193 1.00811
 N1490 N -0.16199 0.43057 1.01256
 N1491 N -0.14464 0.43844 1.01222
 C1492 C -0.12940 0.42800 1.00735
 N1493 N -0.13216 0.40930 1.00292
 N1494 N -0.14957 0.40139 1.00331
 C1495 C -0.11040 0.43712 1.00668
 N1496 N -0.09501 0.42754 1.00051
 N1497 N -0.07798 0.43620 0.99964
 C1498 C -0.07575 0.45475 1.00493
 N1499 N -0.09115 0.46425 1.01114
 N1500 N -0.10812 0.45563 1.01198
 C1501 C -0.17783 0.59185 0.50358
 N1502 N -0.19418 0.58130 0.50354
 N1503 N -0.21097 0.58963 0.50350
 C1504 C -0.21210 0.60884 0.50342
 N1505 N -0.19573 0.61941 0.50355
 N1506 N -0.17890 0.61107 0.50368
 C1507 C -0.15938 0.58251 0.50298
 N1508 N -0.14288 0.59272 0.50481
 N1509 N -0.12620 0.58414 0.50402
 C1510 C -0.12542 0.56506 0.50125
 N1511 N -0.14192 0.55488 0.49939
 N1512 N -0.15858 0.56343 0.50028
 C1513 C -0.10708 0.55553 0.50033
 N1514 N -0.10631 0.53686 0.49544
 N1515 N -0.08973 0.52812 0.49477
 C1516 C -0.07330 0.53771 0.49905
 N1517 N -0.07406 0.55640 0.50393
 N1518 N -0.09064 0.56516 0.50450
 C1519 C 0.32338 1.09315 0.00717
 N1520 N 0.30734 1.08215 0.00748
 N1521 N 0.29032 1.08998 0.00720
 C1522 C 0.28863 1.10911 0.00653
 N1523 N 0.30469 1.12014 0.00633
 N1524 N 0.32177 1.11231 0.00669
 C1525 C 0.34207 1.08426 0.00673
 N1526 N 0.35836 1.09488 0.00807
 N1527 N 0.37522 1.08664 0.00731
 C1528 C 0.37638 1.06753 0.00507
 N1529 N 0.36009 1.05695 0.00372
 N1530 N 0.34325 1.06516 0.00457
 C1531 C 0.39489 1.05834 0.00399
 N1532 N 0.39588 1.03961 -0.00057
 N1533 N 0.41260 1.03118 -0.00155
 C1534 C 0.42896 1.04115 0.00209
 N1535 N 0.42797 1.05988 0.00668
 N1536 N 0.41125 1.06835 0.00756
 C1537 C 0.00198 1.17725 1.09000
 N1538 N -0.00338 1.17884 1.10843
 N1539 N -0.00421 1.19579 1.11690
 C1540 C 0.00021 1.21181 1.10726
 N1541 N 0.00553 1.21024 1.08876
 N1542 N 0.00639 1.19324 1.08028
 C1543 C 0.00314 1.15844 1.08096
 N1544 N 0.00927 1.15641 1.06279
 N1545 N 0.01039 1.13921 1.05478
 C1546 C 0.00541 1.12348 1.06467
 N1547 N -0.00071 1.12555 1.08283
 N1548 N -0.00180 1.14271 1.09083
 C1549 C 0.00634 1.10455 1.05589
 N1550 N 0.00043 1.08902 1.06560
 N1551 N 0.00082 1.07183 1.05755
 C1552 C 0.00721 1.06953 1.03950
 N1553 N 0.01323 1.08505 1.02981
 N1554 N 0.01280 1.10226 1.03787
 C1555 C 0.50286 0.68317 0.58901
 N1556 N 0.50720 0.69937 0.57960
 N1557 N 0.50638 0.71620 0.58845
 C1558 C 0.50116 0.71738 0.60700
 N1559 N 0.49681 0.70115 0.61632
 N1560 N 0.49760 0.68438 0.60749
 C1561 C 0.50392 0.66453 0.57960
 N1562 N 0.49910 0.64863 0.58926
 N1563 N 0.50002 0.63161 0.58093
 C1564 C 0.50586 0.62984 0.56266
 N1565 N 0.51073 0.64574 0.55297
 N1566 N 0.50979 0.66280 0.56130
 C1567 C 0.50645 0.61104 0.55352
 N1568 N 0.51246 0.60896 0.53531
 N1569 N 0.51242 0.59188 0.52695
 C1570 C 0.50637 0.57629 0.53650
 N1571 N 0.50046 0.57838 0.55473
 N1572 N 0.50053 0.59544 0.56310
 C1573 C -0.00824 0.67613 0.41027
 N1574 N -0.00261 0.67684 0.39189
 N1575 N -0.00143 0.69329 0.38298
 C1576 C -0.00581 0.70973 0.39207
 N1577 N -0.01148 0.70908 0.41050
 N1578 N -0.01266 0.69254 0.41946
 C1579 C -0.00915 0.65780 0.41980
 N1580 N -0.01442 0.65639 0.43828
 N1581 N -0.01480 0.63957 0.44673
 C1582 C -0.00993 0.62363 0.43697
 N1583 N -0.00476 0.62509 0.41850
 N1584 N -0.00438 0.64185 0.41008
 C1585 C -0.00975 0.60512 0.44615
 N1586 N -0.00403 0.58960 0.43628
 N1587 N -0.00329 0.57279 0.44458
 C1588 C -0.00828 0.57089 0.46307
 N1589 N -0.01411 0.58640 0.47295
 N1590 N -0.01482 0.60324 0.46463
 C1591 C 0.49215 1.18083 -0.08844
 N1592 N 0.49515 1.18149 -0.10743
 N1593 N 0.49595 1.19802 -0.11626
 C1594 C 0.49378 1.21455 -0.10647
 N1595 N 0.49061 1.21393 -0.08744
 N1596 N 0.48979 1.19733 -0.07857
 C1597 C 0.49225 1.16251 -0.07888
 N1598 N 0.48904 1.16120 -0.05992
 N1599 N 0.48973 1.14446 -0.05140
 C1600 C 0.49373 1.12850 -0.06154
 N1601 N 0.49689 1.12984 -0.08048
 N1602 N 0.49614 1.14653 -0.08898
 C1603 C 0.49486 1.11007 -0.05229
 N1604 N 0.50023 1.09454 -0.06238
 N1605 N 0.50133 1.07774 -0.05409
 C1606 C 0.49707 1.07587 -0.03541
 N1607 N 0.49169 1.09141 -0.02531
 N1608 N 0.49064 1.10823 -0.03359
 C1609 C 0.49642 0.32228 -0.09203
 N1610 N 0.49666 0.31966 -0.11119
 N1611 N 0.49629 0.30221 -0.11878
 C1612 C 0.49553 0.28674 -0.10751
 N1613 N 0.49514 0.28939 -0.08835
 N1614 N 0.49562 0.30682 -0.08076
 C1615 C 0.49741 0.34146 -0.08354
 N1616 N 0.49987 0.34384 -0.06450
 N1617 N 0.50103 0.36117 -0.05673
 C1618 C 0.49971 0.37678 -0.06768
 N1619 N 0.49719 0.37442 -0.08673
 N1620 N 0.49613 0.35706 -0.09453
 C1621 C 0.50086 0.39584 -0.05892
 N1622 N 0.49700 0.41150 -0.06915
 N1623 N 0.49764 0.42869 -0.06095
 C1624 C 0.50231 0.43084 -0.04227
 N1625 N 0.50629 0.41518 -0.03212
 N1626 N 0.50555 0.39801 -0.04028
 C1627 C -0.00490 -0.18339 0.40630
 N1628 N 0.00799 -0.18841 0.39295
 N1629 N 0.00707 -0.20555 0.38473
 C1630 C -0.00657 -0.21840 0.38976
 N1631 N -0.01941 -0.21342 0.40319
 N1632 N -0.01871 -0.19614 0.41117
 C1633 C -0.00367 -0.16460 0.41554
 N1634 N -0.01960 -0.15581 0.42146
 N1635 N -0.01845 -0.13871 0.42977
 C1636 C -0.00131 -0.12994 0.43279
 N1637 N 0.01464 -0.13881 0.42703
 N1638 N 0.01346 -0.15576 0.41841
 C1639 C -0.00012 -0.11118 0.44208
 N1640 N 0.01496 -0.10613 0.45330
 N1641 N 0.01571 -0.08925 0.46214
 C1642 C 0.00157 -0.07670 0.45973
 N1643 N -0.01338 -0.08169 0.44834
 N1644 N -0.01429 -0.09867 0.43979
 C1645 C 0.50617 -0.17585 0.59217
 N1646 N 0.50603 -0.19181 0.58116
 N1647 N 0.50590 -0.20888 0.58903
 C1648 C 0.50585 -0.21067 0.60822
 N1649 N 0.50608 -0.19468 0.61926
 N1650 N 0.50630 -0.17758 0.61138
 C1651 C 0.50560 -0.15710 0.58333
 N1652 N 0.50755 -0.14093 0.59397
 N1653 N 0.50671 -0.12399 0.58585
 C1654 C 0.50375 -0.12262 0.56682
 N1655 N 0.50179 -0.13879 0.55622
 N1656 N 0.50274 -0.15570 0.56431
 C1657 C 0.50262 -0.10400 0.55777
 N1658 N 0.49733 -0.10279 0.53926
 N1659 N 0.49634 -0.08598 0.53094
 C1660 C 0.50070 -0.06975 0.54080
 N1661 N 0.50602 -0.07096 0.55933
 N1662 N 0.50690 -0.08777 0.56768
 C1663 C 0.00461 0.31820 1.09000
 N1664 N 0.00493 0.31685 1.10924
 N1665 N 0.00488 0.29993 1.11745
 C1666 C 0.00464 0.28373 1.10674
 N1667 N 0.00451 0.28513 1.08750
 N1668 N 0.00447 0.30202 1.07929
 C1669 C 0.00381 0.33677 1.08085
 N1670 N 0.00073 0.33787 1.06184
 N1671 N -0.00048 0.35466 1.05353
 C1672 C 0.00143 0.37098 1.06391
 N1673 N 0.00461 0.36989 1.08292
 N1674 N 0.00571 0.35309 1.09125
 C1675 C 0.00001 0.38948 1.05471
 N1676 N 0.00418 0.40579 1.06449
 N1677 N 0.00302 0.42254 1.05607
 C1678 C -0.00248 0.42359 1.03759
 N1679 N -0.00673 0.40727 1.02784
 N1680 N -0.00547 0.39052 1.03623
 C1681 C 0.75026 0.32688 0.06655
 N1682 N 0.73333 0.33464 0.06268
 N1683 N 0.73063 0.34385 0.04665
 C1684 C 0.74469 0.34587 0.03366
 N1685 N 0.76159 0.33749 0.03713
 N1686 N 0.76434 0.32814 0.05334
 C1687 C 0.75298 0.31891 0.08558
 N1688 N 0.76780 0.30775 0.09007
 N1689 N 0.76944 0.30087 0.10762
 C1690 C 0.75646 0.30513 0.12126
 N1691 N 0.74182 0.31636 0.11670
 N1692 N 0.74010 0.32303 0.09924
 C1693 C 0.75753 0.29758 0.14062
 N1694 N 0.74617 0.30474 0.15442
 N1695 N 0.74599 0.29745 0.17177
 C1696 C 0.75709 0.28259 0.17598
 N1697 N 0.76858 0.27548 0.16223
 N1698 N 0.76885 0.28287 0.14487
 C1699 C 0.25823 0.84156 0.57214
 N1700 N 0.24618 0.85606 0.56984
 N1701 N 0.24356 0.86350 0.55283
 C1702 C 0.25293 0.85685 0.53737
 N1703 N 0.26529 0.84251 0.53965
 N1704 N 0.26784 0.83493 0.55675
 C1705 C 0.25975 0.83291 0.59093
 N1706 N 0.26942 0.81669 0.59359
 N1707 N 0.26950 0.80848 0.61056
 C1708 C 0.25993 0.81620 0.62544
 N1709 N 0.25046 0.83248 0.62277
 N1710 N 0.25035 0.84064 0.60585
 C1711 C 0.25911 0.80689 0.64396
 N1712 N 0.24923 0.81478 0.65850
 N1713 N 0.24790 0.80620 0.67519
 C1714 C 0.25637 0.78935 0.67795
 N1715 N 0.26630 0.78147 0.66343
 N1716 N 0.26764 0.79007 0.64673
 C1717 C 0.75945 0.68074 0.56078
 N1718 N 0.77358 0.66906 0.55524
 N1719 N 0.77211 0.65902 0.53905
 C1720 C 0.75641 0.66024 0.52791
 N1721 N 0.74253 0.67223 0.53326
 N1722 N 0.74409 0.68240 0.54929
 C1723 C 0.75941 0.68948 0.57986
 N1724 N 0.74594 0.70219 0.58460
 N1725 N 0.74437 0.70856 0.60243
 C1726 C 0.75604 0.70225 0.61625
 N1727 N 0.76964 0.68967 0.61150
 N1728 N 0.77130 0.68341 0.59362
 C1729 C 0.75356 0.70844 0.63610
 N1730 N 0.76282 0.69971 0.65037
 N1731 N 0.76047 0.70525 0.66838
 C1732 C 0.74878 0.71972 0.67280
 N1733 N 0.73950 0.72844 0.65852
 N1734 N 0.74174 0.72281 0.64052
 C1735 C 0.25723 0.17946 0.06367
 N1736 N 0.27175 0.16826 0.05819
 N1737 N 0.27074 0.15833 0.04190
 C1738 C 0.25511 0.15919 0.03061
 N1739 N 0.24082 0.17071 0.03592
 N1740 N 0.24192 0.18078 0.05205
 C1741 C 0.25679 0.18808 0.08280
 N1742 N 0.24308 0.20057 0.08744
 N1743 N 0.24125 0.20686 0.10528
 C1744 C 0.25288 0.20068 0.11920
 N1745 N 0.26670 0.18831 0.11454
 N1746 N 0.26863 0.18213 0.09667
 C1747 C 0.25023 0.20689 0.13902
 N1748 N 0.25932 0.19813 0.15338
 N1749 N 0.25695 0.20378 0.17136
 C1750 C 0.24540 0.21840 0.17565
 N1751 N 0.23627 0.22714 0.16129
 N1752 N 0.23853 0.22139 0.14331
 C1753 C 0.26888 0.16467 0.93056
 N1754 N 0.26072 0.14708 0.93072
 N1755 N 0.25716 0.13847 0.94702
 C1756 C 0.26176 0.14698 0.96388
 N1757 N 0.27038 0.16443 0.96382
 N1758 N 0.27381 0.17318 0.94741
 C1759 C 0.27065 0.17442 0.91230
 N1760 N 0.27537 0.19319 0.91126
 N1761 N 0.27497 0.20200 0.89457
 C1762 C 0.26979 0.19233 0.87842
 N1763 N 0.26537 0.17357 0.87952
 N1764 N 0.26577 0.16482 0.89611
 C1765 C 0.26778 0.20177 0.86005
 N1766 N 0.26044 0.19174 0.84504
 N1767 N 0.25777 0.19994 0.82839
 C1768 C 0.26236 0.21853 0.82601
 N1769 N 0.26983 0.22865 0.84098
 N1770 N 0.27243 0.22042 0.85776
 C1771 C 0.77047 0.66504 0.42795
 N1772 N 0.77559 0.67342 0.44481
 N1773 N 0.77167 0.66488 0.46122
 C1774 C 0.76235 0.64778 0.46127
 N1775 N 0.75753 0.63940 0.44442
 N1776 N 0.76159 0.64780 0.42811
 C1777 C 0.77285 0.67461 0.40967
 N1778 N 0.76816 0.66497 0.39345
 N1779 N 0.76822 0.67363 0.37681
 C1780 C 0.77293 0.69232 0.37567
 N1781 N 0.77794 0.70202 0.39185
 N1782 N 0.77789 0.69330 0.40860
 C1783 C 0.77122 0.70168 0.35723
 N1784 N 0.77592 0.72032 0.35491
 N1785 N 0.77340 0.72851 0.33810
 C1786 C 0.76596 0.71836 0.32314
 N1787 N 0.76136 0.69979 0.32555
 N1788 N 0.76395 0.69162 0.34223
 C1789 C 0.26025 0.82070 0.43885
 N1790 N 0.24406 0.81851 0.44904
 N1791 N 0.24113 0.82912 0.46451
 C1792 C 0.25442 0.84208 0.47060
 N1793 N 0.27091 0.84387 0.46078
 N1794 N 0.27376 0.83339 0.44514
 C1795 C 0.26176 0.81129 0.42014
 N1796 N 0.27452 0.81760 0.40712
 N1797 N 0.27414 0.81071 0.38935
 C1798 C 0.26099 0.79726 0.38398
 N1799 N 0.24848 0.79073 0.39711
 N1800 N 0.24879 0.79769 0.41481
 C1801 C 0.25950 0.79061 0.36412
 N1802 N 0.24725 0.77619 0.35927
 N1803 N 0.24525 0.77057 0.34120
 C1804 C 0.25528 0.77928 0.32725
 N1805 N 0.26754 0.79371 0.33208
 N1806 N 0.26962 0.79928 0.35019
 C1807 C 0.75329 0.33478 0.93440
 N1808 N 0.74032 0.34858 0.93588
 N1809 N 0.73726 0.35724 0.95242
 C1810 C 0.74724 0.35280 0.96824
 N1811 N 0.76046 0.33903 0.96679
 N1812 N 0.76331 0.33004 0.95018
 C1813 C 0.75609 0.32568 0.91572
 N1814 N 0.75952 0.30685 0.91381
 N1815 N 0.75979 0.29861 0.89657
 C1816 C 0.75681 0.30896 0.88070
 N1817 N 0.75372 0.32780 0.88268
 N1818 N 0.75319 0.33594 0.89984
 C1819 C 0.75614 0.30016 0.86159
 N1820 N 0.75783 0.31123 0.84604
 N1821 N 0.75638 0.30371 0.82861
 C1822 C 0.75287 0.28485 0.82602
 N1823 N 0.75112 0.27372 0.84157
 N1824 N 0.75278 0.28124 0.85905
 C1825 C 0.81671 0.43682 0.25831
 N1826 N 0.81460 0.44762 0.24268
 N1827 N 0.82496 0.46346 0.24059
 C1828 C 0.83759 0.46931 0.25419
 N1829 N 0.83925 0.45889 0.27016
 N1830 N 0.82901 0.44290 0.27217
 C1831 C 0.80791 0.41773 0.25874
 N1832 N 0.81429 0.40460 0.27102
 N1833 N 0.80811 0.38661 0.26973
 C1834 C 0.79532 0.38110 0.25611
 N1835 N 0.78869 0.39429 0.24406
 N1836 N 0.79496 0.41224 0.24528
 C1837 C 0.78938 0.36105 0.25393
 N1838 N 0.77505 0.35580 0.24184
 N1839 N 0.76981 0.33760 0.23974
 C1840 C 0.77888 0.32395 0.24947
 N1841 N 0.79329 0.32921 0.26146
 N1842 N 0.79844 0.34741 0.26365
 C1843 C 0.31954 0.94027 0.76130
 N1844 N 0.33171 0.94654 0.77519
 N1845 N 0.34219 0.96234 0.77293
 C1846 C 0.34092 0.97235 0.75665
 N1847 N 0.32847 0.96628 0.74298
 N1848 N 0.31787 0.95064 0.74532
 C1849 C 0.31023 0.92144 0.76220
 N1850 N 0.29698 0.91611 0.74898
 N1851 N 0.29012 0.89836 0.74819
 C1852 C 0.29644 0.88518 0.76043
 N1853 N 0.30954 0.89053 0.77380
 N1854 N 0.31631 0.90834 0.77468
 C1855 C 0.28988 0.86529 0.75853
 N1856 N 0.29868 0.85139 0.76814
 N1857 N 0.29313 0.83329 0.76586
 C1858 C 0.27857 0.82844 0.75390
 N1859 N 0.26973 0.84235 0.74436
 N1860 N 0.27536 0.86042 0.74655
 C1861 C 0.18081 0.93679 0.26623
 N1862 N 0.18400 0.94693 0.25025
 N1863 N 0.17370 0.96205 0.24651
 C1864 C 0.16010 0.96784 0.25880
 N1865 N 0.15726 0.95803 0.27503
 N1866 N 0.16736 0.94270 0.27863
 C1867 C 0.18995 0.91848 0.26866
 N1868 N 0.18071 0.90423 0.27783
 N1869 N 0.18775 0.88684 0.27799
 C1870 C 0.20441 0.88313 0.26918
 N1871 N 0.21386 0.89747 0.26035
 N1872 N 0.20667 0.91479 0.25994
 C1873 C 0.21129 0.86366 0.26793
 N1874 N 0.23002 0.86029 0.26534
 N1875 N 0.23606 0.84259 0.26326
 C1876 C 0.22353 0.82767 0.26332
 N1877 N 0.20480 0.83105 0.26585
 N1878 N 0.19881 0.84872 0.26824
 C1879 C 0.66374 0.43041 0.76318
 N1880 N 0.67165 0.44716 0.76945
 N1881 N 0.66309 0.46353 0.76610
 C1882 C 0.64645 0.46365 0.75623
 N1883 N 0.63854 0.44689 0.75026
 N1884 N 0.64695 0.43062 0.75373
 C1885 C 0.67333 0.41224 0.76519
 N1886 N 0.66411 0.39605 0.75946
 N1887 N 0.67281 0.37953 0.75952
 C1888 C 0.69116 0.37848 0.76524
 N1889 N 0.70044 0.39463 0.77122
 N1890 N 0.69167 0.41125 0.77119
 C1891 C 0.70064 0.36014 0.76394
 N1892 N 0.71910 0.35815 0.76915
 N1893 N 0.72744 0.34139 0.76720
 C1894 C 0.71762 0.32612 0.75988
 N1895 N 0.69921 0.32819 0.75475
 N1896 N 0.69090 0.34484 0.75673
 C1897 C 0.67971 0.56329 0.75525
 N1898 N 0.66803 0.55754 0.76949
 N1899 N 0.65800 0.54131 0.76788
 C1900 C 0.65925 0.53033 0.75193
 N1901 N 0.67126 0.53590 0.73793
 N1902 N 0.68141 0.55197 0.73962
 C1903 C 0.68843 0.58241 0.75541
 N1904 N 0.70100 0.58742 0.74168
 N1905 N 0.70733 0.60529 0.74034
 C1906 C 0.70113 0.61889 0.75253
 N1907 N 0.68870 0.61387 0.76639
 N1908 N 0.68246 0.59595 0.76781
 C1909 C 0.70731 0.63877 0.75033
 N1910 N 0.69886 0.65283 0.76037
 N1911 N 0.70440 0.67087 0.75828
 C1912 C 0.71859 0.67553 0.74606
 N1913 N 0.72701 0.66147 0.73599
 N1914 N 0.72139 0.64344 0.73800
 C1915 C 0.16349 0.06871 0.26139
 N1916 N 0.14470 0.06688 0.25735
 N1917 N 0.13637 0.04981 0.25588
 C1918 C 0.14642 0.03390 0.25873
 N1919 N 0.16516 0.03567 0.26323
 N1920 N 0.17358 0.05280 0.26448
 C1921 C 0.17273 0.08756 0.26084
 N1922 N 0.19186 0.08960 0.25891
 N1923 N 0.19986 0.10677 0.25673
 C1924 C 0.18901 0.12247 0.25646
 N1925 N 0.16994 0.12041 0.25862
 N1926 N 0.16195 0.10328 0.26064
 C1927 C 0.19751 0.14144 0.25373
 N1928 N 0.18694 0.15707 0.25665
 N1929 N 0.19449 0.17436 0.25442
 C1930 C 0.21284 0.17670 0.24894
 N1931 N 0.22340 0.16106 0.24583
 N1932 N 0.21588 0.14373 0.24820
 C1933 C 0.34030 0.07370 0.76269
 N1934 N 0.35606 0.07176 0.75194
 N1935 N 0.36367 0.05487 0.74932
 C1936 C 0.35594 0.03917 0.75741
 N1937 N 0.34035 0.04106 0.76855
 N1938 N 0.33260 0.05806 0.77109
 C1939 C 0.33143 0.09234 0.76390
 N1940 N 0.31422 0.09469 0.77217
 N1941 N 0.30589 0.11151 0.77180
 C1942 C 0.31448 0.12652 0.76314
 N1943 N 0.33173 0.12417 0.75508
 N1944 N 0.34002 0.10741 0.75544
 C1945 C 0.30513 0.14488 0.76178
 N1946 N 0.31376 0.15944 0.75249
 N1947 N 0.30522 0.17600 0.75073
 C1948 C 0.28770 0.17860 0.75816
 N1949 N 0.27907 0.16404 0.76748
 N1950 N 0.28761 0.14747 0.76924
 C1951 C 0.83907 0.57116 0.25949
 N1952 N 0.85459 0.56870 0.24851
 N1953 N 0.86172 0.55158 0.24597
 C1954 C 0.85372 0.53617 0.25436
 N1955 N 0.83836 0.53860 0.26572
 N1956 N 0.83111 0.55583 0.26818
 C1957 C 0.83074 0.59006 0.26067
 N1958 N 0.81380 0.59297 0.26929
 N1959 N 0.80594 0.61002 0.26893
 C1960 C 0.81473 0.62471 0.25993
 N1961 N 0.83172 0.62180 0.25152
 N1962 N 0.83954 0.60480 0.25186
 C1963 C 0.80585 0.64330 0.25861
 N1964 N 0.81463 0.65757 0.24901
 N1965 N 0.80647 0.67434 0.24730
 C1966 C 0.78920 0.67743 0.25510
 N1967 N 0.78044 0.66317 0.26474
 N1968 N 0.78860 0.64640 0.26645
 C1969 C 0.92884 0.26574 0.16237
 N1970 N 0.92918 0.25582 0.14573
 N1971 N 0.94555 0.25159 0.13758
 C1972 C 0.96231 0.25723 0.14562
 N1973 N 0.96208 0.26754 0.16211
 N1974 N 0.94559 0.27164 0.17042
 C1975 C 0.91047 0.26856 0.17171
 N1976 N 0.90921 0.27437 0.19018
 N1977 N 0.89235 0.27483 0.19881
 C1978 C 0.87623 0.26950 0.18925
 N1979 N 0.87755 0.26404 0.17075
 N1980 N 0.89431 0.26355 0.16218
 C1981 C 0.85768 0.26808 0.19869
 N1982 N 0.84259 0.26073 0.18884
 N1983 N 0.82590 0.25804 0.19725
 C1984 C 0.82359 0.26263 0.21586
 N1985 N 0.83861 0.27023 0.22577
 N1986 N 0.85542 0.27285 0.21734
 C1987 C 0.43010 0.76913 0.66421
 N1988 N 0.43039 0.76017 0.64705
 N1989 N 0.44673 0.75649 0.63856
 C1990 C 0.46352 0.76176 0.64678
 N1991 N 0.46334 0.77114 0.66381
 N1992 N 0.44688 0.77469 0.67244
 C1993 C 0.41176 0.77130 0.67382
 N1994 N 0.41053 0.77644 0.69249
 N1995 N 0.39370 0.77644 0.70121
 C1996 C 0.37757 0.77130 0.69154
 N1997 N 0.37887 0.76648 0.67287
 N1998 N 0.39560 0.76645 0.66421
 C1999 C 0.35900 0.76968 0.70091
 N2000 N 0.34388 0.76279 0.69079
 N2001 N 0.32705 0.76029 0.69897
 C2002 C 0.32460 0.76460 0.71763
 N2003 N 0.33968 0.77167 0.72784
 N2004 N 0.35663 0.77411 0.71963
 C2005 C 0.43850 0.25965 0.82038
 N2006 N 0.44515 0.27365 0.83231
 N2007 N 0.46081 0.27122 0.84266
 C2008 C 0.47029 0.25467 0.84152
 N2009 N 0.46382 0.24088 0.82932
 N2010 N 0.44834 0.24338 0.81884
 C2011 C 0.41982 0.26086 0.81114
 N2012 N 0.41425 0.24756 0.79800
 N2013 N 0.39658 0.24712 0.79117
 C2014 C 0.38371 0.25982 0.79740
 N2015 N 0.38931 0.27328 0.81039
 N2016 N 0.40706 0.27380 0.81713
 C2017 C 0.36387 0.25831 0.79086
 N2018 N 0.35011 0.26845 0.79954
 N2019 N 0.33202 0.26645 0.79403
 C2020 C 0.32705 0.25425 0.77963
 N2021 N 0.34084 0.24419 0.77091
 N2022 N 0.35888 0.24610 0.77649
 C2023 C 0.94128 0.75325 0.31637
 N2024 N 0.94651 0.73549 0.32080
 N2025 N 0.96125 0.73278 0.33220
 C2026 C 0.97167 0.74767 0.33941
 N2027 N 0.96695 0.76552 0.33433
 N2028 N 0.95185 0.76827 0.32319
 C2029 C 0.92330 0.75564 0.30611
 N2030 N 0.91210 0.77069 0.30980
 N2031 N 0.89444 0.77109 0.30283
 C2032 C 0.88743 0.75650 0.29186
 N2033 N 0.89880 0.74170 0.28785
 N2034 N 0.91632 0.74121 0.29497
 C2035 C 0.86751 0.75587 0.28543
 N2036 N 0.86168 0.74284 0.27213
 N2037 N 0.84349 0.74140 0.26692
 C2038 C 0.83037 0.75275 0.27502
 N2039 N 0.83618 0.76581 0.28835
 N2040 N 0.85443 0.76735 0.29345
 C2041 C 0.07171 0.75978 0.34063
 N2042 N 0.05596 0.76725 0.33263
 N2043 N 0.03877 0.76381 0.34000
 C2044 C 0.03679 0.75268 0.35552
 N2045 N 0.05259 0.74552 0.36355
 N2046 N 0.06967 0.74902 0.35631
 C2047 C 0.09065 0.76199 0.33213
 N2048 N 0.10580 0.75424 0.34084
 N2049 N 0.12288 0.75477 0.33283
 C2050 C 0.12550 0.76304 0.31574
 N2051 N 0.11040 0.77099 0.30705
 N2052 N 0.09326 0.77047 0.31509
 C2053 C 0.14421 0.76247 0.30658
 N2054 N 0.14709 0.77020 0.28924
 N2055 N 0.16391 0.76891 0.28074
 C2056 C 0.17843 0.75982 0.28921
 N2057 N 0.17555 0.75217 0.30658
 N2058 N 0.15876 0.75347 0.31509
 C2059 C 0.57208 0.26110 0.84051
 N2060 N 0.55660 0.26956 0.83302
 N2061 N 0.53943 0.26687 0.84070
 C2062 C 0.53719 0.25551 0.85601
 N2063 N 0.55273 0.24734 0.86352
 N2064 N 0.56979 0.25011 0.85598
 C2065 C 0.59094 0.26261 0.83174
 N2066 N 0.60588 0.25427 0.84023
 N2067 N 0.62286 0.25423 0.83202
 C2068 C 0.62556 0.26248 0.81494
 N2069 N 0.61067 0.27101 0.80646
 N2070 N 0.59363 0.27107 0.81471
 C2071 C 0.64415 0.26146 0.80563
 N2072 N 0.64700 0.26889 0.78816
 N2073 N 0.66377 0.26739 0.77961
 C2074 C 0.67828 0.25837 0.78819
 N2075 N 0.67544 0.25099 0.80567
 N2076 N 0.65868 0.25249 0.81422
 C2077 C 0.56334 0.75950 0.67843
 N2078 N 0.55159 0.74414 0.68024
 N2079 N 0.53546 0.74273 0.67036
 C2080 C 0.53027 0.75677 0.65854
 N2081 N 0.54169 0.77245 0.65718
 N2082 N 0.55798 0.77378 0.66693
 C2083 C 0.58247 0.75932 0.68683
 N2084 N 0.59635 0.77141 0.68072
 N2085 N 0.61422 0.76971 0.68670
 C2086 C 0.61884 0.75585 0.69900
 N2087 N 0.60491 0.74396 0.70533
 N2088 N 0.58709 0.74559 0.69926
 C2089 C 0.63863 0.75340 0.70501
 N2090 N 0.64288 0.74115 0.71904
 N2091 N 0.66080 0.73901 0.72461
 C2092 C 0.67518 0.74884 0.71617
 N2093 N 0.67095 0.76096 0.70201
 N2094 N 0.65301 0.76319 0.69652
 C2095 C 0.06160 0.25674 0.17842
 N2096 N 0.05041 0.24096 0.18012
 N2097 N 0.03450 0.23888 0.16997
 C2098 C 0.02898 0.25263 0.15798
 N2099 N 0.03983 0.26872 0.15671
 N2100 N 0.05591 0.27071 0.16672
 C2101 C 0.08052 0.25739 0.18730
 N2102 N 0.09419 0.26974 0.18121
 N2103 N 0.11196 0.26874 0.18768
 C2104 C 0.11668 0.25537 0.20048
 N2105 N 0.10295 0.24325 0.20678
 N2106 N 0.08523 0.24416 0.20022
 C2107 C 0.13640 0.25358 0.20698
 N2108 N 0.14058 0.24185 0.22147
 N2109 N 0.15845 0.24007 0.22736
 C2110 C 0.17284 0.24978 0.21881
 N2111 N 0.16868 0.26142 0.20422
 N2112 N 0.15079 0.26328 0.19841
 C2113 C -0.08870 0.99761 0.82229
 N2114 N -0.07931 0.99458 0.80573
 N2115 N -0.08817 0.99635 0.78908
 C2116 C -0.10672 1.00124 0.78843
 N2117 N -0.11604 1.00425 0.80502
 N2118 N -0.10719 1.00252 0.82162
 C2119 C -0.07924 0.99562 0.84072
 N2120 N -0.08881 0.99942 0.85699
 N2121 N -0.08041 0.99776 0.87384
 C2122 C -0.06214 0.99218 0.87505
 N2123 N -0.05255 0.98830 0.85878
 N2124 N -0.06096 0.98999 0.84190
 C2125 C -0.05290 0.99092 0.89368
 N2126 N -0.03476 0.98498 0.89528
 N2127 N -0.02629 0.98452 0.91224
 C2128 C -0.03566 0.99001 0.92817
 N2129 N -0.05383 0.99583 0.92655
 N2130 N -0.06230 0.99624 0.90963
 C2131 C 0.41193 0.50632 0.31688
 N2132 N 0.41550 0.49331 0.30302
 N2133 N 0.40626 0.49367 0.28648
 C2134 C 0.39326 0.50719 0.28311
 N2135 N 0.38977 0.52024 0.29698
 N2136 N 0.39894 0.51983 0.31354
 C2137 C 0.42124 0.50534 0.33550
 N2138 N 0.41533 0.51639 0.35019
 N2139 N 0.42328 0.51511 0.36731
 C2140 C 0.43747 0.50278 0.37035
 N2141 N 0.44347 0.49180 0.35563
 N2142 N 0.43544 0.49300 0.33852
 C2143 C 0.44608 0.50140 0.38926
 N2144 N 0.46191 0.49112 0.39197
 N2145 N 0.46985 0.49021 0.40915
 C2146 C 0.46214 0.49943 0.42424
 N2147 N 0.44624 0.50960 0.42154
 N2148 N 0.43837 0.51059 0.40436
 C2149 C 0.58823 0.00105 0.32178
 N2150 N 0.57925 0.00608 0.30555
 N2151 N 0.58808 0.00494 0.28884
 C2152 C 0.60617 -0.00132 0.28782
 N2153 N 0.61503 -0.00642 0.30407
 N2154 N 0.60623 -0.00529 0.32071
 C2155 C 0.57905 0.00270 0.34036
 N2156 N 0.58868 -0.00204 0.35628
 N2157 N 0.58066 -0.00048 0.37330
 C2158 C 0.56272 0.00590 0.37505
 N2159 N 0.55304 0.01066 0.35913
 N2160 N 0.56108 0.00911 0.34206
 C2161 C 0.55396 0.00716 0.39386
 N2162 N 0.53582 0.01296 0.39593
 N2163 N 0.52779 0.01343 0.41305
 C2164 C 0.53763 0.00814 0.42867
 N2165 N 0.55580 0.00248 0.42660
 N2166 N 0.56382 0.00202 0.40950
 C2167 C 0.08715 0.50704 0.82051
 N2168 N 0.07751 0.50933 0.80396
 N2169 N 0.08644 0.50807 0.78731
 C2170 C 0.10531 0.50446 0.78668
 N2171 N 0.11488 0.50228 0.80326
 N2172 N 0.10598 0.50355 0.81984
 C2173 C 0.07750 0.50767 0.83891
 N2174 N 0.08742 0.50435 0.85505
 N2175 N 0.07879 0.50423 0.87183
 C2176 C 0.05993 0.50745 0.87311
 N2177 N 0.04998 0.51090 0.85699
 N2178 N 0.05862 0.51100 0.84016
 C2179 C 0.05052 0.50661 0.89162
 N2180 N 0.03175 0.51025 0.89338
 N2181 N 0.02326 0.50897 0.91022
 C2182 C 0.03323 0.50396 0.92586
 N2183 N 0.05199 0.50038 0.92409
 N2184 N 0.06048 0.50170 0.90728
 C2185 C 0.09029 0.50160 0.67928
 N2186 N 0.10947 0.50133 0.68142
 N2187 N 0.11731 0.50186 0.69872
 C2188 C 0.10629 0.50282 0.71449
 N2189 N 0.08714 0.50323 0.71230
 N2190 N 0.07929 0.50260 0.69504
 C2191 C 0.08145 0.50045 0.66032
 N2192 N 0.06234 0.49813 0.65855
 N2193 N 0.05419 0.49687 0.64145
 C2194 C 0.06484 0.49797 0.62545
 N2195 N 0.08397 0.50035 0.62719
 N2196 N 0.09214 0.50151 0.64432
 C2197 C 0.05568 0.49673 0.60664
 N2198 N 0.06570 0.50031 0.59058
 N2199 N 0.05717 0.49956 0.57361
 C2200 C 0.03836 0.49508 0.57208
 N2201 N 0.02840 0.49138 0.58814
 N2202 N 0.03689 0.49222 0.60510
 C2203 C 0.59320 1.00330 0.18040
 N2204 N 0.61235 1.00319 0.18283
 N2205 N 0.61990 1.00324 0.20025
 C2206 C 0.60862 1.00354 0.21587
 N2207 N 0.58949 1.00387 0.21338
 N2208 N 0.58194 1.00372 0.19600
 C2209 C 0.58465 1.00234 0.16129
 N2210 N 0.59554 1.00381 0.14545
 N2211 N 0.58762 1.00264 0.12819
 C2212 C 0.56857 0.99980 0.12618
 N2213 N 0.55774 0.99830 0.14202
 N2214 N 0.56562 0.99957 0.15924
 C2215 C 0.55961 0.99856 0.10727
 N2216 N 0.54094 0.99362 0.10557
 N2217 N 0.53250 0.99298 0.08860
 C2218 C 0.54238 0.99731 0.07266
 N2219 N 0.56110 1.00218 0.07431
 N2220 N 0.56959 1.00273 0.09131
 C2221 C 0.40685 0.50089 0.17672
 N2222 N 0.41782 0.50195 0.19261
 N2223 N 0.40995 0.50178 0.20977
 C2224 C 0.39079 0.50059 0.21176
 N2225 N 0.37979 0.49942 0.19586
 N2226 N 0.38768 0.49951 0.17864
 C2227 C 0.41575 0.50172 0.15787
 N2228 N 0.40531 0.49902 0.14173
 N2229 N 0.41356 0.49998 0.12472
 C2230 C 0.43249 0.50379 0.12325
 N2231 N 0.44288 0.50652 0.13938
 N2232 N 0.43467 0.50548 0.15636
 C2233 C 0.44173 0.50479 0.10458
 N2234 N 0.46024 0.51041 0.10324
 N2235 N 0.46882 0.51102 0.08641
 C2236 C 0.45922 0.50596 0.07027
 N2237 N 0.44069 0.50038 0.07160
 N2238 N 0.43208 0.49986 0.08843
 C2239 C -0.09138 -0.00164 0.68143
 N2240 N -0.08055 -0.00151 0.69743
 N2241 N -0.08858 -0.00096 0.71451
 C2242 C -0.10776 -0.00044 0.71633
 N2243 N -0.11862 -0.00057 0.70032
 N2244 N -0.11058 -0.00122 0.68318
 C2245 C -0.08228 -0.00198 0.66265
 N2246 N -0.09276 -0.00414 0.64648
 N2247 N -0.08435 -0.00440 0.62953
 C2248 C -0.06516 -0.00241 0.62812
 N2249 N -0.05472 -0.00021 0.64429
 N2250 N -0.06311 -0.00005 0.66122
 C2251 C -0.05582 -0.00260 0.60946
 N2252 N -0.03696 0.00158 0.60799
 N2253 N -0.02846 0.00146 0.59110
 C2254 C -0.03848 -0.00295 0.57504
 N2255 N -0.05733 -0.00718 0.57652
 N2256 N -0.06585 -0.00696 0.59341
 C2257 C -0.18093 0.90959 1.00107
 N2258 N -0.18298 0.89130 1.00651
 N2259 N -0.20008 0.88294 1.00695
 C2260 C -0.21581 0.89256 1.00206
 N2261 N -0.21379 0.91093 0.99669
 N2262 N -0.19663 0.91930 0.99621
 C2263 C -0.16194 0.91843 1.00013
 N2264 N -0.15942 0.93642 0.99385
 N2265 N -0.14204 0.94420 0.99282
 C2266 C -0.12660 0.93425 0.99800
 N2267 N -0.12915 0.91628 1.00428
 N2268 N -0.14650 0.90850 1.00529
 C2269 C -0.10747 0.94279 0.99713
 N2270 N -0.09224 0.93300 1.00315
 N2271 N -0.07488 0.94087 1.00285
 C2272 C -0.07213 0.95879 0.99646
 N2273 N -0.08736 0.96853 0.99033
 N2274 N -0.10472 0.96067 0.99065
 C2275 C 0.31751 0.41348 0.50216
 N2276 N 0.31631 0.39520 0.50782
 N2277 N 0.29960 0.38609 0.50846
 C2278 C 0.28341 0.39493 0.50353
 N2279 N 0.28459 0.41329 0.49794
 N2280 N 0.30135 0.42241 0.49728
 C2281 C 0.33611 0.42312 0.50099
 N2282 N 0.33784 0.44112 0.49450
 N2283 N 0.35490 0.44957 0.49319
 C2284 C 0.37079 0.44029 0.49829
 N2285 N 0.36902 0.42233 0.50479
 N2286 N 0.35200 0.41389 0.50609
 C2287 C 0.38963 0.44941 0.49699
 N2288 N 0.40521 0.44002 0.50271
 N2289 N 0.42237 0.44823 0.50188
 C2290 C 0.42460 0.46610 0.49524
 N2291 N 0.40902 0.47549 0.48943
 N2292 N 0.39182 0.46728 0.49029
 C2293 C 0.31871 0.58906 0.00691
 N2294 N 0.30234 0.57883 0.00936
 N2295 N 0.28554 0.58715 0.00817
 C2296 C 0.28458 0.60598 0.00449
 N2297 N 0.30098 0.61613 0.00216
 N2298 N 0.31771 0.60784 0.00334
 C2299 C 0.33732 0.58014 0.00751
 N2300 N 0.35324 0.59064 0.00389
 N2301 N 0.37021 0.58271 0.00383
 C2302 C 0.37190 0.56398 0.00743
 N2303 N 0.35599 0.55346 0.01116
 N2304 N 0.33897 0.56139 0.01118
 C2305 C 0.39062 0.55529 0.00679
 N2306 N 0.39266 0.53672 0.01096
 N2307 N 0.40964 0.52882 0.00993
 C2308 C 0.42517 0.53920 0.00465
 N2309 N 0.42313 0.55778 0.00053
 N2310 N 0.40616 0.56569 0.00161
 C2311 C -0.17921 0.08495 0.50549
 N2312 N -0.19610 0.07595 0.50885
 N2313 N -0.21231 0.08536 0.50788
 C2314 C -0.21218 0.10411 0.50350
 N2315 N -0.19520 0.11298 0.50022
 N2316 N -0.17909 0.10360 0.50117
 C2317 C -0.16119 0.07501 0.50626
 N2318 N -0.14484 0.08453 0.50201
 N2319 N -0.12828 0.07585 0.50244
 C2320 C -0.12743 0.05733 0.50717
 N2321 N -0.14377 0.04774 0.51148
 N2322 N -0.16040 0.05644 0.51103
 C2323 C -0.10904 0.04801 0.50725
 N2324 N -0.10748 0.02967 0.51256
 N2325 N -0.09064 0.02139 0.51232
 C2326 C -0.07483 0.03116 0.50673
 N2327 N -0.07643 0.04948 0.50147
 N2328 N -0.09322 0.05776 0.50175
 C2329 C 0.68198 0.09409 0.50279
 N2330 N 0.68500 0.11313 0.50143
 N2331 N 0.70261 0.12053 0.50203
 C2332 C 0.71785 0.10921 0.50415
 N2333 N 0.71470 0.09022 0.50576
 N2334 N 0.69716 0.08282 0.50504
 C2335 C 0.66274 0.08558 0.50140
 N2336 N 0.66043 0.06648 0.49949
 N2337 N 0.64315 0.05854 0.49805
 C2338 C 0.62746 0.06937 0.49856
 N2339 N 0.62972 0.08850 0.50053
 N2340 N 0.64706 0.09647 0.50183
 C2341 C 0.60844 0.06033 0.49730
 N2342 N 0.59257 0.07030 0.50109
 N2343 N 0.57547 0.06175 0.50063
 C2344 C 0.57362 0.04296 0.49622
 N2345 N 0.58949 0.03308 0.49226
 N2346 N 0.60656 0.04159 0.49283
 C2347 C 0.17698 0.58898 1.00068
 N2348 N 0.19264 0.57814 1.00153
 N2349 N 0.20994 0.58615 1.00254
 C2350 C 0.21226 0.60534 1.00267
 N2351 N 0.19657 0.61618 1.00188
 N2352 N 0.17925 0.60816 1.00098
 C2353 C 0.15795 0.58003 0.99912
 N2354 N 0.14207 0.59058 1.00046
 N2355 N 0.12487 0.58238 0.99898
 C2356 C 0.12291 0.56335 0.99596
 N2357 N 0.13879 0.55284 0.99456
 N2358 N 0.15597 0.56102 0.99615
 C2359 C 0.10398 0.55415 0.99457
 N2360 N 0.10218 0.53552 0.98959
 N2361 N 0.08514 0.52694 0.98890
 C2362 C 0.06924 0.53664 0.99321
 N2363 N 0.07102 0.55531 0.99811
 N2364 N 0.08807 0.56393 0.99871
 C2365 C 0.17703 0.40872 0.49556
 N2366 N 0.17864 0.38955 0.49586
 N2367 N 0.19570 0.38172 0.49655
 C2368 C 0.21176 0.39276 0.49685
 N2369 N 0.21009 0.41190 0.49637
 N2370 N 0.19307 0.41972 0.49577
 C2371 C 0.15833 0.41758 0.49568
 N2372 N 0.15706 0.43664 0.49813
 N2373 N 0.14019 0.44481 0.49872
 C2374 C 0.12395 0.43423 0.49678
 N2375 N 0.12519 0.41516 0.49422
 N2376 N 0.14209 0.40696 0.49374
 C2377 C 0.10540 0.44335 0.49760
 N2378 N 0.08915 0.43341 0.49339
 N2379 N 0.07239 0.44180 0.49410
 C2380 C 0.07124 0.46042 0.49916
 N2381 N 0.08749 0.47033 0.50343
 N2382 N 0.10425 0.46196 0.50262
 C2383 C 0.67824 0.91031 -0.00393
 N2384 N 0.67926 0.89109 -0.00432
 N2385 N 0.69606 0.88271 -0.00439
 C2386 C 0.71245 0.89323 -0.00419
 N2387 N 0.71138 0.91245 -0.00400
 N2388 N 0.69461 0.92082 -0.00385
 C2389 C 0.65981 0.91968 -0.00301
 N2390 N 0.65905 0.93872 -0.00005
 N2391 N 0.64240 0.94727 0.00118
 C2392 C 0.62588 0.93710 -0.00057
 N2393 N 0.62662 0.91805 -0.00360
 N2394 N 0.64328 0.90948 -0.00473
 C2395 C 0.60753 0.94659 0.00069
 N2396 N 0.59108 0.93694 -0.00334
 N2397 N 0.57449 0.94565 -0.00254
 C2398 C 0.57372 0.96431 0.00243
 N2399 N 0.59017 0.97394 0.00658
 N2400 N 0.60677 0.96524 0.00569
 C2401 C -0.00132 0.81529 0.91117
 N2402 N 0.00437 0.81397 0.89282
 N2403 N 0.00510 0.79717 0.88404
 C2404 C 0.00026 0.78102 0.89328
 N2405 N -0.00536 0.78231 0.91170
 N2406 N -0.00612 0.79916 0.92051
 C2407 C -0.00250 0.83398 0.92046
 N2408 N -0.00874 0.83581 0.93863
 N2409 N -0.00986 0.85292 0.94683
 C2410 C -0.00481 0.86876 0.93714
 N2411 N 0.00141 0.86689 0.91900
 N2412 N 0.00251 0.84982 0.91081
 C2413 C -0.00556 0.88760 0.94615
 N2414 N 0.00041 0.90317 0.93654
 N2415 N 0.00044 0.92026 0.94484
 C2416 C -0.00556 0.92242 0.96303
 N2417 N -0.01169 0.90687 0.97261
 N2418 N -0.01169 0.88976 0.96431
 C2419 C 0.49966 0.32081 0.41081
 N2420 N 0.50462 0.31933 0.39226
 N2421 N 0.50504 0.30246 0.38358
 C2422 C 0.50060 0.28639 0.39313
 N2423 N 0.49569 0.28783 0.41175
 N2424 N 0.49524 0.30476 0.42045
 C2425 C 0.49880 0.33955 0.42002
 N2426 N 0.49297 0.34152 0.43831
 N2427 N 0.49199 0.35869 0.44641
 C2428 C 0.49679 0.37445 0.43650
 N2429 N 0.50264 0.37245 0.41824
 N2430 N 0.50359 0.35532 0.41015
 C2431 C 0.49588 0.39339 0.44529
 N2432 N 0.50143 0.40892 0.43540
 N2433 N 0.50095 0.42615 0.44337
 C2434 C 0.49484 0.42848 0.46151
 N2435 N 0.48920 0.41295 0.47139
 N2436 N 0.48971 0.39570 0.46342
 C2437 C 0.00726 0.31847 0.58687
 N2438 N 0.00376 0.31767 0.60577
 N2439 N 0.00308 0.30111 0.61453
 C2440 C 0.00586 0.28467 0.60476
 N2441 N 0.00949 0.28543 0.58582
 N2442 N 0.01019 0.30207 0.57702
 C2443 C 0.00722 0.33687 0.57744
 N2444 N 0.01080 0.33837 0.55856
 N2445 N 0.01024 0.35520 0.55019
 C2446 C 0.00603 0.37106 0.56042
 N2447 N 0.00250 0.36951 0.57927
 N2448 N 0.00310 0.35274 0.58762
 C2449 C 0.00506 0.38960 0.55137
 N2450 N -0.00030 0.40503 0.56162
 N2451 N -0.00131 0.42193 0.55354
 C2452 C 0.00303 0.42402 0.53491
 N2453 N 0.00841 0.40859 0.52464
 N2454 N 0.00937 0.39166 0.53272
 C2455 C 0.50988 0.82416 0.08987
 N2456 N 0.50634 0.82333 0.10877
 N2457 N 0.50498 0.80671 0.11738
 C2458 C 0.50708 0.79024 0.10744
 N2459 N 0.51075 0.79104 0.08852
 N2460 N 0.51212 0.80773 0.07988
 C2461 C 0.51060 0.84261 0.08053
 N2462 N 0.51419 0.84398 0.06165
 N2463 N 0.51420 0.86083 0.05327
 C2464 C 0.51059 0.87684 0.06350
 N2465 N 0.50708 0.87543 0.08237
 N2466 N 0.50710 0.85863 0.09073
 C2467 C 0.50995 0.89535 0.05434
 N2468 N 0.50483 0.91094 0.06448
 N2469 N 0.50377 0.92773 0.05619
 C2470 C 0.50783 0.92955 0.03746
 N2471 N 0.51304 0.91397 0.02732
 N2472 N 0.51405 0.89715 0.03561
 C2473 C 0.50126 0.68317 0.09036
 N2474 N 0.50259 0.69895 0.07960
 N2475 N 0.50397 0.71611 0.08774
 C2476 C 0.50402 0.71816 0.10697
 N2477 N 0.50275 0.70236 0.11774
 N2478 N 0.50146 0.68517 0.10960
 C2479 C 0.49934 0.66430 0.08127
 N2480 N 0.50019 0.64830 0.09172
 N2481 N 0.49846 0.63123 0.08338
 C2482 C 0.49567 0.62955 0.06431
 N2483 N 0.49475 0.64556 0.05388
 N2484 N 0.49658 0.66260 0.06220
 C2485 C 0.49413 0.61077 0.05499
 N2486 N 0.48951 0.60913 0.03626
 N2487 N 0.48875 0.59218 0.02762
 C2488 C 0.49265 0.57623 0.03735
 N2489 N 0.49718 0.57786 0.05610
 N2490 N 0.49784 0.59480 0.06478
 C2491 C 0.00491 0.17698 0.59035
 N2492 N 0.00572 0.19247 0.57912
 N2493 N 0.00618 0.20988 0.58675
 C2494 C 0.00577 0.21249 0.60591
 N2495 N 0.00503 0.19699 0.61715
 N2496 N 0.00467 0.17956 0.60952
 C2497 C 0.00377 0.15782 0.58180
 N2498 N 0.00501 0.14216 0.59273
 N2499 N 0.00370 0.12483 0.58489
 C2500 C 0.00097 0.12254 0.56586
 N2501 N -0.00030 0.13820 0.55496
 N2502 N 0.00112 0.15550 0.56278
 C2503 C -0.00058 0.10351 0.55707
 N2504 N -0.00571 0.10142 0.53853
 N2505 N -0.00691 0.08427 0.53036
 C2506 C -0.00295 0.06853 0.54041
 N2507 N 0.00218 0.07059 0.55898
 N2508 N 0.00327 0.08777 0.56719
 C2509 C 0.49637 0.18008 0.40981
 N2510 N 0.49567 0.18143 0.39057
 N2511 N 0.49530 0.19835 0.38236
 C2512 C 0.49547 0.21454 0.39308
 N2513 N 0.49597 0.21314 0.41231
 N2514 N 0.49644 0.19625 0.42051
 C2515 C 0.49756 0.16154 0.41899
 N2516 N 0.50075 0.16055 0.43799
 N2517 N 0.50215 0.14382 0.44638
 C2518 C 0.50034 0.12743 0.43609
 N2519 N 0.49709 0.12841 0.41708
 N2520 N 0.49579 0.14516 0.40867
 C2521 C 0.50167 0.10900 0.44545
 N2522 N 0.49751 0.09262 0.43577
 N2523 N 0.49826 0.07596 0.44442
 C2524 C 0.50333 0.07504 0.46303
 N2525 N 0.50762 0.09141 0.47267
 N2526 N 0.50677 0.10808 0.46405
 C2527 C -0.00597 0.67444 0.90822
 N2528 N -0.00592 0.69047 0.91915
 N2529 N -0.00583 0.70748 0.91119
 C2530 C -0.00573 0.70919 0.89198
 N2531 N -0.00588 0.69314 0.88103
 N2532 N -0.00607 0.67608 0.88900
 C2533 C -0.00536 0.65575 0.91718
 N2534 N -0.00728 0.63950 0.90666
 N2535 N -0.00646 0.62262 0.91492
 C2536 C -0.00356 0.62138 0.93396
 N2537 N -0.00161 0.63763 0.94445
 N2538 N -0.00254 0.65448 0.93622
 C2539 C -0.00262 0.60283 0.94317
 N2540 N 0.00247 0.60170 0.96176
 N2541 N 0.00310 0.58496 0.97025
 C2542 C -0.00142 0.56870 0.96050
 N2543 N -0.00649 0.56982 0.94190
 N2544 N -0.00702 0.58657 0.93337
 C2545 C 0.23760 0.65803 0.92709
 N2546 N 0.24912 0.64306 0.92905
 N2547 N 0.25198 0.63556 0.94599
 C2548 C 0.24339 0.64262 0.96172
 N2549 N 0.23153 0.65744 0.95980
 N2550 N 0.22874 0.66508 0.94276
 C2551 C 0.23593 0.66678 0.90835
 N2552 N 0.22701 0.68348 0.90598
 N2553 N 0.22695 0.69177 0.88904
 C2554 C 0.23580 0.68366 0.87392
 N2555 N 0.24450 0.66689 0.87629
 N2556 N 0.24458 0.65864 0.89317
 C2557 C 0.23686 0.69310 0.85547
 N2558 N 0.24636 0.68494 0.84082
 N2559 N 0.24811 0.69369 0.82425
 C2560 C 0.24046 0.71097 0.82172
 N2561 N 0.23087 0.71911 0.83634
 N2562 N 0.22912 0.71034 0.85293
 C2563 C 0.74338 0.16093 0.43078
 N2564 N 0.73205 0.16517 0.44586
 N2565 N 0.73478 0.15702 0.46271
 C2566 C 0.74906 0.14453 0.46506
 N2567 N 0.76023 0.14051 0.44991
 N2568 N 0.75743 0.14843 0.43320
 C2569 C 0.74125 0.16944 0.41192
 N2570 N 0.75129 0.16218 0.39719
 N2571 N 0.75074 0.16998 0.38013
 C2572 C 0.74019 0.18548 0.37707
 N2573 N 0.72996 0.19278 0.39174
 N2574 N 0.73046 0.18487 0.40890
 C2575 C 0.74061 0.19426 0.35821
 N2576 N 0.73177 0.21082 0.35486
 N2577 N 0.73293 0.21883 0.33782
 C2578 C 0.74297 0.21060 0.32354
 N2579 N 0.75171 0.19403 0.32691
 N2580 N 0.75058 0.18606 0.34392
 C2581 C 0.24361 0.32259 0.44018
 N2582 N 0.25901 0.32148 0.45171
 N2583 N 0.26002 0.33146 0.46789
 C2584 C 0.24554 0.34269 0.47336
 N2585 N 0.22983 0.34332 0.46216
 N2586 N 0.22890 0.33348 0.44582
 C2587 C 0.24408 0.31409 0.42100
 N2588 N 0.23197 0.31985 0.40729
 N2589 N 0.23384 0.31379 0.38937
 C2590 C 0.24787 0.30174 0.38451
 N2591 N 0.25979 0.29575 0.39828
 N2592 N 0.25801 0.30192 0.41616
 C2593 C 0.25036 0.29563 0.36464
 N2594 N 0.26218 0.28129 0.36012
 N2595 N 0.26415 0.27555 0.34210
 C2596 C 0.25460 0.28414 0.32793
 N2597 N 0.24296 0.29862 0.33245
 N2598 N 0.24088 0.30426 0.35046
 C2599 C 0.74268 0.82180 0.93813
 N2600 N 0.72830 0.83327 0.94343
 N2601 N 0.72926 0.84315 0.95975
 C2602 C 0.74470 0.84196 0.97126
 N2603 N 0.75883 0.83016 0.96613
 N2604 N 0.75778 0.82016 0.94997
 C2605 C 0.74328 0.81328 0.91896
 N2606 N 0.75703 0.80083 0.91435
 N2607 N 0.75903 0.79466 0.89649
 C2608 C 0.74751 0.80094 0.88252
 N2609 N 0.73364 0.81326 0.88714
 N2610 N 0.73156 0.81932 0.90504
 C2611 C 0.75031 0.79489 0.86267
 N2612 N 0.74109 0.80363 0.84839
 N2613 N 0.74348 0.79811 0.83038
 C2614 C 0.75520 0.78365 0.82597
 N2615 N 0.76449 0.77496 0.84026
 N2616 N 0.76219 0.78057 0.85827
 C2617 C 0.72788 0.83638 0.07078
 N2618 N 0.73587 0.85404 0.07092
 N2619 N 0.74028 0.86255 0.05476
 C2620 C 0.73671 0.85386 0.03777
 N2621 N 0.72823 0.83634 0.03750
 N2622 N 0.72398 0.82768 0.05377
 C2623 C 0.72537 0.82664 0.08895
 N2624 N 0.72166 0.80766 0.08977
 N2625 N 0.72178 0.79883 0.10645
 C2626 C 0.72565 0.80871 0.12282
 N2627 N 0.72899 0.82768 0.12194
 N2628 N 0.72887 0.83645 0.10536
 C2629 C 0.72789 0.79924 0.14114
 N2630 N 0.73445 0.80950 0.15634
 N2631 N 0.73782 0.80120 0.17281
 C2632 C 0.73472 0.78229 0.17480
 N2633 N 0.72792 0.77195 0.15967
 N2634 N 0.72464 0.78028 0.14307
 C2635 C 0.22915 0.33722 0.57304
 N2636 N 0.23760 0.35468 0.57313
 N2637 N 0.24181 0.36324 0.55696
 C2638 C 0.23760 0.35481 0.53997
 N2639 N 0.22872 0.33748 0.53975
 N2640 N 0.22465 0.32877 0.55604
 C2641 C 0.22657 0.32749 0.59121
 N2642 N 0.22219 0.30863 0.59206
 N2643 N 0.22200 0.29982 0.60875
 C2644 C 0.22618 0.30958 0.62512
 N2645 N 0.23020 0.32843 0.62421
 N2646 N 0.23042 0.33719 0.60761
 C2647 C 0.22785 0.30010 0.64350
 N2648 N 0.23422 0.31028 0.65883
 N2649 N 0.23703 0.30197 0.67540
 C2650 C 0.23355 0.28312 0.67738
 N2651 N 0.22696 0.27285 0.66211
 N2652 N 0.22422 0.28120 0.64542
 C2653 C 0.74764 0.17817 0.56102
 N2654 N 0.73234 0.17237 0.55037
 N2655 N 0.73461 0.16167 0.53469
 C2656 C 0.75222 0.15602 0.52947
 N2657 N 0.76739 0.16221 0.54001
 N2658 N 0.76518 0.17318 0.55531
 C2659 C 0.74581 0.18817 0.57939
 N2660 N 0.76059 0.19909 0.58600
 N2661 N 0.76067 0.20598 0.60371
 C2662 C 0.74614 0.20192 0.61568
 N2663 N 0.73120 0.19114 0.60906
 N2664 N 0.73102 0.18440 0.59121
 C2665 C 0.74725 0.20845 0.63564
 N2666 N 0.73599 0.20058 0.64919
 N2667 N 0.73769 0.20614 0.66735
 C2668 C 0.75069 0.21979 0.67262
 N2669 N 0.76187 0.22767 0.65905
 N2670 N 0.76029 0.22199 0.64096
 C2671 C 0.23958 0.67938 0.06010
 N2672 N 0.25558 0.68090 0.04951
 N2673 N 0.25777 0.67005 0.03407
 C2674 C 0.24393 0.65749 0.02840
 N2675 N 0.22763 0.65637 0.03862
 N2676 N 0.22552 0.66710 0.05423
 C2677 C 0.23882 0.68900 0.07876
 N2678 N 0.22600 0.68336 0.09202
 N2679 N 0.22691 0.69040 0.10971
 C2680 C 0.24064 0.70336 0.11478
 N2681 N 0.25324 0.70924 0.10144
 N2682 N 0.25241 0.70211 0.08380
 C2683 C 0.24249 0.71019 0.13458
 N2684 N 0.25499 0.72447 0.13925
 N2685 N 0.25703 0.73034 0.15726
 C2686 C 0.24683 0.72197 0.17130
 N2687 N 0.23438 0.70765 0.16663
 N2688 N 0.23225 0.70187 0.14861
 C2689 C 0.17899 0.56074 0.74189
 N2690 N 0.16690 0.55451 0.72791
 N2691 N 0.15646 0.53866 0.73004
 C2692 C 0.15771 0.52854 0.74625
 N2693 N 0.17009 0.53457 0.76001
 N2694 N 0.18066 0.55026 0.75780
 C2695 C 0.18822 0.57962 0.74115
 N2696 N 0.20134 0.58498 0.75449
 N2697 N 0.20813 0.60276 0.75535
 C2698 C 0.20187 0.61592 0.74306
 N2699 N 0.18889 0.61053 0.72958
 N2700 N 0.18219 0.59270 0.72864
 C2701 C 0.20842 0.63582 0.74489
 N2702 N 0.19964 0.64964 0.73516
 N2703 N 0.20531 0.66772 0.73716
 C2704 C 0.21998 0.67266 0.74895
 N2705 N 0.22878 0.65883 0.75865
 N2706 N 0.22303 0.64076 0.75675
 C2707 C 0.68183 0.05601 0.24625
 N2708 N 0.67667 0.05029 0.26380
 N2709 N 0.66513 0.03533 0.26592
 C2710 C 0.65848 0.02521 0.25063
 N2711 N 0.66426 0.03046 0.23300
 N2712 N 0.67556 0.04576 0.23084
 C2713 C 0.69223 0.07416 0.24443
 N2714 N 0.68928 0.08551 0.22932
 N2715 N 0.69629 0.10325 0.22931
 C2716 C 0.70657 0.11021 0.24436
 N2717 N 0.70987 0.09869 0.25923
 N2718 N 0.70269 0.08107 0.25933
 C2719 C 0.71292 0.13019 0.24533
 N2720 N 0.72584 0.13612 0.25864
 N2721 N 0.73097 0.15437 0.26024
 C2722 C 0.72314 0.16744 0.24880
 N2723 N 0.71018 0.16153 0.23550
 N2724 N 0.70518 0.14323 0.23378
 C2725 C 0.83601 0.07242 0.73967
 N2726 N 0.84831 0.07095 0.75439
 N2727 N 0.85677 0.05471 0.75777
 C2728 C 0.85352 0.03919 0.74650
 N2729 N 0.84126 0.04061 0.73158
 N2730 N 0.83256 0.05694 0.72828
 C2731 C 0.82697 0.09075 0.73671
 N2732 N 0.81081 0.09245 0.72625
 N2733 N 0.80235 0.10921 0.72511
 C2734 C 0.80986 0.12479 0.73428
 N2735 N 0.82609 0.12302 0.74445
 N2736 N 0.83440 0.10636 0.74570
 C2737 C 0.80062 0.14331 0.73424
 N2738 N 0.80965 0.15838 0.74274
 N2739 N 0.80138 0.17509 0.74404
 C2740 C 0.78367 0.17748 0.73696
 N2741 N 0.77458 0.16246 0.72827
 N2742 N 0.78292 0.14564 0.72693
 C2743 C 0.33183 0.57189 0.22815
 N2744 N 0.34973 0.57283 0.23531
 N2745 N 0.35861 0.55718 0.24012
 C2746 C 0.35006 0.53988 0.23780
 N2747 N 0.33227 0.53878 0.23022
 N2748 N 0.32323 0.55456 0.22558
 C2749 C 0.32193 0.58970 0.22484
 N2750 N 0.30275 0.59023 0.22261
 N2751 N 0.29399 0.60685 0.22197
 C2752 C 0.30415 0.62345 0.22352
 N2753 N 0.32330 0.62279 0.22535
 N2754 N 0.33199 0.60629 0.22603
 C2755 C 0.29499 0.64195 0.22505
 N2756 N 0.30588 0.65752 0.22938
 N2757 N 0.29805 0.67426 0.23238
 C2758 C 0.27898 0.67619 0.23110
 N2759 N 0.26797 0.66069 0.22647
 N2760 N 0.27585 0.64381 0.22357
 C2761 C 0.32320 0.43906 0.24578
 N2762 N 0.32217 0.45060 0.26131
 N2763 N 0.33169 0.46710 0.26197
 C2764 C 0.34236 0.47287 0.24702
 N2765 N 0.34297 0.46161 0.23121
 N2766 N 0.33358 0.44495 0.23063
 C2767 C 0.31492 0.41977 0.24641
 N2768 N 0.32042 0.40614 0.23388
 N2769 N 0.31435 0.38821 0.23573
 C2770 C 0.30255 0.38328 0.25016
 N2771 N 0.29686 0.39696 0.26252
 N2772 N 0.30303 0.41484 0.26075
 C2773 C 0.29622 0.36346 0.25254
 N2774 N 0.28214 0.35902 0.26495
 N2775 N 0.27609 0.34110 0.26682
 C2776 C 0.28409 0.32693 0.25656
 N2777 N 0.29833 0.33135 0.24432
 N2778 N 0.30429 0.34929 0.24234
 C2779 C 0.82168 0.94074 0.74507
 N2780 N 0.83386 0.94622 0.73113
 N2781 N 0.84360 0.96263 0.73262
 C2782 C 0.84151 0.97410 0.74811
 N2783 N 0.82901 0.96880 0.76178
 N2784 N 0.81915 0.95253 0.76021
 C2785 C 0.81336 0.92143 0.74523
 N2786 N 0.80045 0.91653 0.75869
 N2787 N 0.79444 0.89858 0.76034
 C2788 C 0.80132 0.88481 0.74876
 N2789 N 0.81410 0.88972 0.73518
 N2790 N 0.82002 0.90770 0.73345
 C2791 C 0.79534 0.86488 0.75115
 N2792 N 0.80431 0.85080 0.74164
 N2793 N 0.79877 0.83275 0.74364
 C2794 C 0.78407 0.82809 0.75523
 N2795 N 0.77515 0.84216 0.76481
 N2796 N 0.78077 0.86021 0.76291
 C2797 C 0.66060 0.92620 0.23549
 N2798 N 0.66914 0.94268 0.22986
 N2799 N 0.66111 0.95935 0.23348
 C2800 C 0.64435 0.96005 0.24297
 N2801 N 0.63576 0.94354 0.24821
 N2802 N 0.64367 0.92698 0.24451
 C2803 C 0.66982 0.90778 0.23356
 N2804 N 0.66069 0.89198 0.23994
 N2805 N 0.66925 0.87536 0.23999
 C2806 C 0.68733 0.87386 0.23369
 N2807 N 0.69646 0.88960 0.22704
 N2808 N 0.68787 0.90630 0.22701
 C2809 C 0.69692 0.85563 0.23506
 N2810 N 0.71490 0.85350 0.22860
 N2811 N 0.72362 0.83703 0.23055
 C2812 C 0.71471 0.82216 0.23911
 N2813 N 0.69673 0.82431 0.24551
 N2814 N 0.68801 0.84073 0.24352
 C2815 C 0.15858 0.42727 0.73958
 N2816 N 0.16585 0.44292 0.73088
 N2817 N 0.15810 0.45987 0.73368
 C2818 C 0.14293 0.46172 0.74541
 N2819 N 0.13564 0.44600 0.75385
 N2820 N 0.14326 0.42915 0.75097
 C2821 C 0.16741 0.40862 0.73789
 N2822 N 0.15904 0.39345 0.74638
 N2823 N 0.16730 0.37667 0.74626
 C2824 C 0.18432 0.37439 0.73769
 N2825 N 0.19269 0.38950 0.72900
 N2826 N 0.18437 0.40635 0.72910
 C2827 C 0.19371 0.35602 0.73868
 N2828 N 0.21117 0.35352 0.73103
 N2829 N 0.21983 0.33699 0.73269
 C2830 C 0.21137 0.32239 0.74210
 N2831 N 0.19389 0.32488 0.74965
 N2832 N 0.18524 0.34138 0.74799
 C2833 C 0.07022 0.72779 0.83605
 N2834 N 0.05333 0.72298 0.82760
 N2835 N 0.03695 0.72682 0.83624
 C2836 C 0.03695 0.73578 0.85349
 N2837 N 0.05383 0.74029 0.86194
 N2838 N 0.07010 0.73630 0.85344
 C2839 C 0.08851 0.72543 0.82640
 N2840 N 0.10477 0.72958 0.83613
 N2841 N 0.12148 0.72956 0.82742
 C2842 C 0.12265 0.72543 0.80859
 N2843 N 0.10642 0.72094 0.79880
 N2844 N 0.08961 0.72095 0.80756
 C2845 C 0.14117 0.72729 0.79914
 N2846 N 0.14335 0.72355 0.78026
 N2847 N 0.16017 0.72644 0.77193
 C2848 C 0.17531 0.73330 0.78219
 N2849 N 0.17306 0.73690 0.80102
 N2850 N 0.15636 0.73393 0.80932
 C2851 C 0.56940 0.23172 0.33548
 N2852 N 0.55237 0.22639 0.32764
 N2853 N 0.53615 0.23072 0.33635
 C2854 C 0.53647 0.24071 0.35305
 N2855 N 0.55350 0.24578 0.36087
 N2856 N 0.56960 0.24131 0.35232
 C2857 C 0.58756 0.22854 0.32583
 N2858 N 0.60393 0.23289 0.33529
 N2859 N 0.62058 0.23202 0.32656
 C2860 C 0.62161 0.22682 0.30798
 N2861 N 0.60526 0.22216 0.29846
 N2862 N 0.58849 0.22301 0.30725
 C2863 C 0.64018 0.22772 0.29851
 N2864 N 0.64240 0.22289 0.27986
 N2865 N 0.65936 0.22488 0.27155
 C2866 C 0.67458 0.23189 0.28159
 N2867 N 0.67227 0.23657 0.30018
 N2868 N 0.65545 0.23451 0.30846
 C2869 C 0.56230 0.74463 0.18005
 N2870 N 0.55583 0.73065 0.16800
 N2871 N 0.54017 0.73297 0.15761
 C2872 C 0.53050 0.74939 0.15885
 N2873 N 0.53677 0.76316 0.17119
 N2874 N 0.55226 0.76076 0.18170
 C2875 C 0.58102 0.74357 0.18927
 N2876 N 0.58662 0.75699 0.20230
 N2877 N 0.60432 0.75750 0.20910
 C2878 C 0.61717 0.74474 0.20294
 N2879 N 0.61153 0.73119 0.19006
 N2880 N 0.59378 0.73060 0.18336
 C2881 C 0.63705 0.74618 0.20941
 N2882 N 0.65064 0.73590 0.20065
 N2883 N 0.66874 0.73759 0.20613
 C2884 C 0.67395 0.74959 0.22061
 N2885 N 0.66035 0.75984 0.22942
 N2886 N 0.64225 0.75824 0.22385
 C2887 C 0.06106 0.24191 0.67950
 N2888 N 0.05488 0.22744 0.66791
 N2889 N 0.03942 0.22928 0.65711
 C2890 C 0.02969 0.24570 0.65746
 N2891 N 0.03567 0.25996 0.66935
 N2892 N 0.05096 0.25806 0.68028
 C2893 C 0.07959 0.24130 0.68914
 N2894 N 0.08482 0.25512 0.70188
 N2895 N 0.10239 0.25600 0.70899
 C2896 C 0.11547 0.24322 0.70344
 N2897 N 0.11020 0.22926 0.69085
 N2898 N 0.09258 0.22830 0.68385
 C2899 C 0.13522 0.24505 0.71021
 N2900 N 0.14910 0.23488 0.70179
 N2901 N 0.16709 0.23692 0.70754
 C2902 C 0.17188 0.24917 0.72194
 N2903 N 0.15799 0.25931 0.73041
 N2904 N 0.14001 0.25737 0.72456
 C2905 C 0.92844 0.23665 0.65751
 N2906 N 0.94416 0.22924 0.66562
 N2907 N 0.96130 0.23209 0.65792
 C2908 C 0.96325 0.24259 0.64196
 N2909 N 0.94747 0.24967 0.63381
 N2910 N 0.93044 0.24673 0.64138
 C2911 C 0.90962 0.23525 0.66639
 N2912 N 0.89449 0.24280 0.65747
 N2913 N 0.87758 0.24317 0.66581
 C2914 C 0.87515 0.23604 0.68345
 N2915 N 0.89022 0.22827 0.69235
 N2916 N 0.90719 0.22789 0.68397
 C2917 C 0.85669 0.23765 0.69292
 N2918 N 0.85403 0.23116 0.71080
 N2919 N 0.83744 0.23335 0.71952
 C2920 C 0.82293 0.24215 0.71072
 N2921 N 0.82557 0.24857 0.69282
 N2922 N 0.84215 0.24637 0.68409
 C2923 C 0.42850 0.74152 0.15901
 N2924 N 0.44391 0.73243 0.16582
 N2925 N 0.46116 0.73585 0.15857
 C2926 C 0.46355 0.74860 0.14442
 N2927 N 0.44808 0.75746 0.13762
 N2928 N 0.43094 0.75398 0.14472
 C2929 C 0.40947 0.73894 0.16721
 N2930 N 0.39452 0.74753 0.15899
 N2931 N 0.37735 0.74658 0.16677
 C2932 C 0.37443 0.73705 0.18313
 N2933 N 0.38933 0.72825 0.19132
 N2934 N 0.40656 0.72916 0.18348
 C2935 C 0.35566 0.73731 0.19218
 N2936 N 0.35264 0.72908 0.20926
 N2937 N 0.33584 0.73038 0.21781
 C2938 C 0.32148 0.73996 0.20962
 N2939 N 0.32448 0.74804 0.19248
 N2940 N 0.34125 0.74674 0.18393
 C2941 C 0.43629 0.24466 0.32318
 N2942 N 0.44832 0.25976 0.32110
 N2943 N 0.46457 0.26094 0.33080
 C2944 C 0.46960 0.24692 0.34270
 N2945 N 0.45789 0.23149 0.34435
 N2946 N 0.44149 0.23039 0.33478
 C2947 C 0.41713 0.24507 0.31487
 N2948 N 0.40307 0.23332 0.32122
 N2949 N 0.38524 0.23519 0.31522
 C2950 C 0.38081 0.24887 0.30265
 N2951 N 0.39491 0.26043 0.29609
 N2952 N 0.41270 0.25864 0.30219
 C2953 C 0.36106 0.25138 0.29652
 N2954 N 0.35696 0.26312 0.28199
 N2955 N 0.33908 0.26516 0.27622
 C2956 C 0.32460 0.25574 0.28495
 N2957 N 0.32869 0.24417 0.29961
 N2958 N 0.34658 0.24203 0.30529
 C2959 C 0.93760 0.74167 0.82125
 N2960 N 0.94210 0.72718 0.83287
 N2961 N 0.95834 0.72768 0.84272
 C2962 C 0.97059 0.74272 0.84134
 N2963 N 0.96627 0.75695 0.82938
 N2964 N 0.95017 0.75636 0.81940
 C2965 C 0.91853 0.74285 0.81283
 N2966 N 0.91462 0.75675 0.80032
 N2967 N 0.89692 0.75925 0.79424
 C2968 C 0.88242 0.74811 0.80066
 N2969 N 0.88634 0.73410 0.81303
 N2970 N 0.90407 0.73151 0.81901
 C2971 C 0.86276 0.75134 0.79462
 N2972 N 0.84807 0.74237 0.80341
 N2973 N 0.83025 0.74499 0.79778
 C2974 C 0.82643 0.75669 0.78316
 N2975 N 0.84112 0.76577 0.77442
 N2976 N 0.85895 0.76325 0.78015
   
