data_POSCAR
  _audit_creation_date              2014-09-24
  _audit_creation_method            'ToBaCCo'
  _symmetry_space_group_name_H-M    'P1'
  _symmetry_Int_Tables_number       1
  _symmetry_cell_setting            triclinic
  loop_
  _symmetry_equiv_pos_as_xyz
 x,y,z
_cell_length_a 54.9421
_cell_length_b 54.9832
_cell_length_c 54.9272
_cell_angle_alpha 93.564000
_cell_angle_beta 93.575200
_cell_angle_gamma 93.548300
loop_
  _atom_site_label
  _atom_site_type_symbol
  _atom_site_fract_x
  _atom_site_fract_y
  _atom_site_fract_z
C1 C 0.72131 0.67304 0.97122
 H2 H 0.73909 0.67274 0.96384
 C3 C 0.70344 0.68688 0.96068
 H4 H 0.70750 0.69742 0.94524
 C5 C 0.69373 0.65862 0.99946
 H6 H 0.68973 0.64703 1.01406
 C7 C 0.67538 0.67219 0.98948
 H8 H 0.65743 0.67120 0.99662
 N9 N 0.71616 0.65920 0.99019
 C10 C 0.78542 0.64175 1.02602
 H11 H 0.78162 0.62225 1.02649
 C12 C 0.80779 0.65258 1.03584
 H13 H 0.82129 0.64140 1.04393
 C14 C 0.77261 0.68008 1.01452
 H15 H 0.75883 0.69068 1.00618
 C16 C 0.79485 0.69167 1.02414
 H17 H 0.79823 0.71119 1.02309
 Zn18 Zn 0.73980 0.63801 1.00120
 N19 N 0.76855 0.65546 1.01525
 C20 C 0.77091 0.61957 0.96647
 N21 N 0.74756 0.61842 0.97350
 C22 C 0.72928 0.60521 0.95975
 C23 C 0.73422 0.59242 0.93796
 C24 C 0.77661 0.60708 0.94491
 C25 C 0.72343 0.63113 1.04718
 C26 C 0.71457 0.61863 1.06646
 C27 C 0.71432 0.58087 1.04132
 C28 C 0.72322 0.59416 1.02245
 N29 N 0.72733 0.61886 1.02565
 H30 H 0.78509 0.63068 0.97716
 H31 H 0.71078 0.60503 0.96547
 H32 H 0.71956 0.58216 0.92695
 H33 H 0.79520 0.60836 0.93935
 H34 H 0.72717 0.65072 1.04929
 H35 H 0.71139 0.62872 1.08344
 H36 H 0.71095 0.56123 1.03856
 H37 H 0.72688 0.58472 1.00536
 C38 C 0.81266 0.67770 1.03467
 C39 C 0.68020 0.68624 0.96976
 C40 C 0.70989 0.59327 1.06353
 C41 C 0.75811 0.59354 0.93045
 C42 C 0.73309 0.35775 0.50685
 H43 H 0.75101 0.35922 0.51637
 C44 C 0.71430 0.34295 0.51534
 H45 H 0.71774 0.33289 0.53141
 C46 C 0.70638 0.36980 0.47483
 H47 H 0.70319 0.38072 0.45942
 C48 C 0.68708 0.35522 0.48273
 H49 H 0.66914 0.35480 0.47325
 N50 N 0.72887 0.37075 0.48690
 C51 C 0.80039 0.38740 0.45954
 H52 H 0.80001 0.40701 0.45899
 C53 C 0.82055 0.37561 0.45171
 H54 H 0.83582 0.38613 0.44511
 C55 C 0.78083 0.34963 0.46855
 H56 H 0.76518 0.33955 0.47482
 C57 C 0.80066 0.33711 0.46087
 H58 H 0.80032 0.31743 0.46140
 Zn59 Zn 0.75470 0.39209 0.47804
 N60 N 0.78119 0.37438 0.46801
 C61 C 0.78783 0.41330 0.51626
 N62 N 0.76458 0.41303 0.50607
 C63 C 0.74730 0.42579 0.51698
 C64 C 0.75310 0.43936 0.53918
 C65 C 0.79439 0.42665 0.53839
 C66 C 0.73835 0.39688 0.42975
 C67 C 0.73027 0.40858 0.40921
 C68 C 0.73486 0.44702 0.43345
 C69 C 0.74288 0.43458 0.45358
 N70 N 0.74414 0.40989 0.45144
 H71 H 0.80113 0.40255 0.50775
 H72 H 0.72882 0.42483 0.50875
 H73 H 0.73912 0.44900 0.54805
 H74 H 0.81278 0.42630 0.54665
 H75 H 0.73983 0.37731 0.42852
 H76 H 0.72537 0.39802 0.39211
 H77 H 0.73358 0.46662 0.43531
 H78 H 0.74799 0.44463 0.47085
 C79 C 0.82071 0.35025 0.45246
 C80 C 0.69107 0.34177 0.50323
 C81 C 0.72839 0.43385 0.41112
 C82 C 0.77682 0.43958 0.55008
 C83 C 0.23274 -0.14236 0.00683
 H84 H 0.25070 -0.14086 0.01628
 C85 C 0.21400 -0.15714 0.01545
 H86 H 0.21751 -0.16714 0.03154
 C87 C 0.20588 -0.13041 -0.02512
 H88 H 0.20262 -0.11954 -0.04056
 C89 C 0.18662 -0.14497 -0.01709
 H90 H 0.16866 -0.14541 -0.02650
 N91 N 0.22842 -0.12942 -0.01315
 C92 C 0.29978 -0.11291 -0.04087
 H93 H 0.29942 -0.09331 -0.04146
 C94 C 0.31991 -0.12475 -0.04874
 H95 H 0.33516 -0.11425 -0.05541
 C96 C 0.28023 -0.15064 -0.03171
 H97 H 0.26461 -0.16068 -0.02537
 C98 C 0.30002 -0.16320 -0.03943
 H99 H 0.29967 -0.18288 -0.03886
 Zn100 Zn 0.25420 -0.10813 -0.02219
 N101 N 0.28061 -0.12590 -0.03230
 C102 C 0.28754 -0.08675 0.01579
 N103 N 0.26422 -0.08712 0.00575
 C104 C 0.24699 -0.07437 0.01675
 C105 C 0.25291 -0.06073 0.03890
 C106 C 0.29422 -0.07333 0.03784
 C107 C 0.23761 -0.10348 -0.07044
 C108 C 0.22940 -0.09184 -0.09097
 C109 C 0.23415 -0.05331 -0.06682
 C110 C 0.24228 -0.06572 -0.04671
 N111 N 0.24351 -0.09041 -0.04881
 H112 H 0.30081 -0.09750 0.00720
 H113 H 0.22846 -0.07539 0.00865
 H114 H 0.23897 -0.05111 0.04786
 H115 H 0.31267 -0.07361 0.04598
 H116 H 0.23907 -0.12304 -0.07162
 H117 H 0.22443 -0.10256 -0.10800
 H118 H 0.23293 -0.03369 -0.06488
 H119 H 0.24751 -0.05564 -0.02948
 C120 C 0.32006 -0.15010 -0.04792
 C121 C 0.19071 -0.15835 0.00343
 C122 C 0.22752 -0.06653 -0.08914
 C123 C 0.27671 -0.06042 0.04963
 C124 C 0.22166 0.17152 0.47144
 H125 H 0.23939 0.17144 0.46392
 C126 C 0.20355 0.18523 0.46109
 H127 H 0.20738 0.19589 0.44568
 C128 C 0.19443 0.15662 0.49976
 H129 H 0.19063 0.14488 0.51429
 C130 C 0.17586 0.17005 0.49000
 H131 H 0.15796 0.16879 0.49724
 N132 N 0.21678 0.15748 0.49034
 C133 C 0.28618 0.13971 0.52564
 H134 H 0.28229 0.12021 0.52597
 C135 C 0.30859 0.15037 0.53551
 H136 H 0.32202 0.13907 0.54351
 C137 C 0.27354 0.17821 0.51444
 H138 H 0.25980 0.18892 0.50621
 C139 C 0.29583 0.18964 0.52413
 H140 H 0.29930 0.20917 0.52325
 Zn141 Zn 0.24054 0.13625 0.50100
 N142 N 0.26937 0.15358 0.51501
 C143 C 0.27146 0.11800 0.46601
 N144 N 0.24814 0.11685 0.47312
 C145 C 0.22980 0.10373 0.45935
 C146 C 0.23465 0.09106 0.43748
 C147 C 0.27707 0.10562 0.44437
 C148 C 0.22467 0.12904 0.54710
 C149 C 0.21587 0.11644 0.56633
 C150 C 0.21495 0.07890 0.54084
 C151 C 0.22383 0.09225 0.52200
 N152 N 0.22823 0.11692 0.52540
 H153 H 0.28569 0.12902 0.47672
 H154 H 0.21132 0.10355 0.46514
 H155 H 0.21995 0.08087 0.42646
 H156 H 0.29565 0.10688 0.43876
 H157 H 0.22862 0.14861 0.54938
 H158 H 0.21291 0.12632 0.58347
 H159 H 0.21129 0.05931 0.53802
 H160 H 0.22719 0.08291 0.50477
 C161 C 0.31357 0.17550 0.53454
 C162 C 0.18037 0.18426 0.47032
 C163 C 0.21088 0.09117 0.56317
 C164 C 0.25851 0.09217 0.42989
 C165 C 0.17404 0.47064 0.22148
 H166 H 0.17387 0.46335 0.23932
 C167 C 0.18776 0.46001 0.20355
 H168 H 0.19834 0.44461 0.20763
 C169 C 0.15938 0.49868 0.19382
 H170 H 0.14773 0.51323 0.18981
 C171 C 0.17283 0.48862 0.17542
 H172 H 0.17169 0.49565 0.15742
 N173 N 0.16013 0.48954 0.21631
 C174 C 0.14283 0.52559 0.28551
 H175 H 0.12331 0.52602 0.28171
 C176 C 0.15367 0.53549 0.30785
 H177 H 0.14249 0.54362 0.32132
 C178 C 0.18119 0.51405 0.27274
 H179 H 0.19178 0.50565 0.25899
 C180 C 0.19280 0.52375 0.29495
 H181 H 0.21233 0.52272 0.29834
 Zn182 Zn 0.13901 0.50058 0.24002
 N183 N 0.15654 0.51476 0.26868
 C184 C 0.12084 0.46598 0.27137
 N185 N 0.11955 0.47290 0.24798
 C186 C 0.10628 0.45906 0.22979
 C187 C 0.09359 0.43730 0.23488
 C188 C 0.10846 0.44445 0.27721
 C189 C 0.13188 0.54642 0.22350
 C190 C 0.11923 0.56563 0.21471
 C191 C 0.08156 0.54048 0.21476
 C192 C 0.09496 0.52166 0.22360
 N193 N 0.11970 0.52490 0.22753
 H194 H 0.13200 0.47674 0.28546
 H195 H 0.10599 0.46470 0.21125
 H196 H 0.08328 0.42622 0.22030
 H197 H 0.10984 0.43898 0.29584
 H198 H 0.15150 0.54859 0.22711
 H199 H 0.12914 0.58264 0.21141
 H200 H 0.06190 0.53779 0.21153
 H201 H 0.08559 0.50458 0.22736
 C202 C 0.17882 0.53435 0.31273
 C203 C 0.18693 0.46895 0.18024
 C204 C 0.09386 0.56264 0.21025
 C205 C 0.09486 0.42990 0.25882
 C206 C -0.14258 0.00840 0.23330
 H207 H -0.14114 0.01784 0.25126
 C208 C -0.15731 0.01699 0.21449
 H209 H -0.16734 0.03307 0.21802
 C210 C -0.13050 -0.02353 0.20653
 H211 H -0.11959 -0.03894 0.20333
 C212 C -0.14501 -0.01554 0.18719
 H213 H -0.14534 -0.02500 0.16925
 N214 N -0.12960 -0.01155 0.22905
 C215 C -0.11320 -0.03907 0.30057
 H216 H -0.09357 -0.03965 0.30025
 C217 C -0.12507 -0.04695 0.32067
 H218 H -0.11459 -0.05360 0.33595
 C219 C -0.15093 -0.02998 0.28091
 H220 H -0.16096 -0.02368 0.26524
 C221 C -0.16353 -0.03771 0.30067
 H222 H -0.18323 -0.03717 0.30026
 Zn223 Zn -0.10834 -0.02053 0.25493
 N224 N -0.12616 -0.03055 0.28134
 C225 C -0.08700 0.01750 0.28820
 N226 N -0.08731 0.00738 0.26492
 C227 C -0.07447 0.01828 0.24768
 C228 C -0.06079 0.04039 0.25357
 C229 C -0.07354 0.03952 0.29485
 C230 C -0.10368 -0.06877 0.23847
 C231 C -0.09200 -0.08932 0.23042
 C232 C -0.05346 -0.06526 0.23530
 C233 C -0.06588 -0.04511 0.24328
 N234 N -0.09060 -0.04716 0.24438
 H235 H -0.09781 0.00899 0.30147
 H236 H -0.07545 0.01012 0.22918
 H237 H -0.05109 0.04925 0.23963
 H238 H -0.07386 0.04772 0.31327
 H239 H -0.12328 -0.06992 0.23983
 H240 H -0.10262 -0.10636 0.22543
 H241 H -0.03382 -0.06348 0.23415
 H242 H -0.05578 -0.02791 0.24850
 C243 C -0.15045 -0.04618 0.32075
 C244 C -0.15844 0.00498 0.19119
 C245 C -0.06669 -0.08751 0.22871
 C246 C -0.06053 0.05119 0.27733
 C247 C 0.35745 0.50809 0.73343
 H248 H 0.35888 0.51746 0.75143
 C249 C 0.34271 0.51676 0.71467
 H250 H 0.33266 0.53280 0.71821
 C251 C 0.36955 0.47630 0.70651
 H252 H 0.38047 0.46091 0.70323
 C253 C 0.35503 0.48438 0.68723
 H254 H 0.35466 0.47506 0.66923
 N255 N 0.37044 0.48817 0.72908
 C256 C 0.38677 0.46035 0.80046
 H257 H 0.40641 0.45986 0.80021
 C258 C 0.37485 0.45232 0.82048
 H259 H 0.38531 0.44564 0.83576
 C260 C 0.34905 0.46937 0.78072
 H261 H 0.33904 0.47570 0.76506
 C262 C 0.33640 0.46148 0.80039
 H263 H 0.31669 0.46193 0.79991
 Zn264 Zn 0.39169 0.47909 0.75492
 N265 N 0.37383 0.46891 0.78125
 C266 C 0.41298 0.51702 0.78834
 N267 N 0.41269 0.50698 0.76503
 C268 C 0.42552 0.51795 0.74783
 C269 C 0.43918 0.54005 0.75379
 C270 C 0.42643 0.53904 0.79505
 C271 C 0.39644 0.43092 0.73826
 C272 C 0.40816 0.41042 0.73015
 C273 C 0.44666 0.43455 0.73512
 C274 C 0.43420 0.45464 0.74317
 N275 N 0.40948 0.45254 0.74426
 H276 H 0.40218 0.50846 0.80158
 H277 H 0.42454 0.50985 0.72931
 H278 H 0.44887 0.54897 0.73987
 H279 H 0.42610 0.54719 0.81350
 H280 H 0.37684 0.42972 0.73961
 H281 H 0.39758 0.39337 0.72511
 H282 H 0.46629 0.43638 0.73398
 H283 H 0.44427 0.47185 0.74845
 C284 C 0.34946 0.45297 0.82046
 C285 C 0.34160 0.50485 0.69134
 C286 C 0.43347 0.41229 0.72845
 C287 C 0.43943 0.55079 0.77757
 C288 C 0.67447 0.97110 0.72283
 H289 H 0.67422 0.96368 0.74060
 C290 C 0.68818 0.96054 0.70485
 H291 H 0.69868 0.94506 0.70882
 C292 C 0.66001 0.99944 0.69538
 H293 H 0.64844 1.01407 0.69145
 C294 C 0.67346 0.98945 0.67693
 H295 H 0.67239 0.99662 0.65899
 N296 N 0.66066 0.99012 0.71778
 C297 C 0.64324 1.02575 0.78715
 H298 H 0.62373 1.02627 0.78331
 C299 C 0.65405 1.03549 0.80957
 H300 H 0.64280 1.04357 0.82302
 C301 C 0.68159 1.01418 0.77439
 H302 H 0.69219 1.00585 0.76061
 C303 C 0.69318 1.02372 0.79667
 H304 H 0.71272 1.02260 0.80003
 Zn305 Zn 0.63949 1.00108 0.74148
 N306 N 0.65696 1.01499 0.77029
 C307 C 0.62093 0.96632 0.77247
 N308 N 0.61984 0.97341 0.74914
 C309 C 0.60661 0.95976 0.73079
 C310 C 0.59374 0.93802 0.73565
 C311 C 0.60836 0.94480 0.77809
 C312 C 0.63265 1.04712 0.72530
 C313 C 0.62014 1.06641 0.71648
 C314 C 0.58238 1.04130 0.71603
 C315 C 0.59564 1.02241 0.72490
 N316 N 0.62036 1.02558 0.72908
 H317 H 0.63205 0.97693 0.78669
 H318 H 0.60648 0.96553 0.71231
 H319 H 0.58346 0.92709 0.72094
 H320 H 0.60958 0.93919 0.79667
 H321 H 0.65225 1.04922 0.72909
 H322 H 0.63013 1.08342 0.71335
 H323 H 0.56274 1.03866 0.71256
 H324 H 0.58618 1.00531 0.72846
 C325 C 0.67920 1.03425 0.81450
 C326 C 0.68745 0.96966 0.68162
 C327 C 0.59480 1.06347 0.71173
 C328 C 0.59479 0.93044 0.75952
 C329 C 0.00651 0.23249 -0.14250
 H330 H 0.01591 0.25045 -0.14111
 C331 C 0.01510 0.21372 -0.15727
 H332 H 0.03112 0.21722 -0.16739
 C333 C -0.02527 0.20565 -0.13027
 H334 H -0.04062 0.20241 -0.11928
 C335 C -0.01727 0.18637 -0.14481
 H336 H -0.02660 0.16840 -0.14513
 N337 N -0.01337 0.22819 -0.12943
 C338 C -0.04112 0.29954 -0.11296
 H339 H -0.04161 0.29925 -0.09331
 C340 C -0.04912 0.31958 -0.12483
 H341 H -0.05579 0.33483 -0.11434
 C342 C -0.03211 0.27990 -0.15072
 H343 H -0.02578 0.26427 -0.16077
 C344 C -0.03996 0.29960 -0.16333
 H345 H -0.03949 0.29918 -0.18304
 Zn346 Zn -0.02235 0.25401 -0.10813
 N347 N -0.03257 0.28035 -0.12594
 C348 C 0.01572 0.28734 -0.08700
 N349 N 0.00566 0.26407 -0.08723
 C350 C 0.01669 0.24689 -0.07444
 C351 C 0.03889 0.25282 -0.06089
 C352 C 0.03783 0.29403 -0.07367
 C353 C -0.07052 0.23741 -0.10321
 C354 C -0.09099 0.22927 -0.09144
 C355 C -0.06669 0.23420 -0.05296
 C356 C -0.04665 0.24227 -0.06551
 N357 N -0.04885 0.24338 -0.09023
 H358 H 0.00710 0.30057 -0.09777
 H359 H 0.00857 0.22839 -0.07537
 H360 H 0.04786 0.23891 -0.05123
 H361 H 0.04598 0.31245 -0.07406
 H362 H -0.07179 0.23878 -0.12280
 H363 H -0.10805 0.22426 -0.10208
 H364 H -0.06466 0.23308 -0.03331
 H365 H -0.02939 0.24754 -0.05550
 C366 C -0.04845 0.31964 -0.15023
 C367 C 0.00316 0.19044 -0.15833
 C368 C -0.08904 0.22752 -0.06609
 C369 C 0.04964 0.27657 -0.06071
 C370 C 0.47067 0.22169 0.17289
 H371 H 0.46326 0.23946 0.17258
 C372 C 0.46012 0.20383 0.18672
 H373 H 0.44466 0.20788 0.19725
 C374 C 0.49894 0.19415 0.15849
 H375 H 0.51354 0.19015 0.14690
 C376 C 0.48895 0.17581 0.17205
 H377 H 0.49610 0.15787 0.17105
 N378 N 0.48964 0.21655 0.15905
 C379 C 0.52536 0.28571 0.14137
 H380 H 0.52587 0.28181 0.12187
 C381 C 0.53515 0.30811 0.15212
 H382 H 0.54325 0.32153 0.14088
 C383 C 0.51377 0.27312 0.17978
 H384 H 0.50541 0.25942 0.19044
 C385 C 0.52335 0.29540 0.19130
 H386 H 0.52225 0.29888 0.21081
 Zn387 Zn 0.50060 0.24013 0.13778
 N388 N 0.51457 0.26893 0.15516
 C389 C 0.46579 0.27108 0.11923
 N390 N 0.47289 0.24777 0.11813
 C391 C 0.45921 0.22944 0.10492
 C392 C 0.43742 0.23430 0.09209
 C393 C 0.44422 0.27669 0.10670
 C394 C 0.54663 0.22385 0.13096
 C395 C 0.56594 0.21505 0.11846
 C396 C 0.54084 0.21463 0.08067
 C397 C 0.52192 0.22349 0.09392
 N398 N 0.52509 0.22766 0.11865
 H399 H 0.47643 0.28529 0.13034
 H400 H 0.46499 0.21098 0.10478
 H401 H 0.42647 0.21961 0.08182
 H402 H 0.43860 0.29525 0.10794
 H403 H 0.54874 0.22764 0.15057
 H404 H 0.58297 0.21194 0.12846
 H405 H 0.53821 0.21120 0.06102
 H406 H 0.50481 0.22706 0.08445
 C407 C 0.53391 0.31311 0.17725
 C408 C 0.46921 0.18061 0.18608
 C409 C 0.56302 0.21035 0.09311
 C410 C 0.42983 0.25815 0.09316
 C411 C 0.96962 0.72071 0.67311
 H412 H 0.96217 0.73846 0.67297
 C413 C 0.95923 0.70273 0.68690
 H414 H 0.94384 0.70667 0.69757
 C415 C 0.99788 0.69333 0.65835
 H416 H 1.01243 0.68945 0.64666
 C417 C 0.98805 0.67488 0.67188
 H418 H 0.99527 0.65698 0.67074
 N419 N 0.98854 0.71571 0.65913
 C420 C 1.02413 0.78512 0.64202
 H421 H 1.02456 0.78143 0.62248
 C422 C 1.03393 0.80744 0.65295
 H423 H 1.04196 0.82100 0.64183
 C424 C 1.01275 0.77209 0.68033
 H425 H 1.00446 0.75824 0.69088
 C426 C 1.02235 0.79427 0.69204
 H427 H 1.02134 0.79754 0.71159
 Zn428 Zn 0.99942 0.73951 0.63805
 N429 N 1.01343 0.76817 0.65567
 C430 C 0.96461 0.77065 0.61989
 N431 N 0.97169 0.74733 0.61855
 C432 C 0.95800 0.72914 0.60514
 C433 C 0.93625 0.73415 0.59233
 C434 C 0.94309 0.77642 0.60738
 C435 C 1.04545 0.72336 0.63098
 C436 C 1.06475 0.71470 0.61837
 C437 C 1.03959 0.71460 0.58065
 C438 C 1.02068 0.72330 0.59401
 N439 N 1.02388 0.72724 0.61876
 H440 H 0.97526 0.78475 0.63114
 H441 H 0.96375 0.71066 0.60482
 H442 H 0.92530 0.71957 0.58190
 H443 H 0.93751 0.79499 0.60878
 H444 H 1.04757 0.72696 0.65061
 H445 H 1.08179 0.71151 0.62832
 H446 H 1.03694 0.71134 0.56099
 H447 H 1.00356 0.72695 0.58461
 C448 C 1.03281 0.81217 0.67813
 C449 C 0.96840 0.67954 0.68608
 C450 C 1.06180 0.71022 0.59300
 C451 C 0.92871 0.75802 0.59362
 C452 C 0.50715 0.73391 0.35569
 H453 H 0.51663 0.75183 0.35705
 C454 C 0.51568 0.71507 0.34097
 H455 H 0.53173 0.71847 0.33087
 C456 C 0.47524 0.70724 0.36794
 H457 H 0.45986 0.70409 0.37891
 C458 C 0.48318 0.68788 0.35345
 H459 H 0.47376 0.66995 0.35315
 N460 N 0.48724 0.72972 0.36875
 C461 C 0.45979 0.80122 0.38510
 H462 H 0.45930 0.80094 0.40474
 C463 C 0.45188 0.82129 0.37322
 H464 H 0.44528 0.83656 0.38377
 C465 C 0.46872 0.78149 0.34735
 H466 H 0.47498 0.76582 0.33732
 C467 C 0.46096 0.80122 0.33472
 H468 H 0.46145 0.80072 0.31500
 Zn469 Zn 0.47835 0.75563 0.38999
 N470 N 0.46826 0.78199 0.37213
 C471 C 0.51650 0.78886 0.41115
 N472 N 0.50635 0.76562 0.41092
 C473 C 0.51725 0.74843 0.42381
 C474 C 0.53937 0.75433 0.43751
 C475 C 0.53853 0.79552 0.42462
 C476 C 0.43011 0.73921 0.39492
 C477 C 0.40963 0.73119 0.40673
 C478 C 0.43390 0.73620 0.44517
 C479 C 0.45397 0.74415 0.43263
 N480 N 0.45179 0.74516 0.40789
 H481 H 0.50799 0.80209 0.40029
 H482 H 0.50907 0.72996 0.42289
 H483 H 0.54822 0.74043 0.44728
 H484 H 0.54675 0.81391 0.42425
 H485 H 0.42884 0.74050 0.37531
 H486 H 0.39252 0.72616 0.39621
 H487 H 0.43580 0.73512 0.46482
 H488 H 0.47123 0.74941 0.44264
 C489 C 0.45255 0.82133 0.34781
 C490 C 0.50364 0.69183 0.33995
 C491 C 0.41158 0.72956 0.43206
 C492 C 0.55019 0.77805 0.43772
 C493 C 0.37445 -0.02257 0.26780
 C494 C 0.35964 -0.02871 0.24341
 C495 C 0.34703 -0.00980 0.23549
 C496 C 0.35022 0.01351 0.25267
 C497 C 0.39083 0.00026 0.26371
 C498 C 0.37806 0.01911 0.25578
 C499 C 0.35597 -0.01379 0.28556
 C500 C 0.34333 0.00507 0.27766
 H501 H 0.36018 -0.04595 0.23271
 H502 H 0.33980 0.02885 0.24625
 H503 H 0.41065 0.00114 0.26605
 H504 H 0.35398 -0.02098 0.30337
 C505 C 0.09685 1.04170 0.75444
 C506 C 0.11026 1.04856 0.73200
 C507 C 0.12501 1.03118 0.72390
 C508 C 0.12512 1.00851 0.73895
 C509 C 0.08313 1.01692 0.74696
 C510 C 0.09804 0.99959 0.73890
 C511 C 0.11694 1.03610 0.77351
 C512 C 0.13166 1.01868 0.76541
 H513 H 0.10793 1.06541 0.72303
 H514 H 0.13724 0.99444 0.73229
 H515 H 0.06367 1.01322 0.74860
 H516 H 0.11805 1.04361 0.79235
 C517 C 0.59715 0.54301 0.25270
 C518 C 0.61049 0.55003 0.23026
 C519 C 0.62533 0.53276 0.22209
 C520 C 0.62559 0.51005 0.23707
 C521 C 0.58356 0.51819 0.24517
 C522 C 0.59855 0.50097 0.23703
 C523 C 0.61731 0.53746 0.27172
 C524 C 0.63212 0.52015 0.26355
 H525 H 0.60807 0.56690 0.22136
 H526 H 0.63778 0.49606 0.23035
 H527 H 0.56412 0.51437 0.24687
 H528 H 0.61838 0.54489 0.29059
 C529 C 0.87313 0.47686 0.76882
 C530 C 0.85827 0.47075 0.74445
 C531 C 0.84589 0.48976 0.73643
 C532 C 0.84933 0.51314 0.75350
 C533 C 0.88975 0.49949 0.76461
 C534 C 0.87720 0.51845 0.75658
 C535 C 0.85476 0.48595 0.78654
 C536 C 0.84235 0.50492 0.77854
 H537 H 0.85868 0.45346 0.73381
 H538 H 0.83909 0.52857 0.74700
 H539 H 0.90957 0.50015 0.76693
 H540 H 0.85271 0.47891 0.80441
 C541 C 0.26825 0.37344 -0.02298
 C542 C 0.24379 0.35880 -0.02918
 C543 C 0.23576 0.34624 -0.01027
 C544 C 0.25291 0.34932 0.01309
 C545 C 0.26423 0.38983 -0.00013
 C546 C 0.25619 0.37712 0.01872
 C547 C 0.28587 0.35485 -0.01419
 C548 C 0.27786 0.34227 0.00468
 H549 H 0.23313 0.35941 -0.04645
 H550 H 0.24640 0.33893 0.02843
 H551 H 0.26671 0.40964 0.00078
 H552 H 0.30371 0.35281 -0.02129
 C553 C 0.75489 0.09762 1.04311
 C554 C 0.73247 0.11102 1.05005
 C555 C 0.72430 0.12574 1.03267
 C556 C 0.73927 0.12584 1.00993
 C557 C 0.74735 0.08390 1.01833
 C558 C 0.73921 0.09878 1.00099
 C559 C 0.77391 0.11770 1.03745
 C560 C 0.76575 0.13240 1.02002
 H561 H 0.72354 0.10869 1.06694
 H562 H 0.73255 0.13795 0.99585
 H563 H 0.74902 0.06446 1.01463
 H564 H 0.79277 0.11880 1.04489
 C565 C 0.25418 0.59867 0.54267
 C566 C 0.23167 0.61191 0.54961
 C567 C 0.22342 0.62661 0.53225
 C568 C 0.23840 0.62685 0.50952
 C569 C 0.24672 0.58495 0.51786
 C570 C 0.23851 0.59982 0.50054
 C571 C 0.27309 0.61886 0.53704
 C572 C 0.26485 0.63354 0.51963
 H573 H 0.22275 0.60950 0.56649
 H574 H 0.23161 0.63894 0.49546
 H575 H 0.24853 0.56554 0.51412
 H576 H 0.29196 0.62004 0.54448
 C577 C 0.76840 0.87514 0.47773
 C578 C 0.74392 0.86059 0.47139
 C579 C 0.73578 0.84797 0.49020
 C580 C 0.75284 0.85090 0.51363
 C581 C 0.76435 0.89146 0.50063
 C582 C 0.75619 0.87868 0.51939
 C583 C 0.78592 0.85646 0.48650
 C584 C 0.77780 0.84381 0.50527
 H585 H 0.73336 0.86126 0.45407
 H586 H 0.74624 0.84046 0.52889
 H587 H 0.76693 0.91126 0.50165
 H588 H 0.80377 0.85436 0.47942
 C589 C -0.02167 0.26914 0.37489
 C590 C -0.02798 0.24491 0.35989
 C591 C -0.00901 0.23677 0.34749
 C592 C 0.01453 0.25360 0.35108
 C593 C 0.00087 0.26461 0.39153
 C594 C 0.01979 0.25647 0.37897
 C595 C -0.01236 0.28687 0.35665
 C596 C 0.00656 0.27876 0.34423
 H597 H -0.04538 0.23442 0.36020
 H598 H 0.02993 0.24702 0.34083
 H599 H 0.00144 0.26663 0.41136
 H600 H -0.01931 0.30477 0.35461
 C601 C 1.04254 0.75413 0.09763
 C602 C 1.04965 0.73176 0.11101
 C603 C 1.03243 0.72359 0.12590
 C604 C 1.00965 0.73850 0.12617
 C605 C 1.01768 0.74653 0.08409
 C606 C 1.00050 0.73839 0.09914
 C607 C 1.03699 0.77314 0.11777
 C608 C 1.01972 0.76498 0.13263
 H609 H 1.06652 0.72286 0.10852
 H610 H 0.99571 0.73179 0.13841
 H611 H 1.01381 0.74815 0.06464
 H612 H 1.04437 0.79201 0.11879
 C613 C 0.54300 0.25403 0.59731
 C614 C 0.55039 0.23191 0.61095
 C615 C 0.53328 0.22375 0.62597
 C616 C 0.51035 0.23843 0.62610
 C617 C 0.51818 0.24604 0.58387
 C618 C 0.50112 0.23791 0.59906
 C619 C 0.53730 0.27319 0.61724
 C620 C 0.52016 0.26503 0.63224
 H621 H 0.56735 0.22315 0.60853
 H622 H 0.49650 0.23173 0.63845
 H623 H 0.51427 0.24728 0.56437
 H624 H 0.54454 0.29209 0.61808
 C625 C 0.47764 0.76911 0.87424
 C626 C 0.47146 0.74475 0.85945
 C627 C 0.49043 0.73670 0.84699
 C628 C 0.51383 0.75374 0.85031
 C629 C 0.50035 0.76493 0.89079
 C630 C 0.51926 0.75687 0.87817
 C631 C 0.48665 0.78677 0.85579
 C632 C 0.50557 0.77875 0.84331
 H633 H 0.45416 0.73413 0.85993
 H634 H 0.52922 0.74722 0.84000
 H635 H 0.50112 0.76730 0.91062
 H636 H 0.47962 0.80464 0.85377
 C637 C 0.44477 -0.15925 0.33597
 C638 C 0.43766 -0.14193 0.32587
 C639 C 0.42878 -0.12113 0.31433
 C640 C 0.43570 -0.09750 0.32441
 C641 C 0.42595 -0.07730 0.31409
 C642 C 0.40925 -0.08068 0.29364
 C643 C 0.40262 -0.10429 0.28332
 C644 C 0.41238 -0.12449 0.29365
 C645 C 0.39787 -0.06010 0.28409
 C646 C 0.38769 -0.04303 0.27651
 H647 H 0.44829 -0.09471 0.34047
 H648 H 0.43107 -0.05913 0.32229
 H649 H 0.38961 -0.10711 0.26759
 H650 H 0.40683 -0.14269 0.28578
 C651 C 0.94324 0.34012 0.83729
 C652 C 0.93604 0.35743 0.82722
 C653 C 0.92708 0.37820 0.81569
 C654 C 0.93399 0.40186 0.82574
 C655 C 0.92422 0.42202 0.81538
 C656 C 0.90753 0.41862 0.79493
 C657 C 0.90090 0.39499 0.78466
 C658 C 0.91066 0.37482 0.79502
 C659 C 0.89623 0.43920 0.78530
 C660 C 0.88616 0.45631 0.77763
 H661 H 0.94660 0.40467 0.84178
 H662 H 0.92936 0.44021 0.82355
 H663 H 0.88789 0.39215 0.76893
 H664 H 0.90513 0.35660 0.78717
 C665 C 0.01265 1.17052 0.82778
 C666 C 0.02111 1.15383 0.81662
 C667 C 0.03185 1.13394 0.80388
 C668 C 0.02769 1.11005 0.81092
 C669 C 0.03952 1.09096 0.79975
 C670 C 0.05555 1.09568 0.78149
 C671 C 0.05937 1.11949 0.77415
 C672 C 0.04754 1.13858 0.78532
 C673 C 0.06920 1.07643 0.77137
 C674 C 0.08130 1.06058 0.76343
 H675 H 0.01569 1.10629 0.82535
 H676 H 0.03656 1.07264 0.80568
 H677 H 0.07185 1.12336 0.76016
 H678 H 0.05099 1.15700 0.77983
 C679 C 0.51305 0.67184 0.32611
 C680 C 0.52145 0.65507 0.31500
 C681 C 0.53211 0.63512 0.30231
 C682 C 0.54704 0.63955 0.28308
 C683 C 0.55883 0.62042 0.27190
 C684 C 0.55573 0.59680 0.27991
 C685 C 0.54045 0.59228 0.29884
 C686 C 0.52866 0.61140 0.31002
 C687 C 0.56939 0.57758 0.26975
 C688 C 0.58152 0.56179 0.26176
 H689 H 0.54994 0.65784 0.27707
 H690 H 0.57073 0.62414 0.25739
 H691 H 0.53806 0.57410 0.30528
 H692 H 0.51726 0.60780 0.32496
 C693 C 0.54276 0.33675 0.18812
 C694 C 0.55001 0.35695 0.19627
 C695 C 0.55849 0.38142 0.20499
 C696 C 0.54164 0.39859 0.21094
 C697 C 0.54975 0.42278 0.21792
 C698 C 0.57474 0.42991 0.21895
 C699 C 0.59162 0.41267 0.21327
 C700 C 0.58351 0.38848 0.20629
 C701 C 0.58302 0.45496 0.22536
 C702 C 0.59002 0.47595 0.23064
 H703 H 0.52225 0.39337 0.20985
 H704 H 0.53654 0.43597 0.22225
 H705 H 0.61098 0.41799 0.21398
 H706 H 0.59669 0.37539 0.20157
 C707 C 0.04168 0.83572 0.68921
 C708 C 0.04896 0.85585 0.69751
 C709 C 0.05750 0.88026 0.70641
 C710 C 0.08256 0.88717 0.70805
 C711 C 0.09075 0.91131 0.71516
 C712 C 0.07391 0.92865 0.72063
 C713 C 0.04887 0.92168 0.71927
 C714 C 0.04069 0.89754 0.71216
 C715 C 0.08229 0.95366 0.72713
 C716 C 0.08938 0.97461 0.73247
 H717 H 0.09571 0.87400 0.70349
 H718 H 0.11014 0.91651 0.71612
 H719 H 0.03569 0.93494 0.72343
 H720 H 0.02126 0.89243 0.71080
 C721 C 0.95680 0.66005 0.69840
 C722 C 0.94700 0.64322 0.70793
 C723 C 0.93525 0.62260 0.71844
 C724 C 0.91026 0.62214 0.72233
 C725 C 0.89853 0.60141 0.73104
 C726 C 0.91175 0.58106 0.73589
 C727 C 0.93680 0.58165 0.73231
 C728 C 0.94852 0.60237 0.72360
 C729 C 0.89949 0.55925 0.74364
 C730 C 0.88930 0.54076 0.74973
 H731 H 0.89979 0.63762 0.71827
 H732 H 0.87914 0.60112 0.73366
 H733 H 0.94718 0.56599 0.73591
 H734 H 0.96782 0.60246 0.72053
 C735 C 0.45737 0.16120 0.19834
 C736 C 0.44732 0.14446 0.20778
 C737 C 0.43522 0.12395 0.21817
 C738 C 0.44899 0.10676 0.22960
 C739 C 0.43729 0.08597 0.23821
 C740 C 0.41178 0.08228 0.23541
 C741 C 0.39799 0.09965 0.22429
 C742 C 0.40969 0.12044 0.21569
 C743 C 0.39984 0.06025 0.24306
 C744 C 0.38989 0.04161 0.24905
 H745 H 0.46875 0.10921 0.23149
 H746 H 0.44814 0.07261 0.24670
 H747 H 0.37826 0.09694 0.22195
 H748 H 0.39887 0.13354 0.20675
 C749 C 0.33692 0.44459 -0.15910
 C750 C 0.32682 0.43731 -0.14185
 C751 C 0.31526 0.42823 -0.12114
 C752 C 0.32551 0.43464 -0.09744
 C753 C 0.31512 0.42472 -0.07735
 C754 C 0.29444 0.40836 -0.08090
 C755 C 0.28397 0.40224 -0.10457
 C756 C 0.29436 0.41216 -0.12466
 C757 C 0.28476 0.39687 -0.06043
 C758 C 0.27708 0.38665 -0.04342
 H759 H 0.34174 0.44697 -0.09453
 H760 H 0.32344 0.42946 -0.05914
 H761 H 0.26805 0.38949 -0.10752
 H762 H 0.28635 0.40700 -0.14292
 C763 C 0.83708 0.94562 0.34129
 C764 C 0.82703 0.93850 0.35864
 C765 C 0.81554 0.92960 0.37947
 C766 C 0.82637 0.93540 0.40305
 C767 C 0.81601 0.92562 0.42322
 C768 C 0.79477 0.91002 0.41987
 C769 C 0.78372 0.90451 0.39633
 C770 C 0.79409 0.91428 0.37616
 C771 C 0.78508 0.89860 0.44038
 C772 C 0.77734 0.88840 0.45737
 H773 H 0.84302 0.94714 0.40580
 H774 H 0.82477 0.92988 0.44133
 H775 H 0.76737 0.89234 0.39353
 H776 H 0.78562 0.90960 0.35799
 C777 C 0.82846 0.01394 1.17229
 C778 C 0.81728 0.02234 1.15554
 C779 C 0.80453 0.03301 1.13561
 C780 C 0.78609 0.04884 1.14025
 C781 C 0.77489 0.06058 1.12109
 C782 C 0.78207 0.05653 1.09722
 C783 C 0.80020 0.04036 1.09252
 C784 C 0.81141 0.02862 1.11167
 C785 C 0.77192 0.07008 1.07790
 C786 C 0.76394 0.08212 1.06201
 H787 H 0.78073 0.05247 1.15871
 H788 H 0.76100 0.07317 1.12496
 H789 H 0.80600 0.03722 1.07415
 H790 H 0.82573 0.01650 1.10791
 C791 C 0.32774 0.51441 0.67144
 C792 C 0.31660 0.52292 0.65475
 C793 C 0.30388 0.53373 0.63489
 C794 C 0.31073 0.52941 0.61093
 C795 C 0.29955 0.54127 0.59184
 C796 C 0.28147 0.55747 0.59664
 C797 C 0.27432 0.56145 0.62052
 C798 C 0.28550 0.54960 0.63961
 C799 C 0.27131 0.57109 0.57738
 C800 C 0.26330 0.58316 0.56153
 H801 H 0.32501 0.51727 0.60710
 H802 H 0.30532 0.53818 0.57346
 H803 H 0.26046 0.57406 0.62446
 H804 H 0.28016 0.55317 0.65809
 C805 C 0.18979 0.54331 0.33632
 C806 C 0.19798 0.55065 0.35649
 C807 C 0.20672 0.55926 0.38095
 C808 C 0.21303 0.54254 0.39814
 C809 C 0.21998 0.55075 0.42234
 C810 C 0.22062 0.57571 0.42945
 C811 C 0.21461 0.59246 0.41219
 C812 C 0.20765 0.58425 0.38800
 C813 C 0.22698 0.58409 0.45452
 C814 C 0.23220 0.59117 0.47552
 H815 H 0.21222 0.52316 0.39293
 H816 H 0.22457 0.53764 0.43554
 H817 H 0.21502 0.61180 0.41750
 H818 H 0.20265 0.59733 0.37490
 C819 C 0.68959 0.04260 0.83687
 C820 C 0.69789 0.04985 0.85704
 C821 C 0.70677 0.05837 0.88148
 C822 C 0.70812 0.08338 0.88850
 C823 C 0.71521 0.09153 0.91269
 C824 C 0.72094 0.07470 0.92996
 C825 C 0.71988 0.04972 0.92287
 C826 C 0.71279 0.04157 0.89869
 C827 C 0.72744 0.08304 0.95501
 C828 C 0.73278 0.09012 0.97599
 H829 H 0.70334 0.09652 0.87539
 H830 H 0.71594 0.11089 0.91798
 H831 H 0.72425 0.03654 0.93608
 H832 H 0.71166 0.02217 0.89350
 C833 C 0.69958 0.95783 0.66211
 C834 C 0.70893 0.94782 0.64526
 C835 C 0.71921 0.93580 0.62463
 C836 C 0.71784 0.91024 0.62169
 C837 C 0.72632 0.89856 0.60081
 C838 C 0.73619 0.91238 0.58277
 C839 C 0.73788 0.93794 0.58588
 C840 C 0.72940 0.94962 0.60676
 C841 C 0.74369 0.90042 0.56068
 C842 C 0.74958 0.89048 0.54196
 H843 H 0.70986 0.89937 0.63532
 H844 H 0.72484 0.87879 0.59855
 H845 H 0.74539 0.94881 0.57200
 H846 H 0.73041 0.96939 0.60877
 C847 C 0.19910 0.45703 0.16081
 C848 C 0.20850 0.44693 0.14404
 C849 C 0.21885 0.43480 0.12352
 C850 C 0.22915 0.44850 0.10562
 C851 C 0.23772 0.43670 0.08485
 C852 C 0.23601 0.41114 0.08188
 C853 C 0.22604 0.39742 0.09995
 C854 C 0.21747 0.40923 0.12072
 C855 C 0.24359 0.39905 0.05988
 C856 C 0.24953 0.38901 0.04124
 H857 H 0.23018 0.46828 0.10752
 H858 H 0.24532 0.44748 0.07095
 H859 H 0.22455 0.37766 0.09780
 H860 H 0.20941 0.39845 0.13437
 C861 C -0.15867 0.33785 0.44433
 C862 C -0.14127 0.32784 0.43727
 C863 C -0.12039 0.31636 0.42848
 C864 C -0.12362 0.29489 0.41318
 C865 C -0.10339 0.28450 0.40355
 C866 C -0.07987 0.29554 0.40919
 C867 C -0.07662 0.31680 0.42478
 C868 C -0.09684 0.32719 0.43441
 C869 C -0.05928 0.28581 0.39795
 C870 C -0.04219 0.27807 0.38792
 H871 H -0.14176 0.28643 0.40840
 H872 H -0.10611 0.26814 0.39140
 H873 H -0.05852 0.32555 0.42914
 H874 H -0.09416 0.34384 0.44615
 C875 C 0.34064 0.83747 0.94393
 C876 C 0.35803 0.82744 0.93686
 C877 C 0.37889 0.81596 0.92804
 C878 C 0.40249 0.82641 0.93451
 C879 C 0.42272 0.81607 0.92484
 C880 C 0.41941 0.79523 0.90868
 C881 C 0.39584 0.78456 0.90250
 C882 C 0.37561 0.79490 0.91217
 C883 C 0.44002 0.78560 0.89740
 C884 C 0.45713 0.77794 0.88732
 H885 H 0.40521 0.84276 0.94670
 H886 H 0.44085 0.82454 0.92962
 H887 H 0.39308 0.76852 0.88989
 H888 H 0.35743 0.78673 0.90697
 C889 C 1.17082 0.82774 0.01293
 C890 C 1.15414 0.81657 0.02140
 C891 C 1.13428 0.80381 0.03216
 C892 C 1.13892 0.78482 0.04731
 C893 C 1.11988 0.77361 0.05920
 C894 C 1.09614 0.78134 0.05597
 C895 C 1.09142 0.80002 0.04046
 C896 C 1.11045 0.81123 0.02857
 C897 C 1.07700 0.77117 0.06973
 C898 C 1.06126 0.76318 0.08193
 H899 H 1.15730 0.77903 0.05032
 H900 H 1.12376 0.75928 0.07128
 H901 H 1.07315 0.80624 0.03796
 H902 H 1.10669 0.82599 0.01699
 C903 C 0.67112 0.32784 0.51261
 C904 C 0.65441 0.31664 0.52099
 C905 C 0.63452 0.30384 0.53167
 C906 C 0.63908 0.28453 0.54643
 C907 C 0.62005 0.27327 0.55829
 C908 C 0.59639 0.28128 0.55542
 C909 C 0.59173 0.30029 0.54029
 C910 C 0.61077 0.31155 0.52843
 C911 C 0.57729 0.27109 0.56922
 C912 C 0.56161 0.26308 0.58149
 H913 H 0.65741 0.27851 0.54916
 H914 H 0.62387 0.25869 0.57007
 H915 H 0.57354 0.30674 0.53809
 H916 H 0.60707 0.32656 0.51717
 C917 C 0.33720 0.18628 0.54360
 C918 C 0.35741 0.19421 0.55110
 C919 C 0.38189 0.20255 0.55998
 C920 C 0.39545 0.18804 0.57515
 C921 C 0.41958 0.19546 0.58310
 C922 C 0.43031 0.21742 0.57591
 C923 C 0.41672 0.23204 0.56088
 C924 C 0.39255 0.22461 0.55291
 C925 C 0.45528 0.22478 0.58386
 C926 C 0.47619 0.23077 0.59066
 H927 H 0.38743 0.17090 0.58064
 H928 H 0.42991 0.18402 0.59471
 H929 H 0.42484 0.24906 0.55522
 H930 H 0.38227 0.23591 0.54111
 C931 C 0.83627 0.68866 0.04354
 C932 C 0.85645 0.69689 0.05080
 C933 C 0.88091 0.70573 0.05930
 C934 C 0.89783 0.71256 0.04250
 C935 C 0.92202 0.71966 0.05057
 C936 C 0.92941 0.71992 0.07547
 C937 C 0.91242 0.71336 0.09230
 C938 C 0.88823 0.70626 0.08423
 C939 C 0.95448 0.72648 0.08369
 C940 C 0.97547 0.73188 0.09065
 H941 H 0.89241 0.71207 0.02316
 H942 H 0.93501 0.72467 0.03739
 H943 H 0.91794 0.71347 0.11160
 H944 H 0.87534 0.70086 0.09736
 C945 C 0.66081 0.69858 0.95797
 C946 C 0.64409 0.70814 0.94797
 C947 C 0.62363 0.71868 0.93594
 C948 C 0.62122 0.71820 0.91036
 C949 C 0.60052 0.72695 0.89860
 C950 C 0.58212 0.73621 0.91237
 C951 C 0.58470 0.73702 0.93795
 C952 C 0.60540 0.72827 0.94971
 C953 C 0.56021 0.74397 0.90026
 C954 C 0.54166 0.75005 0.89018
 H955 H 0.63514 0.71070 0.89953
 H956 H 0.59868 0.72616 0.87881
 H957 H 0.57055 0.74406 0.94878
 H958 H 0.60700 0.72860 0.96949
 C959 C 0.16068 0.19632 0.45871
 C960 C 0.14358 0.20551 0.44897
 C961 C 0.12253 0.21550 0.43739
 C962 C 0.12532 0.23409 0.42125
 C963 C 0.10470 0.24306 0.40948
 C964 C 0.08125 0.23345 0.41382
 C965 C 0.07850 0.21499 0.43008
 C966 C 0.09907 0.20604 0.44182
 C967 C 0.05996 0.24212 0.40138
 C968 C 0.04181 0.24890 0.39110
 H969 H 0.14338 0.24148 0.41763
 H970 H 0.10704 0.25732 0.39691
 H971 H 0.06047 0.20740 0.43354
 H972 H 0.09670 0.19161 0.45420
 C973 C 0.58193 0.08324 0.70224
 C974 C 0.57213 0.10028 0.69406
 C975 C 0.56161 0.12111 0.68397
 C976 C 0.56471 0.14400 0.69689
 C977 C 0.55678 0.16475 0.68608
 C978 C 0.54571 0.16270 0.66230
 C979 C 0.54204 0.13972 0.64962
 C980 C 0.54997 0.11897 0.66043
 C981 C 0.54008 0.18432 0.65015
 C982 C 0.53641 0.20237 0.63944
 H983 H 0.57387 0.14591 0.71502
 H984 H 0.55992 0.18245 0.69597
 H985 H 0.53370 0.13794 0.63114
 H986 H 0.54765 0.10140 0.65019
 C987 C 1.08084 0.58237 0.20088
 C988 C 1.07093 0.59942 0.19283
 C989 C 1.06033 0.62029 0.18291
 C990 C 1.06296 0.64299 0.19621
 C991 C 1.05503 0.66384 0.18559
 C992 C 1.04443 0.66208 0.16162
 C993 C 1.04120 0.63926 0.14856
 C994 C 1.04914 0.61841 0.15918
 C995 C 1.03889 0.68385 0.14969
 C996 C 1.03535 0.70204 0.13916
 H997 H 1.07176 0.64470 0.21450
 H998 H 1.05782 0.68141 0.19578
 H999 H 1.03324 0.63771 0.12994
 H1000 H 1.04719 0.60099 0.14865
 C1001 C 0.94545 0.89171 0.21950
 C1002 C 0.95526 0.87430 0.21124
 C1003 C 0.96663 0.85365 0.20063
 C1004 C 0.99208 0.85428 0.19969
 C1005 C 1.00296 0.83498 0.18772
 C1006 C 0.98843 0.81498 0.17665
 C1007 C 0.96302 0.81412 0.17804
 C1008 C 0.95214 0.83341 0.19002
 C1009 C 0.99940 0.79639 0.16224
 C1010 C 1.00863 0.78159 0.14926
 H1011 H 1.00344 0.86990 0.20773
 H1012 H 1.02261 0.83593 0.18657
 H1013 H 0.95160 0.79884 0.16936
 H1014 H 0.93243 0.83280 0.19052
 C1015 C 0.44566 0.39157 0.71920
 C1016 C 0.45551 0.37420 0.71090
 C1017 C 0.46692 0.35360 0.70024
 C1018 C 0.45247 0.33333 0.68963
 C1019 C 0.46338 0.31408 0.67763
 C1020 C 0.48879 0.31500 0.67622
 C1021 C 0.50328 0.33504 0.68727
 C1022 C 0.49237 0.35430 0.69927
 C1023 C 0.49979 0.29645 0.66180
 C1024 C 0.50904 0.28165 0.64883
 H1025 H 0.43276 0.33267 0.69017
 H1026 H 0.45198 0.29878 0.66896
 H1027 H 0.52293 0.33604 0.68610
 H1028 H 0.50370 0.36993 0.70731
 C1029 C 0.45134 0.57462 0.78373
 C1030 C 0.46028 0.59491 0.78941
 C1031 C 0.46968 0.61943 0.79685
 C1032 C 0.48395 0.62414 0.81887
 C1033 C 0.49055 0.64822 0.82765
 C1034 C 0.48290 0.66769 0.81443
 C1035 C 0.46926 0.66297 0.79204
 C1036 C 0.46267 0.63889 0.78326
 C1037 C 0.48689 0.69233 0.82502
 C1038 C 0.48910 0.71273 0.83462
 H1039 H 0.48927 0.60925 0.82965
 H1040 H 0.50088 0.65167 0.84511
 H1041 H 0.46304 0.67788 0.78180
 H1042 H 0.45144 0.63547 0.76633
 C1043 C -0.04858 0.07501 0.28345
 C1044 C -0.03960 0.09529 0.28914
 C1045 C -0.03015 0.11979 0.29664
 C1046 C -0.03746 0.13934 0.28337
 C1047 C -0.03081 0.16338 0.29227
 C1048 C -0.01682 0.16796 0.31447
 C1049 C -0.00887 0.14839 0.32736
 C1050 C -0.01552 0.12435 0.31846
 C1051 C -0.01275 0.19252 0.32523
 C1052 C -0.01045 0.21287 0.33497
 H1053 H -0.04897 0.13603 0.26660
 H1054 H -0.03726 0.17837 0.28227
 H1055 H 0.00175 0.15171 0.34467
 H1056 H -0.00997 0.10938 0.32900
 C1057 C 0.08293 0.40720 0.26476
 C1058 C 0.07347 0.38840 0.27095
 C1059 C 0.06259 0.36643 0.27976
 C1060 C 0.03725 0.36128 0.27681
 C1061 C 0.02644 0.34144 0.28784
 C1062 C 0.04091 0.32668 0.30186
 C1063 C 0.06632 0.33141 0.30421
 C1064 C 0.07714 0.35123 0.29317
 C1065 C 0.02945 0.30839 0.31577
 C1066 C 0.01936 0.29419 0.32831
 H1067 H 0.02581 0.37302 0.26666
 H1068 H 0.00674 0.33811 0.28612
 H1069 H 0.07766 0.32028 0.31521
 H1070 H 0.09673 0.35517 0.29574
 C1071 C 0.58268 0.90775 0.76522
 C1072 C 0.57306 0.88894 0.77120
 C1073 C 0.56199 0.86693 0.77975
 C1074 C 0.57644 0.85128 0.79268
 C1075 C 0.56548 0.83138 0.80348
 C1076 C 0.54003 0.82702 0.80137
 C1077 C 0.52564 0.84224 0.78782
 C1078 C 0.53659 0.86215 0.77703
 C1079 C 0.52848 0.80862 0.81509
 C1080 C 0.51836 0.79432 0.82750
 H1081 H 0.59608 0.85493 0.79507
 H1082 H 0.57676 0.81990 0.81413
 H1083 H 0.50591 0.83919 0.78630
 H1084 H 0.52523 0.87424 0.76725
 C1085 C 0.70124 0.58152 0.08144
 C1086 C 0.69308 0.57153 0.09841
 C1087 C 0.68301 0.56085 0.11917
 C1088 C 0.65926 0.54973 0.11710
 C1089 C 0.64849 0.54173 0.13786
 C1090 C 0.66142 0.54482 0.16077
 C1091 C 0.68540 0.55534 0.16273
 C1092 C 0.69617 0.56333 0.14197
 C1093 C 0.64933 0.53924 0.18246
 C1094 C 0.63870 0.53568 0.20059
 H1095 H 0.64883 0.54790 0.09961
 H1096 H 0.62985 0.53383 0.13616
 H1097 H 0.69549 0.55803 0.18038
 H1098 H 0.71447 0.57208 0.14382
 C1099 C 0.20133 1.07823 0.58287
 C1100 C 0.19309 1.06843 0.59990
 C1101 C 0.18292 1.05799 0.62074
 C1102 C 0.19611 1.06048 0.64353
 C1103 C 0.18525 1.05277 0.66435
 C1104 C 0.16116 1.04254 0.66248
 C1105 C 0.14820 1.03944 0.63958
 C1106 C 0.15905 1.04715 0.61876
 C1107 C 0.14903 1.03724 0.68422
 C1108 C 0.13838 1.03389 0.70238
 H1109 H 0.21449 1.06902 0.64532
 H1110 H 0.19537 1.05546 0.68199
 H1111 H 0.12949 1.03176 0.63794
 H1112 H 0.14860 1.04533 0.60127
 C1113 C 0.21898 0.94448 0.89204
 C1114 C 0.21063 0.95432 0.87466
 C1115 C 0.19991 0.96570 0.85405
 C1116 C 0.18950 0.95125 0.83368
 C1117 C 0.17743 0.96211 0.81442
 C1118 C 0.17576 0.98747 0.81544
 C1119 C 0.18662 1.00197 0.83558
 C1120 C 0.19869 0.99110 0.85484
 C1121 C 0.16129 0.99841 0.79686
 C1122 C 0.14828 1.00761 0.78205
 H1123 H 0.19023 0.93157 0.83295
 H1124 H 0.16891 0.95071 0.79904
 H1125 H 0.18525 1.02157 0.83665
 H1126 H 0.20657 1.00243 0.87056
 C1127 C 0.71914 0.44600 0.39035
 C1128 C 0.71085 0.45581 0.37294
 C1129 C 0.70020 0.46717 0.35229
 C1130 C 0.68965 0.45269 0.33200
 C1131 C 0.67765 0.46354 0.31269
 C1132 C 0.67619 0.48892 0.31358
 C1133 C 0.68719 0.50345 0.33363
 C1134 C 0.69918 0.49259 0.35294
 C1135 C 0.66175 0.49987 0.29498
 C1136 C 0.64875 0.50908 0.28017
 H1137 H 0.69022 0.43300 0.33136
 H1138 H 0.66902 0.45212 0.29738
 H1139 H 0.68598 0.52307 0.33460
 H1140 H 0.70717 0.50395 0.36859
 C1141 C 0.78284 0.45139 0.57400
 C1142 C 0.78842 0.46024 0.59437
 C1143 C 0.79580 0.46953 0.61896
 C1144 C 0.81773 0.48390 0.62377
 C1145 C 0.82648 0.49038 0.64791
 C1146 C 0.81332 0.48252 0.66734
 C1147 C 0.79100 0.46879 0.66253
 C1148 C 0.78226 0.46232 0.63838
 C1149 C 0.82390 0.48639 0.69201
 C1150 C 0.83351 0.48851 0.71244
 H1151 H 0.82847 0.48938 0.60890
 H1152 H 0.84387 0.50079 0.65142
 H1153 H 0.78080 0.46240 0.67741
 H1154 H 0.76539 0.45101 0.63489
 C1155 C 0.28287 -0.04854 0.07349
 C1156 C 0.28860 -0.03964 0.09381
 C1157 C 0.29615 -0.03029 0.11835
 C1158 C 0.31814 -0.01598 0.12297
 C1159 C 0.32706 -0.00945 0.14705
 C1160 C 0.31402 -0.01720 0.16660
 C1161 C 0.29165 -0.03088 0.16197
 C1162 C 0.28274 -0.03740 0.13789
 C1163 C 0.32477 -0.01328 0.19121
 C1164 C 0.33450 -0.01110 0.21157
 H1165 H 0.32879 -0.01058 0.10801
 H1166 H 0.34450 0.00091 0.15042
 H1167 H 0.28155 -0.03719 0.17695
 H1168 H 0.26583 -0.04868 0.13454
 C1169 C 0.26422 0.08026 0.40708
 C1170 C 0.27025 0.07083 0.38818
 C1171 C 0.27891 0.06002 0.36608
 C1172 C 0.27664 0.03464 0.36124
 C1173 C 0.28760 0.02397 0.34127
 C1174 C 0.30086 0.03863 0.32606
 C1175 C 0.30251 0.06406 0.33048
 C1176 C 0.29154 0.07473 0.35044
 C1177 C 0.31478 0.02741 0.30761
 C1178 C 0.32735 0.01755 0.29327
 H1179 H 0.26711 0.02308 0.37333
 H1180 H 0.28644 0.00426 0.33817
 H1181 H 0.31293 0.07555 0.31901
 H1182 H 0.29358 0.09436 0.35414
 C1183 C 0.76389 0.58154 0.90770
 C1184 C 0.76995 0.57202 0.88886
 C1185 C 0.77860 0.56109 0.86681
 C1186 C 0.79185 0.57558 0.85145
 C1187 C 0.80272 0.56471 0.83152
 C1188 C 0.80037 0.53932 0.82686
 C1189 C 0.78651 0.52490 0.84179
 C1190 C 0.77565 0.53576 0.86173
 C1191 C 0.81413 0.52782 0.80844
 C1192 C 0.82655 0.51771 0.79412
 H1193 H 0.79442 0.59516 0.85533
 H1194 H 0.81361 0.57601 0.82027
 H1195 H 0.78479 0.50521 0.83850
 H1196 H 0.76562 0.52436 0.87359
 C1197 C 0.08161 0.70097 0.58002
 C1198 C 0.09873 0.69300 0.57017
 C1199 C 0.11968 0.68317 0.55964
 C1200 C 0.11793 0.65946 0.54846
 C1201 C 0.13886 0.64893 0.54061
 C1202 C 0.16165 0.66205 0.54391
 C1203 C 0.16330 0.68600 0.55449
 C1204 C 0.14236 0.69654 0.56233
 C1205 C 0.18351 0.65021 0.53848
 C1206 C 0.20177 0.63977 0.53503
 H1207 H 0.10054 0.64888 0.54647
 H1208 H 0.13741 0.63032 0.53267
 H1209 H 0.18084 0.69624 0.55733
 H1210 H 0.14398 0.71480 0.57113
 C1211 C 0.58285 0.20095 1.08024
 C1212 C 0.59996 0.19288 1.07046
 C1213 C 0.62089 0.18293 1.06000
 C1214 C 0.61899 0.15931 1.04861
 C1215 C 0.63987 0.14865 1.04078
 C1216 C 0.66275 0.16157 1.04431
 C1217 C 0.66456 0.18543 1.05511
 C1218 C 0.64368 0.19609 1.06293
 C1219 C 0.68453 0.14958 1.03888
 C1220 C 0.70273 0.13903 1.03544
 H1221 H 0.60151 0.14889 1.04642
 H1222 H 0.63828 0.13011 1.03266
 H1223 H 0.68218 0.19551 1.05813
 H1224 H 0.64540 0.21429 1.07189
 C1225 C 0.89219 0.21906 0.94506
 C1226 C 0.87486 0.21079 0.95500
 C1227 C 0.85428 0.20018 0.96650
 C1228 C 0.85514 0.19906 0.99195
 C1229 C 0.83590 0.18711 1.00292
 C1230 C 0.81571 0.17624 0.98850
 C1231 C 0.81462 0.17781 0.96310
 C1232 C 0.83386 0.18977 0.95213
 C1233 C 0.79715 0.16187 0.99955
 C1234 C 0.78236 0.14895 1.00885
 H1235 H 0.87090 0.20694 1.00322
 H1236 H 0.83702 0.18582 1.02256
 H1237 H 0.79920 0.16929 0.95176
 H1238 H 0.83307 0.19042 0.93242
 C1239 C 0.39089 0.72037 0.44434
 C1240 C 0.37355 0.71212 0.45428
 C1241 C 0.35301 0.70151 0.46582
 C1242 C 0.33267 0.69087 0.45149
 C1243 C 0.31348 0.67888 0.46253
 C1244 C 0.31456 0.67752 0.48795
 C1245 C 0.33466 0.68862 0.50233
 C1246 C 0.35385 0.70060 0.49129
 C1247 C 0.29609 0.66311 0.49908
 C1248 C 0.28137 0.65014 0.50843
 H1249 H 0.33189 0.69136 0.43177
 H1250 H 0.29813 0.67018 0.45122
 H1251 H 0.33578 0.68749 0.52199
 H1252 H 0.36955 0.70865 0.50254
 C1253 C 0.57398 0.78420 0.44975
 C1254 C 0.59424 0.78988 0.45882
 C1255 C 0.61872 0.79738 0.46839
 C1256 C 0.63832 0.78409 0.46122
 C1257 C 0.66235 0.79295 0.46801
 C1258 C 0.66688 0.81513 0.48203
 C1259 C 0.64726 0.82803 0.48985
 C1260 C 0.62322 0.81917 0.48304
 C1261 C 0.69146 0.82584 0.48625
 C1262 C 0.71182 0.83553 0.48866
 H1263 H 0.63505 0.76734 0.44969
 H1264 H 0.67738 0.78296 0.46166
 H1265 H 0.65054 0.84532 0.50047
 H1266 H 0.60822 0.82971 0.48850
 C1267 C 0.07354 0.28272 -0.04891
 C1268 C 0.09389 0.28841 -0.04007
 C1269 C 0.11845 0.29589 -0.03078
 C1270 C 0.13794 0.28247 -0.03802
 C1271 C 0.16204 0.29130 -0.03152
 C1272 C 0.16675 0.31359 -0.01775
 C1273 C 0.14726 0.32664 -0.00987
 C1274 C 0.12316 0.31781 -0.01637
 C1275 C 0.19138 0.32424 -0.01381
 C1276 C 0.21178 0.33387 -0.01162
 H1277 H 0.13452 0.26561 -0.04936
 H1278 H 0.17697 0.28118 -0.03792
 H1279 H 0.15069 0.34402 0.00058
 H1280 H 0.10824 0.32846 -0.01087
 C1281 C 0.40708 0.26384 0.08111
 C1282 C 0.38822 0.26981 0.07154
 C1283 C 0.36615 0.27837 0.06055
 C1284 C 0.35047 0.29113 0.07510
 C1285 C 0.33052 0.30197 0.06423
 C1286 C 0.32617 0.30007 0.03876
 C1287 C 0.34142 0.28668 0.02427
 C1288 C 0.36138 0.27585 0.03514
 C1289 C 0.30774 0.31387 0.02733
 C1290 C 0.29343 0.32635 0.01731
 H1291 H 0.35411 0.29337 0.09475
 H1292 H 0.31901 0.31250 0.07559
 H1293 H 0.33838 0.28531 0.00454
 H1294 H 0.37350 0.26620 0.02370
 C1295 C 0.90604 0.76389 0.58152
 C1296 C 0.88728 0.77004 0.57192
 C1297 C 0.86533 0.77882 0.56091
 C1298 C 0.84959 0.79146 0.57549
 C1299 C 0.82979 0.80255 0.56464
 C1300 C 0.82566 0.80101 0.53915
 C1301 C 0.84096 0.78774 0.52462
 C1302 C 0.86077 0.77667 0.53547
 C1303 C 0.80739 0.81504 0.52778
 C1304 C 0.79321 0.82770 0.51783
 H1305 H 0.85308 0.79342 0.59517
 H1306 H 0.81824 0.81297 0.57604
 H1307 H 0.83808 0.78665 0.50487
 H1308 H 0.87294 0.76713 0.52401
   
