data_POSCAR
  _audit_creation_date              2014-09-24
  _audit_creation_method            'ToBaCCo'
  _symmetry_space_group_name_H-M    'P1'
  _symmetry_Int_Tables_number       1
  _symmetry_cell_setting            triclinic
  loop_
  _symmetry_equiv_pos_as_xyz
 x,y,z
_cell_length_a 47.6989
_cell_length_b 44.0350
_cell_length_c 38.1289
_cell_angle_alpha 89.948100
_cell_angle_beta 89.943400
_cell_angle_gamma 90.040300
loop_
  _atom_site_label
  _atom_site_type_symbol
  _atom_site_fract_x
  _atom_site_fract_y
  _atom_site_fract_z
C1 C 0.00343 0.00497 0.11336
 C2 C -0.00082 0.00338 -0.11656
 C3 C -0.06308 -0.04836 0.05349
 C4 C -0.06319 0.05252 0.05203
 C5 C -0.06476 -0.04923 -0.05230
 C6 C 0.06450 -0.04745 -0.05826
 C7 C 0.06460 0.04852 -0.05942
 C8 C 0.06611 -0.04572 0.05319
 C9 C -0.06481 0.05196 -0.05149
 C10 C 0.06629 0.04972 0.05188
 O11 O -0.03921 -0.05524 -0.06139
 O12 O -0.07204 -0.02825 -0.03045
 O13 O -0.03922 0.05872 -0.05977
 O14 O -0.07221 0.03035 -0.03067
 O15 O 0.04074 0.05645 0.06027
 O16 O 0.07348 0.02969 0.02886
 O17 O -0.00142 0.02859 -0.09989
 O18 O -0.00033 -0.02309 -0.10161
 O19 O 0.00281 0.03010 0.09650
 O20 O 0.00256 -0.02167 0.09897
 O21 O 0.03861 -0.05342 -0.06587
 O22 O 0.07230 -0.02744 -0.03545
 O23 O -0.03728 -0.05437 0.06133
 O24 O -0.07107 -0.02761 0.03182
 O25 O 0.04056 -0.05182 0.06216
 O26 O 0.07338 -0.02641 0.02941
 O27 O 0.03875 0.05522 -0.06636
 O28 O 0.07244 0.02880 -0.03642
 O29 O 0.00286 0.08764 0.04922
 O30 O 0.00100 0.08652 -0.05582
 O31 O 0.00049 -0.08331 -0.05571
 O32 O 0.00239 -0.08239 0.05447
 O33 O -0.02312 -0.03810 -0.00050
 O34 O -0.02369 0.04161 -0.00121
 O35 O 0.02398 -0.03789 -0.00170
 O36 O -0.02430 0.00235 0.04613
 O37 O -0.07113 0.03109 0.03117
 O38 O -0.03737 0.05906 0.05933
 O39 O 0.02717 0.00233 0.04492
 O40 O 0.02573 0.00158 -0.04943
 O41 O 0.02473 0.04137 -0.00252
 O42 O -0.02580 0.00158 -0.04771
 Zr43 Zr 0.00137 0.04003 0.04325
 Zr44 Zr -0.00009 -0.03595 -0.04746
 Zr45 Zr -0.04735 0.00146 -0.00018
 Zr46 Zr 0.00131 -0.03518 0.04515
 Zr47 Zr -0.00007 0.03923 -0.04690
 Zr48 Zr 0.04861 0.00140 -0.00280
 H49 H 0.03511 -0.05685 -0.00170
 H50 H -0.03655 0.00258 0.06710
 H51 H 0.03602 0.06022 -0.00305
 H52 H -0.03879 0.00161 -0.06795
 H53 H -0.00411 0.09609 0.02683
 H54 H 0.00432 0.09585 -0.03262
 H55 H 0.00082 -0.09189 0.03103
 H56 H -0.00037 -0.09242 -0.03200
 C57 C 0.25321 0.25475 0.13575
 C58 C 0.24725 0.25296 0.36511
 C59 C 0.18614 0.30267 0.19688
 C60 C 0.18623 0.20159 0.19514
 C61 C 0.18410 0.30164 0.30033
 C62 C 0.31337 0.29833 0.30831
 C63 C 0.31335 0.20251 0.30714
 C64 C 0.31561 0.29998 0.19768
 C65 C 0.18419 0.20051 0.30074
 C66 C 0.31536 0.20381 0.19620
 O67 O 0.20965 0.30824 0.30882
 O68 O 0.17675 0.28022 0.27926
 O69 O 0.20972 0.19445 0.30983
 O70 O 0.17694 0.22158 0.27897
 O71 O 0.28984 0.19775 0.18716
 O72 O 0.32257 0.22336 0.21969
 O73 O 0.24812 0.22654 0.35024
 O74 O 0.24694 0.27831 0.34872
 O75 O 0.25222 0.22813 0.15011
 O76 O 0.25243 0.27988 0.15250
 O77 O 0.28757 0.30499 0.31546
 O78 O 0.32138 0.27867 0.28540
 O79 O 0.21201 0.30936 0.18996
 O80 O 0.17809 0.28102 0.21740
 O81 O 0.29009 0.30677 0.18929
 O82 O 0.32273 0.27962 0.22034
 O83 O 0.28751 0.19639 0.31479
 O84 O 0.32131 0.22251 0.28443
 O85 O 0.25153 0.16750 0.19447
 O86 O 0.24949 0.16646 0.30454
 O87 O 0.25047 0.33636 0.30402
 O88 O 0.25160 0.33739 0.19802
 O89 O 0.22541 0.29151 0.24999
 O90 O 0.22593 0.21176 0.24926
 O91 O 0.27379 0.29124 0.25147
 O92 O 0.22498 0.25227 0.20259
 O93 O 0.17814 0.22235 0.21671
 O94 O 0.21206 0.19558 0.18745
 O95 O 0.27646 0.25223 0.20396
 O96 O 0.27466 0.25135 0.29833
 O97 O 0.27312 0.21195 0.25063
 O98 O 0.22315 0.25134 0.29635
 Zr99 Zr 0.25058 0.21469 0.20380
 Zr100 Zr 0.24886 0.28902 0.29576
 Zr101 Zr 0.20174 0.25136 0.24882
 Zr102 Zr 0.25064 0.28993 0.20563
 Zr103 Zr 0.24885 0.21382 0.29621
 Zr104 Zr 0.29770 0.25127 0.25175
 H105 H 0.28501 0.31014 0.25217
 H106 H 0.21282 0.25258 0.18157
 H107 H 0.28420 0.19297 0.25073
 H108 H 0.21001 0.25129 0.31646
 H109 H 0.24992 0.15796 0.21790
 H110 H 0.24872 0.15735 0.28084
 H111 H 0.25279 0.34629 0.22176
 H112 H 0.24577 0.34567 0.28116
 C113 C 0.50085 0.00492 0.11408
 C114 C 0.49736 0.00425 -0.11591
 C115 C 0.56481 0.05296 0.04935
 C116 C 0.56476 -0.04777 0.05108
 C117 C 0.56343 0.05223 -0.05501
 C118 C 0.43378 0.04955 -0.05493
 C119 C 0.43402 -0.04667 -0.05464
 C120 C 0.43538 0.05000 0.05579
 C121 C 0.56331 -0.04842 -0.05513
 C122 C 0.43548 -0.04650 0.05639
 O123 O 0.53755 0.05869 -0.06221
 O124 O 0.57128 0.03108 -0.03374
 O125 O 0.53752 -0.05452 -0.06297
 O126 O 0.57120 -0.02754 -0.03351
 O127 O 0.46136 -0.05237 0.06412
 O128 O 0.42768 -0.02664 0.03341
 O129 O 0.49782 -0.02227 -0.10105
 O130 O 0.49779 0.02944 -0.09917
 O131 O 0.50035 -0.02168 0.09958
 O132 O 0.50120 0.03006 0.09727
 O133 O 0.45942 0.05614 -0.06326
 O134 O 0.42661 0.02951 -0.03187
 O135 O 0.53919 0.05969 0.05749
 O136 O 0.57219 0.03145 0.02832
 O137 O 0.46117 0.05673 0.06298
 O138 O 0.42753 0.02986 0.03327
 O139 O 0.45961 -0.05265 -0.06362
 O140 O 0.42676 -0.02686 -0.03139
 O141 O 0.49954 -0.08223 0.05475
 O142 O 0.49793 -0.08266 -0.05540
 O143 O 0.49726 0.08735 -0.05332
 O144 O 0.49911 0.08768 0.05183
 O145 O 0.52377 0.04214 -0.00160
 O146 O 0.52321 -0.03763 -0.00118
 O147 O 0.47535 0.04171 -0.00046
 O148 O 0.52573 0.00261 0.04544
 O149 O 0.57210 -0.02710 0.02889
 O150 O 0.53919 -0.05387 0.06005
 O151 O 0.47421 0.00252 0.04706
 O152 O 0.47291 0.00215 -0.04743
 O153 O 0.47610 -0.03748 -0.00011
 O154 O 0.52444 0.00225 -0.04831
 Zr155 Zr 0.50007 -0.03498 0.04566
 Zr156 Zr 0.49876 0.03986 -0.04609
 Zr157 Zr 0.54742 0.00200 -0.00195
 Zr158 Zr 0.50003 0.04024 0.04410
 Zr159 Zr 0.49884 -0.03533 -0.04698
 Zr160 Zr 0.45142 0.00173 0.00032
 H161 H 0.46411 0.06058 -0.00035
 H162 H 0.53867 0.00285 0.06572
 H163 H 0.46503 -0.05649 0.00024
 H164 H 0.53675 0.00229 -0.06922
 H165 H 0.50051 -0.09162 0.03120
 H166 H 0.49957 -0.09185 -0.03179
 H167 H 0.49617 0.09662 0.02833
 H168 H 0.50409 0.09623 -0.03109
 C169 C 0.75351 0.25516 0.13564
 C170 C 0.74824 0.25263 0.36497
 C171 C 0.68635 0.30245 0.19704
 C172 C 0.68642 0.20197 0.19468
 C173 C 0.68460 0.30097 0.30129
 C174 C 0.81394 0.29770 0.30837
 C175 C 0.81393 0.20263 0.30671
 C176 C 0.81585 0.29987 0.19701
 C177 C 0.68474 0.20045 0.30104
 C178 C 0.81564 0.20400 0.19524
 O179 O 0.71015 0.30757 0.30978
 O180 O 0.67727 0.27993 0.27970
 O181 O 0.71030 0.19435 0.30998
 O182 O 0.67746 0.22141 0.27914
 O183 O 0.79008 0.19789 0.18636
 O184 O 0.82287 0.22340 0.21891
 O185 O 0.74890 0.22623 0.35000
 O186 O 0.74789 0.27802 0.34867
 O187 O 0.75253 0.22846 0.14984
 O188 O 0.75263 0.28021 0.15251
 O189 O 0.78817 0.30440 0.31566
 O190 O 0.82188 0.27838 0.28503
 O191 O 0.71218 0.30921 0.18997
 O192 O 0.67839 0.28090 0.21773
 O193 O 0.79029 0.30677 0.18888
 O194 O 0.82302 0.27959 0.21974
 O195 O 0.78812 0.19644 0.31443
 O196 O 0.82182 0.22246 0.28379
 O197 O 0.75170 0.16754 0.19402
 O198 O 0.75013 0.16620 0.30388
 O199 O 0.75106 0.33628 0.30328
 O200 O 0.75161 0.33756 0.19861
 O201 O 0.72576 0.29143 0.25013
 O202 O 0.72633 0.21161 0.24903
 O203 O 0.77425 0.29118 0.25135
 O204 O 0.72529 0.25233 0.20259
 O205 O 0.67845 0.22243 0.21670
 O206 O 0.71222 0.19595 0.18681
 O207 O 0.77668 0.25231 0.20366
 O208 O 0.77517 0.25114 0.29790
 O209 O 0.77354 0.21184 0.25016
 O210 O 0.72374 0.25112 0.29629
 Zr211 Zr 0.75085 0.21472 0.20343
 Zr212 Zr 0.74940 0.28884 0.29573
 Zr213 Zr 0.70216 0.25123 0.24891
 Zr214 Zr 0.75091 0.29003 0.20566
 Zr215 Zr 0.74940 0.21360 0.29588
 Zr216 Zr 0.79810 0.25119 0.25126
 H217 H 0.78555 0.31002 0.25210
 H218 H 0.71311 0.25272 0.18159
 H219 H 0.78467 0.19289 0.25014
 H220 H 0.71073 0.25096 0.31652
 H221 H 0.74992 0.15797 0.21741
 H222 H 0.74906 0.15721 0.28014
 H223 H 0.75504 0.34624 0.22211
 H224 H 0.74457 0.34533 0.28097
 C225 C 0.00252 0.50508 0.11339
 C226 C -0.00117 0.50324 -0.11654
 C227 C -0.06354 0.45127 0.05338
 C228 C -0.06415 0.55212 0.05167
 C229 C -0.06514 0.45009 -0.05272
 C230 C 0.06416 0.45327 -0.05794
 C231 C 0.06390 0.54898 -0.05907
 C232 C 0.06564 0.45448 0.05345
 C233 C -0.06556 0.55148 -0.05173
 C234 C 0.06537 0.55027 0.05217
 O235 O -0.03944 0.44435 -0.06161
 O236 O -0.07244 0.47109 -0.03081
 O237 O -0.03999 0.55839 -0.05988
 O238 O -0.07293 0.52981 -0.03096
 O239 O 0.03976 0.55689 0.06045
 O240 O 0.07266 0.53019 0.02925
 O241 O -0.00186 0.52846 -0.09988
 O242 O -0.00065 0.47678 -0.10156
 O243 O 0.00175 0.53018 0.09649
 O244 O 0.00191 0.47842 0.09904
 O245 O 0.03839 0.44699 -0.06572
 O246 O 0.07192 0.47317 -0.03506
 O247 O -0.03773 0.44546 0.06133
 O248 O -0.07161 0.47191 0.03161
 O249 O 0.04009 0.44825 0.06233
 O250 O 0.07285 0.47394 0.02978
 O251 O 0.03803 0.55546 -0.06617
 O252 O 0.07178 0.52930 -0.03603
 O253 O 0.00167 0.58766 0.04921
 O254 O 0.00001 0.58644 -0.05590
 O255 O 0.00051 0.41661 -0.05547
 O256 O 0.00207 0.41763 0.05465
 O257 O -0.02355 0.46167 -0.00050
 O258 O -0.02450 0.54136 -0.00130
 O259 O 0.02357 0.46227 -0.00155
 O260 O -0.02500 0.50219 0.04602
 O261 O -0.07197 0.53061 0.03086
 O262 O -0.03838 0.55882 0.05902
 O263 O 0.02649 0.50250 0.04515
 O264 O 0.02521 0.50167 -0.04922
 O265 O 0.02393 0.54153 -0.00241
 O266 O -0.02633 0.50135 -0.04782
 Zr267 Zr 0.00051 0.54004 0.04326
 Zr268 Zr -0.00047 0.46398 -0.04739
 Zr269 Zr -0.04798 0.50107 -0.00038
 Zr270 Zr 0.00080 0.46482 0.04523
 Zr271 Zr -0.00076 0.53916 -0.04689
 Zr272 Zr 0.04801 0.50171 -0.00249
 H273 H 0.03479 0.44338 -0.00152
 H274 H -0.03730 0.50236 0.06695
 H275 H 0.03512 0.56046 -0.00290
 H276 H -0.03927 0.50128 -0.06810
 H277 H -0.00516 0.59606 0.02672
 H278 H 0.00327 0.59583 -0.03272
 H279 H 0.00061 0.40808 0.03123
 H280 H -0.00053 0.40755 -0.03174
 C281 C 0.25358 0.75574 0.13528
 C282 C 0.24840 0.75350 0.36463
 C283 C 0.18640 0.80315 0.19685
 C284 C 0.18668 0.70218 0.19471
 C285 C 0.18460 0.80195 0.30038
 C286 C 0.31394 0.79907 0.30764
 C287 C 0.31419 0.70339 0.30617
 C288 C 0.31589 0.80147 0.19686
 C289 C 0.18502 0.70087 0.30059
 C290 C 0.31587 0.70492 0.19525
 O291 O 0.21015 0.80863 0.30881
 O292 O 0.17729 0.78058 0.27920
 O293 O 0.21060 0.69492 0.30957
 O294 O 0.17767 0.72191 0.27882
 O295 O 0.29033 0.69873 0.18639
 O296 O 0.32312 0.72453 0.21866
 O297 O 0.24912 0.72710 0.34970
 O298 O 0.24793 0.77886 0.34829
 O299 O 0.25260 0.72909 0.14956
 O300 O 0.25276 0.78083 0.15207
 O301 O 0.28815 0.80566 0.31490
 O302 O 0.32197 0.77955 0.28461
 O303 O 0.21222 0.80995 0.18981
 O304 O 0.17844 0.78146 0.21736
 O305 O 0.29029 0.80814 0.18862
 O306 O 0.32309 0.78101 0.21942
 O307 O 0.28839 0.69721 0.31394
 O308 O 0.32206 0.72342 0.28342
 O309 O 0.25212 0.66834 0.19369
 O310 O 0.25048 0.66708 0.30370
 O311 O 0.25084 0.83703 0.30352
 O312 O 0.25157 0.83828 0.19778
 O313 O 0.22583 0.79211 0.24968
 O314 O 0.22657 0.71235 0.24876
 O315 O 0.27425 0.79211 0.25094
 O316 O 0.22540 0.75303 0.20222
 O317 O 0.17865 0.72284 0.21645
 O318 O 0.21251 0.69628 0.18685
 O319 O 0.27687 0.75317 0.20326
 O320 O 0.27534 0.75210 0.29759
 O321 O 0.27377 0.71284 0.24988
 O322 O 0.22382 0.75189 0.29599
 Zr323 Zr 0.25106 0.71552 0.20318
 Zr324 Zr 0.24941 0.78967 0.29533
 Zr325 Zr 0.20227 0.75187 0.24856
 Zr326 Zr 0.25100 0.79080 0.20520
 Zr327 Zr 0.24963 0.71447 0.29560
 Zr328 Zr 0.29829 0.75224 0.25091
 H329 H 0.28541 0.81105 0.25165
 H330 H 0.21319 0.75331 0.18124
 H331 H 0.28491 0.69389 0.24988
 H332 H 0.21079 0.75174 0.31620
 H333 H 0.25062 0.65875 0.21710
 H334 H 0.24955 0.65806 0.27996
 H335 H 0.25342 0.84712 0.22148
 H336 H 0.24567 0.84629 0.28079
 C337 C 0.50140 0.50592 0.11489
 C338 C 0.49600 0.50202 -0.11441
 C339 C 0.56508 0.55274 0.04953
 C340 C 0.56490 0.45218 0.05246
 C341 C 0.56316 0.55084 -0.05472
 C342 C 0.43371 0.54840 -0.05403
 C343 C 0.43390 0.45213 -0.05242
 C344 C 0.43574 0.55013 0.05657
 C345 C 0.56313 0.45052 -0.05375
 C346 C 0.43579 0.45435 0.05858
 O347 O 0.53735 0.55749 -0.06185
 O348 O 0.57120 0.52987 -0.03344
 O349 O 0.53731 0.44431 -0.06136
 O350 O 0.57108 0.47154 -0.03238
 O351 O 0.46159 0.44834 0.06634
 O352 O 0.42780 0.47369 0.03525
 O353 O 0.49699 0.47570 -0.09930
 O354 O 0.49685 0.52748 -0.09837
 O355 O 0.50082 0.47917 0.10081
 O356 O 0.50165 0.53091 0.09778
 O357 O 0.45924 0.55512 -0.06253
 O358 O 0.42651 0.52858 -0.03081
 O359 O 0.53952 0.55947 0.05790
 O360 O 0.57234 0.53115 0.02853
 O361 O 0.46154 0.55687 0.06363
 O362 O 0.42779 0.52986 0.03426
 O363 O 0.45945 0.44594 -0.06129
 O364 O 0.42671 0.47229 -0.02953
 O365 O 0.49955 0.41801 0.05739
 O366 O 0.49789 0.41603 -0.05254
 O367 O 0.49795 0.58600 -0.05489
 O368 O 0.49886 0.58795 0.05011
 O369 O 0.52384 0.54155 -0.00134
 O370 O 0.52326 0.46174 0.00045
 O371 O 0.47540 0.54128 0.00009
 O372 O 0.52592 0.50263 0.04630
 O373 O 0.57220 0.47262 0.02998
 O374 O 0.53935 0.44622 0.06166
 O375 O 0.47446 0.50265 0.04812
 O376 O 0.47283 0.50102 -0.04618
 O377 O 0.47607 0.46200 0.00177
 O378 O 0.52426 0.50107 -0.04741
 Zr379 Zr 0.50026 0.46510 0.04725
 Zr380 Zr 0.49863 0.53876 -0.04561
 Zr381 Zr 0.54742 0.50137 -0.00114
 Zr382 Zr 0.50027 0.54031 0.04447
 Zr383 Zr 0.49869 0.46348 -0.04516
 Zr384 Zr 0.45149 0.50131 0.00159
 H385 H 0.46419 0.56017 0.00009
 H386 H 0.53895 0.50303 0.06647
 H387 H 0.46497 0.44302 0.00254
 H388 H 0.53641 0.50089 -0.06847
 H389 H 0.50027 0.40822 0.03405
 H390 H 0.49987 0.40723 -0.02878
 H391 H 0.50508 0.59629 0.02730
 H392 H 0.49508 0.59551 -0.03169
 C393 C 0.75325 0.75558 0.13504
 C394 C 0.74827 0.75274 0.36437
 C395 C 0.68629 0.80289 0.19656
 C396 C 0.68628 0.70240 0.19416
 C397 C 0.68465 0.80129 0.30094
 C398 C 0.81395 0.79781 0.30788
 C399 C 0.81387 0.70263 0.30601
 C400 C 0.81582 0.80014 0.19649
 C401 C 0.68464 0.70073 0.30051
 C402 C 0.81546 0.70430 0.19452
 O403 O 0.71023 0.80781 0.30940
 O404 O 0.67726 0.78029 0.27930
 O405 O 0.71021 0.69458 0.30940
 O406 O 0.67738 0.72173 0.27865
 O407 O 0.78989 0.69827 0.18566
 O408 O 0.82276 0.72363 0.21823
 O409 O 0.74891 0.72636 0.34937
 O410 O 0.74792 0.77816 0.34812
 O411 O 0.75228 0.72888 0.14922
 O412 O 0.75248 0.78062 0.15195
 O413 O 0.78819 0.80452 0.31517
 O414 O 0.82187 0.77852 0.28449
 O415 O 0.71213 0.80963 0.18948
 O416 O 0.67833 0.78135 0.21727
 O417 O 0.79027 0.80707 0.18836
 O418 O 0.82298 0.77982 0.21918
 O419 O 0.78805 0.69647 0.31373
 O420 O 0.82176 0.72252 0.28313
 O421 O 0.75152 0.66793 0.19328
 O422 O 0.74999 0.66637 0.30311
 O423 O 0.75114 0.83646 0.30282
 O424 O 0.75161 0.83793 0.19823
 O425 O 0.72573 0.79175 0.24966
 O426 O 0.72621 0.71193 0.24843
 O427 O 0.77424 0.79141 0.25083
 O428 O 0.72518 0.75272 0.20208
 O429 O 0.67832 0.72286 0.21619
 O430 O 0.71207 0.69636 0.18627
 O431 O 0.77659 0.75263 0.20308
 O432 O 0.77514 0.75130 0.29732
 O433 O 0.77344 0.71209 0.24950
 O434 O 0.72371 0.75135 0.29575
 Zr435 Zr 0.75071 0.71510 0.20282
 Zr436 Zr 0.74941 0.78903 0.29522
 Zr437 Zr 0.70208 0.75159 0.24842
 Zr438 Zr 0.75085 0.79038 0.20515
 Zr439 Zr 0.74933 0.71378 0.29525
 Zr440 Zr 0.79806 0.75139 0.25068
 H441 H 0.78556 0.81023 0.25161
 H442 H 0.71298 0.75314 0.18110
 H443 H 0.78455 0.69312 0.24942
 H444 H 0.71072 0.75119 0.31600
 H445 H 0.74979 0.65832 0.21666
 H446 H 0.74884 0.65743 0.27935
 H447 H 0.75519 0.84655 0.22173
 H448 H 0.74460 0.84555 0.28056
 C449 C -0.00231 -0.00266 0.38506
 C450 C 0.00179 -0.00570 0.61491
 C451 C -0.06554 0.04955 0.44942
 C452 C -0.06574 -0.05180 0.44966
 C453 C -0.06401 0.04817 0.55504
 C454 C 0.06516 0.04539 0.55505
 C455 C 0.06517 -0.04998 0.55332
 C456 C 0.06359 0.04717 0.44355
 C457 C -0.06428 -0.05279 0.55275
 C458 C 0.06358 -0.04806 0.44200
 O459 O -0.03822 0.05410 0.56297
 O460 O -0.07201 0.02750 0.53329
 O461 O -0.03849 -0.05946 0.55998
 O462 O -0.07220 -0.03114 0.53223
 O463 O 0.03782 -0.05478 0.43474
 O464 O 0.07148 -0.02865 0.46524
 O465 O 0.00122 -0.03072 0.59787
 O466 O 0.00129 0.02103 0.60066
 O467 O -0.00273 -0.02803 0.40140
 O468 O -0.00149 0.02372 0.40007
 O469 O 0.03962 0.05144 0.56406
 O470 O 0.07239 0.02618 0.53121
 O471 O -0.03996 0.05564 0.44048
 O472 O -0.07291 0.02842 0.47106
 O473 O 0.03781 0.05336 0.43581
 O474 O 0.07142 0.02731 0.46644
 O475 O 0.03961 -0.05677 0.56164
 O476 O 0.07241 -0.02987 0.53041
 O477 O 0.00018 -0.08625 0.44514
 O478 O 0.00180 -0.08789 0.55054
 O479 O 0.00156 0.08204 0.55660
 O480 O -0.00005 0.08359 0.44641
 O481 O -0.02401 0.03811 0.50121
 O482 O -0.02469 -0.04160 0.50000
 O483 O 0.02308 0.03785 0.50011
 O484 O -0.02670 -0.00134 0.45375
 O485 O -0.07316 -0.03024 0.47051
 O486 O -0.04016 -0.05854 0.44146
 O487 O 0.02481 -0.00136 0.45217
 O488 O 0.02615 -0.00263 0.54660
 O489 O 0.02369 -0.04144 0.49882
 O490 O -0.02533 -0.00261 0.54755
 Zr491 Zr -0.00102 -0.03902 0.45434
 Zr492 Zr 0.00035 0.03490 0.54691
 Zr493 Zr -0.04830 -0.00145 0.50119
 Zr494 Zr -0.00095 0.03617 0.45429
 Zr495 Zr 0.00030 -0.04028 0.54454
 Zr496 Zr 0.04759 -0.00147 0.49890
 H497 H 0.03426 0.05678 0.50018
 H498 H -0.03975 -0.00124 0.43359
 H499 H 0.03496 -0.06029 0.49821
 H500 H -0.03767 -0.00295 0.56843
 H501 H 0.00288 -0.09573 0.46840
 H502 H -0.00476 -0.09634 0.52795
 H503 H -0.00110 0.09253 0.47018
 H504 H 0.00014 0.09172 0.53323
 C505 C 0.24767 0.24610 0.86532
 C506 C 0.25308 0.24445 0.63593
 C507 C 0.18434 0.19725 0.80061
 C508 C 0.18458 0.29868 0.80122
 C509 C 0.18609 0.19690 0.69722
 C510 C 0.31555 0.19940 0.69748
 C511 C 0.31552 0.29538 0.69631
 C512 C 0.31367 0.20037 0.80811
 C513 C 0.18633 0.29773 0.69566
 C514 C 0.31369 0.29652 0.80728
 O515 O 0.21191 0.19032 0.68995
 O516 O 0.17813 0.21835 0.71798
 O517 O 0.21216 0.30375 0.68784
 O518 O 0.17829 0.27695 0.71729
 O519 O 0.28787 0.30264 0.81495
 O520 O 0.32160 0.27655 0.78455
 O521 O 0.25218 0.27106 0.65030
 O522 O 0.25232 0.21930 0.65272
 O523 O 0.24850 0.27253 0.85046
 O524 O 0.24732 0.22077 0.84896
 O525 O 0.29000 0.19267 0.68911
 O526 O 0.32275 0.21959 0.72026
 O527 O 0.20990 0.19048 0.80882
 O528 O 0.17699 0.21890 0.77980
 O529 O 0.28787 0.19371 0.81535
 O530 O 0.32163 0.22023 0.78533
 O531 O 0.29000 0.30145 0.68730
 O532 O 0.32274 0.27581 0.71980
 O533 O 0.24997 0.33261 0.80475
 O534 O 0.25176 0.33175 0.69461
 O535 O 0.25195 0.16175 0.69953
 O536 O 0.25011 0.16275 0.80507
 O537 O 0.22552 0.20770 0.75035
 O538 O 0.22618 0.28745 0.74959
 O539 O 0.27392 0.20791 0.75164
 O540 O 0.22343 0.24772 0.79676
 O541 O 0.17724 0.27761 0.77954
 O542 O 0.21014 0.30470 0.81021
 O543 O 0.27495 0.24769 0.79856
 O544 O 0.27653 0.24700 0.70418
 O545 O 0.27336 0.28718 0.75081
 O546 O 0.22506 0.24701 0.70299
 Zr547 Zr 0.24918 0.28526 0.79646
 Zr548 Zr 0.25066 0.20932 0.70590
 Zr549 Zr 0.20193 0.24786 0.74930
 Zr550 Zr 0.24909 0.21002 0.79605
 Zr551 Zr 0.25071 0.28455 0.70402
 Zr552 Zr 0.29789 0.24785 0.75190
 H553 H 0.28511 0.18901 0.75214
 H554 H 0.21031 0.24773 0.81689
 H555 H 0.28447 0.30615 0.75088
 H556 H 0.21286 0.24679 0.68201
 H557 H 0.24914 0.34174 0.78104
 H558 H 0.25027 0.34128 0.71804
 H559 H 0.25271 0.15336 0.78175
 H560 H 0.24548 0.15317 0.72212
 C561 C 0.49694 -0.00282 0.38574
 C562 C 0.50069 -0.00542 0.61554
 C563 C 0.56369 -0.05086 0.44607
 C564 C 0.56349 0.04943 0.44665
 C565 C 0.56512 -0.05262 0.55023
 C566 C 0.43568 -0.05031 0.55657
 C567 C 0.43579 0.04566 0.55820
 C568 C 0.43429 -0.04853 0.44598
 C569 C 0.56490 0.04797 0.55295
 C570 C 0.43425 0.04741 0.44725
 O571 O 0.53953 -0.05952 0.55834
 O572 O 0.57247 -0.03090 0.52944
 O573 O 0.53933 0.05389 0.56202
 O574 O 0.57228 0.02754 0.53057
 O575 O 0.45982 0.05361 0.43838
 O576 O 0.42704 0.02734 0.47029
 O577 O 0.50040 0.02128 0.60122
 O578 O 0.50119 -0.03044 0.59852
 O579 O 0.49765 0.02360 0.40068
 O580 O 0.49776 -0.02820 0.40205
 O581 O 0.46146 -0.05705 0.56377
 O582 O 0.42786 -0.02999 0.53424
 O583 O 0.53792 -0.05744 0.43861
 O584 O 0.57159 -0.02996 0.46752
 O585 O 0.45984 -0.05520 0.43758
 O586 O 0.42698 -0.02884 0.46921
 O587 O 0.46154 0.05179 0.56606
 O588 O 0.42791 0.02619 0.53499
 O589 O 0.49820 0.08363 0.44690
 O590 O 0.49961 0.08215 0.55702
 O591 O 0.49960 -0.08769 0.55255
 O592 O 0.49781 -0.08648 0.44745
 O593 O 0.52409 -0.04156 0.49949
 O594 O 0.52341 0.03822 0.50064
 O595 O 0.47570 -0.04141 0.50057
 O596 O 0.52469 -0.00127 0.45310
 O597 O 0.57139 0.02850 0.46822
 O598 O 0.53770 0.05550 0.43881
 O599 O 0.47325 -0.00137 0.45401
 O600 O 0.47449 -0.00260 0.54842
 O601 O 0.47631 0.03786 0.50169
 O602 O 0.52598 -0.00249 0.54693
 Zr603 Zr 0.49905 0.03622 0.45482
 Zr604 Zr 0.50032 -0.04020 0.54520
 Zr605 Zr 0.54764 -0.00133 0.49950
 Zr606 Zr 0.49912 -0.03903 0.45500
 Zr607 Zr 0.50029 0.03499 0.54742
 Zr608 Zr 0.45176 -0.00149 0.50167
 H609 H 0.46448 -0.06031 0.50046
 H610 H 0.53694 -0.00109 0.43213
 H611 H 0.46519 0.05681 0.50225
 H612 H 0.53888 -0.00285 0.56725
 H613 H 0.49988 0.09259 0.47061
 H614 H 0.50054 0.09177 0.53358
 H615 H 0.50470 -0.09546 0.46961
 H616 H 0.49644 -0.09647 0.52903
 C617 C 0.74770 0.24811 0.86543
 C618 C 0.75269 0.24425 0.63608
 C619 C 0.68443 0.19883 0.80212
 C620 C 0.68453 0.29972 0.80129
 C621 C 0.68603 0.19748 0.69785
 C622 C 0.81551 0.20014 0.69775
 C623 C 0.81531 0.29559 0.69525
 C624 C 0.81380 0.20279 0.80916
 C625 C 0.68611 0.29781 0.69511
 C626 C 0.81381 0.29823 0.80675
 O627 O 0.71185 0.19087 0.69057
 O628 O 0.67810 0.21891 0.71867
 O629 O 0.71191 0.30383 0.68714
 O630 O 0.67815 0.27739 0.71724
 O631 O 0.78798 0.30437 0.81450
 O632 O 0.82160 0.27816 0.78405
 O633 O 0.75187 0.27100 0.65014
 O634 O 0.75205 0.21926 0.65320
 O635 O 0.74867 0.27443 0.85031
 O636 O 0.74734 0.22265 0.84936
 O637 O 0.78996 0.19328 0.68954
 O638 O 0.82269 0.22041 0.72049
 O639 O 0.71003 0.19213 0.81033
 O640 O 0.67708 0.22004 0.78070
 O641 O 0.78804 0.19599 0.81645
 O642 O 0.82171 0.22210 0.78578
 O643 O 0.78976 0.30161 0.68632
 O644 O 0.82260 0.27648 0.71920
 O645 O 0.74990 0.33421 0.80364
 O646 O 0.75151 0.33218 0.69376
 O647 O 0.75206 0.16214 0.70132
 O648 O 0.75039 0.16421 0.80586
 O649 O 0.72550 0.20858 0.75106
 O650 O 0.72609 0.28839 0.74932
 O651 O 0.77400 0.20897 0.75222
 O652 O 0.72354 0.24915 0.79692
 O653 O 0.67723 0.27862 0.77964
 O654 O 0.71010 0.30597 0.81008
 O655 O 0.77498 0.24922 0.79856
 O656 O 0.77638 0.24757 0.70427
 O657 O 0.77329 0.28828 0.75035
 O658 O 0.72498 0.24746 0.70329
 Zr659 Zr 0.74924 0.28677 0.79615
 Zr660 Zr 0.75061 0.20983 0.70654
 Zr661 Zr 0.70190 0.24872 0.74961
 Zr662 Zr 0.74918 0.21145 0.79663
 Zr663 Zr 0.75053 0.28506 0.70369
 Zr664 Zr 0.79785 0.24900 0.75187
 H665 H 0.78532 0.19016 0.75299
 H666 H 0.71047 0.24931 0.81710
 H667 H 0.78443 0.30725 0.75010
 H668 H 0.71275 0.24703 0.68234
 H669 H 0.74873 0.34305 0.77981
 H670 H 0.74985 0.34190 0.71706
 H671 H 0.75389 0.15478 0.78275
 H672 H 0.74449 0.15395 0.72357
 C673 C -0.00165 0.49745 0.38505
 C674 C 0.00186 0.49411 0.61489
 C675 C -0.06514 0.54962 0.44914
 C676 C -0.06533 0.44828 0.44928
 C677 C -0.06385 0.54799 0.55484
 C678 C 0.06530 0.54528 0.55538
 C679 C 0.06542 0.44981 0.55343
 C680 C 0.06406 0.54739 0.44384
 C681 C -0.06407 0.44710 0.55247
 C682 C 0.06399 0.45211 0.44204
 O683 O -0.03808 0.55393 0.56287
 O684 O -0.07180 0.52736 0.53303
 O685 O -0.03830 0.44044 0.55980
 O686 O -0.07194 0.46874 0.53189
 O687 O 0.03825 0.44539 0.43474
 O688 O 0.07188 0.47145 0.46535
 O689 O 0.00136 0.46911 0.59781
 O690 O 0.00136 0.52085 0.60067
 O691 O -0.00213 0.47207 0.40137
 O692 O -0.00091 0.52383 0.40007
 O693 O 0.03974 0.55129 0.56428
 O694 O 0.07264 0.52612 0.53154
 O695 O -0.03954 0.55572 0.44029
 O696 O -0.07253 0.52847 0.47077
 O697 O 0.03829 0.55355 0.43601
 O698 O 0.07182 0.52746 0.46672
 O699 O 0.03983 0.44301 0.56166
 O700 O 0.07267 0.47000 0.53059
 O701 O 0.00060 0.41383 0.44501
 O702 O 0.00201 0.41197 0.55025
 O703 O 0.00171 0.58190 0.55675
 O704 O 0.00035 0.58369 0.44659
 O705 O -0.02372 0.53809 0.50115
 O706 O -0.02438 0.45837 0.49983
 O707 O 0.02339 0.53783 0.50023
 O708 O -0.02628 0.49872 0.45362
 O709 O -0.07279 0.46981 0.47015
 O710 O -0.03972 0.44155 0.44116
 O711 O 0.02523 0.49872 0.45225
 O712 O 0.02637 0.49728 0.54665
 O713 O 0.02403 0.45856 0.49880
 O714 O -0.02512 0.49726 0.54741
 Zr715 Zr -0.00062 0.46104 0.45428
 Zr716 Zr 0.00053 0.53479 0.54693
 Zr717 Zr -0.04799 0.49852 0.50097
 Zr718 Zr -0.00053 0.53626 0.45431
 Zr719 Zr 0.00054 0.45960 0.54445
 Zr720 Zr 0.04794 0.49853 0.49904
 H721 H 0.03455 0.55677 0.50040
 H722 H -0.03928 0.49884 0.43339
 H723 H 0.03531 0.43972 0.49818
 H724 H -0.03750 0.49690 0.56825
 H725 H 0.00346 0.40432 0.46823
 H726 H -0.00467 0.40360 0.52768
 H727 H -0.00081 0.59257 0.47038
 H728 H 0.00035 0.59163 0.53340
 C729 C 0.24683 0.74759 0.86519
 C730 C 0.25190 0.74433 0.63581
 C731 C 0.18350 0.69835 0.80111
 C732 C 0.18390 0.79996 0.80100
 C733 C 0.18518 0.69734 0.69781
 C734 C 0.31466 0.69948 0.69770
 C735 C 0.31478 0.79555 0.69567
 C736 C 0.31282 0.70157 0.80847
 C737 C 0.18559 0.79812 0.69536
 C738 C 0.31306 0.79747 0.80655
 O739 O 0.21098 0.69066 0.69059
 O740 O 0.17725 0.71895 0.71836
 O741 O 0.21140 0.80404 0.68744
 O742 O 0.17750 0.77750 0.71715
 O743 O 0.28726 0.80369 0.81427
 O744 O 0.32089 0.77734 0.78398
 O745 O 0.25123 0.77104 0.64998
 O746 O 0.25116 0.71930 0.65284
 O747 O 0.24785 0.77393 0.85013
 O748 O 0.24640 0.72216 0.84906
 O749 O 0.28909 0.69276 0.68939
 O750 O 0.32188 0.71983 0.72031
 O751 O 0.20907 0.69158 0.80929
 O752 O 0.17616 0.71992 0.78018
 O753 O 0.28702 0.69498 0.81577
 O754 O 0.32082 0.72116 0.78543
 O755 O 0.28925 0.80163 0.68666
 O756 O 0.32197 0.77610 0.71930
 O757 O 0.24939 0.83374 0.80374
 O758 O 0.25108 0.83200 0.69363
 O759 O 0.25101 0.66207 0.70020
 O760 O 0.24930 0.66385 0.80576
 O761 O 0.22466 0.70846 0.75065
 O762 O 0.22545 0.78819 0.74918
 O763 O 0.27306 0.70855 0.75187
 O764 O 0.22266 0.74882 0.79674
 O765 O 0.17654 0.77877 0.77943
 O766 O 0.20949 0.80597 0.80990
 O767 O 0.27418 0.74869 0.79839
 O768 O 0.27572 0.74730 0.70399
 O769 O 0.27262 0.78782 0.75031
 O770 O 0.22422 0.74741 0.70302
 Zr771 Zr 0.24848 0.78632 0.79603
 Zr772 Zr 0.24979 0.70969 0.70615
 Zr773 Zr 0.20111 0.74866 0.74937
 Zr774 Zr 0.24825 0.71106 0.79628
 Zr775 Zr 0.24995 0.78489 0.70360
 Zr776 Zr 0.29709 0.74845 0.75169
 H777 H 0.28423 0.68964 0.75256
 H778 H 0.20954 0.74899 0.81687
 H779 H 0.28378 0.80677 0.75018
 H780 H 0.21198 0.74707 0.68208
 H781 H 0.24844 0.84266 0.77994
 H782 H 0.24970 0.84174 0.71696
 H783 H 0.25181 0.65429 0.78252
 H784 H 0.24460 0.65366 0.72290
 C785 C 0.49620 0.49793 0.38556
 C786 C 0.50120 0.49413 0.61488
 C787 C 0.56324 0.44908 0.44550
 C788 C 0.56326 0.54955 0.44618
 C789 C 0.56497 0.44735 0.54986
 C790 C 0.43560 0.44986 0.55653
 C791 C 0.43566 0.54578 0.55822
 C792 C 0.43378 0.45161 0.44588
 C793 C 0.56480 0.54786 0.55239
 C794 C 0.43404 0.54782 0.44719
 O795 O 0.53938 0.44061 0.55820
 O796 O 0.57227 0.46890 0.52877
 O797 O 0.53925 0.55381 0.56150
 O798 O 0.57216 0.52743 0.53000
 O799 O 0.45962 0.55401 0.43838
 O800 O 0.42678 0.52768 0.47014
 O801 O 0.50063 0.52088 0.60073
 O802 O 0.50147 0.46914 0.59783
 O803 O 0.49717 0.52426 0.40060
 O804 O 0.49703 0.47247 0.40167
 O805 O 0.46139 0.44315 0.56366
 O806 O 0.42770 0.47012 0.53414
 O807 O 0.53743 0.44244 0.43831
 O808 O 0.57124 0.47009 0.46675
 O809 O 0.45932 0.44491 0.43746
 O810 O 0.42654 0.47141 0.46904
 O811 O 0.46146 0.55181 0.56605
 O812 O 0.42773 0.52637 0.53495
 O813 O 0.49806 0.58396 0.44723
 O814 O 0.49952 0.58203 0.55718
 O815 O 0.49869 0.41208 0.55022
 O816 O 0.49796 0.41397 0.44535
 O817 O 0.52383 0.45846 0.49880
 O818 O 0.52328 0.53827 0.50037
 O819 O 0.47537 0.45874 0.50010
 O820 O 0.52436 0.49892 0.45260
 O821 O 0.57117 0.52853 0.46762
 O822 O 0.53745 0.55572 0.43850
 O823 O 0.47292 0.49895 0.45374
 O824 O 0.47435 0.49737 0.54805
 O825 O 0.47608 0.53801 0.50156
 O826 O 0.52582 0.49743 0.54629
 Zr827 Zr 0.49881 0.53650 0.45470
 Zr828 Zr 0.50016 0.45973 0.54454
 Zr829 Zr 0.54744 0.49865 0.49891
 Zr830 Zr 0.49871 0.46122 0.45445
 Zr831 Zr 0.50016 0.53494 0.54712
 Zr832 Zr 0.45147 0.49869 0.50145
 H833 H 0.46413 0.43985 0.50013
 H834 H 0.53655 0.49910 0.43157
 H835 H 0.46500 0.55698 0.50224
 H836 H 0.53880 0.49705 0.56652
 H837 H 0.50002 0.59276 0.47098
 H838 H 0.50024 0.59182 0.53382
 H839 H 0.49489 0.40449 0.46855
 H840 H 0.50510 0.40375 0.52750
 C841 C 0.74754 0.74790 0.86460
 C842 C 0.75268 0.74400 0.63527
 C843 C 0.68418 0.69893 0.80090
 C844 C 0.68453 0.79982 0.80038
 C845 C 0.68583 0.69747 0.69699
 C846 C 0.81530 0.69971 0.69697
 C847 C 0.81536 0.79510 0.69454
 C848 C 0.81350 0.70229 0.80835
 C849 C 0.68621 0.79771 0.69421
 C850 C 0.81372 0.79748 0.80598
 O851 O 0.71162 0.69075 0.68975
 O852 O 0.67795 0.71895 0.71777
 O853 O 0.71201 0.80367 0.68628
 O854 O 0.67817 0.77734 0.71632
 O855 O 0.78793 0.80375 0.81367
 O856 O 0.82152 0.77747 0.78326
 O857 O 0.75193 0.77076 0.64932
 O858 O 0.75193 0.71901 0.65236
 O859 O 0.74852 0.77422 0.84946
 O860 O 0.74712 0.72245 0.84852
 O861 O 0.78973 0.69290 0.68872
 O862 O 0.82251 0.71994 0.71972
 O863 O 0.70973 0.69211 0.80909
 O864 O 0.67684 0.72023 0.77964
 O865 O 0.78771 0.69561 0.81562
 O866 O 0.82147 0.72156 0.78496
 O867 O 0.78984 0.80121 0.68558
 O868 O 0.82258 0.77596 0.71847
 O869 O 0.75005 0.83396 0.80275
 O870 O 0.75170 0.83192 0.69285
 O871 O 0.75170 0.66190 0.70042
 O872 O 0.74999 0.66404 0.80518
 O873 O 0.72530 0.70847 0.75018
 O874 O 0.72608 0.78828 0.74842
 O875 O 0.77377 0.70860 0.75139
 O876 O 0.72338 0.74901 0.79606
 O877 O 0.67721 0.77874 0.77869
 O878 O 0.71011 0.80594 0.80924
 O879 O 0.77481 0.74891 0.79771
 O880 O 0.77629 0.74723 0.70343
 O881 O 0.77328 0.78794 0.74953
 O882 O 0.72491 0.74730 0.70240
 Zr883 Zr 0.74915 0.78652 0.79528
 Zr884 Zr 0.75043 0.70958 0.70569
 Zr885 Zr 0.70182 0.74870 0.74870
 Zr886 Zr 0.74895 0.71125 0.79576
 Zr887 Zr 0.75056 0.78481 0.70285
 Zr888 Zr 0.79770 0.74855 0.75104
 H889 H 0.78502 0.68975 0.75217
 H890 H 0.71030 0.74922 0.81622
 H891 H 0.78447 0.80686 0.74931
 H892 H 0.71270 0.74691 0.68144
 H893 H 0.74889 0.84279 0.77891
 H894 H 0.75007 0.84167 0.71613
 H895 H 0.75329 0.65452 0.78207
 H896 H 0.74430 0.65372 0.72276
 C897 C 0.00526 0.00884 0.15165
 C898 C 0.00140 -0.01366 0.17678
 C899 C 0.00159 -0.00577 0.21456
 N900 N -0.00354 -0.02736 0.23909
 N901 N -0.00379 -0.02023 0.27307
 C902 C 0.00102 0.00876 0.28398
 N903 N 0.00618 0.03035 0.25945
 N904 N 0.00642 0.02321 0.22546
 C905 C 0.00099 0.01657 0.32181
 C906 C -0.00360 -0.00601 0.34668
 H907 H -0.00263 -0.03686 0.16880
 H908 H 0.00525 0.03965 0.33000
 H909 H 0.00873 0.03190 0.16059
 H910 H -0.00737 -0.02892 0.33742
 C911 C 0.25536 0.25850 0.09762
 C912 C 0.25144 0.23581 0.07287
 C913 C 0.25168 0.24351 0.03516
 N914 N 0.24624 0.22189 0.01087
 N915 N 0.24595 0.22893 -0.02311
 C916 C 0.25101 0.25782 -0.03420
 N917 N 0.25649 0.27944 -0.00991
 N918 N 0.25678 0.27240 0.02409
 C919 C 0.25096 0.26547 -0.07194
 C920 C 0.24627 0.24275 -0.09646
 H921 H 0.24719 0.21272 0.08110
 H922 H 0.25536 0.28848 -0.08037
 H923 H 0.25903 0.28149 0.08851
 H924 H 0.24240 0.21988 -0.08707
 C925 C 0.08911 0.06641 0.06926
 C926 C 0.08387 0.08960 0.09326
 C927 C 0.10643 0.10754 0.10940
 N928 N 0.09990 0.13031 0.13188
 N929 N 0.12000 0.14705 0.14649
 C930 C 0.14741 0.14163 0.13913
 N931 N 0.15396 0.11882 0.11667
 N932 N 0.13384 0.10208 0.10204
 C933 C 0.16983 0.15992 0.15512
 C934 C 0.16405 0.18366 0.17819
 H935 H 0.06245 0.09529 0.10008
 H936 H 0.19136 0.15439 0.14871
 H937 H 0.11052 0.06078 0.06234
 H938 H 0.14248 0.18909 0.18454
 C939 C 0.33844 0.31713 0.18094
 C940 C 0.33319 0.34133 0.15829
 C941 C 0.35576 0.35996 0.14325
 N942 N 0.34928 0.38355 0.12188
 N943 N 0.36942 0.40084 0.10817
 C944 C 0.39680 0.39519 0.11539
 N945 N 0.40329 0.37160 0.13679
 N946 N 0.38314 0.35430 0.15052
 C947 C 0.41926 0.41373 0.09988
 C948 C 0.41354 0.43752 0.07684
 H949 H 0.31178 0.34733 0.15184
 H950 H 0.44077 0.40787 0.10592
 H951 H 0.35983 0.31122 0.18754
 H952 H 0.39200 0.44317 0.07070
 C953 C 0.33811 0.18676 0.17914
 C954 C 0.33279 0.16305 0.15584
 C955 C 0.35530 0.14451 0.14048
 N956 N 0.34874 0.12113 0.11884
 N957 N 0.36881 0.10393 0.10490
 C958 C 0.39622 0.10945 0.11212
 N959 N 0.40279 0.13284 0.13376
 N960 N 0.38271 0.15004 0.14772
 C961 C 0.41867 0.09097 0.09649
 C962 C 0.41303 0.06693 0.07376
 H963 H 0.31136 0.15733 0.14914
 H964 H 0.44018 0.09696 0.10241
 H965 H 0.35953 0.19230 0.18608
 H966 H 0.39149 0.06103 0.06784
 C967 C 0.16388 0.32083 0.18031
 C968 C 0.16952 0.34501 0.15771
 C969 C 0.14702 0.36323 0.14170
 N970 N 0.15350 0.38612 0.11923
 N971 N 0.13334 0.40273 0.10449
 C972 C 0.10592 0.39709 0.11173
 N973 N 0.09946 0.37426 0.13425
 N974 N 0.11961 0.35764 0.14896
 C975 C 0.08330 0.41489 0.09542
 C976 C 0.08846 0.43789 0.07104
 H977 H 0.19103 0.35083 0.15150
 H978 H 0.06189 0.40924 0.10237
 H979 H 0.14233 0.31503 0.18635
 H980 H 0.10986 0.44339 0.06391
 C981 C 0.33573 0.18513 0.32484
 C982 C 0.33026 0.16105 0.34776
 C983 C 0.35281 0.14248 0.36343
 N984 N 0.34629 0.11908 0.38520
 N985 N 0.36639 0.10190 0.39925
 C986 C 0.39383 0.10744 0.39200
 N987 N 0.40034 0.13083 0.37024
 N988 N 0.38024 0.14800 0.35621
 C989 C 0.41647 0.08885 0.40740
 C990 C 0.41139 0.06483 0.43055
 H991 H 0.30876 0.15515 0.35393
 H992 H 0.43787 0.09468 0.40065
 H993 H 0.35726 0.19087 0.31862
 H994 H 0.38999 0.05914 0.43749
 C995 C 0.16149 0.31972 0.31573
 C996 C 0.16695 0.34423 0.33767
 C997 C 0.14439 0.36245 0.35291
 N998 N 0.15073 0.38569 0.37477
 N999 N 0.13044 0.40222 0.38920
 C1000 C 0.10310 0.39612 0.38221
 N1001 N 0.09676 0.37296 0.36021
 N1002 N 0.11705 0.35641 0.34579
 C1003 C 0.08058 0.41356 0.39875
 C1004 C 0.08628 0.43628 0.42305
 H1005 H 0.18837 0.35027 0.34402
 H1006 H 0.05909 0.40767 0.39254
 H1007 H 0.14006 0.31376 0.30930
 H1008 H 0.10780 0.44201 0.42930
 C1009 C 0.16141 0.18227 0.31639
 C1010 C 0.16660 0.15846 0.33974
 C1011 C 0.14402 0.14002 0.35546
 N1012 N 0.15055 0.11724 0.37803
 N1013 N 0.13047 0.10040 0.39267
 C1014 C 0.10304 0.10567 0.38528
 N1015 N 0.09651 0.12843 0.36267
 N1016 N 0.11660 0.14528 0.34802
 C1017 C 0.08053 0.08754 0.40165
 C1018 C 0.08602 0.06427 0.42559
 H1019 H 0.18799 0.15303 0.34686
 H1020 H 0.05904 0.09308 0.39511
 H1021 H 0.14002 0.18765 0.30917
 H1022 H 0.10753 0.05882 0.43214
 C1023 C 0.33558 0.31478 0.32674
 C1024 C 0.32988 0.33889 0.34918
 C1025 C 0.35242 0.35730 0.36431
 N1026 N 0.34610 0.38124 0.38518
 N1027 N 0.36641 0.39848 0.39849
 C1028 C 0.39372 0.39241 0.39128
 N1029 N 0.40003 0.36847 0.37043
 N1030 N 0.37974 0.35123 0.35714
 C1031 C 0.41636 0.41088 0.40604
 C1032 C 0.41105 0.43499 0.42863
 H1033 H 0.30839 0.34518 0.35484
 H1034 H 0.43775 0.40468 0.39974
 H1035 H 0.35711 0.30867 0.32105
 H1036 H 0.38965 0.44102 0.43513
 C1037 C 0.50171 0.00878 0.15241
 C1038 C 0.49850 -0.01388 0.17748
 C1039 C 0.49855 -0.00596 0.21525
 N1040 N 0.49439 -0.02771 0.23987
 N1041 N 0.49426 -0.02055 0.27384
 C1042 C 0.49825 0.00861 0.28465
 N1043 N 0.50242 0.03037 0.26003
 N1044 N 0.50254 0.02321 0.22605
 C1045 C 0.49853 0.01646 0.32245
 C1046 C 0.49504 -0.00625 0.34742
 H1047 H 0.49541 -0.03724 0.16949
 H1048 H 0.50223 0.03968 0.33053
 H1049 H 0.50435 0.03195 0.16142
 H1050 H 0.49176 -0.02928 0.33827
 C1051 C 0.75587 0.25910 0.09758
 C1052 C 0.75183 0.23662 0.07264
 C1053 C 0.75224 0.24459 0.03503
 N1054 N 0.74611 0.22335 0.01057
 N1055 N 0.74586 0.23068 -0.02332
 C1056 C 0.75167 0.25949 -0.03416
 N1057 N 0.75787 0.28072 -0.00969
 N1058 N 0.75810 0.27340 0.02422
 C1059 C 0.75167 0.26738 -0.07183
 C1060 C 0.74598 0.24497 -0.09637
 H1061 H 0.74726 0.21354 0.08065
 H1062 H 0.75697 0.29019 -0.08018
 H1063 H 0.75975 0.28212 0.08869
 H1064 H 0.74123 0.22228 -0.08701
 C1065 C 0.58758 0.07081 0.06527
 C1066 C 0.58248 0.09428 0.08895
 C1067 C 0.60527 0.11179 0.10529
 N1068 N 0.59907 0.13413 0.12849
 N1069 N 0.61943 0.15011 0.14370
 C1070 C 0.64677 0.14433 0.13625
 N1071 N 0.65297 0.12201 0.11301
 N1072 N 0.63261 0.10602 0.09780
 C1073 C 0.66948 0.16170 0.15301
 C1074 C 0.66405 0.18459 0.17732
 H1075 H 0.56111 0.09997 0.09600
 H1076 H 0.69092 0.15620 0.14613
 H1077 H 0.60896 0.06512 0.05830
 H1078 H 0.64256 0.18997 0.18412
 C1079 C 0.83869 0.31662 0.17969
 C1080 C 0.83353 0.33988 0.15573
 C1081 C 0.85619 0.35770 0.13952
 N1082 N 0.84980 0.38043 0.11688
 N1083 N 0.87000 0.39703 0.10220
 C1084 C 0.89737 0.39152 0.10963
 N1085 N 0.90378 0.36876 0.13224
 N1086 N 0.88357 0.35215 0.14695
 C1087 C 0.91990 0.40969 0.09358
 C1088 C 0.91423 0.43330 0.07025
 H1089 H 0.81214 0.34565 0.14892
 H1090 H 0.94139 0.40421 0.10017
 H1091 H 0.86008 0.31088 0.18653
 H1092 H 0.89269 0.43865 0.06370
 C1093 C 0.91443 0.07054 0.06861
 C1094 C 0.91992 0.09460 0.09139
 C1095 C 0.89732 0.11276 0.10733
 N1096 N 0.90368 0.13560 0.12984
 N1097 N 0.88345 0.15219 0.14449
 C1098 C 0.85607 0.14657 0.13712
 N1099 N 0.84972 0.12377 0.11456
 N1100 N 0.86994 0.10718 0.09994
 C1101 C 0.83337 0.16437 0.15334
 C1102 C 0.83847 0.18736 0.17769
 H1103 H 0.94139 0.10040 0.09776
 H1104 H 0.81199 0.15872 0.14635
 H1105 H 0.89292 0.06478 0.06238
 H1106 H 0.85986 0.19284 0.18485
 C1107 C 0.66398 0.32029 0.18032
 C1108 C 0.66945 0.34384 0.15682
 C1109 C 0.64677 0.36145 0.14036
 N1110 N 0.65301 0.38385 0.11716
 N1111 N 0.63267 0.39995 0.10208
 C1112 C 0.60533 0.39425 0.10967
 N1113 N 0.59910 0.37188 0.13289
 N1114 N 0.61943 0.35578 0.14795
 C1115 C 0.58257 0.41177 0.09331
 C1116 C 0.58767 0.43470 0.06887
 H1117 H 0.69090 0.34954 0.15016
 H1118 H 0.56121 0.40634 0.10071
 H1119 H 0.64248 0.31458 0.18675
 H1120 H 0.60903 0.44001 0.06138
 C1121 C 0.83632 0.18559 0.32469
 C1122 C 0.83082 0.16229 0.34862
 C1123 C 0.85336 0.14423 0.36498
 N1124 N 0.84684 0.12143 0.38755
 N1125 N 0.86695 0.10465 0.40218
 C1126 C 0.89437 0.11004 0.39476
 N1127 N 0.90089 0.13286 0.37223
 N1128 N 0.88079 0.14964 0.35760
 C1129 C 0.91696 0.09166 0.41047
 C1130 C 0.91175 0.06780 0.43375
 H1131 H 0.80933 0.15666 0.35515
 H1132 H 0.93837 0.09716 0.40339
 H1133 H 0.85784 0.19110 0.31816
 H1134 H 0.89034 0.06236 0.44090
 C1135 C 0.66188 0.31841 0.31746
 C1136 C 0.66707 0.34173 0.34115
 C1137 C 0.64429 0.35901 0.35741
 N1138 N 0.65037 0.38155 0.38033
 N1139 N 0.62991 0.39740 0.39540
 C1140 C 0.60263 0.39126 0.38807
 N1141 N 0.59653 0.36872 0.36512
 N1142 N 0.61701 0.35286 0.35005
 C1143 C 0.57993 0.40850 0.40464
 C1144 C 0.58551 0.43175 0.42830
 H1145 H 0.68843 0.34755 0.34811
 H1146 H 0.55848 0.40268 0.39815
 H1147 H 0.64050 0.31267 0.31050
 H1148 H 0.60701 0.43748 0.43463
 C1149 C 0.66193 0.18253 0.31713
 C1150 C 0.66699 0.15942 0.34145
 C1151 C 0.64430 0.14158 0.35789
 N1152 N 0.65069 0.11943 0.38133
 N1153 N 0.63052 0.10310 0.39655
 C1154 C 0.60312 0.10829 0.38890
 N1155 N 0.59672 0.13045 0.36545
 N1156 N 0.61690 0.14679 0.35022
 C1157 C 0.58051 0.09046 0.40556
 C1158 C 0.58591 0.06736 0.42976
 H1159 H 0.68836 0.15417 0.34889
 H1160 H 0.55905 0.09572 0.39854
 H1161 H 0.64056 0.18776 0.30969
 H1162 H 0.60740 0.06212 0.43665
 C1163 C 0.83625 0.31349 0.32737
 C1164 C 0.83066 0.33639 0.35148
 C1165 C 0.85330 0.35380 0.36789
 N1166 N 0.84709 0.37715 0.38968
 N1167 N 0.86748 0.39365 0.40396
 C1168 C 0.89479 0.38738 0.39692
 N1169 N 0.90099 0.36395 0.37527
 N1170 N 0.88061 0.34746 0.36097
 C1171 C 0.91746 0.40555 0.41206
 C1172 C 0.91207 0.43022 0.43380
 H1173 H 0.80920 0.34248 0.35759
 H1174 H 0.93887 0.39933 0.40585
 H1175 H 0.85775 0.30761 0.32121
 H1176 H 0.89065 0.43633 0.44005
 C1177 C 0.00417 0.50904 0.15166
 C1178 C 0.00125 0.48641 0.17683
 C1179 C 0.00152 0.49434 0.21458
 N1180 N -0.00263 0.47259 0.23921
 N1181 N -0.00278 0.47976 0.27317
 C1182 C 0.00117 0.50892 0.28398
 N1183 N 0.00535 0.53068 0.25935
 N1184 N 0.00549 0.52351 0.22537
 C1185 C 0.00117 0.51677 0.32179
 C1186 C -0.00270 0.49406 0.34668
 H1187 H -0.00198 0.46305 0.16891
 H1188 H 0.00474 0.54001 0.32993
 H1189 H 0.00692 0.53222 0.16057
 H1190 H -0.00588 0.47104 0.33743
 C1191 C 0.25584 0.75954 0.09720
 C1192 C 0.25167 0.73695 0.07243
 C1193 C 0.25192 0.74472 0.03477
 N1194 N 0.24570 0.72335 0.01050
 N1195 N 0.24531 0.73051 -0.02344
 C1196 C 0.25107 0.75926 -0.03449
 N1197 N 0.25736 0.78062 -0.01022
 N1198 N 0.25773 0.77347 0.02374
 C1199 C 0.25093 0.76697 -0.07220
 C1200 C 0.24521 0.74446 -0.09661
 H1201 H 0.24710 0.71391 0.08062
 H1202 H 0.25616 0.78976 -0.08069
 H1203 H 0.25972 0.78251 0.08815
 H1204 H 0.24053 0.72179 -0.08716
 C1205 C 0.08821 0.56710 0.06949
 C1206 C 0.08314 0.59053 0.09328
 C1207 C 0.10589 0.60841 0.10930
 N1208 N 0.09959 0.63133 0.13171
 N1209 N 0.11985 0.64795 0.14620
 C1210 C 0.14722 0.64230 0.13880
 N1211 N 0.15354 0.61936 0.11640
 N1212 N 0.13327 0.60273 0.10190
 C1213 C 0.16986 0.66048 0.15468
 C1214 C 0.16437 0.68427 0.17782
 H1215 H 0.06176 0.59639 0.10006
 H1216 H 0.19133 0.65481 0.14814
 H1217 H 0.10960 0.56132 0.06264
 H1218 H 0.14285 0.68980 0.18432
 C1219 C 0.41507 0.93772 0.07257
 C1220 C 0.42024 0.91462 0.09706
 C1221 C 0.39756 0.89619 0.11273
 N1222 N 0.40392 0.87335 0.13531
 N1223 N 0.38375 0.85623 0.14936
 C1224 C 0.35640 0.86127 0.14133
 N1225 N 0.35003 0.88413 0.11879
 N1226 N 0.37020 0.90124 0.10472
 C1227 C 0.33370 0.84275 0.15678
 C1228 C 0.33876 0.81883 0.18005
 H1229 H 0.44157 0.90916 0.10451
 H1230 H 0.31232 0.84847 0.14990
 H1231 H 0.39349 0.94267 0.06567
 H1232 H 0.36014 0.81311 0.18692
 C1233 C 0.33860 0.68792 0.17814
 C1234 C 0.33326 0.66403 0.15511
 C1235 C 0.35577 0.64540 0.13997
 N1236 N 0.34922 0.62177 0.11872
 N1237 N 0.36930 0.60444 0.10503
 C1238 C 0.39671 0.61008 0.11216
 N1239 N 0.40327 0.63373 0.13342
 N1240 N 0.38317 0.65106 0.14712
 C1241 C 0.41914 0.59145 0.09680
 C1242 C 0.41344 0.56719 0.07444
 H1243 H 0.31183 0.65819 0.14858
 H1244 H 0.44066 0.59753 0.10256
 H1245 H 0.36003 0.69358 0.18492
 H1246 H 0.39190 0.56121 0.06868
 C1247 C 0.08886 0.93772 0.07083
 C1248 C 0.08359 0.91498 0.09544
 C1249 C 0.10618 0.89725 0.11179
 N1250 N 0.09972 0.87454 0.13446
 N1251 N 0.11988 0.85798 0.14919
 C1252 C 0.14727 0.86352 0.14178
 N1253 N 0.15374 0.88628 0.11917
 N1254 N 0.13357 0.90284 0.10441
 C1255 C 0.16976 0.84536 0.15776
 C1256 C 0.16410 0.82124 0.18040
 H1257 H 0.06218 0.90946 0.10251
 H1258 H 0.19126 0.85115 0.15147
 H1259 H 0.11027 0.94308 0.06359
 H1260 H 0.14256 0.81543 0.18650
 C1261 C 0.33659 0.68596 0.32381
 C1262 C 0.33100 0.66202 0.34691
 C1263 C 0.35340 0.64333 0.36273
 N1264 N 0.34665 0.62011 0.38465
 N1265 N 0.36658 0.60280 0.39887
 C1266 C 0.39406 0.60803 0.39166
 N1267 N 0.40080 0.63125 0.36975
 N1268 N 0.38088 0.64855 0.35554
 C1269 C 0.41653 0.58930 0.40722
 C1270 C 0.41126 0.56538 0.43047
 H1271 H 0.30948 0.65633 0.35317
 H1272 H 0.43798 0.59492 0.40048
 H1273 H 0.35813 0.69155 0.31749
 H1274 H 0.38983 0.55984 0.43740
 C1275 C 0.16191 0.81983 0.31595
 C1276 C 0.16721 0.84430 0.33802
 C1277 C 0.14450 0.86234 0.35331
 N1278 N 0.15068 0.88567 0.37514
 N1279 N 0.13028 0.90207 0.38953
 C1280 C 0.10298 0.89575 0.38257
 N1281 N 0.09679 0.87250 0.36062
 N1282 N 0.11720 0.85608 0.34623
 C1283 C 0.08033 0.91312 0.39903
 C1284 C 0.08590 0.93606 0.42310
 H1285 H 0.18859 0.85048 0.34439
 H1286 H 0.05888 0.90704 0.39290
 H1287 H 0.14051 0.81376 0.30951
 H1288 H 0.10740 0.94196 0.42925
 C1289 C 0.16227 0.68257 0.31639
 C1290 C 0.16741 0.65883 0.33988
 C1291 C 0.14480 0.64039 0.35572
 N1292 N 0.15131 0.61766 0.37838
 N1293 N 0.13122 0.60083 0.39309
 C1294 C 0.10379 0.60606 0.38567
 N1295 N 0.09727 0.62877 0.36297
 N1296 N 0.11736 0.64560 0.34826
 C1297 C 0.08121 0.58791 0.40206
 C1298 C 0.08658 0.56458 0.42602
 H1299 H 0.18881 0.65344 0.34704
 H1300 H 0.05974 0.59347 0.39543
 H1301 H 0.14087 0.68790 0.30915
 H1302 H 0.10807 0.55911 0.43265
 C1303 C 0.33614 0.81543 0.32612
 C1304 C 0.33042 0.83937 0.34877
 C1305 C 0.35297 0.85769 0.36394
 N1306 N 0.34668 0.88152 0.38498
 N1307 N 0.36701 0.89869 0.39832
 C1308 C 0.39431 0.89265 0.39097
 N1309 N 0.40059 0.86882 0.36994
 N1310 N 0.38027 0.85166 0.35662
 C1311 C 0.41695 0.91102 0.40579
 C1312 C 0.41160 0.93496 0.42858
 H1313 H 0.30893 0.84559 0.35455
 H1314 H 0.43834 0.90488 0.39942
 H1315 H 0.35767 0.80939 0.32031
 H1316 H 0.39019 0.94093 0.43511
 C1317 C 0.50252 0.50999 0.15306
 C1318 C 0.49875 0.48738 0.17801
 C1319 C 0.49877 0.49526 0.21567
 N1320 N 0.49351 0.47368 0.24013
 N1321 N 0.49325 0.48082 0.27407
 C1322 C 0.49820 0.50977 0.28497
 N1323 N 0.50347 0.53136 0.26051
 N1324 N 0.50371 0.52422 0.22655
 C1325 C 0.49842 0.51748 0.32271
 C1326 C 0.49388 0.49479 0.34738
 H1327 H 0.49506 0.46414 0.16997
 H1328 H 0.50311 0.54044 0.33100
 H1329 H 0.50561 0.53312 0.16200
 H1330 H 0.48968 0.47198 0.33809
 C1331 C 0.75542 0.75954 0.09693
 C1332 C 0.75156 0.73699 0.07201
 C1333 C 0.75190 0.74487 0.03435
 N1334 N 0.74614 0.72346 0.00995
 N1335 N 0.74589 0.73067 -0.02398
 C1336 C 0.75132 0.75952 -0.03492
 N1337 N 0.75715 0.78094 -0.01051
 N1338 N 0.75738 0.77373 0.02345
 C1339 C 0.75131 0.76731 -0.07265
 C1340 C 0.74594 0.74477 -0.09717
 H1341 H 0.74726 0.71386 0.08007
 H1342 H 0.75629 0.79019 -0.08104
 H1343 H 0.75908 0.78258 0.08799
 H1344 H 0.74148 0.72203 -0.08775
 C1345 C 0.58788 0.57065 0.06523
 C1346 C 0.58275 0.59421 0.08876
 C1347 C 0.60547 0.61184 0.10499
 N1348 N 0.59919 0.63425 0.12808
 N1349 N 0.61949 0.65034 0.14323
 C1350 C 0.64684 0.64462 0.13584
 N1351 N 0.65313 0.62224 0.11270
 N1352 N 0.63282 0.60613 0.09755
 C1353 C 0.66947 0.66210 0.15255
 C1354 C 0.66395 0.68500 0.17680
 H1355 H 0.56138 0.59989 0.09580
 H1356 H 0.69093 0.65664 0.14573
 H1357 H 0.60926 0.56496 0.05823
 H1358 H 0.64244 0.69035 0.18356
 C1359 C 0.91462 0.93374 0.07035
 C1360 C 0.92019 0.90999 0.09353
 C1361 C 0.89760 0.89187 0.10951
 N1362 N 0.90394 0.86896 0.13197
 N1363 N 0.88367 0.85238 0.14660
 C1364 C 0.85631 0.85808 0.13925
 N1365 N 0.84999 0.88096 0.11677
 N1366 N 0.87024 0.89754 0.10216
 C1367 C 0.83360 0.84028 0.15538
 C1368 C 0.83869 0.81689 0.17921
 H1369 H 0.94167 0.90435 0.10003
 H1370 H 0.81222 0.84616 0.14864
 H1371 H 0.89310 0.93926 0.06389
 H1372 H 0.86007 0.81106 0.18600
 C1373 C 0.91344 0.57014 0.06814
 C1374 C 0.91900 0.59427 0.09078
 C1375 C 0.89650 0.61257 0.10665
 N1376 N 0.90302 0.63545 0.12904
 N1377 N 0.88289 0.65219 0.14366
 C1378 C 0.85548 0.64669 0.13637
 N1379 N 0.84897 0.62385 0.11393
 N1380 N 0.86909 0.60711 0.09934
 C1381 C 0.83291 0.66464 0.15258
 C1382 C 0.83819 0.68761 0.17689
 H1383 H 0.94049 0.60005 0.09709
 H1384 H 0.81149 0.65910 0.14567
 H1385 H 0.89192 0.56436 0.06195
 H1386 H 0.85961 0.69299 0.18399
 C1387 C 0.58753 0.93468 0.06746
 C1388 C 0.58244 0.91172 0.09188
 C1389 C 0.60521 0.89428 0.10841
 N1390 N 0.59898 0.87198 0.13173
 N1391 N 0.61929 0.85598 0.14697
 C1392 C 0.64665 0.86168 0.13947
 N1393 N 0.65290 0.88399 0.11616
 N1394 N 0.63257 0.90000 0.10090
 C1395 C 0.66934 0.84417 0.15611
 C1396 C 0.66391 0.82072 0.17979
 H1397 H 0.56108 0.90625 0.09923
 H1398 H 0.69079 0.84984 0.14942
 H1399 H 0.60890 0.94005 0.06007
 H1400 H 0.64241 0.81504 0.18626
 C1401 C 0.83632 0.68550 0.32392
 C1402 C 0.83092 0.66214 0.34784
 C1403 C 0.85351 0.64411 0.36424
 N1404 N 0.84703 0.62132 0.38687
 N1405 N 0.86716 0.60459 0.40157
 C1406 C 0.89459 0.61001 0.39417
 N1407 N 0.90106 0.63281 0.37157
 N1408 N 0.88094 0.64953 0.35688
 C1409 C 0.91724 0.59168 0.40998
 C1410 C 0.91211 0.56785 0.43337
 H1411 H 0.80944 0.65648 0.35440
 H1412 H 0.93864 0.59721 0.40289
 H1413 H 0.85782 0.69105 0.31737
 H1414 H 0.89071 0.56238 0.44053
 C1415 C 0.66200 0.81875 0.31721
 C1416 C 0.66730 0.84198 0.34100
 C1417 C 0.64459 0.85928 0.35739
 N1418 N 0.65077 0.88169 0.38046
 N1419 N 0.63037 0.89755 0.39565
 C1420 C 0.60307 0.89155 0.38831
 N1421 N 0.59688 0.86915 0.36522
 N1422 N 0.61729 0.85328 0.35002
 C1423 C 0.58042 0.90878 0.40499
 C1424 C 0.58602 0.93188 0.42884
 H1425 H 0.68868 0.84769 0.34795
 H1426 H 0.55897 0.90306 0.39842
 H1427 H 0.64060 0.81311 0.31027
 H1428 H 0.60751 0.93753 0.43530
 C1429 C 0.66181 0.68281 0.31663
 C1430 C 0.66683 0.65963 0.34089
 C1431 C 0.64412 0.64179 0.35736
 N1432 N 0.65052 0.61957 0.38071
 N1433 N 0.63035 0.60324 0.39595
 C1434 C 0.60294 0.60850 0.38843
 N1435 N 0.59653 0.63073 0.36506
 N1436 N 0.61671 0.64707 0.34981
 C1437 C 0.58031 0.59067 0.40512
 C1438 C 0.58569 0.56747 0.42922
 H1439 H 0.68820 0.65432 0.34826
 H1440 H 0.55885 0.59602 0.39821
 H1441 H 0.64044 0.68811 0.30923
 H1442 H 0.60719 0.56215 0.43601
 C1443 C 0.83624 0.81357 0.32695
 C1444 C 0.83058 0.83632 0.35122
 C1445 C 0.85314 0.85372 0.36780
 N1446 N 0.84684 0.87694 0.38974
 N1447 N 0.86716 0.89345 0.40417
 C1448 C 0.89449 0.88730 0.39715
 N1449 N 0.90080 0.86399 0.37535
 N1450 N 0.88048 0.84751 0.36090
 C1451 C 0.91710 0.90548 0.41242
 C1452 C 0.91166 0.93009 0.43424
 H1453 H 0.80910 0.84230 0.35738
 H1454 H 0.93852 0.89935 0.40617
 H1455 H 0.85775 0.80777 0.32076
 H1456 H 0.89022 0.93614 0.44052
 C1457 C -0.00094 0.00645 0.84844
 C1458 C -0.00003 -0.01680 0.82365
 C1459 C 0.00012 -0.00915 0.78572
 N1460 N 0.00208 -0.03132 0.76120
 N1461 N 0.00236 -0.02433 0.72714
 C1462 C 0.00070 0.00506 0.71617
 N1463 N -0.00129 0.02721 0.74068
 N1464 N -0.00155 0.02023 0.77470
 C1465 C 0.00080 0.01292 0.67836
 C1466 C 0.00283 -0.00983 0.65323
 H1467 H 0.00089 -0.04035 0.83179
 H1468 H -0.00114 0.03642 0.67036
 H1469 H -0.00158 0.02955 0.83849
 H1470 H 0.00461 -0.03312 0.66220
 C1471 C 0.24580 0.25629 0.40338
 C1472 C 0.25060 0.23364 0.42801
 C1473 C 0.25065 0.24131 0.46578
 N1474 N 0.25615 0.21971 0.49013
 N1475 N 0.25645 0.22675 0.52412
 C1476 C 0.25134 0.25563 0.53515
 N1477 N 0.24587 0.27723 0.51080
 N1478 N 0.24557 0.27019 0.47682
 C1479 C 0.25114 0.26335 0.57289
 C1480 C 0.25512 0.24071 0.59775
 H1481 H 0.25508 0.21065 0.41966
 H1482 H 0.24692 0.28645 0.58105
 H1483 H 0.24183 0.27914 0.41270
 H1484 H 0.25875 0.21772 0.58869
 C1485 C 0.08796 0.06190 0.57264
 C1486 C 0.08280 0.08476 0.59708
 C1487 C 0.10549 0.10256 0.61314
 N1488 N 0.09916 0.12541 0.63562
 N1489 N 0.11941 0.14206 0.65004
 C1490 C 0.14676 0.13647 0.64251
 N1491 N 0.15310 0.11356 0.62009
 N1492 N 0.13284 0.09693 0.60564
 C1493 C 0.16934 0.15470 0.65820
 C1494 C 0.16377 0.17887 0.68074
 H1495 H 0.06142 0.09035 0.60416
 H1496 H 0.19082 0.14888 0.65188
 H1497 H 0.10935 0.05649 0.56539
 H1498 H 0.14225 0.18466 0.68690
 C1499 C 0.33828 0.31246 0.67922
 C1500 C 0.33297 0.33625 0.65599
 C1501 C 0.35549 0.35485 0.64071
 N1502 N 0.34896 0.37834 0.61919
 N1503 N 0.36905 0.39562 0.60534
 C1504 C 0.39646 0.39007 0.61255
 N1505 N 0.40300 0.36656 0.63407
 N1506 N 0.38290 0.34928 0.64794
 C1507 C 0.41891 0.40864 0.59702
 C1508 C 0.41326 0.43280 0.57444
 H1509 H 0.31154 0.34199 0.64933
 H1510 H 0.44042 0.40264 0.60290
 H1511 H 0.35969 0.30689 0.68613
 H1512 H 0.39173 0.43872 0.56858
 C1513 C 0.33832 0.18238 0.68054
 C1514 C 0.33303 0.15835 0.65772
 C1515 C 0.35559 0.13983 0.64260
 N1516 N 0.34913 0.11634 0.62111
 N1517 N 0.36928 0.09912 0.60739
 C1518 C 0.39665 0.10474 0.61473
 N1519 N 0.40313 0.12823 0.63625
 N1520 N 0.38296 0.14545 0.64998
 C1521 C 0.41913 0.08627 0.59928
 C1522 C 0.41347 0.06251 0.57622
 H1523 H 0.31162 0.15240 0.65122
 H1524 H 0.44062 0.09212 0.60545
 H1525 H 0.35973 0.18824 0.68717
 H1526 H 0.39194 0.05684 0.56996
 C1527 C 0.16405 0.31566 0.67884
 C1528 C 0.16964 0.33954 0.65580
 C1529 C 0.14706 0.35775 0.63996
 N1530 N 0.15343 0.38076 0.61763
 N1531 N 0.13319 0.39742 0.60314
 C1532 C 0.10582 0.39170 0.61051
 N1533 N 0.09946 0.36871 0.63286
 N1534 N 0.11969 0.35206 0.64733
 C1535 C 0.08312 0.40958 0.59450
 C1536 C 0.08825 0.43304 0.57074
 H1537 H 0.19113 0.34524 0.64932
 H1538 H 0.06173 0.40368 0.60125
 H1539 H 0.14253 0.31010 0.68529
 H1540 H 0.10964 0.43886 0.56392
 C1541 C 0.41299 0.06483 0.92946
 C1542 C 0.41776 0.08803 0.90514
 C1543 C 0.39487 0.10628 0.89047
 N1544 N 0.40088 0.12966 0.86856
 N1545 N 0.38045 0.14677 0.85539
 C1546 C 0.35324 0.14115 0.86369
 N1547 N 0.34720 0.11774 0.88558
 N1548 N 0.36766 0.10064 0.89880
 C1549 C 0.33051 0.15955 0.84879
 C1550 C 0.33599 0.18371 0.82620
 H1551 H 0.43894 0.09387 0.89728
 H1552 H 0.30907 0.15336 0.85492
 H1553 H 0.39156 0.05948 0.93678
 H1554 H 0.35749 0.18979 0.82021
 C1555 C 0.08663 0.43620 0.92422
 C1556 C 0.08116 0.41269 0.90059
 C1557 C 0.10367 0.39439 0.88452
 N1558 N 0.09709 0.37140 0.86227
 N1559 N 0.11714 0.35436 0.84791
 C1560 C 0.14458 0.35966 0.85529
 N1561 N 0.15115 0.38267 0.87749
 N1562 N 0.13110 0.39970 0.89185
 C1563 C 0.16712 0.34102 0.83984
 C1564 C 0.16187 0.31701 0.81682
 H1565 H 0.05968 0.40704 0.89413
 H1566 H 0.18853 0.34650 0.84683
 H1567 H 0.10814 0.44174 0.93071
 H1568 H 0.14046 0.31160 0.80971
 C1569 C 0.08494 0.06319 0.92339
 C1570 C 0.07966 0.08571 0.89846
 C1571 C 0.10247 0.10301 0.88212
 N1572 N 0.09643 0.12598 0.85968
 N1573 N 0.11691 0.14242 0.84541
 C1574 C 0.14415 0.13646 0.85311
 N1575 N 0.15020 0.11340 0.87541
 N1576 N 0.12972 0.09698 0.88970
 C1577 C 0.16692 0.15460 0.83799
 C1578 C 0.16166 0.17912 0.81592
 H1579 H 0.05834 0.09168 0.89145
 H1580 H 0.18829 0.14856 0.84459
 H1581 H 0.10652 0.05768 0.92970
 H1582 H 0.14027 0.18512 0.80937
 C1583 C 0.41106 0.43457 0.93099
 C1584 C 0.41624 0.41060 0.90785
 C1585 C 0.39372 0.39187 0.89242
 N1586 N 0.40038 0.36859 0.87062
 N1587 N 0.38040 0.35130 0.85652
 C1588 C 0.35294 0.35659 0.86371
 N1589 N 0.34626 0.37986 0.88552
 N1590 N 0.36625 0.39716 0.89964
 C1591 C 0.33050 0.33790 0.84796
 C1592 C 0.33606 0.31393 0.82497
 H1593 H 0.43767 0.40493 0.90110
 H1594 H 0.30897 0.34364 0.85415
 H1595 H 0.38965 0.44013 0.93795
 H1596 H 0.35760 0.30833 0.81873
 C1597 C 0.49674 0.00735 0.84909
 C1598 C 0.49699 -0.01593 0.82432
 C1599 C 0.49708 -0.00838 0.78636
 N1600 N 0.49889 -0.03065 0.76193
 N1601 N 0.49932 -0.02377 0.72785
 C1602 C 0.49798 0.00561 0.71676
 N1603 N 0.49608 0.02785 0.74117
 N1604 N 0.49566 0.02098 0.77523
 C1605 C 0.49849 0.01335 0.67891
 C1606 C 0.50086 -0.00947 0.65390
 H1607 H 0.49766 -0.03949 0.83250
 H1608 H 0.49680 0.03685 0.67079
 H1609 H 0.49634 0.03046 0.83914
 H1610 H 0.50243 -0.03274 0.66299
 C1611 C 0.74714 0.25594 0.40328
 C1612 C 0.75099 0.23308 0.42794
 C1613 C 0.75103 0.24075 0.46574
 N1614 N 0.75535 0.21891 0.49020
 N1615 N 0.75556 0.22595 0.52420
 C1616 C 0.75152 0.25505 0.53514
 N1617 N 0.74723 0.27688 0.51069
 N1618 N 0.74701 0.26985 0.47671
 C1619 C 0.75131 0.26285 0.57287
 C1620 C 0.75440 0.24017 0.59790
 H1621 H 0.75456 0.20990 0.41963
 H1622 H 0.74797 0.28616 0.58088
 H1623 H 0.74398 0.27892 0.41264
 H1624 H 0.75728 0.21701 0.58898
 C1625 C 0.58760 0.06549 0.56941
 C1626 C 0.58241 0.08835 0.59384
 C1627 C 0.60513 0.10586 0.61026
 N1628 N 0.59886 0.12814 0.63352
 N1629 N 0.61917 0.14424 0.64864
 C1630 C 0.64651 0.13865 0.64105
 N1631 N 0.65279 0.11636 0.61780
 N1632 N 0.63247 0.10026 0.60267
 C1633 C 0.66916 0.15625 0.65754
 C1634 C 0.66367 0.17967 0.68114
 H1635 H 0.56104 0.09370 0.60119
 H1636 H 0.69062 0.15065 0.65084
 H1637 H 0.60899 0.06025 0.56200
 H1638 H 0.64217 0.18527 0.68764
 C1639 C 0.83805 0.31202 0.67741
 C1640 C 0.83280 0.33470 0.65276
 C1641 C 0.85543 0.35249 0.63652
 N1642 N 0.84905 0.37525 0.61392
 N1643 N 0.86927 0.39192 0.59939
 C1644 C 0.89663 0.38643 0.60693
 N1645 N 0.90301 0.36360 0.62944
 N1646 N 0.88279 0.34694 0.64401
 C1647 C 0.91916 0.40472 0.59121
 C1648 C 0.91357 0.42892 0.56870
 H1649 H 0.81140 0.34019 0.64569
 H1650 H 0.94064 0.39896 0.59758
 H1651 H 0.85945 0.30671 0.68464
 H1652 H 0.89206 0.43468 0.56250
 C1653 C 0.91372 0.06608 0.57189
 C1654 C 0.91938 0.08979 0.59506
 C1655 C 0.89689 0.10804 0.61098
 N1656 N 0.90335 0.13090 0.63342
 N1657 N 0.88318 0.14761 0.64799
 C1658 C 0.85579 0.14208 0.64061
 N1659 N 0.84934 0.11925 0.61816
 N1660 N 0.86950 0.10254 0.60361
 C1661 C 0.83317 0.16000 0.65668
 C1662 C 0.83835 0.18336 0.68050
 H1663 H 0.94088 0.09534 0.60158
 H1664 H 0.81177 0.15423 0.64990
 H1665 H 0.89219 0.06066 0.56539
 H1666 H 0.85975 0.18910 0.68734
 C1667 C 0.66377 0.31520 0.67771
 C1668 C 0.66928 0.33810 0.65337
 C1669 C 0.64665 0.35557 0.63661
 N1670 N 0.65296 0.37793 0.61339
 N1671 N 0.63267 0.39402 0.59819
 C1672 C 0.60531 0.38833 0.60566
 N1673 N 0.59901 0.36595 0.62883
 N1674 N 0.61929 0.34987 0.64403
 C1675 C 0.58260 0.40594 0.58934
 C1676 C 0.58774 0.42947 0.56569
 H1677 H 0.69075 0.34357 0.64651
 H1678 H 0.56122 0.40027 0.59640
 H1679 H 0.64227 0.30986 0.68452
 H1680 H 0.60913 0.43516 0.55868
 C1681 C 0.91255 0.07007 0.93328
 C1682 C 0.91784 0.09496 0.91180
 C1683 C 0.89506 0.11315 0.89697
 N1684 N 0.90113 0.13681 0.87552
 N1685 N 0.88064 0.15329 0.86148
 C1686 C 0.85337 0.14673 0.86845
 N1687 N 0.84730 0.12316 0.89005
 N1688 N 0.86780 0.10666 0.90408
 C1689 C 0.83063 0.16409 0.85223
 C1690 C 0.83614 0.18711 0.82820
 H1691 H 0.93921 0.10132 0.90555
 H1692 H 0.80920 0.15784 0.85834
 H1693 H 0.89115 0.06384 0.93958
 H1694 H 0.85761 0.19314 0.82204
 C1695 C 0.58553 0.43266 0.92933
 C1696 C 0.58012 0.40946 0.90530
 C1697 C 0.60276 0.39173 0.88868
 N1698 N 0.59641 0.36946 0.86539
 N1699 N 0.61664 0.35321 0.85021
 C1700 C 0.64403 0.35862 0.85776
 N1701 N 0.65037 0.38089 0.88104
 N1702 N 0.63015 0.39713 0.89620
 C1703 C 0.66676 0.34087 0.84139
 C1704 C 0.66172 0.31764 0.81728
 H1705 H 0.55866 0.40406 0.89842
 H1706 H 0.68812 0.34626 0.84873
 H1707 H 0.60702 0.43803 0.93608
 H1708 H 0.64035 0.31227 0.80993
 C1709 C 0.58383 0.06819 0.92941
 C1710 C 0.57872 0.09170 0.90562
 C1711 C 0.60169 0.10879 0.88915
 N1712 N 0.59584 0.13137 0.86609
 N1713 N 0.61646 0.14708 0.85102
 C1714 C 0.64369 0.14077 0.85846
 N1715 N 0.64954 0.11820 0.88151
 N1716 N 0.62892 0.10248 0.89658
 C1717 C 0.66666 0.15795 0.84215
 C1718 C 0.66166 0.18132 0.81835
 H1719 H 0.55743 0.09792 0.89875
 H1720 H 0.68798 0.15206 0.84917
 H1721 H 0.60539 0.06253 0.93565
 H1722 H 0.64031 0.18713 0.81138
 C1723 C 0.91408 0.43343 0.93293
 C1724 C 0.91867 0.40974 0.90893
 C1725 C 0.89571 0.39144 0.89345
 N1726 N 0.90188 0.36868 0.87068
 N1727 N 0.88158 0.35195 0.85631
 C1728 C 0.85423 0.35728 0.86415
 N1729 N 0.84804 0.38003 0.88695
 N1730 N 0.86835 0.39677 0.90134
 C1731 C 0.83137 0.33916 0.84812
 C1732 C 0.83642 0.31556 0.82435
 H1733 H 0.93988 0.40412 0.90105
 H1734 H 0.80997 0.34490 0.85490
 H1735 H 0.89266 0.43850 0.94045
 H1736 H 0.85786 0.30994 0.81763
 C1737 C -0.00120 0.50629 0.84845
 C1738 C -0.00020 0.48304 0.82367
 C1739 C 0.00001 0.49067 0.78573
 N1740 N 0.00196 0.46849 0.76122
 N1741 N 0.00228 0.47546 0.72716
 C1742 C 0.00067 0.50486 0.71617
 N1743 N -0.00132 0.52702 0.74067
 N1744 N -0.00162 0.52005 0.77470
 C1745 C 0.00081 0.51270 0.67835
 C1746 C 0.00281 0.48995 0.65322
 H1747 H 0.00072 0.45949 0.83183
 H1748 H -0.00106 0.53621 0.67036
 H1749 H -0.00186 0.52939 0.83849
 H1750 H 0.00452 0.46666 0.66218
 C1751 C 0.24744 0.75682 0.40296
 C1752 C 0.25089 0.73387 0.42759
 C1753 C 0.25089 0.74143 0.46542
 N1754 N 0.25464 0.71942 0.48982
 N1755 N 0.25478 0.72635 0.52386
 C1756 C 0.25122 0.75550 0.53488
 N1757 N 0.24752 0.77750 0.51048
 N1758 N 0.24738 0.77058 0.47647
 C1759 C 0.25096 0.76318 0.57265
 C1760 C 0.25352 0.74035 0.59760
 H1761 H 0.25406 0.71063 0.41923
 H1762 H 0.24806 0.78653 0.58075
 H1763 H 0.24460 0.77985 0.41235
 H1764 H 0.25600 0.71716 0.58859
 C1765 C 0.08799 0.56179 0.57316
 C1766 C 0.08263 0.58455 0.59765
 C1767 C 0.10516 0.60244 0.61384
 N1768 N 0.09864 0.62526 0.63627
 N1769 N 0.11877 0.64203 0.65078
 C1770 C 0.14616 0.63659 0.64337
 N1771 N 0.15269 0.61371 0.62101
 N1772 N 0.13256 0.59695 0.60647
 C1773 C 0.16860 0.65495 0.65909
 C1774 C 0.16289 0.67918 0.68148
 H1775 H 0.06120 0.59002 0.60463
 H1776 H 0.19011 0.64920 0.65285
 H1777 H 0.10942 0.55649 0.56600
 H1778 H 0.14135 0.68493 0.68758
 C1779 C 0.41327 0.93258 0.57426
 C1780 C 0.41879 0.90830 0.59672
 C1781 C 0.39622 0.88978 0.61207
 N1782 N 0.40261 0.86619 0.63353
 N1783 N 0.38239 0.84899 0.64728
 C1784 C 0.35503 0.85472 0.63999
 N1785 N 0.34865 0.87830 0.61852
 N1786 N 0.36885 0.89550 0.60479
 C1787 C 0.33239 0.83624 0.65520
 C1788 C 0.33758 0.81245 0.67847
 H1789 H 0.44026 0.90219 0.60264
 H1790 H 0.31099 0.84210 0.64853
 H1791 H 0.39177 0.93860 0.56836
 H1792 H 0.35897 0.80679 0.68539
 C1793 C 0.33749 0.68232 0.68090
 C1794 C 0.33235 0.65812 0.65823
 C1795 C 0.35502 0.63968 0.64304
 N1796 N 0.34866 0.61611 0.62159
 N1797 N 0.36888 0.59903 0.60776
 C1798 C 0.39625 0.60485 0.61492
 N1799 N 0.40263 0.62842 0.63640
 N1800 N 0.38240 0.64551 0.65024
 C1801 C 0.41884 0.58649 0.59935
 C1802 C 0.41331 0.56263 0.57634
 H1803 H 0.31095 0.65202 0.65180
 H1804 H 0.44032 0.59249 0.60543
 H1805 H 0.35888 0.68831 0.68746
 H1806 H 0.39179 0.55686 0.57016
 C1807 C 0.08797 0.93332 0.57063
 C1808 C 0.08276 0.91000 0.59449
 C1809 C 0.10540 0.89209 0.61041
 N1810 N 0.09901 0.86917 0.63281
 N1811 N 0.11922 0.85246 0.64718
 C1812 C 0.14659 0.85804 0.63966
 N1813 N 0.15299 0.88100 0.61729
 N1814 N 0.13276 0.89772 0.60290
 C1815 C 0.16909 0.83979 0.65542
 C1816 C 0.16338 0.81600 0.67848
 H1817 H 0.06136 0.90420 0.60133
 H1818 H 0.19060 0.84540 0.64891
 H1819 H 0.10937 0.93906 0.56373
 H1820 H 0.14184 0.81053 0.68495
 C1821 C 0.41093 0.56502 0.92879
 C1822 C 0.41614 0.58919 0.90617
 C1823 C 0.39345 0.60760 0.89142
 N1824 N 0.39968 0.63158 0.87052
 N1825 N 0.37935 0.64875 0.85724
 C1826 C 0.35204 0.64259 0.86446
 N1827 N 0.34579 0.61861 0.88538
 N1828 N 0.36614 0.60143 0.89868
 C1829 C 0.32944 0.66095 0.84934
 C1830 C 0.33507 0.68511 0.82686
 H1831 H 0.43752 0.59547 0.89982
 H1832 H 0.30796 0.65460 0.85505
 H1833 H 0.38954 0.55892 0.93534
 H1834 H 0.35659 0.69126 0.82109
 C1835 C 0.08495 0.93677 0.92555
 C1836 C 0.07982 0.91371 0.90095
 C1837 C 0.10250 0.89545 0.88490
 N1838 N 0.09606 0.87290 0.86197
 N1839 N 0.11616 0.85592 0.84757
 C1840 C 0.14355 0.86082 0.85556
 N1841 N 0.14999 0.88339 0.87844
 N1842 N 0.12989 0.90036 0.89285
 C1843 C 0.16620 0.84220 0.84003
 C1844 C 0.16113 0.81839 0.81660
 H1845 H 0.05848 0.90824 0.89355
 H1846 H 0.18758 0.84750 0.84739
 H1847 H 0.10652 0.94179 0.93236
 H1848 H 0.13975 0.81310 0.80924
 C1849 C 0.08423 0.56385 0.92389
 C1850 C 0.07893 0.58643 0.89900
 C1851 C 0.10170 0.60392 0.88281
 N1852 N 0.09561 0.62687 0.86035
 N1853 N 0.11605 0.64344 0.84616
 C1854 C 0.14331 0.63764 0.85394
 N1855 N 0.14941 0.61460 0.87627
 N1856 N 0.12897 0.59806 0.89048
 C1857 C 0.16606 0.65585 0.83882
 C1858 C 0.16081 0.68028 0.81659
 H1859 H 0.05760 0.59227 0.89190
 H1860 H 0.18743 0.64987 0.84547
 H1861 H 0.10582 0.55849 0.93032
 H1862 H 0.13941 0.68624 0.81000
 C1863 C 0.41121 0.93591 0.92856
 C1864 C 0.41632 0.91192 0.90545
 C1865 C 0.39369 0.89320 0.89022
 N1866 N 0.40020 0.86975 0.86860
 N1867 N 0.38011 0.85243 0.85478
 C1868 C 0.35268 0.85787 0.86209
 N1869 N 0.34617 0.88132 0.88372
 N1870 N 0.36627 0.89864 0.89755
 C1871 C 0.33012 0.83915 0.84669
 C1872 C 0.33553 0.81495 0.82397
 H1873 H 0.43773 0.90617 0.89869
 H1874 H 0.30863 0.84503 0.85291
 H1875 H 0.38980 0.94150 0.93554
 H1876 H 0.35703 0.80920 0.81771
 C1877 C 0.49361 0.50515 0.84740
 C1878 C 0.49825 0.48250 0.82276
 C1879 C 0.49801 0.49022 0.78500
 N1880 N 0.50331 0.46866 0.76057
 N1881 N 0.50354 0.47582 0.72659
 C1882 C 0.49856 0.50477 0.71567
 N1883 N 0.49328 0.52632 0.74010
 N1884 N 0.49303 0.51917 0.77406
 C1885 C 0.49853 0.51266 0.67799
 C1886 C 0.50227 0.49007 0.65307
 H1887 H 0.50302 0.45956 0.83108
 H1888 H 0.49487 0.53591 0.66991
 H1889 H 0.48933 0.52794 0.83807
 H1890 H 0.50533 0.46694 0.66205
 C1891 C 0.74720 0.75600 0.40266
 C1892 C 0.75106 0.73309 0.42724
 C1893 C 0.75114 0.74070 0.46503
 N1894 N 0.75544 0.71883 0.48945
 N1895 N 0.75566 0.72583 0.52345
 C1896 C 0.75167 0.75494 0.53443
 N1897 N 0.74741 0.77680 0.51001
 N1898 N 0.74718 0.76980 0.47603
 C1899 C 0.75146 0.76269 0.57214
 C1900 C 0.75443 0.73995 0.59710
 H1901 H 0.75462 0.70992 0.41887
 H1902 H 0.74818 0.78599 0.58020
 H1903 H 0.74405 0.77897 0.41207
 H1904 H 0.75723 0.71679 0.58816
 C1905 C 0.58751 0.56537 0.56881
 C1906 C 0.58229 0.58825 0.59319
 C1907 C 0.60498 0.60579 0.60958
 N1908 N 0.59870 0.62811 0.63277
 N1909 N 0.61899 0.64423 0.64786
 C1910 C 0.64634 0.63862 0.64032
 N1911 N 0.65263 0.61628 0.61714
 N1912 N 0.63233 0.60016 0.60203
 C1913 C 0.66896 0.65623 0.65679
 C1914 C 0.66345 0.67970 0.68030
 H1915 H 0.56091 0.59362 0.60051
 H1916 H 0.69042 0.65059 0.65014
 H1917 H 0.60889 0.56012 0.56141
 H1918 H 0.64195 0.68535 0.68675
 C1919 C 0.91342 0.92900 0.56899
 C1920 C 0.91911 0.90469 0.59128
 C1921 C 0.89662 0.88628 0.60684
 N1922 N 0.90304 0.86334 0.62919
 N1923 N 0.88283 0.84656 0.64360
 C1924 C 0.85547 0.85209 0.63609
 N1925 N 0.84907 0.87496 0.61366
 N1926 N 0.86927 0.89175 0.59929
 C1927 C 0.83287 0.83422 0.65218
 C1928 C 0.83813 0.81150 0.67676
 H1929 H 0.94060 0.89891 0.59755
 H1930 H 0.81147 0.83971 0.64510
 H1931 H 0.89190 0.93477 0.56290
 H1932 H 0.85952 0.80617 0.68402
 C1933 C 0.91384 0.56584 0.57162
 C1934 C 0.91943 0.58955 0.59479
 C1935 C 0.89687 0.60774 0.61060
 N1936 N 0.90323 0.63063 0.63303
 N1937 N 0.88299 0.64730 0.64749
 C1938 C 0.85563 0.64169 0.63998
 N1939 N 0.84928 0.61884 0.61753
 N1940 N 0.86952 0.60218 0.60309
 C1941 C 0.83296 0.65958 0.65594
 C1942 C 0.83812 0.68292 0.67976
 H1943 H 0.94091 0.59513 0.60140
 H1944 H 0.81157 0.65379 0.64911
 H1945 H 0.89233 0.56038 0.56505
 H1946 H 0.85951 0.68866 0.68664
 C1947 C 0.58786 0.92947 0.56591
 C1948 C 0.58267 0.90573 0.58920
 C1949 C 0.60541 0.88812 0.60531
 N1950 N 0.59919 0.86558 0.62828
 N1951 N 0.61953 0.84952 0.64332
 C1952 C 0.64687 0.85540 0.63593
 N1953 N 0.65310 0.87792 0.61291
 N1954 N 0.63274 0.89400 0.59786
 C1955 C 0.66951 0.83798 0.65257
 C1956 C 0.66394 0.81507 0.67682
 H1957 H 0.56130 0.89992 0.59613
 H1958 H 0.69097 0.84348 0.64575
 H1959 H 0.60925 0.93528 0.55906
 H1960 H 0.64243 0.80972 0.68359
 C1961 C 0.91178 0.56951 0.93295
 C1962 C 0.91710 0.59441 0.91150
 C1963 C 0.89439 0.61258 0.89655
 N1964 N 0.90053 0.63623 0.87512
 N1965 N 0.88010 0.65272 0.86097
 C1966 C 0.85281 0.64618 0.86781
 N1967 N 0.84666 0.62262 0.88938
 N1968 N 0.86710 0.60611 0.90352
 C1969 C 0.83015 0.66357 0.85147
 C1970 C 0.83576 0.68655 0.82743
 H1971 H 0.93849 0.60081 0.90537
 H1972 H 0.80869 0.65739 0.85752
 H1973 H 0.89037 0.56321 0.93913
 H1974 H 0.85726 0.69251 0.82131
 C1975 C 0.58576 0.93372 0.92795
 C1976 C 0.58038 0.91051 0.90390
 C1977 C 0.60299 0.89261 0.88736
 N1978 N 0.59656 0.87031 0.86413
 N1979 N 0.61672 0.85388 0.84905
 C1980 C 0.64413 0.85912 0.85665
 N1981 N 0.65055 0.88142 0.87987
 N1982 N 0.63040 0.89784 0.89493
 C1983 C 0.66681 0.84116 0.84038
 C1984 C 0.66174 0.81787 0.81631
 H1985 H 0.55892 0.90517 0.89695
 H1986 H 0.68818 0.84646 0.84775
 H1987 H 0.60725 0.93903 0.93479
 H1988 H 0.64037 0.81259 0.80893
 C1989 C 0.58538 0.56811 0.92794
 C1990 C 0.57971 0.59129 0.90422
 C1991 C 0.60237 0.60845 0.88752
 N1992 N 0.59626 0.63106 0.86464
 N1993 N 0.61673 0.64688 0.84947
 C1994 C 0.64401 0.64063 0.85668
 N1995 N 0.65011 0.61802 0.87953
 N1996 N 0.62965 0.60221 0.89468
 C1997 C 0.66676 0.65791 0.84040
 C1998 C 0.66149 0.68141 0.81698
 H1999 H 0.55825 0.59710 0.89781
 H2000 H 0.68813 0.65200 0.84717
 H2001 H 0.60689 0.56239 0.93422
 H2002 H 0.64010 0.68726 0.81023
 C2003 C 0.91242 0.93262 0.93200
 C2004 C 0.91746 0.90879 0.90865
 C2005 C 0.89475 0.89042 0.89307
 N2006 N 0.90114 0.86753 0.87061
 N2007 N 0.88095 0.85075 0.85614
 C2008 C 0.85355 0.85620 0.86360
 N2009 N 0.84716 0.87907 0.88610
 N2010 N 0.86736 0.89585 0.90057
 C2011 C 0.83090 0.83810 0.84745
 C2012 C 0.83622 0.81462 0.82373
 H2013 H 0.93883 0.90325 0.90148
 H2014 H 0.80944 0.84382 0.85400
 H2015 H 0.89105 0.93807 0.93927
 H2016 H 0.85771 0.80901 0.81719
   
