data_POSCAR
  _audit_creation_date              2014-09-24
  _audit_creation_method            'ToBaCCo'
  _symmetry_space_group_name_H-M    'P1'
  _symmetry_Int_Tables_number       1
  _symmetry_cell_setting            triclinic
  loop_
  _symmetry_equiv_pos_as_xyz
 x,y,z
_cell_length_a 43.7655
_cell_length_b 44.5925
_cell_length_c 53.7181
_cell_angle_alpha 89.961200
_cell_angle_beta 90.197200
_cell_angle_gamma 90.054200
loop_
  _atom_site_label
  _atom_site_type_symbol
  _atom_site_fract_x
  _atom_site_fract_y
  _atom_site_fract_z
Zr1 Zr 0.24290 0.25129 0.29006
 O2 O 0.26555 0.27036 0.32121
 O3 O 0.20899 0.22541 0.30778
 O4 O 0.21583 0.28231 0.31008
 O5 O 0.29839 0.19639 0.28230
 O6 O 0.19667 0.31292 0.27988
 O7 O 0.26860 0.22037 0.31082
 O8 O 0.18092 0.20704 0.27538
 O9 O 0.20495 0.25720 0.26686
 O10 O 0.24121 0.21318 0.26737
 O11 O 0.25140 0.29145 0.27076
 O12 O 0.28547 0.24925 0.27160
 Zr13 Zr 0.25290 0.25762 0.20378
 Zr14 Zr 0.21436 0.29605 0.24636
 Zr15 Zr 0.28219 0.21230 0.24745
 Zr16 Zr 0.20459 0.21995 0.24326
 O17 O 0.33050 0.21029 0.24737
 O18 O 0.15789 0.23157 0.23875
 O19 O 0.24515 0.21676 0.22272
 O20 O 0.21090 0.25903 0.22258
 O21 O 0.25528 0.29584 0.22625
 O22 O 0.29075 0.25130 0.22707
 C23 C 0.18630 0.21052 0.29870
 C24 C 0.29000 0.20199 0.30486
 C25 C 0.20015 0.30521 0.30282
 O26 O 0.16618 0.29755 0.24327
 O27 O 0.20221 0.31598 0.21231
 O28 O 0.22788 0.28941 0.18282
 C29 C 0.20876 0.30979 0.18954
 O30 O 0.31103 0.29996 0.28564
 Zr31 Zr 0.29191 0.28834 0.25051
 O32 O 0.28607 0.28415 0.18594
 O33 O 0.22370 0.34252 0.24879
 O34 O 0.29031 0.33576 0.25332
 O35 O 0.33899 0.27711 0.25123
 O36 O 0.31150 0.30627 0.21813
 C37 C 0.30665 0.30189 0.19480
 O38 O 0.22962 0.23931 0.17262
 O39 O 0.27313 0.16570 0.24828
 O40 O 0.27856 0.22601 0.18391
 O41 O 0.29582 0.19289 0.21311
 O42 O 0.20507 0.17240 0.24421
 O43 O 0.19001 0.20335 0.20807
 C44 C 0.29259 0.20185 0.19035
 H45 H 0.23865 0.19448 0.27709
 H46 H 0.19350 0.26089 0.21087
 H47 H 0.31009 0.24936 0.21770
 H48 H 0.25318 0.30869 0.28226
 H49 H 0.14564 0.21309 0.24115
 H50 H 0.16024 0.31897 0.24399
 H51 H 0.20380 0.35301 0.24751
 H52 H 0.31135 0.34341 0.25080
 H53 H 0.18368 0.16559 0.24637
 H54 H 0.29321 0.15554 0.24943
 H55 H 0.33606 0.18877 0.24688
 H56 H 0.35071 0.29590 0.24877
 H57 H 0.17185 0.19038 0.21029
 H58 H 0.23985 0.24679 0.15734
 H59 H 0.25554 0.26257 0.33648
 H60 H 0.32726 0.31517 0.28330
 Zr61 Zr 0.74975 0.75639 0.29664
 O62 O 0.72881 0.73250 0.32617
 O63 O 0.77889 0.78569 0.31643
 O64 O 0.78050 0.72935 0.31659
 O65 O 0.68814 0.80423 0.28866
 O66 O 0.80363 0.70053 0.28713
 O67 O 0.71938 0.78261 0.31756
 O68 O 0.80353 0.81110 0.28558
 O69 O 0.78925 0.75595 0.27486
 O70 O 0.74769 0.79530 0.27511
 O71 O 0.74719 0.71637 0.27602
 O72 O 0.70802 0.75387 0.27689
 Zr73 Zr 0.74434 0.75324 0.20995
 Zr74 Zr 0.78569 0.71707 0.25304
 Zr75 Zr 0.70777 0.79203 0.25412
 Zr76 Zr 0.78597 0.79397 0.25223
 O77 O 0.65966 0.78788 0.25199
 O78 O 0.83392 0.78725 0.25152
 O79 O 0.74610 0.79341 0.23064
 O80 O 0.78549 0.75535 0.23026
 O81 O 0.74587 0.71389 0.23128
 O82 O 0.70497 0.75372 0.23198
 C83 C 0.79792 0.80558 0.30856
 C84 C 0.69609 0.79860 0.31136
 C85 C 0.79870 0.70820 0.30995
 O86 O 0.83376 0.72141 0.25141
 O87 O 0.80070 0.69941 0.21875
 O88 O 0.77260 0.72406 0.18931
 C89 C 0.79325 0.70503 0.19597
 O90 O 0.68869 0.69907 0.28799
 Zr91 Zr 0.70752 0.71556 0.25421
 O92 O 0.71448 0.72515 0.19001
 O93 O 0.78206 0.66977 0.25419
 O94 O 0.71526 0.66863 0.25498
 O95 O 0.65940 0.72114 0.25396
 O96 O 0.69131 0.69782 0.22042
 C97 C 0.69598 0.70459 0.19747
 O98 O 0.76762 0.77458 0.18027
 O99 O 0.71007 0.83933 0.25698
 O100 O 0.71753 0.78467 0.19001
 O101 O 0.69427 0.81202 0.22037
 O102 O 0.77970 0.84112 0.25211
 O103 O 0.80141 0.81264 0.21808
 C104 C 0.70053 0.80653 0.19740
 H105 H 0.74708 0.81383 0.28523
 H106 H 0.80343 0.75578 0.21910
 H107 H 0.68596 0.75419 0.22193
 H108 H 0.74708 0.69860 0.28706
 H109 H 0.84375 0.80682 0.25507
 H110 H 0.84218 0.70080 0.25193
 H111 H 0.80314 0.66174 0.25332
 H112 H 0.69555 0.65861 0.25119
 H113 H 0.79995 0.85053 0.25490
 H114 H 0.68874 0.84670 0.25761
 H115 H 0.65131 0.80852 0.25165
 H116 H 0.65016 0.70135 0.25019
 H117 H 0.81936 0.82563 0.22126
 H118 H 0.75879 0.76691 0.16444
 H119 H 0.73687 0.74072 0.34207
 H120 H 0.67477 0.68210 0.28434
 Zr121 Zr 0.75483 0.24287 -0.29647
 O122 O 0.73260 0.26559 -0.32609
 O123 O 0.78646 0.21645 -0.31605
 O124 O 0.78353 0.27302 -0.31557
 O125 O 0.69635 0.19102 -0.29004
 O126 O 0.80663 0.29989 -0.28469
 O127 O 0.72674 0.21494 -0.31819
 O128 O 0.81347 0.19347 -0.28514
 O129 O 0.79379 0.24465 -0.27386
 O130 O 0.75460 0.20332 -0.27555
 O131 O 0.75002 0.28217 -0.27527
 O132 O 0.71276 0.24257 -0.27737
 Zr133 Zr 0.74799 0.24397 -0.20971
 Zr134 Zr 0.78800 0.28262 -0.25152
 Zr135 Zr 0.71425 0.20403 -0.25501
 Zr136 Zr 0.79222 0.20601 -0.25189
 O137 O 0.66592 0.20533 -0.25446
 O138 O 0.83974 0.21441 -0.24824
 O139 O 0.75209 0.20417 -0.23079
 O140 O 0.78944 0.24397 -0.22937
 O141 O 0.74774 0.28368 -0.23056
 O142 O 0.70917 0.24186 -0.23255
 C143 C 0.80805 0.19929 -0.30814
 C144 C 0.70446 0.19739 -0.31252
 C145 C 0.80169 0.29376 -0.30779
 O146 O 0.83622 0.28076 -0.24897
 O147 O 0.80216 0.29974 -0.21694
 O148 O 0.77556 0.27309 -0.18800
 C149 C 0.79567 0.29285 -0.19429
 O150 O 0.69111 0.29659 -0.28828
 Zr151 Zr 0.70997 0.28038 -0.25432
 O152 O 0.71758 0.27163 -0.19005
 O153 O 0.78204 0.32969 -0.25219
 O154 O 0.71518 0.32768 -0.25420
 O155 O 0.66224 0.27212 -0.25527
 O156 O 0.69178 0.29629 -0.22082
 C157 C 0.69752 0.29053 -0.19786
 O158 O 0.77103 0.22232 -0.17995
 O159 O 0.71991 0.15701 -0.25753
 O160 O 0.72110 0.21207 -0.19073
 O161 O 0.69955 0.18390 -0.22163
 O162 O 0.78844 0.15871 -0.25461
 O163 O 0.80664 0.18619 -0.21783
 C164 C 0.70448 0.19009 -0.19852
 H165 H 0.75552 0.18513 -0.28608
 H166 H 0.80724 0.24398 -0.21795
 H167 H 0.68996 0.24047 -0.22294
 H168 H 0.74928 0.30025 -0.28596
 H169 H 0.85059 0.19540 -0.25181
 H170 H 0.84367 0.30176 -0.24902
 H171 H 0.80267 0.33871 -0.25077
 H172 H 0.69488 0.33655 -0.25073
 H173 H 0.80923 0.15070 -0.25753
 H174 H 0.69914 0.14828 -0.25886
 H175 H 0.65874 0.18425 -0.25472
 H176 H 0.65176 0.29129 -0.25157
 H177 H 0.82423 0.17277 -0.22094
 H178 H 0.76182 0.22946 -0.16416
 H179 H 0.74155 0.25830 -0.34193
 H180 H 0.67621 0.31270 -0.28470
 Zr181 Zr 0.24858 0.75079 -0.28803
 O182 O 0.26811 0.73100 -0.32012
 O183 O 0.22012 0.78359 -0.30448
 O184 O 0.21702 0.72681 -0.31009
 O185 O 0.31121 0.79574 -0.27557
 O186 O 0.19321 0.69523 -0.28295
 O187 O 0.28054 0.77822 -0.30657
 O188 O 0.19405 0.80239 -0.27152
 O189 O 0.20935 0.74870 -0.26595
 O190 O 0.25221 0.78644 -0.26300
 O191 O 0.24967 0.70819 -0.27112
 O192 O 0.29019 0.74406 -0.26877
 Zr193 Zr 0.25440 0.73535 -0.20187
 Zr194 Zr 0.21147 0.70713 -0.24781
 Zr195 Zr 0.29199 0.77871 -0.24248
 Zr196 Zr 0.21423 0.78325 -0.23998
 O197 O 0.33998 0.77283 -0.24214
 O198 O 0.16612 0.77859 -0.23706
 O199 O 0.25405 0.77822 -0.21864
 O200 O 0.21340 0.74205 -0.22171
 O201 O 0.25113 0.69932 -0.22679
 O202 O 0.29350 0.73743 -0.22412
 C203 C 0.19950 0.80080 -0.29496
 C204 C 0.30397 0.79314 -0.29879
 C205 C 0.19841 0.70525 -0.30507
 O206 O 0.16355 0.71308 -0.24653
 O207 O 0.19444 0.68701 -0.21519
 O208 O 0.22338 0.70621 -0.18373
 C209 C 0.20093 0.69007 -0.19186
 O210 O 0.30755 0.69112 -0.28518
 Zr211 Zr 0.28931 0.70287 -0.24987
 O212 O 0.28237 0.70235 -0.18527
 O213 O 0.21353 0.66004 -0.25225
 O214 O 0.27992 0.65674 -0.25578
 O215 O 0.33761 0.70674 -0.24889
 O216 O 0.30431 0.67909 -0.21843
 C217 C 0.29960 0.68207 -0.19497
 O218 O 0.23344 0.75353 -0.16972
 O219 O 0.29068 0.82603 -0.23974
 O220 O 0.28315 0.76265 -0.17954
 O221 O 0.30832 0.79230 -0.20742
 O222 O 0.22224 0.83011 -0.23790
 O223 O 0.20157 0.79892 -0.20410
 C224 C 0.30203 0.78386 -0.18510
 H225 H 0.25319 0.80613 -0.27149
 H226 H 0.19547 0.74207 -0.21055
 H227 H 0.31258 0.73556 -0.21427
 H228 H 0.24913 0.69196 -0.28367
 H229 H 0.15705 0.79888 -0.23848
 H230 H 0.15428 0.69294 -0.24855
 H231 H 0.19216 0.65266 -0.25222
 H232 H 0.29928 0.64557 -0.25339
 H233 H 0.20225 0.84027 -0.23994
 H234 H 0.31213 0.83309 -0.24037
 H235 H 0.34917 0.79302 -0.24019
 H236 H 0.34608 0.68623 -0.24720
 H237 H 0.18547 0.81438 -0.20577
 H238 H 0.24211 0.74309 -0.15495
 H239 H 0.25999 0.74176 -0.33493
 H240 H 0.32136 0.67368 -0.28332
 Zr241 Zr 1.25179 1.25992 0.79607
 O242 O 1.22877 1.23448 0.82358
 O243 O 1.27808 1.28925 0.81826
 O244 O 1.28140 1.23310 0.81756
 O245 O 1.18954 1.30523 0.78398
 O246 O 1.30949 1.20711 0.78914
 O247 O 1.21778 1.28434 0.81522
 O248 O 1.30412 1.31706 0.78963
 O249 O 1.29341 1.26208 0.77699
 O250 O 1.25014 1.29927 0.77500
 O251 O 1.25374 1.22050 0.77457
 O252 O 1.21264 1.25597 0.77320
 Zr253 Zr 1.25578 1.25899 0.70900
 Zr254 Zr 1.29440 1.22382 0.75428
 Zr255 Zr 1.21300 1.29460 0.75099
 Zr256 Zr 1.29063 1.30053 0.75483
 O257 O 1.16549 1.28822 0.74567
 O258 O 1.33884 1.29650 0.75711
 O259 O 1.25340 1.29863 0.73031
 O260 O 1.29449 1.26264 0.73220
 O261 O 1.25723 1.21925 0.72985
 O262 O 1.21437 1.25679 0.72824
 C263 C 1.29707 1.30999 0.81204
 C264 C 1.19473 1.29957 0.80715
 C265 C 1.30150 1.21327 0.81168
 O266 O 1.34214 1.23082 0.75624
 O267 O 1.31393 1.20798 0.72084
 O268 O 1.28738 1.23168 0.68997
 C269 C 1.30833 1.21359 0.69769
 O270 O 1.19468 1.20051 0.78209
 Zr271 Zr 1.21665 1.21830 0.75008
 O272 O 1.22990 1.22968 0.68666
 O273 O 1.29342 1.17638 0.75430
 O274 O 1.22679 1.17182 0.75142
 O275 O 1.16855 1.22123 0.74578
 O276 O 1.20604 1.19999 0.71515
 C277 C 1.21256 1.20753 0.69270
 O278 O 1.28096 1.28252 0.68158
 O279 O 1.21269 1.34189 0.75444
 O280 O 1.22903 1.28917 0.68762
 O281 O 1.20164 1.31461 0.71678
 O282 O 1.28128 1.34719 0.75527
 O283 O 1.30879 1.32117 0.72239
 C284 C 1.21016 1.30992 0.69419
 H285 H 1.24759 1.31743 0.78539
 H286 H 1.31349 1.26428 0.72234
 H287 H 1.19647 1.25647 0.71691
 H288 H 1.25337 1.20238 0.78521
 H289 H 1.34715 1.31644 0.76170
 H290 H 1.35166 1.21068 0.75690
 H291 H 1.31496 1.16953 0.75477
 H292 H 1.20822 1.16081 0.74607
 H293 H 1.30036 1.35768 0.76013
 H294 H 1.19102 1.34827 0.75377
 H295 H 1.15612 1.30843 0.74515
 H296 H 1.16103 1.20104 0.74106
 H297 H 1.32474 1.33582 0.72725
 H298 H 1.27433 1.27493 0.66505
 H299 H 1.23486 1.24251 0.84011
 H300 H 1.18206 1.18301 0.77725
 Zr301 Zr 0.73936 0.75221 0.78834
 O302 O 0.76041 0.77008 0.82069
 O303 O 0.70529 0.72482 0.80405
 O304 O 0.71005 0.78051 0.80857
 O305 O 0.79547 0.69838 0.78011
 O306 O 0.69333 0.81482 0.78014
 O307 O 0.76420 0.72025 0.80873
 O308 O 0.67891 0.70765 0.77034
 O309 O 0.70225 0.75949 0.76455
 O310 O 0.73877 0.71557 0.76414
 O311 O 0.74827 0.79367 0.77116
 O312 O 0.78268 0.75170 0.77113
 Zr313 Zr 0.75269 0.76384 0.70295
 Zr314 Zr 0.71210 0.79978 0.74609
 Zr315 Zr 0.78055 0.71621 0.74552
 Zr316 Zr 0.70303 0.72372 0.73944
 O317 O 0.82887 0.71455 0.74647
 O318 O 0.65644 0.73567 0.73492
 O319 O 0.74447 0.72194 0.72002
 O320 O 0.70995 0.76411 0.72071
 O321 O 0.75383 0.80079 0.72697
 O322 O 0.78965 0.75637 0.72692
 C323 C 0.68344 0.70974 0.79390
 C324 C 0.78600 0.70240 0.80262
 C325 C 0.69505 0.80424 0.80246
 O326 O 0.66402 0.80124 0.74215
 O327 O 0.70081 0.82144 0.71239
 O328 O 0.72827 0.79673 0.68278
 C329 C 0.70852 0.81648 0.68962
 O330 O 0.80714 0.80212 0.78780
 Zr331 Zr 0.78959 0.79206 0.75181
 O332 O 0.78648 0.79144 0.68707
 O333 O 0.72132 0.84606 0.75041
 O334 O 0.78729 0.83930 0.75600
 O335 O 0.83667 0.78102 0.75374
 O336 O 0.81091 0.81142 0.72068
 C337 C 0.80698 0.80836 0.69710
 O338 O 0.73072 0.74748 0.67044
 O339 O 0.77198 0.66952 0.74437
 O340 O 0.77899 0.73306 0.68244
 O341 O 0.79523 0.69862 0.71097
 O342 O 0.70377 0.67622 0.73765
 O343 O 0.68958 0.70977 0.70319
 C344 C 0.79268 0.70851 0.68846
 H345 H 0.73605 0.69624 0.77294
 H346 H 0.69298 0.76654 0.70866
 H347 H 0.80935 0.75498 0.71799
 H348 H 0.74942 0.81008 0.78353
 H349 H 0.64416 0.71706 0.73626
 H350 H 0.65797 0.82257 0.74369
 H351 H 0.70145 0.85658 0.74905
 H352 H 0.80830 0.84729 0.75420
 H353 H 0.68235 0.66913 0.73883
 H354 H 0.79209 0.65947 0.74577
 H355 H 0.83462 0.69311 0.74534
 H356 H 0.84841 0.79996 0.75237
 H357 H 0.67100 0.69716 0.70434
 H358 H 0.74155 0.75591 0.65579
 H359 H 0.74989 0.76140 0.83538
 H360 H 0.82293 0.81794 0.78645
 Zr361 Zr 1.25274 0.74429 0.20180
 O362 O 1.23056 0.76837 0.17290
 O363 O 1.28287 0.71721 0.18128
 O364 O 1.28185 0.77406 0.18284
 O365 O 1.19358 0.69308 0.20810
 O366 O 1.30567 0.80031 0.21373
 O367 O 1.22344 0.71767 0.18000
 O368 O 1.31009 0.69308 0.21142
 O369 O 1.29223 0.74530 0.22385
 O370 O 1.25253 0.70432 0.22212
 O371 O 1.24876 0.78316 0.22364
 O372 O 1.21103 0.74390 0.22140
 Zr373 Zr 1.24754 0.74335 0.28849
 Zr374 Zr 1.28721 0.78283 0.24692
 Zr375 Zr 1.21259 0.70481 0.24309
 Zr376 Zr 1.29073 0.70624 0.24525
 O377 O 1.16431 0.70643 0.24485
 O378 O 1.33835 0.71475 0.24749
 O379 O 1.25095 0.70410 0.26674
 O380 O 1.28872 0.74370 0.26848
 O381 O 1.24728 0.78353 0.26830
 O382 O 1.20822 0.74213 0.26621
 C383 C 1.30379 0.69888 0.18856
 C384 C 1.20106 0.70021 0.18564
 C385 C 1.30036 0.79448 0.19063
 O386 O 1.33539 0.78054 0.24956
 O387 O 1.30102 0.80003 0.28170
 O388 O 1.27475 0.77249 0.31031
 C389 C 1.29415 0.79299 0.30426
 O390 O 1.18951 0.79786 0.21150
 Zr391 Zr 1.20904 0.78119 0.24504
 O392 O 1.21753 0.77030 0.30906
 O393 O 1.28175 0.82997 0.24638
 O394 O 1.21450 0.82845 0.24541
 O395 O 1.16118 0.77365 0.24513
 O396 O 1.19240 0.79696 0.27914
 C397 C 1.19814 0.79022 0.30193
 O398 O 1.27152 0.72099 0.31738
 O399 O 1.21753 0.65783 0.23923
 O400 O 1.22105 0.71110 0.30741
 O401 O 1.19939 0.68338 0.27633
 O402 O 1.28667 0.65894 0.24271
 O403 O 1.30635 0.68599 0.27879
 C404 C 1.20480 0.68892 0.29949
 H405 H 1.25285 0.68631 0.21137
 H406 H 1.30664 0.74353 0.27977
 H407 H 1.18925 0.74064 0.27612
 H408 H 1.24804 0.80143 0.21318
 H409 H 1.34905 0.69583 0.24334
 H410 H 1.34297 0.80150 0.24958
 H411 H 1.30247 0.83878 0.24784
 H412 H 1.19434 0.83737 0.24929
 H413 H 1.30733 0.65078 0.23946
 H414 H 1.19663 0.64936 0.23820
 H415 H 1.15698 0.68542 0.24423
 H416 H 1.15118 0.79294 0.24925
 H417 H 1.32435 0.67329 0.27524
 H418 H 1.26275 0.72769 0.33346
 H419 H 1.23892 0.76122 0.15680
 H420 H 1.17470 0.81394 0.21542
 Zr421 Zr 0.74544 1.25232 0.21175
 O422 O 0.76722 1.23222 0.18079
 O423 O 0.71430 1.28128 0.19389
 O424 O 0.71592 1.22493 0.19082
 O425 O 0.80425 1.30315 0.22142
 O426 O 0.69461 1.19312 0.21913
 O427 O 0.77340 1.28219 0.19187
 O428 O 0.68698 1.30074 0.22610
 O429 O 0.70650 1.24841 0.23398
 O430 O 0.74610 1.28964 0.23517
 O431 O 0.75012 1.21099 0.23028
 O432 O 0.78768 1.25027 0.23079
 Zr433 Zr 0.75276 1.24292 0.29803
 Zr434 Zr 0.71212 1.20824 0.25375
 Zr435 Zr 0.78667 1.28661 0.25550
 Zr436 Zr 0.70849 1.28484 0.25839
 O437 O 0.83498 1.28454 0.25579
 O438 O 0.66094 1.27645 0.26150
 O439 O 0.74886 1.28455 0.27952
 O440 O 0.71117 1.24481 0.27831
 O441 O 0.75248 1.20520 0.27477
 O442 O 0.79155 1.24672 0.27557
 C443 C 0.69271 1.29762 0.20283
 C444 C 0.79571 1.29920 0.19862
 C445 C 0.69887 1.20248 0.19666
 O446 O 0.66390 1.21048 0.25545
 O447 O 0.69756 1.18828 0.28733
 O448 O 0.72478 1.21237 0.31763
 C449 C 0.70444 1.19335 0.31030
 O450 O 0.80924 1.19792 0.21657
 Zr451 Zr 0.79023 1.21033 0.25144
 O452 O 0.78297 1.21316 0.31600
 O453 O 0.71788 1.16127 0.25089
 O454 O 0.78482 1.16328 0.24765
 O455 O 0.83806 1.21802 0.25200
 O456 O 0.80730 1.19001 0.28391
 C457 C 0.80201 1.19389 0.30721
 O458 O 0.73014 1.26185 0.32911
 O459 O 0.78159 1.33378 0.25620
 O460 O 0.77979 1.27305 0.31909
 O461 O 0.80198 1.30333 0.29001
 O462 O 0.71230 1.33226 0.25873
 O463 O 0.69469 1.30127 0.29375
 C464 C 0.79684 1.29535 0.31267
 H465 H 0.74525 1.30883 0.22592
 H466 H 0.69340 1.24392 0.28963
 H467 H 0.81074 1.24691 0.28538
 H468 H 0.75086 1.19408 0.21837
 H469 H 0.65022 1.29584 0.25930
 H470 H 0.65631 1.18960 0.25415
 H471 H 0.69717 1.15228 0.25141
 H472 H 0.80506 1.15393 0.25054
 H473 H 0.69143 1.34054 0.25663
 H474 H 0.80244 1.34239 0.25540
 H475 H 0.84247 1.30548 0.25685
 H476 H 0.84818 1.19836 0.25449
 H477 H 0.67704 1.31492 0.29165
 H478 H 0.73935 1.25309 0.34440
 H479 H 0.75816 1.24104 0.16547
 H480 H 0.82439 1.18171 0.21908
 O481 O 0.53716 1.05557 0.04509
 O482 O 0.57338 1.02968 0.02295
 C483 C 0.56525 1.04912 0.03976
 O484 O 0.45831 0.94412 0.04272
 O485 O 0.42235 0.97144 0.02130
 C486 C 0.43030 0.95034 0.03678
 O487 O 0.54226 0.95305 0.04740
 O488 O 0.57607 0.97973 0.02333
 C489 C 0.56966 0.96139 0.04145
 O490 O 0.45292 1.05471 0.04180
 O491 O 0.41974 1.02424 0.02028
 C492 C 0.42567 1.04578 0.03595
 Zr493 Zr 0.49594 1.03919 0.03028
 O494 O 0.49259 1.04016 0.06958
 O495 O 0.49728 1.08667 0.02881
 Zr496 Zr 0.49962 0.96415 0.03186
 O497 O 0.49697 0.96811 0.07101
 O498 O 0.50494 0.91704 0.03383
 O499 O 0.52507 1.00307 0.03620
 O500 O 0.47084 1.00047 0.03546
 O501 O 0.45426 1.05405 -0.04359
 O502 O 0.42047 1.02338 -0.02307
 C503 C 0.42686 1.04524 -0.03831
 O504 O 0.54308 0.94891 -0.04413
 O505 O 0.57614 0.97868 -0.02175
 C506 C 0.57024 0.95820 -0.03835
 O507 O 0.45891 0.94152 -0.04118
 O508 O 0.42257 0.96933 -0.02084
 C509 C 0.43080 0.94752 -0.03548
 O510 O 0.53859 1.05384 -0.04559
 O511 O 0.57421 1.02873 -0.02207
 C512 C 0.56655 1.04775 -0.03938
 Zr513 Zr 0.49677 1.03727 -0.03210
 O514 O 0.49346 1.03335 -0.07134
 O515 O 0.49807 1.08453 -0.03537
 Zr516 Zr 0.50014 0.96209 -0.03038
 O517 O 0.49692 0.96009 -0.06967
 O518 O 0.50446 0.91501 -0.02720
 Zr519 Zr 0.54428 1.00280 0.00029
 Zr520 Zr 0.45177 0.99866 -0.00053
 O521 O 0.47155 0.99832 -0.03617
 O522 O 0.52591 1.00081 -0.03602
 O523 O 0.46863 1.04302 -0.00127
 O524 O 0.52713 0.95881 0.00111
 O525 O 0.52294 1.04506 -0.00073
 O526 O 0.47274 0.95611 0.00063
 H527 H 0.45707 1.00006 0.05006
 H528 H 0.54180 0.94190 0.00177
 H529 H 0.45774 0.99713 -0.05079
 H530 H 0.53586 1.06333 -0.00082
 H531 H 0.49352 0.90843 0.01960
 H532 H 0.50446 0.90699 -0.04441
 H533 H 0.51248 0.97392 -0.07646
 H534 H 0.51320 1.02565 -0.07756
 H535 H 0.48580 1.09278 -0.02157
 H536 H 0.47881 1.09365 0.01987
 H537 H 0.50713 1.02513 0.07619
 H538 H 0.49774 0.94741 0.07772
 O539 O 1.04049 0.55678 0.54423
 O540 O 1.07545 0.52970 0.52165
 C541 C 1.06823 0.54983 0.53820
 O542 O 0.95976 0.44591 0.54492
 O543 O 0.92339 0.47348 0.52422
 C544 C 0.93163 0.45234 0.53957
 O545 O 1.04382 0.45301 0.54717
 O546 O 1.07707 0.47861 0.52186
 C547 C 1.07112 0.46052 0.54026
 O548 O 0.95622 0.55700 0.54332
 O549 O 0.92166 0.52674 0.52309
 C550 C 0.92857 0.54855 0.53823
 Zr551 Zr 0.99847 0.54018 0.53116
 O552 O 0.99680 0.54019 0.57056
 O553 O 1.00057 0.58763 0.53039
 Zr554 Zr 1.00089 0.46528 0.53286
 O555 O 0.99991 0.46988 0.57201
 O556 O 1.00540 0.41811 0.53510
 O557 O 1.02736 0.50370 0.53637
 O558 O 0.97278 0.50201 0.53707
 O559 O 0.95396 0.55463 0.45757
 O560 O 0.92049 0.52529 0.47972
 C561 C 0.92665 0.54644 0.46375
 O562 O 1.04059 0.45040 0.45482
 O563 O 1.07555 0.47717 0.47776
 C564 C 1.06831 0.45828 0.46021
 O565 O 0.95676 0.44343 0.46061
 O566 O 0.92174 0.47171 0.48198
 C567 C 0.92899 0.45003 0.46688
 O568 O 1.03810 0.55305 0.45349
 O569 O 1.07439 0.52814 0.47642
 C570 C 1.06623 0.54652 0.45877
 Zr571 Zr 0.99668 0.53809 0.46879
 O572 O 0.99173 0.53580 0.42958
 O573 O 0.99915 0.58547 0.46702
 Zr574 Zr 0.99876 0.46290 0.47071
 O575 O 0.99380 0.45930 0.43162
 O576 O 1.00248 0.41587 0.47466
 Zr577 Zr 1.04505 0.50301 0.49994
 Zr578 Zr 0.95231 0.50037 0.50158
 O579 O 0.97074 0.49956 0.46548
 O580 O 1.02493 0.50112 0.46421
 O581 O 0.96992 0.54442 0.50030
 O582 O 1.02701 0.45931 0.50135
 O583 O 1.02428 0.54554 0.49934
 O584 O 0.97255 0.45748 0.50241
 H585 H 0.95947 0.50196 0.55195
 H586 H 1.04125 0.44204 0.50148
 H587 H 0.95658 0.49850 0.45107
 H588 H 1.03748 0.56359 0.49864
 H589 H 0.99310 0.40952 0.52136
 H590 H 1.00217 0.40751 0.45757
 H591 H 1.00682 0.47494 0.42406
 H592 H 1.00987 0.52543 0.42283
 H593 H 0.98341 0.59356 0.47833
 H594 H 0.98329 0.59490 0.52013
 H595 H 1.01331 0.52686 0.57661
 H596 H 1.00066 0.44927 0.57889
 O597 O 1.04500 0.54684 0.04028
 O598 O 1.01278 0.57896 0.01947
 C599 C 1.03546 0.57345 0.03455
 O600 O 1.04240 0.46201 -0.04688
 O601 O 1.01840 0.42699 -0.02244
 C602 C 1.03659 0.43454 -0.04055
 O603 O 1.04166 0.54473 -0.04567
 O604 O 1.01286 0.57809 -0.02304
 C605 C 1.03322 0.57166 -0.03985
 O606 O 1.04518 0.46440 0.04507
 O607 O 1.02054 0.42822 0.02216
 C608 C 1.03948 0.43668 0.03954
 Zr609 Zr 1.02821 0.50443 0.03005
 O610 O 1.07656 0.50412 0.03070
 O611 O 1.02560 0.50705 0.06928
 Zr612 Zr 1.02706 0.50296 -0.03215
 O613 O 1.07526 0.50404 -0.02977
 O614 O 1.02793 0.50444 -0.07151
 O615 O 1.03224 0.53098 -0.00161
 O616 O 1.03478 0.47750 -0.00075
 O617 O 0.93940 0.45863 0.04631
 O618 O 0.96883 0.42564 0.02386
 C619 C 0.94883 0.43186 0.04098
 O620 O 0.93011 0.53917 -0.04352
 O621 O 0.95829 0.57520 -0.02328
 C622 C 0.93689 0.56687 -0.03870
 O623 O 0.93826 0.45673 -0.04520
 O624 O 0.96652 0.42441 -0.02105
 C625 C 0.94703 0.43007 -0.03881
 O626 O 0.93166 0.54087 0.04220
 O627 O 0.95872 0.57605 0.02012
 C628 C 0.93775 0.56836 0.03610
 Zr629 Zr 0.95183 0.50037 0.03099
 O630 O 0.90376 0.49513 0.03129
 O631 O 0.95315 0.50418 0.07026
 Zr632 Zr 0.95055 0.49910 -0.03132
 O633 O 0.90211 0.49767 -0.03194
 O634 O 0.95289 0.49944 -0.07063
 Zr635 Zr 0.98702 0.54719 -0.00139
 Zr636 Zr 0.99190 0.45625 0.00010
 O637 O 0.94697 0.47292 0.00031
 O638 O 0.94377 0.52638 -0.00052
 O639 O 0.99163 0.47559 0.03588
 O640 O 0.98729 0.52727 -0.03683
 O641 O 0.98873 0.52896 0.03473
 O642 O 0.99007 0.47407 -0.03623
 H643 H 1.05346 0.46494 -0.00087
 H644 H 0.98629 0.54017 -0.05184
 H645 H 0.93002 0.45823 0.00094
 H646 H 0.98837 0.54272 0.04920
 H647 H 1.01035 0.49246 -0.07749
 H648 H 0.93151 0.49870 -0.07675
 H649 H 0.89521 0.47973 -0.02271
 H650 H 0.89547 0.50745 0.01751
 H651 H 0.96927 0.49045 0.07639
 H652 H 1.04695 0.50840 0.07541
 H653 H 1.08349 0.51608 0.01626
 H654 H 1.08280 0.50352 -0.04714
 O655 O 0.43355 0.95902 0.45625
 O656 O 0.45966 0.92443 0.47978
 C657 C 0.43960 0.93168 0.46283
 O658 O 0.54779 1.03753 0.45740
 O659 O 0.52032 1.07337 0.47834
 C660 C 0.54179 1.06517 0.46300
 O661 O 0.54131 0.95519 0.45569
 O662 O 0.51190 0.92255 0.47858
 C663 C 0.53250 0.92845 0.46180
 O664 O 0.43381 1.04163 0.45748
 O665 O 0.46516 1.07521 0.47757
 C666 C 0.44289 1.06865 0.46237
 Zr667 Zr 0.45117 1.00002 0.46916
 O668 O 0.45616 1.00008 0.43004
 O669 O 0.40297 0.99917 0.46633
 Zr670 Zr 0.52734 0.99725 0.46896
 O671 O 0.52250 0.99786 0.42980
 O672 O 0.57542 0.99329 0.46688
 O673 O 0.48813 0.97139 0.46459
 O674 O 0.49027 1.02525 0.46403
 O675 O 0.43616 1.04366 0.54347
 O676 O 0.46576 1.07631 0.52101
 C677 C 0.44460 1.07050 0.53734
 O678 O 0.54059 0.95717 0.54690
 O679 O 0.51334 0.92342 0.52332
 C680 C 0.53260 0.93013 0.54096
 O681 O 0.54798 1.03963 0.54210
 O682 O 0.51926 1.07432 0.52075
 C683 C 0.54092 1.06696 0.53625
 O684 O 0.43619 0.96094 0.54706
 O685 O 0.46164 0.92525 0.52447
 C686 C 0.44281 0.93330 0.54197
 Zr687 Zr 0.45158 1.00147 0.53156
 O688 O 0.45108 1.00587 0.57081
 O689 O 0.40320 0.99965 0.53079
 Zr690 Zr 0.52822 0.99867 0.53124
 O691 O 0.53040 1.00294 0.57046
 O692 O 0.57625 0.99497 0.52851
 Zr693 Zr 0.48780 0.95388 0.50105
 Zr694 Zr 0.49124 1.04487 0.49960
 O695 O 0.49099 1.02638 0.53567
 O696 O 0.48893 0.97334 0.53685
 O697 O 0.44620 1.02794 0.49998
 O698 O 0.53246 0.97131 0.50055
 O699 O 0.44463 0.97463 0.50089
 O700 O 0.53478 1.02466 0.49969
 H701 H 0.49084 1.03864 0.44930
 H702 H 0.55002 0.95729 0.50075
 H703 H 0.49181 1.03986 0.55032
 H704 H 0.42603 0.96196 0.50141
 H705 H 0.58387 1.00312 0.48190
 H706 H 0.58420 0.99514 0.54581
 H707 H 0.51528 0.98889 0.57757
 H708 H 0.46402 0.98976 0.57783
 H709 H 0.39568 1.01802 0.52245
 H710 H 0.39499 1.01020 0.48086
 H711 H 0.43522 1.00161 0.42309
 H712 H 0.54353 0.99774 0.42300
 O713 O 1.05976 1.05325 0.46067
 O714 O 1.03158 1.02210 0.43540
 C715 C 1.05156 1.04322 0.43904
 O716 O 1.07717 0.95432 0.53347
 O717 O 1.04842 0.98037 0.56180
 C718 C 1.07056 0.96229 0.55598
 O719 O 1.07399 0.95350 0.46459
 O720 O 1.03844 0.97283 0.43750
 C721 C 1.06316 0.95789 0.44239
 O722 O 1.05919 1.06265 0.52941
 O723 O 1.03933 1.03228 0.55986
 C724 C 1.05484 1.05548 0.55254
 Zr725 Zr 1.04511 1.04100 0.49648
 O726 O 1.09255 1.05019 0.49621
 O727 O 1.03443 1.08700 0.49278
 Zr728 Zr 1.05710 0.96677 0.49949
 O729 O 1.10433 0.97656 0.49784
 O730 O 1.06508 0.91996 0.49920
 O731 O 1.05514 1.00311 0.47554
 O732 O 1.05844 1.00626 0.51943
 O733 O 0.95703 1.04864 0.53486
 O734 O 0.98924 1.02541 0.56265
 C735 C 0.96749 1.04407 0.55712
 O736 O 0.96429 0.93543 0.47141
 O737 O 0.98517 0.96484 0.44072
 C738 C 0.96853 0.94249 0.44829
 O739 O 0.97287 0.93836 0.54001
 O740 O 0.99654 0.97301 0.56508
 C741 C 0.98032 0.94896 0.56165
 O742 O 0.94744 1.03883 0.46668
 O743 O 0.97808 1.01505 0.43839
 C744 C 0.95456 1.03132 0.44415
 Zr745 Zr 0.96958 1.02956 0.50069
 O746 O 0.92247 1.02165 0.50681
 O747 O 0.96099 1.07591 0.49603
 Zr748 Zr 0.98156 0.95510 0.50410
 O749 O 0.93431 0.94719 0.50933
 O750 O 0.99184 0.90879 0.50483
 Zr751 Zr 1.01017 0.99542 0.46292
 Zr752 Zr 1.01629 1.00067 0.53749
 O753 O 0.97160 0.99315 0.52444
 O754 O 0.96763 0.98976 0.48056
 O755 O 1.00827 1.04260 0.52051
 O756 O 1.01842 0.95390 0.48025
 O757 O 1.00486 1.03928 0.47651
 O758 O 1.02209 0.95665 0.52430
 H759 H 1.07714 1.00986 0.52945
 H760 H 1.02050 0.93566 0.46986
 H761 H 0.95483 0.99157 0.53672
 H762 H 1.00158 1.05581 0.46444
 H763 H 1.05072 0.91089 0.51124
 H764 H 0.97205 0.89818 0.50651
 H765 H 0.92324 0.95821 0.49612
 H766 H 0.91493 1.00876 0.49312
 H767 H 0.97782 1.08678 0.50445
 H768 H 1.05423 1.09758 0.49112
 H769 H 1.10257 1.03277 0.48831
 H770 H 1.11505 0.95699 0.49794
 O771 O 0.47469 0.42791 -0.03436
 O772 O 0.49557 0.46006 -0.06312
 C773 C 0.48038 0.43613 -0.05700
 O774 O 0.44477 0.53682 0.02802
 O775 O 0.47722 0.51877 0.05809
 C776 C 0.45335 0.53380 0.05100
 O777 O 0.44568 0.52721 -0.04059
 O778 O 0.48288 0.50850 -0.06628
 C779 C 0.45663 0.52126 -0.06242
 O780 O 0.47462 0.43082 0.03458
 O781 O 0.49103 0.46760 0.06129
 C782 C 0.47812 0.44195 0.05671
 Zr783 Zr 0.48599 0.44871 -0.00047
 O784 O 0.43983 0.43453 0.00030
 O785 O 0.50247 0.40422 0.00120
 Zr786 Zr 0.46473 0.52100 -0.00498
 O787 O 0.41917 0.50525 -0.00451
 O788 O 0.45049 0.56593 -0.01006
 O789 O 0.47076 0.48172 -0.02505
 O790 O 0.46866 0.48490 0.01889
 O791 O 0.57679 0.45973 0.03678
 O792 O 0.54070 0.48061 0.06239
 C793 C 0.56584 0.46591 0.05856
 O794 O 0.55639 0.55604 -0.03714
 O795 O 0.53542 0.52235 -0.06464
 C796 C 0.55230 0.54546 -0.05935
 O797 O 0.54577 0.56454 0.03109
 O798 O 0.52663 0.53132 0.05969
 C799 C 0.53989 0.55635 0.05375
 O800 O 0.58198 0.45845 -0.03223
 O801 O 0.54795 0.47422 -0.06207
 C802 C 0.57339 0.46176 -0.05518
 Zr803 Zr 0.55957 0.46964 0.00115
 O804 O 0.60590 0.48273 0.00486
 O805 O 0.57228 0.42384 0.00145
 Zr806 Zr 0.53821 0.54211 -0.00289
 O807 O 0.58292 0.55969 0.00050
 O808 O 0.52060 0.58587 -0.00758
 Zr809 Zr 0.51414 0.49296 -0.03909
 Zr810 Zr 0.51018 0.49787 0.03544
 O811 O 0.55331 0.50886 0.02090
 O812 O 0.55597 0.50602 -0.02273
 O813 O 0.52322 0.45505 0.02296
 O814 O 0.50126 0.53555 -0.02617
 O815 O 0.52537 0.45244 -0.02121
 O816 O 0.49868 0.53868 0.01796
 H817 H 0.45074 0.48097 0.02965
 H818 H 0.49734 0.55156 -0.03858
 H819 H 0.57009 0.51447 0.03243
 H820 H 0.53075 0.43477 -0.03145
 H821 H 0.46366 0.57858 0.00065
 H822 H 0.53859 0.59932 -0.00838
 H823 H 0.59701 0.54256 -0.00132
 H824 H 0.61124 0.49501 -0.00985
 H825 H 0.55931 0.41359 0.01389
 H826 H 0.48418 0.39108 0.00117
 H827 H 0.42827 0.44829 -0.01070
 H828 H 0.40599 0.52326 -0.00582
 C829 C 0.30662 1.19565 0.14553
 C830 C 0.31788 1.17890 0.12568
 C831 C 0.32825 1.14947 0.12922
 C832 C 0.32737 1.13717 0.15340
 C833 C 0.31616 1.15411 0.17347
 C834 C 0.30557 1.18358 0.16973
 C835 C 0.34179 1.13380 0.10746
 C836 C 0.34615 1.10405 0.10564
 C837 C 0.36303 1.09018 0.08451
 C838 C 0.35901 1.05954 0.07902
 C839 C 0.37756 1.04520 0.06133
 C840 C 0.40071 1.06126 0.04916
 C841 C 0.40372 1.09209 0.05376
 C842 C 0.38523 1.10638 0.07117
 H843 H 0.29886 1.21827 0.14182
 H844 H 0.31859 1.18913 0.10739
 H845 H 0.33589 1.11482 0.15702
 H846 H 0.31570 1.14413 0.19185
 H847 H 0.34804 1.14789 0.09187
 H848 H 0.33745 1.08934 0.12000
 H849 H 0.34224 1.04645 0.08908
 H850 H 0.37523 1.02127 0.05847
 H851 H 0.42168 1.10488 0.04483
 H852 H 0.38989 1.12971 0.07513
 C853 C 0.80807 0.70273 0.64378
 C854 C 0.82005 0.68596 0.62415
 C855 C 0.82995 0.65637 0.62788
 C856 C 0.82791 0.64396 0.65194
 C857 C 0.81611 0.66089 0.67172
 C858 C 0.80602 0.69051 0.66787
 C859 C 0.84445 0.64044 0.60669
 C860 C 0.84729 0.61050 0.60488
 C861 C 0.86537 0.59582 0.58484
 C862 C 0.85980 0.56563 0.57857
 C863 C 0.87893 0.55044 0.56180
 C864 C 0.90426 0.56512 0.55143
 C865 C 0.90905 0.59555 0.55696
 C866 C 0.88998 0.61068 0.57343
 H867 H 0.80061 0.72545 0.64004
 H868 H 0.82168 0.69624 0.60592
 H869 H 0.83609 0.62153 0.65572
 H870 H 0.81485 0.65075 0.69001
 H871 H 0.85289 0.65438 0.59170
 H872 H 0.83636 0.59619 0.61849
 H873 H 0.84116 0.55355 0.58721
 H874 H 0.87501 0.52687 0.55813
 H875 H 0.92852 0.60738 0.54932
 H876 H 0.89578 0.63356 0.57815
 C877 C 0.67121 0.85279 0.18640
 C878 C 0.66094 0.87405 0.16933
 C879 C 0.66679 0.87092 0.14380
 C880 C 0.68337 0.84567 0.13569
 C881 C 0.69393 0.82431 0.15294
 C882 C 0.68798 0.82768 0.17855
 C883 C 0.65424 0.89435 0.12693
 C884 C 0.65273 0.89276 0.10197
 C885 C 0.63411 0.91423 0.08707
 C886 C 0.64047 0.91892 0.06168
 C887 C 0.62080 0.93631 0.04677
 C888 C 0.59423 0.94871 0.05705
 C889 C 0.58859 0.94500 0.08255
 C890 C 0.60808 0.92794 0.09733
 H891 H 0.66625 0.85637 0.20591
 H892 H 0.64813 0.89310 0.17619
 H893 H 0.68856 0.84235 0.11624
 H894 H 0.70699 0.80536 0.14625
 H895 H 0.64426 0.91365 0.13600
 H896 H 0.66384 0.87471 0.09210
 H897 H 0.66014 0.90836 0.05322
 H898 H 0.62534 0.93854 0.02705
 H899 H 0.56812 0.95422 0.09087
 H900 H 0.60148 0.92416 0.11645
 C901 C 1.18064 0.35571 0.68247
 C902 C 1.16974 0.37630 0.66511
 C903 C 1.17522 0.37254 0.63961
 C904 C 1.19231 0.34747 0.63181
 C905 C 1.20358 0.32679 0.64938
 C906 C 1.19774 0.33066 0.67495
 C907 C 1.16162 0.39513 0.62250
 C908 C 1.15852 0.39245 0.59770
 C909 C 1.13831 0.41303 0.58332
 C910 C 1.14373 0.41883 0.55794
 C911 C 1.12298 0.43604 0.54386
 C912 C 1.09621 0.44707 0.55493
 C913 C 1.09133 0.44189 0.58037
 C914 C 1.11191 0.42506 0.59433
 H915 H 1.17579 0.35975 0.70194
 H916 H 1.15661 0.39526 0.67175
 H917 H 1.19725 0.34380 0.61235
 H918 H 1.21687 0.30786 0.64296
 H919 H 1.15176 0.41466 0.63135
 H920 H 1.16932 0.37421 0.58783
 H921 H 1.16368 0.40953 0.54892
 H922 H 1.12702 0.43943 0.52418
 H923 H 1.07081 0.45003 0.58936
 H924 H 1.10613 0.42032 0.61350
 C925 C 0.66517 1.15205 -0.18642
 C926 C 0.65061 1.13430 -0.16864
 C927 C 0.66062 1.13419 -0.14381
 C928 C 0.68566 1.15224 -0.13703
 C929 C 0.70003 1.17037 -0.15480
 C930 C 0.68980 1.17060 -0.17967
 C931 C 0.64245 1.11738 -0.12529
 C932 C 0.65315 1.10732 -0.10338
 C933 C 0.63227 1.09322 -0.08514
 C934 C 0.64142 1.06815 -0.07109
 C935 C 0.62054 1.05357 -0.05534
 C936 C 0.59040 1.06419 -0.05333
 C937 C 0.58211 1.09038 -0.06629
 C938 C 0.60273 1.10469 -0.08192
 H939 H 0.65666 1.15174 -0.20537
 H940 H 0.63116 1.12083 -0.17426
 H941 H 0.69351 1.15320 -0.11792
 H942 H 0.71905 1.18431 -0.14903
 H943 H 0.61881 1.11291 -0.13017
 H944 H 0.67727 1.10869 -0.09900
 H945 H 0.66429 1.05921 -0.07303
 H946 H 0.62757 1.03353 -0.04549
 H947 H 0.55934 1.09966 -0.06472
 H948 H 0.59538 1.12466 -0.09173
 C949 C 1.17424 0.64327 0.31034
 C950 C 1.16154 0.62366 0.32769
 C951 C 1.16591 0.62814 0.35330
 C952 C 1.18362 0.65270 0.36127
 C953 C 1.19638 0.67244 0.34384
 C954 C 1.19159 0.66810 0.31816
 C955 C 1.14885 0.60856 0.37070
 C956 C 1.15412 0.60622 0.39528
 C957 C 1.13221 0.59036 0.41168
 C958 C 1.14221 0.57478 0.43298
 C959 C 1.12107 0.56008 0.44846
 C960 C 1.08963 0.56131 0.44303
 C961 C 1.07991 0.57746 0.42193
 C962 C 1.10079 0.59182 0.40661
 H963 H 1.17015 0.63906 0.29076
 H964 H 1.14777 0.60510 0.32104
 H965 H 1.18690 0.65736 0.38085
 H966 H 1.20965 0.69131 0.35052
 H967 H 1.13017 0.59577 0.36271
 H968 H 1.17422 0.61624 0.40361
 H969 H 1.16632 0.57375 0.43746
 H970 H 1.12925 0.54804 0.46467
 H971 H 1.05594 0.57919 0.41708
 H972 H 1.09211 0.60457 0.39095
 C973 C 0.34638 0.81317 -0.16892
 C974 C 0.36068 0.83024 -0.15051
 C975 C 0.34632 0.83545 -0.12761
 C976 C 0.31760 0.82235 -0.12314
 C977 C 0.30347 0.80462 -0.14149
 C978 C 0.31762 0.80019 -0.16468
 C979 C 0.36295 0.85334 -0.10869
 C980 C 0.34966 0.87081 -0.09146
 C981 C 0.36842 0.88938 -0.07423
 C982 C 0.35888 0.91835 -0.06736
 C983 C 0.37839 0.93728 -0.05361
 C984 C 0.40759 0.92729 -0.04652
 C985 C 0.41600 0.89758 -0.05187
 C986 C 0.39666 0.87884 -0.06539
 H987 H 0.35788 0.81009 -0.18656
 H988 H 0.38295 0.83981 -0.15431
 H989 H 0.30628 0.82543 -0.10544
 H990 H 0.28122 0.79501 -0.13778
 H991 H 0.38763 0.85368 -0.11028
 H992 H 0.32505 0.87332 -0.09125
 H993 H 0.33697 0.92681 -0.07361
 H994 H 0.37129 0.96002 -0.04961
 H995 H 0.43804 0.88895 -0.04606
 H996 H 0.40419 0.85623 -0.06938
 C997 C 0.83856 0.32938 0.32728
 C998 C 0.85282 0.34651 0.34570
 C999 C 0.84033 0.34854 0.36964
 C1000 C 0.81335 0.33268 0.37500
 C1001 C 0.79933 0.31496 0.35662
 C1002 C 0.81177 0.31324 0.33254
 C1003 C 0.85754 0.36549 0.38880
 C1004 C 0.84488 0.37997 0.40811
 C1005 C 0.86431 0.39659 0.42613
 C1006 C 0.85540 0.42484 0.43522
 C1007 C 0.87566 0.44207 0.44977
 C1008 C 0.90493 0.43104 0.45548
 C1009 C 0.91268 0.40185 0.44791
 C1010 C 0.89265 0.38484 0.43352
 H1011 H 0.84881 0.32843 0.30897
 H1012 H 0.87376 0.35828 0.34120
 H1013 H 0.80355 0.33331 0.39346
 H1014 H 0.77864 0.30283 0.36117
 H1015 H 0.88200 0.36729 0.38606
 H1016 H 0.82027 0.38122 0.40981
 H1017 H 0.83344 0.43417 0.43004
 H1018 H 0.86907 0.46445 0.45542
 H1019 H 0.93480 0.39240 0.45248
 H1020 H 0.89971 0.36269 0.42763
 C1021 C 1.17321 0.35067 0.17688
 C1022 C 1.15156 0.36232 0.16053
 C1023 C 1.14716 0.34970 0.13688
 C1024 C 1.16604 0.32584 0.12939
 C1025 C 1.18780 0.31398 0.14594
 C1026 C 1.19096 0.32577 0.17014
 C1027 C 1.12177 0.36177 0.12160
 C1028 C 1.11920 0.35971 0.09674
 C1029 C 1.09607 0.37755 0.08279
 C1030 C 1.08595 0.36845 0.05904
 C1031 C 1.06598 0.38666 0.04506
 C1032 C 1.05630 0.41438 0.05461
 C1033 C 1.06579 0.42287 0.07857
 C1034 C 1.08558 0.40504 0.09229
 H1035 H 1.17512 0.36046 0.19527
 H1036 H 1.13760 0.38094 0.16667
 H1037 H 1.16320 0.31544 0.11135
 H1038 H 1.20095 0.29461 0.14027
 H1039 H 1.10478 0.37439 0.13174
 H1040 H 1.13505 0.34615 0.08621
 H1041 H 1.09397 0.34756 0.05114
 H1042 H 1.05927 0.37976 0.02650
 H1043 H 1.05877 0.44411 0.08650
 H1044 H 1.09363 0.41381 0.10989
 C1045 C 0.67505 0.85895 0.67601
 C1046 C 0.65508 0.87181 0.65874
 C1047 C 0.65070 0.85885 0.63517
 C1048 C 0.66837 0.83372 0.62861
 C1049 C 0.68872 0.82103 0.64585
 C1050 C 0.69162 0.83302 0.66999
 C1051 C 0.62730 0.87231 0.61851
 C1052 C 0.61362 0.85824 0.59932
 C1053 C 0.58892 0.87291 0.58470
 C1054 C 0.58626 0.86771 0.55895
 C1055 C 0.56560 0.88446 0.54448
 C1056 C 0.54726 0.90636 0.55575
 C1057 C 0.54811 0.90965 0.58169
 C1058 C 0.56848 0.89295 0.59606
 H1059 H 0.67686 0.86884 0.69437
 H1060 H 0.64213 0.89143 0.66417
 H1061 H 0.66640 0.82361 0.61039
 H1062 H 0.70114 0.80102 0.64063
 H1063 H 0.62014 0.89488 0.62308
 H1064 H 0.62079 0.83602 0.59378
 H1065 H 0.60143 0.85202 0.54984
 H1066 H 0.56556 0.88188 0.52443
 H1067 H 0.53403 0.92637 0.59073
 H1068 H 0.56885 0.89651 0.61599
 C1069 C 1.15620 0.66046 -0.18329
 C1070 C 1.13418 0.65047 -0.16652
 C1071 C 1.13699 0.65612 -0.14094
 C1072 C 1.16323 0.67123 -0.13232
 C1073 C 1.18545 0.68140 -0.14916
 C1074 C 1.18190 0.67696 -0.17511
 C1075 C 1.11160 0.64592 -0.12459
 C1076 C 1.11248 0.64421 -0.09959
 C1077 C 1.08790 0.62950 -0.08470
 C1078 C 1.08649 0.63420 -0.05877
 C1079 C 1.06642 0.61736 -0.04386
 C1080 C 1.04763 0.59547 -0.05473
 C1081 C 1.04787 0.59189 -0.08064
 C1082 C 1.06773 0.60849 -0.09543
 H1083 H 1.15231 0.65592 -0.20286
 H1084 H 1.11449 0.63853 -0.17374
 H1085 H 1.16643 0.67607 -0.11278
 H1086 H 1.20481 0.69372 -0.14177
 H1087 H 1.09115 0.63873 -0.13421
 H1088 H 1.13219 0.65247 -0.08954
 H1089 H 1.10187 0.65000 -0.04992
 H1090 H 1.06712 0.61996 -0.02382
 H1091 H 1.03395 0.57468 -0.08932
 H1092 H 1.06836 0.60306 -0.11501
 C1093 C 0.67144 1.15033 0.32371
 C1094 C 0.65321 1.13595 0.34140
 C1095 C 0.64908 1.14841 0.36515
 C1096 C 0.66427 1.17525 0.37114
 C1097 C 0.68303 1.18939 0.35356
 C1098 C 0.68663 1.17719 0.32957
 C1099 C 0.63049 1.13166 0.38353
 C1100 C 0.61476 1.14433 0.40223
 C1101 C 0.59714 1.12574 0.42013
 C1102 C 0.56888 1.13562 0.42950
 C1103 C 0.55103 1.11671 0.44460
 C1104 C 0.56143 1.08778 0.45063
 C1105 C 0.59064 1.07897 0.44262
 C1106 C 0.60826 1.09766 0.42767
 H1107 H 0.67372 1.14036 0.30543
 H1108 H 0.64204 1.11510 0.33643
 H1109 H 0.66215 1.18505 0.38948
 H1110 H 0.69425 1.21018 0.35859
 H1111 H 0.62876 1.10763 0.38079
 H1112 H 0.61350 1.16851 0.40374
 H1113 H 0.56007 1.15743 0.42427
 H1114 H 0.52867 1.12411 0.45058
 H1115 H 0.59970 1.05711 0.44742
 H1116 H 0.63048 1.08986 0.42171
 C1117 C 0.82597 0.66226 0.18173
 C1118 C 0.84213 0.64703 0.16326
 C1119 C 0.84342 0.65820 0.13885
 C1120 C 0.82775 0.68488 0.13315
 C1121 C 0.81109 0.69992 0.15159
 C1122 C 0.81009 0.68881 0.17613
 C1123 C 0.85943 0.64018 0.11970
 C1124 C 0.87238 0.65141 0.09903
 C1125 C 0.88769 0.63154 0.08069
 C1126 C 0.91442 0.64085 0.06839
 C1127 C 0.93035 0.62097 0.05278
 C1128 C 0.91953 0.59159 0.04912
 C1129 C 0.89169 0.58320 0.06016
 C1130 C 0.87600 0.60285 0.07566
 H1131 H 0.82563 0.65301 0.20037
 H1132 H 0.85375 0.62637 0.16808
 H1133 H 0.82771 0.69375 0.11439
 H1134 H 0.79917 0.72037 0.14668
 H1135 H 0.86166 0.61639 0.12346
 H1136 H 0.87324 0.67543 0.09613
 H1137 H 0.92363 0.66305 0.07167
 H1138 H 0.95167 0.62811 0.04449
 H1139 H 0.88227 0.56099 0.05731
 H1140 H 0.85483 0.59536 0.08399
 C1141 C 0.34682 1.17453 0.68548
 C1142 C 0.36408 1.15948 0.66755
 C1143 C 0.36294 1.16812 0.64244
 C1144 C 0.34417 1.19234 0.63556
 C1145 C 0.32652 1.20719 0.65348
 C1146 C 0.32746 1.19832 0.67866
 C1147 C 0.37894 1.14932 0.62382
 C1148 C 0.38925 1.15908 0.60169
 C1149 C 0.40235 1.13780 0.58333
 C1150 C 0.42819 1.14538 0.56909
 C1151 C 0.44165 1.12411 0.55313
 C1152 C 0.42910 1.09515 0.55101
 C1153 C 0.40211 1.08854 0.56415
 C1154 C 0.38900 1.10948 0.58005
 H1155 H 0.34819 1.16707 0.70464
 H1156 H 0.37816 1.14072 0.67330
 H1157 H 0.34221 1.19911 0.61627
 H1158 H 0.31188 1.22543 0.64753
 H1159 H 0.38260 1.12604 0.62881
 H1160 H 0.38874 1.18275 0.59721
 H1161 H 0.43860 1.16730 0.57108
 H1162 H 0.46236 1.12990 0.54323
 H1163 H 0.39135 1.06672 0.56262
 H1164 H 0.36845 1.10338 0.59005
 C1165 C 0.83598 0.32935 -0.18141
 C1166 C 0.85651 0.34079 -0.16401
 C1167 C 0.85584 0.33131 -0.13913
 C1168 C 0.83346 0.31040 -0.13182
 C1169 C 0.81286 0.29861 -0.14945
 C1170 C 0.81423 0.30766 -0.17457
 C1171 C 0.87937 0.34398 -0.12219
 C1172 C 0.87746 0.34565 -0.09727
 C1173 C 0.89868 0.36499 -0.08262
 C1174 C 0.90445 0.35913 -0.05726
 C1175 C 0.92207 0.37916 -0.04287
 C1176 C 0.93360 0.40552 -0.05366
 C1177 C 0.92856 0.41078 -0.07908
 C1178 C 0.91125 0.39103 -0.09330
 H1179 H 0.83782 0.33703 -0.20048
 H1180 H 0.87326 0.35708 -0.17015
 H1181 H 0.83235 0.30242 -0.11283
 H1182 H 0.79654 0.28179 -0.14358
 H1183 H 0.89875 0.35436 -0.13125
 H1184 H 0.85915 0.33442 -0.08750
 H1185 H 0.89474 0.33946 -0.04848
 H1186 H 0.92527 0.37489 -0.02318
 H1187 H 0.93703 0.43104 -0.08783
 H1188 H 0.90650 0.39728 -0.11238
 C1189 C 0.32413 0.83717 0.31941
 C1190 C 0.34004 0.85255 0.33800
 C1191 C 0.34305 0.84041 0.36198
 C1192 C 0.32920 0.81262 0.36719
 C1193 C 0.31279 0.79735 0.34860
 C1194 C 0.31024 0.80941 0.32445
 C1195 C 0.35907 0.85850 0.38115
 C1196 C 0.37328 0.84733 0.40135
 C1197 C 0.38892 0.86745 0.41942
 C1198 C 0.41626 0.85863 0.43120
 C1199 C 0.43252 0.87886 0.44639
 C1200 C 0.42151 0.90815 0.44998
 C1201 C 0.39314 0.91603 0.43951
 C1202 C 0.37702 0.89598 0.42459
 H1203 H 0.32249 0.84720 0.30108
 H1204 H 0.35018 0.87407 0.33356
 H1205 H 0.33047 0.80297 0.38565
 H1206 H 0.30239 0.77597 0.35305
 H1207 H 0.36039 0.88240 0.37765
 H1208 H 0.37504 0.82332 0.40393
 H1209 H 0.42563 0.83653 0.42785
 H1210 H 0.45414 0.87206 0.45443
 H1211 H 0.38353 0.93812 0.44247
 H1212 H 0.35535 0.90307 0.41680
 C1213 C 1.13471 1.19020 0.30840
 C1214 C 1.11551 1.17222 0.32274
 C1215 C 1.12662 1.15844 0.34434
 C1216 C 1.15657 1.16475 0.35247
 C1217 C 1.17565 1.18321 0.33834
 C1218 C 1.16513 1.19530 0.31579
 C1219 C 1.10681 1.13726 0.35786
 C1220 C 1.11802 1.11201 0.36777
 C1221 C 1.09995 1.09136 0.38338
 C1222 C 1.11560 1.07487 0.40158
 C1223 C 1.09955 1.05782 0.41882
 C1224 C 1.06759 1.05634 0.41782
 C1225 C 1.05182 1.07088 0.39857
 C1226 C 1.06793 1.08849 0.38142
 H1227 H 1.12599 1.19957 0.29117
 H1228 H 1.09238 1.16802 0.31640
 H1229 H 1.16535 1.15510 0.36956
 H1230 H 1.19898 1.18686 0.34443
 H1231 H 1.08271 1.14242 0.35916
 H1232 H 1.14219 1.10726 0.36586
 H1233 H 1.14023 1.07642 0.40328
 H1234 H 1.11203 1.04660 0.43358
 H1235 H 1.02711 1.06995 0.39764
 H1236 H 1.05527 1.10019 0.36707
 C1237 C 0.63527 0.68064 -0.19973
 C1238 C 0.61699 0.66178 -0.18537
 C1239 C 0.62592 0.65406 -0.16119
 C1240 C 0.65247 0.66704 -0.15095
 C1241 C 0.67065 0.68611 -0.16522
 C1242 C 0.66261 0.69254 -0.18995
 C1243 C 0.60730 0.63248 -0.14699
 C1244 C 0.62018 0.61300 -0.13123
 C1245 C 0.60255 0.59359 -0.11438
 C1246 C 0.61554 0.58687 -0.09122
 C1247 C 0.59914 0.57067 -0.07370
 C1248 C 0.56962 0.56026 -0.07918
 C1249 C 0.55706 0.56538 -0.10284
 C1250 C 0.57336 0.58225 -0.12036
 H1251 H 0.62827 0.68544 -0.21867
 H1252 H 0.59638 0.65238 -0.19345
 H1253 H 0.65932 0.66237 -0.13196
 H1254 H 0.69145 0.69506 -0.15713
 H1255 H 0.58278 0.63270 -0.14972
 H1256 H 0.64480 0.61289 -0.12904
 H1257 H 0.63808 0.59509 -0.08634
 H1258 H 0.60947 0.56650 -0.05566
 H1259 H 0.53440 0.55727 -0.10741
 H1260 H 0.56314 0.58642 -0.13840
 C1261 C 0.81890 1.18070 0.64882
 C1262 C 0.83735 1.16464 0.63239
 C1263 C 0.86517 1.15232 0.64052
 C1264 C 0.87496 1.15752 0.66506
 C1265 C 0.85652 1.17332 0.68146
 C1266 C 0.82811 1.18465 0.67364
 C1267 C 0.88366 1.13479 0.62287
 C1268 C 0.90466 1.11459 0.63001
 C1269 C 0.92284 1.09738 0.61192
 C1270 C 0.93408 1.06892 0.61846
 C1271 C 0.94972 1.05153 0.60097
 C1272 C 0.95404 1.06251 0.57678
 C1273 C 0.94427 1.09156 0.57075
 C1274 C 0.92913 1.10896 0.58818
 H1275 H 0.79715 1.18931 0.64231
 H1276 H 0.82959 1.16131 0.61341
 H1277 H 0.89688 1.14965 0.67171
 H1278 H 0.86454 1.17660 0.70036
 H1279 H 0.87858 1.13771 0.60328
 H1280 H 0.90757 1.10914 0.64950
 H1281 H 0.92998 1.05982 0.63685
 H1282 H 0.95737 1.02924 0.60601
 H1283 H 0.94822 1.10084 0.55238
 H1284 H 0.92232 1.13140 0.58289
 C1285 C 0.31268 0.68239 0.14453
 C1286 C 0.32723 0.66348 0.12758
 C1287 C 0.35053 0.64402 0.13552
 C1288 C 0.35929 0.64404 0.16069
 C1289 C 0.34497 0.66295 0.17751
 C1290 C 0.32114 0.68195 0.16977
 C1291 C 0.36388 0.62285 0.11748
 C1292 C 0.39141 0.61017 0.12065
 C1293 C 0.40508 0.58847 0.10314
 C1294 C 0.43128 0.57267 0.11069
 C1295 C 0.44632 0.55356 0.09420
 C1296 C 0.43540 0.55003 0.06979
 C1297 C 0.40854 0.56494 0.06255
 C1298 C 0.39365 0.58406 0.07892
 H1299 H 0.29427 0.69663 0.13803
 H1300 H 0.31997 0.66371 0.10828
 H1301 H 0.37632 0.62873 0.16785
 H1302 H 0.35201 0.66188 0.19684
 H1303 H 0.35014 0.61781 0.10129
 H1304 H 0.40510 0.61599 0.13674
 H1305 H 0.44057 0.57563 0.12925
 H1306 H 0.46707 0.54252 0.10030
 H1307 H 0.39951 0.56276 0.04385
 H1308 H 0.37398 0.59600 0.07192
 C1309 C 1.15865 0.83621 0.69994
 C1310 C 1.14143 0.85518 0.68488
 C1311 C 1.14800 0.85787 0.65959
 C1312 C 1.17134 0.84025 0.64921
 C1313 C 1.18831 0.82062 0.66417
 C1314 C 1.18260 0.81863 0.68996
 C1315 C 1.12968 0.87884 0.64452
 C1316 C 1.14210 0.89549 0.62650
 C1317 C 1.12423 0.91576 0.61025
 C1318 C 1.13638 0.92286 0.58692
 C1319 C 1.11933 0.93928 0.56980
 C1320 C 1.08981 0.94929 0.57574
 C1321 C 1.07835 0.94411 0.59971
 C1322 C 1.09543 0.92742 0.61689
 H1323 H 1.15285 0.83542 0.71953
 H1324 H 1.12329 0.86832 0.69314
 H1325 H 1.17625 0.84138 0.62949
 H1326 H 1.20616 0.80749 0.65551
 H1327 H 1.10573 0.88097 0.64904
 H1328 H 1.16625 0.89308 0.62259
 H1329 H 1.15868 0.91464 0.58151
 H1330 H 1.12897 0.94340 0.55156
 H1331 H 1.05574 0.95180 0.60477
 H1332 H 1.08578 0.92344 0.63509
 C1333 C 0.64337 0.32233 0.19261
 C1334 C 0.62598 0.34184 0.17811
 C1335 C 0.63854 0.35492 0.15679
 C1336 C 0.66810 0.34662 0.14920
 C1337 C 0.68536 0.32663 0.16350
 C1338 C 0.67338 0.31498 0.18567
 C1339 C 0.62028 0.37697 0.14279
 C1340 C 0.63304 0.40091 0.13200
 C1341 C 0.61575 0.42155 0.11581
 C1342 C 0.63111 0.43473 0.09578
 C1343 C 0.61494 0.45081 0.07786
 C1344 C 0.58321 0.45448 0.07995
 C1345 C 0.56816 0.44365 0.10115
 C1346 C 0.58432 0.42712 0.11897
 H1347 H 0.63356 0.31339 0.20955
 H1348 H 0.60308 0.34759 0.18402
 H1349 H 0.67793 0.35567 0.13231
 H1350 H 0.70843 0.32125 0.15779
 H1351 H 0.59584 0.37338 0.14169
 H1352 H 0.65753 0.40421 0.13340
 H1353 H 0.65538 0.43113 0.09320
 H1354 H 0.62707 0.45934 0.06180
 H1355 H 0.54369 0.44639 0.10317
 H1356 H 0.57207 0.41813 0.13477
 C1357 C 0.82026 0.85449 0.32033
 C1358 C 0.83835 0.87226 0.33572
 C1359 C 0.85126 0.86019 0.35734
 C1360 C 0.84413 0.83052 0.36429
 C1361 C 0.82549 0.81280 0.34901
 C1362 C 0.81420 0.82449 0.32658
 C1363 C 0.87221 0.87919 0.37193
 C1364 C 0.89641 0.86805 0.38400
 C1365 C 0.91729 0.88710 0.39863
 C1366 C 0.93050 0.87498 0.42013
 C1367 C 0.94808 0.89294 0.43577
 C1368 C 0.95330 0.92322 0.42990
 C1369 C 0.94184 0.93495 0.40754
 C1370 C 0.92379 0.91701 0.39200
 H1371 H 0.81136 0.86410 0.30326
 H1372 H 0.84318 0.89516 0.33024
 H1373 H 0.85302 0.82097 0.38136
 H1374 H 0.82089 0.78975 0.35420
 H1375 H 0.86823 0.90315 0.37172
 H1376 H 0.90035 0.84407 0.38421
 H1377 H 0.92617 0.85190 0.42536
 H1378 H 0.95709 0.88329 0.45278
 H1379 H 0.94574 0.95820 0.40264
 H1380 H 0.91476 0.92665 0.37501
 C1381 C 0.31563 0.35843 -0.17167
 C1382 C 0.33573 0.37463 -0.15671
 C1383 C 0.35362 0.35985 -0.13889
 C1384 C 0.34899 0.32902 -0.13458
 C1385 C 0.32835 0.31286 -0.14930
 C1386 C 0.31251 0.32734 -0.16854
 C1387 C 0.37752 0.37711 -0.12591
 C1388 C 0.40448 0.36517 -0.11955
 C1389 C 0.42815 0.38285 -0.10669
 C1390 C 0.44517 0.36912 -0.08777
 C1391 C 0.46424 0.38630 -0.07261
 C1392 C 0.46711 0.41730 -0.07660
 C1393 C 0.45247 0.43053 -0.09707
 C1394 C 0.43292 0.41342 -0.11200
 H1395 H 0.30348 0.36994 -0.18646
 H1396 H 0.33860 0.39843 -0.16003
 H1397 H 0.36180 0.31729 -0.12032
 H1398 H 0.32625 0.28884 -0.14673
 H1399 H 0.37333 0.40074 -0.12275
 H1400 H 0.40878 0.34154 -0.12257
 H1401 H 0.44217 0.34551 -0.08367
 H1402 H 0.47553 0.37566 -0.05694
 H1403 H 0.45434 0.45443 -0.10041
 H1404 H 0.42079 0.42431 -0.12709
 C1405 C 1.14500 0.32450 -0.18304
 C1406 C 1.12379 0.33607 -0.16630
 C1407 C 1.12906 0.33495 -0.14054
 C1408 C 1.15613 0.32135 -0.13182
 C1409 C 1.17746 0.30956 -0.14869
 C1410 C 1.17229 0.31135 -0.17454
 C1411 C 1.10684 0.35059 -0.12417
 C1412 C 1.10648 0.34987 -0.09914
 C1413 C 1.08654 0.37038 -0.08456
 C1414 C 1.07606 0.36228 -0.06072
 C1415 C 1.05865 0.38245 -0.04644
 C1416 C 1.05203 0.41124 -0.05566
 C1417 C 1.06229 0.41900 -0.07959
 C1418 C 1.07937 0.39905 -0.09372
 H1419 H 1.13997 0.32608 -0.20275
 H1420 H 1.10327 0.34646 -0.17364
 H1421 H 1.16137 0.32039 -0.11216
 H1422 H 1.19820 0.29951 -0.14149
 H1423 H 1.08991 0.36421 -0.13361
 H1424 H 1.12115 0.33460 -0.08903
 H1425 H 1.08155 0.34044 -0.05309
 H1426 H 1.05127 0.37593 -0.02799
 H1427 H 1.05763 0.44096 -0.08736
 H1428 H 1.08783 0.40671 -0.11153
 C1429 C 0.68775 0.80890 0.35667
 C1430 C 0.66999 0.81947 0.37632
 C1431 C 0.64105 0.83191 0.37194
 C1432 C 0.63032 0.83389 0.34724
 C1433 C 0.64826 0.82346 0.32745
 C1434 C 0.67721 0.81079 0.33195
 C1435 C 0.62425 0.84472 0.39342
 C1436 C 0.59400 0.84985 0.39385
 C1437 C 0.57893 0.86657 0.41440
 C1438 C 0.54729 0.86341 0.41837
 C1439 C 0.53203 0.88185 0.43551
 C1440 C 0.54821 0.90398 0.44861
 C1441 C 0.57992 0.90627 0.44540
 C1442 C 0.59511 0.88790 0.42854
 H1443 H 0.70991 0.79937 0.36092
 H1444 H 0.67900 0.81801 0.39510
 H1445 H 0.60850 0.84411 0.34304
 H1446 H 0.63943 0.82525 0.30865
 H1447 H 0.63777 0.84995 0.40976
 H1448 H 0.57979 0.84205 0.37864
 H1449 H 0.53421 0.84738 0.40756
 H1450 H 0.50745 0.88015 0.43730
 H1451 H 0.59278 0.92351 0.45506
 H1452 H 0.61920 0.89191 0.42564
 C1453 C 0.78612 0.68224 -0.15392
 C1454 C 0.80081 0.66862 -0.13376
 C1455 C 0.83119 0.65898 -0.13569
 C1456 C 0.84634 0.66229 -0.15863
 C1457 C 0.83143 0.67557 -0.17900
 C1458 C 0.80126 0.68601 -0.17676
 C1459 C 0.84543 0.64398 -0.11389
 C1460 C 0.87564 0.64345 -0.10938
 C1461 C 0.88943 0.62614 -0.08847
 C1462 C 0.91863 0.63388 -0.07948
 C1463 C 0.93348 0.61589 -0.06170
 C1464 C 0.91950 0.58957 -0.05298
 C1465 C 0.88986 0.58254 -0.06124
 C1466 C 0.87503 0.60049 -0.07875
 H1467 H 0.76280 0.68984 -0.15158
 H1468 H 0.78845 0.66590 -0.11646
 H1469 H 0.86946 0.65424 -0.16100
 H1470 H 0.84370 0.67819 -0.19635
 H1471 H 0.83002 0.63382 -0.10062
 H1472 H 0.89088 0.65613 -0.12124
 H1473 H 0.93035 0.65340 -0.08675
 H1474 H 0.95650 0.62157 -0.05593
 H1475 H 0.87858 0.56229 -0.05493
 H1476 H 0.85298 0.59315 -0.08556
 C1477 C 0.29261 1.18618 0.34946
 C1478 C 0.30824 1.17411 0.36979
 C1479 C 0.33798 1.16294 0.36715
 C1480 C 0.35153 1.16328 0.34339
 C1481 C 0.33569 1.17515 0.32287
 C1482 C 0.30615 1.18701 0.32576
 C1483 C 0.35294 1.14933 0.38925
 C1484 C 0.38328 1.14632 0.39211
 C1485 C 0.39717 1.12956 0.41327
 C1486 C 0.42788 1.13470 0.41990
 C1487 C 0.44251 1.11649 0.43765
 C1488 C 0.42669 1.09258 0.44870
 C1489 C 0.39566 1.08841 0.44296
 C1490 C 0.38109 1.10653 0.42545
 H1491 H 0.26983 1.19495 0.35235
 H1492 H 0.29708 1.17370 0.38776
 H1493 H 0.37407 1.15401 0.34049
 H1494 H 0.34676 1.17551 0.30487
 H1495 H 0.33796 1.14210 0.40407
 H1496 H 0.39854 1.15615 0.37854
 H1497 H 0.44086 1.15214 0.41069
 H1498 H 0.46658 1.11985 0.44149
 H1499 H 0.38300 1.06999 0.45110
 H1500 H 0.35776 1.10109 0.42054
 C1501 C 1.19343 0.69056 0.14009
 C1502 C 1.17583 0.68045 0.12005
 C1503 C 1.14677 0.66803 0.12390
 C1504 C 1.13585 0.66541 0.14845
 C1505 C 1.15364 0.67533 0.16860
 C1506 C 1.18260 0.68816 0.16464
 C1507 C 1.12992 0.65596 0.10206
 C1508 C 1.09954 0.65162 0.10128
 C1509 C 1.08399 0.63546 0.08055
 C1510 C 1.05230 0.63890 0.07694
 C1511 C 1.03639 0.62055 0.06003
 C1512 C 1.05197 0.59821 0.04681
 C1513 C 1.08378 0.59588 0.04943
 C1514 C 1.09963 0.61419 0.06606
 H1515 H 1.21566 0.70019 0.13629
 H1516 H 1.18500 0.68234 0.10141
 H1517 H 1.11396 0.65512 0.15223
 H1518 H 1.14460 0.67317 0.18726
 H1519 H 1.14345 0.65067 0.08583
 H1520 H 1.08551 0.65957 0.11646
 H1521 H 1.03964 0.65494 0.08797
 H1522 H 1.01176 0.62235 0.05865
 H1523 H 1.09622 0.57855 0.03961
 H1524 H 1.12377 0.61005 0.06859
 C1525 C 0.69933 1.18389 0.64241
 C1526 C 0.68265 1.17237 0.62237
 C1527 C 0.65297 1.16130 0.62579
 C1528 C 0.64045 1.16137 0.64990
 C1529 C 0.65733 1.17257 0.67008
 C1530 C 0.68692 1.18410 0.66652
 C1531 C 0.63692 1.14768 0.60423
 C1532 C 0.60640 1.14564 0.60218
 C1533 C 0.59115 1.12826 0.58208
 C1534 C 0.56070 1.13469 0.57547
 C1535 C 0.54467 1.11610 0.55886
 C1536 C 0.55876 1.09047 0.54903
 C1537 C 0.58951 1.08478 0.55483
 C1538 C 0.60552 1.10338 0.57112
 H1539 H 0.72211 1.19245 0.63900
 H1540 H 0.69299 1.17214 0.60407
 H1541 H 0.61798 1.15216 0.65335
 H1542 H 0.64711 1.17246 0.68841
 H1543 H 0.65110 1.13930 0.58930
 H1544 H 0.59203 1.15663 0.61577
 H1545 H 0.54902 1.15357 0.58380
 H1546 H 0.52084 1.12066 0.55494
 H1547 H 0.60082 1.06503 0.54761
 H1548 H 0.62858 1.09705 0.57616
 C1549 C 0.79821 0.31987 0.15538
 C1550 C 0.81393 0.33370 0.13593
 C1551 C 0.84452 0.34246 0.13884
 C1552 C 0.85891 0.33787 0.16201
 C1553 C 0.84293 0.32445 0.18173
 C1554 C 0.81247 0.31503 0.17852
 C1555 C 0.85974 0.35778 0.11770
 C1556 C 0.88988 0.35628 0.11299
 C1557 C 0.90503 0.37231 0.09192
 C1558 C 0.93712 0.37491 0.09186
 C1559 C 0.95203 0.39239 0.07385
 C1560 C 0.93504 0.40754 0.05562
 C1561 C 0.90331 0.40364 0.05469
 C1562 C 0.88846 0.38590 0.07236
 H1563 H 0.77471 0.31311 0.15232
 H1564 H 0.80220 0.33733 0.11839
 H1565 H 0.88221 0.34513 0.16509
 H1566 H 0.85451 0.32104 0.19936
 H1567 H 0.84483 0.37023 0.10546
 H1568 H 0.90431 0.34336 0.12540
 H1569 H 0.95059 0.36447 0.10642
 H1570 H 0.97654 0.39557 0.07509
 H1571 H 0.88985 0.41531 0.04077
 H1572 H 0.86398 0.38372 0.07072
 C1573 C 0.34799 0.82348 0.69158
 C1574 C 0.36676 0.83741 0.67406
 C1575 C 0.36077 0.83484 0.64850
 C1576 C 0.33536 0.81794 0.64072
 C1577 C 0.31631 0.80407 0.65824
 C1578 C 0.32218 0.80666 0.68409
 C1579 C 0.37979 0.85257 0.63103
 C1580 C 0.38240 0.84733 0.60648
 C1581 C 0.39847 0.86881 0.58987
 C1582 C 0.41416 0.85888 0.56859
 C1583 C 0.42898 0.87950 0.55284
 C1584 C 0.42775 0.91042 0.55794
 C1585 C 0.41148 0.92008 0.57903
 C1586 C 0.39707 0.89970 0.59465
 H1587 H 0.35380 0.82626 0.71107
 H1588 H 0.38601 0.85057 0.68059
 H1589 H 0.32955 0.81609 0.62119
 H1590 H 0.29687 0.79146 0.65135
 H1591 H 0.39231 0.87122 0.63902
 H1592 H 0.37271 0.82724 0.59836
 H1593 H 0.41520 0.83517 0.56430
 H1594 H 0.44112 0.87133 0.53668
 H1595 H 0.40972 0.94365 0.58364
 H1596 H 0.38430 0.90835 0.61030
 C1597 C 0.31237 1.20544 -0.14290
 C1598 C 0.32285 1.18775 -0.12314
 C1599 C 0.33580 1.15947 -0.12749
 C1600 C 0.33900 1.14963 -0.15226
 C1601 C 0.32880 1.16752 -0.17210
 C1602 C 0.31507 1.19551 -0.16764
 C1603 C 0.34750 1.14203 -0.10588
 C1604 C 0.35133 1.11209 -0.10578
 C1605 C 0.36660 1.09563 -0.08503
 C1606 C 0.36270 1.06436 -0.08276
 C1607 C 0.38030 1.04771 -0.06571
 C1608 C 0.40233 1.06213 -0.05094
 C1609 C 0.40507 1.09345 -0.05228
 C1610 C 0.38752 1.11001 -0.06905
 H1611 H 0.30201 1.22691 -0.13874
 H1612 H 0.32055 1.19612 -0.10431
 H1613 H 0.34975 1.12839 -0.15641
 H1614 H 0.33115 1.15915 -0.19092
 H1615 H 0.35260 1.15467 -0.08919
 H1616 H 0.34348 1.09906 -0.12156
 H1617 H 0.34693 1.05265 -0.09492
 H1618 H 0.37826 1.02351 -0.06537
 H1619 H 0.42227 1.10498 -0.04131
 H1620 H 0.39206 1.13378 -0.07047
 C1621 C 0.81449 0.70299 0.35455
 C1622 C 0.82575 0.68612 0.37445
 C1623 C 0.83614 0.65670 0.37087
 C1624 C 0.83603 0.64481 0.34656
 C1625 C 0.82494 0.66187 0.32649
 C1626 C 0.81367 0.69104 0.33033
 C1627 C 0.84847 0.64023 0.39278
 C1628 C 0.85122 0.61024 0.39431
 C1629 C 0.86657 0.59482 0.41560
 C1630 C 0.86211 0.56383 0.41930
 C1631 C 0.87959 0.54798 0.43694
 C1632 C 0.90198 0.56293 0.45097
 C1633 C 0.90521 0.59407 0.44829
 C1634 C 0.88788 0.60983 0.43085
 H1635 H 0.80613 0.72540 0.35822
 H1636 H 0.82601 0.69606 0.39285
 H1637 H 0.84475 0.62257 0.34291
 H1638 H 0.82455 0.65199 0.30808
 H1639 H 0.85482 0.65383 0.40863
 H1640 H 0.84225 0.59636 0.37947
 H1641 H 0.84602 0.55163 0.40776
 H1642 H 0.87718 0.52386 0.43831
 H1643 H 0.92270 0.60599 0.45865
 H1644 H 0.89292 0.63337 0.42842
 C1645 C 0.68299 1.19899 0.15195
 C1646 C 0.67093 1.18316 0.13178
 C1647 C 0.66042 1.15367 0.13469
 C1648 C 0.66168 1.14039 0.15845
 C1649 C 0.67340 1.15643 0.17883
 C1650 C 0.68432 1.18591 0.17577
 C1651 C 0.64574 1.13877 0.11309
 C1652 C 0.64513 1.10897 0.10947
 C1653 C 0.62686 1.09495 0.08917
 C1654 C 0.63444 1.06624 0.08019
 C1655 C 0.61556 1.05166 0.06273
 C1656 C 0.58859 1.06548 0.05436
 C1657 C 0.58162 1.09446 0.06279
 C1658 C 0.60032 1.10894 0.08000
 H1659 H 0.69124 1.22159 0.14885
 H1660 H 0.66987 1.19400 0.11374
 H1661 H 0.65295 1.11796 0.16144
 H1662 H 0.67425 1.14563 0.19689
 H1663 H 0.63535 1.15337 0.09937
 H1664 H 0.65817 1.09446 0.12169
 H1665 H 0.65458 1.05481 0.08713
 H1666 H 0.62119 1.02912 0.05679
 H1667 H 0.56086 1.10559 0.05675
 H1668 H 0.59293 1.13047 0.08699
 C1669 C 1.18335 0.70317 0.64981
 C1670 C 1.17179 0.68763 0.62921
 C1671 C 1.16060 0.65827 0.63172
 C1672 C 1.16012 0.64514 0.65554
 C1673 C 1.17132 0.66084 0.67624
 C1674 C 1.18344 0.68991 0.67358
 C1675 C 1.14767 0.64301 0.60948
 C1676 C 1.14611 0.61305 0.60680
 C1677 C 1.12939 0.59820 0.58598
 C1678 C 1.13538 0.56794 0.58021
 C1679 C 1.11708 0.55236 0.56296
 C1680 C 1.09223 0.56676 0.55153
 C1681 C 1.08713 0.59726 0.55647
 C1682 C 1.10536 0.61278 0.57343
 H1683 H 1.19240 0.72553 0.64707
 H1684 H 1.17192 0.69848 0.61116
 H1685 H 1.15070 0.62295 0.65833
 H1686 H 1.17108 0.64994 0.69426
 H1687 H 1.13954 0.65736 0.59462
 H1688 H 1.15701 0.59876 0.62049
 H1689 H 1.15354 0.55605 0.58975
 H1690 H 1.12110 0.52870 0.55979
 H1691 H 1.06790 0.60878 0.54805
 H1692 H 1.09921 0.63568 0.57767
 C1693 C 0.67172 0.80598 -0.15505
 C1694 C 0.65898 0.82177 -0.13516
 C1695 C 0.65456 0.85289 -0.13661
 C1696 C 0.66217 0.86783 -0.15884
 C1697 C 0.67447 0.85189 -0.17897
 C1698 C 0.67970 0.82084 -0.17717
 C1699 C 0.64046 0.86841 -0.11507
 C1700 C 0.64570 0.89726 -0.10901
 C1701 C 0.63036 0.91282 -0.08784
 C1702 C 0.62970 0.94440 -0.08740
 C1703 C 0.61225 0.95977 -0.06963
 C1704 C 0.59530 0.94374 -0.05198
 C1705 C 0.59768 0.91243 -0.05120
 C1706 C 0.61528 0.89710 -0.06868
 H1707 H 0.67529 0.78205 -0.15311
 H1708 H 0.65290 0.80965 -0.11841
 H1709 H 0.65822 0.89165 -0.16089
 H1710 H 0.68047 0.86397 -0.19576
 H1711 H 0.62538 0.85492 -0.10379
 H1712 H 0.66089 0.91045 -0.12051
 H1713 H 0.64136 0.95719 -0.10166
 H1714 H 0.61024 0.98394 -0.07082
 H1715 H 0.58464 0.89970 -0.03770
 H1716 H 0.61608 0.87295 -0.06737
 C1717 C 1.16975 0.35059 0.31418
 C1718 C 1.15863 0.37104 0.33150
 C1719 C 1.16345 0.36686 0.35711
 C1720 C 1.17960 0.34121 0.36505
 C1721 C 1.19097 0.32064 0.34755
 C1722 C 1.18628 0.32519 0.32186
 C1723 C 1.14997 0.38950 0.37419
 C1724 C 1.15033 0.38869 0.39923
 C1725 C 1.13137 0.40962 0.41431
 C1726 C 1.13944 0.41654 0.43908
 C1727 C 1.12005 0.43412 0.45402
 C1728 C 1.09210 0.44451 0.44443
 C1729 C 1.08464 0.43832 0.41953
 C1730 C 1.10376 0.42101 0.40477
 H1731 H 1.16565 0.35505 0.29463
 H1732 H 1.14608 0.39036 0.32474
 H1733 H 1.18369 0.33690 0.38457
 H1734 H 1.20375 0.30140 0.35412
 H1735 H 1.13812 0.40787 0.36521
 H1736 H 1.16370 0.37204 0.40902
 H1737 H 1.16040 0.40780 0.44701
 H1738 H 1.12613 0.43829 0.47327
 H1739 H 1.06321 0.44597 0.41163
 H1740 H 1.09587 0.41544 0.38624
 C1741 C 0.34224 0.82954 0.17789
 C1742 C 0.35644 0.84765 0.16014
 C1743 C 0.34424 0.85033 0.13605
 C1744 C 0.31777 0.83411 0.12982
 C1745 C 0.30382 0.81557 0.14747
 C1746 C 0.31587 0.81315 0.17171
 C1747 C 0.36111 0.86826 0.11748
 C1748 C 0.34816 0.88196 0.09784
 C1749 C 0.36719 0.89819 0.07952
 C1750 C 0.35766 0.92580 0.06951
 C1751 C 0.37745 0.94258 0.05435
 C1752 C 0.40681 0.93169 0.04899
 C1753 C 0.41515 0.90303 0.05749
 C1754 C 0.39561 0.88649 0.07251
 H1755 H 0.35208 0.82814 0.19638
 H1756 H 0.37704 0.85969 0.16525
 H1757 H 0.30826 0.83511 0.11122
 H1758 H 0.28342 0.80334 0.14219
 H1759 H 0.38546 0.87087 0.12057
 H1760 H 0.32355 0.88238 0.09572
 H1761 H 0.33558 0.93499 0.07438
 H1762 H 0.37041 0.96452 0.04786
 H1763 H 0.43731 0.89365 0.05312
 H1764 H 0.40307 0.86473 0.07912
 C1765 C 0.84352 0.32893 0.67979
 C1766 C 0.85774 0.34735 0.66228
 C1767 C 0.84565 0.35038 0.63819
 C1768 C 0.81927 0.33413 0.63170
 C1769 C 0.80530 0.31525 0.64912
 C1770 C 0.81723 0.31255 0.67338
 C1771 C 0.86258 0.36872 0.61992
 C1772 C 0.84975 0.38288 0.60045
 C1773 C 0.86888 0.39961 0.58247
 C1774 C 0.85922 0.42727 0.57262
 C1775 C 0.87893 0.44434 0.55759
 C1776 C 0.90838 0.43370 0.55217
 C1777 C 0.91694 0.40507 0.56065
 C1778 C 0.89747 0.38824 0.57552
 H1779 H 0.85329 0.32730 0.69829
 H1780 H 0.87827 0.35938 0.66760
 H1781 H 0.80985 0.33540 0.61308
 H1782 H 0.78496 0.30302 0.64368
 H1783 H 0.88690 0.37133 0.62316
 H1784 H 0.82515 0.38329 0.59824
 H1785 H 0.83701 0.43621 0.57744
 H1786 H 0.87170 0.46624 0.55115
 H1787 H 0.93916 0.39584 0.55625
 H1788 H 0.90506 0.36646 0.58196
 C1789 C 1.19570 1.20071 0.64839
 C1790 C 1.17905 1.18477 0.63049
 C1791 C 1.16454 1.15776 0.63681
 C1792 C 1.16856 1.14590 0.66081
 C1793 C 1.18504 1.16176 0.67862
 C1794 C 1.19815 1.18966 0.67280
 C1795 C 1.14543 1.14234 0.61814
 C1796 C 1.12120 1.12559 0.62450
 C1797 C 1.10249 1.10914 0.60618
 C1798 C 1.08746 1.08286 0.61369
 C1799 C 1.07112 1.06569 0.59646
 C1800 C 1.06941 1.07473 0.57145
 C1801 C 1.08317 1.10188 0.56427
 C1802 C 1.09944 1.11898 0.58146
 H1803 H 1.20573 1.22208 0.64335
 H1804 H 1.17667 1.19401 0.61193
 H1805 H 1.15899 1.12440 0.66595
 H1806 H 1.18714 1.15228 0.69712
 H1807 H 1.15139 1.14537 0.59877
 H1808 H 1.11529 1.12284 0.64392
 H1809 H 1.08916 1.07512 0.63277
 H1810 H 1.06061 1.04498 0.60258
 H1811 H 1.08176 1.10980 0.54524
 H1812 H 1.10955 1.13981 0.57527
 C1813 C 0.67833 0.69665 0.15350
 C1814 C 0.65998 0.68174 0.13615
 C1815 C 0.64088 0.65812 0.14360
 C1816 C 0.64134 0.64885 0.16861
 C1817 C 0.65959 0.66373 0.18593
 C1818 C 0.67805 0.68800 0.17865
 C1819 C 0.62166 0.64313 0.12468
 C1820 C 0.59636 0.62749 0.13014
 C1821 C 0.57876 0.61132 0.11092
 C1822 C 0.56430 0.58428 0.11719
 C1823 C 0.55030 0.56687 0.09878
 C1824 C 0.55044 0.57640 0.07385
 C1825 C 0.56302 0.60453 0.06798
 C1826 C 0.57696 0.62186 0.08633
 H1827 H 0.69236 0.71519 0.14727
 H1828 H 0.66036 0.68897 0.11689
 H1829 H 0.62803 0.62990 0.17494
 H1830 H 0.65915 0.65618 0.20509
 H1831 H 0.62889 0.64516 0.10550
 H1832 H 0.58898 0.62502 0.14923
 H1833 H 0.56505 0.57598 0.13615
 H1834 H 0.54047 0.54545 0.10389
 H1835 H 0.56291 0.61287 0.04904
 H1836 H 0.58670 0.64326 0.08111
 C1837 C 1.19234 0.80926 0.34541
 C1838 C 1.17778 0.82798 0.36246
 C1839 C 1.15214 0.84478 0.35525
 C1840 C 1.14009 0.84119 0.33118
 C1841 C 1.15465 0.82266 0.31416
 C1842 C 1.18128 0.80707 0.32093
 C1843 C 1.13857 0.86576 0.37320
 C1844 C 1.12273 0.89013 0.36632
 C1845 C 1.10925 0.91043 0.38477
 C1846 C 1.08082 0.92366 0.37984
 C1847 C 1.06609 0.94030 0.39825
 C1848 C 1.07987 0.94403 0.42170
 C1849 C 1.10933 0.93259 0.42587
 C1850 C 1.12394 0.91604 0.40755
 H1851 H 1.21277 0.79738 0.35111
 H1852 H 1.18710 0.83006 0.38109
 H1853 H 1.11949 0.85260 0.32533
 H1854 H 1.14520 0.82084 0.29556
 H1855 H 1.14244 0.86122 0.39277
 H1856 H 1.11844 0.89492 0.34688
 H1857 H 1.06942 0.91997 0.36217
 H1858 H 1.04350 0.94913 0.39448
 H1859 H 1.12088 0.93577 0.44354
 H1860 H 1.14652 0.90725 0.41140
 C1861 C 0.64978 0.31627 -0.18560
 C1862 C 0.63385 0.33556 -0.17000
 C1863 C 0.64777 0.34677 -0.14845
 C1864 C 0.67712 0.33669 -0.14169
 C1865 C 0.69292 0.31691 -0.15714
 C1866 C 0.67965 0.30734 -0.17956
 C1867 C 0.63110 0.36912 -0.13372
 C1868 C 0.64514 0.39151 -0.12172
 C1869 C 0.62799 0.41345 -0.10687
 C1870 C 0.64099 0.42408 -0.08475
 C1871 C 0.62370 0.44142 -0.06848
 C1872 C 0.59328 0.44875 -0.07433
 C1873 C 0.58118 0.44034 -0.09752
 C1874 C 0.59842 0.42277 -0.11369
 H1875 H 0.63899 0.30884 -0.20270
 H1876 H 0.61108 0.34271 -0.17529
 H1877 H 0.68795 0.34425 -0.12467
 H1878 H 0.71592 0.31019 -0.15215
 H1879 H 0.60639 0.36765 -0.13368
 H1880 H 0.66985 0.39293 -0.12160
 H1881 H 0.66394 0.41757 -0.07941
 H1882 H 0.63375 0.44804 -0.05086
 H1883 H 0.55788 0.44588 -0.10258
 H1884 H 0.58827 0.41584 -0.13117
 C1885 C 0.81195 1.17407 0.35027
 C1886 C 0.82763 1.15491 0.36647
 C1887 C 0.85067 1.13581 0.35760
 C1888 C 0.85824 1.13679 0.33220
 C1889 C 0.84256 1.15584 0.31603
 C1890 C 0.81910 1.17457 0.32481
 C1891 C 0.86672 1.11608 0.37559
 C1892 C 0.88377 1.09227 0.36917
 C1893 C 0.90025 1.07399 0.38785
 C1894 C 0.92820 1.06064 0.38149
 C1895 C 0.94552 1.04549 0.39949
 C1896 C 0.93495 1.04335 0.42409
 C1897 C 0.90606 1.05505 0.42996
 C1898 C 0.88883 1.07007 0.41204
 H1899 H 0.79406 1.18823 0.35765
 H1900 H 0.82156 1.15484 0.38601
 H1901 H 0.87650 1.12335 0.32463
 H1902 H 0.84896 1.15591 0.29657
 H1903 H 0.86436 1.12174 0.39508
 H1904 H 0.88697 1.08646 0.34984
 H1905 H 0.93722 1.06298 0.36283
 H1906 H 0.96767 1.03660 0.39440
 H1907 H 0.89695 1.05316 0.44862
 H1908 H 0.86672 1.07883 0.41729
 C1909 C 0.31517 0.66403 -0.15239
 C1910 C 0.33086 0.64375 -0.13713
 C1911 C 0.34721 0.61971 -0.14749
 C1912 C 0.34688 0.61585 -0.17343
 C1913 C 0.33135 0.63611 -0.18866
 C1914 C 0.31547 0.66056 -0.17837
 C1915 C 0.36362 0.59888 -0.13064
 C1916 C 0.38661 0.58096 -0.13788
 C1917 C 0.40347 0.56168 -0.12012
 C1918 C 0.43457 0.55565 -0.12415
 C1919 C 0.45183 0.54055 -0.10608
 C1920 C 0.43807 0.53123 -0.08380
 C1921 C 0.40646 0.53514 -0.08077
 C1922 C 0.38929 0.55002 -0.09879
 H1923 H 0.30307 0.68251 -0.14386
 H1924 H 0.33047 0.64703 -0.11715
 H1925 H 0.35816 0.59705 -0.18215
 H1926 H 0.33172 0.63242 -0.20858
 H1927 H 0.35749 0.59969 -0.11114
 H1928 H 0.39510 0.58211 -0.15674
 H1929 H 0.44586 0.56397 -0.14069
 H1930 H 0.47616 0.53777 -0.10886
 H1931 H 0.39516 0.52761 -0.06397
 H1932 H 0.36507 0.55297 -0.09566
 C1933 C 0.82472 0.82397 0.65462
 C1934 C 0.84555 0.83876 0.63923
 C1935 C 0.87017 0.85491 0.64942
 C1936 C 0.87354 0.85597 0.67544
 C1937 C 0.85267 0.84131 0.69081
 C1938 C 0.82812 0.82497 0.68060
 C1939 C 0.89227 0.86912 0.63221
 C1940 C 0.91295 0.88992 0.63888
 C1941 C 0.93394 0.90371 0.62060
 C1942 C 0.94353 0.93353 0.62387
 C1943 C 0.96049 0.94803 0.60536
 C1944 C 0.96808 0.93279 0.58337
 C1945 C 0.96054 0.90230 0.58106
 C1946 C 0.94387 0.88783 0.59954
 H1947 H 0.80613 0.81157 0.64612
 H1948 H 0.84251 0.83741 0.61924
 H1949 H 0.89255 0.86741 0.68414
 H1950 H 0.85617 0.84237 0.71076
 H1951 H 0.89050 0.86277 0.61280
 H1952 H 0.91327 0.89878 0.65761
 H1953 H 0.93664 0.94602 0.64020
 H1954 H 0.96612 0.97152 0.60760
 H1955 H 0.96674 0.88984 0.56452
 H1956 H 0.93825 0.86439 0.59700
 C1957 C 0.32742 0.31060 0.15191
 C1958 C 0.34753 0.32527 0.13582
 C1959 C 0.36735 0.34769 0.14470
 C1960 C 0.36603 0.35572 0.16999
 C1961 C 0.34607 0.34100 0.18605
 C1962 C 0.32671 0.31812 0.17727
 C1963 C 0.38841 0.36228 0.12687
 C1964 C 0.41228 0.37957 0.13340
 C1965 C 0.43202 0.39402 0.11464
 C1966 C 0.44451 0.42243 0.11953
 C1967 C 0.46082 0.43772 0.10110
 C1968 C 0.46509 0.42462 0.07758
 C1969 C 0.45439 0.39531 0.07342
 C1970 C 0.43811 0.38014 0.09174
 H1971 H 0.31280 0.29308 0.14456
 H1972 H 0.34783 0.31883 0.11638
 H1973 H 0.38000 0.37347 0.17761
 H1974 H 0.34584 0.34764 0.20544
 H1975 H 0.38384 0.35850 0.10729
 H1976 H 0.41708 0.38448 0.15270
 H1977 H 0.44052 0.43331 0.13725
 H1978 H 0.46899 0.46019 0.10493
 H1979 H 0.45790 0.38427 0.05571
 H1980 H 0.43002 0.35769 0.08780
   
