data_POSCAR
  _audit_creation_date              2014-09-24
  _audit_creation_method            'ToBaCCo'
  _symmetry_space_group_name_H-M    'P1'
  _symmetry_Int_Tables_number       1
  _symmetry_cell_setting            triclinic
  loop_
  _symmetry_equiv_pos_as_xyz
 x,y,z
_cell_length_a 44.8241
_cell_length_b 46.0254
_cell_length_c 45.7556
_cell_angle_alpha 89.522100
_cell_angle_beta 88.509600
_cell_angle_gamma 89.615300
loop_
  _atom_site_label
  _atom_site_type_symbol
  _atom_site_fract_x
  _atom_site_fract_y
  _atom_site_fract_z
C1 C 0.72981 0.63653 0.96682
 H2 H 0.75245 0.63180 0.95950
 C3 C 0.71017 0.64977 0.94781
 H4 H 0.71794 0.65492 0.92577
 C5 C 0.69271 0.63570 1.00470
 H6 H 0.68628 0.63039 1.02704
 C7 C 0.67204 0.64883 0.98614
 H8 H 0.64968 0.65353 0.99434
 N9 N 0.72103 0.63007 0.99473
 C10 C 0.80779 0.63456 1.03429
 H11 H 0.81127 0.61229 1.04121
 C12 C 0.82958 0.65533 1.03922
 H13 H 0.84995 0.64887 1.04977
 C14 C 0.77686 0.67012 1.01238
 H15 H 0.75601 0.67604 1.00256
 C16 C 0.79842 0.69141 1.01617
 H17 H 0.79409 0.71348 1.00900
 Zn18 Zn 0.75178 0.61364 1.01701
 N19 N 0.78182 0.64228 1.02144
 C20 C 0.79464 0.58576 0.98041
 N21 N 0.76781 0.58223 0.99458
 C22 C 0.75067 0.55858 0.98954
 C23 C 0.76007 0.53769 0.96922
 C24 C 0.80472 0.56560 0.95975
 C25 C 0.75152 0.61171 1.07852
 C26 C 0.74428 0.60159 1.10652
 C27 C 0.70659 0.57121 1.08604
 C28 C 0.71504 0.58164 1.05818
 N29 N 0.73770 0.60104 1.05482
 H30 H 0.80761 0.60505 0.98378
 H31 H 0.72904 0.55651 1.00017
 H32 H 0.74567 0.51953 0.96483
 H33 H 0.82575 0.56935 0.94824
 H34 H 0.76847 0.62805 1.07599
 H35 H 0.75637 0.61030 1.12466
 H36 H 0.68876 0.55553 1.08778
 H37 H 0.70340 0.57421 1.03932
 C38 C 0.82491 0.68414 1.03014
 C39 C 0.68092 0.65623 0.95733
 C40 C 0.72179 0.58069 1.11080
 C41 C 0.78702 0.54154 0.95345
 C42 C 0.73791 0.32189 0.54418
 H43 H 0.76077 0.32275 0.55112
 C44 C 0.71858 0.30119 0.55635
 H45 H 0.72694 0.28586 0.57230
 C46 C 0.69885 0.34217 0.51648
 H47 H 0.69103 0.35882 0.50171
 C48 C 0.67860 0.32211 0.52850
 H49 H 0.65551 0.32309 0.52222
 N50 N 0.72783 0.34187 0.52470
 C51 C 0.81111 0.38119 0.49254
 H52 H 0.80459 0.40373 0.49507
 C53 C 0.84042 0.37416 0.48434
 H54 H 0.85630 0.39146 0.48035
 C55 C 0.79836 0.33136 0.49547
 H56 H 0.78192 0.31476 0.50003
 C57 C 0.82745 0.32333 0.48670
 H58 H 0.83321 0.30053 0.48482
 Zn59 Zn 0.75359 0.37292 0.51451
 N60 N 0.79105 0.35991 0.49899
 C61 C 0.78698 0.39533 0.56139
 N62 N 0.75939 0.39314 0.54991
 C63 C 0.73474 0.40330 0.56461
 C64 C 0.73733 0.41656 0.59178
 C65 C 0.79061 0.40863 0.58835
 C66 C 0.72848 0.38622 0.46022
 C67 C 0.71553 0.40376 0.43881
 C68 C 0.71891 0.44462 0.47130
 C69 C 0.73160 0.42631 0.49211
 N70 N 0.73591 0.39763 0.48636
 H71 H 0.80621 0.38615 0.55013
 H72 H 0.71297 0.40072 0.55533
 H73 H 0.71744 0.42438 0.60320
 H74 H 0.81276 0.40977 0.59706
 H75 H 0.73252 0.36341 0.45607
 H76 H 0.70975 0.39418 0.41823
 H77 H 0.71566 0.46738 0.47637
 H78 H 0.73825 0.43514 0.51273
 C79 C 0.84904 0.34493 0.48179
 C80 C 0.68836 0.30158 0.54907
 C81 C 0.71057 0.43341 0.44428
 C82 C 0.76557 0.41936 0.60398
 C83 C 0.21031 -0.17663 0.01523
 H84 H 0.22893 -0.18344 0.02827
 C85 C 0.18127 -0.18478 0.02358
 H86 H 0.17786 -0.19816 0.04291
 C87 C 0.19210 -0.14938 -0.02473
 H88 H 0.19598 -0.13460 -0.04280
 C89 C 0.16287 -0.15703 -0.01725
 H90 H 0.14489 -0.14845 -0.03018
 N91 N 0.21518 -0.15907 -0.00849
 C92 C 0.31046 -0.16488 -0.03215
 H93 H 0.31566 -0.14196 -0.03313
 C94 C 0.33260 -0.18544 -0.03878
 H95 H 0.35476 -0.17801 -0.04481
 C96 C 0.27494 -0.20202 -0.02330
 H97 H 0.25237 -0.20837 -0.01757
 C98 C 0.29640 -0.22333 -0.02977
 H99 H 0.29005 -0.24599 -0.02885
 Zn100 Zn 0.25401 -0.14387 -0.01586
 N101 N 0.28237 -0.17343 -0.02436
 C102 C 0.28995 -0.12916 0.03241
 N103 N 0.26413 -0.12381 0.01827
 C104 C 0.24336 -0.10483 0.02910
 C105 C 0.24809 -0.09035 0.05520
 C106 C 0.29580 -0.11480 0.05840
 C107 C 0.24519 -0.12841 -0.07441
 C108 C 0.24025 -0.10956 -0.09787
 C109 C 0.25555 -0.06963 -0.06787
 C110 C 0.25947 -0.08922 -0.04479
 N111 N 0.25326 -0.11784 -0.04815
 H112 H 0.30588 -0.14480 0.02383
 H113 H 0.22287 -0.10126 0.01757
 H114 H 0.23120 -0.07545 0.06359
 H115 H 0.31634 -0.11950 0.06947
 H116 H 0.24107 -0.15141 -0.07664
 H117 H 0.23271 -0.11876 -0.11803
 H118 H 0.25983 -0.04683 -0.06418
 H119 H 0.26669 -0.08136 -0.02396
 C120 C 0.32568 -0.21515 -0.03766
 C121 C 0.15705 -0.17449 0.00748
 C122 C 0.24453 -0.07942 -0.09462
 C123 C 0.27459 -0.09525 0.07015
 C124 C 0.24767 0.15206 0.44857
 H125 H 0.27063 0.15159 0.44095
 C126 C 0.22812 0.17226 0.43656
 H127 H 0.23653 0.18717 0.41991
 C128 C 0.20884 0.13277 0.47879
 H129 H 0.20136 0.11706 0.49501
 C130 C 0.18838 0.15269 0.46724
 H131 H 0.16534 0.15211 0.47485
 N132 N 0.23787 0.13270 0.46918
 C133 C 0.30823 0.12696 0.52367
 H134 H 0.29336 0.11915 0.54082
 C135 C 0.33517 0.13977 0.53110
 H136 H 0.34028 0.14181 0.55395
 C137 C 0.32027 0.13283 0.47330
 H138 H 0.31489 0.12918 0.45075
 C139 C 0.34738 0.14568 0.47973
 H140 H 0.36226 0.15239 0.46194
 Zn141 Zn 0.26586 0.10496 0.48334
 N142 N 0.30111 0.12401 0.49512
 C143 C 0.30016 0.06020 0.45929
 N144 N 0.27814 0.07957 0.45297
 C145 C 0.26633 0.08101 0.42591
 C146 C 0.27678 0.06239 0.40387
 C147 C 0.31061 0.04068 0.43822
 C148 C 0.23925 0.09555 0.53991
 C149 C 0.22946 0.07873 0.56386
 C150 C 0.23754 0.03568 0.53486
 C151 C 0.24698 0.05326 0.51154
 N152 N 0.24871 0.08257 0.51466
 H153 H 0.30939 0.05981 0.48090
 H154 H 0.24893 0.09664 0.42134
 H155 H 0.26733 0.06380 0.38237
 H156 H 0.32802 0.02529 0.44366
 H157 H 0.23997 0.11896 0.54167
 H158 H 0.22291 0.08944 0.58400
 H159 H 0.23707 0.01236 0.53200
 H160 H 0.25327 0.04322 0.49106
 C161 C 0.35517 0.14931 0.50893
 C162 C 0.19797 0.17264 0.44563
 C163 C 0.22918 0.04830 0.56162
 C164 C 0.29906 0.04184 0.41009
 C165 C 0.14582 0.48294 0.20542
 H166 H 0.13055 0.46692 0.21419
 C167 C 0.16198 0.47684 0.17972
 H168 H 0.15835 0.45634 0.16905
 C169 C 0.16945 0.52855 0.20899
 H170 H 0.17303 0.54828 0.22094
 C171 C 0.18597 0.52340 0.18320
 H172 H 0.20165 0.53961 0.17523
 N173 N 0.14913 0.50881 0.21913
 C174 C 0.14357 0.55041 0.30101
 H175 H 0.12393 0.56338 0.29678
 C176 C 0.16131 0.55707 0.32463
 H177 H 0.15514 0.57543 0.33813
 C178 C 0.17494 0.51048 0.28862
 H179 H 0.17986 0.49220 0.27455
 C180 C 0.19336 0.51641 0.31197
 H181 H 0.21257 0.50261 0.31568
 Zn182 Zn 0.12523 0.51752 0.25305
 N183 N 0.15053 0.52735 0.28372
 C184 C 0.10694 0.47077 0.29028
 N185 N 0.10231 0.48432 0.26423
 C186 C 0.08130 0.47461 0.24577
 C187 C 0.06405 0.45039 0.25320
 C188 C 0.09039 0.44625 0.29844
 C189 C 0.11011 0.57451 0.23347
 C190 C 0.09093 0.59700 0.22510
 C191 C 0.04922 0.56810 0.24222
 C192 C 0.06916 0.54627 0.25035
 N193 N 0.09898 0.54932 0.24499
 H194 H 0.12349 0.47890 0.30482
 H195 H 0.07794 0.48578 0.22521
 H196 H 0.04749 0.44303 0.23817
 H197 H 0.09443 0.43588 0.31927
 H198 H 0.13384 0.57716 0.23033
 H199 H 0.10031 0.61642 0.21519
 H200 H 0.02552 0.56479 0.24598
 H201 H 0.06060 0.52678 0.26069
 C202 C 0.18651 0.53985 0.33048
 C203 C 0.18202 0.49742 0.16800
 C204 C 0.05997 0.59361 0.22882
 C205 C 0.06862 0.43578 0.27975
 C206 C -0.16093 0.05971 0.23456
 H207 H -0.15988 0.06839 0.25641
 C208 C -0.17457 0.07582 0.21273
 H209 H -0.18424 0.09674 0.21832
 C210 C -0.14824 0.02238 0.20107
 H211 H -0.13714 0.00197 0.19646
 C212 C -0.16191 0.03777 0.17842
 H213 H -0.16141 0.02857 0.15674
 N214 N -0.14797 0.03363 0.22847
 C215 C -0.13993 -0.00566 0.31520
 H216 H -0.11616 -0.00987 0.31527
 C217 C -0.15781 -0.01325 0.33950
 H218 H -0.14751 -0.02322 0.35824
 C219 C -0.18202 0.01268 0.29057
 H220 H -0.19147 0.02246 0.27135
 C221 C -0.20066 0.00575 0.31452
 H222 H -0.22433 0.01039 0.31348
 Zn223 Zn -0.12628 0.01743 0.25970
 N224 N -0.15218 0.00726 0.29147
 C225 C -0.10091 0.05922 0.29772
 N226 N -0.10006 0.04718 0.27066
 C227 C -0.08202 0.05790 0.24888
 C228 C -0.06405 0.08187 0.25374
 C229 C -0.08322 0.08331 0.30357
 C230 C -0.11778 -0.03934 0.23693
 C231 C -0.10132 -0.06421 0.22919
 C232 C -0.05696 -0.04090 0.24619
 C233 C -0.07413 -0.01646 0.25325
 N234 N -0.10392 -0.01595 0.24831
 H235 H -0.11589 0.05073 0.31454
 H236 H -0.08216 0.04815 0.22746
 H237 H -0.05020 0.09028 0.23591
 H238 H -0.08461 0.09288 0.32507
 H239 H -0.14163 -0.03870 0.23390
 H240 H -0.11272 -0.08257 0.22010
 H241 H -0.03328 -0.04076 0.25030
 H242 H -0.06361 0.00194 0.26312
 C243 C -0.18860 -0.00739 0.33939
 C244 C -0.17490 0.06520 0.18401
 C245 C -0.07046 -0.06512 0.23383
 C246 C -0.06477 0.09514 0.28125
 C247 C 0.33987 0.54178 0.71569
 H248 H 0.34447 0.54750 0.73801
 C249 C 0.32695 0.56215 0.69724
 H250 H 0.32153 0.58352 0.70566
 C251 C 0.34219 0.50702 0.67775
 H252 H 0.34868 0.48564 0.67022
 C253 C 0.32932 0.52691 0.65837
 H254 H 0.32572 0.52045 0.63606
 N255 N 0.34710 0.51482 0.70583
 C256 C 0.35074 0.46793 0.78875
 H257 H 0.37363 0.46030 0.78849
 C258 C 0.33192 0.46198 0.81289
 H259 H 0.34060 0.44969 0.83107
 C260 C 0.31163 0.49269 0.76494
 H261 H 0.30357 0.50420 0.74604
 C262 C 0.29204 0.48706 0.78846
 H263 H 0.26918 0.49468 0.78746
 Zn264 Zn 0.36667 0.49105 0.73323
 N265 N 0.34050 0.48346 0.76562
 C266 C 0.40227 0.52255 0.77234
 N267 N 0.39993 0.51286 0.74451
 C268 C 0.41854 0.52253 0.72265
 C269 C 0.43973 0.54376 0.72810
 C270 C 0.42325 0.54367 0.77880
 C271 C 0.35595 0.43720 0.70906
 C272 C 0.36240 0.40938 0.69876
 C273 C 0.41489 0.41884 0.70438
 C274 C 0.40740 0.44654 0.71472
 N275 N 0.37831 0.45508 0.71687
 H276 H 0.38679 0.51524 0.78926
 H277 H 0.41575 0.51491 0.70059
 H278 H 0.45347 0.55205 0.71014
 H279 H 0.42387 0.55176 0.80088
 H280 H 0.33301 0.44445 0.71135
 H281 H 0.34418 0.39540 0.69296
 H282 H 0.43811 0.41230 0.70321
 H283 H 0.42479 0.46094 0.72156
 C284 C 0.30213 0.47169 0.81292
 C285 C 0.32168 0.55495 0.66811
 C286 C 0.39216 0.39977 0.69651
 C287 C 0.44165 0.55524 0.75630
 C288 C 0.67351 0.97967 0.74681
 H289 H 0.68205 0.98517 0.76788
 C290 C 0.69343 0.97379 0.72361
 H291 H 0.71717 0.97500 0.72718
 C292 C 0.63238 0.97084 0.71671
 H293 H 0.60847 0.96974 0.71428
 C294 C 0.65151 0.96477 0.69291
 H295 H 0.64204 0.95899 0.67227
 N296 N 0.64358 0.97851 0.74288
 C297 C 0.63135 0.97601 0.83280
 H298 H 0.61623 0.95795 0.83155
 C299 C 0.64558 0.98123 0.85900
 H300 H 0.64125 0.96675 0.87739
 C301 C 0.65435 1.01712 0.81075
 H302 H 0.65740 1.03116 0.79184
 C303 C 0.66904 1.02322 0.83657
 H304 H 0.68338 1.04200 0.83698
 Zn305 Zn 0.61603 0.98712 0.77380
 N306 N 0.63612 0.99371 0.80922
 C307 C 0.60278 0.92851 0.78306
 N308 N 0.59007 0.95493 0.77810
 C309 C 0.56000 0.95794 0.77580
 C310 C 0.54139 0.93389 0.77969
 C311 C 0.58502 0.90397 0.78730
 C312 C 0.57431 1.03196 0.78492
 C313 C 0.55799 1.05724 0.77898
 C314 C 0.58347 1.06040 0.73191
 C315 C 0.59934 1.03521 0.73879
 N316 N 0.59425 1.02129 0.76474
 H317 H 0.62680 0.92663 0.78417
 H318 H 0.55035 0.97896 0.77109
 H319 H 0.51747 0.93676 0.77826
 H320 H 0.59571 0.88329 0.79157
 H321 H 0.57104 1.02074 0.80561
 H322 H 0.54206 1.06530 0.79520
 H323 H 0.58804 1.07096 0.71110
 H324 H 0.61585 1.02697 0.72335
 C325 C 0.66470 1.00517 0.86131
 C326 C 0.68252 0.96635 0.69618
 C327 C 0.56234 1.07166 0.75207
 C328 C 0.55384 0.90656 0.78599
 C329 C 0.04735 0.22223 -0.17835
 H330 H 0.05489 0.24429 -0.18172
 C331 C 0.05838 0.20033 -0.19662
 H332 H 0.07446 0.20563 -0.21390
 C333 C 0.01673 0.18851 -0.15243
 H334 H 0.00011 0.18393 -0.13562
 C335 C 0.02796 0.16575 -0.16959
 H336 H 0.01984 0.14390 -0.16581
 N337 N 0.02641 0.21618 -0.15713
 C338 C 0.00568 0.30737 -0.14718
 H339 H 0.00887 0.30920 -0.12392
 C340 C -0.00012 0.33222 -0.16383
 H341 H -0.00102 0.35318 -0.15327
 C342 C 0.00168 0.27764 -0.18894
 H343 H 0.00119 0.25622 -0.19839
 C344 C -0.00359 0.30199 -0.20651
 H345 H -0.00772 0.29912 -0.22952
 Zn346 Zn 0.01037 0.24782 -0.13508
 N347 N 0.00634 0.28075 -0.15986
 C348 C 0.02765 0.26014 -0.07703
 N349 N 0.03711 0.25775 -0.10540
 C350 C 0.06560 0.26443 -0.11377
 C351 C 0.08575 0.27432 -0.09339
 C352 C 0.04708 0.26996 -0.05591
 C353 C -0.05177 0.25437 -0.12930
 C354 C -0.08079 0.24851 -0.11946
 C355 C -0.06146 0.21031 -0.08866
 C356 C -0.03262 0.21727 -0.09886
 N357 N -0.02832 0.23872 -0.11916
 H358 H 0.00478 0.25531 -0.07086
 H359 H 0.07252 0.26277 -0.13649
 H360 H 0.10811 0.27988 -0.10078
 H361 H 0.03894 0.27226 -0.03355
 H362 H -0.04818 0.27138 -0.14535
 H363 H -0.09879 0.26143 -0.12827
 H364 H -0.06398 0.19295 -0.07273
 H365 H -0.01365 0.20543 -0.09061
 C366 C -0.00505 0.32962 -0.19385
 C367 C 0.04863 0.17174 -0.19229
 C368 C -0.08626 0.22596 -0.09907
 C369 C 0.07645 0.27759 -0.06406
 C370 C 0.45185 0.23190 0.15331
 H371 H 0.44504 0.25409 0.15765
 C372 C 0.43571 0.20906 0.16592
 H373 H 0.41661 0.21388 0.18008
 C374 C 0.48446 0.19882 0.12894
 H375 H 0.50324 0.19493 0.11416
 C376 C 0.46908 0.17524 0.14137
 H377 H 0.47619 0.15339 0.13592
 N378 N 0.47530 0.22651 0.13462
 C379 C 0.52237 0.31011 0.13305
 H380 H 0.52596 0.31398 0.10992
 C381 C 0.53106 0.33109 0.15308
 H382 H 0.54094 0.35114 0.14513
 C383 C 0.50492 0.27956 0.17162
 H384 H 0.49535 0.25929 0.17902
 C385 C 0.51262 0.30014 0.19226
 H386 H 0.50838 0.29560 0.21526
 Zn387 Zn 0.49403 0.25839 0.11486
 N388 N 0.50887 0.28521 0.14253
 C389 C 0.47566 0.29702 0.07013
 N390 N 0.46580 0.27717 0.09034
 C391 C 0.43654 0.26938 0.09191
 C392 C 0.41588 0.28234 0.07360
 C393 C 0.45577 0.31004 0.05081
 C394 C 0.55408 0.24371 0.09982
 C395 C 0.57691 0.23237 0.08179
 C396 C 0.54041 0.22274 0.04518
 C397 C 0.51831 0.23390 0.06400
 N398 N 0.52547 0.24418 0.09066
 H399 H 0.49912 0.30223 0.06846
 H400 H 0.42895 0.25281 0.10698
 H401 H 0.39275 0.27575 0.07531
 H402 H 0.46396 0.32567 0.03475
 H403 H 0.55912 0.25188 0.12122
 H404 H 0.59955 0.23214 0.08943
 H405 H 0.53423 0.21460 0.02406
 H406 H 0.49531 0.23426 0.05740
 C407 C 0.52543 0.32645 0.18306
 C408 C 0.44398 0.18030 0.15965
 C409 C 0.57012 0.22169 0.05406
 C410 C 0.42542 0.30288 0.05272
 C411 C 0.94894 0.72644 0.67566
 H412 H 0.94078 0.74859 0.67468
 C413 C 0.93357 0.70597 0.69258
 H414 H 0.91369 0.71273 0.70471
 C415 C 0.98426 0.69094 0.66002
 H416 H 1.00361 0.68511 0.64670
 C417 C 0.96936 0.66953 0.67670
 H418 H 0.97768 0.64742 0.67629
 N419 N 0.97381 0.71878 0.65991
 C420 C 1.01329 0.80443 0.64614
 H421 H 1.01490 0.80526 0.62251
 C422 C 1.02296 0.82792 0.66248
 H423 H 1.03184 0.84683 0.65116
 C424 C 0.99978 0.77858 0.68943
 H425 H 0.99132 0.75913 0.69995
 C426 C 1.00890 0.80166 0.70658
 H427 H 1.00708 0.79974 0.73016
 Zn428 Zn 0.98908 0.74940 0.63624
 N429 N 1.00169 0.78050 0.65975
 C430 C 0.94577 0.78843 0.61242
 N431 N 0.95711 0.76097 0.61271
 C432 C 0.94549 0.73967 0.59613
 C433 C 0.92168 0.74564 0.57801
 C434 C 0.92194 0.79540 0.59449
 C435 C 1.04616 0.72469 0.62167
 C436 C 1.07086 0.71941 0.60301
 C437 C 1.04463 0.74313 0.56391
 C438 C 1.02041 0.74746 0.58302
 N439 N 1.02150 0.73832 0.61133
 H440 H 0.95504 0.80490 0.62614
 H441 H 0.95487 0.71798 0.59701
 H442 H 0.91280 0.72835 0.56498
 H443 H 0.91322 0.81736 0.59464
 H444 H 1.04691 0.71848 0.64449
 H445 H 1.09049 0.70889 0.61159
 H446 H 1.04342 0.75105 0.54161
 H447 H 1.00115 0.75918 0.57537
 C448 C 1.02068 0.82673 0.69314
 C449 C 0.94349 0.67702 0.69308
 C450 C 1.07029 0.72909 0.57383
 C451 C 0.90961 0.77380 0.57699
 C452 C 0.54316 0.71512 0.34857
 H453 H 0.56166 0.72415 0.35997
 C454 C 0.54570 0.68708 0.33718
 H455 H 0.56627 0.67499 0.33978
 C456 C 0.49333 0.71887 0.33286
 H457 H 0.47267 0.73106 0.33193
 C458 C 0.49465 0.69068 0.32188
 H459 H 0.47510 0.68154 0.31212
 N460 N 0.51716 0.73036 0.34641
 C461 C 0.52861 0.82115 0.34519
 H462 H 0.54306 0.82082 0.36365
 C463 C 0.52740 0.84617 0.32788
 H464 H 0.54145 0.86432 0.33324
 C465 C 0.49182 0.79873 0.31705
 H466 H 0.47770 0.78029 0.31318
 C467 C 0.48924 0.82371 0.29962
 H468 H 0.47330 0.82384 0.28227
 Zn469 Zn 0.51015 0.76594 0.36635
 N470 N 0.51078 0.79811 0.33980
 C471 C 0.56791 0.77550 0.38833
 N472 N 0.53862 0.77175 0.39595
 C473 C 0.52890 0.77430 0.42425
 C474 C 0.54873 0.78164 0.44598
 C475 C 0.58842 0.78327 0.40933
 C476 C 0.45028 0.78359 0.37927
 C477 C 0.42106 0.77936 0.38972
 C478 C 0.43653 0.73353 0.41077
 C479 C 0.46536 0.73852 0.39973
 N480 N 0.47158 0.76301 0.38398
 H481 H 0.57511 0.77379 0.36566
 H482 H 0.50557 0.77160 0.42996
 H483 H 0.54038 0.78427 0.46823
 H484 H 0.61144 0.78686 0.40263
 H485 H 0.45572 0.80304 0.36694
 H486 H 0.40422 0.79566 0.38522
 H487 H 0.43202 0.71352 0.42256
 H488 H 0.48271 0.72245 0.40300
 C489 C 0.50682 0.84818 0.30530
 C490 C 0.52096 0.67434 0.32428
 C491 C 0.41381 0.75388 0.40534
 C492 C 0.57874 0.78691 0.43850
 C493 C 0.43826 -0.02271 0.25021
 H494 H 0.43580 -0.00068 0.25799
 C495 C 0.46120 -0.04032 0.26052
 H496 H 0.47655 -0.03154 0.27599
 C497 C 0.41974 -0.06157 0.22241
 H498 H 0.40293 -0.07003 0.20835
 C499 C 0.44211 -0.08009 0.23256
 H500 H 0.44270 -0.10252 0.22564
 N501 N 0.41800 -0.03357 0.23168
 C502 C 0.37025 0.04341 0.20115
 H503 H 0.34785 0.03511 0.20417
 C504 C 0.37453 0.07213 0.19232
 H505 H 0.35531 0.08582 0.18834
 C506 C 0.42247 0.03577 0.20363
 H507 H 0.44105 0.02156 0.20829
 C508 C 0.42780 0.06442 0.19449
 H509 H 0.45053 0.07210 0.19256
 Zn510 Zn 0.38404 -0.01036 0.22424
 N511 N 0.39397 0.02622 0.20767
 C512 C 0.35933 0.02232 0.27160
 N513 N 0.36439 -0.00481 0.26090
 C514 C 0.35737 -0.02890 0.27700
 C515 C 0.34482 -0.02621 0.30511
 C516 C 0.34642 0.02599 0.29939
 C517 C 0.36918 -0.03536 0.17107
 C518 C 0.35039 -0.04699 0.15036
 C519 C 0.30967 -0.04454 0.18595
 C520 C 0.32930 -0.03328 0.20607
 N521 N 0.35842 -0.02887 0.19830
 H522 H 0.36593 0.04124 0.25902
 H523 H 0.36207 -0.05021 0.26814
 H524 H 0.33974 -0.04554 0.31787
 H525 H 0.34322 0.04775 0.30771
 H526 H 0.39230 -0.03103 0.16532
 H527 H 0.35926 -0.05149 0.12865
 H528 H 0.28646 -0.04756 0.19230
 H529 H 0.32104 -0.02732 0.22760
 C530 C 0.40354 0.08316 0.18950
 C531 C 0.46281 -0.06963 0.25238
 C532 C 0.32013 -0.05145 0.15768
 C533 C 0.33924 0.00151 0.31659
 C534 C 0.11666 1.03814 0.78204
 H535 H 0.13012 1.02798 0.79853
 C536 C 0.10244 1.06464 0.78799
 H537 H 0.10551 1.07494 0.80886
 C538 C 0.09653 1.03751 0.73466
 H539 H 0.09454 1.02682 0.71384
 C540 C 0.08257 1.06429 0.73942
 H541 H 0.06975 1.07423 0.72223
 N542 N 0.11431 1.02570 0.75533
 C543 C 0.10750 0.94973 0.71075
 H544 H 0.12092 0.95789 0.69261
 C545 C 0.08849 0.92632 0.70643
 H546 H 0.08809 0.91668 0.68500
 C547 C 0.09145 0.95293 0.76034
 H548 H 0.09283 0.96343 0.78132
 C549 C 0.07220 0.92953 0.75702
 H550 H 0.05880 0.92217 0.77563
 Zn551 Zn 0.13671 0.99219 0.74469
 N552 N 0.10928 0.96198 0.73760
 C553 C 0.16181 0.95395 0.78664
 N554 N 0.16288 0.98114 0.77480
 C555 C 0.18287 1.00099 0.78396
 C556 C 0.20159 0.99435 0.80706
 C557 C 0.18027 0.94632 0.80962
 C558 C 0.16101 1.02719 0.69844
 C559 C 0.17620 1.03215 0.67189
 C560 C 0.19166 0.98179 0.67180
 C561 C 0.17626 0.97784 0.69843
 N562 N 0.16035 1.00011 0.71059
 H563 H 0.14651 0.93813 0.77848
 H564 H 0.18372 1.02226 0.77375
 H565 H 0.21679 1.01068 0.81462
 H566 H 0.17823 0.92487 0.81921
 H567 H 0.14946 1.04501 0.70904
 H568 H 0.17545 1.05367 0.66231
 H569 H 0.20332 0.96353 0.66195
 H570 H 0.17602 0.95669 0.70892
 C571 C 0.07090 0.91552 0.72993
 C572 C 0.08595 1.07838 0.76612
 C573 C 0.19120 1.00908 0.65782
 C574 C 0.20019 0.96682 0.82046
 C575 C 0.56575 0.52409 0.29909
 H576 H 0.56252 0.50342 0.31010
 C577 C 0.54800 0.54797 0.30713
 H578 H 0.53072 0.54551 0.32393
 C579 C 0.59308 0.55309 0.26491
 H580 H 0.61102 0.55530 0.24888
 C581 C 0.57650 0.57765 0.27296
 H582 H 0.58138 0.59839 0.26262
 N583 N 0.58738 0.52686 0.27783
 C584 C 0.60741 0.44056 0.24174
 H585 H 0.63138 0.44242 0.23918
 C586 C 0.59300 0.41595 0.23143
 H587 H 0.60592 0.39871 0.22115
 C588 C 0.56126 0.46062 0.25837
 H589 H 0.54875 0.47819 0.26828
 C590 C 0.54613 0.43605 0.24921
 H591 H 0.52216 0.43476 0.25250
 Zn592 Zn 0.61289 0.49478 0.26864
 N593 N 0.59147 0.46221 0.25511
 C594 C 0.63513 0.45776 0.31398
 N595 N 0.63334 0.48536 0.30323
 C596 C 0.64509 0.50806 0.31773
 C597 C 0.65943 0.50354 0.34406
 C598 C 0.64948 0.45220 0.34031
 C599 C 0.62965 0.51231 0.21173
 C600 C 0.64816 0.52474 0.19005
 C601 C 0.68862 0.52346 0.22391
 C602 C 0.66946 0.51086 0.24482
 N603 N 0.64033 0.50646 0.23873
 H604 H 0.62524 0.44008 0.30231
 H605 H 0.64309 0.52983 0.30885
 H606 H 0.66854 0.52198 0.35524
 H607 H 0.65036 0.43017 0.34864
 H608 H 0.60637 0.50854 0.20750
 H609 H 0.63889 0.53054 0.16919
 H610 H 0.71148 0.52787 0.22946
 H611 H 0.67765 0.50567 0.26623
 C612 C 0.56203 0.41341 0.23557
 C613 C 0.55359 0.57515 0.29417
 C614 C 0.67787 0.53118 0.19637
 C615 C 0.66179 0.47535 0.35577
 C616 C 0.91230 0.45579 0.79506
 H617 H 0.90177 0.46470 0.81452
 C618 C 0.93322 0.43340 0.79776
 H619 H 0.93820 0.42550 0.81939
 C620 C 0.91845 0.45554 0.74355
 H621 H 0.91273 0.46409 0.72242
 C622 C 0.93942 0.43304 0.74522
 H623 H 0.94936 0.42448 0.72525
 N624 N 0.90457 0.46578 0.76821
 C625 C 0.86304 0.54918 0.74833
 H626 H 0.84002 0.54300 0.75220
 C627 C 0.86988 0.57751 0.73989
 H628 H 0.85198 0.59313 0.73718
 C629 C 0.91436 0.53622 0.74758
 H630 H 0.93151 0.52000 0.75096
 C631 C 0.92222 0.56440 0.73859
 H632 H 0.94551 0.56985 0.73525
 Zn633 Zn 0.87212 0.49255 0.76575
 N634 N 0.88515 0.52939 0.75257
 C635 C 0.85443 0.52241 0.81728
 N636 N 0.85359 0.49633 0.80357
 C637 C 0.84080 0.47281 0.81694
 C638 C 0.82737 0.47529 0.84475
 C639 C 0.84141 0.52582 0.84507
 C640 C 0.85341 0.48067 0.70943
 C641 C 0.83476 0.47126 0.68755
 C642 C 0.79682 0.46105 0.72454
 C643 C 0.81635 0.47045 0.74581
 N644 N 0.84437 0.47940 0.73802
 H645 H 0.86543 0.54069 0.80686
 H646 H 0.84113 0.45205 0.80602
 H647 H 0.81712 0.45640 0.85494
 H648 H 0.84209 0.54697 0.85508
 H649 H 0.87497 0.48956 0.70347
 H650 H 0.84251 0.47255 0.66500
 H651 H 0.77476 0.45364 0.73109
 H652 H 0.80893 0.47065 0.76841
 C653 C 0.89974 0.58548 0.73508
 C654 C 0.94640 0.42104 0.77254
 C655 C 0.80617 0.46095 0.69503
 C656 C 0.82749 0.50209 0.85918
 C657 C 0.27354 0.42393 -0.04430
 H658 H 0.29111 0.42245 -0.02857
 C659 C 0.27902 0.43737 -0.07137
 H660 H 0.30078 0.44651 -0.07620
 C661 C 0.22384 0.41358 -0.05711
 H662 H 0.20247 0.40401 -0.05151
 C663 C 0.22822 0.42719 -0.08424
 H664 H 0.21014 0.42795 -0.09945
 N665 N 0.24649 0.41188 -0.03795
 C666 C 0.22559 0.40499 0.05549
 H667 H 0.22371 0.38170 0.05831
 C668 C 0.21965 0.42319 0.07917
 H669 H 0.21363 0.41361 0.10014
 C670 C 0.23592 0.44548 0.02466
 H671 H 0.24219 0.45408 0.00334
 C672 C 0.23042 0.46452 0.04788
 H673 H 0.23237 0.48770 0.04421
 Zn674 Zn 0.24105 0.39044 -0.00279
 N675 N 0.23346 0.41628 0.02884
 C676 C 0.28837 0.36769 0.03091
 N677 N 0.27679 0.36903 0.00372
 C678 C 0.29206 0.35791 -0.01980
 C679 C 0.32050 0.34580 -0.01660
 C680 C 0.31633 0.35515 0.03518
 C681 C 0.18242 0.36958 0.00882
 C682 C 0.15760 0.35207 0.00486
 C683 C 0.18547 0.32592 -0.03246
 C684 C 0.21005 0.34361 -0.02736
 N685 N 0.20811 0.36502 -0.00704
 H686 H 0.27647 0.37700 0.04933
 H687 H 0.28270 0.35957 -0.04130
 H688 H 0.33280 0.33780 -0.03559
 H689 H 0.32541 0.35497 0.05687
 H690 H 0.18068 0.38733 0.02402
 H691 H 0.13726 0.35626 0.01745
 H692 H 0.18729 0.30915 -0.04885
 H693 H 0.23050 0.34064 -0.04006
 C694 C 0.22193 0.45341 0.07549
 C695 C 0.25627 0.43876 -0.09187
 C696 C 0.15880 0.33018 -0.01623
 C697 C 0.33296 0.34451 0.01116
 C698 C 0.77400 0.08787 1.04324
 H699 H 0.76799 0.07018 1.02924
 C700 C 0.78409 0.08191 1.07140
 H701 H 0.78539 0.05962 1.07898
 C702 C 0.77910 0.13846 1.05077
 H703 H 0.77683 0.16047 1.04260
 C704 C 0.78887 0.13354 1.07903
 H705 H 0.79428 0.15188 1.09252
 N706 N 0.77091 0.11587 1.03389
 C707 C 0.72304 0.07507 0.98804
 H708 H 0.71593 0.07781 1.01063
 C709 C 0.71035 0.05337 0.97134
 H710 H 0.69378 0.03918 0.98135
 C711 C 0.75172 0.09161 0.94703
 H712 H 0.76716 0.10715 0.93744
 C713 C 0.73917 0.07051 0.92938
 H714 H 0.74565 0.06953 0.90647
 Zn715 Zn 0.75394 0.12641 0.99781
 N716 N 0.74318 0.09374 0.97570
 C717 C 0.77490 0.17731 0.96883
 N718 N 0.78203 0.14964 0.97676
 C719 C 0.80960 0.13832 0.97069
 C720 C 0.83117 0.15490 0.95564
 C721 C 0.79562 0.19449 0.95352
 C722 C 0.70748 0.15286 1.03246
 C723 C 0.68014 0.16707 1.03701
 C724 C 0.67449 0.16943 0.98470
 C725 C 0.70197 0.15527 0.98115
 N726 N 0.71798 0.14749 1.00484
 H727 H 0.75319 0.18623 0.97444
 H728 H 0.81478 0.11633 0.97751
 H729 H 0.85279 0.14536 0.95062
 H730 H 0.78947 0.21640 0.94722
 H731 H 0.71988 0.14563 1.05109
 H732 H 0.67217 0.17066 1.05919
 H733 H 0.66207 0.17537 0.96556
 H734 H 0.71049 0.15020 0.95944
 C735 C 0.71778 0.05141 0.94145
 C736 C 0.79095 0.10504 1.08988
 C737 C 0.66320 0.17550 1.01292
 C738 C 0.82416 0.18337 0.94674
 C739 C 0.27107 0.60253 0.53204
 H740 H 0.26668 0.58754 0.51464
 C741 C 0.28037 0.59196 0.55913
 H742 H 0.28313 0.56880 0.56226
 C743 C 0.27139 0.65085 0.54956
 H744 H 0.26742 0.67376 0.54569
 C745 C 0.28051 0.64129 0.57684
 H746 H 0.28379 0.65706 0.59385
 N747 N 0.26684 0.63156 0.52786
 C748 C 0.21361 0.61784 0.45598
 H749 H 0.19628 0.63167 0.46518
 C750 C 0.20695 0.59931 0.43312
 H751 H 0.18431 0.59868 0.42557
 C752 C 0.26422 0.60260 0.45415
 H753 H 0.28664 0.60460 0.46206
 C754 C 0.25851 0.58365 0.43128
 H755 H 0.27663 0.57092 0.42179
 Zn756 Zn 0.25152 0.64792 0.49340
 N757 N 0.24191 0.61934 0.46585
 C758 C 0.27236 0.68680 0.45021
 N759 N 0.27997 0.67287 0.47529
 C760 C 0.30757 0.67589 0.48654
 C761 C 0.32854 0.69406 0.47279
 C762 C 0.29245 0.70557 0.43605
 C763 C 0.19592 0.65422 0.52138
 C764 C 0.16988 0.66825 0.53120
 C765 C 0.18723 0.71220 0.50725
 C766 C 0.21315 0.69749 0.49831
 N767 N 0.21677 0.66886 0.50502
 H768 H 0.25051 0.68347 0.44135
 H769 H 0.31348 0.66409 0.50608
 H770 H 0.35028 0.69644 0.48218
 H771 H 0.28600 0.71671 0.41624
 H772 H 0.19956 0.63155 0.52670
 H773 H 0.15330 0.65615 0.54376
 H774 H 0.18445 0.73490 0.50147
 H775 H 0.23026 0.70904 0.48607
 C776 C 0.22968 0.58228 0.42009
 C777 C 0.28498 0.61152 0.58202
 C778 C 0.16525 0.69756 0.52390
 C779 C 0.32096 0.70928 0.44730
 C780 C 0.77998 0.90700 0.46171
 H781 H 0.79319 0.88769 0.46539
 C782 C 0.78636 0.92430 0.43721
 H783 H 0.80463 0.91806 0.42266
 C784 C 0.73887 0.93713 0.47499
 H785 H 0.72009 0.94172 0.48953
 C786 C 0.74435 0.95495 0.45054
 H787 H 0.72982 0.97338 0.44661
 N788 N 0.75663 0.91365 0.48012
 C789 C 0.76129 0.90612 0.56862
 H790 H 0.78157 0.89391 0.56507
 C791 C 0.75631 0.91917 0.59566
 H792 H 0.77300 0.91698 0.61223
 C793 C 0.71449 0.92287 0.55229
 H794 H 0.69803 0.92377 0.53544
 C795 C 0.70832 0.93585 0.57941
 H796 H 0.68735 0.94719 0.58303
 Zn797 Zn 0.74709 0.88783 0.51157
 N798 N 0.74063 0.90822 0.54740
 C799 C 0.80677 0.87055 0.52016
 N800 N 0.77871 0.86059 0.51594
 C801 C 0.77291 0.83161 0.51571
 C802 C 0.79548 0.81149 0.52144
 C803 C 0.82988 0.85122 0.52634
 C804 C 0.70293 0.86686 0.47467
 C805 C 0.67773 0.85108 0.46744
 C806 C 0.67130 0.83731 0.51827
 C807 C 0.69671 0.85328 0.52453
 N808 N 0.71194 0.86759 0.50279
 H809 H 0.81097 0.89367 0.51961
 H810 H 0.75062 0.82403 0.51181
 H811 H 0.79034 0.78854 0.52208
 H812 H 0.85189 0.85960 0.53031
 H813 H 0.71551 0.87825 0.45773
 H814 H 0.67100 0.85103 0.44493
 H815 H 0.65950 0.82594 0.53581
 H816 H 0.70450 0.85410 0.54668
 C817 C 0.72945 0.93394 0.60151
 C818 C 0.76834 0.94858 0.43124
 C819 C 0.66160 0.83588 0.48937
 C820 C 0.82415 0.82131 0.52766
 C821 C -0.00431 0.29111 0.42927
 H822 H 0.01875 0.29792 0.42895
 C823 C -0.02534 0.30554 0.44700
 H824 H -0.01807 0.32304 0.46072
 C825 C -0.04206 0.26172 0.40985
 H826 H -0.04874 0.24571 0.39422
 C827 C -0.06387 0.27560 0.42727
 H828 H -0.08695 0.26954 0.42506
 N829 N -0.01304 0.27012 0.41070
 C830 C 0.07164 0.23872 0.37310
 H831 H 0.06586 0.24227 0.35053
 C832 C 0.10011 0.22894 0.37971
 H833 H 0.11626 0.22499 0.36216
 C834 C 0.05758 0.23990 0.42339
 H835 H 0.04085 0.24434 0.44024
 C836 C 0.08584 0.22933 0.43099
 H837 H 0.09096 0.22596 0.45376
 Zn838 Zn 0.01466 0.25925 0.38078
 N839 N 0.05129 0.24471 0.39477
 C840 C 0.04885 0.30657 0.35766
 N841 N 0.02170 0.29349 0.35836
 C842 C -0.00176 0.30526 0.34406
 C843 C 0.00190 0.33049 0.32724
 C844 C 0.05343 0.33198 0.34130
 C845 C -0.01007 0.20460 0.36979
 C846 C -0.01970 0.18160 0.35273
 C847 C -0.00939 0.21075 0.30953
 C848 C -0.00027 0.23324 0.32739
 N849 N -0.00090 0.22988 0.35695
 H850 H 0.06698 0.29751 0.36995
 H851 H -0.02330 0.29480 0.34552
 H852 H -0.01693 0.33935 0.31572
 H853 H 0.07534 0.34168 0.34068
 H854 H -0.00956 0.20222 0.39332
 H855 H -0.02657 0.16157 0.36334
 H856 H -0.00852 0.21373 0.28603
 H857 H 0.00814 0.25304 0.31750
 C858 C 0.10756 0.22426 0.40889
 C859 C -0.05572 0.29854 0.44546
 C860 C -0.01927 0.18452 0.32214
 C861 C 0.02979 0.34416 0.32567
 C862 C 1.01656 0.80312 0.08914
 H863 H 0.99606 0.81511 0.09325
 C864 C 1.03774 0.81377 0.06905
 H865 H 1.03353 0.83411 0.05780
 C866 C 1.04667 0.76169 0.09849
 H867 H 1.04973 0.74116 0.10971
 C868 C 1.06880 0.77187 0.07889
 H869 H 1.08883 0.75906 0.07505
 N870 N 1.02104 0.77725 0.10290
 C871 C 0.93031 0.74623 0.11801
 H872 H 0.92938 0.74369 0.14154
 C873 C 0.90603 0.73793 0.10159
 H874 H 0.88628 0.72928 0.11254
 C875 C 0.95747 0.75964 0.07489
 H876 H 0.97781 0.76722 0.06436
 C877 C 0.93336 0.75241 0.05774
 H878 H 0.93521 0.75471 0.03419
 Zn879 Zn 0.98941 0.76418 0.12762
 N880 N 0.95563 0.75638 0.10450
 C881 C 0.95233 0.80666 0.15597
 N882 N 0.98019 0.79472 0.15422
 C883 C 1.00294 0.80602 0.16949
 C884 C 0.99811 0.83004 0.18746
 C885 C 0.94650 0.83074 0.17369
 C886 C 0.98526 0.70464 0.14249
 C887 C 0.99095 0.67918 0.15810
 C888 C 1.02995 0.70395 0.18311
 C889 C 1.02302 0.72930 0.16746
 N890 N 1.00057 0.72939 0.14791
 H891 H 0.93464 0.79811 0.14309
 H892 H 1.02517 0.79710 0.16690
 H893 H 1.01669 0.83890 0.19903
 H894 H 0.92420 0.83980 0.17449
 H895 H 0.96853 0.70437 0.12603
 H896 H 0.97815 0.65988 0.15382
 H897 H 1.04750 0.70428 0.19891
 H898 H 1.03554 0.74882 0.17103
 C899 C 0.90757 0.74088 0.07109
 C900 C 1.06414 0.79802 0.06360
 C901 C 1.01335 0.67869 0.17881
 C902 C 0.96966 0.84296 0.18955
 C903 C 0.54399 0.26338 0.59641
 H904 H 0.52453 0.27439 0.58813
 C905 C 0.57242 0.27058 0.58523
 H906 H 0.57438 0.28691 0.56818
 C907 C 0.56496 0.22890 0.62872
 H908 H 0.56229 0.21284 0.64587
 C909 C 0.59360 0.23534 0.61819
 H910 H 0.61244 0.22399 0.62739
 N911 N 0.54070 0.24244 0.61745
 C912 C 0.45706 0.19573 0.61014
 H913 H 0.45365 0.19042 0.63303
 C914 C 0.43802 0.18415 0.58970
 H915 H 0.42022 0.17005 0.59730
 C916 C 0.48504 0.21979 0.57274
 H917 H 0.50331 0.23366 0.56610
 C918 C 0.46651 0.20863 0.55150
 H919 H 0.47074 0.21421 0.52875
 Zn920 Zn 0.50223 0.23034 0.63172
 N921 N 0.47971 0.21365 0.60154
 C922 C 0.45162 0.25536 0.65757
 N923 N 0.47963 0.26181 0.64757
 C924 C 0.48981 0.28962 0.64764
 C925 C 0.47103 0.31235 0.65705
 C926 C 0.43218 0.27727 0.66695
 C927 C 0.51684 0.17476 0.65138
 C928 C 0.52267 0.15265 0.67146
 C929 C 0.50805 0.18521 0.71052
 C930 C 0.50260 0.20683 0.68962
 N931 N 0.50739 0.20131 0.66071
 H932 H 0.44410 0.23314 0.65786
 H933 H 0.51224 0.29433 0.63987
 H934 H 0.47920 0.33440 0.65615
 H935 H 0.40979 0.27162 0.67430
 H936 H 0.52032 0.17096 0.62823
 H937 H 0.53023 0.13177 0.66344
 H938 H 0.50469 0.19002 0.73349
 H939 H 0.49516 0.22815 0.69652
 C940 C 0.44229 0.19097 0.55993
 C941 C 0.59772 0.25621 0.59598
 C942 C 0.51870 0.15786 0.70152
 C943 C 0.44157 0.30626 0.66639
 C944 C 0.46705 0.74580 0.90887
 H945 H 0.48591 0.76029 0.90977
 C946 C 0.44108 0.75167 0.92546
 H947 H 0.44022 0.77049 0.93949
 C948 C 0.44464 0.70443 0.88841
 H949 H 0.44544 0.68672 0.87313
 C950 C 0.41857 0.70914 0.90502
 H951 H 0.39981 0.69475 0.90257
 N952 N 0.46819 0.72275 0.89043
 C953 C 0.56000 0.70405 0.86356
 H954 H 0.55661 0.70632 0.84033
 C955 C 0.58804 0.69675 0.87359
 H956 H 0.60618 0.69333 0.85789
 C957 C 0.54017 0.70588 0.91207
 H958 H 0.52131 0.70959 0.92682
 C959 C 0.56808 0.69820 0.92315
 H960 H 0.57068 0.69628 0.94653
 Zn961 Zn 0.50132 0.71933 0.86405
 N962 N 0.53691 0.70895 0.88270
 C963 C 0.53229 0.77071 0.84886
 N964 N 0.50656 0.75586 0.84507
 C965 C 0.48401 0.76753 0.82937
 C966 C 0.48718 0.79494 0.81622
 C967 C 0.53642 0.79803 0.83610
 C968 C 0.49290 0.66205 0.84793
 C969 C 0.48809 0.63861 0.82961
 C970 C 0.48920 0.67171 0.78833
 C971 C 0.49355 0.69466 0.80755
 N972 N 0.49474 0.68949 0.83682
 H973 H 0.54956 0.76172 0.86230
 H974 H 0.46349 0.75559 0.82720
 H975 H 0.46904 0.80390 0.80376
 H976 H 0.55698 0.80934 0.83992
 H977 H 0.49485 0.65848 0.87121
 H978 H 0.48630 0.61698 0.83891
 H979 H 0.48780 0.67609 0.76512
 H980 H 0.49603 0.71650 0.79905
 C981 C 0.59248 0.69386 0.90367
 C982 C 0.41628 0.73340 0.92325
 C983 C 0.48590 0.64337 0.79943
 C984 C 0.51373 0.81054 0.81943
 N985 N 0.50754 -0.07981 0.27997
 N986 N 0.51974 -0.10148 0.29474
 C987 C 0.50306 -0.12530 0.29031
 C988 C 0.48034 -0.11740 0.27182
 N989 N 0.48380 -0.08883 0.26610
 H990 H 0.46162 -0.13037 0.26536
 N991 N 0.97596 0.38141 0.75106
 N992 N 0.98900 0.35677 0.75904
 C993 C 0.98649 0.35517 0.78843
 C994 C 0.97150 0.37964 0.79817
 N995 N 0.96516 0.39551 0.77421
 H996 H 0.96432 0.38424 0.82040
 N997 N 0.07449 1.12721 0.74879
 N998 N 0.06527 1.15261 0.75913
 C999 C 0.05935 1.14866 0.78792
 C1000 C 0.06529 1.12003 0.79498
 N1001 N 0.07473 1.10741 0.76995
 H1002 H 0.06343 1.10959 0.81623
 N1003 N 0.50711 0.59989 0.30809
 N1004 N 0.49757 0.62616 0.31564
 C1005 C 0.52167 0.64361 0.31524
 C1006 C 0.54632 0.62718 0.30703
 N1007 N 0.53627 0.60011 0.30276
 H1008 H 0.56933 0.63405 0.30484
 N1009 N 0.52509 0.37544 0.24318
 N1010 N 0.51515 0.35199 0.23010
 C1011 C 0.53100 0.34924 0.20478
 C1012 C 0.55122 0.37180 0.20284
 N1013 N 0.54677 0.38758 0.22725
 H1014 H 0.56723 0.37652 0.18536
 N1015 N 0.03781 0.87746 0.74896
 N1016 N 0.02432 0.85370 0.74012
 C1017 C 0.03065 0.85111 0.71129
 C1018 C 0.04851 0.87418 0.70276
 N1019 N 0.05254 0.89014 0.72691
 H1020 H 0.05814 0.87835 0.68125
 N1021 N 0.88894 0.63724 0.73488
 N1022 N 0.89994 0.66184 0.72428
 C1023 C 0.92566 0.65526 0.70980
 C1024 C 0.93016 0.62551 0.71205
 N1025 N 0.90666 0.61515 0.72781
 H1026 H 0.94799 0.61257 0.70234
 N1027 N 0.38723 0.13368 0.18915
 N1028 N 0.39731 0.15979 0.18194
 C1029 C 0.42536 0.15619 0.17116
 C1030 C 0.43218 0.12684 0.17202
 N1031 N 0.40777 0.11357 0.18340
 H1032 H 0.45268 0.11621 0.16493
 N1033 N 0.24013 0.46137 -0.13731
 N1034 N 0.25151 0.47029 -0.16280
 C1035 C 0.28123 0.46553 -0.16223
 C1036 C 0.28769 0.45351 -0.13532
 N1037 N 0.26147 0.45130 -0.12043
 H1038 H 0.30916 0.44642 -0.12757
 N1039 N 0.75318 0.98336 0.39367
 N1040 N 0.76372 0.99529 0.36907
 C1041 C 0.79178 0.98511 0.36484
 C1042 C 0.79806 0.96650 0.38773
 N1043 N 0.77340 0.96591 0.40522
 H1044 H 0.81845 0.95440 0.39110
 N1045 N 0.79385 0.11990 1.14056
 N1046 N 0.80243 0.10975 1.16613
 C1047 C 0.81289 0.08251 1.16179
 C1048 C 0.81022 0.07627 1.13234
 N1049 N 0.79830 0.10023 1.11995
 H1050 H 0.81669 0.05664 1.12093
 N1051 N 0.29159 0.61841 0.63411
 N1052 N 0.30097 0.60413 0.65735
 C1053 C 0.30890 0.57724 0.64849
 C1054 C 0.30398 0.57552 0.61881
 N1055 N 0.29319 0.60172 0.61069
 H1056 H 0.30848 0.55734 0.60451
 N1057 N 0.24179 0.54340 0.38548
 N1058 N 0.23109 0.53168 0.36159
 C1059 C 0.20550 0.54595 0.35571
 C1060 C 0.20087 0.56675 0.37696
 N1061 N 0.22392 0.56445 0.39516
 H1062 H 0.18285 0.58241 0.37866
 N1063 N 0.68879 0.00758 0.93360
 N1064 N 0.67413 -0.00522 0.91256
 C1065 C 0.67831 0.01093 0.88803
 C1066 C 0.69647 0.03404 0.89485
 N1067 N 0.70243 0.03115 0.92346
 H1068 H 0.70347 0.05198 0.88094
 N1069 N 0.74523 0.95262 0.64828
 N1070 N 0.73362 0.96116 0.67369
 C1071 C 0.70369 0.95997 0.67163
 C1072 C 0.69736 0.95054 0.64381
 N1073 N 0.72390 0.94618 0.62998
 H1074 H 0.67576 0.94607 0.63491
 N1075 N 0.22473 0.49994 0.10077
 N1076 N 0.21471 0.51229 0.12523
 C1077 C 0.19840 0.49216 0.13998
 C1078 C 0.19885 0.46702 0.12371
 N1079 N 0.21551 0.47271 0.09946
 H1080 H 0.18763 0.44679 0.12865
 N1081 N -0.07182 0.34254 0.47069
 N1082 N -0.09654 0.35575 0.48004
 C1083 C -0.11933 0.33763 0.47513
 C1084 C -0.10765 0.31267 0.46249
 N1085 N -0.07785 0.31664 0.45998
 H1086 H -0.11982 0.29401 0.45515
 N1087 N 0.36741 0.72065 0.94421
 N1088 N 0.34290 0.73360 0.95453
 C1089 C 0.34833 0.76241 0.95461
 C1090 C 0.37724 0.76660 0.94417
 N1091 N 0.38834 0.74006 0.93793
 H1092 H 0.38856 0.78695 0.93993
 N1093 N 1.07799 0.82498 0.01942
 N1094 N 1.10206 0.83240 0.00386
 C1095 C 1.12571 0.82011 0.01693
 C1096 C 1.11518 0.80468 0.04115
 N1097 N 1.08532 0.80838 0.04190
 H1098 H 1.12790 0.79297 0.05725
 N1099 N 0.65132 0.24705 0.59218
 N1100 N 0.67581 0.25824 0.58001
 C1101 C 0.66728 0.28151 0.56415
 C1102 C 0.63657 0.28423 0.56709
 N1103 N 0.62745 0.26231 0.58486
 H1104 H 0.62258 0.30122 0.55827
 N1105 N 0.42726 0.18228 0.50978
 N1106 N 0.40455 0.17152 0.49551
 C1107 C 0.38417 0.16254 0.51579
 C1108 C 0.39527 0.16816 0.54303
 N1109 N 0.42222 0.18043 0.53838
 H1110 H 0.38450 0.16425 0.56408
 N1111 N 0.87445 0.74462 0.02964
 N1112 N 0.85222 0.73012 0.01814
 C1113 C 0.84738 0.70659 0.03537
 C1114 C 0.86710 0.70727 0.05796
 N1115 N 0.88351 0.73132 0.05363
 H1116 H 0.86952 0.69172 0.07563
 N1117 N 0.64632 0.69153 0.89728
 N1118 N 0.67014 0.68181 0.91075
 C1119 C 0.66069 0.67081 0.93674
 C1120 C 0.62997 0.67434 0.93886
 N1121 N 0.62194 0.68727 0.91365
 H1122 H 0.61493 0.66708 0.95626
 N1123 N 0.16113 0.22400 0.39976
 N1124 N 0.18548 0.21080 0.40894
 C1125 C 0.17713 0.19310 0.43128
 C1126 C 0.14651 0.19616 0.43569
 N1127 N 0.13750 0.21558 0.41548
 H1128 H 0.13204 0.18450 0.45093
 N1129 N 0.51638 0.13563 0.75037
 N1130 N 0.52754 0.11295 0.76454
 C1131 C 0.54508 0.09830 0.74520
 C1132 C 0.54415 0.11275 0.71869
 N1133 N 0.52601 0.13585 0.72275
 H1134 H 0.55590 0.10727 0.69854
 N1135 N 0.99748 0.63364 0.20250
 N1136 N 1.00904 0.61088 0.21608
 C1137 C 1.03865 0.61549 0.21765
 C1138 C 1.04483 0.64213 0.20464
 N1139 N 1.01855 0.65265 0.19546
 H1140 H 1.06630 0.65233 0.20102
 N1141 N 0.98591 0.88042 0.22295
 N1142 N 0.97615 0.90489 0.23496
 C1143 C 0.94795 0.90907 0.22620
 C1144 C 0.94073 0.88620 0.20835
 N1145 N 0.96506 0.86878 0.20682
 H1146 H 0.92022 0.88326 0.19686
 N1147 N 0.39137 0.32523 0.67537
 N1148 N 0.37751 0.34957 0.68302
 C1149 C 0.39873 0.36969 0.68693
 C1150 C 0.42625 0.35674 0.68132
 N1151 N 0.42064 0.32897 0.67419
 H1152 H 0.44809 0.36640 0.68266
 N1153 N 0.48655 0.61917 0.75203
 N1154 N 0.47542 0.59567 0.73993
 C1155 C 0.46069 0.58080 0.76132
 C1156 C 0.46332 0.59601 0.78700
 N1157 N 0.47953 0.61975 0.78030
 H1158 H 0.45305 0.59130 0.80815
 N1159 N -0.01994 0.15900 0.27570
 N1160 N -0.03139 0.13540 0.26419
 C1161 C -0.04718 0.12178 0.28568
 C1162 C -0.04495 0.13793 0.31088
 N1163 N -0.02778 0.16097 0.30371
 H1164 H -0.05537 0.13378 0.33208
 N1165 N 0.01595 0.37793 0.28677
 N1166 N 0.02561 0.40214 0.27396
 C1167 C 0.05061 0.40992 0.28761
 C1168 C 0.05599 0.38954 0.30922
 N1169 N 0.03391 0.36991 0.30796
 H1170 H 0.07417 0.38906 0.32429
 N1171 N 0.49499 0.85486 0.79604
 N1172 N 0.50477 0.88060 0.78694
 C1173 C 0.53433 0.88119 0.79177
 C1174 C 0.54227 0.85492 0.80417
 N1175 N 0.51714 0.83909 0.80659
 H1176 H 0.56415 0.84827 0.81113
 N1177 N 0.71902 0.56367 0.18447
 N1178 N 0.73100 0.57777 0.16182
 C1179 C 0.71558 0.57038 0.13804
 C1180 C 0.69352 0.55103 0.14713
 N1181 N 0.69647 0.54753 0.17622
 H1182 H 0.67689 0.54067 0.13414
 N1183 N 0.21489 0.99078 0.61298
 N1184 N 0.22481 1.00029 0.58716
 C1185 C 0.22090 1.02937 0.58680
 C1186 C 0.20831 1.03738 0.61342
 N1187 N 0.20485 1.01266 0.62916
 H1188 H 0.20207 1.05900 0.62039
 N1189 N 0.22918 0.98076 0.86249
 N1190 N 0.24115 0.96885 0.88593
 C1191 C 0.23719 0.93984 0.88420
 C1192 C 0.22249 0.93449 0.85851
 N1193 N 0.21764 0.96056 0.84581
 H1194 H 0.21497 0.91388 0.85041
 N1195 N 0.68221 0.49228 0.40143
 N1196 N 0.69507 0.48204 0.42514
 C1197 C 0.69720 0.45296 0.42220
 C1198 C 0.68505 0.44574 0.39572
 N1199 N 0.67593 0.47091 0.38343
 H1200 H 0.68324 0.42437 0.38631
 N1201 N 0.75730 0.44891 0.67593
 N1202 N 0.74569 0.43811 0.65201
 C1203 C 0.76863 0.43259 0.63313
 C1204 C 0.79469 0.44051 0.64630
 N1205 N 0.78670 0.45061 0.67292
 H1206 H 0.81728 0.43865 0.63762
 N1207 N 0.27056 -0.05688 0.13770
 N1208 N 0.25768 -0.06797 0.11462
 C1209 C 0.27952 -0.08037 0.09806
 C1210 C 0.30626 -0.07644 0.11174
 N1211 N 0.29973 -0.06165 0.13637
 H1212 H 0.32825 -0.08354 0.10445
 N1213 N 0.33290 -0.01448 0.36731
 N1214 N 0.32271 -0.00441 0.39273
 C1215 C 0.31089 0.02207 0.38739
 C1216 C 0.31421 0.02796 0.35792
 N1217 N 0.32817 0.00468 0.34615
 H1218 H 0.30799 0.04764 0.34643
 N1219 N 0.79429 0.48602 0.89939
 N1220 N 0.78308 0.49566 0.92463
 C1221 C 0.79540 0.52184 0.92915
 C1222 C 0.81444 0.52794 0.90576
 N1223 N 0.81308 0.50515 0.88756
 H1224 H 0.82719 0.54752 0.90203
 N1225 N 0.12664 0.73434 0.51750
 N1226 N 0.10123 0.74312 0.52999
 C1227 C 0.09645 0.72612 0.55379
 C1228 C 0.11979 0.70651 0.55546
 N1229 N 0.13810 0.71234 0.53236
 H1230 H 0.12310 0.68971 0.57177
 N1231 N 0.61474 0.19176 0.99568
 N1232 N 0.58969 0.20387 1.00576
 C1233 C 0.59345 0.20919 1.03437
 C1234 C 0.62172 0.19987 1.04148
 N1235 N 0.63429 0.18904 1.01675
 H1236 H 0.63185 0.20055 1.06264
 N1237 N 0.83748 0.22322 0.91370
 N1238 N 0.86129 0.23511 0.90094
 C1239 C 0.88538 0.21991 0.90975
 C1240 C 0.87522 0.19801 0.92851
 N1241 N 0.84525 0.20087 0.93027
 H1242 H 0.88814 0.18174 0.93984
 N1243 N 0.33457 0.75051 0.41587
 N1244 N 0.35878 0.76312 0.40457
 C1245 C 0.38250 0.74816 0.41452
 C1246 C 0.37195 0.72600 0.43244
 N1247 N 0.34200 0.72821 0.43269
 H1248 H 0.38466 0.70937 0.44351
 N1249 N 0.61579 0.80980 0.50258
 N1250 N 0.59347 0.79650 0.48993
 C1251 C 0.59920 0.79752 0.46086
 C1252 C 0.62577 0.81201 0.45614
 N1253 N 0.63541 0.81945 0.48269
 H1254 H 0.63657 0.81715 0.43535
 N1255 N 0.11063 0.30913 -0.00216
 N1256 N 0.08836 0.29512 -0.01411
 C1257 C 0.09643 0.29023 -0.04227
 C1258 C 0.12466 0.30163 -0.04708
 N1259 N 0.13267 0.31323 -0.02156
 H1260 H 0.13743 0.30289 -0.06743
 N1261 N 0.38492 0.33689 -0.00472
 N1262 N 0.41022 0.32658 0.00581
 C1263 C 0.40376 0.31647 0.03299
 C1264 C 0.37376 0.32097 0.03879
 N1265 N 0.36280 0.33376 0.01480
 H1266 H 0.36120 0.31576 0.05865
 N1267 N 0.84677 0.77297 0.53042
 N1268 N 0.86923 0.75963 0.54329
 C1269 C 0.88395 0.78000 0.55819
 C1270 C 0.86983 0.80636 0.55382
 N1271 N 0.84681 0.80106 0.53638
 H1272 H 0.87500 0.82713 0.56326
   
