data_POSCAR
  _audit_creation_date              2014-09-24
  _audit_creation_method            'ToBaCCo'
  _symmetry_space_group_name_H-M    'P1'
  _symmetry_Int_Tables_number       1
  _symmetry_cell_setting            triclinic
  loop_
  _symmetry_equiv_pos_as_xyz
 x,y,z
_cell_length_a 60.7746
_cell_length_b 54.0820
_cell_length_c 63.3927
_cell_angle_alpha 89.445300
_cell_angle_beta 90.281700
_cell_angle_gamma 90.283100
loop_
  _atom_site_label
  _atom_site_type_symbol
  _atom_site_fract_x
  _atom_site_fract_y
  _atom_site_fract_z
C1 C 0.41777 -0.03131 0.24753
 C2 C 0.42746 -0.00987 0.23905
 C3 C 0.43616 -0.01007 0.21871
 C4 C 0.43600 -0.03188 0.20686
 C5 C 0.42636 -0.05343 0.21569
 C6 C 0.41641 -0.05336 0.23587
 C7 C 0.42790 0.01288 0.25167
 C8 C 0.43934 0.01311 0.27089
 C9 C 0.43743 0.03299 0.28512
 C10 C 0.42374 0.05299 0.27885
 C11 C 0.41280 0.05315 0.25923
 C12 C 0.41511 0.03317 0.24564
 H13 H 0.41159 -0.03055 0.26349
 H14 H 0.44289 0.00691 0.21215
 H15 H 0.44990 -0.00247 0.27420
 H16 H 0.40581 0.03267 0.23101
 H17 H 0.42581 -0.06989 0.20622
 H18 H 0.42026 0.06797 0.28947
 C19 C 0.08565 -0.02962 0.75067
 C20 C 0.07555 -0.00811 0.75811
 C21 C 0.06349 -0.00886 0.77688
 C22 C 0.05960 -0.03137 0.78746
 C23 C 0.06818 -0.05312 0.77864
 C24 C 0.08269 -0.05247 0.76123
 C25 C 0.07566 0.01494 0.74548
 C26 C 0.06296 0.01599 0.72701
 C27 C 0.05950 0.03853 0.71612
 C28 C 0.06919 0.06001 0.72491
 C29 C 0.08409 0.05899 0.74214
 C30 C 0.08670 0.03609 0.75263
 H31 H 0.09593 -0.02810 0.73685
 H32 H 0.05697 0.00824 0.78290
 H33 H 0.05611 -0.00121 0.72141
 H34 H 0.09734 0.03424 0.76625
 H35 H 0.06348 -0.07067 0.78552
 H36 H 0.06456 0.07789 0.71877
 C37 C 0.58792 0.47073 0.25004
 C38 C 0.57824 0.49157 0.25902
 C39 C 0.56934 0.48997 0.27931
 C40 C 0.56922 0.46748 0.29061
 C41 C 0.57922 0.44669 0.28141
 C42 C 0.58906 0.44824 0.26131
 C43 C 0.57650 0.51501 0.24703
 C44 C 0.56445 0.51570 0.22815
 C45 C 0.56066 0.53822 0.21761
 C46 C 0.56903 0.56008 0.22663
 C47 C 0.58342 0.55956 0.24423
 C48 C 0.58645 0.53667 0.25467
 H49 H 0.59468 0.47217 0.23429
 H50 H 0.56239 0.50643 0.28616
 H51 H 0.55814 0.49855 0.22180
 H52 H 0.59698 0.53512 0.26840
 H53 H 0.57962 0.42932 0.28999
 H54 H 0.56443 0.57753 0.21953
 C55 C 0.92149 0.46035 0.75007
 C56 C 0.93158 0.48220 0.74283
 C57 C 0.94471 0.48192 0.72475
 C58 C 0.94947 0.45953 0.71470
 C59 C 0.94088 0.43745 0.72351
 C60 C 0.92550 0.43764 0.74016
 C61 C 0.92919 0.50523 0.75480
 C62 C 0.93984 0.50735 0.77435
 C63 C 0.93823 0.52900 0.78661
 C64 C 0.92467 0.54824 0.77843
 C65 C 0.91334 0.54581 0.75914
 C66 C 0.91604 0.52449 0.74716
 H67 H 0.91020 0.46155 0.76314
 H68 H 0.95105 0.49930 0.71868
 H69 H 0.94863 0.49127 0.77997
 H70 H 0.90717 0.52242 0.73240
 H71 H 0.94602 0.42001 0.71709
 H72 H 0.92266 0.56549 0.78659
 C73 C 0.25716 0.35871 1.02986
 C74 C 0.26014 0.37334 1.01165
 C75 C 0.28017 0.38613 1.00874
 C76 C 0.29705 0.38466 1.02405
 C77 C 0.29387 0.36933 1.04185
 C78 C 0.27409 0.35599 1.04509
 C79 C 0.24285 0.37334 0.99495
 C80 C 0.22287 0.38612 0.99760
 C81 C 0.20609 0.38491 0.98210
 C82 C 0.20944 0.37000 0.96432
 C83 C 0.22907 0.35679 0.96158
 C84 C 0.24582 0.35888 0.97689
 H85 H 0.24202 0.34819 1.03121
 H86 H 0.28243 0.39743 0.99470
 H87 H 0.22058 0.39720 1.01155
 H88 H 0.26092 0.34854 0.97519
 H89 H 0.30689 0.36842 1.05352
 H90 H 0.19659 0.36859 0.95250
 C91 C 0.74145 0.14087 1.02472
 C92 C 0.73866 0.12697 1.00626
 C93 C 0.71847 0.11476 1.00259
 C94 C 0.70126 0.11607 1.01739
 C95 C 0.70423 0.13081 1.03535
 C96 C 0.72414 0.14357 1.03934
 C97 C 0.75643 0.12703 0.99018
 C98 C 0.77630 0.11416 0.99374
 C99 C 0.79349 0.11532 0.97881
 C100 C 0.79072 0.13032 0.96075
 C101 C 0.77124 0.14361 0.95708
 C102 C 0.75403 0.14153 0.97178
 H103 H 0.75676 0.15092 1.02673
 H104 H 0.71634 0.10397 0.98840
 H105 H 0.77816 0.10303 1.00792
 H106 H 0.73900 0.15189 0.96934
 H107 H 0.69093 0.13167 1.04659
 H108 H 0.80390 0.13170 0.94937
 C109 C 0.25347 0.64269 0.52796
 C110 C 0.25182 0.62890 0.50922
 C111 C 0.23268 0.61464 0.50537
 C112 C 0.21549 0.61370 0.52024
 C113 C 0.21746 0.62790 0.53856
 C114 C 0.23627 0.64219 0.54277
 C115 C 0.26963 0.63027 0.49317
 C116 C 0.28985 0.61795 0.49623
 C117 C 0.30649 0.61914 0.48070
 C118 C 0.30272 0.63362 0.46244
 C119 C 0.28275 0.64616 0.45921
 C120 C 0.26621 0.64409 0.47459
 H121 H 0.26807 0.65370 0.53099
 H122 H 0.23139 0.60402 0.49101
 H123 H 0.29232 0.60696 0.51041
 H124 H 0.25076 0.65372 0.47235
 H125 H 0.20397 0.62811 0.54969
 H126 H 0.31541 0.63506 0.45055
 C127 C 0.75527 0.85505 0.52906
 C128 C 0.75819 0.87077 0.51160
 C129 C 0.77810 0.88400 0.50937
 C130 C 0.79509 0.88226 0.52478
 C131 C 0.79147 0.86617 0.54223
 C132 C 0.77190 0.85233 0.54440
 C133 C 0.74080 0.87214 0.49506
 C134 C 0.72132 0.88581 0.49819
 C135 C 0.70490 0.88695 0.48231
 C136 C 0.70817 0.87370 0.46362
 C137 C 0.72725 0.85981 0.46044
 C138 C 0.74353 0.85907 0.47619
 H139 H 0.74023 0.84432 0.53027
 H140 H 0.77968 0.89633 0.49592
 H141 H 0.71922 0.89585 0.51273
 H142 H 0.75837 0.84847 0.47373
 H143 H 0.80417 0.86356 0.55401
 H144 H 0.69556 0.87373 0.45147
 C145 C -0.03634 0.25973 0.32262
 C146 C -0.01571 0.25061 0.32844
 C147 C -0.01412 0.22883 0.34039
 C148 C -0.03310 0.21642 0.34749
 C149 C -0.05372 0.22572 0.34125
 C150 C -0.05567 0.24756 0.32907
 C151 C 0.00393 0.26626 0.32586
 C152 C 0.00385 0.28991 0.33464
 C153 C 0.02345 0.30335 0.33687
 C154 C 0.04295 0.29353 0.32900
 C155 C 0.04329 0.26966 0.32057
 C156 C 0.02367 0.25620 0.31870
 H157 H -0.03708 0.27734 0.31438
 H158 H 0.00199 0.22332 0.34603
 H159 H -0.01108 0.29663 0.34184
 H160 H 0.02396 0.23735 0.31304
 H161 H -0.06831 0.21507 0.34498
 H162 H 0.05820 0.30381 0.33073
 C163 C -0.02678 0.74227 0.17929
 C164 C -0.00617 0.75038 0.17214
 C165 C -0.00458 0.77173 0.15958
 C166 C -0.02350 0.78455 0.15351
 C167 C -0.04401 0.77631 0.16057
 C168 C -0.04605 0.75493 0.17330
 C169 C 0.01313 0.73423 0.17402
 C170 C 0.01194 0.71055 0.16536
 C171 C 0.03114 0.69679 0.16160
 C172 C 0.05137 0.70663 0.16851
 C173 C 0.05268 0.73027 0.17737
 C174 C 0.03348 0.74397 0.18015
 H175 H -0.02775 0.72505 0.18811
 H176 H 0.01122 0.77724 0.15316
 H177 H -0.00377 0.70455 0.15907
 H178 H 0.03445 0.76275 0.18593
 H179 H -0.05835 0.78715 0.15637
 H180 H 0.06633 0.69605 0.16686
 C181 C 0.47261 0.24238 0.68083
 C182 C 0.49331 0.25080 0.67427
 C183 C 0.49535 0.27407 0.66455
 C184 C 0.47676 0.28869 0.66087
 C185 C 0.45622 0.28036 0.66793
 C186 C 0.45397 0.25703 0.67752
 C187 C 0.51209 0.23384 0.67406
 C188 C 0.50983 0.21108 0.66393
 C189 C 0.52831 0.19662 0.65974
 C190 C 0.54901 0.20452 0.66683
 C191 C 0.55151 0.22744 0.67677
 C192 C 0.53293 0.24193 0.68053
 H193 H 0.47091 0.22396 0.68753
 H194 H 0.51111 0.27980 0.65817
 H195 H 0.49394 0.20583 0.65749
 H196 H 0.53476 0.26011 0.68738
 H197 H 0.44184 0.29177 0.66528
 H198 H 0.56333 0.19331 0.66369
 C199 C 0.46727 0.75236 0.82053
 C200 C 0.48806 0.74419 0.82680
 C201 C 0.49019 0.72176 0.83785
 C202 C 0.47153 0.70764 0.84339
 C203 C 0.45082 0.71589 0.83637
 C204 C 0.44858 0.73835 0.82535
 C205 C 0.50719 0.76073 0.82480
 C206 C 0.50586 0.78487 0.83246
 C207 C 0.52479 0.79958 0.83427
 C208 C 0.54491 0.79036 0.82730
 C209 C 0.54651 0.76599 0.82016
 C210 C 0.52753 0.75138 0.81858
 H211 H 0.46561 0.77014 0.81265
 H212 H 0.50626 0.71694 0.84401
 H213 H 0.49045 0.79126 0.83894
 H214 H 0.52873 0.73228 0.81373
 H215 H 0.43626 0.70478 0.83925
 H216 H 0.55957 0.80174 0.82860
 C217 C -0.27899 0.64766 1.00193
 C218 C -0.25833 0.65650 1.00876
 C219 C -0.25606 0.66624 1.02903
 C220 C -0.27412 0.66766 1.04252
 C221 C -0.29472 0.65889 1.03554
 C222 C -0.29765 0.64862 1.01521
 C223 C -0.23918 0.65756 0.99439
 C224 C -0.24111 0.66978 0.97480
 C225 C -0.22249 0.67404 0.96203
 C226 C -0.20189 0.66666 0.97027
 C227 C -0.19985 0.65162 0.98846
 C228 C -0.21875 0.64772 1.00078
 H229 H -0.28046 0.64095 0.98596
 H230 H -0.24011 0.67295 1.03423
 H231 H -0.25730 0.67557 0.96975
 H232 H -0.21785 0.63693 1.01522
 H233 H -0.30826 0.65942 1.04651
 H234 H -0.18705 0.67292 0.96258
 C235 C -0.27525 0.35389 0.49691
 C236 C -0.25532 0.34507 0.48870
 C237 C -0.25483 0.33534 0.46834
 C238 C -0.27417 0.33331 0.45631
 C239 C -0.29412 0.34167 0.46493
 C240 C -0.29507 0.35245 0.48519
 C241 C -0.23534 0.34384 0.50211
 C242 C -0.23645 0.33153 0.52169
 C243 C -0.21770 0.32903 0.53456
 C244 C -0.19774 0.33936 0.52741
 C245 C -0.19656 0.35305 0.50848
 C246 C -0.21531 0.35455 0.49549
 H247 H -0.27526 0.36079 0.51287
 H248 H -0.23935 0.32894 0.46206
 H249 H -0.25211 0.32413 0.52689
 H250 H -0.21464 0.36497 0.48082
 H251 H -0.30881 0.34038 0.45533
 H252 H -0.18293 0.33738 0.53683
 C253 C 0.21724 -0.14651 -0.00129
 C254 C 0.23771 -0.15565 -0.00780
 C255 C 0.23926 -0.16888 -0.02668
 C256 C 0.22033 -0.17482 -0.03860
 C257 C 0.19976 -0.16771 -0.03026
 C258 C 0.19792 -0.15198 -0.01269
 C259 C 0.25746 -0.15288 0.00575
 C260 C 0.25691 -0.16214 0.02647
 C261 C 0.27599 -0.16284 0.03928
 C262 C 0.29564 -0.15274 0.03067
 C263 C 0.29632 -0.14273 0.01005
 C264 C 0.27714 -0.14314 -0.00235
 H265 H 0.21672 -0.13500 0.01254
 H266 H 0.25547 -0.17413 -0.03185
 H267 H 0.24124 -0.16865 0.03236
 H268 H 0.27756 -0.13622 -0.01845
 H269 H 0.18490 -0.17502 -0.03720
 H270 H 0.31082 -0.15315 0.03958
 C271 C 0.21650 1.15053 0.50414
 C272 C 0.23771 1.15832 0.51036
 C273 C 0.24070 1.17041 0.52964
 C274 C 0.22245 1.17676 0.54191
 C275 C 0.20124 1.17120 0.53418
 C276 C 0.19789 1.15633 0.51626
 C277 C 0.25642 1.15551 0.49576
 C278 C 0.25473 1.16606 0.47555
 C279 C 0.27185 1.16420 0.46072
 C280 C 0.29090 1.15101 0.46698
 C281 C 0.29297 1.14052 0.48734
 C282 C 0.27576 1.14321 0.50181
 H283 H 0.21485 1.13981 0.48991
 H284 H 0.25719 1.17508 0.53482
 H285 H 0.24021 1.17688 0.47212
 H286 H 0.27706 1.13500 0.51743
 H287 H 0.18725 1.17840 0.54252
 H288 H 0.30410 1.14795 0.45596
 C289 C 0.08592 0.51007 0.22390
 C290 C 0.09964 0.51266 0.24157
 C291 C 0.11279 0.53397 0.24359
 C292 C 0.11246 0.55261 0.22788
 C293 C 0.09848 0.54970 0.21031
 C294 C 0.08514 0.52854 0.20817
 C295 C 0.09966 0.49320 0.25811
 C296 C 0.11245 0.47183 0.25584
 C297 C 0.11175 0.45276 0.27115
 C298 C 0.09778 0.45538 0.28861
 C299 C 0.08486 0.47664 0.29107
 C300 C 0.08598 0.49553 0.27571
 H301 H 0.07560 0.49375 0.22261
 H302 H 0.12348 0.53578 0.25723
 H303 H 0.12309 0.47026 0.24226
 H304 H 0.07591 0.51189 0.27720
 H305 H 0.09805 0.56392 0.19818
 H306 H 0.09703 0.44083 0.30044
 C307 C -0.08258 0.99815 0.22510
 C308 C -0.09620 0.99579 0.24282
 C309 C -0.10926 0.97448 0.24544
 C310 C -0.10912 0.95535 0.23036
 C311 C -0.09463 0.95788 0.21311
 C312 C -0.08119 0.97900 0.21018
 C313 C -0.09649 1.01551 0.25892
 C314 C -0.11007 1.03629 0.25627
 C315 C -0.11099 1.05498 0.27180
 C316 C -0.09738 1.05224 0.28983
 C317 C -0.08352 1.03171 0.29256
 C318 C -0.08335 1.01330 0.27707
 H319 H -0.07228 1.01448 0.22368
 H320 H -0.12021 0.97366 0.25884
 H321 H -0.12062 1.03698 0.24248
 H322 H -0.07281 0.99732 0.27898
 H323 H -0.09388 0.94325 0.20169
 H324 H -0.09701 1.06637 0.30177
 C325 C 0.41850 0.49598 -0.27411
 C326 C 0.40458 0.49355 -0.25660
 C327 C 0.39210 0.47189 -0.25383
 C328 C 0.39344 0.45255 -0.26843
 C329 C 0.40800 0.45492 -0.28550
 C330 C 0.42070 0.47657 -0.28874
 C331 C 0.40403 0.51319 -0.24053
 C332 C 0.39033 0.53386 -0.24312
 C333 C 0.38942 0.55256 -0.22760
 C334 C 0.40322 0.54989 -0.20965
 C335 C 0.41703 0.52931 -0.20696
 C336 C 0.41720 0.51099 -0.22246
 H337 H 0.42844 0.51258 -0.27552
 H338 H 0.38114 0.47031 -0.24045
 H339 H 0.37971 0.53441 -0.25686
 H340 H 0.42781 0.49505 -0.22062
 H341 H 0.40871 0.43999 -0.29670
 H342 H 0.40373 0.56401 -0.19771
 C343 C 0.58723 0.00335 -0.28110
 C344 C 0.60163 0.00513 -0.26383
 C345 C 0.61476 0.02632 -0.26145
 C346 C 0.61366 0.04578 -0.27630
 C347 C 0.59880 0.04394 -0.29329
 C348 C 0.58539 0.02279 -0.29607
 C349 C 0.60141 -0.01432 -0.24730
 C350 C 0.61398 -0.03590 -0.24929
 C351 C 0.61323 -0.05457 -0.23360
 C352 C 0.59942 -0.05136 -0.21607
 C353 C 0.58681 -0.02982 -0.21393
 C354 C 0.58796 -0.01140 -0.22965
 H355 H 0.57662 -0.01275 -0.28199
 H356 H 0.62590 0.02753 -0.24810
 H357 H 0.62453 -0.03791 -0.26288
 H358 H 0.57812 0.00517 -0.22835
 H359 H 0.59833 0.05892 -0.30470
 H360 H 0.59857 -0.06558 -0.20396
 C361 C 0.00971 0.21789 0.87226
 C362 C -0.00141 0.23898 0.86478
 C363 C -0.02242 0.23649 0.85598
 C364 C -0.03223 0.21322 0.85444
 C365 C -0.02111 0.19231 0.86160
 C366 C -0.00021 0.19448 0.87087
 C367 C 0.00886 0.26362 0.86587
 C368 C 0.03079 0.26668 0.85983
 C369 C 0.04052 0.29011 0.85987
 C370 C 0.02837 0.31057 0.86592
 C371 C 0.00649 0.30778 0.87245
 C372 C -0.00327 0.28424 0.87235
 H373 H 0.02574 0.21978 0.87965
 H374 H -0.03111 0.25262 0.85008
 H375 H 0.04018 0.25093 0.85455
 H376 H -0.02009 0.28194 0.87764
 H377 H -0.02947 0.17457 0.86118
 H378 H 0.03640 0.32849 0.86656
 C379 C 0.49006 0.21499 0.12408
 C380 C 0.50156 0.23581 0.13149
 C381 C 0.52342 0.23335 0.13808
 C382 C 0.53372 0.21036 0.13754
 C383 C 0.52219 0.18967 0.13057
 C384 C 0.50039 0.19187 0.12352
 C385 C 0.49077 0.26007 0.13272
 C386 C 0.46940 0.26155 0.14061
 C387 C 0.45902 0.28441 0.14224
 C388 C 0.47000 0.30595 0.13606
 C389 C 0.49136 0.30483 0.12785
 C390 C 0.50177 0.28180 0.12638
 H391 H 0.47331 0.21683 0.11836
 H392 H 0.53236 0.24923 0.14405
 H393 H 0.46094 0.24493 0.14588
 H394 H 0.51819 0.28072 0.11989
 H395 H 0.53068 0.17215 0.12956
 H396 H 0.46134 0.32340 0.13662
 C397 C -0.01316 0.71557 0.62472
 C398 C -0.00749 0.73861 0.63316
 C399 C 0.01034 0.74042 0.64708
 C400 C 0.02282 0.71957 0.65213
 C401 C 0.01715 0.69667 0.64365
 C402 C -0.00055 0.69458 0.62954
 C403 C -0.01973 0.76097 0.62699
 C404 C -0.04272 0.76050 0.62706
 C405 C -0.05488 0.78225 0.62361
 C406 C -0.04346 0.80421 0.61910
 C407 C -0.02045 0.80474 0.61847
 C408 C -0.00858 0.78310 0.62230
 H409 H -0.02669 0.71424 0.61359
 H410 H 0.01491 0.75820 0.65358
 H411 H -0.05091 0.74352 0.63184
 H412 H 0.00924 0.78357 0.62183
 H413 H 0.02788 0.68102 0.64647
 H414 H -0.05247 0.82096 0.61544
 C415 C 0.50622 0.71448 0.37484
 C416 C 0.49386 0.73495 0.36798
 C417 C 0.47169 0.73183 0.36279
 C418 C 0.46189 0.70846 0.36400
 C419 C 0.47425 0.68810 0.37040
 C420 C 0.49643 0.69100 0.37607
 C421 C 0.50415 0.75944 0.36548
 C422 C 0.52463 0.76150 0.35573
 C423 C 0.53459 0.78459 0.35317
 C424 C 0.52418 0.80576 0.36033
 C425 C 0.50378 0.80404 0.37050
 C426 C 0.49362 0.78079 0.37272
 H427 H 0.52331 0.71684 0.37939
 H428 H 0.46218 0.74746 0.35708
 H429 H 0.53289 0.74514 0.35006
 H430 H 0.47794 0.77918 0.38069
 H431 H 0.46629 0.67017 0.37172
 H432 H 0.53285 0.82329 0.35929
 Zr433 Zr 0.01658 -0.03382 1.03173
 O434 O 0.04315 -0.02092 1.05036
 O435 O 0.00864 -0.06703 1.04677
 O436 O 0.00562 -0.02717 1.06286
 O437 O 0.04774 -0.05769 0.99177
 O438 O -0.02322 -0.00059 1.05840
 O439 O 0.04516 -0.05632 1.02756
 O440 O -0.02260 -0.07965 1.02988
 O441 O -0.01793 -0.03349 1.03044
 O442 O 0.00719 -0.05576 1.00621
 O443 O 0.00727 0.00355 1.02870
 O444 O 0.03198 -0.01766 1.00523
 Zr445 Zr -0.02227 -0.00166 0.97344
 Zr446 Zr -0.02711 0.00340 1.02559
 Zr447 Zr 0.02071 -0.03871 0.97971
 Zr448 Zr -0.02691 -0.05448 1.00444
 O449 O 0.04996 -0.02726 0.96435
 O450 O -0.05718 -0.05715 1.02082
 O451 O -0.01358 -0.03933 0.97653
 O452 O -0.03743 -0.01800 0.99999
 O453 O -0.01337 0.02068 0.99904
 O454 O 0.01208 -0.00198 0.97526
 C455 C -0.00791 -0.08162 1.04455
 C456 C 0.05454 -0.06347 1.01034
 C457 C -0.01016 -0.01367 1.06994
 O458 O -0.05742 -0.00788 1.03899
 O459 O -0.05306 0.02500 1.01323
 O460 O -0.05003 0.02144 0.97755
 C461 C -0.05976 0.02941 0.99424
 O462 O 0.04821 0.02342 1.02209
 Zr463 Zr 0.02091 0.01887 1.00136
 O464 O -0.01361 0.03178 0.95859
 O465 O -0.02436 0.03907 1.03876
 O466 O 0.01577 0.05237 1.01769
 O467 O 0.05021 0.02415 0.98380
 O468 O 0.01491 0.04640 0.97855
 C469 C 0.00136 0.04786 0.96298
 O470 O -0.04966 -0.01319 0.95519
 O471 O 0.01886 -0.07525 0.96812
 O472 O -0.01327 -0.01088 0.94208
 O473 O 0.01493 -0.03791 0.94719
 O474 O -0.02190 -0.08969 0.99088
 O475 O -0.05181 -0.06169 0.98163
 C476 C 0.00163 -0.02574 0.93523
 H477 H 0.01225 -0.07307 1.00764
 H478 H -0.05365 -0.01806 0.99846
 H479 H 0.01933 0.00464 0.96244
 H480 H 0.01211 0.01317 1.04111
 H481 H -0.06121 -0.07490 1.02174
 H482 H -0.06245 0.00582 1.04802
 H483 H -0.03762 0.04145 1.04754
 H484 H 0.02580 0.06497 1.01154
 H485 H -0.03225 -0.10139 0.99781
 H486 H 0.03206 -0.07776 0.95930
 H487 H 0.05483 -0.04122 0.95553
 H488 H 0.05396 0.04200 0.98418
 H489 H -0.06044 -0.07642 0.98604
 H490 H -0.05214 -0.00036 0.94414
 H491 H 0.04582 -0.03368 1.06142
 H492 H 0.05447 0.04024 1.02024
 Zr493 Zr 0.52566 0.46564 0.53695
 O494 O 0.55144 0.47890 0.55641
 O495 O 0.51696 0.43295 0.55254
 O496 O 0.51357 0.47302 0.56749
 O497 O 0.55763 0.43844 0.49863
 O498 O 0.48526 0.49990 0.56158
 O499 O 0.55447 0.44351 0.53420
 O500 O 0.48568 0.42089 0.53543
 O501 O 0.49126 0.46649 0.53455
 O502 O 0.51687 0.44277 0.51185
 O503 O 0.51710 0.50305 0.53270
 O504 O 0.54221 0.48044 0.51055
 Zr505 Zr 0.48919 0.49621 0.47681
 Zr506 Zr 0.48287 0.50333 0.52859
 Zr507 Zr 0.53159 0.45846 0.48533
 Zr508 Zr 0.48286 0.44467 0.50890
 O509 O 0.56174 0.46902 0.47118
 O510 O 0.45183 0.44291 0.52403
 O511 O 0.49735 0.45850 0.48108
 O512 O 0.47298 0.48117 0.50330
 O513 O 0.49766 0.51937 0.50199
 O514 O 0.52350 0.49523 0.47967
 C515 C 0.49993 0.41902 0.55050
 C516 C 0.56406 0.43473 0.51771
 C517 C 0.49759 0.48671 0.57377
 O518 O 0.45181 0.49337 0.54112
 O519 O 0.45792 0.52523 0.51498
 O520 O 0.46150 0.52005 0.47952
 C521 C 0.45165 0.52906 0.49579
 O522 O 0.55841 0.52204 0.52682
 Zr523 Zr 0.53183 0.51704 0.50532
 O524 O 0.49876 0.52890 0.46137
 O525 O 0.48599 0.53924 0.54123
 O526 O 0.52644 0.55131 0.52037
 O527 O 0.56189 0.52106 0.48873
 O528 O 0.52720 0.54366 0.48134
 C529 C 0.51395 0.54479 0.46549
 O530 O 0.46226 0.48447 0.45804
 O531 O 0.52931 0.42174 0.47422
 O532 O 0.49924 0.48574 0.44606
 O533 O 0.52713 0.45868 0.45260
 O534 O 0.48801 0.40878 0.49673
 O535 O 0.45876 0.43707 0.48541
 C536 C 0.51445 0.47078 0.43998
 H537 H 0.52163 0.42544 0.51398
 H538 H 0.45683 0.48140 0.50130
 H539 H 0.53129 0.50129 0.46695
 H540 H 0.52166 0.51298 0.54503
 H541 H 0.44756 0.42524 0.52514
 H542 H 0.44676 0.50747 0.54970
 H543 H 0.47246 0.54225 0.54946
 H544 H 0.53680 0.56352 0.51414
 H545 H 0.47737 0.39753 0.50379
 H546 H 0.54288 0.41856 0.46610
 H547 H 0.56664 0.45487 0.46258
 H548 H 0.56591 0.53884 0.48876
 H549 H 0.45013 0.42225 0.48961
 H550 H 0.46036 0.49694 0.44660
 H551 H 0.55366 0.46638 0.56775
 H552 H 0.56478 0.53879 0.52484
 Zr553 Zr 0.47878 1.03115 0.52868
 O554 O 0.45355 1.01625 0.54796
 O555 O 0.48472 1.06501 0.54320
 O556 O 0.49041 1.02569 0.55996
 O557 O 0.44489 1.05096 0.48816
 O558 O 0.52046 1.00092 0.55610
 O559 O 0.44824 1.04976 0.52402
 O560 O 0.51601 1.07862 0.52711
 O561 O 0.51318 1.03326 0.52752
 O562 O 0.48653 1.05395 0.50291
 O563 O 0.49006 0.99451 0.52629
 O564 O 0.46432 1.01402 0.50228
 Zr565 Zr 0.51918 1.00193 0.47134
 Zr566 Zr 0.52434 0.99714 0.52344
 Zr567 Zr 0.47401 1.03603 0.47645
 Zr568 Zr 0.52071 1.05497 0.50126
 O569 O 0.44619 1.02226 0.45999
 O570 O 0.55139 1.06024 0.51671
 O571 O 0.50826 1.03890 0.47358
 O572 O 0.53342 1.01932 0.49765
 O573 O 0.51154 0.97895 0.49711
 O574 O 0.48485 0.99992 0.47272
 C575 C 0.50128 1.07973 0.54162
 C576 C 0.43749 1.05465 0.50683
 C577 C 0.50689 1.01329 0.56731
 O578 O 0.55407 1.01061 0.53664
 O579 O 0.55114 0.97701 0.51171
 O580 O 0.54818 0.98069 0.47597
 C581 C 0.55809 0.97303 0.49290
 O582 O 0.45021 0.97196 0.51958
 Zr583 Zr 0.47723 0.97837 0.49904
 O584 O 0.51263 0.96791 0.45700
 O585 O 0.52352 0.96147 0.53742
 O586 O 0.48398 0.94522 0.51594
 O587 O 0.44830 0.97129 0.48119
 O588 O 0.48486 0.95130 0.47677
 C589 C 0.49861 0.95077 0.46145
 O590 O 0.54586 1.01544 0.45314
 O591 O 0.47286 1.07302 0.46534
 O592 O 0.50949 1.01036 0.43995
 O593 O 0.48065 1.03677 0.44396
 O594 O 0.51305 1.09004 0.48798
 O595 O 0.54445 1.06412 0.47790
 C596 C 0.49435 1.02477 0.43261
 H597 H 0.48023 1.07071 0.50427
 H598 H 0.54961 1.02047 0.49621
 H599 H 0.47809 0.99278 0.45990
 H600 H 0.48579 0.98458 0.53883
 H601 H 0.55431 1.07828 0.51715
 H602 H 0.55994 0.99734 0.54595
 H603 H 0.53697 0.95998 0.54623
 H604 H 0.47458 0.93204 0.50987
 H605 H 0.52273 1.10234 0.49492
 H606 H 0.45948 1.07445 0.45643
 H607 H 0.44039 1.03603 0.45119
 H608 H 0.44556 0.95321 0.48163
 H609 H 0.55165 1.08001 0.48148
 H610 H 0.54901 1.00287 0.44228
 H611 H 0.45014 1.02889 0.55868
 H612 H 0.44460 0.95491 0.51766
 Zr613 Zr -0.01693 0.53350 1.03030
 O614 O -0.04331 0.52033 1.04901
 O615 O -0.00876 0.56634 1.04530
 O616 O -0.00570 0.52653 1.06147
 O617 O -0.04800 0.55830 0.99020
 O618 O 0.02308 0.50002 1.05721
 O619 O -0.04570 0.55582 1.02597
 O620 O 0.02384 0.57732 1.03017
 O621 O 0.01756 0.53279 1.02918
 O622 O -0.00741 0.55608 1.00496
 O623 O -0.00785 0.49610 1.02742
 O624 O -0.03243 0.51806 1.00370
 Zr625 Zr 0.02162 0.50229 0.97231
 Zr626 Zr 0.02651 0.49602 1.02447
 Zr627 Zr -0.02101 0.53968 0.97835
 Zr628 Zr 0.02670 0.55442 1.00340
 O629 O -0.05034 0.52899 0.96262
 O630 O 0.05777 0.55656 1.01868
 O631 O 0.01326 0.54002 0.97537
 O632 O 0.03694 0.51794 0.99897
 O633 O 0.01262 0.47943 0.99783
 O634 O -0.01270 0.50293 0.97396
 C635 C 0.00891 0.57940 1.04445
 C636 C -0.05512 0.56328 1.00867
 C637 C 0.01028 0.51317 1.06864
 O638 O 0.05706 0.50664 1.03787
 O639 O 0.05221 0.47442 1.01235
 O640 O 0.04939 0.47898 0.97665
 C641 C 0.05901 0.47051 0.99346
 O642 O -0.04882 0.47664 1.02059
 Zr643 Zr -0.02165 0.48152 0.99996
 O644 O 0.01263 0.46921 0.95749
 O645 O 0.02343 0.46024 1.03791
 O646 O -0.01650 0.44758 1.01623
 O647 O -0.05113 0.47703 0.98232
 O648 O -0.01614 0.45453 0.97706
 C649 C -0.00257 0.45326 0.96164
 O650 O 0.04894 0.51389 0.95406
 O651 O -0.01884 0.57651 0.96692
 O652 O 0.01233 0.51217 0.94089
 O653 O -0.01545 0.53957 0.94588
 O654 O 0.02127 0.59051 0.99112
 O655 O 0.05079 0.56241 0.98009
 C656 C -0.00256 0.52727 0.93397
 H657 H -0.01243 0.57335 1.00652
 H658 H 0.05314 0.51788 0.99752
 H659 H -0.02009 0.49669 0.96111
 H660 H -0.01268 0.48629 1.03984
 H661 H 0.06187 0.57429 1.01954
 H662 H 0.06197 0.49278 1.04707
 H663 H 0.03672 0.45760 1.04676
 H664 H -0.02663 0.43518 1.01002
 H665 H 0.03168 0.60171 0.99845
 H666 H -0.03213 0.57948 0.95815
 H667 H -0.05514 0.54327 0.95385
 H668 H -0.05509 0.45922 0.98272
 H669 H 0.05897 0.57759 0.98397
 H670 H 0.05118 0.50125 0.94304
 H671 H -0.04590 0.53294 1.05997
 H672 H -0.05511 0.45987 1.01877
 Zr673 Zr -0.01132 0.46781 0.47141
 O674 O -0.03686 0.48374 0.45307
 O675 O -0.00652 0.43447 0.45604
 O676 O -0.00056 0.47440 0.44009
 O677 O -0.04382 0.44576 0.51191
 O678 O 0.03022 0.49836 0.44412
 O679 O -0.04198 0.44903 0.47610
 O680 O 0.02521 0.42002 0.47084
 O681 O 0.02311 0.46534 0.47187
 O682 O -0.00306 0.44401 0.49637
 O683 O 0.00075 0.50417 0.47458
 O684 O -0.02476 0.48405 0.49847
 Zr685 Zr 0.03129 0.49441 0.52898
 Zr686 Zr 0.03505 0.50112 0.47681
 Zr687 Zr -0.01456 0.46105 0.52344
 Zr688 Zr 0.03114 0.44259 0.49734
 O689 O -0.04202 0.47463 0.54012
 O690 O 0.06121 0.43787 0.48105
 O691 O 0.01970 0.45767 0.52570
 O692 O 0.04450 0.47796 0.50188
 O693 O 0.02329 0.51830 0.50386
 O694 O -0.00303 0.49686 0.52812
 C695 C 0.00985 0.41958 0.45674
 C696 C -0.05200 0.44284 0.49337
 C697 C 0.01601 0.48676 0.43277
 O698 O 0.06431 0.48812 0.46285
 O699 O 0.06238 0.52079 0.48866
 O700 O 0.06035 0.51576 0.52435
 C701 C 0.06985 0.52408 0.50747
 O702 O -0.03875 0.52664 0.48285
 Zr703 Zr -0.01102 0.51934 0.50246
 O704 O 0.02589 0.52804 0.54436
 O705 O 0.03430 0.53727 0.46378
 O706 O -0.00445 0.55289 0.48602
 O707 O -0.03895 0.52645 0.52135
 O708 O -0.00162 0.54566 0.52480
 C709 C 0.01249 0.54571 0.53994
 O710 O 0.05832 0.47993 0.54620
 O711 O -0.01568 0.42388 0.53418
 O712 O 0.02252 0.48458 0.56039
 O713 O -0.00735 0.45952 0.55571
 O714 O 0.02334 0.40713 0.50986
 O715 O 0.05560 0.43224 0.51977
 C716 C 0.00706 0.47027 0.56740
 H717 H -0.00962 0.42733 0.49474
 H718 H 0.06071 0.47665 0.50300
 H719 H -0.00927 0.50363 0.54124
 H720 H -0.00372 0.51461 0.46239
 H721 H 0.06384 0.41985 0.47994
 H722 H 0.07003 0.50168 0.45375
 H723 H 0.04743 0.53896 0.45466
 H724 H -0.01336 0.56599 0.49263
 H725 H 0.03244 0.39500 0.50224
 H726 H -0.02892 0.42221 0.54316
 H727 H -0.04770 0.46082 0.54896
 H728 H -0.04122 0.54459 0.52136
 H729 H 0.06231 0.41639 0.51557
 H730 H 0.06208 0.49208 0.55730
 H731 H -0.04082 0.47158 0.44205
 H732 H -0.04400 0.54366 0.48533
 Zr733 Zr 0.47802 -0.02885 -0.04080
 O734 O 0.45340 -0.01421 -0.06098
 O735 O 0.48550 -0.06184 -0.05570
 O736 O 0.49121 -0.02226 -0.07118
 O737 O 0.44396 -0.05494 -0.00296
 O738 O 0.52066 0.00308 -0.06503
 O739 O 0.44832 -0.04971 -0.03850
 O740 O 0.51621 -0.07497 -0.03822
 O741 O 0.51233 -0.02958 -0.03769
 O742 O 0.48522 -0.05226 -0.01526
 O743 O 0.48809 0.00812 -0.03692
 O744 O 0.46149 -0.01350 -0.01495
 Zr745 Zr 0.51441 -0.00020 0.01958
 Zr746 Zr 0.52219 0.00681 -0.03209
 Zr747 Zr 0.47056 -0.03609 0.01074
 Zr748 Zr 0.51920 -0.05187 -0.01163
 O749 O 0.44058 -0.02438 0.02416
 O750 O 0.55060 -0.05496 -0.02582
 O751 O 0.50468 -0.03752 0.01568
 O752 O 0.53056 -0.01584 -0.00633
 O753 O 0.50751 0.02340 -0.00603
 O754 O 0.48015 0.00028 0.01605
 C755 C 0.50213 -0.07617 -0.05346
 C756 C 0.43793 -0.05816 -0.02219
 C757 C 0.50810 -0.00959 -0.07729
 O758 O 0.55320 -0.00452 -0.04350
 O759 O 0.54755 0.02781 -0.01832
 O760 O 0.54305 0.02256 0.01711
 C761 C 0.55354 0.03129 0.00092
 O762 O 0.44745 0.02870 -0.03207
 Zr763 Zr 0.47336 0.02258 -0.01001
 O764 O 0.50589 0.03270 0.03456
 O765 O 0.52097 0.04269 -0.04561
 O766 O 0.48068 0.05665 -0.02531
 O767 O 0.44315 0.02806 0.00587
 O768 O 0.47854 0.04876 0.01385
 C769 C 0.49139 0.04917 0.03002
 O770 O 0.54050 -0.01319 0.03891
 O771 O 0.47104 -0.07290 0.02236
 O772 O 0.50342 -0.01039 0.05023
 O773 O 0.47441 -0.03606 0.04358
 O774 O 0.51215 -0.08769 0.00054
 O775 O 0.54219 -0.06073 0.01262
 C776 C 0.48746 -0.02465 0.05623
 H777 H 0.47976 -0.06935 -0.01732
 H778 H 0.54667 -0.01630 -0.00396
 H779 H 0.47234 0.00659 0.02854
 H780 H 0.48428 0.01824 -0.04950
 H781 H 0.55407 -0.07280 -0.02666
 H782 H 0.55907 0.00925 -0.05228
 H783 H 0.53482 0.04502 -0.05358
 H784 H 0.47072 0.06928 -0.01944
 H785 H 0.52248 -0.09927 -0.00624
 H786 H 0.45716 -0.07551 0.03023
 H787 H 0.43492 -0.03838 0.03280
 H788 H 0.43988 0.04600 0.00534
 H789 H 0.55022 -0.07594 0.00886
 H790 H 0.54275 -0.00086 0.05022
 H791 H 0.45085 -0.02652 -0.07224
 H792 H 0.44202 0.04584 -0.03072
 Zr793 Zr 0.51873 0.53638 -0.02851
 O794 O 0.54433 0.52287 -0.04768
 O795 O 0.51092 0.56939 -0.04388
 O796 O 0.50672 0.52961 -0.05934
 O797 O 0.55095 0.56285 0.01047
 O798 O 0.47782 0.50315 -0.05406
 O799 O 0.54801 0.55790 -0.02516
 O800 O 0.47936 0.58131 -0.02768
 O801 O 0.48431 0.53595 -0.02673
 O802 O 0.51014 0.55918 -0.00343
 O803 O 0.50945 0.49907 -0.02466
 O804 O 0.53479 0.52124 -0.00189
 Zr805 Zr 0.48118 0.50576 0.03074
 Zr806 Zr 0.47518 0.49920 -0.02116
 Zr807 Zr 0.52434 0.54314 0.02328
 Zr808 Zr 0.47607 0.55767 -0.00112
 O809 O 0.55405 0.53218 0.03813
 O810 O 0.44511 0.55985 -0.01660
 O811 O 0.49006 0.54342 0.02686
 O812 O 0.46547 0.52125 0.00409
 O813 O 0.48947 0.48277 0.00556
 O814 O 0.51553 0.50639 0.02858
 C815 C 0.49392 0.58322 -0.04234
 C816 C 0.55766 0.56648 -0.00851
 C817 C 0.49047 0.51628 -0.06598
 O818 O 0.44432 0.50953 -0.03405
 O819 O 0.44977 0.47744 -0.00813
 O820 O 0.45311 0.48236 0.02742
 C821 C 0.44327 0.47359 0.01094
 O822 O 0.55058 0.47988 -0.01795
 Zr823 Zr 0.52370 0.48475 0.00290
 O824 O 0.48979 0.47266 0.04608
 O825 O 0.47779 0.46342 -0.03406
 O826 O 0.51816 0.45075 -0.01268
 O827 O 0.55331 0.48010 0.02033
 O828 O 0.51800 0.45778 0.02633
 C829 C 0.50453 0.45646 0.04187
 O830 O 0.45427 0.51773 0.04905
 O831 O 0.52267 0.57988 0.03436
 O832 O 0.49095 0.51589 0.06170
 O833 O 0.51924 0.54291 0.05592
 O834 O 0.48184 0.59348 0.01113
 O835 O 0.45205 0.56553 0.02209
 C836 C 0.50610 0.53091 0.06816
 H837 H 0.51526 0.57645 -0.00541
 H838 H 0.44929 0.52121 0.00582
 H839 H 0.52300 0.50008 0.04144
 H840 H 0.51393 0.48920 -0.03699
 H841 H 0.44118 0.57758 -0.01777
 H842 H 0.43918 0.49564 -0.04292
 H843 H 0.46429 0.46067 -0.04256
 H844 H 0.52826 0.43840 -0.00633
 H845 H 0.47145 0.60485 0.00392
 H846 H 0.53617 0.58281 0.04283
 H847 H 0.55909 0.54629 0.04681
 H848 H 0.55699 0.46227 0.02023
 H849 H 0.44370 0.58044 0.01780
 H850 H 0.45195 0.50518 0.06036
 H851 H 0.54693 0.53549 -0.05887
 H852 H 0.55680 0.46314 -0.01586
 Zr853 Zr 0.01265 1.04284 0.47399
 O854 O 0.03923 1.03066 0.45540
 O855 O 0.00429 1.07580 0.45887
 O856 O 0.00163 1.03594 0.44275
 O857 O 0.04332 1.06809 0.51418
 O858 O -0.02678 1.00855 0.44711
 O859 O 0.04123 1.06562 0.47839
 O860 O -0.02785 1.08662 0.47461
 O861 O -0.02184 1.04128 0.47495
 O862 O 0.00280 1.06472 0.49925
 O863 O 0.00407 1.00517 0.47711
 O864 O 0.02826 1.02750 0.50079
 Zr865 Zr -0.02568 1.00970 0.53198
 Zr866 Zr -0.03030 1.00415 0.47987
 Zr867 Zr 0.01654 1.04838 0.52606
 Zr868 Zr -0.03128 1.06218 0.50068
 O869 O 0.04591 1.03809 0.54190
 O870 O -0.06186 1.06372 0.48446
 O871 O -0.01777 1.04769 0.52883
 O872 O -0.04112 1.02534 0.50522
 O873 O -0.01624 0.98755 0.50662
 O874 O 0.00865 1.01133 0.53058
 C875 C -0.01299 1.08921 0.46028
 C876 C 0.05047 1.07324 0.49564
 C877 C -0.01406 1.02209 0.43559
 O878 O -0.06095 1.01405 0.46628
 O879 O -0.05575 0.98162 0.49208
 O880 O -0.05284 0.98531 0.52777
 C881 C -0.06234 0.97689 0.51101
 O882 O 0.04533 0.98680 0.48423
 Zr883 Zr 0.01800 0.99061 0.50472
 O884 O -0.01654 0.97653 0.54689
 O885 O -0.02668 0.96862 0.46672
 O886 O 0.01352 0.95671 0.48869
 O887 O 0.04744 0.98680 0.52254
 O888 O 0.01271 0.96314 0.52778
 C889 C -0.00115 0.96102 0.54294
 O890 O -0.05333 1.02039 0.54986
 O891 O 0.01397 1.08498 0.53729
 O892 O -0.01676 1.01920 0.56336
 O893 O 0.01060 1.04765 0.55855
 O894 O -0.02663 1.09782 0.51368
 O895 O -0.05615 1.06889 0.52334
 C896 C -0.00228 1.03473 0.57035
 H897 H 0.00761 1.08215 0.49770
 H898 H -0.05733 1.02478 0.50660
 H899 H 0.01600 1.00504 0.54351
 H900 H 0.00909 0.99567 0.46477
 H901 H -0.06619 1.08134 0.48342
 H902 H -0.06565 1.00014 0.45721
 H903 H -0.03991 0.96567 0.45789
 H904 H 0.02381 0.94456 0.49506
 H905 H -0.03707 1.10908 0.50641
 H906 H 0.02714 1.08808 0.54617
 H907 H 0.05047 1.05231 0.55068
 H908 H 0.05162 0.96911 0.52236
 H909 H -0.06469 1.08367 0.51906
 H910 H -0.05554 1.00756 0.56096
 H911 H 0.04170 1.04352 0.44439
 H912 H 0.05193 0.97024 0.48629
 Zr913 Zr 0.71712 0.26610 0.21146
 O914 O 0.72293 0.29390 0.18840
 O915 O 0.68856 0.24944 0.20001
 O916 O 0.72292 0.24992 0.18172
 O917 O 0.69192 0.30330 0.24827
 O918 O 0.75087 0.22280 0.18815
 O919 O 0.69340 0.29478 0.21307
 O920 O 0.68349 0.21617 0.22184
 O921 O 0.72300 0.22855 0.21734
 O922 O 0.70062 0.25683 0.23933
 O923 O 0.75152 0.26259 0.21322
 O924 O 0.72991 0.29019 0.23448
 Zr925 Zr 0.75435 0.23842 0.27201
 Zr926 Zr 0.75704 0.22537 0.22073
 Zr927 Zr 0.71443 0.27908 0.26255
 Zr928 Zr 0.70750 0.21991 0.24570
 O929 O 0.72068 0.31578 0.27232
 O930 O 0.70908 0.18336 0.23399
 O931 O 0.71977 0.24181 0.27038
 O932 O 0.74142 0.21477 0.24883
 O933 O 0.77112 0.24751 0.24411
 O934 O 0.74839 0.27587 0.26580
 C935 C 0.67851 0.22950 0.20559
 C936 C 0.68594 0.30678 0.22903
 C937 C 0.73664 0.23319 0.17589
 O938 O 0.75196 0.18785 0.21276
 O939 O 0.78136 0.20335 0.23486
 O940 O 0.77926 0.21098 0.27008
 C941 C 0.78737 0.19954 0.25409
 O942 O 0.76216 0.31216 0.21358
 Zr943 Zr 0.76398 0.28453 0.23758
 O944 O 0.78326 0.25487 0.28306
 O945 O 0.78689 0.23195 0.20454
 O946 O 0.79318 0.28173 0.21960
 O947 O 0.76498 0.32017 0.25123
 O948 O 0.79076 0.28516 0.25880
 C949 C 0.79529 0.27239 0.27548
 O950 O 0.74955 0.20956 0.29433
 O951 O 0.68348 0.27342 0.27703
 O952 O 0.74636 0.25221 0.30234
 O953 O 0.71814 0.27868 0.29538
 O954 O 0.67652 0.22240 0.26076
 O955 O 0.70686 0.19540 0.27210
 C956 C 0.73160 0.26788 0.30811
 H957 H 0.68453 0.25941 0.23833
 H958 H 0.74425 0.19723 0.25245
 H959 H 0.75387 0.28689 0.27707
 H960 H 0.75845 0.26733 0.19965
 H961 H 0.69417 0.17599 0.23517
 H962 H 0.76432 0.18301 0.20355
 H963 H 0.79084 0.21625 0.19761
 H964 H 0.80292 0.29568 0.22361
 H965 H 0.66762 0.20797 0.25625
 H966 H 0.67956 0.28914 0.28396
 H967 H 0.70831 0.32057 0.28154
 H968 H 0.78007 0.32682 0.24929
 H969 H 0.69475 0.18327 0.27031
 H970 H 0.76179 0.21060 0.30471
 H971 H 0.71064 0.29299 0.17808
 H972 H 0.77591 0.32205 0.21356
 Zr973 Zr 0.77328 0.71993 0.71446
 O974 O 0.76499 0.69107 0.69353
 O975 O 0.80208 0.73348 0.70120
 O976 O 0.76774 0.73496 0.68381
 O977 O 0.79633 0.68296 0.75331
 O978 O 0.74114 0.76388 0.68898
 O979 O 0.79574 0.68996 0.71773
 O980 O 0.80807 0.76935 0.71892
 O981 O 0.76915 0.75809 0.71774
 O982 O 0.79131 0.73030 0.74117
 O983 O 0.73917 0.72568 0.71662
 O984 O 0.76037 0.69856 0.73951
 Zr985 Zr 0.73959 0.75443 0.77344
 Zr986 Zr 0.73550 0.76367 0.72160
 Zr987 Zr 0.77728 0.71096 0.76637
 Zr988 Zr 0.78630 0.76802 0.74480
 O989 O 0.76976 0.67625 0.78036
 O990 O 0.78579 0.80420 0.73159
 O991 O 0.77392 0.74900 0.77133
 O992 O 0.75275 0.77546 0.74838
 O993 O 0.72142 0.74412 0.74671
 O994 O 0.74365 0.71631 0.77006
 C995 C 0.81202 0.75418 0.70386
 C996 C 0.80185 0.67767 0.73434
 C997 C 0.75476 0.75229 0.67722
 O998 O 0.74167 0.80030 0.71105
 O999 O 0.71246 0.78798 0.73455
 O1000 O 0.71597 0.78300 0.77014
 C1001 C 0.70754 0.79357 0.75364
 O1002 O 0.72681 0.67679 0.72090
 Zr1003 Zr 0.72681 0.70633 0.74278
 O1004 O 0.71015 0.74071 0.78603
 O1005 O 0.70501 0.75731 0.70630
 O1006 O 0.69717 0.70873 0.72509
 O1007 O 0.72494 0.67212 0.75934
 O1008 O 0.70071 0.70909 0.76417
 C1009 C 0.69703 0.72356 0.77971
 O1010 O 0.74639 0.78473 0.79342
 O1011 O 0.80950 0.71532 0.77863
 O1012 O 0.74811 0.74309 0.80451
 O1013 O 0.77554 0.71529 0.79916
 O1014 O 0.81830 0.76459 0.75799
 O1015 O 0.78970 0.79358 0.76987
 C1016 C 0.76300 0.72797 0.81122
 H1017 H 0.80716 0.72652 0.73986
 H1018 H 0.75083 0.79337 0.75082
 H1019 H 0.73812 0.70671 0.78233
 H1020 H 0.73159 0.72038 0.70355
 H1021 H 0.80111 0.81056 0.73170
 H1022 H 0.72924 0.80506 0.70171
 H1023 H 0.70147 0.77264 0.69832
 H1024 H 0.68720 0.69547 0.73026
 H1025 H 0.82742 0.77803 0.75181
 H1026 H 0.81284 0.70010 0.78683
 H1027 H 0.78254 0.67154 0.78927
 H1028 H 0.70954 0.66613 0.75829
 H1029 H 0.80254 0.80450 0.76720
 H1030 H 0.73452 0.78526 0.80411
 H1031 H 0.77690 0.69041 0.68292
 H1032 H 0.71302 0.66711 0.72233
 Zr1033 Zr 0.22239 0.23713 0.78694
 O1034 O 0.22665 0.20809 0.80915
 O1035 O 0.19448 0.25462 0.79819
 O1036 O 0.22844 0.25202 0.81730
 O1037 O 0.19721 0.20217 0.74853
 O1038 O 0.25703 0.27883 0.81195
 O1039 O 0.19686 0.20999 0.78382
 O1040 O 0.19061 0.28850 0.77683
 O1041 O 0.22971 0.27468 0.78208
 O1042 O 0.20693 0.24794 0.75881
 O1043 O 0.25696 0.23978 0.78612
 O1044 O 0.23496 0.21344 0.76372
 Zr1045 Zr 0.26177 0.26558 0.72795
 Zr1046 Zr 0.26390 0.27704 0.77956
 Zr1047 Zr 0.22058 0.22605 0.73551
 Zr1048 Zr 0.21505 0.28481 0.75357
 O1049 O 0.22584 0.18959 0.72484
 O1050 O 0.21778 0.32080 0.76636
 O1051 O 0.22711 0.26333 0.72870
 O1052 O 0.24916 0.28893 0.75132
 O1053 O 0.27767 0.25518 0.75610
 O1054 O 0.25463 0.22817 0.73312
 C1055 C 0.18509 0.27493 0.79276
 C1056 C 0.18952 0.19888 0.76717
 C1057 C 0.24248 0.26835 0.82376
 O1058 O 0.25996 0.31442 0.78834
 O1059 O 0.28917 0.29892 0.76654
 O1060 O 0.28720 0.29230 0.73111
 C1061 C 0.29539 0.30314 0.74746
 O1062 O 0.26588 0.18981 0.78482
 Zr1063 Zr 0.26925 0.21822 0.76165
 O1064 O 0.29055 0.24872 0.71753
 O1065 O 0.29319 0.26893 0.79636
 O1066 O 0.29794 0.21922 0.78081
 O1067 O 0.26950 0.18321 0.74686
 O1068 O 0.29676 0.21787 0.74162
 C1069 C 0.30210 0.23101 0.72539
 O1070 O 0.25843 0.29518 0.70606
 O1071 O 0.19003 0.23289 0.72040
 O1072 O 0.25381 0.25333 0.69700
 O1073 O 0.22462 0.22772 0.70285
 O1074 O 0.18432 0.28389 0.73759
 O1075 O 0.21562 0.31018 0.72776
 C1076 C 0.23835 0.23869 0.69057
 H1077 H 0.19073 0.24595 0.75924
 H1078 H 0.25257 0.30649 0.74817
 H1079 H 0.25998 0.21745 0.72168
 H1080 H 0.26348 0.23442 0.79976
 H1081 H 0.20315 0.32871 0.76507
 H1082 H 0.27232 0.31853 0.79798
 H1083 H 0.29754 0.28427 0.80376
 H1084 H 0.30727 0.20505 0.77680
 H1085 H 0.17587 0.29851 0.74216
 H1086 H 0.18590 0.21762 0.71279
 H1087 H 0.21348 0.18552 0.71521
 H1088 H 0.28434 0.17608 0.74906
 H1089 H 0.20418 0.32290 0.72978
 H1090 H 0.27088 0.29412 0.69604
 H1091 H 0.21425 0.20914 0.81921
 H1092 H 0.27909 0.17916 0.78472
 Zr1093 Zr 0.28298 0.76730 0.28353
 O1094 O 0.27725 0.79518 0.30603
 O1095 O 0.31134 0.75073 0.29533
 O1096 O 0.27724 0.75099 0.31354
 O1097 O 0.30872 0.80427 0.24617
 O1098 O 0.24974 0.72308 0.30745
 O1099 O 0.30727 0.79569 0.28150
 O1100 O 0.31625 0.71746 0.27407
 O1101 O 0.27700 0.72972 0.27818
 O1102 O 0.29938 0.75818 0.25577
 O1103 O 0.24857 0.76349 0.28191
 O1104 O 0.27027 0.79145 0.26022
 Zr1105 Zr 0.24565 0.73961 0.22343
 Zr1106 Zr 0.24298 0.72622 0.27492
 Zr1107 Zr 0.28565 0.78049 0.23229
 Zr1108 Zr 0.29244 0.72124 0.24995
 O1109 O 0.27951 0.81727 0.22228
 O1110 O 0.29061 0.68456 0.26200
 O1111 O 0.28023 0.74319 0.22499
 O1112 O 0.25850 0.71589 0.24691
 O1113 O 0.22905 0.74841 0.25129
 O1114 O 0.25162 0.77710 0.22906
 C1115 C 0.32117 0.73073 0.29020
 C1116 C 0.31506 0.80744 0.26531
 C1117 C 0.26390 0.73369 0.31959
 O1118 O 0.24767 0.68856 0.28307
 O1119 O 0.21823 0.70447 0.26111
 O1120 O 0.22083 0.71188 0.22573
 C1121 C 0.21238 0.70064 0.24188
 O1122 O 0.23877 0.81341 0.28049
 Zr1123 Zr 0.23617 0.78548 0.25725
 O1124 O 0.21638 0.75539 0.21256
 O1125 O 0.21342 0.73271 0.29142
 O1126 O 0.20740 0.78325 0.27600
 O1127 O 0.23465 0.82074 0.24238
 O1128 O 0.20860 0.78480 0.23694
 C1129 C 0.20387 0.77188 0.22057
 O1130 O 0.25034 0.71101 0.20135
 O1131 O 0.31647 0.77515 0.21765
 O1132 O 0.25369 0.75360 0.19289
 O1133 O 0.28203 0.78020 0.19948
 O1134 O 0.32357 0.72388 0.23509
 O1135 O 0.29315 0.69704 0.22375
 C1136 C 0.26865 0.76922 0.18688
 H1137 H 0.31550 0.76070 0.25673
 H1138 H 0.25560 0.69835 0.24350
 H1139 H 0.24601 0.78798 0.21761
 H1140 H 0.24174 0.76810 0.29545
 H1141 H 0.30553 0.67734 0.26104
 H1142 H 0.23533 0.68366 0.29242
 H1143 H 0.20939 0.71692 0.29849
 H1144 H 0.19783 0.79729 0.27189
 H1145 H 0.33232 0.70944 0.23987
 H1146 H 0.32046 0.79095 0.21056
 H1147 H 0.29185 0.82220 0.21296
 H1148 H 0.21954 0.82709 0.24435
 H1149 H 0.30506 0.68482 0.22579
 H1150 H 0.23804 0.71200 0.19102
 H1151 H 0.28947 0.79429 0.31643
 H1152 H 0.22542 0.82383 0.28008
 Zr1153 Zr 0.21453 0.76453 0.71750
 O1154 O 0.22019 0.79249 0.69457
 O1155 O 0.18447 0.74986 0.70793
 O1156 O 0.21854 0.74842 0.68719
 O1157 O 0.19373 0.80281 0.75566
 O1158 O 0.24394 0.71811 0.69324
 O1159 O 0.19119 0.79375 0.72063
 O1160 O 0.17802 0.71800 0.73093
 O1161 O 0.21892 0.72657 0.72312
 O1162 O 0.19958 0.75604 0.74639
 O1163 O 0.24875 0.75882 0.71764
 O1164 O 0.22974 0.78779 0.73987
 Zr1165 Zr 0.25393 0.73453 0.77625
 Zr1166 Zr 0.25294 0.72129 0.72502
 Zr1167 Zr 0.21568 0.77739 0.76880
 Zr1168 Zr 0.20480 0.71872 0.75229
 O1169 O 0.22449 0.81347 0.77847
 O1170 O 0.20389 0.68290 0.73898
 O1171 O 0.21955 0.73982 0.77625
 O1172 O 0.23857 0.71159 0.75388
 O1173 O 0.26932 0.74269 0.74747
 O1174 O 0.24948 0.77231 0.77043
 C1175 C 0.17280 0.73181 0.71502
 C1176 C 0.18534 0.80589 0.73719
 C1177 C 0.23033 0.72987 0.68131
 O1178 O 0.24629 0.68377 0.71801
 O1179 O 0.27756 0.69841 0.73773
 O1180 O 0.27789 0.70642 0.77296
 C1181 C 0.28477 0.69469 0.75660
 O1182 O 0.26162 0.80780 0.71732
 Zr1183 Zr 0.26356 0.78008 0.74125
 O1184 O 0.28398 0.74964 0.78592
 O1185 O 0.28158 0.72639 0.70662
 O1186 O 0.29146 0.77583 0.72167
 O1187 O 0.26695 0.81551 0.75496
 O1188 O 0.29158 0.77892 0.76079
 C1189 C 0.29644 0.76613 0.77736
 O1190 O 0.24947 0.70545 0.79846
 O1191 O 0.18524 0.77413 0.78472
 O1192 O 0.24755 0.74765 0.80715
 O1193 O 0.22040 0.77587 0.80149
 O1194 O 0.17565 0.72252 0.77021
 O1195 O 0.20462 0.69309 0.77792
 C1196 C 0.23330 0.76346 0.81367
 H1197 H 0.18362 0.75954 0.74660
 H1198 H 0.24090 0.69391 0.75737
 H1199 H 0.25597 0.78285 0.78155
 H1200 H 0.25513 0.76308 0.70372
 H1201 H 0.18870 0.67644 0.74057
 H1202 H 0.25770 0.67833 0.70797
 H1203 H 0.28452 0.71039 0.69972
 H1204 H 0.30196 0.78931 0.72507
 H1205 H 0.16562 0.70878 0.76631
 H1206 H 0.18277 0.78995 0.79208
 H1207 H 0.21288 0.81900 0.78826
 H1208 H 0.28218 0.82131 0.75227
 H1209 H 0.19246 0.68107 0.77594
 H1210 H 0.26228 0.70581 0.80824
 H1211 H 0.20735 0.79231 0.68486
 H1212 H 0.27562 0.81722 0.71684
 Zr1213 Zr 0.27493 0.23038 0.21847
 O1214 O 0.26867 0.20286 0.19567
 O1215 O 0.30473 0.24505 0.20802
 O1216 O 0.27101 0.24677 0.18814
 O1217 O 0.29466 0.19055 0.25686
 O1218 O 0.24396 0.27533 0.19279
 O1219 O 0.29705 0.20010 0.22180
 O1220 O 0.31060 0.27817 0.22933
 O1221 O 0.27059 0.26830 0.22325
 O1222 O 0.29078 0.23878 0.24688
 O1223 O 0.24070 0.23602 0.21865
 O1224 O 0.26007 0.20742 0.24146
 Zr1225 Zr 0.23673 0.26080 0.27661
 Zr1226 Zr 0.23662 0.27362 0.22511
 Zr1227 Zr 0.27491 0.21782 0.27000
 Zr1228 Zr 0.28547 0.27619 0.25207
 O1229 O 0.26599 0.18251 0.28199
 O1230 O 0.28624 0.31268 0.23951
 O1231 O 0.27112 0.25543 0.27661
 O1232 O 0.25174 0.28345 0.25360
 O1233 O 0.22065 0.25249 0.24821
 O1234 O 0.24106 0.22299 0.27170
 C1235 C 0.31552 0.26440 0.21361
 C1236 C 0.30171 0.18656 0.23815
 C1237 C 0.25813 0.26408 0.18137
 O1238 O 0.24387 0.31068 0.21651
 O1239 O 0.21283 0.29734 0.23768
 O1240 O 0.21341 0.28960 0.27309
 C1241 C 0.20638 0.30146 0.25663
 O1242 O 0.22805 0.18696 0.21970
 Zr1243 Zr 0.22630 0.21502 0.24287
 O1244 O 0.20649 0.24630 0.28650
 O1245 O 0.20709 0.26862 0.20782
 O1246 O 0.19816 0.21883 0.22320
 O1247 O 0.22312 0.17981 0.25759
 O1248 O 0.19848 0.21651 0.26238
 C1249 C 0.19380 0.22976 0.27846
 O1250 O 0.24183 0.28961 0.29853
 O1251 O 0.30635 0.22059 0.28434
 O1252 O 0.24312 0.24719 0.30751
 O1253 O 0.27165 0.22057 0.30276
 O1254 O 0.31556 0.27172 0.26875
 O1255 O 0.28636 0.30099 0.27787
 C1256 C 0.25802 0.23219 0.31445
 H1257 H 0.30670 0.23498 0.24660
 H1258 H 0.24964 0.30117 0.25673
 H1259 H 0.23466 0.21264 0.28310
 H1260 H 0.23407 0.23156 0.20490
 H1261 H 0.30145 0.31908 0.24123
 H1262 H 0.23209 0.31617 0.20668
 H1263 H 0.20412 0.28447 0.20040
 H1264 H 0.18776 0.20535 0.22697
 H1265 H 0.32547 0.28539 0.26429
 H1266 H 0.30896 0.20480 0.29197
 H1267 H 0.27813 0.17701 0.29139
 H1268 H 0.20784 0.17398 0.25514
 H1269 H 0.29926 0.31213 0.27646
 H1270 H 0.22921 0.28929 0.30841
 H1271 H 0.28141 0.20293 0.18594
 H1272 H 0.21413 0.17737 0.21959
 Zr1273 Zr 0.72175 0.73861 0.28568
 O1274 O 0.72693 0.71159 0.30953
 O1275 O 0.69226 0.75457 0.29465
 O1276 O 0.72575 0.75599 0.31537
 O1277 O 0.70043 0.69836 0.24905
 O1278 O 0.75050 0.78683 0.30828
 O1279 O 0.69768 0.70980 0.28348
 O1280 O 0.68632 0.78531 0.27041
 O1281 O 0.72628 0.77619 0.27838
 O1282 O 0.70691 0.74534 0.25635
 O1283 O 0.75601 0.74458 0.28590
 O1284 O 0.73717 0.71409 0.26479
 Zr1285 Zr 0.76160 0.76536 0.22630
 Zr1286 Zr 0.76023 0.78164 0.27693
 Zr1287 Zr 0.72316 0.72262 0.23536
 Zr1288 Zr 0.71240 0.78223 0.24872
 O1289 O 0.73164 0.68574 0.22818
 O1290 O 0.71184 0.81930 0.25932
 O1291 O 0.72720 0.75967 0.22604
 O1292 O 0.74616 0.78949 0.24742
 O1293 O 0.77684 0.75918 0.25565
 O1294 O 0.75701 0.72797 0.23394
 C1295 C 0.68127 0.77289 0.28715
 C1296 C 0.69166 0.69679 0.26740
 C1297 C 0.73704 0.77532 0.32055
 O1298 O 0.75367 0.81952 0.28209
 O1299 O 0.78489 0.80390 0.26372
 O1300 O 0.78527 0.79444 0.22876
 C1301 C 0.79202 0.80704 0.24483
 O1302 O 0.76935 0.69604 0.28871
 Zr1303 Zr 0.77109 0.72215 0.26349
 O1304 O 0.79171 0.75008 0.21790
 O1305 O 0.78858 0.77802 0.29619
 O1306 O 0.79894 0.72837 0.28307
 O1307 O 0.77441 0.68581 0.25167
 O1308 O 0.79919 0.72203 0.24406
 C1309 C 0.80404 0.73391 0.22699
 O1310 O 0.75729 0.79257 0.20242
 O1311 O 0.69321 0.72503 0.21827
 O1312 O 0.75563 0.74948 0.19606
 O1313 O 0.72873 0.72115 0.20302
 O1314 O 0.68279 0.77696 0.23145
 O1315 O 0.71236 0.80522 0.22134
 C1316 C 0.74196 0.73231 0.19038
 H1317 H 0.69089 0.74202 0.25619
 H1318 H 0.74852 0.80696 0.24317
 H1319 H 0.76359 0.71667 0.22355
 H1320 H 0.76227 0.74125 0.30009
 H1321 H 0.69674 0.82564 0.25701
 H1322 H 0.76493 0.82564 0.29217
 H1323 H 0.79131 0.79442 0.30254
 H1324 H 0.80959 0.71497 0.28039
 H1325 H 0.67306 0.79110 0.23456
 H1326 H 0.69050 0.70862 0.21189
 H1327 H 0.72015 0.67942 0.21846
 H1328 H 0.78963 0.68034 0.25476
 H1329 H 0.70019 0.81726 0.22225
 H1330 H 0.77023 0.79162 0.19298
 H1331 H 0.71411 0.71233 0.31912
 H1332 H 0.78347 0.68706 0.28985
 Zr1333 Zr 0.78419 0.26077 0.77933
 O1334 O 0.77946 0.28950 0.80123
 O1335 O 0.81217 0.24346 0.79115
 O1336 O 0.77776 0.24554 0.80969
 O1337 O 0.80961 0.29661 0.74133
 O1338 O 0.74958 0.21840 0.80383
 O1339 O 0.80968 0.28799 0.77663
 O1340 O 0.81709 0.21045 0.76958
 O1341 O 0.77743 0.22319 0.77449
 O1342 O 0.80002 0.25072 0.75150
 O1343 O 0.74967 0.25770 0.77780
 O1344 O 0.77161 0.28478 0.75581
 Zr1345 Zr 0.74579 0.23291 0.71959
 Zr1346 Zr 0.74329 0.22047 0.77126
 Zr1347 Zr 0.78640 0.27292 0.72792
 Zr1348 Zr 0.79243 0.21385 0.74621
 O1349 O 0.78081 0.30958 0.71730
 O1350 O 0.78997 0.17777 0.75942
 O1351 O 0.78041 0.23567 0.72105
 O1352 O 0.75841 0.20929 0.74331
 O1353 O 0.72957 0.24254 0.74747
 O1354 O 0.75238 0.27034 0.72480
 C1355 C 0.82222 0.22376 0.78562
 C1356 C 0.81718 0.29942 0.76010
 C1357 C 0.76370 0.22906 0.81595
 O1358 O 0.74759 0.18301 0.78028
 O1359 O 0.71837 0.19859 0.75784
 O1360 O 0.72069 0.20565 0.72239
 C1361 C 0.71237 0.19457 0.73868
 O1362 O 0.74053 0.30788 0.77586
 Zr1363 Zr 0.73740 0.27954 0.75303
 O1364 O 0.71664 0.24911 0.70886
 O1365 O 0.71366 0.22782 0.78736
 O1366 O 0.70880 0.27834 0.77205
 O1367 O 0.73653 0.31452 0.73763
 O1368 O 0.70964 0.27904 0.73302
 C1369 C 0.70448 0.26595 0.71688
 O1370 O 0.74984 0.20394 0.69774
 O1371 O 0.81709 0.26684 0.71323
 O1372 O 0.75386 0.24623 0.68878
 O1373 O 0.78273 0.27203 0.69525
 O1374 O 0.82314 0.21535 0.73048
 O1375 O 0.79234 0.18874 0.72062
 C1376 C 0.76916 0.26138 0.68269
 H1377 H 0.81619 0.25288 0.75214
 H1378 H 0.75523 0.19174 0.74017
 H1379 H 0.74691 0.28116 0.71326
 H1380 H 0.74294 0.26275 0.79127
 H1381 H 0.80471 0.17009 0.75854
 H1382 H 0.73516 0.17855 0.78967
 H1383 H 0.70942 0.21232 0.79478
 H1384 H 0.69943 0.29251 0.76783
 H1385 H 0.83175 0.20078 0.73520
 H1386 H 0.82111 0.28234 0.70568
 H1387 H 0.79324 0.31412 0.70795
 H1388 H 0.72151 0.32121 0.73941
 H1389 H 0.80369 0.17595 0.72310
 H1390 H 0.73743 0.20499 0.68753
 H1391 H 0.79174 0.28845 0.81156
 H1392 H 0.72747 0.31873 0.77517
 C1393 C 0.46778 1.03058 0.34591
 C1394 C 0.46502 1.00868 0.33460
 C1395 C 0.45506 1.00957 0.31459
 C1396 C 0.44811 1.03230 0.30532
 C1397 C 0.45177 1.05420 0.31704
 C1398 C 0.46120 1.05337 0.33732
 C1399 C 0.47704 1.02951 0.36749
 C1400 C 0.47852 1.05126 0.37932
 C1401 C 0.48551 1.04983 0.40043
 C1402 C 0.49131 1.02690 0.40956
 C1403 C 0.49081 1.00547 0.39718
 C1404 C 0.48327 1.00659 0.37622
 C1405 C 0.46384 1.07490 0.34935
 C1406 C 0.47217 1.07384 0.37005
 C1407 C 0.47176 0.98613 0.34373
 C1408 C 0.48083 0.98512 0.36413
 H1409 H 0.45893 1.09267 0.34289
 H1410 H 0.47337 1.09080 0.37895
 H1411 H 0.46979 0.96904 0.33512
 H1412 H 0.48549 0.96731 0.37067
 H1413 H 0.45187 0.99209 0.30705
 H1414 H 0.44776 1.07216 0.31049
 H1415 H 0.48575 1.06635 0.40999
 H1416 H 0.49481 0.98775 0.40429
 C1417 C -0.03122 0.53225 0.84739
 C1418 C -0.02409 0.51472 0.83291
 C1419 C -0.03347 0.51442 0.81258
 C1420 C -0.05086 0.53075 0.80672
 C1421 C -0.05741 0.54841 0.82185
 C1422 C -0.04757 0.54937 0.84189
 C1423 C -0.02185 0.53226 0.86895
 C1424 C -0.02921 0.54980 0.88338
 C1425 C -0.02126 0.54904 0.90408
 C1426 C -0.00668 0.53028 0.91092
 C1427 C 0.00118 0.51325 0.89605
 C1428 C -0.00637 0.51424 0.87496
 C1429 C -0.05425 0.56685 0.85678
 C1430 C -0.04511 0.56717 0.87711
 C1431 C -0.00795 0.49749 0.83918
 C1432 C 0.00059 0.49710 0.85987
 H1433 H -0.06681 0.58026 0.85275
 H1434 H -0.05093 0.58078 0.88818
 H1435 H -0.00223 0.48381 0.82814
 H1436 H 0.01255 0.48311 0.86414
 H1437 H -0.02670 0.50150 0.80152
 H1438 H -0.07090 0.56088 0.81886
 H1439 H -0.02739 0.56248 0.91516
 H1440 H 0.01231 0.49870 0.90103
 C1441 C 0.02845 -0.03233 0.84860
 C1442 C 0.02275 -0.01376 0.83402
 C1443 C 0.03208 -0.01403 0.81372
 C1444 C 0.04775 -0.03218 0.80822
 C1445 C 0.05311 -0.05060 0.82331
 C1446 C 0.04333 -0.05099 0.84326
 C1447 C 0.01936 -0.03175 0.87018
 C1448 C 0.02541 -0.05023 0.88469
 C1449 C 0.01792 -0.04893 0.90543
 C1450 C 0.00509 -0.02883 0.91219
 C1451 C -0.00161 -0.01083 0.89724
 C1452 C 0.00556 -0.01224 0.87612
 C1453 C 0.04863 -0.06939 0.85817
 C1454 C 0.03969 -0.06913 0.87849
 C1455 C 0.00825 0.00501 0.84027
 C1456 C -0.00004 0.00587 0.86097
 H1457 H 0.05999 -0.08399 0.85418
 H1458 H 0.04445 -0.08350 0.88961
 H1459 H 0.00367 0.01950 0.82920
 H1460 H -0.01070 0.02101 0.86521
 H1461 H 0.02728 0.00008 0.80240
 H1462 H 0.06551 -0.06429 0.81995
 H1463 H 0.02304 -0.06309 0.91662
 H1464 H -0.01138 0.00475 0.90221
 C1465 C 0.54181 0.46530 0.35322
 C1466 C 0.55953 0.44986 0.34824
 C1467 C 0.56826 0.45051 0.32782
 C1468 C 0.55918 0.46610 0.31212
 C1469 C 0.54090 0.48096 0.31733
 C1470 C 0.53243 0.48094 0.33793
 C1471 C 0.53333 0.46555 0.37502
 C1472 C 0.51634 0.48186 0.38037
 C1473 C 0.50927 0.48300 0.40151
 C1474 C 0.51910 0.46780 0.41710
 C1475 C 0.53549 0.45086 0.41103
 C1476 C 0.54288 0.44995 0.39022
 C1477 C 0.51503 0.49655 0.34367
 C1478 C 0.50724 0.49713 0.36454
 C1479 C 0.56847 0.43435 0.36393
 C1480 C 0.56019 0.43428 0.38453
 H1481 H 0.50762 0.50874 0.33202
 H1482 H 0.49411 0.50980 0.36834
 H1483 H 0.58208 0.42228 0.36029
 H1484 H 0.56770 0.42218 0.39620
 H1485 H 0.58253 0.43936 0.32441
 H1486 H 0.53330 0.49269 0.30545
 H1487 H 0.49675 0.49616 0.40589
 H1488 H 0.54325 0.43892 0.42267
 C1489 C 0.53181 0.53848 0.15534
 C1490 C 0.54731 0.55665 0.16086
 C1491 C 0.55625 0.55660 0.18124
 C1492 C 0.54956 0.53889 0.19645
 C1493 C 0.53345 0.52116 0.19073
 C1494 C 0.52479 0.52066 0.17009
 C1495 C 0.52340 0.53761 0.13346
 C1496 C 0.50879 0.51867 0.12748
 C1497 C 0.50201 0.51705 0.10622
 C1498 C 0.50990 0.53424 0.09113
 C1499 C 0.52378 0.55368 0.09779
 C1500 C 0.53081 0.55524 0.11874
 C1501 C 0.50966 0.50238 0.16371
 C1502 C 0.50191 0.50131 0.14277
 C1503 C 0.55404 0.57419 0.14572
 C1504 C 0.54583 0.57359 0.12504
 H1505 H 0.50409 0.48847 0.17490
 H1506 H 0.49065 0.48659 0.13845
 H1507 H 0.56594 0.58836 0.14982
 H1508 H 0.55166 0.58728 0.11377
 H1509 H 0.56903 0.56991 0.18493
 H1510 H 0.52780 0.50758 0.20216
 H1511 H 0.49146 0.50193 0.10131
 H1512 H 0.52990 0.56718 0.08647
 C1513 C 0.02623 1.04019 0.65667
 C1514 C 0.02265 1.02020 0.67044
 C1515 C 0.03280 1.02015 0.69045
 C1516 C 0.04730 1.03955 0.69668
 C1517 C 0.05020 1.05962 0.68232
 C1518 C 0.03968 1.06009 0.66260
 C1519 C 0.01643 1.03985 0.63528
 C1520 C 0.02060 1.05965 0.62140
 C1521 C 0.01270 1.05854 0.60069
 C1522 C 0.00122 1.03751 0.59341
 C1523 C -0.00373 1.01821 0.60778
 C1524 C 0.00397 1.01929 0.62879
 C1525 C 0.04300 1.07983 0.64838
 C1526 C 0.03353 1.07967 0.62818
 C1527 C 0.00937 1.00034 0.66371
 C1528 C 0.00033 0.99981 0.64323
 H1529 H 0.05327 1.09539 0.65279
 H1530 H 0.03684 1.09507 0.61757
 H1531 H 0.00638 0.98476 0.67420
 H1532 H -0.00927 0.98383 0.63854
 H1533 H 0.02900 1.00493 0.70099
 H1534 H 0.06166 1.07445 0.68560
 H1535 H 0.01649 1.07362 0.58988
 H1536 H -0.01237 1.00186 0.60236
 C1537 C -0.01848 0.46027 0.65405
 C1538 C -0.03283 0.44086 0.65947
 C1539 C -0.04279 0.44061 0.67932
 C1540 C -0.03815 0.45919 0.69424
 C1541 C -0.02290 0.47805 0.68873
 C1542 C -0.01341 0.47895 0.66850
 C1543 C -0.00940 0.46160 0.63249
 C1544 C 0.00376 0.48190 0.62644
 C1545 C 0.01072 0.48408 0.60529
 C1546 C 0.00438 0.46613 0.59042
 C1547 C -0.00771 0.44524 0.59724
 C1548 C -0.01497 0.44310 0.61804
 C1549 C 0.00052 0.49850 0.66216
 C1550 C 0.00881 0.50005 0.64147
 C1551 C -0.03757 0.42241 0.64467
 C1552 C -0.02865 0.42342 0.62435
 H1553 H 0.00460 0.51309 0.67313
 H1554 H 0.01894 0.51581 0.63712
 H1555 H -0.04851 0.40724 0.64873
 H1556 H -0.03303 0.40904 0.61328
 H1557 H -0.05487 0.42635 0.68267
 H1558 H -0.01864 0.49230 0.69992
 H1559 H 0.01988 0.50030 0.60020
 H1560 H -0.01253 0.43117 0.58603
 C1561 C 0.46077 -0.03097 0.14329
 C1562 C 0.44255 -0.04586 0.14846
 C1563 C 0.43458 -0.04598 0.16915
 C1564 C 0.44495 -0.03181 0.18493
 C1565 C 0.46345 -0.01716 0.17945
 C1566 C 0.47125 -0.01646 0.15859
 C1567 C 0.46874 -0.03024 0.12132
 C1568 C 0.48644 -0.01466 0.11583
 C1569 C 0.49329 -0.01334 0.09462
 C1570 C 0.48253 -0.02759 0.07909
 C1571 C 0.46527 -0.04365 0.08524
 C1572 C 0.45815 -0.04479 0.10614
 C1573 C 0.48917 -0.00139 0.15263
 C1574 C 0.49654 -0.00039 0.13162
 C1575 C 0.43245 -0.06019 0.13277
 C1576 C 0.44020 -0.05977 0.11199
 H1577 H 0.49740 0.00997 0.16427
 H1578 H 0.51019 0.01174 0.12769
 H1579 H 0.41840 -0.07177 0.13657
 H1580 H 0.43188 -0.07102 0.10034
 H1581 H 0.42000 -0.05676 0.17278
 H1582 H 0.47182 -0.00635 0.19137
 H1583 H 0.50650 -0.00084 0.09016
 H1584 H 0.45677 -0.05482 0.07364
 C1585 C 0.35954 0.42248 0.01856
 C1586 C 0.34996 0.41174 0.00060
 C1587 C 0.32928 0.39997 0.00226
 C1588 C 0.31823 0.39875 0.02177
 C1589 C 0.32806 0.41006 0.03953
 C1590 C 0.34870 0.42183 0.03803
 C1591 C 0.38138 0.43468 0.01696
 C1592 C 0.39094 0.44552 0.03489
 C1593 C 0.41154 0.45751 0.03316
 C1594 C 0.42251 0.45887 0.01358
 C1595 C 0.41265 0.44744 -0.00413
 C1596 C 0.39216 0.43543 -0.00254
 C1597 C 0.35879 0.43282 0.05565
 C1598 C 0.37950 0.44445 0.05411
 C1599 C 0.36138 0.41279 -0.01861
 C1600 C 0.38207 0.42442 -0.02016
 H1601 H 0.35061 0.43244 0.07080
 H1602 H 0.38658 0.45274 0.06809
 H1603 H 0.35427 0.40455 -0.03261
 H1604 H 0.39022 0.42487 -0.03532
 H1605 H 0.32208 0.39122 -0.01146
 H1606 H 0.31965 0.40967 0.05456
 H1607 H 0.41872 0.46627 0.04689
 H1608 H 0.42074 0.44822 -0.01933
 C1609 C -0.14404 0.92169 0.51906
 C1610 C -0.15625 0.91603 0.50088
 C1611 C -0.17647 0.90336 0.50282
 C1612 C -0.18467 0.89589 0.52283
 C1613 C -0.17189 0.90213 0.54090
 C1614 C -0.15175 0.91493 0.53909
 C1615 C -0.12279 0.93511 0.51709
 C1616 C -0.11073 0.94116 0.53531
 C1617 C -0.09075 0.95435 0.53335
 C1618 C -0.08274 0.96146 0.51328
 C1619 C -0.09506 0.95480 0.49519
 C1620 C -0.11506 0.94179 0.49701
 C1621 C -0.13917 0.92121 0.55698
 C1622 C -0.11908 0.93409 0.55513
 C1623 C -0.14787 0.92300 0.48104
 C1624 C -0.12767 0.93560 0.47914
 H1625 H -0.14493 0.91616 0.57259
 H1626 H -0.11002 0.93858 0.56935
 H1627 H -0.15703 0.91871 0.46682
 H1628 H -0.12191 0.94065 0.46353
 H1629 H -0.18514 0.89844 0.48850
 H1630 H -0.17782 0.89799 0.55661
 H1631 H -0.08159 0.95927 0.54742
 H1632 H -0.08933 0.96013 0.47962
 C1633 C -0.14399 0.07841 0.98572
 C1634 C -0.15402 0.08856 1.00358
 C1635 C -0.17476 0.09997 1.00150
 C1636 C -0.18544 0.10133 0.98169
 C1637 C -0.17520 0.09044 0.96410
 C1638 C -0.15449 0.07918 0.96599
 C1639 C -0.12204 0.06678 0.98771
 C1640 C -0.11202 0.05670 0.96983
 C1641 C -0.09131 0.04531 0.97185
 C1642 C -0.08065 0.04367 0.99166
 C1643 C -0.09095 0.05427 1.00937
 C1644 C -0.11159 0.06581 1.00747
 C1645 C -0.14395 0.06888 0.94845
 C1646 C -0.12311 0.05788 0.95033
 C1647 C -0.14293 0.08734 1.02308
 C1648 C -0.12214 0.07614 1.02500
 H1649 H -0.15186 0.06937 0.93310
 H1650 H -0.11564 0.05016 0.93640
 H1651 H -0.15038 0.09508 1.03701
 H1652 H -0.11428 0.07554 1.04037
 H1653 H -0.18225 0.10840 1.01512
 H1654 H -0.18331 0.09088 0.94884
 H1655 H -0.08380 0.03719 0.95810
 H1656 H -0.08308 0.05323 1.02474
 C1657 C 0.36888 0.58139 0.48685
 C1658 C 0.35813 0.58218 0.46723
 C1659 C 0.33764 0.59409 0.46547
 C1660 C 0.32780 0.60538 0.48312
 C1661 C 0.33883 0.60410 0.50276
 C1662 C 0.35936 0.59219 0.50468
 C1663 C 0.39050 0.56891 0.48877
 C1664 C 0.40114 0.56798 0.50843
 C1665 C 0.42140 0.55567 0.51033
 C1666 C 0.43117 0.54409 0.49278
 C1667 C 0.42034 0.54564 0.47303
 C1668 C 0.39997 0.55795 0.47099
 C1669 C 0.37067 0.59097 0.52406
 C1670 C 0.39114 0.57909 0.52590
 C1671 C 0.36816 0.57109 0.44976
 C1672 C 0.38866 0.55921 0.45160
 H1673 H 0.36360 0.59923 0.53796
 H1674 H 0.39917 0.57851 0.54119
 H1675 H 0.36007 0.57156 0.43449
 H1676 H 0.39567 0.55086 0.43772
 H1677 H 0.32929 0.59446 0.45033
 H1678 H 0.33170 0.61283 0.51641
 H1679 H 0.42936 0.55478 0.52565
 H1680 H 0.42744 0.53680 0.45941
 C1681 C 0.15445 0.57348 0.51393
 C1682 C 0.16345 0.58535 0.49610
 C1683 C 0.18391 0.59764 0.49783
 C1684 C 0.19525 0.59821 0.51730
 C1685 C 0.18617 0.58541 0.53479
 C1686 C 0.16577 0.57327 0.53326
 C1687 C 0.13263 0.56127 0.51244
 C1688 C 0.12355 0.54970 0.53036
 C1689 C 0.10280 0.53811 0.52886
 C1690 C 0.09117 0.53780 0.50953
 C1691 C 0.10062 0.54971 0.49175
 C1692 C 0.12127 0.56147 0.49313
 C1693 C 0.15624 0.56134 0.55080
 C1694 C 0.13551 0.54980 0.54939
 C1695 C 0.15152 0.58511 0.47704
 C1696 C 0.13086 0.57336 0.47557
 H1697 H 0.16481 0.56107 0.56583
 H1698 H 0.12879 0.54090 0.56334
 H1699 H 0.15817 0.59418 0.46313
 H1700 H 0.12228 0.57365 0.46055
 H1701 H 0.19056 0.60751 0.48432
 H1702 H 0.19485 0.58530 0.54977
 H1703 H 0.09593 0.52896 0.54264
 H1704 H 0.09198 0.54973 0.47675
 C1705 C 0.63819 0.07989 0.01038
 C1706 C 0.64883 0.07967 0.03005
 C1707 C 0.66969 0.09080 0.03200
 C1708 C 0.67995 0.10241 0.01451
 C1709 C 0.66912 0.10203 -0.00523
 C1710 C 0.64822 0.09086 -0.00735
 C1711 C 0.61609 0.06841 0.00833
 C1712 C 0.60552 0.06853 -0.01137
 C1713 C 0.58477 0.05717 -0.01338
 C1714 C 0.57447 0.04551 0.00409
 C1715 C 0.58523 0.04604 0.02388
 C1716 C 0.60608 0.05738 0.02604
 C1717 C 0.63698 0.09067 -0.02679
 C1718 C 0.61605 0.07970 -0.02876
 C1719 C 0.63830 0.06850 0.04744
 C1720 C 0.61734 0.05757 0.04547
 H1721 H 0.64443 0.09907 -0.04061
 H1722 H 0.60806 0.07990 -0.04407
 H1723 H 0.64633 0.06822 0.06274
 H1724 H 0.60991 0.04912 0.05929
 H1725 H 0.67792 0.09053 0.04721
 H1726 H 0.67665 0.11102 -0.01876
 H1727 H 0.57684 0.05706 -0.02873
 H1728 H 0.57771 0.03710 0.03743
 C1729 C 0.64290 0.92500 0.48741
 C1730 C 0.65449 0.92579 0.46835
 C1731 C 0.67512 0.91429 0.46717
 C1732 C 0.68416 0.90154 0.48475
 C1733 C 0.67246 0.90146 0.50393
 C1734 C 0.65180 0.91312 0.50532
 C1735 C 0.62094 0.93668 0.48858
 C1736 C 0.60938 0.93600 0.50766
 C1737 C 0.58866 0.94740 0.50878
 C1738 C 0.57934 0.95942 0.49096
 C1739 C 0.59113 0.95953 0.47182
 C1740 C 0.61197 0.94833 0.47060
 C1741 C 0.63964 0.91282 0.52414
 C1742 C 0.61886 0.92410 0.52530
 C1743 C 0.64505 0.93776 0.45073
 C1744 C 0.62418 0.94877 0.45182
 H1745 H 0.64622 0.90376 0.53810
 H1746 H 0.61012 0.92344 0.54015
 H1747 H 0.65383 0.93850 0.43590
 H1748 H 0.61756 0.95774 0.43783
 H1749 H 0.68405 0.91501 0.45242
 H1750 H 0.67903 0.89163 0.51753
 H1751 H 0.57989 0.94706 0.52363
 H1752 H 0.58436 0.96881 0.45804
 C1753 C 0.14334 0.42156 0.98704
 C1754 C 0.15304 0.41109 1.00519
 C1755 C 0.17381 0.39972 1.00372
 C1756 C 0.18485 0.39867 0.98421
 C1757 C 0.17492 0.40977 0.96627
 C1758 C 0.15419 0.42110 0.96758
 C1759 C 0.12136 0.43320 0.98843
 C1760 C 0.11168 0.44368 0.97028
 C1761 C 0.09093 0.45507 0.97175
 C1762 C 0.07991 0.45625 0.99128
 C1763 C 0.08990 0.44525 1.00925
 C1764 C 0.11056 0.43376 1.00791
 C1765 C 0.14398 0.43180 0.94976
 C1766 C 0.12314 0.44286 0.95108
 C1767 C 0.14161 0.41197 1.02440
 C1768 C 0.12080 0.42312 1.02574
 H1769 H 0.15217 0.43159 0.93462
 H1770 H 0.11595 0.45091 0.93695
 H1771 H 0.14882 0.40397 1.03855
 H1772 H 0.11266 0.42343 1.04090
 H1773 H 0.18105 0.39110 1.01758
 H1774 H 0.18330 0.40953 0.95123
 H1775 H 0.08367 0.46355 0.95783
 H1776 H 0.08178 0.44594 1.02442
 C1777 C 0.02044 0.35697 0.38516
 C1778 C 0.00465 0.35760 0.36890
 C1779 C 0.00673 0.34145 0.35193
 C1780 C 0.02415 0.32444 0.35147
 C1781 C 0.04042 0.32494 0.36737
 C1782 C 0.03858 0.34107 0.38432
 C1783 C 0.01742 0.37241 0.40385
 C1784 C 0.03294 0.37134 0.42033
 C1785 C 0.02995 0.38606 0.43810
 C1786 C 0.01159 0.40172 0.43942
 C1787 C -0.00403 0.40212 0.42290
 C1788 C -0.00112 0.38765 0.40503
 C1789 C 0.05393 0.34072 0.40095
 C1790 C 0.05119 0.35569 0.41865
 C1791 C -0.01345 0.37349 0.37046
 C1792 C -0.01630 0.38828 0.38826
 H1793 H 0.06800 0.32852 0.40041
 H1794 H 0.06331 0.35479 0.43122
 H1795 H -0.02572 0.37417 0.35800
 H1796 H -0.03058 0.40014 0.38898
 H1797 H -0.00578 0.34115 0.33967
 H1798 H 0.05365 0.31156 0.36741
 H1799 H 0.04215 0.38569 0.45064
 H1800 H -0.01818 0.41421 0.42363
 C1801 C 0.51827 -0.14278 -0.12136
 C1802 C 0.50293 -0.14445 -0.13795
 C1803 C 0.50611 -0.16200 -0.15370
 C1804 C 0.52419 -0.17810 -0.15258
 C1805 C 0.54000 -0.17528 -0.13644
 C1806 C 0.53705 -0.15775 -0.12071
 C1807 C 0.51405 -0.12595 -0.10381
 C1808 C 0.52905 -0.12485 -0.08690
 C1809 C 0.52477 -0.10908 -0.07008
 C1810 C 0.50564 -0.09453 -0.07011
 C1811 C 0.49067 -0.09610 -0.08711
 C1812 C 0.49484 -0.11171 -0.10403
 C1813 C 0.55191 -0.15584 -0.10376
 C1814 C 0.54800 -0.13956 -0.08715
 C1815 C 0.48417 -0.12942 -0.13788
 C1816 C 0.48018 -0.11330 -0.12117
 H1817 H 0.56646 -0.16732 -0.10316
 H1818 H 0.55975 -0.13876 -0.07425
 H1819 H 0.47225 -0.13051 -0.15061
 H1820 H 0.46539 -0.10219 -0.12155
 H1821 H 0.49398 -0.16406 -0.16616
 H1822 H 0.55374 -0.18793 -0.13521
 H1823 H 0.53648 -0.10791 -0.05717
 H1824 H 0.47594 -0.08489 -0.08742
 C1825 C -0.01788 -0.15752 1.10773
 C1826 C -0.00369 -0.15767 1.12531
 C1827 C -0.00585 -0.17642 1.14051
 C1828 C -0.02205 -0.19483 1.13819
 C1829 C -0.03634 -0.19423 1.12065
 C1830 C -0.03428 -0.17563 1.10531
 C1831 C -0.01531 -0.13824 1.09141
 C1832 C -0.02932 -0.13822 1.07371
 C1833 C -0.02674 -0.11984 1.05820
 C1834 C -0.01024 -0.10166 1.06033
 C1835 C 0.00370 -0.10209 1.07819
 C1836 C 0.00120 -0.12027 1.09378
 C1837 C -0.04808 -0.17498 1.08746
 C1838 C -0.04565 -0.15656 1.07192
 C1839 C 0.01250 -0.13922 1.12720
 C1840 C 0.01488 -0.12078 1.11169
 H1841 H -0.06080 -0.18888 1.08546
 H1842 H -0.05657 -0.15671 1.05836
 H1843 H 0.02347 -0.13910 1.14072
 H1844 H 0.02761 -0.10688 1.11369
 H1845 H 0.00507 -0.17680 1.15409
 H1846 H -0.04865 -0.20862 1.11867
 H1847 H -0.03757 -0.11966 1.04456
 H1848 H 0.01637 -0.08811 1.08014
 C1849 C 0.48434 0.34731 0.61615
 C1850 C 0.49907 0.34572 0.63326
 C1851 C 0.49593 0.32724 0.64858
 C1852 C 0.47829 0.31045 0.64674
 C1853 C 0.46328 0.31286 0.62987
 C1854 C 0.46630 0.33116 0.61445
 C1855 C 0.48830 0.36568 0.59933
 C1856 C 0.47391 0.36681 0.58195
 C1857 C 0.47796 0.38402 0.56580
 C1858 C 0.49629 0.39997 0.56694
 C1859 C 0.51057 0.39852 0.58451
 C1860 C 0.50663 0.38145 0.60076
 C1861 C 0.45206 0.33308 0.59700
 C1862 C 0.45579 0.35066 0.58101
 C1863 C 0.51700 0.36214 0.63434
 C1864 C 0.52069 0.37976 0.61836
 H1865 H 0.43807 0.32070 0.59557
 H1866 H 0.44454 0.35143 0.56771
 H1867 H 0.52842 0.36116 0.64750
 H1868 H 0.53481 0.39198 0.61968
 H1869 H 0.50748 0.32544 0.66159
 H1870 H 0.44991 0.29968 0.62815
 H1871 H 0.46679 0.38504 0.55244
 H1872 H 0.52466 0.41081 0.58570
 C1873 C 0.51847 1.14400 0.61117
 C1874 C 0.53718 1.15929 0.61073
 C1875 C 0.54113 1.17525 0.62753
 C1876 C 0.52640 1.17618 0.64457
 C1877 C 0.50822 1.15997 0.64522
 C1878 C 0.50409 1.14391 0.62845
 C1879 C 0.51348 1.12837 0.59289
 C1880 C 0.49454 1.11344 0.59312
 C1881 C 0.48994 1.09853 0.57573
 C1882 C 0.50431 1.09824 0.55833
 C1883 C 0.52298 1.11375 0.55823
 C1884 C 0.52767 1.12880 0.57549
 C1885 C 0.48545 1.12847 0.62823
 C1886 C 0.48076 1.11345 0.61085
 C1887 C 0.55110 1.15908 0.59311
 C1888 C 0.54644 1.14402 0.57578
 H1889 H 0.47426 1.12821 0.64148
 H1890 H 0.46617 1.10186 0.61123
 H1891 H 0.56558 1.17083 0.59263
 H1892 H 0.55755 1.14441 0.56246
 H1893 H 0.55492 1.18801 0.62670
 H1894 H 0.49688 1.16060 0.65835
 H1895 H 0.47559 1.08655 0.57610
 H1896 H 0.53422 1.11363 0.54500
 C1897 C 0.02452 0.64158 1.11586
 C1898 C 0.04472 0.65396 1.11791
 C1899 C 0.04764 0.67069 1.13442
 C1900 C 0.03022 0.67576 1.14849
 C1901 C 0.01075 0.66143 1.14706
 C1902 C 0.00769 0.64471 1.13062
 C1903 C 0.02055 0.62592 1.09737
 C1904 C 0.00004 0.61428 1.09498
 C1905 C -0.00391 0.59999 1.07713
 C1906 C 0.01256 0.59697 1.06180
 C1907 C 0.03306 0.60882 1.06441
 C1908 C 0.03713 0.62336 1.08220
 C1909 C -0.01235 0.63202 1.12808
 C1910 C -0.01613 0.61707 1.11051
 C1911 C 0.06114 0.65049 1.10270
 C1912 C 0.05742 0.63539 1.08515
 H1913 H -0.02541 0.63417 1.13948
 H1914 H -0.03193 0.60789 1.10892
 H1915 H 0.07684 0.65992 1.10414
 H1916 H 0.07041 0.63342 1.07365
 H1917 H 0.06272 0.68142 1.13474
 H1918 H -0.00239 0.66377 1.15834
 H1919 H -0.01972 0.59082 1.07546
 H1920 H 0.04595 0.60638 1.05287
 C1921 C 0.47944 0.65174 -0.11052
 C1922 C 0.45949 0.66455 -0.11180
 C1923 C 0.45643 0.68202 -0.12792
 C1924 C 0.47341 0.68733 -0.14252
 C1925 C 0.49298 0.67333 -0.14140
 C1926 C 0.49610 0.65568 -0.12542
 C1927 C 0.48321 0.63441 -0.09288
 C1928 C 0.50329 0.62183 -0.09147
 C1929 C 0.50692 0.60563 -0.07455
 C1930 C 0.49063 0.60195 -0.05907
 C1931 C 0.47062 0.61484 -0.06065
 C1932 C 0.46680 0.63106 -0.07758
 C1933 C 0.51584 0.64239 -0.12371
 C1934 C 0.51937 0.62569 -0.10701
 C1935 C 0.44329 0.66041 -0.09640
 C1936 C 0.44690 0.64394 -0.07955
 H1937 H 0.52879 0.64518 -0.13519
 H1938 H 0.53489 0.61596 -0.10611
 H1939 H 0.42781 0.67025 -0.09722
 H1940 H 0.43408 0.64141 -0.06790
 H1941 H 0.44145 0.69277 -0.12783
 H1942 H 0.50589 0.67609 -0.15292
 H1943 H 0.52236 0.59572 -0.07359
 H1944 H 0.45788 0.61195 -0.04897
 C1945 C -0.02619 1.16020 0.39359
 C1946 C -0.01007 1.16293 0.37796
 C1947 C -0.01282 1.18093 0.36220
 C1948 C -0.03150 1.19641 0.36194
 C1949 C -0.04793 1.19253 0.37742
 C1950 C -0.04523 1.17469 0.39333
 C1951 C -0.02281 1.14220 0.41081
 C1952 C -0.03869 1.13985 0.42675
 C1953 C -0.03524 1.12288 0.44325
 C1954 C -0.01609 1.10835 0.44381
 C1955 C -0.00035 1.11104 0.42766
 C1956 C -0.00365 1.12788 0.41114
 C1957 C -0.06091 1.17163 0.40938
 C1958 C -0.05769 1.15447 0.42582
 C1959 C 0.00872 1.14794 0.37862
 C1960 C 0.01187 1.13066 0.39494
 H1961 H -0.07570 1.18274 0.40934
 H1962 H -0.07011 1.15276 0.43796
 H1963 H 0.02121 1.14978 0.36656
 H1964 H 0.02666 1.11954 0.39499
 H1965 H -0.00042 1.18262 0.35005
 H1966 H -0.06216 1.20446 0.37818
 H1967 H -0.04755 1.12082 0.45547
 H1968 H 0.01440 1.09985 0.42775
 C1969 C 0.77253 0.70210 0.89916
 C1970 C 0.79097 0.68839 0.90542
 C1971 C 0.79245 0.67952 0.92615
 C1972 C 0.77586 0.68439 0.94122
 C1973 C 0.75750 0.69866 0.93447
 C1974 C 0.75573 0.70735 0.91349
 C1975 C 0.77053 0.71046 0.87698
 C1976 C 0.75175 0.72349 0.87036
 C1977 C 0.74951 0.73028 0.84891
 C1978 C 0.76591 0.72385 0.83427
 C1979 C 0.78491 0.71148 0.84152
 C1980 C 0.78721 0.70458 0.86269
 C1981 C 0.73738 0.72095 0.90642
 C1982 C 0.73539 0.72881 0.88525
 C1983 C 0.80746 0.68321 0.89068
 C1984 C 0.80565 0.69125 0.86969
 H1985 H 0.72427 0.72526 0.91728
 H1986 H 0.72080 0.73888 0.88045
 H1987 H 0.82182 0.67267 0.89536
 H1988 H 0.81862 0.68664 0.85877
 H1989 H 0.80618 0.66758 0.92990
 H1990 H 0.74466 0.70357 0.94538
 H1991 H 0.73478 0.73970 0.84355
 H1992 H 0.79776 0.70658 0.83055
 C1993 C 0.26581 0.19769 0.39992
 C1994 C 0.28679 0.19288 0.40827
 C1995 C 0.28874 0.18192 0.42835
 C1996 C 0.26987 0.17531 0.44025
 C1997 C 0.24889 0.18030 0.43119
 C1998 C 0.24682 0.19157 0.41126
 C1999 C 0.26368 0.20883 0.37865
 C2000 C 0.24265 0.21329 0.37012
 C2001 C 0.24074 0.22276 0.34945
 C2002 C 0.25971 0.22700 0.33728
 C2003 C 0.28064 0.22303 0.34630
 C2004 C 0.28273 0.21401 0.36698
 C2005 C 0.22604 0.19653 0.40233
 C2006 C 0.22400 0.20728 0.38215
 C2007 C 0.30548 0.19903 0.39631
 C2008 C 0.30348 0.20930 0.37598
 H2009 H 0.21121 0.19193 0.41096
 H2010 H 0.20768 0.21053 0.37579
 H2011 H 0.32180 0.19552 0.40258
 H2012 H 0.31831 0.21333 0.36713
 H2013 H 0.30511 0.17946 0.43478
 H2014 H 0.23392 0.17456 0.43903
 H2015 H 0.22460 0.22543 0.34243
 H2016 H 0.29529 0.22626 0.33694
 C2017 C 0.72750 0.30318 0.39369
 C2018 C 0.74108 0.29293 0.40941
 C2019 C 0.74035 0.30259 0.42993
 C2020 C 0.72644 0.32267 0.43465
 C2021 C 0.71312 0.33275 0.41850
 C2022 C 0.71343 0.32297 0.39813
 C2023 C 0.72819 0.29323 0.37209
 C2024 C 0.71453 0.30354 0.35651
 C2025 C 0.71541 0.29445 0.33600
 C2026 C 0.73012 0.27538 0.33061
 C2027 C 0.74368 0.26504 0.34651
 C2028 C 0.74268 0.27388 0.36736
 C2029 C 0.69999 0.33273 0.38205
 C2030 C 0.70046 0.32310 0.36162
 C2031 C 0.75514 0.27333 0.40422
 C2032 C 0.75601 0.26406 0.38356
 H2033 H 0.68903 0.34796 0.38528
 H2034 H 0.68985 0.33121 0.34966
 H2035 H 0.76572 0.26522 0.41620
 H2036 H 0.76724 0.24912 0.38024
 H2037 H 0.75048 0.29436 0.44221
 H2038 H 0.70273 0.34850 0.42164
 H2039 H 0.70487 0.30280 0.32409
 H2040 H 0.75511 0.25047 0.34264
 C2041 C 0.22485 0.79325 0.90034
 C2042 C 0.20585 0.80600 0.90616
 C2043 C 0.20443 0.81605 0.92635
 C2044 C 0.22172 0.81336 0.94131
 C2045 C 0.24058 0.79977 0.93509
 C2046 C 0.24226 0.78997 0.91463
 C2047 C 0.22677 0.78382 0.87862
 C2048 C 0.24610 0.77179 0.87236
 C2049 C 0.24819 0.76404 0.85124
 C2050 C 0.23107 0.76853 0.83658
 C2051 C 0.21156 0.77982 0.84356
 C2052 C 0.20941 0.78768 0.86435
 C2053 C 0.26116 0.77726 0.90802
 C2054 C 0.26308 0.76842 0.88726
 C2055 C 0.18870 0.80911 0.89146
 C2056 C 0.19041 0.80001 0.87094
 H2057 H 0.27475 0.77446 0.91888
 H2058 H 0.27807 0.75912 0.88280
 H2059 H 0.17389 0.81888 0.89578
 H2060 H 0.17690 0.80305 0.86002
 H2061 H 0.19017 0.82721 0.92965
 H2062 H 0.25393 0.79627 0.94602
 H2063 H 0.26327 0.75541 0.84608
 H2064 H 0.19809 0.78309 0.83263
 C2065 C 0.27407 0.80535 0.10105
 C2066 C 0.29061 0.82251 0.09588
 C2067 C 0.29113 0.83303 0.07557
 C2068 C 0.27541 0.82639 0.05999
 C2069 C 0.25908 0.80863 0.06571
 C2070 C 0.25824 0.79835 0.08615
 C2071 C 0.27317 0.79476 0.12262
 C2072 C 0.25627 0.77806 0.12807
 C2073 C 0.25501 0.76888 0.14894
 C2074 C 0.27061 0.77634 0.16420
 C2075 C 0.28782 0.79251 0.15804
 C2076 C 0.28902 0.80195 0.13747
 C2077 C 0.24181 0.78119 0.09199
 C2078 C 0.24077 0.77133 0.11259
 C2079 C 0.30624 0.82913 0.11124
 C2080 C 0.30552 0.81893 0.13165
 H2081 H 0.22947 0.77555 0.08060
 H2082 H 0.22766 0.75844 0.11645
 H2083 H 0.31912 0.84236 0.10748
 H2084 H 0.31784 0.82463 0.14304
 H2085 H 0.30336 0.84716 0.07249
 H2086 H 0.24731 0.80190 0.05426
 H2087 H 0.24168 0.75654 0.15339
 H2088 H 0.30010 0.79841 0.16941
 C2089 C 0.77767 0.29672 0.59685
 C2090 C 0.76373 0.28792 0.58088
 C2091 C 0.76557 0.29797 0.56037
 C2092 C 0.78082 0.31722 0.55597
 C2093 C 0.79438 0.32588 0.57247
 C2094 C 0.79315 0.31547 0.59270
 C2095 C 0.77580 0.28647 0.61844
 C2096 C 0.78992 0.29533 0.63418
 C2097 C 0.78793 0.28612 0.65468
 C2098 C 0.77156 0.26851 0.66003
 C2099 C 0.75757 0.25950 0.64397
 C2100 C 0.75975 0.26840 0.62303
 C2101 C 0.80703 0.32374 0.60894
 C2102 C 0.80555 0.31370 0.62931
 C2103 C 0.74813 0.26947 0.58588
 C2104 C 0.74608 0.26000 0.60658
 H2105 H 0.81913 0.33811 0.60590
 H2106 H 0.81654 0.32063 0.64143
 H2107 H 0.73721 0.26249 0.57373
 H2108 H 0.73364 0.24606 0.60974
 H2109 H 0.75514 0.29079 0.54794
 H2110 H 0.80563 0.34117 0.56983
 H2111 H 0.79897 0.29337 0.66661
 H2112 H 0.74494 0.24598 0.64776
 C2113 C 0.22915 0.20681 0.60436
 C2114 C 0.21148 0.19108 0.59943
 C2115 C 0.20977 0.18135 0.57918
 C2116 C 0.22508 0.18774 0.56337
 C2117 C 0.24275 0.20378 0.56855
 C2118 C 0.24496 0.21316 0.58916
 C2119 C 0.23128 0.21641 0.62601
 C2120 C 0.24938 0.23140 0.63145
 C2121 C 0.25167 0.23957 0.65247
 C2122 C 0.23585 0.23282 0.66777
 C2123 C 0.21750 0.21848 0.66154
 C2124 C 0.21531 0.20998 0.64097
 C2125 C 0.26266 0.22859 0.59501
 C2126 C 0.26490 0.23741 0.61578
 C2127 C 0.19583 0.18515 0.61489
 C2128 C 0.19763 0.19460 0.63528
 H2129 H 0.27503 0.23367 0.58349
 H2130 H 0.27894 0.24896 0.61962
 H2131 H 0.18208 0.17309 0.61120
 H2132 H 0.18523 0.18952 0.64678
 H2133 H 0.19659 0.16836 0.57593
 H2134 H 0.25466 0.20903 0.55667
 H2135 H 0.26587 0.25055 0.65698
 H2136 H 0.20499 0.21321 0.67288
 C2137 C 0.73401 0.69590 0.10525
 C2138 C 0.72114 0.67463 0.10184
 C2139 C 0.71859 0.66563 0.08135
 C2140 C 0.72868 0.67772 0.06417
 C2141 C 0.74162 0.69907 0.06785
 C2142 C 0.74434 0.70824 0.08842
 C2143 C 0.73667 0.70541 0.12688
 C2144 C 0.74948 0.72671 0.13051
 C2145 C 0.75168 0.73573 0.15130
 C2146 C 0.74099 0.72350 0.16817
 C2147 C 0.72850 0.70196 0.16394
 C2148 C 0.72624 0.69295 0.14352
 C2149 C 0.75709 0.72947 0.09256
 C2150 C 0.75962 0.73853 0.11322
 C2151 C 0.71106 0.66269 0.11902
 C2152 C 0.71356 0.67170 0.13952
 H2153 H 0.76518 0.73919 0.07973
 H2154 H 0.76956 0.75495 0.11565
 H2155 H 0.70111 0.64627 0.11659
 H2156 H 0.70544 0.66199 0.15234
 H2157 H 0.70901 0.64895 0.07882
 H2158 H 0.74935 0.70864 0.05472
 H2159 H 0.76138 0.75222 0.15426
 H2160 H 0.72031 0.69197 0.17658
 C2161 C 0.15287 0.61791 0.23285
 C2162 C 0.14210 0.60856 0.25082
 C2163 C 0.12903 0.58717 0.24914
 C2164 C 0.12663 0.57511 0.22965
 C2165 C 0.13757 0.58484 0.21176
 C2166 C 0.15073 0.60621 0.21329
 C2167 C 0.16695 0.64018 0.23463
 C2168 C 0.17812 0.64929 0.21679
 C2169 C 0.19223 0.66991 0.21883
 C2170 C 0.19534 0.68114 0.23863
 C2171 C 0.18338 0.67206 0.25616
 C2172 C 0.16933 0.65158 0.25428
 C2173 C 0.16192 0.61602 0.19571
 C2174 C 0.17538 0.63716 0.19743
 C2175 C 0.14468 0.62076 0.27014
 C2176 C 0.15805 0.64189 0.27184
 H2177 H 0.16041 0.60718 0.18051
 H2178 H 0.18388 0.64391 0.18353
 H2179 H 0.13642 0.61380 0.28412
 H2180 H 0.15976 0.65057 0.28710
 H2181 H 0.12049 0.58010 0.26292
 H2182 H 0.13609 0.57559 0.19673
 H2183 H 0.20137 0.67656 0.20526
 H2184 H 0.18544 0.68052 0.27148
 C2185 C 0.65375 0.11115 0.72943
 C2186 C 0.65102 0.10024 0.70960
 C2187 C 0.63808 0.07875 0.70787
 C2188 C 0.62786 0.06818 0.72580
 C2189 C 0.63088 0.07939 0.74558
 C2190 C 0.64379 0.10088 0.74748
 C2191 C 0.66756 0.13359 0.73139
 C2192 C 0.67056 0.14422 0.75129
 C2193 C 0.68438 0.16489 0.75327
 C2194 C 0.69546 0.17492 0.73558
 C2195 C 0.69171 0.16443 0.71557
 C2196 C 0.67786 0.14365 0.71343
 C2197 C 0.64697 0.11230 0.76707
 C2198 C 0.66013 0.13359 0.76895
 C2199 C 0.66136 0.11098 0.69193
 C2200 C 0.67454 0.13229 0.69381
 H2201 H 0.63935 0.10463 0.78112
 H2202 H 0.66233 0.14165 0.78440
 H2203 H 0.65935 0.10275 0.67652
 H2204 H 0.68236 0.13980 0.67981
 H2205 H 0.63614 0.07012 0.69262
 H2206 H 0.62291 0.07163 0.75941
 H2207 H 0.68696 0.17273 0.76876
 H2208 H 0.70017 0.17182 0.70186
 C2209 C 0.84741 0.11773 0.26484
 C2210 C 0.85297 0.10925 0.28510
 C2211 C 0.86668 0.08850 0.28735
 C2212 C 0.87490 0.07590 0.26947
 C2213 C 0.86877 0.08488 0.24922
 C2214 C 0.85523 0.10571 0.24686
 C2215 C 0.83292 0.13947 0.26238
 C2216 C 0.82741 0.14785 0.24206
 C2217 C 0.81328 0.16806 0.23970
 C2218 C 0.80420 0.17986 0.25745
 C2219 C 0.81022 0.17145 0.27781
 C2220 C 0.82460 0.15121 0.28033
 C2221 C 0.84943 0.11484 0.22678
 C2222 C 0.83579 0.13556 0.22442
 C2223 C 0.84451 0.12157 0.30274
 C2224 C 0.83057 0.14213 0.30040
 H2225 H 0.85540 0.10583 0.21274
 H2226 H 0.83162 0.14187 0.20864
 H2227 H 0.84862 0.11519 0.31852
 H2228 H 0.82433 0.15090 0.31444
 H2229 H 0.87004 0.08174 0.30315
 H2230 H 0.87521 0.07649 0.23512
 H2231 H 0.80897 0.17418 0.22389
 H2232 H 0.80338 0.18020 0.29160
 C2233 C 0.34653 0.61431 0.76593
 C2234 C 0.35306 0.60641 0.78609
 C2235 C 0.36721 0.58605 0.78816
 C2236 C 0.37504 0.57329 0.77021
 C2237 C 0.36806 0.58181 0.75004
 C2238 C 0.35393 0.60217 0.74786
 C2239 C 0.33142 0.63554 0.76368
 C2240 C 0.32477 0.64326 0.74348
 C2241 C 0.31004 0.66299 0.74139
 C2242 C 0.30170 0.67505 0.75933
 C2243 C 0.30887 0.66729 0.77954
 C2244 C 0.32369 0.64748 0.78178
 C2245 C 0.34706 0.61067 0.72787
 C2246 C 0.33274 0.63084 0.72572
 C2247 C 0.34511 0.61890 0.80385
 C2248 C 0.33070 0.63906 0.80174
 H2249 H 0.35269 0.60155 0.71376
 H2250 H 0.32773 0.63664 0.71002
 H2251 H 0.35000 0.61298 0.81956
 H2252 H 0.32491 0.64802 0.81586
 H2253 H 0.37118 0.57968 0.80395
 H2254 H 0.37418 0.57338 0.73583
 H2255 H 0.30482 0.66866 0.72571
 H2256 H 0.30262 0.67628 0.79347
 C2257 C 0.35392 0.38668 0.73780
 C2258 C 0.36381 0.39694 0.75581
 C2259 C 0.37663 0.41852 0.75374
 C2260 C 0.37957 0.42987 0.73384
 C2261 C 0.36942 0.41928 0.71596
 C2262 C 0.35662 0.39769 0.71785
 C2263 C 0.34017 0.36419 0.73993
 C2264 C 0.32993 0.35416 0.72200
 C2265 C 0.31613 0.33335 0.72428
 C2266 C 0.31233 0.32279 0.74438
 C2267 C 0.32331 0.33279 0.76207
 C2268 C 0.33713 0.35350 0.75995
 C2269 C 0.34634 0.38698 0.70022
 C2270 C 0.33324 0.36560 0.70225
 C2271 C 0.36063 0.38544 0.77553
 C2272 C 0.34751 0.36411 0.77757
 H2273 H 0.34831 0.39528 0.68472
 H2274 H 0.32545 0.35811 0.68828
 H2275 H 0.36820 0.39310 0.78954
 H2276 H 0.34529 0.35600 0.79311
 H2277 H 0.38453 0.42630 0.76755
 H2278 H 0.37124 0.42802 0.70061
 H2279 H 0.30772 0.32601 0.71056
 H2280 H 0.32065 0.32490 0.77764
 C2281 C 0.85031 0.89125 0.23605
 C2282 C 0.85717 0.90374 0.25427
 C2283 C 0.87028 0.92512 0.25234
 C2284 C 0.87697 0.93409 0.23230
 C2285 C 0.86959 0.92109 0.21418
 C2286 C 0.85633 0.89981 0.21599
 C2287 C 0.83634 0.86888 0.23804
 C2288 C 0.82898 0.85664 0.21982
 C2289 C 0.81507 0.83579 0.22186
 C2290 C 0.80853 0.82730 0.24201
 C2291 C 0.81668 0.83961 0.26004
 C2292 C 0.83035 0.86041 0.25816
 C2293 C 0.84883 0.88702 0.19808
 C2294 C 0.83539 0.86586 0.19996
 C2295 C 0.85091 0.89450 0.27415
 C2296 C 0.83777 0.87319 0.27606
 H2297 H 0.85333 0.89346 0.18244
 H2298 H 0.82989 0.85671 0.18573
 H2299 H 0.85615 0.90385 0.28836
 H2300 H 0.83322 0.86680 0.29169
 H2301 H 0.87600 0.93394 0.26661
 H2302 H 0.87328 0.92791 0.19848
 H2303 H 0.80893 0.82666 0.20786
 H2304 H 0.81200 0.83342 0.27571
 C2305 C 0.65184 0.87918 0.76162
 C2306 C 0.64983 0.89074 0.78122
 C2307 C 0.63733 0.91244 0.78267
 C2308 C 0.62681 0.92262 0.76467
 C2309 C 0.62910 0.91072 0.74511
 C2310 C 0.64158 0.88902 0.74351
 C2311 C 0.66514 0.85646 0.75996
 C2312 C 0.66736 0.84515 0.74028
 C2313 C 0.68055 0.82407 0.73860
 C2314 C 0.69172 0.81425 0.75638
 C2315 C 0.68886 0.82555 0.77615
 C2316 C 0.67567 0.84676 0.77799
 C2317 C 0.64403 0.87696 0.72414
 C2318 C 0.65670 0.85542 0.72255
 C2319 C 0.66046 0.88040 0.79896
 C2320 C 0.67314 0.85881 0.79737
 H2321 H 0.63619 0.88431 0.71005
 H2322 H 0.65830 0.84684 0.70726
 H2323 H 0.65905 0.88913 0.81420
 H2324 H 0.68116 0.85160 0.81142
 H2325 H 0.63600 0.92158 0.79774
 H2326 H 0.62092 0.91814 0.73122
 H2327 H 0.68246 0.81564 0.72328
 H2328 H 0.69738 0.81834 0.78993
 C2329 C 0.15043 0.38667 0.26542
 C2330 C 0.14066 0.39721 0.24735
 C2331 C 0.12817 0.41887 0.24926
 C2332 C 0.12544 0.43007 0.26907
 C2333 C 0.13551 0.41921 0.28701
 C2334 C 0.14794 0.39750 0.28528
 C2335 C 0.16374 0.36401 0.26347
 C2336 C 0.17370 0.35358 0.28150
 C2337 C 0.18691 0.33244 0.27943
 C2338 C 0.19043 0.32197 0.25942
 C2339 C 0.17983 0.33249 0.24161
 C2340 C 0.16654 0.35347 0.24354
 C2341 C 0.15801 0.38643 0.30300
 C2342 C 0.17064 0.36486 0.30115
 C2343 C 0.14361 0.38588 0.22772
 C2344 C 0.15635 0.36442 0.22585
 H2345 H 0.15618 0.39457 0.31844
 H2346 H 0.17823 0.35707 0.31519
 H2347 H 0.13612 0.39375 0.21366
 H2348 H 0.15837 0.35643 0.21037
 H2349 H 0.12030 0.42677 0.23539
 H2350 H 0.13387 0.42779 0.30230
 H2351 H 0.19502 0.32469 0.29323
 H2352 H 0.18225 0.32464 0.22613
 C2353 C 0.10591 0.29343 0.83743
 C2354 C 0.09001 0.30903 0.82830
 C2355 C 0.06876 0.30905 0.83663
 C2356 C 0.06345 0.29307 0.85344
 C2357 C 0.07969 0.27840 0.86304
 C2358 C 0.10102 0.27847 0.85507
 C2359 C 0.12751 0.29130 0.82741
 C2360 C 0.14285 0.27455 0.83582
 C2361 C 0.16233 0.27050 0.82497
 C2362 C 0.16632 0.28258 0.80559
 C2363 C 0.15143 0.30044 0.79798
 C2364 C 0.13182 0.30470 0.80877
 C2365 C 0.11722 0.26293 0.86369
 C2366 C 0.13789 0.26107 0.85423
 C2367 C 0.09532 0.32321 0.81035
 C2368 C 0.11591 0.32104 0.80070
 H2369 H 0.11365 0.25154 0.87742
 H2370 H 0.14976 0.24828 0.86092
 H2371 H 0.08321 0.33542 0.80329
 H2372 H 0.11914 0.33162 0.78644
 H2373 H 0.05606 0.32028 0.82930
 H2374 H 0.07543 0.26631 0.87617
 H2375 H 0.17386 0.25697 0.83111
 H2376 H 0.15449 0.30995 0.78314
 C2377 C 0.59894 0.78670 0.32798
 C2378 C 0.58217 0.79993 0.31762
 C2379 C 0.56106 0.79991 0.32630
 C2380 C 0.55684 0.78624 0.34478
 C2381 C 0.57379 0.77351 0.35521
 C2382 C 0.59496 0.77373 0.34691
 C2383 C 0.62080 0.78545 0.31839
 C2384 C 0.63728 0.77158 0.32849
 C2385 C 0.65750 0.76890 0.31863
 C2386 C 0.66115 0.77933 0.29852
 C2387 C 0.64487 0.79412 0.28895
 C2388 C 0.62452 0.79715 0.29883
 C2389 C 0.61204 0.76068 0.35686
 C2390 C 0.63295 0.75970 0.34782
 C2391 C 0.58669 0.81221 0.29849
 C2392 C 0.60754 0.81076 0.28920
 H2393 H 0.60912 0.75078 0.37154
 H2394 H 0.64564 0.74902 0.35571
 H2395 H 0.57389 0.82252 0.29041
 H2396 H 0.61025 0.81994 0.27416
 H2397 H 0.54778 0.80969 0.31842
 H2398 H 0.57034 0.76324 0.36961
 H2399 H 0.67009 0.75782 0.32630
 H2400 H 0.64762 0.80228 0.27350
 C2401 C 0.59922 0.20942 0.16035
 C2402 C 0.59386 0.22461 0.14299
 C2403 C 0.57252 0.22388 0.13487
 C2404 C 0.55672 0.20822 0.14408
 C2405 C 0.56254 0.19204 0.16059
 C2406 C 0.58380 0.19282 0.16906
 C2407 C 0.62079 0.21227 0.17054
 C2408 C 0.62556 0.19852 0.18889
 C2409 C 0.64514 0.20326 0.19982
 C2410 C 0.65959 0.22190 0.19264
 C2411 C 0.65513 0.23447 0.17357
 C2412 C 0.63564 0.22994 0.16257
 C2413 C 0.58959 0.17839 0.18674
 C2414 C 0.61016 0.18123 0.19654
 C2415 C 0.60957 0.24114 0.13480
 C2416 C 0.63021 0.24371 0.14442
 H2417 H 0.57787 0.16542 0.19347
 H2418 H 0.61376 0.17038 0.21058
 H2419 H 0.60562 0.25272 0.12127
 H2420 H 0.64168 0.25722 0.13807
 H2421 H 0.56788 0.23612 0.12195
 H2422 H 0.55018 0.18003 0.16761
 H2423 H 0.64855 0.19332 0.21439
 H2424 H 0.66631 0.24861 0.16773
 C2425 C 0.08642 0.72432 0.67956
 C2426 C 0.08036 0.74093 0.66341
 C2427 C 0.05905 0.73998 0.65531
 C2428 C 0.04399 0.72236 0.66301
 C2429 C 0.05012 0.70595 0.67930
 C2430 C 0.07140 0.70693 0.68775
 C2431 C 0.10897 0.72503 0.68790
 C2432 C 0.11505 0.70871 0.70425
 C2433 C 0.13637 0.71016 0.71263
 C2434 C 0.15139 0.72779 0.70469
 C2435 C 0.14517 0.74333 0.68776
 C2436 C 0.12396 0.74223 0.67947
 C2437 C 0.07810 0.69071 0.70395
 C2438 C 0.09957 0.69166 0.71215
 C2439 C 0.09584 0.75781 0.65535
 C2440 C 0.11735 0.75842 0.66324
 H2441 H 0.06665 0.67722 0.71037
 H2442 H 0.10408 0.67897 0.72476
 H2443 H 0.09129 0.77059 0.64281
 H2444 H 0.12885 0.77177 0.65668
 H2445 H 0.05443 0.75222 0.64240
 H2446 H 0.03844 0.69228 0.68507
 H2447 H 0.14101 0.69809 0.72564
 H2448 H 0.15658 0.75693 0.68141
 C2449 C 0.88116 0.77699 0.64608
 C2450 C 0.88921 0.75796 0.63340
 C2451 C 0.90965 0.76090 0.62381
 C2452 C 0.92234 0.78237 0.62733
 C2453 C 0.91270 0.80250 0.63786
 C2454 C 0.89241 0.79958 0.64786
 C2455 C 0.86189 0.77221 0.65938
 C2456 C 0.85519 0.79027 0.67375
 C2457 C 0.83854 0.78451 0.68814
 C2458 C 0.82884 0.76084 0.68825
 C2459 C 0.83502 0.74344 0.67302
 C2460 C 0.85168 0.74892 0.65871
 C2461 C 0.88426 0.81791 0.66126
 C2462 C 0.86594 0.81328 0.67406
 C2463 C 0.87763 0.73552 0.63204
 C2464 C 0.85906 0.73109 0.64449
 H2465 H 0.89273 0.83550 0.66263
 H2466 H 0.86070 0.82747 0.68488
 H2467 H 0.88357 0.72086 0.62206
 H2468 H 0.85105 0.71317 0.64369
 H2469 H 0.91625 0.74582 0.61468
 H2470 H 0.92203 0.81923 0.64086
 H2471 H 0.83353 0.79820 0.69951
 H2472 H 0.82742 0.72526 0.67271
 C2473 C 0.39493 0.28311 0.16818
 C2474 C 0.39943 0.26881 0.15035
 C2475 C 0.42029 0.27016 0.14135
 C2476 C 0.43649 0.28554 0.15015
 C2477 C 0.43154 0.30067 0.16735
 C2478 C 0.41075 0.29931 0.17664
 C2479 C 0.37374 0.28001 0.17889
 C2480 C 0.36968 0.29321 0.19743
 C2481 C 0.35017 0.28872 0.20845
 C2482 C 0.33505 0.27092 0.20114
 C2483 C 0.33902 0.25861 0.18208
 C2484 C 0.35839 0.26296 0.17096
 C2485 C 0.40578 0.31295 0.19472
 C2486 C 0.38555 0.30992 0.20498
 C2487 C 0.38332 0.25270 0.14238
 C2488 C 0.36306 0.24985 0.15253
 H2489 H 0.41784 0.32557 0.20130
 H2490 H 0.38252 0.32031 0.21919
 H2491 H 0.38661 0.24177 0.12853
 H2492 H 0.35120 0.23681 0.14622
 H2493 H 0.42420 0.25876 0.12791
 H2494 H 0.44418 0.31246 0.17408
 H2495 H 0.34716 0.29840 0.22304
 H2496 H 0.32734 0.24510 0.17616
 C2497 C 0.39729 0.70769 0.33947
 C2498 C 0.40207 0.72234 0.35712
 C2499 C 0.42295 0.72105 0.36624
 C2500 C 0.43890 0.70551 0.35763
 C2501 C 0.43353 0.68966 0.34096
 C2502 C 0.41273 0.69096 0.33154
 C2503 C 0.37653 0.71150 0.32804
 C2504 C 0.37248 0.69835 0.30940
 C2505 C 0.35376 0.70392 0.29740
 C2506 C 0.33950 0.72281 0.30379
 C2507 C 0.34330 0.73497 0.32301
 C2508 C 0.36185 0.72952 0.33512
 C2509 C 0.40761 0.67715 0.31352
 C2510 C 0.38777 0.68080 0.30259
 C2511 C 0.38643 0.73918 0.36442
 C2512 C 0.36656 0.74268 0.35359
 H2513 H 0.41937 0.66410 0.30737
 H2514 H 0.38473 0.67043 0.28833
 H2515 H 0.38991 0.75037 0.37814
 H2516 H 0.35518 0.75645 0.35926
 H2517 H 0.42727 0.73313 0.37919
 H2518 H 0.44604 0.67785 0.33433
 H2519 H 0.35086 0.69436 0.28268
 H2520 H 0.33230 0.74938 0.32820
 C2521 C 0.90309 0.20944 0.82954
 C2522 C 0.91975 0.19546 0.82014
 C2523 C 0.94091 0.19602 0.82886
 C2524 C 0.94533 0.21094 0.84637
 C2525 C 0.92846 0.22430 0.85596
 C2526 C 0.90721 0.22359 0.84762
 C2527 C 0.88127 0.21041 0.81960
 C2528 C 0.86498 0.22529 0.82850
 C2529 C 0.84501 0.22811 0.81792
 C2530 C 0.84150 0.21675 0.79830
 C2531 C 0.85745 0.20075 0.79015
 C2532 C 0.87753 0.19768 0.80069
 C2533 C 0.89022 0.23740 0.85658
 C2534 C 0.86936 0.23818 0.84718
 C2535 C 0.91513 0.18202 0.80180
 C2536 C 0.89434 0.18318 0.79217
 H2537 H 0.89323 0.24817 0.87064
 H2538 H 0.85679 0.24957 0.85420
 H2539 H 0.92785 0.17111 0.79450
 H2540 H 0.89159 0.17318 0.77765
 H2541 H 0.95410 0.18575 0.82160
 H2542 H 0.93205 0.23553 0.86966
 H2543 H 0.83267 0.24020 0.82446
 H2544 H 0.85479 0.19188 0.77508
 C2545 C 0.54416 1.01785 0.64989
 C2546 C 0.54827 1.04104 0.65881
 C2547 C 0.56151 1.04257 0.67697
 C2548 C 0.57074 1.02107 0.68640
 C2549 C 0.56558 0.99785 0.67745
 C2550 C 0.55265 0.99621 0.65912
 C2551 C 0.53159 1.01631 0.62996
 C2552 C 0.52890 0.99325 0.62026
 C2553 C 0.51900 0.99216 0.60029
 C2554 C 0.51175 1.01388 0.59008
 C2555 C 0.51334 1.03668 0.60049
 C2556 C 0.52366 1.03807 0.62034
 C2557 C 0.54878 0.97335 0.64937
 C2558 C 0.53721 0.97192 0.63022
 C2559 C 0.53949 1.06234 0.64909
 C2560 C 0.52736 1.06088 0.63021
 H2561 H 0.55524 0.95649 0.65633
 H2562 H 0.53516 0.95402 0.62291
 H2563 H 0.54241 1.08037 0.65590
 H2564 H 0.52136 1.07781 0.62299
 H2565 H 0.56416 1.06058 0.68387
 H2566 H 0.57279 0.98104 0.68374
 H2567 H 0.51794 0.97463 0.59218
 H2568 H 0.50822 1.05346 0.59245
 C2569 C 0.04635 0.51999 1.15191
 C2570 C 0.04679 0.54299 1.16198
 C2571 C 0.05907 0.54560 1.18068
 C2572 C 0.07094 0.52544 1.18919
 C2573 C 0.06990 0.50241 1.17904
 C2574 C 0.05774 0.49961 1.16036
 C2575 C 0.03452 0.51745 1.13164
 C2576 C 0.03513 0.49478 1.12106
 C2577 C 0.02556 0.49302 1.10099
 C2578 C 0.01552 0.51372 1.09142
 C2579 C 0.01400 0.53597 1.10268
 C2580 C 0.02380 0.53805 1.12273
 C2581 C 0.05728 0.47700 1.14964
 C2582 C 0.04620 0.47464 1.13030
 C2583 C 0.03539 0.56302 1.15288
 C2584 C 0.02408 0.56059 1.13360
 H2585 H 0.06594 0.46113 1.15605
 H2586 H 0.04671 0.45705 1.12229
 H2587 H 0.03552 0.58085 1.16052
 H2588 H 0.01592 0.57663 1.12693
 H2589 H 0.05954 0.56333 1.18850
 H2590 H 0.07920 0.48689 1.18525
 H2591 H 0.02681 0.47586 1.09237
 H2592 H 0.00660 0.55206 1.09527
 C2593 C -0.04301 -0.01636 1.15443
 C2594 C -0.04580 -0.03930 1.16453
 C2595 C -0.05778 -0.04059 1.18337
 C2596 C -0.06713 -0.01914 1.19232
 C2597 C -0.06302 0.00396 1.18236
 C2598 C -0.05141 0.00534 1.16325
 C2599 C -0.03194 -0.01520 1.13374
 C2600 C -0.03059 0.00751 1.12291
 C2601 C -0.02201 0.00813 1.10241
 C2602 C -0.01463 -0.01369 1.09282
 C2603 C -0.01494 -0.03609 1.10431
 C2604 C -0.02398 -0.03703 1.12468
 C2605 C -0.04886 0.02789 1.15230
 C2606 C -0.03876 0.02893 1.13243
 C2607 C -0.03707 -0.06065 1.15529
 C2608 C -0.02628 -0.05952 1.13575
 H2609 H -0.05526 0.04480 1.15889
 H2610 H -0.03771 0.04659 1.12427
 H2611 H -0.03899 -0.07848 1.16302
 H2612 H -0.02023 -0.07650 1.12898
 H2613 H -0.05950 -0.05842 1.19114
 H2614 H -0.07021 0.02070 1.18846
 H2615 H -0.02187 0.02539 1.09357
 H2616 H -0.00965 -0.05299 1.09686
 C2617 C 0.46030 0.48239 0.65648
 C2618 C 0.45106 0.50378 0.66504
 C2619 C 0.43876 0.50196 0.68370
 C2620 C 0.43488 0.47874 0.69354
 C2621 C 0.44484 0.45755 0.68474
 C2622 C 0.45753 0.45929 0.66635
 C2623 C 0.47234 0.48404 0.63633
 C2624 C 0.48124 0.46253 0.62756
 C2625 C 0.49136 0.46394 0.60770
 C2626 C 0.49182 0.48646 0.59637
 C2627 C 0.48342 0.50796 0.60568
 C2628 C 0.47376 0.50689 0.62571
 C2629 C 0.46712 0.43826 0.65736
 C2630 C 0.47884 0.43987 0.63834
 C2631 C 0.45360 0.52649 0.65432
 C2632 C 0.46463 0.52799 0.63494
 H2633 H 0.46523 0.42032 0.66491
 H2634 H 0.48559 0.42312 0.63176
 H2635 H 0.44654 0.54316 0.66072
 H2636 H 0.46571 0.54575 0.62694
 H2637 H 0.43100 0.51849 0.68958
 H2638 H 0.44317 0.43963 0.69235
 H2639 H 0.49744 0.44727 0.60043
 H2640 H 0.48366 0.52531 0.59695
 C2641 C 0.45450 0.52202 -0.14962
 C2642 C 0.44322 0.50143 -0.15771
 C2643 C 0.43150 0.50381 -0.17673
 C2644 C 0.43077 0.52665 -0.18757
 C2645 C 0.44247 0.54705 -0.17937
 C2646 C 0.45434 0.54484 -0.16036
 C2647 C 0.46601 0.51988 -0.12911
 C2648 C 0.47675 0.54066 -0.12065
 C2649 C 0.48644 0.53889 -0.10050
 C2650 C 0.48483 0.51673 -0.08870
 C2651 C 0.47465 0.49590 -0.09776
 C2652 C 0.46520 0.49736 -0.11793
 C2653 C 0.46566 0.56509 -0.15163
 C2654 C 0.47668 0.56304 -0.13213
 C2655 C 0.44337 0.47902 -0.14632
 C2656 C 0.45413 0.47704 -0.12675
 H2657 H 0.46572 0.58280 -0.15977
 H2658 H 0.48482 0.57924 -0.12579
 H2659 H 0.43475 0.46300 -0.15240
 H2660 H 0.45344 0.45956 -0.11827
 H2661 H 0.42233 0.48812 -0.18273
 H2662 H 0.44221 0.56464 -0.18772
 H2663 H 0.49392 0.55510 -0.09348
 H2664 H 0.47333 0.47882 -0.08874
 C2665 C -0.04704 1.02572 0.35063
 C2666 C -0.05782 1.00480 0.34250
 C2667 C -0.06903 1.00666 0.32314
 C2668 C -0.06980 1.02932 0.31202
 C2669 C -0.05846 1.05000 0.32022
 C2670 C -0.04712 1.04832 0.33957
 C2671 C -0.03624 1.02418 0.37155
 C2672 C -0.02609 1.04529 0.38006
 C2673 C -0.01714 1.04410 0.40059
 C2674 C -0.01890 1.02216 0.41266
 C2675 C -0.02847 1.00099 0.40352
 C2676 C -0.03719 1.00189 0.38303
 C2677 C -0.03634 1.06891 0.34835
 C2678 C -0.02600 1.06742 0.36823
 C2679 C -0.05778 0.98263 0.35423
 C2680 C -0.04767 0.98121 0.37416
 H2681 H -0.03622 1.08645 0.33996
 H2682 H -0.01828 1.08388 0.37458
 H2683 H -0.06600 0.96636 0.34813
 H2684 H -0.04845 0.96390 0.38287
 H2685 H -0.07790 0.99076 0.31714
 H2686 H -0.05872 1.06746 0.31168
 H2687 H -0.01012 1.06057 0.40760
 H2688 H -0.02989 0.98404 0.41272
 C2689 C 0.04763 0.48346 0.34806
 C2690 C 0.05893 0.50412 0.33987
 C2691 C 0.07036 0.50200 0.32082
 C2692 C 0.07083 0.47934 0.31008
 C2693 C 0.05888 0.45897 0.31824
 C2694 C 0.04734 0.46090 0.33730
 C2695 C 0.03681 0.48516 0.36879
 C2696 C 0.02629 0.46422 0.37745
 C2697 C 0.01759 0.46542 0.39793
 C2698 C 0.02005 0.48712 0.40983
 C2699 C 0.02984 0.50820 0.40055
 C2700 C 0.03828 0.50733 0.38006
 C2701 C 0.03609 0.44055 0.34616
 C2702 C 0.02574 0.44218 0.36588
 C2703 C 0.05926 0.52625 0.35128
 C2704 C 0.04915 0.52781 0.37106
 H2705 H 0.03568 0.42304 0.33799
 H2706 H 0.01773 0.42587 0.37235
 H2707 H 0.06785 0.54233 0.34510
 H2708 H 0.05029 0.54504 0.37960
 H2709 H 0.07970 0.51768 0.31486
 H2710 H 0.05886 0.44154 0.30995
 H2711 H 0.01038 0.44905 0.40512
 H2712 H 0.03179 0.52493 0.40968
 C2713 C 0.54785 -0.01927 -0.15849
 C2714 C 0.56079 0.00028 -0.16639
 C2715 C 0.57316 -0.00324 -0.18470
 C2716 C 0.57289 -0.02619 -0.19501
 C2717 C 0.55970 -0.04559 -0.18695
 C2718 C 0.54710 -0.04221 -0.16867
 C2719 C 0.53544 -0.01589 -0.13878
 C2720 C 0.52292 -0.03560 -0.13052
 C2721 C 0.51228 -0.03273 -0.11106
 C2722 C 0.51475 -0.01064 -0.09966
 C2723 C 0.52675 0.00918 -0.10856
 C2724 C 0.53712 0.00667 -0.12810
 C2725 C 0.53406 -0.06136 -0.16016
 C2726 C 0.52215 -0.05810 -0.14144
 C2727 C 0.56151 0.02280 -0.15557
 C2728 C 0.54993 0.02592 -0.13671
 H2729 H 0.53327 -0.07914 -0.16787
 H2730 H 0.51261 -0.07348 -0.13525
 H2731 H 0.57141 0.03802 -0.16154
 H2732 H 0.55131 0.04342 -0.12862
 H2733 H 0.58349 0.01166 -0.19060
 H2734 H 0.55923 -0.06324 -0.19491
 H2735 H 0.50335 -0.04816 -0.10417
 H2736 H 0.52874 0.02622 -0.09986
 C2737 C 0.63970 0.61876 -0.00152
 C2738 C 0.64108 0.63849 0.01261
 C2739 C 0.66170 0.64879 0.01743
 C2740 C 0.68133 0.63937 0.00864
 C2741 C 0.67932 0.61999 -0.00625
 C2742 C 0.65862 0.60953 -0.01117
 C2743 C 0.61808 0.60696 -0.00565
 C2744 C 0.61669 0.58648 -0.01911
 C2745 C 0.59630 0.57417 -0.02165
 C2746 C 0.57768 0.58207 -0.01043
 C2747 C 0.57930 0.60325 0.00226
 C2748 C 0.59939 0.61569 0.00477
 C2749 C 0.65651 0.58945 -0.02504
 C2750 C 0.63596 0.57815 -0.02892
 C2751 C 0.62181 0.64725 0.02210
 C2752 C 0.60135 0.63600 0.01830
 H2753 H 0.67095 0.58211 -0.03268
 H2754 H 0.63524 0.56243 -0.03937
 H2755 H 0.62263 0.66258 0.03296
 H2756 H 0.58701 0.64295 0.02638
 H2757 H 0.66217 0.66453 0.02785
 H2758 H 0.69381 0.61181 -0.01309
 H2759 H 0.59525 0.55764 -0.03115
 H2760 H 0.56503 0.60935 0.01098
 C2761 C 0.13310 1.12542 0.50393
 C2762 C 0.14832 1.12645 0.48741
 C2763 C 0.16924 1.13730 0.49101
 C2764 C 0.17527 1.14608 0.51131
 C2765 C 0.15958 1.14399 0.52764
 C2766 C 0.13853 1.13449 0.52394
 C2767 C 0.11124 1.11391 0.50051
 C2768 C 0.09621 1.11331 0.51716
 C2769 C 0.07594 1.10168 0.51435
 C2770 C 0.07065 1.08919 0.49549
 C2771 C 0.08564 1.09055 0.47852
 C2772 C 0.10605 1.10312 0.48099
 C2773 C 0.12289 1.13357 0.54014
 C2774 C 0.10198 1.12346 0.53672
 C2775 C 0.14234 1.11625 0.46781
 C2776 C 0.12172 1.10459 0.46473
 H2777 H 0.12687 1.14070 0.55563
 H2778 H 0.09043 1.12300 0.54969
 H2779 H 0.15387 1.11684 0.45483
 H2780 H 0.11810 1.09653 0.44952
 H2781 H 0.18064 1.13865 0.47801
 H2782 H 0.16367 1.14908 0.54364
 H2783 H 0.06458 1.10147 0.52749
 H2784 H 0.08185 1.08120 0.46389
 C2785 C 0.13493 -0.11843 1.00094
 C2786 C 0.13914 -0.12824 0.98098
 C2787 C 0.15968 -0.13852 0.97684
 C2788 C 0.17598 -0.14070 0.99272
 C2789 C 0.17118 -0.13115 1.01300
 C2790 C 0.15083 -0.11949 1.01699
 C2791 C 0.11364 -0.10614 1.00478
 C2792 C 0.10969 -0.09459 1.02419
 C2793 C 0.08983 -0.08128 1.02699
 C2794 C 0.07416 -0.08001 1.01045
 C2795 C 0.07815 -0.09332 0.99179
 C2796 C 0.09789 -0.10561 0.98862
 C2797 C 0.14608 -0.10854 1.03654
 C2798 C 0.12602 -0.09610 1.03999
 C2799 C 0.12283 -0.12731 0.96526
 C2800 C 0.10243 -0.11649 0.96912
 H2801 H 0.15815 -0.10916 1.04917
 H2802 H 0.12336 -0.08749 1.05511
 H2803 H 0.12587 -0.13500 0.94983
 H2804 H 0.09032 -0.11605 0.95652
 H2805 H 0.16289 -0.14423 0.96085
 H2806 H 0.18310 -0.13255 1.02566
 H2807 H 0.08702 -0.07131 1.04146
 H2808 H 0.06618 -0.09325 0.97906
 C2809 C 0.64432 0.38197 0.50689
 C2810 C 0.64420 0.36167 0.49330
 C2811 C 0.66423 0.35159 0.48670
 C2812 C 0.68468 0.36164 0.49336
 C2813 C 0.68426 0.38158 0.50780
 C2814 C 0.66419 0.39196 0.51433
 C2815 C 0.62324 0.39366 0.51267
 C2816 C 0.62331 0.41494 0.52527
 C2817 C 0.60332 0.42736 0.52897
 C2818 C 0.58360 0.41869 0.51981
 C2819 C 0.58379 0.39663 0.50819
 C2820 C 0.60351 0.38416 0.50443
 C2821 C 0.66358 0.41272 0.52754
 C2822 C 0.64355 0.42404 0.53284
 C2823 C 0.62400 0.35214 0.48608
 C2824 C 0.60401 0.36320 0.49154
 H2825 H 0.67877 0.42066 0.53346
 H2826 H 0.64395 0.44039 0.54258
 H2827 H 0.62366 0.33635 0.47569
 H2828 H 0.58887 0.35566 0.48514
 H2829 H 0.66364 0.33554 0.47665
 H2830 H 0.69941 0.39025 0.51296
 H2831 H 0.60334 0.44462 0.53753
 H2832 H 0.56868 0.39009 0.50089
 C2833 C -0.13706 0.39482 0.49873
 C2834 C -0.14545 0.38086 0.48190
 C2835 C -0.16538 0.36759 0.48461
 C2836 C -0.17644 0.36805 0.50416
 C2837 C -0.16789 0.38264 0.52056
 C2838 C -0.14830 0.39592 0.51800
 C2839 C -0.11588 0.40817 0.49638
 C2840 C -0.10766 0.42177 0.51341
 C2841 C -0.08733 0.43370 0.51155
 C2842 C -0.07462 0.43190 0.49303
 C2843 C -0.08335 0.41870 0.47573
 C2844 C -0.10408 0.40670 0.47740
 C2845 C -0.13957 0.40998 0.53456
 C2846 C -0.11963 0.42276 0.53228
 C2847 C -0.13343 0.38017 0.46297
 C2848 C -0.11314 0.39279 0.46078
 H2849 H -0.14813 0.41089 0.54950
 H2850 H -0.11336 0.43321 0.54553
 H2851 H -0.13963 0.36956 0.44980
 H2852 H -0.10440 0.39146 0.44600
 H2853 H -0.17191 0.35645 0.47189
 H2854 H -0.17651 0.38349 0.53548
 H2855 H -0.08122 0.44412 0.52490
 H2856 H -0.07383 0.41714 0.46140
 C2857 C 0.35695 -0.11050 -0.01216
 C2858 C 0.33701 -0.09840 -0.01640
 C2859 C 0.31715 -0.10939 -0.00970
 C2860 C 0.31720 -0.13210 0.00147
 C2861 C 0.33740 -0.14420 0.00508
 C2862 C 0.35728 -0.13347 -0.00162
 C2863 C 0.37797 -0.09837 -0.01797
 C2864 C 0.39789 -0.11000 -0.01276
 C2865 C 0.41777 -0.09742 -0.01635
 C2866 C 0.41787 -0.07328 -0.02486
 C2867 C 0.39786 -0.06228 -0.03100
 C2868 C 0.37776 -0.07474 -0.02742
 C2869 C 0.37756 -0.14492 0.00256
 C2870 C 0.39751 -0.13339 -0.00292
 C2871 C 0.33742 -0.07521 -0.02664
 C2872 C 0.35742 -0.06356 -0.03198
 H2873 H 0.37805 -0.16269 0.01059
 H2874 H 0.41278 -0.14257 0.00111
 H2875 H 0.32215 -0.06572 -0.03015
 H2876 H 0.35696 -0.04539 -0.03931
 H2877 H 0.30176 -0.09984 -0.01246
 H2878 H 0.33764 -0.16185 0.01331
 H2879 H 0.43315 -0.10572 -0.01129
 H2880 H 0.39785 -0.04346 -0.03704
 C2881 C 0.35192 1.09953 0.50032
 C2882 C 0.34558 1.11804 0.51441
 C2883 C 0.32578 1.13092 0.51068
 C2884 C 0.31277 1.12565 0.49275
 C2885 C 0.31924 1.10667 0.47912
 C2886 C 0.33872 1.09357 0.48281
 C2887 C 0.37314 1.08671 0.50349
 C2888 C 0.37954 1.06875 0.48899
 C2889 C 0.40014 1.05766 0.49121
 C2890 C 0.41473 1.06453 0.50753
 C2891 C 0.40780 1.08190 0.52255
 C2892 C 0.38695 1.09323 0.52046
 C2893 C 0.34552 1.07501 0.46900
 C2894 C 0.36557 1.06277 0.47206
 C2895 C 0.35951 1.12364 0.53154
 C2896 C 0.37982 1.11152 0.53448
 H2897 H 0.33542 1.07016 0.45551
 H2898 H 0.37038 1.04886 0.46082
 H2899 H 0.35486 1.13783 0.54259
 H2900 H 0.39016 1.11679 0.54768
 H2901 H 0.32090 1.14558 0.52119
 H2902 H 0.30919 1.10237 0.46544
 H2903 H 0.40513 1.04406 0.47974
 H2904 H 0.41890 1.08737 0.53512
 C2905 C -0.13708 0.61632 1.00016
 C2906 C -0.15136 0.61941 1.01723
 C2907 C -0.17181 0.63132 1.01381
 C2908 C -0.17818 0.63926 0.99325
 C2909 C -0.16367 0.63473 0.97640
 C2910 C -0.14307 0.62420 0.97981
 C2911 C -0.11558 0.60413 1.00343
 C2912 C -0.10144 0.60178 0.98624
 C2913 C -0.08140 0.58992 0.98901
 C2914 C -0.07540 0.57889 1.00851
 C2915 C -0.08956 0.58181 1.02596
 C2916 C -0.10976 0.59470 1.02344
 C2917 C -0.12839 0.62135 0.96303
 C2918 C -0.10778 0.61062 0.96625
 C2919 C -0.14482 0.61035 1.03722
 C2920 C -0.12454 0.59802 1.04022
 H2921 H -0.13281 0.62758 0.94727
 H2922 H -0.09691 0.60877 0.95287
 H2923 H -0.15560 0.61248 1.05063
 H2924 H -0.12045 0.59101 1.05581
 H2925 H -0.18254 0.63437 1.02709
 H2926 H -0.16835 0.63905 0.96029
 H2927 H -0.07075 0.58860 0.97541
 H2928 H -0.08523 0.57366 1.04108
 C2929 C 0.00173 0.63006 0.59205
 C2930 C 0.00367 0.62760 0.61404
 C2931 C 0.00098 0.64852 0.62657
 C2932 C -0.00295 0.67178 0.61713
 C2933 C -0.00572 0.67366 0.59514
 C2934 C -0.00336 0.65288 0.58251
 C2935 C 0.00573 0.60852 0.57870
 C2936 C 0.00385 0.61112 0.55672
 C2937 C 0.00718 0.59055 0.54411
 C2938 C 0.01241 0.56757 0.55329
 C2939 C 0.01494 0.56528 0.57527
 C2940 C 0.01138 0.58578 0.58814
 C2941 C -0.00510 0.65472 0.56048
 C2942 C -0.00163 0.63411 0.54777
 C2943 C 0.00909 0.60453 0.62297
 C2944 C 0.01291 0.58393 0.61021
 H2945 H -0.00901 0.67226 0.55299
 H2946 H -0.00314 0.63622 0.53081
 H2947 H 0.01064 0.60245 0.63993
 H2948 H 0.01714 0.56647 0.61768
 H2949 H 0.00297 0.64696 0.64353
 H2950 H -0.00828 0.69153 0.58767
 H2951 H 0.00529 0.59226 0.52713
 H2952 H 0.01866 0.54742 0.58233
 C2953 C 0.48390 0.12953 0.08743
 C2954 C 0.49060 0.12605 0.10848
 C2955 C 0.49316 0.14668 0.12136
 C2956 C 0.49005 0.17060 0.11299
 C2957 C 0.48151 0.17367 0.09249
 C2958 C 0.47863 0.15313 0.07950
 C2959 C 0.48430 0.10848 0.07298
 C2960 C 0.47886 0.11223 0.05163
 C2961 C 0.48082 0.09257 0.03763
 C2962 C 0.48873 0.06958 0.04481
 C2963 C 0.49367 0.06593 0.06630
 C2964 C 0.49143 0.08533 0.08050
 C2965 C 0.47233 0.15596 0.05828
 C2966 C 0.47235 0.13578 0.04457
 C2967 C 0.49636 0.10233 0.11572
 C2968 C 0.49681 0.08226 0.10192
 H2969 H 0.46809 0.17405 0.05204
 H2970 H 0.46798 0.13882 0.02816
 H2971 H 0.50141 0.09945 0.13197
 H2972 H 0.50205 0.06439 0.10792
 H2973 H 0.49952 0.14436 0.13727
 H2974 H 0.47926 0.19209 0.08595
 H2975 H 0.47691 0.09535 0.02107
 H2976 H 0.49932 0.04804 0.07194
 C2977 C 0.01229 0.13071 0.90737
 C2978 C 0.00732 0.12806 0.88587
 C2979 C 0.00636 0.14915 0.87303
 C2980 C 0.00908 0.17275 0.88186
 C2981 C 0.01591 0.17497 0.90299
 C2982 C 0.01736 0.15394 0.91591
 C2983 C 0.01038 0.10915 0.92151
 C2984 C 0.01440 0.11204 0.94318
 C2985 C 0.01143 0.09179 0.95672
 C2986 C 0.00394 0.06909 0.94875
 C2987 C 0.00010 0.06637 0.92702
 C2988 C 0.00346 0.08636 0.91326
 C2989 C 0.02204 0.15592 0.93755
 C2990 C 0.02072 0.13523 0.95096
 C2991 C 0.00163 0.10469 0.87798
 C2992 C -0.00035 0.08416 0.89150
 H2993 H 0.02611 0.17373 0.94427
 H2994 H 0.02398 0.13758 0.96764
 H2995 H -0.00216 0.10248 0.86139
 H2996 H -0.00542 0.06658 0.88495
 H2997 H 0.00140 0.14744 0.85665
 H2998 H 0.01788 0.19309 0.90993
 H2999 H 0.01448 0.09380 0.97349
 H3000 H -0.00523 0.04868 0.92086
 C3001 C 0.51776 0.62774 0.40926
 C3002 C 0.50963 0.62508 0.38862
 C3003 C 0.50531 0.64624 0.37656
 C3004 C 0.50815 0.66980 0.38539
 C3005 C 0.51812 0.67222 0.40532
 C3006 C 0.52273 0.65116 0.41748
 C3007 C 0.51901 0.60590 0.42315
 C3008 C 0.52564 0.60878 0.44424
 C3009 C 0.52476 0.58839 0.45794
 C3010 C 0.51666 0.56557 0.45074
 C3011 C 0.51083 0.56272 0.42942
 C3012 C 0.51197 0.58286 0.41551
 C3013 C 0.53044 0.65314 0.43832
 C3014 C 0.53197 0.63223 0.45148
 C3015 C 0.50419 0.60148 0.38111
 C3016 C 0.50530 0.58067 0.39438
 H3017 H 0.53451 0.67108 0.44475
 H3018 H 0.53729 0.63460 0.46768
 H3019 H 0.49808 0.59925 0.36515
 H3020 H 0.50016 0.56289 0.38828
 H3021 H 0.49784 0.64446 0.36107
 H3022 H 0.52019 0.69038 0.41217
 H3023 H 0.52935 0.59055 0.47437
 H3024 H 0.50501 0.54497 0.42377
 C3025 C 0.49179 0.86770 0.40667
 C3026 C 0.48636 0.84441 0.41520
 C3027 C 0.48808 0.82354 0.40250
 C3028 C 0.49530 0.82593 0.38151
 C3029 C 0.49854 0.84964 0.37267
 C3030 C 0.49748 0.87056 0.38535
 C3031 C 0.49301 0.88917 0.42063
 C3032 C 0.50017 0.91204 0.41246
 C3033 C 0.50260 0.93203 0.42608
 C3034 C 0.49742 0.92933 0.44756
 C3035 C 0.48987 0.90645 0.45546
 C3036 C 0.48793 0.88617 0.44209
 C3037 C 0.50353 0.89398 0.37751
 C3038 C 0.50499 0.91439 0.39090
 C3039 C 0.48082 0.84225 0.43662
 C3040 C 0.48143 0.86286 0.44983
 H3041 H 0.50793 0.89637 0.36107
 H3042 H 0.51034 0.93202 0.38441
 H3043 H 0.47648 0.82439 0.44333
 H3044 H 0.47736 0.86041 0.46635
 H3045 H 0.48571 0.80538 0.40953
 H3046 H 0.50367 0.85160 0.35638
 H3047 H 0.50819 0.94973 0.41994
 H3048 H 0.48588 0.90437 0.47203
 C3049 C -0.01089 0.37101 0.90623
 C3050 C -0.01616 0.34765 0.91475
 C3051 C -0.01319 0.32666 0.90240
 C3052 C -0.00454 0.32908 0.88196
 C3053 C -0.00169 0.35271 0.87288
 C3054 C -0.00426 0.37379 0.88515
 C3055 C -0.01026 0.39257 0.92014
 C3056 C -0.00296 0.41546 0.91209
 C3057 C -0.00038 0.43532 0.92582
 C3058 C -0.00524 0.43237 0.94735
 C3059 C -0.01336 0.40964 0.95504
 C3060 C -0.01559 0.38952 0.94154
 C3061 C 0.00156 0.39729 0.87732
 C3062 C 0.00227 0.41782 0.89062
 C3063 C -0.02241 0.34555 0.93599
 C3064 C -0.02225 0.36621 0.94916
 H3065 H 0.00655 0.39961 0.86103
 H3066 H 0.00760 0.43549 0.88420
 H3067 H -0.02668 0.32765 0.94267
 H3068 H -0.02657 0.36374 0.96561
 H3069 H -0.01530 0.30847 0.90946
 H3070 H 0.00473 0.35450 0.85700
 H3071 H 0.00541 0.45302 0.91982
 H3072 H -0.01722 0.40743 0.97164
 C3073 C 0.50829 0.37082 0.09536
 C3074 C 0.51396 0.34802 0.08651
 C3075 C 0.51048 0.32631 0.09819
 C3076 C 0.50115 0.32738 0.11842
 C3077 C 0.49752 0.35050 0.12779
 C3078 C 0.50055 0.37230 0.11613
 C3079 C 0.50884 0.39325 0.08211
 C3080 C 0.50140 0.41570 0.09041
 C3081 C 0.50012 0.43650 0.07718
 C3082 C 0.50642 0.43489 0.05593
 C3083 C 0.51462 0.41254 0.04807
 C3084 C 0.51558 0.39154 0.06103
 C3085 C 0.49446 0.39533 0.12427
 C3086 C 0.49479 0.41670 0.11158
 C3087 C 0.52147 0.34721 0.06562
 C3088 C 0.52238 0.36868 0.05310
 H3089 H 0.48860 0.39668 0.14033
 H3090 H 0.48930 0.43398 0.11821
 H3091 H 0.52605 0.32975 0.05869
 H3092 H 0.52774 0.36723 0.03688
 H3093 H 0.51318 0.30860 0.09079
 H3094 H 0.49073 0.35140 0.14355
 H3095 H 0.49414 0.45384 0.08335
 H3096 H 0.51950 0.41127 0.03169
 C3097 C 0.00038 0.87329 0.59378
 C3098 C -0.01165 0.87278 0.61264
 C3099 C -0.01613 0.85002 0.62228
 C3100 C -0.00940 0.82800 0.61270
 C3101 C 0.00426 0.82883 0.59492
 C3102 C 0.00898 0.85153 0.58516
 C3103 C 0.00210 0.89659 0.58180
 C3104 C 0.01263 0.89672 0.56214
 C3105 C 0.01225 0.91826 0.54982
 C3106 C 0.00094 0.93927 0.55682
 C3107 C -0.00877 0.93918 0.57691
 C3108 C -0.00830 0.91782 0.58946
 C3109 C 0.02048 0.85270 0.56603
 C3110 C 0.02234 0.87499 0.55472
 C3111 C -0.02056 0.89472 0.62050
 C3112 C -0.01892 0.91694 0.60906
 H3113 H 0.02733 0.83607 0.55934
 H3114 H 0.03067 0.87499 0.53964
 H3115 H -0.02970 0.89451 0.63513
 H3116 H -0.02673 0.93330 0.61522
 H3117 H -0.02654 0.84922 0.63612
 H3118 H 0.00931 0.81178 0.58754
 H3119 H 0.01986 0.91827 0.53439
 H3120 H -0.01714 0.95548 0.58253
 C3121 C 0.26657 0.31116 0.10013
 C3122 C 0.28752 0.31443 0.09138
 C3123 C 0.28988 0.32895 0.07304
 C3124 C 0.27145 0.34035 0.06317
 C3125 C 0.25041 0.33605 0.07208
 C3126 C 0.24796 0.32181 0.09060
 C3127 C 0.26416 0.29689 0.12000
 C3128 C 0.24333 0.29472 0.12930
 C3129 C 0.24133 0.28268 0.14889
 C3130 C 0.25996 0.27273 0.15920
 C3131 C 0.28060 0.27412 0.14923
 C3132 C 0.28284 0.28652 0.12973
 C3133 C 0.22729 0.31859 0.10011
 C3134 C 0.22502 0.30538 0.11916
 C3135 C 0.30578 0.30335 0.10133
 C3136 C 0.30348 0.28962 0.12015
 H3137 H 0.21276 0.32672 0.09296
 H3138 H 0.20884 0.30377 0.12615
 H3139 H 0.32206 0.30561 0.09468
 H3140 H 0.31805 0.28176 0.12745
 H3141 H 0.30612 0.33066 0.06622
 H3142 H 0.23596 0.34489 0.06548
 H3143 H 0.22538 0.28169 0.15646
 H3144 H 0.29505 0.26687 0.15720
 C3145 C 0.76334 0.80344 0.59792
 C3146 C 0.74541 0.81720 0.59025
 C3147 C 0.74827 0.83290 0.57269
 C3148 C 0.76889 0.83496 0.56270
 C3149 C 0.78663 0.82063 0.57047
 C3150 C 0.78398 0.80500 0.58817
 C3151 C 0.76060 0.78771 0.61695
 C3152 C 0.77872 0.77466 0.62518
 C3153 C 0.77635 0.76114 0.64416
 C3154 C 0.75614 0.76111 0.65501
 C3155 C 0.73796 0.77345 0.64595
 C3156 C 0.74012 0.78690 0.62706
 C3157 C 0.80160 0.79119 0.59654
 C3158 C 0.79904 0.77636 0.61474
 C3159 C 0.72504 0.81537 0.60054
 C3160 C 0.72244 0.80048 0.61862
 H3161 H 0.81763 0.79218 0.58916
 H3162 H 0.81319 0.76646 0.62089
 H3163 H 0.71106 0.82582 0.59476
 H3164 H 0.70655 0.79997 0.62630
 H3165 H 0.73457 0.84399 0.56716
 H3166 H 0.80250 0.82161 0.56278
 H3167 H 0.79052 0.75203 0.65113
 H3168 H 0.72235 0.77357 0.65415
 C3169 C 0.23335 0.68138 0.60129
 C3170 C 0.22916 0.65585 0.60081
 C3171 C 0.23132 0.64318 0.58179
 C3172 C 0.23739 0.65574 0.56311
 C3173 C 0.24214 0.68131 0.56391
 C3174 C 0.24004 0.69427 0.58304
 C3175 C 0.23069 0.69481 0.62133
 C3176 C 0.23506 0.72036 0.62208
 C3177 C 0.23339 0.73276 0.64155
 C3178 C 0.22764 0.71948 0.65998
 C3179 C 0.22274 0.69409 0.65867
 C3180 C 0.22426 0.68167 0.63949
 C3181 C 0.24408 0.71987 0.58433
 C3182 C 0.24168 0.73265 0.60348
 C3183 C 0.22253 0.64346 0.61930
 C3184 C 0.22016 0.65614 0.63832
 H3185 H 0.24919 0.73013 0.57042
 H3186 H 0.24517 0.75230 0.60373
 H3187 H 0.21918 0.62377 0.61907
 H3188 H 0.21520 0.64584 0.65226
 H3189 H 0.22781 0.62351 0.58137
 H3190 H 0.24662 0.69117 0.54958
 H3191 H 0.23764 0.75219 0.64259
 H3192 H 0.21858 0.68379 0.67289
 C3193 C 0.73051 0.18678 0.09475
 C3194 C 0.70989 0.18440 0.08500
 C3195 C 0.70794 0.17039 0.06655
 C3196 C 0.72647 0.15866 0.05756
 C3197 C 0.74722 0.16206 0.06744
 C3198 C 0.74923 0.17575 0.08611
 C3199 C 0.73244 0.20058 0.11470
 C3200 C 0.75289 0.20194 0.12499
 C3201 C 0.75437 0.21369 0.14460
 C3202 C 0.73560 0.22422 0.15387
 C3203 C 0.71538 0.22357 0.14290
 C3204 C 0.71365 0.21145 0.12344
 C3205 C 0.76955 0.17811 0.09662
 C3206 C 0.77133 0.19087 0.11576
 C3207 C 0.69151 0.19588 0.09402
 C3208 C 0.69336 0.20921 0.11287
 H3209 H 0.78415 0.16968 0.09017
 H3210 H 0.78724 0.19185 0.12351
 H3211 H 0.67549 0.19429 0.08658
 H3212 H 0.67872 0.21747 0.11941
 H3213 H 0.69197 0.16936 0.05897
 H3214 H 0.76169 0.15293 0.06147
 H3215 H 0.77000 0.21414 0.15290
 H3216 H 0.70081 0.23133 0.15001
 C3217 C 0.76628 0.18603 0.89946
 C3218 C 0.74794 0.17255 0.90672
 C3219 C 0.74939 0.15937 0.92589
 C3220 C 0.76909 0.15939 0.93772
 C3221 C 0.78715 0.17357 0.93039
 C3222 C 0.78587 0.18679 0.91122
 C3223 C 0.76516 0.19893 0.87881
 C3224 C 0.78370 0.21181 0.87121
 C3225 C 0.78288 0.22294 0.85104
 C3226 C 0.76381 0.22081 0.83840
 C3227 C 0.74520 0.20842 0.84666
 C3228 C 0.74581 0.19739 0.86675
 C3229 C 0.80393 0.20030 0.90333
 C3230 C 0.80287 0.21257 0.88369
 C3231 C 0.72869 0.17199 0.89437
 C3232 C 0.72764 0.18419 0.87474
 H3233 H 0.81915 0.20109 0.91228
 H3234 H 0.81731 0.22242 0.87807
 H3235 H 0.71440 0.16173 0.89978
 H3236 H 0.71259 0.18293 0.86558
 H3237 H 0.73549 0.14837 0.93118
 H3238 H 0.80229 0.17409 0.93948
 H3239 H 0.79733 0.23225 0.84484
 H3240 H 0.73036 0.20675 0.83719
 C3241 C 0.27311 0.68776 0.40167
 C3242 C 0.25599 0.67277 0.40947
 C3243 C 0.25905 0.65963 0.42850
 C3244 C 0.27917 0.66115 0.43961
 C3245 C 0.29608 0.67654 0.43160
 C3246 C 0.29313 0.68986 0.41264
 C3247 C 0.27019 0.70106 0.38136
 C3248 C 0.28742 0.71576 0.37337
 C3249 C 0.28485 0.72758 0.35364
 C3250 C 0.26541 0.72432 0.34171
 C3251 C 0.24814 0.70989 0.35027
 C3252 C 0.25044 0.69826 0.37005
 C3253 C 0.30990 0.70500 0.40428
 C3254 C 0.30709 0.71773 0.38501
 C3255 C 0.23629 0.67086 0.39788
 C3256 C 0.23358 0.68333 0.37850
 H3257 H 0.32543 0.70684 0.41260
 H3258 H 0.32055 0.72895 0.37904
 H3259 H 0.22294 0.65938 0.40371
 H3260 H 0.21824 0.68104 0.36995
 H3261 H 0.24602 0.64769 0.43434
 H3262 H 0.31151 0.67813 0.44012
 H3263 H 0.29831 0.73843 0.34722
 H3264 H 0.23307 0.70724 0.34132
 C3265 C 0.73152 0.82268 0.40123
 C3266 C 0.73286 0.80868 0.41997
 C3267 C 0.73237 0.82092 0.43950
 C3268 C 0.73004 0.84682 0.44016
 C3269 C 0.72879 0.86047 0.42121
 C3270 C 0.72969 0.84856 0.40172
 C3271 C 0.73196 0.81004 0.38068
 C3272 C 0.73114 0.82423 0.36205
 C3273 C 0.73230 0.81236 0.34260
 C3274 C 0.73396 0.78645 0.34152
 C3275 C 0.73407 0.77227 0.36028
 C3276 C 0.73338 0.78411 0.38002
 C3277 C 0.72861 0.86202 0.38270
 C3278 C 0.72945 0.85007 0.36320
 C3279 C 0.73435 0.78278 0.41873
 C3280 C 0.73451 0.77071 0.39913
 H3281 H 0.72721 0.88198 0.38289
 H3282 H 0.72876 0.86117 0.34889
 H3283 H 0.73532 0.77171 0.43304
 H3284 H 0.73568 0.75073 0.39894
 H3285 H 0.73309 0.81035 0.45410
 H3286 H 0.72699 0.88040 0.42171
 H3287 H 0.73205 0.82332 0.32818
 H3288 H 0.73551 0.75233 0.35951
 C3289 C 0.23644 0.31332 0.90553
 C3290 C 0.21638 0.31272 0.91638
 C3291 C 0.21423 0.32644 0.93498
 C3292 C 0.23192 0.34091 0.94265
 C3293 C 0.25206 0.34084 0.93171
 C3294 C 0.25437 0.32717 0.91312
 C3295 C 0.23850 0.29979 0.88547
 C3296 C 0.25832 0.30116 0.87428
 C3297 C 0.25981 0.28959 0.85465
 C3298 C 0.24162 0.27682 0.84599
 C3299 C 0.22210 0.27480 0.85785
 C3300 C 0.22039 0.28649 0.87753
 C3301 C 0.27411 0.32756 0.90167
 C3302 C 0.27604 0.31480 0.88259
 C3303 C 0.19875 0.29878 0.90818
 C3304 C 0.20071 0.28592 0.88910
 H3305 H 0.28809 0.33811 0.90735
 H3306 H 0.29145 0.31594 0.87410
 H3307 H 0.18319 0.29809 0.91643
 H3308 H 0.18659 0.27577 0.88319
 H3309 H 0.19876 0.32600 0.94340
 H3310 H 0.26569 0.35206 0.93727
 H3311 H 0.27498 0.29120 0.84579
 H3312 H 0.20797 0.26520 0.85135
 C3313 C 0.88474 0.37360 0.75364
 C3314 C 0.89587 0.37562 0.73436
 C3315 C 0.90924 0.39623 0.73039
 C3316 C 0.91248 0.41469 0.74574
 C3317 C 0.90181 0.41169 0.76549
 C3318 C 0.88752 0.39149 0.76928
 C3319 C 0.86911 0.35292 0.75703
 C3320 C 0.85654 0.35170 0.77561
 C3321 C 0.84016 0.33312 0.77774
 C3322 C 0.83660 0.31614 0.76130
 C3323 C 0.85055 0.31685 0.74359
 C3324 C 0.86633 0.33541 0.74110
 C3325 C 0.87540 0.38913 0.78810
 C3326 C 0.86007 0.36975 0.79112
 C3327 C 0.89289 0.35736 0.71902
 C3328 C 0.87853 0.33744 0.72242
 H3329 H 0.87734 0.40277 0.80038
 H3330 H 0.85068 0.36911 0.80560
 H3331 H 0.90152 0.35864 0.70412
 H3332 H 0.87642 0.32395 0.71003
 H3333 H 0.91627 0.39815 0.71482
 H3334 H 0.90416 0.42514 0.77782
 H3335 H 0.82955 0.33272 0.79144
 H3336 H 0.84831 0.30359 0.73102
 C3337 C 0.37844 0.88475 0.25661
 C3338 C 0.37372 0.90829 0.26437
 C3339 C 0.38682 0.92853 0.25810
 C3340 C 0.40455 0.92565 0.24379
 C3341 C 0.40930 0.90142 0.23686
 C3342 C 0.39629 0.88111 0.24306
 C3343 C 0.36373 0.86375 0.26189
 C3344 C 0.36785 0.84051 0.25313
 C3345 C 0.35261 0.82132 0.25626
 C3346 C 0.33328 0.82524 0.26788
 C3347 C 0.32990 0.84818 0.27759
 C3348 C 0.34506 0.86766 0.27445
 C3349 C 0.40043 0.85726 0.23545
 C3350 C 0.38643 0.83733 0.24035
 C3351 C 0.35539 0.91131 0.27757
 C3352 C 0.34131 0.89138 0.28250
 H3353 H 0.41426 0.85411 0.22511
 H3354 H 0.38984 0.81942 0.23362
 H3355 H 0.35158 0.92939 0.28375
 H3356 H 0.32706 0.89472 0.29225
 H3357 H 0.38200 0.94668 0.26335
 H3358 H 0.42327 0.89802 0.22680
 H3359 H 0.35502 0.80374 0.24853
 H3360 H 0.31478 0.85138 0.28613
 C3361 C 0.12163 0.88306 0.74631
 C3362 C 0.11893 0.90149 0.73085
 C3363 C 0.10542 0.92202 0.73518
 C3364 C 0.09547 0.92474 0.75527
 C3365 C 0.09893 0.90587 0.77050
 C3366 C 0.11137 0.88494 0.76599
 C3367 C 0.13621 0.86183 0.74225
 C3368 C 0.13876 0.84366 0.75795
 C3369 C 0.15347 0.82442 0.75477
 C3370 C 0.16674 0.82362 0.73660
 C3371 C 0.16343 0.84135 0.72041
 C3372 C 0.14800 0.86062 0.72324
 C3373 C 0.11417 0.86611 0.78114
 C3374 C 0.12744 0.84566 0.77709
 C3375 C 0.13024 0.89921 0.71160
 C3376 C 0.14466 0.87931 0.70796
 H3377 H 0.10619 0.86728 0.79634
 H3378 H 0.12939 0.83168 0.78931
 H3379 H 0.12836 0.91325 0.69944
 H3380 H 0.15346 0.87874 0.69315
 H3381 H 0.10302 0.93581 0.72294
 H3382 H 0.09269 0.90754 0.78636
 H3383 H 0.15549 0.81060 0.76713
 H3384 H 0.17350 0.84090 0.70637
 C3385 C 0.62643 0.38655 0.23865
 C3386 C 0.60649 0.38217 0.24918
 C3387 C 0.59392 0.40234 0.25591
 C3388 C 0.60133 0.42682 0.25250
 C3389 C 0.62121 0.43077 0.24147
 C3390 C 0.63382 0.41074 0.23457
 C3391 C 0.64042 0.36542 0.23279
 C3392 C 0.66093 0.36985 0.22326
 C3393 C 0.67511 0.34984 0.21965
 C3394 C 0.66897 0.32578 0.22593
 C3395 C 0.64801 0.32155 0.23461
 C3396 C 0.63366 0.34131 0.23813
 C3397 C 0.65407 0.41440 0.22433
 C3398 C 0.66739 0.39432 0.21879
 C3399 C 0.59987 0.35769 0.25340
 C3400 C 0.61326 0.33763 0.24807
 H3401 H 0.65991 0.43298 0.22099
 H3402 H 0.68315 0.39804 0.21148
 H3403 H 0.58446 0.35403 0.26140
 H3404 H 0.60785 0.31911 0.25224
 H3405 H 0.57856 0.39895 0.26406
 H3406 H 0.62736 0.44941 0.23899
 H3407 H 0.69151 0.35320 0.21356
 H3408 H 0.64354 0.30308 0.23994
 C3409 C 0.62406 0.62317 0.25923
 C3410 C 0.62116 0.60467 0.27459
 C3411 C 0.60688 0.58463 0.27032
 C3412 C 0.59643 0.58232 0.25032
 C3413 C 0.59989 0.60140 0.23525
 C3414 C 0.61312 0.62191 0.23974
 C3415 C 0.63966 0.64371 0.26314
 C3416 C 0.64255 0.66188 0.24749
 C3417 C 0.65834 0.68028 0.25043
 C3418 C 0.67219 0.68021 0.26832
 C3419 C 0.66856 0.66259 0.28450
 C3420 C 0.65214 0.64415 0.28190
 C3421 C 0.61617 0.64082 0.22470
 C3422 C 0.63046 0.66062 0.22860
 C3423 C 0.63314 0.60626 0.29363
 C3424 C 0.64849 0.62548 0.29713
 H3425 H 0.60766 0.64014 0.20966
 H3426 H 0.63262 0.67463 0.21644
 H3427 H 0.63111 0.59213 0.30570
 H3428 H 0.65781 0.62550 0.31173
 H3429 H 0.60440 0.57079 0.28250
 H3430 H 0.59317 0.60015 0.21949
 H3431 H 0.66073 0.69405 0.23809
 H3432 H 0.67912 0.66240 0.29831
 C3433 C 0.12408 0.12303 0.75775
 C3434 C 0.11331 0.12171 0.73818
 C3435 C 0.10059 0.10088 0.73338
 C3436 C 0.09732 0.08159 0.74829
 C3437 C 0.10778 0.08379 0.76830
 C3438 C 0.12161 0.10415 0.77285
 C3439 C 0.13897 0.14411 0.76206
 C3440 C 0.15136 0.14465 0.78087
 C3441 C 0.16718 0.16368 0.78381
 C3442 C 0.17025 0.18189 0.76797
 C3443 C 0.15632 0.18185 0.75011
 C3444 C 0.14126 0.16278 0.74675
 C3445 C 0.13348 0.10580 0.79195
 C3446 C 0.14825 0.12550 0.79578
 C3447 C 0.11587 0.14101 0.72342
 C3448 C 0.12939 0.16136 0.72775
 H3449 H 0.13180 0.09139 0.80382
 H3450 H 0.15752 0.12556 0.81042
 H3451 H 0.10750 0.14029 0.70831
 H3452 H 0.13115 0.17571 0.71582
 H3453 H 0.09395 0.09965 0.71758
 H3454 H 0.10554 0.06973 0.78034
 H3455 H 0.17779 0.16351 0.79760
 H3456 H 0.15823 0.19599 0.73800
 C3457 C 0.36369 0.10741 0.24537
 C3458 C 0.35967 0.08885 0.26058
 C3459 C 0.37604 0.07143 0.26509
 C3460 C 0.39619 0.07225 0.25438
 C3461 C 0.39993 0.09059 0.23885
 C3462 C 0.38373 0.10850 0.23445
 C3463 C 0.34679 0.12642 0.24127
 C3464 C 0.35104 0.14575 0.22681
 C3465 C 0.33548 0.16490 0.22428
 C3466 C 0.31605 0.16463 0.23635
 C3467 C 0.31168 0.14430 0.24980
 C3468 C 0.32703 0.12541 0.25256
 C3469 C 0.38717 0.12765 0.21963
 C3470 C 0.37118 0.14599 0.21594
 C3471 C 0.33944 0.08820 0.27114
 C3472 C 0.32336 0.10614 0.26716
 H3473 H 0.40252 0.12871 0.21104
 H3474 H 0.37474 0.16068 0.20471
 H3475 H 0.33612 0.07388 0.28279
 H3476 H 0.30811 0.10521 0.27591
 H3477 H 0.37312 0.05708 0.27683
 H3478 H 0.41546 0.09106 0.23052
 H3479 H 0.33904 0.18056 0.21404
 H3480 H 0.29670 0.14387 0.25904
 C3481 C 0.86379 0.59874 0.74280
 C3482 C 0.85937 0.58002 0.75776
 C3483 C 0.87577 0.56281 0.76281
 C3484 C 0.89641 0.56410 0.75300
 C3485 C 0.90059 0.58263 0.73774
 C3486 C 0.88429 0.60023 0.73270
 C3487 C 0.84686 0.61761 0.73822
 C3488 C 0.85148 0.63710 0.72404
 C3489 C 0.83587 0.65613 0.72110
 C3490 C 0.81606 0.65565 0.73258
 C3491 C 0.81138 0.63528 0.74586
 C3492 C 0.82672 0.61640 0.74891
 C3493 C 0.88810 0.61955 0.71812
 C3494 C 0.87204 0.63768 0.71392
 C3495 C 0.83877 0.57912 0.76765
 C3496 C 0.82271 0.59698 0.76328
 H3497 H 0.90379 0.62093 0.71015
 H3498 H 0.87590 0.65251 0.70292
 H3499 H 0.83516 0.56471 0.77913
 H3500 H 0.80719 0.59590 0.77159
 H3501 H 0.87260 0.54845 0.77448
 H3502 H 0.91653 0.58356 0.73018
 H3503 H 0.83970 0.67193 0.71111
 H3504 H 0.79617 0.63485 0.75474
 C3505 C 0.89035 0.73412 0.19271
 C3506 C 0.90832 0.72862 0.20590
 C3507 C 0.92965 0.73428 0.19898
 C3508 C 0.93296 0.74623 0.17930
 C3509 C 0.91464 0.75027 0.16592
 C3510 C 0.89341 0.74446 0.17257
 C3511 C 0.86787 0.73045 0.20060
 C3512 C 0.84999 0.73732 0.18775
 C3513 C 0.82882 0.73650 0.19610
 C3514 C 0.82551 0.72944 0.21726
 C3515 C 0.84336 0.72101 0.22955
 C3516 C 0.86471 0.72178 0.22132
 C3517 C 0.87511 0.74981 0.15975
 C3518 C 0.85370 0.74628 0.16723
 C3519 C 0.90453 0.71878 0.22616
 C3520 C 0.88306 0.71545 0.23377
 H3521 H 0.87735 0.75755 0.14407
 H3522 H 0.83998 0.75144 0.15716
 H3523 H 0.91826 0.71435 0.23647
 H3524 H 0.88083 0.70859 0.24973
 H3525 H 0.94332 0.73117 0.20969
 H3526 H 0.91678 0.75796 0.15021
 H3527 H 0.81506 0.74262 0.18645
 H3528 H 0.84087 0.71550 0.24585
 C3529 C 0.38923 0.23374 0.69391
 C3530 C 0.39297 0.24468 0.67407
 C3531 C 0.41441 0.25118 0.66844
 C3532 C 0.43191 0.24745 0.68271
 C3533 C 0.42809 0.23549 0.70215
 C3534 C 0.40668 0.22870 0.70790
 C3535 C 0.36651 0.22907 0.70071
 C3536 C 0.36268 0.21954 0.72105
 C3537 C 0.34106 0.21787 0.72838
 C3538 C 0.32358 0.22654 0.71576
 C3539 C 0.32753 0.23454 0.69495
 C3540 C 0.34903 0.23600 0.68737
 C3541 C 0.40225 0.21806 0.72772
 C3542 C 0.38057 0.21350 0.73419
 C3543 C 0.37513 0.24998 0.66065
 C3544 C 0.35346 0.24578 0.66724
 H3545 H 0.41560 0.21392 0.73857
 H3546 H 0.37778 0.20604 0.74988
 H3547 H 0.37790 0.25826 0.64525
 H3548 H 0.34007 0.25099 0.65678
 H3549 H 0.41742 0.25983 0.65321
 H3550 H 0.44156 0.23260 0.71316
 H3551 H 0.33807 0.21180 0.74447
 H3552 H 0.31402 0.24100 0.68514
 C3553 C 0.38405 0.76145 0.80825
 C3554 C 0.38785 0.75149 0.82846
 C3555 C 0.40922 0.74496 0.83426
 C3556 C 0.42656 0.74760 0.81978
 C3557 C 0.42266 0.75843 0.79987
 C3558 C 0.40137 0.76538 0.79399
 C3559 C 0.36138 0.76636 0.80141
 C3560 C 0.35748 0.77512 0.78082
 C3561 C 0.33583 0.77721 0.77362
 C3562 C 0.31831 0.76967 0.78662
 C3563 C 0.32237 0.76232 0.80760
 C3564 C 0.34394 0.76052 0.81508
 C3565 C 0.39692 0.77518 0.77384
 C3566 C 0.37529 0.78006 0.76737
 C3567 C 0.37010 0.74727 0.84214
 C3568 C 0.34844 0.75161 0.83551
 H3569 H 0.41019 0.77847 0.76279
 H3570 H 0.37242 0.78692 0.75148
 H3571 H 0.37292 0.73975 0.85782
 H3572 H 0.33510 0.74725 0.84621
 H3573 H 0.41228 0.73721 0.84983
 H3574 H 0.43598 0.76045 0.78866
 H3575 H 0.33274 0.78282 0.75742
 H3576 H 0.30883 0.75677 0.81771
 C3577 C 0.88093 0.27102 0.31120
 C3578 C 0.89887 0.27722 0.29832
 C3579 C 0.92007 0.27049 0.30476
 C3580 C 0.92340 0.25705 0.32375
 C3581 C 0.90516 0.25246 0.33701
 C3582 C 0.88396 0.25908 0.33071
 C3583 C 0.85848 0.27547 0.30344
 C3584 C 0.84055 0.26752 0.31568
 C3585 C 0.81941 0.26868 0.30706
 C3586 C 0.81627 0.27719 0.28623
 C3587 C 0.83413 0.28695 0.27479
 C3588 C 0.85540 0.28574 0.28321
 C3589 C 0.86564 0.25289 0.34313
 C3590 C 0.84423 0.25700 0.33570
 C3591 C 0.89517 0.28876 0.27868
 C3592 C 0.87375 0.29295 0.27124
 H3593 H 0.86785 0.24392 0.35835
 H3594 H 0.83048 0.25103 0.34533
 H3595 H 0.90891 0.29380 0.26868
 H3596 H 0.87154 0.30103 0.25567
 H3597 H 0.93355 0.27402 0.29403
 H3598 H 0.90729 0.24362 0.35229
 H3599 H 0.80560 0.26149 0.31604
 H3600 H 0.83177 0.29355 0.25874
 C3601 C 0.10622 0.23996 0.30706
 C3602 C 0.10269 0.25159 0.32643
 C3603 C 0.08172 0.26022 0.33108
 C3604 C 0.06452 0.25790 0.31629
 C3605 C 0.06795 0.24516 0.29739
 C3606 C 0.08891 0.23628 0.29260
 C3607 C 0.12870 0.23316 0.30117
 C3608 C 0.13248 0.22303 0.28122
 C3609 C 0.15414 0.21951 0.27464
 C3610 C 0.17180 0.22696 0.28758
 C3611 C 0.16777 0.23543 0.30808
 C3612 C 0.14620 0.23876 0.31492
 C3613 C 0.09317 0.22489 0.27325
 C3614 C 0.11463 0.21832 0.26766
 C3615 C 0.12039 0.25545 0.34034
 C3616 C 0.14186 0.24919 0.33464
 H3617 H 0.07993 0.22176 0.26207
 H3618 H 0.11738 0.21037 0.25227
 H3619 H 0.11774 0.26423 0.35541
 H3620 H 0.15523 0.25336 0.34543
 H3621 H 0.07890 0.26947 0.34592
 H3622 H 0.05462 0.24326 0.28608
 H3623 H 0.15719 0.21300 0.25880
 H3624 H 0.18138 0.24089 0.31817
 C3625 C 0.61018 0.73671 0.80885
 C3626 C 0.59272 0.73020 0.79536
 C3627 C 0.57172 0.73945 0.79931
 C3628 C 0.56828 0.75508 0.81655
 C3629 C 0.58572 0.76039 0.83050
 C3630 C 0.60680 0.75159 0.82653
 C3631 C 0.63265 0.72926 0.80355
 C3632 C 0.65032 0.73766 0.81598
 C3633 C 0.67180 0.73357 0.80918
 C3634 C 0.67551 0.72155 0.78996
 C3635 C 0.65772 0.71129 0.77871
 C3636 C 0.63618 0.71559 0.78518
 C3637 C 0.62469 0.75827 0.83940
 C3638 C 0.64617 0.75151 0.83413
 C3639 C 0.59676 0.71544 0.77773
 C3640 C 0.61819 0.70817 0.77275
 H3641 H 0.62216 0.76959 0.85318
 H3642 H 0.65968 0.75790 0.84392
 H3643 H 0.58338 0.71011 0.76735
 H3644 H 0.62078 0.69753 0.75859
 H3645 H 0.55830 0.73528 0.78857
 H3646 H 0.58297 0.77179 0.84420
 H3647 H 0.68550 0.74120 0.81804
 H3648 H 0.66046 0.70196 0.76391
 C3649 C 0.61612 0.25435 0.69002
 C3650 C 0.59926 0.25841 0.70465
 C3651 C 0.57800 0.24986 0.70016
 C3652 C 0.57368 0.23729 0.68126
 C3653 C 0.59059 0.23420 0.66644
 C3654 C 0.61191 0.24241 0.67085
 C3655 C 0.63880 0.26146 0.69537
 C3656 C 0.65586 0.25573 0.68139
 C3657 C 0.67764 0.25965 0.68769
 C3658 C 0.68233 0.26884 0.70791
 C3659 C 0.66506 0.27636 0.72104
 C3660 C 0.64321 0.27224 0.71501
 C3661 C 0.62920 0.23821 0.65675
 C3662 C 0.65088 0.24468 0.66199
 C3663 C 0.60415 0.27019 0.72376
 C3664 C 0.62580 0.27705 0.72885
 H3665 H 0.62606 0.22916 0.64186
 H3666 H 0.66391 0.24032 0.65105
 H3667 H 0.59125 0.27358 0.73509
 H3668 H 0.62903 0.28540 0.74402
 H3669 H 0.56502 0.25229 0.71161
 H3670 H 0.58721 0.22516 0.65158
 H3671 H 0.69092 0.25400 0.67747
 H3672 H 0.66858 0.28329 0.73670
 C3673 C 0.11624 0.75946 0.19160
 C3674 C 0.09894 0.76330 0.20580
 C3675 C 0.07792 0.75433 0.20084
 C3676 C 0.07434 0.74138 0.18199
 C3677 C 0.09165 0.73859 0.16757
 C3678 C 0.11270 0.74737 0.17238
 C3679 C 0.13872 0.76686 0.19752
 C3680 C 0.15619 0.76140 0.18395
 C3681 C 0.17776 0.76557 0.19078
 C3682 C 0.18186 0.77461 0.21117
 C3683 C 0.16417 0.78182 0.22393
 C3684 C 0.14250 0.77756 0.21731
 C3685 C 0.13041 0.74343 0.15871
 C3686 C 0.15186 0.75030 0.16443
 C3687 C 0.10320 0.77512 0.22503
 C3688 C 0.12466 0.78215 0.23070
 H3689 H 0.12779 0.73426 0.14378
 H3690 H 0.16523 0.74613 0.15381
 H3691 H 0.08996 0.77832 0.23604
 H3692 H 0.12739 0.79045 0.24598
 H3693 H 0.06458 0.75653 0.21196
 H3694 H 0.08881 0.72915 0.15278
 H3695 H 0.19136 0.76018 0.18084
 H3696 H 0.16723 0.78865 0.23970
   
