data_POSCAR
  _audit_creation_date              2014-09-24
  _audit_creation_method            'ToBaCCo'
  _symmetry_space_group_name_H-M    'P1'
  _symmetry_Int_Tables_number       1
  _symmetry_cell_setting            triclinic
  loop_
  _symmetry_equiv_pos_as_xyz
 x,y,z
_cell_length_a 59.0068
_cell_length_b 56.8655
_cell_length_c 55.6444
_cell_angle_alpha 89.696100
_cell_angle_beta 89.135800
_cell_angle_gamma 88.087400
loop_
  _atom_site_label
  _atom_site_type_symbol
  _atom_site_fract_x
  _atom_site_fract_y
  _atom_site_fract_z
C1 C 0.74657 0.62465 1.01682
 C2 C 0.75859 0.63699 0.99918
 C3 C 0.77997 0.64556 1.00437
 C4 C 0.78945 0.64188 1.02723
 C5 C 0.77745 0.62868 1.04442
 C6 C 0.75588 0.62002 1.03952
 C7 C 0.74875 0.64050 0.97512
 C8 C 0.72751 0.65199 0.97273
 C9 C 0.71743 0.65435 0.95017
 C10 C 0.72890 0.64507 0.92980
 C11 C 0.75003 0.63319 0.93192
 C12 C 0.76008 0.63140 0.95469
 H13 H 0.73004 0.61815 1.01253
 H14 H 0.78892 0.65489 0.99038
 H15 H 0.71875 0.65895 0.98856
 H16 H 0.77657 0.62283 0.95680
 H17 H 0.78490 0.62602 1.06186
 H18 H 0.72146 0.64705 0.91220
 C19 C 0.75514 0.38459 0.46868
 C20 C 0.76366 0.37569 0.49046
 C21 C 0.78569 0.36569 0.49110
 C22 C 0.79925 0.36465 0.47024
 C23 C 0.79058 0.37372 0.44855
 C24 C 0.76862 0.38389 0.44759
 C25 C 0.74922 0.37619 0.51240
 C26 C 0.72759 0.36678 0.51199
 C27 C 0.71355 0.36733 0.53250
 C28 C 0.72136 0.37744 0.55372
 C29 C 0.74321 0.38642 0.55463
 C30 C 0.75702 0.38587 0.53377
 H31 H 0.73791 0.39167 0.46832
 H32 H 0.79215 0.35841 0.50779
 H33 H 0.72176 0.35878 0.49565
 H34 H 0.77362 0.39343 0.53382
 H35 H 0.80075 0.37244 0.43221
 H36 H 0.71089 0.37744 0.56988
 C37 C 0.23748 -0.12100 -0.02267
 C38 C 0.25006 -0.13361 -0.00541
 C39 C 0.27270 -0.14063 -0.01059
 C40 C 0.28275 -0.13507 -0.03304
 C41 C 0.26973 -0.12219 -0.04991
 C42 C 0.24707 -0.11535 -0.04499
 C43 C 0.23940 -0.13851 0.01829
 C44 C 0.21774 -0.14799 0.01952
 C45 C 0.20592 -0.14974 0.04153
 C46 C 0.21664 -0.14268 0.06267
 C47 C 0.23844 -0.13351 0.06180
 C48 C 0.24984 -0.13170 0.03951
 H49 H 0.22014 -0.11529 -0.01858
 H50 H 0.28214 -0.15018 0.00303
 H51 H 0.20975 -0.15321 0.00304
 H52 H 0.26662 -0.12464 0.03841
 H53 H 0.27743 -0.11720 -0.06690
 H54 H 0.20836 -0.14444 0.08002
 C55 C 0.24581 0.12801 0.54906
 C56 C 0.25660 0.13964 0.53003
 C57 C 0.27652 0.15172 0.53411
 C58 C 0.28559 0.15238 0.55730
 C59 C 0.27460 0.14064 0.57616
 C60 C 0.25479 0.12837 0.57229
 C61 C 0.24697 0.13898 0.50580
 C62 C 0.22536 0.14898 0.50160
 C63 C 0.21616 0.14863 0.47855
 C64 C 0.22824 0.13684 0.45996
 C65 C 0.24967 0.12616 0.46416
 C66 C 0.25917 0.12791 0.48700
 H67 H 0.23087 0.11823 0.54531
 H68 H 0.28438 0.16096 0.51930
 H69 H 0.21602 0.15766 0.51615
 H70 H 0.27579 0.12000 0.49041
 H71 H 0.28158 0.14099 0.59407
 H72 H 0.22098 0.13604 0.44229
 C73 C 0.10643 0.55368 0.23829
 C74 C 0.11968 0.53512 0.24797
 C75 C 0.13430 0.53924 0.26699
 C76 C 0.13594 0.56198 0.27631
 C77 C 0.12257 0.58041 0.26659
 C78 C 0.10758 0.57660 0.24769
 C79 C 0.11852 0.51130 0.23799
 C80 C 0.12851 0.50610 0.21555
 C81 C 0.12903 0.48301 0.20684
 C82 C 0.11814 0.46541 0.22010
 C83 C 0.10758 0.47058 0.24236
 C84 C 0.10832 0.49351 0.25140
 H85 H 0.09526 0.54974 0.22377
 H86 H 0.14482 0.52482 0.27381
 H87 H 0.13680 0.51981 0.20544
 H88 H 0.10079 0.49762 0.26883
 H89 H 0.12392 0.59796 0.27389
 H90 H 0.11831 0.44766 0.21325
 C91 C -0.11412 -0.00625 0.25468
 C92 C -0.12780 0.01126 0.26575
 C93 C -0.13895 0.00633 0.28753
 C94 C -0.13630 -0.01588 0.29862
 C95 C -0.12236 -0.03331 0.28719
 C96 C -0.11149 -0.02864 0.26506
 C97 C -0.13031 0.03476 0.25442
 C98 C -0.13772 0.03689 0.23061
 C99 C -0.13927 0.05909 0.21925
 C100 C -0.13293 0.07897 0.23213
 C101 C -0.12527 0.07708 0.25579
 C102 C -0.12436 0.05489 0.26703
 H103 H -0.10554 -0.00241 0.23781
 H104 H -0.14968 0.01994 0.29584
 H105 H -0.14179 0.02105 0.22118
 H106 H -0.11875 0.05309 0.28541
 H107 H -0.12015 -0.05059 0.29504
 H108 H -0.13367 0.09617 0.22358
 C109 C 0.37905 0.47290 0.74466
 C110 C 0.36598 0.48795 0.75963
 C111 C 0.35642 0.47924 0.78103
 C112 C 0.35993 0.45543 0.78764
 C113 C 0.37353 0.44080 0.77260
 C114 C 0.38292 0.44925 0.75099
 C115 C 0.36280 0.51303 0.75317
 C116 C 0.35158 0.51963 0.73199
 C117 C 0.34837 0.54355 0.72599
 C118 C 0.35696 0.56067 0.74112
 C119 C 0.36895 0.55424 0.76190
 C120 C 0.37126 0.53037 0.76813
 H121 H 0.38650 0.47975 0.72824
 H122 H 0.34652 0.49131 0.79223
 H123 H 0.34477 0.50612 0.72082
 H124 H 0.38020 0.52519 0.78430
 H125 H 0.37710 0.42277 0.77806
 H126 H 0.35411 0.57908 0.73666
 C127 C 0.61066 1.03501 0.74390
 C128 C 0.62065 1.01543 0.75554
 C129 C 0.63236 1.01840 0.77703
 C130 C 0.63458 1.04089 0.78693
 C131 C 0.62376 1.06026 0.77534
 C132 C 0.61193 1.05753 0.75392
 C133 C 0.61858 0.99170 0.74541
 C134 C 0.62822 0.98621 0.72289
 C135 C 0.62670 0.96356 0.71331
 C136 C 0.61442 0.94661 0.72615
 C137 C 0.60461 0.95194 0.74879
 C138 C 0.60696 0.97452 0.75830
 H139 H 0.60123 1.03234 0.72767
 H140 H 0.64014 1.00311 0.78572
 H141 H 0.63736 0.99952 0.71307
 H142 H 0.59943 0.97892 0.77566
 H143 H 0.62391 1.07769 0.78287
 H144 H 0.61188 0.92966 0.71817
 C145 C -0.02096 0.23716 -0.10171
 C146 C -0.00344 0.25013 -0.11199
 C147 C -0.00733 0.27409 -0.11737
 C148 C -0.02875 0.28509 -0.11257
 C149 C -0.04570 0.27186 -0.10130
 C150 C -0.04202 0.24788 -0.09617
 C151 C 0.01867 0.23808 -0.11745
 C152 C 0.01920 0.21646 -0.12947
 C153 C 0.03953 0.20328 -0.13264
 C154 C 0.05980 0.21263 -0.12430
 C155 C 0.05968 0.23453 -0.11270
 C156 C 0.03898 0.24726 -0.10945
 H157 H -0.01812 0.21861 -0.09779
 H158 H 0.00631 0.28370 -0.12551
 H159 H 0.00345 0.20959 -0.13583
 H160 H 0.03846 0.26417 -0.10061
 H161 H -0.06233 0.27991 -0.09787
 H162 H 0.07588 0.20329 -0.12711
 C163 C 0.53101 0.23174 0.12955
 C164 C 0.51274 0.24542 0.13883
 C165 C 0.51668 0.26761 0.14857
 C166 C 0.53872 0.27610 0.14920
 C167 C 0.55690 0.26206 0.13998
 C168 C 0.55311 0.24003 0.12968
 C169 C 0.48954 0.23642 0.13819
 C170 C 0.48518 0.21393 0.14727
 C171 C 0.46325 0.20526 0.14692
 C172 C 0.44576 0.21886 0.13616
 C173 C 0.45000 0.24121 0.12644
 C174 C 0.47182 0.25007 0.12811
 H175 H 0.52792 0.21472 0.12177
 H176 H 0.50260 0.27817 0.15588
 H177 H 0.49879 0.20344 0.15527
 H178 H 0.47525 0.26734 0.12084
 H179 H 0.57402 0.26793 0.14163
 H180 H 0.42892 0.21205 0.13541
 C181 C 1.03331 0.73547 0.60318
 C182 C 1.01308 0.74543 0.61287
 C183 C 1.01294 0.76820 0.62254
 C184 C 1.03269 0.78131 0.62247
 C185 C 1.05282 0.77097 0.61272
 C186 C 1.05329 0.74825 0.60301
 C187 C 0.99212 0.73186 0.61378
 C188 C 0.99216 0.70959 0.62481
 C189 C 0.97203 0.69731 0.62723
 C190 C 0.95172 0.70763 0.61863
 C191 C 0.95146 0.72966 0.60724
 C192 C 0.97175 0.74177 0.60490
 H193 H 1.03344 0.71771 0.59627
 H194 H 0.99735 0.77561 0.63036
 H195 H 1.00776 0.70207 0.63203
 H196 H 0.97169 0.75915 0.59685
 H197 H 1.06864 0.77998 0.61331
 H198 H 0.93588 0.69880 0.62124
 C199 C 0.47846 0.73335 0.38058
 C200 C 0.49562 0.74633 0.36964
 C201 C 0.48992 0.76755 0.35791
 C202 C 0.46732 0.77590 0.35710
 C203 C 0.45026 0.76275 0.36825
 C204 C 0.45575 0.74153 0.38030
 C205 C 0.51955 0.73782 0.37068
 C206 C 0.52569 0.71480 0.36353
 C207 C 0.54839 0.70666 0.36458
 C208 C 0.56475 0.72151 0.37355
 C209 C 0.55882 0.74445 0.38123
 C210 C 0.53622 0.75260 0.37923
 H211 H 0.48289 0.71701 0.38976
 H212 H 0.50313 0.77751 0.34926
 H213 H 0.51273 0.70340 0.35723
 H214 H 0.53143 0.77028 0.38499
 H215 H 0.43273 0.76860 0.36672
 H216 H 0.58223 0.71516 0.37388
 C217 C 0.36813 -0.03384 0.29597
 H218 H 0.35474 -0.02425 0.30546
 C219 C 0.37942 -0.05232 0.30767
 H220 H 0.37476 -0.05630 0.32612
 C221 C 0.38940 -0.04129 0.26024
 H222 H 0.39282 -0.03711 0.24157
 C223 C 0.40112 -0.06020 0.27130
 H224 H 0.41365 -0.07020 0.26091
 N225 N 0.37315 -0.02864 0.27265
 C226 C 0.35678 0.03828 0.23772
 H227 H 0.33861 0.03647 0.23890
 C228 C 0.36555 0.05912 0.22920
 H229 H 0.35397 0.07330 0.22379
 C230 C 0.39376 0.02195 0.24384
 H231 H 0.40455 0.00747 0.25000
 C232 C 0.40336 0.04265 0.23512
 H233 H 0.42161 0.04395 0.23474
 Zn234 Zn 0.35456 -0.00531 0.25732
 N235 N 0.37081 0.02022 0.24484
 C236 C 0.34535 0.02143 0.29699
 N237 N 0.33459 0.00844 0.28056
 C238 C 0.31166 0.00682 0.28104
 C239 C 0.29872 0.01821 0.29913
 C240 C 0.33324 0.03298 0.31527
 C241 C 0.34340 -0.01198 0.20910
 C242 C 0.33353 -0.02262 0.18958
 C243 C 0.31496 -0.04910 0.21702
 C244 C 0.32523 -0.03780 0.23614
 N245 N 0.33908 -0.01955 0.23187
 H246 H 0.36359 0.02274 0.29586
 H247 H 0.30339 -0.00323 0.26748
 H248 H 0.28047 0.01663 0.29933
 H249 H 0.34284 0.04322 0.32752
 H250 H 0.35493 0.00207 0.20587
 H251 H 0.33744 -0.01621 0.17166
 H252 H 0.30415 -0.06357 0.22117
 H253 H 0.32239 -0.04378 0.25439
 C254 C 0.38904 0.06157 0.22775
 C255 C 0.39589 -0.06606 0.29534
 C256 C 0.31917 -0.04155 0.19320
 C257 C 0.30947 0.03136 0.31681
 C258 C 0.08602 1.00164 0.78442
 H259 H 0.08807 0.98346 0.79001
 C260 C 0.07374 1.01767 0.79900
 H261 H 0.06620 1.01171 0.81573
 C262 C 0.09510 1.03211 0.75707
 H263 H 0.10422 1.03806 0.74137
 C264 C 0.08254 1.04851 0.77070
 H265 H 0.08232 1.06679 0.76517
 N266 N 0.09712 1.00928 0.76438
 C267 C 0.11877 0.95468 0.71433
 H268 H 0.13580 0.96062 0.71132
 C269 C 0.11044 0.93749 0.69953
 H270 H 0.12134 0.93004 0.68549
 C271 C 0.08370 0.95804 0.73554
 H272 H 0.07327 0.96650 0.74932
 C273 C 0.07464 0.94060 0.72112
 H274 H 0.05721 0.93587 0.72399
 Zn275 Zn 0.11900 0.98926 0.74860
 N276 N 0.10548 0.96458 0.73193
 C277 C 0.15386 0.95816 0.76538
 N278 N 0.13980 0.97666 0.77150
 C279 C 0.14029 0.98618 0.79385
 C280 C 0.15447 0.97641 0.81139
 C281 C 0.16844 0.94793 0.78228
 C282 C 0.12328 1.01317 0.70512
 C283 C 0.13376 1.02622 0.68714
 C284 C 0.16771 1.02609 0.71093
 C285 C 0.15651 1.01298 0.72850
 N286 N 0.13467 1.00696 0.72533
 H287 H 0.15361 0.95104 0.74746
 H288 H 0.12969 1.00147 0.79818
 H289 H 0.15419 0.98464 0.82883
 H290 H 0.17920 0.93296 0.77699
 H291 H 0.10594 1.00802 0.70306
 H292 H 0.12422 1.03101 0.67124
 H293 H 0.18501 1.03056 0.71425
 H294 H 0.16521 1.00773 0.74473
 C295 C 0.08817 0.93020 0.70277
 C296 C 0.07226 1.04148 0.79234
 C297 C 0.15626 1.03300 0.68980
 C298 C 0.16861 0.95664 0.80586
 C299 C 0.59803 0.51762 0.25159
 H300 H 0.59063 0.50226 0.24399
 C301 C 0.58395 0.53574 0.26107
 H302 H 0.56571 0.53419 0.26084
 C303 C 0.63071 0.53860 0.26119
 H304 H 0.64899 0.53956 0.26113
 C305 C 0.61738 0.55691 0.27092
 H306 H 0.62561 0.57213 0.27787
 N307 N 0.62098 0.51919 0.25237
 C308 C 0.63411 0.46415 0.20417
 H309 H 0.64682 0.47396 0.19471
 C310 C 0.62492 0.44486 0.19302
 H311 H 0.63049 0.44032 0.17494
 C312 C 0.61234 0.45734 0.23948
 H313 H 0.60792 0.46210 0.25779
 C314 C 0.60267 0.43780 0.22896
 H315 H 0.59089 0.42771 0.23950
 Zn316 Zn 0.64200 0.49543 0.24195
 N317 N 0.62766 0.47013 0.22695
 C318 C 0.65129 0.49088 0.29128
 N319 N 0.65794 0.48337 0.26904
 C320 C 0.67487 0.46675 0.26621
 C321 C 0.68622 0.45743 0.28625
 C322 C 0.66208 0.48211 0.31169
 C323 C 0.65110 0.52073 0.20058
 C324 C 0.66368 0.53205 0.18284
 C325 C 0.69767 0.52205 0.20485
 C326 C 0.68436 0.51078 0.22214
 N327 N 0.66154 0.51006 0.21951
 H328 H 0.63733 0.50348 0.29339
 H329 H 0.67954 0.46068 0.24836
 H330 H 0.69959 0.44432 0.28318
 H331 H 0.65636 0.48850 0.32915
 H332 H 0.63285 0.52028 0.19922
 H333 H 0.65445 0.54028 0.16830
 H334 H 0.71586 0.52230 0.20723
 H335 H 0.69229 0.50270 0.23764
 C336 C 0.60903 0.43135 0.20535
 C337 C 0.59369 0.55534 0.27150
 C338 C 0.68747 0.53271 0.18463
 C339 C 0.67984 0.46516 0.30952
 C340 C 0.92423 0.46598 0.76418
 H341 H 0.93162 0.48030 0.75431
 C342 C 0.93830 0.44950 0.77606
 H343 H 0.95652 0.45128 0.77535
 C344 C 0.89161 0.44585 0.77694
 H345 H 0.87336 0.44448 0.77702
 C346 C 0.90495 0.42920 0.78917
 H347 H 0.89678 0.41482 0.79824
 N348 N 0.90130 0.46407 0.76524
 C349 C 0.89251 0.50924 0.70761
 H350 H 0.88129 0.49710 0.69947
 C351 C 0.90239 0.52637 0.69330
 H352 H 0.89874 0.52698 0.67428
 C353 C 0.91006 0.52388 0.74222
 H354 H 0.91259 0.52299 0.76143
 C355 C 0.92030 0.54145 0.72851
 H356 H 0.93060 0.55393 0.73753
 Zn357 Zn 0.88087 0.48592 0.75049
 N358 N 0.89644 0.50825 0.73161
 C359 C 0.86790 0.49732 0.79811
 N360 N 0.86366 0.50237 0.77467
 C361 C 0.84851 0.51987 0.76855
 C362 C 0.83671 0.53285 0.78637
 C363 C 0.85650 0.50968 0.81641
 C364 C 0.87381 0.45276 0.71558
 C365 C 0.86245 0.44044 0.69815
 C366 C 0.82738 0.45983 0.71122
 C367 C 0.83950 0.47174 0.72858
 N368 N 0.86238 0.46841 0.73003
 H369 H 0.88046 0.48394 0.80282
 H370 H 0.84579 0.52396 0.74978
 H371 H 0.82485 0.54658 0.78072
 H372 H 0.86033 0.50521 0.83491
 H373 H 0.89200 0.45041 0.71713
 H374 H 0.87216 0.42850 0.68653
 H375 H 0.80932 0.46336 0.71029
 H376 H 0.83069 0.48409 0.74042
 C377 C 0.91634 0.54288 0.70365
 C378 C 0.92862 0.43117 0.78921
 C379 C 0.83898 0.44418 0.69530
 C380 C 0.84070 0.52783 0.81084
 C381 C 0.28266 0.37250 -0.02694
 H382 H 0.29383 0.35978 -0.01827
 C383 C 0.29093 0.38567 -0.04615
 H384 H 0.30859 0.38330 -0.05134
 C385 C 0.24628 0.39097 -0.03050
 H386 H 0.22880 0.39268 -0.02444
 C387 C 0.25388 0.40457 -0.04986
 H388 H 0.24220 0.41683 -0.05861
 N389 N 0.26071 0.37536 -0.01943
 C390 C 0.23542 0.36127 0.05274
 H391 H 0.23809 0.34236 0.05245
 C392 C 0.22736 0.37224 0.07360
 H393 H 0.22384 0.36164 0.08937
 C394 C 0.23675 0.39794 0.03240
 H395 H 0.24068 0.40786 0.01635
 C396 C 0.22844 0.40969 0.05293
 H397 H 0.22623 0.42863 0.05244
 Zn398 Zn 0.24986 0.35609 0.00587
 N399 N 0.23966 0.37410 0.03261
 C400 C 0.29056 0.34737 0.02857
 N401 N 0.27376 0.33618 0.01731
 C402 C 0.27388 0.31233 0.01590
 C403 C 0.29166 0.29880 0.02590
 C404 C 0.30861 0.33464 0.03873
 C405 C 0.20459 0.34213 0.00493
 C406 C 0.18578 0.33106 -0.00395
 C407 C 0.20973 0.31330 -0.03489
 C408 C 0.22820 0.32475 -0.02530
 N409 N 0.22532 0.33883 -0.00574
 H410 H 0.28980 0.36636 0.02977
 H411 H 0.26012 0.30375 0.00729
 H412 H 0.29139 0.27980 0.02464
 H413 H 0.32132 0.34455 0.04753
 H414 H 0.20240 0.35377 0.02009
 H415 H 0.16946 0.33422 0.00486
 H416 H 0.21274 0.30244 -0.05055
 H417 H 0.24480 0.32271 -0.03370
 C418 C 0.22340 0.39666 0.07380
 C419 C 0.27637 0.40171 -0.05814
 C420 C 0.18799 0.31654 -0.02424
 C421 C 0.30944 0.30985 0.03757
 C422 C 0.78987 0.10065 1.02163
 H423 H 0.80019 0.10993 1.00875
 C424 C 0.80035 0.08586 1.03850
 H425 H 0.81865 0.08381 1.03821
 C426 C 0.75362 0.09200 1.03751
 H427 H 0.73545 0.09465 1.03741
 C428 C 0.76342 0.07698 1.05470
 H429 H 0.75265 0.06833 1.06772
 N430 N 0.76695 0.10420 1.02201
 C431 C 0.72934 0.13399 0.96178
 H432 H 0.72925 0.15223 0.96724
 C433 C 0.71830 0.12771 0.94099
 H434 H 0.70968 0.14128 0.93049
 C435 C 0.74087 0.09428 0.96900
 H436 H 0.74982 0.08144 0.98006
 C437 C 0.72991 0.08714 0.94821
 H438 H 0.73077 0.06875 0.94341
 Zn439 Zn 0.75469 0.12897 1.00257
 N440 N 0.74046 0.11740 0.97518
 C441 C 0.78485 0.14964 0.96912
 N442 N 0.77889 0.14829 0.99277
 C443 C 0.79087 0.15939 1.00978
 C444 C 0.80928 0.17295 1.00319
 C445 C 0.80343 0.16259 0.96176
 C446 C 0.71223 0.13618 1.02473
 C447 C 0.69467 0.14806 1.03720
 C448 C 0.71798 0.18207 1.03897
 C449 C 0.73510 0.16948 1.02652
 N450 N 0.73217 0.14675 1.02009
 H451 H 0.77545 0.14035 0.95587
 H452 H 0.78624 0.15750 1.02856
 H453 H 0.81849 0.18167 1.01709
 H454 H 0.80727 0.16344 0.94274
 H455 H 0.70974 0.11858 1.01826
 H456 H 0.67920 0.13884 1.04025
 H457 H 0.72082 0.20011 1.04399
 H458 H 0.75056 0.17809 1.02183
 C459 C 0.71845 0.10408 0.93391
 C460 C 0.78708 0.07466 1.05601
 C461 C 0.69743 0.17141 1.04475
 C462 C 0.81610 0.17442 0.97894
 C463 C 0.28192 0.58836 0.51614
 H464 H 0.28928 0.58488 0.49860
 C465 C 0.28985 0.57552 0.53599
 H466 H 0.30369 0.56271 0.53363
 C467 C 0.25443 0.60840 0.54051
 H468 H 0.24028 0.62075 0.54231
 C469 C 0.26179 0.59598 0.56078
 H470 H 0.25299 0.59905 0.57772
 N471 N 0.26504 0.60510 0.51884
 C472 C 0.25661 0.60999 0.44359
 H473 H 0.26742 0.62477 0.44094
 C474 C 0.24921 0.59781 0.42367
 H475 H 0.25512 0.60300 0.40600
 C476 C 0.23566 0.58563 0.46984
 H477 H 0.23010 0.58139 0.48791
 C478 C 0.22768 0.57306 0.45034
 H479 H 0.21599 0.55906 0.45351
 Zn480 Zn 0.25609 0.62401 0.49193
 N481 N 0.24932 0.60414 0.46605
 C482 C 0.30043 0.63334 0.47585
 N483 N 0.28014 0.64377 0.48207
 C484 C 0.27668 0.66745 0.47977
 C485 C 0.29398 0.68147 0.47082
 C486 C 0.31816 0.64661 0.46686
 C487 C 0.20982 0.63846 0.48844
 C488 C 0.18954 0.64983 0.49564
 C489 C 0.21005 0.67049 0.52574
 C490 C 0.22998 0.65871 0.51788
 N491 N 0.22944 0.64251 0.50001
 H492 H 0.30274 0.61450 0.47704
 H493 H 0.26034 0.67550 0.48424
 H494 H 0.29067 0.70024 0.46889
 H495 H 0.33370 0.63722 0.46195
 H496 H 0.20965 0.62598 0.47392
 H497 H 0.17409 0.64576 0.48647
 H498 H 0.21132 0.68270 0.54039
 H499 H 0.24583 0.66191 0.52663
 C500 C 0.23377 0.57972 0.42687
 C501 C 0.28024 0.57982 0.55879
 C502 C 0.18922 0.66570 0.51492
 C503 C 0.31509 0.67116 0.46397
 C504 C 0.78366 0.89418 0.48866
 H505 H 0.78933 0.89041 0.50671
 C506 C 0.79629 0.90869 0.47360
 H507 H 0.81159 0.91625 0.48024
 C508 C 0.75788 0.88737 0.45740
 H509 H 0.74352 0.87825 0.45076
 C510 C 0.76978 0.90209 0.44188
 H511 H 0.76429 0.90401 0.42348
 N512 N 0.76514 0.88347 0.48022
 C513 C 0.72475 0.85602 0.53968
 H514 H 0.72501 0.83776 0.53427
 C515 C 0.71249 0.86312 0.56011
 H516 H 0.70334 0.85018 0.57039
 C517 C 0.73651 0.89494 0.53272
 H518 H 0.74597 0.90720 0.52194
 C519 C 0.72435 0.90287 0.55310
 H520 H 0.72494 0.92123 0.55789
 Zn521 Zn 0.75262 0.85948 0.49953
 N522 N 0.73663 0.87180 0.52661
 C523 C 0.78053 0.83542 0.53352
 N524 N 0.77726 0.83977 0.50975
 C525 C 0.79257 0.83190 0.49289
 C526 C 0.81218 0.81929 0.49974
 C527 C 0.79972 0.82263 0.54116
 C528 C 0.71199 0.85346 0.47558
 C529 C 0.69524 0.84145 0.46370
 C530 C 0.71938 0.80633 0.46501
 C531 C 0.73568 0.81907 0.47681
 N532 N 0.73175 0.84222 0.48178
 H533 H 0.76857 0.84236 0.54674
 H534 H 0.78979 0.83595 0.47413
 H535 H 0.82429 0.81353 0.48597
 H536 H 0.80178 0.82021 0.56026
 H537 H 0.70915 0.87180 0.48017
 H538 H 0.67979 0.85116 0.45939
 H539 H 0.72287 0.78784 0.46139
 H540 H 0.75131 0.81033 0.48230
 C541 C 0.71213 0.88677 0.56710
 C542 C 0.78954 0.91254 0.44982
 C543 C 0.69872 0.81738 0.45829
 C544 C 0.81610 0.81445 0.52417
 C545 C -0.01354 0.30348 0.38558
 H546 H -0.00510 0.31264 0.37120
 C547 C -0.02941 0.31582 0.39977
 H548 H -0.03270 0.33436 0.39621
 C549 C -0.02052 0.26819 0.40684
 H550 H -0.01709 0.24952 0.40921
 C551 C -0.03686 0.27988 0.42136
 H552 H -0.04563 0.27005 0.43511
 N553 N -0.00939 0.28007 0.38921
 C554 C 0.05306 0.24319 0.36719
 H555 H 0.05017 0.24387 0.34804
 C556 C 0.07359 0.23420 0.37576
 H557 H 0.08648 0.22788 0.36308
 C558 C 0.03972 0.25103 0.40685
 H559 H 0.02654 0.25798 0.41877
 C560 C 0.06010 0.24194 0.41629
 H561 H 0.06242 0.24214 0.43553
 Zn562 Zn 0.01055 0.26388 0.36744
 N563 N 0.03662 0.25130 0.38267
 C564 C 0.03578 0.30128 0.35357
 N565 N 0.02133 0.28563 0.34447
 C566 C 0.01561 0.28622 0.32090
 C567 C 0.02383 0.30387 0.30575
 C568 C 0.04425 0.31916 0.33925
 C569 C 0.00261 0.21663 0.35705
 C570 C -0.00920 0.19770 0.34845
 C571 C -0.03723 0.22513 0.33231
 C572 C -0.02478 0.24362 0.34128
 N573 N -0.00522 0.23908 0.35331
 H574 H 0.04041 0.30006 0.37229
 H575 H 0.00446 0.27330 0.31391
 H576 H 0.01877 0.30435 0.28711
 H577 H 0.05582 0.33090 0.34747
 H578 H 0.01783 0.21321 0.36718
 H579 H -0.00256 0.18002 0.35186
 H580 H -0.05273 0.22953 0.32300
 H581 H -0.03090 0.26163 0.33897
 C582 C 0.07731 0.23335 0.40054
 C583 C -0.04166 0.30401 0.41757
 C584 C -0.02950 0.20164 0.33598
 C585 C 0.03790 0.32110 0.31498
 C586 C 1.00260 0.80296 0.09107
 H587 H 0.98606 0.81177 0.09148
 C588 C 1.02105 0.81410 0.08045
 H589 H 1.01863 0.83145 0.07260
 C590 C 1.02631 0.77039 0.10221
 H591 H 1.02859 0.75372 0.11135
 C592 C 1.04503 0.78060 0.09132
 H593 H 1.06146 0.77162 0.09243
 N594 N 1.00566 0.78179 0.10229
 C595 C 0.94339 0.74377 0.11112
 H596 H 0.94541 0.73847 0.12966
 C597 C 0.92647 0.73395 0.09764
 H598 H 0.91503 0.72206 0.10645
 C599 C 0.95627 0.76530 0.07732
 H600 H 0.96818 0.77722 0.06940
 C601 C 0.93946 0.75585 0.06308
 H602 H 0.93842 0.76071 0.04427
 Zn603 Zn 0.98170 0.76874 0.12079
 N604 N 0.95793 0.75908 0.10091
 C605 C 0.95160 0.78603 0.15727
 N606 N 0.97037 0.79102 0.14396
 C607 C 0.98109 0.81157 0.14708
 C608 C 0.97244 0.82847 0.16323
 C609 C 0.94242 0.80234 0.17370
 C610 C 0.99613 0.72161 0.12346
 C611 C 1.00524 0.70114 0.13388
 C612 C 1.00796 0.72196 0.17144
 C613 C 0.99858 0.74202 0.16027
 N614 N 0.99312 0.74153 0.13666
 H615 H 0.94356 0.76946 0.15511
 H616 H 0.99650 0.81496 0.13715
 H617 H 0.98159 0.84447 0.16494
 H618 H 0.92726 0.79798 0.18379
 H619 H 0.99167 0.72175 0.10467
 H620 H 1.00765 0.68557 0.12286
 H621 H 1.01208 0.72318 0.19021
 H622 H 0.99599 0.75811 0.17037
 C623 C 0.92463 0.73956 0.07313
 C624 C 1.04260 0.80295 0.08070
 C625 C 1.01167 0.70109 0.15809
 C626 C 0.95253 0.82415 0.17665
 C627 C 0.51843 0.29281 0.58369
 H628 H 0.50094 0.29908 0.58488
 C629 C 0.53454 0.30660 0.57222
 H630 H 0.52933 0.32335 0.56436
 C631 C 0.54688 0.26432 0.59411
 H632 H 0.55184 0.24830 0.60340
 C633 C 0.56343 0.27733 0.58250
 H634 H 0.58093 0.27107 0.58317
 N635 N 0.52491 0.27235 0.59484
 C636 C 0.46791 0.22736 0.60708
 H637 H 0.47319 0.22045 0.62431
 C638 C 0.44875 0.21872 0.59641
 H639 H 0.43958 0.20505 0.60556
 C640 C 0.47409 0.25284 0.57397
 H641 H 0.48400 0.26616 0.56531
 C642 C 0.45493 0.24457 0.56254
 H643 H 0.45013 0.25168 0.54518
 Zn644 Zn 0.50376 0.25626 0.61443
 N645 N 0.47981 0.24456 0.59616
 C646 C 0.47322 0.27011 0.65161
 N647 N 0.49103 0.27726 0.63796
 C648 C 0.49880 0.29941 0.64006
 C649 C 0.48762 0.31580 0.65507
 C650 C 0.46166 0.28583 0.66700
 C651 C 0.52467 0.21147 0.61548
 C652 C 0.53477 0.19132 0.62564
 C653 C 0.53184 0.20995 0.66455
 C654 C 0.52177 0.22977 0.65358
 N655 N 0.51840 0.23014 0.62948
 H656 H 0.46756 0.25234 0.65020
 H657 H 0.51351 0.30461 0.62985
 H658 H 0.49425 0.33324 0.65584
 H659 H 0.44714 0.27979 0.67717
 H660 H 0.52165 0.21222 0.59636
 H661 H 0.53953 0.17665 0.61405
 H662 H 0.53408 0.21050 0.68374
 H663 H 0.51659 0.24483 0.66434
 C664 C 0.44164 0.22787 0.57420
 C665 C 0.55737 0.29898 0.57173
 C666 C 0.53848 0.19019 0.65053
 C667 C 0.46828 0.30929 0.66838
 C668 C 0.47224 0.76425 0.91883
 H669 H 0.48660 0.75490 0.92665
 C670 C 0.45522 0.77431 0.93375
 H671 H 0.45665 0.77282 0.95308
 C672 C 0.45230 0.77688 0.88417
 H673 H 0.45109 0.77734 0.86479
 C674 C 0.43511 0.78727 0.89830
 H675 H 0.42061 0.79541 0.88950
 N676 N 0.47049 0.76587 0.89451
 C677 C 0.51911 0.71157 0.88327
 H678 H 0.50759 0.70239 0.87206
 C679 C 0.53855 0.69968 0.89145
 H680 H 0.54146 0.68135 0.88674
 C681 C 0.53021 0.74683 0.90152
 H682 H 0.52711 0.76542 0.90469
 C683 C 0.55001 0.73559 0.91001
 H684 H 0.56185 0.74587 0.91977
 Zn685 Zn 0.49144 0.75154 0.87260
 N686 N 0.51538 0.73479 0.88817
 C687 C 0.52064 0.76746 0.83614
 N688 N 0.50494 0.77468 0.85287
 C689 C 0.50019 0.79795 0.85660
 C690 C 0.51123 0.81501 0.84308
 C691 C 0.53207 0.78389 0.82216
 C692 C 0.46331 0.71396 0.86677
 C693 C 0.45102 0.69714 0.85489
 C694 C 0.46161 0.71519 0.81714
 C695 C 0.47380 0.73162 0.82981
 N696 N 0.47476 0.73042 0.85417
 H697 H 0.52445 0.74885 0.83385
 H698 H 0.48812 0.80342 0.87042
 H699 H 0.50685 0.83319 0.84684
 H700 H 0.54456 0.77762 0.80900
 H701 H 0.46403 0.71373 0.88619
 H702 H 0.44235 0.68443 0.86580
 H703 H 0.46131 0.71631 0.79770
 H704 H 0.48254 0.74521 0.82013
 C705 C 0.55453 0.71172 0.90461
 C706 C 0.43651 0.78625 0.92347
 C707 C 0.45025 0.69734 0.82957
 C708 C 0.52763 0.80811 0.82554
 C709 C 0.46201 -0.20206 0.34375
 C710 C 0.44359 -0.18712 0.34968
 C711 C 0.43833 -0.16526 0.33632
 N712 N 0.42206 -0.15002 0.34491
 N713 N 0.41674 -0.13031 0.33298
 C714 C 0.42742 -0.12507 0.31192
 N715 N 0.44367 -0.14036 0.30324
 N716 N 0.44907 -0.16008 0.31525
 C717 C 0.42102 -0.10357 0.29832
 C718 C 0.40593 -0.08670 0.30821
 H719 H 0.43297 -0.19107 0.36511
 H720 H 0.42789 -0.10152 0.28035
 H721 H 0.47366 -0.19683 0.32962
 H722 H 0.40018 -0.08934 0.32659
 C723 C 0.96545 0.30835 0.88055
 C724 C 0.97816 0.32249 0.86508
 C725 C 0.96827 0.34471 0.85543
 N726 N 0.97805 0.35543 0.83621
 N727 N 0.96812 0.37439 0.82617
 C728 C 0.94807 0.38334 0.83505
 N729 N 0.93855 0.37288 0.85448
 N730 N 0.94843 0.35394 0.86446
 C731 C 0.93568 0.40297 0.82331
 C732 C 0.94325 0.41397 0.80234
 H733 H 0.99439 0.31644 0.85783
 H734 H 0.91941 0.40831 0.83111
 H735 H 0.94885 0.31523 0.88613
 H736 H 0.96029 0.41016 0.79559
 C737 C 0.03874 1.18139 0.85582
 C738 C 0.05595 1.16393 0.85644
 C739 C 0.05415 1.14184 0.84311
 N740 N 0.06676 1.12252 0.84960
 N741 N 0.06594 1.10269 0.83704
 C742 C 0.05258 1.10151 0.81744
 N743 N 0.04002 1.12085 0.81092
 N744 N 0.04065 1.14060 0.82363
 C745 C 0.05364 1.08075 0.80183
 C746 C 0.06298 1.05920 0.80946
 H747 H 0.07046 1.16563 0.86786
 H748 H 0.04868 1.08304 0.78328
 H749 H 0.02319 1.17715 0.84687
 H750 H 0.06541 1.05604 0.82848
 C751 C 0.55583 0.68271 0.35691
 C752 C 0.54466 0.66947 0.33995
 C753 C 0.55468 0.64703 0.33103
 N754 N 0.54538 0.63590 0.31221
 N755 N 0.55516 0.61626 0.30327
 C756 C 0.57455 0.60706 0.31292
 N757 N 0.58364 0.61804 0.33187
 N758 N 0.57391 0.63762 0.34076
 C759 C 0.58667 0.58643 0.30262
 C760 C 0.57921 0.57405 0.28282
 H761 H 0.52924 0.67628 0.33181
 H762 H 0.60262 0.58116 0.31076
 H763 H 0.57193 0.67597 0.36364
 H764 H 0.56239 0.57772 0.27590
 C765 C 0.54246 0.29921 0.16039
 C766 C 0.56068 0.31304 0.15387
 C767 C 0.56562 0.33514 0.16602
 N768 N 0.58326 0.34788 0.15806
 N769 N 0.58860 0.36757 0.16916
 C770 C 0.57653 0.37529 0.18871
 N771 N 0.55882 0.36257 0.19668
 N772 N 0.55346 0.34285 0.18554
 C773 C 0.58277 0.39677 0.20142
 C774 C 0.60066 0.41027 0.19318
 H775 H 0.57188 0.30759 0.13921
 H776 H 0.57312 0.40176 0.21736
 H777 H 0.53023 0.30576 0.17365
 H778 H 0.60921 0.40512 0.17656
 C779 C 0.03201 0.80373 0.63319
 C780 C 0.04921 0.81988 0.63040
 C781 C 0.05058 0.84123 0.64497
 N782 N 0.06718 0.85645 0.63992
 N783 N 0.07015 0.87495 0.65389
 C784 C 0.05671 0.87895 0.67356
 N785 N 0.03987 0.86386 0.67851
 N786 N 0.03686 0.84530 0.66446
 C787 C 0.06122 0.89849 0.68996
 C788 C 0.08006 0.91231 0.68605
 H789 H 0.06254 0.81707 0.61710
 H790 H 0.05062 0.90085 0.70584
 H791 H 0.01726 0.80893 0.64401
 H792 H 0.09060 0.90878 0.67028
 C793 C 0.97215 0.67452 0.64021
 C794 C 0.95677 0.65721 0.63507
 C795 C 0.95395 0.63615 0.65009
 N796 N 0.93915 0.61982 0.64331
 N797 N 0.93513 0.60132 0.65729
 C798 C 0.94569 0.59846 0.67868
 N799 N 0.96063 0.61475 0.68544
 N800 N 0.96470 0.63327 0.67139
 C801 C 0.94029 0.57869 0.69479
 C802 C 0.92504 0.56179 0.68794
 H803 H 0.94582 0.65940 0.61973
 H804 H 0.94802 0.57797 0.71227
 H805 H 0.98458 0.67134 0.65408
 H806 H 0.91853 0.56273 0.66984
 C807 C 0.45914 0.18193 0.15777
 C808 C 0.43831 0.17642 0.16812
 C809 C 0.43397 0.15351 0.17933
 N810 N 0.41350 0.15007 0.18986
 N811 N 0.40888 0.12943 0.19980
 C812 C 0.42453 0.11136 0.19962
 N813 N 0.44510 0.11481 0.18915
 N814 N 0.44975 0.13553 0.17919
 C815 C 0.41901 0.08825 0.20995
 C816 C 0.39733 0.08445 0.21922
 H817 H 0.42463 0.18957 0.16869
 H818 H 0.43166 0.07406 0.20912
 H819 H 0.47326 0.16933 0.15900
 H820 H 0.38495 0.09896 0.21890
 C821 C 0.35070 0.44542 -0.19133
 C822 C 0.33559 0.45663 -0.17508
 C823 C 0.32677 0.44397 -0.15389
 N824 N 0.31056 0.45418 -0.13942
 N825 N 0.30245 0.44265 -0.12036
 C826 C 0.31031 0.42050 -0.11511
 N827 N 0.32655 0.41039 -0.12950
 N828 N 0.33460 0.42187 -0.14852
 C829 C 0.30193 0.40731 -0.09420
 C830 C 0.28426 0.41548 -0.07917
 H831 H 0.32947 0.47452 -0.17789
 H832 H 0.30975 0.39011 -0.09106
 H833 H 0.35531 0.42715 -0.18767
 H834 H 0.27524 0.43180 -0.08359
 C835 C 0.85167 0.97994 0.32022
 C836 C 0.85562 0.96060 0.33540
 C837 C 0.84076 0.95572 0.35618
 N838 N 0.84811 0.94080 0.37372
 N839 N 0.83444 0.93518 0.39199
 C840 C 0.81283 0.94413 0.39329
 N841 N 0.80545 0.95901 0.37572
 N842 N 0.81919 0.96481 0.35755
 C843 C 0.79705 0.93648 0.41229
 C844 C 0.80469 0.92504 0.43302
 H845 H 0.87027 0.94894 0.33274
 H846 H 0.77904 0.93933 0.40953
 H847 H 0.83876 0.99287 0.32584
 H848 H 0.82267 0.92461 0.43680
 C849 C 0.85378 0.06234 1.19535
 C850 C 0.84437 0.04523 1.18090
 C851 C 0.83803 0.05076 1.15597
 N852 N 0.82261 0.03778 1.14455
 N853 N 0.81615 0.04343 1.12232
 C854 C 0.82511 0.06210 1.11066
 N855 N 0.84084 0.07474 1.12192
 N856 N 0.84714 0.06922 1.14416
 C857 C 0.81742 0.06971 1.08679
 C858 C 0.79742 0.06217 1.07672
 H859 H 0.84017 0.02817 1.18800
 H860 H 0.82642 0.08390 1.07835
 H861 H 0.85522 0.07979 1.18765
 H862 H 0.78748 0.04939 1.08635
 C863 C 0.33549 0.55157 0.70469
 C864 C 0.33284 0.53811 0.68407
 C865 C 0.32072 0.54782 0.66308
 N866 N 0.32105 0.53594 0.64197
 N867 N 0.31059 0.54499 0.62277
 C868 C 0.29937 0.56622 0.62405
 N869 N 0.29889 0.57796 0.64520
 N870 N 0.30937 0.56895 0.66433
 C871 C 0.28817 0.57701 0.60310
 C872 C 0.28984 0.56749 0.58004
 H873 H 0.34064 0.52067 0.68271
 H874 H 0.27944 0.59382 0.60590
 H875 H 0.32881 0.56955 0.70478
 H876 H 0.30004 0.55153 0.57719
 C877 C 0.15214 0.56760 0.29530
 C878 C 0.16096 0.55128 0.31181
 C879 C 0.17673 0.55847 0.33045
 N880 N 0.18211 0.54377 0.34896
 N881 N 0.19585 0.55058 0.36624
 C882 C 0.20479 0.57229 0.36549
 N883 N 0.19963 0.58682 0.34684
 N884 N 0.18586 0.58006 0.32966
 C885 C 0.21912 0.58085 0.38471
 C886 C 0.22276 0.56867 0.40623
 H887 H 0.15553 0.53330 0.31188
 H888 H 0.22533 0.59842 0.38245
 H889 H 0.15660 0.58585 0.29695
 H890 H 0.21503 0.55183 0.40896
 C891 C 0.64733 0.04319 0.80802
 C892 C 0.65325 0.06476 0.81773
 C893 C 0.66622 0.06695 0.83990
 N894 N 0.67169 0.08869 0.84724
 N895 N 0.68316 0.09148 0.86735
 C896 C 0.68964 0.07264 0.88098
 N897 N 0.68423 0.05080 0.87364
 N898 N 0.67271 0.04799 0.85344
 C899 C 0.70206 0.07590 0.90346
 C900 C 0.70683 0.09847 0.91135
 H901 H 0.64902 0.08115 0.80876
 H902 H 0.70686 0.06051 0.91393
 H903 H 0.65356 0.02729 0.81690
 H904 H 0.70110 0.11334 0.90052
 C905 C 0.63790 0.95838 0.68980
 C906 C 0.64460 0.93570 0.68254
 C907 C 0.65703 0.93099 0.65984
 N908 N 0.66341 0.90856 0.65413
 N909 N 0.67491 0.90388 0.63385
 C910 C 0.68050 0.92147 0.61847
 N911 N 0.67411 0.94393 0.62416
 N912 N 0.66259 0.94862 0.64447
 C913 C 0.69332 0.91643 0.59602
 C914 C 0.69939 0.89340 0.58935
 H915 H 0.64149 0.92080 0.69414
 H916 H 0.69755 0.93110 0.58456
 H917 H 0.64236 0.97313 0.67848
 H918 H 0.69395 0.87915 0.60084
 C919 C 0.14163 0.47743 0.18431
 C920 C 0.15345 0.45599 0.18129
 C921 C 0.16655 0.44981 0.15947
 N922 N 0.17884 0.42926 0.15889
 N923 N 0.19045 0.42285 0.13918
 C924 C 0.19020 0.43673 0.11925
 N925 N 0.17796 0.45737 0.11983
 N926 N 0.16635 0.46383 0.13961
 C927 C 0.20215 0.42906 0.09706
 C928 C 0.21406 0.40745 0.09609
 H929 H 0.15369 0.44324 0.19582
 H930 H 0.20027 0.43988 0.08112
 H931 H 0.14308 0.49103 0.17071
 H932 H 0.21497 0.39681 0.11228
 C933 C -0.17811 0.35284 0.47108
 C934 C -0.16004 0.36030 0.45693
 C935 C -0.13833 0.34700 0.45509
 N936 N -0.12057 0.35672 0.44348
 N937 N -0.10124 0.34441 0.44004
 C938 C -0.09893 0.32183 0.44796
 N939 N -0.11667 0.31211 0.45971
 N940 N -0.13601 0.32450 0.46328
 C941 C -0.07836 0.30748 0.44207
 C942 C -0.05985 0.31751 0.43053
 H943 H -0.16194 0.37635 0.44647
 H944 H -0.07882 0.28868 0.44487
 H945 H -0.17553 0.33823 0.48342
 H946 H -0.06010 0.33647 0.42831
 C947 C 0.30522 0.85840 0.96036
 C948 C 0.32021 0.84390 0.97353
 C949 C 0.34291 0.83733 0.96363
 N950 N 0.35569 0.81972 0.97378
 N951 N 0.37566 0.81297 0.96402
 C952 C 0.38359 0.82371 0.94383
 N953 N 0.37096 0.84150 0.93396
 N954 N 0.35104 0.84817 0.94365
 C955 C 0.40461 0.81567 0.93146
 C956 C 0.41808 0.79645 0.93897
 H957 H 0.31517 0.83609 0.99043
 H958 H 0.40904 0.82476 0.91499
 H959 H 0.31126 0.86455 0.94301
 H960 H 0.41494 0.78855 0.95642
 C961 C 1.18382 0.84164 0.04157
 C962 C 1.16809 0.84492 0.06040
 C963 C 1.14539 0.83506 0.05981
 N964 N 1.12837 0.84464 0.07362
 N965 N 1.10795 0.83533 0.07407
 C966 C 1.10385 0.81595 0.06086
 N967 N 1.12090 0.80630 0.04712
 N968 N 1.14126 0.81578 0.04646
 C969 C 1.08206 0.80427 0.06304
 C970 C 1.06265 0.81576 0.07236
 H971 H 1.17164 0.85624 0.07533
 H972 H 1.08156 0.78588 0.05815
 H973 H 1.17805 0.83324 0.02542
 H974 H 1.06244 0.83468 0.07456
 C975 C 0.69164 0.35558 0.53164
 C976 C 0.67289 0.36216 0.54588
 C977 C 0.65229 0.34831 0.54636
 N978 N 0.63317 0.35681 0.55756
 N979 N 0.61481 0.34383 0.55917
 C980 C 0.61496 0.32184 0.54972
 N981 N 0.63406 0.31337 0.53850
 N982 N 0.65235 0.32639 0.53675
 C983 C 0.59568 0.30646 0.55334
 C984 C 0.57478 0.31482 0.56233
 H985 H 0.67330 0.37771 0.55700
 H986 H 0.59838 0.28786 0.54983
 H987 H 0.69014 0.34136 0.51892
 H988 H 0.57136 0.33363 0.56338
 C989 C 0.30601 0.16554 0.56304
 C990 C 0.32212 0.17291 0.54622
 C991 C 0.34258 0.18473 0.55402
 N992 N 0.35936 0.18977 0.53801
 N993 N 0.37824 0.19968 0.54532
 C994 C 0.38091 0.20493 0.56889
 N995 N 0.36407 0.20007 0.58477
 N996 N 0.34528 0.19020 0.57749
 C997 C 0.40185 0.21462 0.57792
 C998 C 0.42037 0.22026 0.56340
 H999 H 0.32044 0.16911 0.52732
 H1000 H 0.40273 0.21711 0.59717
 H1001 H 0.30899 0.16870 0.58190
 H1002 H 0.41898 0.21996 0.54402
 C1003 C 0.81036 0.65091 0.03393
 C1004 C 0.82266 0.66754 0.02098
 C1005 C 0.84344 0.67710 0.03093
 N1006 N 0.85179 0.69747 0.02219
 N1007 N 0.86986 0.70682 0.03209
 C1008 C 0.88027 0.69601 0.05098
 N1009 N 0.87213 0.67549 0.05940
 N1010 N 0.85406 0.66624 0.04961
 C1011 C 0.89937 0.70637 0.06328
 C1012 C 0.90738 0.72868 0.05805
 H1013 H 0.81634 0.67521 0.00448
 H1014 H 0.90689 0.69610 0.07771
 H1015 H 0.81690 0.64555 0.05130
 H1016 H 0.90114 0.73823 0.04247
 C1017 C 0.69505 0.66675 0.94850
 C1018 C 0.67923 0.66144 0.93114
 C1019 C 0.65681 0.67349 0.92996
 N1020 N 0.64117 0.66563 0.91458
 N1021 N 0.62086 0.67640 0.91304
 C1022 C 0.61540 0.69549 0.92679
 N1023 N 0.63107 0.70341 0.94214
 N1024 N 0.65138 0.69258 0.94375
 C1025 C 0.59321 0.70797 0.92460
 C1026 C 0.57617 0.69907 0.91044
 H1027 H 0.68295 0.64741 0.91848
 H1028 H 0.59061 0.72439 0.93408
 H1029 H 0.69034 0.67943 0.96232
 H1030 H 0.57911 0.68189 0.90243
 C1031 C 0.19393 0.16062 0.47436
 C1032 C 0.18843 0.17066 0.45221
 C1033 C 0.16653 0.18271 0.44759
 N1034 N 0.16285 0.19255 0.42572
 N1035 N 0.14303 0.20318 0.42081
 C1036 C 0.12608 0.20440 0.43759
 N1037 N 0.12978 0.19464 0.45957
 N1038 N 0.14966 0.18398 0.46449
 C1039 C 0.10389 0.21548 0.43184
 C1040 C 0.09954 0.22396 0.40874
 H1041 H 0.20077 0.17018 0.43763
 H1042 H 0.09071 0.21584 0.44557
 H1043 H 0.18222 0.16284 0.48942
 H1044 H 0.11294 0.22236 0.39525
 C1045 C 0.60042 0.07865 0.74340
 C1046 C 0.59363 0.08071 0.71953
 C1047 C 0.58292 0.10270 0.71038
 N1048 N 0.57793 0.10499 0.68674
 N1049 N 0.56847 0.12494 0.67832
 C1050 C 0.56363 0.14333 0.69326
 N1051 N 0.56854 0.14099 0.71689
 N1052 N 0.57801 0.12108 0.72528
 C1053 C 0.55326 0.16559 0.68443
 C1054 C 0.54847 0.16940 0.66014
 H1055 H 0.59683 0.06642 0.70706
 H1056 H 0.54962 0.17899 0.69771
 H1057 H 0.59800 0.09383 0.75495
 H1058 H 0.55278 0.15521 0.64778
 C1059 C 1.09444 0.59597 0.23925
 C1060 C 1.07945 0.59567 0.22002
 C1061 C 1.06648 0.61701 0.21266
 N1062 N 1.05452 0.61713 0.19203
 N1063 N 1.04309 0.63648 0.18495
 C1064 C 1.04311 0.65641 0.19833
 N1065 N 1.05486 0.65621 0.21908
 N1066 N 1.06635 0.63689 0.22610
 C1067 C 1.03116 0.67818 0.19048
 C1068 C 1.02180 0.68037 0.16760
 H1069 H 1.07737 0.58002 0.20949
 H1070 H 1.03107 0.69284 0.20273
 H1071 H 1.09623 0.61264 0.24828
 H1072 H 1.02327 0.66515 0.15595
 C1073 C 0.90291 0.95344 0.25233
 C1074 C 0.89960 0.92929 0.25407
 C1075 C 0.91297 0.91213 0.23950
 N1076 N 0.90717 0.88924 0.23921
 N1077 N 0.91871 0.87366 0.22557
 C1078 C 0.93657 0.88038 0.21175
 N1079 N 0.94250 0.90322 0.21221
 N1080 N 0.93091 0.91881 0.22579
 C1081 C 0.94918 0.86361 0.19601
 C1082 C 0.94218 0.84058 0.19261
 H1083 H 0.88601 0.92276 0.26526
 H1084 H 0.96358 0.87031 0.18631
 H1085 H 0.91549 0.95965 0.23963
 H1086 H 0.92718 0.83527 0.20244
 C1087 C 0.39769 0.43401 0.73539
 C1088 C 0.39643 0.40953 0.73519
 C1089 C 0.41238 0.39420 0.72145
 N1090 N 0.40984 0.37059 0.72189
 N1091 N 0.42431 0.35629 0.70996
 C1092 C 0.44194 0.36505 0.69720
 N1093 N 0.44451 0.38869 0.69678
 N1094 N 0.43002 0.40302 0.70871
 C1095 C 0.45788 0.34945 0.68364
 C1096 C 0.45500 0.32512 0.68250
 H1097 H 0.38327 0.40104 0.74544
 H1098 H 0.47136 0.35776 0.67380
 H1099 H 0.40972 0.44237 0.72348
 H1100 H 0.44079 0.31809 0.69245
 C1101 C 0.37907 0.57206 0.77740
 C1102 C 0.38628 0.59362 0.76849
 C1103 C 0.39702 0.61105 0.78364
 N1104 N 0.40532 0.63078 0.77346
 N1105 N 0.41522 0.64674 0.78683
 C1106 C 0.41715 0.64357 0.81093
 N1107 N 0.40876 0.62388 0.82113
 N1108 N 0.39889 0.60790 0.80775
 C1109 C 0.42821 0.66089 0.82601
 C1110 C 0.43879 0.68054 0.81622
 H1111 H 0.38485 0.59766 0.74954
 H1112 H 0.42837 0.65726 0.84505
 H1113 H 0.38227 0.56746 0.79599
 H1114 H 0.43861 0.68264 0.79684
 C1115 C -0.11803 0.09865 0.26785
 C1116 C -0.10110 0.09858 0.28506
 C1117 C -0.09151 0.12051 0.29372
 N1118 N -0.07303 0.11949 0.30792
 N1119 N -0.06352 0.13914 0.31505
 C1120 C -0.07212 0.16058 0.30825
 N1121 N -0.09074 0.16161 0.29422
 N1122 N -0.10023 0.14194 0.28704
 C1123 C -0.06143 0.18244 0.31558
 C1124 C -0.04107 0.18188 0.32818
 H1125 H -0.09332 0.08210 0.29102
 H1126 H -0.06974 0.19887 0.31047
 H1127 H -0.12454 0.11540 0.26104
 H1128 H -0.03354 0.16469 0.33229
 C1129 C 0.09686 0.45223 0.25720
 C1130 C 0.08860 0.43151 0.24780
 C1131 C 0.07953 0.41298 0.26341
 N1132 N 0.07071 0.39352 0.25365
 N1133 N 0.06297 0.37638 0.26768
 C1134 C 0.06386 0.37811 0.29199
 N1135 N 0.07268 0.39755 0.30170
 N1136 N 0.08036 0.41467 0.28770
 C1137 C 0.05602 0.35933 0.30801
 C1138 C 0.04509 0.33945 0.29984
 H1139 H 0.08862 0.42868 0.22860
 H1140 H 0.05851 0.36215 0.32693
 H1141 H 0.09501 0.45545 0.27632
 H1142 H 0.04123 0.33860 0.28089
 C1143 C 0.59102 0.93491 0.76266
 C1144 C 0.59202 0.91060 0.75901
 C1145 C 0.57790 0.89455 0.77319
 N1146 N 0.58009 0.87095 0.76982
 N1147 N 0.56742 0.85626 0.78254
 C1148 C 0.55206 0.86463 0.79909
 N1149 N 0.54985 0.88822 0.80240
 N1150 N 0.56252 0.90290 0.78970
 C1151 C 0.53800 0.84876 0.81355
 C1152 C 0.53999 0.82421 0.81161
 H1153 H 0.60370 0.90288 0.74589
 H1154 H 0.52623 0.85708 0.82613
 H1155 H 0.58012 0.94188 0.77696
 H1156 H 0.55223 0.81708 0.79863
 C1157 C 0.74306 0.60725 0.05642
 C1158 C 0.75048 0.59992 0.07917
 C1159 C 0.73569 0.58749 0.09622
 N1160 N 0.74403 0.57966 0.11753
 N1161 N 0.73080 0.56867 0.13330
 C1162 C 0.70870 0.56514 0.12835
 N1163 N 0.70037 0.57299 0.10706
 N1164 N 0.71361 0.58394 0.09128
 C1165 C 0.69363 0.55338 0.14560
 C1166 C 0.70133 0.54369 0.16732
 H1167 H 0.76750 0.60285 0.08501
 H1168 H 0.67617 0.55223 0.14038
 H1169 H 0.72613 0.60252 0.05136
 H1170 H 0.71931 0.54438 0.17088
 C1171 C 0.24467 1.11550 0.59278
 C1172 C 0.22259 1.10745 0.59321
 C1173 C 0.21370 1.09393 0.61366
 N1174 N 0.19212 1.08647 0.61334
 N1175 N 0.18391 1.07397 0.63160
 C1176 C 0.19697 1.06845 0.65085
 N1177 N 0.21854 1.07594 0.65118
 N1178 N 0.22677 1.08844 0.63292
 C1179 C 0.18816 1.05457 0.67111
 C1180 C 0.16610 1.04632 0.67126
 H1181 H 0.21130 1.11119 0.57846
 H1182 H 0.19952 1.05104 0.68581
 H1183 H 0.25506 1.11256 0.60847
 H1184 H 0.15571 1.05058 0.65583
 C1185 C 0.23325 0.89845 0.93760
 C1186 C 0.23695 0.89748 0.91279
 C1187 C 0.22293 0.91135 0.89588
 N1188 N 0.22552 0.90786 0.87188
 N1189 N 0.21288 0.92021 0.85633
 C1190 C 0.19724 0.93657 0.86422
 N1191 N 0.19476 0.94016 0.88822
 N1192 N 0.20735 0.92777 0.90376
 C1193 C 0.18289 0.95017 0.84737
 C1194 C 0.18271 0.94514 0.82276
 H1195 H 0.24996 0.88568 0.90533
 H1196 H 0.17168 0.96357 0.85510
 H1197 H 0.21894 0.90890 0.94455
 H1198 H 0.19365 0.93070 0.81643
 C1199 C 0.76006 0.39258 0.42412
 C1200 C 0.74206 0.40897 0.42187
 C1201 C 0.73354 0.41699 0.39837
 N1202 N 0.71632 0.43335 0.39747
 N1203 N 0.70816 0.44069 0.37645
 C1204 C 0.71689 0.43195 0.35547
 N1205 N 0.73414 0.41558 0.35635
 N1206 N 0.74232 0.40822 0.37741
 C1207 C 0.70781 0.43985 0.33210
 C1208 C 0.69005 0.45673 0.33076
 H1209 H 0.73404 0.41664 0.43771
 H1210 H 0.71534 0.43202 0.31612
 H1211 H 0.76877 0.38635 0.40798
 H1212 H 0.68350 0.46390 0.34759
 C1213 C 0.75106 0.39637 0.57750
 C1214 C 0.77389 0.39632 0.58371
 C1215 C 0.78175 0.40609 0.60645
 N1216 N 0.80401 0.40387 0.61201
 N1217 N 0.81163 0.41289 0.63227
 C1218 C 0.79729 0.42453 0.64778
 N1219 N 0.77499 0.42676 0.64223
 N1220 N 0.76734 0.41768 0.62195
 C1221 C 0.80577 0.43526 0.66986
 C1222 C 0.82860 0.43271 0.67619
 H1223 H 0.78658 0.38829 0.57183
 H1224 H 0.79381 0.44569 0.68055
 H1225 H 0.73837 0.40274 0.59039
 H1226 H 0.83942 0.42146 0.66490
 C1227 C 0.24853 -0.12572 0.08454
 C1228 C 0.26453 -0.10824 0.08551
 C1229 C 0.27282 -0.09914 0.10835
 N1230 N 0.28721 -0.08105 0.10805
 N1231 N 0.29459 -0.07221 0.12849
 C1232 C 0.28787 -0.08109 0.15006
 N1233 N 0.27353 -0.09927 0.15038
 N1234 N 0.26611 -0.10812 0.12990
 C1235 C 0.29591 -0.07127 0.17277
 C1236 C 0.31011 -0.05205 0.17277
 H1237 H 0.27043 -0.09994 0.06914
 H1238 H 0.29042 -0.07947 0.18931
 H1239 H 0.24181 -0.13269 0.10124
 H1240 H 0.31471 -0.04468 0.15542
 C1241 C 0.26273 0.11344 0.44508
 C1242 C 0.25274 0.10310 0.42531
 C1243 C 0.26633 0.09027 0.40694
 N1244 N 0.25601 0.07976 0.38838
 N1245 N 0.26821 0.06817 0.37161
 C1246 C 0.29119 0.06670 0.37284
 N1247 N 0.30146 0.07722 0.39138
 N1248 N 0.28929 0.08877 0.40812
 C1249 C 0.30523 0.05437 0.35454
 C1250 C 0.29623 0.04253 0.33502
 H1251 H 0.23452 0.10377 0.42341
 H1252 H 0.32326 0.05468 0.35728
 H1253 H 0.28087 0.11113 0.44738
 H1254 H 0.27794 0.04166 0.33407
 C1255 C 0.76099 0.62279 0.91007
 C1256 C 0.77670 0.60388 0.91084
 C1257 C 0.78645 0.59263 0.88908
 N1258 N 0.80119 0.57398 0.89135
 N1259 N 0.81009 0.56332 0.87199
 C1260 C 0.80459 0.57087 0.84956
 N1261 N 0.78984 0.58956 0.84726
 N1262 N 0.78092 0.60025 0.86665
 C1263 C 0.81442 0.55910 0.82802
 C1264 C 0.82999 0.54008 0.83005
 H1265 H 0.78153 0.59624 0.92792
 H1266 H 0.80931 0.56587 0.81069
 H1267 H 0.75536 0.62922 0.89272
 H1268 H 0.83440 0.53443 0.84808
 C1269 C 0.07536 0.73833 0.59410
 C1270 C 0.07785 0.72067 0.57685
 C1271 C 0.10048 0.71277 0.56787
 N1272 N 0.10252 0.69724 0.54945
 N1273 N 0.12294 0.69023 0.54112
 C1274 C 0.14208 0.69848 0.55089
 N1275 N 0.14002 0.71393 0.56933
 N1276 N 0.11964 0.72097 0.57762
 C1277 C 0.16486 0.69068 0.54230
 C1278 C 0.16811 0.67538 0.52284
 H1279 H 0.06307 0.71316 0.56903
 H1280 H 0.17903 0.69710 0.55206
 H1281 H 0.09050 0.74643 0.60047
 H1282 H 0.15310 0.67010 0.51353
 C1283 C 0.57173 0.22504 1.11924
 C1284 C 0.59238 0.23372 1.11122
 C1285 C 0.60999 0.21854 1.09966
 N1286 N 0.62963 0.22789 1.09181
 N1287 N 0.64559 0.21445 1.08095
 C1288 C 0.64247 0.19116 1.07752
 N1289 N 0.62284 0.18181 1.08540
 N1290 N 0.60689 0.19523 1.09627
 C1291 C 0.65970 0.17609 1.06519
 C1292 C 0.68053 0.18464 1.05731
 H1293 H 0.59564 0.25226 1.11252
 H1294 H 0.65551 0.15796 1.06264
 H1295 H 0.56851 0.20660 1.11651
 H1296 H 0.68395 0.20281 1.06134
 C1297 C 0.93953 0.23313 0.91290
 C1298 C 0.92179 0.24169 0.92757
 C1299 C 0.90252 0.22706 0.93400
 N1300 N 0.88836 0.23331 0.95249
 N1301 N 0.87056 0.22038 0.95805
 C1302 C 0.86618 0.20088 0.94514
 N1303 N 0.88022 0.19478 0.92652
 N1304 N 0.89811 0.20757 0.92111
 C1305 C 0.84637 0.18668 0.95056
 C1306 C 0.83516 0.18758 0.97288
 H1307 H 0.92211 0.25935 0.93471
 H1308 H 0.84172 0.17426 0.93702
 H1309 H 0.94016 0.21467 0.90809
 H1310 H 0.84236 0.19825 0.98675
 C1311 C 0.43835 0.72706 0.39220
 C1312 C 0.41699 0.73575 0.39975
 C1313 C 0.40050 0.72066 0.41197
 N1314 N 0.38006 0.72984 0.41943
 N1315 N 0.36500 0.71632 0.43042
 C1316 C 0.36985 0.69310 0.43438
 N1317 N 0.39028 0.68396 0.42693
 N1318 N 0.40532 0.69746 0.41595
 C1319 C 0.35343 0.67761 0.44610
 C1320 C 0.33186 0.68560 0.45400
 H1321 H 0.41225 0.75413 0.39726
 H1322 H 0.35887 0.65942 0.44800
 H1323 H 0.44302 0.70887 0.39615
 H1324 H 0.32767 0.70421 0.45195
 C1325 C 0.57581 0.76036 0.39107
 C1326 C 0.59643 0.75229 0.40064
 C1327 C 0.61319 0.76816 0.41037
 N1328 N 0.63305 0.75904 0.41888
 N1329 N 0.64846 0.77301 0.42786
 C1330 C 0.64458 0.79666 0.42869
 N1331 N 0.62470 0.80580 0.42018
 N1332 N 0.60929 0.79182 0.41115
 C1333 C 0.66128 0.81231 0.43899
 C1334 C 0.68241 0.80380 0.44706
 H1335 H 0.60052 0.73365 0.40164
 H1336 H 0.65641 0.83074 0.44006
 H1337 H 0.57153 0.77903 0.39161
 H1338 H 0.68646 0.78522 0.44456
 C1339 C 0.08154 0.24359 -0.10452
 C1340 C 0.08324 0.25957 -0.08574
 C1341 C 0.10519 0.26780 -0.07746
 N1342 N 0.10580 0.28225 -0.05820
 N1343 N 0.12545 0.28991 -0.05041
 C1344 C 0.14530 0.28343 -0.06160
 N1345 N 0.14470 0.26899 -0.08091
 N1346 N 0.12502 0.26130 -0.08869
 C1347 C 0.16714 0.29205 -0.05326
 C1348 C 0.16826 0.30648 -0.03303
 H1349 H 0.06816 0.26578 -0.07611
 H1350 H 0.18217 0.28694 -0.06351
 H1351 H 0.09699 0.23640 -0.11278
 H1352 H 0.15248 0.31053 -0.02347
 C1353 C 0.43203 0.25590 0.11478
 C1354 C 0.41290 0.24668 0.10427
 C1355 C 0.39554 0.26176 0.09250
 N1356 N 0.37763 0.25194 0.08180
 N1357 N 0.36175 0.26539 0.07116
 C1358 C 0.36322 0.28918 0.07083
 N1359 N 0.38111 0.29897 0.08152
 N1360 N 0.39697 0.28554 0.09215
 C1361 C 0.34581 0.30452 0.05949
 C1362 C 0.32695 0.29578 0.04785
 H1363 H 0.41070 0.22788 0.10400
 H1364 H 0.34840 0.32315 0.06065
 H1365 H 0.43458 0.27464 0.11339
 H1366 H 0.32575 0.27683 0.04673
 C1367 C 0.92945 0.74010 0.59949
 C1368 C 0.92713 0.75559 0.58009
 C1369 C 0.90477 0.76544 0.57307
 N1370 N 0.90224 0.77666 0.55164
 N1371 N 0.88207 0.78573 0.54525
 C1372 C 0.86372 0.78398 0.56012
 N1373 N 0.86630 0.77289 0.58159
 N1374 N 0.88641 0.76372 0.58791
 C1375 C 0.84145 0.79452 0.55385
 C1376 C 0.83645 0.80253 0.53063
 H1377 H 0.94183 0.75994 0.56927
 H1378 H 0.82876 0.79523 0.56804
 H1379 H 0.91429 0.73431 0.60869
 H1380 H 0.84909 0.79908 0.51663
   
