data_POSCAR
  _audit_creation_date              2014-09-24
  _audit_creation_method            'ToBaCCo'
  _symmetry_space_group_name_H-M    'P1'
  _symmetry_Int_Tables_number       1
  _symmetry_cell_setting            triclinic
  loop_
  _symmetry_equiv_pos_as_xyz
 x,y,z
_cell_length_a 53.6324
_cell_length_b 53.3092
_cell_length_c 51.1528
_cell_angle_alpha 87.932300
_cell_angle_beta 86.829700
_cell_angle_gamma 89.063500
loop_
  _atom_site_label
  _atom_site_type_symbol
  _atom_site_fract_x
  _atom_site_fract_y
  _atom_site_fract_z
C1 C 0.77323 0.66035 0.99723
 C2 C 0.77764 0.64547 0.97226
 C3 C 0.75852 0.63028 0.96722
 C4 C 0.73636 0.63129 0.98753
 C5 C 0.74836 0.67446 0.99318
 C6 C 0.72895 0.65934 0.98820
 C7 C 0.76699 0.64053 1.01884
 C8 C 0.74788 0.62531 1.01392
 H9 H 0.79416 0.64739 0.95920
 H10 H 0.72108 0.61840 0.98359
 H11 H 0.74683 0.69465 0.99113
 H12 H 0.77657 0.63921 1.03696
 C13 C 0.78326 0.35804 0.47354
 C14 C 0.78697 0.37517 0.49631
 C15 C 0.76578 0.38662 0.50573
 C16 C 0.74252 0.38044 0.49128
 C17 C 0.76254 0.33986 0.48388
 C18 C 0.74106 0.35158 0.49311
 C19 C 0.77039 0.37460 0.45304
 C20 C 0.74925 0.38664 0.46213
 H21 H 0.80450 0.37624 0.50576
 H22 H 0.72573 0.39069 0.49896
 H23 H 0.76427 0.31970 0.48329
 H24 H 0.77665 0.37499 0.43255
 C25 C 0.28739 -0.16421 -0.02139
 C26 C 0.29366 -0.15062 0.00142
 C27 C 0.27312 -0.13683 0.01347
 C28 C 0.24978 -0.13981 0.00004
 C29 C 0.26686 -0.18022 -0.01139
 C30 C 0.24551 -0.16698 -0.00023
 C31 C 0.27626 -0.14553 -0.03891
 C32 C 0.25521 -0.13216 -0.02745
 H33 H 0.31251 -0.15015 0.00790
 H34 H 0.23435 -0.12898 0.00917
 H35 H 0.26947 -0.19998 -0.00687
 H36 H 0.28139 -0.14437 -0.05970
 C37 C 0.29086 0.14331 0.50204
 C38 C 0.29440 0.12444 0.48023
 C39 C 0.27314 0.11311 0.47422
 C40 C 0.25000 0.12125 0.49088
 C41 C 0.27031 0.16160 0.49251
 C42 C 0.24864 0.15008 0.48683
 C43 C 0.27789 0.12875 0.52516
 C44 C 0.25664 0.11699 0.51956
 H45 H 0.31179 0.12232 0.46863
 H46 H 0.23337 0.11072 0.48618
 H47 H 0.27266 0.18160 0.49009
 H48 H 0.28419 0.12966 0.54484
 C49 C 0.12592 0.50127 0.29764
 C50 C 0.10696 0.48017 0.30190
 C51 C 0.09634 0.47347 0.27979
 C52 C 0.10569 0.48821 0.25501
 C53 C 0.14487 0.49146 0.27639
 C54 C 0.13423 0.48467 0.25408
 C55 C 0.11180 0.52252 0.28367
 C56 C 0.10134 0.51601 0.26128
 H57 H 0.10309 0.47054 0.32067
 H58 H 0.09697 0.48252 0.23704
 H59 H 0.16459 0.48877 0.27888
 H60 H 0.11022 0.54118 0.29132
 C61 C -0.12908 -0.02793 0.29240
 C62 C -0.11020 -0.00698 0.29495
 C63 C -0.09747 -0.00021 0.27217
 C64 C -0.10453 -0.01526 0.24873
 C65 C -0.14593 -0.01777 0.27063
 C66 C -0.13292 -0.01141 0.24770
 C67 C -0.11484 -0.04834 0.28046
 C68 C -0.10122 -0.04172 0.25640
 H69 H -0.10881 0.00321 0.31276
 H70 H -0.09448 -0.00894 0.23024
 H71 H -0.16606 -0.01667 0.27226
 H72 H -0.11397 -0.06684 0.28984
 C73 C 0.36457 0.49869 0.79208
 C74 C 0.38486 0.51872 0.79220
 C75 C 0.39558 0.52460 0.76813
 C76 C 0.38502 0.51035 0.74582
 C77 C 0.34617 0.50995 0.77268
 C78 C 0.35677 0.51600 0.74851
 C79 C 0.37717 0.47653 0.77809
 C80 C 0.38801 0.48239 0.75397
 H81 H 0.38903 0.52889 0.80934
 H82 H 0.39392 0.51579 0.72638
 H83 H 0.32684 0.51434 0.77804
 H84 H 0.37680 0.45761 0.78652
 C85 C 0.65330 1.02712 0.78654
 C86 C 0.63595 1.00467 0.79186
 C87 C 0.61932 1.00186 0.77311
 C88 C 0.62162 1.02155 0.75043
 C89 C 0.66569 1.02215 0.75922
 C90 C 0.64910 1.01910 0.74032
 C91 C 0.63684 1.04858 0.78253
 C92 C 0.61947 1.04596 0.76258
 H93 H 0.63780 0.99122 0.80807
 H94 H 0.60797 1.01840 0.73542
 H95 H 0.68525 1.01761 0.75565
 H96 H 0.63969 1.06619 0.79178
 C97 C -0.01601 0.28679 -0.14285
 C98 C 0.00680 0.29041 -0.12669
 C99 C 0.01492 0.26930 -0.11406
 C100 C -0.00029 0.24600 -0.11888
 C101 C -0.00772 0.26583 -0.16148
 C102 C 0.00072 0.24442 -0.14904
 C103 C -0.03554 0.27436 -0.12388
 C104 C -0.02768 0.25303 -0.11101
 H105 H 0.01605 0.30825 -0.12577
 H106 H 0.00733 0.22925 -0.10855
 H107 H -0.00786 0.26774 -0.18252
 H108 H -0.05459 0.28131 -0.12266
 C109 C 0.50071 0.28000 0.14167
 C110 C 0.47883 0.28368 0.12391
 C111 C 0.47111 0.26244 0.11293
 C112 C 0.48602 0.23887 0.12141
 C113 C 0.49179 0.25980 0.16228
 C114 C 0.48399 0.23842 0.15156
 C115 C 0.52097 0.26650 0.12501
 C116 C 0.51353 0.24505 0.11439
 H117 H 0.46927 0.30162 0.12183
 H118 H 0.48007 0.22127 0.11281
 H119 H 0.49190 0.26162 0.18324
 H120 H 0.54028 0.27231 0.12391
 C121 C 1.00514 0.79132 0.65423
 C122 C 0.98441 0.79812 0.63824
 C123 C 0.97610 0.77848 0.62246
 C124 C 0.99139 0.75547 0.62534
 C125 C 0.99750 0.76856 0.66924
 C126 C 0.98956 0.74862 0.65350
 C127 C 1.02482 0.78242 0.63597
 C128 C 1.01768 0.76249 0.61991
 H129 H 0.97703 0.81713 0.63739
 H130 H 0.98606 0.74005 0.61328
 H131 H 0.99882 0.76637 0.69017
 H132 H 1.04357 0.78960 0.63545
 C133 C 0.49197 0.77504 0.35844
 C134 C 0.51308 0.78020 0.37649
 C135 C 0.51670 0.76161 0.39492
 C136 C 0.49905 0.73931 0.39360
 C137 C 0.49952 0.74958 0.34698
 C138 C 0.50295 0.73090 0.36530
 C139 C 0.46914 0.76958 0.37699
 C140 C 0.47251 0.75075 0.39526
 H141 H 0.52491 0.79648 0.37419
 H142 H 0.50267 0.72396 0.40816
 H143 H 0.50291 0.74668 0.32625
 H144 H 0.45179 0.78004 0.37549
 C145 C 0.41768 -0.01830 0.25875
 H146 H 0.42217 0.00133 0.25639
 C147 C 0.43468 -0.03501 0.27019
 H148 H 0.45215 -0.02803 0.27645
 C149 C 0.38972 -0.05145 0.25349
 H150 H 0.37210 -0.05779 0.24705
 C151 C 0.40605 -0.06868 0.26474
 H152 H 0.40049 -0.08809 0.26728
 N153 N 0.39544 -0.02670 0.25117
 C154 C 0.38011 0.03283 0.19944
 H155 H 0.37172 0.02030 0.18645
 C156 C 0.38755 0.05655 0.18995
 H157 H 0.38529 0.06173 0.16955
 C158 C 0.39276 0.04160 0.24177
 H159 H 0.39400 0.03592 0.26217
 C160 C 0.40042 0.06556 0.23309
 H161 H 0.40767 0.07812 0.24691
 Zn162 Zn 0.36988 -0.00557 0.23793
 N163 N 0.38273 0.02580 0.22498
 C164 C 0.33789 0.02406 0.27034
 N165 N 0.34583 0.00015 0.26585
 C166 C 0.34024 -0.01892 0.28349
 C167 C 0.32845 -0.01390 0.30779
 C168 C 0.32596 0.02991 0.29435
 C169 C 0.37342 -0.03111 0.19200
 C170 C 0.36618 -0.04614 0.17216
 C171 C 0.32361 -0.04356 0.19011
 C172 C 0.33175 -0.02858 0.20985
 N173 N 0.35635 -0.02289 0.21048
 H174 H 0.34217 0.03894 0.25597
 H175 H 0.34634 -0.03784 0.27952
 H176 H 0.32543 -0.02910 0.32218
 H177 H 0.32148 0.04935 0.29825
 H178 H 0.39287 -0.02640 0.19310
 H179 H 0.38016 -0.05269 0.15779
 H180 H 0.30412 -0.04853 0.19010
 H181 H 0.31858 -0.02200 0.22496
 C182 C 0.39756 0.07340 0.20691
 C183 C 0.42878 -0.06055 0.27354
 C184 C 0.34109 -0.05291 0.17126
 C185 C 0.32218 0.01095 0.31388
 C186 C 0.08738 1.02955 0.79361
 H187 H 0.08266 1.01008 0.79749
 C188 C 0.07250 1.04847 0.80499
 H189 H 0.05598 1.04326 0.81692
 C190 C 0.11485 1.05977 0.77366
 H191 H 0.13184 1.06411 0.76219
 C192 C 0.10079 1.07921 0.78495
 H193 H 0.10725 1.09826 0.78184
 N194 N 0.10770 1.03551 0.77765
 C195 C 0.12410 0.96686 0.73525
 H196 H 0.14415 0.96726 0.73645
 C197 C 0.11342 0.94832 0.72120
 H198 H 0.12531 0.93436 0.71168
 C199 C 0.08427 0.98498 0.74565
 H200 H 0.07305 0.99978 0.75439
 C201 C 0.07272 0.96636 0.73216
 H202 H 0.05263 0.96672 0.73091
 Zn203 Zn 0.12802 1.00966 0.76268
 N204 N 0.10956 0.98479 0.74703
 C205 C 0.14228 0.97098 0.79859
 N206 N 0.14687 0.99483 0.78943
 C207 C 0.16533 1.00856 0.79885
 C208 C 0.18098 0.99787 0.81726
 C209 C 0.15714 0.95976 0.81743
 C210 C 0.14054 1.03902 0.71714
 C211 C 0.15586 1.04818 0.69610
 C212 C 0.18970 1.02247 0.71197
 C213 C 0.17391 1.01434 0.73307
 N214 N 0.14990 1.02289 0.73544
 H215 H 0.12723 0.96058 0.79114
 H216 H 0.16835 1.02759 0.79142
 H217 H 0.19605 1.00875 0.82411
 H218 H 0.15363 0.94060 0.82425
 H219 H 0.12115 1.04491 0.71899
 H220 H 0.14813 1.06175 0.68243
 H221 H 0.20847 1.01475 0.71019
 H222 H 0.18067 1.00056 0.74709
 C223 C 0.08748 0.94802 0.71946
 C224 C 0.07907 1.07378 0.80064
 C225 C 0.18085 1.03983 0.69316
 C226 C 0.17702 0.97313 0.82658
 C227 C 0.58712 0.53177 0.28047
 H228 H 0.58804 0.51543 0.29357
 C229 C 0.57740 0.55446 0.28992
 H230 H 0.57113 0.55530 0.31035
 C231 C 0.59611 0.55095 0.23864
 H232 H 0.60378 0.54987 0.21877
 C233 C 0.58595 0.57365 0.24699
 H234 H 0.58551 0.58943 0.23309
 N235 N 0.59741 0.53078 0.25558
 C236 C 0.60684 0.45553 0.22622
 H237 H 0.62514 0.45780 0.21659
 C238 C 0.59329 0.43416 0.22203
 H239 H 0.60146 0.41991 0.20950
 C240 C 0.57359 0.47174 0.25337
 H241 H 0.56590 0.48662 0.26527
 C242 C 0.55941 0.45038 0.24995
 H243 H 0.54079 0.44895 0.25914
 Zn244 Zn 0.61680 0.50261 0.24398
 N245 N 0.59685 0.47390 0.24147
 C246 C 0.65836 0.47521 0.26164
 N247 N 0.64259 0.49479 0.26727
 C248 C 0.64443 0.50764 0.28961
 C249 C 0.66123 0.49970 0.30820
 C250 C 0.67585 0.46701 0.27943
 C251 C 0.61694 0.50847 0.18918
 C252 C 0.62529 0.51772 0.16443
 C253 C 0.66292 0.53148 0.18314
 C254 C 0.65387 0.52188 0.20756
 N255 N 0.63110 0.51096 0.21017
 H256 H 0.65710 0.46561 0.24356
 H257 H 0.63267 0.52380 0.29343
 H258 H 0.66191 0.50954 0.32630
 H259 H 0.68782 0.45097 0.27505
 H260 H 0.59870 0.50011 0.19187
 H261 H 0.61358 0.51585 0.14805
 H262 H 0.68060 0.54109 0.18170
 H263 H 0.66454 0.52407 0.22465
 C264 C 0.56920 0.43150 0.23376
 C265 C 0.57760 0.57607 0.27329
 C266 C 0.64833 0.52992 0.16125
 C267 C 0.67686 0.47893 0.30331
 C268 C 0.88025 0.47058 0.76294
 H269 H 0.86687 0.47858 0.77693
 C270 C 0.89315 0.44874 0.77005
 H271 H 0.88935 0.44045 0.78946
 C272 C 0.89952 0.47040 0.72018
 H273 H 0.90129 0.47852 0.70050
 C274 C 0.91310 0.44857 0.72660
 H275 H 0.92584 0.44054 0.71192
 N276 N 0.88368 0.48113 0.73843
 C277 C 0.86958 0.55950 0.71448
 H278 H 0.85040 0.56064 0.72209
 C279 C 0.88093 0.58085 0.70316
 H280 H 0.87031 0.59824 0.70153
 C281 C 0.90705 0.53578 0.70819
 H282 H 0.91723 0.51827 0.71034
 C283 C 0.91933 0.55694 0.69711
 H284 H 0.93882 0.55557 0.69051
 Zn285 Zn 0.86326 0.50957 0.72980
 N286 N 0.88236 0.53728 0.71596
 C287 C 0.86226 0.52984 0.77814
 N288 N 0.84670 0.52038 0.76102
 C289 C 0.82177 0.51827 0.76704
 C290 C 0.81178 0.52520 0.79172
 C291 C 0.85319 0.53676 0.80284
 C292 C 0.82916 0.51798 0.68960
 C293 C 0.81729 0.51142 0.66727
 C294 C 0.82707 0.46791 0.67737
 C295 C 0.83906 0.47533 0.69933
 N296 N 0.84068 0.50010 0.70454
 H297 H 0.88198 0.53137 0.77272
 H298 H 0.80980 0.51068 0.75301
 H299 H 0.79203 0.52294 0.79666
 H300 H 0.86600 0.54402 0.81626
 H301 H 0.83023 0.53751 0.69402
 H302 H 0.80938 0.52600 0.65481
 H303 H 0.82720 0.44825 0.67271
 H304 H 0.84810 0.46132 0.71149
 C305 C 0.90595 0.57957 0.69406
 C306 C 0.90999 0.43742 0.75189
 C307 C 0.81688 0.48619 0.66050
 C308 C 0.82775 0.53409 0.81011
 C309 C 0.26852 0.38576 -0.02006
 H310 H 0.28206 0.37371 -0.01084
 C311 C 0.27639 0.40142 -0.04120
 H312 H 0.29591 0.40102 -0.04781
 C313 C 0.22652 0.39906 -0.02420
 H314 H 0.20703 0.39750 -0.01781
 C315 C 0.23363 0.41514 -0.04544
 H316 H 0.21949 0.42629 -0.05498
 N317 N 0.24393 0.38462 -0.01214
 C318 C 0.20883 0.35753 0.06262
 H319 H 0.21184 0.33755 0.06067
 C320 C 0.19651 0.36654 0.08519
 H321 H 0.18998 0.35341 0.10062
 C322 C 0.21405 0.39897 0.04499
 H323 H 0.22113 0.41151 0.02935
 C324 C 0.20219 0.40883 0.06748
 H325 H 0.19982 0.42897 0.06887
 Zn326 Zn 0.23360 0.35953 0.01320
 N327 N 0.21688 0.37370 0.04289
 C328 C 0.27594 0.35676 0.04054
 N329 N 0.26256 0.34283 0.02473
 C330 C 0.27155 0.32053 0.01572
 C331 C 0.29570 0.31228 0.02136
 C332 C 0.29996 0.34931 0.04656
 C333 C 0.18780 0.33579 0.00520
 C334 C 0.17071 0.32424 -0.00993
 C335 C 0.20390 0.31721 -0.04281
 C336 C 0.22040 0.32882 -0.02699
 N337 N 0.21205 0.33822 -0.00369
 H338 H 0.26840 0.37447 0.04730
 H339 H 0.26061 0.30978 0.00313
 H340 H 0.30322 0.29515 0.01311
 H341 H 0.31060 0.36114 0.05848
 H342 H 0.18121 0.34409 0.02328
 H343 H 0.15124 0.32374 -0.00312
 H344 H 0.21072 0.31060 -0.06169
 H345 H 0.23960 0.33158 -0.03397
 C346 C 0.19302 0.39248 0.08775
 C347 C 0.25885 0.41614 -0.05449
 C348 C 0.17853 0.31543 -0.03462
 C349 C 0.31046 0.32730 0.03620
 C350 C 0.76598 0.08375 1.05773
 H351 H 0.76269 0.07255 1.04111
 C352 C 0.77301 0.07198 1.08112
 H353 H 0.77461 0.05170 1.08243
 C354 C 0.76829 0.12370 1.07621
 H355 H 0.76648 0.14390 1.07405
 C356 C 0.77524 0.11274 1.09993
 H357 H 0.77907 0.12468 1.11587
 N358 N 0.76334 0.10917 1.05588
 C359 C 0.74918 0.10987 0.97380
 H360 H 0.76150 0.12516 0.96812
 C361 C 0.73808 0.09685 0.95442
 H362 H 0.74238 0.10223 0.93409
 C363 C 0.72608 0.08677 1.00703
 H364 H 0.72061 0.08377 1.02756
 C365 C 0.71478 0.07305 0.98831
 H366 H 0.70131 0.05892 0.99477
 Zn367 Zn 0.75300 0.12654 1.02530
 N368 N 0.74302 0.10470 0.99956
 C369 C 0.79931 0.13674 0.99822
 N370 N 0.77969 0.14714 1.01215
 C371 C 0.77916 0.17198 1.01730
 C372 C 0.79834 0.18759 1.00737
 C373 C 0.81855 0.15179 0.98725
 C374 C 0.71116 0.14383 1.05676
 C375 C 0.68901 0.15750 1.06139
 C376 C 0.69436 0.17631 1.01778
 C377 C 0.71629 0.16216 1.01393
 N378 N 0.72437 0.14652 1.03337
 H379 H 0.79960 0.11681 0.99492
 H380 H 0.76385 0.17971 1.02925
 H381 H 0.79753 0.20719 1.01215
 H382 H 0.83312 0.14315 0.97503
 H383 H 0.71747 0.13071 1.07166
 H384 H 0.67882 0.15531 1.08018
 H385 H 0.68814 0.18857 1.00202
 H386 H 0.72684 0.16346 0.99529
 C387 C 0.72030 0.07839 0.96153
 C388 C 0.77750 0.08653 1.10270
 C389 C 0.68038 0.17401 1.04175
 C390 C 0.81818 0.17775 0.99151
 C391 C 0.26187 0.58345 0.53683
 H392 H 0.25388 0.57388 0.52111
 C393 C 0.27411 0.56952 0.55606
 H394 H 0.27501 0.54926 0.55521
 C395 C 0.27079 0.62138 0.55697
 H396 H 0.26968 0.64167 0.55693
 C397 C 0.28308 0.60822 0.57662
 H398 H 0.29151 0.61853 0.59162
 N399 N 0.26021 0.60890 0.53779
 C400 C 0.24658 0.61257 0.45973
 H401 H 0.26022 0.62713 0.45618
 C402 C 0.24029 0.59803 0.43904
 H403 H 0.24909 0.60178 0.41977
 C404 C 0.21775 0.59084 0.48874
 H405 H 0.20905 0.58826 0.50822
 C406 C 0.21090 0.57580 0.46855
 H407 H 0.19700 0.56150 0.47269
 Zn408 Zn 0.24481 0.62873 0.51157
 N409 N 0.23550 0.60862 0.48406
 C410 C 0.29225 0.64220 0.49277
 N411 N 0.26903 0.65195 0.49815
 C412 C 0.26380 0.67671 0.49344
 C413 C 0.28220 0.69251 0.48193
 C414 C 0.31121 0.65734 0.48161
 C415 C 0.21060 0.64318 0.55238
 C416 C 0.19080 0.65676 0.56399
 C417 C 0.18096 0.67342 0.52119
 C418 C 0.20123 0.65966 0.51036
 N419 N 0.21599 0.64546 0.52612
 H420 H 0.29588 0.62244 0.49667
 H421 H 0.24531 0.68416 0.49809
 H422 H 0.27773 0.71209 0.47781
 H423 H 0.32939 0.64906 0.47680
 H424 H 0.22189 0.63121 0.56456
 H425 H 0.18726 0.65530 0.58504
 H426 H 0.16991 0.68539 0.50861
 H427 H 0.20560 0.66079 0.48945
 C428 C 0.22231 0.57929 0.44330
 C429 C 0.28481 0.58194 0.57636
 C430 C 0.17605 0.67251 0.54842
 C431 C 0.30620 0.68276 0.47574
 C432 C 0.75992 0.89405 0.49577
 H433 H 0.76871 0.89482 0.51424
 C434 C 0.76887 0.90875 0.47418
 H435 H 0.78447 0.92101 0.47630
 C436 C 0.72882 0.87714 0.47065
 H437 H 0.71319 0.86481 0.46930
 C438 C 0.73718 0.89142 0.44861
 H439 H 0.72816 0.88944 0.43040
 N440 N 0.74037 0.87847 0.49355
 C441 C 0.69910 0.86511 0.56851
 H442 H 0.69987 0.84484 0.57042
 C443 C 0.68609 0.87886 0.58770
 H444 H 0.67726 0.86901 0.60454
 C445 C 0.71020 0.90249 0.54452
 H446 H 0.71955 0.91165 0.52763
 C447 C 0.69744 0.91698 0.56330
 H448 H 0.69702 0.93722 0.56058
 Zn449 Zn 0.72948 0.85747 0.52248
 N450 N 0.71112 0.87703 0.54759
 C451 C 0.75996 0.84319 0.56407
 N452 N 0.75823 0.84282 0.53767
 C453 C 0.77799 0.83520 0.52185
 C454 C 0.80091 0.82879 0.53243
 C455 C 0.78231 0.83678 0.57541
 C456 C 0.68327 0.83567 0.51430
 C457 C 0.66687 0.82144 0.50094
 C458 C 0.70234 0.80103 0.47913
 C459 C 0.71813 0.81552 0.49315
 N460 N 0.70839 0.83289 0.50985
 H461 H 0.74440 0.84945 0.57649
 H462 H 0.77642 0.83550 0.50085
 H463 H 0.81680 0.82410 0.51945
 H464 H 0.78330 0.83779 0.59643
 H465 H 0.67576 0.85016 0.52679
 H466 H 0.64699 0.82507 0.50366
 H467 H 0.71036 0.78807 0.46505
 H468 H 0.73813 0.81398 0.48951
 C469 C 0.68533 0.90517 0.58535
 C470 C 0.75762 0.90734 0.45010
 C471 C 0.67634 0.80443 0.48246
 C472 C 0.80343 0.83034 0.55950
 C473 C -0.03541 0.25002 0.37201
 H474 H -0.03149 0.25471 0.35146
 C475 C -0.05759 0.25839 0.38452
 H476 H -0.07077 0.26944 0.37347
 C477 C -0.02291 0.23000 0.41140
 H478 H -0.00920 0.21923 0.42189
 C479 C -0.04510 0.23768 0.42462
 H480 H -0.04832 0.23280 0.44526
 N481 N -0.01857 0.23615 0.38550
 C482 C 0.05865 0.23013 0.38788
 H483 H 0.06055 0.24711 0.37583
 C484 C 0.07926 0.22062 0.40077
 H485 H 0.09680 0.23047 0.39846
 C486 C 0.03433 0.19545 0.40356
 H487 H 0.01704 0.18525 0.40370
 C488 C 0.05445 0.18527 0.41671
 H489 H 0.05229 0.16750 0.42746
 Zn490 Zn 0.01121 0.22662 0.36648
 N491 N 0.03689 0.21723 0.38907
 C492 C 0.02243 0.27671 0.35627
 N493 N 0.02161 0.25420 0.34475
 C494 C 0.02800 0.25181 0.31885
 C495 C 0.03617 0.27268 0.30354
 C496 C 0.03028 0.29799 0.34174
 C497 C -0.01843 0.19299 0.34036
 C498 C -0.02333 0.17010 0.32939
 C499 C 0.02058 0.15936 0.33020
 C500 C 0.02472 0.18265 0.34068
 N501 N 0.00522 0.19857 0.34626
 H502 H 0.01723 0.27800 0.37692
 H503 H 0.02706 0.23369 0.31014
 H504 H 0.04143 0.27054 0.28299
 H505 H 0.03138 0.31561 0.35146
 H506 H -0.03369 0.20578 0.34515
 H507 H -0.04241 0.16540 0.32590
 H508 H 0.03607 0.14634 0.32703
 H509 H 0.04335 0.18749 0.34562
 C510 C 0.07751 0.19753 0.41477
 C511 C -0.06263 0.25223 0.41116
 C512 C -0.00379 0.15270 0.32499
 C513 C 0.03741 0.29612 0.31504
 C514 C 1.02649 0.77858 0.08286
 H515 H 1.00797 0.78692 0.08322
 C516 C 1.04673 0.79210 0.07156
 H517 H 1.04356 0.81053 0.06266
 C518 C 1.05347 0.74517 0.09535
 H519 H 1.05635 0.72732 0.10534
 C520 C 1.07409 0.75787 0.08413
 H521 H 1.09250 0.74947 0.08563
 N522 N 1.03020 0.75562 0.09466
 C523 C 0.97188 0.70269 0.09651
 H524 H 0.97870 0.69149 0.11265
 C525 C 0.95402 0.69267 0.08128
 H526 H 0.94765 0.67373 0.08567
 C527 C 0.97027 0.74143 0.07245
 H528 H 0.97643 0.76054 0.06935
 C529 C 0.95200 0.73224 0.05695
 H530 H 0.94437 0.74428 0.04178
 Zn531 Zn 1.00326 0.73975 0.11405
 N532 N 0.97991 0.72658 0.09173
 C533 C 0.96164 0.76368 0.13879
 N534 N 0.98693 0.76397 0.13509
 C535 C 1.00080 0.78135 0.14631
 C536 C 0.98919 0.79950 0.16198
 C537 C 0.94929 0.78136 0.15448
 C538 C 1.02592 0.69250 0.12481
 C539 C 1.03630 0.67340 0.14029
 C540 C 1.02655 0.69800 0.17839
 C541 C 1.01593 0.71644 0.16224
 N542 N 1.01607 0.71356 0.13592
 H543 H 0.95106 0.74960 0.12972
 H544 H 1.02091 0.78102 0.14314
 H545 H 1.00049 0.81307 0.17100
 H546 H 0.92913 0.78097 0.15715
 H547 H 1.02596 0.69072 0.10381
 H548 H 1.04441 0.65694 0.13115
 H549 H 1.02670 0.70070 0.19926
 H550 H 1.00801 0.73324 0.17073
 C551 C 0.94381 0.70750 0.06127
 C552 C 1.07093 0.78177 0.07233
 C553 C 1.03699 0.67626 0.16736
 C554 C 0.96311 0.79956 0.16629
 C555 C 0.52688 0.30046 0.59488
 H556 H 0.50947 0.31070 0.59817
 C557 C 0.54774 0.31268 0.58326
 H558 H 0.54615 0.33231 0.57728
 C559 C 0.55022 0.26255 0.59928
 H560 H 0.55119 0.24310 0.60589
 C561 C 0.57150 0.27401 0.58767
 H562 H 0.58876 0.26325 0.58573
 N563 N 0.52860 0.27596 0.60301
 C564 C 0.45503 0.24220 0.61142
 H565 H 0.45481 0.23667 0.63199
 C566 C 0.43525 0.23587 0.59656
 H567 H 0.41978 0.22539 0.60572
 C568 C 0.47563 0.26237 0.57440
 H569 H 0.49155 0.27252 0.56587
 C570 C 0.45586 0.25683 0.55885
 H571 H 0.45664 0.26262 0.53831
 Zn572 Zn 0.50114 0.26140 0.62237
 N573 N 0.47488 0.25490 0.60017
 C574 C 0.46548 0.29412 0.64653
 N575 N 0.48929 0.28500 0.64763
 C576 C 0.50520 0.29443 0.66454
 C577 C 0.49718 0.31332 0.68151
 C578 C 0.45686 0.31322 0.66280
 C579 C 0.50451 0.20836 0.62844
 C580 C 0.51341 0.18529 0.63815
 C581 C 0.53797 0.20742 0.66773
 C582 C 0.52846 0.23009 0.65757
 N583 N 0.51195 0.23027 0.63828
 H584 H 0.45323 0.28725 0.63247
 H585 H 0.52441 0.28810 0.66422
 H586 H 0.51015 0.32088 0.69457
 H587 H 0.43793 0.32036 0.66145
 H588 H 0.49222 0.20862 0.61243
 H589 H 0.50706 0.16819 0.63005
 H590 H 0.55162 0.20786 0.68252
 H591 H 0.53496 0.24749 0.66459
 C592 C 0.43559 0.24311 0.56995
 C593 C 0.57057 0.29954 0.57996
 C594 C 0.53056 0.18457 0.65793
 C595 C 0.47281 0.32311 0.68048
 C596 C 0.49935 0.78547 0.87058
 H597 H 0.51856 0.79089 0.87205
 C598 C 0.48034 0.79718 0.88572
 H599 H 0.48525 0.81124 0.89921
 C600 C 0.46990 0.76014 0.85149
 H601 H 0.46582 0.74576 0.83809
 C602 C 0.45032 0.77168 0.86579
 H603 H 0.43141 0.76621 0.86266
 N604 N 0.49386 0.76716 0.85407
 C605 C 0.56154 0.72172 0.84155
 H606 H 0.56267 0.72179 0.82036
 C607 C 0.57896 0.70796 0.85558
 H608 H 0.59373 0.69778 0.84504
 C609 C 0.54086 0.73502 0.88091
 H610 H 0.52573 0.74520 0.89072
 C611 C 0.55810 0.72164 0.89577
 H612 H 0.55615 0.72176 0.91695
 Zn613 Zn 0.51977 0.75226 0.83302
 N614 N 0.54301 0.73500 0.85427
 C615 C 0.56115 0.78164 0.81493
 N616 N 0.53618 0.77860 0.81308
 C617 C 0.52229 0.79587 0.79977
 C618 C 0.53346 0.81725 0.78789
 C619 C 0.57304 0.80260 0.80330
 C620 C 0.50696 0.70380 0.82022
 C621 C 0.49429 0.68530 0.80799
 C622 C 0.47884 0.71712 0.77799
 C623 C 0.49214 0.73509 0.79065
 N624 N 0.50560 0.72822 0.81163
 H625 H 0.57186 0.76842 0.82633
 H626 H 0.50233 0.79363 0.79934
 H627 H 0.52205 0.83097 0.77773
 H628 H 0.59274 0.80498 0.80592
 H629 H 0.51684 0.69867 0.83748
 H630 H 0.49487 0.66621 0.81595
 H631 H 0.46761 0.72295 0.76182
 H632 H 0.49084 0.75459 0.78436
 C633 C 0.57740 0.70784 0.88305
 C634 C 0.45534 0.79038 0.88341
 C635 C 0.47959 0.69190 0.78692
 C636 C 0.55916 0.82095 0.78983
 C637 C 0.48778 -0.17869 0.34461
 C638 C 0.47956 -0.15953 0.32741
 C639 C 0.46959 -0.16584 0.30354
 C640 C 0.46811 -0.19105 0.29721
 C641 C 0.47585 -0.20995 0.31459
 C642 C 0.48625 -0.20415 0.33832
 C643 C 0.46011 -0.14699 0.28693
 C644 C 0.45964 -0.12193 0.29428
 C645 C 0.46995 -0.11542 0.31791
 C646 C 0.48019 -0.13424 0.33417
 C647 C 0.46892 -0.09033 0.32532
 C648 C 0.45656 -0.07214 0.31022
 C649 C 0.44530 -0.07869 0.28729
 C650 C 0.44782 -0.10348 0.27896
 H651 H 0.49439 -0.17374 0.36335
 H652 H 0.46007 -0.19621 0.27922
 H653 H 0.47279 -0.22916 0.30964
 H654 H 0.45211 -0.15195 0.26882
 H655 H 0.48777 -0.12933 0.35250
 H656 H 0.47680 -0.08495 0.34332
 H657 H 0.45479 -0.05321 0.31717
 H658 H 0.43967 -0.10866 0.26102
 C659 C 0.96941 0.31611 0.81919
 C660 C 0.96020 0.33963 0.81029
 C661 C 0.95600 0.35906 0.82819
 C662 C 0.96066 0.35471 0.85457
 C663 C 0.96942 0.33134 0.86329
 C664 C 0.97432 0.31177 0.84584
 C665 C 0.94676 0.38247 0.81961
 C666 C 0.94101 0.38665 0.79344
 C667 C 0.94499 0.36733 0.77542
 C668 C 0.95480 0.34398 0.78389
 C669 C 0.93864 0.37162 0.74937
 C670 C 0.92781 0.39456 0.74148
 C671 C 0.92341 0.41377 0.75942
 C672 C 0.93072 0.40975 0.78524
 H673 H 0.97220 0.30142 0.80531
 H674 H 0.95731 0.36933 0.86858
 H675 H 0.97249 0.32849 0.88394
 H676 H 0.94353 0.39728 0.83346
 H677 H 0.95784 0.32912 0.77008
 H678 H 0.94150 0.35705 0.73525
 H679 H 0.92218 0.39692 0.72154
 H680 H 0.92807 0.42450 0.79920
 C681 C 0.01134 1.19836 0.84868
 C682 C 0.02326 1.17803 0.83622
 C683 C 0.03519 1.18174 0.81108
 C684 C 0.03509 1.20570 0.79892
 C685 C 0.02372 1.22594 0.81173
 C686 C 0.01175 1.22259 0.83679
 C687 C 0.04744 1.16158 0.79871
 C688 C 0.04851 1.13787 0.81146
 C689 C 0.03673 1.13417 0.83667
 C690 C 0.02389 1.15418 0.84875
 C691 C 0.03838 1.11060 0.84958
 C692 C 0.05196 1.09100 0.83785
 C693 C 0.06385 1.09441 0.81277
 C694 C 0.06164 1.11793 0.79958
 H695 H 0.00188 1.19518 0.86768
 H696 H 0.04430 1.20892 0.77973
 H697 H 0.02496 1.24433 0.80214
 H698 H 0.05660 1.16447 0.77941
 H699 H 0.01486 1.15132 0.86811
 H700 H 0.02959 1.10746 0.86898
 H701 H 0.05359 1.07333 0.84876
 H702 H 0.07023 1.12084 0.78005
 C703 C 0.52914 0.70149 0.33835
 C704 C 0.53543 0.67727 0.33031
 C705 C 0.52288 0.65632 0.34219
 C706 C 0.50472 0.66005 0.36258
 C707 C 0.49871 0.68432 0.37066
 C708 C 0.51054 0.70518 0.35825
 C709 C 0.52859 0.63213 0.33333
 C710 C 0.54688 0.62870 0.31297
 C711 C 0.55980 0.64971 0.30172
 C712 C 0.55394 0.67381 0.31037
 C713 C 0.57845 0.64637 0.28193
 C714 C 0.58418 0.62248 0.27306
 C715 C 0.57108 0.60134 0.28340
 C716 C 0.55248 0.60464 0.30359
 H717 H 0.53867 0.71753 0.32908
 H718 H 0.49500 0.64424 0.37206
 H719 H 0.48429 0.68688 0.38605
 H720 H 0.51878 0.61606 0.34220
 H721 H 0.56371 0.68989 0.30147
 H722 H 0.58875 0.66225 0.27338
 H723 H 0.59921 0.62060 0.25823
 H724 H 0.54216 0.58864 0.31179
 C725 C 0.50958 0.31208 0.17681
 C726 C 0.51928 0.33532 0.18330
 C727 C 0.52935 0.35170 0.16319
 C728 C 0.52900 0.34508 0.13706
 C729 C 0.51931 0.32218 0.13079
 C730 C 0.50991 0.30510 0.15043
 C731 C 0.53997 0.37435 0.16942
 C732 C 0.54082 0.38095 0.19555
 C733 C 0.53016 0.36513 0.21580
 C734 C 0.51940 0.34237 0.20955
 C735 C 0.53091 0.37223 0.24193
 C736 C 0.54284 0.39435 0.24790
 C737 C 0.55429 0.40953 0.22784
 C738 C 0.55273 0.40295 0.20170
 H739 H 0.50205 0.29972 0.19236
 H740 H 0.53645 0.35753 0.12142
 H741 H 0.51948 0.31753 0.11034
 H742 H 0.54798 0.38666 0.15392
 H743 H 0.51153 0.33001 0.22506
 H744 H 0.52271 0.36047 0.25774
 H745 H 0.54386 0.39917 0.26820
 H746 H 0.56123 0.41483 0.18612
 C747 C 0.02719 0.83181 0.65745
 C748 C 0.03433 0.85232 0.67154
 C749 C 0.02544 0.85472 0.69782
 C750 C 0.00912 0.83675 0.70933
 C751 C 0.00234 0.81613 0.69529
 C752 C 0.01224 0.81249 0.66943
 C753 C 0.03296 0.87504 0.71210
 C754 C 0.04973 0.89267 0.70050
 C755 C 0.05855 0.89021 0.67411
 C756 C 0.05053 0.87028 0.65972
 C757 C 0.07576 0.90740 0.66267
 C758 C 0.08472 0.92646 0.67742
 C759 C 0.07628 0.92897 0.70367
 C760 C 0.05839 0.91234 0.71502
 H761 H 0.03345 0.83095 0.63699
 H762 H 0.00152 0.83866 0.72925
 H763 H -0.01105 0.80339 0.70482
 H764 H 0.02617 0.87685 0.73232
 H765 H 0.05741 0.86839 0.63953
 H766 H 0.08270 0.90577 0.64249
 H767 H 0.09845 0.93921 0.66841
 H768 H 0.05204 0.91413 0.73537
 C769 C 0.96652 0.70920 0.65036
 C770 C 0.95909 0.68561 0.66087
 C771 C 0.96718 0.67710 0.68549
 C772 C 0.98251 0.69235 0.69920
 C773 C 0.98971 0.71587 0.68877
 C774 C 0.98200 0.72476 0.66409
 C775 C 0.95951 0.65367 0.69620
 C776 C 0.94341 0.63884 0.68280
 C777 C 0.93522 0.64743 0.65815
 C778 C 0.94328 0.67062 0.64727
 C779 C 0.91863 0.63291 0.64506
 C780 C 0.90967 0.61044 0.65657
 C781 C 0.91755 0.60190 0.68106
 C782 C 0.93472 0.61592 0.69396
 H783 H 0.95904 0.71564 0.63206
 H784 H 0.98900 0.68608 0.71808
 H785 H 1.00216 0.72647 0.69989
 H786 H 0.96568 0.64722 0.71517
 H787 H 0.93692 0.67718 0.62841
 H788 H 0.91213 0.63921 0.62620
 H789 H 0.89627 0.59983 0.64656
 H790 H 0.94049 0.60943 0.71307
 C791 C 0.45239 0.20564 0.16198
 C792 C 0.44519 0.18258 0.17374
 C793 C 0.46094 0.16998 0.19137
 C794 C 0.48337 0.18116 0.19738
 C795 C 0.49051 0.20410 0.18526
 C796 C 0.47528 0.21614 0.16708
 C797 C 0.45423 0.14628 0.20218
 C798 C 0.43215 0.13496 0.19528
 C799 C 0.41631 0.14787 0.17794
 C800 C 0.42281 0.17165 0.16749
 C801 C 0.39437 0.13661 0.17092
 C802 C 0.38831 0.11256 0.18055
 C803 C 0.40403 0.09927 0.19745
 C804 C 0.42583 0.11076 0.20501
 H805 H 0.44032 0.21530 0.14858
 H806 H 0.49566 0.17186 0.21091
 H807 H 0.50832 0.21199 0.18931
 H808 H 0.46640 0.13646 0.21549
 H809 H 0.41075 0.18140 0.15399
 H810 H 0.38198 0.14632 0.15778
 H811 H 0.37118 0.10437 0.17484
 H812 H 0.43817 0.10064 0.21790
 C813 C 0.32864 0.48127 -0.17822
 C814 C 0.31857 0.47251 -0.15372
 C815 C 0.33325 0.47266 -0.13163
 C816 C 0.35772 0.48152 -0.13442
 C817 C 0.36763 0.49010 -0.15887
 C818 C 0.35310 0.49071 -0.18102
 C819 C 0.32355 0.46324 -0.10728
 C820 C 0.29948 0.45320 -0.10483
 C821 C 0.28467 0.45325 -0.12684
 C822 C 0.29423 0.46308 -0.15111
 C823 C 0.26078 0.44287 -0.12435
 C824 C 0.25201 0.43164 -0.10057
 C825 C 0.26685 0.43083 -0.07871
 C826 C 0.29035 0.44233 -0.08089
 H827 H 0.31754 0.48011 -0.19516
 H828 H 0.36939 0.48135 -0.11778
 H829 H 0.38693 0.49581 -0.16041
 H830 H 0.33495 0.46312 -0.09041
 H831 H 0.28294 0.46292 -0.16805
 H832 H 0.24916 0.44275 -0.14102
 H833 H 0.23399 0.42269 -0.09963
 H834 H 0.30183 0.44227 -0.06410
 C835 C 0.83279 0.96390 0.32482
 C836 C 0.82289 0.95480 0.34933
 C837 C 0.83915 0.94566 0.36844
 C838 C 0.86496 0.94630 0.36306
 C839 C 0.87464 0.95532 0.33875
 C840 C 0.85884 0.96392 0.31908
 C841 C 0.82939 0.93562 0.39249
 C842 C 0.80351 0.93445 0.39771
 C843 C 0.78717 0.94409 0.37892
 C844 C 0.79695 0.95428 0.35488
 C845 C 0.76130 0.94291 0.38432
 C846 C 0.75171 0.93164 0.40776
 C847 C 0.76778 0.92132 0.42628
 C848 C 0.79373 0.92321 0.42122
 H849 H 0.81999 0.97042 0.31045
 H850 H 0.87771 0.93949 0.37752
 H851 H 0.89473 0.95520 0.33504
 H852 H 0.84193 0.92834 0.40696
 H853 H 0.78439 0.96138 0.34034
 H854 H 0.74847 0.95039 0.37026
 H855 H 0.73164 0.93084 0.41133
 H856 H 0.80638 0.91507 0.43511
 C857 C 0.83609 0.01507 1.22352
 C858 C 0.82681 0.02441 1.19983
 C859 C 0.83659 0.01499 1.17579
 C860 C 0.85519 -0.00374 1.17582
 C861 C 0.86458 -0.01258 1.19935
 C862 C 0.85536 -0.00311 1.22331
 C863 C 0.82801 0.02475 1.15205
 C864 C 0.81005 0.04413 1.15193
 C865 C 0.80013 0.05350 1.17591
 C866 C 0.80843 0.04345 1.19972
 C867 C 0.78237 0.07308 1.17564
 C868 C 0.77484 0.08357 1.15186
 C869 C 0.78480 0.07461 1.12789
 C870 C 0.80223 0.05464 1.12813
 H871 H 0.82905 0.02259 1.24195
 H872 H 0.86281 -0.01124 1.15760
 H873 H 0.87918 -0.02687 1.19881
 H874 H 0.83566 0.01759 1.13366
 H875 H 0.80093 0.05077 1.21810
 H876 H 0.77450 0.08046 1.19380
 H877 H 0.76112 0.09871 1.15221
 H878 H 0.81028 0.04777 1.10979
 C879 C 0.34652 0.52287 0.70166
 C880 C 0.33348 0.53557 0.68205
 C881 C 0.31671 0.55534 0.68878
 C882 C 0.31319 0.56195 0.71502
 C883 C 0.32614 0.54906 0.73442
 C884 C 0.34291 0.52944 0.72793
 C885 C 0.30374 0.56818 0.66922
 C886 C 0.30724 0.56143 0.64301
 C887 C 0.32382 0.54149 0.63629
 C888 C 0.33688 0.52872 0.65584
 C889 C 0.32708 0.53469 0.61008
 C890 C 0.31418 0.54764 0.59066
 C891 C 0.29789 0.56768 0.59707
 C892 C 0.29444 0.57437 0.62338
 H893 H 0.35910 0.50761 0.69652
 H894 H 0.30047 0.57709 0.72053
 H895 H 0.32332 0.55472 0.75450
 H896 H 0.29096 0.58342 0.67438
 H897 H 0.34969 0.51350 0.65068
 H898 H 0.33969 0.51946 0.60458
 H899 H 0.31733 0.54230 0.57050
 H900 H 0.28162 0.58955 0.62859
 C901 C 0.16093 0.51331 0.32734
 C902 C 0.16838 0.52354 0.35059
 C903 C 0.15016 0.53058 0.37011
 C904 C 0.12489 0.52689 0.36634
 C905 C 0.11763 0.51689 0.34320
 C906 C 0.13541 0.51002 0.32330
 C907 C 0.15741 0.54180 0.39281
 C908 C 0.18266 0.54634 0.39617
 C909 C 0.20097 0.53892 0.37691
 C910 C 0.19373 0.52745 0.35431
 C911 C 0.22619 0.54358 0.38034
 C912 C 0.23315 0.55611 0.40225
 C913 C 0.21504 0.56419 0.42119
 C914 C 0.18981 0.55882 0.41819
 H915 H 0.17512 0.50883 0.31239
 H916 H 0.11067 0.53222 0.38106
 H917 H 0.09786 0.51496 0.34054
 H918 H 0.14335 0.54746 0.40759
 H919 H 0.20778 0.52204 0.33941
 H920 H 0.24051 0.53788 0.36589
 H921 H 0.25276 0.55964 0.40432
 H922 H 0.17563 0.56519 0.43246
 C923 C 0.65985 0.03282 0.83451
 C924 C 0.67444 0.03868 0.85532
 C925 C 0.70028 0.04273 0.85061
 C926 C 0.71106 0.04069 0.82520
 C927 C 0.69634 0.03528 0.80448
 C928 C 0.67050 0.03116 0.80881
 C929 C 0.71476 0.04955 0.87117
 C930 C 0.70355 0.05303 0.89624
 C931 C 0.67773 0.04875 0.90098
 C932 C 0.66339 0.04131 0.88058
 C933 C 0.66650 0.05270 0.92589
 C934 C 0.68049 0.06167 0.94570
 C935 C 0.70612 0.06650 0.94115
 C936 C 0.71761 0.06154 0.91642
 H937 H 0.63992 0.03027 0.83814
 H938 H 0.73082 0.04398 0.82120
 H939 H 0.70542 0.03517 0.78515
 H940 H 0.73456 0.05289 0.86747
 H941 H 0.64353 0.03828 0.88419
 H942 H 0.64671 0.04956 0.92985
 H943 H 0.67094 0.06568 0.96430
 H944 H 0.73740 0.06478 0.91267
 C945 C 0.64371 0.99037 0.70356
 C946 C 0.65292 0.97908 0.68054
 C947 C 0.67539 0.98766 0.66771
 C948 C 0.68799 1.00766 0.67785
 C949 C 0.67896 1.01844 0.70104
 C950 C 0.65699 1.00966 0.71428
 C951 C 0.68531 0.97564 0.64544
 C952 C 0.67337 0.95478 0.63617
 C953 C 0.65074 0.94638 0.64880
 C954 C 0.64053 0.95874 0.67074
 C955 C 0.63905 0.92532 0.63965
 C956 C 0.65002 0.91227 0.61868
 C957 C 0.67278 0.92013 0.60633
 C958 C 0.68412 0.94171 0.61494
 H959 H 0.62692 0.98324 0.71379
 H960 H 0.70518 1.01453 0.66823
 H961 H 0.68935 1.03342 0.70890
 H962 H 0.70269 0.98206 0.63579
 H963 H 0.62334 0.95209 0.68062
 H964 H 0.62166 0.91868 0.64901
 H965 H 0.64074 0.89592 0.61217
 H966 H 0.70183 0.94778 0.60580
 C967 C 0.13826 0.45628 0.21611
 C968 C 0.15124 0.44734 0.19371
 C969 C 0.17489 0.45715 0.18576
 C970 C 0.18533 0.47542 0.20074
 C971 C 0.17236 0.48405 0.22323
 C972 C 0.14863 0.47470 0.23102
 C973 C 0.18764 0.44857 0.16299
 C974 C 0.17715 0.43006 0.14830
 C975 C 0.15370 0.41992 0.15664
 C976 C 0.14084 0.42874 0.17916
 C977 C 0.14349 0.40103 0.14235
 C978 C 0.15638 0.39217 0.12002
 C979 C 0.17953 0.40226 0.11136
 C980 C 0.18979 0.42134 0.12551
 H981 H 0.12012 0.44871 0.22195
 H982 H 0.20345 0.48316 0.19499
 H983 H 0.18063 0.49848 0.23417
 H984 H 0.20572 0.45623 0.15677
 H985 H 0.12277 0.42107 0.18539
 H986 H 0.12558 0.39303 0.14851
 H987 H 0.14813 0.37756 0.10928
 H988 H 0.20778 0.42901 0.11903
 C989 C -0.18463 0.32183 0.46660
 C990 C -0.16147 0.31299 0.45605
 C991 C -0.14530 0.32972 0.44160
 C992 C -0.15207 0.35504 0.43867
 C993 C -0.17488 0.36371 0.44941
 C994 C -0.19187 0.34722 0.46283
 C995 C -0.12256 0.32094 0.43033
 C996 C -0.11558 0.29564 0.43346
 C997 C -0.13129 0.27894 0.44852
 C998 C -0.15420 0.28770 0.45966
 C999 C -0.12383 0.25373 0.45200
 C1000 C -0.10124 0.24510 0.44030
 C1001 C -0.08590 0.26146 0.42474
 C1002 C -0.09312 0.28677 0.42160
 H1003 H -0.19658 0.30886 0.47788
 H1004 H -0.13970 0.36820 0.42806
 H1005 H -0.17946 0.38349 0.44699
 H1006 H -0.11036 0.33379 0.41900
 H1007 H -0.16639 0.27484 0.47097
 H1008 H -0.13555 0.24066 0.46357
 H1009 H -0.09601 0.22549 0.44289
 H1010 H -0.08117 0.29957 0.40991
 C1011 C 0.33098 0.83630 0.95921
 C1012 C 0.35166 0.82468 0.94633
 C1013 C 0.35025 0.79932 0.93954
 C1014 C 0.32806 0.78631 0.94487
 C1015 C 0.30743 0.79807 0.95717
 C1016 C 0.30867 0.82302 0.96563
 C1017 C 0.37083 0.78748 0.92693
 C1018 C 0.39267 0.80085 0.92032
 C1019 C 0.39404 0.82637 0.92657
 C1020 C 0.37362 0.83808 0.93982
 C1021 C 0.41572 0.83978 0.91915
 C1022 C 0.43566 0.82814 0.90528
 C1023 C 0.43453 0.80270 0.89897
 C1024 C 0.41298 0.78914 0.90706
 H1025 H 0.33216 0.85586 0.96409
 H1026 H 0.32646 0.76708 0.93906
 H1027 H 0.29050 0.78734 0.95932
 H1028 H 0.36968 0.76796 0.92183
 H1029 H 0.37471 0.85763 0.94476
 H1030 H 0.41708 0.85940 0.92364
 H1031 H 0.45174 0.83928 0.89904
 H1032 H 0.41189 0.76939 0.90301
 C1033 C 1.20292 0.83318 0.02181
 C1034 C 1.18013 0.82113 0.02811
 C1035 C 1.17709 0.79604 0.02111
 C1036 C 1.19662 0.78352 0.00769
 C1037 C 1.21897 0.79568 0.00099
 C1038 C 1.22278 0.82078 0.00785
 C1039 C 1.15458 0.78379 0.02761
 C1040 C 1.13492 0.79635 0.04100
 C1041 C 1.13765 0.82162 0.04766
 C1042 C 1.16028 0.83385 0.04126
 C1043 C 1.11775 0.83410 0.06090
 C1044 C 1.09565 0.82142 0.06809
 C1045 C 1.09311 0.79607 0.06221
 C1046 C 1.11270 0.78382 0.04821
 H1047 H 1.20474 0.85203 0.02835
 H1048 H 1.19449 0.76432 0.00195
 H1049 H 1.23279 0.78520 -0.01046
 H1050 H 1.15242 0.76443 0.02238
 H1051 H 1.16245 0.85318 0.04655
 H1052 H 1.11946 0.85349 0.06611
 H1053 H 1.08088 0.83119 0.07908
 H1054 H 1.11077 0.76436 0.04327
 C1055 C 0.70061 0.34926 0.52037
 C1056 C 0.67824 0.33728 0.52841
 C1057 C 0.67317 0.31344 0.51893
 C1058 C 0.69052 0.30210 0.50139
 C1059 C 0.71260 0.31434 0.49316
 C1060 C 0.71798 0.33806 0.50254
 C1061 C 0.65081 0.30139 0.52701
 C1062 C 0.63337 0.31301 0.54432
 C1063 C 0.63837 0.33701 0.55357
 C1064 C 0.66080 0.34892 0.54566
 C1065 C 0.62086 0.34869 0.57065
 C1066 C 0.59870 0.33666 0.57876
 C1067 C 0.59359 0.31267 0.57001
 C1068 C 0.61104 0.30100 0.55264
 H1069 H 0.70436 0.36728 0.52825
 H1070 H 0.68688 0.28390 0.49377
 H1071 H 0.72515 0.30533 0.47899
 H1072 H 0.64699 0.28303 0.51982
 H1073 H 0.66463 0.36728 0.55286
 H1074 H 0.62440 0.36706 0.57793
 H1075 H 0.58578 0.34589 0.59245
 H1076 H 0.60720 0.28262 0.54554
 C1077 C 0.32189 0.17911 0.50875
 C1078 C 0.34455 0.18700 0.51829
 C1079 C 0.36118 0.16900 0.52895
 C1080 C 0.35557 0.14352 0.52894
 C1081 C 0.33328 0.13586 0.51934
 C1082 C 0.31579 0.15340 0.50973
 C1083 C 0.38298 0.17669 0.53997
 C1084 C 0.38854 0.20220 0.54051
 C1085 C 0.37262 0.22030 0.52892
 C1086 C 0.35066 0.21259 0.51789
 C1087 C 0.37874 0.24582 0.52915
 C1088 C 0.39991 0.25331 0.54154
 C1089 C 0.41507 0.23542 0.55406
 C1090 C 0.40953 0.20988 0.55306
 H1091 H 0.30919 0.19311 0.50114
 H1092 H 0.36824 0.12948 0.53679
 H1093 H 0.32928 0.11598 0.52008
 H1094 H 0.39539 0.16282 0.54861
 H1095 H 0.33815 0.22648 0.50949
 H1096 H 0.36689 0.25999 0.52023
 H1097 H 0.40397 0.27311 0.54220
 H1098 H 0.42136 0.19604 0.56257
 C1099 C 0.81931 0.66360 0.00375
 C1100 C 0.84020 0.67591 0.01201
 C1101 C 0.83770 0.70075 0.02060
 C1102 C 0.81436 0.71294 0.02034
 C1103 C 0.79354 0.70046 0.01227
 C1104 C 0.79571 0.67560 0.00378
 C1105 C 0.85833 0.71266 0.03014
 C1106 C 0.88128 0.69980 0.03167
 C1107 C 0.88383 0.67506 0.02262
 C1108 C 0.86336 0.66339 0.01260
 C1109 C 0.90660 0.66206 0.02456
 C1110 C 0.92636 0.67301 0.03637
 C1111 C 0.92385 0.69729 0.04607
 C1112 C 0.90145 0.71087 0.04306
 H1113 H 0.82122 0.64424 -0.00198
 H1114 H 0.81205 0.73192 0.02708
 H1115 H 0.77577 0.71023 0.01365
 H1116 H 0.85632 0.73160 0.03711
 H1117 H 0.86526 0.64431 0.00599
 H1118 H 0.90890 0.64315 0.01762
 H1119 H 0.94357 0.66235 0.03832
 H1120 H 0.89931 0.72950 0.05077
 C1121 C 0.68999 0.65685 0.96332
 C1122 C 0.66833 0.66794 0.95358
 C1123 C 0.66019 0.69181 0.96205
 C1124 C 0.67348 0.70380 0.98073
 C1125 C 0.69530 0.69283 0.98995
 C1126 C 0.70421 0.66956 0.98081
 C1127 C 0.63939 0.70359 0.95116
 C1128 C 0.62704 0.69206 0.93140
 C1129 C 0.63494 0.66797 0.92330
 C1130 C 0.65531 0.65594 0.93468
 C1131 C 0.62283 0.65661 0.90333
 C1132 C 0.60370 0.66937 0.89076
 C1133 C 0.59613 0.69359 0.89811
 C1134 C 0.60750 0.70461 0.91891
 H1135 H 0.69621 0.63885 0.95619
 H1136 H 0.66737 0.72196 0.98770
 H1137 H 0.70536 0.70278 1.00403
 H1138 H 0.63335 0.72205 0.95742
 H1139 H 0.66156 0.63762 0.92817
 H1140 H 0.62855 0.63811 0.89700
 H1141 H 0.59494 0.66038 0.87506
 H1142 H 0.60191 0.72337 0.92457
 C1143 C 0.20729 0.15082 0.46575
 C1144 C 0.18509 0.16281 0.45881
 C1145 C 0.18103 0.18843 0.46391
 C1146 C 0.19934 0.20151 0.47619
 C1147 C 0.22134 0.18926 0.48348
 C1148 C 0.22568 0.16370 0.47835
 C1149 C 0.15876 0.20041 0.45669
 C1150 C 0.14050 0.18691 0.44463
 C1151 C 0.14459 0.16114 0.43998
 C1152 C 0.16685 0.14933 0.44695
 C1153 C 0.12640 0.14752 0.42824
 C1154 C 0.10444 0.15934 0.42074
 C1155 C 0.10018 0.18503 0.42480
 C1156 C 0.11829 0.19872 0.43694
 H1157 H 0.20990 0.13138 0.46102
 H1158 H 0.19653 0.22115 0.48044
 H1159 H 0.23462 0.19983 0.49361
 H1160 H 0.15566 0.22014 0.46043
 H1161 H 0.16997 0.12959 0.44318
 H1162 H 0.12929 0.12777 0.42453
 H1163 H 0.09105 0.14848 0.41101
 H1164 H 0.11513 0.21851 0.44031
 C1165 C 0.59578 0.06831 0.72858
 C1166 C 0.58250 0.08979 0.72005
 C1167 C 0.57627 0.10895 0.73776
 C1168 C 0.58319 0.10628 0.76366
 C1169 C 0.59693 0.08529 0.77182
 C1170 C 0.60384 0.06610 0.75442
 C1171 C 0.56375 0.13077 0.72921
 C1172 C 0.55791 0.13407 0.70293
 C1173 C 0.56407 0.11496 0.68514
 C1174 C 0.57609 0.09283 0.69385
 C1175 C 0.55852 0.11854 0.65880
 C1176 C 0.54741 0.14099 0.65007
 C1177 C 0.54139 0.16026 0.66754
 C1178 C 0.54647 0.15644 0.69409
 H1179 H 0.60120 0.05435 0.71442
 H1180 H 0.57836 0.12068 0.77756
 H1181 H 0.60170 0.08405 0.79211
 H1182 H 0.55912 0.14547 0.74286
 H1183 H 0.58095 0.07826 0.68012
 H1184 H 0.56318 0.10416 0.64483
 H1185 H 0.54409 0.14347 0.62945
 H1186 H 0.54163 0.17093 0.70788
 C1187 C 1.09465 0.56001 0.24382
 C1188 C 1.08196 0.57783 0.22858
 C1189 C 1.06298 0.57012 0.21269
 C1190 C 1.05678 0.54465 0.21275
 C1191 C 1.06914 0.52703 0.22856
 C1192 C 1.08819 0.53451 0.24429
 C1193 C 1.05048 0.58802 0.19719
 C1194 C 1.05643 0.61355 0.19787
 C1195 C 1.07507 0.62120 0.21429
 C1196 C 1.08790 0.60328 0.22927
 C1197 C 1.08056 0.64672 0.21555
 C1198 C 1.06780 0.66457 0.20058
 C1199 C 1.04962 0.65719 0.18384
 C1200 C 1.04400 0.63162 0.18251
 H1201 H 1.10971 0.56615 0.25518
 H1202 H 1.04216 0.53839 0.20083
 H1203 H 1.06342 0.50766 0.22875
 H1204 H 1.03603 0.58213 0.18481
 H1205 H 1.10232 0.60917 0.24169
 H1206 H 1.09472 0.65288 0.22810
 H1207 H 1.07249 0.68418 0.20166
 H1208 H 1.02981 0.62589 0.16974
 C1209 C 0.90690 0.91471 0.24396
 C1210 C 0.91962 0.89698 0.22844
 C1211 C 0.93853 0.90480 0.20979
 C1212 C 0.94434 0.93031 0.20699
 C1213 C 0.93140 0.94796 0.22233
 C1214 C 0.91241 0.94052 0.24110
 C1215 C 0.95117 0.88704 0.19414
 C1216 C 0.94483 0.86158 0.19674
 C1217 C 0.92573 0.85384 0.21531
 C1218 C 0.91335 0.87155 0.23111
 C1219 C 0.91919 0.82849 0.21768
 C1220 C 0.93134 0.81092 0.20170
 C1221 C 0.95038 0.81835 0.18320
 C1222 C 0.95712 0.84375 0.18090
 H1223 H 0.89187 0.90818 0.25733
 H1224 H 0.95894 0.93664 0.19291
 H1225 H 0.93713 0.96727 0.21988
 H1226 H 0.96574 0.89303 0.17984
 H1227 H 0.89871 0.86556 0.24536
 H1228 H 0.90462 0.82225 0.23184
 H1229 H 0.92606 0.79142 0.20401
 H1230 H 0.97159 0.84968 0.16647
 C1231 C 0.41325 0.44241 0.74865
 C1232 C 0.42397 0.42354 0.73297
 C1233 C 0.42234 0.42550 0.70548
 C1234 C 0.41083 0.44667 0.69413
 C1235 C 0.40041 0.46543 0.70986
 C1236 C 0.40092 0.46330 0.73728
 C1237 C 0.43202 0.40621 0.68980
 C1238 C 0.44351 0.38501 0.70122
 C1239 C 0.44591 0.38337 0.72862
 C1240 C 0.43605 0.40261 0.74434
 C1241 C 0.45795 0.36238 0.73984
 C1242 C 0.46716 0.34300 0.72412
 C1243 C 0.46419 0.34414 0.69701
 C1244 C 0.45251 0.36533 0.68566
 H1245 H 0.41452 0.44077 0.76971
 H1246 H 0.40963 0.44861 0.67308
 H1247 H 0.39141 0.48124 0.70042
 H1248 H 0.43042 0.40759 0.66874
 H1249 H 0.43756 0.40119 0.76540
 H1250 H 0.46008 0.36086 0.76078
 H1251 H 0.47610 0.32680 0.73322
 H1252 H 0.45050 0.36647 0.66467
 C1253 C 0.40490 0.57004 0.76314
 C1254 C 0.42187 0.58982 0.76311
 C1255 C 0.44775 0.58440 0.76388
 C1256 C 0.45624 0.55935 0.76354
 C1257 C 0.43917 0.53980 0.76369
 C1258 C 0.41351 0.54506 0.76404
 C1259 C 0.46460 0.60398 0.76604
 C1260 C 0.45586 0.62885 0.76791
 C1261 C 0.43013 0.63437 0.76606
 C1262 C 0.41331 0.61483 0.76345
 C1263 C 0.42150 0.65925 0.76793
 C1264 C 0.43796 0.67828 0.77316
 C1265 C 0.46332 0.67279 0.77648
 C1266 C 0.47229 0.64813 0.77290
 H1267 H 0.38498 0.57396 0.76350
 H1268 H 0.47599 0.55487 0.76399
 H1269 H 0.44592 0.52053 0.76446
 H1270 H 0.48436 0.59976 0.76729
 H1271 H 0.39349 0.61900 0.76271
 H1272 H 0.40187 0.66384 0.76642
 H1273 H 0.43056 0.69707 0.77602
 H1274 H 0.49190 0.64377 0.77511
 C1275 C -0.06429 0.02641 0.28842
 C1276 C -0.05247 0.04962 0.28905
 C1277 C -0.05861 0.06919 0.27101
 C1278 C -0.07528 0.06463 0.25158
 C1279 C -0.08681 0.04134 0.25096
 C1280 C -0.08199 0.02243 0.26988
 C1281 C -0.04873 0.09318 0.27332
 C1282 C -0.03283 0.09779 0.29346
 C1283 C -0.02555 0.07779 0.31046
 C1284 C -0.03540 0.05384 0.30813
 C1285 C -0.00923 0.08226 0.33018
 C1286 C -0.00114 0.10655 0.33389
 C1287 C -0.00937 0.12677 0.31810
 C1288 C -0.02478 0.12222 0.29750
 H1289 H -0.06042 0.01170 0.30290
 H1290 H -0.08003 0.07931 0.23743
 H1291 H -0.10051 0.03858 0.23658
 H1292 H -0.05404 0.10840 0.26002
 H1293 H -0.03042 0.03871 0.32171
 H1294 H -0.00332 0.06712 0.34323
 H1295 H 0.01063 0.10973 0.34996
 H1296 H -0.03101 0.13779 0.28515
 C1297 C 0.08772 0.42909 0.27097
 C1298 C 0.07352 0.40747 0.27645
 C1299 C 0.05025 0.40939 0.29076
 C1300 C 0.04115 0.43297 0.29841
 C1301 C 0.05570 0.45426 0.29341
 C1302 C 0.07917 0.45233 0.28014
 C1303 C 0.03715 0.38760 0.29853
 C1304 C 0.04744 0.36391 0.29302
 C1305 C 0.07024 0.36198 0.27791
 C1306 C 0.08295 0.38382 0.26935
 C1307 C 0.08053 0.33820 0.27273
 C1308 C 0.06916 0.31660 0.28375
 C1309 C 0.04722 0.31844 0.29996
 C1310 C 0.03598 0.34213 0.30366
 H1311 H 0.10619 0.42754 0.26142
 H1312 H 0.02337 0.43477 0.30936
 H1313 H 0.04910 0.47212 0.30079
 H1314 H 0.01964 0.38905 0.31008
 H1315 H 0.10076 0.38235 0.25834
 H1316 H 0.09791 0.33636 0.26107
 H1317 H 0.07819 0.29855 0.28066
 H1318 H 0.01882 0.34368 0.31578
 C1319 C 0.61435 0.95646 0.76614
 C1320 C 0.60016 0.93454 0.76846
 C1321 C 0.57483 0.93589 0.77771
 C1322 C 0.56391 0.95933 0.78339
 C1323 C 0.57822 0.98109 0.78094
 C1324 C 0.60355 0.97962 0.77285
 C1325 C 0.56111 0.91375 0.78187
 C1326 C 0.57247 0.89030 0.77709
 C1327 C 0.59749 0.88913 0.76686
 C1328 C 0.61113 0.91125 0.76248
 C1329 C 0.60877 0.86575 0.76198
 C1330 C 0.59584 0.84366 0.76832
 C1331 C 0.57137 0.84446 0.77968
 C1332 C 0.55954 0.86795 0.78331
 H1333 H 0.63397 0.95549 0.75977
 H1334 H 0.54449 0.96076 0.79031
 H1335 H 0.56975 0.99895 0.78611
 H1336 H 0.54187 0.91471 0.78952
 H1337 H 0.63049 0.91027 0.75518
 H1338 H 0.62784 0.86453 0.75388
 H1339 H 0.60521 0.82585 0.76484
 H1340 H 0.54076 0.86887 0.79225
 C1341 C 0.71329 0.60278 0.03929
 C1342 C 0.70505 0.58643 0.06005
 C1343 C 0.72270 0.57219 0.07414
 C1344 C 0.74818 0.57409 0.06688
 C1345 C 0.75622 0.59077 0.04665
 C1346 C 0.73894 0.60557 0.03304
 C1347 C 0.71472 0.55695 0.09581
 C1348 C 0.68937 0.55618 0.10403
 C1349 C 0.67165 0.57003 0.08970
 C1350 C 0.67956 0.58485 0.06763
 C1351 C 0.64636 0.56939 0.09813
 C1352 C 0.63878 0.55584 0.12100
 C1353 C 0.65629 0.54248 0.13580
 C1354 C 0.68156 0.54239 0.12684
 H1355 H 0.69989 0.61431 0.02899
 H1356 H 0.76194 0.56323 0.07735
 H1357 H 0.77607 0.59244 0.04187
 H1358 H 0.72833 0.54632 0.10678
 H1359 H 0.66599 0.59574 0.05688
 H1360 H 0.63251 0.57989 0.08743
 H1361 H 0.61925 0.55653 0.12757
 H1362 H 0.69521 0.53192 0.13785
 C1363 C 0.25045 1.09382 0.56310
 C1364 C 0.23494 1.08363 0.58360
 C1365 C 0.20897 1.08222 0.58069
 C1366 C 0.19896 1.09138 0.55742
 C1367 C 0.21442 1.10241 0.53747
 C1368 C 0.24034 1.10388 0.54007
 C1369 C 0.19340 1.07224 0.60131
 C1370 C 0.20338 1.06456 0.62515
 C1371 C 0.22930 1.06649 0.62820
 C1372 C 0.24498 1.07553 0.60725
 C1373 C 0.23908 1.05977 0.65233
 C1374 C 0.22333 1.05140 0.67337
 C1375 C 0.19752 1.04894 0.67059
 C1376 C 0.18778 1.05541 0.64617
 H1377 H 0.27039 1.09420 0.56538
 H1378 H 0.17905 1.09067 0.55494
 H1379 H 0.20580 1.11042 0.52041
 H1380 H 0.17346 1.07106 0.59903
 H1381 H 0.26489 1.07690 0.60959
 H1382 H 0.25887 1.06142 0.65509
 H1383 H 0.23145 1.04723 0.69196
 H1384 H 0.16807 1.05328 0.64336
 C1385 C 0.24889 0.89581 0.93416
 C1386 C 0.23308 0.91006 0.91822
 C1387 C 0.20733 0.91202 0.92539
 C1388 C 0.19801 0.90053 0.94886
 C1389 C 0.21387 0.88666 0.96481
 C1390 C 0.23950 0.88361 0.95753
 C1391 C 0.19125 0.92516 0.90887
 C1392 C 0.20067 0.93669 0.88539
 C1393 C 0.22661 0.93559 0.87869
 C1394 C 0.24262 0.92218 0.89507
 C1395 C 0.23605 0.94773 0.85554
 C1396 C 0.21991 0.96046 0.83895
 C1397 C 0.19407 0.96095 0.84504
 C1398 C 0.18455 0.94916 0.86838
 H1399 H 0.26861 0.89468 0.92842
 H1400 H 0.17831 0.90186 0.95467
 H1401 H 0.20535 0.87720 0.98199
 H1402 H 0.17141 0.92627 0.91420
 H1403 H 0.26245 0.92099 0.88970
 H1404 H 0.25588 0.94720 0.85017
 H1405 H 0.22752 0.96941 0.82097
 H1406 H 0.16461 0.94974 0.87323
 C1407 C 0.74398 0.41398 0.42168
 C1408 C 0.72890 0.42655 0.40374
 C1409 C 0.70285 0.42842 0.40928
 C1410 C 0.69237 0.41754 0.43263
 C1411 C 0.70743 0.40428 0.44999
 C1412 C 0.73338 0.40215 0.44464
 C1413 C 0.68768 0.44056 0.39109
 C1414 C 0.69816 0.45002 0.36704
 C1415 C 0.72421 0.44779 0.36137
 C1416 C 0.73946 0.43654 0.37999
 C1417 C 0.73450 0.45629 0.33689
 C1418 C 0.71908 0.46650 0.31798
 C1419 C 0.69328 0.46898 0.32354
 C1420 C 0.68294 0.46101 0.34821
 H1421 H 0.76397 0.41312 0.41742
 H1422 H 0.67240 0.41865 0.43712
 H1423 H 0.69851 0.39509 0.46714
 H1424 H 0.66768 0.44202 0.39532
 H1425 H 0.75943 0.43485 0.37564
 H1426 H 0.75439 0.45460 0.33220
 H1427 H 0.72725 0.47253 0.29901
 H1428 H 0.66293 0.46263 0.35235
 C1429 C 0.77885 0.42142 0.53287
 C1430 C 0.78080 0.43195 0.55742
 C1431 C 0.76901 0.42025 0.58001
 C1432 C 0.75445 0.39895 0.57743
 C1433 C 0.75243 0.38875 0.55287
 C1434 C 0.76496 0.39964 0.53062
 C1435 C 0.77261 0.42953 0.60483
 C1436 C 0.78781 0.45038 0.60734
 C1437 C 0.79853 0.46282 0.58462
 C1438 C 0.79498 0.45351 0.55983
 C1439 C 0.81324 0.48398 0.58712
 C1440 C 0.81818 0.49215 0.61189
 C1441 C 0.80865 0.47925 0.63461
 C1442 C 0.79308 0.45860 0.63222
 H1443 H 0.78862 0.42971 0.51563
 H1444 H 0.74522 0.38977 0.59447
 H1445 H 0.74208 0.37164 0.55144
 H1446 H 0.76410 0.42016 0.62219
 H1447 H 0.80375 0.46267 0.54249
 H1448 H 0.82144 0.49383 0.56993
 H1449 H 0.83038 0.50799 0.61330
 H1450 H 0.78553 0.44868 0.64970
 C1451 C 0.29524 -0.12754 0.05269
 C1452 C 0.29895 -0.11269 0.07414
 C1453 C 0.28293 -0.09200 0.07932
 C1454 C 0.26306 -0.08692 0.06315
 C1455 C 0.25942 -0.10185 0.04174
 C1456 C 0.27570 -0.12223 0.03583
 C1457 C 0.28726 -0.07660 0.10034
 C1458 C 0.30756 -0.08167 0.11609
 C1459 C 0.32324 -0.10276 0.11104
 C1460 C 0.31874 -0.11816 0.09027
 C1461 C 0.34353 -0.10789 0.12653
 C1462 C 0.34880 -0.09191 0.14640
 C1463 C 0.33383 -0.07053 0.15130
 C1464 C 0.31285 -0.06577 0.13641
 H1465 H 0.30744 -0.14367 0.04974
 H1466 H 0.25058 -0.07109 0.06676
 H1467 H 0.24455 -0.09632 0.02924
 H1468 H 0.27513 -0.06052 0.10416
 H1469 H 0.33097 -0.13416 0.08634
 H1470 H 0.35560 -0.12406 0.12302
 H1471 H 0.36478 -0.09620 0.15792
 H1472 H 0.30125 -0.04928 0.14003
 C1473 C 0.28789 0.07801 0.44593
 C1474 C 0.28874 0.06620 0.42178
 C1475 C 0.27358 0.07544 0.40169
 C1476 C 0.25713 0.09566 0.40644
 C1477 C 0.25637 0.10723 0.43053
 C1478 C 0.27193 0.09874 0.45025
 C1479 C 0.27573 0.06493 0.37690
 C1480 C 0.29300 0.04543 0.37187
 C1481 C 0.30738 0.03548 0.39229
 C1482 C 0.30509 0.04586 0.41713
 C1483 C 0.32446 0.01587 0.38726
 C1484 C 0.32823 0.00704 0.36197
 C1485 C 0.31496 0.01761 0.34122
 C1486 C 0.29684 0.03638 0.34649
 H1487 H 0.30000 0.07153 0.46114
 H1488 H 0.24542 0.10302 0.39128
 H1489 H 0.24453 0.12362 0.43323
 H1490 H 0.26455 0.07245 0.36133
 H1491 H 0.31657 0.03862 0.43258
 H1492 H 0.33554 0.00793 0.40269
 H1493 H 0.34249 -0.00723 0.35841
 H1494 H 0.28633 0.04447 0.33068
 C1495 C 0.77801 0.59676 0.94014
 C1496 C 0.78145 0.58486 0.91618
 C1497 C 0.76591 0.59144 0.89546
 C1498 C 0.74657 0.60916 0.89950
 C1499 C 0.74340 0.62105 0.92342
 C1500 C 0.75931 0.61519 0.94366
 C1501 C 0.77062 0.58100 0.87081
 C1502 C 0.79093 0.56439 0.86654
 C1503 C 0.80585 0.55721 0.88761
 C1504 C 0.80087 0.56728 0.91231
 C1505 C 0.82616 0.54075 0.88343
 C1506 C 0.83248 0.53248 0.85837
 C1507 C 0.81857 0.54036 0.83699
 C1508 C 0.79726 0.55569 0.84134
 H1509 H 0.79041 0.59241 0.95578
 H1510 H 0.73450 0.61450 0.88387
 H1511 H 0.72937 0.63574 0.92558
 H1512 H 0.75907 0.58648 0.85476
 H1513 H 0.81269 0.56215 0.92825
 H1514 H 0.83764 0.53488 0.89940
 H1515 H 0.84869 0.52028 0.85554
 H1516 H 0.78647 0.56190 0.82495
 C1517 C 0.06096 0.74881 0.60937
 C1518 C 0.07864 0.73463 0.59491
 C1519 C 0.07115 0.72007 0.57433
 C1520 C 0.04586 0.72010 0.56862
 C1521 C 0.02817 0.73413 0.58338
 C1522 C 0.03537 0.74876 0.60410
 C1523 C 0.08902 0.70553 0.56017
 C1524 C 0.11417 0.70514 0.56679
 C1525 C 0.12140 0.71974 0.58758
 C1526 C 0.10369 0.73449 0.60129
 C1527 C 0.14624 0.71914 0.59469
 C1528 C 0.16380 0.70388 0.58167
 C1529 C 0.15699 0.68915 0.56109
 C1530 C 0.13217 0.69009 0.55340
 H1531 H 0.06741 0.75866 0.62575
 H1532 H 0.03972 0.70917 0.55278
 H1533 H 0.00904 0.73396 0.57777
 H1534 H 0.08331 0.69426 0.54438
 H1535 H 0.10937 0.74561 0.61724
 H1536 H 0.15203 0.73025 0.61056
 H1537 H 0.18286 0.70360 0.58767
 H1538 H 0.12682 0.67863 0.53761
 C1539 C 0.55184 0.23797 1.08550
 C1540 C 0.57196 0.22265 1.07711
 C1541 C 0.57182 0.19670 1.08380
 C1542 C 0.55100 0.18642 1.09796
 C1543 C 0.53119 0.20196 1.10668
 C1544 C 0.53182 0.22794 1.10118
 C1545 C 0.59281 0.18170 1.07706
 C1546 C 0.61403 0.19248 1.06410
 C1547 C 0.61379 0.21833 1.05681
 C1548 C 0.59269 0.23318 1.06315
 C1549 C 0.63491 0.22907 1.04382
 C1550 C 0.65635 0.21453 1.03863
 C1551 C 0.65710 0.18897 1.04633
 C1552 C 0.63571 0.17798 1.05881
 H1553 H 0.55228 0.25796 1.08082
 H1554 H 0.55050 0.16655 1.10316
 H1555 H 0.51606 0.19382 1.11889
 H1556 H 0.59291 0.16186 1.08256
 H1557 H 0.59272 0.25310 1.05797
 H1558 H 0.63500 0.24884 1.03808
 H1559 H 0.67263 0.22343 1.02914
 H1560 H 0.63600 0.15819 1.06449
 C1561 C 0.93224 0.24738 0.91704
 C1562 C 0.91510 0.23223 0.93176
 C1563 C 0.92139 0.20700 0.93803
 C1564 C 0.94473 0.19739 0.92933
 C1565 C 0.96136 0.21234 0.91385
 C1566 C 0.95530 0.23748 0.90708
 C1567 C 0.90406 0.19170 0.95239
 C1568 C 0.88015 0.20111 0.95968
 C1569 C 0.87380 0.22628 0.95304
 C1570 C 0.89145 0.24181 0.93961
 C1571 C 0.84969 0.23538 0.95936
 C1572 C 0.83181 0.21964 0.97178
 C1573 C 0.83777 0.19455 0.97886
 C1574 C 0.86228 0.18558 0.97296
 H1575 H 0.92718 0.26682 0.91323
 H1576 H 0.94990 0.17806 0.93393
 H1577 H 0.97865 0.20370 0.90688
 H1578 H 0.90893 0.17232 0.95723
 H1579 H 0.88651 0.26113 0.93456
 H1580 H 0.84444 0.25456 0.95415
 H1581 H 0.81310 0.22713 0.97523
 H1582 H 0.86753 0.16652 0.97852
 C1583 C 0.42691 0.74336 0.40679
 C1584 C 0.40762 0.73302 0.42318
 C1585 C 0.41337 0.71973 0.44652
 C1586 C 0.43824 0.71781 0.45350
 C1587 C 0.45734 0.72842 0.43722
 C1588 C 0.45200 0.74101 0.41349
 C1589 C 0.39423 0.70824 0.46224
 C1590 C 0.36942 0.70991 0.45486
 C1591 C 0.36358 0.72396 0.43197
 C1592 C 0.38272 0.73540 0.41626
 C1593 C 0.33874 0.72589 0.42485
 C1594 C 0.31992 0.71327 0.43973
 C1595 C 0.32566 0.69844 0.46191
 C1596 C 0.35041 0.69723 0.46965
 H1597 H 0.42225 0.75250 0.38842
 H1598 H 0.44297 0.70792 0.47148
 H1599 H 0.47625 0.72670 0.44338
 H1600 H 0.39869 0.69766 0.47993
 H1601 H 0.37829 0.74580 0.39846
 H1602 H 0.33393 0.73670 0.40744
 H1603 H 0.30101 0.71433 0.43333
 H1604 H 0.35490 0.68605 0.48693
 C1605 C 0.56137 0.76795 0.40375
 C1606 C 0.58045 0.77014 0.42116
 C1607 C 0.57498 0.76683 0.44842
 C1608 C 0.55075 0.76023 0.45766
 C1609 C 0.53193 0.75778 0.44012
 C1610 C 0.53698 0.76221 0.41318
 C1611 C 0.59361 0.77081 0.46598
 C1612 C 0.61758 0.77817 0.45658
 C1613 C 0.62331 0.78030 0.42928
 C1614 C 0.60473 0.77619 0.41174
 C1615 C 0.64730 0.78744 0.41995
 C1616 C 0.66505 0.79382 0.43743
 C1617 C 0.65917 0.79310 0.46457
 C1618 C 0.63560 0.78445 0.47404
 H1619 H 0.56538 0.77095 0.38287
 H1620 H 0.54626 0.75742 0.47846
 H1621 H 0.51321 0.75330 0.44764
 H1622 H 0.58926 0.76891 0.48691
 H1623 H 0.60898 0.77843 0.39081
 H1624 H 0.65204 0.78902 0.39909
 H1625 H 0.68295 0.80065 0.42961
 H1626 H 0.63099 0.78358 0.49495
 C1627 C 0.05896 0.28126 -0.10811
 C1628 C 0.07965 0.28268 -0.09268
 C1629 C 0.07863 0.27174 -0.06706
 C1630 C 0.05722 0.25864 -0.05778
 C1631 C 0.03673 0.25714 -0.07343
 C1632 C 0.03726 0.26894 -0.09840
 C1633 C 0.09875 0.27458 -0.05100
 C1634 C 0.11979 0.28830 -0.06026
 C1635 C 0.12112 0.29831 -0.08628
 C1636 C 0.10110 0.29539 -0.10232
 C1637 C 0.14217 0.31178 -0.09564
 C1638 C 0.16129 0.31630 -0.07908
 C1639 C 0.15980 0.30738 -0.05284
 C1640 C 0.13919 0.29286 -0.04373
 H1641 H 0.05960 0.29001 -0.12760
 H1642 H 0.05615 0.24997 -0.03828
 H1643 H 0.02014 0.24752 -0.06569
 H1644 H 0.09778 0.26666 -0.03114
 H1645 H 0.10195 0.30355 -0.12209
 H1646 H 0.14352 0.31949 -0.11555
 H1647 H 0.17675 0.32778 -0.08653
 H1648 H 0.13797 0.28568 -0.02361
 C1649 C 0.44220 0.28463 0.08257
 C1650 C 0.41896 0.28688 0.07145
 C1651 C 0.40240 0.26649 0.07335
 C1652 C 0.41020 0.24363 0.08490
 C1653 C 0.43336 0.24164 0.09624
 C1654 C 0.44900 0.26254 0.09649
 C1655 C 0.37813 0.26963 0.06455
 C1656 C 0.37017 0.29310 0.05442
 C1657 C 0.38729 0.31309 0.05154
 C1658 C 0.41162 0.30974 0.05972
 C1659 C 0.37953 0.33653 0.04156
 C1660 C 0.35471 0.34065 0.03580
 C1661 C 0.33717 0.32139 0.03971
 C1662 C 0.34517 0.29733 0.04818
 H1663 H 0.45454 0.30056 0.08128
 H1664 H 0.39803 0.22755 0.08601
 H1665 H 0.43837 0.22399 0.10564
 H1666 H 0.36517 0.25418 0.06659
 H1667 H 0.42445 0.32531 0.05811
 H1668 H 0.39249 0.35192 0.03897
 H1669 H 0.34905 0.35915 0.02869
 H1670 H 0.33174 0.28239 0.05118
 C1671 C 0.93634 0.80013 0.61382
 C1672 C 0.91403 0.80240 0.60090
 C1673 C 0.90864 0.78516 0.58182
 C1674 C 0.92604 0.76599 0.57586
 C1675 C 0.94838 0.76380 0.58886
 C1676 C 0.95400 0.78080 0.60823
 C1677 C 0.88591 0.78731 0.56930
 C1678 C 0.86856 0.80651 0.57584
 C1679 C 0.87430 0.82377 0.59493
 C1680 C 0.89690 0.82163 0.60725
 C1681 C 0.85729 0.84295 0.60161
 C1682 C 0.83455 0.84494 0.58983
 C1683 C 0.82819 0.82778 0.57113
 C1684 C 0.84549 0.80871 0.56392
 H1685 H 0.93897 0.81306 0.62917
 H1686 H 0.92237 0.75264 0.56111
 H1687 H 0.96126 0.74903 0.58296
 H1688 H 0.88165 0.77399 0.55470
 H1689 H 0.90111 0.83489 0.62194
 H1690 H 0.86153 0.85641 0.61605
 H1691 H 0.82191 0.86017 0.59526
 H1692 H 0.84081 0.79538 0.54951
   
