data_POSCAR
  _audit_creation_date              2014-09-24
  _audit_creation_method            'ToBaCCo'
  _symmetry_space_group_name_H-M    'P1'
  _symmetry_Int_Tables_number       1
  _symmetry_cell_setting            triclinic
  loop_
  _symmetry_equiv_pos_as_xyz
 x,y,z
_cell_length_a 82.5072
_cell_length_b 82.2103
_cell_length_c 83.5230
_cell_angle_alpha 90.317800
_cell_angle_beta 90.398700
_cell_angle_gamma 89.860800
loop_
  _atom_site_label
  _atom_site_type_symbol
  _atom_site_fract_x
  _atom_site_fract_y
  _atom_site_fract_z
N1 N 0.30825 0.42975 0.89937
 N2 N 0.32013 0.44036 0.89917
 C3 C 0.31801 0.45020 0.88638
 C4 C 0.30411 0.44529 0.87818
 C5 C 0.29830 0.43236 0.88689
 H6 H 0.32609 0.45994 0.88311
 H7 H 0.28751 0.42534 0.88440
 Cu8 Cu 0.33714 0.43947 0.91566
 Cu9 Cu 0.30638 0.41290 0.91535
 Cu10 Cu 0.33592 0.41106 0.94481
 N11 N 0.35352 0.43870 0.93272
 N12 N 0.35302 0.42744 0.94383
 C13 C 0.36565 0.42941 0.95391
 C14 C 0.37472 0.44270 0.94901
 C15 C 0.36653 0.44827 0.93545
 H16 H 0.36788 0.42172 0.96412
 H17 H 0.36978 0.45846 0.92803
 N18 N 0.31750 0.39568 0.94363
 N19 N 0.30627 0.39661 0.93237
 C20 C 0.29541 0.38467 0.93446
 C21 C 0.29991 0.37564 0.94767
 C22 C 0.31400 0.38302 0.95325
 H23 H 0.28491 0.38272 0.92690
 H24 H 0.32129 0.37929 0.96339
 H25 H 0.31890 0.42510 0.93351
 H26 H 0.33100 0.41092 0.92074
 N27 N 0.42999 0.84875 0.44308
 N28 N 0.44145 0.84934 0.43226
 C29 C 0.45162 0.86162 0.43599
 C30 C 0.44617 0.86921 0.44991
 C31 C 0.43237 0.86060 0.45396
 H32 H 0.46210 0.86478 0.42900
 H33 H 0.42460 0.86257 0.46413
 Cu34 Cu 0.44183 0.83401 0.41432
 Cu35 Cu 0.41289 0.83261 0.44284
 Cu36 Cu 0.41387 0.80438 0.41225
 N37 N 0.44238 0.81725 0.39763
 N38 N 0.43134 0.80579 0.39722
 C39 C 0.43411 0.79574 0.38489
 C40 C 0.44760 0.80110 0.37684
 C41 C 0.45264 0.81483 0.38530
 H42 H 0.42680 0.78522 0.38211
 H43 H 0.46284 0.82255 0.38262
 N44 N 0.39706 0.80467 0.42845
 N45 N 0.39673 0.81522 0.44038
 C46 C 0.38414 0.81165 0.44991
 C47 C 0.37622 0.79827 0.44352
 C48 C 0.38471 0.79422 0.42993
 H49 H 0.38100 0.81824 0.46068
 H50 H 0.38234 0.78405 0.42201
 H51 H 0.42649 0.81554 0.43105
 H52 H 0.41309 0.82896 0.41860
 N53 N 0.93419 0.89696 0.80781
 N54 N 0.94452 0.89704 0.81983
 C55 C 0.95471 0.88433 0.81829
 C56 C 0.95060 0.87581 0.80451
 C57 C 0.93749 0.88422 0.79816
 H58 H 0.96457 0.88161 0.82644
 H59 H 0.93074 0.88124 0.78740
 Cu60 Cu 0.94389 0.91398 0.83608
 Cu61 Cu 0.91729 0.91343 0.80573
 Cu62 Cu 0.91593 0.94379 0.83495
 N63 N 0.94326 0.93093 0.85227
 N64 N 0.93240 0.94263 0.85195
 C65 C 0.93513 0.95277 0.86445
 C66 C 0.94853 0.94713 0.87305
 C67 C 0.95324 0.93319 0.86485
 H68 H 0.92798 0.96352 0.86689
 H69 H 0.96323 0.92521 0.86769
 N70 N 0.90046 0.94263 0.81670
 N71 N 0.90110 0.93107 0.80568
 C72 C 0.88911 0.93342 0.79496
 C73 C 0.88037 0.94712 0.79933
 C74 C 0.88797 0.95266 0.81320
 H75 H 0.88696 0.92570 0.78468
 H76 H 0.88456 0.96312 0.82032
 H77 H 0.92944 0.93202 0.81776
 H78 H 0.91548 0.91930 0.82986
 N79 N 0.43182 -0.09957 0.31117
 N80 N 0.44296 -0.09818 0.32240
 C81 C 0.45461 -0.10933 0.31990
 C82 C 0.45059 -0.11828 0.30637
 C83 C 0.43596 -0.11173 0.30115
 H84 H 0.46512 -0.11086 0.32753
 H85 H 0.42865 -0.11564 0.29106
 Cu86 Cu 0.44093 -0.08258 0.33973
 Cu87 Cu 0.41243 -0.08598 0.31110
 Cu88 Cu 0.41755 -0.05028 0.33299
 N89 N 0.43940 -0.06500 0.35521
 N90 N 0.42991 -0.05243 0.35260
 C91 C 0.43152 -0.04170 0.36469
 C92 C 0.44270 -0.04787 0.37544
 C93 C 0.44747 -0.06269 0.36906
 H94 H 0.42547 -0.03002 0.36529
 H95 H 0.45630 -0.07102 0.37403
 N96 N 0.40043 -0.05331 0.31698
 N97 N 0.39818 -0.06685 0.30872
 C98 C 0.38498 -0.06502 0.29928
 C99 C 0.37859 -0.04966 0.30203
 C100 C 0.38870 -0.04265 0.31331
 H101 H 0.38019 -0.07428 0.29133
 H102 H 0.38749 -0.03072 0.31867
 H103 H 0.42753 -0.06818 0.31782
 H104 H 0.41308 -0.07461 0.33367
 N105 N 0.80436 0.32249 0.35164
 N106 N 0.81528 0.31092 0.35320
 C107 C 0.81134 0.30158 0.36579
 C108 C 0.79721 0.30764 0.37253
 C109 C 0.79319 0.32095 0.36320
 H110 H 0.81832 0.29125 0.36989
 H111 H 0.78278 0.32883 0.36458
 Cu112 Cu 0.83354 0.30933 0.33855
 Cu113 Cu 0.80528 0.33856 0.33456
 Cu114 Cu 0.83771 0.33596 0.30846
 N115 N 0.85192 0.30807 0.32400
 N116 N 0.85331 0.31844 0.31216
 C117 C 0.86659 0.31469 0.30363
 C118 C 0.87404 0.30125 0.31046
 C119 C 0.86439 0.29743 0.32343
 H120 H 0.87056 0.32131 0.29323
 H121 H 0.86614 0.28743 0.33162
 N122 N 0.82067 0.35281 0.30669
 N123 N 0.80828 0.35368 0.31656
 C124 C 0.79866 0.36616 0.31216
 C125 C 0.80527 0.37357 0.29887
 C126 C 0.81927 0.36478 0.29578
 H127 H 0.78771 0.36970 0.31830
 H128 H 0.82769 0.36681 0.28615
 H129 H 0.81806 0.32436 0.31846
 H130 H 0.83014 0.33798 0.33190
 N131 N -0.18443 0.85128 0.81010
 N132 N -0.19508 0.85102 0.82173
 C133 C -0.20539 0.86363 0.81993
 C134 C -0.20109 0.87233 0.80636
 C135 C -0.18765 0.86401 0.80049
 H136 H -0.21531 0.86617 0.82793
 H137 H -0.18061 0.86693 0.79005
 Cu138 Cu -0.19458 0.83421 0.83819
 Cu139 Cu -0.16703 0.83516 0.80826
 Cu140 Cu -0.16509 0.80618 0.83805
 N141 N -0.19292 0.81778 0.85503
 N142 N -0.18105 0.80711 0.85486
 C143 C -0.18227 0.79729 0.86757
 C144 C -0.19568 0.80188 0.87631
 C145 C -0.20224 0.81495 0.86796
 H146 H -0.17416 0.78727 0.87009
 H147 H -0.21288 0.82192 0.87115
 N148 N -0.14986 0.80681 0.82025
 N149 N -0.15038 0.81773 0.80876
 C150 C -0.13816 0.81464 0.79847
 C151 C -0.12960 0.80112 0.80385
 C152 C -0.13749 0.79655 0.81763
 H153 H -0.13560 0.82176 0.78794
 H154 H -0.13458 0.78632 0.82517
 H155 H -0.17900 0.81711 0.81995
 H156 H -0.16591 0.83095 0.83227
 N157 N 0.94284 0.35162 0.43462
 N158 N 0.93094 0.35101 0.44498
 C159 C 0.93263 0.36323 0.45565
 C160 C 0.94647 0.37199 0.45197
 C161 C 0.95262 0.36416 0.43848
 H162 H 0.92454 0.36531 0.46556
 H163 H 0.96330 0.36736 0.43179
 Cu164 Cu 0.91480 0.33381 0.44401
 Cu165 Cu 0.94474 0.33619 0.41669
 Cu166 Cu 0.91577 0.30575 0.41512
 N167 N 0.89860 0.31659 0.44295
 N168 N 0.89935 0.30560 0.43152
 C169 C 0.88717 0.29498 0.43315
 C170 C 0.87815 0.29945 0.44634
 C171 C 0.88579 0.31326 0.45234
 H172 H 0.88516 0.28465 0.42536
 H173 H 0.88221 0.32041 0.46262
 N174 N 0.93314 0.30763 0.39947
 N175 N 0.94417 0.31920 0.39966
 C176 C 0.95388 0.31711 0.38681
 C177 C 0.94854 0.30358 0.37821
 C178 C 0.93548 0.29793 0.38675
 H179 H 0.96390 0.32495 0.38382
 H180 H 0.92815 0.28743 0.38397
 H181 H 0.92067 0.33074 0.41567
 H182 H 0.93385 0.31759 0.42848
 N183 N 0.44230 0.43309 0.84886
 N184 N 0.43087 0.44425 0.84816
 C185 C 0.43291 0.45488 0.86027
 C186 C 0.44636 0.45024 0.86911
 C187 C 0.45204 0.43633 0.86149
 H188 H 0.42526 0.46534 0.86240
 H189 H 0.46237 0.42900 0.86494
 Cu190 Cu 0.41437 0.44416 0.83155
 Cu191 Cu 0.44362 0.41526 0.83333
 Cu192 Cu 0.41340 0.41409 0.80443
 N193 N 0.39743 0.44290 0.81536
 N194 N 0.39712 0.43086 0.80499
 C195 C 0.38450 0.43276 0.79498
 C196 C 0.37640 0.44680 0.79923
 C197 C 0.38492 0.45298 0.81225
 H198 H 0.38173 0.42474 0.78505
 H199 H 0.38224 0.46395 0.81892
 N200 N 0.43080 0.39814 0.80552
 N201 N 0.44247 0.39835 0.81637
 C202 C 0.45263 0.38581 0.81337
 C203 C 0.44696 0.37742 0.79996
 C204 C 0.43315 0.38569 0.79539
 H205 H 0.46332 0.38304 0.82040
 H206 H 0.42542 0.38305 0.78525
 H207 H 0.43217 0.42740 0.81516
 H208 H 0.41925 0.41510 0.82884
 N209 N 0.80873 0.89503 0.92620
 N210 N 0.81559 0.89789 0.94016
 C211 C 0.80982 0.88714 0.95085
 C212 C 0.79878 0.87702 0.94302
 C213 C 0.79856 0.88241 0.92738
 H214 H 0.81338 0.88677 0.96332
 H215 H 0.79115 0.87798 0.91757
 Cu216 Cu 0.83129 0.91555 0.94255
 Cu217 Cu 0.81236 0.90846 0.90767
 Cu218 Cu 0.82671 0.94668 0.91696
 N219 N 0.84645 0.93378 0.94245
 N220 N 0.84444 0.94597 0.93250
 C221 C 0.85632 0.95690 0.93485
 C222 C 0.86651 0.95128 0.94689
 C223 C 0.85980 0.93654 0.95146
 H224 H 0.85739 0.96807 0.92819
 H225 H 0.86437 0.92830 0.96047
 N226 N 0.81399 0.94197 0.89746
 N227 N 0.80945 0.92711 0.89356
 C228 C 0.80089 0.92753 0.87985
 C229 C 0.79987 0.94350 0.87478
 C230 C 0.80846 0.95233 0.88625
 H231 H 0.79522 0.91697 0.87449
 H232 H 0.81038 0.96533 0.88663
 H233 H 0.83217 0.92312 0.91428
 H234 H 0.81202 0.92718 0.92358
 N235 N 0.30619 0.85222 0.32081
 N236 N 0.31747 0.85310 0.30986
 C237 C 0.31470 0.86639 0.30084
 C238 C 0.30096 0.87420 0.30657
 C239 C 0.29593 0.86482 0.31926
 H240 H 0.32207 0.87010 0.29085
 H241 H 0.28530 0.86673 0.32655
 Cu242 Cu 0.33432 0.83645 0.30835
 Cu243 Cu 0.30482 0.83422 0.33545
 Cu244 Cu 0.33827 0.80866 0.33806
 N245 N 0.35187 0.82057 0.30863
 N246 N 0.35366 0.80988 0.32016
 C247 C 0.36702 0.80082 0.31716
 C248 C 0.37400 0.80619 0.30300
 C249 C 0.36393 0.81872 0.29802
 H250 H 0.37136 0.79113 0.32477
 H251 H 0.36523 0.82601 0.28740
 N252 N 0.32094 0.80949 0.35458
 N253 N 0.30833 0.81930 0.35320
 C254 C 0.29876 0.81772 0.36602
 C255 C 0.30543 0.80624 0.37608
 C256 C 0.31949 0.80113 0.36841
 H257 H 0.28763 0.82441 0.36786
 H258 H 0.32807 0.79217 0.37270
 H259 H 0.33006 0.83237 0.33678
 H260 H 0.31978 0.81641 0.32438
 N261 N 0.80774 0.39750 0.43452
 N262 N 0.81988 0.39886 0.44470
 C263 C 0.81836 0.38744 0.45611
 C264 C 0.80446 0.37849 0.45296
 C265 C 0.79806 0.38526 0.43913
 H266 H 0.82668 0.38583 0.46603
 H267 H 0.78729 0.38143 0.43272
 Cu268 Cu 0.83634 0.41558 0.44193
 Cu269 Cu 0.80533 0.41159 0.41598
 Cu270 Cu 0.83451 0.44144 0.41094
 N271 N 0.85286 0.43218 0.43891
 N272 N 0.85206 0.44229 0.42679
 C273 C 0.86475 0.45255 0.42758
 C274 C 0.87406 0.44874 0.44096
 C275 C 0.86609 0.43569 0.44782
 H276 H 0.86689 0.46219 0.41912
 H277 H 0.86966 0.42918 0.45848
 N278 N 0.81584 0.43854 0.39620
 N279 N 0.80491 0.42700 0.39799
 C280 C 0.79384 0.42812 0.38611
 C281 C 0.79788 0.44105 0.37640
 C282 C 0.81192 0.44735 0.38318
 H283 H 0.78337 0.42033 0.38481
 H284 H 0.81883 0.45757 0.37888
 H285 H 0.82967 0.41699 0.41348
 H286 H 0.81734 0.43140 0.42575
 N287 N 0.92826 0.85064 -0.05897
 N288 N 0.93978 0.85144 -0.06971
 C289 C 0.94925 0.86439 -0.06630
 C290 C 0.94329 0.87205 -0.05265
 C291 C 0.92997 0.86288 -0.04841
 H292 H 0.95961 0.86800 -0.07327
 H293 H 0.92215 0.86473 -0.03826
 Cu294 Cu 0.94052 0.83532 -0.08697
 Cu295 Cu 0.91195 0.83367 -0.05882
 Cu296 Cu 0.91558 0.80315 -0.08733
 N297 N 0.94125 0.81924 -0.10426
 N298 N 0.93129 0.80678 -0.10439
 C299 C 0.93426 0.79750 -0.11737
 C300 C 0.94678 0.80448 -0.12597
 C301 C 0.95086 0.81832 -0.11722
 H302 H 0.92782 0.78640 -0.12019
 H303 H 0.96018 0.82704 -0.11999
 N304 N 0.89808 0.80361 -0.07119
 N305 N 0.89675 0.81541 -0.06051
 C306 C 0.88393 0.81247 -0.05112
 C307 C 0.87672 0.79811 -0.05602
 C308 C 0.88601 0.79284 -0.06887
 H309 H 0.88011 0.82030 -0.04142
 H310 H 0.88422 0.78192 -0.07592
 H311 H 0.92663 0.81650 -0.06916
 H312 H 0.91254 0.82742 -0.08299
 N313 N 0.30830 0.35219 0.82245
 N314 N 0.31930 0.35281 0.81114
 C315 C 0.31666 0.36634 0.80233
 C316 C 0.30333 0.37462 0.80851
 C317 C 0.29843 0.36516 0.82126
 H318 H 0.32391 0.36989 0.79221
 H319 H 0.28826 0.36736 0.82906
 Cu320 Cu 0.33574 0.33554 0.80914
 Cu321 Cu 0.30707 0.33470 0.83808
 Cu322 Cu 0.33604 0.30463 0.83524
 N323 N 0.35260 0.31851 0.80836
 N324 N 0.35207 0.30646 0.81860
 C325 C 0.36445 0.29625 0.81601
 C326 C 0.37362 0.30202 0.80351
 C327 C 0.36565 0.31625 0.79881
 H328 H 0.36653 0.28533 0.82282
 H329 H 0.36918 0.32437 0.78932
 N330 N 0.31905 0.30446 0.85145
 N331 N 0.30794 0.31592 0.85275
 C332 C 0.29839 0.31244 0.86534
 C333 C 0.30386 0.29810 0.87229
 C334 C 0.31693 0.29345 0.86306
 H335 H 0.28841 0.31992 0.86933
 H336 H 0.32442 0.28279 0.86470
 H337 H 0.33128 0.32950 0.83731
 H338 H 0.31760 0.31755 0.82373
 N339 N 0.15091 0.56676 0.55912
 N340 N 0.15130 0.55600 0.57072
 C341 C 0.13866 0.54583 0.56900
 C342 C 0.12983 0.55035 0.55560
 C343 C 0.13801 0.56370 0.54960
 H344 H 0.13619 0.53574 0.57684
 H345 H 0.13475 0.57079 0.53920
 Cu346 Cu 0.16823 0.55600 0.58699
 Cu347 Cu 0.16714 0.58397 0.55729
 Cu348 Cu 0.19714 0.58437 0.58644
 N349 N 0.18490 0.55702 0.60359
 N350 N 0.19625 0.56814 0.60302
 C351 C 0.20615 0.56659 0.61572
 C352 C 0.20076 0.55382 0.62492
 C353 C 0.18722 0.54793 0.61682
 H354 H 0.21651 0.57426 0.61806
 H355 H 0.17949 0.53804 0.62044
 N356 N 0.19631 0.59995 0.56892
 N357 N 0.18485 0.60021 0.55784
 C358 C 0.18758 0.61296 0.54806
 C359 C 0.20139 0.62103 0.55341
 C360 C 0.20656 0.61230 0.56654
 H361 H 0.17994 0.61629 0.53803
 H362 H 0.21706 0.61477 0.57393
 H363 H 0.18505 0.57114 0.56843
 H364 H 0.17221 0.58468 0.58120
 N365 N 0.59951 0.68458 0.05925
 N366 N 0.59852 0.69536 0.07091
 C367 C 0.61057 0.70625 0.06942
 C368 C 0.61972 0.70222 0.05612
 C369 C 0.61227 0.68833 0.04996
 H370 H 0.61258 0.71630 0.07756
 H371 H 0.61584 0.68140 0.03953
 Cu372 Cu 0.58176 0.69417 0.08714
 Cu373 Cu 0.58425 0.66633 0.05725
 Cu374 Cu 0.55443 0.66428 0.08621
 N375 N 0.56452 0.69304 0.10294
 N376 N 0.55410 0.68100 0.10255
 C377 C 0.54375 0.68255 0.11481
 C378 C 0.54779 0.69637 0.12338
 C379 C 0.56103 0.70280 0.11548
 H380 H 0.53387 0.67433 0.11720
 H381 H 0.56775 0.71359 0.11881
 N382 N 0.55638 0.64836 0.06888
 N383 N 0.56753 0.64891 0.05765
 C384 C 0.56527 0.63608 0.04766
 C385 C 0.55213 0.62710 0.05304
 C386 C 0.54686 0.63538 0.06643
 H387 H 0.57272 0.63336 0.03738
 H388 H 0.53664 0.63228 0.07380
 H389 H 0.56559 0.67805 0.06844
 H390 H 0.57921 0.66523 0.08112
 N391 N 0.67773 0.19380 0.64530
 N392 N 0.68923 0.18276 0.64438
 C393 C 0.69819 0.18565 0.63128
 C394 C 0.69189 0.19921 0.62357
 C395 C 0.67890 0.20400 0.63285
 H396 H 0.70851 0.17845 0.62762
 H397 H 0.67114 0.21443 0.63096
 Cu398 Cu 0.69120 0.16589 0.66061
 Cu399 Cu 0.66268 0.19485 0.66300
 Cu400 Cu 0.66655 0.16588 0.69273
 N401 N 0.69333 0.14967 0.67740
 N402 N 0.68366 0.14969 0.68985
 C403 C 0.68770 0.13723 0.69948
 C404 C 0.70064 0.12888 0.69275
 C405 C 0.70385 0.13720 0.67872
 H406 H 0.68157 0.13449 0.71052
 H407 H 0.71315 0.13442 0.67009
 N408 N 0.65004 0.18334 0.69328
 N409 N 0.64857 0.19416 0.68175
 C410 C 0.63665 0.20463 0.68545
 C411 C 0.63026 0.20040 0.70009
 C412 C 0.63899 0.18673 0.70469
 H413 H 0.63293 0.21467 0.67798
 H414 H 0.63762 0.17996 0.71565
 H415 H 0.67779 0.18366 0.67982
 H416 H 0.66322 0.17019 0.66883
 N417 N 1.09967 0.06680 0.19310
 N418 N 1.09891 0.05589 0.18154
 C419 C 1.11127 0.04533 0.18320
 C420 C 1.12046 0.04973 0.19649
 C421 C 1.11265 0.06349 0.20248
 H422 H 1.11329 0.03510 0.17530
 H423 H 1.11608 0.07055 0.21292
 Cu424 Cu 1.08197 0.05617 0.16519
 Cu425 Cu 1.08336 0.08418 0.19517
 Cu426 Cu 1.04965 0.08021 0.17044
 N427 N 1.06389 0.05607 0.15000
 N428 N 1.05130 0.06556 0.15230
 C429 C 1.04041 0.06314 0.14052
 C430 C 1.04641 0.05147 0.13010
 C431 C 1.06139 0.04721 0.13656
 H432 H 1.02888 0.06937 0.13975
 H433 H 1.06985 0.03840 0.13180
 N434 N 1.05220 0.09800 0.18591
 N435 N 1.06499 0.09990 0.19530
 C436 C 1.06295 0.11365 0.20404
 C437 C 1.04826 0.12076 0.19969
 C438 C 1.04188 0.11044 0.18820
 H439 H 1.07161 0.11832 0.21267
 H440 H 1.03051 0.11191 0.18186
 H441 H 1.06644 0.06900 0.18650
 H442 H 1.07478 0.08400 0.17191
 N443 N 0.06818 0.14964 1.05813
 N444 N 0.05640 0.14998 1.06866
 C445 C 0.04599 0.13774 1.06528
 C446 C 0.05156 0.12930 1.05189
 C447 C 0.06570 0.13730 1.04781
 H448 H 0.03516 0.13522 1.07201
 H449 H 0.07372 0.13444 1.03803
 Cu450 Cu 0.05595 0.16672 1.08551
 Cu451 Cu 0.08610 0.16509 1.05820
 Cu452 Cu 0.08612 0.19397 1.08825
 N453 N 0.05655 0.18309 1.10276
 N454 N 0.06847 0.19364 1.10331
 C455 C 0.06642 0.20377 1.11574
 C456 C 0.05249 0.19950 1.12374
 C457 C 0.04644 0.18624 1.11510
 H458 H 0.07456 0.21363 1.11857
 H459 H 0.03558 0.17942 1.11763
 N460 N 0.10311 0.19269 1.07208
 N461 N 0.10316 0.18184 1.06042
 C462 C 0.11626 0.18443 1.05118
 C463 C 0.12485 0.19751 1.05746
 C464 C 0.11611 0.20239 1.07068
 H465 H 0.11937 0.17728 1.04075
 H466 H 0.11887 0.21251 1.07853
 H467 H 0.08516 0.16935 1.08231
 H468 H 0.07356 0.18355 1.06907
 N469 N 0.14710 0.69551 0.68159
 N470 N 0.14774 0.68462 0.69301
 C471 C 0.13519 0.68725 0.70305
 C472 C 0.12633 0.70056 0.69752
 C473 C 0.13435 0.70533 0.68387
 H474 H 0.13275 0.68008 0.71356
 H475 H 0.13126 0.71527 0.67604
 Cu476 Cu 0.16525 0.66846 0.69319
 Cu477 Cu 0.16272 0.69684 0.66456
 Cu478 Cu 0.19342 0.66833 0.66382
 N479 N 0.18231 0.65191 0.69220
 N480 N 0.19318 0.65204 0.68075
 C481 C 0.20341 0.63944 0.68279
 C482 C 0.19880 0.63084 0.69624
 C483 C 0.18533 0.63917 0.70191
 H484 H 0.21353 0.63683 0.67504
 H485 H 0.17814 0.63609 0.71223
 N486 N 0.19138 0.68589 0.64779
 N487 N 0.17945 0.69658 0.64815
 C488 C 0.18095 0.70685 0.63580
 C489 C 0.19448 0.70254 0.62714
 C490 C 0.20087 0.68917 0.63512
 H491 H 0.17288 0.71692 0.63339
 H492 H 0.21151 0.68225 0.63182
 H493 H 0.16899 0.67223 0.66455
 H494 H 0.18209 0.68610 0.67683
 N495 N 1.18312 0.14985 0.19217
 N496 N 1.19416 0.14971 0.18092
 C497 C 1.20402 0.13678 0.18330
 C498 C 1.19863 0.12847 0.19671
 C499 C 1.18546 0.13724 0.20197
 H500 H 1.21411 0.13348 0.17574
 H501 H 1.17809 0.13469 0.21229
 Cu502 Cu 1.19388 0.16656 0.16443
 Cu503 Cu 1.16609 0.16579 0.19350
 Cu504 Cu 1.16410 0.19513 0.16426
 N505 N 1.19219 0.18288 0.14757
 N506 N 1.18063 0.19392 0.14771
 C507 C 1.18232 0.20372 0.13501
 C508 C 1.19568 0.19865 0.12630
 C509 C 1.20162 0.18533 0.13469
 H510 H 1.17442 0.21388 0.13245
 H511 H 1.21202 0.17795 0.13166
 N512 N 1.14861 0.19405 0.18217
 N513 N 1.14959 0.18271 0.19322
 C514 C 1.13749 0.18468 0.20369
 C515 C 1.12829 0.19788 0.19912
 C516 C 1.13572 0.20365 0.18541
 H517 H 1.13556 0.17710 0.21401
 H518 H 1.13187 0.21387 0.17822
 H519 H 1.16510 0.17086 0.16894
 H520 H 1.17805 0.18459 0.18157
 N521 N 0.65102 1.05798 0.56529
 N522 N 0.65111 1.07082 0.55600
 C523 C 0.63864 1.06978 0.54555
 C524 C 0.63034 1.05546 0.54841
 C525 C 0.63858 1.04831 0.56105
 H526 H 0.63595 1.07863 0.53638
 H527 H 0.63569 1.03698 0.56687
 Cu528 Cu 0.66779 1.08739 0.55820
 Cu529 Cu 0.66717 1.05453 0.58196
 Cu530 Cu 0.69523 1.08514 0.58825
 N531 N 0.68553 1.10281 0.56018
 N532 N 0.69592 1.10213 0.57215
 C533 C 0.70683 1.11416 0.57064
 C534 C 0.70315 1.12281 0.55691
 C535 C 0.68954 1.11525 0.55059
 H536 H 0.71692 1.11618 0.57872
 H537 H 0.68298 1.11859 0.53984
 N538 N 0.69264 1.06668 0.60291
 N539 N 0.68204 1.05493 0.60045
 C540 C 0.68350 1.04392 0.61226
 C541 C 0.69576 1.04888 0.62256
 C542 C 0.70124 1.06338 0.61625
 H543 H 0.67640 1.03294 0.61312
 H544 H 0.71082 1.07098 0.62102
 H545 H 0.67093 1.07908 0.58592
 H546 H 0.68577 1.06874 0.57237
 N547 N 0.56304 0.55816 0.14600
 N548 N 0.55189 0.56953 0.14711
 C549 C 0.54162 0.56830 0.13458
 C550 C 0.54646 0.55531 0.12513
 C551 C 0.56012 0.54915 0.13278
 H552 H 0.53124 0.57611 0.13263
 H553 H 0.56752 0.53901 0.12891
 Cu554 Cu 0.55172 0.58444 0.16513
 Cu555 Cu 0.58062 0.55627 0.16174
 Cu556 Cu 0.58222 0.58589 0.19177
 N557 N 0.55357 0.60221 0.18029
 N558 N 0.56534 0.60274 0.19094
 C559 C 0.56345 0.61618 0.20010
 C560 C 0.54977 0.62453 0.19479
 C561 C 0.54390 0.61523 0.18217
 H562 H 0.57151 0.61965 0.20979
 H563 H 0.53324 0.61759 0.17497
 N564 N 0.59802 0.56771 0.19022
 N565 N 0.59739 0.55658 0.17877
 C566 C 0.60964 0.54595 0.18090
 C567 C 0.61848 0.55051 0.19435
 C568 C 0.61071 0.56439 0.19995
 H569 H 0.61185 0.53552 0.17330
 H570 H 0.61413 0.57162 0.21027
 H571 H 0.56947 0.56718 0.18125
 H572 H 0.58085 0.58084 0.16765
 N573 N 0.65323 0.68554 0.19586
 N574 N 0.65243 0.69650 0.18447
 C575 C 0.63969 0.70641 0.18732
 C576 C 0.63213 0.70134 0.20123
 C577 C 0.64115 0.68807 0.20625
 H578 H 0.63611 0.71643 0.17974
 H579 H 0.63921 0.68078 0.21678
 Cu580 Cu 0.66814 0.69661 0.16706
 Cu581 Cu 0.66974 0.66866 0.19675
 Cu582 Cu 0.69653 0.66725 0.16537
 N583 N 0.68315 0.69481 0.14909
 N584 N 0.69383 0.68295 0.14858
 C585 C 0.70271 0.68418 0.13529
 C586 C 0.69752 0.69759 0.12690
 C587 C 0.68507 0.70418 0.13601
 H588 H 0.71268 0.67622 0.13225
 H589 H 0.67802 0.71494 0.13333
 N590 N 0.69765 0.65228 0.18332
 N591 N 0.68742 0.65258 0.19535
 C592 C 0.69133 0.64050 0.20554
 C593 C 0.70468 0.63226 0.19953
 C594 C 0.70833 0.64016 0.18548
 H595 H 0.68478 0.63774 0.21634
 H596 H 0.71807 0.63730 0.17737
 H597 H 0.68671 0.68112 0.18398
 H598 H 0.67231 0.66785 0.17242
 N599 N 0.14605 0.06458 1.05635
 N600 N 0.14742 0.05387 1.06787
 C601 C 0.13585 0.04249 1.06593
 C602 C 0.12676 0.04631 1.05243
 C603 C 0.13362 0.06045 1.04672
 H604 H 0.13427 0.03218 1.07373
 H605 H 0.12989 0.06735 1.03636
 Cu606 Cu 0.16422 0.05567 1.08421
 Cu607 Cu 0.16059 0.08280 1.05422
 Cu608 Cu 0.19239 0.08521 1.08125
 N609 N 0.18261 0.05705 1.09881
 N610 N 0.19358 0.06851 1.09757
 C611 C 0.20486 0.06651 1.10910
 C612 C 0.20079 0.05302 1.11811
 C613 C 0.18656 0.04734 1.11117
 H614 H 0.21524 0.07434 1.11074
 H615 H 0.17951 0.03698 1.11485
 N616 N 0.18903 0.10099 1.06391
 N617 N 0.17661 0.10029 1.05391
 C618 C 0.17765 0.11256 1.04340
 C619 C 0.19147 0.12134 1.04683
 C620 C 0.19841 0.11370 1.05992
 H621 H 0.16929 0.11463 1.03359
 H622 H 0.20948 0.11712 1.06603
 H623 H 0.17996 0.07087 1.06482
 H624 H 0.16755 0.08445 1.07802
 N625 N 0.60188 0.19328 0.57130
 N626 N 0.60234 0.18240 0.55973
 C627 C 0.61491 0.18575 0.55007
 C628 C 0.62280 0.19950 0.55587
 C629 C 0.61411 0.20389 0.56940
 H630 H 0.61811 0.17865 0.53963
 H631 H 0.61639 0.21411 0.57728
 Cu632 Cu 0.58632 0.16501 0.55846
 Cu633 Cu 0.58541 0.19299 0.58798
 Cu634 Cu 0.55678 0.16216 0.58580
 N635 N 0.57020 0.14770 0.55739
 N636 N 0.55863 0.14668 0.56807
 C637 C 0.54927 0.13369 0.56461
 C638 C 0.55527 0.12608 0.55100
 C639 C 0.56858 0.13539 0.54679
 H640 H 0.53900 0.12997 0.57165
 H641 H 0.57650 0.13340 0.53672
 N642 N 0.55692 0.17894 0.60286
 N643 N 0.56781 0.19065 0.60372
 C644 C 0.56470 0.20001 0.61666
 C645 C 0.55118 0.19394 0.62439
 C646 C 0.54662 0.18056 0.61523
 H647 H 0.57185 0.21041 0.62025
 H648 H 0.53651 0.17257 0.61735
 H649 H 0.58107 0.16829 0.58703
 H650 H 0.56778 0.18150 0.57444
 N651 N 0.09913 0.56104 0.69554
 N652 N 0.09790 0.54957 0.68461
 C653 C 0.10998 0.53876 0.68661
 C654 C 0.11926 0.54363 0.69961
 C655 C 0.11202 0.55786 0.70500
 H656 H 0.11170 0.52801 0.67929
 H657 H 0.11589 0.56539 0.71495
 Cu658 Cu 0.08036 0.54953 0.66919
 Cu659 Cu 0.08369 0.57898 0.69669
 Cu660 Cu 0.05489 0.58138 0.66616
 N661 N 0.06675 0.55250 0.65055
 N662 N 0.05644 0.56465 0.64939
 C663 C 0.04826 0.56322 0.63540
 C664 C 0.05394 0.54950 0.62739
 C665 C 0.06568 0.54308 0.63742
 H666 H 0.03902 0.57160 0.63129
 H667 H 0.07272 0.53216 0.63547
 N668 N 0.05583 0.59695 0.68437
 N669 N 0.06698 0.59610 0.69577
 C670 C 0.06455 0.60822 0.70636
 C671 C 0.05121 0.61720 0.70152
 C672 C 0.04597 0.60967 0.68751
 H673 H 0.07180 0.61018 0.71701
 H674 H 0.03582 0.61326 0.68008
 H675 H 0.06402 0.56827 0.68506
 H676 H 0.07896 0.57889 0.67211
 N677 N 0.65021 0.55731 0.06499
 N678 N 0.65177 0.56847 0.05395
 C679 C 0.64042 0.56622 0.04257
 C680 C 0.63120 0.55291 0.04663
 C681 C 0.63778 0.54748 0.06096
 H682 H 0.63894 0.57373 0.03208
 H683 H 0.63364 0.53740 0.06810
 Cu684 Cu 0.66800 0.58522 0.05578
 Cu685 Cu 0.66430 0.55682 0.08376
 Cu686 Cu 0.69397 0.58695 0.08687
 N687 N 0.68413 0.60205 0.05737
 N688 N 0.69434 0.60312 0.06947
 C689 C 0.70352 0.61659 0.06750
 C690 C 0.69853 0.62430 0.05347
 C691 C 0.68636 0.61457 0.04743
 H692 H 0.71277 0.62068 0.07581
 H693 H 0.67953 0.61652 0.03654
 N694 N 0.69119 0.56935 0.10300
 N695 N 0.67967 0.55826 0.10179
 C696 C 0.68052 0.54827 0.11445
 C697 C 0.69322 0.55310 0.12419
 C698 C 0.69979 0.56650 0.11654
 H699 H 0.67267 0.53797 0.11631
 H700 H 0.70996 0.57371 0.12063
 H701 H 0.66976 0.58157 0.08467
 H702 H 0.68418 0.56826 0.07360
 N703 N 0.07136 0.69616 0.59854
 N704 N 0.05937 0.68568 0.59907
 C705 C 0.05016 0.68898 0.61195
 C706 C 0.05671 0.70224 0.61999
 C707 C 0.07022 0.70643 0.61113
 H708 H 0.03954 0.68217 0.61529
 H709 H 0.07842 0.71642 0.61347
 Cu710 Cu 0.05687 0.66881 0.58279
 Cu711 Cu 0.08719 0.69591 0.58119
 Cu712 Cu 0.08266 0.66587 0.55206
 N713 N 0.05438 0.65193 0.56650
 N714 N 0.06447 0.65092 0.55442
 C715 C 0.06003 0.63842 0.54487
 C716 C 0.04643 0.63112 0.55132
 C717 C 0.04323 0.64004 0.56508
 H718 H 0.06638 0.63480 0.53414
 H719 H 0.03343 0.63811 0.57336
 N720 N 0.10025 0.68210 0.55172
 N721 N 0.10191 0.69363 0.56268
 C722 C 0.11476 0.70293 0.55889
 C723 C 0.12159 0.69694 0.54492
 C724 C 0.11205 0.68371 0.54077
 H725 H 0.11895 0.71321 0.56588
 H726 H 0.11348 0.67594 0.53040
 H727 H 0.07229 0.68531 0.56412
 H728 H 0.08543 0.67138 0.57609
 N729 N 0.56668 1.05390 0.64951
 N730 N 0.55574 1.06552 0.64928
 C731 C 0.54561 1.06326 0.63689
 C732 C 0.55011 1.04926 0.62879
 C733 C 0.56366 1.04361 0.63720
 H734 H 0.53548 1.07113 0.63427
 H735 H 0.57085 1.03292 0.63459
 Cu736 Cu 0.55507 1.08216 0.66550
 Cu737 Cu 0.58395 1.05360 0.66592
 Cu738 Cu 0.58252 1.08475 0.69461
 N739 N 0.55480 1.10014 0.68031
 N740 N 0.56494 1.10059 0.69247
 C741 C 0.56119 1.11342 0.70184
 C742 C 0.54811 1.12158 0.69496
 C743 C 0.54457 1.11283 0.68120
 H744 H 0.56772 1.11666 0.71266
 H745 H 0.53478 1.11505 0.67283
 N746 N 0.59933 1.06762 0.69447
 N747 N 0.60005 1.05586 0.68365
 C748 C 0.61307 1.04644 0.68690
 C749 C 0.62094 1.05256 0.70041
 C750 C 0.61179 1.06599 0.70480
 H751 H 0.61662 1.03596 0.67988
 H752 H 0.61400 1.07405 0.71481
 H753 H 0.57125 1.06530 0.68346
 H754 H 0.58389 1.07834 0.67044
 N755 N 0.43985 0.35201 0.93291
 N756 N 0.42627 0.35368 0.94080
 C757 C 0.42759 0.36612 0.95119
 C758 C 0.44297 0.37274 0.94978
 C759 C 0.45038 0.36340 0.93796
 H760 H 0.41806 0.36979 0.95925
 H761 H 0.46240 0.36478 0.93315
 Cu762 Cu 0.40832 0.33922 0.93715
 Cu763 Cu 0.44259 0.33539 0.91653
 Cu764 Cu 0.41339 0.30523 0.91479
 N765 N 0.39440 0.32068 0.93929
 N766 N 0.39627 0.30722 0.93094
 C767 C 0.38521 0.29630 0.93588
 C768 C 0.37607 0.30338 0.94806
 C769 C 0.38235 0.31886 0.94977
 H770 H 0.38405 0.28412 0.93109
 H771 H 0.37883 0.32812 0.95828
 N772 N 0.43198 0.30617 0.89979
 N773 N 0.44307 0.31768 0.90074
 C774 C 0.45375 0.31572 0.88884
 C775 C 0.44932 0.30232 0.87975
 C776 C 0.43540 0.29652 0.88711
 H777 H 0.46384 0.32375 0.88681
 H778 H 0.42810 0.28627 0.88335
 H779 H 0.41821 0.32943 0.91155
 H780 H 0.42800 0.31908 0.92911
 N781 N 0.94178 0.43240 0.35138
 N782 N 0.93111 0.44425 0.35070
 C783 C 0.93294 0.45410 0.36340
 C784 C 0.94569 0.44841 0.37269
 C785 C 0.95108 0.43453 0.36460
 H786 H 0.92566 0.46484 0.36536
 H787 H 0.96076 0.42641 0.36815
 Cu788 Cu 0.91596 0.44653 0.33329
 Cu789 Cu 0.94189 0.41494 0.33522
 Cu790 Cu 0.90950 0.41548 0.30830
 N791 N 0.89674 0.44555 0.32019
 N792 N 0.89420 0.43336 0.31029
 C793 C 0.88035 0.43603 0.30214
 C794 C 0.87388 0.45069 0.30730
 C795 C 0.88459 0.45637 0.31882
 H796 H 0.87545 0.42796 0.29308
 H797 H 0.88388 0.46771 0.32540
 N798 N 0.92631 0.39857 0.30812
 N799 N 0.93896 0.39853 0.31790
 C800 C 0.94867 0.38594 0.31391
 C801 C 0.94166 0.37767 0.30111
 C802 C 0.92753 0.38603 0.29782
 H803 H 0.95995 0.38297 0.31988
 H804 H 0.91903 0.38346 0.28825
 H805 H 0.93044 0.42689 0.31675
 H806 H 0.91733 0.41710 0.33206
 N807 N 0.30923 0.92937 0.39392
 N808 N 0.32071 0.94036 0.39316
 C809 C 0.31791 0.94982 0.38023
 C810 C 0.30389 0.94440 0.37249
 C811 C 0.29882 0.93140 0.38165
 H812 H 0.32551 0.95984 0.37670
 H813 H 0.28826 0.92390 0.37965
 Cu814 Cu 0.33799 0.94089 0.40942
 Cu815 Cu 0.30850 0.91303 0.41060
 Cu816 Cu 0.33831 0.91383 0.43994
 N817 N 0.35454 0.94157 0.42633
 N818 N 0.35458 0.93109 0.43817
 C819 C 0.36718 0.93438 0.44803
 C820 C 0.37563 0.94769 0.44212
 C821 C 0.36712 0.95184 0.42827
 H822 H 0.36992 0.92750 0.45869
 H823 H 0.36979 0.96164 0.42015
 N824 N 0.32068 0.89737 0.43944
 N825 N 0.30939 0.89733 0.42819
 C826 C 0.29918 0.88492 0.43071
 C827 C 0.30413 0.87650 0.44419
 C828 C 0.31786 0.88482 0.44947
 H829 H 0.28882 0.88225 0.42320
 H830 H 0.32533 0.88187 0.45974
 H831 H 0.32068 0.92660 0.42820
 H832 H 0.33333 0.91239 0.41600
 O833 O 0.20512 0.52061 0.75594
 O834 O 0.21293 0.52036 0.78355
 O835 O 0.24357 0.54561 0.73341
 O836 O 0.27069 0.54347 0.73198
 O837 O 0.22577 0.50121 0.71331
 O838 O 0.22992 0.47309 0.71961
 O839 O 0.29327 0.50596 0.77263
 O840 O 0.28624 0.53365 0.76971
 O841 O 0.25647 0.48302 0.79600
 O842 O 0.22650 0.48193 0.79288
 O843 O 0.27444 0.46267 0.75472
 O844 O 0.27057 0.46750 0.72595
 O845 O 0.29328 0.48576 0.75393
 O846 O 0.28547 0.48702 0.72435
 O847 O 0.25683 0.46147 0.77544
 O848 O 0.22615 0.46473 0.77531
 O849 O 0.27425 0.50403 0.79467
 O850 O 0.26805 0.53355 0.78940
 O851 O 0.20530 0.50081 0.73677
 O852 O 0.21342 0.47231 0.73907
 O853 O 0.24342 0.52235 0.71187
 O854 O 0.27319 0.52219 0.71601
 O855 O 0.22550 0.54476 0.75385
 O856 O 0.23009 0.53949 0.78245
 Zr857 Zr 0.22924 0.52159 0.76420
 O858 O 0.24562 0.50859 0.77882
 Zr859 Zr 0.25541 0.52298 0.73417
 O860 O 0.27315 0.51054 0.74761
 Zr861 Zr 0.22936 0.49222 0.73661
 O862 O 0.24608 0.47812 0.74973
 Zr863 Zr 0.26936 0.51452 0.77217
 O864 O 0.25300 0.52888 0.75865
 Zr865 Zr 0.24363 0.48350 0.77420
 O866 O 0.22560 0.49636 0.76120
 Zr867 Zr 0.26978 0.48542 0.74423
 O868 O 0.25308 0.49793 0.72943
 O869 O 0.23175 0.51713 0.73989
 O870 O 0.26732 0.48952 0.76865
 C871 C 0.19823 0.51213 0.74485
 C872 C 0.23204 0.55182 0.74176
 C873 C 0.23220 0.51325 0.70595
 C874 C 0.30006 0.49415 0.76512
 C875 C 0.26827 0.49153 0.80165
 C876 C 0.26855 0.45563 0.76707
 H877 H 0.24357 0.51113 0.79020
 H878 H 0.24435 0.46645 0.74741
 H879 H 0.22386 0.52336 0.73340
 H880 H 0.28411 0.51409 0.74446
 H881 H 0.28032 0.54284 0.76474
 H882 H 0.28083 0.54103 0.73788
 H883 H 0.22827 0.45703 0.76642
 H884 H 0.20855 0.47331 0.74982
 H885 H 0.26039 0.53031 0.79786
 H886 H 0.23996 0.54602 0.78055
 H887 H 0.26135 0.46005 0.72758
 H888 H 0.24022 0.47424 0.71372
 H889 H 0.20912 0.50896 0.78395
 H890 H 0.22745 0.49191 0.79949
 H891 H 0.27164 0.51184 0.71008
 H892 H 0.29291 0.49625 0.72624
 O893 O 0.21096 0.02400 0.24732
 O894 O 0.21957 0.02382 0.27461
 O895 O 0.25275 0.04141 0.22264
 O896 O 0.27851 0.03452 0.21978
 O897 O 0.22674 -0.00063 0.20531
 O898 O 0.22660 -0.02880 0.21307
 O899 O 0.29614 -0.00397 0.26226
 O900 O 0.29350 0.02477 0.25779
 O901 O 0.25759 -0.01912 0.28808
 O902 O 0.22796 -0.01619 0.28596
 O903 O 0.27060 -0.04408 0.24690
 O904 O 0.26646 -0.04029 0.21828
 O905 O 0.29288 -0.02464 0.24434
 O906 O 0.28393 -0.02320 0.21499
 O907 O 0.25438 -0.04141 0.26862
 O908 O 0.22410 -0.03366 0.26886
 O909 O 0.27809 -0.00105 0.28490
 O910 O 0.27667 0.02843 0.27812
 O911 O 0.20725 0.00338 0.22939
 O912 O 0.21109 -0.02593 0.23299
 O913 O 0.24716 0.01759 0.20214
 O914 O 0.27674 0.01214 0.20520
 O915 O 0.23498 0.04410 0.24325
 O916 O 0.23949 0.03978 0.27212
 Zr917 Zr 0.23525 0.02136 0.25484
 O918 O 0.25003 0.00679 0.26966
 Zr919 Zr 0.26021 0.01708 0.22391
 O920 O 0.27640 0.00286 0.23750
 Zr921 Zr 0.22978 -0.00893 0.22894
 O922 O 0.24480 -0.02475 0.24225
 Zr923 Zr 0.27409 0.00861 0.26192
 O924 O 0.25959 0.02455 0.24813
 Zr925 Zr 0.24419 -0.01791 0.26652
 O926 O 0.22773 -0.00310 0.25343
 Zr927 Zr 0.26910 -0.02152 0.23553
 O928 O 0.25379 -0.00745 0.22063
 O929 O 0.23613 0.01539 0.23073
 O930 O 0.26825 -0.01588 0.25980
 C931 C 0.20230 0.01611 0.23702
 C932 C 0.24243 0.04955 0.23088
 C933 C 0.23448 0.01000 0.19711
 C934 C 0.30102 -0.01694 0.25513
 C935 C 0.27067 -0.01205 0.29288
 C936 C 0.26462 -0.04935 0.26002
 H937 H 0.24883 0.01021 0.28094
 H938 H 0.24123 -0.03611 0.24063
 H939 H 0.22905 0.02250 0.22421
 H940 H 0.28766 0.00448 0.23388
 H941 H 0.28882 0.03437 0.25230
 H942 H 0.28841 0.03081 0.22544
 H943 H 0.22536 -0.04264 0.26103
 H944 H 0.20705 -0.02380 0.24394
 H945 H 0.26840 0.02738 0.28657
 H946 H 0.25011 0.04465 0.26955
 H947 H 0.25604 -0.04579 0.22033
 H948 H 0.23661 -0.02953 0.20665
 H949 H 0.21408 0.01320 0.27578
 H950 H 0.22986 -0.00561 0.29134
 H951 H 0.27297 0.00212 0.19971
 H952 H 0.29286 -0.01528 0.21625
 O953 O 0.54777 0.73854 0.24587
 O954 O 0.54466 0.74100 0.27447
 O955 O 0.50704 0.71136 0.23123
 O956 O 0.47990 0.71304 0.23318
 O957 O 0.52014 0.75451 0.20599
 O958 O 0.51658 0.78272 0.21079
 O959 O 0.46323 0.75364 0.27491
 O960 O 0.47016 0.72592 0.27272
 O961 O 0.50377 0.77861 0.29083
 O962 O 0.53151 0.78036 0.28349
 O963 O 0.47810 0.79550 0.25090
 O964 O 0.47657 0.78799 0.22273
 O965 O 0.45955 0.77255 0.25549
 O966 O 0.46224 0.76797 0.22499
 O967 O 0.49868 0.79835 0.26891
 O968 O 0.52947 0.79509 0.26389
 O969 O 0.48611 0.75759 0.29315
 O970 O 0.49156 0.72747 0.28893
 O971 O 0.54432 0.75703 0.22595
 O972 O 0.53551 0.78569 0.22787
 O973 O 0.50337 0.73271 0.20824
 O974 O 0.47431 0.73313 0.21670
 O975 O 0.52802 0.71416 0.24886
 O976 O 0.52817 0.72165 0.27709
 Zr977 Zr 0.52546 0.73803 0.25782
 O978 O 0.51137 0.75191 0.27375
 Zr979 Zr 0.49485 0.73386 0.23204
 O980 O 0.47910 0.74701 0.24721
 Zr981 Zr 0.52018 0.76514 0.22884
 O982 O 0.50529 0.77992 0.24324
 Zr983 Zr 0.48696 0.74520 0.27109
 O984 O 0.50125 0.73001 0.25624
 Zr985 Zr 0.51206 0.77656 0.26726
 O986 O 0.52811 0.76296 0.25274
 Zr987 Zr 0.48110 0.77185 0.24190
 O988 O 0.49569 0.75857 0.22561
 O989 O 0.51898 0.74051 0.23394
 O990 O 0.48780 0.76986 0.26581
 C991 C 0.55278 0.74633 0.23354
 C992 C 0.51987 0.70603 0.23836
 C993 C 0.51325 0.74170 0.20034
 C994 C 0.45487 0.76483 0.26802
 C995 C 0.49319 0.77043 0.29855
 C996 C 0.48579 0.80348 0.26177
 H997 H 0.51535 0.75029 0.28481
 H998 H 0.50636 0.79138 0.23991
 H999 H 0.52590 0.73387 0.22682
 H1000 H 0.46785 0.74305 0.24604
 H1001 H 0.47509 0.71647 0.26717
 H1002 H 0.47097 0.71563 0.24062
 H1003 H 0.52499 0.80291 0.25605
 H1004 H 0.54277 0.78513 0.23733
 H1005 H 0.50026 0.73153 0.29609
 H1006 H 0.51819 0.71501 0.27730
 H1007 H 0.48599 0.79536 0.22200
 H1008 H 0.50534 0.78125 0.20682
 H1009 H 0.54905 0.75205 0.27279
 H1010 H 0.53370 0.76989 0.28886
 H1011 H 0.47481 0.74290 0.20985
 H1012 H 0.45489 0.75959 0.22928
 O1013 O 0.03586 0.72270 0.74900
 O1014 O 0.02774 0.72436 0.77635
 O1015 O -0.00581 0.70363 0.72523
 O1016 O -0.03227 0.70982 0.72330
 O1017 O 0.01880 0.74442 0.70599
 O1018 O 0.01858 0.77313 0.71224
 O1019 O -0.04893 0.75146 0.76418
 O1020 O -0.04690 0.72261 0.76044
 O1021 O -0.00968 0.76754 0.78844
 O1022 O 0.02012 0.76418 0.78572
 O1023 O -0.02387 0.79046 0.74657
 O1024 O -0.02041 0.78463 0.71767
 O1025 O -0.04633 0.77100 0.74523
 O1026 O -0.03872 0.76810 0.71603
 O1027 O -0.00683 0.78881 0.76800
 O1028 O 0.02307 0.78120 0.76836
 O1029 O -0.02997 0.74899 0.78643
 O1030 O -0.02920 0.71943 0.78050
 O1031 O 0.03881 0.74255 0.73038
 O1032 O 0.03473 0.77181 0.73189
 O1033 O -0.00215 0.72659 0.70374
 O1034 O -0.03150 0.73127 0.70741
 O1035 O 0.01230 0.70216 0.74587
 O1036 O 0.00804 0.70780 0.77444
 Zr1037 Zr 0.01172 0.72545 0.75653
 O1038 O -0.00271 0.74072 0.77093
 Zr1039 Zr -0.01415 0.72783 0.72590
 O1040 O -0.02999 0.74290 0.73907
 Zr1041 Zr 0.01615 0.75433 0.72921
 O1042 O 0.00162 0.77080 0.74221
 Zr1043 Zr -0.02701 0.73851 0.76365
 O1044 O -0.01284 0.72177 0.75040
 Zr1045 Zr 0.00305 0.76520 0.76671
 O1046 O 0.01908 0.74983 0.75386
 Zr1047 Zr -0.02288 0.76723 0.73607
 O1048 O -0.00811 0.75225 0.72149
 O1049 O 0.01010 0.73011 0.73219
 O1050 O -0.02123 0.76286 0.76052
 C1051 C 0.04415 0.73034 0.73846
 C1052 C 0.00488 0.69602 0.73365
 C1053 C 0.01052 0.73368 0.69822
 C1054 C -0.05407 0.76404 0.75659
 C1055 C -0.02238 0.76043 0.79385
 C1056 C -0.01730 0.79638 0.75931
 H1057 H -0.00116 0.73787 0.78231
 H1058 H 0.00515 0.78206 0.74007
 H1059 H 0.01714 0.72282 0.72583
 H1060 H -0.04136 0.74108 0.73573
 H1061 H -0.04256 0.71254 0.75548
 H1062 H -0.04209 0.71391 0.72873
 H1063 H 0.02200 0.78931 0.75971
 H1064 H 0.03904 0.77063 0.74292
 H1065 H -0.02029 0.72046 0.78841
 H1066 H -0.00254 0.70263 0.77207
 H1067 H -0.01036 0.79083 0.71982
 H1068 H 0.00834 0.77334 0.70599
 H1069 H 0.03335 0.73499 0.77684
 H1070 H 0.01774 0.75440 0.79212
 H1071 H -0.02849 0.74136 0.70175
 H1072 H -0.04735 0.75995 0.71763
 O1073 O 0.03717 0.02419 0.00066
 O1074 O 0.02808 0.02600 -0.02677
 O1075 O -0.00423 0.04104 0.02655
 O1076 O -0.03092 0.03436 0.02738
 O1077 O 0.02107 -0.00132 0.04142
 O1078 O 0.02038 -0.02940 0.03262
 O1079 O -0.04788 -0.00315 -0.01677
 O1080 O -0.04583 0.02532 -0.01014
 O1081 O -0.00845 -0.01618 -0.04256
 O1082 O 0.02180 -0.01173 -0.03935
 O1083 O -0.02170 -0.04322 -0.00446
 O1084 O -0.01706 -0.04066 0.02571
 O1085 O -0.04451 -0.02424 0.00041
 O1086 O -0.03645 -0.02570 0.02863
 O1087 O -0.00382 -0.03946 -0.02466
 O1088 O 0.02492 -0.03121 -0.02484
 O1089 O -0.02933 0.00148 -0.03887
 O1090 O -0.02898 0.03034 -0.03030
 O1091 O 0.04056 0.00270 0.01744
 O1092 O 0.03667 -0.02611 0.01338
 O1093 O 0.00027 0.01643 0.04537
 O1094 O -0.02910 0.01152 0.04178
 O1095 O 0.01343 0.04470 0.00609
 O1096 O 0.00879 0.04237 -0.02251
 Zr1097 Zr 0.01280 0.02262 -0.00686
 O1098 O -0.00172 0.00887 -0.02270
 Zr1099 Zr -0.01245 0.01693 0.02338
 O1100 O -0.02825 0.00293 0.00883
 Zr1101 Zr 0.01798 -0.00899 0.01749
 O1102 O 0.00371 -0.02412 0.00273
 Zr1103 Zr -0.02598 0.00986 -0.01522
 O1104 O -0.01172 0.02536 -0.00042
 Zr1105 Zr 0.00476 -0.01575 -0.02095
 O1106 O 0.02065 -0.00179 -0.00652
 Zr1107 Zr -0.02073 -0.02155 0.00917
 O1108 O -0.00618 -0.00785 0.02530
 O1109 O 0.01169 0.01543 0.01684
 O1110 O -0.01956 -0.01459 -0.01466
 C1111 C 0.04570 0.01551 0.01036
 C1112 C 0.00623 0.04956 0.01889
 C1113 C 0.01318 0.00895 0.05006
 C1114 C -0.05277 -0.01628 -0.01005
 C1115 C -0.02152 -0.00907 -0.04724
 C1116 C -0.01449 -0.04788 -0.01732
 H1117 H -0.00043 0.01291 -0.03373
 H1118 H 0.00749 -0.03549 0.00366
 H1119 H 0.01886 0.02212 0.02374
 H1120 H -0.03957 0.00420 0.01244
 H1121 H -0.04138 0.03492 -0.00443
 H1122 H -0.04090 0.03029 0.02213
 H1123 H 0.02517 -0.03934 -0.01615
 H1124 H 0.04093 -0.02386 0.00257
 H1125 H -0.01995 0.03047 -0.03802
 H1126 H -0.00219 0.04658 -0.02015
 H1127 H -0.00797 -0.04744 0.02182
 H1128 H 0.01031 -0.02995 0.03897
 H1129 H 0.03407 0.01566 -0.02826
 H1130 H 0.01789 -0.00253 -0.04593
 H1131 H -0.02582 0.00090 0.04632
 H1132 H -0.04349 -0.01602 0.02975
 O1133 O 0.04391 0.52351 0.49857
 O1134 O 0.03868 0.51987 0.47027
 O1135 O 0.00070 0.54480 0.51585
 O1136 O -0.02634 0.53906 0.51384
 O1137 O 0.02176 0.50554 0.54050
 O1138 O 0.02177 0.47646 0.53656
 O1139 O -0.03945 0.49475 0.47549
 O1140 O -0.03696 0.52350 0.47680
 O1141 O 0.00302 0.47615 0.45721
 O1142 O 0.03238 0.48044 0.46341
 O1143 O -0.01690 0.45699 0.49693
 O1144 O -0.01527 0.46425 0.52678
 O1145 O -0.03895 0.47701 0.49625
 O1146 O -0.03403 0.48036 0.52531
 O1147 O 0.00372 0.45674 0.47906
 O1148 O 0.03315 0.46435 0.48195
 O1149 O -0.01794 0.49406 0.45575
 O1150 O -0.01708 0.52466 0.45891
 O1151 O 0.04452 0.50529 0.51899
 O1152 O 0.04029 0.47609 0.51915
 O1153 O 0.00109 0.52384 0.53893
 O1154 O -0.02746 0.51920 0.53227
 O1155 O 0.02022 0.54467 0.49671
 O1156 O 0.01952 0.53692 0.46880
 Zr1157 Zr 0.02073 0.52054 0.48820
 O1158 O 0.00778 0.50438 0.47328
 Zr1159 Zr -0.00832 0.52079 0.51559
 O1160 O -0.02270 0.50466 0.50181
 Zr1161 Zr 0.02175 0.49383 0.51801
 O1162 O 0.00879 0.47645 0.50445
 Zr1163 Zr -0.01718 0.50711 0.47744
 O1164 O -0.00431 0.52478 0.49101
 Zr1165 Zr 0.01312 0.48039 0.48003
 O1166 O 0.02763 0.49652 0.49367
 Zr1167 Zr -0.01620 0.48051 0.50721
 O1168 O -0.00319 0.49666 0.52241
 O1169 O 0.01641 0.51780 0.51246
 O1170 O -0.01175 0.48312 0.48296
 C1171 C 0.05089 0.51670 0.51063
 C1172 C 0.01201 0.55172 0.50781
 C1173 C 0.01300 0.51706 0.54637
 C1174 C -0.04568 0.48322 0.48376
 C1175 C -0.00944 0.48224 0.45013
 C1176 C -0.00847 0.45011 0.48588
 H1177 H 0.01054 0.50635 0.46197
 H1178 H 0.01195 0.46536 0.50775
 H1179 H 0.02281 0.52551 0.51904
 H1180 H -0.03433 0.50678 0.50372
 H1181 H -0.03305 0.53385 0.48154
 H1182 H -0.03584 0.53420 0.50834
 H1183 H 0.03123 0.45706 0.49113
 H1184 H 0.04591 0.47637 0.50872
 H1185 H -0.00830 0.52191 0.45136
 H1186 H 0.00839 0.54144 0.46872
 H1187 H -0.00641 0.45638 0.52482
 H1188 H 0.01072 0.47652 0.54108
 H1189 H 0.04465 0.50952 0.47168
 H1190 H 0.03025 0.48917 0.45558
 H1191 H -0.02544 0.50933 0.53873
 H1192 H -0.04134 0.48972 0.52342
 O1193 O 0.54478 0.01808 0.50394
 O1194 O 0.53795 0.01863 0.47561
 O1195 O 0.50222 0.03633 0.52591
 O1196 O 0.47562 0.03031 0.52584
 O1197 O 0.52548 -0.00662 0.54365
 O1198 O 0.52506 -0.03453 0.53560
 O1199 O 0.46039 -0.00810 0.48116
 O1200 O 0.46277 0.02043 0.48696
 O1201 O 0.50190 -0.02266 0.45846
 O1202 O 0.53106 -0.02008 0.46341
 O1203 O 0.48441 -0.04830 0.49682
 O1204 O 0.48686 -0.04505 0.52673
 O1205 O 0.46210 -0.02869 0.49913
 O1206 O 0.46841 -0.02870 0.52844
 O1207 O 0.50322 -0.04559 0.47729
 O1208 O 0.53302 -0.03826 0.47963
 O1209 O 0.48074 -0.00503 0.46046
 O1210 O 0.48135 0.02447 0.46812
 O1211 O 0.54675 -0.00337 0.52097
 O1212 O 0.54224 -0.03232 0.51700
 O1213 O 0.50501 0.01184 0.54583
 O1214 O 0.47561 0.00784 0.54032
 O1215 O 0.52122 0.03898 0.50649
 O1216 O 0.51879 0.03557 0.47777
 Zr1217 Zr 0.52110 0.01642 0.49442
 O1218 O 0.50729 0.00248 0.47814
 Zr1219 Zr 0.49375 0.01228 0.52307
 O1220 O 0.47847 -0.00162 0.50793
 Zr1221 Zr 0.52388 -0.01456 0.51979
 O1222 O 0.50999 -0.02980 0.50482
 Zr1223 Zr 0.48258 0.00435 0.48390
 O1224 O 0.49625 0.01994 0.49914
 Zr1225 Zr 0.51293 -0.02226 0.48107
 O1226 O 0.52830 -0.00814 0.49588
 Zr1227 Zr 0.48524 -0.02623 0.50959
 O1228 O 0.49929 -0.01253 0.52609
 O1229 O 0.51823 0.00999 0.51817
 O1230 O 0.48827 -0.02018 0.48570
 C1231 C 0.55253 0.00937 0.51423
 C1232 C 0.51325 0.04443 0.51858
 C1233 C 0.51731 0.00403 0.55150
 C1234 C 0.45474 -0.02093 0.48790
 C1235 C 0.48918 -0.01567 0.45284
 C1236 C 0.49190 -0.05345 0.48434
 H1237 H 0.50946 0.00612 0.46711
 H1238 H 0.51331 -0.04125 0.50633
 H1239 H 0.52501 0.01676 0.52538
 H1240 H 0.46697 0.00013 0.51072
 H1241 H 0.46700 0.03006 0.49280
 H1242 H 0.46611 0.02680 0.51945
 H1243 H 0.53138 -0.04710 0.48742
 H1244 H 0.54741 -0.03019 0.50656
 H1245 H 0.49054 0.02370 0.46061
 H1246 H 0.50774 0.04009 0.47910
 H1247 H 0.49639 -0.05183 0.52408
 H1248 H 0.51438 -0.03511 0.54090
 H1249 H 0.54418 0.00833 0.47533
 H1250 H 0.52942 -0.00955 0.45796
 H1251 H 0.47834 -0.00264 0.54546
 H1252 H 0.46055 -0.01962 0.52765
 O1253 O 0.54771 0.51702 -0.00150
 O1254 O 0.54319 0.51505 -0.03017
 O1255 O 0.50652 0.54226 0.01493
 O1256 O 0.47908 0.53935 0.01293
 O1257 O 0.52254 0.49951 0.03887
 O1258 O 0.51980 0.47103 0.03358
 O1259 O 0.46266 0.49848 -0.02818
 O1260 O 0.46813 0.52671 -0.02535
 O1261 O 0.50351 0.47632 -0.04599
 O1262 O 0.53280 0.47685 -0.03896
 O1263 O 0.48117 0.45720 -0.00649
 O1264 O 0.48118 0.46403 0.02280
 O1265 O 0.46089 0.47932 -0.00879
 O1266 O 0.46452 0.48203 0.02086
 O1267 O 0.50178 0.45571 -0.02435
 O1268 O 0.53143 0.46025 -0.02131
 O1269 O 0.48458 0.49640 -0.04737
 O1270 O 0.48852 0.52651 -0.04268
 O1271 O 0.54587 0.49780 0.01793
 O1272 O 0.53844 0.46934 0.01646
 O1273 O 0.50454 0.52047 0.03757
 O1274 O 0.47563 0.51908 0.03024
 O1275 O 0.52665 0.54076 -0.00353
 O1276 O 0.52602 0.53412 -0.03151
 Zr1277 Zr 0.52481 0.51701 -0.01276
 O1278 O 0.51066 0.50300 -0.02865
 Zr1279 Zr 0.49518 0.51930 0.01395
 O1280 O 0.47951 0.50548 -0.00093
 Zr1281 Zr 0.52204 0.48913 0.01586
 O1282 O 0.50767 0.47394 0.00133
 Zr1283 Zr 0.48601 0.50825 -0.02502
 O1284 O 0.50028 0.52381 -0.01035
 Zr1285 Zr 0.51320 0.47835 -0.02277
 O1286 O 0.52896 0.49219 -0.00814
 Zr1287 Zr 0.48317 0.48061 0.00362
 O1288 O 0.49744 0.49450 0.01982
 O1289 O 0.51951 0.51378 0.01127
 O1290 O 0.48863 0.48356 -0.02042
 C1291 C 0.55357 0.50889 0.01034
 C1292 C 0.51872 0.54827 0.00744
 C1293 C 0.51518 0.51181 0.04503
 C1294 C 0.45522 0.48689 -0.02106
 C1295 C 0.49212 0.48406 -0.05324
 C1296 C 0.48934 0.44979 -0.01738
 H1297 H 0.51398 0.50512 -0.03978
 H1298 H 0.50959 0.46249 0.00433
 H1299 H 0.52647 0.52053 0.01831
 H1300 H 0.46810 0.50877 0.00071
 H1301 H 0.47296 0.53632 -0.01995
 H1302 H 0.46940 0.53587 0.00677
 H1303 H 0.52912 0.45343 -0.01188
 H1304 H 0.54485 0.46987 0.00650
 H1305 H 0.49730 0.52325 -0.05003
 H1306 H 0.51542 0.53978 -0.03176
 H1307 H 0.49041 0.45636 0.02212
 H1308 H 0.50882 0.47227 0.03814
 H1309 H 0.54798 0.50407 -0.02899
 H1310 H 0.53203 0.48622 -0.04630
 H1311 H 0.47626 0.50864 0.03606
 H1312 H 0.45799 0.49186 0.01859
 O1313 O 0.79291 0.25313 0.47978
 O1314 O 0.78863 0.22394 0.48074
 O1315 O 0.75091 0.27081 0.45646
 O1316 O 0.72358 0.26823 0.45984
 O1317 O 0.76829 0.29352 0.49872
 O1318 O 0.76553 0.28734 0.52701
 O1319 O 0.70848 0.22569 0.49877
 O1320 O 0.71308 0.22975 0.47088
 O1321 O 0.74917 0.20675 0.51895
 O1322 O 0.77923 0.21372 0.51731
 O1323 O 0.72769 0.24553 0.53970
 O1324 O 0.72821 0.27603 0.53464
 O1325 O 0.70705 0.24493 0.51833
 O1326 O 0.71065 0.27484 0.51744
 O1327 O 0.74870 0.22763 0.54007
 O1328 O 0.77791 0.23047 0.53527
 O1329 O 0.73062 0.20586 0.49873
 O1330 O 0.73336 0.21184 0.46974
 O1331 O 0.79149 0.27213 0.49965
 O1332 O 0.78477 0.27015 0.52756
 O1333 O 0.74906 0.29284 0.47906
 O1334 O 0.72054 0.28548 0.48056
 O1335 O 0.77100 0.25178 0.45684
 O1336 O 0.77127 0.22319 0.46222
 Zr1337 Zr 0.77007 0.24169 0.47985
 O1338 O 0.75628 0.22511 0.49312
 Zr1339 Zr 0.74016 0.26887 0.47928
 O1340 O 0.72497 0.25348 0.49268
 Zr1341 Zr 0.76782 0.26991 0.50846
 O1342 O 0.75405 0.25453 0.52312
 Zr1343 Zr 0.73150 0.22913 0.48860
 O1344 O 0.74538 0.24438 0.47367
 Zr1345 Zr 0.75941 0.23014 0.51758
 O1346 O 0.77474 0.24556 0.50438
 Zr1347 Zr 0.72937 0.25718 0.51731
 O1348 O 0.74305 0.27406 0.50389
 O1349 O 0.76467 0.26596 0.48409
 O1350 O 0.73476 0.23288 0.51304
 C1351 C 0.79896 0.26482 0.48822
 C1352 C 0.76287 0.26316 0.44997
 C1353 C 0.76025 0.30009 0.48717
 C1354 C 0.70127 0.23270 0.51055
 C1355 C 0.73794 0.19960 0.51084
 C1356 C 0.73611 0.23419 0.54633
 H1357 H 0.75958 0.21387 0.49045
 H1358 H 0.75626 0.25709 0.53450
 H1359 H 0.77143 0.27326 0.47756
 H1360 H 0.71347 0.25533 0.48983
 H1361 H 0.71772 0.23531 0.46149
 H1362 H 0.71382 0.26234 0.46341
 H1363 H 0.77618 0.24019 0.54208
 H1364 H 0.79083 0.25977 0.52690
 H1365 H 0.74287 0.20481 0.47186
 H1366 H 0.76056 0.22299 0.45682
 H1367 H 0.73701 0.27420 0.54253
 H1368 H 0.75457 0.29214 0.52589
 H1369 H 0.79361 0.22475 0.49153
 H1370 H 0.77724 0.20558 0.50875
 H1371 H 0.72131 0.29098 0.49111
 H1372 H 0.70421 0.27341 0.50751
 O1373 O 0.74845 0.77328 -0.04000
 O1374 O 0.72051 0.77054 -0.03508
 O1375 O 0.76533 0.79870 0.00193
 O1376 O 0.76725 0.79490 0.02803
 O1377 O 0.79158 0.75707 -0.01686
 O1378 O 0.78805 0.72864 -0.01506
 O1379 O 0.72649 0.75406 0.04443
 O1380 O 0.72561 0.78118 0.03845
 O1381 O 0.70811 0.72937 0.00387
 O1382 O 0.71391 0.72872 -0.02388
 O1383 O 0.75089 0.71276 0.02603
 O1384 O 0.77835 0.72030 0.02626
 O1385 O 0.74646 0.73496 0.04544
 O1386 O 0.77742 0.74085 0.04053
 O1387 O 0.73104 0.71038 0.00720
 O1388 O 0.73473 0.71485 -0.02374
 O1389 O 0.70620 0.74879 0.02321
 O1390 O 0.70891 0.77985 0.01765
 O1391 O 0.76974 0.75565 -0.03906
 O1392 O 0.76902 0.72607 -0.03211
 O1393 O 0.79000 0.77759 0.00143
 O1394 O 0.78307 0.77479 0.03116
 O1395 O 0.74730 0.79631 -0.01871
 O1396 O 0.71826 0.78813 -0.01662
 Zr1397 Zr 0.73848 0.77228 -0.01700
 O1398 O 0.72380 0.75692 -0.00318
 Zr1399 Zr 0.76663 0.77529 0.01159
 O1400 O 0.75253 0.76119 0.02717
 Zr1401 Zr 0.76891 0.74577 -0.01572
 O1402 O 0.75613 0.72978 -0.00076
 Zr1403 Zr 0.72777 0.76258 0.02101
 O1404 O 0.74160 0.77892 0.00720
 Zr1405 Zr 0.73132 0.73255 -0.00555
 O1406 O 0.74415 0.74764 -0.02155
 Zr1407 Zr 0.75879 0.73673 0.02342
 O1408 O 0.77388 0.75094 0.00862
 O1409 O 0.76313 0.77011 -0.01248
 O1410 O 0.73412 0.73822 0.01856
 C1411 C 0.76089 0.76636 -0.04624
 C1412 C 0.75776 0.80435 -0.01032
 C1413 C 0.79749 0.76951 -0.00956
 C1414 C 0.73426 0.74260 0.05144
 C1415 C 0.70072 0.73627 0.01555
 C1416 C 0.73933 0.70495 0.01918
 H1417 H 0.71231 0.75829 -0.00632
 H1418 H 0.75983 0.71848 -0.00261
 H1419 H 0.76959 0.77735 -0.01935
 H1420 H 0.75439 0.76471 0.03837
 H1421 H 0.73118 0.79083 0.03409
 H1422 H 0.75823 0.79316 0.03555
 H1423 H 0.74225 0.70647 -0.01957
 H1424 H 0.75921 0.72724 -0.03890
 H1425 H 0.70024 0.77478 0.01109
 H1426 H 0.71963 0.79529 -0.00713
 H1427 H 0.78014 0.71507 0.01573
 H1428 H 0.79302 0.72953 -0.00427
 H1429 H 0.72142 0.75945 -0.03965
 H1430 H 0.70817 0.73916 -0.02549
 H1431 H 0.79136 0.76643 0.02868
 H1432 H 0.77289 0.74761 0.04926
 O1433 O 1.04476 0.23353 0.24753
 O1434 O 1.04132 0.23757 0.27651
 O1435 O 1.00274 0.20765 0.23408
 O1436 O 0.97530 0.21109 0.23803
 O1437 O 1.01778 0.24760 0.20720
 O1438 O 1.01465 0.27712 0.21050
 O1439 O 0.96086 0.25554 0.27542
 O1440 O 0.96599 0.22675 0.27436
 O1441 O 1.00298 0.27776 0.29094
 O1442 O 1.03219 0.27550 0.28286
 O1443 O 0.97863 0.29420 0.25202
 O1444 O 0.97904 0.28592 0.22194
 O1445 O 0.95835 0.27228 0.25400
 O1446 O 0.96115 0.26930 0.22550
 O1447 O 1.00067 0.29675 0.26829
 O1448 O 1.03003 0.29145 0.26456
 O1449 O 0.98390 0.25816 0.29400
 O1450 O 0.98664 0.22806 0.29154
 O1451 O 1.04211 0.25169 0.22719
 O1452 O 1.03486 0.27952 0.22586
 O1453 O 0.99915 0.22755 0.21052
 O1454 O 0.97108 0.22992 0.21862
 O1455 O 1.02369 0.21016 0.25180
 O1456 O 1.02461 0.21832 0.27910
 Zr1457 Zr 1.02236 0.23447 0.25962
 O1458 O 1.00897 0.24968 0.27503
 Zr1459 Zr 0.99137 0.23072 0.23429
 O1460 O 0.97662 0.24609 0.24842
 Zr1461 Zr 1.01831 0.26028 0.22922
 O1462 O 1.00515 0.27682 0.24339
 Zr1463 Zr 0.98403 0.24485 0.27248
 O1464 O 0.99762 0.22797 0.25864
 Zr1465 Zr 1.01165 0.27383 0.26758
 O1466 O 1.02643 0.25882 0.25317
 Zr1467 Zr 0.98054 0.27054 0.24216
 O1468 O 0.99355 0.25499 0.22654
 O1469 O 1.01587 0.23609 0.23567
 O1470 O 0.98691 0.26906 0.26620
 C1471 C 1.05014 0.24105 0.23516
 C1472 C 1.01532 0.20204 0.24148
 C1473 C 1.00981 0.23507 0.20221
 C1474 C 0.95302 0.26609 0.26700
 C1475 C 0.99176 0.27073 0.29893
 C1476 C 0.98749 0.30216 0.26208
 H1477 H 1.01274 0.24821 0.28617
 H1478 H 1.00707 0.28804 0.23968
 H1479 H 1.02253 0.22882 0.22891
 H1480 H 0.96510 0.24299 0.24721
 H1481 H 0.97066 0.21663 0.26983
 H1482 H 0.96549 0.21549 0.24326
 H1483 H 1.02727 0.29792 0.25496
 H1484 H 1.04078 0.28086 0.23613
 H1485 H 0.99647 0.23094 0.29776
 H1486 H 1.01375 0.21351 0.28066
 H1487 H 0.98650 0.29517 0.22371
 H1488 H 1.00380 0.27485 0.20589
 H1489 H 1.04662 0.24803 0.27396
 H1490 H 1.03116 0.26713 0.29125
 H1491 H 0.97156 0.23980 0.21192
 H1492 H 0.95584 0.25863 0.22688
 O1493 O 0.77572 0.95977 0.75120
 O1494 O 0.77537 0.96620 0.72296
 O1495 O 0.79315 1.00299 0.77310
 O1496 O 0.78674 1.02981 0.77210
 O1497 O 0.75179 0.97959 0.79154
 O1498 O 0.72338 0.97901 0.78369
 O1499 O 0.74720 1.04370 0.72933
 O1500 O 0.77584 1.04184 0.73475
 O1501 O 0.73273 1.00254 0.70653
 O1502 O 0.73742 0.97237 0.71136
 O1503 O 0.70785 1.01887 0.74509
 O1504 O 0.71169 1.01642 0.77509
 O1505 O 0.72708 1.04174 0.74765
 O1506 O 0.72710 1.03551 0.77659
 O1507 O 0.71052 0.99953 0.72576
 O1508 O 0.71862 0.97053 0.72695
 O1509 O 0.75100 1.02314 0.70822
 O1510 O 0.77974 1.02353 0.71538
 O1511 O 0.75528 0.95772 0.76922
 O1512 O 0.72635 0.96101 0.76557
 O1513 O 0.76924 1.00094 0.79340
 O1514 O 0.76476 1.02961 0.78781
 O1515 O 0.79588 0.98392 0.75344
 O1516 O 0.79185 0.98584 0.72469
 Zr1517 Zr 0.77322 0.98340 0.74174
 O1518 O 0.75876 0.99688 0.72570
 Zr1519 Zr 0.76906 1.01126 0.77044
 O1520 O 0.75437 1.02600 0.75569
 Zr1521 Zr 0.74314 0.98028 0.76777
 O1522 O 0.72727 0.99360 0.75288
 Zr1523 Zr 0.76017 1.02173 0.73162
 O1524 O 0.77632 1.00844 0.74643
 Zr1525 Zr 0.73430 0.99081 0.72888
 O1526 O 0.74895 0.97579 0.74363
 Zr1527 Zr 0.73007 1.01855 0.75767
 O1528 O 0.74455 1.00511 0.77393
 O1529 O 0.76733 0.98654 0.76564
 O1530 O 0.73584 1.01560 0.73366
 C1531 C 0.76788 0.95205 0.76205
 C1532 C 0.80128 0.99199 0.76559
 C1533 C 0.76205 0.98850 0.79925
 C1534 C 0.73454 1.04923 0.73644
 C1535 C 0.73997 1.01504 0.70079
 C1536 C 0.70255 1.01089 0.73285
 H1537 H 0.76226 0.99470 0.71460
 H1538 H 0.71600 0.98998 0.75457
 H1539 H 0.77434 0.98005 0.77282
 H1540 H 0.75580 1.03760 0.75853
 H1541 H 0.78577 1.03768 0.74008
 H1542 H 0.78230 1.03955 0.76670
 H1543 H 0.71109 0.97095 0.73610
 H1544 H 0.72806 0.95611 0.75487
 H1545 H 0.77993 1.01358 0.70869
 H1546 H 0.79637 0.99689 0.72617
 H1547 H 0.70497 1.00688 0.77224
 H1548 H 0.72286 0.98966 0.78926
 H1549 H 0.76501 0.96017 0.72256
 H1550 H 0.74631 0.97570 0.70421
 H1551 H 0.75418 1.02717 0.79276
 H1552 H 0.73621 1.04329 0.77615
 O1553 O 0.74649 0.54490 0.23389
 O1554 O 0.77515 0.53775 0.23478
 O1555 O 0.72533 0.50491 0.20957
 O1556 O 0.72541 0.47714 0.21278
 O1557 O 0.70412 0.52355 0.25202
 O1558 O 0.71022 0.51967 0.28032
 O1559 O 0.76687 0.45797 0.25226
 O1560 O 0.76222 0.46283 0.22414
 O1561 O 0.78890 0.49671 0.27206
 O1562 O 0.78430 0.52737 0.27097
 O1563 O 0.74892 0.47814 0.29286
 O1564 O 0.71828 0.48196 0.28749
 O1565 O 0.74700 0.45769 0.27097
 O1566 O 0.71821 0.46391 0.27063
 O1567 O 0.76823 0.49778 0.29336
 O1568 O 0.76807 0.52706 0.28899
 O1569 O 0.78810 0.47834 0.25165
 O1570 O 0.78196 0.48142 0.22295
 O1571 O 0.72751 0.54490 0.25354
 O1572 O 0.72868 0.53754 0.28122
 O1573 O 0.70331 0.50500 0.23171
 O1574 O 0.70777 0.47580 0.23319
 O1575 O 0.74576 0.52345 0.21047
 O1576 O 0.77397 0.52093 0.21580
 Zr1577 Zr 0.75575 0.52103 0.23347
 O1578 O 0.77106 0.50553 0.24657
 Zr1579 Zr 0.72621 0.49364 0.23231
 O1580 O 0.74018 0.47686 0.24573
 Zr1581 Zr 0.72760 0.52087 0.26188
 O1582 O 0.74187 0.50561 0.27647
 Zr1583 Zr 0.76488 0.48117 0.24181
 O1584 O 0.75094 0.49668 0.22693
 Zr1585 Zr 0.76647 0.50888 0.27100
 O1586 O 0.75234 0.52573 0.25800
 Zr1587 Zr 0.73712 0.48124 0.27042
 O1588 O 0.72143 0.49654 0.25695
 O1589 O 0.73120 0.51780 0.23749
 O1590 O 0.76167 0.48451 0.26628
 C1591 C 0.73548 0.55188 0.24236
 C1592 C 0.73385 0.51637 0.20335
 C1593 C 0.69698 0.51654 0.24008
 C1594 C 0.75901 0.45112 0.26363
 C1595 C 0.79507 0.48506 0.26375
 C1596 C 0.76084 0.48571 0.29960
 H1597 H 0.78247 0.50786 0.24394
 H1598 H 0.73962 0.50793 0.28786
 H1599 H 0.72457 0.52537 0.23101
 H1600 H 0.73731 0.46557 0.24277
 H1601 H 0.75722 0.46808 0.21467
 H1602 H 0.73003 0.46668 0.21646
 H1603 H 0.75820 0.52634 0.29559
 H1604 H 0.73960 0.54248 0.28096
 H1605 H 0.78932 0.49075 0.22468
 H1606 H 0.77323 0.51028 0.21026
 H1607 H 0.72139 0.48983 0.29596
 H1608 H 0.70426 0.50935 0.27873
 H1609 H 0.77459 0.54298 0.24546
 H1610 H 0.79216 0.52482 0.26242
 H1611 H 0.70245 0.47697 0.24373
 H1612 H 0.71799 0.45852 0.26002
 O1613 O 0.50248 0.20643 0.73026
 O1614 O 0.47402 0.21499 0.72864
 O1615 O 0.52758 0.24769 0.71311
 O1616 O 0.52860 0.27466 0.71922
 O1617 O 0.54292 0.22372 0.75577
 O1618 O 0.53366 0.22559 0.78350
 O1619 O 0.48485 0.29270 0.75492
 O1620 O 0.49142 0.28907 0.72651
 O1621 O 0.45791 0.25406 0.76845
 O1622 O 0.46095 0.22308 0.76411
 O1623 O 0.49604 0.26774 0.79517
 O1624 O 0.52691 0.26226 0.79327
 O1625 O 0.50205 0.28990 0.77611
 O1626 O 0.52984 0.28186 0.77867
 O1627 O 0.47571 0.24948 0.79159
 O1628 O 0.47496 0.22075 0.78418
 O1629 O 0.46191 0.27426 0.75046
 O1630 O 0.46982 0.27325 0.72288
 O1631 O 0.51881 0.20392 0.75219
 O1632 O 0.51458 0.20855 0.78004
 O1633 O 0.54684 0.24415 0.73797
 O1634 O 0.54335 0.27347 0.74151
 O1635 O 0.50694 0.22967 0.70967
 O1636 O 0.47817 0.23353 0.71161
 Zr1637 Zr 0.49409 0.23073 0.73134
 O1638 O 0.47803 0.24593 0.74407
 Zr1639 Zr 0.52458 0.25658 0.73668
 O1640 O 0.51002 0.27277 0.74997
 Zr1641 Zr 0.51864 0.22693 0.76294
 O1642 O 0.50348 0.24153 0.77719
 Zr1643 Zr 0.48576 0.27025 0.74269
 O1644 O 0.50054 0.25531 0.72803
 Zr1645 Zr 0.47953 0.24031 0.76848
 O1646 O 0.49433 0.22385 0.75560
 Zr1647 Zr 0.51021 0.26590 0.77425
 O1648 O 0.52657 0.25112 0.76124
 O1649 O 0.51806 0.23237 0.73870
 O1650 O 0.48613 0.26462 0.76692
 C1651 C 0.51224 0.19831 0.73934
 C1652 C 0.51975 0.23699 0.70481
 C1653 C 0.55167 0.23152 0.74569
 C1654 C 0.49174 0.29798 0.76780
 C1655 C 0.45339 0.26704 0.76107
 C1656 C 0.48302 0.26055 0.79973
 H1657 H 0.46687 0.24455 0.73994
 H1658 H 0.50429 0.23808 0.78848
 H1659 H 0.52514 0.22513 0.73234
 H1660 H 0.51382 0.28406 0.74853
 H1661 H 0.49641 0.28384 0.71703
 H1662 H 0.52325 0.28477 0.72294
 H1663 H 0.48413 0.22015 0.79185
 H1664 H 0.50354 0.20432 0.77794
 H1665 H 0.46350 0.26313 0.72156
 H1666 H 0.48019 0.24452 0.70728
 H1667 H 0.52216 0.25430 0.80073
 H1668 H 0.54061 0.23539 0.78345
 H1669 H 0.47315 0.20888 0.73878
 H1670 H 0.45376 0.22738 0.75560
 H1671 H 0.54783 0.27080 0.75221
 H1672 H 0.53173 0.28800 0.76871
 O1673 O 0.24692 0.70628 0.51924
 O1674 O 0.27637 0.70984 0.51847
 O1675 O 0.23061 0.74867 0.54278
 O1676 O 0.23347 0.77618 0.53934
 O1677 O 0.20760 0.73200 0.50018
 O1678 O 0.21424 0.73516 0.47180
 O1679 O 0.27687 0.79037 0.50132
 O1680 O 0.27180 0.78572 0.52913
 O1681 O 0.29481 0.74927 0.48143
 O1682 O 0.28673 0.71886 0.48309
 O1683 O 0.25773 0.77199 0.46006
 O1684 O 0.22671 0.77169 0.46445
 O1685 O 0.25792 0.79246 0.48157
 O1686 O 0.22833 0.78970 0.48138
 O1687 O 0.27468 0.75018 0.45980
 O1688 O 0.27129 0.72144 0.46399
 O1689 O 0.29589 0.76766 0.50184
 O1690 O 0.28932 0.76495 0.53054
 O1691 O 0.22817 0.70825 0.49923
 O1692 O 0.23069 0.71513 0.47142
 O1693 O 0.20863 0.75100 0.52007
 O1694 O 0.21634 0.77937 0.51855
 O1695 O 0.24906 0.72804 0.54239
 O1696 O 0.27716 0.72661 0.53733
 Zr1697 Zr 0.25904 0.72881 0.51946
 O1698 O 0.27607 0.74240 0.50668
 Zr1699 Zr 0.23268 0.75951 0.51995
 O1700 O 0.24851 0.77447 0.50680
 Zr1701 Zr 0.23123 0.73202 0.49059
 O1702 O 0.24723 0.74549 0.47623
 Zr1703 Zr 0.27252 0.76733 0.51134
 O1704 O 0.25685 0.75358 0.52587
 Zr1705 Zr 0.27130 0.73947 0.48217
 O1706 O 0.25527 0.72437 0.49490
 Zr1707 Zr 0.24522 0.77030 0.48207
 O1708 O 0.22781 0.75697 0.49523
 O1709 O 0.23503 0.73489 0.51503
 O1710 O 0.26916 0.76424 0.48681
 C1711 C 0.23515 0.70055 0.51073
 C1712 C 0.23801 0.73651 0.54927
 C1713 C 0.20119 0.74002 0.51184
 C1714 C 0.27020 0.79788 0.48951
 C1715 C 0.30205 0.76031 0.48975
 C1716 C 0.26892 0.76321 0.45360
 H1717 H 0.28714 0.73878 0.50952
 H1718 H 0.24486 0.74342 0.46479
 H1719 H 0.22758 0.72826 0.52152
 H1720 H 0.24688 0.78604 0.50965
 H1721 H 0.26612 0.78105 0.53843
 H1722 H 0.23933 0.78597 0.53574
 H1723 H 0.26113 0.72268 0.45777
 H1724 H 0.24090 0.70881 0.47212
 H1725 H 0.29609 0.75522 0.52855
 H1726 H 0.27801 0.73740 0.54257
 H1727 H 0.22917 0.76360 0.45599
 H1728 H 0.20953 0.74615 0.47319
 H1729 H 0.27497 0.70443 0.50794
 H1730 H 0.29548 0.72112 0.49095
 H1731 H 0.21111 0.77882 0.50786
 H1732 H 0.22889 0.79538 0.49183
 O1733 O 0.27355 0.28830 1.00068
 O1734 O 0.27339 0.28069 1.02792
 O1735 O 0.29355 0.24624 0.97739
 O1736 O 0.28770 0.22037 0.97360
 O1737 O 0.25048 0.27027 0.95849
 O1738 O 0.22261 0.26938 0.96549
 O1739 O 0.25070 0.20191 1.01647
 O1740 O 0.27849 0.20612 1.01342
 O1741 O 0.23230 0.24145 1.04141
 O1742 O 0.23342 0.27086 1.03859
 O1743 O 0.20878 0.22542 1.00000
 O1744 O 0.21276 0.22813 0.97180
 O1745 O 0.22962 0.20394 0.99892
 O1746 O 0.23149 0.21200 0.96888
 O1747 O 0.21022 0.24259 1.02135
 O1748 O 0.21642 0.27335 1.02093
 O1749 O 0.25102 0.22129 1.03901
 O1750 O 0.28089 0.22440 1.03276
 O1751 O 0.25320 0.29050 0.98228
 O1752 O 0.22391 0.28521 0.98560
 O1753 O 0.26986 0.25072 0.95602
 O1754 O 0.26561 0.22040 0.95977
 O1755 O 0.29496 0.26499 0.99752
 O1756 O 0.29006 0.26118 1.02641
 Zr1757 Zr 0.27204 0.26411 1.00853
 O1758 O 0.25793 0.24923 1.02336
 Zr1759 Zr 0.26956 0.23803 0.97796
 O1760 O 0.25614 0.22156 0.99176
 Zr1761 Zr 0.24206 0.26740 0.98197
 O1762 O 0.22685 0.25196 0.99518
 Zr1763 Zr 0.26123 0.22495 1.01624
 O1764 O 0.27656 0.23967 1.00230
 Zr1765 Zr 0.23313 0.25382 1.01951
 O1766 O 0.24735 0.27053 1.00647
 Zr1767 Zr 0.23150 0.22750 0.98921
 O1768 O 0.24486 0.24312 0.97418
 O1769 O 0.26659 0.26225 0.98431
 O1770 O 0.23656 0.22951 1.01355
 C1771 C 0.26545 0.29626 0.99010
 C1772 C 0.30106 0.25718 0.98556
 C1773 C 0.26168 0.26292 0.95063
 C1774 C 0.23803 0.19624 1.00947
 C1775 C 0.23972 0.22877 1.04665
 C1776 C 0.20295 0.23171 1.01281
 H1777 H 0.26102 0.25102 1.03468
 H1778 H 0.21539 0.25491 0.99321
 H1779 H 0.27351 0.26945 0.97784
 H1780 H 0.25849 0.21026 0.98838
 H1781 H 0.28772 0.21085 1.00755
 H1782 H 0.28551 0.21112 0.98078
 H1783 H 0.20767 0.27133 1.01302
 H1784 H 0.22616 0.29029 0.99615
 H1785 H 0.27855 0.23209 1.04160
 H1786 H 0.29575 0.25086 1.02397
 H1787 H 0.20735 0.23883 0.97272
 H1788 H 0.22222 0.25895 0.95952
 H1789 H 0.26257 0.28585 1.02872
 H1790 H 0.24416 0.27013 1.04386
 H1791 H 0.25618 0.22410 0.95336
 H1792 H 0.23889 0.20279 0.97110
 C1793 C 0.28355 0.39765 0.81219
 C1794 C 0.29556 0.39000 0.80286
 C1795 C 0.29977 0.39707 0.78812
 C1796 C 0.29197 0.41134 0.78277
 C1797 C 0.27982 0.41869 0.79223
 C1798 C 0.27576 0.41176 0.80693
 C1799 C 0.27196 0.43289 0.78691
 C1800 C 0.27614 0.44003 0.77223
 C1801 C 0.28831 0.43261 0.76293
 C1802 C 0.29609 0.41841 0.76812
 H1803 H 0.30895 0.39143 0.78072
 H1804 H 0.26651 0.41724 0.81437
 H1805 H 0.26276 0.43848 0.79434
 H1806 H 0.30541 0.41302 0.76069
 H1807 H 0.28008 0.39282 0.82367
 H1808 H 0.29192 0.43783 0.75163
 C1809 C 0.28284 -0.10160 0.31013
 C1810 C 0.29279 -0.11114 0.30018
 C1811 C 0.29451 -0.10683 0.28404
 C1812 C 0.28635 -0.09322 0.27788
 C1813 C 0.27645 -0.08364 0.28801
 C1814 C 0.27479 -0.08795 0.30412
 C1815 C 0.26865 -0.06976 0.28194
 C1816 C 0.27077 -0.06520 0.26588
 C1817 C 0.28033 -0.07508 0.25585
 C1818 C 0.28800 -0.08896 0.26177
 H1819 H 0.30201 -0.11417 0.27621
 H1820 H 0.26731 -0.08074 0.31208
 H1821 H 0.26145 -0.06221 0.28986
 H1822 H 0.29547 -0.09620 0.25382
 H1823 H 0.28141 -0.10458 0.32265
 H1824 H 0.28219 -0.07190 0.24343
 C1825 C 0.77796 0.89363 0.80781
 C1826 C 0.79131 0.88639 0.80001
 C1827 C 0.79684 0.89359 0.78572
 C1828 C 0.78928 0.90756 0.77946
 C1829 C 0.77597 0.91458 0.78749
 C1830 C 0.77041 0.90750 0.80163
 C1831 C 0.76861 0.92872 0.78142
 C1832 C 0.77448 0.93612 0.76744
 C1833 C 0.78764 0.92888 0.75945
 C1834 C 0.79492 0.91473 0.76536
 H1835 H 0.80701 0.88845 0.77932
 H1836 H 0.76025 0.91275 0.80800
 H1837 H 0.75860 0.93418 0.78786
 H1838 H 0.80513 0.90954 0.75903
 H1839 H 0.77323 0.88874 0.81880
 H1840 H 0.79252 0.93428 0.74872
 C1841 C 0.47271 0.86081 0.30797
 C1842 C 0.45965 0.86777 0.29949
 C1843 C 0.45519 0.86114 0.28454
 C1844 C 0.46337 0.84754 0.27837
 C1845 C 0.47631 0.84055 0.28713
 C1846 C 0.48098 0.84737 0.30183
 C1847 C 0.48409 0.82659 0.28128
 C1848 C 0.47893 0.81930 0.26687
 C1849 C 0.46626 0.82656 0.25807
 C1850 C 0.45861 0.84060 0.26372
 H1851 H 0.44530 0.86641 0.27773
 H1852 H 0.49087 0.84217 0.30872
 H1853 H 0.49374 0.82108 0.28828
 H1854 H 0.44875 0.84583 0.25681
 H1855 H 0.47648 0.86552 0.31950
 H1856 H 0.46204 0.82123 0.24691
 C1857 C -0.03149 0.85140 0.80806
 C1858 C -0.04148 0.86095 0.79812
 C1859 C -0.04388 0.85614 0.78209
 C1860 C -0.03657 0.84192 0.77614
 C1861 C -0.02668 0.83238 0.78630
 C1862 C -0.02416 0.83727 0.80221
 C1863 C -0.01977 0.81791 0.78051
 C1864 C -0.02282 0.81266 0.76471
 C1865 C -0.03245 0.82242 0.75462
 C1866 C -0.03919 0.83695 0.76026
 H1867 H -0.05140 0.86342 0.77421
 H1868 H -0.01666 0.83007 0.81019
 H1869 H -0.01251 0.81047 0.78849
 H1870 H -0.04672 0.84413 0.75228
 H1871 H -0.02951 0.85466 0.82049
 H1872 H -0.03503 0.81869 0.74242
 C1873 C -0.05923 -0.10648 -0.03132
 C1874 C -0.05048 -0.11326 -0.04416
 C1875 C -0.03584 -0.10589 -0.04870
 C1876 C -0.03012 -0.09200 -0.04058
 C1877 C -0.03907 -0.08542 -0.02770
 C1878 C -0.05358 -0.09276 -0.02317
 C1879 C -0.03356 -0.07140 -0.01975
 C1880 C -0.01928 -0.06363 -0.02461
 C1881 C -0.01037 -0.07036 -0.03736
 C1882 C -0.01569 -0.08445 -0.04521
 H1883 H -0.02888 -0.11087 -0.05853
 H1884 H -0.06065 -0.08781 -0.01339
 H1885 H -0.04069 -0.06628 -0.01008
 H1886 H -0.00865 -0.08929 -0.05506
 H1887 H -0.07059 -0.11162 -0.02750
 H1888 H 0.00065 -0.06461 -0.04143
 C1889 C -0.05594 0.39328 0.47261
 C1890 C -0.04715 0.38566 0.46019
 C1891 C -0.03185 0.39206 0.45622
 C1892 C -0.02557 0.40569 0.46433
 C1893 C -0.03468 0.41329 0.47653
 C1894 C -0.04982 0.40695 0.48059
 C1895 C -0.02868 0.42733 0.48418
 C1896 C -0.01368 0.43396 0.47972
 C1897 C -0.00452 0.42596 0.46787
 C1898 C -0.01039 0.41198 0.46028
 H1899 H -0.02464 0.38647 0.44691
 H1900 H -0.05702 0.41266 0.48987
 H1901 H -0.03598 0.43338 0.49317
 H1902 H -0.00320 0.40629 0.45099
 H1903 H -0.06778 0.38900 0.47607
 H1904 H 0.00704 0.43077 0.46409
 C1905 C 0.44517 -0.11070 0.47170
 C1906 C 0.45297 -0.11738 0.45816
 C1907 C 0.46761 -0.11027 0.45311
 C1908 C 0.47417 -0.09680 0.46127
 C1909 C 0.46606 -0.09026 0.47467
 C1910 C 0.45162 -0.09732 0.47981
 C1911 C 0.47230 -0.07654 0.48256
 C1912 C 0.48654 -0.06905 0.47714
 C1913 C 0.49470 -0.07582 0.46394
 C1914 C 0.48860 -0.08960 0.45612
 H1915 H 0.47401 -0.11507 0.44285
 H1916 H 0.44522 -0.09241 0.49004
 H1917 H 0.46574 -0.07142 0.49260
 H1918 H 0.49503 -0.09446 0.44588
 H1919 H 0.43391 -0.11556 0.47610
 H1920 H 0.50565 -0.07028 0.45945
 C1921 C 0.43992 0.39517 -0.03097
 C1922 C 0.44947 0.38612 -0.04180
 C1923 C 0.46563 0.39094 -0.04426
 C1924 C 0.47190 0.40476 -0.03663
 C1925 C 0.46202 0.41396 -0.02620
 C1926 C 0.44613 0.40894 -0.02329
 C1927 C 0.46805 0.42828 -0.01925
 C1928 C 0.48377 0.43363 -0.02281
 C1929 C 0.49366 0.42408 -0.03280
 C1930 C 0.48780 0.40974 -0.03960
 H1931 H 0.47344 0.38419 -0.05226
 H1932 H 0.43840 0.41582 -0.01527
 H1933 H 0.46026 0.43556 -0.01164
 H1934 H 0.49556 0.40277 -0.04750
 H1935 H 0.42750 0.39193 -0.02855
 H1936 H 0.50586 0.42788 -0.03568
 C1937 C 0.80797 0.35594 0.47289
 C1938 C 0.79802 0.36447 0.46205
 C1939 C 0.78196 0.35922 0.45962
 C1940 C 0.77608 0.34543 0.46750
 C1941 C 0.78629 0.33679 0.47813
 C1942 C 0.80216 0.34225 0.48087
 C1943 C 0.78066 0.32252 0.48539
 C1944 C 0.76506 0.31654 0.48186
 C1945 C 0.75487 0.32551 0.47160
 C1946 C 0.76028 0.33987 0.46458
 H1947 H 0.77403 0.36573 0.45149
 H1948 H 0.81019 0.33575 0.48893
 H1949 H 0.78874 0.31565 0.49312
 H1950 H 0.75227 0.34635 0.45648
 H1951 H 0.82040 0.35959 0.47496
 H1952 H 0.74282 0.32118 0.46865
 C1953 C 0.78059 0.85293 -0.06080
 C1954 C 0.78893 0.86359 -0.05038
 C1955 C 0.78775 0.86125 -0.03376
 C1956 C 0.77874 0.84822 -0.02769
 C1957 C 0.77063 0.83751 -0.03834
 C1958 C 0.77149 0.84008 -0.05484
 C1959 C 0.76245 0.82393 -0.03238
 C1960 C 0.76275 0.82055 -0.01593
 C1961 C 0.77036 0.83156 -0.00536
 C1962 C 0.77813 0.84538 -0.01118
 H1963 H 0.79396 0.86939 -0.02555
 H1964 H 0.76543 0.83194 -0.06318
 H1965 H 0.75688 0.81539 -0.04068
 H1966 H 0.78423 0.85347 -0.00282
 H1967 H 0.78127 0.85424 -0.07364
 H1968 H 0.77079 0.82916 0.00737
 C1969 C 0.77738 0.31126 0.39500
 C1970 C 0.78841 0.30133 0.38665
 C1971 C 0.79113 0.28536 0.39202
 C1972 C 0.78323 0.27951 0.40565
 C1973 C 0.77236 0.28968 0.41410
 C1974 C 0.76944 0.30550 0.40858
 C1975 C 0.76498 0.28400 0.42813
 C1976 C 0.76855 0.26836 0.43398
 C1977 C 0.77907 0.25825 0.42520
 C1978 C 0.78627 0.26373 0.41116
 H1979 H 0.79943 0.27746 0.38565
 H1980 H 0.76119 0.31351 0.41491
 H1981 H 0.75703 0.29200 0.43484
 H1982 H 0.79452 0.25574 0.40481
 H1983 H 0.77509 0.32364 0.39125
 H1984 H 0.78205 0.24615 0.42938
 C1985 C 0.80910 0.78453 -0.09956
 C1986 C 0.79844 0.79402 -0.10888
 C1987 C 0.78219 0.79553 -0.10415
 C1988 C 0.77666 0.78755 -0.09038
 C1989 C 0.78750 0.77801 -0.08117
 C1990 C 0.80370 0.77662 -0.08585
 C1991 C 0.78207 0.77031 -0.06724
 C1992 C 0.76595 0.77223 -0.06219
 C1993 C 0.75521 0.78153 -0.07161
 C1994 C 0.76048 0.78904 -0.08560
 H1995 H 0.77382 0.80270 -0.11124
 H1996 H 0.81222 0.76948 -0.07889
 H1997 H 0.79056 0.76340 -0.06000
 H1998 H 0.75198 0.79629 -0.09249
 H1999 H 0.82174 0.78330 -0.10273
 H2000 H 0.74275 0.78329 -0.06799
 C2001 C 0.28594 0.44208 0.85434
 C2002 C 0.29675 0.45184 0.86327
 C2003 C 0.29991 0.46778 0.85804
 C2004 C 0.29203 0.47395 0.84433
 C2005 C 0.28096 0.46403 0.83577
 C2006 C 0.27811 0.44811 0.84080
 C2007 C 0.27295 0.47008 0.82222
 C2008 C 0.27593 0.48594 0.81678
 C2009 C 0.28703 0.49574 0.82528
 C2010 C 0.29494 0.48983 0.83899
 H2011 H 0.30821 0.47544 0.86477
 H2012 H 0.26977 0.44032 0.83428
 H2013 H 0.26464 0.46224 0.81570
 H2014 H 0.30340 0.49764 0.84533
 H2015 H 0.28348 0.42967 0.85776
 H2016 H 0.28966 0.50796 0.82129
 C2017 C 0.28217 -0.05711 0.35122
 C2018 C 0.29583 -0.04915 0.35776
 C2019 C 0.30155 -0.03506 0.35011
 C2020 C 0.29374 -0.02907 0.33628
 C2021 C 0.28000 -0.03719 0.33000
 C2022 C 0.27435 -0.05119 0.33757
 C2023 C 0.27224 -0.03130 0.31616
 C2024 C 0.27808 -0.01742 0.30829
 C2025 C 0.29176 -0.00941 0.31468
 C2026 C 0.29947 -0.01514 0.32854
 H2027 H 0.31202 -0.02871 0.35486
 H2028 H 0.26386 -0.05761 0.33290
 H2029 H 0.26184 -0.03778 0.31134
 H2030 H 0.31001 -0.00875 0.33312
 H2031 H 0.27739 -0.06802 0.35657
 H2032 H 0.29666 0.00123 0.30888
 C2033 C -0.02997 -0.05343 -0.10655
 C2034 C -0.04403 -0.04615 -0.11312
 C2035 C -0.05036 -0.03216 -0.10545
 C2036 C -0.04296 -0.02585 -0.09150
 C2037 C -0.02897 -0.03346 -0.08520
 C2038 C -0.02256 -0.04716 -0.09284
 C2039 C -0.02174 -0.02750 -0.07114
 C2040 C -0.02837 -0.01406 -0.06299
 C2041 C -0.04223 -0.00643 -0.06941
 C2042 C -0.04941 -0.01222 -0.08358
 H2043 H -0.06112 -0.02623 -0.11010
 H2044 H -0.01184 -0.05314 -0.08813
 H2045 H -0.01118 -0.03369 -0.06632
 H2046 H -0.06015 -0.00620 -0.08819
 H2047 H -0.02444 -0.06405 -0.11189
 H2048 H -0.04769 0.00388 -0.06336
 C2049 C -0.05678 0.46854 0.39422
 C2050 C -0.04824 0.45562 0.38687
 C2051 C -0.03348 0.45048 0.39385
 C2052 C -0.02720 0.45845 0.40749
 C2053 C -0.03590 0.47147 0.41445
 C2054 C -0.05072 0.47629 0.40783
 C2055 C -0.02976 0.47945 0.42801
 C2056 C -0.01495 0.47463 0.43492
 C2057 C -0.00628 0.46171 0.42789
 C2058 C -0.01233 0.45371 0.41428
 H2059 H -0.02661 0.44062 0.38854
 H2060 H -0.05764 0.48613 0.41315
 H2061 H -0.03674 0.48925 0.43335
 H2062 H -0.00545 0.44375 0.40915
 H2063 H -0.06834 0.47273 0.38969
 H2064 H 0.00510 0.45761 0.43303
 C2065 C 0.43945 -0.02900 0.39875
 C2066 C 0.44915 -0.03978 0.38988
 C2067 C 0.46520 -0.04267 0.39473
 C2068 C 0.47147 -0.03510 0.40845
 C2069 C 0.46154 -0.02455 0.41756
 C2070 C 0.44558 -0.02149 0.41255
 C2071 C 0.46764 -0.01754 0.43169
 C2072 C 0.48351 -0.02104 0.43688
 C2073 C 0.49340 -0.03117 0.42743
 C2074 C 0.48744 -0.03811 0.41333
 H2075 H 0.47286 -0.05071 0.38775
 H2076 H 0.43782 -0.01341 0.41935
 H2077 H 0.45982 -0.00991 0.43893
 H2078 H 0.49522 -0.04609 0.40643
 H2079 H 0.42703 -0.02662 0.39517
 H2080 H 0.50566 -0.03410 0.43114
 C2081 C 0.44348 0.46979 -0.10797
 C2082 C 0.45300 0.45847 -0.11644
 C2083 C 0.46882 0.45512 -0.11101
 C2084 C 0.47499 0.46289 -0.09726
 C2085 C 0.46526 0.47420 -0.08886
 C2086 C 0.44955 0.47759 -0.09433
 C2087 C 0.47124 0.48166 -0.07491
 C2088 C 0.48676 0.47776 -0.06902
 C2089 C 0.49644 0.46666 -0.07758
 C2090 C 0.49065 0.45937 -0.09163
 H2091 H 0.47636 0.44653 -0.11744
 H2092 H 0.44189 0.48614 -0.08797
 H2093 H 0.46355 0.49002 -0.06833
 H2094 H 0.49829 0.45074 -0.09792
 H2095 H 0.43120 0.47252 -0.11170
 H2096 H 0.50842 0.46342 -0.07327
 C2097 C 0.44578 0.78145 0.35397
 C2098 C 0.45453 0.79360 0.36224
 C2099 C 0.46975 0.79835 0.35643
 C2100 C 0.47610 0.79103 0.34258
 C2101 C 0.46717 0.77876 0.33457
 C2102 C 0.45206 0.77408 0.34034
 C2103 C 0.47326 0.77159 0.32066
 C2104 C 0.48807 0.77671 0.31431
 C2105 C 0.49700 0.78885 0.32236
 C2106 C 0.49111 0.79587 0.33646
 H2107 H 0.47666 0.80767 0.36262
 H2108 H 0.44499 0.76481 0.33421
 H2109 H 0.46610 0.76245 0.31445
 H2110 H 0.49813 0.80529 0.34239
 H2111 H 0.43393 0.77761 0.35782
 H2112 H 0.50842 0.79307 0.31764
 C2113 C -0.03296 0.80694 0.85172
 C2114 C -0.04562 0.79830 0.85901
 C2115 C -0.05089 0.78365 0.85186
 C2116 C -0.04363 0.77774 0.83780
 C2117 C -0.03087 0.78650 0.83071
 C2118 C -0.02566 0.80109 0.83776
 C2119 C -0.02365 0.78060 0.81661
 C2120 C -0.02913 0.76608 0.80938
 C2121 C -0.04186 0.75750 0.81660
 C2122 C -0.04899 0.76323 0.83066
 H2123 H -0.06062 0.77676 0.85715
 H2124 H -0.01594 0.80802 0.83246
 H2125 H -0.01399 0.78749 0.81114
 H2126 H -0.05881 0.75637 0.83589
 H2127 H -0.02859 0.81826 0.85675
 H2128 H -0.04644 0.74635 0.81130
 C2129 C 0.39538 0.80898 0.28185
 C2130 C 0.38892 0.80019 0.29476
 C2131 C 0.39682 0.78576 0.29953
 C2132 C 0.41080 0.78023 0.29149
 C2133 C 0.41698 0.78920 0.27851
 C2134 C 0.40918 0.80355 0.27383
 C2135 C 0.43101 0.78383 0.27055
 C2136 C 0.43917 0.76963 0.27547
 C2137 C 0.43284 0.76075 0.28837
 C2138 C 0.41879 0.76595 0.29624
 H2139 H 0.39211 0.77877 0.30941
 H2140 H 0.41380 0.81066 0.26398
 H2141 H 0.43576 0.79097 0.26078
 H2142 H 0.41429 0.75889 0.30618
 H2143 H 0.38989 0.82022 0.27790
 H2144 H 0.43885 0.74983 0.29255
 C2145 C -0.10652 0.78145 0.80594
 C2146 C -0.11519 0.79296 0.79683
 C2147 C -0.11007 0.79628 0.78112
 C2148 C -0.09663 0.78803 0.77462
 C2149 C -0.08833 0.77632 0.78391
 C2150 C -0.09331 0.77319 0.79954
 C2151 C -0.07494 0.76810 0.77760
 C2152 C -0.06936 0.77156 0.76214
 C2153 C -0.07762 0.78325 0.75293
 C2154 C -0.09123 0.79132 0.75907
 H2155 H -0.11654 0.80512 0.77393
 H2156 H -0.08692 0.76439 0.80688
 H2157 H -0.06852 0.75938 0.78502
 H2158 H -0.09737 0.80030 0.75175
 H2159 H -0.10979 0.77876 0.81814
 H2160 H -0.07347 0.78627 0.74104
 C2161 C 0.85537 0.27971 0.44259
 C2162 C 0.86351 0.29111 0.45236
 C2163 C 0.85757 0.29435 0.46780
 C2164 C 0.84368 0.28638 0.47334
 C2165 C 0.83566 0.27498 0.46336
 C2166 C 0.84162 0.27171 0.44804
 C2167 C 0.82154 0.26733 0.46866
 C2168 C 0.81506 0.27114 0.48373
 C2169 C 0.82327 0.28229 0.49370
 C2170 C 0.83750 0.28977 0.48859
 H2171 H 0.86372 0.30302 0.47551
 H2172 H 0.83555 0.26309 0.44019
 H2173 H 0.81527 0.25891 0.46074
 H2174 H 0.84348 0.29846 0.49642
 H2175 H 0.85942 0.27706 0.43057
 H2176 H 0.81852 0.28549 0.50536
 C2177 C 0.85407 0.77774 -0.05711
 C2178 C 0.86223 0.79032 -0.04894
 C2179 C 0.85626 0.79562 -0.03401
 C2180 C 0.84225 0.78872 -0.02750
 C2181 C 0.83413 0.77619 -0.03590
 C2182 C 0.84018 0.77073 -0.05064
 C2183 C 0.81992 0.76956 -0.02960
 C2184 C 0.81345 0.77546 -0.01510
 C2185 C 0.82175 0.78781 -0.00675
 C2186 C 0.83608 0.79431 -0.01284
 H2187 H 0.86242 0.80515 -0.02739
 H2188 H 0.83405 0.76116 -0.05726
 H2189 H 0.81364 0.76014 -0.03631
 H2190 H 0.84216 0.80392 -0.00624
 H2191 H 0.85825 0.77345 -0.06863
 H2192 H 0.81706 0.79260 0.00440
 C2193 C -0.11160 -0.02768 -0.05516
 C2194 C -0.11859 -0.04071 -0.04682
 C2195 C -0.11124 -0.04595 -0.03249
 C2196 C -0.09718 -0.03829 -0.02658
 C2197 C -0.09035 -0.02520 -0.03508
 C2198 C -0.09764 -0.02001 -0.04936
 C2199 C -0.07620 -0.01766 -0.02931
 C2200 C -0.06859 -0.02315 -0.01520
 C2201 C -0.07558 -0.03613 -0.00679
 C2202 C -0.08976 -0.04358 -0.01238
 H2203 H -0.11643 -0.05592 -0.02585
 H2204 H -0.09251 -0.01008 -0.05611
 H2205 H -0.07088 -0.00783 -0.03608
 H2206 H -0.09479 -0.05362 -0.00571
 H2207 H -0.11676 -0.02345 -0.06632
 H2208 H -0.06997 -0.04069 0.00406
 C2209 C -0.10282 0.46828 0.43712
 C2210 C -0.11088 0.45690 0.44676
 C2211 C -0.10441 0.45339 0.46201
 C2212 C -0.09020 0.46104 0.46751
 C2213 C -0.08226 0.47244 0.45772
 C2214 C -0.08868 0.47596 0.44254
 C2215 C -0.06796 0.47999 0.46321
 C2216 C -0.06139 0.47620 0.47836
 C2217 C -0.06949 0.46483 0.48797
 C2218 C -0.08374 0.45739 0.48263
 H2219 H -0.11040 0.44477 0.46971
 H2220 H -0.08273 0.48461 0.43482
 H2221 H -0.06181 0.48856 0.45554
 H2222 H -0.08964 0.44864 0.49030
 H2223 H -0.10733 0.47121 0.42530
 H2224 H -0.06473 0.46156 0.49964
 C2225 C 0.39683 -0.03130 0.44092
 C2226 C 0.38964 -0.04470 0.44864
 C2227 C 0.39685 -0.05026 0.46302
 C2228 C 0.41077 -0.04269 0.46943
 C2229 C 0.41772 -0.02931 0.46150
 C2230 C 0.41064 -0.02374 0.44727
 C2231 C 0.43175 -0.02187 0.46782
 C2232 C 0.43907 -0.02773 0.48196
 C2233 C 0.43192 -0.04102 0.48977
 C2234 C 0.41793 -0.04837 0.48361
 H2235 H 0.39178 -0.06048 0.46934
 H2236 H 0.41580 -0.01350 0.44099
 H2237 H 0.43714 -0.01178 0.46151
 H2238 H 0.41282 -0.05865 0.48987
 H2239 H 0.39192 -0.02652 0.42988
 H2240 H 0.43727 -0.04592 0.50060
 C2241 C 0.39602 0.44132 -0.03030
 C2242 C 0.38898 0.44902 -0.04374
 C2243 C 0.39657 0.46314 -0.04967
 C2244 C 0.41072 0.46934 -0.04238
 C2245 C 0.41750 0.46141 -0.02896
 C2246 C 0.41007 0.44742 -0.02305
 C2247 C 0.43171 0.46747 -0.02176
 C2248 C 0.43941 0.48138 -0.02784
 C2249 C 0.43247 0.48924 -0.04117
 C2250 C 0.41827 0.48331 -0.04834
 H2251 H 0.39158 0.46944 -0.05993
 H2252 H 0.41515 0.44112 -0.01281
 H2253 H 0.43692 0.46112 -0.01161
 H2254 H 0.41329 0.48956 -0.05865
 H2255 H 0.39086 0.43044 -0.02526
 H2256 H 0.43814 0.49988 -0.04625
 C2257 C 0.35246 0.44379 0.78111
 C2258 C 0.36207 0.45370 0.79111
 C2259 C 0.35798 0.47018 0.79311
 C2260 C 0.34440 0.47666 0.78525
 C2261 C 0.33489 0.46654 0.77521
 C2262 C 0.33902 0.45016 0.77319
 C2263 C 0.32106 0.47279 0.76776
 C2264 C 0.31621 0.48892 0.77058
 C2265 C 0.32585 0.49903 0.78034
 C2266 C 0.33995 0.49298 0.78751
 H2267 H 0.36534 0.47798 0.80070
 H2268 H 0.33172 0.44222 0.76566
 H2269 H 0.31359 0.46477 0.76048
 H2270 H 0.34710 0.50091 0.79517
 H2271 H 0.35516 0.43100 0.77952
 H2272 H 0.32227 0.51148 0.78274
 C2273 C 0.35570 -0.03003 0.30371
 C2274 C 0.36390 -0.04221 0.29509
 C2275 C 0.35816 -0.04684 0.27985
 C2276 C 0.34443 -0.03920 0.27325
 C2277 C 0.33645 -0.02686 0.28204
 C2278 C 0.34212 -0.02242 0.29726
 C2279 C 0.32275 -0.01927 0.27565
 C2280 C 0.31656 -0.02394 0.26062
 C2281 C 0.32449 -0.03624 0.25189
 C2282 C 0.33842 -0.04372 0.25810
 H2283 H 0.36448 -0.05614 0.27307
 H2284 H 0.33601 -0.01309 0.30419
 H2285 H 0.31657 -0.01008 0.28272
 H2286 H 0.34434 -0.05319 0.25119
 H2287 H 0.35969 -0.02644 0.31558
 H2288 H 0.31984 -0.04018 0.24036
 C2289 C 0.14279 0.52463 0.69668
 C2290 C 0.13372 0.53535 0.70627
 C2291 C 0.13863 0.53819 0.72220
 C2292 C 0.15256 0.53062 0.72838
 C2293 C 0.16170 0.52004 0.71855
 C2294 C 0.15666 0.51705 0.70276
 C2295 C 0.17604 0.51309 0.72446
 C2296 C 0.18163 0.51685 0.73998
 C2297 C 0.17221 0.52702 0.74983
 C2298 C 0.15774 0.53376 0.74412
 H2299 H 0.13166 0.54629 0.72978
 H2300 H 0.16360 0.50907 0.69502
 H2301 H 0.18328 0.50548 0.71663
 H2302 H 0.15087 0.54181 0.75184
 H2303 H 0.13939 0.52233 0.68434
 H2304 H 0.17628 0.53017 0.76181
 C2305 C 0.14195 0.02810 0.19413
 C2306 C 0.13532 0.04134 0.20266
 C2307 C 0.14307 0.04641 0.21694
 C2308 C 0.15719 0.03845 0.22247
 C2309 C 0.16362 0.02522 0.21369
 C2310 C 0.15588 0.02015 0.19958
 C2311 C 0.17789 0.01749 0.21893
 C2312 C 0.18610 0.02292 0.23278
 C2313 C 0.17947 0.03598 0.24156
 C2314 C 0.16514 0.04361 0.23651
 H2315 H 0.13825 0.05656 0.22373
 H2316 H 0.16069 0.01008 0.19264
 H2317 H 0.18289 0.00760 0.21187
 H2318 H 0.16044 0.05374 0.24342
 H2319 H 0.13653 0.02381 0.18309
 H2320 H 0.18552 0.04053 0.25222
 C2321 C 0.61004 0.69962 0.22155
 C2322 C 0.61755 0.70826 0.20914
 C2323 C 0.61099 0.72338 0.20449
 C2324 C 0.59715 0.72969 0.21211
 C2325 C 0.58988 0.72083 0.22458
 C2326 C 0.59641 0.70585 0.22921
 C2327 C 0.57593 0.72683 0.23200
 C2328 C 0.56874 0.74149 0.22697
 C2329 C 0.57612 0.75035 0.21466
 C2330 C 0.59028 0.74456 0.20737
 H2331 H 0.61657 0.73024 0.19498
 H2332 H 0.59087 0.69884 0.23866
 H2333 H 0.57031 0.71968 0.24131
 H2334 H 0.59566 0.75155 0.19783
 H2335 H 0.61451 0.68788 0.22535
 H2336 H 0.57081 0.76162 0.21047
 C2337 C 0.10485 0.72214 0.69670
 C2338 C 0.11156 0.70836 0.70427
 C2339 C 0.10393 0.70225 0.71802
 C2340 C 0.08971 0.70965 0.72388
 C2341 C 0.08317 0.72334 0.71595
 C2342 C 0.09087 0.72951 0.70246
 C2343 C 0.06879 0.73047 0.72132
 C2344 C 0.06047 0.72400 0.73443
 C2345 C 0.06719 0.71055 0.74250
 C2346 C 0.08172 0.70349 0.73731
 H2347 H 0.10884 0.69169 0.72405
 H2348 H 0.08596 0.73997 0.69623
 H2349 H 0.06378 0.74074 0.71485
 H2350 H 0.08651 0.69302 0.74360
 H2351 H 0.11023 0.72736 0.68618
 H2352 H 0.06103 0.70524 0.75261
 C2353 C 0.64499 0.22037 0.55771
 C2354 C 0.63732 0.20771 0.54916
 C2355 C 0.64369 0.20299 0.53421
 C2356 C 0.65748 0.21068 0.52800
 C2357 C 0.66501 0.22335 0.53676
 C2358 C 0.65864 0.22812 0.55156
 C2359 C 0.67892 0.23087 0.53072
 C2360 C 0.68564 0.22580 0.51605
 C2361 C 0.67795 0.21326 0.50736
 C2362 C 0.66398 0.20583 0.51324
 H2363 H 0.63799 0.19335 0.52734
 H2364 H 0.66426 0.23780 0.55846
 H2365 H 0.68474 0.24040 0.53768
 H2366 H 0.65839 0.19612 0.50635
 H2367 H 0.64058 0.22431 0.56925
 H2368 H 0.68285 0.20902 0.49609
 C2369 C 0.63969 0.72537 0.05744
 C2370 C 0.63434 0.71085 0.05009
 C2371 C 0.64317 0.70465 0.03703
 C2372 C 0.65704 0.71272 0.03150
 C2373 C 0.66230 0.72722 0.03906
 C2374 C 0.65350 0.73344 0.05201
 C2375 C 0.67633 0.73515 0.03366
 C2376 C 0.68523 0.72876 0.02073
 C2377 C 0.67971 0.71437 0.01325
 C2378 C 0.66582 0.70645 0.01857
 H2379 H 0.63938 0.69349 0.03118
 H2380 H 0.65730 0.74454 0.05797
 H2381 H 0.68042 0.74614 0.03965
 H2382 H 0.66202 0.69532 0.01264
 H2383 H 0.63326 0.73064 0.06744
 H2384 H 0.68629 0.70899 0.00336
 C2385 C 0.10539 0.02474 0.05421
 C2386 C 0.11252 0.03759 0.04575
 C2387 C 0.10564 0.04239 0.03105
 C2388 C 0.09153 0.03497 0.02520
 C2389 C 0.08432 0.02230 0.03397
 C2390 C 0.09144 0.01713 0.04834
 C2391 C 0.06980 0.01539 0.02852
 C2392 C 0.06213 0.02124 0.01460
 C2393 C 0.06959 0.03361 0.00576
 C2394 C 0.08424 0.04033 0.01095
 H2395 H 0.11100 0.05210 0.02420
 H2396 H 0.08603 0.00745 0.05522
 H2397 H 0.06413 0.00598 0.03557
 H2398 H 0.08964 0.05002 0.00406
 H2399 H 0.11033 0.02072 0.06554
 H2400 H 0.06393 0.03832 -0.00500
 C2401 C 0.10611 0.53168 0.55882
 C2402 C 0.11495 0.54246 0.54921
 C2403 C 0.10950 0.54552 0.53350
 C2404 C 0.09547 0.53792 0.52751
 C2405 C 0.08676 0.52711 0.53731
 C2406 C 0.09218 0.52408 0.55294
 C2407 C 0.07260 0.51972 0.53147
 C2408 C 0.06679 0.52315 0.51597
 C2409 C 0.07563 0.53381 0.50624
 C2410 C 0.08988 0.54106 0.51193
 H2411 H 0.11618 0.55371 0.52589
 H2412 H 0.08558 0.51591 0.56066
 H2413 H 0.06585 0.51170 0.53922
 H2414 H 0.09639 0.54931 0.50422
 H2415 H 0.10980 0.52921 0.57102
 H2416 H 0.07141 0.53672 0.49429
 C2417 C 0.60594 0.05950 0.53074
 C2418 C 0.61585 0.04911 0.53989
 C2419 C 0.61168 0.03259 0.54109
 C2420 C 0.59768 0.02659 0.53355
 C2421 C 0.58769 0.03718 0.52455
 C2422 C 0.59199 0.05359 0.52313
 C2423 C 0.57336 0.03127 0.51750
 C2424 C 0.56871 0.01497 0.51961
 C2425 C 0.57893 0.00449 0.52833
 C2426 C 0.59332 0.01022 0.53515
 H2427 H 0.61926 0.02436 0.54792
 H2428 H 0.58443 0.06191 0.51635
 H2429 H 0.56552 0.03955 0.51098
 H2430 H 0.60085 0.00193 0.54200
 H2431 H 0.60877 0.07230 0.52969
 H2432 H 0.57564 -0.00811 0.53016
 C2433 C 0.60896 0.55624 0.02647
 C2434 C 0.61707 0.54644 0.03773
 C2435 C 0.61153 0.53056 0.04045
 C2436 C 0.59795 0.52460 0.03215
 C2437 C 0.58986 0.53463 0.02094
 C2438 C 0.59550 0.55038 0.01813
 C2439 C 0.57593 0.52897 0.01309
 C2440 C 0.56969 0.51353 0.01656
 C2441 C 0.57800 0.50347 0.02745
 C2442 C 0.59209 0.50893 0.03510
 H2443 H 0.61772 0.52284 0.04901
 H2444 H 0.58935 0.55826 0.00967
 H2445 H 0.56952 0.53695 0.00490
 H2446 H 0.59814 0.50106 0.04363
 H2447 H 0.61278 0.56859 0.02426
 H2448 H 0.57340 0.49153 0.03034
 C2449 C 0.02496 0.05347 0.10882
 C2450 C 0.03833 0.04512 0.11539
 C2451 C 0.04374 0.03075 0.10784
 C2452 C 0.03581 0.02480 0.09404
 C2453 C 0.02233 0.03330 0.08771
 C2454 C 0.01704 0.04762 0.09517
 C2455 C 0.01453 0.02757 0.07383
 C2456 C 0.02015 0.01354 0.06588
 C2457 C 0.03350 0.00507 0.07234
 C2458 C 0.04120 0.01060 0.08633
 H2459 H 0.05400 0.02414 0.11270
 H2460 H 0.00683 0.05437 0.09037
 H2461 H 0.00442 0.03441 0.06893
 H2462 H 0.05155 0.00393 0.09095
 H2463 H 0.02062 0.06469 0.11409
 H2464 H 0.03821 -0.00568 0.06642
 C2465 C 0.05890 0.53201 0.60334
 C2466 C 0.04859 0.54260 0.61180
 C2467 C 0.03309 0.54600 0.60554
 C2468 C 0.02785 0.53860 0.59119
 C2469 C 0.03829 0.52782 0.58296
 C2470 C 0.05382 0.52471 0.58907
 C2471 C 0.03312 0.52041 0.56867
 C2472 C 0.01767 0.52373 0.56227
 C2473 C 0.00734 0.53445 0.57056
 C2474 C 0.01235 0.54176 0.58492
 H2475 H 0.02500 0.55409 0.61195
 H2476 H 0.06203 0.51659 0.58284
 H2477 H 0.04135 0.51237 0.56233
 H2478 H 0.00417 0.54999 0.59104
 H2479 H 0.07100 0.52936 0.60771
 H2480 H -0.00460 0.53730 0.56587
 C2481 C 0.52927 0.05095 0.60784
 C2482 C 0.54222 0.04251 0.61527
 C2483 C 0.54687 0.02729 0.60889
 C2484 C 0.53879 0.02075 0.59546
 C2485 C 0.52594 0.02950 0.58825
 C2486 C 0.52127 0.04452 0.59455
 C2487 C 0.51825 0.02338 0.57452
 C2488 C 0.52343 0.00872 0.56755
 C2489 C 0.53594 -0.00018 0.57501
 C2490 C 0.54349 0.00574 0.58890
 H2491 H 0.55670 0.02046 0.61428
 H2492 H 0.51152 0.05144 0.58907
 H2493 H 0.50877 0.03051 0.56883
 H2494 H 0.55328 -0.00120 0.59425
 H2495 H 0.52525 0.06273 0.61196
 H2496 H 0.54021 -0.01151 0.56987
 C2497 C 0.52845 0.55961 0.10119
 C2498 C 0.53861 0.54932 0.11020
 C2499 C 0.54118 0.53328 0.10487
 C2500 C 0.53386 0.52764 0.09067
 C2501 C 0.52385 0.53815 0.08159
 C2502 C 0.52116 0.55409 0.08702
 C2503 C 0.51704 0.53268 0.06707
 C2504 C 0.52029 0.51686 0.06138
 C2505 C 0.52991 0.50640 0.07077
 C2506 C 0.53659 0.51172 0.08528
 H2507 H 0.54881 0.52514 0.11177
 H2508 H 0.51352 0.56232 0.08024
 H2509 H 0.50976 0.54094 0.05993
 H2510 H 0.54416 0.50346 0.09212
 H2511 H 0.52633 0.57205 0.10492
 H2512 H 0.53261 0.49416 0.06674
 C2513 C 0.21880 0.55834 0.64866
 C2514 C 0.20792 0.54823 0.64024
 C2515 C 0.20414 0.53286 0.64653
 C2516 C 0.21130 0.52764 0.66093
 C2517 C 0.22235 0.53791 0.66909
 C2518 C 0.22596 0.55323 0.66290
 C2519 C 0.22948 0.53285 0.68345
 C2520 C 0.22562 0.51767 0.69004
 C2521 C 0.21462 0.50748 0.68187
 C2522 C 0.20759 0.51239 0.66739
 H2523 H 0.19580 0.52491 0.64020
 H2524 H 0.23428 0.56131 0.66912
 H2525 H 0.23774 0.54098 0.68968
 H2526 H 0.19911 0.50435 0.66134
 H2527 H 0.22176 0.57035 0.64437
 H2528 H 0.21134 0.49577 0.68674
 C2529 C 0.22299 0.05461 0.13879
 C2530 C 0.20955 0.04635 0.13224
 C2531 C 0.20443 0.03182 0.13947
 C2532 C 0.21237 0.02583 0.15313
 C2533 C 0.22574 0.03435 0.15963
 C2534 C 0.23101 0.04866 0.15231
 C2535 C 0.23338 0.02867 0.17356
 C2536 C 0.22767 0.01468 0.18133
 C2537 C 0.21451 0.00614 0.17461
 C2538 C 0.20698 0.01162 0.16059
 H2539 H 0.19418 0.02518 0.13463
 H2540 H 0.24122 0.05538 0.15718
 H2541 H 0.24341 0.03551 0.17864
 H2542 H 0.19673 0.00492 0.15579
 H2543 H 0.22729 0.06583 0.13364
 H2544 H 0.20980 -0.00463 0.18034
 C2545 C 0.68784 0.21805 0.60038
 C2546 C 0.69790 0.20728 0.60894
 C2547 C 0.71376 0.20447 0.60355
 C2548 C 0.71951 0.21232 0.58985
 C2549 C 0.70930 0.22313 0.58135
 C2550 C 0.69348 0.22590 0.58672
 C2551 C 0.71497 0.23079 0.56750
 C2552 C 0.73070 0.22762 0.56188
 C2553 C 0.74081 0.21698 0.57058
 C2554 C 0.73529 0.20945 0.58444
 H2555 H 0.72173 0.19633 0.61007
 H2556 H 0.68546 0.23409 0.58034
 H2557 H 0.70697 0.23881 0.56086
 H2558 H 0.74330 0.20122 0.59080
 H2559 H 0.67551 0.22035 0.60410
 H2560 H 0.75297 0.21427 0.56654
 C2561 C 0.71353 0.69293 0.10208
 C2562 C 0.70484 0.70369 0.11201
 C2563 C 0.70404 0.72024 0.10806
 C2564 C 0.71215 0.72604 0.09452
 C2565 C 0.72108 0.71512 0.08481
 C2566 C 0.72158 0.69859 0.08862
 C2567 C 0.72910 0.72083 0.07125
 C2568 C 0.72801 0.73727 0.06700
 C2569 C 0.71921 0.74809 0.07675
 C2570 C 0.71147 0.74255 0.09049
 H2571 H 0.69745 0.72865 0.11566
 H2572 H 0.72820 0.69003 0.08120
 H2573 H 0.73557 0.71234 0.06361
 H2574 H 0.70470 0.75110 0.09777
 H2575 H 0.71413 0.68007 0.10470
 H2576 H 0.71814 0.76081 0.07360
 C2577 C 0.53090 0.69195 0.14769
 C2578 C 0.53964 0.70260 0.13788
 C2579 C 0.54042 0.71917 0.14196
 C2580 C 0.53260 0.72503 0.15570
 C2581 C 0.52397 0.71418 0.16556
 C2582 C 0.52317 0.69767 0.16142
 C2583 C 0.51671 0.71991 0.17965
 C2584 C 0.51822 0.73632 0.18419
 C2585 C 0.52642 0.74710 0.17404
 C2586 C 0.53348 0.74152 0.15990
 H2587 H 0.54701 0.72752 0.13442
 H2588 H 0.51669 0.68916 0.16887
 H2589 H 0.51061 0.71142 0.18744
 H2590 H 0.53999 0.75003 0.15246
 H2591 H 0.53026 0.67909 0.14493
 H2592 H 0.52776 0.75981 0.17726
 C2593 C 0.06043 0.72000 0.64438
 C2594 C 0.05036 0.71020 0.63470
 C2595 C 0.03415 0.70787 0.63926
 C2596 C 0.02813 0.71497 0.65334
 C2597 C 0.03838 0.72463 0.66309
 C2598 C 0.05451 0.72711 0.65846
 C2599 C 0.03242 0.73133 0.67745
 C2600 C 0.01637 0.72829 0.68227
 C2601 C 0.00627 0.71888 0.67226
 C2602 C 0.01206 0.71235 0.65793
 H2603 H 0.02615 0.70054 0.63187
 H2604 H 0.06259 0.73440 0.66582
 H2605 H 0.04042 0.73843 0.68508
 H2606 H 0.00402 0.70500 0.65057
 H2607 H 0.07298 0.72192 0.64127
 H2608 H -0.00613 0.71634 0.67561
 C2609 C 0.53040 0.64793 0.19235
 C2610 C 0.54262 0.63987 0.20112
 C2611 C 0.54766 0.64649 0.21592
 C2612 C 0.54051 0.66084 0.22188
 C2613 C 0.52814 0.66862 0.21296
 C2614 C 0.52322 0.66209 0.19822
 C2615 C 0.52105 0.68298 0.21876
 C2616 C 0.52629 0.68995 0.23330
 C2617 C 0.53857 0.68211 0.24214
 C2618 C 0.54555 0.66763 0.23653
 H2619 H 0.55702 0.64049 0.22288
 H2620 H 0.51383 0.66797 0.19119
 H2621 H 0.51178 0.68897 0.21165
 H2622 H 0.55503 0.66188 0.24355
 H2623 H 0.52635 0.64341 0.18083
 H2624 H 0.54292 0.68724 0.25333
 C2625 C 0.05344 0.64023 0.72122
 C2626 C 0.04425 0.63169 0.70968
 C2627 C 0.02848 0.63716 0.70602
 C2628 C 0.02207 0.65100 0.71364
 C2629 C 0.03150 0.65948 0.72514
 C2630 C 0.04713 0.65395 0.72888
 C2631 C 0.02536 0.67362 0.73237
 C2632 C 0.01001 0.67970 0.72801
 C2633 C 0.00059 0.67101 0.71679
 C2634 C 0.00651 0.65673 0.70976
 H2635 H 0.02118 0.63069 0.69725
 H2636 H 0.05457 0.66038 0.73757
 H2637 H 0.03289 0.68030 0.74081
 H2638 H -0.00091 0.65039 0.70099
 H2639 H 0.06567 0.63651 0.72421
 H2640 H -0.01124 0.67545 0.71317
 C2641 C 0.05165 0.10846 0.02975
 C2642 C 0.04426 0.11493 0.04356
 C2643 C 0.03005 0.10745 0.04923
 C2644 C 0.02353 0.09370 0.04135
 C2645 C 0.03121 0.08741 0.02758
 C2646 C 0.04521 0.09491 0.02187
 C2647 C 0.02503 0.07349 0.01991
 C2648 C 0.01132 0.06545 0.02591
 C2649 C 0.00361 0.07194 0.03952
 C2650 C 0.00960 0.08596 0.04711
 H2651 H 0.02413 0.11214 0.05983
 H2652 H 0.05130 0.09021 0.01136
 H2653 H 0.03129 0.06862 0.00956
 H2654 H 0.00351 0.09056 0.05766
 H2655 H 0.06252 0.11376 0.02490
 H2656 H -0.00689 0.06600 0.04451
 C2657 C 0.02720 0.60783 0.55512
 C2658 C 0.03748 0.61673 0.54506
 C2659 C 0.03937 0.61160 0.52908
 C2660 C 0.03143 0.59762 0.52334
 C2661 C 0.02136 0.58863 0.53365
 C2662 C 0.01923 0.59393 0.54947
 C2663 C 0.01408 0.57419 0.52814
 C2664 C 0.01704 0.56838 0.51254
 C2665 C 0.02671 0.57769 0.50226
 C2666 C 0.03374 0.59222 0.50757
 H2667 H 0.04709 0.61839 0.52109
 H2668 H 0.01164 0.58715 0.55759
 H2669 H 0.00685 0.56705 0.53628
 H2670 H 0.04139 0.59896 0.49948
 H2671 H 0.02558 0.61136 0.56750
 H2672 H 0.02921 0.57351 0.49021
 C2673 C 0.55822 0.10351 0.53077
 C2674 C 0.54909 0.11111 0.54288
 C2675 C 0.53415 0.10418 0.54723
 C2676 C 0.52853 0.08987 0.53973
 C2677 C 0.53788 0.08242 0.52763
 C2678 C 0.55267 0.08936 0.52321
 C2679 C 0.53247 0.06798 0.52033
 C2680 C 0.51790 0.06062 0.52512
 C2681 C 0.50862 0.06822 0.53710
 C2682 C 0.51383 0.08275 0.54426
 H2683 H 0.52686 0.10982 0.55645
 H2684 H 0.56003 0.08375 0.51401
 H2685 H 0.53991 0.06222 0.51127
 H2686 H 0.50649 0.08826 0.55354
 H2687 H 0.56980 0.10833 0.52716
 H2688 H 0.49740 0.06283 0.54111
 C2689 C 0.53453 0.60263 0.05609
 C2690 C 0.54482 0.61198 0.04641
 C2691 C 0.54756 0.60695 0.03053
 C2692 C 0.53990 0.59293 0.02438
 C2693 C 0.52937 0.58392 0.03423
 C2694 C 0.52683 0.58884 0.05005
 C2695 C 0.52180 0.56988 0.02827
 C2696 C 0.52489 0.56434 0.01266
 C2697 C 0.53531 0.57340 0.00287
 C2698 C 0.54263 0.58764 0.00863
 H2699 H 0.55546 0.61398 0.02292
 H2700 H 0.51894 0.58196 0.05780
 H2701 H 0.51403 0.56288 0.03606
 H2702 H 0.55066 0.59434 0.00087
 H2703 H 0.53241 0.60584 0.06847
 H2704 H 0.53798 0.56933 -0.00919
 C2705 C 0.72225 0.14629 0.56020
 C2706 C 0.71193 0.13696 0.55035
 C2707 C 0.70988 0.14136 0.53422
 C2708 C 0.71774 0.15505 0.52808
 C2709 C 0.72790 0.16448 0.53815
 C2710 C 0.73016 0.15993 0.55416
 C2711 C 0.73523 0.17856 0.53218
 C2712 C 0.73230 0.18352 0.51632
 C2713 C 0.72247 0.17382 0.50632
 C2714 C 0.71534 0.15966 0.51211
 H2715 H 0.70213 0.13419 0.52640
 H2716 H 0.73785 0.16706 0.56207
 H2717 H 0.74260 0.18602 0.54010
 H2718 H 0.70763 0.15255 0.50421
 H2719 H 0.72399 0.14327 0.57268
 H2720 H 0.72000 0.17736 0.49407
 C2721 C 0.69399 0.64774 0.03505
 C2722 C 0.70409 0.63974 0.04619
 C2723 C 0.71941 0.64635 0.04972
 C2724 C 0.72467 0.66051 0.04188
 C2725 C 0.71447 0.66812 0.03046
 C2726 C 0.69913 0.66170 0.02724
 C2727 C 0.71962 0.68219 0.02259
 C2728 C 0.73479 0.68906 0.02613
 C2729 C 0.74489 0.68142 0.03751
 C2730 C 0.73992 0.66724 0.04524
 H2731 H 0.72731 0.64037 0.05828
 H2732 H 0.69107 0.66749 0.01868
 H2733 H 0.71156 0.68806 0.01407
 H2734 H 0.74791 0.66167 0.05399
 H2735 H 0.68196 0.64331 0.03230
 H2736 H 0.75660 0.68651 0.04060
 C2737 C 0.21799 0.60724 0.69369
 C2738 C 0.20661 0.61595 0.70287
 C2739 C 0.20286 0.61031 0.71832
 C2740 C 0.21038 0.59624 0.72446
 C2741 C 0.22180 0.58773 0.71508
 C2742 C 0.22550 0.59331 0.69973
 C2743 C 0.22920 0.57361 0.72107
 C2744 C 0.22522 0.56762 0.73631
 C2745 C 0.21387 0.57622 0.74560
 C2746 C 0.20659 0.59044 0.73977
 H2747 H 0.19419 0.61684 0.72561
 H2748 H 0.23415 0.58685 0.69232
 H2749 H 0.23775 0.56706 0.71361
 H2750 H 0.19784 0.59679 0.74715
 H2751 H 0.22104 0.61103 0.68172
 H2752 H 0.21049 0.57188 0.75732
 C2753 C 0.19466 0.10427 0.21405
 C2754 C 0.20489 0.11340 0.20412
 C2755 C 0.22096 0.10823 0.20184
 C2756 C 0.22678 0.09425 0.20965
 C2757 C 0.21638 0.08543 0.21981
 C2758 C 0.20036 0.09049 0.22186
 C2759 C 0.22199 0.07142 0.22748
 C2760 C 0.23776 0.06571 0.22483
 C2761 C 0.24812 0.07453 0.21479
 C2762 C 0.24272 0.08879 0.20738
 H2763 H 0.22895 0.11514 0.19422
 H2764 H 0.19218 0.08372 0.22942
 H2765 H 0.21377 0.06451 0.23489
 H2766 H 0.25088 0.09534 0.19963
 H2767 H 0.18212 0.10767 0.21577
 H2768 H 0.26031 0.07025 0.21247
 C2769 C 0.72147 1.10660 0.69022
 C2770 C 0.70908 1.11420 0.69907
 C2771 C 0.70476 1.10757 0.71394
 C2772 C 0.71251 1.09357 0.71978
 C2773 C 0.72488 1.08606 0.71074
 C2774 C 0.72929 1.09270 0.69600
 C2775 C 0.73244 1.07188 0.71647
 C2776 C 0.72766 1.06498 0.73107
 C2777 C 0.71541 1.07267 0.74001
 C2778 C 0.70797 1.08685 0.73446
 H2779 H 0.69530 1.11316 0.72101
 H2780 H 0.73871 1.08708 0.68886
 H2781 H 0.74172 1.06601 0.70933
 H2782 H 0.69850 1.09244 0.74155
 H2783 H 0.72515 1.11127 0.67874
 H2784 H 0.71143 1.06764 0.75127
 C2785 C 0.72360 0.60869 0.19630
 C2786 C 0.71295 0.61771 0.20603
 C2787 C 0.71008 0.61251 0.22176
 C2788 C 0.71744 0.59829 0.22754
 C2789 C 0.72794 0.58928 0.21752
 C2790 C 0.73106 0.59466 0.20201
 C2791 C 0.73466 0.57467 0.22291
 C2792 C 0.73070 0.56861 0.23806
 C2793 C 0.72062 0.57785 0.24816
 C2794 C 0.71414 0.59265 0.24298
 H2795 H 0.70202 0.61936 0.22945
 H2796 H 0.73900 0.58783 0.19416
 H2797 H 0.74227 0.56760 0.21493
 H2798 H 0.70617 0.59940 0.25085
 H2799 H 0.72598 0.61218 0.18409
 H2800 H 0.71740 0.57344 0.25990
 C2801 C 0.52895 0.14401 0.69088
 C2802 C 0.53978 0.13529 0.70081
 C2803 C 0.54187 0.14041 0.71679
 C2804 C 0.53330 0.15383 0.72274
 C2805 C 0.52282 0.16269 0.71255
 C2806 C 0.52071 0.15766 0.69665
 C2807 C 0.51500 0.17670 0.71829
 C2808 C 0.51761 0.18198 0.73413
 C2809 C 0.52743 0.17256 0.74437
 C2810 C 0.53522 0.15865 0.73872
 H2811 H 0.54984 0.13380 0.72480
 H2812 H 0.51277 0.16433 0.68862
 H2813 H 0.50754 0.18386 0.71023
 H2814 H 0.54307 0.15189 0.74676
 H2815 H 0.52712 0.14069 0.67846
 H2816 H 0.52963 0.17627 0.75666
 C2817 C 1.02938 0.14431 0.19582
 C2818 C 1.04073 0.13611 0.20553
 C2819 C 1.04439 0.14246 0.22080
 C2820 C 1.03662 0.15667 0.22635
 C2821 C 1.02516 0.16469 0.21647
 C2822 C 1.02170 0.15843 0.20121
 C2823 C 1.01759 0.17901 0.22184
 C2824 C 1.02148 0.18569 0.23691
 C2825 C 1.03275 0.17751 0.24674
 C2826 C 1.04016 0.16310 0.24156
 H2827 H 1.05305 0.13625 0.22844
 H2828 H 1.01309 0.16450 0.19340
 H2829 H 1.00916 0.18530 0.21400
 H2830 H 1.04888 0.15715 0.24933
 H2831 H 1.02650 0.13992 0.18390
 H2832 H 1.03605 0.18242 0.25837
 C2833 C 0.22043 0.64440 0.55678
 C2834 C 0.20908 0.63600 0.54719
 C2835 C 0.20540 0.64197 0.53182
 C2836 C 0.21314 0.65601 0.52611
 C2837 C 0.22468 0.66407 0.53588
 C2838 C 0.22819 0.65821 0.55117
 C2839 C 0.23233 0.67812 0.53041
 C2840 C 0.22842 0.68460 0.51535
 C2841 C 0.21699 0.67650 0.50561
 C2842 C 0.20949 0.66226 0.51091
 H2843 H 0.19666 0.63570 0.52428
 H2844 H 0.23686 0.66438 0.55888
 H2845 H 0.24091 0.68432 0.53819
 H2846 H 0.20065 0.65631 0.50323
 H2847 H 0.22332 0.64047 0.56880
 H2848 H 0.21366 0.68130 0.49399
 C2849 C 0.18728 0.14534 1.02899
 C2850 C 0.19781 0.13537 1.03791
 C2851 C 0.21445 0.13882 1.03822
 C2852 C 0.22052 0.15221 1.02992
 C2853 C 0.20982 0.16234 1.02118
 C2854 C 0.19324 0.15875 1.02071
 C2855 C 0.21582 0.17619 1.01353
 C2856 C 0.23232 0.18020 1.01480
 C2857 C 0.24291 0.16976 1.02310
 C2858 C 0.23708 0.15583 1.03053
 H2859 H 0.22271 0.13108 1.04487
 H2860 H 0.18485 0.16643 1.01414
 H2861 H 0.20749 0.18427 1.00734
 H2862 H 0.24545 0.14816 1.03713
 H2863 H 0.17438 0.14298 1.02865
 H2864 H 0.25568 0.17261 1.02425
 C2865 C 0.19016 0.72083 0.60357
 C2866 C 0.20052 0.71067 0.61254
 C2867 C 0.21660 0.70852 0.60753
 C2868 C 0.22223 0.71634 0.59375
 C2869 C 0.21169 0.72647 0.58482
 C2870 C 0.19569 0.72866 0.58987
 C2871 C 0.21717 0.73389 0.57075
 C2872 C 0.23299 0.73101 0.56531
 C2873 C 0.24347 0.72118 0.57448
 C2874 C 0.23818 0.71400 0.58860
 H2875 H 0.22476 0.70083 0.61435
 H2876 H 0.18739 0.73628 0.58313
 H2877 H 0.20890 0.74124 0.56368
 H2878 H 0.24646 0.70630 0.59528
 H2879 H 0.17765 0.72259 0.60695
 H2880 H 0.25573 0.71876 0.57054
 C2881 C 0.19368 0.21889 1.10394
 C2882 C 0.20213 0.20609 1.11144
 C2883 C 0.21676 0.20060 1.10463
 C2884 C 0.22278 0.20777 1.09062
 C2885 C 0.21414 0.22063 1.08334
 C2886 C 0.19963 0.22610 1.09010
 C2887 C 0.22001 0.22772 1.06930
 C2888 C 0.23439 0.22203 1.06220
 C2889 C 0.24295 0.20926 1.06958
 C2890 C 0.23725 0.20225 1.08369
 H2891 H 0.22352 0.19080 1.11015
 H2892 H 0.19284 0.23594 1.08466
 H2893 H 0.21314 0.23745 1.06374
 H2894 H 0.24406 0.19239 1.08909
 H2895 H 0.18237 0.22342 1.10867
 H2896 H 0.25402 0.20457 1.06438
 C2897 C 0.68752 0.53549 0.14789
 C2898 C 0.69849 0.54514 0.13928
 C2899 C 0.71449 0.54667 0.14495
 C2900 C 0.71951 0.53853 0.15890
 C2901 C 0.70838 0.52881 0.16739
 C2902 C 0.69241 0.52744 0.16179
 C2903 C 0.71331 0.52090 0.18149
 C2904 C 0.72920 0.52276 0.18739
 C2905 C 0.74023 0.53225 0.17869
 C2906 C 0.73545 0.53999 0.16457
 H2907 H 0.72309 0.55398 0.13841
 H2908 H 0.68366 0.52016 0.16819
 H2909 H 0.70462 0.51381 0.18816
 H2910 H 0.74418 0.54733 0.15822
 H2911 H 0.67506 0.53424 0.14397
 H2912 H 0.75254 0.53392 0.18295
 C2913 C 0.69252 1.02863 0.64468
 C2914 C 0.70201 1.04033 0.63690
 C2915 C 0.71756 1.04386 0.64294
 C2916 C 0.72348 1.03602 0.65665
 C2917 C 0.71379 1.02441 0.66448
 C2918 C 0.69835 1.02075 0.65836
 C2919 C 0.71955 1.01694 0.67850
 C2920 C 0.73480 1.02115 0.68492
 C2921 C 0.74443 1.03251 0.67682
 C2922 C 0.73886 1.03981 0.66278
 H2923 H 0.72513 1.05268 0.63698
 H2924 H 0.69071 1.01193 0.66424
 H2925 H 0.71190 1.00838 0.68473
 H2926 H 0.74645 1.04868 0.65691
 H2927 H 0.68047 1.02573 0.64037
 H2928 H 0.75620 1.03599 0.68150
 C2929 C 0.53068 0.19151 0.64641
 C2930 C 0.54333 0.20025 0.63922
 C2931 C 0.54839 0.21499 0.64638
 C2932 C 0.54100 0.22082 0.66043
 C2933 C 0.52832 0.21188 0.66743
 C2934 C 0.52325 0.19727 0.66032
 C2935 C 0.52106 0.21755 0.68157
 C2936 C 0.52646 0.23197 0.68905
 C2937 C 0.53905 0.24081 0.68192
 C2938 C 0.54619 0.23534 0.66772
 H2939 H 0.55806 0.22198 0.64110
 H2940 H 0.51360 0.19020 0.66558
 H2941 H 0.51151 0.21044 0.68696
 H2942 H 0.55593 0.24236 0.66255
 H2943 H 0.52650 0.18011 0.64142
 H2944 H 0.54352 0.25191 0.68742
 C2945 C 1.05539 0.21985 0.14601
 C2946 C 1.04604 0.20775 0.13831
 C2947 C 1.03074 0.20387 0.14464
 C2948 C 1.02497 0.21203 0.15838
 C2949 C 1.03454 0.22423 0.16573
 C2950 C 1.04969 0.22801 0.15946
 C2951 C 1.02907 0.23223 0.17951
 C2952 C 1.01422 0.22804 0.18645
 C2953 C 1.00465 0.21596 0.17904
 C2954 C 1.00991 0.20812 0.16506
 H2955 H 1.02336 0.19458 0.13897
 H2956 H 1.05725 0.23722 0.16507
 H2957 H 1.03675 0.24130 0.18518
 H2958 H 1.00236 0.19879 0.15966
 H2959 H 1.06729 0.22311 0.14183
 H2960 H 0.99319 0.21240 0.18419
 C2961 C 0.61236 0.22468 0.70384
 C2962 C 0.61707 0.20899 0.70871
 C2963 C 0.60881 0.20161 0.72145
 C2964 C 0.59564 0.20956 0.72875
 C2965 C 0.59083 0.22510 0.72334
 C2966 C 0.59940 0.23264 0.71107
 C2967 C 0.57714 0.23266 0.72981
 C2968 C 0.56778 0.22480 0.74143
 C2969 C 0.57299 0.20961 0.74724
 C2970 C 0.58685 0.20209 0.74100
 H2971 H 0.61223 0.18953 0.72534
 H2972 H 0.59589 0.24458 0.70682
 H2973 H 0.57337 0.24438 0.72517
 H2974 H 0.59038 0.19021 0.74539
 H2975 H 0.61861 0.23091 0.69435
 H2976 H 0.56603 0.20324 0.75617
 C2977 C 1.10525 0.19376 0.21787
 C2978 C 1.11364 0.20398 0.20732
 C2979 C 1.10806 0.21995 0.20496
 C2980 C 1.09433 0.22564 0.21313
 C2981 C 1.08614 0.21524 0.22380
 C2982 C 1.09168 0.19934 0.22606
 C2983 C 1.07225 0.22073 0.23172
 C2984 C 1.06613 0.23637 0.22884
 C2985 C 1.07446 0.24674 0.21838
 C2986 C 1.08851 0.24146 0.21069
 H2987 H 1.11441 0.22797 0.19689
 H2988 H 1.08544 0.19116 0.23405
 H2989 H 1.06579 0.21253 0.23954
 H2990 H 1.09461 0.24962 0.20256
 H2991 H 1.10901 0.18130 0.21972
 H2992 H 1.06991 0.25885 0.21591
 C2993 C 0.14428 0.69322 0.52532
 C2994 C 0.13603 0.70317 0.53635
 C2995 C 0.14179 0.71902 0.53925
 C2996 C 0.15572 0.72473 0.53150
 C2997 C 0.16402 0.71452 0.52062
 C2998 C 0.15813 0.69882 0.51754
 C2999 C 0.17835 0.71997 0.51340
 C3000 C 0.18470 0.73542 0.51716
 C3001 C 0.17607 0.74561 0.52770
 C3002 C 0.16169 0.74036 0.53472
 H3003 H 0.13552 0.72693 0.54758
 H3004 H 0.16438 0.69077 0.50931
 H3005 H 0.18494 0.71187 0.50548
 H3006 H 0.15547 0.74838 0.54300
 H3007 H 0.14027 0.68093 0.52290
 H3008 H 0.18068 0.75754 0.53085
 C3009 C 0.14935 0.21507 1.06152
 C3010 C 0.13989 0.20511 1.05139
 C3011 C 0.14472 0.20279 1.03544
 C3012 C 0.15871 0.21043 1.02966
 C3013 C 0.16805 0.22047 1.03994
 C3014 C 0.16327 0.22267 1.05586
 C3015 C 0.18213 0.22796 1.03422
 C3016 C 0.18716 0.22538 1.01835
 C3017 C 0.17765 0.21549 1.00819
 C3018 C 0.16355 0.20814 1.01376
 H3019 H 0.13753 0.19524 1.02746
 H3020 H 0.17031 0.23025 1.06395
 H3021 H 0.18940 0.23538 1.04227
 H3022 H 0.15654 0.20051 1.00569
 H3023 H 0.14610 0.21694 1.07393
 H3024 H 0.18123 0.21323 0.99593
 C3025 C 0.64155 0.53073 0.19184
 C3026 C 0.63307 0.54228 0.20107
 C3027 C 0.63868 0.54584 0.21667
 C3028 C 0.65254 0.53805 0.22289
 C3029 C 0.66090 0.52651 0.21343
 C3030 C 0.65528 0.52292 0.19796
 C3031 C 0.67494 0.51899 0.21944
 C3032 C 0.68102 0.52301 0.23475
 C3033 C 0.67248 0.53435 0.24416
 C3034 C 0.65833 0.54173 0.23832
 H3035 H 0.63229 0.55462 0.22402
 H3036 H 0.66160 0.51417 0.19050
 H3037 H 0.68143 0.51043 0.21192
 H3038 H 0.65209 0.55053 0.24577
 H3039 H 0.63775 0.52781 0.17975
 H3040 H 0.67689 0.53774 0.25596
 C3041 C 0.64296 1.05526 0.72119
 C3042 C 0.63591 1.04643 0.70844
 C3043 C 0.64335 1.03181 0.70349
 C3044 C 0.65757 1.02621 0.71109
 C3045 C 0.66443 1.03526 0.72385
 C3046 C 0.65702 1.04974 0.72881
 C3047 C 0.67876 1.02987 0.73128
 C3048 C 0.68655 1.01559 0.72602
 C3049 C 0.67953 1.00658 0.71339
 C3050 C 0.66516 1.01180 0.70604
 H3051 H 0.63818 1.02477 0.69374
 H3052 H 0.66217 1.05688 0.73852
 H3053 H 0.68405 1.03708 0.74087
 H3054 H 0.66011 1.00469 0.69626
 H3055 H 0.63777 1.06659 0.72533
 H3056 H 0.68527 0.99558 0.70900
 C3057 C 0.85145 0.47088 0.31061
 C3058 C 0.85921 0.45896 0.30127
 C3059 C 0.85301 0.45513 0.28602
 C3060 C 0.83919 0.46305 0.28016
 C3061 C 0.83140 0.47496 0.28967
 C3062 C 0.83763 0.47880 0.30487
 C3063 C 0.81736 0.48261 0.28396
 C3064 C 0.81087 0.47839 0.26890
 C3065 C 0.81888 0.46672 0.25943
 C3066 C 0.83294 0.45915 0.26499
 H3067 H 0.85900 0.44612 0.27861
 H3068 H 0.83176 0.48784 0.31234
 H3069 H 0.81125 0.49147 0.29147
 H3070 H 0.83879 0.45007 0.25755
 H3071 H 0.85591 0.47397 0.32245
 H3072 H 0.81412 0.46321 0.24780
 C3073 C 0.85839 0.94514 0.77850
 C3074 C 0.86595 0.95400 0.79094
 C3075 C 0.85954 0.96930 0.79526
 C3076 C 0.84577 0.97555 0.78736
 C3077 C 0.83839 0.96645 0.77492
 C3078 C 0.84482 0.95131 0.77056
 C3079 C 0.82441 0.97238 0.76730
 C3080 C 0.81735 0.98719 0.77213
 C3081 C 0.82492 0.99631 0.78437
 C3082 C 0.83906 0.99059 0.79183
 H3083 H 0.86515 0.97635 0.80477
 H3084 H 0.83922 0.94413 0.76112
 H3085 H 0.81867 0.96506 0.75804
 H3086 H 0.84453 0.99776 0.80134
 H3087 H 0.86277 0.93328 0.77492
 H3088 H 0.81972 1.00771 0.78840
 C3089 C 0.39600 0.28153 0.80599
 C3090 C 0.38866 0.29423 0.79725
 C3091 C 0.39572 0.29899 0.78268
 C3092 C 0.40967 0.29094 0.77691
 C3093 C 0.41655 0.27802 0.78578
 C3094 C 0.40968 0.27351 0.80031
 C3095 C 0.43038 0.26993 0.78018
 C3096 C 0.43779 0.27465 0.76586
 C3097 C 0.43095 0.28757 0.75708
 C3098 C 0.41697 0.29557 0.76250
 H3099 H 0.39035 0.30877 0.77580
 H3100 H 0.41492 0.26376 0.80736
 H3101 H 0.43562 0.26022 0.78729
 H3102 H 0.41199 0.30549 0.75553
 H3103 H 0.39132 0.27768 0.81739
 H3104 H 0.43649 0.29162 0.74610
 C3105 C 0.89787 0.28254 0.31502
 C3106 C 0.88884 0.29268 0.30477
 C3107 C 0.89406 0.29468 0.28892
 C3108 C 0.90813 0.28690 0.28343
 C3109 C 0.91728 0.27691 0.29386
 C3110 C 0.91196 0.27475 0.30963
 C3111 C 0.93166 0.26952 0.28838
 C3112 C 0.93703 0.27214 0.27261
 C3113 C 0.92750 0.28184 0.26234
 C3114 C 0.91324 0.28911 0.26767
 H3115 H 0.88715 0.30223 0.28075
 H3116 H 0.91874 0.26712 0.31782
 H3117 H 0.93886 0.26216 0.29648
 H3118 H 0.90634 0.29668 0.25950
 H3119 H 0.89421 0.28082 0.32731
 H3120 H 0.93121 0.28410 0.25014
 C3121 C 0.35226 0.78021 0.43973
 C3122 C 0.36218 0.78954 0.44998
 C3123 C 0.35879 0.79019 0.46640
 C3124 C 0.34556 0.78168 0.47254
 C3125 C 0.33561 0.77240 0.46211
 C3126 C 0.33907 0.77172 0.44574
 C3127 C 0.32203 0.76442 0.46811
 C3128 C 0.31799 0.76592 0.48434
 C3129 C 0.32816 0.77481 0.49472
 C3130 C 0.34193 0.78253 0.48888
 H3131 H 0.36647 0.79721 0.47442
 H3132 H 0.33148 0.76478 0.43757
 H3133 H 0.31411 0.75783 0.45994
 H3134 H 0.34945 0.78955 0.49704
 H3135 H 0.35454 0.77965 0.42699
 H3136 H 0.32522 0.77617 0.50727
 C3137 C 0.35434 0.30602 0.96875
 C3138 C 0.36272 0.29628 0.95758
 C3139 C 0.35809 0.27994 0.95557
 C3140 C 0.34502 0.27360 0.96423
 C3141 C 0.33662 0.28366 0.97518
 C3142 C 0.34151 0.29975 0.97750
 C3143 C 0.32300 0.27772 0.98313
 C3144 C 0.31725 0.26199 0.97988
 C3145 C 0.32599 0.25184 0.96941
 C3146 C 0.33985 0.25755 0.96175
 H3147 H 0.36439 0.27221 0.94711
 H3148 H 0.33517 0.30763 0.98583
 H3149 H 0.31629 0.28573 0.99106
 H3150 H 0.34617 0.24961 0.95348
 H3151 H 0.35742 0.31864 0.97070
 H3152 H 0.32182 0.23963 0.96675
 C3153 C 0.77802 0.43694 0.35375
 C3154 C 0.78891 0.44707 0.36213
 C3155 C 0.79118 0.46308 0.35682
 C3156 C 0.78288 0.46885 0.34327
 C3157 C 0.77212 0.45853 0.33477
 C3158 C 0.76973 0.44260 0.34017
 C3159 C 0.76424 0.46423 0.32086
 C3160 C 0.76717 0.48009 0.31531
 C3161 C 0.77762 0.49029 0.32418
 C3162 C 0.78536 0.48476 0.33800
 H3163 H 0.79935 0.47113 0.36324
 H3164 H 0.76157 0.43446 0.33384
 H3165 H 0.75635 0.45617 0.31409
 H3166 H 0.79352 0.49285 0.34440
 H3167 H 0.77608 0.42452 0.35750
 H3168 H 0.78012 0.50257 0.32026
 C3169 C 0.78296 0.93878 0.85009
 C3170 C 0.79086 0.94968 0.86061
 C3171 C 0.79009 0.96645 0.85741
 C3172 C 0.78189 0.97220 0.84380
 C3173 C 0.77414 0.96108 0.83332
 C3174 C 0.77463 0.94443 0.83664
 C3175 C 0.76657 0.96671 0.81935
 C3176 C 0.76711 0.98327 0.81539
 C3177 C 0.77451 0.99431 0.82605
 C3178 C 0.78169 0.98884 0.84023
 H3179 H 0.79603 0.97508 0.86531
 H3180 H 0.76882 0.93574 0.82869
 H3181 H 0.76112 0.95804 0.81110
 H3182 H 0.78755 0.99755 0.84813
 H3183 H 0.78325 0.92581 0.85207
 H3184 H 0.77510 1.00714 0.82322
 C3185 C 0.28796 0.81128 0.39997
 C3186 C 0.29834 0.80080 0.39142
 C3187 C 0.30099 0.78498 0.39715
 C3188 C 0.29289 0.77952 0.41090
 C3189 C 0.28224 0.79009 0.41917
 C3190 C 0.28004 0.80601 0.41370
 C3191 C 0.27401 0.78461 0.43280
 C3192 C 0.27632 0.76865 0.43837
 C3193 C 0.28693 0.75825 0.42998
 C3194 C 0.29509 0.76361 0.41640
 H3195 H 0.30889 0.77676 0.39066
 H3196 H 0.27204 0.81434 0.41993
 H3197 H 0.26608 0.79286 0.43922
 H3198 H 0.30319 0.75532 0.41025
 H3199 H 0.28589 0.82363 0.39601
 H3200 H 0.28907 0.74592 0.43400
 C3201 C 0.30703 0.27731 0.89394
 C3202 C 0.29767 0.28960 0.88666
 C3203 C 0.28251 0.29361 0.89325
 C3204 C 0.27685 0.28548 0.90689
 C3205 C 0.28642 0.27316 0.91399
 C3206 C 0.30145 0.26916 0.90741
 C3207 C 0.28101 0.26528 0.92780
 C3208 C 0.26624 0.26973 0.93490
 C3209 C 0.25668 0.28185 0.92760
 C3210 C 0.26189 0.28959 0.91369
 H3211 H 0.27510 0.30300 0.88783
 H3212 H 0.30900 0.25983 0.91277
 H3213 H 0.28863 0.25610 0.93334
 H3214 H 0.25437 0.29900 0.90843
 H3215 H 0.31884 0.27402 0.88942
 H3216 H 0.24527 0.28559 0.93281
 C3217 C 0.47098 0.30457 0.85886
 C3218 C 0.45753 0.29620 0.86507
 C3219 C 0.45208 0.28210 0.85707
 C3220 C 0.45990 0.27651 0.84317
 C3221 C 0.47339 0.28505 0.83718
 C3222 C 0.47880 0.29906 0.84511
 C3223 C 0.48115 0.27958 0.82325
 C3224 C 0.47557 0.26567 0.81507
 C3225 C 0.46211 0.25725 0.82117
 C3226 C 0.45440 0.26259 0.83509
 H3227 H 0.44177 0.27546 0.86157
 H3228 H 0.48906 0.30582 0.84064
 H3229 H 0.49134 0.28636 0.81862
 H3230 H 0.44404 0.25590 0.83944
 H3231 H 0.47556 0.31549 0.86450
 H3232 H 0.45742 0.24657 0.81509
 C3233 C 0.94538 0.28474 0.35481
 C3234 C 0.95478 0.29639 0.36308
 C3235 C 0.97001 0.30070 0.35687
 C3236 C 0.97579 0.29321 0.34279
 C3237 C 0.96625 0.28129 0.33496
 C3238 C 0.95108 0.27722 0.34101
 C3239 C 0.97187 0.27370 0.32103
 C3240 C 0.98686 0.27798 0.31444
 C3241 C 0.99631 0.28992 0.32221
 C3242 C 0.99087 0.29739 0.33633
 H3243 H 0.97739 0.30968 0.36300
 H3244 H 0.94358 0.26820 0.33505
 H3245 H 0.96428 0.26473 0.31510
 H3246 H 0.99837 0.30653 0.34208
 H3247 H 0.93346 0.28132 0.35887
 H3248 H 1.00787 0.29354 0.31732
 C3249 C 0.44518 0.35528 0.77932
 C3250 C 0.45385 0.36290 0.79187
 C3251 C 0.46898 0.35650 0.79650
 C3252 C 0.47523 0.34264 0.78881
 C3253 C 0.46633 0.33518 0.77626
 C3254 C 0.45138 0.34162 0.77158
 C3255 C 0.47226 0.32110 0.76885
 C3256 C 0.48686 0.31407 0.77404
 C3257 C 0.49581 0.32168 0.78637
 C3258 C 0.49009 0.33590 0.79363
 H3259 H 0.47586 0.36217 0.80609
 H3260 H 0.44436 0.33598 0.76205
 H3261 H 0.46511 0.31524 0.75954
 H3262 H 0.49709 0.34141 0.80324
 H3263 H 0.43346 0.35965 0.77543
 H3264 H 0.50708 0.31645 0.79065
 C3265 C 0.93714 0.35314 0.28383
 C3266 C 0.94789 0.36331 0.29234
 C3267 C 0.96455 0.35982 0.29217
 C3268 C 0.97040 0.34629 0.28365
 C3269 C 0.95947 0.33605 0.27527
 C3270 C 0.94286 0.33961 0.27540
 C3271 C 0.96525 0.32216 0.26729
 C3272 C 0.98181 0.31820 0.26784
 C3273 C 0.99263 0.32874 0.27583
 C3274 C 0.98699 0.34269 0.28359
 H3275 H 0.97297 0.36766 0.29853
 H3276 H 0.93429 0.33186 0.26912
 H3277 H 0.95675 0.31404 0.26137
 H3278 H 0.99556 0.35042 0.28990
 H3279 H 0.92422 0.35547 0.28387
 H3280 H 1.00546 0.32596 0.27644
 C3281 C 0.28351 0.85413 0.44251
 C3282 C 0.29621 0.86178 0.45101
 C3283 C 0.30103 0.85527 0.46591
 C3284 C 0.29320 0.84146 0.47215
 C3285 C 0.28041 0.83413 0.46344
 C3286 C 0.27568 0.84055 0.44867
 C3287 C 0.27263 0.82032 0.46947
 C3288 C 0.27755 0.81342 0.48411
 C3289 C 0.29026 0.82084 0.49276
 C3290 C 0.29795 0.83476 0.48689
 H3291 H 0.31078 0.86091 0.47266
 H3292 H 0.26592 0.83504 0.44181
 H3293 H 0.26299 0.81473 0.46251
 H3294 H 0.30775 0.84017 0.49378
 H3295 H 0.27950 0.85848 0.43097
 H3296 H 0.29441 0.81578 0.50402
 C3297 C 0.27998 0.35291 0.94430
 C3298 C 0.29149 0.36106 0.95392
 C3299 C 0.29480 0.35512 0.96938
 C3300 C 0.28680 0.34123 0.97506
 C3301 C 0.27529 0.33322 0.96521
 C3302 C 0.27195 0.33919 0.94989
 C3303 C 0.26764 0.31909 0.97061
 C3304 C 0.27157 0.31254 0.98566
 C3305 C 0.28284 0.32073 0.99550
 C3306 C 0.29030 0.33501 0.99030
 H3307 H 0.30356 0.36126 0.97699
 H3308 H 0.26327 0.33311 0.94212
 H3309 H 0.25919 0.31278 0.96276
 H3310 H 0.29908 0.34096 0.99805
 H3311 H 0.27727 0.35693 0.93227
 H3312 H 0.28616 0.31591 1.00711
 C3313 C 0.80875 0.39693 0.27985
 C3314 C 0.79875 0.38784 0.29002
 C3315 C 0.78248 0.39263 0.29189
 C3316 C 0.77638 0.40641 0.28402
 C3317 C 0.78659 0.41558 0.27402
 C3318 C 0.80274 0.41067 0.27194
 C3319 C 0.78061 0.42973 0.26663
 C3320 C 0.76460 0.43500 0.26936
 C3321 C 0.75449 0.42554 0.27909
 C3322 C 0.76029 0.41136 0.28627
 H3323 H 0.77452 0.38569 0.29950
 H3324 H 0.81079 0.41757 0.26437
 H3325 H 0.78863 0.43700 0.25935
 H3326 H 0.75228 0.40446 0.29389
 H3327 H 0.82134 0.39364 0.27824
 H3328 H 0.74214 0.42930 0.28143
   
