data_POSCAR
  _audit_creation_date              2014-09-24
  _audit_creation_method            'ToBaCCo'
  _symmetry_space_group_name_H-M    'P1'
  _symmetry_Int_Tables_number       1
  _symmetry_cell_setting            triclinic
  loop_
  _symmetry_equiv_pos_as_xyz
 x,y,z
_cell_length_a 75.3024
_cell_length_b 75.2050
_cell_length_c 75.7534
_cell_angle_alpha 89.959900
_cell_angle_beta 90.035500
_cell_angle_gamma 90.056700
loop_
  _atom_site_label
  _atom_site_type_symbol
  _atom_site_fract_x
  _atom_site_fract_y
  _atom_site_fract_z
N1 N 0.17949 0.22425 0.22322
 N2 N 0.18401 0.20984 0.23199
 C3 C 0.17277 0.20761 0.24565
 C4 C 0.16067 0.22134 0.24531
 C5 C 0.16522 0.23168 0.23099
 H6 H 0.17329 0.19685 0.25511
 H7 H 0.15864 0.24365 0.22655
 Cu8 Cu 0.20411 0.19539 0.22467
 Cu9 Cu 0.19237 0.23227 0.20241
 Cu10 Cu 0.22868 0.20713 0.18946
 N11 N 0.22474 0.18164 0.21747
 N12 N 0.23429 0.18630 0.20368
 C13 C 0.24768 0.17462 0.20163
 C14 C 0.24637 0.16208 0.21484
 C15 C 0.23174 0.16684 0.22467
 H16 H 0.25762 0.17520 0.19134
 H17 H 0.22666 0.16002 0.23619
 N18 N 0.22089 0.22864 0.17677
 N19 N 0.20706 0.23822 0.18171
 C20 C 0.20511 0.25196 0.17045
 C21 C 0.21831 0.25088 0.15793
 C22 C 0.22810 0.23604 0.16223
 H23 H 0.19485 0.26198 0.17122
 H24 H 0.23956 0.23102 0.15524
 H25 H 0.20179 0.20760 0.19491
 H26 H 0.21647 0.22119 0.20950
 N27 N 0.67408 0.71831 0.71777
 N28 N 0.67664 0.70247 0.72470
 C29 C 0.66565 0.70031 0.73855
 C30 C 0.65574 0.71560 0.74029
 C31 C 0.66132 0.72677 0.72696
 H32 H 0.66489 0.68851 0.74670
 H33 H 0.65635 0.73994 0.72405
 Cu34 Cu 0.69414 0.68624 0.71511
 Cu35 Cu 0.68692 0.72643 0.69695
 Cu36 Cu 0.71819 0.69742 0.67958
 N37 N 0.71613 0.67406 0.70943
 N38 N 0.72553 0.67846 0.69546
 C39 C 0.73978 0.66772 0.69436
 C40 C 0.73924 0.65613 0.70846
 C41 C 0.72413 0.66043 0.71779
 H42 H 0.74971 0.66827 0.68406
 H43 H 0.71926 0.65407 0.72965
 N44 N 0.71283 0.72073 0.66903
 N45 N 0.70120 0.73194 0.67582
 C46 C 0.70069 0.74670 0.66572
 C47 C 0.71258 0.74457 0.65208
 C48 C 0.72007 0.72805 0.65449
 H49 H 0.69222 0.75807 0.66799
 H50 H 0.73005 0.72185 0.64628
 H51 H 0.69174 0.70183 0.68664
 H52 H 0.70942 0.71104 0.70125
 N53 N 0.32194 0.77676 0.72327
 N54 N 0.31738 0.79106 0.73217
 C55 C 0.32872 0.79325 0.74577
 C56 C 0.34093 0.77962 0.74524
 C57 C 0.33633 0.76938 0.73087
 H58 H 0.32819 0.80390 0.75533
 H59 H 0.34295 0.75749 0.72630
 Cu60 Cu 0.29708 0.80539 0.72513
 Cu61 Cu 0.30893 0.76880 0.70252
 Cu62 Cu 0.27226 0.79369 0.69006
 N63 N 0.27623 0.81899 0.71820
 N64 N 0.26659 0.81434 0.70447
 C65 C 0.25305 0.82588 0.70260
 C66 C 0.25438 0.83832 0.71587
 C67 C 0.26915 0.83366 0.72557
 H68 H 0.24302 0.82526 0.69238
 H69 H 0.27429 0.84044 0.73709
 N70 N 0.28012 0.77236 0.67716
 N71 N 0.29410 0.76288 0.68191
 C72 C 0.29605 0.74924 0.67055
 C73 C 0.28269 0.75028 0.65817
 C74 C 0.27282 0.76500 0.66265
 H75 H 0.30638 0.73929 0.67118
 H76 H 0.26122 0.76995 0.65582
 H77 H 0.29921 0.79344 0.69527
 H78 H 0.28481 0.77959 0.70991
 N79 N 0.82307 0.27706 0.22402
 N80 N 0.81809 0.29105 0.23319
 C81 C 0.82947 0.29343 0.24674
 C82 C 0.84210 0.28022 0.24589
 C83 C 0.83775 0.27003 0.23140
 H84 H 0.82864 0.30391 0.25647
 H85 H 0.84471 0.25842 0.22662
 Cu86 Cu 0.79724 0.30476 0.22655
 Cu87 Cu 0.81013 0.26897 0.20326
 Cu88 Cu 0.77325 0.29356 0.19078
 N89 N 0.77673 0.31862 0.21919
 N90 N 0.76740 0.31417 0.20518
 C91 C 0.75402 0.32584 0.20307
 C92 C 0.75511 0.33819 0.21646
 C93 C 0.76959 0.33332 0.22647
 H94 H 0.74423 0.32539 0.19263
 H95 H 0.77449 0.33997 0.23815
 N96 N 0.78128 0.27229 0.17790
 N97 N 0.79533 0.26291 0.18265
 C98 C 0.79733 0.24924 0.17134
 C99 C 0.78393 0.25015 0.15900
 C100 C 0.77398 0.26482 0.16344
 H101 H 0.80771 0.23934 0.17200
 H102 H 0.76230 0.26964 0.15665
 H103 H 0.80012 0.29363 0.19647
 H104 H 0.78570 0.27914 0.21045
 N105 N 0.82494 0.72052 0.27612
 N106 N 0.81905 0.70765 0.26592
 C107 C 0.82968 0.70630 0.25168
 C108 C 0.84283 0.71897 0.25317
 C109 C 0.83953 0.72777 0.26878
 H110 H 0.82805 0.69683 0.24106
 H111 H 0.84715 0.73859 0.27438
 Cu112 Cu 0.79811 0.69398 0.27244
 Cu113 Cu 0.81348 0.72669 0.29833
 Cu114 Cu 0.77356 0.70550 0.30759
 N115 N 0.77740 0.68020 0.27937
 N116 N 0.76768 0.68498 0.29299
 C117 C 0.75411 0.67347 0.29485
 C118 C 0.75547 0.66090 0.28169
 C119 C 0.77032 0.66546 0.27208
 H120 H 0.74408 0.67412 0.30504
 H121 H 0.77553 0.65856 0.26069
 N122 N 0.78216 0.72635 0.32085
 N123 N 0.79751 0.73421 0.31752
 C124 C 0.79972 0.74783 0.32886
 C125 C 0.78512 0.74845 0.33978
 C126 C 0.77424 0.73474 0.33444
 H127 H 0.81102 0.75670 0.32910
 H128 H 0.76154 0.73114 0.34008
 H129 H 0.80016 0.70282 0.30337
 H130 H 0.78863 0.71967 0.28932
 N131 N 0.32993 0.21523 -0.21763
 N132 N 0.32627 0.20009 -0.22554
 C133 C 0.33670 0.19836 -0.23988
 C134 C 0.34740 0.21321 -0.24085
 C135 C 0.34288 0.22367 -0.22660
 H136 H 0.33653 0.18716 -0.24883
 H137 H 0.34864 0.23633 -0.22295
 Cu138 Cu 0.30823 0.18408 -0.21640
 Cu139 Cu 0.31810 0.22240 -0.19595
 Cu140 Cu 0.28138 0.19745 -0.18368
 N141 N 0.28563 0.17246 -0.21194
 N142 N 0.27501 0.17789 -0.19926
 C143 C 0.26039 0.16758 -0.19903
 C144 C 0.26200 0.15515 -0.21230
 C145 C 0.27811 0.15854 -0.22027
 H146 H 0.24949 0.16894 -0.18983
 H147 H 0.28393 0.15142 -0.23123
 N148 N 0.28793 0.21998 -0.17206
 N149 N 0.30193 0.22949 -0.17674
 C150 C 0.30286 0.24406 -0.16643
 C151 C 0.28881 0.24359 -0.15481
 C152 C 0.27958 0.22825 -0.15865
 H153 H 0.31299 0.25423 -0.16727
 H154 H 0.26772 0.22348 -0.15214
 H155 H 0.30848 0.19836 -0.18711
 H156 H 0.29473 0.21039 -0.20368
 N157 N 0.66973 0.28410 -0.21703
 N158 N 0.67348 0.29917 -0.22505
 C159 C 0.66318 0.30078 -0.23950
 C160 C 0.65247 0.28593 -0.24044
 C161 C 0.65686 0.27560 -0.22605
 H162 H 0.66341 0.31192 -0.24855
 H163 H 0.65105 0.26298 -0.22231
 Cu164 Cu 0.69141 0.31528 -0.21584
 Cu165 Cu 0.68133 0.27713 -0.19513
 Cu166 Cu 0.71783 0.30225 -0.18258
 N167 N 0.71393 0.32697 -0.21117
 N168 N 0.72438 0.32167 -0.19828
 C169 C 0.73898 0.33202 -0.19791
 C170 C 0.73753 0.34433 -0.21133
 C171 C 0.72155 0.34083 -0.21952
 H172 H 0.74974 0.33077 -0.18852
 H173 H 0.71588 0.34785 -0.23064
 N174 N 0.71118 0.27980 -0.17085
 N175 N 0.69726 0.27022 -0.17564
 C176 C 0.69626 0.25571 -0.16524
 C177 C 0.71017 0.25630 -0.15344
 C178 C 0.71940 0.27164 -0.15728
 H179 H 0.68619 0.24549 -0.16615
 H180 H 0.73118 0.27647 -0.15067
 H181 H 0.69078 0.30127 -0.18641
 H182 H 0.70478 0.28911 -0.20265
 N183 N 0.17148 0.78405 0.28260
 N184 N 0.17528 0.79920 0.27476
 C185 C 0.16500 0.80100 0.26032
 C186 C 0.15424 0.78620 0.25918
 C187 C 0.15860 0.77571 0.27346
 H188 H 0.16528 0.81223 0.25139
 H189 H 0.15275 0.76306 0.27703
 Cu190 Cu 0.19326 0.81513 0.28417
 Cu191 Cu 0.18304 0.77678 0.30442
 Cu192 Cu 0.21970 0.80156 0.31720
 N193 N 0.21583 0.82668 0.28894
 N194 N 0.22630 0.82118 0.30174
 C195 C 0.24094 0.83146 0.30220
 C196 C 0.23948 0.84394 0.28894
 C197 C 0.22346 0.84063 0.28074
 H198 H 0.25172 0.83005 0.31155
 H199 H 0.21777 0.84780 0.26972
 N200 N 0.21294 0.77900 0.32869
 N201 N 0.19895 0.76957 0.32382
 C202 C 0.19785 0.75497 0.33407
 C203 C 0.21176 0.75533 0.34587
 C204 C 0.22110 0.77065 0.34218
 H205 H 0.18769 0.74484 0.33307
 H206 H 0.23290 0.77534 0.34886
 H207 H 0.19264 0.80076 0.31343
 H208 H 0.20653 0.78874 0.29701
 N209 N 0.48055 0.43609 0.48205
 N210 N 0.46745 0.44204 0.49189
 C211 C 0.46405 0.43017 0.50479
 C212 C 0.47569 0.41617 0.50284
 C213 C 0.48599 0.42027 0.48836
 H214 H 0.45395 0.43165 0.51482
 H215 H 0.49671 0.41244 0.48293
 Cu216 Cu 0.45608 0.46467 0.48695
 Cu217 Cu 0.48991 0.44971 0.46227
 Cu218 Cu 0.46534 0.48645 0.44938
 N219 N 0.44021 0.48271 0.47758
 N220 N 0.44375 0.49105 0.46272
 C221 C 0.43073 0.50282 0.45933
 C222 C 0.41844 0.50167 0.47276
 C223 C 0.42476 0.48884 0.48414
 H224 H 0.43032 0.51164 0.44805
 H225 H 0.41865 0.48435 0.49628
 N226 N 0.48541 0.47712 0.43551
 N227 N 0.49478 0.46311 0.44042
 C228 C 0.50744 0.45999 0.42825
 C229 C 0.50588 0.47264 0.41518
 C230 C 0.49186 0.48328 0.42008
 H231 H 0.51707 0.44935 0.42882
 H232 H 0.48677 0.49464 0.41294
 H233 H 0.48102 0.47483 0.46842
 H234 H 0.46519 0.46001 0.45660
 N235 N -0.01838 -0.06080 0.98110
 N236 N -0.03257 -0.05603 0.99002
 C237 C -0.03588 -0.06824 1.00261
 C238 C -0.02302 -0.08122 1.00146
 C239 C -0.01208 -0.07616 0.98775
 H240 H -0.04675 -0.06767 1.01193
 H241 H -0.00043 -0.08306 0.98300
 Cu242 Cu -0.04512 -0.03415 0.98458
 Cu243 Cu -0.00901 -0.04646 0.96186
 Cu244 Cu -0.03856 -0.01553 0.94472
 N245 N -0.06151 -0.01676 0.97500
 N246 N -0.05909 -0.00975 0.95927
 C247 C -0.07236 0.00174 0.95588
 C248 C -0.08360 0.00181 0.97023
 C249 C -0.07641 -0.01002 0.98215
 H250 H -0.07365 0.00958 0.94397
 H251 H -0.08162 -0.01345 0.99502
 N252 N -0.01684 -0.02307 0.93226
 N253 N -0.00543 -0.03457 0.93899
 C254 C 0.00815 -0.03672 0.92763
 C255 C 0.00509 -0.02604 0.91318
 C256 C -0.01077 -0.01755 0.91644
 H257 H 0.01938 -0.04544 0.92969
 H258 H -0.01730 -0.00800 0.90797
 H259 H -0.02198 -0.02210 0.96500
 H260 H -0.03468 -0.04084 0.95500
 N261 N 1.02333 0.56893 0.97639
 N262 N 1.03871 0.56551 0.98392
 C263 C 1.04185 0.57777 0.99652
 C264 C 1.02767 0.58934 0.99681
 C265 C 1.01613 0.58343 0.98396
 H266 H 1.05350 0.57826 1.00486
 H267 H 1.00348 0.58921 0.98038
 Cu268 Cu 1.05296 0.54533 0.97642
 Cu269 Cu 1.01366 0.55416 0.95758
 Cu270 Cu 1.04120 0.52111 0.94108
 N271 N 1.06687 0.52490 0.96900
 N272 N 1.06233 0.51565 0.95496
 C273 C 1.07416 0.50246 0.95254
 C274 C 1.08669 0.50359 0.96575
 C275 C 1.08177 0.51790 0.97599
 H276 H 1.07364 0.49274 0.94204
 H277 H 1.08854 0.52279 0.98761
 N278 N 1.01908 0.52857 0.92928
 N279 N 1.00845 0.54093 0.93573
 C280 C 0.99447 0.54293 0.92480
 C281 C 0.99645 0.53124 0.91096
 C282 C 1.01210 0.52233 0.91411
 H283 H 0.98372 0.55227 0.92668
 H284 H 1.01793 0.51209 0.90595
 H285 H 1.02769 0.53069 0.96235
 H286 H 1.03841 0.54777 0.94794
 N287 N 0.52211 0.06709 0.47795
 N288 N 0.53397 0.06033 0.48880
 C289 C 0.53659 0.07165 0.50232
 C290 C 0.52576 0.08619 0.49973
 C291 C 0.51673 0.08295 0.48422
 H292 H 0.54565 0.06948 0.51319
 H293 H 0.50690 0.09140 0.47807
 Cu294 Cu 0.54503 0.03752 0.48418
 Cu295 Cu 0.51408 0.05452 0.45693
 Cu296 Cu 0.53364 0.01359 0.44863
 N297 N 0.56022 0.01872 0.47525
 N298 N 0.55569 0.00933 0.46131
 C299 C 0.56823 -0.00304 0.45824
 C300 C 0.58127 -0.00114 0.47089
 C301 C 0.57586 0.01273 0.48150
 H302 H 0.56782 -0.01270 0.44768
 H303 H 0.58269 0.01797 0.49294
 N304 N 0.51491 0.02380 0.43360
 N305 N 0.50770 0.03954 0.43651
 C306 C 0.49555 0.04280 0.42385
 C307 C 0.49524 0.02848 0.41254
 C308 C 0.50761 0.01667 0.41899
 H309 H 0.48743 0.05462 0.42298
 H310 H 0.51104 0.00387 0.41346
 H311 H 0.51911 0.02948 0.46603
 H312 H 0.53731 0.04016 0.45315
 N313 N -0.02677 0.07062 0.52457
 N314 N -0.04081 0.06571 0.51544
 C315 C -0.04303 0.07701 0.50179
 C316 C -0.02967 0.08951 0.50251
 C317 C -0.01957 0.08516 0.51705
 H318 H -0.05354 0.07625 0.49208
 H319 H -0.00790 0.09207 0.52180
 Cu320 Cu -0.05483 0.04511 0.52231
 Cu321 Cu -0.01891 0.05783 0.54551
 Cu322 Cu -0.04406 0.02144 0.55846
 N323 N -0.06902 0.02489 0.52995
 N324 N -0.06474 0.01568 0.54410
 C325 C -0.07665 0.00250 0.54638
 C326 C -0.08895 0.00360 0.53295
 C327 C -0.08382 0.01788 0.52275
 H328 H -0.07637 -0.00716 0.55696
 H329 H -0.09037 0.02272 0.51099
 N330 N -0.02268 0.02935 0.57126
 N331 N -0.01310 0.04322 0.56631
 C332 C 0.00058 0.04521 0.57762
 C333 C -0.00053 0.03201 0.59016
 C334 C -0.01534 0.02217 0.58584
 H335 H 0.01062 0.05547 0.57682
 H336 H -0.02034 0.01066 0.59281
 H337 H -0.02947 0.03340 0.53864
 H338 H -0.04372 0.04824 0.55238
 N339 N 0.48072 0.56404 0.01819
 N340 N 0.46772 0.55826 0.00809
 C341 C 0.46466 0.57022 -0.00480
 C342 C 0.47641 0.58411 -0.00258
 C343 C 0.48644 0.57984 0.01205
 H344 H 0.45471 0.56887 -0.01502
 H345 H 0.49716 0.58755 0.01770
 Cu346 Cu 0.45604 0.53569 0.01270
 Cu347 Cu 0.48963 0.55021 0.03803
 Cu348 Cu 0.46441 0.51367 0.05034
 N349 N 0.43982 0.51776 0.02170
 N350 N 0.44300 0.50933 0.03658
 C351 C 0.42980 0.49765 0.03966
 C352 C 0.41777 0.49897 0.02599
 C353 C 0.42444 0.51180 0.01480
 H354 H 0.42910 0.48877 0.05088
 H355 H 0.41861 0.51638 0.00256
 N356 N 0.48438 0.52273 0.06459
 N357 N 0.49400 0.53666 0.05989
 C358 C 0.50656 0.53955 0.07224
 C359 C 0.50468 0.52684 0.08520
 C360 C 0.49058 0.51639 0.08005
 H361 H 0.51636 0.55007 0.07183
 H362 H 0.48528 0.50502 0.08704
 H363 H 0.48054 0.52521 0.03162
 H364 H 0.46470 0.54014 0.04323
 N365 N 0.51939 -0.06440 0.01755
 N366 N 0.53246 -0.05836 0.00770
 C367 C 0.53581 -0.07013 -0.00527
 C368 C 0.52418 -0.08417 -0.00336
 C369 C 0.51392 -0.08018 0.01117
 H370 H 0.54589 -0.06857 -0.01533
 H371 H 0.50322 -0.08808 0.01661
 Cu372 Cu 0.54384 -0.03574 0.01272
 Cu373 Cu 0.51010 -0.05093 0.03743
 Cu374 Cu 0.53482 -0.01432 0.05051
 N375 N 0.55978 -0.01777 0.02212
 N376 N 0.55634 -0.00957 0.03707
 C377 C 0.56939 0.00220 0.04045
 C378 C 0.58158 0.00120 0.02692
 C379 C 0.57517 -0.01155 0.01549
 H380 H 0.56987 0.01093 0.05178
 H381 H 0.58119 -0.01591 0.00328
 N382 N 0.51478 -0.02377 0.06439
 N383 N 0.50534 -0.03772 0.05940
 C384 C 0.49268 -0.04092 0.07156
 C385 C 0.49430 -0.02838 0.08471
 C386 C 0.50836 -0.01772 0.07987
 H387 H 0.48300 -0.05152 0.07091
 H388 H 0.51348 -0.00641 0.08706
 H389 H 0.51902 -0.02575 0.03145
 H390 H 0.53487 -0.04070 0.04308
 N391 N 1.03362 0.42096 0.53371
 N392 N 1.04794 0.42563 0.52491
 C393 C 1.04934 0.41544 0.51037
 C394 C 1.03517 0.40382 0.51019
 C395 C 1.02545 0.40757 0.52515
 H396 H 1.05993 0.41632 0.50076
 H397 H 1.01344 0.40102 0.52953
 Cu398 Cu 1.06362 0.44420 0.53354
 Cu399 Cu 1.02710 0.43228 0.55586
 Cu400 Cu 1.04766 0.47287 0.56366
 N401 N 1.07506 0.46687 0.53796
 N402 N 1.06861 0.47820 0.54951
 C403 C 1.07899 0.49280 0.54986
 C404 C 1.09254 0.49038 0.53787
 C405 C 1.08973 0.47386 0.53052
 H406 H 1.07693 0.50421 0.55829
 H407 H 1.09773 0.46743 0.52054
 N408 N 1.02644 0.46478 0.57667
 N409 N 1.01886 0.44918 0.57391
 C410 C 1.00504 0.44731 0.58504
 C411 C 1.00398 0.46242 0.59524
 C412 C 1.01767 0.47323 0.58970
 H413 H 0.99640 0.43583 0.58568
 H414 H 1.02104 0.48619 0.59490
 H415 H 1.03604 0.45577 0.54549
 H416 H 1.05021 0.44586 0.56310
 C417 C 0.39840 0.00678 0.22525
 H418 H 0.39925 0.01886 0.23295
 C419 C 0.40981 0.00420 0.21097
 H420 H 0.41927 0.01451 0.20761
 C421 C 0.38480 -0.02120 0.22023
 H422 H 0.37524 -0.03119 0.22404
 C423 C 0.39595 -0.02432 0.20583
 H424 H 0.39483 -0.03674 0.19870
 N425 N 0.38605 -0.00573 0.22944
 C426 C 0.34426 0.02340 0.25679
 H427 H 0.34344 0.01584 0.26893
 C428 C 0.33292 0.03781 0.25404
 H429 H 0.32355 0.04143 0.26426
 C430 C 0.35761 0.02786 0.22882
 H431 H 0.36701 0.02375 0.21887
 C432 C 0.34654 0.04236 0.22552
 H433 H 0.34757 0.04927 0.21302
 Zn434 Zn 0.37115 -0.00103 0.24901
 N435 N 0.35645 0.01885 0.24436
 C436 C 0.38513 0.01908 0.27768
 N437 N 0.38607 0.00348 0.26865
 C438 C 0.39814 -0.00922 0.27305
 C439 C 0.40956 -0.00669 0.28736
 C440 C 0.39630 0.02216 0.29208
 C441 C 0.34377 -0.02498 0.24119
 C442 C 0.33194 -0.03900 0.24406
 C443 C 0.34532 -0.04362 0.27269
 C444 C 0.35688 -0.02950 0.26927
 N445 N 0.35603 -0.02063 0.25364
 H446 H 0.37582 0.02922 0.27369
 H447 H 0.39876 -0.02140 0.26549
 H448 H 0.41880 -0.01712 0.29088
 H449 H 0.39543 0.03470 0.29904
 H450 H 0.34320 -0.01752 0.22898
 H451 H 0.32246 -0.04243 0.23387
 H452 H 0.34607 -0.05037 0.28530
 H453 H 0.36635 -0.02554 0.27923
 C454 C 0.33402 0.04756 0.23825
 C455 C 0.40861 -0.01148 0.20098
 C456 C 0.33264 -0.04855 0.25999
 C457 C 0.40867 0.00914 0.29714
 C458 C 0.10147 -0.00831 0.72552
 H459 H 0.10072 -0.02034 0.73333
 C460 C 0.08975 -0.00573 0.71148
 H461 H 0.08015 -0.01600 0.70839
 C462 C 0.11505 0.01960 0.72009
 H463 H 0.12470 0.02959 0.72368
 C464 C 0.10359 0.02272 0.70592
 H465 H 0.10457 0.03514 0.69875
 N466 N 0.11393 0.00419 0.72944
 C467 C 0.15579 -0.02460 0.75713
 H468 H 0.15665 -0.01684 0.76912
 C469 C 0.16718 -0.03900 0.75457
 H470 H 0.17663 -0.04241 0.76480
 C471 C 0.14229 -0.02955 0.72930
 H472 H 0.13283 -0.02564 0.71932
 C473 C 0.15342 -0.04406 0.72619
 H474 H 0.15236 -0.05116 0.71381
 Zn475 Zn 0.12894 -0.00027 0.74899
 N476 N 0.14353 -0.02028 0.74466
 C477 C 0.11502 -0.01966 0.77821
 N478 N 0.11411 -0.00430 0.76877
 C479 C 0.10213 0.00857 0.77287
 C480 C 0.09077 0.00647 0.78727
 C481 C 0.10388 -0.02232 0.79272
 C482 C 0.15636 0.02346 0.74059
 C483 C 0.16826 0.03747 0.74318
 C484 C 0.15513 0.04253 0.77182
 C485 C 0.14349 0.02842 0.76869
 N486 N 0.14418 0.01933 0.75319
 H487 H 0.12434 -0.02990 0.77454
 H488 H 0.10147 0.02051 0.76493
 H489 H 0.08128 0.01685 0.79026
 H490 H 0.10503 -0.03449 0.80028
 H491 H 0.15680 0.01583 0.72849
 H492 H 0.17769 0.04072 0.73288
 H493 H 0.15451 0.04946 0.78434
 H494 H 0.13409 0.02464 0.77877
 C495 C 0.16605 -0.04898 0.73894
 C496 C 0.09074 0.00994 0.70143
 C497 C 0.16772 0.04724 0.75897
 C498 C 0.09161 -0.00910 0.79747
 C499 C 0.60054 0.49109 0.22604
 H500 H 0.59983 0.47903 0.23382
 C501 C 0.58910 0.49347 0.21173
 H502 H 0.57974 0.48305 0.20843
 C503 C 0.61382 0.51918 0.22086
 H504 H 0.62327 0.52931 0.22462
 C505 C 0.60264 0.52212 0.20644
 H506 H 0.60362 0.53452 0.19925
 N507 N 0.61277 0.50374 0.23017
 C508 C 0.65498 0.47540 0.25777
 H509 H 0.65576 0.48312 0.26979
 C510 C 0.66655 0.46114 0.25516
 H511 H 0.67604 0.45781 0.26537
 C512 C 0.64155 0.47039 0.22992
 H513 H 0.63204 0.47423 0.21996
 C514 C 0.65284 0.45603 0.22677
 H515 H 0.65186 0.44896 0.21436
 Zn516 Zn 0.62779 0.49940 0.24975
 N517 N 0.64266 0.47961 0.24533
 C518 C 0.61421 0.47963 0.27883
 N519 N 0.61305 0.49506 0.26953
 C520 C 0.60090 0.50772 0.27379
 C521 C 0.58964 0.50534 0.28823
 C522 C 0.60320 0.47670 0.29338
 C523 C 0.65491 0.52340 0.24135
 C524 C 0.66653 0.53766 0.24380
 C525 C 0.65332 0.54274 0.27240
 C526 C 0.64193 0.52840 0.26939
 N527 N 0.64278 0.51918 0.25397
 H528 H 0.62358 0.46951 0.27496
 H529 H 0.60010 0.51977 0.26602
 H530 H 0.58034 0.51575 0.29163
 H531 H 0.60426 0.46429 0.30056
 H532 H 0.65554 0.51562 0.22935
 H533 H 0.67617 0.54072 0.23364
 H534 H 0.65223 0.55008 0.28464
 H535 H 0.63249 0.52462 0.27944
 C536 C 0.66552 0.45120 0.23950
 C537 C 0.59013 0.50912 0.20165
 C538 C 0.66580 0.54757 0.25949
 C539 C 0.59077 0.48969 0.29831
 C540 C 0.89797 0.50754 0.72586
 H541 H 0.89849 0.51981 0.73331
 C542 C 0.90992 0.50468 0.71207
 H543 H 0.91945 0.51495 0.70881
 C544 C 0.88480 0.47932 0.72113
 H545 H 0.87523 0.46932 0.72491
 C546 C 0.89649 0.47591 0.70723
 H547 H 0.89576 0.46326 0.70046
 N548 N 0.88563 0.49501 0.73001
 C549 C 0.84317 0.52394 0.75654
 H550 H 0.84236 0.51650 0.76874
 C551 C 0.83149 0.53800 0.75344
 H552 H 0.82186 0.54148 0.76346
 C553 C 0.85679 0.52837 0.72869
 H554 H 0.86642 0.52436 0.71892
 C555 C 0.84538 0.54253 0.72505
 H556 H 0.84637 0.54928 0.71245
 Zn557 Zn 0.87039 0.49979 0.74929
 N558 N 0.85561 0.51951 0.74430
 C559 C 0.88391 0.52010 0.77807
 N560 N 0.88499 0.50447 0.76911
 C561 C 0.89710 0.49186 0.77364
 C562 C 0.90848 0.49455 0.78794
 C563 C 0.89504 0.52334 0.79247
 C564 C 0.84327 0.47570 0.74115
 C565 C 0.83142 0.46168 0.74391
 C566 C 0.84432 0.45723 0.77278
 C567 C 0.85592 0.47134 0.76947
 N568 N 0.85531 0.48014 0.75379
 H569 H 0.87455 0.53017 0.77399
 H570 H 0.89783 0.47965 0.76614
 H571 H 0.91779 0.48420 0.79152
 H572 H 0.89409 0.53592 0.79934
 H573 H 0.84290 0.48309 0.72890
 H574 H 0.82211 0.45819 0.73357
 H575 H 0.84486 0.45055 0.78543
 H576 H 0.86522 0.47537 0.77956
 C577 C 0.83250 0.54751 0.73751
 C578 C 0.90926 0.48869 0.70253
 C579 C 0.83185 0.45223 0.75990
 C580 C 0.90751 0.51045 0.79760
 C581 C 0.22602 0.40592 0.00531
 H582 H 0.23376 0.40686 0.01732
 C583 C 0.21163 0.41730 0.00263
 H584 H 0.20822 0.42683 0.01278
 C585 C 0.22106 0.39216 -0.02239
 H586 H 0.22495 0.38257 -0.03224
 C587 C 0.20656 0.40327 -0.02561
 H588 H 0.19944 0.40208 -0.03797
 N589 N 0.23031 0.39352 -0.00702
 C590 C 0.25845 0.35195 0.02177
 H591 H 0.27050 0.35118 0.01404
 C592 C 0.25594 0.34047 0.03604
 H593 H 0.26612 0.33080 0.03916
 C594 C 0.23030 0.36512 0.02662
 H595 H 0.22023 0.37457 0.02278
 C596 C 0.22723 0.35387 0.04098
 H597 H 0.21493 0.35507 0.04827
 Zn598 Zn 0.25016 0.37880 -0.00237
 N599 N 0.24580 0.36409 0.01746
 C600 C 0.27914 0.39301 0.01723
 N601 N 0.26986 0.39388 0.00184
 C602 C 0.27413 0.40591 -0.01087
 C603 C 0.28860 0.41731 -0.00862
 C604 C 0.29369 0.40417 0.02005
 C605 C 0.24228 0.35115 -0.02582
 C606 C 0.24518 0.33914 -0.03957
 C607 C 0.27386 0.35268 -0.04448
 C608 C 0.27040 0.36444 -0.03065
 N609 N 0.25475 0.36357 -0.02174
 H610 H 0.27532 0.38365 0.02736
 H611 H 0.26632 0.40655 -0.02285
 H612 H 0.29177 0.42681 -0.01889
 H613 H 0.30114 0.40300 0.03222
 H614 H 0.23010 0.35052 -0.01828
 H615 H 0.23518 0.32921 -0.04247
 H616 H 0.28632 0.35372 -0.05154
 H617 H 0.28033 0.37412 -0.02698
 C618 C 0.24017 0.34136 0.04589
 C619 C 0.20164 0.41601 -0.01298
 C620 C 0.26117 0.33979 -0.04909
 C621 C 0.29867 0.41646 0.00698
 C622 C 0.72485 0.09485 -0.00851
 H623 H 0.73248 0.09424 -0.02060
 C624 C 0.71032 0.08356 -0.00612
 H625 H 0.70670 0.07443 -0.01656
 C626 C 0.72025 0.10776 0.01964
 H627 H 0.72431 0.11700 0.02977
 C628 C 0.70562 0.09673 0.02258
 H629 H 0.69858 0.09762 0.03500
 N630 N 0.72936 0.10684 0.00416
 C631 C 0.75701 0.14940 -0.02370
 H632 H 0.76924 0.14991 -0.01621
 C633 C 0.75418 0.16138 -0.03749
 H634 H 0.76444 0.17094 -0.04072
 C635 C 0.72882 0.13624 -0.02851
 H636 H 0.71880 0.12669 -0.02474
 C637 C 0.72544 0.14797 -0.04241
 H638 H 0.71280 0.14727 -0.04920
 Zn639 Zn 0.74911 0.12180 -0.00021
 N640 N 0.74448 0.13704 -0.01959
 C641 C 0.77803 0.10838 -0.02037
 N642 N 0.76888 0.10701 -0.00495
 C643 C 0.77334 0.09470 0.00743
 C644 C 0.78787 0.08350 0.00479
 C645 C 0.79266 0.09745 -0.02355
 C646 C 0.74116 0.14872 0.02394
 C647 C 0.74391 0.16027 0.03811
 C648 C 0.77264 0.14678 0.04277
 C649 C 0.76934 0.13549 0.02851
 N650 N 0.75372 0.13652 0.01954
 H651 H 0.77400 0.11789 -0.03026
 H652 H 0.76568 0.09374 0.01947
 H653 H 0.79146 0.07408 0.01500
 H654 H 0.79974 0.09869 -0.03593
 H655 H 0.72896 0.14942 0.01642
 H656 H 0.73362 0.16968 0.04157
 H657 H 0.78523 0.14589 0.04962
 H658 H 0.77938 0.12608 0.02452
 C659 C 0.73821 0.16076 -0.04707
 C660 C 0.70040 0.08450 0.00955
 C661 C 0.75982 0.15937 0.04775
 C662 C 0.79783 0.08488 -0.01083
 C663 C 0.22629 0.59341 0.49166
 H664 H 0.23376 0.59275 0.47948
 C665 C 0.21228 0.58160 0.49461
 H666 H 0.20910 0.57178 0.48465
 C667 C 0.22185 0.60667 0.51967
 H668 H 0.22575 0.61627 0.52953
 C669 C 0.20777 0.59510 0.52319
 H670 H 0.20075 0.59622 0.53560
 N671 N 0.23067 0.60575 0.50404
 C672 C 0.25767 0.64823 0.47538
 H673 H 0.26984 0.64908 0.48294
 C674 C 0.25468 0.66000 0.46144
 H675 H 0.26460 0.66998 0.45841
 C676 C 0.22967 0.63461 0.47070
 H677 H 0.21984 0.62488 0.47451
 C678 C 0.22613 0.64614 0.45668
 H679 H 0.21369 0.64489 0.44960
 Zn680 Zn 0.25015 0.62096 0.49928
 N681 N 0.24531 0.63576 0.47964
 C682 C 0.27933 0.60755 0.47945
 N683 N 0.27012 0.60635 0.49484
 C684 C 0.27462 0.59429 0.50744
 C685 C 0.28924 0.58315 0.50505
 C686 C 0.29406 0.59667 0.47651
 C687 C 0.24182 0.64817 0.52299
 C688 C 0.24436 0.65990 0.53704
 C689 C 0.27326 0.64688 0.54193
 C690 C 0.27018 0.63540 0.52777
 N691 N 0.25456 0.63609 0.51877
 H692 H 0.27528 0.61687 0.46938
 H693 H 0.26692 0.59346 0.51946
 H694 H 0.29285 0.57393 0.51543
 H695 H 0.30119 0.59776 0.46415
 H696 H 0.22963 0.64860 0.51544
 H697 H 0.23392 0.66919 0.54039
 H698 H 0.28584 0.64623 0.54884
 H699 H 0.28035 0.62607 0.52393
 C700 C 0.23872 0.65907 0.45189
 C701 C 0.20280 0.58237 0.51056
 C702 C 0.26024 0.65931 0.54676
 C703 C 0.29925 0.58433 0.48945
 C704 C 0.72428 0.90488 0.50573
 H705 H 0.73190 0.90547 0.51783
 C706 C 0.70972 0.91613 0.50339
 H707 H 0.70609 0.92519 0.51387
 C708 C 0.71969 0.89210 0.47751
 H709 H 0.72377 0.88293 0.46734
 C710 C 0.70504 0.90309 0.47462
 H711 H 0.69799 0.90224 0.46218
 N712 N 0.72881 0.89299 0.49300
 C713 C 0.75667 0.85051 0.52071
 H714 H 0.76888 0.85008 0.51321
 C715 C 0.75391 0.83849 0.53449
 H716 H 0.76406 0.82875 0.53746
 C717 C 0.72836 0.86337 0.52544
 H718 H 0.71832 0.87291 0.52173
 C719 C 0.72504 0.85159 0.53931
 H720 H 0.71257 0.85246 0.54636
 Zn721 Zn 0.74865 0.87818 0.49735
 N722 N 0.74405 0.86275 0.51658
 C723 C 0.77724 0.89182 0.51787
 N724 N 0.76825 0.89315 0.50235
 C725 C 0.77265 0.90564 0.49013
 C726 C 0.78692 0.91713 0.49307
 C727 C 0.79159 0.90306 0.52137
 C728 C 0.74103 0.85138 0.47294
 C729 C 0.74396 0.83993 0.45875
 C730 C 0.77262 0.85370 0.45438
 C731 C 0.76913 0.86491 0.46866
 N732 N 0.75347 0.86367 0.47750
 H733 H 0.77332 0.88209 0.52760
 H734 H 0.76506 0.90663 0.47804
 H735 H 0.79017 0.92703 0.48321
 H736 H 0.79878 0.90157 0.53367
 H737 H 0.72884 0.85044 0.48043
 H738 H 0.73397 0.83012 0.45545
 H739 H 0.78507 0.85504 0.44737
 H740 H 0.77903 0.87447 0.47270
 C741 C 0.73792 0.83894 0.54401
 C742 C 0.69981 0.91524 0.48770
 C743 C 0.75994 0.84100 0.44925
 C744 C 0.79665 0.91587 0.50885
 C745 C 0.00950 0.22629 0.40133
 H746 H 0.02142 0.23429 0.40219
 C747 C 0.00712 0.21192 0.41276
 H748 H 0.01725 0.20900 0.42249
 C749 C -0.01844 0.22086 0.38798
 H750 H -0.02849 0.22452 0.37848
 C751 C -0.02138 0.20639 0.39917
 H752 H -0.03356 0.19883 0.39788
 N753 N -0.00311 0.23036 0.38913
 C754 C 0.02497 0.25952 0.34791
 H755 H 0.01703 0.27148 0.34735
 C756 C 0.03924 0.25735 0.33635
 H757 H 0.04214 0.26770 0.32684
 C758 C 0.03036 0.23123 0.36062
 H759 H 0.02671 0.22098 0.36992
 C760 C 0.04472 0.22850 0.34930
 H761 H 0.05222 0.21626 0.35028
 Zn762 Zn 0.00099 0.25042 0.37458
 N763 N 0.02092 0.24663 0.35985
 C764 C 0.02030 0.27949 0.38912
 N765 N 0.00490 0.27004 0.38973
 C766 C -0.00786 0.27375 0.40187
 C767 C -0.00551 0.28763 0.41388
 C768 C 0.02319 0.29350 0.40087
 C769 C -0.02252 0.24202 0.34732
 C770 C -0.03669 0.24438 0.33566
 C771 C -0.04259 0.27279 0.34931
 C772 C -0.02831 0.26987 0.36073
 N773 N -0.01873 0.25458 0.35965
 H774 H 0.03049 0.27604 0.37971
 H775 H -0.01987 0.26585 0.40223
 H776 H -0.01593 0.29051 0.42329
 H777 H 0.03564 0.30069 0.40035
 H778 H -0.01447 0.23014 0.34654
 H779 H -0.03939 0.23427 0.32585
 H780 H -0.05022 0.28492 0.35054
 H781 H -0.02487 0.27988 0.37035
 C782 C 0.04934 0.24167 0.33696
 C783 C -0.00849 0.20174 0.41176
 C784 C -0.04697 0.25992 0.33659
 C785 C 0.01020 0.29771 0.41349
 C786 C -0.00750 0.72855 0.09598
 H787 H -0.01937 0.73662 0.09532
 C788 C -0.00536 0.71426 0.08443
 H789 H -0.01579 0.71127 0.07504
 C790 C 0.02040 0.72263 0.10921
 H791 H 0.03055 0.72611 0.11867
 C792 C 0.02308 0.70821 0.09791
 H793 H 0.03533 0.70074 0.09882
 N794 N 0.00519 0.73232 0.10820
 C795 C -0.02249 0.76051 0.15024
 H796 H -0.01450 0.77245 0.15099
 C797 C -0.03665 0.75808 0.16188
 H798 H -0.03965 0.76837 0.17141
 C799 C -0.02820 0.73263 0.13683
 H800 H -0.02465 0.72257 0.12730
 C801 C -0.04249 0.72966 0.14820
 H802 H -0.04980 0.71729 0.14727
 Zn803 Zn 0.00125 0.75204 0.12320
 N804 N -0.01864 0.74794 0.13793
 C805 C -0.01783 0.78174 0.10970
 N806 N -0.00259 0.77213 0.10861
 C807 C 0.01021 0.77626 0.09664
 C808 C 0.00816 0.79088 0.08545
 C809 C -0.02043 0.79648 0.09878
 C810 C 0.02479 0.74299 0.15030
 C811 C 0.03871 0.74530 0.16226
 C812 C 0.04446 0.77411 0.14934
 C813 C 0.03042 0.77126 0.13763
 N814 N 0.02100 0.75583 0.13822
 H815 H -0.02807 0.77798 0.11896
 H816 H 0.02210 0.76824 0.09589
 H817 H 0.01867 0.79416 0.07627
 H818 H -0.03270 0.80390 0.09976
 H819 H 0.01691 0.73096 0.15065
 H820 H 0.04164 0.73483 0.17163
 H821 H 0.05162 0.78660 0.14884
 H822 H 0.02691 0.78152 0.12829
 C823 C -0.04688 0.74248 0.16094
 C824 C 0.01007 0.70382 0.08535
 C825 C 0.04875 0.76105 0.16190
 C826 C -0.00730 0.80126 0.08650
 C827 C 0.49157 0.22616 0.59784
 H828 H 0.47959 0.23406 0.59718
 C829 C 0.49386 0.21186 0.58633
 H830 H 0.48345 0.20869 0.57698
 C831 C 0.51957 0.22065 0.61102
 H832 H 0.52969 0.22429 0.62046
 C833 C 0.52241 0.20623 0.59977
 H834 H 0.53475 0.19891 0.60069
 N835 N 0.50423 0.23013 0.61002
 C836 C 0.47616 0.25782 0.65213
 H837 H 0.48390 0.26992 0.65288
 C838 C 0.46219 0.25501 0.66393
 H839 H 0.45932 0.26500 0.67380
 C840 C 0.47107 0.22978 0.63881
 H841 H 0.47475 0.21984 0.62921
 C842 C 0.45702 0.22640 0.65036
 H843 H 0.44978 0.21401 0.64924
 Zn844 Zn 0.50000 0.24980 0.62502
 N845 N 0.48024 0.24534 0.63981
 C846 C 0.48048 0.27926 0.61155
 N847 N 0.49582 0.26981 0.61042
 C848 C 0.50852 0.27404 0.59837
 C849 C 0.50626 0.28858 0.58714
 C850 C 0.47767 0.29393 0.60057
 C851 C 0.52376 0.24115 0.65206
 C852 C 0.53769 0.24368 0.66396
 C853 C 0.54297 0.27255 0.65098
 C854 C 0.52893 0.26948 0.63933
 N855 N 0.51973 0.25391 0.63998
 H856 H 0.47033 0.27542 0.62087
 H857 H 0.52050 0.26615 0.59761
 H858 H 0.51670 0.29195 0.57791
 H859 H 0.46533 0.30123 0.60159
 H860 H 0.51605 0.22901 0.65246
 H861 H 0.54081 0.23327 0.67334
 H862 H 0.54995 0.28514 0.65044
 H863 H 0.52523 0.27967 0.62999
 C864 C 0.45244 0.23910 0.66316
 C865 C 0.50943 0.20162 0.58726
 C866 C 0.54749 0.25957 0.66354
 C867 C 0.49069 0.29880 0.58821
 C868 C 0.50988 0.72605 0.90122
 H869 H 0.52168 0.73423 0.90196
 C870 C 0.50786 0.71161 0.91265
 H871 H 0.51815 0.70884 0.92225
 C872 C 0.48193 0.72010 0.88808
 H873 H 0.47177 0.72355 0.87863
 C874 C 0.47936 0.70556 0.89927
 H875 H 0.46734 0.69774 0.89803
 N876 N 0.49712 0.72985 0.88909
 C877 C 0.52466 0.75817 0.84694
 H878 H 0.51673 0.77014 0.84620
 C879 C 0.53868 0.75564 0.83515
 H880 H 0.54140 0.76570 0.82530
 C881 C 0.53018 0.73020 0.86026
 H882 H 0.52668 0.72018 0.86985
 C883 C 0.54430 0.72711 0.84872
 H884 H 0.55175 0.71485 0.84986
 Zn885 Zn 0.50099 0.74966 0.87413
 N886 N 0.52078 0.74560 0.85926
 C887 C 0.52000 0.77951 0.88755
 N888 N 0.50489 0.76967 0.88877
 C889 C 0.49218 0.77354 0.90091
 C890 C 0.49416 0.78813 0.91213
 C891 C 0.52254 0.79422 0.89853
 C892 C 0.47716 0.74071 0.84720
 C893 C 0.46292 0.74295 0.83560
 C894 C 0.45727 0.77163 0.84879
 C895 C 0.47161 0.76883 0.86015
 N896 N 0.48110 0.75348 0.85929
 H897 H 0.53012 0.77602 0.87808
 H898 H 0.48044 0.76529 0.90181
 H899 H 0.48392 0.79094 0.92174
 H900 H 0.53450 0.80210 0.89713
 H901 H 0.48515 0.72878 0.84657
 H902 H 0.46010 0.73269 0.82597
 H903 H 0.44973 0.78382 0.84985
 H904 H 0.47517 0.77901 0.86956
 C905 C 0.54870 0.73991 0.83594
 C906 C 0.49248 0.70108 0.91170
 C907 C 0.45275 0.75858 0.83631
 C908 C 0.50947 0.79875 0.91095
 C909 C 0.09024 0.25061 0.30903
 C910 C 0.09307 0.23396 0.30130
 C911 C 0.08165 0.21981 0.30524
 C912 C 0.06745 0.22230 0.31686
 C913 C 0.14621 0.22418 0.25733
 C914 C 0.07604 0.25313 0.32064
 C915 C 0.10764 0.23138 0.28930
 C916 C 0.11983 0.22916 0.27923
 C917 C 0.13407 0.22651 0.26742
 C918 C 0.06448 0.23900 0.32469
 H919 H 0.09903 0.26164 0.30610
 H920 H 0.08368 0.20688 0.29929
 H921 H 0.05865 0.21122 0.31952
 H922 H 0.07424 0.26608 0.32662
 C923 C 0.57975 0.71684 0.80384
 C924 C 0.59115 0.73075 0.79911
 C925 C 0.58876 0.74764 0.80646
 C926 C 0.57499 0.75064 0.81848
 C927 C 0.64205 0.71901 0.75304
 C928 C 0.56599 0.71980 0.81586
 C929 C 0.60521 0.72768 0.78661
 C930 C 0.61690 0.72502 0.77608
 C931 C 0.63051 0.72182 0.76369
 C932 C 0.56343 0.73674 0.82330
 H933 H 0.58145 0.70373 0.79818
 H934 H 0.59753 0.75850 0.80292
 H935 H 0.57350 0.76377 0.82414
 H936 H 0.55717 0.70889 0.81910
 C937 C 0.42035 0.78068 0.80478
 C938 C 0.40897 0.76656 0.80071
 C939 C 0.41187 0.74981 0.80824
 C940 C 0.42611 0.74720 0.81981
 C941 C 0.35549 0.77673 0.75715
 C942 C 0.43459 0.77810 0.81635
 C943 C 0.39431 0.76926 0.78880
 C944 C 0.38205 0.77157 0.77883
 C945 C 0.36772 0.77433 0.76714
 C946 C 0.43763 0.76132 0.82401
 H947 H 0.41826 0.79369 0.79898
 H948 H 0.40311 0.73879 0.80521
 H949 H 0.42797 0.73419 0.82565
 H950 H 0.44336 0.78918 0.81912
 C951 C -0.08762 0.25117 0.30821
 C952 C -0.09064 0.26798 0.30088
 C953 C -0.07944 0.28218 0.30523
 C954 C -0.06525 0.27959 0.31687
 C955 C -0.14405 0.27769 0.25713
 C956 C -0.07343 0.24855 0.31984
 C957 C -0.10523 0.27065 0.28889
 C958 C -0.11746 0.27288 0.27885
 C959 C -0.13179 0.27547 0.26712
 C960 C -0.06208 0.26273 0.32430
 H961 H -0.09624 0.24010 0.30498
 H962 H -0.08164 0.29523 0.29959
 H963 H -0.05662 0.29071 0.31985
 H964 H -0.07148 0.23547 0.32551
 C965 C -0.09187 0.72879 0.17907
 C966 C -0.09024 0.73366 0.19683
 C967 C -0.07449 0.74147 0.20285
 C968 C -0.06040 0.74438 0.19119
 C969 C -0.14287 0.72221 0.24105
 C970 C -0.07779 0.73168 0.16738
 C971 C -0.10469 0.73058 0.20888
 C972 C -0.11676 0.72797 0.21900
 C973 C -0.13085 0.72488 0.23089
 C974 C -0.06189 0.73950 0.17331
 H975 H -0.10402 0.72277 0.17426
 H976 H -0.07307 0.74524 0.21658
 H977 H -0.04826 0.75020 0.19622
 H978 H -0.07942 0.72798 0.15367
 C979 C 0.42195 0.21543 0.69544
 C980 C 0.41037 0.22913 0.70025
 C981 C 0.41242 0.24606 0.69285
 C982 C 0.42605 0.24931 0.68073
 C983 C 0.36016 0.21662 0.74692
 C984 C 0.43557 0.21863 0.68332
 C985 C 0.39650 0.22582 0.71290
 C986 C 0.38496 0.22298 0.72356
 C987 C 0.37155 0.21958 0.73613
 C988 C 0.43780 0.23563 0.67584
 H989 H 0.42052 0.20228 0.70114
 H990 H 0.40351 0.25676 0.69646
 H991 H 0.42729 0.26247 0.67506
 H992 H 0.44454 0.20790 0.68003
 C993 C 0.57397 0.26073 0.70619
 C994 C 0.58956 0.26925 0.70075
 C995 C 0.59151 0.27446 0.68312
 C996 C 0.57788 0.27125 0.67098
 C997 C 0.63977 0.28244 0.74728
 C998 C 0.56033 0.25749 0.69408
 C999 C 0.60347 0.27279 0.71332
 C1000 C 0.61501 0.27580 0.72394
 C1001 C 0.62841 0.27937 0.73648
 C1002 C 0.56211 0.26275 0.67634
 H1003 H 0.57230 0.25669 0.71983
 H1004 H 0.60354 0.28104 0.67876
 H1005 H 0.57973 0.27526 0.65738
 H1006 H 0.54827 0.25115 0.69868
 C1007 C 0.09286 0.77533 0.18170
 C1008 C 0.09075 0.77013 0.19932
 C1009 C 0.07502 0.76182 0.20467
 C1010 C 0.06141 0.75876 0.19250
 C1011 C 0.14085 0.78269 0.24612
 C1012 C 0.07925 0.77230 0.16949
 C1013 C 0.10463 0.77350 0.21196
 C1014 C 0.11615 0.77636 0.22264
 C1015 C 0.12953 0.77976 0.23526
 C1016 C 0.06335 0.76401 0.17476
 H1017 H 0.10500 0.78174 0.17740
 H1018 H 0.07323 0.75781 0.21830
 H1019 H 0.04924 0.75259 0.19703
 H1020 H 0.08123 0.77629 0.15590
 C1021 C 0.31759 0.09302 0.22382
 C1022 C 0.29976 0.09232 0.22896
 C1023 C 0.29310 0.07701 0.23713
 C1024 C 0.30422 0.06245 0.24017
 C1025 C 0.25786 0.14714 0.21778
 C1026 C 0.32873 0.07847 0.22683
 C1027 C 0.28830 0.10732 0.22587
 C1028 C 0.27871 0.11988 0.22329
 C1029 C 0.26748 0.13459 0.22030
 C1030 C 0.32218 0.06301 0.23505
 H1031 H 0.32289 0.10483 0.21753
 H1032 H 0.27930 0.07631 0.24112
 H1033 H 0.29872 0.05067 0.24631
 H1034 H 0.34254 0.07941 0.22295
 C1035 C 0.81428 0.59183 0.72172
 C1036 C 0.79640 0.59040 0.72654
 C1037 C 0.79032 0.57502 0.73500
 C1038 C 0.80206 0.56109 0.73862
 C1039 C 0.75163 0.64216 0.71239
 C1040 C 0.82604 0.57792 0.72532
 C1041 C 0.78425 0.60466 0.72270
 C1042 C 0.77402 0.61654 0.71947
 C1043 C 0.76197 0.63039 0.71566
 C1044 C 0.82006 0.56237 0.73380
 H1045 H 0.81914 0.60370 0.71520
 H1046 H 0.77649 0.57374 0.73873
 H1047 H 0.79698 0.54921 0.74494
 H1048 H 0.83986 0.57940 0.72164
 C1049 C 0.81291 0.40810 0.77541
 C1050 C 0.79518 0.40956 0.77007
 C1051 C 0.78946 0.42488 0.76126
 C1052 C 0.80139 0.43872 0.75786
 C1053 C 0.74992 0.35822 0.78442
 C1054 C 0.82487 0.42192 0.77204
 C1055 C 0.78283 0.39544 0.77381
 C1056 C 0.77246 0.38366 0.77705
 C1057 C 0.76031 0.36991 0.78097
 C1058 C 0.81923 0.43742 0.76325
 H1059 H 0.81750 0.39628 0.78221
 H1060 H 0.77574 0.42618 0.75712
 H1061 H 0.79658 0.45057 0.75129
 H1062 H 0.83856 0.42042 0.77615
 C1063 C 0.29033 -0.07600 0.26188
 C1064 C 0.29623 -0.09136 0.27051
 C1065 C 0.31405 -0.09281 0.27556
 C1066 C 0.32591 -0.07894 0.27207
 C1067 C 0.25122 -0.14289 0.28502
 C1068 C 0.30217 -0.06212 0.25837
 C1069 C 0.28397 -0.10554 0.27435
 C1070 C 0.27367 -0.11737 0.27765
 C1071 C 0.26158 -0.13117 0.28159
 C1072 C 0.32010 -0.06341 0.26347
 H1073 H 0.27655 -0.07471 0.25797
 H1074 H 0.31877 -0.10466 0.28222
 H1075 H 0.33967 -0.08044 0.27596
 H1076 H 0.29724 -0.05024 0.25194
 C1077 C 0.18294 -0.09440 0.72500
 C1078 C 0.20080 -0.09342 0.73002
 C1079 C 0.20732 -0.07794 0.73797
 C1080 C 0.19603 -0.06349 0.74090
 C1081 C 0.24337 -0.14768 0.71880
 C1082 C 0.17163 -0.07997 0.72791
 C1083 C 0.21244 -0.10827 0.72697
 C1084 C 0.22220 -0.12070 0.72441
 C1085 C 0.23362 -0.13525 0.72139
 C1086 C 0.17805 -0.06434 0.73589
 H1087 H 0.17775 -0.10634 0.71888
 H1088 H 0.22114 -0.07702 0.74186
 H1089 H 0.20144 -0.05157 0.74686
 H1090 H 0.15781 -0.08112 0.72411
 C1091 C 0.68280 0.40596 0.22548
 C1092 C 0.70065 0.40709 0.23050
 C1093 C 0.70704 0.42261 0.23847
 C1094 C 0.69564 0.43696 0.24142
 C1095 C 0.74347 0.35300 0.21944
 C1096 C 0.67137 0.42029 0.22841
 C1097 C 0.71240 0.39232 0.22747
 C1098 C 0.72222 0.37993 0.22493
 C1099 C 0.73369 0.36541 0.22196
 C1100 C 0.67766 0.43597 0.23641
 H1101 H 0.67770 0.39398 0.21935
 H1102 H 0.72086 0.42364 0.24236
 H1103 H 0.70094 0.44892 0.24739
 H1104 H 0.65756 0.41903 0.22461
 C1105 C 0.69721 0.58007 0.28183
 C1106 C 0.70110 0.59174 0.26796
 C1107 C 0.69351 0.58897 0.25132
 C1108 C 0.68206 0.57460 0.24854
 C1109 C 0.74384 0.64605 0.27868
 C1110 C 0.68575 0.56569 0.27908
 C1111 C 0.71282 0.60659 0.27084
 C1112 C 0.72262 0.61903 0.27328
 C1113 C 0.73408 0.63360 0.27618
 C1114 C 0.67803 0.56280 0.26240
 H1115 H 0.70304 0.58206 0.29475
 H1116 H 0.69640 0.59796 0.24051
 H1117 H 0.67616 0.57286 0.23562
 H1118 H 0.68311 0.55672 0.28995
 C1119 C 0.21020 0.07446 0.76036
 C1120 C 0.20443 0.08994 0.76884
 C1121 C 0.18664 0.09157 0.77389
 C1122 C 0.17467 0.07774 0.77058
 C1123 C 0.24965 0.14126 0.78338
 C1124 C 0.19825 0.06062 0.75702
 C1125 C 0.21680 0.10404 0.77259
 C1126 C 0.22716 0.11581 0.77587
 C1127 C 0.23929 0.12956 0.77986
 C1128 C 0.18035 0.06208 0.76216
 H1129 H 0.22396 0.07303 0.75645
 H1130 H 0.18202 0.10351 0.78043
 H1131 H 0.16094 0.07936 0.77449
 H1132 H 0.20309 0.04865 0.75073
 C1133 C 0.24837 0.31373 0.08706
 C1134 C 0.23162 0.30615 0.08983
 C1135 C 0.21765 0.31009 0.07829
 C1136 C 0.22040 0.32156 0.06402
 C1137 C 0.22121 0.26274 0.14334
 C1138 C 0.25116 0.32519 0.07279
 C1139 C 0.22879 0.29429 0.10449
 C1140 C 0.22641 0.28435 0.11675
 C1141 C 0.22361 0.27270 0.13110
 C1142 C 0.23720 0.32924 0.06109
 H1143 H 0.25927 0.31080 0.09594
 H1144 H 0.20465 0.30425 0.08029
 H1145 H 0.20946 0.32422 0.05512
 H1146 H 0.26417 0.33107 0.07103
 C1147 C 0.74519 0.80976 0.58430
 C1148 C 0.72839 0.80207 0.58638
 C1149 C 0.71471 0.80641 0.57464
 C1150 C 0.71779 0.81840 0.56087
 C1151 C 0.71615 0.75691 0.63804
 C1152 C 0.74831 0.82175 0.57052
 C1153 C 0.72517 0.78972 0.60055
 C1154 C 0.72240 0.77938 0.61240
 C1155 C 0.71907 0.76726 0.62624
 C1156 C 0.73463 0.82621 0.55865
 H1157 H 0.75586 0.80653 0.59334
 H1158 H 0.70167 0.80049 0.57610
 H1159 H 0.70707 0.82137 0.55181
 H1160 H 0.76135 0.82770 0.56930
 C1161 C 0.78360 0.80969 0.41779
 C1162 C 0.76996 0.80541 0.40598
 C1163 C 0.75307 0.81283 0.40823
 C1164 C 0.74982 0.82445 0.42226
 C1165 C 0.78191 0.76079 0.35388
 C1166 C 0.78038 0.82132 0.43182
 C1167 C 0.77325 0.79330 0.39165
 C1168 C 0.77600 0.78310 0.37970
 C1169 C 0.77919 0.77109 0.36575
 C1170 C 0.76343 0.82881 0.43424
 H1171 H 0.79670 0.80398 0.41621
 H1172 H 0.74243 0.80963 0.39914
 H1173 H 0.73670 0.83016 0.42362
 H1174 H 0.79107 0.82421 0.44095
 C1175 C 0.25450 0.30991 -0.08895
 C1176 C 0.27142 0.30248 -0.09085
 C1177 C 0.28499 0.30725 -0.07914
 C1178 C 0.28168 0.31940 -0.06559
 C1179 C 0.28483 0.25630 -0.14123
 C1180 C 0.25115 0.32206 -0.07540
 C1181 C 0.27489 0.28990 -0.10474
 C1182 C 0.27791 0.27934 -0.11631
 C1183 C 0.28158 0.26693 -0.12978
 C1184 C 0.26471 0.32695 -0.06355
 H1185 H 0.24391 0.30634 -0.09797
 H1186 H 0.29813 0.30153 -0.08045
 H1187 H 0.29232 0.32269 -0.05655
 H1188 H 0.23801 0.32780 -0.07430
 C1189 C 0.72285 0.17998 -0.09085
 C1190 C 0.72792 0.19780 -0.08912
 C1191 C 0.73647 0.20350 -0.07372
 C1192 C 0.73989 0.19146 -0.06007
 C1193 C 0.71410 0.24365 -0.13977
 C1194 C 0.72624 0.16791 -0.07721
 C1195 C 0.72424 0.21026 -0.10307
 C1196 C 0.72109 0.22075 -0.11470
 C1197 C 0.71735 0.23308 -0.12825
 C1198 C 0.73478 0.17352 -0.06165
 H1199 H 0.71626 0.17541 -0.10273
 H1200 H 0.74040 0.21728 -0.07222
 H1201 H 0.74625 0.19624 -0.04817
 H1202 H 0.72235 0.15415 -0.07892
 C1203 C 0.21479 0.69123 0.42143
 C1204 C 0.22840 0.69605 0.40979
 C1205 C 0.24533 0.68868 0.41179
 C1206 C 0.24868 0.67658 0.42542
 C1207 C 0.21553 0.74253 0.35945
 C1208 C 0.21811 0.67914 0.43506
 C1209 C 0.22499 0.70868 0.39591
 C1210 C 0.22209 0.71931 0.38435
 C1211 C 0.21860 0.73182 0.37089
 C1212 C 0.23511 0.67170 0.43723
 H1213 H 0.20165 0.69691 0.42005
 H1214 H 0.25595 0.69228 0.40283
 H1215 H 0.26185 0.67092 0.42661
 H1216 H 0.20745 0.67584 0.44408
 C1217 C 0.27438 0.67721 0.59146
 C1218 C 0.26892 0.69495 0.59029
 C1219 C 0.26062 0.70107 0.57491
 C1220 C 0.25778 0.68949 0.56075
 C1221 C 0.27969 0.73845 0.64359
 C1222 C 0.27157 0.66562 0.57732
 C1223 C 0.27184 0.70688 0.60486
 C1224 C 0.27430 0.71685 0.61707
 C1225 C 0.27720 0.72851 0.63137
 C1226 C 0.26323 0.67163 0.56179
 H1227 H 0.28077 0.67233 0.60333
 H1228 H 0.25639 0.71479 0.57384
 H1229 H 0.25155 0.69458 0.54889
 H1230 H 0.27570 0.65189 0.57861
 C1231 C 0.76104 0.20102 0.07603
 C1232 C 0.76936 0.19474 0.09133
 C1233 C 0.77455 0.17691 0.09242
 C1234 C 0.77145 0.16540 0.07826
 C1235 C 0.78089 0.23821 0.14451
 C1236 C 0.75792 0.18953 0.06186
 C1237 C 0.77256 0.20659 0.10590
 C1238 C 0.77522 0.21654 0.11809
 C1239 C 0.77830 0.22822 0.13235
 C1240 C 0.76309 0.17158 0.06281
 H1241 H 0.75702 0.21481 0.07503
 H1242 H 0.78096 0.17190 0.10422
 H1243 H 0.77539 0.15161 0.07949
 H1244 H 0.75168 0.19475 0.05007
 C1245 C 0.47824 0.34500 0.57222
 C1246 C 0.48366 0.34434 0.55456
 C1247 C 0.49121 0.32877 0.54784
 C1248 C 0.49342 0.31392 0.55874
 C1249 C 0.47712 0.40070 0.51389
 C1250 C 0.48042 0.33017 0.58314
 C1251 C 0.48167 0.35972 0.54340
 C1252 C 0.48012 0.37262 0.53408
 C1253 C 0.47844 0.38775 0.52318
 C1254 C 0.48809 0.31446 0.57654
 H1255 H 0.47243 0.35702 0.57757
 H1256 H 0.49542 0.32810 0.53418
 H1257 H 0.49915 0.30196 0.55320
 H1258 H 0.47640 0.33109 0.59683
 C1259 C -0.01938 0.84760 0.07065
 C1260 C -0.01398 0.84695 0.05299
 C1261 C -0.00648 0.83136 0.04623
 C1262 C -0.00434 0.81648 0.05709
 C1263 C -0.02120 0.90332 0.01245
 C1264 C -0.01726 0.83274 0.08153
 C1265 C -0.01603 0.86232 0.04184
 C1266 C -0.01771 0.87523 0.03254
 C1267 C -0.01962 0.89036 0.02169
 C1268 C -0.00969 0.81700 0.07489
 H1269 H -0.02514 0.85963 0.07603
 H1270 H -0.00230 0.83070 0.03256
 H1271 H 0.00131 0.80450 0.05153
 H1272 H -0.02129 0.83364 0.09522
 C1273 C 0.00967 0.67506 0.04416
 C1274 C 0.01711 0.65925 0.05051
 C1275 C 0.02231 0.65802 0.06820
 C1276 C 0.02007 0.67251 0.07953
 C1277 C 0.02536 0.60439 0.00825
 C1278 C 0.00740 0.68957 0.05546
 C1279 C 0.01936 0.64428 0.03889
 C1280 C 0.02124 0.63172 0.02920
 C1281 C 0.02345 0.61699 0.01788
 C1282 C 0.01257 0.68846 0.07329
 H1283 H 0.00564 0.67617 0.03047
 H1284 H 0.02804 0.64583 0.07327
 H1285 H 0.02397 0.67116 0.09322
 H1286 H 0.00180 0.70173 0.05020
 C1287 C 0.52199 0.15578 0.57043
 C1288 C 0.51665 0.15681 0.55276
 C1289 C 0.50908 0.17252 0.54631
 C1290 C 0.50680 0.18712 0.55749
 C1291 C 0.52397 0.10140 0.51104
 C1292 C 0.51973 0.17037 0.58163
 C1293 C 0.51878 0.14171 0.54130
 C1294 C 0.52049 0.12903 0.53173
 C1295 C 0.52241 0.11414 0.52055
 C1296 C 0.51206 0.18620 0.57530
 H1297 H 0.52781 0.14367 0.57557
 H1298 H 0.50494 0.17347 0.53264
 H1299 H 0.50107 0.19918 0.55216
 H1300 H 0.52370 0.16916 0.59532
 C1301 C -0.00001 0.16064 0.43965
 C1302 C -0.01678 0.15767 0.44702
 C1303 C -0.03087 0.16905 0.44284
 C1304 C -0.02820 0.18335 0.43135
 C1305 C -0.02688 0.10411 0.49059
 C1306 C 0.00270 0.17494 0.42816
 C1307 C -0.01953 0.14299 0.45891
 C1308 C -0.02184 0.13072 0.46889
 C1309 C -0.02456 0.11636 0.48059
 C1310 C -0.01137 0.18648 0.42388
 H1311 H 0.01098 0.15189 0.44276
 H1312 H -0.04390 0.16690 0.44852
 H1313 H -0.03924 0.19212 0.42851
 H1314 H 0.01574 0.17686 0.42246
 C1315 C 0.47135 0.66689 0.94207
 C1316 C 0.48579 0.65577 0.94572
 C1317 C 0.50241 0.65950 0.93834
 C1318 C 0.50461 0.67426 0.92733
 C1319 C 0.47820 0.59959 0.98645
 C1320 C 0.47351 0.68165 0.93104
 C1321 C 0.48356 0.64049 0.95695
 C1322 C 0.48178 0.62764 0.96630
 C1323 C 0.47980 0.61253 0.97719
 C1324 C 0.49017 0.68550 0.92353
 H1325 H 0.45843 0.66415 0.94775
 H1326 H 0.51367 0.65095 0.94104
 H1327 H 0.51753 0.67671 0.92156
 H1328 H 0.46220 0.69017 0.92856
 C1329 C 0.53045 0.83337 0.94094
 C1330 C 0.51592 0.84437 0.94457
 C1331 C 0.49931 0.84048 0.93722
 C1332 C 0.49721 0.82565 0.92631
 C1333 C 0.52271 0.90044 0.98552
 C1334 C 0.52838 0.81853 0.93001
 C1335 C 0.51801 0.85966 0.95580
 C1336 C 0.51962 0.87249 0.96519
 C1337 C 0.52136 0.88755 0.97617
 C1338 C 0.51172 0.81449 0.92258
 H1339 H 0.54335 0.83623 0.94660
 H1340 H 0.48799 0.84894 0.93990
 H1341 H 0.48428 0.82305 0.92060
 H1342 H 0.53975 0.81008 0.92757
 C1343 C 0.01097 0.32398 0.45626
 C1344 C 0.01916 0.33979 0.45087
 C1345 C 0.02430 0.34192 0.43325
 C1346 C 0.02133 0.32828 0.42106
 C1347 C 0.03158 0.39025 0.49734
 C1348 C 0.00797 0.31033 0.44410
 C1349 C 0.02245 0.35372 0.46348
 C1350 C 0.02526 0.36531 0.47410
 C1351 C 0.02863 0.37879 0.48661
 C1352 C 0.01315 0.31231 0.42636
 H1353 H 0.00700 0.32216 0.46989
 H1354 H 0.03062 0.35412 0.42893
 H1355 H 0.02527 0.33029 0.40746
 H1356 H 0.00188 0.29811 0.44865
 C1357 C 0.32994 0.54428 0.48989
 C1358 C 0.34529 0.55135 0.48219
 C1359 C 0.34555 0.56911 0.47669
 C1360 C 0.33055 0.57981 0.47895
 C1361 C 0.40258 0.51209 0.47473
 C1362 C 0.31492 0.55496 0.49217
 C1363 C 0.36084 0.54044 0.48008
 C1364 C 0.37394 0.53140 0.47836
 C1365 C 0.38935 0.52093 0.47639
 C1366 C 0.31507 0.57287 0.48677
 H1367 H 0.32958 0.53053 0.49415
 H1368 H 0.35739 0.57473 0.47077
 H1369 H 0.33117 0.59360 0.47487
 H1370 H 0.30314 0.54916 0.49802
 C1371 C 0.84399 0.06968 -0.02408
 C1372 C 0.84368 0.05182 -0.01890
 C1373 C 0.82834 0.04469 -0.01122
 C1374 C 0.81339 0.05540 -0.00865
 C1375 C 0.90066 0.01235 -0.02752
 C1376 C 0.82906 0.08040 -0.02154
 C1377 C 0.85915 0.04087 -0.02133
 C1378 C 0.87218 0.03180 -0.02332
 C1379 C 0.88752 0.02127 -0.02561
 C1380 C 0.81359 0.07339 -0.01376
 H1381 H 0.85581 0.07535 -0.02998
 H1382 H 0.82794 0.03087 -0.00720
 H1383 H 0.80162 0.04955 -0.00284
 H1384 H 0.82972 0.09425 -0.02539
 C1385 C 0.66983 0.04430 0.00902
 C1386 C 0.65453 0.05121 0.01694
 C1387 C 0.65427 0.06892 0.02257
 C1388 C 0.66920 0.07972 0.02024
 C1389 C 0.59740 0.01168 0.02487
 C1390 C 0.68478 0.05508 0.00667
 C1391 C 0.63905 0.04020 0.01917
 C1392 C 0.62599 0.03110 0.02100
 C1393 C 0.61061 0.02057 0.02311
 C1394 C 0.68463 0.07294 0.01223
 H1395 H 0.67019 0.03059 0.00465
 H1396 H 0.64248 0.07443 0.02866
 H1397 H 0.66857 0.09347 0.02444
 H1398 H 0.69652 0.04941 0.00066
 C1399 C 0.16174 0.55375 0.50397
 C1400 C 0.15961 0.54636 0.52079
 C1401 C 0.17160 0.55066 0.53425
 C1402 C 0.18566 0.56234 0.53092
 C1403 C 0.10683 0.50245 0.53406
 C1404 C 0.17580 0.56544 0.50061
 C1405 C 0.14512 0.53437 0.52429
 C1406 C 0.13301 0.52432 0.52730
 C1407 C 0.11887 0.51254 0.53092
 C1408 C 0.18791 0.56988 0.51406
 H1409 H 0.15251 0.55055 0.49347
 H1410 H 0.17011 0.54496 0.54730
 H1411 H 0.19489 0.56530 0.54149
 H1412 H 0.17705 0.57118 0.48756
 C1413 C 0.17231 0.45705 -0.01396
 C1414 C 0.15682 0.45033 -0.02171
 C1415 C 0.15599 0.43243 -0.02667
 C1416 C 0.17057 0.42128 -0.02388
 C1417 C 0.10174 0.49217 -0.03163
 C1418 C 0.18690 0.44592 -0.01115
 C1419 C 0.14177 0.46178 -0.02448
 C1420 C 0.12915 0.47136 -0.02677
 C1421 C 0.11437 0.48258 -0.02940
 C1422 C 0.18619 0.42789 -0.01607
 H1423 H 0.17312 0.47090 -0.01011
 H1424 H 0.14404 0.42708 -0.03263
 H1425 H 0.16952 0.40741 -0.02760
 H1426 H 0.19881 0.45147 -0.00533
 C1427 C 0.66928 0.95541 0.48842
 C1428 C 0.65397 0.94853 0.48046
 C1429 C 0.65368 0.93085 0.47473
 C1430 C 0.66861 0.92005 0.47700
 C1431 C 0.59700 0.98826 0.47287
 C1432 C 0.68423 0.94463 0.49071
 C1433 C 0.63850 0.95955 0.47832
 C1434 C 0.62547 0.96869 0.47656
 C1435 C 0.61015 0.97929 0.47456
 C1436 C 0.68405 0.92680 0.48505
 H1437 H 0.66967 0.96909 0.49286
 H1438 H 0.64187 0.92537 0.46862
 H1439 H 0.66796 0.90633 0.47272
 H1440 H 0.69598 0.95028 0.49674
 C1441 C 0.83844 0.94323 0.50174
 C1442 C 0.84121 0.95033 0.51859
 C1443 C 0.82939 0.94623 0.53226
 C1444 C 0.81488 0.93506 0.52911
 C1445 C 0.89605 0.99215 0.53006
 C1446 C 0.82394 0.93207 0.49855
 C1447 C 0.85618 0.96178 0.52185
 C1448 C 0.86874 0.97135 0.52451
 C1449 C 0.88347 0.98257 0.52755
 C1450 C 0.81199 0.92784 0.51221
 H1451 H 0.84753 0.94628 0.49107
 H1452 H 0.83138 0.95169 0.54534
 H1453 H 0.80581 0.93224 0.53983
 H1454 H 0.82221 0.92654 0.48547
 C1455 C 0.34101 0.44233 -0.00210
 C1456 C 0.34445 0.44984 0.01444
 C1457 C 0.33285 0.44663 0.02851
 C1458 C 0.31789 0.43587 0.02608
 C1459 C 0.40187 0.48867 0.02362
 C1460 C 0.32606 0.43157 -0.00456
 C1461 C 0.36002 0.46065 0.01702
 C1462 C 0.37315 0.46959 0.01914
 C1463 C 0.38860 0.47994 0.02158
 C1464 C 0.31435 0.42817 0.00952
 H1465 H 0.34994 0.44467 -0.01306
 H1466 H 0.33537 0.45242 0.04137
 H1467 H 0.30902 0.43369 0.03712
 H1468 H 0.32384 0.42565 -0.01740
 C1469 C 0.55033 0.48989 0.32824
 C1470 C 0.55720 0.48221 0.34362
 C1471 C 0.57498 0.47685 0.34416
 C1472 C 0.58588 0.47920 0.32941
 C1473 C 0.51679 0.47451 0.39974
 C1474 C 0.56121 0.49227 0.31347
 C1475 C 0.54607 0.47998 0.35890
 C1476 C 0.53679 0.47818 0.37174
 C1477 C 0.52598 0.47616 0.38682
 C1478 C 0.57913 0.48698 0.31390
 H1479 H 0.53657 0.49406 0.32766
 H1480 H 0.58045 0.47094 0.35603
 H1481 H 0.59967 0.47521 0.33024
 H1482 H 0.55555 0.49808 0.30165
 C1483 C 0.06093 -0.03037 0.83122
 C1484 C 0.05752 -0.01603 0.84249
 C1485 C 0.06522 0.00055 0.83904
 C1486 C 0.07628 0.00282 0.82440
 C1487 C 0.01625 -0.02401 0.89794
 C1488 C 0.07201 -0.02814 0.81657
 C1489 C 0.04618 -0.01833 0.85760
 C1490 C 0.03671 -0.02018 0.87029
 C1491 C 0.02566 -0.02227 0.88519
 C1492 C 0.07981 -0.01151 0.81299
 H1493 H 0.05501 -0.04326 0.83374
 H1494 H 0.06271 0.01172 0.84771
 H1495 H 0.08227 0.01571 0.82215
 H1496 H 0.07428 -0.03936 0.80792
 C1497 C 0.07285 0.02363 0.65656
 C1498 C 0.05500 0.01863 0.65797
 C1499 C 0.04881 0.01083 0.67358
 C1500 C 0.06041 0.00801 0.68772
 C1501 C 0.01134 0.02909 0.60473
 C1502 C 0.08447 0.02084 0.67069
 C1503 C 0.04305 0.02148 0.64341
 C1504 C 0.03304 0.02387 0.63122
 C1505 C 0.02132 0.02668 0.61694
 C1506 C 0.07839 0.01298 0.68644
 H1507 H 0.07779 0.02964 0.64453
 H1508 H 0.03500 0.00695 0.67482
 H1509 H 0.05526 0.00215 0.69973
 H1510 H 0.09828 0.02460 0.66921
 C1511 C 0.57388 0.52196 0.15594
 C1512 C 0.55610 0.51659 0.15665
 C1513 C 0.54937 0.50889 0.17208
 C1514 C 0.56040 0.50651 0.18675
 C1515 C 0.51548 0.52471 0.10069
 C1516 C 0.58493 0.51960 0.17059
 C1517 C 0.54482 0.51887 0.14147
 C1518 C 0.53547 0.52074 0.12868
 C1519 C 0.52463 0.52290 0.11362
 C1520 C 0.57832 0.51181 0.18616
 H1521 H 0.57924 0.52788 0.14404
 H1522 H 0.53561 0.50473 0.17278
 H1523 H 0.55487 0.50069 0.19861
 H1524 H 0.59871 0.52360 0.16964
 C1525 C 0.42477 -0.02448 0.15531
 C1526 C 0.44258 -0.01921 0.15602
 C1527 C 0.44937 -0.01161 0.17148
 C1528 C 0.43837 -0.00919 0.18614
 C1529 C 0.48335 -0.02659 0.10012
 C1530 C 0.41375 -0.02209 0.16996
 C1531 C 0.45383 -0.02138 0.14082
 C1532 C 0.46320 -0.02311 0.12803
 C1533 C 0.47410 -0.02503 0.11301
 C1534 C 0.42041 -0.01436 0.18553
 H1535 H 0.41937 -0.03032 0.14339
 H1536 H 0.46315 -0.00751 0.17218
 H1537 H 0.44396 -0.00342 0.19800
 H1538 H 0.39994 -0.02599 0.16900
 C1539 C 0.95177 0.48716 0.67566
 C1540 C 0.94599 0.47870 0.66024
 C1541 C 0.92821 0.47354 0.65860
 C1542 C 0.91625 0.47679 0.67234
 C1543 C 0.99143 0.46599 0.60906
 C1544 C 0.93984 0.49044 0.68940
 C1545 C 0.95833 0.47527 0.64615
 C1546 C 0.96872 0.47237 0.63440
 C1547 C 0.98095 0.46895 0.62070
 C1548 C 0.92193 0.48528 0.68790
 H1549 H 0.96553 0.49116 0.67709
 H1550 H 0.92358 0.46702 0.64671
 H1551 H 0.90251 0.47286 0.67069
 H1552 H 0.94468 0.49677 0.70130
 C1553 C 0.94861 0.51111 0.82666
 C1554 C 0.94212 0.51927 0.84194
 C1555 C 0.92435 0.52465 0.84272
 C1556 C 0.91309 0.52184 0.82829
 C1557 C 0.98468 0.52886 0.89622
 C1558 C 0.93739 0.50828 0.81223
 C1559 C 0.95367 0.52203 0.85683
 C1560 C 0.96340 0.52426 0.86928
 C1561 C 0.97485 0.52678 0.88382
 C1562 C 0.91948 0.51359 0.81288
 H1563 H 0.96236 0.50694 0.82590
 H1564 H 0.91917 0.53093 0.85450
 H1565 H 0.89933 0.52588 0.82929
 H1566 H 0.94277 0.50212 0.80048
 C1567 C 0.42513 0.02277 0.34255
 C1568 C 0.44286 0.01727 0.34192
 C1569 C 0.44947 0.00921 0.32663
 C1570 C 0.43839 0.00660 0.31205
 C1571 C 0.48410 0.02619 0.39730
 C1572 C 0.41402 0.02019 0.32798
 C1573 C 0.45422 0.01979 0.35700
 C1574 C 0.46369 0.02186 0.36967
 C1575 C 0.47472 0.02422 0.38456
 C1576 C 0.42052 0.01204 0.31256
 H1577 H 0.41985 0.02897 0.35434
 H1578 H 0.46320 0.00494 0.32599
 H1579 H 0.44385 0.00051 0.30030
 H1580 H 0.40028 0.02431 0.32888
   
