data_POSCAR
  _audit_creation_date              2014-09-24
  _audit_creation_method            'ToBaCCo'
  _symmetry_space_group_name_H-M    'P1'
  _symmetry_Int_Tables_number       1
  _symmetry_cell_setting            triclinic
  loop_
  _symmetry_equiv_pos_as_xyz
 x,y,z
_cell_length_a 43.7365
_cell_length_b 43.7897
_cell_length_c 43.8066
_cell_angle_alpha 90.013100
_cell_angle_beta 90.046000
_cell_angle_gamma 90.019600
loop_
  _atom_site_label
  _atom_site_type_symbol
  _atom_site_fract_x
  _atom_site_fract_y
  _atom_site_fract_z
C1 C 0.25598 1.08378 -0.00026
 C2 C 0.25949 1.06827 0.02765
 C3 C 0.25951 1.03607 0.02716
 C4 C 0.25428 1.01950 -0.00007
 C5 C 0.24941 1.03619 -0.02726
 C6 C 0.25188 1.06826 -0.02808
 C7 C 0.25489 0.98499 -0.00039
 C8 C 0.26008 0.96865 -0.02782
 C9 C 0.26026 0.93661 -0.02841
 C10 C 0.25728 0.92054 -0.00101
 C11 C 0.25335 0.93591 0.02672
 C12 C 0.25091 0.96790 0.02676
 H13 H 0.25379 1.10835 -0.00013
 H14 H 0.26517 1.02410 0.04791
 H15 H 0.24498 1.02416 -0.04819
 H16 H 0.26473 0.98032 -0.04900
 H17 H 0.25740 0.89579 -0.00126
 H18 H 0.24638 0.97908 0.04824
 C19 C 0.75750 0.58216 0.50336
 C20 C 0.75997 0.56587 0.53073
 C21 C 0.76006 0.53382 0.52992
 C22 C 0.75592 0.51766 0.50222
 C23 C 0.75228 0.53495 0.47516
 C24 C 0.75429 0.56695 0.47544
 C25 C 0.75609 0.48317 0.50146
 C26 C 0.76119 0.46712 0.47386
 C27 C 0.76125 0.43509 0.47294
 C28 C 0.75801 0.41870 0.50013
 C29 C 0.75395 0.43377 0.52799
 C30 C 0.75180 0.46576 0.52837
 H31 H 0.75743 0.60690 0.50378
 H32 H 0.76409 0.52197 0.55113
 H33 H 0.74838 0.52398 0.45347
 H34 H 0.76585 0.47902 0.45281
 H35 H 0.75800 0.39396 0.49958
 H36 H 0.74723 0.47664 0.54998
 C37 C 0.74167 1.00332 1.08429
 C38 C 0.74545 0.97486 1.06991
 C39 C 0.74831 0.97443 1.03784
 C40 C 0.74419 1.00112 1.02007
 C41 C 0.73917 1.02897 1.03558
 C42 C 0.73891 1.03066 1.06768
 C43 C 0.74414 0.99977 0.98557
 C44 C 0.74815 1.02645 0.96768
 C45 C 0.74598 1.02549 0.93567
 C46 C 0.74240 0.99725 0.92113
 C47 C 0.73952 0.97031 0.93802
 C48 C 0.73935 0.97184 0.97000
 H49 H 0.74360 1.00441 1.10885
 H50 H 0.75252 0.95297 1.02672
 H51 H 0.73392 1.04938 1.02288
 H52 H 0.75247 1.04830 0.97820
 H53 H 0.74247 0.99622 0.89641
 H54 H 0.73474 0.95096 0.98221
 C55 C 0.24273 0.49781 0.58188
 C56 C 0.23961 0.47091 0.56493
 C57 C 0.23975 0.47248 0.53293
 C58 C 0.24481 0.50042 0.51746
 C59 C 0.24893 0.52701 0.53540
 C60 C 0.24674 0.52601 0.56738
 C61 C 0.24513 0.50186 0.48301
 C62 C 0.24093 0.52985 0.46736
 C63 C 0.24106 0.53121 0.43533
 C64 C 0.24377 0.50415 0.41857
 C65 C 0.24713 0.47599 0.43325
 C66 C 0.24900 0.47513 0.46523
 H67 H 0.24267 0.49678 0.60659
 H68 H 0.23516 0.45166 0.52058
 H69 H 0.25339 0.54884 0.52494
 H70 H 0.23679 0.55085 0.47955
 H71 H 0.24392 0.50504 0.39385
 H72 H 0.25301 0.45326 0.47581
 C73 C 1.08273 0.24909 -0.00307
 C74 C 1.06755 0.25393 0.02489
 C75 C 1.03523 0.25406 0.02468
 C76 C 1.01828 0.24747 -0.00207
 C77 C 1.03459 0.24155 -0.02917
 C78 C 1.06653 0.24325 -0.03002
 C79 C 0.98382 0.24659 -0.00165
 C80 C 0.96653 0.25026 -0.02878
 C81 C 0.93433 0.24731 -0.02896
 C82 C 0.91950 0.24351 -0.00071
 C83 C 0.93589 0.24094 0.02658
 C84 C 0.96787 0.24151 0.02587
 H85 H 1.10741 0.24879 -0.00414
 H86 H 1.02334 0.26069 0.04520
 H87 H 1.02289 0.23498 -0.04988
 H88 H 0.97821 0.25434 -0.05000
 H89 H 0.89480 0.24424 0.00058
 H90 H 0.97996 0.23752 0.04702
 C91 C 0.58280 0.74235 0.50183
 C92 C 0.56734 0.74696 0.52941
 C93 C 0.53550 0.75109 0.52905
 C94 C 0.51852 0.74849 0.50165
 C95 C 0.53483 0.74273 0.47437
 C96 C 0.56685 0.74069 0.47417
 C97 C 0.48417 0.75176 0.50146
 C98 C 0.46818 0.75838 0.47413
 C99 C 0.43617 0.76064 0.47363
 C100 C 0.41994 0.75824 0.50101
 C101 C 0.43507 0.75272 0.52861
 C102 C 0.46687 0.74841 0.52855
 H103 H 0.60753 0.74095 0.50186
 H104 H 0.52437 0.75608 0.55044
 H105 H 0.52304 0.73935 0.45298
 H106 H 0.48019 0.76229 0.45298
 H107 H 0.39521 0.75979 0.50080
 H108 H 0.47771 0.74270 0.54992
 C109 C -0.00052 0.74661 -0.07980
 C110 C 0.02710 0.75210 -0.06455
 C111 C 0.02712 0.75494 -0.03271
 C112 C 0.00021 0.75039 -0.01551
 C113 C -0.02709 0.74392 -0.03149
 C114 C -0.02821 0.74322 -0.06369
 C115 C 0.00057 0.75252 0.01884
 C116 C -0.02662 0.75791 0.03554
 C117 C -0.02664 0.75982 0.06773
 C118 C 0.00170 0.75838 0.08291
 C119 C 0.02898 0.75390 0.06695
 C120 C 0.02818 0.74973 0.03530
 H121 H -0.00018 0.74610 -0.10446
 H122 H 0.04833 0.76130 -0.02181
 H123 H -0.04746 0.73806 -0.01892
 H124 H -0.04775 0.76213 0.02357
 H125 H 0.00287 0.75892 0.10757
 H126 H 0.04945 0.74474 0.02385
 C127 C 0.50112 0.25309 0.41647
 C128 C 0.52847 0.24775 0.43228
 C129 C 0.52790 0.24546 0.46426
 C130 C 0.50058 0.25008 0.48086
 C131 C 0.47367 0.25661 0.46423
 C132 C 0.47354 0.25704 0.43221
 C133 C 0.49995 0.24767 0.51516
 C134 C 0.47223 0.24200 0.53079
 C135 C 0.47121 0.24036 0.56274
 C136 C 0.49847 0.24241 0.57935
 C137 C 0.52648 0.24689 0.56456
 C138 C 0.52695 0.25059 0.53271
 H139 H 0.50129 0.25403 0.39176
 H140 H 0.54888 0.23934 0.47573
 H141 H 0.45250 0.26174 0.47581
 H142 H 0.45116 0.23826 0.51848
 H143 H 0.49785 0.24128 0.60405
 H144 H 0.54863 0.25540 0.52197
 C145 C 1.08231 0.00041 0.24421
 C146 C 1.06779 0.02879 0.24848
 C147 C 1.03557 0.02896 0.25127
 C148 C 1.01798 0.00213 0.24688
 C149 C 1.03363 -0.02547 0.24119
 C150 C 1.06559 -0.02660 0.24084
 C151 C 0.98351 0.00302 0.24739
 C152 C 0.96613 -0.02367 0.25319
 C153 C 0.93386 -0.02370 0.25117
 C154 C 0.91913 0.00446 0.24634
 C155 C 0.93563 0.03138 0.24160
 C156 C 0.96761 0.03039 0.24122
 H157 H 1.10698 -0.00122 0.24505
 H158 H 1.02409 0.05023 0.25570
 H159 H 1.02138 -0.04634 0.23641
 H160 H 0.97779 -0.04474 0.25808
 H161 H 0.89448 0.00603 0.24775
 H162 H 0.97965 0.05113 0.23547
 C163 C 0.57948 0.49597 0.75301
 C164 C 0.56376 0.52339 0.75766
 C165 C 0.53169 0.52330 0.75757
 C166 C 0.51494 0.49648 0.75094
 C167 C 0.53159 0.46926 0.74568
 C168 C 0.56366 0.46874 0.74742
 C169 C 0.48051 0.49711 0.74915
 C170 C 0.46310 0.47000 0.75157
 C171 C 0.43114 0.47041 0.74843
 C172 C 0.41609 0.49842 0.74504
 C173 C 0.43253 0.52579 0.74352
 C174 C 0.46459 0.52489 0.74463
 H175 H 0.60424 0.49583 0.75360
 H176 H 0.52021 0.54440 0.76312
 H177 H 0.52012 0.44832 0.73950
 H178 H 0.47402 0.44826 0.75552
 H179 H 0.39133 0.49891 0.74429
 H180 H 0.47671 0.54611 0.74131
 C181 C 0.99850 1.07716 0.73939
 C182 C 0.97021 1.06187 0.73820
 C183 C 0.97029 1.02975 0.74130
 C184 C 0.99744 1.01334 0.74767
 C185 C 1.02497 1.02998 0.75030
 C186 C 1.02577 1.06147 0.74495
 C187 C 0.99708 0.97908 0.75120
 C188 C 1.02393 0.96156 0.74692
 C189 C 1.02434 0.92965 0.75169
 C190 C 0.99635 0.91510 0.75816
 C191 C 0.96916 0.93167 0.76132
 C192 C 0.96990 0.96356 0.75893
 H193 H 0.99962 1.10180 0.73796
 H194 H 0.94924 1.01752 0.73735
 H195 H 1.04616 1.01880 0.75618
 H196 H 1.04485 0.97292 0.74084
 H197 H 0.99509 0.89043 0.75896
 H198 H 0.94903 0.97594 0.76345
 C199 C 0.50202 0.58434 0.24426
 C200 C 0.47415 0.56878 0.24227
 C201 C 0.47396 0.53677 0.24354
 C202 C 0.50107 0.52001 0.24894
 C203 C 0.52870 0.53661 0.25203
 C204 C 0.52943 0.56846 0.24854
 C205 C 0.50052 0.48562 0.25118
 C206 C 0.52759 0.46826 0.24796
 C207 C 0.52741 0.43640 0.25129
 C208 C 0.49958 0.42127 0.25566
 C209 C 0.47217 0.43760 0.25781
 C210 C 0.47291 0.46963 0.25659
 H211 H 0.50236 0.60907 0.24337
 H212 H 0.45239 0.52539 0.23984
 H213 H 0.55002 0.52522 0.25686
 H214 H 0.54920 0.47908 0.24314
 H215 H 0.49922 0.39654 0.25651
 H216 H 0.45170 0.48161 0.26036
 O217 O 0.25200 0.17346 0.20681
 O218 O 0.28792 0.16842 0.24978
 O219 O 0.17157 0.20947 0.24969
 O220 O 0.15947 0.24925 0.27935
 O221 O 0.20853 0.25321 0.16902
 O222 O 0.25091 0.28640 0.16049
 O223 O 0.25023 0.29584 0.32758
 O224 O 0.21471 0.25533 0.33562
 O225 O 0.32877 0.25476 0.29125
 O226 O 0.33625 0.21788 0.24580
 O227 O 0.29178 0.33218 0.25044
 O228 O 0.24845 0.34091 0.21436
 O229 O 0.25010 0.33207 0.29033
 O230 O 0.21558 0.34084 0.24648
 O231 O 0.32875 0.29561 0.25070
 O232 O 0.34037 0.25419 0.21739
 O233 O 0.29207 0.25621 0.32803
 O234 O 0.25044 0.21998 0.33755
 O235 O 0.25218 0.21009 0.16989
 O236 O 0.28501 0.25301 0.16115
 O237 O 0.17123 0.25254 0.20527
 O238 O 0.16347 0.28777 0.24776
 O239 O 0.20890 0.17307 0.24915
 O240 O 0.24851 0.16584 0.28390
 Zr241 Zr 0.24973 0.19829 0.24806
 O242 O 0.27772 0.22498 0.27677
 Zr243 Zr 0.19534 0.25136 0.24703
 O244 O 0.22109 0.28028 0.27588
 Zr245 Zr 0.24959 0.25163 0.19393
 O246 O 0.27765 0.28056 0.22015
 Zr247 Zr 0.25068 0.25433 0.30339
 O248 O 0.22230 0.22518 0.27713
 Zr249 Zr 0.30455 0.25420 0.24984
 O250 O 0.27908 0.22507 0.22094
 Zr251 Zr 0.25044 0.30741 0.24916
 O252 O 0.22207 0.28098 0.22015
 O253 O 0.22129 0.22314 0.21914
 O254 O 0.27911 0.28283 0.27810
 C255 C 0.25330 0.18220 0.17886
 C256 C 0.18083 0.18159 0.25024
 C257 C 0.18044 0.25377 0.17745
 C258 C 0.25017 0.32365 0.31836
 C259 C 0.32004 0.25607 0.31914
 C260 C 0.31980 0.32348 0.25119
 H261 H 0.29053 0.21142 0.28946
 H262 H 0.29035 0.29322 0.20645
 H263 H 0.20845 0.20988 0.20606
 H264 H 0.20714 0.29274 0.28853
 H265 H 0.19960 0.23979 0.32907
 H266 H 0.16582 0.26148 0.29725
 H267 H 0.33405 0.26751 0.20029
 H268 H 0.30132 0.23925 0.16868
 H269 H 0.26694 0.20524 0.33302
 H270 H 0.23535 0.17447 0.30011
 H271 H 0.26571 0.33727 0.20024
 H272 H 0.23734 0.30291 0.16788
 H273 H 0.28115 0.14752 0.24417
 H274 H 0.33512 0.20553 0.26468
 H275 H 0.16998 0.30254 0.23194
 H276 H 0.20057 0.33650 0.26279
 O277 O 0.75099 0.83130 0.21215
 O278 O 0.71737 0.83903 0.25441
 O279 O 0.83151 0.79499 0.25600
 O280 O 0.84319 0.75461 0.28476
 O281 O 0.79494 0.75365 0.17376
 O282 O 0.75331 0.71898 0.16489
 O283 O 0.75265 0.70823 0.33141
 O284 O 0.78775 0.74934 0.33994
 O285 O 0.67367 0.74798 0.29528
 O286 O 0.66374 0.78392 0.25300
 O287 O 0.71163 0.67190 0.25275
 O288 O 0.75545 0.66380 0.21809
 O289 O 0.75261 0.67191 0.29422
 O290 O 0.78810 0.66410 0.25050
 O291 O 0.67449 0.70829 0.25320
 O292 O 0.66461 0.75268 0.21921
 O293 O 0.71053 0.74706 0.33198
 O294 O 0.74667 0.78313 0.34217
 O295 O 0.75140 0.79533 0.17458
 O296 O 0.71837 0.75228 0.16552
 O297 O 0.83163 0.75393 0.21071
 O298 O 0.83929 0.71716 0.25276
 O299 O 0.79408 0.83112 0.25506
 O300 O 0.74931 0.83948 0.28814
 Zr301 Zr 0.75288 0.80631 0.25316
 O302 O 0.72481 0.77918 0.28117
 Zr303 Zr 0.80740 0.75353 0.25228
 O304 O 0.78163 0.72411 0.28038
 Zr305 Zr 0.75368 0.75365 0.19848
 O306 O 0.72562 0.72417 0.22417
 Zr307 Zr 0.75174 0.74975 0.30763
 O308 O 0.78033 0.77969 0.28251
 Zr309 Zr 0.69819 0.74998 0.25394
 O310 O 0.72371 0.77973 0.22562
 Zr311 Zr 0.75275 0.69702 0.25311
 O312 O 0.78116 0.72409 0.22466
 O313 O 0.78163 0.78198 0.22440
 O314 O 0.72367 0.72114 0.28197
 C315 C 0.75043 0.82307 0.18403
 C316 C 0.82216 0.82278 0.25652
 C317 C 0.82289 0.75380 0.18271
 C318 C 0.75261 0.68042 0.32228
 C319 C 0.68256 0.74665 0.32318
 C320 C 0.68357 0.68047 0.25287
 H321 H 0.71220 0.79249 0.29436
 H322 H 0.71320 0.71164 0.21008
 H323 H 0.79450 0.79560 0.21176
 H324 H 0.79556 0.71168 0.29308
 H325 H 0.80130 0.76675 0.33493
 H326 H 0.83570 0.74405 0.30324
 H327 H 0.66881 0.73631 0.20424
 H328 H 0.70218 0.76630 0.17279
 H329 H 0.75940 0.80071 0.33609
 H330 H 0.76712 0.83687 0.30184
 H331 H 0.73932 0.66842 0.20295
 H332 H 0.76789 0.70314 0.17184
 H333 H 0.70111 0.83144 0.24063
 H334 H 0.66813 0.79866 0.26953
 H335 H 0.83343 0.70306 0.23609
 H336 H 0.80267 0.66821 0.26729
 O337 O 0.75038 0.16806 0.79079
 O338 O 0.71590 0.15959 0.74902
 O339 O 0.82903 0.20519 0.74622
 O340 O 0.83762 0.24837 0.71408
 O341 O 0.79334 0.24806 0.82745
 O342 O 0.75068 0.28071 0.83716
 O343 O 0.74772 0.29015 0.67050
 O344 O 0.78236 0.24664 0.66026
 O345 O 0.67038 0.24858 0.70792
 O346 O 0.66155 0.21377 0.75148
 O347 O 0.70764 0.32631 0.74823
 O348 O 0.75149 0.33552 0.78327
 O349 O 0.74862 0.32681 0.70730
 O350 O 0.78376 0.33570 0.75070
 O351 O 0.67075 0.28966 0.74863
 O352 O 0.66216 0.24609 0.78403
 O353 O 0.70652 0.24916 0.67060
 O354 O 0.75006 0.21419 0.66063
 O355 O 0.75066 0.20449 0.82794
 O356 O 0.71689 0.24680 0.83708
 O357 O 0.82990 0.24785 0.79043
 O358 O 0.83783 0.28170 0.74813
 O359 O 0.79230 0.16828 0.74630
 O360 O 0.74879 0.15982 0.71440
 Zr361 Zr 0.75101 0.19279 0.74959
 O362 O 0.72196 0.21910 0.72168
 Zr363 Zr 0.80471 0.24655 0.74934
 O364 O 0.77812 0.27518 0.72127
 Zr365 Zr 0.75166 0.24603 0.80360
 O366 O 0.72276 0.27485 0.77804
 Zr367 Zr 0.74830 0.24862 0.69453
 O368 O 0.77760 0.21974 0.71994
 Zr369 Zr 0.69534 0.24831 0.74893
 O370 O 0.72175 0.21921 0.77714
 Zr371 Zr 0.74910 0.30201 0.74849
 O372 O 0.77830 0.27585 0.77684
 O373 O 0.77984 0.21787 0.77778
 O374 O 0.72002 0.27710 0.72012
 C375 C 0.75004 0.17660 0.81883
 C376 C 0.82021 0.17725 0.74487
 C377 C 0.82125 0.24872 0.81843
 C378 C 0.74800 0.31805 0.67937
 C379 C 0.67871 0.24904 0.67987
 C380 C 0.67965 0.31758 0.74812
 H381 H 0.70917 0.20531 0.70918
 H382 H 0.71033 0.28740 0.79207
 H383 H 0.79323 0.20474 0.79042
 H384 H 0.79183 0.28784 0.70858
 H385 H 0.79726 0.26316 0.66430
 H386 H 0.82994 0.23506 0.69749
 H387 H 0.66638 0.26281 0.79863
 H388 H 0.70066 0.23278 0.82986
 H389 H 0.73326 0.19961 0.66463
 H390 H 0.76215 0.16731 0.69778
 H391 H 0.73474 0.33156 0.79789
 H392 H 0.76392 0.29738 0.82954
 H393 H 0.70000 0.16677 0.76340
 H394 H 0.66579 0.19873 0.73518
 H395 H 0.83077 0.29769 0.76246
 H396 H 0.79858 0.33148 0.73420
 O397 O 0.25206 0.82995 0.79218
 O398 O 0.28414 0.83818 0.74908
 O399 O 0.17108 0.79204 0.74865
 O400 O 0.15959 0.75171 0.72006
 O401 O 0.20832 0.75160 0.83060
 O402 O 0.25046 0.71732 0.83925
 O403 O 0.25067 0.70639 0.67264
 O404 O 0.21465 0.74718 0.66451
 O405 O 0.32916 0.74857 0.70836
 O406 O 0.33886 0.78351 0.75117
 O407 O 0.29218 0.67107 0.75059
 O408 O 0.24929 0.66216 0.78602
 O409 O 0.25084 0.67051 0.71022
 O410 O 0.21598 0.66228 0.75437
 O411 O 0.32923 0.70754 0.74929
 O412 O 0.33852 0.75177 0.78456
 O413 O 0.29209 0.74680 0.67191
 O414 O 0.25514 0.78141 0.66173
 O415 O 0.25256 0.79363 0.82940
 O416 O 0.28483 0.75074 0.83874
 O417 O 0.17154 0.75111 0.79375
 O418 O 0.16431 0.71428 0.75175
 O419 O 0.20744 0.82923 0.75013
 O420 O 0.25145 0.83787 0.71589
 Zr421 Zr 0.24919 0.80488 0.75113
 O422 O 0.27751 0.77802 0.72297
 Zr423 Zr 0.19568 0.75113 0.75222
 O424 O 0.22158 0.72212 0.72392
 Zr425 Zr 0.24962 0.75200 0.80569
 O426 O 0.27800 0.72296 0.77985
 Zr427 Zr 0.25095 0.74814 0.69647
 O428 O 0.22211 0.77772 0.72185
 Zr429 Zr 0.30488 0.74909 0.74986
 O430 O 0.27900 0.77851 0.77829
 Zr431 Zr 0.25092 0.69560 0.75115
 O432 O 0.22234 0.72211 0.77976
 O433 O 0.22109 0.78002 0.78010
 O434 O 0.27954 0.71996 0.72199
 C435 C 0.25358 0.82143 0.82020
 C436 C 0.17957 0.82006 0.74855
 C437 C 0.18031 0.75115 0.82172
 C438 C 0.25080 0.67866 0.68211
 C439 C 0.32011 0.74746 0.68052
 C440 C 0.32019 0.67965 0.74950
 H441 H 0.28983 0.79160 0.70978
 H442 H 0.29071 0.71053 0.79375
 H443 H 0.20828 0.79349 0.79297
 H444 H 0.20772 0.70946 0.71135
 H445 H 0.20103 0.76454 0.66950
 H446 H 0.16714 0.74147 0.70143
 H447 H 0.33541 0.73438 0.79863
 H448 H 0.30154 0.76379 0.83085
 H449 H 0.24292 0.79916 0.66833
 H450 H 0.23332 0.83493 0.70268
 H451 H 0.26544 0.66705 0.80105
 H452 H 0.23606 0.70130 0.83231
 H453 H 0.30080 0.83090 0.76253
 H454 H 0.33403 0.79851 0.73500
 H455 H 0.17024 0.70036 0.76855
 H456 H 0.20133 0.66593 0.73756
 O457 O 0.24524 0.32464 0.70284
 O458 O 0.21278 0.33347 0.74538
 O459 O 0.32671 0.28933 0.74638
 O460 O 0.33846 0.25009 0.77653
 O461 O 0.28961 0.24484 0.66597
 O462 O 0.24723 0.21147 0.65784
 O463 O 0.24839 0.20440 0.82474
 O464 O 0.28368 0.24575 0.83204
 O465 O 0.16923 0.24338 0.78845
 O466 O 0.15897 0.27833 0.74532
 O467 O 0.20681 0.16627 0.74732
 O468 O 0.25048 0.15746 0.71244
 O469 O 0.24789 0.16720 0.78845
 O470 O 0.28314 0.15830 0.74480
 O471 O 0.16966 0.20265 0.74725
 O472 O 0.15945 0.24622 0.71239
 O473 O 0.20644 0.24342 0.82480
 O474 O 0.24258 0.27946 0.83394
 O475 O 0.24572 0.28792 0.66602
 O476 O 0.21293 0.24472 0.65806
 O477 O 0.32650 0.24596 0.70268
 O478 O 0.33458 0.21158 0.74589
 O479 O 0.28932 0.32547 0.74494
 O480 O 0.24516 0.33450 0.77857
 Zr481 Zr 0.24815 0.30059 0.74425
 O482 O 0.22026 0.27418 0.77311
 Zr483 Zr 0.30255 0.24780 0.74425
 O484 O 0.27702 0.21905 0.77321
 Zr485 Zr 0.24841 0.24670 0.69082
 O486 O 0.22054 0.21784 0.71744
 Zr487 Zr 0.24739 0.24538 0.80005
 O488 O 0.27578 0.27470 0.77403
 Zr489 Zr 0.19337 0.24435 0.74684
 O490 O 0.21870 0.27338 0.71764
 Zr491 Zr 0.24789 0.19137 0.74680
 O492 O 0.27603 0.21776 0.71755
 O493 O 0.27670 0.27561 0.71571
 O494 O 0.21907 0.21618 0.77534
 C495 C 0.24425 0.31583 0.67493
 C496 C 0.31740 0.31713 0.74640
 C497 C 0.31760 0.24434 0.67481
 C498 C 0.24815 0.17639 0.81628
 C499 C 0.17840 0.24283 0.81628
 C500 C 0.17876 0.17483 0.74745
 H501 H 0.20778 0.28783 0.78607
 H502 H 0.20801 0.20499 0.70374
 H503 H 0.28949 0.28873 0.70247
 H504 H 0.29104 0.20690 0.78610
 H505 H 0.29704 0.26320 0.82668
 H506 H 0.33119 0.23987 0.79528
 H507 H 0.16357 0.22954 0.69772
 H508 H 0.19663 0.25860 0.66534
 H509 H 0.25494 0.29706 0.82719
 H510 H 0.26319 0.33220 0.79202
 H511 H 0.23378 0.16128 0.69769
 H512 H 0.26115 0.19527 0.66526
 H513 H 0.19611 0.32546 0.73234
 H514 H 0.16328 0.29325 0.76172
 H515 H 0.32824 0.19650 0.73028
 H516 H 0.29764 0.16256 0.76161
 O517 O 0.75026 0.66844 0.71221
 O518 O 0.78584 0.66219 0.75534
 O519 O 0.66951 0.70292 0.75639
 O520 O 0.65631 0.74252 0.78531
 O521 O 0.70719 0.74840 0.67617
 O522 O 0.74929 0.78272 0.66937
 O523 O 0.74611 0.78746 0.83641
 O524 O 0.71096 0.74628 0.84274
 O525 O 0.82566 0.74613 0.80009
 O526 O 0.83362 0.71182 0.75265
 O527 O 0.78903 0.82593 0.76074
 O528 O 0.74648 0.83568 0.72469
 O529 O 0.74601 0.82459 0.80007
 O530 O 0.71282 0.83428 0.75564
 O531 O 0.82611 0.78949 0.76085
 O532 O 0.83890 0.74995 0.72714
 O533 O 0.78857 0.74662 0.83649
 O534 O 0.74688 0.71158 0.84471
 O535 O 0.75104 0.70611 0.67636
 O536 O 0.78370 0.74940 0.66931
 O537 O 0.66946 0.74618 0.71190
 O538 O 0.66116 0.78132 0.75486
 O539 O 0.70686 0.66660 0.75453
 O540 O 0.74629 0.65845 0.78900
 Zr541 Zr 0.74757 0.69201 0.75419
 O542 O 0.77495 0.71797 0.78404
 Zr543 Zr 0.69302 0.74491 0.75396
 O544 O 0.71824 0.77307 0.78392
 Zr545 Zr 0.74790 0.74683 0.70161
 O546 O 0.77550 0.77505 0.72903
 Zr547 Zr 0.74753 0.74653 0.81118
 O548 O 0.71970 0.71800 0.78368
 Zr549 Zr 0.80208 0.74804 0.75839
 O550 O 0.77718 0.71967 0.72824
 Zr551 Zr 0.74784 0.80103 0.75837
 O552 O 0.71992 0.77536 0.72823
 O553 O 0.71938 0.71750 0.72568
 O554 O 0.77628 0.77590 0.78719
 C555 C 0.75197 0.67798 0.68454
 C556 C 0.67882 0.67507 0.75634
 C557 C 0.67901 0.74802 0.68423
 C558 C 0.74543 0.81549 0.82786
 C559 C 0.81662 0.74590 0.82790
 C560 C 0.81707 0.81733 0.76161
 H561 H 0.78753 0.70392 0.79643
 H562 H 0.78838 0.78809 0.71587
 H563 H 0.70675 0.70438 0.71225
 H564 H 0.70397 0.78509 0.79663
 H565 H 0.69601 0.73095 0.83537
 H566 H 0.66262 0.75368 0.80390
 H567 H 0.83207 0.76215 0.70942
 H568 H 0.79994 0.73541 0.67656
 H569 H 0.76223 0.69602 0.83905
 H570 H 0.73272 0.66636 0.80525
 H571 H 0.76336 0.83190 0.71016
 H572 H 0.73506 0.79862 0.67683
 H573 H 0.77920 0.64148 0.74894
 H574 H 0.83226 0.69854 0.77087
 H575 H 0.66739 0.79596 0.73881
 H576 H 0.69726 0.82921 0.77121
 O577 O 0.25132 0.67480 0.29455
 O578 O 0.21949 0.66434 0.25179
 O579 O 0.33129 0.71269 0.25027
 O580 O 0.34288 0.75256 0.22170
 O581 O 0.29237 0.75620 0.33089
 O582 O 0.24922 0.78837 0.33852
 O583 O 0.25013 0.79363 0.17121
 O584 O 0.28680 0.75445 0.16398
 O585 O 0.17298 0.75146 0.20790
 O586 O 0.16350 0.71790 0.25232
 O587 O 0.20778 0.83107 0.24730
 O588 O 0.25035 0.84234 0.28255
 O589 O 0.24936 0.83116 0.20716
 O590 O 0.28391 0.84155 0.25125
 O591 O 0.17152 0.79380 0.24738
 O592 O 0.16270 0.75110 0.28382
 O593 O 0.20997 0.75212 0.17137
 O594 O 0.25290 0.71731 0.16350
 O595 O 0.24967 0.71197 0.33090
 O596 O 0.21570 0.75439 0.33813
 O597 O 0.32980 0.75582 0.29479
 O598 O 0.33628 0.79119 0.25154
 O599 O 0.29542 0.67499 0.25157
 O600 O 0.25317 0.66490 0.21837
 Zr601 Zr 0.25353 0.69861 0.25292
 O602 O 0.22462 0.72359 0.22378
 Zr603 Zr 0.30605 0.75341 0.25297
 O604 O 0.27970 0.78053 0.22313
 Zr605 Zr 0.25151 0.75298 0.30577
 O606 O 0.22294 0.78069 0.27865
 Zr607 Zr 0.25102 0.75285 0.19640
 O608 O 0.28036 0.72540 0.22329
 Zr609 Zr 0.19677 0.75293 0.24955
 O610 O 0.22295 0.72499 0.27905
 Zr611 Zr 0.24958 0.80751 0.24903
 O612 O 0.27828 0.78266 0.27906
 O613 O 0.28104 0.72481 0.28145
 O614 O 0.22166 0.78140 0.22065
 C615 C 0.24938 0.68392 0.32232
 C616 C 0.32310 0.68455 0.24984
 C617 C 0.32046 0.75731 0.32252
 C618 C 0.24953 0.82174 0.17942
 C619 C 0.18198 0.75152 0.18005
 C620 C 0.17997 0.82184 0.24654
 H621 H 0.21231 0.70921 0.21149
 H622 H 0.20992 0.79340 0.29200
 H623 H 0.29420 0.71209 0.29475
 H624 H 0.29334 0.79299 0.21016
 H625 H 0.30272 0.74000 0.17107
 H626 H 0.33578 0.76260 0.20276
 H627 H 0.16597 0.76853 0.29782
 H628 H 0.19979 0.74009 0.33077
 H629 H 0.23669 0.70230 0.16823
 H630 H 0.26710 0.67221 0.20213
 H631 H 0.23403 0.83787 0.29752
 H632 H 0.26222 0.80515 0.33074
 H633 H 0.20251 0.67171 0.26478
 H634 H 0.16820 0.70262 0.23637
 H635 H 0.32983 0.80547 0.26783
 H636 H 0.29854 0.83776 0.23447
 O637 O 0.75403 0.33174 0.29209
 O638 O 0.78630 0.34079 0.24886
 O639 O 0.67255 0.29621 0.24825
 O640 O 0.66048 0.25715 0.21806
 O641 O 0.70994 0.25126 0.32813
 O642 O 0.75244 0.21777 0.33552
 O643 O 0.74858 0.21249 0.16838
 O644 O 0.71491 0.25556 0.16205
 O645 O 0.82979 0.25145 0.20514
 O646 O 0.83987 0.28629 0.24839
 O647 O 0.79262 0.17426 0.24441
 O648 O 0.75009 0.16419 0.28017
 O649 O 0.74981 0.17537 0.20472
 O650 O 0.71637 0.16565 0.24933
 O651 O 0.82989 0.21053 0.24536
 O652 O 0.83966 0.25377 0.28116
 O653 O 0.79248 0.25048 0.16892
 O654 O 0.75706 0.28703 0.15962
 O655 O 0.75385 0.29424 0.32812
 O656 O 0.78658 0.25115 0.33565
 O657 O 0.67291 0.25273 0.29159
 O658 O 0.66467 0.21870 0.24790
 O659 O 0.70935 0.33293 0.25040
 O660 O 0.75266 0.34260 0.21648
 Zr661 Zr 0.75073 0.30812 0.25028
 O662 O 0.77852 0.28202 0.22085
 Zr663 Zr 0.69672 0.25491 0.24996
 O664 O 0.72206 0.22664 0.22054
 Zr665 Zr 0.75102 0.25341 0.30302
 O666 O 0.77891 0.22506 0.27596
 Zr667 Zr 0.75146 0.25325 0.19365
 O668 O 0.72320 0.28225 0.22030
 Zr669 Zr 0.80573 0.25204 0.24669
 O670 O 0.78042 0.28062 0.27636
 Zr671 Zr 0.75140 0.19889 0.24654
 O672 O 0.72330 0.22468 0.27623
 O673 O 0.72252 0.28256 0.27867
 O674 O 0.77995 0.22398 0.21802
 C675 C 0.75526 0.32231 0.31981
 C676 C 0.68139 0.32411 0.24881
 C677 C 0.68190 0.25091 0.31941
 C678 C 0.74839 0.18447 0.17693
 C679 C 0.82056 0.25022 0.17739
 C680 C 0.82070 0.18275 0.24418
 H681 H 0.79092 0.29578 0.20793
 H682 H 0.79163 0.21208 0.28935
 H683 H 0.70978 0.29547 0.29216
 H684 H 0.70773 0.21465 0.20782
 H685 H 0.70241 0.27357 0.16767
 H686 H 0.66827 0.24869 0.19865
 H687 H 0.83610 0.23649 0.29525
 H688 H 0.80294 0.26495 0.32836
 H689 H 0.74771 0.30585 0.16773
 H690 H 0.73483 0.33972 0.20285
 H691 H 0.76682 0.16811 0.29485
 H692 H 0.73870 0.20153 0.32782
 H693 H 0.80280 0.33297 0.26221
 H694 H 0.83554 0.30119 0.23199
 H695 H 0.67067 0.20373 0.26374
 H696 H 0.70125 0.17016 0.23314
 C697 C 0.26128 0.12120 0.10898
 C698 C 0.27368 0.13277 0.08202
 C699 C 0.27422 0.11497 0.05563
 C700 C 0.26211 0.08499 0.05542
 C701 C 0.25119 0.07303 0.08338
 C702 C 0.25055 0.09111 0.10980
 C703 C 0.25836 0.14110 0.13501
 C704 C 0.25594 0.15923 0.15561
 H705 H 0.28250 0.15589 0.08122
 H706 H 0.28458 0.12486 0.03551
 H707 H 0.24119 0.05047 0.08466
 H708 H 0.24086 0.08190 0.13061
 C709 C 0.76007 0.61813 0.61371
 C710 C 0.74282 0.59126 0.61175
 C711 C 0.74370 0.57354 0.58517
 C712 C 0.76171 0.58264 0.56016
 C713 C 0.77972 0.60913 0.56277
 C714 C 0.77886 0.62674 0.58935
 C715 C 0.75722 0.63799 0.63975
 C716 C 0.75477 0.65571 0.66069
 H717 H 0.72809 0.58444 0.63042
 H718 H 0.72937 0.55341 0.58369
 H719 H 0.79409 0.61649 0.54404
 H720 H 0.79233 0.64748 0.59061
 C721 C 0.74716 0.89423 0.12420
 C722 C 0.76249 0.89477 0.09620
 C723 C 0.76186 0.92109 0.07799
 C724 C 0.74607 0.94760 0.08767
 C725 C 0.73037 0.94619 0.11590
 C726 C 0.73100 0.91992 0.13384
 C727 C 0.74851 0.86794 0.14387
 C728 C 0.74936 0.84693 0.16163
 H729 H 0.77532 0.87501 0.08863
 H730 H 0.77506 0.92080 0.05714
 H731 H 0.71653 0.96500 0.12399
 H732 H 0.71880 0.91968 0.15537
 C733 C 0.23714 0.38667 0.61506
 C734 C 0.25461 0.38885 0.58839
 C735 C 0.25447 0.41588 0.57132
 C736 C 0.23701 0.44111 0.58091
 C737 C 0.21875 0.43830 0.60717
 C738 C 0.21885 0.41128 0.62411
 C739 C 0.23954 0.36030 0.63455
 C740 C 0.24170 0.33932 0.65225
 H741 H 0.26900 0.37002 0.58127
 H742 H 0.26898 0.41750 0.55137
 H743 H 0.20480 0.45721 0.61489
 H744 H 0.20526 0.40987 0.64474
 C745 C 0.74760 0.10639 0.87998
 C746 C 0.72606 0.08341 0.87460
 C747 C 0.72544 0.05741 0.89299
 C748 C 0.74643 0.05388 0.91709
 C749 C 0.76769 0.07733 0.92277
 C750 C 0.76833 0.10342 0.90422
 C751 C 0.74888 0.13222 0.85965
 C752 C 0.74950 0.15296 0.84153
 H753 H 0.70990 0.08544 0.85595
 H754 H 0.70847 0.03998 0.88837
 H755 H 0.78425 0.07516 0.94104
 H756 H 0.78520 0.12102 0.90851
 C757 C 0.24105 0.61439 0.38357
 C758 C 0.22181 0.59027 0.37518
 C759 C 0.22082 0.56369 0.39276
 C760 C 0.23913 0.56085 0.41901
 C761 C 0.25748 0.58567 0.42802
 C762 C 0.25852 0.61227 0.41030
 C763 C 0.24421 0.64019 0.36345
 C764 C 0.24675 0.66074 0.34531
 H765 H 0.20818 0.59166 0.35456
 H766 H 0.20622 0.54508 0.38549
 H767 H 0.27202 0.58398 0.44797
 H768 H 0.27358 0.63076 0.41694
 C769 C 0.26161 0.88330 0.88931
 C770 C 0.24429 0.91016 0.89065
 C771 C 0.24487 0.92830 0.91697
 C772 C 0.26263 0.91963 0.94233
 C773 C 0.28079 0.89320 0.94030
 C774 C 0.28024 0.87518 0.91399
 C775 C 0.25882 0.86284 0.86371
 C776 C 0.25638 0.84453 0.84328
 H777 H 0.22968 0.91660 0.87174
 H778 H 0.23044 0.94837 0.91800
 H779 H 0.29496 0.88615 0.95932
 H780 H 0.29374 0.85445 0.91321
 C781 C 0.76307 0.38269 0.39018
 C782 C 0.78156 0.37428 0.41486
 C783 C 0.78196 0.39202 0.44136
 C784 C 0.76379 0.41843 0.44354
 C785 C 0.74618 0.42738 0.41819
 C786 C 0.74575 0.40953 0.39168
 C787 C 0.76045 0.36258 0.36433
 C788 C 0.75807 0.34469 0.34354
 H789 H 0.79507 0.35356 0.41394
 H790 H 0.79602 0.38478 0.46039
 H791 H 0.73174 0.44744 0.41935
 H792 H 0.73126 0.41618 0.37275
 C793 C 0.12051 0.25890 0.10624
 C794 C 0.13247 0.26952 0.07869
 C795 C 0.11476 0.26899 0.05217
 C796 C 0.08447 0.25759 0.05247
 C797 C 0.07227 0.24831 0.08094
 C798 C 0.09022 0.24878 0.10745
 C799 C 0.14012 0.25716 0.13265
 C800 C 0.15787 0.25557 0.15370
 H801 H 0.15579 0.27784 0.07755
 H802 H 0.12497 0.27809 0.03163
 H803 H 0.04953 0.23874 0.08271
 H804 H 0.08072 0.24041 0.12869
 C805 C 0.61980 0.74762 0.61241
 C806 C 0.59686 0.76949 0.60795
 C807 C 0.57933 0.76915 0.58116
 C808 C 0.58477 0.74702 0.55850
 C809 C 0.60754 0.72491 0.56350
 C810 C 0.62491 0.72524 0.59022
 C811 C 0.63922 0.74857 0.63893
 C812 C 0.65675 0.74865 0.66019
 H813 H 0.59282 0.78702 0.62493
 H814 H 0.56211 0.78659 0.57781
 H815 H 0.61193 0.70733 0.54667
 H816 H 0.64260 0.70821 0.59342
 C817 C 0.10944 0.75470 0.88199
 C818 C 0.10891 0.73885 0.90974
 C819 C 0.08241 0.73882 0.92765
 C820 C 0.05607 0.75451 0.91790
 C821 C 0.05714 0.77106 0.89041
 C822 C 0.08363 0.77111 0.87260
 C823 C 0.13570 0.75309 0.86223
 C824 C 0.15670 0.75194 0.84443
 H825 H 0.12871 0.72599 0.91719
 H826 H 0.08215 0.72568 0.94858
 H827 H 0.03738 0.78370 0.88253
 H828 H 0.08380 0.78352 0.85120
 C829 C 0.61136 0.24477 0.37982
 C830 C 0.58561 0.22843 0.37016
 C831 C 0.55896 0.22853 0.38771
 C832 C 0.55768 0.24506 0.41521
 C833 C 0.58399 0.26060 0.42529
 C834 C 0.61065 0.26053 0.40762
 C835 C 0.63758 0.24683 0.36007
 C836 C 0.65847 0.24870 0.34222
 H837 H 0.58589 0.21616 0.34867
 H838 H 0.53920 0.21603 0.37958
 H839 H 0.58357 0.27375 0.44623
 H840 H 0.63040 0.27339 0.41525
 C841 C 0.89268 0.76036 0.12156
 C842 C 0.91921 0.77449 0.13223
 C843 C 0.94536 0.77546 0.11408
 C844 C 0.94573 0.76207 0.08469
 C845 C 0.91811 0.74931 0.07362
 C846 C 0.89195 0.74828 0.09202
 C847 C 0.86689 0.75742 0.14172
 C848 C 0.84631 0.75536 0.15989
 H849 H 0.91986 0.78441 0.15489
 H850 H 0.96512 0.78718 0.12323
 H851 H 0.91698 0.73822 0.05158
 H852 H 0.87145 0.73729 0.08352
 C853 C 0.38778 0.23776 0.61415
 C854 C 0.41214 0.21864 0.62212
 C855 C 0.43888 0.21855 0.60471
 C856 C 0.44162 0.23768 0.57907
 C857 C 0.41659 0.25599 0.57054
 C858 C 0.38985 0.25608 0.58806
 C859 C 0.36178 0.24005 0.63411
 C860 C 0.34102 0.24208 0.65206
 H861 H 0.41079 0.20437 0.64229
 H862 H 0.45764 0.20397 0.61160
 H863 H 0.41818 0.27117 0.55110
 H864 H 0.37120 0.27110 0.58179
 C865 C 0.88134 0.24862 0.88945
 C866 C 0.87120 0.23270 0.91508
 C867 C 0.88870 0.23220 0.94166
 C868 C 0.91702 0.24778 0.94347
 C869 C 0.92724 0.26333 0.91702
 C870 C 0.90945 0.26384 0.89037
 C871 C 0.86207 0.24956 0.86281
 C872 C 0.84423 0.24954 0.84180
 H873 H 0.84961 0.22055 0.91454
 H874 H 0.88022 0.21850 0.96037
 H875 H 0.94820 0.27641 0.91701
 H876 H 0.91744 0.27644 0.87065
 C877 C 0.38224 0.76425 0.39190
 C878 C 0.40832 0.74575 0.39306
 C879 C 0.42680 0.74568 0.41915
 C880 C 0.41925 0.76399 0.44444
 C881 C 0.39369 0.78340 0.44254
 C882 C 0.37531 0.78348 0.41644
 C883 C 0.36137 0.76205 0.36658
 C884 C 0.34305 0.75992 0.34612
 H885 H 0.41382 0.73069 0.37423
 H886 H 0.44614 0.73027 0.42010
 H887 H 0.38754 0.79798 0.46153
 H888 H 0.35520 0.79791 0.41577
 C889 C 0.12139 0.10998 0.25058
 C890 C 0.13145 0.08434 0.23463
 C891 C 0.11380 0.05785 0.23395
 C892 C 0.08541 0.05616 0.24939
 C893 C 0.07536 0.08259 0.26510
 C894 C 0.09328 0.10915 0.26576
 C895 C 0.14062 0.13666 0.25140
 C896 C 0.15826 0.15783 0.25124
 H897 H 0.15304 0.08482 0.22250
 H898 H 0.12220 0.03917 0.22016
 H899 H 0.05437 0.08269 0.27810
 H900 H 0.08536 0.12889 0.27838
 C901 C 0.61778 0.60505 0.76191
 C902 C 0.59067 0.60464 0.74492
 C903 C 0.57236 0.57846 0.74458
 C904 C 0.58108 0.55232 0.76112
 C905 C 0.60780 0.55336 0.77897
 C906 C 0.62603 0.57956 0.77932
 C907 C 0.63822 0.63070 0.76005
 C908 C 0.65629 0.65140 0.75831
 H909 H 0.58416 0.62421 0.73126
 H910 H 0.55209 0.57818 0.73037
 H911 H 0.61488 0.53371 0.79220
 H912 H 0.64696 0.57965 0.79257
 C913 C 0.88951 0.11568 0.73596
 C914 C 0.91600 0.12591 0.72147
 C915 C 0.94214 0.10768 0.72097
 C916 C 0.94253 0.07868 0.73521
 C917 C 0.91491 0.06798 0.74821
 C918 C 0.88877 0.08646 0.74878
 C919 C 0.86393 0.13614 0.73905
 C920 C 0.84351 0.15442 0.74177
 H921 H 0.91668 0.14834 0.71105
 H922 H 0.96191 0.11649 0.70904
 H923 H 0.91377 0.04627 0.75994
 H924 H 0.86833 0.07832 0.76011
 C925 C 0.39286 0.62349 0.24202
 C926 C 0.41715 0.63087 0.22262
 C927 C 0.44316 0.61240 0.22173
 C928 C 0.44519 0.58629 0.24031
 C929 C 0.42020 0.57842 0.25893
 C930 C 0.39420 0.59699 0.25982
 C931 C 0.36745 0.64411 0.24485
 C932 C 0.34686 0.66220 0.24727
 H933 H 0.41631 0.65132 0.20872
 H934 H 0.46192 0.61881 0.20693
 H935 H 0.42128 0.55865 0.27373
 H936 H 0.37555 0.59113 0.27499
 C937 C 0.10682 0.87800 0.74878
 C938 C 0.10443 0.90499 0.73193
 C939 C 0.07739 0.92214 0.73272
 C940 C 0.05200 0.91248 0.75035
 C941 C 0.05515 0.88512 0.76727
 C942 C 0.08216 0.86822 0.76644
 C943 C 0.13404 0.85954 0.74773
 C944 C 0.15564 0.84243 0.74769
 H945 H 0.12332 0.91262 0.71788
 H946 H 0.07630 0.94218 0.71837
 H947 H 0.03729 0.87708 0.78233
 H948 H 0.08382 0.84743 0.77977
 C949 C 0.61027 0.38387 0.25002
 C950 C 0.60588 0.40704 0.22843
 C951 C 0.57905 0.42447 0.22888
 C952 C 0.55630 0.41870 0.25084
 C953 C 0.56118 0.39563 0.27261
 C954 C 0.58795 0.37835 0.27217
 C955 C 0.63677 0.36450 0.24887
 C956 C 0.65785 0.34683 0.24855
 H957 H 0.62295 0.41133 0.21104
 H958 H 0.57577 0.44194 0.21169
 H959 H 0.54426 0.39100 0.29006
 H960 H 0.59110 0.36043 0.28894
 C961 C 0.88090 0.89486 0.25623
 C962 C 0.87029 0.92009 0.23998
 C963 C 0.88770 0.94667 0.23840
 C964 C 0.91640 0.94890 0.25322
 C965 C 0.92697 0.92291 0.26934
 C966 C 0.90928 0.89623 0.27089
 C967 C 0.86202 0.86797 0.25763
 C968 C 0.84458 0.84665 0.25766
 H969 H 0.84848 0.91916 0.22823
 H970 H 0.87887 0.96495 0.22433
 H971 H 0.94823 0.92325 0.28192
 H972 H 0.91764 0.87680 0.28372
 C973 C 0.37736 0.38828 0.74733
 C974 C 0.40091 0.39156 0.76878
 C975 C 0.41883 0.41809 0.76903
 C976 C 0.41318 0.44165 0.74793
 C977 C 0.38977 0.43785 0.72622
 C978 C 0.37201 0.41139 0.72597
 C979 C 0.35762 0.36200 0.74769
 C980 C 0.33987 0.34095 0.74736
 H981 H 0.40514 0.37385 0.78552
 H982 H 0.43656 0.42051 0.78612
 H983 H 0.38521 0.45539 0.70940
 H984 H 0.35385 0.40910 0.70927
 C985 C 0.11833 0.23804 0.88705
 C986 C 0.09103 0.25469 0.88783
 C987 C 0.07349 0.25540 0.91450
 C988 C 0.08321 0.23961 0.94074
 C989 C 0.11012 0.22209 0.93937
 C990 C 0.12756 0.22136 0.91269
 C991 C 0.13809 0.23963 0.86088
 C992 C 0.15586 0.24114 0.83994
 H993 H 0.08377 0.26780 0.86814
 H994 H 0.05300 0.26927 0.91503
 H995 H 0.11792 0.20939 0.95909
 H996 H 0.14865 0.20839 0.91231
 C997 C 0.62076 0.73926 0.39236
 C998 C 0.62799 0.71971 0.41658
 C999 C 0.60973 0.71920 0.44273
 C1000 C 0.58400 0.73832 0.44503
 C1001 C 0.57623 0.75705 0.42009
 C1002 C 0.59458 0.75756 0.39395
 C1003 C 0.64141 0.74188 0.36693
 C1004 C 0.65970 0.74417 0.34649
 H1005 H 0.64819 0.70543 0.41558
 H1006 H 0.61606 0.70430 0.46142
 H1007 H 0.55676 0.77225 0.42135
 H1008 H 0.58885 0.77288 0.37538
 C1009 C 0.88834 0.74002 0.88671
 C1010 C 0.91503 0.72805 0.87401
 C1011 C 0.94226 0.72807 0.89062
 C1012 C 0.94351 0.74026 0.92049
 C1013 C 0.91586 0.75102 0.93346
 C1014 C 0.88865 0.75106 0.91662
 C1015 C 0.86134 0.74230 0.86807
 C1016 C 0.84006 0.74416 0.85070
 H1017 H 0.91494 0.71908 0.85094
 H1018 H 0.96210 0.71797 0.87992
 H1019 H 0.91532 0.76134 0.95589
 H1020 H 0.86809 0.76053 0.92663
 C1021 C 0.39080 0.26113 0.37947
 C1022 C 0.39178 0.24396 0.40638
 C1023 C 0.41838 0.24353 0.42413
 C1024 C 0.44438 0.26016 0.41507
 C1025 C 0.44284 0.27808 0.38847
 C1026 C 0.41622 0.27852 0.37080
 C1027 C 0.36463 0.25944 0.35959
 C1028 C 0.34366 0.25783 0.34180
 H1029 H 0.37231 0.23028 0.41321
 H1030 H 0.41900 0.22924 0.44429
 H1031 H 0.46235 0.29139 0.38112
 H1032 H 0.41571 0.29189 0.34999
 C1033 C 0.11203 0.75314 0.11897
 C1034 C 0.09047 0.77629 0.12326
 C1035 C 0.06382 0.77675 0.10583
 C1036 C 0.05832 0.75401 0.08385
 C1037 C 0.08047 0.73124 0.07902
 C1038 C 0.10719 0.73075 0.09663
 C1039 C 0.13803 0.75175 0.13896
 C1040 C 0.15871 0.75132 0.15709
 H1041 H 0.09400 0.79369 0.14050
 H1042 H 0.04730 0.79477 0.10969
 H1043 H 0.07666 0.71337 0.06234
 H1044 H 0.12372 0.71264 0.09328
 C1045 C 0.60804 0.24787 0.61927
 C1046 C 0.60431 0.26953 0.59604
 C1047 C 0.57801 0.26907 0.57775
 C1048 C 0.55514 0.24703 0.58272
 C1049 C 0.55944 0.22509 0.60577
 C1050 C 0.58566 0.22555 0.62390
 C1051 C 0.63403 0.24893 0.63939
 C1052 C 0.65492 0.24921 0.65735
 H1053 H 0.62146 0.28700 0.59236
 H1054 H 0.57519 0.28636 0.56030
 H1055 H 0.54243 0.20757 0.60981
 H1056 H 0.58832 0.20867 0.64179
 C1057 C 0.88224 0.24162 0.10835
 C1058 C 0.87470 0.22176 0.08449
 C1059 C 0.89300 0.22045 0.05843
 C1060 C 0.91909 0.23906 0.05590
 C1061 C 0.92727 0.25798 0.08054
 C1062 C 0.90885 0.25932 0.10661
 C1063 C 0.86154 0.24501 0.13360
 C1064 C 0.84323 0.24767 0.15395
 H1065 H 0.85420 0.20791 0.08565
 H1066 H 0.88637 0.20545 0.03991
 H1067 H 0.94707 0.27275 0.07905
 H1068 H 0.91484 0.27481 0.12495
 C1069 C 0.38101 0.74977 0.61034
 C1070 C 0.40374 0.72774 0.60558
 C1071 C 0.42189 0.72887 0.57926
 C1072 C 0.41727 0.75195 0.55740
 C1073 C 0.39477 0.77424 0.56276
 C1074 C 0.37679 0.77313 0.58900
 C1075 C 0.36089 0.74805 0.63623
 C1076 C 0.34283 0.74742 0.65698
 H1077 H 0.40709 0.70947 0.62192
 H1078 H 0.43891 0.71130 0.57559
 H1079 H 0.39101 0.79252 0.54653
 H1080 H 0.35928 0.79029 0.59246
 C1081 C 0.24978 0.11854 0.88883
 C1082 C 0.23438 0.09063 0.89077
 C1083 C 0.23497 0.07382 0.91799
 C1084 C 0.25084 0.08484 0.94397
 C1085 C 0.26645 0.11302 0.94119
 C1086 C 0.26585 0.12956 0.91403
 C1087 C 0.24865 0.13684 0.86161
 C1088 C 0.24826 0.15399 0.84011
 H1089 H 0.22156 0.08205 0.87141
 H1090 H 0.22177 0.05296 0.91876
 H1091 H 0.28028 0.12209 0.95957
 H1092 H 0.27805 0.15107 0.91271
 C1093 C 0.75390 0.61993 0.39284
 C1094 C 0.73299 0.59595 0.39636
 C1095 C 0.73317 0.57834 0.42307
 C1096 C 0.75415 0.58475 0.44660
 C1097 C 0.77528 0.60862 0.44257
 C1098 C 0.77513 0.62605 0.41593
 C1099 C 0.75295 0.63952 0.36648
 C1100 C 0.75265 0.65741 0.34557
 H1101 H 0.71631 0.59115 0.37870
 H1102 H 0.71651 0.56023 0.42564
 H1103 H 0.79202 0.61377 0.46007
 H1104 H 0.79137 0.64458 0.41349
 C1105 C 0.73907 0.11390 0.11728
 C1106 C 0.72559 0.08784 0.12970
 C1107 C 0.72438 0.06082 0.11293
 C1108 C 0.73687 0.05910 0.08321
 C1109 C 0.74886 0.08622 0.07033
 C1110 C 0.75019 0.11327 0.08737
 C1111 C 0.74276 0.14042 0.13630
 C1112 C 0.74562 0.16127 0.15402
 H1113 H 0.71648 0.08820 0.15270
 H1114 H 0.71327 0.04139 0.12342
 H1115 H 0.75921 0.08629 0.04790
 H1116 H 0.76073 0.13338 0.07755
 C1117 C 0.24906 0.60738 0.62230
 C1118 C 0.26984 0.60393 0.59823
 C1119 C 0.26907 0.57761 0.58004
 C1120 C 0.24759 0.55441 0.58591
 C1121 C 0.22663 0.55834 0.60994
 C1122 C 0.22740 0.58459 0.62797
 C1123 C 0.25028 0.63361 0.64208
 C1124 C 0.25071 0.65469 0.65978
 H1125 H 0.28681 0.62139 0.59374
 H1126 H 0.28562 0.57511 0.56184
 H1127 H 0.20952 0.54111 0.61470
 H1128 H 0.21120 0.58700 0.64652
 C1129 C 0.73849 0.88605 0.88795
 C1130 C 0.75584 0.88850 0.91470
 C1131 C 0.75525 0.91555 0.93173
 C1132 C 0.73745 0.94050 0.92202
 C1133 C 0.71933 0.93741 0.89568
 C1134 C 0.71988 0.91038 0.87878
 C1135 C 0.74119 0.85968 0.86854
 C1136 C 0.74333 0.83877 0.85078
 H1137 H 0.77046 0.86988 0.92192
 H1138 H 0.76965 0.91741 0.95177
 H1139 H 0.70513 0.95611 0.88787
 H1140 H 0.70637 0.90873 0.85809
 C1141 C 0.24855 0.39450 0.37859
 C1142 C 0.22717 0.41751 0.37279
 C1143 C 0.22666 0.44378 0.39078
 C1144 C 0.24761 0.44751 0.41488
 C1145 C 0.26876 0.42407 0.42093
 C1146 C 0.26927 0.39772 0.40278
 C1147 C 0.24965 0.36836 0.35872
 C1148 C 0.25005 0.34740 0.34089
 H1149 H 0.21104 0.41527 0.35413
 H1150 H 0.20980 0.46122 0.38589
 H1151 H 0.28527 0.42642 0.43921
 H1152 H 0.28603 0.38009 0.40736
 C1153 C 0.25120 0.88200 0.10862
 C1154 C 0.27338 0.87667 0.08630
 C1155 C 0.27423 0.89458 0.06001
 C1156 C 0.25283 0.91813 0.05555
 C1157 C 0.23096 0.92387 0.07839
 C1158 C 0.23010 0.90578 0.10477
 C1159 C 0.24978 0.86206 0.13468
 C1160 C 0.24937 0.84417 0.15559
 H1161 H 0.28984 0.85838 0.08905
 H1162 H 0.29163 0.88996 0.04304
 H1163 H 0.21412 0.94175 0.07546
 H1164 H 0.21276 0.91003 0.12190
 C1165 C 0.75060 0.37926 0.60945
 C1166 C 0.77290 0.37386 0.58725
 C1167 C 0.77411 0.39193 0.56108
 C1168 C 0.75297 0.41570 0.55663
 C1169 C 0.73096 0.42147 0.57932
 C1170 C 0.72972 0.40322 0.60558
 C1171 C 0.74878 0.35913 0.63534
 C1172 C 0.74808 0.34098 0.65601
 H1173 H 0.78918 0.35541 0.59001
 H1174 H 0.79161 0.38728 0.54423
 H1175 H 0.71430 0.43952 0.57638
 H1176 H 0.71228 0.40750 0.62259
 C1177 C 0.10884 0.11362 0.74576
 C1178 C 0.08764 0.11724 0.72213
 C1179 C 0.06098 0.09980 0.72168
 C1180 C 0.05509 0.07846 0.74492
 C1181 C 0.07685 0.07432 0.76822
 C1182 C 0.10358 0.09195 0.76868
 C1183 C 0.13484 0.13364 0.74708
 C1184 C 0.15553 0.15179 0.74752
 H1185 H 0.09147 0.13398 0.70432
 H1186 H 0.04478 0.10314 0.70327
 H1187 H 0.07275 0.05819 0.78649
 H1188 H 0.11978 0.08912 0.78718
 C1189 C 0.61296 0.62002 0.25002
 C1190 C 0.60823 0.59696 0.27167
 C1191 C 0.58128 0.57965 0.27102
 C1192 C 0.55876 0.58547 0.24882
 C1193 C 0.56407 0.60829 0.22687
 C1194 C 0.59094 0.62542 0.22751
 C1195 C 0.63932 0.63960 0.25161
 C1196 C 0.66024 0.65749 0.25239
 H1197 H 0.62505 0.59275 0.28934
 H1198 H 0.57768 0.56236 0.28831
 H1199 H 0.54732 0.61295 0.20926
 H1200 H 0.59434 0.64324 0.21069
 C1201 C 0.11791 0.89068 0.23894
 C1202 C 0.12589 0.91509 0.21994
 C1203 C 0.10806 0.94151 0.21949
 C1204 C 0.08199 0.94389 0.23811
 C1205 C 0.07335 0.91875 0.25614
 C1206 C 0.09132 0.89231 0.25663
 C1207 C 0.13840 0.86516 0.24178
 C1208 C 0.15680 0.84483 0.24413
 H1209 H 0.14642 0.91406 0.20615
 H1210 H 0.11503 0.96042 0.20516
 H1211 H 0.05354 0.92009 0.27090
 H1212 H 0.08502 0.87358 0.27151
 C1213 C 0.61790 0.38717 0.74355
 C1214 C 0.62644 0.41290 0.72666
 C1215 C 0.60812 0.43902 0.72687
 C1216 C 0.58098 0.43979 0.74406
 C1217 C 0.57191 0.41341 0.76001
 C1218 C 0.59035 0.38727 0.75984
 C1219 C 0.63845 0.36154 0.74540
 C1220 C 0.65675 0.34100 0.74684
 H1221 H 0.64766 0.41306 0.71392
 H1222 H 0.61547 0.45886 0.71407
 H1223 H 0.55126 0.41347 0.77364
 H1224 H 0.58356 0.36750 0.77305
 C1225 C 0.88236 0.11338 0.23786
 C1226 C 0.90934 0.11268 0.25506
 C1227 C 0.92764 0.08647 0.25510
 C1228 C 0.91894 0.06064 0.23810
 C1229 C 0.89248 0.06207 0.21989
 C1230 C 0.87431 0.08826 0.21982
 C1231 C 0.86171 0.13881 0.24014
 C1232 C 0.84339 0.15926 0.24211
 H1233 H 0.91572 0.13199 0.26917
 H1234 H 0.94776 0.08585 0.26952
 H1235 H 0.88545 0.04260 0.20633
 H1236 H 0.85350 0.08859 0.20638
 C1237 C 0.38055 0.60902 0.74321
 C1238 C 0.40691 0.60668 0.76122
 C1239 C 0.42456 0.58003 0.76044
 C1240 C 0.41591 0.55533 0.74176
 C1241 C 0.38995 0.55832 0.72303
 C1242 C 0.37241 0.58497 0.72379
 C1243 C 0.36068 0.63511 0.74581
 C1244 C 0.34283 0.65601 0.74776
 H1245 H 0.41336 0.62510 0.77643
 H1246 H 0.44426 0.57825 0.77533
 H1247 H 0.38294 0.53985 0.70815
 H1248 H 0.35208 0.58653 0.70973
 C1249 C 0.88648 0.87921 0.76712
 C1250 C 0.91148 0.87184 0.78566
 C1251 C 0.93794 0.88971 0.78485
 C1252 C 0.93976 0.91520 0.76539
 C1253 C 0.91404 0.92319 0.74779
 C1254 C 0.88760 0.90522 0.74859
 C1255 C 0.86083 0.85866 0.76544
 C1256 C 0.84031 0.84035 0.76372
 H1257 H 0.91088 0.85174 0.80007
 H1258 H 0.95726 0.88321 0.79889
 H1259 H 0.91490 0.94249 0.73235
 H1260 H 0.86844 0.91104 0.73402
 C1261 C 0.38945 0.38486 0.25847
 C1262 C 0.39136 0.41131 0.24063
 C1263 C 0.41780 0.42929 0.24143
 C1264 C 0.44272 0.42087 0.25996
 C1265 C 0.44011 0.39487 0.27862
 C1266 C 0.41366 0.37700 0.27784
 C1267 C 0.36371 0.36457 0.25560
 C1268 C 0.34311 0.34641 0.25333
 H1269 H 0.37280 0.41753 0.22546
 H1270 H 0.41930 0.44900 0.22658
 H1271 H 0.45878 0.38803 0.29336
 H1272 H 0.41241 0.35659 0.29177
   
