data_POSCAR
  _audit_creation_date              2014-09-24
  _audit_creation_method            'ToBaCCo'
  _symmetry_space_group_name_H-M    'P1'
  _symmetry_Int_Tables_number       1
  _symmetry_cell_setting            triclinic
  loop_
  _symmetry_equiv_pos_as_xyz
 x,y,z
_cell_length_a 67.8179
_cell_length_b 68.0236
_cell_length_c 68.7504
_cell_angle_alpha 90.206900
_cell_angle_beta 90.068000
_cell_angle_gamma 90.972000
loop_
  _atom_site_label
  _atom_site_type_symbol
  _atom_site_fract_x
  _atom_site_fract_y
  _atom_site_fract_z
C1 C 0.41390 0.00284 0.27071
 H2 H 0.42153 0.00313 0.25691
 C3 C 0.42468 0.00418 0.28807
 H4 H 0.44060 0.00557 0.28757
 C5 C 0.38386 0.00149 0.28830
 H6 H 0.36792 0.00066 0.28825
 C7 C 0.39398 0.00298 0.30587
 H8 H 0.38575 0.00314 0.31936
 N9 N 0.39383 0.00190 0.27115
 C10 C 0.40321 -0.01611 0.22125
 H11 H 0.40064 -0.02877 0.23044
 C12 C 0.41428 -0.01795 0.20424
 H13 H 0.42032 -0.03210 0.20050
 C14 C 0.39818 0.01765 0.21488
 H15 H 0.39180 0.03149 0.21907
 C16 C 0.40920 0.01648 0.19775
 H17 H 0.41087 0.02939 0.18870
 Zn18 Zn 0.37846 0.00228 0.24805
 N19 N 0.39509 0.00139 0.22600
 C20 C 0.36490 0.03869 0.26290
 N21 N 0.36357 0.02603 0.24755
 C22 C 0.35210 0.03032 0.23188
 C23 C 0.34071 0.04729 0.23172
 C24 C 0.35366 0.05565 0.26343
 C25 C 0.36327 -0.03455 0.26143
 C26 C 0.35070 -0.05106 0.26166
 C27 C 0.33438 -0.03843 0.23332
 C28 C 0.34733 -0.02226 0.23366
 N29 N 0.36124 -0.02034 0.24776
 H30 H 0.37470 0.03581 0.27486
 H31 H 0.35195 0.02077 0.21932
 H32 H 0.33139 0.05026 0.21931
 H33 H 0.35483 0.06538 0.27590
 H34 H 0.37498 -0.03342 0.27205
 H35 H 0.35382 -0.06209 0.27243
 H36 H 0.32302 -0.03822 0.22233
 H37 H 0.34611 -0.01118 0.22259
 C38 C 0.41706 -0.00160 0.19204
 C39 C 0.41461 0.00474 0.30587
 C40 C 0.33566 -0.05352 0.24748
 C41 C 0.34113 0.05998 0.24784
 C42 C 0.09587 0.01022 0.72894
 H43 H 0.09610 0.02196 0.73954
 C44 C 0.08600 0.01283 0.71133
 H45 H 0.07863 0.02656 0.70862
 C46 C 0.10568 -0.02157 0.71923
 H47 H 0.11368 -0.03482 0.72218
 C48 C 0.09585 -0.01963 0.70143
 H49 H 0.09657 -0.03136 0.69079
 N50 N 0.10615 -0.00643 0.73226
 C51 C 0.12237 -0.00086 0.79347
 H52 H 0.13793 0.00205 0.79124
 C53 C 0.11481 -0.00133 0.81227
 H54 H 0.12462 0.00147 0.82445
 C55 C 0.09088 -0.00856 0.78022
 H56 H 0.08177 -0.01174 0.76763
 C57 C 0.08262 -0.00909 0.79893
 H58 H 0.06712 -0.01274 0.80068
 Zn59 Zn 0.12393 -0.00647 0.75379
 N60 N 0.11054 -0.00490 0.77795
 C61 C 0.13196 0.03362 0.75806
 N62 N 0.14025 0.01656 0.75205
 C63 C 0.15902 0.01642 0.74506
 C64 C 0.16988 0.03401 0.74327
 C65 C 0.14227 0.05146 0.75660
 C66 C 0.13799 -0.04170 0.76973
 C67 C 0.14910 -0.05868 0.77103
 C68 C 0.16208 -0.05210 0.73901
 C69 C 0.15083 -0.03499 0.73840
 N70 N 0.13925 -0.02995 0.75377
 H71 H 0.11719 0.03340 0.76397
 H72 H 0.16557 0.00277 0.74065
 H73 H 0.18473 0.03364 0.73753
 H74 H 0.13510 0.06486 0.76099
 H75 H 0.12834 -0.03801 0.78160
 H76 H 0.14789 -0.06770 0.78394
 H77 H 0.17141 -0.05579 0.72681
 H78 H 0.15132 -0.02577 0.72562
 C79 C 0.09481 -0.00595 0.81524
 C80 C 0.08650 -0.00193 0.69703
 C81 C 0.16149 -0.06399 0.75566
 C82 C 0.16143 0.05188 0.74893
 C83 C 0.59615 0.51142 0.23273
 H84 H 0.59815 0.52258 0.24378
 C85 C 0.58607 0.51592 0.21568
 H86 H 0.58037 0.53056 0.21373
 C87 C 0.60166 0.47900 0.22149
 H88 H 0.60806 0.46474 0.22369
 C89 C 0.59135 0.48280 0.20429
 H90 H 0.59002 0.47145 0.19325
 N91 N 0.60427 0.49343 0.23508
 C92 C 0.61769 0.49172 0.29687
 H93 H 0.63359 0.49284 0.29597
 C94 C 0.60855 0.49083 0.31498
 H95 H 0.61753 0.49138 0.32802
 C96 C 0.58674 0.48940 0.28087
 H97 H 0.57840 0.48860 0.26747
 C98 C 0.57693 0.48862 0.29880
 H99 H 0.56102 0.48710 0.29914
 Zn100 Zn 0.62130 0.49018 0.25673
 N101 N 0.60679 0.49055 0.28029
 C102 C 0.63215 0.52892 0.26580
 N103 N 0.63907 0.51221 0.25748
 C104 C 0.65733 0.51189 0.24931
 C105 C 0.66903 0.52903 0.24865
 C106 C 0.64333 0.54632 0.26547
 C107 C 0.63308 0.45284 0.26981
 C108 C 0.64369 0.43547 0.26998
 C109 C 0.65740 0.44409 0.23874
 C110 C 0.64657 0.46148 0.23922
 N111 N 0.63507 0.46580 0.25488
 H112 H 0.61765 0.52888 0.27231
 H113 H 0.66276 0.49854 0.24293
 H114 H 0.68341 0.52855 0.24185
 H115 H 0.63712 0.55957 0.27150
 H116 H 0.62340 0.45596 0.28182
 H117 H 0.64209 0.42558 0.28221
 H118 H 0.66693 0.44115 0.22648
 H119 H 0.64750 0.47162 0.22716
 C120 C 0.58796 0.48890 0.31611
 C121 C 0.58397 0.50165 0.20103
 C122 C 0.65637 0.43107 0.25452
 C123 C 0.66191 0.54664 0.25653
 C124 C 0.91138 0.49765 0.76928
 H125 H 0.92081 0.50043 0.75688
 C126 C 0.91942 0.49724 0.78808
 H127 H 0.93508 0.50006 0.78972
 C128 C 0.87935 0.49195 0.78191
 H129 H 0.86369 0.49000 0.77937
 C130 C 0.88663 0.49161 0.80079
 H131 H 0.87627 0.48849 0.81238
 N132 N 0.89159 0.49550 0.76669
 C133 C 0.90513 0.48112 0.71638
 H134 H 0.90344 0.46841 0.72560
 C135 C 0.91539 0.47948 0.69887
 H136 H 0.92161 0.46548 0.69485
 C137 C 0.89866 0.51459 0.71005
 H138 H 0.89191 0.52821 0.71431
 C139 C 0.90889 0.51363 0.69244
 H140 H 0.90962 0.52648 0.68320
 Zn141 Zn 0.87851 0.49847 0.74261
 N142 N 0.89638 0.49828 0.72129
 C143 C 0.86651 0.53406 0.75960
 N144 N 0.86472 0.52276 0.74330
 C145 C 0.85368 0.52878 0.72792
 C146 C 0.84347 0.54650 0.72887
 C147 C 0.85640 0.55163 0.76126
 C148 C 0.86779 0.45891 0.74578
 C149 C 0.85569 0.44215 0.74547
 C150 C 0.82893 0.46203 0.73404
 C151 C 0.84154 0.47852 0.73473
 N152 N 0.86068 0.47666 0.74035
 H153 H 0.87579 0.52958 0.77146
 H154 H 0.85280 0.51983 0.71490
 H155 H 0.83452 0.55100 0.71667
 H156 H 0.85792 0.56029 0.77444
 H157 H 0.88286 0.45782 0.75073
 H158 H 0.86175 0.42816 0.74968
 H159 H 0.81374 0.46375 0.72957
 H160 H 0.83594 0.49273 0.73089
 C161 C 0.91681 0.49570 0.68634
 C162 C 0.90690 0.49492 0.80439
 C163 C 0.83598 0.44356 0.73952
 C164 C 0.84456 0.55795 0.74588
 C165 C 0.22570 0.40329 1.00547
 H166 H 0.23710 0.40646 1.01610
 C167 C 0.20773 0.41289 1.00663
 H168 H 0.20569 0.42376 1.01796
 C169 C 0.21460 0.38511 0.97803
 H170 H 0.21720 0.37422 0.96694
 C171 C 0.19626 0.39417 0.97883
 H172 H 0.18494 0.38978 0.96851
 N173 N 0.22864 0.38925 0.99169
 C174 C 0.29229 0.38519 1.00092
 H175 H 0.29403 0.36990 1.00435
 C176 C 0.30872 0.39780 1.00189
 H177 H 0.32286 0.39194 1.00605
 C178 C 0.27225 0.41117 0.99022
 H179 H 0.25815 0.41630 0.98523
 C180 C 0.28833 0.42429 0.99094
 H181 H 0.28625 0.43948 0.98689
 Zn182 Zn 0.25219 0.37430 0.99351
 N183 N 0.27440 0.39199 0.99529
 C184 C 0.26939 0.36288 0.95829
 N185 N 0.25476 0.35832 0.97107
 C186 C 0.24121 0.34388 0.96705
 C187 C 0.24100 0.33465 0.94881
 C188 C 0.26994 0.35384 0.94010
 C189 C 0.26524 0.34562 1.02079
 C190 C 0.26583 0.33683 1.03916
 C191 C 0.23519 0.35252 1.04698
 C192 C 0.23525 0.36104 1.02862
 N193 N 0.25068 0.35841 1.01630
 H194 H 0.28014 0.37425 0.96178
 H195 H 0.22981 0.34042 0.97755
 H196 H 0.22928 0.32421 0.94537
 H197 H 0.28144 0.35811 0.92998
 H198 H 0.27672 0.34266 1.01037
 H199 H 0.27816 0.32768 1.04295
 H200 H 0.22310 0.35544 1.05680
 H201 H 0.22318 0.37028 1.02458
 C202 C 0.30689 0.41763 0.99681
 C203 C 0.19242 0.40787 0.99364
 C204 C 0.25107 0.34097 1.05279
 C205 C 0.25510 0.34017 0.93479
 C206 C 0.78264 0.09488 1.00985
 H207 H 0.77020 0.09336 1.01959
 C208 C 0.79898 0.08293 1.01224
 H209 H 0.79807 0.07178 1.02337
 C210 C 0.79775 0.11089 0.98318
 H211 H 0.79737 0.12194 0.97199
 C212 C 0.81455 0.09938 0.98516
 H213 H 0.82675 0.10256 0.97553
 N214 N 0.78248 0.10890 0.99584
 C215 C 0.72299 0.11543 1.01224
 H216 H 0.72541 0.12686 1.02288
 C217 C 0.70458 0.10592 1.01147
 H218 H 0.69313 0.11071 1.02126
 C219 C 0.73456 0.09602 0.98615
 H220 H 0.74621 0.09253 0.97604
 C221 C 0.71650 0.08588 0.98511
 H222 H 0.71467 0.07427 0.97443
 Zn223 Zn 0.76089 0.12650 0.99656
 N224 N 0.73727 0.11098 0.99911
 C225 C 0.74249 0.13933 0.96241
 N226 N 0.75920 0.14153 0.97323
 C227 C 0.77426 0.15351 0.96717
 C228 C 0.77351 0.16241 0.94880
 C229 C 0.74112 0.14790 0.94412
 C230 C 0.75011 0.15636 1.02371
 C231 C 0.75061 0.16523 1.04213
 C232 C 0.78181 0.14977 1.04805
 C233 C 0.78049 0.14092 1.02980
 N234 N 0.76426 0.14341 1.01849
 H235 H 0.73027 0.13052 0.96767
 H236 H 0.78717 0.15556 0.97625
 H237 H 0.78601 0.17106 0.94371
 H238 H 0.72789 0.14543 0.93555
 H239 H 0.73766 0.15867 1.01418
 H240 H 0.73834 0.17409 1.04670
 H241 H 0.79457 0.14697 1.05705
 H242 H 0.79210 0.13136 1.02511
 C243 C 0.70089 0.09129 0.99739
 C244 C 0.81580 0.08538 1.00028
 C245 C 0.76621 0.16118 1.05493
 C246 C 0.75701 0.15904 0.93679
 C247 C 0.28626 0.61497 0.49171
 H248 H 0.28528 0.62757 0.48232
 C249 C 0.30414 0.60505 0.49291
 H250 H 0.31662 0.61043 0.48458
 C251 C 0.27166 0.59337 0.51460
 H252 H 0.25900 0.58875 0.52304
 C253 C 0.28916 0.58290 0.51608
 H254 H 0.28958 0.57028 0.52561
 N255 N 0.27056 0.60938 0.50286
 C256 C 0.20703 0.61868 0.50765
 H257 H 0.20765 0.63375 0.51272
 C258 C 0.18880 0.60912 0.50533
 H259 H 0.17550 0.61706 0.50860
 C260 C 0.22371 0.59069 0.49598
 H261 H 0.23732 0.58377 0.49188
 C262 C 0.20574 0.58053 0.49351
 H263 H 0.20580 0.56562 0.48795
 Zn264 Zn 0.24741 0.62527 0.50386
 N265 N 0.22399 0.60949 0.50279
 C266 C 0.23314 0.63856 0.46827
 N267 N 0.24700 0.64274 0.48207
 C268 C 0.26072 0.65735 0.47923
 C269 C 0.26147 0.66753 0.46150
 C270 C 0.23333 0.64832 0.45054
 C271 C 0.24525 0.62672 0.54392
 C272 C 0.24584 0.63444 0.56269
 C273 C 0.24927 0.66698 0.54908
 C274 C 0.24872 0.65856 0.53040
 N275 N 0.24718 0.63867 0.52822
 H276 H 0.22238 0.62695 0.47050
 H277 H 0.27171 0.66042 0.49029
 H278 H 0.27303 0.67840 0.45902
 H279 H 0.22250 0.64425 0.43959
 H280 H 0.24326 0.61108 0.54190
 H281 H 0.24450 0.62456 0.57495
 H282 H 0.25105 0.68275 0.55069
 H283 H 0.24978 0.66790 0.51776
 C284 C 0.18791 0.58985 0.49793
 C285 C 0.30594 0.58901 0.50556
 C286 C 0.24824 0.65476 0.56550
 C287 C 0.24800 0.66252 0.44669
 C288 C 0.73386 0.90492 0.50989
 H289 H 0.74574 0.90895 0.51971
 C290 C 0.71629 0.91533 0.51039
 H291 H 0.71518 0.92772 0.52022
 C292 C 0.72087 0.88357 0.48562
 H293 H 0.72251 0.87084 0.47635
 C294 C 0.70290 0.89339 0.48588
 H295 H 0.69094 0.88797 0.47679
 N296 N 0.73582 0.88924 0.49775
 C297 C 0.79990 0.87961 0.50026
 H298 H 0.80012 0.86387 0.50177
 C299 C 0.81778 0.89004 0.49927
 H300 H 0.83148 0.88217 0.50036
 C301 C 0.78203 0.90874 0.49534
 H302 H 0.76816 0.91597 0.49319
 C303 C 0.79960 0.91973 0.49403
 H304 H 0.79898 0.93539 0.49138
 Zn305 Zn 0.75871 0.87332 0.49962
 N306 N 0.78242 0.88902 0.49868
 C307 C 0.76305 0.86574 0.46078
 N308 N 0.75934 0.85640 0.47784
 C309 C 0.75679 0.83652 0.47860
 C310 C 0.75827 0.82521 0.46158
 C311 C 0.76482 0.85508 0.44360
 C312 C 0.74291 0.86325 0.53630
 C313 C 0.74304 0.85563 0.55510
 C314 C 0.77261 0.83813 0.54720
 C315 C 0.77183 0.84600 0.52843
 N316 N 0.75762 0.85904 0.52358
 H317 H 0.76487 0.88157 0.46063
 H318 H 0.75372 0.82945 0.49236
 H319 H 0.75648 0.80938 0.46231
 H320 H 0.76787 0.86285 0.43018
 H321 H 0.73125 0.87297 0.53217
 H322 H 0.73136 0.85958 0.56504
 H323 H 0.78463 0.82861 0.55102
 H324 H 0.78284 0.84192 0.51794
 C325 C 0.81779 0.91038 0.49610
 C326 C 0.70025 0.90930 0.49867
 C327 C 0.75844 0.84348 0.56104
 C328 C 0.76265 0.83454 0.44386
 C329 C 0.01181 0.27605 0.40918
 H330 H 0.02328 0.26534 0.41081
 C331 C 0.01105 0.29206 0.42192
 H332 H 0.02207 0.29363 0.43325
 C333 C -0.01549 0.28789 0.39142
 H334 H -0.02531 0.28673 0.37910
 C335 C -0.01697 0.30390 0.40393
 H336 H -0.02837 0.31455 0.40137
 N337 N -0.00111 0.27450 0.39408
 C338 C -0.00849 0.21776 0.39153
 H339 H -0.02328 0.22119 0.38712
 C340 C -0.00506 0.19994 0.40078
 H341 H -0.01746 0.18995 0.40278
 C342 C 0.02544 0.22624 0.39312
 H343 H 0.03726 0.23673 0.39035
 C344 C 0.02964 0.20843 0.40205
 H345 H 0.04472 0.20583 0.40635
 Zn346 Zn 0.00259 0.25473 0.37525
 N347 N 0.00666 0.23053 0.38793
 C348 C 0.03332 0.24695 0.34939
 N349 N 0.02567 0.26100 0.36113
 C350 C 0.03529 0.27845 0.36424
 C351 C 0.05377 0.28200 0.35592
 C352 C 0.05173 0.24990 0.34079
 C353 C -0.03782 0.25134 0.36666
 C354 C -0.05471 0.25117 0.35512
 C355 C -0.03407 0.25465 0.32670
 C356 C -0.01751 0.25486 0.33884
 N357 N -0.01965 0.25319 0.35845
 H358 H 0.02544 0.23313 0.34738
 H359 H 0.02889 0.28946 0.37354
 H360 H 0.06136 0.29586 0.35873
 H361 H 0.05793 0.23821 0.33213
 H362 H -0.03923 0.25068 0.38231
 H363 H -0.06901 0.25027 0.36209
 H364 H -0.03207 0.25585 0.31113
 H365 H -0.00298 0.25655 0.33258
 C366 C 0.01428 0.19486 0.40616
 C367 C -0.00319 0.30649 0.41902
 C368 C -0.05300 0.25284 0.33484
 C369 C 0.06234 0.26749 0.34429
 C370 C -0.00263 0.70222 0.11417
 H371 H 0.01067 0.70527 0.12234
 C372 C -0.00548 0.68373 0.10595
 H373 H 0.00581 0.67281 0.10775
 C374 C -0.03396 0.71223 0.10295
 H375 H -0.04508 0.72343 0.10219
 C376 C -0.03742 0.69384 0.09437
 H377 H -0.05107 0.69101 0.08659
 N378 N -0.01663 0.71612 0.11229
 C379 C -0.00939 0.77942 0.11529
 H380 H -0.00615 0.78071 0.13066
 C381 C -0.00950 0.79612 0.10371
 H382 H -0.00659 0.81032 0.11038
 C383 C -0.01745 0.75920 0.08816
 H384 H -0.02026 0.74471 0.08218
 C385 C -0.01762 0.77559 0.07596
 H386 H -0.02055 0.77360 0.06058
 Zn387 Zn -0.01260 0.74033 0.12492
 N388 N -0.01353 0.76148 0.10746
 C389 C 0.02832 0.74146 0.12430
 N390 N 0.01256 0.74089 0.13650
 C391 C 0.01490 0.74028 0.15611
 C392 C 0.03374 0.73955 0.16415
 C393 C 0.04744 0.74090 0.13172
 C394 C -0.04538 0.75747 0.14308
 C395 C -0.06146 0.75781 0.15562
 C396 C -0.05076 0.72716 0.16940
 C397 C -0.03494 0.72743 0.15647
 N398 N -0.03261 0.74237 0.14362
 H399 H 0.02597 0.74208 0.10875
 H400 H 0.00220 0.74008 0.16556
 H401 H 0.03527 0.73849 0.17978
 H402 H 0.05982 0.74149 0.12179
 H403 H -0.04344 0.76914 0.13264
 H404 H -0.07061 0.77064 0.15501
 H405 H -0.05241 0.71429 0.17843
 H406 H -0.02480 0.71532 0.15621
 C407 C -0.01354 0.79433 0.08374
 C408 C -0.02292 0.67944 0.09568
 C409 C -0.06492 0.74224 0.16890
 C410 C 0.05033 0.73980 0.15190
 C411 C 0.51043 0.21546 0.60554
 H412 H 0.52302 0.22492 0.60296
 C413 C 0.51038 0.19637 0.59808
 H414 H 0.52320 0.19136 0.59026
 C415 C 0.47856 0.21030 0.61875
 H416 H 0.46595 0.21578 0.62649
 C417 C 0.47781 0.19118 0.61143
 H418 H 0.46464 0.18226 0.61365
 N419 N 0.49491 0.22190 0.61616
 C420 C 0.48211 0.26583 0.59420
 H421 H 0.47287 0.25283 0.59239
 C422 C 0.48028 0.28167 0.58141
 H423 H 0.46951 0.28082 0.56980
 C424 C 0.50658 0.28322 0.61229
 H425 H 0.51642 0.28406 0.62463
 C426 C 0.50543 0.29918 0.59979
 H427 H 0.51491 0.31188 0.60240
 Zn428 Zn 0.49572 0.24702 0.62835
 N429 N 0.49490 0.26705 0.60945
 C430 C 0.51865 0.25282 0.66291
 N431 N 0.51924 0.25020 0.64328
 C432 C 0.53672 0.25039 0.63359
 C433 C 0.55447 0.25212 0.64370
 C434 C 0.53609 0.25454 0.67363
 C435 C 0.45819 0.26031 0.63957
 C436 C 0.44024 0.25887 0.64934
 C437 C 0.45430 0.23441 0.67036
 C438 C 0.47173 0.23581 0.65974
 N439 N 0.47332 0.24851 0.64457
 H440 H 0.50474 0.25370 0.67040
 H441 H 0.53695 0.24980 0.61792
 H442 H 0.56819 0.25235 0.63565
 H443 H 0.53532 0.25607 0.68929
 H444 H 0.45963 0.27013 0.62733
 H445 H 0.42809 0.26750 0.64413
 H446 H 0.45356 0.22428 0.68245
 H447 H 0.48380 0.22620 0.66312
 C448 C 0.49180 0.29878 0.58440
 C449 C 0.49399 0.18388 0.60120
 C450 C 0.43796 0.24553 0.66482
 C451 C 0.55430 0.25392 0.66401
 C452 C 0.51227 0.78815 0.89574
 H453 H 0.52444 0.77887 0.89947
 C454 C 0.51087 0.80671 0.90435
 H455 H 0.52205 0.81143 0.91469
 C456 C 0.48402 0.79406 0.87649
 H457 H 0.47404 0.78962 0.86502
 C458 C 0.48191 0.81254 0.88490
 H459 H 0.46983 0.82162 0.88028
 N460 N 0.49908 0.78227 0.88189
 C461 C 0.49331 0.72175 0.88372
 H462 H 0.48029 0.72256 0.87479
 C463 C 0.49640 0.70478 0.89450
 H464 H 0.48555 0.69292 0.89389
 C465 C 0.52380 0.73539 0.89446
 H466 H 0.53475 0.74710 0.89388
 C467 C 0.52763 0.71849 0.90528
 H468 H 0.54125 0.71754 0.91342
 Zn469 Zn 0.50341 0.75886 0.86753
 N470 N 0.50681 0.73677 0.88401
 C471 C 0.53611 0.74613 0.84669
 N472 N 0.52676 0.76235 0.85325
 C473 C 0.53484 0.78066 0.85128
 C474 C 0.55349 0.78312 0.84306
 C475 C 0.55483 0.74790 0.83846
 C476 C 0.46365 0.75279 0.85875
 C477 C 0.44694 0.75091 0.84715
 C478 C 0.46780 0.75217 0.81867
 C479 C 0.48422 0.75406 0.83091
 N480 N 0.48183 0.75443 0.85055
 H481 H 0.52935 0.73175 0.84859
 H482 H 0.52702 0.79335 0.85647
 H483 H 0.55982 0.79778 0.84178
 H484 H 0.56243 0.73473 0.83411
 H485 H 0.46215 0.75353 0.87441
 H486 H 0.43259 0.75026 0.85404
 H487 H 0.46986 0.75196 0.80306
 H488 H 0.49881 0.75554 0.82471
 C489 C 0.51375 0.70297 0.90539
 C490 C 0.49570 0.81930 0.89870
 C491 C 0.44885 0.75065 0.82682
 C492 C 0.56389 0.76656 0.83689
 C493 C -0.22527 0.65757 0.97422
 H494 H -0.21268 0.65580 0.98366
 C495 C -0.22278 0.66685 0.95628
 H496 H -0.20835 0.67260 0.95234
 C497 C -0.25898 0.65118 0.96734
 H498 H -0.27294 0.64452 0.97125
 C499 C -0.25718 0.66050 0.94931
 H500 H -0.26983 0.66093 0.93970
 N501 N -0.24314 0.64989 0.97944
 C502 C -0.25496 0.64973 1.04008
 H503 H -0.26560 0.63775 1.03952
 C504 C -0.25421 0.66184 1.05650
 H505 H -0.26423 0.65837 1.06827
 C506 C -0.22819 0.66713 1.02595
 H507 H -0.21812 0.66926 1.01399
 C508 C -0.22672 0.67949 1.04225
 H509 H -0.21570 0.69115 1.04198
 Zn510 Zn -0.24412 0.63531 1.00313
 N511 N -0.24219 0.65259 1.02510
 C512 C -0.20781 0.61908 1.01637
 N513 N -0.22222 0.61817 1.00259
 C514 C -0.22074 0.60597 0.98698
 C515 C -0.20417 0.59430 0.98458
 C516 C -0.19075 0.60791 1.01434
 C517 C -0.28564 0.63027 1.00477
 C518 C -0.30363 0.62000 1.00596
 C519 C -0.28571 0.58973 1.00816
 C520 C -0.26805 0.60054 1.00657
 N521 N -0.26829 0.62046 1.00478
 H522 H -0.20923 0.62891 1.02866
 H523 H -0.23234 0.60559 0.97617
 H524 H -0.20351 0.58463 0.97207
 H525 H -0.17912 0.60956 1.02504
 H526 H -0.28548 0.64615 1.00394
 H527 H -0.31726 0.62807 1.00598
 H528 H -0.28524 0.57389 1.00962
 H529 H -0.25418 0.59299 1.00703
 C530 C -0.23994 0.67717 1.05798
 C531 C -0.23881 0.66821 0.94345
 C532 C -0.30380 0.59946 1.00775
 C533 C -0.18858 0.59548 0.99809
 C534 C -0.24324 0.34542 0.53460
 H535 H -0.23076 0.35551 0.53409
 C536 C -0.24504 0.33280 0.54940
 H537 H -0.23407 0.33358 0.56080
 C538 C -0.27290 0.33364 0.51969
 H539 H -0.28373 0.33416 0.50815
 C540 C -0.27562 0.31955 0.53576
 H541 H -0.28820 0.30961 0.53495
 N542 N -0.25801 0.34594 0.51965
 C543 C -0.27477 0.35460 0.46363
 H544 H -0.28589 0.36486 0.46807
 C545 C -0.27627 0.34557 0.44547
 H546 H -0.28862 0.34903 0.43617
 C547 C -0.24572 0.33712 0.47063
 H548 H -0.23384 0.33395 0.48059
 C549 C -0.24649 0.32792 0.45242
 H550 H -0.23493 0.31794 0.44834
 Zn551 Zn -0.25675 0.36464 0.49938
 N552 N -0.25930 0.35078 0.47553
 C553 C -0.21918 0.37793 0.48538
 N554 N -0.23257 0.37933 0.50004
 C555 C -0.22939 0.39183 0.51523
 C556 C -0.21200 0.40312 0.51636
 C557 C -0.20147 0.38873 0.48605
 C558 C -0.29249 0.37969 0.51502
 C559 C -0.30890 0.39185 0.51518
 C560 C -0.29409 0.41067 0.48918
 C561 C -0.27807 0.39804 0.48946
 N562 N -0.27781 0.38257 0.50185
 H563 H -0.22208 0.36842 0.47309
 H564 H -0.24045 0.39306 0.52649
 H565 H -0.20998 0.41312 0.52851
 H566 H -0.19083 0.38679 0.47452
 H567 H -0.29191 0.36755 0.52506
 H568 H -0.32071 0.38803 0.52506
 H569 H -0.29335 0.42295 0.47928
 H570 H -0.26597 0.40031 0.47943
 C571 C -0.26167 0.33251 0.43936
 C572 C -0.26247 0.31906 0.55054
 C573 C -0.31035 0.40743 0.50172
 C574 C -0.19758 0.40150 0.50175
 C575 C 0.27483 -0.14777 0.04161
 H576 H 0.28769 -0.13998 0.03618
 C577 C 0.27549 -0.15626 0.05905
 H578 H 0.28923 -0.15548 0.06703
 C579 C 0.24272 -0.16081 0.03501
 H580 H 0.22982 -0.16207 0.02580
 C581 C 0.24263 -0.17026 0.05439
 H582 H 0.22913 -0.17764 0.05878
 N583 N 0.25732 -0.14927 0.02993
 C584 C 0.23588 -0.14617 -0.02595
 H585 H 0.22437 -0.13671 -0.02084
 C586 C 0.23389 -0.15518 -0.04408
 H587 H 0.22080 -0.15250 -0.05264
 C588 C 0.26658 -0.16142 -0.02092
 H589 H 0.27936 -0.16366 -0.01181
 C590 C 0.26528 -0.17063 -0.03915
 H591 H 0.27725 -0.17971 -0.04408
 Zn592 Zn 0.25571 -0.13300 0.00763
 N593 N 0.25243 -0.14871 -0.01513
 C594 C 0.29309 -0.11954 -0.00766
 N595 N 0.27897 -0.11705 0.00614
 C596 C 0.28108 -0.10304 0.02017
 C597 C 0.29823 -0.09146 0.02124
 C598 C 0.31065 -0.10848 -0.00695
 C599 C 0.21976 -0.11769 0.02335
 C600 C 0.20309 -0.10589 0.02285
 C601 C 0.21703 -0.08891 -0.00476
 C602 C 0.23325 -0.10121 -0.00385
 N603 N 0.23409 -0.11564 0.00968
 H604 H 0.29106 -0.13039 -0.01898
 H605 H 0.26952 -0.10113 0.03081
 H606 H 0.29949 -0.08044 0.03258
 H607 H 0.32204 -0.11140 -0.01754
 H608 H 0.22079 -0.12889 0.03435
 H609 H 0.19156 -0.10913 0.03324
 H610 H 0.21741 -0.07742 -0.01557
 H611 H 0.24510 -0.09953 -0.01428
 C612 C 0.24906 -0.16695 -0.05127
 C613 C 0.25791 -0.16718 0.06678
 C614 C 0.20105 -0.09146 0.00825
 C615 C 0.31358 -0.09443 0.00787
 C616 C 0.27841 1.14927 0.46004
 H617 H 0.29137 1.14165 0.46489
 C618 C 0.27773 1.15662 0.44115
 H619 H 0.29032 1.15470 0.43170
 C620 C 0.24632 1.16089 0.46641
 H621 H 0.23399 1.16213 0.47628
 C622 C 0.24500 1.16848 0.44753
 H623 H 0.23155 1.17546 0.44295
 N624 N 0.26271 1.15118 0.47213
 C625 C 0.26807 1.14994 0.53555
 H626 H 0.26829 1.13423 0.53792
 C627 C 0.26904 1.16278 0.55141
 H628 H 0.26990 1.15694 0.56602
 C629 C 0.26630 1.17672 0.51369
 H630 H 0.26506 1.18206 0.49896
 C631 C 0.26758 1.19014 0.52917
 H632 H 0.26720 1.20578 0.52635
 Zn633 Zn 0.26320 1.13831 0.49659
 N634 N 0.26621 1.15701 0.51716
 C635 C 0.30202 1.12659 0.50635
 N636 N 0.28513 1.12091 0.49700
 C637 C 0.28426 1.10382 0.48666
 C638 C 0.30079 1.09190 0.48520
 C639 C 0.31894 1.11511 0.50523
 C640 C 0.22796 1.12576 0.51604
 C641 C 0.21010 1.11548 0.51816
 C642 C 0.21398 1.10245 0.48575
 C643 C 0.23191 1.11288 0.48429
 N644 N 0.23876 1.12401 0.49945
 H645 H 0.30266 1.14042 0.51412
 H646 H 0.27087 1.09957 0.47916
 H647 H 0.29971 1.07842 0.47681
 H648 H 0.33237 1.12030 0.51222
 H649 H 0.23303 1.13518 0.52770
 H650 H 0.20182 1.11709 0.53152
 H651 H 0.20895 1.09344 0.47365
 H652 H 0.24025 1.11225 0.47092
 C653 C 0.26862 1.18309 0.54827
 C654 C 0.26069 1.16596 0.43448
 C655 C 0.20294 1.10349 0.50298
 C656 C 0.31858 1.09762 0.49429
 C657 C 0.13201 0.46127 0.25579
 H658 H 0.11853 0.46145 0.26406
 C659 C 0.14261 0.44382 0.25470
 H660 H 0.13690 0.43086 0.26200
 C661 C 0.15517 0.47743 0.23544
 H662 H 0.16008 0.49052 0.22789
 C663 C 0.16630 0.46037 0.23408
 H664 H 0.17972 0.46068 0.22558
 N665 N 0.13813 0.47757 0.24588
 C666 C 0.12821 0.54053 0.23936
 H667 H 0.11360 0.53959 0.23308
 C668 C 0.13743 0.55888 0.24189
 H669 H 0.12970 0.57193 0.23752
 C670 C 0.15521 0.52462 0.25403
 H671 H 0.16179 0.51130 0.25930
 C672 C 0.16503 0.54270 0.25674
 H673 H 0.17940 0.54296 0.26361
 Zn674 Zn 0.12163 0.50023 0.24448
 N675 N 0.13707 0.52388 0.24556
 C676 C 0.10741 0.51477 0.27969
 N677 N 0.10376 0.50059 0.26608
 C678 C 0.08947 0.48658 0.26905
 C679 C 0.07938 0.48563 0.28688
 C680 C 0.09770 0.51443 0.29749
 C681 C 0.12100 0.50025 0.20444
 C682 C 0.11375 0.49916 0.18554
 C683 C 0.08072 0.49811 0.19845
 C684 C 0.08876 0.49895 0.21730
 N685 N 0.10864 0.49968 0.21991
 H686 H 0.11864 0.52590 0.27728
 H687 H 0.08661 0.47550 0.25802
 H688 H 0.06891 0.47375 0.28950
 H689 H 0.10144 0.52550 0.30831
 H690 H 0.13669 0.50177 0.20676
 H691 H 0.12450 0.50055 0.17401
 H692 H 0.06487 0.49664 0.19726
 H693 H 0.07910 0.49879 0.22979
 C694 C 0.15601 0.56022 0.25093
 C695 C 0.15982 0.44305 0.24338
 C696 C 0.09322 0.49765 0.18191
 C697 C 0.08408 0.49929 0.30161
 C698 C -0.13350 1.03079 0.26890
 H699 H -0.12203 1.03012 0.27971
 C700 C -0.14453 1.04789 0.26739
 H701 H -0.14095 1.06018 0.27687
 C702 C -0.15138 1.01606 0.24294
 H703 H -0.15371 1.00370 0.23321
 C704 C -0.16294 1.03277 0.24110
 H705 H -0.17442 1.03288 0.23016
 N706 N -0.13656 1.01558 0.25627
 C707 C -0.13257 0.95583 0.24150
 H708 H -0.12181 0.95770 0.23010
 C709 C -0.14352 0.93823 0.24247
 H710 H -0.14061 0.92669 0.23204
 C711 C -0.14910 0.96828 0.26909
 H712 H -0.15114 0.98006 0.27948
 C713 C -0.16047 0.95102 0.27051
 H714 H -0.17139 0.94983 0.28193
 Zn715 Zn -0.11923 0.99373 0.25535
 N716 N -0.13511 0.97022 0.25504
 C717 C -0.10458 0.97968 0.29110
 N718 N -0.10246 0.99413 0.27762
 C719 C -0.08971 1.00954 0.28062
 C720 C -0.08016 1.01192 0.29859
 C721 C -0.09527 0.98139 0.30912
 C722 C -0.09048 0.98159 0.22749
 C723 C -0.08131 0.98186 0.20921
 C724 C -0.09807 1.01200 0.20216
 C725 C -0.10685 1.01110 0.22041
 N726 N -0.10371 0.99559 0.23233
 H727 H -0.11418 0.96718 0.28827
 H728 H -0.08794 1.02066 0.26952
 H729 H -0.07118 1.02497 0.30124
 H730 H -0.09781 0.97009 0.31993
 H731 H -0.08778 0.96963 0.23743
 H732 H -0.07200 0.96969 0.20541
 H733 H -0.10094 1.02477 0.19334
 H734 H -0.11650 1.02273 0.22483
 C735 C -0.15747 0.93546 0.25735
 C736 C -0.15918 1.04929 0.25301
 C737 C -0.08575 0.99678 0.19572
 C738 C -0.08359 0.99812 0.31339
 C739 C 0.36532 0.53304 -0.22689
 H740 H 0.37631 0.53207 -0.21562
 C741 C 0.35390 0.54988 -0.22804
 H742 H 0.35675 0.56177 -0.21786
 C743 C 0.34893 0.51919 -0.25424
 H744 H 0.34733 0.50726 -0.26460
 C745 C 0.33695 0.53560 -0.25571
 H746 H 0.32587 0.53590 -0.26704
 N747 N 0.36317 0.51843 -0.24034
 C748 C 0.36624 0.45973 -0.25910
 H749 H 0.37632 0.46257 -0.27092
 C750 C 0.35531 0.44313 -0.25926
 H751 H 0.35762 0.43280 -0.27098
 C752 C 0.35174 0.47088 -0.22965
 H753 H 0.35042 0.48170 -0.21818
 C754 C 0.33931 0.45290 -0.22924
 H755 H 0.32864 0.45177 -0.21763
 Zn756 Zn 0.38063 0.49688 -0.24172
 N757 N 0.36467 0.47359 -0.24335
 C758 C 0.39523 0.48119 -0.20658
 N759 N 0.39699 0.49644 -0.21922
 C760 C 0.40900 0.51217 -0.21515
 C761 C 0.41785 0.51408 -0.19682
 C762 C 0.40394 0.48239 -0.18823
 C763 C 0.40841 0.48506 -0.27025
 C764 C 0.41702 0.48571 -0.28874
 C765 C 0.40281 0.51766 -0.29347
 C766 C 0.39427 0.51625 -0.27513
 N767 N 0.39638 0.49972 -0.26432
 H768 H 0.38632 0.46842 -0.21031
 H769 H 0.41054 0.52391 -0.22564
 H770 H 0.42605 0.52742 -0.19328
 H771 H 0.40163 0.47045 -0.17807
 H772 H 0.41026 0.47228 -0.26116
 H773 H 0.42532 0.47326 -0.29383
 H774 H 0.40042 0.53074 -0.30204
 H775 H 0.38539 0.52816 -0.26986
 C776 C 0.34111 0.43888 -0.24315
 C777 C 0.33977 0.55157 -0.24289
 C778 C 0.41355 0.50186 -0.30090
 C779 C 0.41458 0.49945 -0.18279
 C780 C 0.63608 -0.04179 -0.23554
 H781 H 0.62619 -0.03971 -0.22346
 C782 C 0.64616 -0.05853 -0.23686
 H783 H 0.64336 -0.06964 -0.22598
 C784 C 0.65092 -0.02870 -0.26413
 H785 H 0.65230 -0.01733 -0.27502
 C786 C 0.66261 -0.04669 -0.26600
 H787 H 0.67317 -0.04702 -0.27773
 N788 N 0.63811 -0.02690 -0.25023
 C789 C 0.63778 0.03167 -0.26764
 H790 H 0.62764 0.02945 -0.27955
 C791 C 0.64913 0.04902 -0.26685
 H792 H 0.64653 0.05984 -0.27798
 C793 C 0.65233 0.02037 -0.23863
 H794 H 0.65345 0.00912 -0.22762
 C795 C 0.66410 0.03737 -0.23733
 H796 H 0.67467 0.03820 -0.22558
 Zn797 Zn 0.62174 -0.00436 -0.25157
 N798 N 0.63897 0.01811 -0.25322
 C799 C 0.60762 0.01496 -0.21828
 N800 N 0.60598 -0.00203 -0.22868
 C801 C 0.59459 -0.01730 -0.22213
 C802 C 0.58629 -0.01665 -0.20346
 C803 C 0.59940 0.01635 -0.19977
 C804 C 0.59454 0.00887 -0.28038
 C805 C 0.58612 0.00862 -0.29903
 C806 C 0.59802 -0.02433 -0.30341
 C807 C 0.60642 -0.02332 -0.28493
 N808 N 0.60548 -0.00652 -0.27421
 H809 H 0.61587 0.02735 -0.22401
 H810 H 0.59294 -0.03046 -0.23090
 H811 H 0.57849 -0.02947 -0.19794
 H812 H 0.60146 0.02985 -0.19157
 H813 H 0.59348 0.02189 -0.27138
 H814 H 0.57882 0.02160 -0.30427
 H815 H 0.59956 -0.03766 -0.31188
 H816 H 0.61435 -0.03579 -0.27950
 C817 C 0.66223 0.05259 -0.25115
 C818 C 0.66004 -0.06180 -0.25341
 C819 C 0.58859 -0.00786 -0.31114
 C820 C 0.58938 0.00009 -0.19172
 C821 C 0.02725 0.24863 0.85845
 H822 H 0.01807 0.26093 0.85478
 C823 C 0.04585 0.24695 0.85010
 H824 H 0.05056 0.25787 0.83961
 C825 C 0.03162 0.21913 0.87605
 H826 H 0.02604 0.20844 0.88634
 C827 C 0.05054 0.21714 0.86843
 H828 H 0.05937 0.20492 0.87310
 N829 N 0.02033 0.23454 0.87071
 C830 C -0.04282 0.24005 0.86713
 H831 H -0.04580 0.23948 0.88258
 C832 C -0.05832 0.24108 0.85401
 H833 H -0.07328 0.24112 0.85949
 C834 C -0.01959 0.23960 0.84137
 H835 H -0.00452 0.23849 0.83654
 C836 C -0.03474 0.24071 0.82764
 H837 H -0.03117 0.24093 0.81230
 Zn838 Zn -0.00529 0.23704 0.88066
 N839 N -0.02393 0.23959 0.86070
 C840 C -0.01677 0.27486 0.89179
 N841 N -0.00575 0.25926 0.89711
 C842 C 0.00557 0.25980 0.91346
 C843 C 0.00579 0.27646 0.92542
 C844 C -0.01685 0.29180 0.90319
 C845 C -0.01418 0.19769 0.88232
 C846 C -0.01959 0.17967 0.89035
 C847 C -0.02278 0.19573 0.92162
 C848 C -0.01746 0.21354 0.91293
 N849 N -0.01281 0.21403 0.89371
 H850 H -0.02523 0.27441 0.87849
 H851 H 0.01453 0.24732 0.91711
 H852 H 0.01500 0.27684 0.93830
 H853 H -0.02569 0.30410 0.89871
 H854 H -0.01070 0.19869 0.86700
 H855 H -0.01981 0.16664 0.88124
 H856 H -0.02592 0.19532 0.93706
 H857 H -0.01690 0.22683 0.92154
 C858 C -0.05437 0.24159 0.83399
 C859 C 0.05781 0.23101 0.85502
 C860 C -0.02358 0.17851 0.91029
 C861 C -0.00539 0.29277 0.92016
 C862 C 0.48289 0.26972 0.15650
 H863 H 0.49744 0.27169 0.16268
 C864 C 0.46630 0.27133 0.16845
 H865 H 0.46824 0.27415 0.18384
 C866 C 0.46255 0.26366 0.12899
 H867 H 0.46127 0.26075 0.11356
 C868 C 0.44565 0.26513 0.14034
 H869 H 0.43133 0.26347 0.13348
 N870 N 0.48070 0.26557 0.13723
 C871 C 0.53984 0.27999 0.12620
 H872 H 0.53636 0.28890 0.11374
 C873 C 0.55840 0.28192 0.13479
 H874 H 0.56896 0.29236 0.12881
 C875 C 0.53092 0.25453 0.14810
 H876 H 0.52020 0.24366 0.15294
 C877 C 0.54926 0.25608 0.15723
 H878 H 0.55239 0.24656 0.16940
 Zn879 Zn 0.50222 0.26269 0.12004
 N880 N 0.52653 0.26649 0.13297
 C881 C 0.49835 0.30064 0.10834
 N882 N 0.49973 0.28222 0.10085
 C883 C 0.49976 0.27899 0.08129
 C884 C 0.49909 0.29490 0.06843
 C885 C 0.49760 0.31682 0.09613
 C886 C 0.48972 0.22306 0.11726
 C887 C 0.49070 0.20353 0.11116
 C888 C 0.51700 0.21282 0.08918
 C889 C 0.51574 0.23216 0.09594
 N890 N 0.50211 0.23693 0.10959
 H891 H 0.49837 0.30273 0.12395
 H892 H 0.50053 0.26419 0.07564
 H893 H 0.49931 0.29225 0.05290
 H894 H 0.49717 0.33139 0.10251
 H895 H 0.47944 0.22698 0.12855
 H896 H 0.48082 0.19264 0.11748
 H897 H 0.52800 0.20917 0.07841
 H898 H 0.52588 0.24332 0.09057
 C899 C 0.56337 0.26979 0.15045
 C900 C 0.44738 0.26873 0.16040
 C901 C 0.50449 0.19823 0.09699
 C902 C 0.49806 0.31412 0.07589
 C903 C -0.02462 0.76543 0.64382
 H904 H -0.01703 0.77955 0.64429
 C905 C -0.04197 0.76300 0.65279
 H906 H -0.04815 0.77559 0.66005
 C907 C -0.02520 0.73257 0.63168
 H908 H -0.01918 0.72103 0.62279
 C909 C -0.04417 0.72909 0.64152
 H910 H -0.05052 0.71444 0.64053
 N911 N -0.01636 0.74964 0.63278
 C912 C 0.04552 0.76267 0.62207
 H913 H 0.04536 0.76098 0.60642
 C914 C 0.06319 0.76666 0.63167
 H915 H 0.07673 0.76778 0.62338
 C916 C 0.02802 0.76245 0.65194
 H917 H 0.01426 0.76060 0.65970
 C918 C 0.04548 0.76620 0.66220
 H919 H 0.04512 0.76729 0.67792
 Zn920 Zn 0.00594 0.75499 0.61725
 N921 N 0.02842 0.76084 0.63224
 C922 C 0.01207 0.79289 0.60251
 N923 N 0.00011 0.77669 0.60140
 C924 C -0.01640 0.77644 0.59009
 C925 C -0.02114 0.79289 0.57896
 C926 C 0.00809 0.80939 0.59149
 C927 C 0.01928 0.71722 0.61256
 C928 C 0.02340 0.69964 0.60310
 C929 C 0.01345 0.71444 0.57278
 C930 C 0.00959 0.73182 0.58284
 N931 N 0.01208 0.73266 0.60244
 H932 H 0.02462 0.79325 0.61214
 H933 H -0.02593 0.76353 0.58986
 H934 H -0.03424 0.79263 0.56993
 H935 H 0.01780 0.82217 0.59257
 H936 H 0.02129 0.71845 0.62813
 H937 H 0.02829 0.68722 0.61155
 H938 H 0.01097 0.71376 0.55723
 H939 H 0.00424 0.74443 0.57506
 C940 C 0.06330 0.76834 0.65198
 C941 C -0.05291 0.74376 0.65143
 C942 C 0.02009 0.69798 0.58303
 C943 C -0.00859 0.80948 0.57949
 C944 C 0.51609 0.76595 0.35589
 H945 H 0.50577 0.77786 0.35704
 C946 C 0.53366 0.76863 0.34566
 H947 H 0.53690 0.78275 0.33909
 C948 C 0.52452 0.73320 0.36359
 H949 H 0.52099 0.71949 0.37076
 C950 C 0.54223 0.73520 0.35345
 H951 H 0.55198 0.72280 0.35259
 N952 N 0.51177 0.74838 0.36436
 C953 C 0.44836 0.74579 0.36822
 H954 H 0.44695 0.74323 0.38368
 C955 C 0.43163 0.74631 0.35657
 H956 H 0.41728 0.74406 0.36318
 C957 C 0.46898 0.75105 0.34081
 H958 H 0.48361 0.75255 0.33475
 C959 C 0.45255 0.75167 0.32855
 H960 H 0.45461 0.75407 0.31312
 Zn961 Zn 0.48766 0.74609 0.37767
 N962 N 0.46652 0.74836 0.36027
 C963 C 0.47415 0.78134 0.39402
 N964 N 0.48704 0.76644 0.39642
 C965 C 0.50072 0.76690 0.41092
 C966 C 0.50176 0.78284 0.42379
 C967 C 0.47491 0.79767 0.40631
 C968 C 0.48336 0.70561 0.37637
 C969 C 0.48064 0.68655 0.38333
 C970 C 0.48007 0.69970 0.41604
 C971 C 0.48273 0.71854 0.40844
 N972 N 0.48470 0.72106 0.38894
 H973 H 0.46378 0.78101 0.38209
 H974 H 0.51114 0.75510 0.41217
 H975 H 0.51299 0.78331 0.43500
 H976 H 0.46494 0.80969 0.40390
 H977 H 0.48454 0.70816 0.36089
 H978 H 0.48015 0.67436 0.37316
 H979 H 0.47864 0.69787 0.43162
 H980 H 0.48310 0.73107 0.41812
 C981 C 0.43360 0.74943 0.33649
 C982 C 0.54694 0.75308 0.34425
 C983 C 0.47918 0.68342 0.40342
 C984 C 0.48897 0.79859 0.42125
 Zr985 Zr 0.02120 -0.02164 1.03503
 O986 O 0.03830 -0.01138 1.05890
 O987 O 0.01834 -0.05153 1.04141
 O988 O 0.00562 -0.02378 1.06166
 O989 O 0.06048 -0.02594 1.00331
 O990 O -0.02361 -0.00917 1.05499
 O991 O 0.05032 -0.03227 1.03430
 O992 O -0.00174 -0.06362 1.01744
 O993 O -0.00810 -0.02755 1.02689
 O994 O 0.02230 -0.03448 1.00736
 O995 O 0.00715 0.00564 1.03573
 O996 O 0.03667 -0.00135 1.01732
 Zr997 Zr -0.00670 0.00784 0.98056
 Zr998 Zr -0.02165 -0.00011 1.02593
 Zr999 Zr 0.03597 -0.01382 0.98933
 Zr1000 Zr -0.00678 -0.03939 0.99892
 O1001 O 0.06138 0.00372 0.98368
 O1002 O -0.03480 -0.05054 1.00755
 O1003 O 0.00717 -0.01971 0.97954
 O1004 O -0.02180 -0.01271 0.99814
 O1005 O -0.00786 0.02081 1.00815
 O1006 O 0.02250 0.01345 0.98888
 C1007 C 0.00869 -0.06556 1.03299
 C1008 C 0.06336 -0.03242 1.02063
 C1009 C -0.01166 -0.01783 1.06657
 O1010 O -0.04820 -0.01654 1.02919
 O1011 O -0.04496 0.01529 1.01292
 O1012 O -0.03479 0.02056 0.98177
 C1013 C -0.04745 0.02208 0.99562
 O1014 O 0.04058 0.02867 1.04110
 Zr1015 Zr 0.02139 0.02518 1.01683
 O1016 O -0.00378 0.03806 0.97462
 O1017 O -0.02843 0.02434 1.04368
 O1018 O 0.00863 0.04625 1.03560
 O1019 O 0.04839 0.03820 1.00753
 O1020 O 0.01428 0.04984 1.00022
 C1021 C 0.00453 0.05212 0.98439
 O1022 O -0.02508 -0.00200 0.95744
 O1023 O 0.04400 -0.03929 0.97364
 O1024 O 0.00784 0.00829 0.95344
 O1025 O 0.03633 -0.00797 0.95927
 O1026 O 0.00629 -0.06166 0.98182
 O1027 O -0.02340 -0.04432 0.97308
 C1028 C 0.02427 0.00086 0.94789
 H1029 H 0.02969 -0.04690 1.00707
 H1030 H -0.03541 -0.01509 0.99338
 H1031 H 0.02950 0.02254 0.97992
 H1032 H 0.00729 0.01130 1.04902
 H1033 H -0.03505 -0.06486 1.00487
 H1034 H -0.05663 -0.00902 1.03823
 H1035 H -0.04194 0.02201 1.04875
 H1036 H 0.01629 0.05870 1.03419
 H1037 H -0.00153 -0.07393 0.98377
 H1038 H 0.05744 -0.03677 0.96847
 H1039 H 0.06985 -0.00402 0.97487
 H1040 H 0.04816 0.05229 1.01123
 H1041 H -0.02898 -0.05787 0.97315
 H1042 H -0.02764 0.00950 0.94901
 H1043 H 0.04108 -0.02291 1.06722
 H1044 H 0.04394 0.04278 1.04291
 Zr1045 Zr 0.51277 0.48302 0.53320
 O1046 O 0.53205 0.49286 0.55559
 O1047 O 0.50687 0.45407 0.54167
 O1048 O 0.49877 0.48313 0.56056
 O1049 O 0.54995 0.47485 0.49998
 O1050 O 0.47012 0.49921 0.55488
 O1051 O 0.54080 0.46990 0.53150
 O1052 O 0.48497 0.44250 0.51898
 O1053 O 0.48281 0.47902 0.52661
 O1054 O 0.51148 0.46892 0.50616
 O1055 O 0.50075 0.51130 0.53358
 O1056 O 0.52862 0.50154 0.51407
 Zr1057 Zr 0.48420 0.51257 0.47897
 Zr1058 Zr 0.47119 0.50728 0.52539
 Zr1059 Zr 0.52557 0.48798 0.48676
 Zr1060 Zr 0.48177 0.46600 0.49914
 O1061 O 0.55184 0.50329 0.47908
 O1062 O 0.45318 0.45737 0.50861
 O1063 O 0.49602 0.48398 0.47842
 O1064 O 0.46874 0.49371 0.49809
 O1065 O 0.48535 0.52660 0.50611
 O1066 O 0.51408 0.51618 0.48582
 C1067 C 0.49518 0.44076 0.53469
 C1068 C 0.55320 0.46865 0.51734
 C1069 C 0.48214 0.49012 0.56609
 O1070 O 0.44387 0.49280 0.53067
 O1071 O 0.44819 0.52343 0.51294
 O1072 O 0.45688 0.52697 0.48112
 C1073 C 0.44502 0.52957 0.49554
 O1074 O 0.53562 0.53235 0.53658
 Zr1075 Zr 0.51522 0.52910 0.51324
 O1076 O 0.48916 0.54228 0.47157
 O1077 O 0.46707 0.53283 0.54244
 O1078 O 0.50467 0.55179 0.53152
 O1079 O 0.54271 0.53961 0.50244
 O1080 O 0.50947 0.55350 0.49572
 C1081 C 0.49926 0.55596 0.48020
 O1082 O 0.46415 0.50330 0.45700
 O1083 O 0.53081 0.46133 0.47180
 O1084 O 0.49756 0.51100 0.45120
 O1085 O 0.52488 0.49272 0.45664
 O1086 O 0.49273 0.44193 0.48297
 O1087 O 0.46421 0.46133 0.47386
 C1088 C 0.51318 0.50213 0.44539
 H1089 H 0.51784 0.45592 0.50624
 H1090 H 0.45479 0.49208 0.49407
 H1091 H 0.52133 0.52436 0.47623
 H1092 H 0.50197 0.51742 0.54662
 H1093 H 0.45172 0.44302 0.50634
 H1094 H 0.43649 0.50118 0.53985
 H1095 H 0.45380 0.53156 0.54836
 H1096 H 0.51301 0.56366 0.52922
 H1097 H 0.48413 0.43037 0.48581
 H1098 H 0.54409 0.46259 0.46590
 H1099 H 0.55923 0.49457 0.47021
 H1100 H 0.54371 0.55385 0.50551
 H1101 H 0.45800 0.44806 0.47437
 H1102 H 0.46205 0.51469 0.44830
 H1103 H 0.53433 0.48153 0.56432
 H1104 H 0.53984 0.54631 0.53773
 Zr1105 Zr 0.49402 1.01515 0.52042
 O1106 O 0.47489 1.00580 0.54304
 O1107 O 0.49942 1.04479 0.52796
 O1108 O 0.50817 1.01537 0.54780
 O1109 O 0.45660 1.02328 0.48719
 O1110 O 0.53639 0.99848 0.54246
 O1111 O 0.46604 1.02826 0.51867
 O1112 O 0.52117 1.05533 0.50483
 O1113 O 0.52397 1.01890 0.51383
 O1114 O 0.49525 1.02863 0.49319
 O1115 O 0.50573 0.98666 0.52081
 O1116 O 0.47811 0.99614 0.50148
 Zr1117 Zr 0.52241 0.98489 0.46632
 Zr1118 Zr 0.53531 0.99048 0.51286
 Zr1119 Zr 0.48084 1.00943 0.47411
 Zr1120 Zr 0.52496 1.03127 0.48610
 O1121 O 0.45449 0.99391 0.46699
 O1122 O 0.55331 1.04027 0.49610
 O1123 O 0.51039 1.01331 0.46558
 O1124 O 0.53797 1.00366 0.48548
 O1125 O 0.52130 0.97094 0.49342
 O1126 O 0.49249 0.98130 0.47312
 C1127 C 0.51056 1.05805 0.52005
 C1128 C 0.45360 1.02975 0.50456
 C1129 C 0.52452 1.00793 0.55356
 O1130 O 0.56263 1.00500 0.51823
 O1131 O 0.55813 0.97409 0.50053
 O1132 O 0.54958 0.97011 0.46866
 C1133 C 0.56136 0.96767 0.48321
 O1134 O 0.47145 0.96459 0.52393
 Zr1135 Zr 0.49147 0.96838 0.50042
 O1136 O 0.51681 0.95572 0.45813
 O1137 O 0.53940 0.96512 0.53003
 O1138 O 0.50276 0.94587 0.51832
 O1139 O 0.46371 0.95805 0.49000
 O1140 O 0.49678 0.94385 0.48215
 C1141 C 0.50655 0.94196 0.46619
 O1142 O 0.54269 0.99406 0.44464
 O1143 O 0.47543 1.03573 0.45878
 O1144 O 0.50915 0.98646 0.43850
 O1145 O 0.48146 1.00423 0.44403
 O1146 O 0.51445 1.05488 0.46912
 O1147 O 0.54292 1.03511 0.46103
 C1148 C 0.49333 0.99500 0.43276
 H1149 H 0.48890 1.04162 0.49294
 H1150 H 0.55195 1.00520 0.48154
 H1151 H 0.48513 0.97315 0.46352
 H1152 H 0.50448 0.98070 0.53387
 H1153 H 0.55482 1.05454 0.49349
 H1154 H 0.57004 0.99662 0.52735
 H1155 H 0.55278 0.96629 0.53578
 H1156 H 0.49481 0.93378 0.51577
 H1157 H 0.52327 1.06640 0.47154
 H1158 H 0.46214 1.03428 0.45288
 H1159 H 0.44709 1.00233 0.45789
 H1160 H 0.46281 0.94376 0.49267
 H1161 H 0.54950 1.04821 0.46154
 H1162 H 0.54475 0.98266 0.43587
 H1163 H 0.47266 1.01733 0.55161
 H1164 H 0.46768 0.95051 0.52504
 Zr1165 Zr -0.01576 0.50717 1.02166
 O1166 O -0.03456 0.49613 1.04380
 O1167 O -0.01097 0.53639 1.03076
 O1168 O -0.00126 0.50651 1.04892
 O1169 O -0.05321 0.51681 0.98889
 O1170 O 0.02742 0.49082 1.04238
 O1171 O -0.04404 0.51982 1.02069
 O1172 O 0.01161 0.54806 1.00891
 O1173 O 0.01408 0.51185 1.01504
 O1174 O -0.01488 0.52212 0.99516
 O1175 O -0.00337 0.47900 1.02060
 O1176 O -0.03137 0.48891 1.00180
 Zr1177 Zr 0.01299 0.48051 0.96595
 Zr1178 Zr 0.02607 0.48385 1.01259
 Zr1179 Zr -0.02901 0.50365 0.97512
 Zr1180 Zr 0.01473 0.52574 0.98806
 O1181 O -0.05524 0.48803 0.96781
 O1182 O 0.04332 0.53460 0.99751
 O1183 O 0.00040 0.50866 0.96666
 O1184 O 0.02832 0.49852 0.98594
 O1185 O 0.01233 0.46513 0.99229
 O1186 O -0.01679 0.47584 0.97273
 C1187 C 0.00084 0.54978 1.02417
 C1188 C -0.05636 0.52216 1.00659
 C1189 C 0.01555 0.49954 1.05404
 O1190 O 0.05325 0.49848 1.01835
 O1191 O 0.04900 0.46842 0.99927
 O1192 O 0.04052 0.46640 0.96723
 C1193 C 0.05232 0.46323 0.98157
 O1194 O -0.03755 0.45637 1.02250
 Zr1195 Zr -0.01739 0.46156 0.99937
 O1196 O 0.00832 0.45159 0.95651
 O1197 O 0.03066 0.45783 1.02863
 O1198 O -0.00575 0.43858 1.01644
 O1199 O -0.04468 0.45073 0.98826
 O1200 O -0.01098 0.43803 0.98025
 C1201 C -0.00112 0.43708 0.96426
 O1202 O 0.03282 0.49132 0.94458
 O1203 O -0.03478 0.53047 0.96084
 O1204 O -0.00047 0.48307 0.93836
 O1205 O -0.02878 0.49946 0.94482
 O1206 O 0.00345 0.55050 0.97334
 O1207 O 0.03178 0.53138 0.96270
 C1208 C -0.01672 0.49108 0.93310
 H1209 H -0.02138 0.53503 0.99570
 H1210 H 0.04223 0.50055 0.98198
 H1211 H -0.02397 0.46792 0.96281
 H1212 H -0.00439 0.47240 1.03338
 H1213 H 0.04455 0.54901 0.99564
 H1214 H 0.06092 0.48976 1.02692
 H1215 H 0.04407 0.45897 1.03431
 H1216 H -0.01341 0.42643 1.01334
 H1217 H 0.01220 0.56189 0.97648
 H1218 H -0.04807 0.52908 0.95493
 H1219 H -0.06284 0.49663 0.95905
 H1220 H -0.04509 0.43632 0.99036
 H1221 H 0.03794 0.54465 0.96364
 H1222 H 0.03514 0.48045 0.93523
 H1223 H -0.03694 0.50710 1.05302
 H1224 H -0.04098 0.44217 1.02305
 Zr1225 Zr -0.02656 0.49302 0.46193
 O1226 O -0.04589 0.50200 0.43957
 O1227 O -0.02163 0.46382 0.45428
 O1228 O -0.01270 0.49218 0.43437
 O1229 O -0.06316 0.48481 0.49618
 O1230 O 0.01658 0.50837 0.43958
 O1231 O -0.05485 0.47946 0.46448
 O1232 O 0.00030 0.45334 0.47703
 O1233 O 0.00340 0.48959 0.46833
 O1234 O -0.02518 0.47994 0.48938
 O1235 O -0.01383 0.52139 0.46065
 O1236 O -0.04178 0.51195 0.48082
 Zr1237 Zr 0.00330 0.52471 0.51494
 Zr1238 Zr 0.01576 0.51798 0.46866
 Zr1239 Zr -0.03864 0.49940 0.50851
 Zr1240 Zr 0.00452 0.47754 0.49611
 O1241 O -0.06454 0.51469 0.51580
 O1242 O 0.03273 0.46891 0.48632
 O1243 O -0.00907 0.49603 0.51652
 O1244 O 0.01818 0.50539 0.49626
 O1245 O 0.00218 0.53781 0.48749
 O1246 O -0.02658 0.52778 0.50843
 C1247 C -0.01027 0.45086 0.46159
 C1248 C -0.06676 0.47791 0.47907
 C1249 C 0.00432 0.49870 0.42871
 O1250 O 0.04279 0.50376 0.46348
 O1251 O 0.03949 0.53452 0.48056
 O1252 O 0.03078 0.53938 0.51221
 C1253 C 0.04278 0.54135 0.49780
 O1254 O -0.04831 0.54176 0.45743
 Zr1255 Zr -0.02774 0.53971 0.48066
 O1256 O -0.00068 0.55462 0.52143
 O1257 O 0.02012 0.54297 0.45086
 O1258 O -0.01685 0.56190 0.46173
 O1259 O -0.05490 0.55034 0.49134
 O1260 O -0.02144 0.56482 0.49755
 C1261 C -0.01072 0.56787 0.51272
 O1262 O 0.02335 0.51638 0.53695
 O1263 O -0.04420 0.47333 0.52446
 O1264 O -0.00972 0.52425 0.54282
 O1265 O -0.03734 0.50510 0.53861
 O1266 O -0.00666 0.45394 0.51315
 O1267 O 0.02242 0.47387 0.52119
 C1268 C -0.02523 0.51521 0.54926
 H1269 H -0.03174 0.46684 0.48981
 H1270 H 0.03213 0.50403 0.50022
 H1271 H -0.03351 0.53622 0.51789
 H1272 H -0.01501 0.52699 0.44743
 H1273 H 0.03387 0.45464 0.48884
 H1274 H 0.05025 0.51192 0.45399
 H1275 H 0.03331 0.54166 0.44484
 H1276 H -0.02492 0.57374 0.46378
 H1277 H 0.00160 0.44237 0.51046
 H1278 H -0.05731 0.47471 0.53063
 H1279 H -0.07195 0.50630 0.52512
 H1280 H -0.05568 0.56439 0.48768
 H1281 H 0.02842 0.46070 0.52083
 H1282 H 0.02588 0.52809 0.54530
 H1283 H -0.04856 0.49035 0.43118
 H1284 H -0.05207 0.55565 0.45573
 Zr1285 Zr 0.48947 -0.01066 -0.02513
 O1286 O 0.47158 -0.00352 -0.04929
 O1287 O 0.49401 -0.04079 -0.02975
 O1288 O 0.50458 -0.01348 -0.05183
 O1289 O 0.45071 -0.01511 0.00727
 O1290 O 0.53342 0.00346 -0.04686
 O1291 O 0.46081 -0.02324 -0.02330
 O1292 O 0.51418 -0.04947 -0.00477
 O1293 O 0.51898 -0.01403 -0.01697
 O1294 O 0.48908 -0.02141 0.00330
 O1295 O 0.50255 0.01748 -0.02777
 O1296 O 0.47371 0.01014 -0.00869
 Zr1297 Zr 0.51711 0.02472 0.02705
 Zr1298 Zr 0.53159 0.01424 -0.01818
 Zr1299 Zr 0.47496 -0.00027 0.01995
 Zr1300 Zr 0.51835 -0.02364 0.01182
 O1301 O 0.44922 0.01623 0.02469
 O1302 O 0.54667 -0.03369 0.00388
 O1303 O 0.50397 -0.00350 0.02992
 O1304 O 0.53248 0.00387 0.01046
 O1305 O 0.51767 0.03568 -0.00139
 O1306 O 0.48768 0.02783 0.01872
 C1307 C 0.50423 -0.05337 -0.02030
 C1308 C 0.44796 -0.02323 -0.00947
 C1309 C 0.52149 -0.00679 -0.05757
 O1310 O 0.55838 -0.00100 -0.02106
 O1311 O 0.55477 0.03141 -0.00645
 O1312 O 0.54524 0.03841 0.02457
 C1313 C 0.55770 0.03923 0.01041
 O1314 O 0.46859 0.03855 -0.03395
 Zr1315 Zr 0.48824 0.03768 -0.00988
 O1316 O 0.51298 0.05496 0.03154
 O1317 O 0.53748 0.03791 -0.03731
 O1318 O 0.50032 0.05788 -0.03026
 O1319 O 0.46108 0.04978 -0.00093
 O1320 O 0.49516 0.06406 0.00501
 C1321 C 0.50455 0.06789 0.02089
 O1322 O 0.53599 0.01797 0.05058
 O1323 O 0.46759 -0.02498 0.03729
 O1324 O 0.50278 0.02570 0.05442
 O1325 O 0.47485 0.00716 0.04955
 O1326 O 0.50598 -0.04527 0.03054
 O1327 O 0.53522 -0.02533 0.03782
 C1328 C 0.48672 0.01725 0.06042
 H1329 H 0.48215 -0.03427 0.00448
 H1330 H 0.54621 0.00256 0.01513
 H1331 H 0.48050 0.03705 0.02723
 H1332 H 0.50204 0.02215 -0.04138
 H1333 H 0.54743 -0.04767 0.00777
 H1334 H 0.56653 0.00639 -0.03061
 H1335 H 0.55097 0.03604 -0.04247
 H1336 H 0.49255 0.07007 -0.02946
 H1337 H 0.51420 -0.05714 0.02950
 H1338 H 0.45416 -0.02286 0.04249
 H1339 H 0.44106 0.00874 0.03414
 H1340 H 0.46101 0.06364 -0.00529
 H1341 H 0.54106 -0.03853 0.03881
 H1342 H 0.53816 0.03025 0.05819
 H1343 H 0.46919 -0.01582 -0.05682
 H1344 H 0.46491 0.05233 -0.03650
 Zr1345 Zr 0.51199 0.53259 -0.01730
 O1346 O 0.53081 0.52346 -0.04005
 O1347 O 0.50809 0.56246 -0.02408
 O1348 O 0.49802 0.53350 -0.04488
 O1349 O 0.55012 0.53797 0.01612
 O1350 O 0.46831 0.51840 -0.03946
 O1351 O 0.54066 0.54501 -0.01491
 O1352 O 0.48652 0.57267 -0.00088
 O1353 O 0.48241 0.53730 -0.01024
 O1354 O 0.51195 0.54507 0.01055
 O1355 O 0.49812 0.50466 -0.01876
 O1356 O 0.52656 0.51228 0.00076
 Zr1357 Zr 0.48176 0.50158 0.03559
 Zr1358 Zr 0.46892 0.50945 -0.01035
 Zr1359 Zr 0.52502 0.52453 0.02879
 Zr1360 Zr 0.48255 0.54869 0.01800
 O1361 O 0.55037 0.50786 0.03475
 O1362 O 0.45435 0.55891 0.00987
 O1363 O 0.49587 0.52940 0.03768
 O1364 O 0.46741 0.52168 0.01756
 O1365 O 0.48168 0.48874 0.00792
 O1366 O 0.51127 0.49683 0.02847
 C1367 C 0.49692 0.57543 -0.01629
 C1368 C 0.55331 0.54529 -0.00088
 C1369 C 0.48097 0.52701 -0.05059
 O1370 O 0.44279 0.52538 -0.01477
 O1371 O 0.44509 0.49338 0.00143
 O1372 O 0.45366 0.48784 0.03298
 C1373 C 0.44173 0.48618 0.01841
 O1374 O 0.53162 0.48201 -0.02258
 Zr1375 Zr 0.51118 0.48506 0.00061
 O1376 O 0.48383 0.47167 0.04151
 O1377 O 0.46265 0.48498 -0.02857
 O1378 O 0.49899 0.46414 -0.01916
 O1379 O 0.53750 0.47248 0.01117
 O1380 O 0.50254 0.45979 0.01676
 C1381 C 0.49185 0.45754 0.03214
 O1382 O 0.46278 0.51105 0.05806
 O1383 O 0.53215 0.54991 0.04543
 O1384 O 0.49564 0.50032 0.06301
 O1385 O 0.52451 0.51748 0.05865
 O1386 O 0.49536 0.57186 0.03474
 O1387 O 0.46599 0.55239 0.04394
 C1388 C 0.51217 0.50761 0.06921
 H1389 H 0.51909 0.55787 0.01114
 H1390 H 0.45361 0.52355 0.02175
 H1391 H 0.51784 0.48772 0.03751
 H1392 H 0.49887 0.49908 -0.03205
 H1393 H 0.45389 0.57308 0.01320
 H1394 H 0.43459 0.51765 -0.02408
 H1395 H 0.44935 0.48697 -0.03415
 H1396 H 0.50610 0.45168 -0.01730
 H1397 H 0.48727 0.58367 0.03267
 H1398 H 0.54534 0.54775 0.05118
 H1399 H 0.55846 0.51561 0.04414
 H1400 H 0.53706 0.45834 0.00762
 H1401 H 0.46085 0.56592 0.04450
 H1402 H 0.45966 0.49940 0.06621
 H1403 H 0.53368 0.53514 -0.04826
 H1404 H 0.53468 0.46794 -0.02436
 Zr1405 Zr 0.02396 1.02370 0.47410
 O1406 O 0.04265 1.01874 0.44997
 O1407 O 0.01732 1.05345 0.47041
 O1408 O 0.00899 1.02590 0.44706
 O1409 O 0.06226 1.02973 0.50726
 O1410 O -0.01889 1.00733 0.45166
 O1411 O 0.05177 1.03797 0.47687
 O1412 O -0.00486 1.05947 0.49452
 O1413 O -0.00582 1.02465 0.48202
 O1414 O 0.02331 1.03364 0.50294
 O1415 O 0.01294 0.99486 0.47029
 O1416 O 0.04107 1.00377 0.49016
 Zr1417 Zr -0.00167 0.98492 0.52440
 Zr1418 Zr -0.01640 0.99569 0.47968
 Zr1419 Zr 0.03875 1.01311 0.51922
 Zr1420 Zr -0.00619 1.03348 0.51110
 O1421 O 0.06566 0.99858 0.52399
 O1422 O -0.03546 1.04137 0.50406
 O1423 O 0.00938 1.01386 0.52873
 O1424 O -0.01838 1.00513 0.50857
 O1425 O -0.00099 0.97484 0.49565
 O1426 O 0.02808 0.98427 0.51651
 C1427 C 0.00518 1.06458 0.47943
 C1428 C 0.06467 1.03827 0.49070
 C1429 C -0.00761 1.01839 0.44122
 O1430 O -0.04422 1.00907 0.47704
 O1431 O -0.03854 0.97667 0.49039
 O1432 O -0.02864 0.96915 0.52112
 C1433 C -0.04096 0.96798 0.50682
 O1434 O 0.04837 0.97683 0.46357
 Zr1435 Zr 0.02869 0.97537 0.48758
 O1436 O 0.00378 0.95478 0.52712
 O1437 O -0.02042 0.97234 0.45956
 O1438 O 0.01828 0.95474 0.46660
 O1439 O 0.05685 0.96545 0.49622
 O1440 O 0.02430 0.94827 0.50172
 C1441 C 0.01411 0.94309 0.51667
 O1442 O -0.02099 0.98983 0.54805
 O1443 O 0.04377 1.03779 0.53751
 O1444 O 0.01274 0.98308 0.55153
 O1445 O 0.03909 1.00418 0.54861
 O1446 O 0.00463 1.05602 0.52987
 O1447 O -0.02266 1.03326 0.53738
 C1448 C 0.02806 0.99219 0.55841
 H1449 H 0.02925 1.04694 0.50452
 H1450 H -0.03222 1.00526 0.51315
 H1451 H 0.03584 0.97526 0.52468
 H1452 H 0.01388 0.99063 0.45653
 H1453 H -0.03728 1.05511 0.50846
 H1454 H -0.05180 1.00144 0.46716
 H1455 H -0.03396 0.97344 0.45428
 H1456 H 0.02705 0.94324 0.46706
 H1457 H -0.00455 1.06715 0.52895
 H1458 H 0.05722 1.03651 0.54294
 H1459 H 0.07308 1.00643 0.53381
 H1460 H 0.05820 0.95183 0.49126
 H1461 H -0.02921 1.04605 0.53906
 H1462 H -0.02256 0.97719 0.55510
 H1463 H 0.04418 1.03140 0.44295
 H1464 H 0.05303 0.96347 0.46046
 Zr1465 Zr 0.73761 0.25655 0.22205
 O1466 O 0.74983 0.27582 0.20096
 O1467 O 0.70865 0.25240 0.21170
 O1468 O 0.73938 0.24300 0.19448
 O1469 O 0.72775 0.29320 0.25537
 O1470 O 0.75458 0.21403 0.20061
 O1471 O 0.72507 0.28482 0.22335
 O1472 O 0.69584 0.22917 0.23218
 O1473 O 0.73229 0.22665 0.22757
 O1474 O 0.72155 0.25515 0.24792
 O1475 O 0.76563 0.24371 0.22380
 O1476 O 0.75539 0.27130 0.24291
 Zr1477 Zr 0.76180 0.22604 0.27784
 Zr1478 Zr 0.76009 0.21419 0.23075
 Zr1479 Zr 0.73954 0.26837 0.26893
 Zr1480 Zr 0.71724 0.22547 0.25398
 O1481 O 0.75516 0.29405 0.27787
 O1482 O 0.70847 0.19723 0.24364
 O1483 O 0.73375 0.23894 0.27638
 O1484 O 0.74429 0.21152 0.25679
 O1485 O 0.77819 0.22715 0.25205
 O1486 O 0.76719 0.25580 0.27205
 C1487 C 0.69487 0.24046 0.21726
 C1488 C 0.72282 0.29688 0.23769
 C1489 C 0.74659 0.22646 0.18904
 O1490 O 0.74516 0.18758 0.22354
 O1491 O 0.77457 0.19059 0.24400
 O1492 O 0.77549 0.19840 0.27627
 C1493 C 0.77908 0.18687 0.26181
 O1494 O 0.78872 0.27766 0.22365
 Zr1495 Zr 0.78249 0.25691 0.24595
 O1496 O 0.79080 0.22941 0.28789
 O1497 O 0.78685 0.20956 0.21576
 O1498 O 0.80608 0.24577 0.22921
 O1499 O 0.79313 0.28362 0.25844
 O1500 O 0.80536 0.24949 0.26545
 C1501 C 0.80581 0.23871 0.28084
 O1502 O 0.74979 0.20608 0.29841
 O1503 O 0.71210 0.27419 0.28220
 O1504 O 0.75866 0.23901 0.30571
 O1505 O 0.74239 0.26729 0.29922
 O1506 O 0.69190 0.23675 0.26787
 O1507 O 0.71026 0.20806 0.27871
 C1508 C 0.75044 0.25515 0.31099
 H1509 H 0.70874 0.26185 0.24707
 H1510 H 0.74191 0.19758 0.26031
 H1511 H 0.77490 0.26251 0.28243
 H1512 H 0.77281 0.24501 0.21133
 H1513 H 0.69394 0.19615 0.24487
 H1514 H 0.75412 0.18007 0.21502
 H1515 H 0.78570 0.19643 0.20953
 H1516 H 0.81816 0.25330 0.23289
 H1517 H 0.68052 0.22826 0.26401
 H1518 H 0.71339 0.28729 0.28848
 H1519 H 0.74615 0.30159 0.28632
 H1520 H 0.80766 0.28393 0.25692
 H1521 H 0.69689 0.20218 0.27716
 H1522 H 0.76033 0.20331 0.30800
 H1523 H 0.73926 0.27863 0.19142
 H1524 H 0.80292 0.28127 0.22393
 Zr1525 Zr 0.77626 0.73888 0.72343
 O1526 O 0.76963 0.72082 0.69902
 O1527 O 0.80622 0.74539 0.71880
 O1528 O 0.77811 0.75431 0.69683
 O1529 O 0.78190 0.70006 0.75518
 O1530 O 0.76036 0.78192 0.70238
 O1531 O 0.78959 0.71108 0.72480
 O1532 O 0.81426 0.76653 0.74345
 O1533 O 0.77856 0.76843 0.73185
 O1534 O 0.78737 0.73901 0.75181
 O1535 O 0.74757 0.74986 0.72100
 O1536 O 0.75630 0.72153 0.73985
 Zr1537 Zr 0.74025 0.76341 0.77587
 Zr1538 Zr 0.74974 0.77894 0.73092
 Zr1539 Zr 0.76691 0.72333 0.76850
 Zr1540 Zr 0.78854 0.76829 0.76056
 O1541 O 0.75167 0.69641 0.77349
 O1542 O 0.79719 0.79740 0.75309
 O1543 O 0.76907 0.75241 0.77866
 O1544 O 0.76040 0.78040 0.75948
 O1545 O 0.72900 0.76328 0.74751
 O1546 O 0.73827 0.73393 0.76731
 C1547 C 0.81844 0.75677 0.72796
 C1548 C 0.78968 0.69791 0.73824
 C1549 C 0.77081 0.77080 0.69143
 O1550 O 0.76376 0.80685 0.72841
 O1551 O 0.73149 0.80051 0.74288
 O1552 O 0.72519 0.79032 0.77382
 C1553 C 0.72355 0.80267 0.75974
 O1554 O 0.72792 0.71471 0.71427
 Zr1555 Zr 0.72817 0.73388 0.73876
 O1556 O 0.71005 0.75745 0.78000
 O1557 O 0.72573 0.78316 0.71178
 O1558 O 0.70698 0.74453 0.71887
 O1559 O 0.71770 0.70564 0.74728
 O1560 O 0.70173 0.73809 0.75405
 C1561 C 0.69749 0.74757 0.76967
 O1562 O 0.74668 0.78235 0.79966
 O1563 O 0.79232 0.71798 0.78546
 O1564 O 0.73935 0.74858 0.80285
 O1565 O 0.75934 0.72235 0.79814
 O1566 O 0.81120 0.75746 0.77870
 O1567 O 0.78992 0.78474 0.78688
 C1568 C 0.74829 0.73314 0.80885
 H1569 H 0.80052 0.73298 0.75277
 H1570 H 0.76114 0.79412 0.76431
 H1571 H 0.72936 0.72601 0.77570
 H1572 H 0.74277 0.74914 0.70740
 H1573 H 0.81123 0.79919 0.75681
 H1574 H 0.75594 0.81448 0.71898
 H1575 H 0.72699 0.79678 0.70680
 H1576 H 0.69521 0.73573 0.71961
 H1577 H 0.82265 0.76664 0.77762
 H1578 H 0.79092 0.70440 0.79049
 H1579 H 0.75979 0.68881 0.78270
 H1580 H 0.70376 0.70439 0.74304
 H1581 H 0.80287 0.79164 0.78782
 H1582 H 0.73437 0.78362 0.80733
 H1583 H 0.78198 0.71939 0.69144
 H1584 H 0.71429 0.70987 0.71183
 Zr1585 Zr 0.22690 0.23613 0.77163
 O1586 O 0.23864 0.21667 0.79248
 O1587 O 0.19835 0.24032 0.78244
 O1588 O 0.22939 0.24940 0.79944
 O1589 O 0.21608 0.19960 0.73792
 O1590 O 0.24519 0.27849 0.79316
 O1591 O 0.21382 0.20779 0.77002
 O1592 O 0.18641 0.26438 0.76284
 O1593 O 0.22257 0.26604 0.76649
 O1594 O 0.21046 0.23789 0.74597
 O1595 O 0.25536 0.24876 0.76975
 O1596 O 0.24368 0.22161 0.75024
 Zr1597 Zr 0.25157 0.26747 0.71591
 Zr1598 Zr 0.25074 0.27832 0.76319
 Zr1599 Zr 0.22764 0.22503 0.72442
 Zr1600 Zr 0.20721 0.26768 0.74031
 O1601 O 0.24224 0.19983 0.71403
 O1602 O 0.19959 0.29602 0.75052
 O1603 O 0.22300 0.25464 0.71753
 O1604 O 0.23478 0.28161 0.73737
 O1605 O 0.26807 0.26565 0.74159
 O1606 O 0.25576 0.23753 0.72115
 C1607 C 0.18528 0.25290 0.77764
 C1608 C 0.21151 0.19568 0.75568
 C1609 C 0.23690 0.26611 0.80479
 O1610 O 0.23710 0.30509 0.77055
 O1611 O 0.26637 0.30162 0.75041
 O1612 O 0.26652 0.29513 0.71788
 C1613 C 0.27096 0.30596 0.73279
 O1614 O 0.27672 0.21438 0.76885
 Zr1615 Zr 0.27127 0.23578 0.74714
 O1616 O 0.28055 0.26474 0.70604
 O1617 O 0.27767 0.28246 0.77836
 O1618 O 0.29552 0.24618 0.76401
 O1619 O 0.28074 0.20940 0.73383
 O1620 O 0.29421 0.24375 0.72786
 C1621 C 0.29515 0.25528 0.71306
 O1622 O 0.23997 0.28771 0.69576
 O1623 O 0.19951 0.21911 0.71214
 O1624 O 0.24789 0.25468 0.68790
 O1625 O 0.22913 0.22719 0.69403
 O1626 O 0.18116 0.25629 0.72702
 O1627 O 0.20032 0.28516 0.71573
 C1628 C 0.23795 0.23925 0.68243
 H1629 H 0.19746 0.23114 0.74702
 H1630 H 0.23294 0.29562 0.73412
 H1631 H 0.26309 0.23103 0.71054
 H1632 H 0.26262 0.24729 0.78215
 H1633 H 0.18507 0.29710 0.74951
 H1634 H 0.24641 0.31246 0.77910
 H1635 H 0.27714 0.29554 0.78473
 H1636 H 0.30720 0.23856 0.76011
 H1637 H 0.17012 0.26460 0.73134
 H1638 H 0.20028 0.20620 0.70549
 H1639 H 0.23266 0.19244 0.70578
 H1640 H 0.29528 0.20898 0.73525
 H1641 H 0.18693 0.29054 0.71725
 H1642 H 0.25053 0.29064 0.68618
 H1643 H 0.22805 0.21375 0.80205
 H1644 H 0.29073 0.21055 0.76833
 Zr1645 Zr 0.24760 0.77636 0.28922
 O1646 O 0.23699 0.79450 0.31185
 O1647 O 0.27718 0.77367 0.29681
 O1648 O 0.24912 0.76196 0.31641
 O1649 O 0.25388 0.81393 0.25600
 O1650 O 0.23456 0.73205 0.31042
 O1651 O 0.25986 0.80520 0.28742
 O1652 O 0.28937 0.75289 0.27387
 O1653 O 0.25294 0.74688 0.28232
 O1654 O 0.26112 0.77627 0.26191
 O1655 O 0.21992 0.76197 0.28987
 O1656 O 0.22794 0.79075 0.27048
 Zr1657 Zr 0.21841 0.74584 0.23515
 Zr1658 Zr 0.22520 0.73292 0.28129
 Zr1659 Zr 0.24109 0.78890 0.24292
 Zr1660 Zr 0.26547 0.74702 0.25470
 O1661 O 0.22421 0.81378 0.23589
 O1662 O 0.27567 0.71950 0.26456
 O1663 O 0.24643 0.75987 0.23435
 O1664 O 0.23835 0.73180 0.25381
 O1665 O 0.20479 0.74560 0.26245
 O1666 O 0.21343 0.77522 0.24225
 C1667 C 0.29115 0.76368 0.28927
 C1668 C 0.26075 0.81748 0.27313
 C1669 C 0.24350 0.74455 0.32162
 O1670 O 0.24085 0.70668 0.28591
 O1671 O 0.20990 0.70872 0.26876
 O1672 O 0.20495 0.71776 0.23727
 C1673 C 0.20336 0.70546 0.25142
 O1674 O 0.19716 0.79480 0.29360
 Zr1675 Zr 0.20100 0.77507 0.26991
 O1676 O 0.18845 0.74888 0.22780
 O1677 O 0.20026 0.72682 0.29885
 O1678 O 0.17912 0.76241 0.28823
 O1679 O 0.18890 0.80169 0.25972
 O1680 O 0.17655 0.76770 0.25247
 C1681 C 0.17441 0.75778 0.23664
 O1682 O 0.22805 0.72642 0.21308
 O1683 O 0.26711 0.79656 0.22751
 O1684 O 0.21946 0.75898 0.20735
 O1685 O 0.23620 0.78781 0.21277
 O1686 O 0.28856 0.75961 0.23782
 O1687 O 0.27065 0.72959 0.22956
 C1688 C 0.22768 0.77513 0.20150
 H1689 H 0.27384 0.78363 0.26164
 H1690 H 0.24055 0.71808 0.24961
 H1691 H 0.20481 0.78184 0.23276
 H1692 H 0.21407 0.76253 0.30304
 H1693 H 0.29010 0.71929 0.26234
 H1694 H 0.23301 0.69864 0.29519
 H1695 H 0.20223 0.71364 0.30454
 H1696 H 0.16677 0.76971 0.28615
 H1697 H 0.30065 0.75210 0.24052
 H1698 H 0.26501 0.80968 0.22172
 H1699 H 0.23231 0.82189 0.22688
 H1700 H 0.17469 0.80150 0.26307
 H1701 H 0.28409 0.72416 0.23023
 H1702 H 0.21660 0.72352 0.20447
 H1703 H 0.24837 0.79774 0.32043
 H1704 H 0.18298 0.79769 0.29508
 Zr1705 Zr 0.23169 0.75601 0.73079
 O1706 O 0.24223 0.77340 0.70739
 O1707 O 0.20155 0.75293 0.72395
 O1708 O 0.22984 0.74093 0.70387
 O1709 O 0.22752 0.79515 0.76274
 O1710 O 0.24455 0.71171 0.70996
 O1711 O 0.22097 0.78495 0.73174
 O1712 O 0.18963 0.73273 0.74771
 O1713 O 0.22544 0.72682 0.73849
 O1714 O 0.21868 0.75703 0.75831
 O1715 O 0.25906 0.74188 0.73034
 O1716 O 0.25234 0.77094 0.74885
 Zr1717 Zr 0.26030 0.72729 0.78532
 Zr1718 Zr 0.25283 0.71311 0.73941
 Zr1719 Zr 0.23947 0.77042 0.77657
 Zr1720 Zr 0.21353 0.72800 0.76646
 O1721 O 0.25736 0.79555 0.78238
 O1722 O 0.20204 0.70007 0.75797
 O1723 O 0.23305 0.74174 0.78616
 O1724 O 0.23992 0.71264 0.76707
 O1725 O 0.27374 0.72619 0.75795
 O1726 O 0.26657 0.75641 0.77748
 C1727 C 0.18759 0.74296 0.73219
 C1728 C 0.22092 0.79799 0.74541
 C1729 C 0.23602 0.72391 0.69856
 O1730 O 0.23586 0.68705 0.73527
 O1731 O 0.26776 0.68968 0.75231
 O1732 O 0.27255 0.69898 0.78387
 C1733 C 0.27417 0.68669 0.76967
 O1734 O 0.28349 0.77466 0.72603
 Zr1735 Zr 0.27887 0.75532 0.74986
 O1736 O 0.29029 0.72952 0.79210
 O1737 O 0.27751 0.70614 0.72205
 O1738 O 0.29985 0.74221 0.73125
 O1739 O 0.29220 0.78192 0.75986
 O1740 O 0.30334 0.74734 0.76709
 C1741 C 0.30489 0.73735 0.78291
 O1742 O 0.24970 0.70896 0.80798
 O1743 O 0.21402 0.77866 0.79221
 O1744 O 0.26065 0.74166 0.81263
 O1745 O 0.24546 0.77066 0.80657
 O1746 O 0.19089 0.74116 0.78302
 O1747 O 0.20868 0.71181 0.79245
 C1748 C 0.25383 0.75840 0.81804
 H1749 H 0.20625 0.76444 0.75851
 H1750 H 0.23729 0.69904 0.77156
 H1751 H 0.27570 0.76315 0.78667
 H1752 H 0.26490 0.74216 0.71715
 H1753 H 0.18773 0.69988 0.76089
 H1754 H 0.24350 0.67855 0.72641
 H1755 H 0.27511 0.69272 0.71681
 H1756 H 0.31260 0.74929 0.73322
 H1757 H 0.17871 0.73310 0.78115
 H1758 H 0.21673 0.79198 0.79756
 H1759 H 0.24975 0.80405 0.79126
 H1760 H 0.30646 0.78129 0.75683
 H1761 H 0.19510 0.70625 0.79243
 H1762 H 0.26105 0.70612 0.81659
 H1763 H 0.23078 0.77626 0.69891
 H1764 H 0.29777 0.77761 0.72467
 Zr1765 Zr 0.26370 0.23518 0.21468
 O1766 O 0.25308 0.21751 0.19137
 O1767 O 0.29358 0.23800 0.20784
 O1768 O 0.26584 0.24999 0.18779
 O1769 O 0.26820 0.19678 0.24702
 O1770 O 0.25173 0.27954 0.19397
 O1771 O 0.27470 0.20631 0.21590
 O1772 O 0.30602 0.25852 0.23127
 O1773 O 0.26985 0.26452 0.22221
 O1774 O 0.27674 0.23466 0.24223
 O1775 O 0.23643 0.24936 0.21384
 O1776 O 0.24328 0.22026 0.23269
 Zr1777 Zr 0.23442 0.26438 0.26887
 Zr1778 Zr 0.24244 0.27822 0.22307
 Zr1779 Zr 0.25596 0.22151 0.26052
 Zr1780 Zr 0.28184 0.26379 0.25010
 O1781 O 0.23826 0.19634 0.26652
 O1782 O 0.29300 0.29160 0.24108
 O1783 O 0.26203 0.25040 0.26982
 O1784 O 0.25512 0.27887 0.25083
 O1785 O 0.22140 0.26504 0.24127
 O1786 O 0.22866 0.23512 0.26102
 C1787 C 0.30776 0.24788 0.21579
 C1788 C 0.27494 0.19363 0.22980
 C1789 C 0.26029 0.26725 0.18263
 O1790 O 0.25901 0.30457 0.21934
 O1791 O 0.22718 0.30182 0.23562
 O1792 O 0.22185 0.29254 0.26702
 C1793 C 0.22042 0.30483 0.25286
 O1794 O 0.21296 0.21607 0.20930
 Zr1795 Zr 0.21679 0.23576 0.23313
 O1796 O 0.20407 0.26159 0.27520
 O1797 O 0.21798 0.28470 0.20520
 O1798 O 0.19579 0.24826 0.21414
 O1799 O 0.20344 0.20922 0.24307
 O1800 O 0.19215 0.24356 0.24965
 C1801 C 0.18987 0.25341 0.26545
 O1802 O 0.24432 0.28321 0.29160
 O1803 O 0.28143 0.21373 0.27638
 O1804 O 0.23444 0.25038 0.29636
 O1805 O 0.25016 0.22161 0.29050
 O1806 O 0.30424 0.25090 0.26715
 O1807 O 0.28707 0.28073 0.27569
 C1808 C 0.24173 0.23390 0.30192
 H1809 H 0.28920 0.22730 0.24256
 H1810 H 0.25760 0.29254 0.25532
 H1811 H 0.21956 0.22837 0.27016
 H1812 H 0.23074 0.24898 0.20057
 H1813 H 0.30739 0.29184 0.24358
 H1814 H 0.25158 0.31277 0.21007
 H1815 H 0.22044 0.29801 0.19981
 H1816 H 0.18321 0.24083 0.21576
 H1817 H 0.31660 0.25853 0.26488
 H1818 H 0.27890 0.20041 0.28170
 H1819 H 0.24597 0.18799 0.27542
 H1820 H 0.18929 0.20954 0.23947
 H1821 H 0.30072 0.28615 0.27545
 H1822 H 0.23278 0.28591 0.30000
 H1823 H 0.26452 0.21451 0.18295
 H1824 H 0.19877 0.21281 0.20766
 Zr1825 Zr 0.73020 0.72975 0.28291
 O1826 O 0.74362 0.71074 0.30314
 O1827 O 0.70204 0.73279 0.29494
 O1828 O 0.73302 0.74314 0.31059
 O1829 O 0.71886 0.69321 0.24942
 O1830 O 0.74889 0.77223 0.30418
 O1831 O 0.71793 0.70100 0.28169
 O1832 O 0.68759 0.75508 0.27505
 O1833 O 0.72479 0.75957 0.27828
 O1834 O 0.71265 0.73114 0.25796
 O1835 O 0.75818 0.74323 0.27998
 O1836 O 0.74643 0.71584 0.26072
 Zr1837 Zr 0.75150 0.76198 0.22652
 Zr1838 Zr 0.75253 0.77271 0.27385
 Zr1839 Zr 0.72918 0.71892 0.23560
 Zr1840 Zr 0.70823 0.76083 0.25278
 O1841 O 0.74403 0.69419 0.22445
 O1842 O 0.70020 0.78824 0.26495
 O1843 O 0.72338 0.74841 0.22920
 O1844 O 0.73528 0.77555 0.24877
 O1845 O 0.76923 0.76059 0.25141
 O1846 O 0.75677 0.73218 0.23135
 C1847 C 0.68760 0.74373 0.29002
 C1848 C 0.71523 0.68899 0.26733
 C1849 C 0.74096 0.75967 0.31588
 O1850 O 0.73838 0.79890 0.28221
 O1851 O 0.76686 0.79668 0.26047
 O1852 O 0.76597 0.78982 0.22801
 C1853 C 0.77071 0.80091 0.24263
 O1854 O 0.78059 0.70968 0.27814
 Zr1855 Zr 0.77346 0.73081 0.25666
 O1856 O 0.77982 0.75940 0.21486
 O1857 O 0.78013 0.77760 0.28759
 O1858 O 0.79819 0.74196 0.27234
 O1859 O 0.78303 0.70464 0.24302
 O1860 O 0.79517 0.73923 0.23627
 C1861 C 0.79500 0.75026 0.22108
 O1862 O 0.73842 0.78214 0.20720
 O1863 O 0.70074 0.71227 0.22441
 O1864 O 0.74692 0.74941 0.19859
 O1865 O 0.72925 0.72132 0.20515
 O1866 O 0.68240 0.74929 0.23921
 O1867 O 0.69991 0.77929 0.22938
 C1868 C 0.73722 0.73377 0.19336
 H1869 H 0.69991 0.72396 0.25936
 H1870 H 0.73291 0.78952 0.24571
 H1871 H 0.76375 0.72588 0.22040
 H1872 H 0.76602 0.74186 0.29204
 H1873 H 0.68561 0.78886 0.26465
 H1874 H 0.74788 0.80645 0.29041
 H1875 H 0.77956 0.79062 0.29408
 H1876 H 0.80990 0.73468 0.26788
 H1877 H 0.67112 0.75705 0.24392
 H1878 H 0.70161 0.69943 0.21763
 H1879 H 0.73432 0.68664 0.21650
 H1880 H 0.79762 0.70463 0.24374
 H1881 H 0.68667 0.78464 0.23195
 H1882 H 0.74840 0.78541 0.19713
 H1883 H 0.73356 0.70738 0.31312
 H1884 H 0.79468 0.70627 0.27698
 Zr1885 Zr 0.76312 0.26406 0.77313
 O1886 O 0.74976 0.28224 0.79423
 O1887 O 0.79216 0.26310 0.78325
 O1888 O 0.76299 0.25052 0.80077
 O1889 O 0.77064 0.30103 0.73942
 O1890 O 0.74928 0.22028 0.79481
 O1891 O 0.77400 0.29330 0.77149
 O1892 O 0.80687 0.24180 0.76236
 O1893 O 0.76999 0.23461 0.76794
 O1894 O 0.77923 0.26355 0.74724
 O1895 O 0.73585 0.24898 0.77166
 O1896 O 0.74490 0.27708 0.75205
 Zr1897 Zr 0.74032 0.23065 0.71773
 Zr1898 Zr 0.74282 0.21989 0.76490
 Zr1899 Zr 0.76079 0.27484 0.72600
 Zr1900 Zr 0.78507 0.23420 0.74159
 O1901 O 0.74370 0.29839 0.71573
 O1902 O 0.79523 0.20756 0.75364
 O1903 O 0.76780 0.24570 0.71911
 O1904 O 0.75864 0.21802 0.73887
 O1905 O 0.72406 0.23107 0.74359
 O1906 O 0.73376 0.26011 0.72307
 C1907 C 0.80707 0.25340 0.77723
 C1908 C 0.77544 0.30533 0.75708
 C1909 C 0.75714 0.23326 0.80623
 O1910 O 0.75855 0.19423 0.77184
 O1911 O 0.72893 0.19519 0.75212
 O1912 O 0.72733 0.20225 0.71979
 C1913 C 0.72421 0.19084 0.73446
 O1914 O 0.71154 0.28103 0.77163
 Zr1915 Zr 0.71857 0.26058 0.74934
 O1916 O 0.71127 0.23214 0.70737
 O1917 O 0.71657 0.21378 0.78053
 O1918 O 0.69534 0.24786 0.76594
 O1919 O 0.70686 0.28635 0.73684
 O1920 O 0.69625 0.25153 0.72981
 C1921 C 0.69609 0.24077 0.71437
 O1922 O 0.75290 0.21077 0.69767
 O1923 O 0.78810 0.28349 0.71348
 O1924 O 0.74371 0.24295 0.68967
 O1925 O 0.76007 0.27198 0.69564
 O1926 O 0.80922 0.24684 0.72624
 O1927 O 0.79307 0.21587 0.71787
 C1928 C 0.75273 0.25881 0.68416
 H1929 H 0.79160 0.27145 0.74786
 H1930 H 0.76159 0.20421 0.73553
 H1931 H 0.72596 0.26601 0.71246
 H1932 H 0.72874 0.24986 0.78420
 H1933 H 0.80982 0.20778 0.75269
 H1934 H 0.75005 0.18632 0.78065
 H1935 H 0.71826 0.20082 0.78680
 H1936 H 0.68301 0.25452 0.76224
 H1937 H 0.82124 0.23983 0.73028
 H1938 H 0.78600 0.29620 0.70684
 H1939 H 0.75244 0.30647 0.70731
 H1940 H 0.69235 0.28571 0.73853
 H1941 H 0.80655 0.21095 0.71998
 H1942 H 0.74249 0.20715 0.68808
 H1943 H 0.76019 0.28623 0.80365
 H1944 H 0.69720 0.28351 0.77142
 C1945 C 0.44151 0.99724 0.32988
 C1946 C 0.45032 1.00006 0.34826
 C1947 C 0.44287 1.01458 0.36096
 C1948 C 0.42708 1.02614 0.35512
 C1949 C 0.41825 1.02302 0.33706
 C1950 C 0.42516 1.00844 0.32441
 C1951 C 0.45095 1.01704 0.37954
 C1952 C 0.46612 1.00492 0.38587
 C1953 C 0.47387 0.99056 0.37326
 C1954 C 0.46603 0.98832 0.35440
 C1955 C 0.48901 0.97844 0.37997
 C1956 C 0.49590 0.98015 0.39916
 C1957 C 0.48777 0.99404 0.41191
 C1958 C 0.47318 1.00665 0.40491
 H1959 H 0.44686 0.98593 0.32017
 H1960 H 0.42130 1.03736 0.36467
 H1961 H 0.40587 1.03198 0.33298
 H1962 H 0.44505 1.02805 0.38929
 H1963 H 0.47179 0.97717 0.34474
 H1964 H 0.49522 0.96737 0.37052
 H1965 H 0.50716 0.97027 0.40417
 H1966 H 0.46690 1.01761 0.41446
 C1967 C -0.06633 0.49173 0.82876
 C1968 C -0.05975 0.49299 0.84818
 C1969 C -0.07275 0.49957 0.86278
 C1970 C -0.09196 0.50469 0.85790
 C1971 C -0.09848 0.50312 0.83877
 C1972 C -0.08595 0.49648 0.82378
 C1973 C -0.06646 0.50084 0.88213
 C1974 C -0.04739 0.49531 0.88725
 C1975 C -0.03429 0.48853 0.87285
 C1976 C -0.04051 0.48753 0.85332
 C1977 C -0.01530 0.48275 0.87832
 C1978 C -0.00944 0.48357 0.89787
 C1979 C -0.02242 0.49036 0.91226
 C1980 C -0.04137 0.49627 0.90670
 H1981 H -0.05636 0.48617 0.81783
 H1982 H -0.10201 0.50997 0.86892
 H1983 H -0.11328 0.50798 0.83578
 H1984 H -0.07652 0.50595 0.89325
 H1985 H -0.03048 0.48236 0.84222
 H1986 H -0.00503 0.47748 0.86751
 H1987 H 0.00525 0.47892 0.90171
 H1988 H -0.05167 0.50142 0.91756
 C1989 C 0.06974 -0.00000 0.84165
 C1990 C 0.06362 -0.00187 0.86115
 C1991 C 0.07512 -0.01280 0.87431
 C1992 C 0.09234 -0.02177 0.86784
 C1993 C 0.09840 -0.01967 0.84860
 C1994 C 0.08735 -0.00865 0.83536
 C1995 C 0.06939 -0.01447 0.89382
 C1996 C 0.05237 -0.00524 0.90049
 C1997 C 0.04074 0.00563 0.88743
 C1998 C 0.04641 0.00721 0.86781
 C1999 C 0.02372 0.01480 0.89431
 C2000 C 0.01832 0.01328 0.91391
 C2001 C 0.02986 0.00257 0.92705
 C2002 C 0.04688 -0.00668 0.92010
 H2003 H 0.06116 0.00858 0.83154
 H2004 H 0.10125 -0.03028 0.87772
 H2005 H 0.11184 -0.02671 0.84401
 H2006 H 0.07830 -0.02283 0.90385
 H2007 H 0.03754 0.01562 0.85780
 H2008 H 0.01459 0.02320 0.88454
 H2009 H 0.00512 0.02056 0.91878
 H2010 H 0.05595 -0.01507 0.92995
 C2011 C 0.56202 0.49710 0.34100
 C2012 C 0.55419 0.49513 0.35989
 C2013 C 0.56274 0.48167 0.37295
 C2014 C 0.57864 0.47029 0.36698
 C2015 C 0.58645 0.47254 0.34839
 C2016 C 0.57845 0.48608 0.33532
 C2017 C 0.55557 0.48000 0.39194
 C2018 C 0.54013 0.49181 0.39828
 C2019 C 0.53131 0.50513 0.38534
 C2020 C 0.53832 0.50664 0.36613
 C2021 C 0.51586 0.51690 0.39202
 C2022 C 0.50956 0.51575 0.41143
 C2023 C 0.51861 0.50281 0.42448
 C2024 C 0.53371 0.49069 0.41758
 H2025 H 0.55581 0.50761 0.33099
 H2026 H 0.58526 0.45986 0.37680
 H2027 H 0.59889 0.46369 0.34421
 H2028 H 0.56229 0.46977 0.40194
 H2029 H 0.53170 0.51698 0.35619
 H2030 H 0.50884 0.52719 0.38233
 H2031 H 0.49790 0.52526 0.41631
 H2032 H 0.54077 0.48048 0.42734
 C2033 C 0.56070 0.49544 0.17309
 C2034 C 0.55321 0.50056 0.15473
 C2035 C 0.56108 0.51720 0.14496
 C2036 C 0.57588 0.52869 0.15386
 C2037 C 0.58298 0.52370 0.17220
 C2038 C 0.57560 0.50700 0.18191
 C2039 C 0.55414 0.52206 0.12640
 C2040 C 0.53927 0.51063 0.11750
 C2041 C 0.53097 0.49433 0.12744
 C2042 C 0.53805 0.48933 0.14596
 C2043 C 0.51583 0.48319 0.11857
 C2044 C 0.50929 0.48790 0.09988
 C2045 C 0.51787 0.50373 0.08964
 C2046 C 0.53274 0.51516 0.09868
 H2047 H 0.55488 0.48261 0.18059
 H2048 H 0.58204 0.54150 0.14659
 H2049 H 0.59458 0.53270 0.17869
 H2050 H 0.56039 0.53467 0.11885
 H2051 H 0.53185 0.47667 0.15348
 H2052 H 0.50922 0.47070 0.12598
 H2053 H 0.49788 0.47878 0.09323
 H2054 H 0.53939 0.52749 0.09102
 C2055 C 0.06783 0.98780 0.66676
 C2056 C 0.06173 0.99145 0.64754
 C2057 C 0.06723 1.00936 0.63847
 C2058 C 0.07831 1.02345 0.64884
 C2059 C 0.08411 1.01981 0.66795
 C2060 C 0.07909 1.00196 0.67708
 C2061 C 0.06170 1.01290 0.61914
 C2062 C 0.05049 0.99888 0.60876
 C2063 C 0.04453 0.98118 0.61791
 C2064 C 0.05028 0.97751 0.63720
 C2065 C 0.03292 0.96743 0.60757
 C2066 C 0.02737 0.97112 0.58833
 C2067 C 0.03355 0.98850 0.57896
 C2068 C 0.04512 1.00233 0.58934
 H2069 H 0.06380 0.97403 0.67371
 H2070 H 0.08263 1.03725 0.64213
 H2071 H 0.09300 1.03081 0.67547
 H2072 H 0.06613 1.02656 0.61219
 H2073 H 0.04587 0.96384 0.64414
 H2074 H 0.02813 0.95381 0.61435
 H2075 H 0.01848 0.96021 0.58067
 H2076 H 0.04981 1.01590 0.58236
 C2077 C -0.06318 0.50804 0.65785
 C2078 C -0.05709 0.50632 0.63836
 C2079 C -0.06336 0.48984 0.62722
 C2080 C -0.07512 0.47516 0.63581
 C2081 C -0.08100 0.47692 0.65515
 C2082 C -0.07531 0.49341 0.66632
 C2083 C -0.05802 0.48837 0.60759
 C2084 C -0.04637 0.50311 0.59891
 C2085 C -0.03960 0.51935 0.61009
 C2086 C -0.04506 0.52090 0.62975
 C2087 C -0.02760 0.53381 0.60133
 C2088 C -0.02259 0.53233 0.58163
 C2089 C -0.02970 0.51650 0.57030
 C2090 C -0.04150 0.50187 0.57913
 H2091 H -0.05860 0.52075 0.66637
 H2092 H -0.08002 0.46243 0.62747
 H2093 H -0.09057 0.46561 0.66122
 H2094 H -0.06307 0.47584 0.59903
 H2095 H -0.04009 0.53348 0.63828
 H2096 H -0.02219 0.54632 0.60968
 H2097 H -0.01349 0.54379 0.57517
 H2098 H -0.04688 0.48945 0.57060
 C2099 C 0.43976 0.01074 0.16548
 C2100 C 0.44779 0.00894 0.14669
 C2101 C 0.44258 -0.00758 0.13511
 C2102 C 0.42989 -0.02215 0.14253
 C2103 C 0.42204 -0.02028 0.16115
 C2104 C 0.42670 -0.00381 0.17277
 C2105 C 0.44986 -0.00920 0.11615
 C2106 C 0.46231 0.00546 0.10850
 C2107 C 0.46802 0.02179 0.12007
 C2108 C 0.46070 0.02345 0.13915
 C2109 C 0.48075 0.03623 0.11220
 C2110 C 0.48736 0.03467 0.09292
 C2111 C 0.48118 0.01876 0.08120
 C2112 C 0.46887 0.00410 0.08927
 H2113 H 0.44358 0.02343 0.17437
 H2114 H 0.42577 -0.03488 0.13381
 H2115 H 0.41182 -0.03151 0.16625
 H2116 H 0.44563 -0.02178 0.10724
 H2117 H 0.46485 0.03608 0.14802
 H2118 H 0.48540 0.04881 0.12086
 H2119 H 0.49687 0.04613 0.08703
 H2120 H 0.46423 -0.00843 0.08050
 C2121 C 0.33871 0.43019 0.01159
 C2122 C 0.35580 0.44217 0.01088
 C2123 C 0.35862 0.45515 -0.00493
 C2124 C 0.34427 0.45617 -0.01954
 C2125 C 0.32737 0.44422 -0.01874
 C2126 C 0.32445 0.43101 -0.00330
 C2127 C 0.37586 0.46673 -0.00605
 C2128 C 0.39042 0.46546 0.00837
 C2129 C 0.38754 0.45276 0.02437
 C2130 C 0.37020 0.44121 0.02556
 C2131 C 0.40221 0.45169 0.03876
 C2132 C 0.41969 0.46282 0.03710
 C2133 C 0.42284 0.47518 0.02101
 C2134 C 0.40795 0.47653 0.00682
 H2135 H 0.33652 0.42023 0.02369
 H2136 H 0.34624 0.46603 -0.03176
 H2137 H 0.31679 0.44495 -0.03051
 H2138 H 0.37807 0.47654 -0.01829
 H2139 H 0.36804 0.43132 0.03775
 H2140 H 0.40025 0.44208 0.05116
 H2141 H 0.43090 0.46146 0.04823
 H2142 H 0.41004 0.48611 -0.00561
 C2143 C -0.14739 0.91814 0.50670
 C2144 C -0.12932 0.92829 0.50431
 C2145 C -0.12710 0.94188 0.48891
 C2146 C -0.14298 0.94526 0.47635
 C2147 C -0.16091 0.93522 0.47892
 C2148 C -0.16330 0.92152 0.49401
 C2149 C -0.10908 0.95190 0.48628
 C2150 C -0.09326 0.94874 0.49898
 C2151 C -0.09544 0.93535 0.51452
 C2152 C -0.11344 0.92512 0.51704
 C2153 C -0.07959 0.93256 0.52733
 C2154 C -0.06182 0.94305 0.52486
 C2155 C -0.05949 0.95635 0.50939
 C2156 C -0.07533 0.95897 0.49645
 H2157 H -0.14914 0.90773 0.51850
 H2158 H -0.14151 0.95561 0.46448
 H2159 H -0.17282 0.93787 0.46881
 H2160 H -0.10740 0.96225 0.47440
 H2161 H -0.11513 0.91479 0.52893
 H2162 H -0.08099 0.92237 0.53935
 H2163 H -0.04989 0.94071 0.53503
 H2164 H -0.07388 0.96929 0.48453
 C2165 C -0.15196 0.07237 0.98928
 C2166 C -0.13422 0.06267 0.99322
 C2167 C -0.13088 0.05485 1.01189
 C2168 C -0.14524 0.05683 1.02629
 C2169 C -0.16270 0.06665 1.02239
 C2170 C -0.16655 0.07473 1.00384
 C2171 C -0.11318 0.04527 1.01597
 C2172 C -0.09865 0.04348 1.00160
 C2173 C -0.10194 0.05132 0.98288
 C2174 C -0.11972 0.06078 0.97878
 C2175 C -0.08733 0.04960 0.96860
 C2176 C -0.06965 0.04019 0.97277
 C2177 C -0.06620 0.03224 0.99132
 C2178 C -0.08087 0.03401 1.00568
 H2179 H -0.15435 0.07753 0.97463
 H2180 H -0.14282 0.05108 1.04076
 H2181 H -0.17263 0.06855 1.03450
 H2182 H -0.11069 0.03928 1.03035
 H2183 H -0.12220 0.06679 0.96440
 H2184 H -0.08955 0.05556 0.95418
 H2185 H -0.05868 0.03914 0.96140
 H2186 H -0.07851 0.02801 1.02007
 C2187 C 0.33896 0.57719 0.49330
 C2188 C 0.35744 0.56862 0.49659
 C2189 C 0.36233 0.56203 0.51545
 C2190 C 0.34882 0.56422 0.53066
 C2191 C 0.33061 0.57286 0.52731
 C2192 C 0.32535 0.57939 0.50864
 C2193 C 0.38064 0.55340 0.51887
 C2194 C 0.39425 0.55124 0.50369
 C2195 C 0.38952 0.55791 0.48484
 C2196 C 0.37113 0.56654 0.48139
 C2197 C 0.40326 0.55573 0.46977
 C2198 C 0.42139 0.54682 0.47326
 C2199 C 0.42618 0.53990 0.49192
 C2200 C 0.41248 0.54236 0.50709
 H2201 H 0.33515 0.58197 0.47878
 H2202 H 0.35239 0.55938 0.54522
 H2203 H 0.32078 0.57475 0.53954
 H2204 H 0.38429 0.54831 0.53335
 H2205 H 0.36748 0.57161 0.46691
 H2206 H 0.39993 0.56080 0.45522
 H2207 H 0.43158 0.54519 0.46127
 H2208 H 0.41585 0.53716 0.52159
 C2209 C 0.15229 0.58289 0.50644
 C2210 C 0.13370 0.57452 0.50210
 C2211 C 0.13121 0.56297 0.48511
 C2212 C 0.14736 0.55994 0.47281
 C2213 C 0.16577 0.56841 0.47717
 C2214 C 0.16848 0.58004 0.49396
 C2215 C 0.11263 0.55467 0.48066
 C2216 C 0.09650 0.55769 0.49303
 C2217 C 0.09899 0.56921 0.51004
 C2218 C 0.11755 0.57758 0.51445
 C2219 C 0.08290 0.57203 0.52247
 C2220 C 0.06458 0.56326 0.51830
 C2221 C 0.06191 0.55164 0.50150
 C2222 C 0.07796 0.54913 0.48880
 H2223 H 0.15416 0.59159 0.51957
 H2224 H 0.14571 0.55117 0.45970
 H2225 H 0.17779 0.56621 0.46709
 H2226 H 0.11076 0.54580 0.46762
 H2227 H 0.11943 0.58642 0.52750
 H2228 H 0.08453 0.58085 0.53555
 H2229 H 0.05250 0.56551 0.52831
 H2230 H 0.07619 0.54010 0.47587
 C2231 C 0.66760 0.08034 0.01048
 C2232 C 0.64817 0.07339 0.00752
 C2233 C 0.64180 0.06832 -0.01146
 C2234 C 0.65479 0.07050 -0.02713
 C2235 C 0.67391 0.07775 -0.02414
 C2236 C 0.68066 0.08271 -0.00535
 C2237 C 0.62253 0.06122 -0.01453
 C2238 C 0.60943 0.05919 0.00112
 C2239 C 0.61559 0.06452 0.02008
 C2240 C 0.63496 0.07153 0.02319
 C2241 C 0.60227 0.06255 0.03561
 C2242 C 0.58322 0.05494 0.03244
 C2243 C 0.57712 0.04912 0.01369
 C2244 C 0.59032 0.05163 -0.00194
 H2245 H 0.67251 0.08385 0.02510
 H2246 H 0.65007 0.06684 -0.04179
 H2247 H 0.68326 0.07988 -0.03673
 H2248 H 0.61775 0.05721 -0.02910
 H2249 H 0.63975 0.07551 0.03776
 H2250 H 0.60669 0.06664 0.05024
 H2251 H 0.57343 0.05317 0.04476
 H2252 H 0.58589 0.04735 -0.01653
 C2253 C 0.66768 0.92076 0.48488
 C2254 C 0.64894 0.92906 0.48739
 C2255 C 0.64314 0.93549 0.50608
 C2256 C 0.65595 0.93343 0.52188
 C2257 C 0.67437 0.92501 0.51933
 C2258 C 0.68059 0.91866 0.50085
 C2259 C 0.62461 0.94387 0.50877
 C2260 C 0.61168 0.94596 0.49302
 C2261 C 0.61726 0.93947 0.47432
 C2262 C 0.63589 0.93105 0.47160
 C2263 C 0.60412 0.94166 0.45869
 C2264 C 0.58579 0.95048 0.46153
 C2265 C 0.58023 0.95724 0.48006
 C2266 C 0.59330 0.95467 0.49576
 H2267 H 0.67222 0.91609 0.47051
 H2268 H 0.65166 0.93818 0.53631
 H2269 H 0.68360 0.92316 0.53202
 H2270 H 0.62028 0.94883 0.52313
 H2271 H 0.64023 0.92610 0.45724
 H2272 H 0.60809 0.93673 0.44424
 H2273 H 0.57609 0.95223 0.44915
 H2274 H 0.58934 0.95970 0.51019
 C2275 C 0.15992 0.41991 0.98049
 C2276 C 0.14071 0.42681 0.98348
 C2277 C 0.13386 0.42983 1.00267
 C2278 C 0.14612 0.42574 1.01847
 C2279 C 0.16504 0.41872 1.01540
 C2280 C 0.17228 0.41583 0.99645
 C2281 C 0.11488 0.43692 1.00583
 C2282 C 0.10255 0.44110 0.99008
 C2283 C 0.10914 0.43790 0.97086
 C2284 C 0.12822 0.43077 0.96766
 C2285 C 0.09657 0.44212 0.95523
 C2286 C 0.07785 0.44986 0.95861
 C2287 C 0.07137 0.45349 0.97770
 C2288 C 0.08379 0.44874 0.99334
 H2289 H 0.16527 0.41788 0.96579
 H2290 H 0.14101 0.42782 1.03325
 H2291 H 0.17390 0.41522 1.02799
 H2292 H 0.10974 0.43933 1.02058
 H2293 H 0.13337 0.42841 0.95292
 H2294 H 0.10132 0.43970 0.94038
 H2295 H 0.06864 0.45336 0.94627
 H2296 H 0.07906 0.45131 1.00817
 C2297 C -0.00572 0.34288 0.42061
 C2298 C -0.00526 0.36070 0.43073
 C2299 C -0.00131 0.36096 0.45092
 C2300 C 0.00208 0.34319 0.46059
 C2301 C 0.00142 0.32536 0.45035
 C2302 C -0.00262 0.32508 0.43029
 C2303 C -0.00091 0.37893 0.46101
 C2304 C -0.00471 0.39652 0.45115
 C2305 C -0.00878 0.39607 0.43095
 C2306 C -0.00885 0.37821 0.42087
 C2307 C -0.01296 0.41347 0.42112
 C2308 C -0.01337 0.43122 0.43120
 C2309 C -0.00935 0.43193 0.45125
 C2310 C -0.00479 0.41455 0.46115
 H2311 H -0.00831 0.34293 0.40504
 H2312 H 0.00512 0.34307 0.47607
 H2313 H 0.00384 0.31180 0.45813
 H2314 H 0.00215 0.37921 0.47650
 H2315 H -0.01195 0.37792 0.40538
 H2316 H -0.01609 0.41334 0.40565
 H2317 H -0.01672 0.44448 0.42325
 H2318 H -0.00178 0.41499 0.47664
 C2319 C 0.49986 -0.15601 -0.07428
 C2320 C 0.49948 -0.13663 -0.06729
 C2321 C 0.49370 -0.12129 -0.07979
 C2322 C 0.48858 -0.12556 -0.09909
 C2323 C 0.48924 -0.14483 -0.10600
 C2324 C 0.49480 -0.16028 -0.09369
 C2325 C 0.49326 -0.10191 -0.07286
 C2326 C 0.49877 -0.09762 -0.05364
 C2327 C 0.50477 -0.11293 -0.04119
 C2328 C 0.50494 -0.13235 -0.04805
 C2329 C 0.51059 -0.10852 -0.02210
 C2330 C 0.51051 -0.08915 -0.01538
 C2331 C 0.50442 -0.07383 -0.02757
 C2332 C 0.49852 -0.07822 -0.04672
 H2333 H 0.50398 -0.16777 -0.06457
 H2334 H 0.48426 -0.11397 -0.10891
 H2335 H 0.48570 -0.14758 -0.12113
 H2336 H 0.48877 -0.09016 -0.08245
 H2337 H 0.50948 -0.14408 -0.03847
 H2338 H 0.51526 -0.12006 -0.01237
 H2339 H 0.51506 -0.08619 -0.00054
 H2340 H 0.49395 -0.06653 -0.05631
 C2341 C 0.00123 -0.17326 1.07448
 C2342 C 0.00067 -0.15551 1.06436
 C2343 C -0.01424 -0.15245 1.05037
 C2344 C -0.02818 -0.16746 1.04657
 C2345 C -0.02771 -0.18506 1.05703
 C2346 C -0.01321 -0.18794 1.07132
 C2347 C -0.01519 -0.13430 1.04078
 C2348 C -0.00165 -0.11912 1.04536
 C2349 C 0.01329 -0.12238 1.05931
 C2350 C 0.01450 -0.14060 1.06851
 C2351 C 0.02663 -0.10724 1.06415
 C2352 C 0.02503 -0.08886 1.05552
 C2353 C 0.01018 -0.08529 1.04173
 C2354 C -0.00301 -0.10061 1.03653
 H2355 H 0.01275 -0.17551 1.08516
 H2356 H -0.03970 -0.16542 1.03588
 H2357 H -0.03905 -0.19615 1.05439
 H2358 H -0.02669 -0.13185 1.03012
 H2359 H 0.02591 -0.14300 1.07929
 H2360 H 0.03817 -0.10953 1.07478
 H2361 H 0.03554 -0.07742 1.05966
 H2362 H -0.01453 -0.09804 1.02594
 C2363 C 0.49002 0.33522 0.58129
 C2364 C 0.48910 0.35236 0.57021
 C2365 C 0.48666 0.35110 0.54983
 C2366 C 0.48498 0.33252 0.54096
 C2367 C 0.48630 0.31540 0.55214
 C2368 C 0.48915 0.31662 0.57237
 C2369 C 0.48633 0.36840 0.53873
 C2370 C 0.48892 0.38684 0.54778
 C2371 C 0.49138 0.38790 0.56821
 C2372 C 0.49115 0.37072 0.57928
 C2373 C 0.49449 0.40613 0.57728
 C2374 C 0.49561 0.42320 0.56623
 C2375 C 0.49330 0.42242 0.54593
 C2376 C 0.48959 0.40422 0.53676
 H2377 H 0.49166 0.33639 0.59694
 H2378 H 0.48308 0.33122 0.52536
 H2379 H 0.48559 0.30124 0.54490
 H2380 H 0.48453 0.36750 0.52307
 H2381 H 0.49311 0.37160 0.59493
 H2382 H 0.49638 0.40716 0.59291
 H2383 H 0.49823 0.43710 0.57361
 H2384 H 0.48789 0.40354 0.52109
 C2385 C 0.50200 1.15926 0.57546
 C2386 C 0.50214 1.13998 0.56835
 C2387 C 0.49365 1.12455 0.57942
 C2388 C 0.48528 1.12873 0.59756
 C2389 C 0.48536 1.14801 0.60465
 C2390 C 0.49372 1.16344 0.59368
 C2391 C 0.49369 1.10525 0.57217
 C2392 C 0.50225 1.10123 0.55404
 C2393 C 0.51092 1.11672 0.54315
 C2394 C 0.51073 1.13597 0.55032
 C2395 C 0.51963 1.11276 0.52518
 C2396 C 0.51968 1.09364 0.51793
 C2397 C 0.51093 1.07808 0.52845
 C2398 C 0.50225 1.08199 0.54659
 H2399 H 0.50817 1.17105 0.56669
 H2400 H 0.47878 1.11710 0.60631
 H2401 H 0.47913 1.15079 0.61887
 H2402 H 0.48711 1.09340 0.58060
 H2403 H 0.51731 1.14782 0.54188
 H2404 H 0.52635 1.12446 0.51668
 H2405 H 0.52639 1.09114 0.50387
 H2406 H 0.49552 1.07013 0.55488
 C2407 C -0.00930 0.65200 1.07636
 C2408 C -0.01061 0.63315 1.06838
 C2409 C -0.02844 0.62218 1.06975
 C2410 C -0.04476 0.63050 1.07902
 C2411 C -0.04324 0.64936 1.08715
 C2412 C -0.02540 0.66010 1.08609
 C2413 C -0.02957 0.60314 1.06188
 C2414 C -0.01309 0.59509 1.05264
 C2415 C 0.00467 0.60625 1.05131
 C2416 C 0.00579 0.62515 1.05921
 C2417 C 0.02105 0.59844 1.04189
 C2418 C 0.01978 0.57987 1.03343
 C2419 C 0.00221 0.56870 1.03446
 C2420 C -0.01412 0.57622 1.04438
 H2421 H 0.00439 0.66038 1.07510
 H2422 H -0.05857 0.62235 1.08018
 H2423 H -0.05582 0.65535 1.09468
 H2424 H -0.04322 0.59465 1.06287
 H2425 H 0.01943 0.63366 1.05819
 H2426 H 0.03475 0.60680 1.04081
 H2427 H 0.03258 0.57425 1.02596
 H2428 H -0.02777 0.56770 1.04506
 C2429 C 0.50205 0.67644 -0.07234
 C2430 C 0.50451 0.65837 -0.06306
 C2431 C 0.52247 0.64829 -0.06501
 C2432 C 0.53787 0.65685 -0.07585
 C2433 C 0.53531 0.67497 -0.08502
 C2434 C 0.51727 0.68472 -0.08359
 C2435 C 0.52461 0.62981 -0.05625
 C2436 C 0.50905 0.62143 -0.04545
 C2437 C 0.49130 0.63186 -0.04318
 C2438 C 0.48913 0.65017 -0.05205
 C2439 C 0.47591 0.62380 -0.03211
 C2440 C 0.47798 0.60554 -0.02334
 C2441 C 0.49537 0.59483 -0.02566
 C2442 C 0.51089 0.60282 -0.03683
 H2443 H 0.48818 0.68404 -0.07096
 H2444 H 0.55178 0.64941 -0.07745
 H2445 H 0.54721 0.68107 -0.09373
 H2446 H 0.53830 0.62196 -0.05790
 H2447 H 0.47541 0.65800 -0.05046
 H2448 H 0.46225 0.63162 -0.03022
 H2449 H 0.46577 0.59965 -0.01491
 H2450 H 0.52441 0.59472 -0.03856
 C2451 C 0.00367 1.16741 0.42704
 C2452 C 0.00717 1.14923 0.43575
 C2453 C 0.02526 1.13977 0.43257
 C2454 C 0.03978 1.14897 0.42119
 C2455 C 0.03634 1.16725 0.41279
 C2456 C 0.01811 1.17668 0.41529
 C2457 C 0.02851 1.12127 0.44076
 C2458 C 0.01395 1.11225 0.45230
 C2459 C -0.00391 1.12202 0.45598
 C2460 C -0.00723 1.14040 0.44761
 C2461 C -0.01825 1.11317 0.46787
 C2462 C -0.01507 1.09466 0.47582
 C2463 C 0.00240 1.08459 0.47184
 C2464 C 0.01693 1.09355 0.46015
 H2465 H -0.01013 1.17458 0.43009
 H2466 H 0.05376 1.14193 0.41861
 H2467 H 0.04775 1.17341 0.40355
 H2468 H 0.04232 1.11389 0.43812
 H2469 H -0.02104 1.14777 0.45024
 H2470 H -0.03198 1.12050 0.47091
 H2471 H -0.02651 1.08802 0.48475
 H2472 H 0.03055 1.08598 0.45717
 C2473 C 0.74989 0.68866 0.91514
 C2474 C 0.75233 0.69555 0.89600
 C2475 C 0.76898 0.68982 0.88512
 C2476 C 0.78305 0.67768 0.89361
 C2477 C 0.78058 0.67101 0.91263
 C2478 C 0.76397 0.67628 0.92356
 C2479 C 0.77130 0.69621 0.86589
 C2480 C 0.75731 0.70843 0.85738
 C2481 C 0.74083 0.71453 0.86828
 C2482 C 0.73839 0.70798 0.88752
 C2483 C 0.72709 0.72705 0.85968
 C2484 C 0.72960 0.73338 0.84046
 C2485 C 0.74577 0.72710 0.82941
 C2486 C 0.75957 0.71463 0.83807
 H2487 H 0.73712 0.69296 0.92351
 H2488 H 0.79590 0.67319 0.88547
 H2489 H 0.79150 0.66131 0.91865
 H2490 H 0.78400 0.69163 0.85754
 H2491 H 0.72567 0.71251 0.89585
 H2492 H 0.71438 0.73191 0.86780
 H2493 H 0.71871 0.74291 0.83413
 H2494 H 0.77222 0.70980 0.82980
 C2495 C 0.25048 0.18962 0.40811
 C2496 C 0.24939 0.19485 0.38831
 C2497 C 0.25675 0.18189 0.37402
 C2498 C 0.26489 0.16401 0.37961
 C2499 C 0.26599 0.15900 0.39919
 C2500 C 0.25900 0.17173 0.41369
 C2501 C 0.25603 0.18700 0.35433
 C2502 C 0.24820 0.20500 0.34861
 C2503 C 0.24071 0.21802 0.36271
 C2504 C 0.24128 0.21284 0.38252
 C2505 C 0.23297 0.23605 0.35669
 C2506 C 0.23296 0.24122 0.33694
 C2507 C 0.24065 0.22842 0.32284
 C2508 C 0.24805 0.21021 0.32891
 H2509 H 0.24508 0.19959 0.41915
 H2510 H 0.27047 0.15389 0.36880
 H2511 H 0.27220 0.14496 0.40301
 H2512 H 0.26178 0.17702 0.34345
 H2513 H 0.23560 0.22285 0.39340
 H2514 H 0.22711 0.24625 0.36726
 H2515 H 0.22715 0.25531 0.33275
 H2516 H 0.25400 0.20007 0.31833
 C2517 C 0.74415 0.30558 0.41468
 C2518 C 0.74426 0.29883 0.39530
 C2519 C 0.73830 0.31157 0.38026
 C2520 C 0.73253 0.33070 0.38466
 C2521 C 0.73262 0.33731 0.40383
 C2522 C 0.73826 0.32488 0.41908
 C2523 C 0.73826 0.30509 0.36096
 C2524 C 0.74425 0.28607 0.35635
 C2525 C 0.75038 0.27322 0.37117
 C2526 C 0.75028 0.27966 0.39065
 C2527 C 0.75656 0.25424 0.36613
 C2528 C 0.75667 0.24815 0.34659
 C2529 C 0.75045 0.26090 0.33183
 C2530 C 0.74426 0.27985 0.33699
 H2531 H 0.74847 0.29580 0.42629
 H2532 H 0.72810 0.34065 0.37325
 H2533 H 0.72854 0.35237 0.40666
 H2534 H 0.73364 0.31492 0.34949
 H2535 H 0.75494 0.26985 0.40211
 H2536 H 0.76137 0.24415 0.37726
 H2537 H 0.76154 0.23349 0.34306
 H2538 H 0.73956 0.29001 0.32586
 C2539 C 0.25469 0.80718 0.92289
 C2540 C 0.25382 0.80101 0.90332
 C2541 C 0.24670 0.81400 0.88900
 C2542 C 0.24076 0.83285 0.89432
 C2543 C 0.24167 0.83884 0.91368
 C2544 C 0.24844 0.82611 0.92821
 C2545 C 0.24557 0.80801 0.86954
 C2546 C 0.25143 0.78916 0.86407
 C2547 C 0.25868 0.77610 0.87820
 C2548 C 0.25984 0.78210 0.89779
 C2549 C 0.26457 0.75726 0.87242
 C2550 C 0.26316 0.75144 0.85288
 C2551 C 0.25579 0.76434 0.83877
 C2552 C 0.25004 0.78323 0.84460
 H2553 H 0.25991 0.79722 0.93395
 H2554 H 0.23542 0.84300 0.88349
 H2555 H 0.23724 0.85364 0.91725
 H2556 H 0.24005 0.81803 0.85864
 H2557 H 0.26534 0.77208 0.90868
 H2558 H 0.27020 0.74701 0.88301
 H2559 H 0.26772 0.73680 0.84885
 H2560 H 0.24441 0.79346 0.83397
 C2561 C 0.24420 0.81203 0.09350
 C2562 C 0.24321 0.80732 0.11342
 C2563 C 0.25527 0.81774 0.12682
 C2564 C 0.26819 0.83243 0.12023
 C2565 C 0.26913 0.83704 0.10055
 C2566 C 0.25716 0.82709 0.08669
 C2567 C 0.25422 0.81345 0.14668
 C2568 C 0.24134 0.79871 0.15342
 C2569 C 0.22938 0.78800 0.14016
 C2570 C 0.23035 0.79239 0.12020
 C2571 C 0.21672 0.77307 0.14718
 C2572 C 0.21602 0.76882 0.16711
 C2573 C 0.22781 0.77955 0.18038
 C2574 C 0.24040 0.79452 0.17331
 H2575 H 0.23521 0.80349 0.08346
 H2576 H 0.27742 0.84064 0.13038
 H2577 H 0.27871 0.84923 0.09659
 H2578 H 0.26347 0.82158 0.15690
 H2579 H 0.22111 0.78425 0.10998
 H2580 H 0.20744 0.76465 0.13726
 H2581 H 0.20620 0.75719 0.17214
 H2582 H 0.24977 0.80283 0.18327
 C2583 C 0.75091 0.30088 0.57840
 C2584 C 0.74816 0.29025 0.59566
 C2585 C 0.72896 0.28471 0.60163
 C2586 C 0.71288 0.28932 0.58982
 C2587 C 0.71567 0.30006 0.57272
 C2588 C 0.73472 0.30654 0.56689
 C2589 C 0.72611 0.27523 0.61957
 C2590 C 0.74225 0.27170 0.63181
 C2591 C 0.76153 0.27681 0.62548
 C2592 C 0.76437 0.28571 0.60735
 C2593 C 0.77764 0.27383 0.63780
 C2594 C 0.77462 0.26699 0.65665
 C2595 C 0.75554 0.26247 0.66331
 C2596 C 0.73940 0.26417 0.65067
 H2597 H 0.76584 0.30452 0.57401
 H2598 H 0.69802 0.28518 0.59414
 H2599 H 0.70259 0.30421 0.56485
 H2600 H 0.71131 0.27133 0.62432
 H2601 H 0.77914 0.28991 0.60273
 H2602 H 0.79249 0.27763 0.63317
 H2603 H 0.78717 0.26579 0.66631
 H2604 H 0.72464 0.26095 0.65594
 C2605 C 0.25126 0.19698 0.57684
 C2606 C 0.25112 0.20817 0.59402
 C2607 C 0.26815 0.21906 0.59966
 C2608 C 0.28478 0.21917 0.58747
 C2609 C 0.28474 0.20804 0.57027
 C2610 C 0.26813 0.19661 0.56510
 C2611 C 0.26843 0.22911 0.61761
 C2612 C 0.25195 0.22820 0.63002
 C2613 C 0.23473 0.21786 0.62386
 C2614 C 0.23438 0.20809 0.60590
 C2615 C 0.21830 0.21675 0.63610
 C2616 C 0.21922 0.22474 0.65475
 C2617 C 0.23647 0.23428 0.66151
 C2618 C 0.25262 0.23661 0.64882
 H2619 H 0.23842 0.18816 0.57278
 H2620 H 0.29794 0.22749 0.59146
 H2621 H 0.29786 0.20784 0.56131
 H2622 H 0.28163 0.23709 0.62217
 H2623 H 0.22129 0.19984 0.60147
 H2624 H 0.20496 0.20903 0.63153
 H2625 H 0.20655 0.22293 0.66420
 H2626 H 0.26603 0.24383 0.65396
 C2627 C 0.74453 0.69217 0.08684
 C2628 C 0.74589 0.70281 0.10434
 C2629 C 0.76413 0.71120 0.11021
 C2630 C 0.78053 0.70942 0.09801
 C2631 C 0.77913 0.69871 0.08060
 C2632 C 0.76123 0.68938 0.07488
 C2633 C 0.76574 0.72078 0.12835
 C2634 C 0.74934 0.72178 0.14079
 C2635 C 0.73095 0.71385 0.13453
 C2636 C 0.72930 0.70469 0.11630
 C2637 C 0.71463 0.71443 0.14695
 C2638 C 0.71668 0.72179 0.16580
 C2639 C 0.73494 0.72918 0.17247
 C2640 C 0.75114 0.72975 0.15970
 H2641 H 0.73022 0.68636 0.08255
 H2642 H 0.79464 0.71588 0.10217
 H2643 H 0.79253 0.69698 0.07232
 H2644 H 0.77986 0.72686 0.13301
 H2645 H 0.71524 0.69836 0.11173
 H2646 H 0.70044 0.70850 0.14235
 H2647 H 0.70405 0.72126 0.17543
 H2648 H 0.76533 0.73520 0.16486
 C2649 C 0.16348 0.59557 0.24209
 C2650 C 0.17143 0.61428 0.24659
 C2651 C 0.18156 0.61729 0.26436
 C2652 C 0.18359 0.60157 0.27729
 C2653 C 0.17553 0.58306 0.27277
 C2654 C 0.16534 0.57980 0.25518
 C2655 C 0.18945 0.63596 0.26897
 C2656 C 0.18737 0.65170 0.25601
 C2657 C 0.17725 0.64869 0.23823
 C2658 C 0.16934 0.63002 0.23364
 C2659 C 0.17531 0.66440 0.22526
 C2660 C 0.18353 0.68286 0.22971
 C2661 C 0.19377 0.68607 0.24728
 C2662 C 0.19545 0.67037 0.26046
 H2663 H 0.15589 0.59330 0.22836
 H2664 H 0.19124 0.60362 0.29101
 H2665 H 0.17691 0.57139 0.28332
 H2666 H 0.19723 0.63823 0.28261
 H2667 H 0.16158 0.62775 0.21998
 H2668 H 0.16756 0.66238 0.21159
 H2669 H 0.18191 0.69464 0.21929
 H2670 H 0.20338 0.67253 0.27402
 C2671 C 0.67574 0.08391 0.73521
 C2672 C 0.68501 0.10242 0.73784
 C2673 C 0.69152 0.10819 0.75654
 C2674 C 0.68874 0.09547 0.77224
 C2675 C 0.67937 0.07724 0.76961
 C2676 C 0.67255 0.07097 0.75110
 C2677 C 0.70056 0.12666 0.75936
 C2678 C 0.70315 0.13957 0.74370
 C2679 C 0.69675 0.13390 0.72491
 C2680 C 0.68778 0.11531 0.72207
 C2681 C 0.69939 0.14698 0.70934
 C2682 C 0.70826 0.16549 0.71237
 C2683 C 0.71468 0.17128 0.73103
 C2684 C 0.71203 0.15812 0.74661
 H2685 H 0.67156 0.07964 0.72060
 H2686 H 0.69350 0.09977 0.78672
 H2687 H 0.67676 0.06866 0.78257
 H2688 H 0.70550 0.13103 0.77378
 H2689 H 0.68282 0.11096 0.70765
 H2690 H 0.69457 0.14291 0.69482
 H2691 H 0.71007 0.17527 0.70008
 H2692 H 0.71689 0.16225 0.76111
 C2693 C 0.82626 0.08107 0.26517
 C2694 C 0.81770 0.09942 0.26167
 C2695 C 0.81294 0.10487 0.24243
 C2696 C 0.81685 0.09197 0.22705
 C2697 C 0.82563 0.07392 0.23059
 C2698 C 0.83048 0.06819 0.24964
 C2699 C 0.80451 0.12318 0.23880
 C2700 C 0.80088 0.13625 0.25415
 C2701 C 0.80571 0.13093 0.27341
 C2702 C 0.81401 0.11251 0.27707
 C2703 C 0.80214 0.14416 0.28866
 C2704 C 0.79373 0.16241 0.28491
 C2705 C 0.78869 0.16781 0.26582
 C2706 C 0.79246 0.15458 0.25050
 H2707 H 0.82965 0.07687 0.27997
 H2708 H 0.81341 0.09597 0.21220
 H2709 H 0.82907 0.06466 0.21826
 H2710 H 0.80085 0.12729 0.22401
 H2711 H 0.81770 0.10842 0.29185
 H2712 H 0.80578 0.14036 0.30351
 H2713 H 0.79104 0.17224 0.29701
 H2714 H 0.78871 0.15844 0.23568
 C2715 C 0.32388 0.58224 0.77020
 C2716 C 0.31482 0.60043 0.76726
 C2717 C 0.31034 0.60652 0.74814
 C2718 C 0.31509 0.59448 0.73234
 C2719 C 0.32443 0.57664 0.73535
 C2720 C 0.32895 0.57024 0.75426
 C2721 C 0.30138 0.62464 0.74506
 C2722 C 0.29704 0.63693 0.76083
 C2723 C 0.30166 0.63103 0.77996
 C2724 C 0.31040 0.61273 0.78308
 C2725 C 0.29751 0.64361 0.79560
 C2726 C 0.28877 0.66180 0.79232
 C2727 C 0.28391 0.66769 0.77334
 C2728 C 0.28819 0.65510 0.75767
 H2729 H 0.32699 0.57750 0.78490
 H2730 H 0.31189 0.59902 0.71759
 H2731 H 0.32855 0.56810 0.72273
 H2732 H 0.29792 0.62924 0.73037
 H2733 H 0.31392 0.60816 0.79776
 H2734 H 0.30100 0.63938 0.81037
 H2735 H 0.28565 0.67117 0.80467
 H2736 H 0.28469 0.65942 0.74292
 C2737 C 0.32680 0.40904 0.74085
 C2738 C 0.31643 0.39095 0.74196
 C2739 C 0.30929 0.38438 0.76013
 C2740 C 0.31259 0.39577 0.77678
 C2741 C 0.32292 0.41357 0.77564
 C2742 C 0.33024 0.42075 0.75770
 C2743 C 0.29901 0.36646 0.76150
 C2744 C 0.29571 0.35486 0.74493
 C2745 C 0.30271 0.36119 0.72664
 C2746 C 0.31303 0.37928 0.72523
 C2747 C 0.29923 0.34923 0.71020
 C2748 C 0.28891 0.33122 0.71194
 C2749 C 0.28192 0.32489 0.73017
 C2750 C 0.28546 0.33696 0.74654
 H2751 H 0.33152 0.41406 0.72667
 H2752 H 0.30738 0.39077 0.79085
 H2753 H 0.32580 0.42112 0.78923
 H2754 H 0.29358 0.36151 0.77553
 H2755 H 0.31846 0.38422 0.71122
 H2756 H 0.30449 0.35379 0.69602
 H2757 H 0.28645 0.32227 0.69908
 H2758 H 0.28021 0.33248 0.76076
 C2759 C 0.82583 0.90480 0.24359
 C2760 C 0.81620 0.88647 0.24619
 C2761 C 0.81250 0.87957 0.26524
 C2762 C 0.81850 0.89092 0.28127
 C2763 C 0.82813 0.90897 0.27858
 C2764 C 0.83188 0.91624 0.25978
 C2765 C 0.80291 0.86139 0.26803
 C2766 C 0.79698 0.84988 0.25204
 C2767 C 0.80069 0.85659 0.23296
 C2768 C 0.81025 0.87490 0.23013
 C2769 C 0.79474 0.84483 0.21708
 C2770 C 0.78513 0.82668 0.22010
 C2771 C 0.78123 0.81995 0.23906
 C2772 C 0.78734 0.83173 0.25494
 H2773 H 0.82844 0.91020 0.22900
 H2774 H 0.81588 0.88575 0.29596
 H2775 H 0.83299 0.91710 0.29133
 H2776 H 0.80007 0.85618 0.28268
 H2777 H 0.81309 0.88010 0.21549
 H2778 H 0.79749 0.84970 0.20233
 H2779 H 0.78067 0.81797 0.20759
 H2780 H 0.78459 0.82682 0.26969
 C2781 C 0.67206 0.90644 0.75951
 C2782 C 0.68123 0.88823 0.75669
 C2783 C 0.68851 0.88327 0.73812
 C2784 C 0.68637 0.89636 0.72270
 C2785 C 0.67712 0.91428 0.72551
 C2786 C 0.66980 0.91991 0.74397
 C2787 C 0.69783 0.86528 0.73517
 C2788 C 0.70000 0.85206 0.75057
 C2789 C 0.69262 0.85680 0.76918
 C2790 C 0.68330 0.87489 0.77215
 C2791 C 0.69483 0.84337 0.78447
 C2792 C 0.70453 0.82559 0.78141
 C2793 C 0.71221 0.82090 0.76300
 C2794 C 0.70965 0.83424 0.74762
 H2795 H 0.66735 0.91012 0.77406
 H2796 H 0.69166 0.89263 0.70830
 H2797 H 0.67510 0.92320 0.71272
 H2798 H 0.70348 0.86160 0.72087
 H2799 H 0.67770 0.87858 0.78645
 H2800 H 0.68922 0.84670 0.79884
 H2801 H 0.70625 0.81565 0.79354
 H2802 H 0.71537 0.83091 0.73328
 C2803 C 0.17182 0.41020 0.25543
 C2804 C 0.18117 0.39214 0.25218
 C2805 C 0.18923 0.38801 0.23369
 C2806 C 0.18781 0.40190 0.21879
 C2807 C 0.17842 0.41971 0.22208
 C2808 C 0.17032 0.42415 0.24039
 C2809 C 0.19851 0.37003 0.23030
 C2810 C 0.19981 0.35601 0.24515
 C2811 C 0.19173 0.36005 0.26365
 C2812 C 0.18250 0.37810 0.26707
 C2813 C 0.19302 0.34592 0.27840
 C2814 C 0.20226 0.32801 0.27490
 C2815 C 0.21043 0.32381 0.25657
 C2816 C 0.20907 0.33799 0.24174
 H2817 H 0.16584 0.41340 0.26967
 H2818 H 0.19381 0.39893 0.20450
 H2819 H 0.17714 0.42987 0.21007
 H2820 H 0.20468 0.36693 0.21609
 H2821 H 0.17630 0.38118 0.28127
 H2822 H 0.18689 0.34873 0.29266
 H2823 H 0.20301 0.31743 0.28660
 H2824 H 0.21525 0.33508 0.22751
 C2825 C 0.08879 0.24549 0.84072
 C2826 C 0.10658 0.24361 0.83066
 C2827 C 0.11389 0.22472 0.82652
 C2828 C 0.10312 0.20802 0.83241
 C2829 C 0.08502 0.21003 0.84181
 C2830 C 0.07756 0.22878 0.84597
 C2831 C 0.13157 0.22284 0.81617
 C2832 C 0.14156 0.23963 0.80925
 C2833 C 0.13397 0.25850 0.81310
 C2834 C 0.11679 0.26038 0.82414
 C2835 C 0.14341 0.27522 0.80544
 C2836 C 0.16006 0.27326 0.79378
 C2837 C 0.16781 0.25462 0.79005
 C2838 C 0.15871 0.23785 0.79805
 H2839 H 0.08360 0.26006 0.84420
 H2840 H 0.10842 0.19342 0.82925
 H2841 H 0.07664 0.19684 0.84535
 H2842 H 0.13723 0.20835 0.81303
 H2843 H 0.11102 0.27487 0.82712
 H2844 H 0.13774 0.28976 0.80820
 H2845 H 0.16703 0.28635 0.78781
 H2846 H 0.16461 0.22344 0.79501
 C2847 C 0.58303 0.74714 0.34006
 C2848 C 0.60049 0.74868 0.32926
 C2849 C 0.60054 0.75884 0.31135
 C2850 C 0.58315 0.76733 0.30460
 C2851 C 0.56579 0.76557 0.31537
 C2852 C 0.56553 0.75540 0.33313
 C2853 C 0.61789 0.76018 0.30038
 C2854 C 0.63515 0.75132 0.30700
 C2855 C 0.63513 0.74120 0.32493
 C2856 C 0.61782 0.74004 0.33600
 C2857 C 0.65239 0.73223 0.33137
 C2858 C 0.66948 0.73311 0.32007
 C2859 C 0.66964 0.74307 0.30218
 C2860 C 0.65238 0.75227 0.29583
 H2861 H 0.58309 0.73953 0.35388
 H2862 H 0.58292 0.77512 0.29088
 H2863 H 0.55245 0.77185 0.30959
 H2864 H 0.61791 0.76793 0.28661
 H2865 H 0.61778 0.73224 0.34974
 H2866 H 0.65264 0.72442 0.34508
 H2867 H 0.68258 0.72597 0.32538
 H2868 H 0.65223 0.75996 0.28205
 C2869 C 0.59286 0.25354 0.16470
 C2870 C 0.61182 0.25431 0.17277
 C2871 C 0.62174 0.27262 0.17504
 C2872 C 0.61240 0.28989 0.16928
 C2873 C 0.59338 0.28901 0.16144
 C2874 C 0.58342 0.27085 0.15908
 C2875 C 0.64069 0.27338 0.18323
 C2876 C 0.64963 0.25608 0.18957
 C2877 C 0.63956 0.23780 0.18741
 C2878 C 0.62086 0.23701 0.17879
 C2879 C 0.64816 0.22061 0.19433
 C2880 C 0.66633 0.22155 0.20378
 C2881 C 0.67643 0.23960 0.20604
 C2882 C 0.66822 0.25680 0.19857
 H2883 H 0.58554 0.23940 0.16261
 H2884 H 0.61972 0.30407 0.17099
 H2885 H 0.58638 0.30259 0.15742
 H2886 H 0.64832 0.28743 0.18500
 H2887 H 0.61318 0.22298 0.17715
 H2888 H 0.64063 0.20651 0.19281
 H2889 H 0.67252 0.20813 0.20941
 H2890 H 0.67589 0.27079 0.20052
 C2891 C 0.08665 0.75799 0.67770
 C2892 C 0.10546 0.75829 0.68608
 C2893 C 0.11998 0.77180 0.67933
 C2894 C 0.11529 0.78497 0.66446
 C2895 C 0.09659 0.78430 0.65593
 C2896 C 0.08224 0.77068 0.66236
 C2897 C 0.13903 0.77159 0.68725
 C2898 C 0.14378 0.75785 0.70161
 C2899 C 0.12916 0.74446 0.70838
 C2900 C 0.11009 0.74485 0.70066
 C2901 C 0.13388 0.73074 0.72267
 C2902 C 0.15291 0.73022 0.73022
 C2903 C 0.16763 0.74341 0.72362
 C2904 C 0.16294 0.75721 0.70924
 H2905 H 0.07573 0.74724 0.68249
 H2906 H 0.12619 0.79545 0.65913
 H2907 H 0.09338 0.79425 0.64412
 H2908 H 0.15021 0.78187 0.68204
 H2909 H 0.09894 0.73448 0.70579
 H2910 H 0.12285 0.72038 0.72799
 H2911 H 0.15609 0.71941 0.74127
 H2912 H 0.17410 0.76753 0.70411
 C2913 C 0.92182 0.75329 0.67530
 C2914 C 0.90272 0.75146 0.68295
 C2915 C 0.88941 0.73733 0.67513
 C2916 C 0.89545 0.72518 0.65991
 C2917 C 0.91442 0.72710 0.65230
 C2918 C 0.92802 0.74127 0.65973
 C2919 C 0.87023 0.73563 0.68253
 C2920 C 0.86417 0.74791 0.69771
 C2921 C 0.87751 0.76195 0.70570
 C2922 C 0.89671 0.76362 0.69829
 C2923 C 0.87137 0.77414 0.72093
 C2924 C 0.85219 0.77244 0.72818
 C2925 C 0.83876 0.75858 0.72028
 C2926 C 0.84493 0.74634 0.70501
 H2927 H 0.93190 0.76377 0.68203
 H2928 H 0.88537 0.71435 0.65365
 H2929 H 0.91786 0.71796 0.63991
 H2930 H 0.86001 0.72481 0.67644
 H2931 H 0.90692 0.77445 0.70438
 H2932 H 0.88139 0.78499 0.72723
 H2933 H 0.84787 0.78208 0.73994
 H2934 H 0.83481 0.73551 0.69881
 C2935 C 0.41420 0.25537 0.16959
 C2936 C 0.39671 0.25614 0.18033
 C2937 C 0.39436 0.27086 0.19466
 C2938 C 0.40981 0.28441 0.19815
 C2939 C 0.42723 0.28359 0.18728
 C2940 C 0.42946 0.26923 0.17273
 C2941 C 0.37654 0.27187 0.20504
 C2942 C 0.36105 0.25844 0.20108
 C2943 C 0.36366 0.24365 0.18682
 C2944 C 0.38146 0.24253 0.17666
 C2945 C 0.34832 0.23030 0.18270
 C2946 C 0.33036 0.23171 0.19231
 C2947 C 0.32733 0.24645 0.20637
 C2948 C 0.34289 0.25967 0.21088
 H2949 H 0.41592 0.24398 0.15869
 H2950 H 0.40833 0.29579 0.20910
 H2951 H 0.43877 0.29448 0.18992
 H2952 H 0.37465 0.28323 0.21596
 H2953 H 0.38333 0.23123 0.16566
 H2954 H 0.35013 0.21886 0.17187
 H2955 H 0.31878 0.22117 0.18865
 H2956 H 0.34077 0.27110 0.22167
 C2957 C 0.39933 0.76054 0.33099
 C2958 C 0.38162 0.76002 0.32062
 C2959 C 0.38030 0.74955 0.30286
 C2960 C 0.39699 0.74006 0.29563
 C2961 C 0.41461 0.74043 0.30625
 C2962 C 0.41577 0.75038 0.32418
 C2963 C 0.36224 0.74847 0.29288
 C2964 C 0.34553 0.75756 0.30062
 C2965 C 0.34707 0.76817 0.31831
 C2966 C 0.36511 0.76945 0.32810
 C2967 C 0.33049 0.77718 0.32613
 C2968 C 0.31241 0.77562 0.31663
 C2969 C 0.31054 0.76504 0.29907
 C2970 C 0.32724 0.75607 0.29110
 H2971 H 0.40024 0.76858 0.34462
 H2972 H 0.39630 0.73199 0.28202
 H2973 H 0.42713 0.73244 0.30077
 H2974 H 0.36113 0.74034 0.27931
 H2975 H 0.36620 0.77748 0.34174
 H2976 H 0.33146 0.78536 0.33967
 H2977 H 0.29986 0.78271 0.32317
 H2978 H 0.32604 0.74792 0.27755
 C2979 C 0.91285 0.25431 0.82445
 C2980 C 0.89576 0.25319 0.81315
 C2981 C 0.89502 0.24064 0.79672
 C2982 C 0.91165 0.22976 0.79168
 C2983 C 0.92852 0.23060 0.80335
 C2984 C 0.92905 0.24253 0.82008
 C2985 C 0.87750 0.23875 0.78601
 C2986 C 0.86066 0.24890 0.79184
 C2987 C 0.86154 0.26159 0.80817
 C2988 C 0.87916 0.26384 0.81857
 C2989 C 0.84467 0.27155 0.81408
 C2990 C 0.82696 0.26881 0.80406
 C2991 C 0.82584 0.25612 0.78788
 C2992 C 0.84284 0.24630 0.78178
 H2993 H 0.91331 0.26389 0.83709
 H2994 H 0.91136 0.22010 0.77911
 H2995 H 0.94083 0.22133 0.79976
 H2996 H 0.87683 0.22900 0.77349
 H2997 H 0.87978 0.27343 0.83121
 H2998 H 0.84512 0.28133 0.82656
 H2999 H 0.81414 0.27665 0.80904
 H3000 H 0.84224 0.23653 0.76930
 C3001 C 0.56589 1.00182 0.66128
 C3002 C 0.56121 1.00211 0.64129
 C3003 C 0.57391 0.99300 0.62780
 C3004 C 0.59104 0.98397 0.63436
 C3005 C 0.59559 0.98379 0.65411
 C3006 C 0.58307 0.99251 0.66787
 C3007 C 0.56933 0.99296 0.60793
 C3008 C 0.55215 1.00186 0.60124
 C3009 C 0.53945 1.01116 0.61456
 C3010 C 0.54407 1.01126 0.63453
 C3011 C 0.52228 1.02002 0.60764
 C3012 C 0.51756 1.01934 0.58779
 C3013 C 0.52996 1.00983 0.57446
 C3014 C 0.54738 1.00132 0.58138
 H3015 H 0.55607 1.00858 0.67167
 H3016 H 0.60099 0.97707 0.62418
 H3017 H 0.60919 0.97703 0.65859
 H3018 H 0.57908 0.98586 0.59768
 H3019 H 0.53429 1.01832 0.64478
 H3020 H 0.51237 1.02728 0.61759
 H3021 H 0.50406 1.02606 0.58294
 H3022 H 0.55717 0.99394 0.57138
 C3023 C 0.06648 0.50087 1.15811
 C3024 C 0.05979 0.49952 1.13869
 C3025 C 0.07252 0.49245 1.12412
 C3026 C 0.09158 0.48693 1.12902
 C3027 C 0.09827 0.48860 1.14810
 C3028 C 0.08609 0.49579 1.16324
 C3029 C 0.06610 0.49103 1.10479
 C3030 C 0.04712 0.49687 1.09964
 C3031 C 0.03430 0.50421 1.11400
 C3032 C 0.04067 0.50541 1.13350
 C3033 C 0.01537 0.51024 1.10854
 C3034 C 0.00924 0.50892 1.08907
 C3035 C 0.02188 0.50145 1.07471
 C3036 C 0.04085 0.49551 1.08024
 H3037 H 0.05660 0.50700 1.16877
 H3038 H 0.10142 0.48120 1.11803
 H3039 H 0.11288 0.48313 1.15084
 H3040 H 0.07597 0.48548 1.09371
 H3041 H 0.03082 0.51100 1.14455
 H3042 H 0.00531 0.51596 1.11931
 H3043 H -0.00545 0.51362 1.08531
 H3044 H 0.05089 0.48979 1.06942
 C3045 C -0.06148 -0.01348 1.17067
 C3046 C -0.05509 -0.01361 1.15115
 C3047 C -0.06646 -0.00417 1.13682
 C3048 C -0.08382 0.00519 1.14204
 C3049 C -0.08994 0.00547 1.16132
 C3050 C -0.07893 -0.00368 1.17614
 C3051 C -0.06033 -0.00405 1.11743
 C3052 C -0.04271 -0.01296 1.11205
 C3053 C -0.03111 -0.02238 1.12617
 C3054 C -0.03744 -0.02278 1.14568
 C3055 C -0.01331 -0.03098 1.12046
 C3056 C -0.00697 -0.02990 1.10105
 C3057 C -0.01842 -0.02034 1.08698
 C3058 C -0.03643 -0.01216 1.09271
 H3059 H -0.05233 -0.02033 1.18153
 H3060 H -0.09279 0.01228 1.13115
 H3061 H -0.10394 0.01225 1.16427
 H3062 H -0.06915 0.00324 1.10653
 H3063 H -0.02856 -0.02998 1.15658
 H3064 H -0.00417 -0.03831 1.13104
 H3065 H 0.00696 -0.03634 1.09710
 H3066 H -0.04552 -0.00468 1.08217
 C3067 C 0.43762 0.49385 0.67231
 C3068 C 0.44283 0.49373 0.65251
 C3069 C 0.42976 0.50160 0.63862
 C3070 C 0.41173 0.50922 0.64461
 C3071 C 0.40666 0.50921 0.66421
 C3072 C 0.41954 0.50174 0.67832
 C3073 C 0.43488 0.50183 0.61892
 C3074 C 0.45295 0.49434 0.61282
 C3075 C 0.46602 0.48625 0.62654
 C3076 C 0.46087 0.48597 0.64634
 C3077 C 0.48406 0.47876 0.62017
 C3078 C 0.48923 0.47964 0.60048
 C3079 C 0.47644 0.48802 0.58680
 C3080 C 0.45818 0.49511 0.59316
 H3081 H 0.44771 0.48806 0.68302
 H3082 H 0.40151 0.51514 0.63411
 H3083 H 0.39241 0.51486 0.66829
 H3084 H 0.42485 0.50799 0.60835
 H3085 H 0.47092 0.47986 0.65692
 H3086 H 0.49427 0.47243 0.63044
 H3087 H 0.50337 0.47400 0.59601
 H3088 H 0.44806 0.50153 0.58285
 C3089 C 0.43832 0.51161 -0.15675
 C3090 C 0.44300 0.51476 -0.13699
 C3091 C 0.42922 0.50909 -0.12253
 C3092 C 0.41114 0.50050 -0.12791
 C3093 C 0.40668 0.49735 -0.14744
 C3094 C 0.42018 0.50269 -0.16209
 C3095 C 0.43373 0.51185 -0.10285
 C3096 C 0.45201 0.51988 -0.09726
 C3097 C 0.46588 0.52571 -0.11150
 C3098 C 0.46123 0.52326 -0.13135
 C3099 C 0.48427 0.53346 -0.10554
 C3100 C 0.48909 0.53469 -0.08570
 C3101 C 0.47550 0.52840 -0.07149
 C3102 C 0.45677 0.52152 -0.07752
 H3103 H 0.44885 0.51581 -0.16790
 H3104 H 0.40041 0.49619 -0.11699
 H3105 H 0.39241 0.49097 -0.15111
 H3106 H 0.42313 0.50735 -0.09185
 H3107 H 0.47188 0.52761 -0.14235
 H3108 H 0.49512 0.53807 -0.11622
 H3109 H 0.50362 0.54004 -0.08153
 H3110 H 0.44600 0.51667 -0.06685
 C3111 C -0.05783 1.00940 0.33795
 C3112 C -0.05186 1.01237 0.35742
 C3113 C -0.06526 1.00800 0.37263
 C3114 C -0.08428 1.00104 0.36829
 C3115 C -0.09000 0.99800 0.34907
 C3116 C -0.07686 1.00185 0.33369
 C3117 C -0.05940 1.01022 0.39203
 C3118 C -0.04014 1.01634 0.39659
 C3119 C -0.02668 1.02107 0.38160
 C3120 C -0.03268 1.01924 0.36203
 C3121 C -0.00732 1.02696 0.38655
 C3122 C -0.00117 1.02718 0.40607
 C3123 C -0.01434 1.02165 0.42094
 C3124 C -0.03400 1.01695 0.41601
 H3125 H -0.04760 1.01247 0.32621
 H3126 H -0.09473 0.99777 0.37981
 H3127 H -0.10488 0.99271 0.34621
 H3128 H -0.06968 1.00661 0.40361
 H3129 H -0.02233 1.02264 0.35047
 H3130 H 0.00323 1.03076 0.37530
 H3131 H 0.01406 1.03085 0.40944
 H3132 H -0.04444 1.01289 0.42729
 C3133 C 0.05649 0.49367 0.32592
 C3134 C 0.04984 0.49326 0.34538
 C3135 C 0.06361 0.49594 0.36069
 C3136 C 0.08365 0.49847 0.35650
 C3137 C 0.09006 0.49903 0.33730
 C3138 C 0.07662 0.49706 0.32181
 C3139 C 0.05719 0.49649 0.38001
 C3140 C 0.03711 0.49463 0.38438
 C3141 C 0.02323 0.49144 0.36931
 C3142 C 0.02969 0.49070 0.34985
 C3143 C 0.00313 0.48943 0.37406
 C3144 C -0.00313 0.49117 0.39343
 C3145 C 0.01060 0.49508 0.40836
 C3146 C 0.03074 0.49639 0.40366
 H3147 H 0.04603 0.49208 0.31407
 H3148 H 0.09438 0.50035 0.36809
 H3149 H 0.10567 0.50119 0.33453
 H3150 H 0.06781 0.49883 0.39164
 H3151 H 0.01904 0.48854 0.33822
 H3152 H -0.00777 0.48685 0.36276
 H3153 H -0.01873 0.49002 0.39666
 H3154 H 0.04155 0.49908 0.41504
 C3155 C 0.56588 -0.00826 -0.16418
 C3156 C 0.56087 -0.00759 -0.14428
 C3157 C 0.57394 0.00164 -0.13090
 C3158 C 0.59179 0.00979 -0.13746
 C3159 C 0.59663 0.00908 -0.15712
 C3160 C 0.58372 0.00031 -0.17078
 C3161 C 0.56897 0.00279 -0.11116
 C3162 C 0.55099 -0.00506 -0.10451
 C3163 C 0.53794 -0.01453 -0.11770
 C3164 C 0.54297 -0.01580 -0.13753
 C3165 C 0.51996 -0.02231 -0.11083
 C3166 C 0.51478 -0.02028 -0.09121
 C3167 C 0.52750 -0.01047 -0.07805
 C3168 C 0.54576 -0.00319 -0.08487
 H3169 H 0.55577 -0.01506 -0.17451
 H3170 H 0.60204 0.01676 -0.12736
 H3171 H 0.61070 0.01529 -0.16163
 H3172 H 0.57900 0.01002 -0.10101
 H3173 H 0.53290 -0.02294 -0.14769
 H3174 H 0.50977 -0.02969 -0.12068
 H3175 H 0.50064 -0.02609 -0.08643
 H3176 H 0.55582 0.00436 -0.07499
 C3177 C 0.66121 0.59205 -0.00249
 C3178 C 0.64319 0.58176 -0.00015
 C3179 C 0.64114 0.56778 0.01492
 C3180 C 0.65721 0.56409 0.02716
 C3181 C 0.67512 0.57419 0.02458
 C3182 C 0.67728 0.58835 0.00987
 C3183 C 0.62308 0.55777 0.01759
 C3184 C 0.60702 0.56141 0.00529
 C3185 C 0.60915 0.57511 -0.01002
 C3186 C 0.62719 0.58525 -0.01260
 C3187 C 0.59315 0.57849 -0.02244
 C3188 C 0.57516 0.56855 -0.01966
 C3189 C 0.57272 0.55514 -0.00429
 C3190 C 0.58883 0.55161 0.00810
 H3191 H 0.66281 0.60280 -0.01401
 H3192 H 0.65591 0.55344 0.03879
 H3193 H 0.68723 0.57124 0.03437
 H3194 H 0.62151 0.54717 0.02927
 H3195 H 0.62875 0.59587 -0.02425
 H3196 H 0.59452 0.58891 -0.03427
 H3197 H 0.56300 0.57168 -0.02935
 H3198 H 0.58723 0.54122 0.01994
 C3199 C 0.17002 1.09102 0.49037
 C3200 C 0.15206 1.08068 0.49309
 C3201 C 0.14836 1.07106 0.51096
 C3202 C 0.16259 1.07190 0.52574
 C3203 C 0.18027 1.08232 0.52298
 C3204 C 0.18419 1.09206 0.50537
 C3205 C 0.13047 1.06083 0.51386
 C3206 C 0.11609 1.06014 0.49917
 C3207 C 0.11970 1.06975 0.48130
 C3208 C 0.13768 1.07993 0.47835
 C3209 C 0.10521 1.06904 0.46672
 C3210 C 0.08735 1.05890 0.46977
 C3211 C 0.08358 1.04922 0.48747
 C3212 C 0.09814 1.04998 0.50212
 H3213 H 0.17278 1.09861 0.47678
 H3214 H 0.16002 1.06456 0.53949
 H3215 H 0.19102 1.08265 0.53465
 H3216 H 0.12770 1.05347 0.52758
 H3217 H 0.14043 1.08731 0.46463
 H3218 H 0.10769 1.07633 0.45292
 H3219 H 0.07650 1.05862 0.45820
 H3220 H 0.09555 1.04264 0.51588
 C3221 C 0.16978 -0.07848 1.02171
 C3222 C 0.15180 -0.06882 1.01910
 C3223 C 0.14730 -0.06062 1.00083
 C3224 C 0.16076 -0.06209 0.98557
 C3225 C 0.17842 -0.07194 0.98813
 C3226 C 0.18338 -0.08052 1.00618
 C3227 C 0.12928 -0.05133 0.99794
 C3228 C 0.11548 -0.05033 1.01304
 C3229 C 0.11987 -0.05839 1.03141
 C3230 C 0.13810 -0.06746 1.03439
 C3231 C 0.10582 -0.05745 1.04635
 C3232 C 0.08749 -0.04886 1.04302
 C3233 C 0.08294 -0.04094 1.02471
 C3234 C 0.09720 -0.04162 1.00987
 H3235 H 0.17310 -0.08399 1.03606
 H3236 H 0.15743 -0.05601 0.97142
 H3237 H 0.18754 -0.07354 0.97538
 H3238 H 0.12586 -0.04514 0.98384
 H3239 H 0.14147 -0.07375 1.04846
 H3240 H 0.10890 -0.06356 1.06055
 H3241 H 0.07684 -0.04856 1.05473
 H3242 H 0.09403 -0.03561 0.99564
 C3243 C 0.65856 0.42014 0.51580
 C3244 C 0.64077 0.43028 0.51370
 C3245 C 0.63650 0.43958 0.49591
 C3246 C 0.65005 0.43883 0.48066
 C3247 C 0.66756 0.42860 0.48273
 C3248 C 0.67222 0.41883 0.50024
 C3249 C 0.61862 0.44930 0.49349
 C3250 C 0.60481 0.44973 0.50862
 C3251 C 0.60903 0.44065 0.52655
 C3252 C 0.62706 0.43105 0.52903
 C3253 C 0.59503 0.44118 0.54157
 C3254 C 0.57693 0.45041 0.53875
 C3255 C 0.57251 0.45928 0.52085
 C3256 C 0.58671 0.45896 0.50592
 H3257 H 0.66172 0.41371 0.52980
 H3258 H 0.64691 0.44581 0.46688
 H3259 H 0.67680 0.42766 0.46999
 H3260 H 0.61536 0.45632 0.47974
 H3261 H 0.63028 0.42396 0.54275
 H3262 H 0.59801 0.43433 0.55545
 H3263 H 0.56634 0.45043 0.55052
 H3264 H 0.58367 0.46579 0.49204
 C3265 C -0.16869 0.41966 0.48634
 C3266 C -0.15048 0.42981 0.48781
 C3267 C -0.14210 0.43332 0.50636
 C3268 C -0.15182 0.42645 0.52302
 C3269 C -0.16971 0.41614 0.52143
 C3270 C -0.17848 0.41268 0.50314
 C3271 C -0.12409 0.44358 0.50803
 C3272 C -0.11415 0.45022 0.49137
 C3273 C -0.12225 0.44653 0.47276
 C3274 C -0.14047 0.43644 0.47108
 C3275 C -0.11190 0.45296 0.45619
 C3276 C -0.09377 0.46303 0.45808
 C3277 C -0.08578 0.46703 0.47658
 C3278 C -0.09614 0.46047 0.49314
 H3279 H -0.17527 0.41737 0.47213
 H3280 H -0.14548 0.42888 0.53733
 H3281 H -0.17651 0.41060 0.53459
 H3282 H -0.11776 0.44632 0.52230
 H3283 H -0.14677 0.43367 0.45681
 H3284 H -0.11783 0.45020 0.44177
 H3285 H -0.08611 0.46787 0.44509
 H3286 H -0.09011 0.46318 0.50753
 C3287 C 0.34403 -0.07801 -0.00641
 C3288 C 0.36231 -0.06816 -0.00414
 C3289 C 0.36926 -0.06351 0.01475
 C3290 C 0.35806 -0.06898 0.03099
 C3291 C 0.34012 -0.07900 0.02865
 C3292 C 0.33275 -0.08354 0.00998
 C3293 C 0.38735 -0.05357 0.01717
 C3294 C 0.39880 -0.04840 0.00097
 C3295 C 0.39211 -0.05325 -0.01795
 C3296 C 0.37381 -0.06298 -0.02041
 C3297 C 0.40393 -0.04833 -0.03403
 C3298 C 0.42216 -0.03868 -0.03138
 C3299 C 0.42878 -0.03358 -0.01261
 C3300 C 0.41693 -0.03855 0.00348
 H3301 H 0.33856 -0.08121 -0.02091
 H3302 H 0.36329 -0.06569 0.04557
 H3303 H 0.33216 -0.08349 0.04157
 H3304 H 0.39258 -0.04996 0.03169
 H3305 H 0.36861 -0.06663 -0.03492
 H3306 H 0.39910 -0.05198 -0.04865
 H3307 H 0.43099 -0.03505 -0.04402
 H3308 H 0.42190 -0.03494 0.01808
 C3309 C 0.35054 1.08351 0.50663
 C3310 C 0.36798 1.07297 0.50355
 C3311 C 0.37178 1.06480 0.48502
 C3312 C 0.35812 1.06721 0.46995
 C3313 C 0.34089 1.07770 0.47311
 C3314 C 0.33684 1.08600 0.49142
 C3315 C 0.38923 1.05447 0.48176
 C3316 C 0.40303 1.05220 0.49677
 C3317 C 0.39925 1.06025 0.51534
 C3318 C 0.38174 1.07055 0.51864
 C3319 C 0.41314 1.05796 0.53027
 C3320 C 0.43066 1.04793 0.52683
 C3321 C 0.43469 1.03993 0.50837
 C3322 C 0.42065 1.04210 0.49343
 H3323 H 0.34758 1.08965 0.52088
 H3324 H 0.36084 1.06112 0.45564
 H3325 H 0.33089 1.07966 0.46101
 H3326 H 0.39211 1.04829 0.46749
 H3327 H 0.37889 1.07678 0.53289
 H3328 H 0.41050 1.06403 0.54461
 H3329 H 0.44112 1.04657 0.53864
 H3330 H 0.42344 1.03606 0.47910
 C3331 C -0.15857 0.57732 1.01020
 C3332 C -0.14073 0.56759 1.00669
 C3333 C -0.13426 0.56481 0.98734
 C3334 C -0.14551 0.57197 0.97191
 C3335 C -0.16300 0.58186 0.97551
 C3336 C -0.16989 0.58461 0.99464
 C3337 C -0.11657 0.55508 0.98367
 C3338 C -0.10502 0.54825 0.99910
 C3339 C -0.11127 0.55119 1.01847
 C3340 C -0.12916 0.56070 1.02216
 C3341 C -0.09941 0.54464 1.03382
 C3342 C -0.08158 0.53527 1.03001
 C3343 C -0.07531 0.53206 1.01078
 C3344 C -0.08723 0.53865 0.99539
 H3345 H -0.16366 0.57909 1.02502
 H3346 H -0.14067 0.57013 0.95701
 H3347 H -0.17094 0.58768 0.96321
 H3348 H -0.11171 0.55293 0.96879
 H3349 H -0.13399 0.56288 1.03703
 H3350 H -0.10389 0.54683 1.04878
 H3351 H -0.07274 0.53043 1.04216
 H3352 H -0.08257 0.53653 0.98046
 C3353 C 0.00672 0.67211 0.56074
 C3354 C 0.00680 0.65301 0.55314
 C3355 C 0.02231 0.64025 0.55792
 C3356 C 0.03768 0.64702 0.56999
 C3357 C 0.03736 0.66605 0.57770
 C3358 C 0.02177 0.67865 0.57331
 C3359 C 0.02196 0.62087 0.55086
 C3360 C 0.00623 0.61413 0.53921
 C3361 C -0.00911 0.62706 0.53428
 C3362 C -0.00870 0.64640 0.54124
 C3363 C -0.02472 0.62044 0.52253
 C3364 C -0.02519 0.60116 0.51567
 C3365 C -0.01014 0.58809 0.52054
 C3366 C 0.00554 0.59465 0.53240
 H3367 H -0.00555 0.68159 0.55754
 H3368 H 0.04973 0.63749 0.57376
 H3369 H 0.04918 0.67087 0.58728
 H3370 H 0.03378 0.61101 0.55461
 H3371 H -0.02056 0.65623 0.53757
 H3372 H -0.03656 0.63017 0.51863
 H3373 H -0.03747 0.59645 0.50660
 H3374 H 0.01732 0.58474 0.53608
 C3375 C 0.50606 0.17268 0.07082
 C3376 C 0.50676 0.15297 0.06482
 C3377 C 0.50788 0.13788 0.07888
 C3378 C 0.50812 0.14280 0.09870
 C3379 C 0.50702 0.16243 0.10455
 C3380 C 0.50599 0.17750 0.09069
 C3381 C 0.50847 0.11815 0.07292
 C3382 C 0.50747 0.11327 0.05310
 C3383 C 0.50608 0.12836 0.03907
 C3384 C 0.50598 0.14810 0.04500
 C3385 C 0.50451 0.12345 0.01932
 C3386 C 0.50406 0.10378 0.01350
 C3387 C 0.50551 0.08865 0.02727
 C3388 C 0.50744 0.09352 0.04707
 H3389 H 0.50506 0.18426 0.06008
 H3390 H 0.50896 0.13145 0.10968
 H3391 H 0.50712 0.16590 0.11993
 H3392 H 0.50936 0.10660 0.08371
 H3393 H 0.50495 0.15965 0.03422
 H3394 H 0.50341 0.13482 0.00839
 H3395 H 0.50268 0.10039 -0.00186
 H3396 H 0.50838 0.08194 0.05782
 C3397 C -0.01467 0.15463 0.93577
 C3398 C -0.01441 0.13548 0.94299
 C3399 C -0.02625 0.12060 0.93419
 C3400 C -0.03843 0.12534 0.91845
 C3401 C -0.03824 0.14444 0.91103
 C3402 C -0.02615 0.15911 0.91950
 C3403 C -0.02520 0.10120 0.94089
 C3404 C -0.01216 0.09652 0.95597
 C3405 C -0.00049 0.11153 0.96478
 C3406 C -0.00184 0.13091 0.95837
 C3407 C 0.01261 0.10692 0.97972
 C3408 C 0.01428 0.08758 0.98587
 C3409 C 0.00285 0.07244 0.97723
 C3410 C -0.01041 0.07704 0.96226
 H3411 H -0.00503 0.16581 0.94212
 H3412 H -0.04764 0.11416 0.91153
 H3413 H -0.04722 0.14770 0.89845
 H3414 H -0.03416 0.08973 0.93410
 H3415 H 0.00725 0.14236 0.96505
 H3416 H 0.02165 0.11826 0.98658
 H3417 H 0.02462 0.08450 0.99744
 H3418 H -0.01940 0.06554 0.95559
 C3419 C 0.48935 0.65803 0.42720
 C3420 C 0.48872 0.63885 0.43443
 C3421 C 0.47617 0.62453 0.42569
 C3422 C 0.46442 0.62978 0.40979
 C3423 C 0.46524 0.64897 0.40257
 C3424 C 0.47770 0.66323 0.41124
 C3425 C 0.47569 0.60526 0.43294
 C3426 C 0.48770 0.60018 0.44873
 C3427 C 0.50023 0.61461 0.45735
 C3428 C 0.50064 0.63381 0.45017
 C3429 C 0.51224 0.60967 0.47304
 C3430 C 0.51187 0.59061 0.48027
 C3431 C 0.49948 0.57602 0.47195
 C3432 C 0.48742 0.58093 0.45609
 H3433 H 0.49928 0.66883 0.43374
 H3434 H 0.45469 0.61904 0.40290
 H3435 H 0.45604 0.65273 0.39029
 H3436 H 0.46607 0.59425 0.42627
 H3437 H 0.51028 0.64482 0.45682
 H3438 H 0.52193 0.62057 0.47977
 H3439 H 0.52139 0.58735 0.49245
 H3440 H 0.47778 0.56987 0.44956
 C3441 C 0.49437 0.83469 0.42330
 C3442 C 0.49653 0.85219 0.43391
 C3443 C 0.49528 0.85186 0.45444
 C3444 C 0.49242 0.83381 0.46399
 C3445 C 0.49065 0.81633 0.45326
 C3446 C 0.49134 0.81674 0.43287
 C3447 C 0.49691 0.86954 0.46499
 C3448 C 0.50014 0.88743 0.45525
 C3449 C 0.50197 0.88752 0.43474
 C3450 C 0.49998 0.86996 0.42422
 C3451 C 0.50574 0.90520 0.42500
 C3452 C 0.50754 0.92273 0.43540
 C3453 C 0.50533 0.92299 0.45573
 C3454 C 0.50160 0.90526 0.46562
 H3455 H 0.49523 0.83496 0.40755
 H3456 H 0.49156 0.83323 0.47971
 H3457 H 0.48837 0.80254 0.46082
 H3458 H 0.49573 0.86937 0.48072
 H3459 H 0.50116 0.87013 0.40848
 H3460 H 0.50725 0.90549 0.40931
 H3461 H 0.51026 0.93622 0.42744
 H3462 H 0.50002 0.90532 0.48131
 C3463 C -0.00198 0.32916 0.92207
 C3464 C -0.00203 0.34685 0.93249
 C3465 C -0.00477 0.34662 0.95287
 C3466 C -0.00699 0.32855 0.96250
 C3467 C -0.00679 0.31092 0.95196
 C3468 C -0.00457 0.31114 0.93166
 C3469 C -0.00532 0.36443 0.96321
 C3470 C -0.00298 0.38239 0.95340
 C3471 C 0.00015 0.38247 0.93305
 C3472 C 0.00051 0.36473 0.92274
 C3473 C 0.00289 0.40032 0.92329
 C3474 C 0.00254 0.41800 0.93354
 C3475 C -0.00079 0.41818 0.95372
 C3476 C -0.00363 0.40029 0.96358
 H3477 H 0.00010 0.32939 0.90643
 H3478 H -0.00902 0.32807 0.97812
 H3479 H -0.00884 0.29713 0.95958
 H3480 H -0.00757 0.36432 0.97883
 H3481 H 0.00273 0.36483 0.90711
 H3482 H 0.00534 0.40061 0.90772
 H3483 H 0.00466 0.43160 0.92561
 H3484 H -0.00603 0.40030 0.97917
 C3485 C 0.48594 0.34745 0.06766
 C3486 C 0.48808 0.36538 0.05795
 C3487 C 0.50205 0.36742 0.04282
 C3488 C 0.51322 0.35112 0.03732
 C3489 C 0.51129 0.33334 0.04742
 C3490 C 0.49802 0.33156 0.06303
 C3491 C 0.50502 0.38584 0.03397
 C3492 C 0.49451 0.40226 0.04045
 C3493 C 0.48035 0.39993 0.05541
 C3494 C 0.47704 0.38151 0.06384
 C3495 C 0.46998 0.41617 0.06211
 C3496 C 0.47382 0.43471 0.05442
 C3497 C 0.48805 0.43747 0.03974
 C3498 C 0.49819 0.42105 0.03258
 H3499 H 0.47538 0.34609 0.07943
 H3500 H 0.52395 0.35233 0.02570
 H3501 H 0.52081 0.32130 0.04362
 H3502 H 0.51589 0.38751 0.02251
 H3503 H 0.46634 0.37987 0.07546
 H3504 H 0.45905 0.41459 0.07351
 H3505 H 0.46556 0.44695 0.06009
 H3506 H 0.50912 0.42292 0.02122
 C3507 C 0.00270 0.83551 0.55685
 C3508 C 0.00090 0.85432 0.54905
 C3509 C -0.01661 0.86490 0.55209
 C3510 C -0.03240 0.85597 0.56210
 C3511 C -0.03036 0.83720 0.57005
 C3512 C -0.01256 0.82719 0.56798
 C3513 C -0.01771 0.88442 0.54572
 C3514 C -0.00143 0.89345 0.53658
 C3515 C 0.01575 0.88251 0.53292
 C3516 C 0.01675 0.86300 0.53909
 C3517 C 0.03187 0.89138 0.52351
 C3518 C 0.03119 0.91106 0.51808
 C3519 C 0.01447 0.92224 0.52217
 C3520 C -0.00189 0.91333 0.53130
 H3521 H 0.01640 0.82768 0.55514
 H3522 H -0.04598 0.86378 0.56446
 H3523 H -0.04224 0.83095 0.57868
 H3524 H -0.03096 0.89273 0.54836
 H3525 H 0.03009 0.85476 0.53666
 H3526 H 0.04508 0.88315 0.52053
 H3527 H 0.04392 0.91767 0.51100
 H3528 H -0.01495 0.92183 0.53421
 C3529 C 0.25885 0.31565 0.07833
 C3530 C 0.25972 0.30993 0.09796
 C3531 C 0.25458 0.32350 0.11269
 C3532 C 0.24894 0.34250 0.10768
 C3533 C 0.24800 0.34800 0.08824
 C3534 C 0.25268 0.33465 0.07335
 C3535 C 0.25483 0.31784 0.13221
 C3536 C 0.25990 0.29869 0.13732
 C3537 C 0.26533 0.28509 0.12279
 C3538 C 0.26532 0.29083 0.10315
 C3539 C 0.27029 0.26591 0.12821
 C3540 C 0.26926 0.26013 0.14774
 C3541 C 0.26332 0.27348 0.16218
 C3542 C 0.25908 0.29287 0.15680
 H3543 H 0.26248 0.30524 0.06696
 H3544 H 0.24511 0.35309 0.11881
 H3545 H 0.24370 0.36286 0.08483
 H3546 H 0.25069 0.32826 0.14342
 H3547 H 0.26931 0.28037 0.09194
 H3548 H 0.27458 0.25527 0.11731
 H3549 H 0.27266 0.24511 0.15145
 H3550 H 0.25463 0.30344 0.16772
 C3551 C 0.76672 0.81859 0.58692
 C3552 C 0.76803 0.81312 0.60661
 C3553 C 0.76264 0.82665 0.62126
 C3554 C 0.75643 0.84543 0.61610
 C3555 C 0.75523 0.85076 0.59659
 C3556 C 0.76011 0.83740 0.58175
 C3557 C 0.76330 0.82117 0.64086
 C3558 C 0.76913 0.80226 0.64609
 C3559 C 0.77493 0.78878 0.63159
 C3560 C 0.77439 0.79430 0.61190
 C3561 C 0.78077 0.76988 0.63706
 C3562 C 0.78023 0.76420 0.65662
 C3563 C 0.77382 0.77732 0.67106
 C3564 C 0.76872 0.79651 0.66563
 H3565 H 0.77047 0.80810 0.57568
 H3566 H 0.75243 0.85602 0.62717
 H3567 H 0.75064 0.86551 0.59314
 H3568 H 0.75894 0.83153 0.65203
 H3569 H 0.77862 0.78390 0.60074
 H3570 H 0.78535 0.75935 0.62617
 H3571 H 0.78420 0.74933 0.66035
 H3572 H 0.76390 0.80688 0.67658
 C3573 C 0.23981 0.67900 0.59204
 C3574 C 0.24115 0.68521 0.61160
 C3575 C 0.25357 0.67509 0.62459
 C3576 C 0.26457 0.65922 0.61791
 C3577 C 0.26302 0.65306 0.59863
 C3578 C 0.25050 0.66265 0.58555
 C3579 C 0.25471 0.68081 0.64415
 C3580 C 0.24359 0.69651 0.65104
 C3581 C 0.23128 0.70685 0.63818
 C3582 C 0.23011 0.70113 0.61850
 C3583 C 0.22038 0.72272 0.64531
 C3584 C 0.22175 0.72828 0.66494
 C3585 C 0.23389 0.71796 0.67783
 C3586 C 0.24471 0.70203 0.67067
 H3587 H 0.23007 0.68643 0.58208
 H3588 H 0.27423 0.65142 0.62766
 H3589 H 0.27161 0.64065 0.59390
 H3590 H 0.26421 0.67294 0.65405
 H3591 H 0.22059 0.70898 0.60862
 H3592 H 0.21087 0.73087 0.63570
 H3593 H 0.21328 0.74063 0.67002
 H3594 H 0.25433 0.69402 0.68031
 C3595 C 0.75740 0.18498 0.08184
 C3596 C 0.75627 0.18976 0.10176
 C3597 C 0.76337 0.17640 0.11574
 C3598 C 0.77130 0.15856 0.10973
 C3599 C 0.77224 0.15387 0.09003
 C3600 C 0.76547 0.16699 0.07582
 C3601 C 0.76242 0.18100 0.13557
 C3602 C 0.75445 0.19882 0.14172
 C3603 C 0.74720 0.21221 0.12789
 C3604 C 0.74816 0.20761 0.10795
 C3605 C 0.73923 0.23000 0.13430
 C3606 C 0.73871 0.23456 0.15417
 C3607 C 0.74614 0.22141 0.16802
 C3608 C 0.75383 0.20345 0.16158
 H3609 H 0.75215 0.19527 0.07110
 H3610 H 0.77664 0.14811 0.12028
 H3611 H 0.77796 0.13967 0.08597
 H3612 H 0.76795 0.17073 0.14622
 H3613 H 0.74264 0.21789 0.09731
 H3614 H 0.73354 0.24045 0.12394
 H3615 H 0.73269 0.24850 0.15866
 H3616 H 0.75958 0.19308 0.17199
 C3617 C 0.76237 0.18488 0.91086
 C3618 C 0.76094 0.19091 0.89131
 C3619 C 0.75395 0.17740 0.87708
 C3620 C 0.74873 0.15820 0.88244
 C3621 C 0.75003 0.15241 0.90179
 C3622 C 0.75662 0.16565 0.91623
 C3623 C 0.75211 0.18325 0.85768
 C3624 C 0.75704 0.20250 0.85219
 C3625 C 0.76415 0.21610 0.86621
 C3626 C 0.76610 0.21021 0.88573
 C3627 C 0.76908 0.23534 0.86040
 C3628 C 0.76688 0.24103 0.84094
 C3629 C 0.75964 0.22759 0.82694
 C3630 C 0.75483 0.20830 0.83280
 H3631 H 0.76744 0.19520 0.92190
 H3632 H 0.74348 0.14766 0.87168
 H3633 H 0.74590 0.13744 0.90549
 H3634 H 0.74669 0.17283 0.84687
 H3635 H 0.77147 0.22065 0.89655
 H3636 H 0.77460 0.24600 0.87091
 H3637 H 0.77077 0.25597 0.83688
 H3638 H 0.74934 0.19766 0.82225
 C3639 C 0.25203 0.69072 0.42304
 C3640 C 0.25198 0.69777 0.40376
 C3641 C 0.25017 0.68425 0.38813
 C3642 C 0.24898 0.66407 0.39185
 C3643 C 0.24884 0.65726 0.41090
 C3644 C 0.24994 0.67042 0.42668
 C3645 C 0.24912 0.69103 0.36898
 C3646 C 0.24962 0.71120 0.36511
 C3647 C 0.25193 0.72486 0.38050
 C3648 C 0.25317 0.71806 0.39979
 C3649 C 0.25260 0.74507 0.37627
 C3650 C 0.25042 0.75162 0.35707
 C3651 C 0.24740 0.73807 0.34181
 C3652 C 0.24740 0.71786 0.34600
 H3653 H 0.25292 0.70096 0.43513
 H3654 H 0.24777 0.65355 0.38002
 H3655 H 0.24765 0.64156 0.41334
 H3656 H 0.24746 0.68059 0.35710
 H3657 H 0.25465 0.72851 0.41167
 H3658 H 0.25448 0.75580 0.38783
 H3659 H 0.25056 0.76727 0.35422
 H3660 H 0.24540 0.70721 0.33436
 C3661 C 0.75173 0.80857 0.41972
 C3662 C 0.75330 0.79974 0.40124
 C3663 C 0.76893 0.80549 0.38875
 C3664 C 0.78301 0.81937 0.39507
 C3665 C 0.78123 0.82817 0.41328
 C3666 C 0.76539 0.82325 0.42560
 C3667 C 0.76997 0.79775 0.36990
 C3668 C 0.75548 0.78447 0.36319
 C3669 C 0.74017 0.77814 0.37574
 C3670 C 0.73921 0.78576 0.39476
 C3671 C 0.72588 0.76464 0.36882
 C3672 C 0.72641 0.75801 0.34950
 C3673 C 0.74115 0.76493 0.33677
 C3674 C 0.75584 0.77787 0.34389
 H3675 H 0.73945 0.80471 0.42912
 H3676 H 0.79516 0.82377 0.38574
 H3677 H 0.79211 0.83916 0.41766
 H3678 H 0.78178 0.80247 0.36027
 H3679 H 0.72727 0.78122 0.40430
 H3680 H 0.71409 0.75950 0.37824
 H3681 H 0.71494 0.74802 0.34433
 H3682 H 0.76746 0.78308 0.33427
 C3683 C 0.24723 0.31399 0.90951
 C3684 C 0.24546 0.30807 0.88992
 C3685 C 0.24997 0.32170 0.87500
 C3686 C 0.25590 0.34090 0.87976
 C3687 C 0.25751 0.34666 0.89914
 C3688 C 0.25342 0.33333 0.91426
 C3689 C 0.24856 0.31599 0.85550
 C3690 C 0.24271 0.29680 0.85055
 C3691 C 0.23793 0.28309 0.86526
 C3692 C 0.23933 0.28882 0.88493
 C3693 C 0.23201 0.26391 0.85995
 C3694 C 0.23122 0.25832 0.84029
 C3695 C 0.23638 0.27182 0.82563
 C3696 C 0.24185 0.29113 0.83101
 H3697 H 0.24402 0.30355 0.92099
 H3698 H 0.25922 0.35153 0.86847
 H3699 H 0.26169 0.36177 0.90226
 H3700 H 0.25216 0.32648 0.84413
 H3701 H 0.23578 0.27832 0.89628
 H3702 H 0.22819 0.25318 0.87099
 H3703 H 0.22693 0.24336 0.83659
 H3704 H 0.24569 0.30184 0.81995
 C3705 C 0.82350 0.41184 0.75390
 C3706 C 0.81238 0.39428 0.75259
 C3707 C 0.80063 0.39056 0.73594
 C3708 C 0.79978 0.40468 0.72116
 C3709 C 0.81088 0.42211 0.72259
 C3710 C 0.82307 0.42573 0.73879
 C3711 C 0.79024 0.37264 0.73413
 C3712 C 0.79155 0.35833 0.74870
 C3713 C 0.80285 0.36223 0.76561
 C3714 C 0.81315 0.38022 0.76748
 C3715 C 0.80398 0.34787 0.78016
 C3716 C 0.79452 0.32959 0.77772
 C3717 C 0.78379 0.32531 0.76067
 C3718 C 0.78209 0.33997 0.74638
 H3719 H 0.83264 0.41463 0.76660
 H3720 H 0.79080 0.40208 0.70833
 H3721 H 0.81040 0.43252 0.71073
 H3722 H 0.78147 0.36969 0.72121
 H3723 H 0.82206 0.38311 0.78032
 H3724 H 0.81251 0.35064 0.79325
 H3725 H 0.79612 0.31858 0.78893
 H3726 H 0.77373 0.33698 0.73321
 C3727 C 0.32070 0.91788 0.26379
 C3728 C 0.30823 0.90111 0.26327
 C3729 C 0.29776 0.89646 0.24609
 C3730 C 0.29981 0.90851 0.22982
 C3731 C 0.31228 0.92500 0.23032
 C3732 C 0.32319 0.93026 0.24725
 C3733 C 0.28555 0.87966 0.24527
 C3734 C 0.28383 0.86721 0.26138
 C3735 C 0.29411 0.87178 0.27872
 C3736 C 0.30614 0.88882 0.27963
 C3737 C 0.29242 0.85898 0.29467
 C3738 C 0.28112 0.84156 0.29321
 C3739 C 0.27115 0.83673 0.27584
 C3740 C 0.27234 0.84996 0.26014
 H3741 H 0.32771 0.92137 0.27752
 H3742 H 0.29202 0.90497 0.21645
 H3743 H 0.31387 0.93276 0.21674
 H3744 H 0.27764 0.87610 0.23195
 H3745 H 0.31414 0.89231 0.29291
 H3746 H 0.30017 0.86222 0.30812
 H3747 H 0.28055 0.83168 0.30552
 H3748 H 0.26477 0.84660 0.24660
 C3749 C 0.17442 0.90408 0.74247
 C3750 C 0.18468 0.88646 0.74516
 C3751 C 0.19472 0.88321 0.76289
 C3752 C 0.19460 0.89765 0.77746
 C3753 C 0.18417 0.91492 0.77478
 C3754 C 0.17378 0.91824 0.75744
 C3755 C 0.20440 0.86545 0.76598
 C3756 C 0.20399 0.85068 0.75171
 C3757 C 0.19418 0.85390 0.73389
 C3758 C 0.18467 0.87182 0.73067
 C3759 C 0.19380 0.83899 0.71973
 C3760 C 0.20274 0.82096 0.72332
 C3761 C 0.21227 0.81746 0.74114
 C3762 C 0.21298 0.83258 0.75518
 H3763 H 0.16634 0.90646 0.72909
 H3764 H 0.20229 0.89543 0.79108
 H3765 H 0.18409 0.92572 0.78640
 H3766 H 0.21195 0.86297 0.77966
 H3767 H 0.17699 0.87422 0.71706
 H3768 H 0.18638 0.84118 0.70596
 H3769 H 0.20192 0.80965 0.71221
 H3770 H 0.22031 0.83022 0.76898
 C3771 C 0.67082 0.40042 0.23969
 C3772 C 0.68184 0.38312 0.24154
 C3773 C 0.69133 0.37907 0.25939
 C3774 C 0.68989 0.39232 0.27493
 C3775 C 0.67878 0.40924 0.27306
 C3776 C 0.66894 0.41341 0.25558
 C3777 C 0.70186 0.36168 0.26163
 C3778 C 0.70289 0.34805 0.24636
 C3779 C 0.69364 0.35202 0.22841
 C3780 C 0.68325 0.36961 0.22606
 C3781 C 0.69475 0.33815 0.21327
 C3782 C 0.70455 0.32038 0.21604
 C3783 C 0.71348 0.31616 0.23400
 C3784 C 0.71274 0.33030 0.24899
 H3785 H 0.66323 0.40346 0.22618
 H3786 H 0.69717 0.38946 0.28865
 H3787 H 0.67784 0.41916 0.28537
 H3788 H 0.70898 0.35860 0.27540
 H3789 H 0.67601 0.37262 0.21234
 H3790 H 0.68779 0.34091 0.19938
 H3791 H 0.70483 0.30981 0.20424
 H3792 H 0.71960 0.32740 0.26292
 C3793 C 0.67344 0.57962 0.26944
 C3794 C 0.68262 0.59809 0.26671
 C3795 C 0.69172 0.60247 0.24871
 C3796 C 0.69183 0.58823 0.23393
 C3797 C 0.68261 0.56995 0.23673
 C3798 C 0.67313 0.56550 0.25438
 C3799 C 0.70028 0.62109 0.24562
 C3800 C 0.69981 0.63549 0.26025
 C3801 C 0.69105 0.63108 0.27840
 C3802 C 0.68254 0.61238 0.28154
 C3803 C 0.69079 0.64556 0.29299
 C3804 C 0.69886 0.66431 0.28955
 C3805 C 0.70726 0.66896 0.27141
 C3806 C 0.70780 0.65432 0.25690
 H3807 H 0.66638 0.57630 0.28320
 H3808 H 0.69873 0.59136 0.22005
 H3809 H 0.68236 0.55952 0.22480
 H3810 H 0.70709 0.62447 0.23172
 H3811 H 0.67564 0.60904 0.29539
 H3812 H 0.68420 0.64244 0.30702
 H3813 H 0.69825 0.67526 0.30101
 H3814 H 0.71438 0.65757 0.24289
 C3815 C 0.17082 0.08600 0.76025
 C3816 C 0.17969 0.10452 0.75703
 C3817 C 0.19008 0.10805 0.73954
 C3818 C 0.19172 0.09293 0.72576
 C3819 C 0.18281 0.07457 0.72905
 C3820 C 0.17209 0.07095 0.74620
 C3821 C 0.19848 0.12669 0.73600
 C3822 C 0.19664 0.14187 0.74972
 C3823 C 0.18652 0.13827 0.76736
 C3824 C 0.17811 0.11962 0.77090
 C3825 C 0.18491 0.15345 0.78110
 C3826 C 0.19313 0.17206 0.77739
 C3827 C 0.20299 0.17589 0.75979
 C3828 C 0.20470 0.16062 0.74604
 H3829 H 0.16284 0.08332 0.77366
 H3830 H 0.19964 0.09539 0.71228
 H3831 H 0.18383 0.06336 0.71789
 H3832 H 0.20633 0.12941 0.72251
 H3833 H 0.17021 0.11691 0.78437
 H3834 H 0.17724 0.15095 0.79471
 H3835 H 0.19156 0.18352 0.78822
 H3836 H 0.21241 0.16328 0.73247
 C3837 C 0.32687 0.09039 0.23291
 C3838 C 0.31566 0.10755 0.23449
 C3839 C 0.30563 0.11157 0.25206
 C3840 C 0.30679 0.09841 0.26761
 C3841 C 0.31813 0.08159 0.26601
 C3842 C 0.32842 0.07749 0.24879
 C3843 C 0.29488 0.12885 0.25400
 C3844 C 0.29426 0.14242 0.23875
 C3845 C 0.30410 0.13847 0.22109
 C3846 C 0.31463 0.12095 0.21901
 C3847 C 0.30350 0.15231 0.20601
 C3848 C 0.29366 0.17008 0.20858
 C3849 C 0.28414 0.17428 0.22625
 C3850 C 0.28429 0.16013 0.24113
 H3851 H 0.33486 0.08739 0.21961
 H3852 H 0.29912 0.10126 0.28113
 H3853 H 0.31888 0.07173 0.27831
 H3854 H 0.28733 0.13194 0.26755
 H3855 H 0.32232 0.11795 0.20552
 H3856 H 0.31092 0.14955 0.19235
 H3857 H 0.29383 0.18067 0.19685
 H3858 H 0.27701 0.16303 0.25485
 C3859 C 0.83412 0.59103 0.73374
 C3860 C 0.82469 0.60905 0.73681
 C3861 C 0.81399 0.61208 0.75419
 C3862 C 0.81273 0.59712 0.76808
 C3863 C 0.82236 0.57944 0.76506
 C3864 C 0.83328 0.57628 0.74802
 C3865 C 0.80493 0.63011 0.75761
 C3866 C 0.80655 0.64531 0.74398
 C3867 C 0.81714 0.64238 0.72654
 C3868 C 0.82610 0.62422 0.72302
 C3869 C 0.81864 0.65774 0.71302
 C3870 C 0.80979 0.67582 0.71676
 C3871 C 0.79929 0.67888 0.73412
 C3872 C 0.79776 0.66344 0.74763
 H3873 H 0.84265 0.58872 0.72062
 H3874 H 0.80453 0.59919 0.78144
 H3875 H 0.82139 0.56818 0.77614
 H3876 H 0.79680 0.63239 0.77099
 H3877 H 0.83431 0.62198 0.70969
 H3878 H 0.82670 0.65580 0.69957
 H3879 H 0.81122 0.68741 0.70607
 H3880 H 0.78966 0.66546 0.76106
 C3881 C 0.90124 0.75164 0.17466
 C3882 C 0.88376 0.74990 0.18534
 C3883 C 0.88310 0.73805 0.20210
 C3884 C 0.90001 0.72824 0.20800
 C3885 C 0.91736 0.72979 0.19719
 C3886 C 0.91843 0.74141 0.18011
 C3887 C 0.86548 0.73598 0.21255
 C3888 C 0.84845 0.74547 0.20623
 C3889 C 0.84911 0.75735 0.18941
 C3890 C 0.86678 0.75955 0.17911
 C3891 C 0.83205 0.76674 0.18310
 C3892 C 0.81444 0.76437 0.19333
 C3893 C 0.81358 0.75257 0.21008
 C3894 C 0.83073 0.74317 0.21643
 H3895 H 0.90063 0.75992 0.16129
 H3896 H 0.89982 0.71926 0.22100
 H3897 H 0.93006 0.72237 0.20293
 H3898 H 0.86495 0.72684 0.22544
 H3899 H 0.86727 0.76862 0.16617
 H3900 H 0.83232 0.77590 0.17023
 H3901 H 0.80148 0.77183 0.18812
 H3902 H 0.83034 0.73405 0.22933
 C3903 C 0.40465 0.25762 0.67509
 C3904 C 0.38566 0.25419 0.68245
 C3905 C 0.38054 0.23551 0.69004
 C3906 C 0.39433 0.22046 0.68969
 C3907 C 0.41294 0.22375 0.68161
 C3908 C 0.41840 0.24237 0.67425
 C3909 C 0.36163 0.23209 0.69759
 C3910 C 0.34761 0.24696 0.69714
 C3911 C 0.35253 0.26547 0.68898
 C3912 C 0.37162 0.26907 0.68197
 C3913 C 0.33824 0.28007 0.68797
 C3914 C 0.31932 0.27647 0.69523
 C3915 C 0.31452 0.25833 0.70389
 C3916 C 0.32871 0.24360 0.70472
 H3917 H 0.40857 0.27217 0.66989
 H3918 H 0.39056 0.20598 0.69523
 H3919 H 0.42281 0.21146 0.68074
 H3920 H 0.35778 0.21782 0.70362
 H3921 H 0.37546 0.28332 0.67589
 H3922 H 0.34172 0.29429 0.68167
 H3923 H 0.30862 0.28809 0.69461
 H3924 H 0.32502 0.22953 0.71126
 C3925 C 0.41493 0.73754 0.82005
 C3926 C 0.39689 0.73845 0.81025
 C3927 C 0.39488 0.75116 0.79417
 C3928 C 0.41120 0.76240 0.78793
 C3929 C 0.42907 0.76170 0.79807
 C3930 C 0.43094 0.74959 0.81447
 C3931 C 0.37649 0.75282 0.78501
 C3932 C 0.36003 0.74226 0.79205
 C3933 C 0.36222 0.72940 0.80800
 C3934 C 0.38066 0.72739 0.81683
 C3935 C 0.34581 0.71903 0.81519
 C3936 C 0.32728 0.72163 0.80694
 C3937 C 0.32478 0.73456 0.79123
 C3938 C 0.34133 0.74467 0.78369
 H3939 H 0.41634 0.72786 0.83245
 H3940 H 0.40997 0.77220 0.77562
 H3941 H 0.44116 0.77123 0.79356
 H3942 H 0.37486 0.76270 0.77279
 H3943 H 0.38224 0.71767 0.82919
 H3944 H 0.34726 0.70908 0.82737
 H3945 H 0.31488 0.71347 0.81295
 H3946 H 0.33965 0.75465 0.77156
 C3947 C 0.91262 0.24121 0.32705
 C3948 C 0.89506 0.24249 0.31641
 C3949 C 0.89390 0.25572 0.30065
 C3950 C 0.91043 0.26731 0.29574
 C3951 C 0.92782 0.26612 0.30659
 C3952 C 0.92903 0.25322 0.32248
 C3953 C 0.87616 0.25732 0.29027
 C3954 C 0.85953 0.24602 0.29562
 C3955 C 0.86079 0.23277 0.31136
 C3956 C 0.87856 0.23099 0.32155
 C3957 C 0.84419 0.22160 0.31680
 C3958 C 0.82640 0.22361 0.30688
 C3959 C 0.82485 0.23678 0.29122
 C3960 C 0.84158 0.24789 0.28562
 H3961 H 0.91345 0.23094 0.33903
 H3962 H 0.90982 0.27755 0.28373
 H3963 H 0.94014 0.27570 0.30287
 H3964 H 0.87523 0.26751 0.27822
 H3965 H 0.87947 0.22086 0.33366
 H3966 H 0.84492 0.21136 0.32881
 H3967 H 0.81385 0.21475 0.31149
 H3968 H 0.84065 0.25810 0.27359
 C3969 C 0.08690 0.26369 0.31756
 C3970 C 0.10628 0.26450 0.31059
 C3971 C 0.12159 0.27225 0.32247
 C3972 C 0.11708 0.27942 0.34106
 C3973 C 0.09772 0.27837 0.34799
 C3974 C 0.08252 0.27022 0.33641
 C3975 C 0.14113 0.27230 0.31572
 C3976 C 0.14551 0.26444 0.29734
 C3977 C 0.13004 0.25696 0.28546
 C3978 C 0.11057 0.25718 0.29208
 C3979 C 0.13428 0.24901 0.26721
 C3980 C 0.15369 0.24807 0.26084
 C3981 C 0.16936 0.25516 0.27253
 C3982 C 0.16511 0.26359 0.29075
 H3983 H 0.07524 0.25768 0.30839
 H3984 H 0.12859 0.28544 0.35039
 H3985 H 0.09474 0.28336 0.36265
 H3986 H 0.15291 0.27808 0.32488
 H3987 H 0.09879 0.25126 0.28298
 H3988 H 0.12259 0.24328 0.25793
 H3989 H 0.15638 0.24166 0.24668
 H3990 H 0.17700 0.26916 0.29989
 C3991 C 0.59085 0.75682 0.81420
 C3992 C 0.61055 0.75770 0.80816
 C3993 C 0.62401 0.77073 0.81752
 C3994 C 0.61745 0.78278 0.83267
 C3995 C 0.59782 0.78167 0.83874
 C3996 C 0.58438 0.76858 0.82967
 C3997 C 0.64382 0.77134 0.81173
 C3998 C 0.65033 0.75898 0.79677
 C3999 C 0.63681 0.74603 0.78738
 C4000 C 0.61701 0.74552 0.79309
 C4001 C 0.64332 0.73370 0.77246
 C4002 C 0.66305 0.73419 0.76683
 C4003 C 0.67668 0.74698 0.77603
 C4004 C 0.67018 0.75935 0.79106
 H4005 H 0.58055 0.74690 0.80690
 H4006 H 0.62755 0.79284 0.84004
 H4007 H 0.59328 0.79071 0.85088
 H4008 H 0.65416 0.78129 0.81894
 H4009 H 0.60667 0.73552 0.78592
 H4010 H 0.63315 0.72368 0.76515
 H4011 H 0.66761 0.72446 0.75523
 H4012 H 0.68048 0.76937 0.79821
 C4013 C 0.58897 0.24338 0.66966
 C4014 C 0.60691 0.24477 0.67969
 C4015 C 0.60897 0.25810 0.69543
 C4016 C 0.59304 0.26976 0.70086
 C4017 C 0.57524 0.26836 0.69071
 C4018 C 0.57306 0.25522 0.67500
 C4019 C 0.62693 0.25963 0.70540
 C4020 C 0.64289 0.24810 0.69977
 C4021 C 0.64087 0.23477 0.68405
 C4022 C 0.62285 0.23313 0.67415
 C4023 C 0.65698 0.22340 0.67845
 C4024 C 0.67496 0.22529 0.68828
 C4025 C 0.67710 0.23853 0.70393
 C4026 C 0.66091 0.24983 0.70960
 H4027 H 0.58734 0.23299 0.65775
 H4028 H 0.59440 0.28008 0.71285
 H4029 H 0.56327 0.27780 0.69494
 H4030 H 0.62852 0.26987 0.71746
 H4031 H 0.62126 0.22292 0.66207
 H4032 H 0.65568 0.21310 0.66644
 H4033 H 0.68717 0.21636 0.68364
 H4034 H 0.66231 0.26017 0.72158
 C4035 C 0.07485 0.74936 0.17750
 C4036 C 0.09365 0.74859 0.18578
 C4037 C 0.10857 0.73769 0.17657
 C4038 C 0.10428 0.72762 0.15921
 C4039 C 0.08538 0.72830 0.15112
 C4040 C 0.07048 0.73915 0.16022
 C4041 C 0.12747 0.73707 0.18487
 C4042 C 0.13153 0.74718 0.20230
 C4043 C 0.11644 0.75788 0.21152
 C4044 C 0.09766 0.75856 0.20319
 C4045 C 0.12035 0.76786 0.22894
 C4046 C 0.13910 0.76750 0.23711
 C4047 C 0.15440 0.75717 0.22803
 C4048 C 0.15044 0.74688 0.21063
 H4049 H 0.06363 0.75811 0.18446
 H4050 H 0.11549 0.71912 0.15195
 H4051 H 0.08234 0.72009 0.13790
 H4052 H 0.13897 0.72880 0.17779
 H4053 H 0.08616 0.76686 0.21027
 H4054 H 0.10892 0.77607 0.23619
 H4055 H 0.14161 0.77555 0.25053
 H4056 H 0.16205 0.73882 0.20349
   
