data_POSCAR
  _audit_creation_date              2014-09-24
  _audit_creation_method            'ToBaCCo'
  _symmetry_space_group_name_H-M    'P1'
  _symmetry_Int_Tables_number       1
  _symmetry_cell_setting            triclinic
  loop_
  _symmetry_equiv_pos_as_xyz
 x,y,z
_cell_length_a 52.2428
_cell_length_b 54.4482
_cell_length_c 52.6506
_cell_angle_alpha 90.097300
_cell_angle_beta 90.004400
_cell_angle_gamma 89.998000
loop_
  _atom_site_label
  _atom_site_type_symbol
  _atom_site_fract_x
  _atom_site_fract_y
  _atom_site_fract_z
O1 O 0.35605 0.31845 -0.02449
 O2 O 0.32391 0.35556 0.02399
 O3 O 0.35600 0.31954 0.02476
 O4 O 0.32404 0.35447 -0.02542
 O5 O 0.29131 0.32896 -0.02448
 O6 O 0.32435 0.29267 0.02509
 O7 O 0.29161 0.32943 0.02484
 O8 O 0.32408 0.29192 -0.02421
 Cu9 Cu 0.34316 0.33963 -0.00035
 Cu10 Cu 0.30456 0.30808 0.00032
 C11 C 0.34578 0.29880 -0.03252
 C12 C 0.30232 0.34898 0.03270
 C13 C 0.34590 0.30005 0.03333
 C14 C 0.30210 0.34804 -0.03341
 O15 O 0.67850 0.64603 0.02550
 O16 O 0.64330 0.68041 -0.02290
 O17 O 0.67712 0.64620 -0.02379
 O18 O 0.64430 0.68040 0.02645
 O19 O 0.67426 0.70898 0.02553
 O20 O 0.70850 0.67324 -0.02381
 O21 O 0.67378 0.70850 -0.02389
 O22 O 0.70918 0.67391 0.02532
 Cu23 Cu 0.65775 0.66052 0.00144
 Cu24 Cu 0.69451 0.69404 0.00074
 C25 C 0.69993 0.65384 0.03351
 C26 C 0.65243 0.70023 -0.03173
 C27 C 0.69858 0.65349 -0.03223
 C28 C 0.65337 0.70062 0.03438
 O29 O 0.64060 0.32234 1.02218
 O30 O 0.67397 0.35722 0.97297
 O31 O 0.64131 0.32163 0.97279
 O32 O 0.67301 0.35774 1.02225
 O33 O 0.70548 0.33191 1.02254
 O34 O 0.67243 0.29421 0.97391
 O35 O 0.70583 0.33058 0.97341
 O36 O 0.67219 0.29541 1.02340
 Cu37 Cu 0.65405 0.34235 0.99742
 Cu38 Cu 0.69217 0.31025 0.99839
 C39 C 0.65061 0.30305 1.03129
 C40 C 0.69563 0.35011 0.96491
 C41 C 0.65120 0.30171 0.96503
 C42 C 0.69479 0.35138 1.03071
 O43 O 0.32426 0.64278 0.97798
 O44 O 0.35614 0.68016 1.02644
 O45 O 0.32382 0.64431 1.02739
 O46 O 0.35658 0.67848 0.97717
 O47 O 0.32523 0.70566 0.97626
 O48 O 0.29125 0.66997 1.02576
 O49 O 0.32434 0.70685 1.02559
 O50 O 0.29222 0.66917 0.97641
 Cu51 Cu 0.34334 0.65880 1.00240
 Cu52 Cu 0.30500 0.69060 1.00096
 C53 C 0.30289 0.64949 0.96884
 C54 C 0.34592 0.69995 1.03417
 C55 C 0.30179 0.65090 1.03500
 C56 C 0.34673 0.69794 0.96824
 O57 O 0.02422 0.32538 0.35938
 O58 O -0.02566 0.35778 0.32365
 O59 O -0.02569 0.32575 0.35974
 O60 O 0.02401 0.35788 0.32387
 O61 O 0.02351 0.32887 0.29453
 O62 O -0.02499 0.29514 0.33232
 O63 O -0.02630 0.32800 0.29516
 O64 O 0.02464 0.29579 0.33067
 Cu65 Cu -0.00082 0.34461 0.34451
 Cu66 Cu -0.00091 0.30895 0.31025
 C67 C 0.03305 0.30513 0.35116
 C68 C -0.03440 0.34860 0.30324
 C69 C -0.03361 0.30478 0.35264
 C70 C 0.03216 0.34911 0.30305
 O71 O 0.02644 0.67629 0.64269
 O72 O -0.02345 0.64274 0.67727
 O73 O -0.02340 0.67615 0.64241
 O74 O 0.02620 0.64249 0.67702
 O75 O 0.02587 0.67049 0.70739
 O76 O -0.02260 0.70562 0.67114
 O77 O -0.02387 0.67146 0.70690
 O78 O 0.02697 0.70481 0.67254
 Cu79 Cu 0.00140 0.65660 0.65689
 Cu80 Cu 0.00150 0.69098 0.69251
 C81 C 0.03527 0.69625 0.65163
 C82 C -0.03204 0.65118 0.69808
 C83 C -0.03122 0.69685 0.65040
 C84 C 0.03437 0.65048 0.69817
 O85 O 0.96990 0.67839 0.35124
 O86 O 1.02410 0.64397 0.32474
 O87 O 1.01623 0.68129 0.35837
 O88 O 0.97279 0.64349 0.32114
 O89 O 0.97612 0.66929 0.28899
 O90 O 1.02569 0.70378 0.32488
 O91 O 1.02550 0.66843 0.29145
 O92 O 0.97540 0.70658 0.32161
 Cu93 Cu 0.99662 0.65853 0.34144
 Cu94 Cu 1.00091 0.68982 0.30353
 C95 C 0.96399 0.69890 0.34144
 C96 C 1.03346 0.64963 0.30326
 C97 C 1.02810 0.69920 0.34846
 C98 C 0.96627 0.65025 0.29904
 O99 O 0.97019 0.32063 0.65103
 O100 O 1.02503 0.35323 0.67880
 O101 O 1.01666 0.31702 0.64385
 O102 O 0.97391 0.35442 0.68239
 O103 O 0.97649 0.32733 0.71344
 O104 O 1.02572 0.29338 0.67658
 O105 O 1.02582 0.32763 0.71117
 O106 O 0.97534 0.29121 0.67944
 Cu107 Cu 0.99738 0.33959 0.66149
 Cu108 Cu 1.00101 0.30696 0.69823
 C109 C 0.96397 0.29986 0.66001
 C110 C 1.03409 0.34676 0.70017
 C111 C 1.02826 0.29865 0.65318
 C112 C 0.96715 0.34697 0.70419
 O113 O 0.31640 -0.02246 0.35323
 O114 O 0.35390 0.02382 0.31905
 O115 O 0.31956 0.02516 0.35425
 O116 O 0.35189 -0.02378 0.31926
 O117 O 0.32265 -0.02214 0.28901
 O118 O 0.28925 0.02694 0.32509
 O119 O 0.32428 0.02554 0.28920
 O120 O 0.28630 -0.02076 0.32383
 Cu121 Cu 0.33837 0.00053 0.33940
 Cu122 Cu 0.30258 0.00255 0.30378
 C123 C 0.29494 -0.02946 0.34450
 C124 C 0.34565 0.03249 0.29822
 C125 C 0.29892 0.03438 0.34591
 C126 C 0.34311 -0.03123 0.29816
 O127 O 0.64657 0.02185 0.67986
 O128 O 0.68222 -0.02627 0.64655
 O129 O 0.64641 -0.02588 0.68017
 O130 O 0.68262 0.02137 0.64624
 O131 O 0.71200 0.02144 0.67639
 O132 O 0.67497 -0.02581 0.71109
 O133 O 0.71157 -0.02632 0.67673
 O134 O 0.67515 0.02197 0.71075
 Cu135 Cu 0.66157 -0.00220 0.66020
 Cu136 Cu 0.69636 -0.00213 0.69685
 C137 C 0.65452 0.03003 0.70102
 C138 C 0.70298 -0.03447 0.65575
 C139 C 0.65434 -0.03391 0.70137
 C140 C 0.70358 0.02932 0.65526
 O141 O 0.35316 0.97644 0.67991
 O142 O 0.31550 1.02334 0.64688
 O143 O 0.35057 1.02403 0.68157
 O144 O 0.31917 0.97585 0.64464
 O145 O 0.28879 0.97268 0.67359
 O146 O 0.32089 1.02132 0.71127
 O147 O 0.28502 1.02029 0.67575
 O148 O 0.32348 0.97369 0.70964
 Cu149 Cu 0.33758 1.00028 0.66035
 Cu150 Cu 0.30147 0.99679 0.69554
 C151 C 0.34486 0.96707 0.70038
 C152 C 0.29373 1.02963 0.65541
 C153 C 0.34145 1.03076 0.70279
 C154 C 0.29873 0.96596 0.65264
 O155 O 0.64818 0.97763 0.31893
 O156 O 0.68232 1.02542 0.35428
 O157 O 0.64843 1.02528 0.31881
 O158 O 0.68251 0.97766 0.35444
 O159 O 0.71316 0.97720 0.32560
 O160 O 0.67895 1.02551 0.28980
 O161 O 0.71364 1.02483 0.32625
 O162 O 0.67820 0.97776 0.28944
 Cu163 Cu 0.66235 1.00146 0.33948
 Cu164 Cu 0.69908 1.00130 0.30483
 C165 C 0.65703 0.96975 0.29801
 C166 C 0.70392 1.03320 0.34668
 C167 C 0.65772 1.03352 0.29825
 C168 C 0.70371 0.96940 0.34632
 C169 C 0.86738 0.79113 0.47416
 C170 C 0.87671 0.78132 0.49684
 C171 C 0.86789 0.78929 0.52057
 C172 C 0.84918 0.80813 0.52171
 C173 C 0.83998 0.81878 0.49880
 C174 C 0.84893 0.81009 0.47495
 C175 C 0.83855 0.81993 0.45256
 C176 C 0.82016 0.83837 0.45345
 C177 C 0.81147 0.84778 0.47678
 C178 C 0.82118 0.83765 0.49971
 C179 C 0.83869 0.81596 0.54494
 C180 C 0.82038 0.83452 0.54584
 C181 C 0.81163 0.84585 0.52351
 C182 C 0.79283 0.86454 0.52422
 C183 C 0.78382 0.87454 0.50148
 C184 C 0.79265 0.86644 0.47785
 H185 H 0.84431 0.81327 0.43406
 H186 H 0.81256 0.84489 0.43559
 H187 H 0.84418 0.80757 0.56272
 H188 H 0.81285 0.83961 0.56425
 H189 H 0.89113 0.76701 0.49594
 H190 H 0.76959 0.88905 0.50219
 C191 C 0.13771 0.21266 0.47730
 C192 C 0.12644 0.22011 0.50005
 C193 C 0.13025 0.20747 0.52291
 C194 C 0.14728 0.18714 0.52321
 C195 C 0.15976 0.17991 0.50034
 C196 C 0.15468 0.19250 0.47726
 C197 C 0.16717 0.18504 0.45492
 C198 C 0.18422 0.16543 0.45507
 C199 C 0.18960 0.15267 0.47761
 C200 C 0.17737 0.16002 0.50051
 C201 C 0.15204 0.17365 0.54547
 C202 C 0.17024 0.15497 0.54589
 C203 C 0.18324 0.14795 0.52369
 C204 C 0.20227 0.12947 0.52398
 C205 C 0.21376 0.12222 0.50120
 C206 C 0.20753 0.13324 0.47808
 H207 H 0.16419 0.19455 0.43714
 H208 H 0.19356 0.16070 0.43738
 H209 H 0.14194 0.17741 0.56294
 H210 H 0.17385 0.14595 0.56382
 H211 H 0.11377 0.23590 0.49975
 H212 H 0.22810 0.10779 0.50152
 C213 C 0.20513 0.86784 0.47442
 C214 C 0.21675 0.87523 0.49709
 C215 C 0.21052 0.86448 0.52033
 C216 C 0.19247 0.84518 0.52104
 C217 C 0.18002 0.83776 0.49829
 C218 C 0.18596 0.84951 0.47496
 C219 C 0.17283 0.84237 0.45287
 C220 C 0.15433 0.82398 0.45359
 C221 C 0.14931 0.81093 0.47608
 C222 C 0.16202 0.81820 0.49880
 C223 C 0.18715 0.83263 0.54372
 C224 C 0.16971 0.81338 0.54420
 C225 C 0.15671 0.80607 0.52208
 C226 C 0.13895 0.78654 0.52251
 C227 C 0.12745 0.77900 0.49988
 C228 C 0.13173 0.79105 0.47676
 H229 H 0.17656 0.85108 0.43481
 H230 H 0.14414 0.82013 0.43619
 H231 H 0.19680 0.83728 0.56126
 H232 H 0.16681 0.80402 0.56208
 H233 H 0.23107 0.88967 0.49659
 H234 H 0.11417 0.76370 0.50049
 C235 C 0.86656 0.20885 0.52722
 C236 C 0.87465 0.21944 0.50447
 C237 C 0.86583 0.21114 0.48086
 C238 C 0.84841 0.19120 0.47991
 C239 C 0.84048 0.17980 0.50290
 C240 C 0.84947 0.18877 0.52664
 C241 C 0.84040 0.17807 0.54916
 C242 C 0.82302 0.15874 0.54850
 C243 C 0.81412 0.14926 0.52529
 C244 C 0.82276 0.15999 0.50222
 C245 C 0.83787 0.18304 0.45684
 C246 C 0.82050 0.16364 0.45617
 C247 C 0.81295 0.15161 0.47855
 C248 C 0.79502 0.13210 0.47811
 C249 C 0.78720 0.12150 0.50102
 C250 C 0.79605 0.12995 0.52449
 H251 H 0.84638 0.18476 0.56758
 H252 H 0.81640 0.15154 0.56646
 H253 H 0.84253 0.19186 0.43905
 H254 H 0.81272 0.15849 0.43789
 H255 H 0.88794 0.23475 0.50521
 H256 H 0.77350 0.10652 0.50062
 C257 C 0.52171 0.79105 0.86650
 C258 C 0.49827 0.78180 0.87493
 C259 C 0.47498 0.79090 0.86592
 C260 C 0.47492 0.81021 0.84801
 C261 C 0.49859 0.81999 0.83933
 C262 C 0.52209 0.81035 0.84858
 C263 C 0.54525 0.81957 0.83893
 C264 C 0.54543 0.83795 0.82060
 C265 C 0.52246 0.84781 0.81120
 C266 C 0.49877 0.83875 0.82062
 C267 C 0.45197 0.81932 0.83781
 C268 C 0.45215 0.83770 0.81945
 C269 C 0.47529 0.84771 0.81063
 C270 C 0.47572 0.86575 0.79135
 C271 C 0.49918 0.87455 0.78247
 C272 C 0.52244 0.86582 0.79190
 H273 H 0.56350 0.81238 0.84514
 H274 H 0.56380 0.84408 0.81356
 H275 H 0.43361 0.81203 0.84361
 H276 H 0.43392 0.84369 0.81194
 H277 H 0.49816 0.76689 0.88859
 H278 H 0.49936 0.88832 0.76759
 C279 C 0.52562 0.13434 0.20841
 C280 C 0.50250 0.12482 0.21739
 C281 C 0.47886 0.13360 0.20892
 C282 C 0.47814 0.15248 0.19050
 C283 C 0.50145 0.16213 0.18082
 C284 C 0.52529 0.15316 0.18994
 C285 C 0.54806 0.16384 0.18102
 C286 C 0.54754 0.18265 0.16317
 C287 C 0.52423 0.19152 0.15356
 C288 C 0.50092 0.18131 0.16258
 C289 C 0.45484 0.16258 0.18220
 C290 C 0.45432 0.18131 0.16427
 C291 C 0.47708 0.19076 0.15397
 C292 C 0.47675 0.21005 0.13601
 C293 C 0.49991 0.21971 0.12724
 C294 C 0.52350 0.21095 0.13581
 H295 H 0.56655 0.15802 0.18803
 H296 H 0.56565 0.19038 0.15723
 H297 H 0.43672 0.15640 0.18978
 H298 H 0.43584 0.18860 0.15890
 H299 H 0.50292 0.11022 0.23139
 H300 H 0.49957 0.23448 0.11342
 C301 C 0.52191 0.12876 0.79315
 C302 C 0.49840 0.11955 0.78478
 C303 C 0.47519 0.12820 0.79448
 C304 C 0.47530 0.14669 0.81337
 C305 C 0.49902 0.15611 0.82232
 C306 C 0.52243 0.14715 0.81215
 C307 C 0.54561 0.15745 0.82055
 C308 C 0.54588 0.17612 0.83864
 C309 C 0.52298 0.18523 0.84900
 C310 C 0.49929 0.17517 0.84077
 C311 C 0.45238 0.15671 0.82276
 C312 C 0.45265 0.17539 0.84081
 C313 C 0.47584 0.18478 0.85023
 C314 C 0.47629 0.20420 0.86811
 C315 C 0.49981 0.21374 0.87606
 C316 C 0.52302 0.20478 0.86670
 H317 H 0.56379 0.15144 0.81292
 H318 H 0.56425 0.18360 0.84416
 H319 H 0.43396 0.15052 0.81592
 H320 H 0.43441 0.18270 0.84692
 H321 H 0.49817 0.10546 0.77017
 H322 H 0.50006 0.22872 0.88970
 C323 C 0.47627 0.79519 0.13298
 C324 C 0.49966 0.78567 0.12467
 C325 C 0.52302 0.79474 0.13355
 C326 C 0.52325 0.81439 0.15113
 C327 C 0.49968 0.82443 0.15974
 C328 C 0.47609 0.81470 0.15077
 C329 C 0.45304 0.82408 0.16056
 C330 C 0.45306 0.84281 0.17857
 C331 C 0.47612 0.85289 0.18751
 C332 C 0.49970 0.84363 0.17806
 C333 C 0.54630 0.82361 0.16105
 C334 C 0.54631 0.84249 0.17892
 C335 C 0.52328 0.85288 0.18758
 C336 C 0.52307 0.87160 0.20628
 C337 C 0.49965 0.88048 0.21530
 C338 C 0.47631 0.87135 0.20640
 H339 H 0.43472 0.81673 0.15476
 H340 H 0.43475 0.84908 0.18567
 H341 H 0.56459 0.81607 0.15538
 H342 H 0.56462 0.84850 0.18621
 H343 H 0.49970 0.77065 0.11107
 H344 H 0.49955 0.89468 0.22979
 C345 C 0.78760 0.48009 0.86613
 C346 C 0.77833 0.50262 0.87486
 C347 C 0.78756 0.52498 0.86552
 C348 C 0.80707 0.52485 0.84684
 C349 C 0.81734 0.50208 0.83837
 C350 C 0.80746 0.47961 0.84793
 C351 C 0.81705 0.45732 0.83839
 C352 C 0.83638 0.45700 0.82025
 C353 C 0.84681 0.47895 0.81082
 C354 C 0.83697 0.50174 0.81968
 C355 C 0.81587 0.54670 0.83567
 C356 C 0.83504 0.54636 0.81731
 C357 C 0.84617 0.52415 0.80934
 C358 C 0.86555 0.52361 0.79056
 C359 C 0.87524 0.50100 0.78238
 C360 C 0.86617 0.47877 0.79207
 H361 H 0.80952 0.43985 0.84465
 H362 H 0.84277 0.43929 0.81340
 H363 H 0.80772 0.56432 0.84061
 H364 H 0.84072 0.56373 0.80914
 H365 H 0.76341 0.50270 0.88920
 H366 H 0.89022 0.50068 0.76810
 C367 C 0.13949 0.47576 0.21542
 C368 C 0.13093 0.49794 0.22578
 C369 C 0.14023 0.52060 0.21746
 C370 C 0.15870 0.52131 0.19780
 C371 C 0.16745 0.49898 0.18682
 C372 C 0.15802 0.47610 0.19584
 C373 C 0.16803 0.45424 0.18568
 C374 C 0.18650 0.45474 0.16665
 C375 C 0.19561 0.47712 0.15694
 C376 C 0.18616 0.49950 0.16722
 C377 C 0.16931 0.54361 0.18949
 C378 C 0.18755 0.54412 0.17023
 C379 C 0.19596 0.52236 0.15852
 C380 C 0.21464 0.52267 0.13902
 C381 C 0.22345 0.50041 0.12901
 C382 C 0.21460 0.47778 0.13784
 H383 H 0.16199 0.43648 0.19262
 H384 H 0.19375 0.43733 0.15982
 H385 H 0.16391 0.56092 0.19804
 H386 H 0.19532 0.56180 0.16495
 H387 H 0.11650 0.49755 0.24061
 H388 H 0.23775 0.50065 0.11405
 C389 C 0.78968 0.52184 0.13206
 C390 C 0.77947 0.49966 0.12338
 C391 C 0.78740 0.47701 0.13309
 C392 C 0.80679 0.47634 0.15186
 C393 C 0.81777 0.49871 0.16059
 C394 C 0.80901 0.52155 0.15086
 C395 C 0.81907 0.54345 0.16087
 C396 C 0.83774 0.54304 0.17968
 C397 C 0.84704 0.52070 0.18928
 C398 C 0.83688 0.49829 0.17980
 C399 C 0.81476 0.45412 0.16287
 C400 C 0.83363 0.45371 0.18153
 C401 C 0.84516 0.47552 0.19010
 C402 C 0.86399 0.47534 0.20944
 C403 C 0.87383 0.49762 0.21839
 C404 C 0.86555 0.52016 0.20883
 H405 H 0.81234 0.56121 0.15457
 H406 H 0.84455 0.56048 0.18686
 H407 H 0.80622 0.43679 0.15748
 H408 H 0.83871 0.43609 0.18954
 H409 H 0.76472 0.50005 0.10887
 H410 H 0.88819 0.49744 0.23329
 C411 C 0.14096 0.47725 0.78411
 C412 C 0.13160 0.49981 0.77549
 C413 C 0.14064 0.52215 0.78505
 C414 C 0.15964 0.52213 0.80421
 C415 C 0.16919 0.49940 0.81347
 C416 C 0.16013 0.47690 0.80313
 C417 C 0.17110 0.45476 0.81145
 C418 C 0.18973 0.45456 0.83034
 C419 C 0.19818 0.47648 0.84168
 C420 C 0.18825 0.49920 0.83275
 C421 C 0.16991 0.54414 0.81375
 C422 C 0.18862 0.54395 0.83256
 C423 C 0.19779 0.52173 0.84258
 C424 C 0.21690 0.52136 0.86159
 C425 C 0.22586 0.49886 0.87067
 C426 C 0.21700 0.47646 0.86105
 H427 H 0.16570 0.43733 0.80318
 H428 H 0.19773 0.43698 0.83564
 H429 H 0.16384 0.56179 0.80654
 H430 H 0.19599 0.56145 0.83899
 H431 H 0.11664 0.49999 0.76118
 H432 H 0.24017 0.49882 0.88562
 C433 C 0.26603 0.39858 0.08517
 C434 C 0.25098 0.38303 0.06959
 C435 C 0.26286 0.36584 0.05345
 C436 C 0.28964 0.36469 0.05180
 C437 C 0.30445 0.38000 0.06735
 C438 C 0.29289 0.39657 0.08396
 C439 C 0.25278 0.41750 0.10116
 C440 C 0.26608 0.43344 0.11764
 C441 C 0.25325 0.45224 0.13032
 C442 C 0.22687 0.45551 0.12715
 C443 C 0.21313 0.43906 0.11183
 C444 C 0.22588 0.41998 0.09896
 C445 C 0.22427 0.38550 0.06938
 C446 C 0.21202 0.40378 0.08348
 H447 H 0.21271 0.37362 0.05748
 H448 H 0.19140 0.40543 0.08203
 H449 H 0.25129 0.35427 0.04121
 H450 H 0.32516 0.37937 0.06644
 H451 H 0.26408 0.46476 0.14219
 H452 H 0.19271 0.44166 0.10932
 H453 H 0.30540 0.40809 0.09508
 H454 H 0.28642 0.43203 0.12070
 C455 C 0.74190 0.60486 0.08201
 C456 C 0.71481 0.60534 0.08258
 C457 C 0.70132 0.62206 0.06743
 C458 C 0.71436 0.63875 0.05186
 C459 C 0.74117 0.63943 0.05256
 C460 C 0.75484 0.62265 0.06739
 C461 C 0.75544 0.58494 0.09642
 C462 C 0.78211 0.58099 0.09488
 C463 C 0.79344 0.56095 0.10710
 C464 C 0.77857 0.54474 0.12152
 C465 C 0.75220 0.54887 0.12374
 C466 C 0.74051 0.56849 0.11105
 C467 C 0.70126 0.58879 0.09782
 C468 C 0.71386 0.57097 0.11201
 H469 H 0.68053 0.58942 0.09853
 H470 H 0.70248 0.55838 0.12325
 H471 H 0.68056 0.62174 0.06734
 H472 H 0.75162 0.65229 0.04079
 H473 H 0.81377 0.55771 0.10480
 H474 H 0.74064 0.53610 0.13461
 H475 H 0.77546 0.62364 0.06682
 H476 H 0.79438 0.59263 0.08366
 C477 C 0.73418 0.39960 0.91431
 C478 C 0.74852 0.38408 0.93053
 C479 C 0.73595 0.36672 0.94586
 C480 C 0.70913 0.36536 0.94606
 C481 C 0.69504 0.38046 0.92972
 C482 C 0.70733 0.39719 0.91387
 C483 C 0.74806 0.41895 0.89951
 C484 C 0.73549 0.43511 0.88277
 C485 C 0.74877 0.45428 0.87125
 C486 C 0.77491 0.45769 0.87588
 C487 C 0.78797 0.44111 0.89156
 C488 C 0.77477 0.42168 0.90327
 C489 C 0.77514 0.38682 0.93228
 C490 C 0.78794 0.40539 0.91917
 H491 H 0.78615 0.37494 0.94465
 H492 H 0.80842 0.40725 0.92181
 H493 H 0.74693 0.35531 0.95873
 H494 H 0.67432 0.37965 0.92953
 H495 H 0.73848 0.46692 0.85910
 H496 H 0.80821 0.44383 0.89520
 H497 H 0.69534 0.40857 0.90211
 H498 H 0.71535 0.43360 0.87860
 C499 C 0.26741 0.60035 0.91533
 C500 C 0.25211 0.61582 0.93076
 C501 C 0.26374 0.63284 0.94728
 C502 C 0.29049 0.63386 0.94949
 C503 C 0.30555 0.61857 0.93414
 C504 C 0.29425 0.60219 0.91715
 C505 C 0.25441 0.58163 0.89889
 C506 C 0.26796 0.56585 0.88246
 C507 C 0.25535 0.54712 0.86946
 C508 C 0.22893 0.54379 0.87222
 C509 C 0.21493 0.56018 0.88739
 C510 C 0.22747 0.57918 0.90059
 C511 C 0.22540 0.61344 0.93043
 C512 C 0.21337 0.59529 0.91595
 H513 H 0.21364 0.62526 0.94221
 H514 H 0.19272 0.59367 0.91702
 H515 H 0.25198 0.64438 0.95937
 H516 H 0.32624 0.61909 0.93548
 H517 H 0.26638 0.53464 0.85771
 H518 H 0.19448 0.55754 0.88960
 H519 H 0.30693 0.59068 0.90621
 H520 H 0.28835 0.56729 0.87973
 C521 C 0.08792 0.26759 0.39808
 C522 C 0.07262 0.25424 0.38066
 C523 C 0.05572 0.26670 0.36438
 C524 C 0.05293 0.29228 0.36601
 C525 C 0.06823 0.30546 0.38313
 C526 C 0.08565 0.29337 0.39881
 C527 C 0.10446 0.25358 0.41627
 C528 C 0.12061 0.26517 0.43408
 C529 C 0.13296 0.25151 0.45281
 C530 C 0.12981 0.22600 0.45405
 C531 C 0.11541 0.21403 0.43528
 C532 C 0.10282 0.22761 0.41635
 C533 C 0.07332 0.22851 0.38050
 C534 C 0.08780 0.21548 0.39821
 H535 H 0.06168 0.21826 0.36714
 H536 H 0.08685 0.19560 0.39799
 H537 H 0.04373 0.25635 0.35140
 H538 H 0.06649 0.32524 0.38465
 H539 H 0.14410 0.26100 0.46714
 H540 H 0.11282 0.19430 0.43632
 H541 H 0.09649 0.30452 0.41189
 H542 H 0.12335 0.28479 0.43439
 C543 C 0.08824 0.73669 0.60522
 C544 C 0.08618 0.71086 0.60280
 C545 C 0.06946 0.69771 0.61857
 C546 C 0.05484 0.70983 0.63708
 C547 C 0.05810 0.73517 0.64057
 C548 C 0.07454 0.74849 0.62483
 C549 C 0.10410 0.75032 0.58612
 C550 C 0.10501 0.77619 0.58495
 C551 C 0.11765 0.78800 0.56503
 C552 C 0.13018 0.77436 0.54618
 C553 C 0.13055 0.74868 0.54789
 C554 C 0.11724 0.73659 0.56733
 C555 C 0.10033 0.69835 0.58427
 C556 C 0.11577 0.71092 0.56710
 H557 H 0.09907 0.67853 0.58271
 H558 H 0.12591 0.70043 0.55278
 H559 H 0.06744 0.67803 0.61609
 H560 H 0.04720 0.74489 0.65492
 H561 H 0.11666 0.80783 0.56370
 H562 H 0.13993 0.73810 0.53310
 H563 H 0.07592 0.76801 0.62807
 H564 H 0.09511 0.78762 0.59851
 C565 C 0.91454 0.74283 0.38794
 C566 C 0.91155 0.71700 0.38691
 C567 C 0.92657 0.70298 0.37028
 C568 C 0.94471 0.71420 0.35450
 C569 C 0.94634 0.73988 0.35405
 C570 C 0.93144 0.75410 0.37058
 C571 C 0.90055 0.75672 0.40833
 C572 C 0.90412 0.78206 0.41282
 C573 C 0.89255 0.79355 0.43367
 C574 C 0.87692 0.78014 0.45020
 C575 C 0.87245 0.75522 0.44539
 C576 C 0.88430 0.74339 0.42488
 C577 C 0.89441 0.70513 0.40322
 C578 C 0.88090 0.71808 0.42165
 H579 H 0.89186 0.68540 0.40213
 H580 H 0.86832 0.70795 0.43422
 H581 H 0.92495 0.68311 0.37044
 H582 H 0.96018 0.74893 0.34193
 H583 H 0.89640 0.81278 0.43736
 H584 H 0.86053 0.74483 0.45838
 H585 H 0.93401 0.77374 0.37003
 H586 H 0.91642 0.79312 0.40102
 C587 C 0.91220 0.25981 0.61236
 C588 C 0.93128 0.24716 0.62630
 C589 C 0.94679 0.25998 0.64371
 C590 C 0.94425 0.28548 0.64658
 C591 C 0.92477 0.29776 0.63347
 C592 C 0.90874 0.28512 0.61683
 C593 C 0.89781 0.24611 0.59217
 C594 C 0.87902 0.25730 0.57684
 C595 C 0.86821 0.24464 0.55647
 C596 C 0.87553 0.22048 0.55106
 C597 C 0.89317 0.20863 0.56691
 C598 C 0.90438 0.22128 0.58741
 C599 C 0.93576 0.22217 0.62169
 C600 C 0.92272 0.20955 0.60256
 H601 H 0.95024 0.21243 0.63242
 H602 H 0.92752 0.19046 0.59916
 H603 H 0.96208 0.25047 0.65355
 H604 H 0.92246 0.31745 0.63551
 H605 H 0.85453 0.25397 0.54438
 H606 H 0.89889 0.18993 0.56261
 H607 H 0.89452 0.29577 0.60692
 H608 H 0.87283 0.27596 0.57978
 C609 C 0.39552 0.08124 0.25729
 C610 C 0.39651 0.07997 0.28414
 C611 C 0.37974 0.06446 0.29733
 C612 C 0.36150 0.05041 0.28428
 C613 C 0.35947 0.05274 0.25785
 C614 C 0.37632 0.06789 0.24445
 C615 C 0.41537 0.09629 0.24382
 C616 C 0.41794 0.09669 0.21714
 C617 C 0.43802 0.10952 0.20567
 C618 C 0.45564 0.12264 0.22047
 C619 C 0.45284 0.12293 0.24693
 C620 C 0.43323 0.10959 0.25869
 C621 C 0.41445 0.09387 0.29768
 C622 C 0.43220 0.10863 0.28524
 H623 H 0.41495 0.09316 0.31825
 H624 H 0.44588 0.11884 0.29658
 H625 H 0.38108 0.06312 0.31784
 H626 H 0.34538 0.04218 0.24741
 H627 H 0.44027 0.10867 0.18523
 H628 H 0.46672 0.13278 0.25841
 H629 H 0.37417 0.06869 0.22409
 H630 H 0.40522 0.08655 0.20487
 C631 C 0.60434 0.08052 0.73934
 C632 C 0.62084 0.06515 0.75356
 C633 C 0.63843 0.04974 0.74102
 C634 C 0.63901 0.04867 0.71440
 C635 C 0.62291 0.06416 0.70041
 C636 C 0.60599 0.08003 0.71263
 C637 C 0.58473 0.09549 0.75325
 C638 C 0.56757 0.11138 0.74076
 C639 C 0.54799 0.12299 0.75415
 C640 C 0.54517 0.11934 0.78030
 C641 C 0.56289 0.10464 0.79326
 C642 C 0.58271 0.09277 0.77993
 C643 C 0.61884 0.06439 0.78010
 C644 C 0.60001 0.07769 0.79297
 H645 H 0.63147 0.05269 0.79103
 H646 H 0.59871 0.07583 0.81342
 H647 H 0.65060 0.03756 0.75194
 H648 H 0.62311 0.06370 0.67984
 H649 H 0.53447 0.13438 0.74393
 H650 H 0.56063 0.10175 0.81351
 H651 H 0.59383 0.09112 0.70073
 H652 H 0.56854 0.11474 0.72062
 C653 C 0.39455 0.91581 0.73801
 C654 C 0.37788 0.93090 0.75241
 C655 C 0.36060 0.94668 0.74003
 C656 C 0.36063 0.94852 0.71345
 C657 C 0.37716 0.93359 0.69928
 C658 C 0.39373 0.91729 0.71131
 C659 C 0.41356 0.90015 0.75182
 C660 C 0.43033 0.88396 0.73919
 C661 C 0.44956 0.87181 0.75249
 C662 C 0.45242 0.87526 0.77869
 C663 C 0.43488 0.89007 0.79181
 C664 C 0.41534 0.90239 0.77857
 C665 C 0.37946 0.93104 0.77898
 C666 C 0.39807 0.91740 0.79176
 H667 H 0.36674 0.94257 0.79005
 H668 H 0.39913 0.91885 0.81226
 H669 H 0.34813 0.95849 0.75108
 H670 H 0.37745 0.93472 0.67874
 H671 H 0.46288 0.86027 0.74216
 H672 H 0.43712 0.89274 0.81210
 H673 H 0.40627 0.90665 0.69933
 H674 H 0.42929 0.88077 0.71900
 C675 C 0.60776 0.92151 0.25554
 C676 C 0.60726 0.92163 0.28243
 C677 C 0.62412 0.93672 0.29607
 C678 C 0.64188 0.95164 0.28344
 C679 C 0.64352 0.95040 0.25690
 C680 C 0.62663 0.93557 0.24304
 C681 C 0.58761 0.90701 0.24171
 C682 C 0.58460 0.90760 0.21507
 C683 C 0.56418 0.89536 0.20338
 C684 C 0.54663 0.88192 0.21790
 C685 C 0.54991 0.88058 0.24426
 C686 C 0.56991 0.89324 0.25626
 C687 C 0.58958 0.90714 0.29560
 C688 C 0.57149 0.89303 0.28279
 H689 H 0.58947 0.90698 0.31619
 H690 H 0.55797 0.88242 0.29389
 H691 H 0.62304 0.93725 0.31664
 H692 H 0.65719 0.96167 0.24676
 H693 H 0.56164 0.89694 0.18303
 H694 H 0.53613 0.87043 0.25553
 H695 H 0.62836 0.93570 0.22263
 H696 H 0.59725 0.91805 0.20304
 C697 C 0.39277 0.25487 0.91827
 C698 C 0.39343 0.28083 0.91687
 C699 C 0.37723 0.29496 0.93226
 C700 C 0.35990 0.28370 0.94888
 C701 C 0.35790 0.25804 0.94899
 C702 C 0.37419 0.24372 0.93393
 C703 C 0.41247 0.24058 0.90365
 C704 C 0.41560 0.21493 0.90602
 C705 C 0.43576 0.20287 0.89372
 C706 C 0.45288 0.21600 0.87842
 C707 C 0.44943 0.24132 0.87526
 C708 C 0.42977 0.25373 0.88803
 C709 C 0.41067 0.29262 0.90060
 C710 C 0.42822 0.27932 0.88622
 H711 H 0.41087 0.31248 0.89924
 H712 H 0.44143 0.28933 0.87420
 H713 H 0.37851 0.31484 0.93175
 H714 H 0.34451 0.24899 0.96160
 H715 H 0.43847 0.18337 0.89675
 H716 H 0.46291 0.25153 0.86369
 H717 H 0.37228 0.22404 0.93517
 H718 H 0.40330 0.20404 0.91799
 C719 C 0.60377 0.73858 0.91596
 C720 C 0.61965 0.75194 0.93287
 C721 C 0.63687 0.73942 0.94882
 C722 C 0.63753 0.71367 0.94903
 C723 C 0.62198 0.70054 0.93213
 C724 C 0.60552 0.71276 0.91562
 C725 C 0.58451 0.75236 0.90045
 C726 C 0.56819 0.74071 0.88284
 C727 C 0.54868 0.75378 0.87096
 C728 C 0.54509 0.77878 0.87604
 C729 C 0.56212 0.79099 0.89231
 C730 C 0.58190 0.77797 0.90444
 C731 C 0.61726 0.77752 0.93468
 C732 C 0.59855 0.79021 0.92105
 H733 H 0.62940 0.78779 0.94758
 H734 H 0.59685 0.80987 0.92384
 H735 H 0.64859 0.74963 0.96217
 H736 H 0.62226 0.68064 0.93199
 H737 H 0.53574 0.74417 0.85829
 H738 H 0.55931 0.81036 0.89624
 H739 H 0.59372 0.70154 0.90346
 H740 H 0.56978 0.72145 0.87835
 C741 C 0.39265 0.74420 0.08337
 C742 C 0.39340 0.71824 0.08485
 C743 C 0.37728 0.70401 0.06947
 C744 C 0.35996 0.71516 0.05275
 C745 C 0.35789 0.74082 0.05253
 C746 C 0.37410 0.75524 0.06759
 C747 C 0.41229 0.75859 0.09798
 C748 C 0.41529 0.78426 0.09560
 C749 C 0.43545 0.79641 0.10781
 C750 C 0.45272 0.78336 0.12303
 C751 C 0.44934 0.75804 0.12627
 C752 C 0.42967 0.74555 0.11360
 C753 C 0.41068 0.70656 0.10116
 C754 C 0.42820 0.71995 0.11549
 H755 H 0.41094 0.68671 0.10258
 H756 H 0.44147 0.71001 0.12751
 H757 H 0.37862 0.68414 0.07006
 H758 H 0.34452 0.74979 0.03985
 H759 H 0.43809 0.81591 0.10473
 H760 H 0.46292 0.74789 0.13779
 H761 H 0.37214 0.77491 0.06626
 H762 H 0.40290 0.79510 0.08367
 C763 C 0.60398 0.26432 0.08504
 C764 C 0.61985 0.25109 0.06802
 C765 C 0.63647 0.26377 0.05158
 C766 C 0.63648 0.28951 0.05101
 C767 C 0.62098 0.30252 0.06804
 C768 C 0.60514 0.29017 0.08503
 C769 C 0.58527 0.25035 0.10101
 C770 C 0.56897 0.26188 0.11871
 C771 C 0.54983 0.24859 0.13094
 C772 C 0.54666 0.22350 0.12613
 C773 C 0.56375 0.21142 0.10982
 C774 C 0.58313 0.22466 0.09733
 C775 C 0.61801 0.22545 0.06656
 C776 C 0.59979 0.21255 0.08063
 H777 H 0.63015 0.21528 0.05358
 H778 H 0.59845 0.19284 0.07808
 H779 H 0.64817 0.25366 0.03813
 H780 H 0.62078 0.32242 0.06791
 H781 H 0.53683 0.25810 0.14362
 H782 H 0.56125 0.19197 0.10609
 H783 H 0.59332 0.30129 0.09726
 H784 H 0.57023 0.28120 0.12299
 C785 C 0.24978 0.07773 0.60767
 C786 C 0.27670 0.08028 0.60950
 C787 C 0.29073 0.06506 0.62581
 C788 C 0.27839 0.04750 0.64088
 C789 C 0.25160 0.04607 0.64042
 C790 C 0.23741 0.06092 0.62394
 C791 C 0.23591 0.09252 0.58793
 C792 C 0.20967 0.08935 0.58232
 C793 C 0.19828 0.10207 0.56217
 C794 C 0.21265 0.11856 0.54760
 C795 C 0.23844 0.12248 0.55357
 C796 C 0.25025 0.10935 0.57319
 C797 C 0.28959 0.09763 0.59467
 C798 C 0.27658 0.11211 0.57716
 H799 H 0.31014 0.09984 0.59639
 H800 H 0.28750 0.12503 0.56587
 H801 H 0.31143 0.06657 0.62646
 H802 H 0.24169 0.03271 0.65205
 H803 H 0.17845 0.09849 0.55743
 H804 H 0.24964 0.13495 0.54198
 H805 H 0.21689 0.05871 0.62391
 H806 H 0.19791 0.07648 0.59260
 C807 C 0.74442 0.08228 0.39469
 C808 C 0.71785 0.07840 0.39797
 C809 C 0.70461 0.06242 0.38176
 C810 C 0.71708 0.05068 0.36142
 C811 C 0.74300 0.05618 0.35692
 C812 C 0.75658 0.07156 0.37349
 C813 C 0.75834 0.09726 0.41430
 C814 C 0.78527 0.09920 0.41521
 C815 C 0.79734 0.11144 0.43534
 C816 C 0.78282 0.12256 0.45458
 C817 C 0.75606 0.12157 0.45324
 C818 C 0.74380 0.10851 0.43380
 C819 C 0.70461 0.09028 0.41756
 C820 C 0.71723 0.10544 0.43476
 H821 H 0.68415 0.08769 0.41973
 H822 H 0.70613 0.11404 0.44974
 H823 H 0.68441 0.05913 0.38513
 H824 H 0.75315 0.04782 0.34119
 H825 H 0.81805 0.11149 0.43639
 H826 H 0.74479 0.12982 0.46832
 H827 H 0.77658 0.07470 0.36952
 H828 H 0.79732 0.09045 0.40123
 C829 C 0.74464 0.91503 0.60841
 C830 C 0.71755 0.91572 0.60786
 C831 C 0.70417 0.93156 0.62411
 C832 C 0.71725 0.94674 0.64128
 C833 C 0.74396 0.94495 0.64304
 C834 C 0.75756 0.92933 0.62677
 C835 C 0.75823 0.89985 0.58874
 C836 C 0.78509 0.89983 0.58579
 C837 C 0.79655 0.88734 0.56551
 C838 C 0.78156 0.87426 0.54806
 C839 C 0.75501 0.87325 0.55147
 C840 C 0.74323 0.88617 0.57132
 C841 C 0.70393 0.90113 0.59063
 C842 C 0.71650 0.88647 0.57292
 H843 H 0.68318 0.90139 0.59050
 H844 H 0.70507 0.87590 0.55964
 H845 H 0.68346 0.93251 0.62299
 H846 H 0.75443 0.95638 0.65631
 H847 H 0.81707 0.88863 0.56287
 H848 H 0.74339 0.86335 0.53777
 H849 H 0.77813 0.92909 0.62852
 H850 H 0.79747 0.91009 0.59829
 C851 C 0.25181 0.92115 0.39151
 C852 C 0.27880 0.91923 0.38990
 C853 C 0.29259 0.93500 0.37396
 C854 C 0.27993 0.95243 0.35901
 C855 C 0.25312 0.95328 0.35924
 C856 C 0.23916 0.93790 0.37540
 C857 C 0.23813 0.90576 0.41087
 C858 C 0.21181 0.90836 0.41637
 C859 C 0.20060 0.89521 0.43631
 C860 C 0.21524 0.87881 0.45073
 C861 C 0.24111 0.87537 0.44477
 C862 C 0.25274 0.88899 0.42542
 C863 C 0.29197 0.90191 0.40451
 C864 C 0.27916 0.88685 0.42162
 H865 H 0.31258 0.90018 0.40293
 H866 H 0.29028 0.87397 0.43277
 H867 H 0.31332 0.93395 0.37343
 H868 H 0.24299 0.96651 0.34765
 H869 H 0.18071 0.89844 0.44106
 H870 H 0.25251 0.86299 0.45628
 H871 H 0.21859 0.93963 0.37525
 H872 H 0.19984 0.92117 0.40623
 C873 C 0.08630 0.39577 0.73807
 C874 C 0.08367 0.39648 0.71131
 C875 C 0.06724 0.37993 0.69894
 C876 C 0.05359 0.36225 0.71277
 C877 C 0.05746 0.36057 0.73908
 C878 C 0.07355 0.37712 0.75162
 C879 C 0.10203 0.41531 0.75078
 C880 C 0.10342 0.41802 0.77741
 C881 C 0.11677 0.43766 0.78825
 C882 C 0.12954 0.45471 0.77290
 C883 C 0.12879 0.45185 0.74644
 C884 C 0.11482 0.43264 0.73529
 C885 C 0.09711 0.41396 0.69710
 C886 C 0.11264 0.43142 0.70881
 H887 H 0.09540 0.41429 0.67659
 H888 H 0.12244 0.44470 0.69697
 H889 H 0.06472 0.38110 0.67853
 H890 H 0.04732 0.34697 0.75018
 H891 H 0.11655 0.43995 0.80870
 H892 H 0.13828 0.46527 0.73450
 H893 H 0.07547 0.37517 0.77191
 H894 H 0.09360 0.40574 0.79015
 C895 C 0.08706 0.59957 0.26889
 C896 C 0.07278 0.61603 0.25368
 C897 C 0.05638 0.63325 0.26513
 C898 C 0.05309 0.63366 0.29158
 C899 C 0.06732 0.61741 0.30661
 C900 C 0.08425 0.60073 0.29550
 C901 C 0.10336 0.58067 0.25590
 C902 C 0.11875 0.56385 0.26932
 C903 C 0.13170 0.54516 0.25652
 C904 C 0.12983 0.54284 0.23009
 C905 C 0.11561 0.56016 0.21637
 C906 C 0.10259 0.57916 0.22905
 C907 C 0.07403 0.61449 0.22714
 C908 C 0.08833 0.59624 0.21509
 H909 H 0.06311 0.62709 0.21548
 H910 H 0.08799 0.59532 0.19453
 H911 H 0.04516 0.64550 0.25332
 H912 H 0.06510 0.61738 0.32707
 H913 H 0.14268 0.53195 0.26738
 H914 H 0.11398 0.55829 0.19592
 H915 H 0.09431 0.58845 0.30806
 H916 H 0.12072 0.56450 0.28969
 C917 C 0.91460 0.39446 0.26021
 C918 C 0.91506 0.39573 0.28708
 C919 C 0.93102 0.38000 0.30097
 C920 C 0.94644 0.36264 0.28861
 C921 C 0.94473 0.36022 0.26215
 C922 C 0.92907 0.37598 0.24806
 C923 C 0.89946 0.41346 0.24602
 C924 C 0.89997 0.41568 0.21931
 C925 C 0.88749 0.43518 0.20724
 C926 C 0.87383 0.45257 0.22144
 C927 C 0.87234 0.44996 0.24786
 C928 C 0.88533 0.43091 0.26025
 C929 C 0.90010 0.41306 0.29994
 C930 C 0.88531 0.43009 0.28681
 H931 H 0.90015 0.41375 0.32052
 H932 H 0.87441 0.44341 0.29766
 H933 H 0.93188 0.38166 0.32149
 H934 H 0.95635 0.34681 0.25223
 H935 H 0.88923 0.43720 0.18685
 H936 H 0.86202 0.46360 0.25889
 H937 H 0.92891 0.37368 0.22771
 H938 H 0.91069 0.40316 0.20752
 C939 C 0.91738 0.60416 0.74026
 C940 C 0.91833 0.60287 0.71341
 C941 C 0.93416 0.61892 0.69977
 C942 C 0.94896 0.63662 0.71237
 C943 C 0.94679 0.63897 0.73880
 C944 C 0.93124 0.62292 0.75264
 C945 C 0.90228 0.58499 0.75422
 C946 C 0.90229 0.58289 0.78094
 C947 C 0.88961 0.56345 0.79287
 C948 C 0.87622 0.54599 0.77850
 C949 C 0.87545 0.54831 0.75202
 C950 C 0.88863 0.56734 0.73980
 C951 C 0.90394 0.58524 0.70032
 C952 C 0.88916 0.56804 0.71323
 H953 H 0.90439 0.58450 0.67975
 H954 H 0.87866 0.55455 0.70222
 H955 H 0.93537 0.61728 0.67927
 H956 H 0.95791 0.65263 0.74893
 H957 H 0.89082 0.56162 0.81331
 H958 H 0.86539 0.53459 0.74088
 H959 H 0.93068 0.62524 0.77298
 H960 H 0.91269 0.59552 0.79289
 C961 C 0.73823 0.60639 0.91717
 C962 C 0.71156 0.60381 0.92090
 C963 C 0.69857 0.61971 0.93739
 C964 C 0.71142 0.63912 0.94960
 C965 C 0.73742 0.64303 0.94397
 C966 C 0.75076 0.62670 0.92822
 C967 C 0.75186 0.58710 0.90192
 C968 C 0.77877 0.58537 0.90068
 C969 C 0.79050 0.56568 0.88811
 C970 C 0.77570 0.54775 0.87583
 C971 C 0.74895 0.54981 0.87627
 C972 C 0.73699 0.56876 0.88981
 C973 C 0.69798 0.58527 0.90832
 C974 C 0.71035 0.56849 0.89258
 H975 H 0.67744 0.58363 0.91075
 H976 H 0.69900 0.55439 0.88338
 H977 H 0.67829 0.61686 0.94069
 H978 H 0.74785 0.65806 0.95265
 H979 H 0.81115 0.56402 0.88865
 H980 H 0.73742 0.53575 0.86719
 H981 H 0.77084 0.63016 0.92503
 H982 H 0.79102 0.59837 0.91028
 C983 C 0.26400 0.39537 0.91509
 C984 C 0.29066 0.39750 0.91916
 C985 C 0.30313 0.38154 0.93595
 C986 C 0.28971 0.36259 0.94828
 C987 C 0.26364 0.35926 0.94254
 C988 C 0.25087 0.37558 0.92638
 C989 C 0.25100 0.41459 0.89925
 C990 C 0.22415 0.41656 0.89720
 C991 C 0.21300 0.43614 0.88401
 C992 C 0.22834 0.45375 0.87195
 C993 C 0.25503 0.45146 0.87321
 C994 C 0.26641 0.43256 0.88726
 C995 C 0.30479 0.41565 0.90663
 C996 C 0.29299 0.43247 0.89057
 H997 H 0.32531 0.41696 0.90936
 H998 H 0.30475 0.44627 0.88143
 H999 H 0.32344 0.38400 0.93940
 H1000 H 0.25276 0.34462 0.95132
 H1001 H 0.19236 0.43797 0.88388
 H1002 H 0.26696 0.46529 0.86429
 H1003 H 0.23074 0.37250 0.92307
 H1004 H 0.21148 0.40383 0.90657
 C1005 C 0.26269 0.60389 0.08613
 C1006 C 0.28941 0.60166 0.08245
 C1007 C 0.30219 0.61755 0.06583
 C1008 C 0.28905 0.63650 0.05322
 C1009 C 0.26291 0.63994 0.05856
 C1010 C 0.24982 0.62371 0.07458
 C1011 C 0.24938 0.58472 0.10181
 C1012 C 0.22249 0.58290 0.10358
 C1013 C 0.21107 0.56331 0.11654
 C1014 C 0.22617 0.54551 0.12859
 C1015 C 0.25288 0.54770 0.12770
 C1016 C 0.26453 0.56663 0.11392
 C1017 C 0.30327 0.58344 0.09518
 C1018 C 0.29116 0.56662 0.11100
 H1019 H 0.32382 0.58205 0.09274
 H1020 H 0.30273 0.55274 0.12025
 H1021 H 0.32254 0.61499 0.06269
 H1022 H 0.25222 0.65459 0.04955
 H1023 H 0.19042 0.56158 0.11644
 H1024 H 0.26463 0.53374 0.13665
 H1025 H 0.22965 0.62685 0.07755
 H1026 H 0.21000 0.59578 0.09416
 C1027 C 0.73178 0.39966 0.08215
 C1028 C 0.74587 0.38084 0.06998
 C1029 C 0.73328 0.36378 0.05419
 C1030 C 0.70703 0.36643 0.04870
 C1031 C 0.69337 0.38555 0.06051
 C1032 C 0.70541 0.40168 0.07719
 C1033 C 0.74583 0.41788 0.09824
 C1034 C 0.73318 0.43584 0.11284
 C1035 C 0.74703 0.45409 0.12527
 C1036 C 0.77378 0.45491 0.12357
 C1037 C 0.78673 0.43617 0.11048
 C1038 C 0.77291 0.41738 0.09823
 C1039 C 0.77260 0.38009 0.07245
 C1040 C 0.78588 0.39836 0.08569
 H1041 H 0.78351 0.36580 0.06304
 H1042 H 0.80660 0.39761 0.08607
 H1043 H 0.74430 0.34947 0.04490
 H1044 H 0.67315 0.38822 0.05682
 H1045 H 0.73676 0.46821 0.13562
 H1046 H 0.80743 0.43668 0.10918
 H1047 H 0.69389 0.41619 0.08520
 H1048 H 0.71263 0.43631 0.11464
 C1049 C 0.91965 0.73788 0.60241
 C1050 C 0.92275 0.71230 0.59883
 C1051 C 0.93876 0.69886 0.61501
 C1052 C 0.95111 0.71017 0.63570
 C1053 C 0.94615 0.73514 0.64052
 C1054 C 0.93089 0.74891 0.62394
 C1055 C 0.90472 0.75198 0.58291
 C1056 C 0.90399 0.77788 0.58215
 C1057 C 0.89144 0.79010 0.56236
 C1058 C 0.87864 0.77683 0.54335
 C1059 C 0.87877 0.75110 0.54434
 C1060 C 0.89226 0.73866 0.56338
 C1061 C 0.90996 0.70025 0.57904
 C1062 C 0.89452 0.71307 0.56208
 H1063 H 0.91192 0.68057 0.57661
 H1064 H 0.88507 0.70289 0.54705
 H1065 H 0.94156 0.67942 0.61138
 H1066 H 0.95496 0.74440 0.65652
 H1067 H 0.89229 0.80996 0.56151
 H1068 H 0.86934 0.74074 0.52941
 H1069 H 0.92819 0.76813 0.62818
 H1070 H 0.91391 0.78894 0.59604
 C1071 C 0.91549 0.26703 0.40169
 C1072 C 0.92839 0.25412 0.38217
 C1073 C 0.94393 0.26693 0.36477
 C1074 C 0.94852 0.29226 0.36785
 C1075 C 0.93602 0.30475 0.38770
 C1076 C 0.91952 0.29246 0.40411
 C1077 C 0.89966 0.25279 0.42025
 C1078 C 0.88427 0.26422 0.43876
 C1079 C 0.87212 0.25033 0.45739
 C1080 C 0.87493 0.22474 0.45810
 C1081 C 0.88882 0.21298 0.43873
 C1082 C 0.90074 0.22684 0.41951
 C1083 C 0.92693 0.22841 0.38114
 C1084 C 0.91402 0.21504 0.39983
 H1085 H 0.93692 0.21841 0.36635
 H1086 H 0.91446 0.19516 0.39886
 H1087 H 0.95379 0.25683 0.34994
 H1088 H 0.93900 0.32423 0.39074
 H1089 H 0.86114 0.25970 0.47194
 H1090 H 0.89101 0.19319 0.43912
 H1091 H 0.91094 0.30307 0.41918
 H1092 H 0.88163 0.28386 0.43938
 C1093 C 0.07192 0.25445 0.60326
 C1094 C 0.04942 0.26635 0.59490
 C1095 C 0.03614 0.28203 0.61130
 C1096 C 0.04291 0.28378 0.63707
 C1097 C 0.06355 0.26969 0.64609
 C1098 C 0.07848 0.25583 0.62918
 C1099 C 0.08719 0.24033 0.58412
 C1100 C 0.11296 0.23368 0.58798
 C1101 C 0.12706 0.22256 0.56843
 C1102 C 0.11527 0.21630 0.54531
 C1103 C 0.08930 0.22212 0.54190
 C1104 C 0.07586 0.23544 0.56027
 C1105 C 0.03974 0.26176 0.57055
 C1106 C 0.05205 0.24562 0.55407
 H1107 H 0.02203 0.27026 0.56441
 H1108 H 0.04357 0.24224 0.53560
 H1109 H 0.01939 0.29168 0.60430
 H1110 H 0.06886 0.27026 0.66597
 H1111 H 0.14737 0.21956 0.57113
 H1112 H 0.08008 0.21793 0.52394
 H1113 H 0.09471 0.24586 0.63664
 H1114 H 0.12280 0.23836 0.60539
 C1115 C 0.07242 0.74394 0.39725
 C1116 C 0.04959 0.73280 0.40581
 C1117 C 0.03603 0.71698 0.38979
 C1118 C 0.04292 0.71434 0.36414
 C1119 C 0.06391 0.72774 0.35482
 C1120 C 0.07907 0.74174 0.37140
 C1121 C 0.08798 0.75814 0.41609
 C1122 C 0.11394 0.76402 0.41220
 C1123 C 0.12828 0.77517 0.43157
 C1124 C 0.11657 0.78221 0.45449
 C1125 C 0.09043 0.77720 0.45790
 C1126 C 0.07668 0.76386 0.43976
 C1127 C 0.03991 0.73822 0.42997
 C1128 C 0.05257 0.75446 0.44610
 H1129 H 0.02196 0.73031 0.43624
 H1130 H 0.04411 0.75848 0.46443
 H1131 H 0.01903 0.70788 0.39698
 H1132 H 0.06932 0.72648 0.33499
 H1133 H 0.14867 0.77759 0.42890
 H1134 H 0.08126 0.78203 0.47570
 H1135 H 0.09558 0.75113 0.36376
 H1136 H 0.12372 0.75872 0.39496
 C1137 C 0.60485 0.91496 0.73946
 C1138 C 0.62055 0.93106 0.75378
 C1139 C 0.63790 0.94676 0.74135
 C1140 C 0.63892 0.94745 0.71473
 C1141 C 0.62352 0.93137 0.70066
 C1142 C 0.60689 0.91518 0.71278
 C1143 C 0.58553 0.89958 0.75320
 C1144 C 0.56937 0.88278 0.74064
 C1145 C 0.54979 0.87092 0.75373
 C1146 C 0.54601 0.87522 0.77967
 C1147 C 0.56291 0.89069 0.79280
 C1148 C 0.58272 0.90282 0.77976
 C1149 C 0.61793 0.93223 0.78025
 C1150 C 0.59920 0.91867 0.79292
 H1151 H 0.62994 0.94450 0.79126
 H1152 H 0.59733 0.92091 0.81329
 H1153 H 0.64952 0.95942 0.75232
 H1154 H 0.62407 0.93155 0.68009
 H1155 H 0.53694 0.85889 0.74339
 H1156 H 0.55993 0.89403 0.81290
 H1157 H 0.59524 0.90363 0.70081
 H1158 H 0.57109 0.87892 0.72063
 C1159 C 0.39222 0.91816 0.25901
 C1160 C 0.37695 0.93485 0.24501
 C1161 C 0.35938 0.95020 0.25767
 C1162 C 0.35761 0.94980 0.28425
 C1163 C 0.37218 0.93276 0.29793
 C1164 C 0.38904 0.91697 0.28555
 C1165 C 0.41227 0.90364 0.24521
 C1166 C 0.42872 0.88700 0.25761
 C1167 C 0.44879 0.87586 0.24453
 C1168 C 0.45279 0.88071 0.21877
 C1169 C 0.43586 0.89623 0.20580
 C1170 C 0.41562 0.90773 0.21885
 C1171 C 0.38027 0.93700 0.21869
 C1172 C 0.39930 0.92387 0.20593
 H1173 H 0.36853 0.94967 0.20791
 H1174 H 0.40163 0.92679 0.18570
 H1175 H 0.34834 0.96355 0.24702
 H1176 H 0.37097 0.93206 0.31847
 H1177 H 0.46173 0.86384 0.25473
 H1178 H 0.43907 0.90002 0.18584
 H1179 H 0.40002 0.90466 0.29728
 H1180 H 0.42686 0.88272 0.27750
 C1181 C 0.60995 0.08353 0.25659
 C1182 C 0.60941 0.08308 0.28348
 C1183 C 0.62577 0.06736 0.29687
 C1184 C 0.64309 0.05214 0.28399
 C1185 C 0.64487 0.05372 0.25748
 C1186 C 0.62845 0.06917 0.24387
 C1187 C 0.59017 0.09860 0.24300
 C1188 C 0.58711 0.09831 0.21636
 C1189 C 0.56678 0.11083 0.20489
 C1190 C 0.54942 0.12428 0.21966
 C1191 C 0.55289 0.12551 0.24600
 C1192 C 0.57275 0.11254 0.25778
 C1193 C 0.59211 0.09783 0.29689
 C1194 C 0.57437 0.11247 0.28431
 H1195 H 0.59200 0.09775 0.31748
 H1196 H 0.56108 0.12322 0.29556
 H1197 H 0.62465 0.06657 0.31743
 H1198 H 0.65826 0.04224 0.24717
 H1199 H 0.56407 0.10935 0.18455
 H1200 H 0.53922 0.13567 0.25744
 H1201 H 0.63023 0.06928 0.22346
 H1202 H 0.59957 0.08778 0.20416
 C1203 C 0.38963 0.07918 0.74600
 C1204 C 0.38902 0.08048 0.71915
 C1205 C 0.37223 0.06549 0.70534
 C1206 C 0.35574 0.04915 0.71777
 C1207 C 0.35503 0.04903 0.74438
 C1208 C 0.37181 0.06384 0.75839
 C1209 C 0.40994 0.09347 0.75980
 C1210 C 0.41401 0.09164 0.78624
 C1211 C 0.43467 0.10365 0.79776
 C1212 C 0.45142 0.11801 0.78326
 C1213 C 0.44705 0.12065 0.75719
 C1214 C 0.42676 0.10832 0.74533
 C1215 C 0.40571 0.09612 0.70611
 C1216 C 0.42402 0.10992 0.71895
 H1217 H 0.40495 0.09735 0.68558
 H1218 H 0.43682 0.12140 0.70794
 H1219 H 0.37256 0.06599 0.68474
 H1220 H 0.34234 0.03662 0.75436
 H1221 H 0.43804 0.10119 0.81789
 H1222 H 0.46021 0.13158 0.74596
 H1223 H 0.37094 0.06257 0.77881
 H1224 H 0.40202 0.08042 0.79819
 C1225 C 0.60518 0.74050 0.08608
 C1226 C 0.62121 0.75334 0.06894
 C1227 C 0.63833 0.74033 0.05325
 C1228 C 0.63879 0.71457 0.05357
 C1229 C 0.62321 0.70196 0.07082
 C1230 C 0.60682 0.71468 0.08705
 C1231 C 0.58590 0.75478 0.10115
 C1232 C 0.56924 0.74365 0.11876
 C1233 C 0.54971 0.75715 0.13017
 C1234 C 0.54646 0.78208 0.12463
 C1235 C 0.56382 0.79379 0.10835
 C1236 C 0.58358 0.78033 0.09665
 C1237 C 0.61907 0.77889 0.06660
 C1238 C 0.60045 0.79206 0.07992
 H1239 H 0.63135 0.78877 0.05354
 H1240 H 0.59896 0.81166 0.07673
 H1241 H 0.65008 0.75015 0.03967
 H1242 H 0.62333 0.68207 0.07140
 H1243 H 0.53649 0.74791 0.14282
 H1244 H 0.56124 0.81309 0.10401
 H1245 H 0.59498 0.70384 0.09949
 H1246 H 0.57053 0.72446 0.12358
 C1247 C 0.39265 0.25825 0.08460
 C1248 C 0.39323 0.28425 0.08498
 C1249 C 0.37714 0.29771 0.06889
 C1250 C 0.36001 0.28574 0.05255
 C1251 C 0.35809 0.26008 0.05342
 C1252 C 0.37427 0.24643 0.06920
 C1253 C 0.41230 0.24462 0.09991
 C1254 C 0.41551 0.21890 0.09857
 C1255 C 0.43578 0.20743 0.11125
 C1256 C 0.45292 0.22123 0.12593
 C1257 C 0.44926 0.24662 0.12825
 C1258 C 0.42950 0.25843 0.11506
 C1259 C 0.41030 0.29672 0.10092
 C1260 C 0.42782 0.28407 0.11589
 H1261 H 0.41042 0.31662 0.10150
 H1262 H 0.44095 0.29459 0.12757
 H1263 H 0.37834 0.31759 0.06864
 H1264 H 0.34484 0.25050 0.04107
 H1265 H 0.43865 0.18786 0.10886
 H1266 H 0.46274 0.25734 0.13935
 H1267 H 0.37243 0.22670 0.06871
 H1268 H 0.40326 0.20749 0.08705
 C1269 C 0.60457 0.26031 0.91325
 C1270 C 0.62045 0.24796 0.93091
 C1271 C 0.63713 0.26145 0.94665
 C1272 C 0.63723 0.28720 0.94585
 C1273 C 0.62182 0.29931 0.92808
 C1274 C 0.60591 0.28611 0.91180
 C1275 C 0.58565 0.24556 0.89821
 C1276 C 0.56912 0.25620 0.88016
 C1277 C 0.54973 0.24238 0.86895
 C1278 C 0.54653 0.21759 0.87512
 C1279 C 0.56388 0.20628 0.89171
 C1280 C 0.58347 0.22010 0.90326
 C1281 C 0.61855 0.22243 0.93374
 C1282 C 0.60024 0.20885 0.92044
 H1283 H 0.63072 0.21293 0.94718
 H1284 H 0.59886 0.18930 0.92405
 H1285 H 0.64876 0.25203 0.96064
 H1286 H 0.62169 0.31919 0.92712
 H1287 H 0.53651 0.25128 0.85605
 H1288 H 0.56134 0.18707 0.89650
 H1289 H 0.59416 0.29659 0.89895
 H1290 H 0.57036 0.27529 0.87489
 C1291 C 0.39373 0.73719 0.91510
 C1292 C 0.37775 0.75024 0.93216
 C1293 C 0.36102 0.73740 0.94836
 C1294 C 0.36099 0.71164 0.94868
 C1295 C 0.37664 0.69881 0.93163
 C1296 C 0.39258 0.71133 0.91486
 C1297 C 0.41255 0.75135 0.89939
 C1298 C 0.42894 0.74002 0.88164
 C1299 C 0.44823 0.75341 0.86975
 C1300 C 0.45148 0.77843 0.87495
 C1301 C 0.43423 0.79036 0.89123
 C1302 C 0.41471 0.77700 0.90339
 C1303 C 0.37960 0.77587 0.93391
 C1304 C 0.39793 0.78892 0.92012
 H1305 H 0.36737 0.78591 0.94692
 H1306 H 0.39926 0.80860 0.92292
 H1307 H 0.34924 0.74739 0.96183
 H1308 H 0.37686 0.67891 0.93157
 H1309 H 0.46134 0.74401 0.85709
 H1310 H 0.43677 0.80974 0.89526
 H1311 H 0.40451 0.70035 0.90260
 H1312 H 0.42766 0.72074 0.87710
 C1313 C 0.74461 0.91997 0.39540
 C1314 C 0.71753 0.92101 0.39594
 C1315 C 0.70435 0.93664 0.37932
 C1316 C 0.71764 0.95108 0.36169
 C1317 C 0.74434 0.94895 0.36007
 C1318 C 0.75772 0.93364 0.37676
 C1319 C 0.75801 0.90479 0.41513
 C1320 C 0.78486 0.90456 0.41812
 C1321 C 0.79623 0.89149 0.43800
 C1322 C 0.78118 0.87797 0.45499
 C1323 C 0.75456 0.87760 0.45183
 C1324 C 0.74288 0.89115 0.43240
 C1325 C 0.70374 0.90679 0.41333
 C1326 C 0.71614 0.89192 0.43094
 H1327 H 0.68300 0.90734 0.41348
 H1328 H 0.70458 0.88146 0.44417
 H1329 H 0.68365 0.93784 0.38037
 H1330 H 0.75499 0.95981 0.34648
 H1331 H 0.81678 0.89242 0.44053
 H1332 H 0.74286 0.86745 0.46522
 H1333 H 0.77827 0.93303 0.37496
 H1334 H 0.79732 0.91497 0.40587
 C1335 C 0.26342 0.91401 0.60210
 C1336 C 0.24828 0.92713 0.61986
 C1337 C 0.25998 0.94307 0.63744
 C1338 C 0.28654 0.94682 0.63690
 C1339 C 0.30148 0.93340 0.61967
 C1340 C 0.29018 0.91708 0.60265
 C1341 C 0.25020 0.89859 0.58248
 C1342 C 0.26361 0.88508 0.56387
 C1343 C 0.25050 0.87310 0.54442
 C1344 C 0.22377 0.87398 0.54319
 C1345 C 0.21008 0.88622 0.56230
 C1346 C 0.22309 0.89849 0.58194
 C1347 C 0.22155 0.92513 0.61918
 C1348 C 0.20922 0.91129 0.60050
 H1349 H 0.20993 0.93507 0.63281
 H1350 H 0.18848 0.91098 0.60029
 H1351 H 0.24830 0.95355 0.65059
 H1352 H 0.32205 0.93585 0.61905
 H1353 H 0.26129 0.86363 0.52981
 H1354 H 0.18936 0.88699 0.56124
 H1355 H 0.30274 0.90769 0.58963
 H1356 H 0.28420 0.88396 0.56359
 C1357 C 0.26190 0.08568 0.39597
 C1358 C 0.24720 0.07196 0.37834
 C1359 C 0.25941 0.05631 0.36080
 C1360 C 0.28610 0.05349 0.36125
 C1361 C 0.30060 0.06762 0.37824
 C1362 C 0.28877 0.08365 0.39520
 C1363 C 0.24820 0.10060 0.41569
 C1364 C 0.26117 0.11441 0.43436
 C1365 C 0.24770 0.12589 0.45390
 C1366 C 0.22101 0.12420 0.45515
 C1367 C 0.20771 0.11165 0.43600
 C1368 C 0.22110 0.09982 0.41630
 C1369 C 0.22041 0.07305 0.37912
 C1370 C 0.20765 0.08655 0.39779
 H1371 H 0.20911 0.06268 0.36557
 H1372 H 0.18691 0.08617 0.39805
 H1373 H 0.24807 0.04529 0.34783
 H1374 H 0.32126 0.06591 0.37877
 H1375 H 0.25819 0.13559 0.46856
 H1376 H 0.18703 0.11025 0.43709
 H1377 H 0.30103 0.09362 0.40804
 H1378 H 0.28172 0.11613 0.43466
 C1379 C 0.74650 0.07797 0.60707
 C1380 C 0.71939 0.07796 0.60660
 C1381 C 0.70562 0.06265 0.62303
 C1382 C 0.71832 0.04745 0.64040
 C1383 C 0.74508 0.04855 0.64204
 C1384 C 0.75907 0.06357 0.62552
 C1385 C 0.76045 0.09281 0.58742
 C1386 C 0.78729 0.09217 0.58436
 C1387 C 0.79908 0.10488 0.56444
 C1388 C 0.78444 0.11885 0.54749
 C1389 C 0.75789 0.12017 0.55079
 C1390 C 0.74579 0.10705 0.57025
 C1391 C 0.70612 0.09283 0.58940
 C1392 C 0.71905 0.10729 0.57182
 H1393 H 0.68538 0.09306 0.58931
 H1394 H 0.70788 0.11824 0.55869
 H1395 H 0.68488 0.06223 0.62199
 H1396 H 0.75527 0.03706 0.65543
 H1397 H 0.81959 0.10332 0.56185
 H1398 H 0.74653 0.13072 0.53744
 H1399 H 0.77964 0.06335 0.62723
 H1400 H 0.79940 0.08134 0.59659
 C1401 C 0.91501 0.60119 0.26040
 C1402 C 0.93273 0.61538 0.24629
 C1403 C 0.94839 0.63268 0.25871
 C1404 C 0.94728 0.63532 0.28520
 C1405 C 0.92929 0.62169 0.29897
 C1406 C 0.91321 0.60504 0.28680
 C1407 C 0.90003 0.58167 0.24689
 C1408 C 0.88227 0.56641 0.25941
 C1409 C 0.87052 0.54706 0.24660
 C1410 C 0.87589 0.54259 0.22099
 C1411 C 0.89264 0.55821 0.20793
 C1412 C 0.90472 0.57774 0.22069
 C1413 C 0.93552 0.61141 0.22013
 C1414 C 0.92195 0.59289 0.20765
 H1415 H 0.94898 0.62230 0.20927
 H1416 H 0.92534 0.59009 0.18754
 H1417 H 0.96246 0.64302 0.24800
 H1418 H 0.92799 0.62359 0.31942
 H1419 H 0.85755 0.53513 0.25686
 H1420 H 0.89684 0.55463 0.18810
 H1421 H 0.90013 0.59487 0.29860
 H1422 H 0.87749 0.56872 0.27918
 C1423 C 0.91779 0.39572 0.74580
 C1424 C 0.91671 0.39453 0.71896
 C1425 C 0.93209 0.37778 0.70573
 C1426 C 0.94861 0.36188 0.71872
 C1427 C 0.94858 0.36192 0.74533
 C1428 C 0.93339 0.37867 0.75878
 C1429 C 0.90296 0.41564 0.75898
 C1430 C 0.90446 0.41999 0.78538
 C1431 C 0.89182 0.44004 0.79634
 C1432 C 0.87714 0.45590 0.78132
 C1433 C 0.87490 0.45136 0.75525
 C1434 C 0.88784 0.43163 0.74396
 C1435 C 0.90084 0.41050 0.70535
 C1436 C 0.88654 0.42851 0.71761
 H1437 H 0.89979 0.40934 0.68482
 H1438 H 0.87488 0.44070 0.70618
 H1439 H 0.93166 0.37754 0.68513
 H1440 H 0.96110 0.34969 0.75575
 H1441 H 0.89402 0.44356 0.81648
 H1442 H 0.86375 0.46383 0.74362
 H1443 H 0.93452 0.37831 0.77923
 H1444 H 0.91587 0.40862 0.79773
 C1445 C 0.08614 0.60327 0.73873
 C1446 C 0.08572 0.60343 0.71184
 C1447 C 0.06938 0.61950 0.69884
 C1448 C 0.05353 0.63583 0.71213
 C1449 C 0.05506 0.63679 0.73869
 C1450 C 0.07110 0.62066 0.75190
 C1451 C 0.10197 0.58406 0.75182
 C1452 C 0.10169 0.58051 0.77837
 C1453 C 0.11509 0.56097 0.78936
 C1454 C 0.12943 0.54488 0.77422
 C1455 C 0.13053 0.54872 0.74795
 C1456 C 0.11668 0.56784 0.73664
 C1457 C 0.10118 0.58722 0.69801
 C1458 C 0.11655 0.57000 0.71016
 H1459 H 0.10111 0.58762 0.67743
 H1460 H 0.12787 0.55761 0.69858
 H1461 H 0.06867 0.61898 0.67826
 H1462 H 0.04310 0.64939 0.74933
 H1463 H 0.11362 0.55794 0.80963
 H1464 H 0.14134 0.53605 0.73620
 H1465 H 0.07116 0.62184 0.77235
 H1466 H 0.09055 0.59203 0.79085
 C1467 C 0.08466 0.39491 0.26175
 C1468 C 0.08486 0.39446 0.28864
 C1469 C 0.06828 0.37879 0.30183
 C1470 C 0.05156 0.36312 0.28874
 C1471 C 0.05247 0.36234 0.26215
 C1472 C 0.06876 0.37811 0.24874
 C1473 C 0.10073 0.41386 0.24852
 C1474 C 0.09989 0.41780 0.22204
 C1475 C 0.11340 0.43725 0.21103
 C1476 C 0.12842 0.45287 0.22606
 C1477 C 0.13020 0.44853 0.25220
 C1478 C 0.11623 0.42952 0.26356
 C1479 C 0.10115 0.41004 0.30229
 C1480 C 0.11673 0.42700 0.29000
 H1481 H 0.10157 0.40939 0.32287
 H1482 H 0.12867 0.43894 0.30147
 H1483 H 0.06803 0.37912 0.32243
 H1484 H 0.03983 0.35023 0.25168
 H1485 H 0.11145 0.44066 0.19085
 H1486 H 0.14156 0.46082 0.26389
 H1487 H 0.06830 0.37716 0.22828
 H1488 H 0.08817 0.40669 0.20967
   
