data_POSCAR
  _audit_creation_date              2014-09-24
  _audit_creation_method            'ToBaCCo'
  _symmetry_space_group_name_H-M    'P1'
  _symmetry_Int_Tables_number       1
  _symmetry_cell_setting            triclinic
  loop_
  _symmetry_equiv_pos_as_xyz
 x,y,z
_cell_length_a 56.8325
_cell_length_b 55.9545
_cell_length_c 57.8217
_cell_angle_alpha 88.692400
_cell_angle_beta 90.620100
_cell_angle_gamma 91.217600
loop_
  _atom_site_label
  _atom_site_type_symbol
  _atom_site_fract_x
  _atom_site_fract_y
  _atom_site_fract_z
C1 C 0.72275 0.61810 1.05014
 C2 C 0.73616 0.62692 1.03150
 C3 C 0.76045 0.63098 1.03442
 C4 C 0.77170 0.62585 1.05575
 C5 C 0.75782 0.61649 1.07408
 C6 C 0.73335 0.61241 1.07163
 C7 C 0.72488 0.62990 1.00847
 C8 C 0.70401 0.64278 1.00585
 C9 C 0.69213 0.64374 0.98444
 C10 C 0.70123 0.63153 0.96568
 C11 C 0.72212 0.61875 0.96800
 C12 C 0.73401 0.61824 0.98940
 H13 H 0.70427 0.61407 1.04711
 H14 H 0.77056 0.63722 1.01962
 H15 H 0.69685 0.65170 1.02056
 H16 H 0.74982 0.60789 0.99149
 H17 H 0.76578 0.61423 1.09103
 H18 H 0.69229 0.63241 0.94904
 C19 C 0.77757 0.40134 0.48373
 C20 C 0.78836 0.38882 0.50203
 C21 C 0.80940 0.37690 0.49841
 C22 C 0.81963 0.37728 0.47634
 C23 C 0.80881 0.39040 0.45822
 C24 C 0.78764 0.40222 0.46170
 C25 C 0.77665 0.38745 0.52459
 C26 C 0.75678 0.37255 0.52754
 C27 C 0.74383 0.37295 0.54802
 C28 C 0.75089 0.38866 0.56553
 C29 C 0.77095 0.40363 0.56287
 C30 C 0.78389 0.40266 0.54230
 H31 H 0.76122 0.41036 0.48671
 H32 H 0.81718 0.36658 0.51250
 H33 H 0.75105 0.36111 0.51359
 H34 H 0.79938 0.41400 0.53978
 H35 H 0.81649 0.39083 0.44115
 H36 H 0.74057 0.38933 0.58113
 C37 C 0.23731 -0.11027 -0.02174
 C38 C 0.25079 -0.11947 -0.00336
 C39 C 0.27263 -0.12964 -0.00775
 C40 C 0.28136 -0.13076 -0.03055
 C41 C 0.26763 -0.12038 -0.04859
 C42 C 0.24563 -0.11056 -0.04437
 C43 C 0.24184 -0.11831 0.02049
 C44 C 0.21897 -0.12660 0.02557
 C45 C 0.20938 -0.12418 0.04780
 C46 C 0.22347 -0.11272 0.06473
 C47 C 0.24646 -0.10441 0.05989
 C48 C 0.25559 -0.10760 0.03776
 H49 H 0.22053 -0.10227 -0.01832
 H50 H 0.28187 -0.13774 0.00676
 H51 H 0.20850 -0.13407 0.01166
 H52 H 0.27327 -0.10130 0.03373
 H53 H 0.27390 -0.11941 -0.06616
 H54 H 0.21691 -0.11060 0.08201
 C55 C 0.25141 0.13697 0.54199
 C56 C 0.26622 0.14249 0.52320
 C57 C 0.29030 0.14712 0.52736
 C58 C 0.29957 0.14586 0.54992
 C59 C 0.28449 0.14051 0.56845
 C60 C 0.26040 0.13590 0.56470
 C61 C 0.25666 0.14226 0.49921
 C62 C 0.23466 0.15212 0.49397
 C63 C 0.22501 0.15084 0.47156
 C64 C 0.23757 0.13950 0.45428
 C65 C 0.25981 0.13005 0.45913
 C66 C 0.26922 0.13149 0.48159
 H67 H 0.23304 0.13251 0.53882
 H68 H 0.30192 0.15132 0.51304
 H69 H 0.22495 0.16073 0.50737
 H70 H 0.28607 0.12356 0.48547
 H71 H 0.29158 0.14017 0.58593
 H72 H 0.23043 0.13876 0.43685
 C73 C 0.13107 0.51880 0.22542
 C74 C 0.14250 0.50275 0.24053
 C75 C 0.15317 0.51112 0.26085
 C76 C 0.15312 0.53556 0.26573
 C77 C 0.14159 0.55142 0.25042
 C78 C 0.13013 0.54339 0.23013
 C79 C 0.14284 0.47711 0.23490
 C80 C 0.14989 0.47020 0.21287
 C81 C 0.14872 0.44612 0.20665
 C82 C 0.14057 0.42891 0.22289
 C83 C 0.13281 0.43554 0.24481
 C84 C 0.13439 0.45975 0.25079
 H85 H 0.12182 0.51148 0.21066
 H86 H 0.16213 0.49875 0.27245
 H87 H 0.15572 0.48374 0.20038
 H88 H 0.12791 0.46535 0.26731
 H89 H 0.14227 0.57023 0.25429
 H90 H 0.14019 0.41023 0.21835
 C91 C -0.11728 -0.04637 0.23757
 C92 C -0.12803 -0.03087 0.25264
 C93 C -0.13473 -0.03921 0.27473
 C94 C -0.13081 -0.06314 0.28212
 C95 C -0.11903 -0.07803 0.26666
 C96 C -0.11288 -0.06996 0.24435
 C97 C -0.13287 -0.00609 0.24483
 C98 C -0.14302 -0.00172 0.22297
 C99 C -0.14614 0.02177 0.21423
 C100 C -0.13856 0.04091 0.22824
 C101 C -0.12860 0.03672 0.25028
 C102 C -0.12607 0.01317 0.25853
 H103 H -0.11212 -0.03998 0.22049
 H104 H -0.14438 -0.02714 0.28521
 H105 H -0.14744 -0.01697 0.21249
 H106 H -0.11773 0.00978 0.27520
 H107 H -0.11455 -0.09612 0.27155
 H108 H -0.14119 0.05925 0.22267
 C109 C 0.38287 0.46888 0.72606
 C110 C 0.37178 0.48533 0.73998
 C111 C 0.36600 0.47880 0.76290
 C112 C 0.37113 0.45585 0.77217
 C113 C 0.38235 0.43973 0.75761
 C114 C 0.38839 0.44611 0.73479
 C115 C 0.36672 0.50958 0.73064
 C116 C 0.35579 0.51260 0.70886
 C117 C 0.35080 0.53556 0.70002
 C118 C 0.35698 0.55560 0.71314
 C119 C 0.36856 0.55282 0.73451
 C120 C 0.37328 0.52984 0.74325
 H121 H 0.38784 0.47409 0.70858
 H122 H 0.35807 0.49205 0.77350
 H123 H 0.35077 0.49705 0.69896
 H124 H 0.38233 0.52778 0.75975
 H125 H 0.38539 0.42153 0.76338
 H126 H 0.35363 0.57343 0.70632
 C127 C 0.62527 1.01643 0.74148
 C128 C 0.63832 1.00035 0.75519
 C129 C 0.64906 1.00800 0.77580
 C130 C 0.64738 1.03198 0.78257
 C131 C 0.63298 1.04730 0.76914
 C132 C 0.62238 1.04002 0.74837
 C133 C 0.64225 0.97611 0.74667
 C134 C 0.65297 0.97354 0.72520
 C135 C 0.65540 0.95090 0.71580
 C136 C 0.64660 0.93071 0.72804
 C137 C 0.63588 0.93284 0.74973
 C138 C 0.63421 0.95578 0.75912
 H139 H 0.61776 1.01056 0.72522
 H140 H 0.66019 0.99566 0.78529
 H141 H 0.65898 0.98933 0.71560
 H142 H 0.62618 0.95803 0.77581
 H143 H 0.62948 1.06505 0.77511
 H144 H 0.64782 0.91334 0.72037
 C145 C -0.03531 0.26519 -0.11182
 C146 C -0.01604 0.27539 -0.12362
 C147 C -0.01802 0.29801 -0.13432
 C148 C -0.03891 0.31102 -0.13297
 C149 C -0.05787 0.30066 -0.12043
 C150 C -0.05633 0.27776 -0.11005
 C151 C 0.00670 0.26303 -0.12407
 C152 C 0.00811 0.23977 -0.13247
 C153 C 0.03000 0.22827 -0.13378
 C154 C 0.05032 0.24073 -0.12564
 C155 C 0.04903 0.26400 -0.11725
 C156 C 0.02717 0.27499 -0.11660
 H157 H -0.03364 0.24781 -0.10339
 H158 H -0.00276 0.30571 -0.14298
 H159 H -0.00806 0.23079 -0.13771
 H160 H 0.02599 0.29289 -0.10999
 H161 H -0.07452 0.30966 -0.11989
 H162 H 0.06762 0.23330 -0.12729
 C163 C 0.53749 0.23739 0.09987
 C164 C 0.51732 0.24504 0.11106
 C165 C 0.51873 0.26480 0.12544
 C166 C 0.54040 0.27641 0.12951
 C167 C 0.56069 0.26811 0.11889
 C168 C 0.55952 0.24885 0.10358
 C169 C 0.49479 0.23188 0.10842
 C170 C 0.49113 0.21006 0.12037
 C171 C 0.46907 0.19832 0.11955
 C172 C 0.45094 0.20827 0.10597
 C173 C 0.45452 0.22993 0.09358
 C174 C 0.47653 0.24177 0.09512
 H175 H 0.53565 0.22271 0.08810
 H176 H 0.50305 0.27069 0.13398
 H177 H 0.50512 0.20280 0.13111
 H178 H 0.47958 0.25860 0.08588
 H179 H 0.57738 0.27688 0.12265
 H180 H 0.43386 0.19930 0.10540
 C181 C 1.02669 0.76906 0.60514
 C182 C 1.00778 0.77800 0.61718
 C183 C 1.01079 0.79855 0.63031
 C184 C 1.03297 0.81035 0.63206
 C185 C 1.05195 0.80076 0.61983
 C186 C 1.04895 0.78029 0.60630
 C187 C 0.98485 0.76538 0.61646
 C188 C 0.98124 0.74461 0.63005
 C189 C 0.95928 0.73269 0.63000
 C190 C 0.94103 0.74160 0.61589
 C191 C 0.94468 0.76204 0.60174
 C192 C 0.96666 0.77398 0.60223
 H193 H 1.02386 0.75344 0.59466
 H194 H 0.99543 0.80540 0.63858
 H195 H 0.99539 0.73805 0.64102
 H196 H 0.96962 0.78995 0.59161
 H197 H 1.06955 0.80820 0.62171
 H198 H 0.92419 0.73216 0.61536
 C199 C 0.45634 0.72633 0.37327
 C200 C 0.47774 0.73735 0.36687
 C201 C 0.47781 0.76102 0.35815
 C202 C 0.45669 0.77363 0.35605
 C203 C 0.43548 0.76243 0.36313
 C204 C 0.43520 0.73871 0.37157
 C205 C 0.49993 0.72429 0.37069
 C206 C 0.50139 0.70015 0.36461
 C207 C 0.52113 0.68684 0.37105
 C208 C 0.53954 0.69774 0.38351
 C209 C 0.53867 0.72196 0.38901
 C210 C 0.51893 0.73523 0.38239
 H211 H 0.45623 0.70827 0.38047
 H212 H 0.49428 0.76962 0.35308
 H213 H 0.48698 0.69156 0.35534
 H214 H 0.51790 0.75372 0.38740
 H215 H 0.41908 0.77186 0.36138
 H216 H 0.55483 0.68748 0.38845
 C217 C 0.39494 -0.01681 0.30150
 H218 H 0.39097 -0.00009 0.30948
 C219 C 0.40614 -0.03478 0.31445
 H220 H 0.41110 -0.03155 0.33226
 C221 C 0.39178 -0.04198 0.26918
 H222 H 0.38538 -0.04522 0.25190
 C223 C 0.40305 -0.06031 0.28141
 H224 H 0.40506 -0.07736 0.27324
 N225 N 0.38741 -0.02094 0.27950
 C226 C 0.36445 0.03926 0.23622
 H227 H 0.34605 0.03389 0.23558
 C228 C 0.37207 0.05970 0.22415
 H229 H 0.35944 0.06979 0.21397
 C230 C 0.40308 0.03239 0.25037
 H231 H 0.41494 0.02171 0.26085
 C232 C 0.41154 0.05289 0.23842
 H233 H 0.42997 0.05800 0.23984
 Zn234 Zn 0.36542 0.00029 0.26567
 N235 N 0.37978 0.02629 0.24930
 C236 C 0.34652 0.03658 0.29264
 N237 N 0.34669 0.01254 0.28960
 C238 C 0.33464 -0.00274 0.30406
 C239 C 0.32115 0.00611 0.32194
 C240 C 0.33351 0.04614 0.31038
 C241 C 0.35681 -0.02128 0.22342
 C242 C 0.34439 -0.03369 0.20640
 C243 C 0.31068 -0.03570 0.23151
 C244 C 0.32374 -0.02311 0.24804
 N245 N 0.34652 -0.01652 0.24389
 H246 H 0.35667 0.04849 0.28149
 H247 H 0.33560 -0.02182 0.30176
 H248 H 0.31167 -0.00625 0.33332
 H249 H 0.33344 0.06534 0.31234
 H250 H 0.37483 -0.01553 0.22039
 H251 H 0.35309 -0.03770 0.19042
 H252 H 0.29258 -0.04084 0.23507
 H253 H 0.31560 -0.01868 0.26411
 C254 C 0.39579 0.06704 0.22544
 C255 C 0.40966 -0.05715 0.30462
 C256 C 0.32104 -0.04117 0.21039
 C257 C 0.32055 0.03087 0.32526
 C258 C 0.11343 1.03548 0.79936
 H259 H 0.12214 1.02045 0.80745
 C260 C 0.10350 1.05256 0.81322
 H261 H 0.10471 1.05040 0.83185
 C262 C 0.10115 1.05636 0.76542
 H263 H 0.10062 1.05787 0.74673
 C264 C 0.09115 1.07409 0.77868
 H265 H 0.08323 1.08932 0.77002
 N266 N 0.11313 1.03825 0.77593
 C267 C 0.11429 1.00107 0.71648
 H268 H 0.12309 1.01691 0.70953
 C269 C 0.10503 0.98421 0.70136
 H270 H 0.10671 0.98747 0.68291
 C271 C 0.10107 0.97804 0.74880
 H272 H 0.09978 0.97567 0.76737
 C273 C 0.09192 0.96036 0.73424
 H274 H 0.08397 0.94435 0.74188
 Zn275 Zn 0.13211 1.01765 0.75862
 N276 N 0.11331 0.99715 0.73976
 C277 C 0.15131 0.97597 0.78192
 N278 N 0.15177 1.00022 0.77941
 C279 C 0.16723 1.01393 0.79174
 C280 C 0.18234 1.00347 0.80799
 C281 C 0.16591 0.96477 0.79827
 C282 C 0.15381 1.05926 0.73619
 C283 C 0.16966 1.07021 0.72069
 C284 C 0.18485 1.03130 0.71260
 C285 C 0.16864 1.02112 0.72799
 N286 N 0.15330 1.03505 0.73916
 H287 H 0.13972 0.96518 0.77137
 H288 H 0.16752 1.03315 0.78913
 H289 H 0.19413 1.01473 0.81803
 H290 H 0.16516 0.94548 0.80037
 H291 H 0.14199 1.07014 0.74566
 H292 H 0.16979 1.08945 0.71827
 H293 H 0.19650 1.01980 0.70346
 H294 H 0.16795 1.00194 0.73081
 C295 C 0.09479 0.96287 0.71016
 C296 C 0.09314 1.07278 0.80294
 C297 C 0.18535 1.05611 0.70863
 C298 C 0.18152 0.97863 0.81164
 C299 C 0.60251 0.50901 0.30094
 H300 H 0.61505 0.50251 0.31357
 C301 C 0.58770 0.52737 0.30688
 H302 H 0.58973 0.53493 0.32385
 C303 C 0.58594 0.50804 0.26327
 H304 H 0.58536 0.50053 0.24624
 C305 C 0.57043 0.52614 0.26863
 H306 H 0.55798 0.53217 0.25558
 N307 N 0.60208 0.50031 0.27917
 C308 C 0.63069 0.43796 0.24661
 H309 H 0.64896 0.44376 0.24705
 C310 C 0.62437 0.41639 0.23653
 H311 H 0.63788 0.40584 0.22889
 C312 C 0.59096 0.44493 0.25608
 H313 H 0.57815 0.45602 0.26407
 C314 C 0.58380 0.42339 0.24601
 H315 H 0.56540 0.41798 0.24628
 Zn316 Zn 0.62633 0.47934 0.27051
 N317 N 0.61412 0.45162 0.25629
 C318 C 0.64149 0.44625 0.30449
 N319 N 0.64390 0.46950 0.29728
 C320 C 0.65765 0.48522 0.30933
 C321 C 0.66994 0.47762 0.32915
 C322 C 0.65323 0.43799 0.32428
 C323 C 0.63588 0.50023 0.22729
 C324 C 0.64898 0.51134 0.20967
 C325 C 0.68277 0.51182 0.23530
 C326 C 0.66907 0.50041 0.25235
 N327 N 0.64591 0.49521 0.24825
 H328 H 0.63013 0.43406 0.29513
 H329 H 0.65880 0.50379 0.30375
 H330 H 0.68066 0.49035 0.33866
 H331 H 0.65110 0.41941 0.32967
 H332 H 0.61777 0.49504 0.22399
 H333 H 0.64064 0.51461 0.19301
 H334 H 0.70101 0.51622 0.23918
 H335 H 0.67714 0.49559 0.26870
 C336 C 0.60071 0.40871 0.23632
 C337 C 0.57169 0.53667 0.29049
 C338 C 0.67276 0.51746 0.21358
 C339 C 0.66767 0.45373 0.33687
 C340 C 0.89073 0.51442 0.80473
 H341 H 0.88718 0.53162 0.81195
 C342 C 0.90278 0.49732 0.81799
 H343 H 0.90878 0.50159 0.83527
 C344 C 0.88556 0.48718 0.77422
 H345 H 0.87800 0.48284 0.75761
 C346 C 0.89777 0.46972 0.78672
 H347 H 0.89943 0.45216 0.77948
 N348 N 0.88176 0.50883 0.78358
 C349 C 0.85682 0.56841 0.74105
 H350 H 0.83863 0.56242 0.73998
 C351 C 0.86393 0.58948 0.72975
 H352 H 0.85114 0.59942 0.71963
 C353 C 0.89544 0.56254 0.75575
 H354 H 0.90745 0.55204 0.76622
 C355 C 0.90337 0.58369 0.74463
 H356 H 0.92157 0.58945 0.74664
 Zn357 Zn 0.85891 0.52916 0.77013
 N358 N 0.87240 0.55564 0.75402
 C359 C 0.84187 0.56465 0.79866
 N360 N 0.84074 0.54077 0.79468
 C361 C 0.82956 0.52531 0.80963
 C362 C 0.81913 0.53377 0.82961
 C363 C 0.83205 0.57376 0.81848
 C364 C 0.85118 0.50828 0.72784
 C365 C 0.83978 0.49517 0.71071
 C366 C 0.80635 0.48984 0.73592
 C367 C 0.81837 0.50332 0.75258
 N368 N 0.84056 0.51186 0.74839
 H369 H 0.85131 0.57668 0.78705
 H370 H 0.82957 0.50632 0.80654
 H371 H 0.81080 0.52127 0.84170
 H372 H 0.83363 0.59274 0.82163
 H373 H 0.86879 0.51534 0.72492
 H374 H 0.84883 0.49205 0.69471
 H375 H 0.78881 0.48289 0.73952
 H376 H 0.81007 0.50669 0.76886
 C377 C 0.88734 0.59765 0.73179
 C378 C 0.90577 0.47440 0.80923
 C379 C 0.81715 0.48558 0.71471
 C380 C 0.82085 0.55822 0.83438
 C381 C 0.29577 0.40031 -0.03687
 H382 H 0.30796 0.39320 -0.02414
 C383 C 0.30442 0.41306 -0.05613
 H384 H 0.32324 0.41574 -0.05786
 C385 C 0.25656 0.40567 -0.04990
 H386 H 0.23793 0.40253 -0.04760
 C387 C 0.26445 0.41839 -0.06950
 H388 H 0.25168 0.42461 -0.08216
 N389 N 0.27222 0.39636 -0.03436
 C390 C 0.23547 0.37969 0.02986
 H391 H 0.23438 0.36046 0.02840
 C392 C 0.22598 0.39048 0.04901
 H393 H 0.21779 0.37929 0.06229
 C394 C 0.24889 0.41725 0.01480
 H395 H 0.25816 0.42746 0.00152
 C396 C 0.23957 0.42885 0.03375
 H397 H 0.24145 0.44809 0.03476
 Zn398 Zn 0.26138 0.37567 -0.00997
 N399 N 0.24697 0.39306 0.01346
 C400 C 0.29321 0.36377 0.02593
 N401 N 0.28751 0.35937 0.00348
 C402 C 0.30103 0.34503 -0.00941
 C403 C 0.32094 0.33427 0.00035
 C404 C 0.31299 0.35361 0.03625
 C405 C 0.21639 0.36328 -0.02522
 C406 C 0.19795 0.34915 -0.03382
 C407 C 0.22421 0.31585 -0.03465
 C408 C 0.24220 0.33066 -0.02586
 N409 N 0.23810 0.35405 -0.02170
 H410 H 0.28277 0.37561 0.03587
 H411 H 0.29668 0.34240 -0.02744
 H412 H 0.33168 0.32314 -0.01018
 H413 H 0.31718 0.35739 0.05414
 H414 H 0.21328 0.38169 -0.02109
 H415 H 0.18078 0.35693 -0.03615
 H416 H 0.22795 0.29745 -0.03835
 H417 H 0.25936 0.32339 -0.02252
 C418 C 0.22816 0.41536 0.05132
 C419 C 0.28872 0.42180 -0.07310
 C420 C 0.20175 0.32514 -0.03893
 C421 C 0.32722 0.33876 0.02342
 C422 C 0.79866 0.10966 1.01877
 H423 H 0.80695 0.12041 1.00531
 C424 C 0.81213 0.10213 1.03781
 H425 H 0.83060 0.10721 1.03867
 C426 C 0.76500 0.08941 1.03370
 H427 H 0.74676 0.08418 1.03215
 C428 C 0.77770 0.08173 1.05315
 H429 H 0.76861 0.07136 1.06647
 N430 N 0.77525 0.10409 1.01747
 C431 C 0.72514 0.10468 0.96044
 H432 H 0.71853 0.12234 0.96326
 C433 C 0.71551 0.09095 0.94287
 H434 H 0.70118 0.09807 0.93252
 C435 C 0.75223 0.07435 0.97031
 H436 H 0.76687 0.06831 0.98087
 C437 C 0.74313 0.05995 0.95264
 H438 H 0.75085 0.04280 0.94957
 Zn439 Zn 0.75636 0.11905 0.99397
 N440 N 0.74340 0.09645 0.97346
 C441 C 0.77930 0.13659 0.95395
 N442 N 0.77555 0.14116 0.97661
 C443 C 0.78729 0.15937 0.98726
 C444 C 0.80481 0.17261 0.97551
 C445 C 0.79638 0.14951 0.94154
 C446 C 0.71396 0.11944 1.01736
 C447 C 0.69376 0.12844 1.02698
 C448 C 0.70644 0.16806 1.01461
 C449 C 0.72698 0.15829 1.00589
 N450 N 0.73039 0.13430 1.00751
 H451 H 0.76983 0.12215 0.94567
 H452 H 0.78415 0.16259 1.00533
 H453 H 0.81496 0.18600 0.98473
 H454 H 0.79937 0.14514 0.92368
 H455 H 0.71601 0.10036 1.01707
 H456 H 0.68167 0.11596 1.03542
 H457 H 0.70380 0.18706 1.01237
 H458 H 0.73981 0.16980 0.99728
 C459 C 0.72493 0.06860 0.93829
 C460 C 0.80145 0.08865 1.05576
 C461 C 0.68938 0.15304 1.02538
 C462 C 0.81007 0.16719 0.95253
 C463 C 0.26313 0.61194 0.51957
 H464 H 0.27520 0.61885 0.50660
 C465 C 0.27192 0.60233 0.54040
 H466 H 0.29076 0.60207 0.54337
 C467 C 0.22394 0.60502 0.53205
 H468 H 0.20525 0.60656 0.52884
 C469 C 0.23195 0.59552 0.55315
 H470 H 0.21930 0.58954 0.56603
 N471 N 0.23951 0.61367 0.51608
 C472 C 0.20285 0.62187 0.44976
 H473 H 0.20006 0.64093 0.44979
 C474 C 0.19506 0.60853 0.43102
 H475 H 0.18602 0.61741 0.41677
 C476 C 0.21832 0.58728 0.46825
 H477 H 0.22774 0.57923 0.48268
 C478 C 0.21060 0.57315 0.44984
 H479 H 0.21414 0.55421 0.45018
 Zn480 Zn 0.22701 0.63168 0.49086
 N481 N 0.21468 0.61126 0.46765
 C482 C 0.25549 0.65100 0.45465
 N483 N 0.25117 0.65192 0.47773
 C484 C 0.26447 0.66632 0.49160
 C485 C 0.28253 0.68081 0.48230
 C486 C 0.27325 0.66522 0.44465
 C487 C 0.17953 0.64212 0.49905
 C488 C 0.16083 0.65306 0.50978
 C489 C 0.18861 0.68040 0.52755
 C490 C 0.20682 0.66883 0.51659
 N491 N 0.20207 0.64998 0.50270
 H492 H 0.24544 0.63904 0.44384
 H493 H 0.26166 0.66602 0.51004
 H494 H 0.29322 0.69172 0.49372
 H495 H 0.27608 0.66435 0.42620
 H496 H 0.17601 0.62668 0.48860
 H497 H 0.14307 0.64629 0.50691
 H498 H 0.19282 0.69493 0.53906
 H499 H 0.22475 0.67454 0.51984
 C500 C 0.19926 0.58393 0.43070
 C501 C 0.25622 0.59470 0.55777
 C502 C 0.16530 0.67223 0.52453
 C503 C 0.28713 0.68034 0.45850
 C504 C 0.76587 0.90737 0.47257
 H505 H 0.76681 0.91238 0.49051
 C506 C 0.78030 0.91917 0.45620
 H507 H 0.79228 0.93331 0.46166
 C508 C 0.75050 0.88169 0.44382
 H509 H 0.73970 0.86646 0.43906
 C510 C 0.76424 0.89309 0.42702
 H511 H 0.76300 0.88697 0.40940
 N512 N 0.75160 0.88875 0.46614
 C513 C 0.69751 0.88820 0.51229
 H514 H 0.68659 0.88267 0.49798
 C515 C 0.68672 0.89619 0.53210
 H516 H 0.66773 0.89732 0.53231
 C517 C 0.73513 0.89255 0.52987
 H518 H 0.75396 0.89024 0.52916
 C519 C 0.72499 0.90025 0.55027
 H520 H 0.73622 0.90383 0.56509
 Zn521 Zn 0.73535 0.86864 0.48777
 N522 N 0.72129 0.88604 0.51162
 C523 C 0.74998 0.83240 0.51925
 N524 N 0.75729 0.84796 0.50228
 C525 C 0.78049 0.85084 0.49722
 C526 C 0.79747 0.83859 0.51008
 C527 C 0.76638 0.81930 0.53222
 C528 C 0.69626 0.86438 0.45854
 C529 C 0.67840 0.85324 0.44583
 C530 C 0.69294 0.81496 0.45897
 C531 C 0.71052 0.82691 0.47162
 N532 N 0.71167 0.85122 0.47139
 H533 H 0.73144 0.83065 0.52314
 H534 H 0.78604 0.86343 0.48384
 H535 H 0.81581 0.84239 0.50645
 H536 H 0.76009 0.80698 0.54557
 H537 H 0.69789 0.88368 0.45820
 H538 H 0.66602 0.86420 0.43627
 H539 H 0.69242 0.79561 0.45917
 H540 H 0.72328 0.81673 0.48144
 C541 C 0.70038 0.90139 0.55179
 C542 C 0.77996 0.91158 0.43318
 C543 C 0.67651 0.82819 0.44591
 C544 C 0.79061 0.82274 0.52812
 C545 C -0.01622 0.26510 0.39757
 H546 H 0.00156 0.27196 0.39993
 C547 C -0.03501 0.27679 0.40764
 H548 H -0.03148 0.29271 0.41750
 C549 C -0.04262 0.23732 0.38032
 H550 H -0.04582 0.22226 0.36932
 C551 C -0.06172 0.24804 0.39040
 H552 H -0.07922 0.24072 0.38726
 N553 N -0.02046 0.24651 0.38318
 C554 C 0.04040 0.20339 0.36788
 H555 H 0.03642 0.20080 0.34979
 C556 C 0.05884 0.19101 0.37823
 H557 H 0.06921 0.17943 0.36780
 C558 C 0.03168 0.22160 0.40328
 H559 H 0.02097 0.23349 0.41294
 C560 C 0.05024 0.20963 0.41437
 H561 H 0.05364 0.21234 0.43259
 Zn562 Zn 0.00314 0.23436 0.36361
 N563 N 0.02729 0.21841 0.38035
 C564 C 0.03194 0.25248 0.32807
 N565 N 0.01713 0.25923 0.34496
 C566 C 0.01243 0.28272 0.34795
 C567 C 0.02330 0.30043 0.33411
 C568 C 0.04273 0.26954 0.31351
 C569 C -0.01487 0.18913 0.35138
 C570 C -0.02632 0.17244 0.33742
 C571 C -0.03097 0.20331 0.30790
 C572 C -0.01937 0.21942 0.32243
 N573 N -0.01153 0.21207 0.34367
 H574 H 0.03509 0.23377 0.32557
 H575 H 0.00017 0.28792 0.36090
 H576 H 0.01946 0.31905 0.33669
 H577 H 0.05436 0.26386 0.30007
 H578 H -0.00874 0.18384 0.36848
 H579 H -0.02850 0.15418 0.34375
 H580 H -0.03740 0.20956 0.29118
 H581 H -0.01692 0.23788 0.31688
 C582 C 0.06403 0.19406 0.40175
 C583 C -0.05823 0.26882 0.40324
 C584 C -0.03462 0.17947 0.31537
 C585 C 0.03856 0.29383 0.31661
 C586 C 1.02027 0.77711 0.08446
 H587 H 1.00585 0.78741 0.09067
 C588 C 1.03856 0.78856 0.07235
 H589 H 1.03798 0.80768 0.06911
 C590 C 1.03906 0.73984 0.08199
 H591 H 1.03944 0.72098 0.08647
 C592 C 1.05767 0.75055 0.06975
 H593 H 1.07237 0.73978 0.06493
 N594 N 1.02120 0.75332 0.08957
 C595 C 0.95740 0.71337 0.10889
 H596 H 0.95995 0.71218 0.12745
 C597 C 0.93711 0.70355 0.09890
 H598 H 0.92404 0.69508 0.11003
 C599 C 0.97099 0.72700 0.07220
 H600 H 0.98422 0.73636 0.06195
 C601 C 0.95088 0.71733 0.06143
 H602 H 0.94891 0.71907 0.04283
 Zn603 Zn 0.99984 0.73951 0.11097
 N604 N 0.97373 0.72506 0.09557
 C605 C 0.96574 0.76747 0.13336
 N606 N 0.98917 0.76404 0.13054
 C607 C 1.00545 0.77825 0.14132
 C608 C 0.99847 0.79566 0.15657
 C609 C 0.95798 0.78485 0.14828
 C610 C 1.00961 0.69254 0.12849
 C611 C 1.02127 0.67566 0.14235
 C612 C 1.04653 0.70732 0.15674
 C613 C 1.03463 0.72350 0.14243
 N614 N 1.01609 0.71611 0.12913
 H615 H 0.95290 0.75681 0.12412
 H616 H 1.02390 0.77651 0.13778
 H617 H 1.01169 0.80670 0.16504
 H618 H 0.93927 0.78698 0.15063
 H619 H 0.99548 0.68671 0.11721
 H620 H 1.01568 0.65705 0.14197
 H621 H 1.06109 0.71362 0.16737
 H622 H 1.04042 0.74193 0.14193
 C623 C 0.93352 0.70555 0.07487
 C624 C 1.05790 0.77535 0.06544
 C625 C 1.03971 0.68313 0.15699
 C626 C 0.97447 0.79895 0.16034
 C627 C 0.54123 0.29029 0.59739
 H628 H 0.52312 0.29584 0.59634
 C629 C 0.55904 0.30485 0.58777
 H630 H 0.55443 0.32136 0.57888
 C631 C 0.56931 0.26258 0.61127
 H632 H 0.57335 0.24654 0.62113
 C633 C 0.58762 0.27655 0.60192
 H634 H 0.60558 0.27101 0.60476
 N635 N 0.54668 0.26981 0.60918
 C636 C 0.48315 0.22589 0.61823
 H637 H 0.48477 0.22255 0.63667
 C638 C 0.46388 0.21658 0.60612
 H639 H 0.45062 0.20630 0.61554
 C640 C 0.49798 0.24465 0.58407
 H641 H 0.51127 0.25574 0.57565
 C642 C 0.47894 0.23558 0.57119
 H643 H 0.47784 0.23964 0.55282
 Zn644 Zn 0.52287 0.25379 0.62643
 N645 N 0.49939 0.24008 0.60724
 C646 C 0.48554 0.28060 0.64408
 N647 N 0.50912 0.27695 0.64525
 C648 C 0.52347 0.29075 0.65868
 C649 C 0.51412 0.30865 0.67207
 C650 C 0.47548 0.29829 0.65713
 C651 C 0.54267 0.20882 0.63374
 C652 C 0.55362 0.19030 0.64604
 C653 C 0.55089 0.21328 0.68075
 C654 C 0.53963 0.23117 0.66788
 N655 N 0.53621 0.22888 0.64470
 H656 H 0.47443 0.26999 0.63286
 H657 H 0.54226 0.28796 0.65881
 H658 H 0.52583 0.31959 0.68251
 H659 H 0.45663 0.30066 0.65618
 H660 H 0.53964 0.20743 0.61531
 H661 H 0.55914 0.17466 0.63701
 H662 H 0.55395 0.21553 0.69910
 H663 H 0.53405 0.24701 0.67639
 C664 C 0.46137 0.22164 0.58232
 C665 C 0.58266 0.29828 0.59044
 C666 C 0.55821 0.19267 0.66975
 C667 C 0.48980 0.31261 0.67135
 C668 C 0.45835 0.77376 0.89775
 H669 H 0.47529 0.77795 0.90555
 C670 C 0.43826 0.78553 0.90485
 H671 H 0.44000 0.79884 0.91809
 C672 C 0.43600 0.75271 0.86973
 H673 H 0.43519 0.74083 0.85530
 C674 C 0.41550 0.76361 0.87658
 H675 H 0.39912 0.75891 0.86793
 N676 N 0.45691 0.75785 0.88032
 C677 C 0.49728 0.71249 0.90422
 H678 H 0.47986 0.70512 0.90133
 C679 C 0.51298 0.69991 0.91838
 H680 H 0.50737 0.68299 0.92618
 C681 C 0.52579 0.74321 0.89765
 H682 H 0.53078 0.76018 0.88975
 C683 C 0.54214 0.73116 0.91158
 H684 H 0.55973 0.73871 0.91348
 Zn685 Zn 0.48498 0.74529 0.86841
 N686 N 0.50430 0.73306 0.89306
 C687 C 0.52383 0.76853 0.84543
 N688 N 0.50100 0.77052 0.85182
 C689 C 0.48909 0.79089 0.84709
 C690 C 0.50038 0.81063 0.83666
 C691 C 0.53611 0.78820 0.83577
 C692 C 0.46153 0.70267 0.85560
 C693 C 0.45432 0.68422 0.84123
 C694 C 0.48011 0.70051 0.81168
 C695 C 0.48659 0.71898 0.82656
 N696 N 0.47719 0.71980 0.84809
 H697 H 0.53285 0.75196 0.84876
 H698 H 0.47073 0.79196 0.85149
 H699 H 0.49013 0.82632 0.83284
 H700 H 0.55464 0.78641 0.83239
 H701 H 0.45377 0.70383 0.87248
 H702 H 0.44162 0.67096 0.84748
 H703 H 0.48754 0.70015 0.79453
 H704 H 0.49901 0.73268 0.82082
 C705 C 0.53614 0.70864 0.92128
 C706 C 0.41645 0.78075 0.89396
 C707 C 0.46353 0.68304 0.81893
 C708 C 0.52452 0.80991 0.83155
 C709 C 0.44370 -0.18374 0.35599
 C710 C 0.44207 -0.16104 0.34527
 C711 C 0.45333 -0.15638 0.32389
 C712 C 0.46668 -0.17424 0.31403
 C713 C 0.46832 -0.19673 0.32488
 C714 C 0.45654 -0.20184 0.34572
 C715 C 0.45060 -0.13418 0.31245
 C716 C 0.43662 -0.11663 0.32204
 C717 C 0.42607 -0.12099 0.34381
 C718 C 0.42892 -0.14312 0.35532
 C719 C 0.41220 -0.10340 0.35340
 C720 C 0.40789 -0.08215 0.34109
 C721 C 0.41743 -0.07798 0.31898
 C722 C 0.43233 -0.09511 0.30984
 H723 H 0.43478 -0.18745 0.37220
 H724 H 0.47549 -0.17097 0.29770
 H725 H 0.47818 -0.21043 0.31659
 H726 H 0.45885 -0.13081 0.29583
 H727 H 0.42043 -0.14660 0.37180
 H728 H 0.40406 -0.10640 0.37010
 H729 H 0.39612 -0.06945 0.34844
 H730 H 0.44002 -0.09198 0.29294
 C731 C 0.94466 0.35145 0.86484
 C732 C 0.94202 0.37359 0.85329
 C733 C 0.95347 0.37812 0.83203
 C734 C 0.96816 0.36085 0.82319
 C735 C 0.97111 0.33905 0.83499
 C736 C 0.95906 0.33371 0.85579
 C737 C 0.94979 0.39967 0.81977
 C738 C 0.93489 0.41684 0.82861
 C739 C 0.92431 0.41279 0.85042
 C740 C 0.92791 0.39118 0.86260
 C741 C 0.90979 0.43016 0.85941
 C742 C 0.90486 0.45086 0.84646
 C743 C 0.91431 0.45453 0.82427
 C744 C 0.92980 0.43768 0.81567
 H745 H 0.93597 0.34845 0.88127
 H746 H 0.97712 0.36404 0.80693
 H747 H 0.98189 0.32593 0.82695
 H748 H 0.95817 0.40289 0.80319
 H749 H 0.91935 0.38787 0.87908
 H750 H 0.90167 0.42743 0.87616
 H751 H 0.89271 0.46346 0.85335
 H752 H 0.93732 0.44048 0.79865
 C753 C 0.05065 1.19023 0.86200
 C754 C 0.05392 1.16881 0.85043
 C755 C 0.03806 1.16187 0.83275
 C756 C 0.01875 1.17619 0.82747
 C757 C 0.01563 1.19762 0.83895
 C758 C 0.03186 1.20544 0.85606
 C759 C 0.04201 1.14099 0.82042
 C760 C 0.06180 1.12709 0.82547
 C761 C 0.07731 1.13383 0.84360
 C762 C 0.07320 1.15450 0.85603
 C763 C 0.09703 1.12006 0.84873
 C764 C 0.10172 1.10007 0.83575
 C765 C 0.08674 1.09326 0.81740
 C766 C 0.06661 1.10681 0.81247
 H767 H 0.06274 1.19471 0.87591
 H768 H 0.00633 1.17115 0.81399
 H769 H 0.00118 1.20858 0.83319
 H770 H 0.02998 1.13583 0.80663
 H771 H 0.08533 1.15975 0.86971
 H772 H 0.10911 1.12502 0.86252
 H773 H 0.11757 1.09031 0.83969
 H774 H 0.05484 1.10169 0.79849
 C775 C 0.52359 0.65524 0.34146
 C776 C 0.52864 0.63172 0.33546
 C777 C 0.53205 0.61413 0.35308
 C778 C 0.53010 0.62029 0.37635
 C779 C 0.52590 0.64390 0.38215
 C780 C 0.52287 0.66153 0.36479
 C781 C 0.53840 0.59096 0.34723
 C782 C 0.54255 0.58548 0.32409
 C783 C 0.53900 0.60299 0.30647
 C784 C 0.53154 0.62584 0.31221
 C785 C 0.54400 0.59768 0.28350
 C786 C 0.55371 0.57577 0.27818
 C787 C 0.55808 0.55842 0.29564
 C788 C 0.55145 0.56316 0.31848
 H789 H 0.52155 0.66895 0.32807
 H790 H 0.53269 0.60706 0.39008
 H791 H 0.52539 0.64856 0.40022
 H792 H 0.54129 0.57758 0.36078
 H793 H 0.52911 0.63936 0.29870
 H794 H 0.54141 0.61090 0.26976
 H795 H 0.55880 0.57296 0.26048
 H796 H 0.55405 0.54985 0.33211
 C797 C 0.56004 0.29887 0.16154
 C798 C 0.56287 0.31940 0.17482
 C799 C 0.54745 0.33870 0.17139
 C800 C 0.52901 0.33677 0.15517
 C801 C 0.52631 0.31621 0.14200
 C802 C 0.54204 0.29730 0.14478
 C803 C 0.55103 0.35974 0.18387
 C804 C 0.56994 0.36174 0.19959
 C805 C 0.58494 0.34213 0.20338
 C806 C 0.58123 0.32108 0.19109
 C807 C 0.60381 0.34408 0.21902
 C808 C 0.60837 0.36551 0.23021
 C809 C 0.59413 0.38542 0.22605
 C810 C 0.57455 0.38324 0.21110
 H811 H 0.57202 0.28418 0.16402
 H812 H 0.51696 0.35132 0.15235
 H813 H 0.51236 0.31538 0.12912
 H814 H 0.53944 0.37469 0.18098
 H815 H 0.59298 0.30622 0.19378
 H816 H 0.61535 0.32916 0.22226
 H817 H 0.62328 0.36662 0.24199
 H818 H 0.56352 0.39852 0.20770
 C819 C 0.05456 0.84783 0.64145
 C820 C 0.05815 0.86778 0.65544
 C821 C 0.04312 0.87145 0.67424
 C822 C 0.02469 0.85508 0.67869
 C823 C 0.02129 0.83513 0.66483
 C824 C 0.03620 0.83094 0.64595
 C825 C 0.04686 0.89129 0.68839
 C826 C 0.06565 0.90741 0.68407
 C827 C 0.08065 0.90369 0.66518
 C828 C 0.07672 0.88405 0.65092
 C829 C 0.09960 0.91950 0.66102
 C830 C 0.10389 0.93869 0.67552
 C831 C 0.08913 0.94279 0.69439
 C832 C 0.06989 0.92702 0.69846
 H833 H 0.06579 0.84614 0.62661
 H834 H 0.01308 0.85748 0.69315
 H835 H 0.00747 0.82256 0.66984
 H836 H 0.03532 0.89403 0.70287
 H837 H 0.08832 0.88126 0.63649
 H838 H 0.11138 0.91680 0.64673
 H839 H 0.11922 0.95002 0.67223
 H840 H 0.05825 0.92995 0.71279
 C841 C 0.93494 0.70855 0.65806
 C842 C 0.93059 0.68771 0.67137
 C843 C 0.94672 0.66881 0.67113
 C844 C 0.96725 0.67140 0.65798
 C845 C 0.97154 0.69234 0.64489
 C846 C 0.95530 0.71093 0.64460
 C847 C 0.94190 0.64759 0.68381
 C848 C 0.92116 0.64507 0.69670
 C849 C 0.90537 0.66426 0.69729
 C850 C 0.91020 0.68543 0.68468
 C851 C 0.88473 0.66186 0.71019
 C852 C 0.87936 0.64042 0.72187
 C853 C 0.89447 0.62090 0.72087
 C854 C 0.91565 0.62351 0.70862
 H855 H 0.92251 0.72298 0.65816
 H856 H 0.97986 0.65717 0.65764
 H857 H 0.98731 0.69381 0.63456
 H858 H 0.95411 0.63296 0.68340
 H859 H 0.89792 0.70000 0.68497
 H860 H 0.87256 0.67647 0.71099
 H861 H 0.86319 0.63903 0.73159
 H862 H 0.92738 0.60855 0.70767
 C863 C 0.44445 0.17486 0.14787
 C864 C 0.43980 0.15430 0.16153
 C865 C 0.45524 0.13484 0.16107
 C866 C 0.47540 0.13658 0.14725
 C867 C 0.48005 0.15728 0.13388
 C868 C 0.46449 0.17645 0.13388
 C869 C 0.45019 0.11399 0.17429
 C870 C 0.42991 0.11244 0.18800
 C871 C 0.41483 0.13221 0.18875
 C872 C 0.41986 0.15295 0.17555
 C873 C 0.39470 0.13085 0.20247
 C874 C 0.38907 0.10988 0.21481
 C875 C 0.40341 0.08977 0.21373
 C876 C 0.42415 0.09133 0.20063
 H877 H 0.43259 0.18976 0.14827
 H878 H 0.48751 0.12191 0.14673
 H879 H 0.49562 0.15820 0.12323
 H880 H 0.46188 0.09895 0.17374
 H881 H 0.40811 0.16796 0.17599
 H882 H 0.38311 0.14593 0.20341
 H883 H 0.37327 0.10930 0.22514
 H884 H 0.43531 0.07592 0.19964
 C885 C 0.34601 0.45923 -0.19324
 C886 C 0.33931 0.45118 -0.17098
 C887 C 0.35186 0.43267 -0.15974
 C888 C 0.37115 0.42292 -0.17061
 C889 C 0.37769 0.43089 -0.19268
 C890 C 0.36506 0.44888 -0.20474
 C891 C 0.34480 0.42396 -0.13791
 C892 C 0.32519 0.43341 -0.12715
 C893 C 0.31276 0.45217 -0.13815
 C894 C 0.31992 0.46099 -0.15998
 C895 C 0.29316 0.46153 -0.12726
 C896 C 0.28565 0.45207 -0.10591
 C897 C 0.29760 0.43306 -0.09501
 C898 C 0.31756 0.42402 -0.10574
 H899 H 0.33539 0.47262 -0.20189
 H900 H 0.38122 0.40899 -0.16205
 H901 H 0.39322 0.42320 -0.19987
 H902 H 0.35437 0.40958 -0.12945
 H903 H 0.31023 0.47523 -0.16851
 H904 H 0.28348 0.47601 -0.13535
 H905 H 0.27044 0.45963 -0.09794
 H906 H 0.32675 0.40912 -0.09782
 C907 C 0.85442 0.94299 0.32189
 C908 C 0.84365 0.93394 0.34215
 C909 C 0.83958 0.90908 0.34494
 C910 C 0.84634 0.89372 0.32766
 C911 C 0.85629 0.90281 0.30731
 C912 C 0.86041 0.92767 0.30371
 C913 C 0.82812 0.89993 0.36461
 C914 C 0.81982 0.91540 0.38121
 C915 C 0.82392 0.94030 0.37872
 C916 C 0.83622 0.94942 0.35936
 C917 C 0.81499 0.95561 0.39529
 C918 C 0.80126 0.94636 0.41354
 C919 C 0.79647 0.92166 0.41559
 C920 C 0.80660 0.90629 0.39978
 H921 H 0.85814 0.96199 0.32070
 H922 H 0.84311 0.87461 0.32950
 H923 H 0.85933 0.88998 0.29407
 H924 H 0.82485 0.88082 0.36656
 H925 H 0.83923 0.96855 0.35728
 H926 H 0.81801 0.97476 0.39373
 H927 H 0.79371 0.95857 0.42553
 H928 H 0.80362 0.88714 0.40155
 C929 C 0.84946 0.04669 1.17864
 C930 C 0.83991 0.05035 1.15637
 C931 C 0.82432 0.03307 1.14696
 C932 C 0.81849 0.01246 1.15995
 C933 C 0.82803 0.00889 1.18205
 C934 C 0.84381 0.02583 1.19188
 C935 C 0.81464 0.03670 1.12479
 C936 C 0.82017 0.05759 1.11196
 C937 C 0.83587 0.07486 1.12128
 C938 C 0.84577 0.07107 1.14335
 C939 C 0.84110 0.09584 1.10852
 C940 C 0.83038 0.10000 1.08700
 C941 C 0.81444 0.08312 1.07765
 C942 C 0.80983 0.06168 1.09013
 H943 H 0.86207 0.05979 1.18503
 H944 H 0.80634 -0.00085 1.15310
 H945 H 0.82214 -0.00690 1.19163
 H946 H 0.80258 0.02344 1.11765
 H947 H 0.85777 0.08437 1.15051
 H948 H 0.85305 0.10931 1.11541
 H949 H 0.83401 0.11685 1.07804
 H950 H 0.79793 0.04828 1.08303
 C951 C 0.32067 0.55398 0.67360
 C952 C 0.31097 0.55798 0.65145
 C953 C 0.32074 0.54684 0.63216
 C954 C 0.33959 0.53130 0.63550
 C955 C 0.34898 0.52722 0.65766
 C956 C 0.33983 0.53876 0.67682
 C957 C 0.31167 0.55158 0.60987
 C958 C 0.29280 0.56715 0.60664
 C959 C 0.28260 0.57768 0.62606
 C960 C 0.29179 0.57310 0.64830
 C961 C 0.26348 0.59284 0.62292
 C962 C 0.25470 0.59783 0.60075
 C963 C 0.26497 0.58795 0.58124
 C964 C 0.28404 0.57253 0.58432
 H965 H 0.31336 0.56271 0.68837
 H966 H 0.34722 0.52249 0.62096
 H967 H 0.36382 0.51552 0.65977
 H968 H 0.31938 0.54329 0.59504
 H969 H 0.28412 0.58143 0.66312
 H970 H 0.25545 0.60103 0.63760
 H971 H 0.24019 0.60998 0.59878
 H972 H 0.29198 0.56474 0.56937
 C973 C 0.16209 0.53402 0.30851
 C974 C 0.17188 0.54450 0.32841
 C975 C 0.18532 0.56601 0.32622
 C976 C 0.18929 0.57629 0.30427
 C977 C 0.17938 0.56588 0.28467
 C978 C 0.16533 0.54497 0.28657
 C979 C 0.19416 0.57724 0.34600
 C980 C 0.18960 0.56743 0.36804
 C981 C 0.17669 0.54565 0.37036
 C982 C 0.16797 0.53426 0.35051
 C983 C 0.17241 0.53591 0.39256
 C984 C 0.18026 0.54799 0.41225
 C985 C 0.19240 0.57004 0.41005
 C986 C 0.19735 0.57941 0.38783
 H987 H 0.15123 0.51792 0.31015
 H988 H 0.19970 0.59264 0.30229
 H989 H 0.18251 0.57437 0.26793
 H990 H 0.20417 0.59390 0.34425
 H991 H 0.15777 0.51772 0.35228
 H992 H 0.16266 0.51918 0.39471
 H993 H 0.17626 0.54045 0.42921
 H994 H 0.20710 0.59621 0.38598
 C995 C 0.66707 0.02668 0.82086
 C996 C 0.67948 0.03659 0.83972
 C997 C 0.68608 0.06110 0.83894
 C998 C 0.68047 0.07523 0.81958
 C999 C 0.66789 0.06549 0.80122
 C1000 C 0.66058 0.04117 0.80152
 C1001 C 0.69784 0.07138 0.85769
 C1002 C 0.70259 0.05771 0.87765
 C1003 C 0.69628 0.03317 0.87870
 C1004 C 0.68493 0.02264 0.85958
 C1005 C 0.70100 0.01985 0.89909
 C1006 C 0.71105 0.03103 0.91843
 C1007 C 0.71656 0.05564 0.91758
 C1008 C 0.71292 0.06860 0.89685
 H1009 H 0.66151 0.00807 0.82195
 H1010 H 0.68571 0.09397 0.81864
 H1011 H 0.66471 0.07714 0.78637
 H1012 H 0.70271 0.09024 0.85700
 H1013 H 0.67989 0.00384 0.86036
 H1014 H 0.69639 0.00098 0.90026
 H1015 H 0.71379 0.02067 0.93423
 H1016 H 0.71765 0.08748 0.89584
 C1017 C 0.65642 0.93282 0.67659
 C1018 C 0.66678 0.93032 0.65492
 C1019 C 0.68737 0.94372 0.64923
 C1020 C 0.69723 0.95942 0.66540
 C1021 C 0.68684 0.96176 0.68701
 C1022 C 0.66640 0.94844 0.69284
 C1023 C 0.69780 0.94111 0.62756
 C1024 C 0.68796 0.92513 0.61158
 C1025 C 0.66734 0.91180 0.61735
 C1026 C 0.65685 0.91453 0.63891
 C1027 C 0.65762 0.89571 0.60155
 C1028 C 0.66830 0.89263 0.58027
 C1029 C 0.68881 0.90575 0.57420
 C1030 C 0.69851 0.92209 0.59000
 H1031 H 0.64043 0.92279 0.68071
 H1032 H 0.71303 0.96980 0.66139
 H1033 H 0.69496 0.97377 0.69931
 H1034 H 0.71362 0.95135 0.62321
 H1035 H 0.64107 0.90423 0.64329
 H1036 H 0.64191 0.88525 0.60576
 H1037 H 0.66072 0.87948 0.56877
 H1038 H 0.71421 0.93243 0.58552
 C1039 C 0.17448 0.44924 0.17147
 C1040 C 0.18022 0.44223 0.14906
 C1041 C 0.16607 0.42478 0.13789
 C1042 C 0.14634 0.41487 0.14913
 C1043 C 0.14078 0.42191 0.17138
 C1044 C 0.15483 0.43898 0.18287
 C1045 C 0.17202 0.41727 0.11578
 C1046 C 0.19214 0.42669 0.10478
 C1047 C 0.20615 0.44436 0.11576
 C1048 C 0.20003 0.45213 0.13778
 C1049 C 0.22634 0.45356 0.10470
 C1050 C 0.23307 0.44474 0.08337
 C1051 C 0.21962 0.42669 0.07261
 C1052 C 0.19881 0.41821 0.08323
 H1053 H 0.18555 0.46229 0.18020
 H1054 H 0.13524 0.40158 0.14076
 H1055 H 0.12527 0.41411 0.17953
 H1056 H 0.16125 0.40373 0.10734
 H1057 H 0.21089 0.46555 0.14628
 H1058 H 0.23729 0.46714 0.11282
 H1059 H 0.24929 0.45145 0.07573
 H1060 H 0.18802 0.40461 0.07494
 C1061 C -0.15830 0.35006 0.45103
 C1062 C -0.13872 0.33635 0.44615
 C1063 C -0.11984 0.33492 0.46220
 C1064 C -0.12102 0.34736 0.48296
 C1065 C -0.14063 0.36116 0.48765
 C1066 C -0.15940 0.36275 0.47167
 C1067 C -0.10020 0.32113 0.45718
 C1068 C -0.09922 0.30890 0.43623
 C1069 C -0.11822 0.31052 0.42028
 C1070 C -0.13780 0.32411 0.42537
 C1071 C -0.11734 0.29864 0.39932
 C1072 C -0.09786 0.28523 0.39406
 C1073 C -0.07885 0.28311 0.40973
 C1074 C -0.07961 0.29515 0.43084
 H1075 H -0.17288 0.35062 0.43879
 H1076 H -0.10675 0.34652 0.49551
 H1077 H -0.14098 0.37083 0.50364
 H1078 H -0.08569 0.31999 0.46947
 H1079 H -0.15231 0.32527 0.41306
 H1080 H -0.13167 0.29989 0.38686
 H1081 H -0.09755 0.27679 0.37740
 H1082 H -0.06512 0.29368 0.44309
 C1083 C 0.30737 0.84905 0.94230
 C1084 C 0.32839 0.83769 0.93731
 C1085 C 0.34534 0.83387 0.95492
 C1086 C 0.34116 0.84212 0.97714
 C1087 C 0.32038 0.85397 0.98192
 C1088 C 0.30288 0.85765 0.96464
 C1089 C 0.36611 0.82186 0.94999
 C1090 C 0.37023 0.81398 0.92751
 C1091 C 0.35344 0.81848 0.90980
 C1092 C 0.33258 0.83005 0.91485
 C1093 C 0.35775 0.81139 0.88724
 C1094 C 0.37838 0.79966 0.88220
 C1095 C 0.39497 0.79419 0.89970
 C1096 C 0.39079 0.80165 0.92239
 H1097 H 0.29425 0.85007 0.92865
 H1098 H 0.35410 0.83964 0.99084
 H1099 H 0.31869 0.86081 0.99912
 H1100 H 0.37905 0.81870 0.96359
 H1101 H 0.31965 0.83322 0.90124
 H1102 H 0.34522 0.81503 0.87342
 H1103 H 0.38136 0.79502 0.86442
 H1104 H 0.40328 0.79758 0.93614
 C1105 C 1.17617 0.84752 0.04094
 C1106 C 1.15376 0.83825 0.04660
 C1107 C 1.14091 0.84861 0.06442
 C1108 C 1.15051 0.86822 0.07605
 C1109 C 1.17284 0.87729 0.07046
 C1110 C 1.18629 0.86704 0.05295
 C1111 C 1.11883 0.83899 0.07060
 C1112 C 1.10958 0.81885 0.05942
 C1113 C 1.12230 0.80853 0.04144
 C1114 C 1.14426 0.81839 0.03504
 C1115 C 1.11307 0.78819 0.03055
 C1116 C 1.09178 0.77775 0.03786
 C1117 C 1.07923 0.78762 0.05601
 C1118 C 1.08810 0.80844 0.06645
 H1119 H 1.18605 0.83848 0.02798
 H1120 H 1.14075 0.87656 0.08958
 H1121 H 1.17902 0.89295 0.07951
 H1122 H 1.10907 0.84688 0.08442
 H1123 H 1.15411 0.81035 0.02138
 H1124 H 1.12254 0.78009 0.01668
 H1125 H 1.08519 0.76181 0.02947
 H1126 H 1.07879 0.81596 0.08074
 C1127 C 0.70161 0.36649 0.55907
 C1128 C 0.68165 0.35158 0.56202
 C1129 C 0.68283 0.32703 0.55693
 C1130 C 0.70383 0.31793 0.54858
 C1131 C 0.72355 0.33294 0.54552
 C1132 C 0.72270 0.35726 0.55092
 C1133 C 0.66312 0.31193 0.56048
 C1134 C 0.64225 0.32104 0.56914
 C1135 C 0.64092 0.34568 0.57378
 C1136 C 0.66059 0.36080 0.57014
 C1137 C 0.62003 0.35472 0.58241
 C1138 C 0.60086 0.33940 0.58707
 C1139 C 0.60216 0.31476 0.58311
 C1140 C 0.62284 0.30580 0.57371
 H1141 H 0.70072 0.38532 0.56295
 H1142 H 0.70504 0.29918 0.54455
 H1143 H 0.73966 0.32546 0.53930
 H1144 H 0.66413 0.29305 0.55682
 H1145 H 0.65962 0.37965 0.57392
 H1146 H 0.61869 0.37355 0.58605
 H1147 H 0.58530 0.34674 0.59459
 H1148 H 0.62395 0.28689 0.57031
 C1149 C 0.33708 0.16981 0.54507
 C1150 C 0.36069 0.17450 0.55124
 C1151 C 0.37250 0.15847 0.56644
 C1152 C 0.36071 0.13788 0.57485
 C1153 C 0.33715 0.13362 0.56900
 C1154 C 0.32504 0.14968 0.55439
 C1155 C 0.39561 0.16365 0.57365
 C1156 C 0.40687 0.18504 0.56649
 C1157 C 0.39529 0.20092 0.55102
 C1158 C 0.37238 0.19538 0.54321
 C1159 C 0.40653 0.22249 0.54431
 C1160 C 0.42849 0.22881 0.55373
 C1161 C 0.43976 0.21353 0.56980
 C1162 C 0.42912 0.19126 0.57543
 H1163 H 0.32779 0.18232 0.53389
 H1164 H 0.36952 0.12537 0.58642
 H1165 H 0.32825 0.11783 0.57608
 H1166 H 0.40450 0.15151 0.58557
 H1167 H 0.36337 0.20771 0.53159
 H1168 H 0.39796 0.23487 0.53244
 H1169 H 0.43615 0.24615 0.54921
 H1170 H 0.43782 0.17909 0.58743
 C1171 C 0.80822 0.64909 0.04713
 C1172 C 0.83189 0.65479 0.05234
 C1173 C 0.84414 0.64096 0.06909
 C1174 C 0.83277 0.62149 0.08003
 C1175 C 0.80917 0.61627 0.07523
 C1176 C 0.79622 0.63022 0.05909
 C1177 C 0.86735 0.64719 0.07522
 C1178 C 0.87829 0.66758 0.06536
 C1179 C 0.86626 0.68135 0.04840
 C1180 C 0.84323 0.67469 0.04175
 C1181 C 0.87724 0.70198 0.03894
 C1182 C 0.89948 0.70943 0.04693
 C1183 C 0.91126 0.69624 0.06434
 C1184 C 0.90076 0.67491 0.07294
 H1185 H 0.79886 0.66053 0.03497
 H1186 H 0.84203 0.61050 0.09269
 H1187 H 0.80128 0.60083 0.08397
 H1188 H 0.87657 0.63666 0.08829
 H1189 H 0.83389 0.68542 0.02893
 H1190 H 0.86831 0.71278 0.02591
 H1191 H 0.90704 0.72601 0.04011
 H1192 H 0.90982 0.66430 0.08603
 C1193 C 0.65079 0.64728 0.96977
 C1194 C 0.63072 0.66074 0.96500
 C1195 C 0.63000 0.68478 0.97194
 C1196 C 0.64913 0.69463 0.98427
 C1197 C 0.66906 0.68103 0.98903
 C1198 C 0.67024 0.65743 0.98141
 C1199 C 0.61044 0.69867 0.96598
 C1200 C 0.59171 0.68882 0.95303
 C1201 C 0.59219 0.66453 0.94681
 C1202 C 0.61162 0.65065 0.95289
 C1203 C 0.57350 0.65465 0.93400
 C1204 C 0.55491 0.66886 0.92659
 C1205 C 0.55452 0.69326 0.93191
 C1206 C 0.57282 0.70301 0.94559
 H1207 H 0.65145 0.62896 0.96413
 H1208 H 0.64888 0.71299 0.98983
 H1209 H 0.68389 0.68921 0.99798
 H1210 H 0.61006 0.71724 0.97092
 H1211 H 0.61213 0.63216 0.94770
 H1212 H 0.57358 0.63605 0.92915
 H1213 H 0.54130 0.66093 0.91580
 H1214 H 0.57261 0.72172 0.95001
 C1215 C 0.18472 0.14912 0.45355
 C1216 C 0.16323 0.15973 0.44774
 C1217 C 0.15902 0.18342 0.45440
 C1218 C 0.17617 0.19586 0.46725
 C1219 C 0.19745 0.18510 0.47310
 C1220 C 0.20202 0.16178 0.46610
 C1221 C 0.13792 0.19441 0.44782
 C1222 C 0.12102 0.18205 0.43454
 C1223 C 0.12503 0.15815 0.42839
 C1224 C 0.14604 0.14713 0.43509
 C1225 C 0.10817 0.14582 0.41514
 C1226 C 0.08797 0.15730 0.40725
 C1227 C 0.08413 0.18130 0.41254
 C1228 C 0.10049 0.19341 0.42672
 H1229 H 0.18802 0.13101 0.44835
 H1230 H 0.17325 0.21399 0.47255
 H1231 H 0.21061 0.19521 0.48268
 H1232 H 0.13486 0.21269 0.45265
 H1233 H 0.14920 0.12892 0.43008
 H1234 H 0.11085 0.12744 0.41046
 H1235 H 0.07543 0.14749 0.39666
 H1236 H 0.09778 0.21196 0.43078
 C1237 C 0.61666 0.08167 0.73254
 C1238 C 0.60389 0.09864 0.71975
 C1239 C 0.58364 0.09142 0.70712
 C1240 C 0.57644 0.06727 0.70776
 C1241 C 0.58899 0.05051 0.72104
 C1242 C 0.60917 0.05753 0.73369
 C1243 C 0.57088 0.10848 0.69428
 C1244 C 0.57785 0.13272 0.69437
 C1245 C 0.59789 0.13990 0.70740
 C1246 C 0.61093 0.12280 0.71973
 C1247 C 0.60449 0.16414 0.70808
 C1248 C 0.59134 0.18121 0.69602
 C1249 C 0.57161 0.17432 0.68277
 C1250 C 0.56499 0.15000 0.68188
 H1251 H 0.63251 0.08737 0.74164
 H1252 H 0.56091 0.06139 0.69828
 H1253 H 0.58261 0.03214 0.72173
 H1254 H 0.55539 0.10294 0.68448
 H1255 H 0.62637 0.12834 0.72961
 H1256 H 0.61977 0.16992 0.71802
 H1257 H 0.59679 0.19984 0.69675
 H1258 H 0.54966 0.14463 0.67179
 C1259 C 1.10866 0.58094 0.22334
 C1260 C 1.09649 0.59676 0.20860
 C1261 C 1.09304 0.59124 0.18510
 C1262 C 1.10203 0.57009 0.17670
 C1263 C 1.11431 0.55448 0.19139
 C1264 C 1.11787 0.55948 0.21507
 C1265 C 1.08073 0.60697 0.17036
 C1266 C 1.07201 0.62830 0.17884
 C1267 C 1.07566 0.63392 0.20236
 C1268 C 1.08770 0.61804 0.21711
 C1269 C 1.06737 0.65546 0.21071
 C1270 C 1.05569 0.67138 0.19589
 C1271 C 1.05182 0.66592 0.17255
 C1272 C 1.05990 0.64424 0.16414
 H1273 H 1.10994 0.58517 0.24148
 H1274 H 1.09978 0.56569 0.15864
 H1275 H 1.12170 0.53895 0.18367
 H1276 H 1.07806 0.60269 0.15231
 H1277 H 1.09039 0.62235 0.23516
 H1278 H 1.07005 0.66007 0.22867
 H1279 H 1.04947 0.68795 0.20271
 H1280 H 1.05718 0.64007 0.14607
 C1281 C 0.91544 0.89833 0.23385
 C1282 C 0.92406 0.88211 0.21798
 C1283 C 0.91382 0.88089 0.19561
 C1284 C 0.89550 0.89615 0.18933
 C1285 C 0.88715 0.91230 0.20515
 C1286 C 0.89689 0.91343 0.22755
 C1287 C 0.92195 0.86435 0.17988
 C1288 C 0.94030 0.84910 0.18614
 C1289 C 0.95088 0.85061 0.20833
 C1290 C 0.94265 0.86706 0.22415
 C1291 C 0.96947 0.83552 0.21434
 C1292 C 0.97733 0.81894 0.19861
 C1293 C 0.96663 0.81705 0.17669
 C1294 C 0.94818 0.83230 0.17054
 H1295 H 0.92319 0.89930 0.25103
 H1296 H 0.88751 0.89547 0.17225
 H1297 H 0.87270 0.92365 0.20002
 H1298 H 0.91392 0.86327 0.16282
 H1299 H 0.95063 0.86808 0.24123
 H1300 H 0.97783 0.83644 0.23124
 H1301 H 0.99150 0.80724 0.20374
 H1302 H 0.94008 0.83118 0.15352
 C1303 C 0.41872 0.41488 0.72948
 C1304 C 0.42978 0.39799 0.71598
 C1305 C 0.42254 0.39496 0.69274
 C1306 C 0.40451 0.40904 0.68337
 C1307 C 0.39358 0.42581 0.69695
 C1308 C 0.40045 0.42879 0.72014
 C1309 C 0.43329 0.37780 0.67932
 C1310 C 0.45115 0.36358 0.68886
 C1311 C 0.45856 0.36680 0.71203
 C1312 C 0.44785 0.38400 0.72543
 C1313 C 0.47648 0.35262 0.72145
 C1314 C 0.48680 0.33521 0.70815
 C1315 C 0.47936 0.33163 0.68521
 C1316 C 0.46160 0.34606 0.67564
 H1317 H 0.42439 0.41728 0.74726
 H1318 H 0.39873 0.40693 0.66560
 H1319 H 0.37942 0.43616 0.68943
 H1320 H 0.42766 0.37540 0.66152
 H1321 H 0.45345 0.38637 0.74324
 H1322 H 0.48238 0.35485 0.73917
 H1323 H 0.50029 0.32420 0.71598
 H1324 H 0.45598 0.34372 0.65784
 C1325 C 0.40068 0.57914 0.74986
 C1326 C 0.40844 0.59929 0.76204
 C1327 C 0.39177 0.61410 0.77228
 C1328 C 0.36764 0.60889 0.76956
 C1329 C 0.36008 0.58905 0.75701
 C1330 C 0.37653 0.57398 0.74735
 C1331 C 0.39947 0.63380 0.78511
 C1332 C 0.42361 0.63907 0.78759
 C1333 C 0.44025 0.62475 0.77673
 C1334 C 0.43257 0.60486 0.76413
 C1335 C 0.46434 0.63046 0.77884
 C1336 C 0.47190 0.64988 0.79201
 C1337 C 0.45553 0.66370 0.80348
 C1338 C 0.43138 0.65835 0.80096
 H1339 H 0.41334 0.56756 0.74216
 H1340 H 0.35463 0.62013 0.77715
 H1341 H 0.34140 0.58524 0.75509
 H1342 H 0.38670 0.64495 0.79324
 H1343 H 0.44533 0.59369 0.75603
 H1344 H 0.47734 0.61976 0.77054
 H1345 H 0.49059 0.65371 0.79380
 H1346 H 0.41864 0.66917 0.80953
 C1347 C -0.10551 0.07500 0.25434
 C1348 C -0.09551 0.09304 0.26800
 C1349 C -0.10020 0.09320 0.29197
 C1350 C -0.11498 0.07544 0.30181
 C1351 C -0.12458 0.05735 0.28815
 C1352 C -0.11980 0.05686 0.26438
 C1353 C -0.08971 0.11080 0.30579
 C1354 C -0.07427 0.12802 0.29603
 C1355 C -0.06967 0.12796 0.27205
 C1356 C -0.08044 0.11056 0.25816
 C1357 C -0.05410 0.14511 0.26242
 C1358 C -0.04289 0.16196 0.27646
 C1359 C -0.04710 0.16203 0.30037
 C1360 C -0.06306 0.14510 0.30997
 H1361 H -0.10150 0.07456 0.23606
 H1362 H -0.11880 0.07532 0.32013
 H1363 H -0.13568 0.04362 0.29617
 H1364 H -0.09322 0.11083 0.32420
 H1365 H -0.07678 0.11042 0.23978
 H1366 H -0.05035 0.14531 0.24408
 H1367 H -0.03051 0.17463 0.26866
 H1368 H -0.06679 0.14523 0.32832
 C1369 C 0.10724 0.39902 0.25170
 C1370 C 0.09631 0.38202 0.26640
 C1371 C 0.09935 0.38357 0.29062
 C1372 C 0.11366 0.40192 0.29964
 C1373 C 0.12478 0.41862 0.28482
 C1374 C 0.12165 0.41742 0.26070
 C1375 C 0.08810 0.36674 0.30535
 C1376 C 0.07416 0.34817 0.29612
 C1377 C 0.07153 0.34643 0.27185
 C1378 C 0.08240 0.36349 0.25718
 C1379 C 0.05816 0.32753 0.26260
 C1380 C 0.04756 0.31040 0.27723
 C1381 C 0.04980 0.31212 0.30133
 C1382 C 0.06301 0.33113 0.31072
 H1383 H 0.10416 0.39808 0.23321
 H1384 H 0.11632 0.40332 0.31815
 H1385 H 0.13598 0.43239 0.29226
 H1386 H 0.09030 0.36799 0.32395
 H1387 H 0.08022 0.36222 0.23858
 H1388 H 0.05602 0.32590 0.24405
 H1389 H 0.03736 0.29588 0.26975
 H1390 H 0.06494 0.33234 0.32934
 C1391 C 0.60436 0.91292 0.77432
 C1392 C 0.59327 0.89235 0.78385
 C1393 C 0.60286 0.86964 0.78031
 C1394 C 0.62404 0.86803 0.76833
 C1395 C 0.63524 0.88862 0.75933
 C1396 C 0.62528 0.91128 0.76164
 C1397 C 0.59107 0.84895 0.78867
 C1398 C 0.57008 0.85072 0.80106
 C1399 C 0.56115 0.87351 0.80552
 C1400 C 0.57259 0.89415 0.79664
 C1401 C 0.54091 0.87532 0.81885
 C1402 C 0.52944 0.85478 0.82755
 C1403 C 0.53742 0.83179 0.82249
 C1404 C 0.55794 0.83006 0.80914
 H1405 H 0.59619 0.93007 0.77618
 H1406 H 0.63190 0.85082 0.76580
 H1407 H 0.65168 0.88669 0.75035
 H1408 H 0.59823 0.83151 0.78557
 H1409 H 0.56541 0.91159 0.79971
 H1410 H 0.53407 0.89267 0.82281
 H1411 H 0.51442 0.85715 0.83851
 H1412 H 0.56446 0.81275 0.80470
 C1413 C 0.73022 0.58692 0.10685
 C1414 C 0.71700 0.57679 0.12506
 C1415 C 0.69304 0.58242 0.12717
 C1416 C 0.68265 0.59788 0.11085
 C1417 C 0.69581 0.60765 0.09255
 C1418 C 0.71990 0.60250 0.09022
 C1419 C 0.67981 0.57232 0.14541
 C1420 C 0.69017 0.55628 0.16131
 C1421 C 0.71408 0.55042 0.15900
 C1422 C 0.72738 0.56082 0.14100
 C1423 C 0.72427 0.53408 0.17463
 C1424 C 0.71088 0.52345 0.19232
 C1425 C 0.68707 0.52916 0.19493
 C1426 C 0.67692 0.54580 0.17936
 H1427 H 0.74833 0.58161 0.10518
 H1428 H 0.66430 0.60246 0.11224
 H1429 H 0.68714 0.62002 0.08078
 H1430 H 0.66141 0.57672 0.14707
 H1431 H 0.74575 0.55635 0.13928
 H1432 H 0.74255 0.52929 0.17302
 H1433 H 0.71911 0.51041 0.20371
 H1434 H 0.65871 0.55071 0.18130
 C1435 C 0.25315 1.11371 0.60217
 C1436 C 0.23862 1.10679 0.62067
 C1437 C 0.21537 1.11519 0.62149
 C1438 C 0.20720 1.13065 0.60388
 C1439 C 0.22184 1.13751 0.58551
 C1440 C 0.24492 1.12906 0.58441
 C1441 C 0.20061 1.10777 0.63972
 C1442 C 0.20880 1.09191 0.65701
 C1443 C 0.23218 1.08377 0.65627
 C1444 C 0.24694 1.09133 0.63818
 C1445 C 0.24029 1.06780 0.67343
 C1446 C 0.22521 1.05936 0.69079
 C1447 C 0.20180 1.06688 0.69144
 C1448 C 0.19382 1.08355 0.67473
 H1449 H 0.27076 1.10670 0.60136
 H1450 H 0.18946 1.13735 0.60426
 H1451 H 0.21516 1.14960 0.57222
 H1452 H 0.18270 1.11404 0.64025
 H1453 H 0.26480 1.08490 0.63754
 H1454 H 0.25819 1.06150 0.67319
 H1455 H 0.23178 1.04674 0.70366
 H1456 H 0.17572 1.08926 0.67499
 C1457 C 0.24147 0.91439 0.91931
 C1458 C 0.22787 0.92343 0.90083
 C1459 C 0.20368 0.91713 0.89921
 C1460 C 0.19349 0.90204 0.91617
 C1461 C 0.20712 0.89324 0.93458
 C1462 C 0.23120 0.89924 0.93627
 C1463 C 0.19005 0.92614 0.88077
 C1464 C 0.20020 0.94164 0.86411
 C1465 C 0.22436 0.94807 0.86582
 C1466 C 0.23807 0.93879 0.88407
 C1467 C 0.23433 0.96395 0.84938
 C1468 C 0.22045 0.97366 0.83160
 C1469 C 0.19644 0.96741 0.82978
 C1470 C 0.18647 0.95118 0.84597
 H1471 H 0.25996 0.91938 0.92067
 H1472 H 0.17499 0.89704 0.91521
 H1473 H 0.19891 0.88143 0.94737
 H1474 H 0.17150 0.92128 0.87952
 H1475 H 0.25660 0.94370 0.88536
 H1476 H 0.25280 0.96907 0.85043
 H1477 H 0.22845 0.98607 0.81922
 H1478 H 0.16787 0.94658 0.84483
 C1479 C 0.75091 0.41061 0.43905
 C1480 C 0.73909 0.42103 0.42010
 C1481 C 0.75172 0.43548 0.40392
 C1482 C 0.77601 0.43930 0.40710
 C1483 C 0.78770 0.42867 0.42597
 C1484 C 0.77528 0.41420 0.44206
 C1485 C 0.73992 0.44556 0.38471
 C1486 C 0.71573 0.44108 0.38135
 C1487 C 0.70318 0.42661 0.39761
 C1488 C 0.71489 0.41685 0.41693
 C1489 C 0.67913 0.42182 0.39411
 C1490 C 0.66764 0.43091 0.37449
 C1491 C 0.67990 0.44515 0.35811
 C1492 C 0.70392 0.45045 0.36180
 H1493 H 0.74122 0.39917 0.45115
 H1494 H 0.78599 0.45035 0.39492
 H1495 H 0.80646 0.43183 0.42806
 H1496 H 0.74961 0.45656 0.37223
 H1497 H 0.70523 0.40571 0.42933
 H1498 H 0.66927 0.41080 0.40641
 H1499 H 0.64907 0.42683 0.37209
 H1500 H 0.71353 0.46125 0.34911
 C1501 C 0.77565 0.41427 0.60480
 C1502 C 0.78250 0.43032 0.62207
 C1503 C 0.79211 0.45301 0.61573
 C1504 C 0.79419 0.45949 0.59229
 C1505 C 0.78712 0.44354 0.57523
 C1506 C 0.77802 0.42067 0.58122
 C1507 C 0.79973 0.46879 0.63288
 C1508 C 0.79792 0.46215 0.65633
 C1509 C 0.78777 0.43971 0.66274
 C1510 C 0.78011 0.42393 0.64557
 C1511 C 0.78586 0.43330 0.68626
 C1512 C 0.79462 0.44862 0.70323
 C1513 C 0.80549 0.47057 0.69697
 C1514 C 0.80662 0.47742 0.67346
 H1515 H 0.76892 0.39665 0.60976
 H1516 H 0.80131 0.47690 0.58713
 H1517 H 0.78861 0.44925 0.55728
 H1518 H 0.80738 0.48607 0.62797
 H1519 H 0.77258 0.40660 0.65048
 H1520 H 0.77805 0.41621 0.69150
 H1521 H 0.79368 0.44291 0.72122
 H1522 H 0.81467 0.49449 0.66849
 C1523 C 0.25984 -0.09927 0.10115
 C1524 C 0.27224 -0.08653 0.11818
 C1525 C 0.28600 -0.06615 0.11175
 C1526 C 0.28707 -0.05884 0.08845
 C1527 C 0.27440 -0.07140 0.07166
 C1528 C 0.26061 -0.09169 0.07778
 C1529 C 0.29834 -0.05331 0.12872
 C1530 C 0.29692 -0.06045 0.15208
 C1531 C 0.28301 -0.08072 0.15855
 C1532 C 0.27087 -0.09371 0.14155
 C1533 C 0.28143 -0.08760 0.18196
 C1534 C 0.29360 -0.07460 0.19881
 C1535 C 0.30766 -0.05458 0.19255
 C1536 C 0.30917 -0.04758 0.16909
 H1537 H 0.24962 -0.11510 0.10611
 H1538 H 0.29745 -0.04320 0.08323
 H1539 H 0.27503 -0.06489 0.05389
 H1540 H 0.30892 -0.03770 0.12376
 H1541 H 0.26024 -0.10928 0.14651
 H1542 H 0.27084 -0.10307 0.18723
 H1543 H 0.29235 -0.08047 0.21674
 H1544 H 0.31970 -0.03196 0.16412
 C1545 C 0.26323 0.10123 0.42680
 C1546 C 0.27650 0.09043 0.40968
 C1547 C 0.30018 0.09785 0.40620
 C1548 C 0.31028 0.11563 0.42007
 C1549 C 0.29709 0.12598 0.43727
 C1550 C 0.27350 0.11897 0.44073
 C1551 C 0.31342 0.08739 0.38896
 C1552 C 0.30343 0.06937 0.37530
 C1553 C 0.27992 0.06157 0.37903
 C1554 C 0.26655 0.07225 0.39612
 C1555 C 0.27019 0.04324 0.36554
 C1556 C 0.28354 0.03292 0.34836
 C1557 C 0.30675 0.04091 0.34423
 C1558 C 0.31661 0.05907 0.35791
 H1559 H 0.24510 0.09558 0.42959
 H1560 H 0.32841 0.12147 0.41767
 H1561 H 0.30525 0.13971 0.44777
 H1562 H 0.33152 0.09325 0.38620
 H1563 H 0.24846 0.06638 0.39888
 H1564 H 0.25222 0.03699 0.36818
 H1565 H 0.27554 0.01906 0.33792
 H1566 H 0.33462 0.06510 0.35506
 C1567 C 0.75524 0.60781 0.94234
 C1568 C 0.76385 0.59621 0.92300
 C1569 C 0.74843 0.58197 0.90944
 C1570 C 0.72466 0.57960 0.91549
 C1571 C 0.71617 0.59150 0.93457
 C1572 C 0.73133 0.60574 0.94810
 C1573 C 0.75693 0.57063 0.88990
 C1574 C 0.78054 0.57379 0.88344
 C1575 C 0.79589 0.58818 0.89697
 C1576 C 0.78752 0.59905 0.91678
 C1577 C 0.81930 0.59186 0.89021
 C1578 C 0.82735 0.58181 0.86999
 C1579 C 0.81226 0.56760 0.85636
 C1580 C 0.78895 0.56329 0.86337
 H1581 H 0.76700 0.61896 0.95258
 H1582 H 0.71258 0.56875 0.90533
 H1583 H 0.69772 0.58945 0.93887
 H1584 H 0.74508 0.55976 0.87947
 H1585 H 0.79931 0.61009 0.92709
 H1586 H 0.83128 0.60283 0.90034
 H1587 H 0.84543 0.58516 0.86491
 H1588 H 0.77723 0.55247 0.85278
 C1589 C 0.07138 0.74549 0.59188
 C1590 C 0.08968 0.73599 0.57912
 C1591 C 0.10633 0.75151 0.56825
 C1592 C 0.10428 0.77630 0.57029
 C1593 C 0.08578 0.78564 0.58275
 C1594 C 0.06907 0.77037 0.59362
 C1595 C 0.12463 0.74200 0.55544
 C1596 C 0.12631 0.71716 0.55317
 C1597 C 0.10949 0.70170 0.56390
 C1598 C 0.09139 0.71119 0.57692
 C1599 C 0.11098 0.67694 0.56140
 C1600 C 0.12897 0.66751 0.54841
 C1601 C 0.14592 0.68263 0.53775
 C1602 C 0.14449 0.70750 0.54026
 H1603 H 0.05895 0.73344 0.60051
 H1604 H 0.11682 0.78848 0.56200
 H1605 H 0.08430 0.80487 0.58352
 H1606 H 0.13744 0.75390 0.54714
 H1607 H 0.07854 0.69929 0.58517
 H1608 H 0.09826 0.66485 0.56954
 H1609 H 0.12989 0.64829 0.54703
 H1610 H 0.15737 0.71932 0.53197
 C1611 C 0.58328 0.21694 1.08482
 C1612 C 0.60358 0.20942 1.07370
 C1613 C 0.62279 0.22552 1.07040
 C1614 C 0.62084 0.24925 1.07716
 C1615 C 0.60018 0.25690 1.08727
 C1616 C 0.58123 0.24080 1.09174
 C1617 C 0.64354 0.21768 1.06031
 C1618 C 0.64498 0.19412 1.05268
 C1619 C 0.62523 0.17847 1.05483
 C1620 C 0.60486 0.18603 1.06571
 C1621 C 0.62612 0.15548 1.04598
 C1622 C 0.64656 0.14776 1.03562
 C1623 C 0.66699 0.16249 1.03462
 C1624 C 0.66584 0.18593 1.04297
 H1625 H 0.56932 0.20395 1.08828
 H1626 H 0.63520 0.26200 1.07436
 H1627 H 0.59916 0.27560 1.09137
 H1628 H 0.65846 0.22993 1.05823
 H1629 H 0.58993 0.17379 1.06776
 H1630 H 0.61094 0.14346 1.04694
 H1631 H 0.64618 0.13010 1.02841
 H1632 H 0.68120 0.19769 1.04245
 C1633 C 0.91683 0.24274 0.89945
 C1634 C 0.89699 0.23266 0.91053
 C1635 C 0.88319 0.24693 0.92477
 C1636 C 0.88958 0.27100 0.92775
 C1637 C 0.90932 0.28090 0.91663
 C1638 C 0.92310 0.26694 0.90231
 C1639 C 0.86323 0.23693 0.93573
 C1640 C 0.85690 0.21281 0.93266
 C1641 C 0.87077 0.19858 0.91844
 C1642 C 0.89067 0.20858 0.90747
 C1643 C 0.86455 0.17451 0.91546
 C1644 C 0.84483 0.16453 0.92647
 C1645 C 0.83073 0.17842 0.94058
 C1646 C 0.83695 0.20265 0.94360
 H1647 H 0.92711 0.23186 0.88822
 H1648 H 0.87928 0.28220 0.93865
 H1649 H 0.91393 0.29951 0.91935
 H1650 H 0.85266 0.24790 0.94662
 H1651 H 0.90125 0.19761 0.89657
 H1652 H 0.87506 0.16331 0.90475
 H1653 H 0.84089 0.14570 0.92423
 H1654 H 0.82621 0.21364 0.95429
 C1655 C 0.39798 0.73741 0.39454
 C1656 C 0.37821 0.72479 0.40323
 C1657 C 0.37321 0.70129 0.39576
 C1658 C 0.38783 0.69092 0.37961
 C1659 C 0.40763 0.70341 0.37138
 C1660 C 0.41302 0.72660 0.37891
 C1661 C 0.35396 0.68832 0.40486
 C1662 C 0.33977 0.69835 0.42160
 C1663 C 0.34459 0.72185 0.42903
 C1664 C 0.36372 0.73500 0.41970
 C1665 C 0.33035 0.73167 0.44590
 C1666 C 0.31165 0.71825 0.45544
 C1667 C 0.30680 0.69480 0.44825
 C1668 C 0.32099 0.68503 0.43123
 H1669 H 0.40220 0.75521 0.40057
 H1670 H 0.38421 0.67297 0.37367
 H1671 H 0.41895 0.69486 0.35924
 H1672 H 0.35025 0.67027 0.39918
 H1673 H 0.36754 0.75298 0.42552
 H1674 H 0.33371 0.74969 0.45177
 H1675 H 0.30083 0.72630 0.46831
 H1676 H 0.31773 0.66683 0.42580
 C1677 C 0.56944 0.75409 0.39328
 C1678 C 0.58861 0.76439 0.40519
 C1679 C 0.59635 0.75399 0.42640
 C1680 C 0.58502 0.73324 0.43511
 C1681 C 0.56627 0.72282 0.42290
 C1682 C 0.55830 0.73321 0.40200
 C1683 C 0.61533 0.76442 0.43847
 C1684 C 0.62689 0.78493 0.42945
 C1685 C 0.61942 0.79502 0.40803
 C1686 C 0.60025 0.78479 0.39611
 C1687 C 0.63122 0.81526 0.39889
 C1688 C 0.65005 0.82565 0.41097
 C1689 C 0.65735 0.81615 0.43256
 C1690 C 0.64574 0.79559 0.44159
 H1691 H 0.56346 0.76197 0.37701
 H1692 H 0.59075 0.72499 0.45129
 H1693 H 0.55780 0.70673 0.42986
 H1694 H 0.62114 0.75655 0.45482
 H1695 H 0.59445 0.79265 0.37976
 H1696 H 0.62587 0.82311 0.38240
 H1697 H 0.65894 0.84116 0.40335
 H1698 H 0.65098 0.78820 0.45831
 C1699 C 0.08755 0.26650 -0.09552
 C1700 C 0.10757 0.27953 -0.08813
 C1701 C 0.11086 0.30359 -0.09567
 C1702 C 0.09419 0.31417 -0.11046
 C1703 C 0.07425 0.30120 -0.11751
 C1704 C 0.07064 0.27734 -0.11005
 C1705 C 0.13057 0.31683 -0.08811
 C1706 C 0.14690 0.30649 -0.07276
 C1707 C 0.14374 0.28244 -0.06522
 C1708 C 0.12417 0.26905 -0.07307
 C1709 C 0.16009 0.27234 -0.04970
 C1710 C 0.17911 0.28605 -0.04140
 C1711 C 0.18224 0.31009 -0.04855
 C1712 C 0.16617 0.32002 -0.06456
 H1713 H 0.08480 0.24816 -0.08954
 H1714 H 0.09648 0.33256 -0.11644
 H1715 H 0.06163 0.30980 -0.12894
 H1716 H 0.13300 0.33530 -0.09387
 H1717 H 0.12169 0.25062 -0.06722
 H1718 H 0.15795 0.25394 -0.04370
 H1719 H 0.19106 0.27798 -0.02893
 H1720 H 0.16858 0.33838 -0.07061
 C1721 C 0.43080 0.26511 0.08037
 C1722 C 0.41199 0.27504 0.06780
 C1723 C 0.39725 0.26020 0.05416
 C1724 C 0.40170 0.23570 0.05322
 C1725 C 0.42039 0.22592 0.06590
 C1726 C 0.43506 0.24048 0.07966
 C1727 C 0.37814 0.27004 0.04193
 C1728 C 0.37344 0.29448 0.04340
 C1729 C 0.38829 0.30929 0.05700
 C1730 C 0.40753 0.29952 0.06897
 C1731 C 0.38345 0.33362 0.05871
 C1732 C 0.36381 0.34315 0.04746
 C1733 C 0.34872 0.32860 0.03415
 C1734 C 0.35385 0.30429 0.03189
 H1735 H 0.44177 0.27646 0.09117
 H1736 H 0.39064 0.22406 0.04280
 H1737 H 0.42347 0.20695 0.06484
 H1738 H 0.36677 0.25863 0.03156
 H1739 H 0.41882 0.31090 0.07946
 H1740 H 0.39468 0.34523 0.06899
 H1741 H 0.36037 0.36198 0.04920
 H1742 H 0.34219 0.29291 0.02180
 C1743 C 0.90277 0.77324 0.59442
 C1744 C 0.88468 0.78104 0.57952
 C1745 C 0.88947 0.78568 0.55587
 C1746 C 0.91233 0.78283 0.54762
 C1747 C 0.93031 0.77550 0.56265
 C1748 C 0.92567 0.77052 0.58609
 C1749 C 0.87143 0.79336 0.54090
 C1750 C 0.84882 0.79715 0.54941
 C1751 C 0.84412 0.79289 0.57311
 C1752 C 0.86199 0.78454 0.58796
 C1753 C 0.82174 0.79748 0.58165
 C1754 C 0.80430 0.80675 0.56699
 C1755 C 0.80869 0.81115 0.54332
 C1756 C 0.83099 0.80575 0.53464
 H1757 H 0.89916 0.76964 0.61256
 H1758 H 0.91632 0.78636 0.52957
 H1759 H 0.94782 0.77331 0.55589
 H1760 H 0.87512 0.79685 0.52275
 H1761 H 0.85834 0.78118 0.60614
 H1762 H 0.81788 0.79450 0.59981
 H1763 H 0.78761 0.81113 0.57447
 H1764 H 0.83469 0.80850 0.51643
   
