data_POSCAR
  _audit_creation_date              2014-09-24
  _audit_creation_method            'ToBaCCo'
  _symmetry_space_group_name_H-M    'P1'
  _symmetry_Int_Tables_number       1
  _symmetry_cell_setting            triclinic
  loop_
  _symmetry_equiv_pos_as_xyz
 x,y,z
_cell_length_a 83.1170
_cell_length_b 83.1784
_cell_length_c 83.2809
_cell_angle_alpha 89.984000
_cell_angle_beta 89.984400
_cell_angle_gamma 89.936700
loop_
  _atom_site_label
  _atom_site_type_symbol
  _atom_site_fract_x
  _atom_site_fract_y
  _atom_site_fract_z
N1 N 0.35730 0.31267 0.32401
 N2 N 0.35732 0.32413 0.31312
 C3 C 0.36972 0.32174 0.30297
 C4 C 0.37780 0.30812 0.30788
 C5 C 0.36969 0.30262 0.32121
 H6 H 0.37264 0.32928 0.29280
 H7 H 0.37256 0.29212 0.32832
 Cu8 Cu 0.34089 0.34076 0.31342
 Cu9 Cu 0.34123 0.31154 0.34102
 Cu10 Cu 0.31164 0.34110 0.34099
 N11 N 0.32424 0.35717 0.31309
 N12 N 0.31276 0.35715 0.32397
 C13 C 0.30270 0.36953 0.32115
 C14 C 0.30821 0.37763 0.30781
 C15 C 0.32185 0.36955 0.30292
 H16 H 0.29219 0.37240 0.32825
 H17 H 0.32940 0.37246 0.29276
 N18 N 0.31268 0.32382 0.35717
 N19 N 0.32393 0.31258 0.35718
 C20 C 0.32141 0.30263 0.36969
 C21 C 0.30800 0.30791 0.37784
 C22 C 0.30271 0.32131 0.36968
 H23 H 0.32878 0.29234 0.37269
 H24 H 0.29241 0.32866 0.37267
 H25 H 0.32312 0.32299 0.32848
 H26 H 0.33582 0.33570 0.34180
 N27 N 0.35784 0.81269 -0.17618
 N28 N 0.35767 0.82395 -0.18729
 C29 C 0.37016 0.82157 -0.19737
 C30 C 0.37846 0.80818 -0.19216
 C31 C 0.37041 0.80280 -0.17874
 H32 H 0.37303 0.82899 -0.20764
 H33 H 0.37346 0.79252 -0.17139
 Cu34 Cu 0.34105 0.84049 -0.18739
 Cu35 Cu 0.34182 0.81165 -0.15917
 Cu36 Cu 0.31224 0.84114 -0.15926
 N37 N 0.32445 0.85708 -0.18741
 N38 N 0.31317 0.85722 -0.17631
 C39 C 0.30324 0.86977 -0.17893
 C40 C 0.30861 0.87783 -0.19238
 C41 C 0.32206 0.86954 -0.19752
 H42 H 0.29293 0.87280 -0.17160
 H43 H 0.32950 0.87239 -0.20778
 N44 N 0.31328 0.82389 -0.14301
 N45 N 0.32455 0.81267 -0.14300
 C46 C 0.32206 0.80271 -0.13048
 C47 C 0.30863 0.80795 -0.12232
 C48 C 0.30333 0.82135 -0.13049
 H49 H 0.32944 0.79243 -0.12748
 H50 H 0.29301 0.82868 -0.12750
 H51 H 0.32368 0.82283 -0.17171
 H52 H 0.33661 0.83582 -0.15883
 N53 N 0.85698 0.31321 -0.17602
 N54 N 0.85664 0.32427 -0.18730
 C55 C 0.86910 0.32189 -0.19738
 C56 C 0.87758 0.30867 -0.19205
 C57 C 0.86965 0.30343 -0.17851
 H58 H 0.87182 0.32919 -0.20778
 H59 H 0.87284 0.29327 -0.17104
 Cu60 Cu 0.83997 0.34070 -0.18770
 Cu61 Cu 0.84103 0.31230 -0.15898
 Cu62 Cu 0.81157 0.34182 -0.15895
 N63 N 0.82359 0.35740 -0.18728
 N64 N 0.81252 0.35778 -0.17598
 C65 C 0.80277 0.37047 -0.17845
 C66 C 0.80806 0.37838 -0.19199
 C67 C 0.82125 0.36987 -0.19735
 H68 H 0.79262 0.37369 -0.17096
 H69 H 0.82856 0.37257 -0.20775
 N70 N 0.81261 0.32461 -0.14274
 N71 N 0.82384 0.31336 -0.14276
 C72 C 0.82131 0.30338 -0.13027
 C73 C 0.80790 0.30866 -0.12211
 C74 C 0.80264 0.32209 -0.13024
 H75 H 0.82863 0.29305 -0.12732
 H76 H 0.79232 0.32943 -0.12726
 H77 H 0.82269 0.32349 -0.17144
 H78 H 0.83591 0.33665 -0.15897
 N79 N 0.85716 0.81318 0.32413
 N80 N 0.85679 0.82422 0.31283
 C81 C 0.86925 0.82185 0.30275
 C82 C 0.87776 0.80866 0.30810
 C83 C 0.86985 0.80342 0.32165
 H84 H 0.87196 0.82914 0.29234
 H85 H 0.87306 0.79328 0.32913
 Cu86 Cu 0.84009 0.84062 0.31241
 Cu87 Cu 0.84120 0.81226 0.34117
 Cu88 Cu 0.81170 0.84173 0.34116
 N89 N 0.82368 0.85730 0.31281
 N90 N 0.81262 0.85767 0.32411
 C91 C 0.80285 0.87035 0.32162
 C92 C 0.80812 0.87824 0.30807
 C93 C 0.82133 0.86974 0.30271
 H94 H 0.79270 0.87356 0.32910
 H95 H 0.82863 0.87243 0.29231
 N96 N 0.81277 0.82455 0.35739
 N97 N 0.82401 0.81332 0.35739
 C98 C 0.82149 0.80335 0.36990
 C99 C 0.80807 0.80862 0.37805
 C100 C 0.80279 0.82202 0.36990
 H101 H 0.82884 0.79304 0.37286
 H102 H 0.79246 0.82935 0.37286
 H103 H 0.82285 0.82340 0.32870
 H104 H 0.83605 0.83661 0.34115
 N105 N 0.64279 0.68746 0.32430
 N106 N 0.64298 0.67618 0.31322
 C107 C 0.63055 0.67854 0.30311
 C108 C 0.62226 0.69196 0.30820
 C109 C 0.63026 0.69736 0.32164
 H110 H 0.62776 0.67112 0.29283
 H111 H 0.62717 0.70767 0.32893
 Cu112 Cu 0.65952 0.65966 0.31322
 Cu113 Cu 0.65878 0.68848 0.34133
 Cu114 Cu 0.68836 0.65895 0.34132
 N115 N 0.67606 0.64315 0.31320
 N116 N 0.68735 0.64297 0.32428
 C117 C 0.69727 0.63044 0.32160
 C118 C 0.69187 0.62245 0.30816
 C119 C 0.67843 0.63073 0.30308
 H120 H 0.70759 0.62737 0.32889
 H121 H 0.67100 0.62795 0.29281
 N122 N 0.68728 0.67618 0.35752
 N123 N 0.67603 0.68741 0.35753
 C124 C 0.67854 0.69738 0.37002
 C125 C 0.69196 0.69211 0.37817
 C126 C 0.69725 0.67871 0.37002
 H127 H 0.67120 0.70769 0.37300
 H128 H 0.70758 0.67138 0.37300
 H129 H 0.67700 0.67716 0.32888
 H130 H 0.66407 0.66422 0.34180
 N131 N 0.64266 0.18713 -0.17590
 N132 N 0.64283 0.17586 -0.18699
 C133 C 0.63035 0.17822 -0.19706
 C134 C 0.62204 0.19162 -0.19191
 C135 C 0.63009 0.19700 -0.17850
 H136 H 0.62748 0.17080 -0.20731
 H137 H 0.62702 0.20731 -0.17120
 Cu138 Cu 0.65947 0.15937 -0.18703
 Cu139 Cu 0.65867 0.18822 -0.15889
 Cu140 Cu 0.68827 0.15870 -0.15893
 N141 N 0.67600 0.14275 -0.18706
 N142 N 0.68730 0.14261 -0.17598
 C143 C 0.69721 0.13005 -0.17861
 C144 C 0.69181 0.12200 -0.19204
 C145 C 0.67838 0.13030 -0.19716
 H146 H 0.70753 0.12701 -0.17131
 H147 H 0.67092 0.12744 -0.20741
 N148 N 0.68722 0.17599 -0.14272
 N149 N 0.67595 0.18721 -0.14272
 C150 C 0.67845 0.19719 -0.13022
 C151 C 0.69187 0.19196 -0.12207
 C152 C 0.69718 0.17855 -0.13021
 H153 H 0.67106 0.20747 -0.12725
 H154 H 0.70750 0.17122 -0.12721
 H155 H 0.67687 0.17703 -0.17131
 H156 H 0.66398 0.16410 -0.15843
 N157 N 0.14280 0.68715 -0.17579
 N158 N 0.14298 0.67592 -0.18690
 C159 C 0.13047 0.67823 -0.19694
 C160 C 0.12225 0.69170 -0.19187
 C161 C 0.13029 0.69709 -0.17845
 H162 H 0.12768 0.67086 -0.20727
 H163 H 0.12733 0.70747 -0.17122
 Cu164 Cu 0.15957 0.65942 -0.18713
 Cu165 Cu 0.15885 0.68817 -0.15885
 Cu166 Cu 0.18833 0.65863 -0.15886
 N167 N 0.17603 0.64280 -0.18691
 N168 N 0.18727 0.64258 -0.17579
 C169 C 0.19718 0.63005 -0.17846
 C170 C 0.19176 0.62203 -0.19188
 C171 C 0.17830 0.63029 -0.19694
 H172 H 0.20755 0.62706 -0.17123
 H173 H 0.17091 0.62752 -0.20727
 N174 N 0.18735 0.67589 -0.14272
 N175 N 0.17612 0.68714 -0.14272
 C176 C 0.17866 0.69711 -0.13023
 C177 C 0.19207 0.69182 -0.12208
 C178 C 0.19733 0.67840 -0.13022
 H179 H 0.17132 0.70742 -0.12724
 H180 H 0.20763 0.67104 -0.12724
 H181 H 0.17708 0.67688 -0.17147
 H182 H 0.16406 0.66391 -0.15859
 N183 N 0.14262 0.18722 0.32392
 N184 N 0.14282 0.17598 0.31281
 C185 C 0.13040 0.17835 0.30269
 C186 C 0.12212 0.19178 0.30779
 C187 C 0.13010 0.19715 0.32125
 H188 H 0.12764 0.17097 0.29238
 H189 H 0.12704 0.20748 0.32852
 Cu190 Cu 0.15937 0.15946 0.31279
 Cu191 Cu 0.15860 0.18822 0.34095
 Cu192 Cu 0.18817 0.15870 0.34092
 N193 N 0.17591 0.14294 0.31277
 N194 N 0.18718 0.14274 0.32386
 C195 C 0.19711 0.13023 0.32117
 C196 C 0.19173 0.12226 0.30771
 C197 C 0.17829 0.13054 0.30263
 H198 H 0.20746 0.12718 0.32843
 H199 H 0.17088 0.12779 0.29233
 N200 N 0.18708 0.17590 0.35715
 N201 N 0.17582 0.18713 0.35716
 C202 C 0.17834 0.19708 0.36967
 C203 C 0.19176 0.19181 0.37781
 C204 C 0.19705 0.17842 0.36965
 H205 H 0.17100 0.20740 0.37265
 H206 H 0.20738 0.17109 0.37262
 H207 H 0.17685 0.17695 0.32850
 H208 H 0.16390 0.16399 0.34137
 N209 N 0.64258 0.31282 0.67592
 N210 N 0.64276 0.32404 0.68705
 C211 C 0.63029 0.32168 0.69714
 C212 C 0.62203 0.30825 0.69202
 C213 C 0.63007 0.30290 0.67857
 H214 H 0.62746 0.32904 0.70747
 H215 H 0.62706 0.29259 0.67127
 Cu216 Cu 0.65930 0.34058 0.68706
 Cu217 Cu 0.65859 0.31179 0.65889
 Cu218 Cu 0.68813 0.34125 0.65891
 N219 N 0.67588 0.35708 0.68708
 N220 N 0.68713 0.35725 0.67596
 C221 C 0.69707 0.36974 0.67863
 C222 C 0.69171 0.37776 0.69209
 C223 C 0.67826 0.36952 0.69718
 H224 H 0.70740 0.37273 0.67134
 H225 H 0.67087 0.37234 0.70751
 N226 N 0.68707 0.32404 0.64270
 N227 N 0.67582 0.31283 0.64269
 C228 C 0.67834 0.30287 0.63019
 C229 C 0.69176 0.30811 0.62204
 C230 C 0.69704 0.32150 0.63019
 H231 H 0.67100 0.29257 0.62722
 H232 H 0.70737 0.32881 0.62722
 H233 H 0.67679 0.32305 0.67141
 H234 H 0.66383 0.33605 0.65851
 N235 N 0.64285 0.81304 1.17628
 N236 N 0.64325 0.82408 1.18758
 C237 C 0.63076 0.82181 1.19765
 C238 C 0.62224 0.80865 1.19231
 C239 C 0.63015 0.80334 1.17877
 H240 H 0.62805 0.82915 1.20802
 H241 H 0.62692 0.79321 1.17131
 Cu242 Cu 0.65999 0.84032 1.18761
 Cu243 Cu 0.65881 0.81204 1.15916
 Cu244 Cu 0.68840 0.84151 1.15915
 N245 N 0.67627 0.85698 1.18756
 N246 N 0.68734 0.85737 1.17627
 C247 C 0.69706 0.87003 1.17875
 C248 C 0.69174 0.87792 1.19227
 C249 C 0.67856 0.86944 1.19762
 H250 H 0.70722 0.87325 1.17130
 H251 H 0.67121 0.87217 1.20799
 N252 N 0.68730 0.82433 1.14294
 N253 N 0.67605 0.81311 1.14294
 C254 C 0.67860 0.80315 1.13044
 C255 C 0.69202 0.80841 1.12231
 C256 C 0.69729 0.82180 1.13046
 H257 H 0.67127 0.79284 1.12746
 H258 H 0.70762 0.82911 1.12751
 H259 H 0.67735 0.82316 1.17139
 H260 H 0.66420 0.83634 1.15894
 N261 N 0.14265 0.31313 1.17584
 N262 N 0.14283 0.32440 1.18692
 C263 C 0.13041 0.32206 1.19705
 C264 C 0.12213 0.30864 1.19197
 C265 C 0.13014 0.30323 1.17853
 H266 H 0.12763 0.32949 1.20733
 H267 H 0.12710 0.29289 1.17128
 Cu268 Cu 0.15935 0.34087 1.18688
 Cu269 Cu 0.15868 0.31209 1.15882
 Cu270 Cu 0.18823 0.34156 1.15876
 N271 N 0.17586 0.35734 1.18685
 N272 N 0.18714 0.35751 1.17577
 C273 C 0.19705 0.37000 1.17842
 C274 C 0.19163 0.37799 1.19185
 C275 C 0.17820 0.36975 1.19695
 H276 H 0.20740 0.37303 1.17115
 H277 H 0.17079 0.37255 1.20724
 N278 N 0.18716 0.32434 1.14260
 N279 N 0.17592 0.31312 1.14261
 C280 C 0.17847 0.30314 1.13013
 C281 C 0.19189 0.30839 1.12199
 C282 C 0.19715 0.32179 1.13012
 H283 H 0.17115 0.29283 1.12716
 H284 H 0.20747 0.32911 1.12715
 H285 H 0.17698 0.32345 1.17125
 H286 H 0.16403 0.33639 1.15833
 N287 N 0.14286 0.81295 0.67595
 N288 N 0.14326 0.82400 0.68724
 C289 C 0.13079 0.82172 0.69733
 C290 C 0.12226 0.80856 0.69200
 C291 C 0.13017 0.80324 0.67846
 H292 H 0.12808 0.82907 0.70769
 H293 H 0.12694 0.79310 0.67101
 Cu294 Cu 0.16000 0.84024 0.68725
 Cu295 Cu 0.15882 0.81194 0.65882
 Cu296 Cu 0.18838 0.84144 0.65877
 N297 N 0.17626 0.85692 0.68718
 N298 N 0.18732 0.85731 0.67588
 C299 C 0.19703 0.86998 0.67835
 C300 C 0.19172 0.87786 0.69187
 C301 C 0.17855 0.86938 0.69724
 H302 H 0.20718 0.87320 0.67089
 H303 H 0.17121 0.87210 0.70761
 N304 N 0.18728 0.82425 0.64257
 N305 N 0.17604 0.81302 0.64257
 C306 C 0.17859 0.80306 0.63008
 C307 C 0.19201 0.80833 0.62194
 C308 C 0.19727 0.82172 0.63008
 H309 H 0.17127 0.79274 0.62711
 H310 H 0.20759 0.82905 0.62712
 H311 H 0.17735 0.82309 0.67102
 H312 H 0.16418 0.83626 0.65858
 N313 N 0.35740 0.68717 0.67589
 N314 N 0.35723 0.67589 0.68697
 C315 C 0.36962 0.67827 0.69712
 C316 C 0.37790 0.69171 0.69205
 C317 C 0.36990 0.69710 0.67859
 H318 H 0.37240 0.67086 0.70742
 H319 H 0.37293 0.70744 0.67132
 Cu320 Cu 0.34069 0.65935 0.68696
 Cu321 Cu 0.34141 0.68818 0.65885
 Cu322 Cu 0.31189 0.65864 0.65881
 N323 N 0.32417 0.64280 0.68693
 N324 N 0.31290 0.64263 0.67584
 C325 C 0.30299 0.63011 0.67850
 C326 C 0.30837 0.62210 0.69195
 C327 C 0.32180 0.63039 0.69705
 H328 H 0.29266 0.62707 0.67121
 H329 H 0.32921 0.62760 0.70736
 N330 N 0.31296 0.67588 0.64260
 N331 N 0.32419 0.68712 0.64261
 C332 C 0.32165 0.69710 0.63012
 C333 C 0.30825 0.69184 0.62196
 C334 C 0.30300 0.67842 0.63009
 H335 H 0.32897 0.70742 0.62716
 H336 H 0.29268 0.67110 0.62711
 H337 H 0.32317 0.67686 0.67127
 H338 H 0.33615 0.66393 0.65836
 N339 N 0.35729 0.18687 1.17594
 N340 N 0.35690 0.17581 1.18723
 C341 C 0.36938 0.17808 1.19731
 C342 C 0.37789 0.19126 1.19198
 C343 C 0.36998 0.19658 1.17845
 H344 H 0.37210 0.17072 1.20766
 H345 H 0.37320 0.20673 1.17100
 Cu346 Cu 0.34018 0.15955 1.18724
 Cu347 Cu 0.34132 0.18789 1.15883
 Cu348 Cu 0.31176 0.15838 1.15879
 N349 N 0.32390 0.14288 1.18718
 N350 N 0.31284 0.14250 1.17589
 C351 C 0.30313 0.12983 1.17836
 C352 C 0.30845 0.12192 1.19186
 C353 C 0.32162 0.13040 1.19723
 H354 H 0.29298 0.12662 1.17090
 H355 H 0.32897 0.12765 1.20759
 N356 N 0.31285 0.17559 1.14260
 N357 N 0.32408 0.18682 1.14260
 C358 C 0.32151 0.19680 1.13012
 C359 C 0.30809 0.19153 1.12199
 C360 C 0.30285 0.17812 1.13013
 H361 H 0.32882 0.20712 1.12715
 H362 H 0.29253 0.17080 1.12718
 H363 H 0.32279 0.17671 1.17105
 H364 H 0.33595 0.16357 1.15857
 N365 N 0.85721 0.68701 1.17628
 N366 N 0.85683 0.67595 1.18758
 C367 C 0.86930 0.67823 1.19765
 C368 C 0.87781 0.69141 1.19232
 C369 C 0.86990 0.69672 1.17878
 H370 H 0.87202 0.67088 1.20802
 H371 H 0.87312 0.70687 1.17133
 Cu372 Cu 0.84010 0.65969 1.18759
 Cu373 Cu 0.84126 0.68800 1.15916
 Cu374 Cu 0.81170 0.65849 1.15912
 N375 N 0.82383 0.64301 1.18753
 N376 N 0.81278 0.64262 1.17623
 C377 C 0.80307 0.62994 1.17870
 C378 C 0.80839 0.62205 1.19222
 C379 C 0.82155 0.63053 1.19758
 H380 H 0.79292 0.62672 1.17124
 H381 H 0.82889 0.62780 1.20795
 N382 N 0.81280 0.67570 1.14292
 N383 N 0.82403 0.68693 1.14293
 C384 C 0.82148 0.69690 1.13043
 C385 C 0.80807 0.69163 1.12230
 C386 C 0.80282 0.67823 1.13044
 H387 H 0.82879 0.70722 1.12747
 H388 H 0.79250 0.67090 1.12748
 H389 H 0.82272 0.67683 1.17138
 H390 H 0.83590 0.66368 1.15892
 N391 N 0.85704 0.18692 0.67587
 N392 N 0.85688 0.17565 0.68695
 C393 C 0.86927 0.17801 0.69714
 C394 C 0.87758 0.19139 0.69201
 C395 C 0.86955 0.19680 0.67856
 H396 H 0.87215 0.17057 0.70744
 H397 H 0.87253 0.20714 0.67133
 Cu398 Cu 0.84036 0.15917 0.68691
 Cu399 Cu 0.84102 0.18795 0.65884
 Cu400 Cu 0.81148 0.15844 0.65881
 N401 N 0.82387 0.14269 0.68691
 N402 N 0.81259 0.14252 0.67583
 C403 C 0.80272 0.13001 0.67851
 C404 C 0.80815 0.12202 0.69194
 C405 C 0.82152 0.13030 0.69709
 H406 H 0.79238 0.12703 0.67128
 H407 H 0.82895 0.12740 0.70739
 N408 N 0.81255 0.17565 0.64264
 N409 N 0.82378 0.18688 0.64264
 C410 C 0.82123 0.19684 0.63013
 C411 C 0.80782 0.19156 0.62200
 C412 C 0.80257 0.17816 0.63015
 H413 H 0.82855 0.20715 0.62715
 H414 H 0.79227 0.17082 0.62718
 H415 H 0.82266 0.17661 0.67129
 H416 H 0.83560 0.16369 0.65841
 N417 N 0.31266 0.35719 0.67577
 N418 N 0.32394 0.35701 0.68684
 C419 C 0.32160 0.36946 0.69692
 C420 C 0.30821 0.37779 0.69179
 C421 C 0.30279 0.36976 0.67838
 H422 H 0.32908 0.37232 0.70715
 H423 H 0.29248 0.37284 0.67108
 Cu424 Cu 0.34046 0.34047 0.68685
 Cu425 Cu 0.31160 0.34117 0.65875
 Cu426 Cu 0.34114 0.31161 0.65876
 N427 N 0.35698 0.32394 0.68685
 N428 N 0.35715 0.31266 0.67578
 C429 C 0.36971 0.30278 0.67841
 C430 C 0.37774 0.30820 0.69182
 C431 C 0.36944 0.32159 0.69694
 H432 H 0.37278 0.29247 0.67112
 H433 H 0.37230 0.32906 0.70717
 N434 N 0.32387 0.31265 0.64259
 N435 N 0.31263 0.32390 0.64258
 C436 C 0.30267 0.32138 0.63008
 C437 C 0.30794 0.30796 0.62195
 C438 C 0.32135 0.30269 0.63009
 H439 H 0.29236 0.32874 0.62708
 H440 H 0.32870 0.29238 0.62712
 H441 H 0.32290 0.32293 0.67119
 H442 H 0.33584 0.33583 0.65827
 N443 N 0.31299 0.85743 0.17564
 N444 N 0.32405 0.85707 0.18693
 C445 C 0.32170 0.86955 0.19698
 C446 C 0.30851 0.87805 0.19163
 C447 C 0.30323 0.87012 0.17810
 H448 H 0.32900 0.87227 0.20737
 H449 H 0.29308 0.87333 0.17063
 Cu450 Cu 0.34043 0.84039 0.18738
 Cu451 Cu 0.31204 0.84145 0.15864
 Cu452 Cu 0.34152 0.81195 0.15871
 N453 N 0.35710 0.82399 0.18700
 N454 N 0.35746 0.81291 0.17573
 C455 C 0.37013 0.80314 0.17824
 C456 C 0.37804 0.80843 0.19178
 C457 C 0.36955 0.82164 0.19708
 H458 H 0.37334 0.79298 0.17080
 H459 H 0.37227 0.82895 0.20746
 N460 N 0.32433 0.81300 0.14249
 N461 N 0.31310 0.82424 0.14247
 C462 C 0.30313 0.82170 0.12997
 C463 C 0.30839 0.80826 0.12186
 C464 C 0.32181 0.80300 0.13002
 H465 H 0.29281 0.82903 0.12699
 H466 H 0.32914 0.79267 0.12708
 H467 H 0.32319 0.82313 0.17115
 H468 H 0.33640 0.83629 0.15866
 N469 N 0.81285 0.35767 0.17572
 N470 N 0.82431 0.35769 0.18661
 C471 C 0.82194 0.37012 0.19670
 C472 C 0.80832 0.37820 0.19180
 C473 C 0.80281 0.37006 0.17850
 H474 H 0.82951 0.37308 0.20684
 H475 H 0.79230 0.37293 0.17139
 Cu476 Cu 0.84117 0.34147 0.18656
 Cu477 Cu 0.81181 0.34163 0.15879
 Cu478 Cu 0.84129 0.31213 0.15879
 N479 N 0.85737 0.32460 0.18661
 N480 N 0.85734 0.31315 0.17572
 C481 C 0.86972 0.30309 0.17850
 C482 C 0.87787 0.30859 0.19180
 C483 C 0.86981 0.32221 0.19671
 H484 H 0.87257 0.29259 0.17139
 H485 H 0.87277 0.32976 0.20685
 N486 N 0.82404 0.31314 0.14265
 N487 N 0.81280 0.32438 0.14264
 C488 C 0.80283 0.32187 0.13014
 C489 C 0.80811 0.30845 0.12200
 C490 C 0.82152 0.30318 0.13015
 H491 H 0.79253 0.32922 0.12715
 H492 H 0.82888 0.29288 0.12717
 H493 H 0.82334 0.32367 0.17158
 H494 H 0.83608 0.33639 0.15818
 N495 N 0.81304 0.85765 0.67590
 N496 N 0.82449 0.85767 0.68679
 C497 C 0.82211 0.87011 0.69689
 C498 C 0.80849 0.87819 0.69198
 C499 C 0.80298 0.87004 0.67867
 H500 H 0.82967 0.87307 0.70703
 H501 H 0.79248 0.87290 0.67155
 Cu502 Cu 0.84136 0.84145 0.68674
 Cu503 Cu 0.81201 0.84160 0.65897
 Cu504 Cu 0.84149 0.81211 0.65897
 N505 N 0.85757 0.82459 0.68679
 N506 N 0.85754 0.81314 0.67590
 C507 C 0.86993 0.80308 0.67868
 C508 C 0.87807 0.80858 0.69199
 C509 C 0.87001 0.82220 0.69690
 H510 H 0.87278 0.79258 0.67157
 H511 H 0.87297 0.82975 0.70704
 N512 N 0.82425 0.81312 0.64282
 N513 N 0.81301 0.82436 0.64282
 C514 C 0.80304 0.82184 0.63032
 C515 C 0.80831 0.80843 0.62218
 C516 C 0.82173 0.80315 0.63033
 H517 H 0.79274 0.82919 0.62733
 H518 H 0.82908 0.79285 0.62735
 H519 H 0.82354 0.82364 0.67176
 H520 H 0.83629 0.83636 0.65836
 N521 N 0.68731 0.64266 0.67607
 N522 N 0.67585 0.64263 0.68697
 C523 C 0.67823 0.63019 0.69707
 C524 C 0.69186 0.62211 0.69216
 C525 C 0.69736 0.63026 0.67885
 H526 H 0.67067 0.62723 0.70721
 H527 H 0.70787 0.62741 0.67173
 Cu528 Cu 0.65898 0.65886 0.68692
 Cu529 Cu 0.68834 0.65872 0.65913
 Cu530 Cu 0.65884 0.68821 0.65915
 N531 N 0.64275 0.67573 0.68698
 N532 N 0.64278 0.68718 0.67609
 C533 C 0.63040 0.69724 0.67887
 C534 C 0.62224 0.69175 0.69218
 C535 C 0.63031 0.67812 0.69708
 H536 H 0.62755 0.70775 0.67176
 H537 H 0.62734 0.67056 0.70723
 N538 N 0.67610 0.68722 0.64298
 N539 N 0.68734 0.67598 0.64297
 C540 C 0.69730 0.67850 0.63046
 C541 C 0.69202 0.69192 0.62231
 C542 C 0.67861 0.69718 0.63048
 H543 H 0.70760 0.67115 0.62746
 H544 H 0.67125 0.70748 0.62750
 H545 H 0.67680 0.67667 0.67192
 H546 H 0.66406 0.66396 0.65853
 N547 N 0.68735 0.14231 0.17578
 N548 N 0.67604 0.14245 0.18685
 C549 C 0.67839 0.13000 0.19693
 C550 C 0.69183 0.12171 0.19183
 C551 C 0.69725 0.12976 0.17842
 H552 H 0.67094 0.12717 0.20719
 H553 H 0.70758 0.12672 0.17111
 Cu554 Cu 0.65953 0.15903 0.18697
 Cu555 Cu 0.68837 0.15837 0.15881
 Cu556 Cu 0.65883 0.18788 0.15884
 N557 N 0.64293 0.17553 0.18687
 N558 N 0.64278 0.18684 0.17581
 C559 C 0.63024 0.19674 0.17846
 C560 C 0.62220 0.19131 0.19187
 C561 C 0.63049 0.17789 0.19697
 H562 H 0.62719 0.20706 0.17116
 H563 H 0.62765 0.17043 0.20722
 N564 N 0.67609 0.18688 0.14267
 N565 N 0.68734 0.17565 0.14266
 C566 C 0.69731 0.17820 0.13015
 C567 C 0.69203 0.19162 0.12202
 C568 C 0.67861 0.19686 0.13018
 H569 H 0.70762 0.17086 0.12715
 H570 H 0.67125 0.20717 0.12721
 H571 H 0.67704 0.17656 0.17141
 H572 H 0.66407 0.16360 0.15846
 N573 N 0.18699 0.64255 0.17567
 N574 N 0.17569 0.64270 0.18673
 C575 C 0.17804 0.63023 0.19683
 C576 C 0.19147 0.62196 0.19171
 C577 C 0.19688 0.63001 0.17831
 H578 H 0.17065 0.62739 0.20714
 H579 H 0.20723 0.62700 0.17105
 Cu580 Cu 0.15937 0.65944 0.18677
 Cu581 Cu 0.18813 0.65861 0.15866
 Cu582 Cu 0.15860 0.68822 0.15869
 N583 N 0.14267 0.67581 0.18676
 N584 N 0.14254 0.68711 0.17571
 C585 C 0.13003 0.69703 0.17838
 C586 C 0.12197 0.69163 0.19179
 C587 C 0.13021 0.67818 0.19688
 H588 H 0.12705 0.70739 0.17114
 H589 H 0.12735 0.67080 0.20719
 N590 N 0.17590 0.68718 0.14253
 N591 N 0.18713 0.67592 0.14251
 C592 C 0.19711 0.67844 0.13002
 C593 C 0.19186 0.69187 0.12188
 C594 C 0.17845 0.69715 0.13004
 H595 H 0.20740 0.67107 0.12703
 H596 H 0.17111 0.70747 0.12706
 H597 H 0.17689 0.67693 0.17109
 H598 H 0.16393 0.66403 0.15825
 N599 N 0.18685 0.14226 0.67578
 N600 N 0.17559 0.14244 0.68688
 C601 C 0.17795 0.12999 0.69697
 C602 C 0.19139 0.12170 0.69185
 C603 C 0.19677 0.12973 0.67842
 H604 H 0.17053 0.12716 0.70725
 H605 H 0.20711 0.12670 0.67113
 Cu606 Cu 0.15902 0.15896 0.68681
 Cu607 Cu 0.18788 0.15827 0.65873
 Cu608 Cu 0.15832 0.18783 0.65875
 N609 N 0.14251 0.17553 0.68691
 N610 N 0.14233 0.18679 0.67582
 C611 C 0.12980 0.19671 0.67848
 C612 C 0.12178 0.19132 0.69192
 C613 C 0.13006 0.17789 0.69702
 H614 H 0.12677 0.20705 0.67122
 H615 H 0.12723 0.17047 0.70729
 N616 N 0.17557 0.18678 0.64254
 N617 N 0.18681 0.17553 0.64253
 C618 C 0.19679 0.17808 0.63003
 C619 C 0.19152 0.19150 0.62190
 C620 C 0.17810 0.19676 0.63006
 H621 H 0.20712 0.17074 0.62705
 H622 H 0.17077 0.20709 0.62710
 H623 H 0.17655 0.17650 0.67116
 H624 H 0.16363 0.16361 0.65823
 N625 N 0.31277 0.64245 0.32393
 N626 N 0.32404 0.64262 0.31284
 C627 C 0.32168 0.63021 0.30273
 C628 C 0.30824 0.62194 0.30781
 C629 C 0.30284 0.62995 0.32126
 H630 H 0.32910 0.62743 0.29243
 H631 H 0.29250 0.62691 0.32854
 Cu632 Cu 0.34060 0.65915 0.31287
 Cu633 Cu 0.31175 0.65846 0.34097
 Cu634 Cu 0.34129 0.68797 0.34098
 N635 N 0.35714 0.67569 0.31285
 N636 N 0.35731 0.68695 0.32395
 C637 C 0.36981 0.69687 0.32128
 C638 C 0.37784 0.69149 0.30784
 C639 C 0.36957 0.67806 0.30274
 H640 H 0.37284 0.70720 0.32857
 H641 H 0.37237 0.67066 0.29244
 N642 N 0.32404 0.68692 0.35718
 N643 N 0.31280 0.67569 0.35719
 C644 C 0.30282 0.67824 0.36969
 C645 C 0.30809 0.69165 0.37783
 C646 C 0.32151 0.69689 0.36968
 H647 H 0.29250 0.67093 0.37267
 H648 H 0.32884 0.70720 0.37265
 H649 H 0.32307 0.67668 0.32853
 H650 H 0.33601 0.66373 0.34144
 N651 N 0.31261 0.14225 0.82409
 N652 N 0.32389 0.14244 0.81301
 C653 C 0.32154 0.13002 0.80289
 C654 C 0.30810 0.12174 0.80795
 C655 C 0.30270 0.12974 0.82141
 H656 H 0.32897 0.12726 0.79259
 H657 H 0.29236 0.12668 0.82868
 Cu658 Cu 0.34043 0.15897 0.81300
 Cu659 Cu 0.31158 0.15825 0.84113
 Cu660 Cu 0.34110 0.18779 0.84113
 N661 N 0.35695 0.17552 0.81302
 N662 N 0.35711 0.18678 0.82410
 C663 C 0.36961 0.19671 0.82143
 C664 C 0.37763 0.19134 0.80798
 C665 C 0.36938 0.17789 0.80290
 H666 H 0.37264 0.20704 0.82871
 H667 H 0.37216 0.17049 0.79260
 N668 N 0.32385 0.18672 0.85734
 N669 N 0.31262 0.17549 0.85734
 C670 C 0.30265 0.17803 0.86985
 C671 C 0.30791 0.19143 0.87799
 C672 C 0.32132 0.19669 0.86983
 H673 H 0.29233 0.17071 0.87283
 H674 H 0.32864 0.20700 0.87280
 H675 H 0.32289 0.17648 0.82868
 H676 H 0.33585 0.16354 0.84159
 N677 N 0.81304 0.64262 0.82445
 N678 N 0.82433 0.64277 0.81337
 C679 C 0.82196 0.63033 0.80327
 C680 C 0.80856 0.62203 0.80841
 C681 C 0.80316 0.63008 0.82183
 H682 H 0.82941 0.62748 0.79300
 H683 H 0.79285 0.62704 0.82915
 Cu684 Cu 0.84083 0.65936 0.81323
 Cu685 Cu 0.81201 0.65867 0.84143
 Cu686 Cu 0.84150 0.68819 0.84140
 N687 N 0.85740 0.67587 0.81334
 N688 N 0.85753 0.68716 0.82440
 C689 C 0.87006 0.69706 0.82176
 C690 C 0.87812 0.69166 0.80834
 C691 C 0.86984 0.67825 0.80322
 H692 H 0.87309 0.70737 0.82906
 H693 H 0.87270 0.67081 0.79296
 N694 N 0.82425 0.68716 0.85759
 N695 N 0.81302 0.67593 0.85760
 C696 C 0.80306 0.67845 0.87012
 C697 C 0.80832 0.69186 0.87826
 C698 C 0.82172 0.69713 0.87009
 H699 H 0.79277 0.67111 0.87312
 H700 H 0.82906 0.70743 0.87307
 H701 H 0.82330 0.67688 0.82887
 H702 H 0.83630 0.66392 0.84179
 N703 N 0.81287 0.14240 0.32411
 N704 N 0.82415 0.14257 0.31302
 C705 C 0.82181 0.13011 0.30294
 C706 C 0.80842 0.12179 0.30808
 C707 C 0.80300 0.12984 0.32150
 H708 H 0.82928 0.12728 0.29268
 H709 H 0.79268 0.12680 0.32882
 Cu710 Cu 0.84064 0.15917 0.31289
 Cu711 Cu 0.81183 0.15845 0.34108
 Cu712 Cu 0.84128 0.18799 0.34104
 N713 N 0.85719 0.17571 0.31298
 N714 N 0.85732 0.18699 0.32405
 C715 C 0.86985 0.19690 0.32142
 C716 C 0.87791 0.19150 0.30800
 C717 C 0.86964 0.17808 0.30288
 H718 H 0.87285 0.20723 0.32872
 H719 H 0.87249 0.17062 0.29263
 N720 N 0.82403 0.18696 0.35722
 N721 N 0.81281 0.17571 0.35724
 C722 C 0.80285 0.17823 0.36975
 C723 C 0.80809 0.19165 0.37789
 C724 C 0.82149 0.19692 0.36972
 H725 H 0.79257 0.17088 0.37276
 H726 H 0.82882 0.20723 0.37270
 H727 H 0.82309 0.17667 0.32847
 H728 H 0.83612 0.16370 0.34142
 N729 N 0.68709 0.35755 0.32408
 N730 N 0.67565 0.35758 0.31317
 C731 C 0.67804 0.37003 0.30308
 C732 C 0.69165 0.37810 0.30801
 C733 C 0.69713 0.36994 0.32133
 H734 H 0.67050 0.37299 0.29292
 H735 H 0.70762 0.37279 0.32846
 Cu736 Cu 0.65881 0.34134 0.31320
 Cu737 Cu 0.68813 0.34148 0.34102
 Cu738 Cu 0.65869 0.31200 0.34098
 N739 N 0.64259 0.32447 0.31313
 N740 N 0.64264 0.31302 0.32403
 C741 C 0.63027 0.30295 0.32125
 C742 C 0.62210 0.30843 0.30793
 C743 C 0.63015 0.32206 0.30303
 H744 H 0.62744 0.29245 0.32837
 H745 H 0.62719 0.32961 0.29287
 N746 N 0.67592 0.31299 0.35716
 N747 N 0.68714 0.32423 0.35718
 C748 C 0.69709 0.32171 0.36970
 C749 C 0.69183 0.30829 0.37784
 C750 C 0.67844 0.30303 0.36967
 H751 H 0.70737 0.32906 0.37271
 H752 H 0.67109 0.29273 0.37265
 H753 H 0.67665 0.32353 0.32823
 H754 H 0.66387 0.33625 0.34160
 N755 N 0.68729 0.85763 0.82434
 N756 N 0.67602 0.85745 0.81326
 C757 C 0.67836 0.86989 0.80316
 C758 C 0.69175 0.87821 0.80827
 C759 C 0.69717 0.87018 0.82170
 H760 H 0.67087 0.87271 0.79293
 H761 H 0.70751 0.87322 0.82897
 Cu762 Cu 0.65947 0.84092 0.81326
 Cu763 Cu 0.68833 0.84161 0.84136
 Cu764 Cu 0.65879 0.81209 0.84138
 N765 N 0.64293 0.82439 0.81329
 N766 N 0.64275 0.81312 0.82437
 C767 C 0.63020 0.80324 0.82175
 C768 C 0.62216 0.80865 0.80832
 C769 C 0.63048 0.82204 0.80319
 H770 H 0.62716 0.79291 0.82903
 H771 H 0.62765 0.82951 0.79295
 N772 N 0.67606 0.81312 0.85757
 N773 N 0.68730 0.82435 0.85756
 C774 C 0.69726 0.82182 0.87007
 C775 C 0.69200 0.80842 0.87823
 C776 C 0.67859 0.80316 0.87008
 H777 H 0.70756 0.82915 0.87306
 H778 H 0.67124 0.79287 0.87308
 H779 H 0.67706 0.82335 0.82889
 H780 H 0.66410 0.83631 0.84180
 N781 N 0.18690 0.35724 0.82422
 N782 N 0.17545 0.35728 0.81331
 C783 C 0.17784 0.36972 0.80321
 C784 C 0.19146 0.37778 0.80812
 C785 C 0.19695 0.36962 0.82144
 H786 H 0.17029 0.37268 0.79306
 H787 H 0.20745 0.37245 0.82856
 Cu788 Cu 0.15858 0.34106 0.81337
 Cu789 Cu 0.18792 0.34119 0.84116
 Cu790 Cu 0.15844 0.31174 0.84116
 N791 N 0.14234 0.32422 0.81332
 N792 N 0.14238 0.31277 0.82423
 C793 C 0.13000 0.30272 0.82146
 C794 C 0.12184 0.30821 0.80814
 C795 C 0.12990 0.32183 0.80322
 H796 H 0.12716 0.29223 0.82858
 H797 H 0.12694 0.32938 0.79307
 N798 N 0.17569 0.31272 0.85733
 N799 N 0.18693 0.32394 0.85732
 C800 C 0.19688 0.32142 0.86984
 C801 C 0.19161 0.30803 0.87800
 C802 C 0.17821 0.30277 0.86984
 H803 H 0.20718 0.32877 0.87283
 H804 H 0.17086 0.29248 0.87284
 H805 H 0.17641 0.32324 0.82839
 H806 H 0.16365 0.33598 0.84176
 N807 N 0.18728 0.85755 0.32389
 N808 N 0.17600 0.85738 0.31283
 C809 C 0.17833 0.86982 0.30270
 C810 C 0.19175 0.87811 0.30780
 C811 C 0.19716 0.87009 0.32123
 H812 H 0.17088 0.87265 0.29244
 H813 H 0.20748 0.87314 0.32853
 Cu814 Cu 0.15946 0.84085 0.31286
 Cu815 Cu 0.18833 0.84155 0.34095
 Cu816 Cu 0.15876 0.81203 0.34098
 N817 N 0.14291 0.82434 0.31286
 N818 N 0.14273 0.81307 0.32395
 C819 C 0.13019 0.80320 0.32131
 C820 C 0.12215 0.80860 0.30788
 C821 C 0.13045 0.82200 0.30276
 H822 H 0.12714 0.79289 0.32862
 H823 H 0.12761 0.82944 0.29249
 N824 N 0.17604 0.81307 0.35716
 N825 N 0.18728 0.82430 0.35715
 C826 C 0.19725 0.82176 0.36966
 C827 C 0.19198 0.80837 0.37782
 C828 C 0.17857 0.80311 0.36967
 H829 H 0.20756 0.82909 0.37264
 H830 H 0.17123 0.79282 0.37267
 H831 H 0.17703 0.82330 0.32856
 H832 H 0.16407 0.83627 0.34148
 C833 C 0.25614 1.01473 0.24373
 C834 C 0.24411 1.01476 0.25564
 C835 C 0.23818 1.00015 0.26150
 C836 C 0.24412 0.98551 0.25563
 C837 C 0.25615 0.98550 0.24372
 C838 C 0.26207 1.00012 0.23787
 H839 H 0.27135 1.00013 0.22869
 H840 H 0.22891 1.00016 0.27067
 C841 C 0.25600 0.51451 0.74400
 C842 C 0.24397 0.51453 0.75592
 C843 C 0.23802 0.49990 0.76178
 C844 C 0.24392 0.48525 0.75592
 C845 C 0.25595 0.48524 0.74401
 C846 C 0.26189 0.49986 0.73814
 H847 H 0.27116 0.49984 0.72896
 H848 H 0.22875 0.49992 0.77096
 C849 C 0.75619 -0.01502 0.25614
 C850 C 0.74418 -0.01500 0.24422
 C851 C 0.73825 -0.00038 0.23833
 C852 C 0.74415 0.01424 0.24417
 C853 C 0.75618 0.01424 0.25609
 C854 C 0.76210 -0.00039 0.26198
 H855 H 0.77136 -0.00039 0.27116
 H856 H 0.72898 -0.00040 0.22915
 C857 C 0.75616 0.48520 0.75624
 C858 C 0.74414 0.48522 0.74432
 C859 C 0.73823 0.49987 0.73847
 C860 C 0.74416 0.51451 0.74433
 C861 C 0.75619 0.51449 0.75625
 C862 C 0.76210 0.49983 0.76211
 H863 H 0.77136 0.49981 0.77128
 H864 H 0.72897 0.49990 0.72929
 C865 C 0.25586 0.48519 0.25574
 C866 C 0.24384 0.48523 0.24383
 C867 C 0.23792 0.49985 0.23796
 C868 C 0.24384 0.51447 0.24382
 C869 C 0.25587 0.51445 0.25573
 C870 C 0.26179 0.49981 0.26160
 H871 H 0.27105 0.49979 0.27078
 H872 H 0.22865 0.49986 0.22879
 C873 C 0.75596 1.01494 0.74415
 C874 C 0.74394 1.01499 0.75607
 C875 C 0.73805 1.00034 0.76193
 C876 C 0.74399 0.98569 0.75606
 C877 C 0.75601 0.98568 0.74413
 C878 C 0.76190 1.00031 0.73827
 H879 H 0.77117 1.00032 0.72908
 H880 H 0.72879 1.00033 0.77111
 C881 C 0.75604 0.51485 0.24409
 C882 C 0.74402 0.51488 0.25600
 C883 C 0.73809 0.50026 0.26186
 C884 C 0.74400 0.48562 0.25597
 C885 C 0.75603 0.48562 0.24405
 C886 C 0.76195 0.50023 0.23820
 H887 H 0.77122 0.50024 0.22902
 H888 H 0.72882 0.50027 0.27104
 C889 C 0.25617 -0.01516 0.75582
 C890 C 0.24412 -0.01512 0.74393
 C891 C 0.23814 -0.00050 0.73806
 C892 C 0.24401 0.01414 0.74390
 C893 C 0.25606 0.01414 0.75581
 C894 C 0.26204 -0.00050 0.76167
 H895 H 0.27131 -0.00049 0.77083
 H896 H 0.22886 -0.00051 0.72890
 C897 C 0.24391 0.25586 1.01467
 C898 C 0.25585 0.24383 1.01467
 C899 C 0.26172 0.23790 1.00005
 C900 C 0.25583 0.24381 0.98543
 C901 C 0.24388 0.25583 0.98543
 C902 C 0.23802 0.26176 1.00005
 H903 H 0.22881 0.27103 1.00005
 H904 H 0.27093 0.22864 1.00005
 C905 C 0.24413 0.75611 0.51451
 C906 C 0.25609 0.74410 0.51451
 C907 C 0.26196 0.73818 0.49989
 C908 C 0.25607 0.74408 0.48528
 C909 C 0.24411 0.75610 0.48528
 C910 C 0.23823 0.76202 0.49990
 H911 H 0.22902 0.77128 0.49990
 H912 H 0.27117 0.72892 0.49990
 C913 C 0.25632 0.75594 -0.01475
 C914 C 0.24433 0.74399 -0.01474
 C915 C 0.23841 0.73812 -0.00012
 C916 C 0.24429 0.74401 0.01450
 C917 C 0.25628 0.75596 0.01450
 C918 C 0.26220 0.76183 -0.00013
 H919 H 0.27144 0.77104 -0.00013
 H920 H 0.22917 0.72891 -0.00012
 C921 C 0.25581 0.25579 0.48532
 C922 C 0.24383 0.24382 0.48531
 C923 C 0.23793 0.23792 0.49993
 C924 C 0.24381 0.24380 0.51455
 C925 C 0.25578 0.25577 0.51456
 C926 C 0.26169 0.26167 0.49994
 H927 H 0.27091 0.27090 0.49995
 H928 H 0.22870 0.22870 0.49992
 C929 C 0.74412 0.75610 1.01493
 C930 C 0.75607 0.74408 1.01493
 C931 C 0.76196 0.73817 1.00031
 C932 C 0.75609 0.74410 0.98569
 C933 C 0.74413 0.75612 0.98569
 C934 C 0.73825 0.76203 1.00031
 H935 H 0.72904 0.77129 1.00032
 H936 H 0.77117 0.72891 1.00031
 C937 C 0.74385 0.25587 0.51455
 C938 C 0.75581 0.24385 0.51455
 C939 C 0.76171 0.23795 0.49993
 C940 C 0.75584 0.24388 0.48531
 C941 C 0.74388 0.25590 0.48531
 C942 C 0.73798 0.26179 0.49993
 H943 H 0.72877 0.27105 0.49993
 H944 H 0.77092 0.22870 0.49993
 C945 C 0.75592 0.25626 -0.01463
 C946 C 0.74398 0.24425 -0.01463
 C947 C 0.73812 0.23832 -0.00000
 C948 C 0.74400 0.24421 0.01462
 C949 C 0.75595 0.25621 0.01462
 C950 C 0.76181 0.26214 -0.00000
 H951 H 0.77101 0.27139 -0.00000
 H952 H 0.72892 0.22908 -0.00000
 C953 C 0.75606 0.75628 0.48557
 C954 C 0.74410 0.74429 0.48558
 C955 C 0.73822 0.73838 0.50020
 C956 C 0.74411 0.74426 0.51482
 C957 C 0.75607 0.75625 0.51482
 C958 C 0.76195 0.76216 0.50019
 H959 H 0.77116 0.77140 0.50019
 H960 H 0.72901 0.72914 0.50020
 C961 C 1.01460 0.24417 0.25581
 C962 C 1.01459 0.25623 0.24393
 C963 C 0.99994 0.26214 0.23809
 C964 C 0.98531 0.25619 0.24393
 C965 C 0.98532 0.24413 0.25582
 C966 C 0.99998 0.23822 0.26166
 H967 H 1.00000 0.22893 0.27081
 H968 H 0.99992 0.27144 0.22893
 C969 C 0.51446 0.24389 0.75597
 C970 C 0.51445 0.25591 0.74406
 C971 C 0.49980 0.26181 0.73820
 C972 C 0.48517 0.25586 0.74405
 C973 C 0.48518 0.24383 0.75596
 C974 C 0.49983 0.23794 0.76182
 H975 H 0.49984 0.22867 0.77100
 H976 H 0.49978 0.27108 0.72902
 C977 C -0.01499 0.25591 0.75594
 C978 C -0.01499 0.24385 0.74407
 C979 C -0.00034 0.23791 0.73822
 C980 C 0.01430 0.24383 0.74407
 C981 C 0.01430 0.25588 0.75595
 C982 C -0.00035 0.26183 0.76179
 H983 H -0.00035 0.27111 0.77094
 H984 H -0.00034 0.22862 0.72907
 C985 C 0.48536 0.25573 0.25587
 C986 C 0.48538 0.24369 0.24399
 C987 C 0.50004 0.23778 0.23814
 C988 C 0.51467 0.24372 0.24399
 C989 C 0.51465 0.25577 0.25588
 C990 C 0.49999 0.26168 0.26172
 H991 H 0.49996 0.27096 0.27088
 H992 H 0.50005 0.22849 0.22898
 C993 C 1.01482 0.74414 0.75599
 C994 C 1.01480 0.75618 0.74410
 C995 C 1.00016 0.76210 0.73825
 C996 C 0.98553 0.75617 0.74412
 C997 C 0.98553 0.74413 0.75602
 C998 C 1.00019 0.73821 0.76186
 H999 H 1.00021 0.72893 0.77102
 H1000 H 1.00014 0.77138 0.72909
 C1001 C 0.51471 0.74412 0.25603
 C1002 C 0.51471 0.75616 0.24414
 C1003 C 0.50007 0.76206 0.23826
 C1004 C 0.48544 0.75611 0.24409
 C1005 C 0.48543 0.74406 0.25598
 C1006 C 0.50008 0.73816 0.26186
 H1007 H 0.50009 0.72888 0.27102
 H1008 H 0.50006 0.77135 0.22910
 C1009 C -0.01474 0.75612 0.25600
 C1010 C -0.01474 0.74406 0.24413
 C1011 C -0.00009 0.73814 0.23827
 C1012 C 0.01455 0.74408 0.24408
 C1013 C 0.01456 0.75614 0.25596
 C1014 C -0.00009 0.76206 0.26183
 H1015 H -0.00010 0.77135 0.27097
 H1016 H -0.00009 0.72885 0.22912
 C1017 C 0.48535 0.75618 0.75618
 C1018 C 0.48537 0.74415 0.74427
 C1019 C 0.50003 0.73824 0.73843
 C1020 C 0.51466 0.74416 0.74429
 C1021 C 0.51465 0.75620 0.75619
 C1022 C 0.49998 0.76211 0.76204
 H1023 H 0.49996 0.77138 0.77120
 H1024 H 0.50005 0.72897 0.72926
 C1025 C 0.43909 0.27319 0.29267
 C1026 C 0.43540 0.29144 0.29330
 C1027 C 0.41814 0.28796 0.28774
 C1028 C 0.42159 0.26982 0.28722
 C1029 C 0.44403 0.27501 0.27498
 C1030 C 0.42676 0.27152 0.26942
 C1031 C 0.44058 0.29316 0.27551
 C1032 C 0.42308 0.28978 0.27006
 C1033 C 0.40372 0.29519 0.29482
 C1034 C 0.39188 0.30112 0.30072
 C1035 C 0.45852 0.26789 0.26793
 C1036 C 0.47061 0.26221 0.26230
 H1037 H 0.44583 0.26631 0.30190
 H1038 H 0.43876 0.29971 0.30321
 H1039 H 0.41362 0.26033 0.29216
 H1040 H 0.42337 0.26326 0.25953
 H1041 H 0.44853 0.30270 0.27063
 H1042 H 0.41631 0.29671 0.26089
 C1043 C 0.43984 0.77499 0.79325
 C1044 C 0.43538 0.79306 0.79250
 C1045 C 0.41807 0.78841 0.78804
 C1046 C 0.42231 0.77044 0.78889
 C1047 C 0.44398 0.77547 0.77527
 C1048 C 0.42667 0.77082 0.77080
 C1049 C 0.43974 0.79344 0.77442
 C1050 C 0.42220 0.78890 0.77006
 C1051 C 0.40367 0.79565 0.79519
 C1052 C 0.39183 0.80158 0.80111
 C1053 C 0.45848 0.76835 0.76823
 C1054 C 0.47058 0.76267 0.76261
 H1055 H 0.44725 0.76921 0.80273
 H1056 H 0.43876 0.80228 0.80152
 H1057 H 0.41497 0.76109 0.79494
 H1058 H 0.42327 0.76159 0.76179
 H1059 H 0.44707 0.80284 0.76842
 H1060 H 0.41479 0.79472 0.76062
 C1061 C -0.07362 0.27110 0.77024
 C1062 C -0.07819 0.27041 0.78827
 C1063 C -0.08212 0.28846 0.78775
 C1064 C -0.07778 0.28926 0.76984
 C1065 C -0.05629 0.27537 0.77500
 C1066 C -0.06022 0.29342 0.77449
 C1067 C -0.06063 0.27457 0.79292
 C1068 C -0.06480 0.29272 0.79251
 C1069 C -0.09650 0.29575 0.79489
 C1070 C -0.10832 0.30170 0.80082
 C1071 C -0.04182 0.26817 0.76797
 C1072 C -0.02974 0.26244 0.76236
 H1073 H -0.07707 0.26212 0.76100
 H1074 H -0.08575 0.26106 0.79404
 H1075 H -0.08500 0.29541 0.76045
 H1076 H -0.05268 0.30283 0.76877
 H1077 H -0.05344 0.26847 0.80236
 H1078 H -0.06138 0.30170 0.80176
 C1079 C -0.07338 0.77119 0.27036
 C1080 C -0.07793 0.77050 0.28839
 C1081 C -0.08191 0.78854 0.28787
 C1082 C -0.07758 0.78935 0.26995
 C1083 C -0.05605 0.77551 0.27510
 C1084 C -0.06003 0.79355 0.27459
 C1085 C -0.06038 0.77471 0.29302
 C1086 C -0.06459 0.79285 0.29261
 C1087 C -0.09629 0.79579 0.29503
 C1088 C -0.10812 0.80171 0.30097
 C1089 C -0.04157 0.76834 0.26806
 C1090 C -0.02949 0.76264 0.26244
 H1091 H -0.07681 0.76220 0.26113
 H1092 H -0.08546 0.76113 0.29417
 H1093 H -0.08483 0.79547 0.26057
 H1094 H -0.05252 0.80297 0.26886
 H1095 H -0.05316 0.76862 0.30246
 H1096 H -0.06118 0.80184 0.30186
 C1097 C 0.57334 0.72921 0.27040
 C1098 C 0.57789 0.72998 0.28842
 C1099 C 0.58190 0.71195 0.28797
 C1100 C 0.57757 0.71106 0.27006
 C1101 C 0.55603 0.72488 0.27517
 C1102 C 0.56003 0.70685 0.27473
 C1103 C 0.56035 0.72576 0.29309
 C1104 C 0.56458 0.70762 0.29275
 C1105 C 0.59630 0.70475 0.29512
 C1106 C 0.60815 0.69888 0.30104
 C1107 C 0.54154 0.73199 0.26811
 C1108 C 0.52946 0.73765 0.26248
 H1109 H 0.57676 0.73817 0.26113
 H1110 H 0.58541 0.73938 0.29416
 H1111 H 0.58483 0.70491 0.26071
 H1112 H 0.55253 0.69740 0.26904
 H1113 H 0.55311 0.73187 0.30249
 H1114 H 0.56119 0.69866 0.30203
 C1115 C 0.56000 0.22534 0.79306
 C1116 C 0.56438 0.20724 0.79252
 C1117 C 0.58169 0.21175 0.78791
 C1118 C 0.57754 0.22975 0.78856
 C1119 C 0.55579 0.22466 0.77511
 C1120 C 0.57310 0.22917 0.77049
 C1121 C 0.55994 0.20666 0.77447
 C1122 C 0.57747 0.21106 0.76996
 C1123 C 0.59608 0.20452 0.79506
 C1124 C 0.60792 0.19859 0.80097
 C1125 C 0.54130 0.23175 0.76805
 C1126 C 0.52921 0.23741 0.76242
 H1127 H 0.55267 0.23127 0.80250
 H1128 H 0.56100 0.19814 0.80166
 H1129 H 0.58496 0.23913 0.79446
 H1130 H 0.57650 0.23827 0.76135
 H1131 H 0.55254 0.19723 0.76861
 H1132 H 0.58482 0.20509 0.76056
 C1133 C 1.06027 0.72532 0.79304
 C1134 C 1.06466 0.70723 0.79234
 C1135 C 1.08198 0.71181 0.78784
 C1136 C 1.07781 0.72979 0.78864
 C1137 C 1.05613 0.72481 0.77506
 C1138 C 1.07345 0.72938 0.77056
 C1139 C 1.06029 0.70682 0.77427
 C1140 C 1.07784 0.71128 0.76987
 C1141 C 1.09637 0.70461 0.79499
 C1142 C 1.10820 0.69871 0.80094
 C1143 C 1.04165 0.73195 0.76803
 C1144 C 1.02957 0.73764 0.76241
 H1145 H 1.05289 0.73116 0.80251
 H1146 H 1.06126 0.69804 0.80139
 H1147 H 1.08519 0.73913 0.79466
 H1148 H 1.07688 0.73858 0.76152
 H1149 H 1.05292 0.69744 0.76830
 H1150 H 1.08524 0.70541 0.76045
 C1151 C 1.06004 0.22533 0.29285
 C1152 C 1.06445 0.20724 0.29212
 C1153 C 1.08177 0.21184 0.28762
 C1154 C 1.07759 0.22982 0.28846
 C1155 C 1.05591 0.22484 0.27487
 C1156 C 1.07322 0.22944 0.27038
 C1157 C 1.06008 0.20686 0.27404
 C1158 C 1.07763 0.21135 0.26966
 C1159 C 1.09619 0.20463 0.29472
 C1160 C 1.10803 0.19873 0.30063
 C1161 C 1.04144 0.23199 0.26783
 C1162 C 1.02935 0.23768 0.26222
 H1163 H 1.05265 0.23114 0.30232
 H1164 H 1.06104 0.19803 0.30115
 H1165 H 1.08496 0.23914 0.29451
 H1166 H 1.07666 0.23865 0.26136
 H1167 H 1.05273 0.19748 0.26804
 H1168 H 1.08505 0.20549 0.26024
 C1169 C 0.57309 0.27060 0.72942
 C1170 C 0.57744 0.27024 0.71132
 C1171 C 0.58165 0.28820 0.71219
 C1172 C 0.57752 0.28867 0.73016
 C1173 C 0.55577 0.27525 0.72496
 C1174 C 0.55997 0.29322 0.72581
 C1175 C 0.55990 0.27479 0.70698
 C1176 C 0.56433 0.29286 0.70773
 C1177 C 0.59608 0.29538 0.70506
 C1178 C 0.60794 0.30127 0.69916
 C1179 C 0.54128 0.26812 0.73200
 C1180 C 0.52920 0.26243 0.73763
 H1181 H 0.57653 0.26136 0.73841
 H1182 H 0.58480 0.26090 0.70526
 H1183 H 0.58494 0.29448 0.73960
 H1184 H 0.55263 0.30261 0.73184
 H1185 H 0.55251 0.26902 0.69749
 H1186 H 0.56092 0.30210 0.69872
 C1187 C 0.57336 0.77072 0.22942
 C1188 C 0.57761 0.77061 0.21131
 C1189 C 0.58191 0.78854 0.21242
 C1190 C 0.57788 0.78876 0.23042
 C1191 C 0.55604 0.77554 0.22513
 C1192 C 0.56034 0.79347 0.22623
 C1193 C 0.56007 0.77532 0.20712
 C1194 C 0.56459 0.79335 0.20812
 C1195 C 0.59629 0.79581 0.20532
 C1196 C 0.60812 0.80174 0.19943
 C1197 C 0.54155 0.76839 0.23214
 C1198 C 0.52946 0.76269 0.23773
 H1199 H 0.57680 0.76133 0.23826
 H1200 H 0.58489 0.76133 0.20506
 H1201 H 0.58540 0.79439 0.23988
 H1202 H 0.55310 0.80282 0.23242
 H1203 H 0.55260 0.76973 0.19759
 H1204 H 0.56121 0.80274 0.19926
 C1205 C 1.07322 0.27106 0.22943
 C1206 C 1.07764 0.27065 0.21136
 C1207 C 1.08177 0.28863 0.21217
 C1208 C 1.07758 0.28916 0.23012
 C1209 C 1.05590 0.27563 0.22489
 C1210 C 1.06003 0.29362 0.22569
 C1211 C 1.06010 0.27511 0.20692
 C1212 C 1.06445 0.29320 0.20762
 C1213 C 1.09620 0.29584 0.20507
 C1214 C 1.10804 0.30172 0.19915
 C1215 C 1.04142 0.26847 0.23191
 C1216 C 1.02933 0.26276 0.23751
 H1217 H 1.07668 0.26188 0.23847
 H1218 H 1.08507 0.26132 0.20535
 H1219 H 1.08495 0.29504 0.23955
 H1220 H 1.05264 0.30302 0.23164
 H1221 H 1.05277 0.26927 0.19744
 H1222 H 1.06105 0.30239 0.19856
 C1223 C 1.06025 0.79349 0.72575
 C1224 C 1.07780 0.78902 0.73016
 C1225 C 1.08196 0.78848 0.71220
 C1226 C 1.06464 0.79305 0.70768
 C1227 C 1.05611 0.77550 0.72498
 C1228 C 1.06028 0.77496 0.70701
 C1229 C 1.07344 0.77092 0.72950
 C1230 C 1.07783 0.77049 0.71142
 C1231 C 1.09633 0.79573 0.70506
 C1232 C 1.10815 0.80164 0.69914
 C1233 C 1.04163 0.76837 0.73203
 C1234 C 1.02955 0.76269 0.73766
 H1235 H 1.05288 0.80291 0.73170
 H1236 H 1.08520 0.79491 0.73956
 H1237 H 1.06124 0.80223 0.69861
 H1238 H 1.05292 0.76912 0.69754
 H1239 H 1.07689 0.76175 0.73855
 H1240 H 1.08523 0.76115 0.70541
 C1241 C 0.44001 0.70678 0.72577
 C1242 C 0.42244 0.71116 0.73024
 C1243 C 0.41824 0.71181 0.71229
 C1244 C 0.43558 0.70732 0.70771
 C1245 C 0.44408 0.72479 0.72510
 C1246 C 0.43988 0.72543 0.70714
 C1247 C 0.42674 0.72928 0.72968
 C1248 C 0.42232 0.72981 0.71161
 C1249 C 0.40382 0.70458 0.70516
 C1250 C 0.39198 0.69868 0.69923
 C1251 C 0.45855 0.73194 0.73218
 C1252 C 0.47062 0.73764 0.73782
 H1253 H 0.44742 0.69737 0.73166
 H1254 H 0.41509 0.70519 0.73963
 H1255 H 0.43903 0.69822 0.69858
 H1256 H 0.44721 0.73137 0.69770
 H1257 H 0.42327 0.73838 0.73879
 H1258 H 0.41489 0.73918 0.70567
 C1259 C 0.42676 0.22976 0.22850
 C1260 C 0.42298 0.22909 0.21029
 C1261 C 0.41821 0.21135 0.21215
 C1262 C 0.42176 0.21190 0.23024
 C1263 C 0.44407 0.22433 0.22491
 C1264 C 0.43929 0.20658 0.22675
 C1265 C 0.44051 0.22378 0.20680
 C1266 C 0.43550 0.20593 0.20855
 C1267 C 0.40383 0.20409 0.20502
 C1268 C 0.39201 0.19817 0.19911
 C1269 C 0.45855 0.23147 0.23194
 C1270 C 0.47063 0.23717 0.23756
 H1271 H 0.42333 0.23964 0.23679
 H1272 H 0.41610 0.23824 0.20342
 H1273 H 0.41386 0.20692 0.23977
 H1274 H 0.44613 0.19737 0.23357
 H1275 H 0.44836 0.22871 0.19721
 H1276 H 0.43888 0.19604 0.20024
 C1277 C -0.07337 0.72948 0.22937
 C1278 C -0.07758 0.72950 0.21124
 C1279 C -0.08189 0.71158 0.21244
 C1280 C -0.07791 0.71144 0.23044
 C1281 C -0.05604 0.72464 0.22514
 C1282 C -0.06036 0.70671 0.22631
 C1283 C -0.06003 0.72477 0.20712
 C1284 C -0.06456 0.70675 0.20820
 C1285 C -0.09626 0.70428 0.20534
 C1286 C -0.10808 0.69834 0.19944
 C1287 C -0.04157 0.73181 0.23215
 C1288 C -0.02949 0.73753 0.23774
 H1289 H -0.07684 0.73890 0.23815
 H1290 H -0.08484 0.73877 0.20493
 H1291 H -0.08545 0.70585 0.23992
 H1292 H -0.05314 0.69738 0.23256
 H1293 H -0.05253 0.73031 0.19757
 H1294 H -0.06116 0.69732 0.19939
 C1295 C -0.07362 0.22936 0.72920
 C1296 C -0.07778 0.22939 0.71106
 C1297 C -0.08215 0.21149 0.71227
 C1298 C -0.07821 0.21134 0.73028
 C1299 C -0.05629 0.22447 0.72501
 C1300 C -0.06066 0.20655 0.72619
 C1301 C -0.06024 0.22459 0.70698
 C1302 C -0.06483 0.20658 0.70806
 C1303 C -0.09654 0.20429 0.70512
 C1304 C -0.10835 0.19836 0.69919
 C1305 C -0.04182 0.23163 0.73204
 C1306 C -0.02974 0.23734 0.73765
 H1307 H -0.07709 0.23880 0.73796
 H1308 H -0.08501 0.23864 0.70472
 H1309 H -0.08578 0.20577 0.73975
 H1310 H -0.05346 0.19722 0.73247
 H1311 H -0.05271 0.23011 0.69744
 H1312 H -0.06141 0.19714 0.69928
 C1313 C 0.27485 0.42705 0.26703
 C1314 C 0.29289 0.42505 0.27129
 C1315 C 0.28803 0.41792 0.28760
 C1316 C 0.27010 0.41970 0.28347
 C1317 C 0.27507 0.44380 0.27482
 C1318 C 0.27021 0.43667 0.29114
 C1319 C 0.29300 0.44201 0.27896
 C1320 C 0.28825 0.43466 0.29538
 C1321 C 0.29527 0.40352 0.29471
 C1322 C 0.30121 0.39169 0.30062
 C1323 C 0.26797 0.45831 0.26778
 C1324 C 0.26233 0.47042 0.26218
 H1325 H 0.26925 0.42407 0.25531
 H1326 H 0.30232 0.42008 0.26326
 H1327 H 0.26080 0.41035 0.28544
 H1328 H 0.26082 0.44161 0.29924
 H1329 H 0.30236 0.45133 0.27705
 H1330 H 0.29385 0.43761 0.30712
 C1331 C 0.27146 -0.07399 0.76996
 C1332 C 0.28966 -0.07809 0.76974
 C1333 C 0.28869 -0.08256 0.78763
 C1334 C 0.27060 -0.07868 0.78796
 C1335 C 0.27560 -0.05667 0.77485
 C1336 C 0.27463 -0.06113 0.79273
 C1337 C 0.29369 -0.06055 0.77453
 C1338 C 0.29282 -0.06523 0.79251
 C1339 C 0.29600 -0.09697 0.79485
 C1340 C 0.30196 -0.10880 0.80082
 C1341 C 0.26842 -0.04211 0.76783
 C1342 C 0.26272 -0.02997 0.76224
 H1343 H 0.26259 -0.07743 0.76060
 H1344 H 0.29593 -0.08519 0.76034
 H1345 H 0.26117 -0.08627 0.79357
 H1346 H 0.26839 -0.05402 0.80214
 H1347 H 0.30312 -0.05294 0.76894
 H1348 H 0.30168 -0.06176 0.80186
 C1349 C 0.77251 0.42665 0.76938
 C1350 C 0.79082 0.42329 0.77065
 C1351 C 0.78841 0.41799 0.78816
 C1352 C 0.77023 0.42112 0.78700
 C1353 C 0.77546 0.44386 0.77537
 C1354 C 0.77306 0.43856 0.79288
 C1355 C 0.79365 0.44073 0.77653
 C1356 C 0.79135 0.43520 0.79415
 C1357 C 0.79563 0.40359 0.79533
 C1358 C 0.80151 0.39175 0.80127
 C1359 C 0.76833 0.45836 0.76832
 C1360 C 0.76265 0.47045 0.76269
 H1361 H 0.76468 0.42330 0.75911
 H1362 H 0.79821 0.41684 0.76161
 H1363 H 0.76071 0.41288 0.79142
 H1364 H 0.76570 0.44498 0.80198
 H1365 H 0.80322 0.44894 0.77217
 H1366 H 0.79919 0.43851 0.80442
 C1367 C 0.77560 -0.06012 0.29334
 C1368 C 0.77056 -0.07764 0.28958
 C1369 C 0.78841 -0.08223 0.28811
 C1370 C 0.79355 -0.06493 0.29199
 C1371 C 0.77543 -0.05640 0.27526
 C1372 C 0.79329 -0.06099 0.27381
 C1373 C 0.77029 -0.07370 0.27139
 C1374 C 0.78826 -0.07852 0.27004
 C1375 C 0.79564 -0.09660 0.29532
 C1376 C 0.80155 -0.10842 0.30129
 C1377 C 0.76832 -0.04189 0.26821
 C1378 C 0.76267 -0.02979 0.26259
 H1379 H 0.77032 -0.05241 0.30287
 H1380 H 0.76133 -0.08467 0.29617
 H1381 H 0.80320 -0.06152 0.30055
 H1382 H 0.80257 -0.05399 0.26726
 H1383 H 0.76064 -0.07714 0.26284
 H1384 H 0.79357 -0.08626 0.26056
 C1385 C 0.29333 0.56000 0.72569
 C1386 C 0.29293 0.56439 0.70761
 C1387 C 0.28831 0.58170 0.71211
 C1388 C 0.28882 0.57753 0.73008
 C1389 C 0.27534 0.55583 0.72488
 C1390 C 0.27071 0.57314 0.72937
 C1391 C 0.27483 0.55999 0.70690
 C1392 C 0.27032 0.57753 0.71129
 C1393 C 0.29553 0.59613 0.70501
 C1394 C 0.30142 0.60799 0.69911
 C1395 C 0.26820 0.54134 0.73192
 C1396 C 0.26251 0.52926 0.73755
 H1397 H 0.30274 0.55265 0.73167
 H1398 H 0.30213 0.56097 0.69857
 H1399 H 0.29468 0.58493 0.73950
 H1400 H 0.26150 0.57658 0.73840
 H1401 H 0.26901 0.55262 0.69743
 H1402 H 0.26096 0.58489 0.70526
 C1403 C 0.29339 1.06006 0.22544
 C1404 C 0.29294 1.06444 0.20737
 C1405 C 0.28834 1.08173 0.21190
 C1406 C 0.28890 1.07759 0.22985
 C1407 C 0.27539 1.05593 0.22466
 C1408 C 0.27079 1.07323 0.22918
 C1409 C 0.27484 1.06008 0.20669
 C1410 C 0.27036 1.07761 0.21110
 C1411 C 0.29560 1.09605 0.20481
 C1412 C 0.30153 1.10785 0.19894
 C1413 C 0.26828 1.04149 0.23169
 C1414 C 0.26262 1.02944 0.23731
 H1415 H 0.30282 1.05271 0.23139
 H1416 H 0.30214 1.06110 0.19829
 H1417 H 0.29480 1.08502 0.23922
 H1418 H 0.26161 1.07669 0.23823
 H1419 H 0.26901 1.05273 0.19721
 H1420 H 0.26104 1.08504 0.20508
 C1421 C 0.79340 0.55984 0.22521
 C1422 C 0.79237 0.56458 0.20725
 C1423 C 0.78827 0.58186 0.21227
 C1424 C 0.78941 0.57736 0.23011
 C1425 C 0.77531 0.55605 0.22502
 C1426 C 0.77121 0.57335 0.23003
 C1427 C 0.77418 0.56056 0.20716
 C1428 C 0.77019 0.57808 0.21206
 C1429 C 0.79554 0.59618 0.20518
 C1430 C 0.80147 0.60798 0.19930
 C1431 C 0.76820 0.54161 0.23205
 C1432 C 0.76253 0.52956 0.23766
 H1433 H 0.80291 0.55221 0.23066
 H1434 H 0.80116 0.56124 0.19778
 H1435 H 0.79579 0.58450 0.23938
 H1436 H 0.76244 0.57680 0.23947
 H1437 H 0.76786 0.55350 0.19777
 H1438 H 0.76080 0.58579 0.20652
 C1439 C 0.79333 1.05988 0.72513
 C1440 C 0.79232 1.06456 0.70716
 C1441 C 0.78814 1.08184 0.71212
 C1442 C 0.78927 1.07740 0.72997
 C1443 C 0.77525 1.05604 0.72492
 C1444 C 0.77109 1.07333 0.72987
 C1445 C 0.77414 1.06048 0.70704
 C1446 C 0.77008 1.07800 0.71189
 C1447 C 0.79529 1.09618 0.70499
 C1448 C 0.80120 1.10797 0.69908
 C1449 C 0.76813 1.04164 0.73201
 C1450 C 0.76244 1.02962 0.73768
 H1451 H 0.80283 1.05228 0.73063
 H1452 H 0.80114 1.06120 0.69772
 H1453 H 0.79563 1.08458 0.73924
 H1454 H 0.76228 1.07679 0.73928
 H1455 H 0.76786 1.05338 0.69767
 H1456 H 0.76069 1.08567 0.70630
 C1457 C 0.73027 0.57354 0.27147
 C1458 C 0.71239 0.57858 0.26979
 C1459 C 0.71188 0.58212 0.28789
 C1460 C 0.72964 0.57730 0.28969
 C1461 C 0.72483 0.55626 0.27508
 C1462 C 0.72432 0.55980 0.29318
 C1463 C 0.70707 0.56108 0.27329
 C1464 C 0.70646 0.56485 0.29150
 C1465 C 0.70468 0.59652 0.29505
 C1466 C 0.69880 0.60836 0.30099
 C1467 C 0.73192 0.54176 0.26804
 C1468 C 0.73756 0.52964 0.26244
 H1469 H 0.74013 0.57696 0.26317
 H1470 H 0.70737 0.58649 0.26029
 H1471 H 0.73881 0.58415 0.29654
 H1472 H 0.72930 0.55193 0.30274
 H1473 H 0.69785 0.55426 0.26648
 H1474 H 0.69659 0.56147 0.29982
 C1475 C 0.72980 1.07379 0.77126
 C1476 C 0.71184 1.07864 0.76990
 C1477 C 0.71165 1.08238 0.78798
 C1478 C 0.72950 1.07775 0.78945
 C1479 C 0.72464 1.05648 0.77515
 C1480 C 0.72445 1.06022 0.79322
 C1481 C 0.70679 1.06111 0.77368
 C1482 C 0.70650 1.06507 0.79185
 C1483 C 0.70438 1.09679 0.79519
 C1484 C 0.69844 1.10863 0.80117
 C1485 C 0.73177 1.04193 0.76811
 C1486 C 0.73743 1.02979 0.76251
 H1487 H 0.73946 1.07721 0.76272
 H1488 H 0.70656 1.08634 0.76037
 H1489 H 0.73876 1.08474 0.79603
 H1490 H 0.72970 1.05251 0.80276
 H1491 H 0.69752 1.05410 0.76712
 H1492 H 0.69684 1.06162 0.80039
 C1493 C 0.20798 0.55641 0.78288
 C1494 C 0.21519 0.56609 0.79703
 C1495 C 0.21176 0.58172 0.78781
 C1496 C 0.20444 0.57226 0.77377
 C1497 C 0.22471 0.55585 0.77503
 C1498 C 0.22128 0.57148 0.76581
 C1499 C 0.23203 0.56531 0.78909
 C1500 C 0.22849 0.58116 0.77997
 C1501 C 0.20459 0.59613 0.79498
 C1502 C 0.19873 0.60796 0.80093
 C1503 C 0.23183 0.54136 0.76799
 C1504 C 0.23749 0.52927 0.76236
 H1505 H 0.19961 0.54607 0.78402
 H1506 H 0.21258 0.56407 0.80995
 H1507 H 0.19300 0.57529 0.76759
 H1508 H 0.22388 0.57352 0.75289
 H1509 H 0.24344 0.56229 0.79533
 H1510 H 0.23683 0.59152 0.77888
 C1511 C 0.20683 1.06027 0.27391
 C1512 C 0.20727 1.06465 0.29198
 C1513 C 0.21182 1.08197 0.28745
 C1514 C 0.21127 1.07781 0.26949
 C1515 C 0.22484 1.05613 0.27467
 C1516 C 0.22939 1.07344 0.27015
 C1517 C 0.22538 1.06028 0.29264
 C1518 C 0.22983 1.07782 0.28823
 C1519 C 0.20460 1.09637 0.29458
 C1520 C 0.19870 1.10820 0.30052
 C1521 C 0.23196 1.04163 0.26765
 C1522 C 0.23762 1.02953 0.26205
 H1523 H 0.19744 1.05291 0.26795
 H1524 H 0.19810 1.06123 0.30105
 H1525 H 0.20535 1.08520 0.26009
 H1526 H 0.23856 1.07690 0.26109
 H1527 H 0.23126 1.05292 0.30210
 H1528 H 0.23916 1.08521 0.29423
 C1529 C 0.72985 0.42660 0.72915
 C1530 C 0.71186 0.42187 0.73041
 C1531 C 0.71180 0.41808 0.71235
 C1532 C 0.72967 0.42259 0.71098
 C1533 C 0.72478 0.44391 0.72518
 C1534 C 0.72471 0.44013 0.70711
 C1535 C 0.70690 0.43941 0.72654
 C1536 C 0.70674 0.43540 0.70837
 C1537 C 0.70461 0.40367 0.70519
 C1538 C 0.69871 0.39184 0.69925
 C1539 C 0.73193 0.45839 0.73224
 C1540 C 0.73762 0.47047 0.73787
 H1541 H 0.73943 0.42313 0.73777
 H1542 H 0.70647 0.41420 0.73989
 H1543 H 0.73893 0.41550 0.70447
 H1544 H 0.73007 0.44777 0.69758
 H1545 H 0.69759 0.44648 0.73300
 H1546 H 0.69715 0.43884 0.69974
 C1547 C 0.70872 -0.05637 0.21618
 C1548 C 0.71651 -0.06680 0.20288
 C1549 C 0.71189 -0.08194 0.21236
 C1550 C 0.70399 -0.07174 0.22555
 C1551 C 0.72489 -0.05618 0.22514
 C1552 C 0.72026 -0.07133 0.23461
 C1553 C 0.73279 -0.06638 0.21193
 C1554 C 0.72805 -0.08176 0.22129
 C1555 C 0.70462 -0.09625 0.20526
 C1556 C 0.69867 -0.10802 0.19937
 C1557 C 0.73202 -0.04176 0.23218
 C1558 C 0.73770 -0.02971 0.23780
 H1559 H 0.70082 -0.04580 0.21412
 H1560 H 0.71485 -0.06519 0.18975
 H1561 H 0.69204 -0.07420 0.23097
 H1562 H 0.72188 -0.07305 0.24773
 H1563 H 0.74471 -0.06401 0.20638
 H1564 H 0.73587 -0.09241 0.22325
 C1565 C 0.20649 0.44020 0.22498
 C1566 C 0.20747 0.43551 0.20700
 C1567 C 0.21163 0.41822 0.21197
 C1568 C 0.21053 0.42267 0.22983
 C1569 C 0.22457 0.44403 0.22473
 C1570 C 0.22872 0.42673 0.22969
 C1571 C 0.22565 0.43958 0.20686
 C1572 C 0.22970 0.42205 0.21171
 C1573 C 0.20444 0.40385 0.20488
 C1574 C 0.19856 0.39203 0.19899
 C1575 C 0.23168 0.45847 0.23177
 C1576 C 0.23735 0.47052 0.23740
 H1577 H 0.19699 0.44780 0.23049
 H1578 H 0.19864 0.43887 0.19758
 H1579 H 0.20419 0.41550 0.23911
 H1580 H 0.23754 0.42327 0.23909
 H1581 H 0.23193 0.44667 0.19746
 H1582 H 0.23909 0.41438 0.20612
 C1583 C 0.20661 -0.05892 0.72289
 C1584 C 0.20951 -0.06485 0.70549
 C1585 C 0.21183 -0.08198 0.71195
 C1586 C 0.20882 -0.07629 0.72923
 C1587 C 0.22480 -0.05621 0.72474
 C1588 C 0.22712 -0.07336 0.73119
 C1589 C 0.22781 -0.06190 0.70745
 C1590 C 0.23001 -0.07928 0.71378
 C1591 C 0.20457 -0.09629 0.70485
 C1592 C 0.19864 -0.10808 0.69896
 C1593 C 0.23195 -0.04182 0.73182
 C1594 C 0.23764 -0.02980 0.73748
 H1595 H 0.19702 -0.05042 0.72667
 H1596 H 0.20218 -0.06163 0.69483
 H1597 H 0.20089 -0.08245 0.73802
 H1598 H 0.23443 -0.07669 0.74183
 H1599 H 0.23567 -0.05583 0.69854
 H1600 H 0.23949 -0.08785 0.70991
 C1601 C 0.27472 0.29301 0.44005
 C1602 C 0.29275 0.29207 0.43544
 C1603 C 0.28789 0.28781 0.41817
 C1604 C 0.26996 0.28886 0.42255
 C1605 C 0.27501 0.27497 0.44401
 C1606 C 0.27015 0.27071 0.42674
 C1607 C 0.29295 0.27393 0.43963
 C1608 C 0.28820 0.26978 0.42213
 C1609 C 0.29506 0.29498 0.40378
 C1610 C 0.30096 0.30088 0.39194
 C1611 C 0.26793 0.26790 0.45850
 C1612 C 0.26229 0.26226 0.47059
 H1613 H 0.26911 0.30251 0.44757
 H1614 H 0.30213 0.30094 0.43883
 H1615 H 0.26063 0.29512 0.41534
 H1616 H 0.26078 0.26185 0.42330
 H1617 H 0.30234 0.26772 0.44681
 H1618 H 0.29385 0.26033 0.41458
 C1619 C 0.29364 0.77445 -0.06016
 C1620 C 0.28932 0.76986 -0.07766
 C1621 C 0.28854 0.78782 -0.08195
 C1622 C 0.29298 0.79251 -0.06466
 C1623 C 0.27561 0.77502 -0.05608
 C1624 C 0.27485 0.79298 -0.06037
 C1625 C 0.27118 0.77033 -0.07336
 C1626 C 0.27052 0.78840 -0.07787
 C1627 C 0.29573 0.79499 -0.09636
 C1628 C 0.30162 0.80090 -0.10820
 C1629 C 0.26850 0.76799 -0.04158
 C1630 C 0.26283 0.76238 -0.02949
 H1631 H 0.30309 0.76865 -0.05271
 H1632 H 0.29537 0.76046 -0.08494
 H1633 H 0.30203 0.80170 -0.06126
 H1634 H 0.26884 0.80243 -0.05311
 H1635 H 0.26213 0.76114 -0.07679
 H1636 H 0.26112 0.79425 -0.08533
 C1637 C 0.77432 0.29354 -0.06009
 C1638 C 0.79242 0.29300 -0.06452
 C1639 C 0.78783 0.28846 -0.08180
 C1640 C 0.76984 0.28911 -0.07759
 C1641 C 0.77503 0.27554 -0.05594
 C1642 C 0.77044 0.27100 -0.07322
 C1643 C 0.79302 0.27490 -0.06015
 C1644 C 0.78855 0.27047 -0.07765
 C1645 C 0.79497 0.29567 -0.09619
 C1646 C 0.80086 0.30160 -0.10802
 C1647 C 0.76798 0.26843 -0.04145
 C1648 C 0.76236 0.26276 -0.02936
 H1649 H 0.76841 0.30297 -0.05271
 H1650 H 0.80154 0.30213 -0.06113
 H1651 H 0.76043 0.29506 -0.08495
 H1652 H 0.76133 0.26188 -0.07666
 H1653 H 0.80250 0.26900 -0.05282
 H1654 H 0.79451 0.26110 -0.08505
 C1655 C 0.78561 0.79079 0.44421
 C1656 C 0.79768 0.78230 0.43285
 C1657 C 0.78800 0.78844 0.41838
 C1658 C 0.77604 0.79705 0.42952
 C1659 C 0.77519 0.77553 0.44424
 C1660 C 0.76551 0.78169 0.42977
 C1661 C 0.78716 0.76693 0.43310
 C1662 C 0.77759 0.77319 0.41841
 C1663 C 0.79515 0.79564 0.40398
 C1664 C 0.80104 0.80156 0.39215
 C1665 C 0.76814 0.76844 0.45874
 C1666 C 0.76251 0.76277 0.47083
 H1667 H 0.78885 0.79798 0.45497
 H1668 H 0.81099 0.78266 0.43394
 H1669 H 0.77159 0.80953 0.42787
 H1670 H 0.75221 0.78137 0.42864
 H1671 H 0.79168 0.75447 0.43472
 H1672 H 0.77440 0.76605 0.40761
 C1673 C 0.72924 0.27046 0.57315
 C1674 C 0.72984 0.28855 0.57756
 C1675 C 0.71184 0.28795 0.58172
 C1676 C 0.71112 0.26997 0.57754
 C1677 C 0.72470 0.27506 0.55587
 C1678 C 0.70669 0.27447 0.56003
 C1679 C 0.72541 0.29304 0.56006
 C1680 C 0.70730 0.29255 0.56444
 C1681 C 0.70468 0.29514 0.59611
 C1682 C 0.69879 0.30106 0.60794
 C1683 C 0.73176 0.26798 0.54138
 C1684 C 0.73739 0.26234 0.52928
 H1685 H 0.73833 0.26130 0.57658
 H1686 H 0.73925 0.29445 0.58495
 H1687 H 0.70514 0.26060 0.58490
 H1688 H 0.69723 0.26861 0.55267
 H1689 H 0.73134 0.30247 0.55272
 H1690 H 0.69819 0.30171 0.56105
 C1691 C 0.71574 0.79137 1.05644
 C1692 C 0.70264 0.78343 1.06702
 C1693 C 0.71217 0.78830 1.08205
 C1694 C 0.72516 0.79636 1.07170
 C1695 C 0.72500 0.77537 1.05623
 C1696 C 0.73453 0.78024 1.07126
 C1697 C 0.71200 0.76732 1.06658
 C1698 C 0.72142 0.77230 1.08184
 C1699 C 0.70500 0.79548 1.09642
 C1700 C 0.69908 0.80138 1.10824
 C1701 C 0.73205 0.76826 1.04174
 C1702 C 0.73768 0.76260 1.02966
 H1703 H 0.71347 0.79916 1.04585
 H1704 H 0.68945 0.78486 1.06548
 H1705 H 0.73044 0.80839 1.07399
 H1706 H 0.74772 0.77886 1.07286
 H1707 H 0.70665 0.75531 1.06434
 H1708 H 0.72364 0.76457 1.09248
 C1709 C 0.22561 0.29320 1.06009
 C1710 C 0.20750 0.29277 1.06447
 C1711 C 0.21203 0.28819 1.08176
 C1712 C 0.23003 0.28873 1.07761
 C1713 C 0.22485 0.27521 1.05595
 C1714 C 0.22937 0.27063 1.07324
 C1715 C 0.20684 0.27468 1.06011
 C1716 C 0.21125 0.27021 1.07762
 C1717 C 0.20487 0.29541 1.09612
 C1718 C 0.19895 0.30134 1.10793
 C1719 C 0.23188 0.26807 1.04148
 C1720 C 0.23749 0.26238 1.02940
 H1721 H 0.23157 0.30259 1.05273
 H1722 H 0.19842 0.30196 1.06107
 H1723 H 0.23944 0.29463 1.08499
 H1724 H 0.23844 0.26145 1.07670
 H1725 H 0.19735 0.26884 1.05277
 H1726 H 0.20523 0.26089 1.08502
 C1727 C 0.20742 0.78089 0.55715
 C1728 C 0.20630 0.77263 0.57378
 C1729 C 0.21217 0.78825 0.58167
 C1730 C 0.21317 0.79662 0.56526
 C1731 C 0.22502 0.77536 0.55583
 C1732 C 0.23088 0.79099 0.56371
 C1733 C 0.22401 0.76699 0.57224
 C1734 C 0.22977 0.78273 0.58035
 C1735 C 0.20499 0.79541 0.59604
 C1736 C 0.19907 0.80130 0.60787
 C1737 C 0.23207 0.76827 0.54134
 C1738 C 0.23769 0.76261 0.52925
 H1739 H 0.19828 0.78008 0.54746
 H1740 H 0.19609 0.76521 0.57811
 H1741 H 0.20862 0.80888 0.56259
 H1742 H 0.24106 0.79849 0.55942
 H1743 H 0.22855 0.75473 0.57497
 H1744 H 0.23884 0.78360 0.59009
 C1745 C 0.27013 0.72888 0.57310
 C1746 C 0.27027 0.71068 0.57710
 C1747 C 0.28812 0.71200 0.58166
 C1748 C 0.28811 0.73009 0.57789
 C1749 C 0.27526 0.72489 0.55582
 C1750 C 0.29312 0.72620 0.56039
 C1751 C 0.27528 0.70680 0.55960
 C1752 C 0.29325 0.70802 0.56439
 C1753 C 0.29530 0.70481 0.59605
 C1754 C 0.30121 0.69890 0.60787
 C1755 C 0.26819 0.73197 0.54133
 C1756 C 0.26255 0.73762 0.52925
 H1757 H 0.26055 0.73754 0.57652
 H1758 H 0.26099 0.70418 0.58415
 H1759 H 0.29350 0.73954 0.58559
 H1760 H 0.30246 0.73265 0.55337
 H1761 H 0.26995 0.69729 0.55193
 H1762 H 0.30283 0.69935 0.56101
 C1763 C 0.29293 0.22041 1.05777
 C1764 C 0.29273 0.22801 1.07475
 C1765 C 0.28787 0.21165 1.08177
 C1766 C 0.28818 0.20394 1.06501
 C1767 C 0.27500 0.22457 1.05596
 C1768 C 0.27014 0.20819 1.06298
 C1769 C 0.27469 0.23228 1.07271
 C1770 C 0.26994 0.21579 1.07996
 C1771 C 0.29507 0.20447 1.09613
 C1772 C 0.30101 0.19857 1.10793
 C1773 C 0.26793 0.23168 1.04148
 C1774 C 0.26231 0.23734 1.02940
 H1775 H 0.30233 0.22237 1.04850
 H1776 H 0.30214 0.23603 1.07978
 H1777 H 0.29382 0.19220 1.06205
 H1778 H 0.26078 0.20010 1.05798
 H1779 H 0.26907 0.24401 1.07574
 H1780 H 0.26061 0.21377 1.08928
 C1781 C 0.78758 0.73310 1.06703
 C1782 C 0.77805 0.72739 1.08197
 C1783 C 0.78795 0.71178 1.08204
 C1784 C 0.79758 0.71737 1.06733
 C1785 C 0.77515 0.72476 1.05622
 C1786 C 0.78506 0.70914 1.05630
 C1787 C 0.76551 0.71916 1.07094
 C1788 C 0.77553 0.70344 1.07124
 C1789 C 0.79510 0.70458 1.09641
 C1790 C 0.80101 0.69867 1.10823
 C1791 C 0.76812 0.73189 1.04174
 C1792 C 0.76251 0.73757 1.02966
 H1793 H 0.79248 0.74536 1.06516
 H1794 H 0.77528 0.73478 1.09272
 H1795 H 0.81085 0.71651 1.06605
 H1796 H 0.78788 0.70170 1.04560
 H1797 H 0.75224 0.71997 1.07228
 H1798 H 0.77070 0.69114 1.07316
 C1799 C 0.77420 0.20658 0.56001
 C1800 C 0.79229 0.20710 0.56443
 C1801 C 0.78769 0.21165 0.58171
 C1802 C 0.76970 0.21102 0.57751
 C1803 C 0.77488 0.22457 0.55586
 C1804 C 0.77028 0.22912 0.57314
 C1805 C 0.79288 0.22519 0.56006
 C1806 C 0.78838 0.22964 0.57757
 C1807 C 0.79485 0.20447 0.59609
 C1808 C 0.80076 0.19858 0.60792
 C1809 C 0.76785 0.23168 0.54137
 C1810 C 0.76225 0.23735 0.52928
 H1811 H 0.76830 0.19716 0.55264
 H1812 H 0.80142 0.19796 0.56106
 H1813 H 0.76029 0.20508 0.58487
 H1814 H 0.76116 0.23826 0.57658
 H1815 H 0.80235 0.23108 0.55275
 H1816 H 0.79433 0.23899 0.58498
 C1817 C 0.70693 0.72582 0.44010
 C1818 C 0.71142 0.73024 0.42259
 C1819 C 0.71207 0.71225 0.41845
 C1820 C 0.70746 0.70772 0.43574
 C1821 C 0.72492 0.72511 0.44429
 C1822 C 0.72556 0.70711 0.44015
 C1823 C 0.72952 0.72964 0.42700
 C1824 C 0.73005 0.71153 0.42264
 C1825 C 0.70490 0.70507 0.40407
 C1826 C 0.69900 0.69916 0.39225
 C1827 C 0.73200 0.73219 0.45877
 C1828 C 0.73764 0.73783 0.47085
 H1829 H 0.69748 0.73175 0.44743
 H1830 H 0.70549 0.73963 0.41519
 H1831 H 0.69831 0.69862 0.43914
 H1832 H 0.73143 0.69766 0.44753
 H1833 H 0.73867 0.73873 0.42357
 H1834 H 0.73944 0.70554 0.41528
 C1835 C 0.72550 0.20709 -0.06011
 C1836 C 0.70739 0.20759 -0.06446
 C1837 C 0.71190 0.21219 -0.08175
 C1838 C 0.72991 0.21157 -0.07762
 C1839 C 0.72478 0.22507 -0.05592
 C1840 C 0.72929 0.22967 -0.07321
 C1841 C 0.70676 0.22568 -0.06005
 C1842 C 0.71116 0.23017 -0.07756
 C1843 C 0.70475 0.20498 -0.09614
 C1844 C 0.69887 0.19903 -0.10796
 C1845 C 0.73186 0.23215 -0.04144
 C1846 C 0.73751 0.23779 -0.02936
 H1847 H 0.73146 0.19766 -0.05278
 H1848 H 0.69830 0.19844 -0.06104
 H1849 H 0.73932 0.20567 -0.08502
 H1850 H 0.73837 0.23882 -0.07665
 H1851 H 0.69731 0.23154 -0.05266
 H1852 H 0.70516 0.23955 -0.08491
 C1853 C 0.20715 0.72567 -0.06026
 C1854 C 0.21175 0.72996 -0.07778
 C1855 C 0.21222 0.71194 -0.08182
 C1856 C 0.20751 0.70755 -0.06453
 C1857 C 0.22512 0.72480 -0.05601
 C1858 C 0.22558 0.70678 -0.06004
 C1859 C 0.22983 0.72919 -0.07330
 C1860 C 0.23019 0.71106 -0.07756
 C1861 C 0.20504 0.70476 -0.09619
 C1862 C 0.19912 0.69885 -0.10800
 C1863 C 0.23221 0.73188 -0.04154
 C1864 C 0.23786 0.73752 -0.02946
 H1865 H 0.19773 0.73175 -0.05300
 H1866 H 0.20595 0.73937 -0.08525
 H1867 H 0.19825 0.69857 -0.06112
 H1868 H 0.23133 0.69731 -0.05260
 H1869 H 0.23908 0.73817 -0.07674
 H1870 H 0.23954 0.70494 -0.08485
 C1871 C 0.22578 0.20679 0.43955
 C1872 C 0.20762 0.20695 0.43539
 C1873 C 0.21184 0.21188 0.41812
 C1874 C 0.22990 0.21162 0.42206
 C1875 C 0.22469 0.22470 0.44399
 C1876 C 0.22891 0.22963 0.42672
 C1877 C 0.20662 0.22495 0.44005
 C1878 C 0.21074 0.22978 0.42256
 C1879 C 0.20468 0.20473 0.40373
 C1880 C 0.19879 0.19884 0.39190
 C1881 C 0.23175 0.23174 0.45848
 C1882 C 0.23738 0.23737 0.47058
 H1883 H 0.23203 0.19740 0.44669
 H1884 H 0.19877 0.19754 0.43876
 H1885 H 0.23936 0.20602 0.41448
 H1886 H 0.23775 0.23903 0.42331
 H1887 H 0.19711 0.23050 0.44761
 H1888 H 0.20445 0.23911 0.41539
 C1889 C 0.28818 0.43358 0.73301
 C1890 C 0.27881 0.41829 0.72798
 C1891 C 0.28816 0.41808 0.71206
 C1892 C 0.29764 0.43314 0.71698
 C1893 C 0.27522 0.44394 0.72488
 C1894 C 0.28457 0.44372 0.70896
 C1895 C 0.26574 0.42889 0.71996
 C1896 C 0.27520 0.42845 0.70393
 C1897 C 0.29539 0.40371 0.70488
 C1898 C 0.30129 0.39189 0.69893
 C1899 C 0.26811 0.45842 0.73194
 C1900 C 0.26243 0.47050 0.73757
 H1901 H 0.29346 0.43585 0.74504
 H1902 H 0.27654 0.40766 0.73571
 H1903 H 0.31084 0.43468 0.71565
 H1904 H 0.28689 0.45432 0.70119
 H1905 H 0.25254 0.42731 0.72125
 H1906 H 0.27000 0.42615 0.69187
 C1907 C 0.27497 0.94011 0.20662
 C1908 C 0.29307 0.93570 0.20729
 C1909 C 0.28848 0.91840 0.21182
 C1910 C 0.27049 0.92258 0.21104
 C1911 C 0.27551 0.94426 0.22459
 C1912 C 0.27093 0.92696 0.22912
 C1913 C 0.29351 0.94009 0.22536
 C1914 C 0.28904 0.92256 0.22978
 C1915 C 0.29570 0.90402 0.20466
 C1916 C 0.30158 0.89218 0.19873
 C1917 C 0.26836 0.95872 0.23165
 C1918 C 0.26266 0.97078 0.23728
 H1919 H 0.26912 0.94748 0.19715
 H1920 H 0.30225 0.93909 0.19822
 H1921 H 0.26113 0.91521 0.20504
 H1922 H 0.26174 0.92355 0.23817
 H1923 H 0.30292 0.94745 0.23131
 H1924 H 0.29493 0.91517 0.23920
 C1925 C 0.79029 0.43574 0.23152
 C1926 C 0.78158 0.41944 0.22923
 C1927 C 0.78831 0.41853 0.21207
 C1928 C 0.79712 0.43460 0.21425
 C1929 C 0.77537 0.44439 0.22486
 C1930 C 0.78210 0.44348 0.20770
 C1931 C 0.76656 0.42832 0.22267
 C1932 C 0.77340 0.42718 0.20540
 C1933 C 0.79548 0.40411 0.20492
 C1934 C 0.80136 0.39228 0.19897
 C1935 C 0.76823 0.45884 0.23194
 C1936 C 0.76253 0.47090 0.23759
 H1937 H 0.79716 0.43943 0.24233
 H1938 H 0.78147 0.40938 0.23798
 H1939 H 0.80976 0.43700 0.21068
 H1940 H 0.78225 0.45352 0.19890
 H1941 H 0.75391 0.42591 0.22621
 H1942 H 0.76659 0.42349 0.19455
 C1943 C 0.77088 0.92710 0.72951
 C1944 C 0.77042 0.92270 0.71144
 C1945 C 0.78842 0.91853 0.71220
 C1946 C 0.78899 0.92271 0.73016
 C1947 C 0.77544 0.94441 0.72496
 C1948 C 0.79345 0.94024 0.72571
 C1949 C 0.77488 0.94022 0.70699
 C1950 C 0.79298 0.93583 0.70764
 C1951 C 0.79562 0.90411 0.70507
 C1952 C 0.80151 0.89227 0.69914
 C1953 C 0.76827 0.95888 0.73203
 C1954 C 0.76255 0.97095 0.73767
 H1955 H 0.76171 0.92366 0.73857
 H1956 H 0.76107 0.91530 0.70545
 H1957 H 0.79491 0.91533 0.73957
 H1958 H 0.80286 0.94761 0.73163
 H1959 H 0.76902 0.94756 0.69751
 H1960 H 0.80216 0.93921 0.69856
 C1961 C 0.70688 0.56006 0.72600
 C1962 C 0.71138 0.57759 0.73039
 C1963 C 0.71192 0.58175 0.71242
 C1964 C 0.70730 0.56444 0.70792
 C1965 C 0.72487 0.55585 0.72520
 C1966 C 0.72540 0.56000 0.70722
 C1967 C 0.72949 0.57315 0.72970
 C1968 C 0.72991 0.57753 0.71161
 C1969 C 0.70473 0.59617 0.70527
 C1970 C 0.69884 0.60802 0.69933
 C1971 C 0.73200 0.54136 0.73225
 C1972 C 0.73767 0.52926 0.73788
 H1973 H 0.69747 0.55272 0.73197
 H1974 H 0.70552 0.58499 0.73981
 H1975 H 0.69810 0.56105 0.69888
 H1976 H 0.73122 0.55262 0.69776
 H1977 H 0.73869 0.57657 0.73873
 H1978 H 0.73927 0.58488 0.70559
 C1979 C 0.70680 0.05968 0.22569
 C1980 C 0.71126 0.07721 0.23011
 C1981 C 0.71185 0.08137 0.21214
 C1982 C 0.70728 0.06407 0.20762
 C1983 C 0.72480 0.05550 0.22495
 C1984 C 0.72538 0.05966 0.20698
 C1985 C 0.72938 0.07280 0.22947
 C1986 C 0.72985 0.07719 0.21139
 C1987 C 0.70464 0.09576 0.20495
 C1988 C 0.69876 0.10759 0.19898
 C1989 C 0.73194 0.04103 0.23203
 C1990 C 0.73764 0.02897 0.23769
 H1991 H 0.69738 0.05232 0.23162
 H1992 H 0.70536 0.08459 0.23953
 H1993 H 0.69812 0.06067 0.19854
 H1994 H 0.73125 0.05229 0.19752
 H1995 H 0.73855 0.07621 0.23854
 H1996 H 0.73923 0.08455 0.20541
 C1997 C 0.20654 0.56007 0.22569
 C1998 C 0.21123 0.57759 0.22991
 C1999 C 0.21156 0.58162 0.21191
 C2000 C 0.20676 0.56433 0.20758
 C2001 C 0.22449 0.55574 0.22468
 C2002 C 0.22481 0.55976 0.20667
 C2003 C 0.22929 0.57303 0.22900
 C2004 C 0.22950 0.57728 0.21089
 C2005 C 0.20436 0.59603 0.20477
 C2006 C 0.19845 0.60787 0.19886
 C2007 C 0.23164 0.54127 0.23173
 C2008 C 0.23734 0.52920 0.23737
 H2009 H 0.19716 0.55283 0.23184
 H2010 H 0.20554 0.58509 0.23937
 H2011 H 0.19740 0.56096 0.19869
 H2012 H 0.23044 0.55229 0.19716
 H2013 H 0.23864 0.57643 0.23788
 H2014 H 0.23882 0.58455 0.20469
 C2015 C 0.22564 0.05996 0.70689
 C2016 C 0.20744 0.06400 0.70696
 C2017 C 0.21149 0.08130 0.71199
 C2018 C 0.22958 0.07749 0.71180
 C2019 C 0.22451 0.05542 0.72475
 C2020 C 0.22856 0.07272 0.72976
 C2021 C 0.20641 0.05923 0.72492
 C2022 C 0.21035 0.07676 0.72983
 C2023 C 0.20426 0.09573 0.70488
 C2024 C 0.19835 0.10759 0.69899
 C2025 C 0.23171 0.04095 0.73181
 C2026 C 0.23745 0.02888 0.73745
 H2027 H 0.23199 0.05293 0.69748
 H2028 H 0.19867 0.06063 0.69750
 H2029 H 0.23899 0.08518 0.70630
 H2030 H 0.23732 0.07617 0.73921
 H2031 H 0.19692 0.05159 0.73036
 H2032 H 0.20395 0.08384 0.73916
 C2033 C 0.27083 0.57304 0.27009
 C2034 C 0.27012 0.57758 0.28812
 C2035 C 0.28816 0.58157 0.28761
 C2036 C 0.28899 0.57724 0.26969
 C2037 C 0.27519 0.55573 0.27483
 C2038 C 0.29323 0.55970 0.27433
 C2039 C 0.27437 0.56004 0.29275
 C2040 C 0.29251 0.56425 0.29236
 C2041 C 0.29539 0.59599 0.29473
 C2042 C 0.30128 0.60784 0.30064
 C2043 C 0.26805 0.54126 0.26779
 C2044 C 0.26237 0.52918 0.26216
 H2045 H 0.26184 0.57648 0.26085
 H2046 H 0.26071 0.58509 0.29389
 H2047 H 0.29510 0.58448 0.26031
 H2048 H 0.30267 0.55219 0.26860
 H2049 H 0.26828 0.55280 0.30217
 H2050 H 0.30150 0.56081 0.30160
 C2051 C 0.27528 0.05928 0.79295
 C2052 C 0.29324 0.06406 0.79167
 C2053 C 0.28812 0.08137 0.78770
 C2054 C 0.27026 0.07680 0.78909
 C2055 C 0.27521 0.05550 0.77489
 C2056 C 0.27007 0.07280 0.77092
 C2057 C 0.29307 0.06006 0.77350
 C2058 C 0.28805 0.07758 0.76964
 C2059 C 0.29531 0.09579 0.79484
 C2060 C 0.30117 0.10764 0.80077
 C2061 C 0.26813 0.04100 0.76784
 C2062 C 0.26250 0.02890 0.76223
 H2063 H 0.26995 0.05159 0.80246
 H2064 H 0.30284 0.06063 0.80029
 H2065 H 0.26097 0.08384 0.79561
 H2066 H 0.26047 0.07622 0.76231
 H2067 H 0.30238 0.05301 0.76702
 H2068 H 0.29340 0.08528 0.76015
 C2069 C 0.77097 0.57313 0.77080
 C2070 C 0.77047 0.57756 0.78887
 C2071 C 0.78847 0.58170 0.78814
 C2072 C 0.78908 0.57750 0.77018
 C2073 C 0.77552 0.55582 0.77537
 C2074 C 0.79353 0.55996 0.77464
 C2075 C 0.77493 0.56002 0.79333
 C2076 C 0.79303 0.56439 0.79270
 C2077 C 0.79570 0.59609 0.79531
 C2078 C 0.80161 0.60791 0.80126
 C2079 C 0.76839 0.54132 0.76832
 C2080 C 0.76271 0.52924 0.76270
 H2081 H 0.76181 0.57657 0.76172
 H2082 H 0.76109 0.58496 0.79483
 H2083 H 0.79500 0.58484 0.76075
 H2084 H 0.80296 0.55257 0.76874
 H2085 H 0.76905 0.55270 0.80280
 H2086 H 0.80218 0.56098 0.80180
 C2087 C 0.77489 0.05975 0.29309
 C2088 C 0.79298 0.06414 0.29240
 C2089 C 0.78838 0.08145 0.28785
 C2090 C 0.77039 0.07728 0.28865
 C2091 C 0.77544 0.05556 0.27512
 C2092 C 0.77083 0.07286 0.27057
 C2093 C 0.79343 0.05973 0.27434
 C2094 C 0.78894 0.07725 0.26989
 C2095 C 0.79560 0.09585 0.29500
 C2096 C 0.80149 0.10768 0.30094
 C2097 C 0.76833 0.04107 0.26811
 C2098 C 0.76266 0.02898 0.26250
 H2099 H 0.76904 0.05239 0.30255
 H2100 H 0.80216 0.06073 0.30147
 H2101 H 0.76099 0.08464 0.29463
 H2102 H 0.76164 0.07625 0.26151
 H2103 H 0.80284 0.05234 0.26839
 H2104 H 0.79481 0.08461 0.26044
 C2105 C 0.72587 0.43977 0.29289
 C2106 C 0.70768 0.43574 0.29284
 C2107 C 0.71175 0.41845 0.28779
 C2108 C 0.72984 0.42226 0.28795
 C2109 C 0.72470 0.44432 0.27504
 C2110 C 0.72878 0.42703 0.26999
 C2111 C 0.70661 0.44053 0.27489
 C2112 C 0.71058 0.42301 0.26995
 C2113 C 0.70455 0.40402 0.29492
 C2114 C 0.69864 0.39219 0.30084
 C2115 C 0.73183 0.45881 0.26801
 C2116 C 0.73751 0.47089 0.26240
 H2117 H 0.73222 0.44683 0.30225
 H2118 H 0.69892 0.43916 0.30232
 H2119 H 0.73930 0.41459 0.29343
 H2120 H 0.73755 0.42363 0.26052
 H2121 H 0.69713 0.44821 0.26946
 H2122 H 0.70419 0.41595 0.26062
 C2123 C 0.72537 0.94018 0.79311
 C2124 C 0.70728 0.93580 0.79247
 C2125 C 0.71186 0.91848 0.78795
 C2126 C 0.72986 0.92265 0.78870
 C2127 C 0.72480 0.94435 0.77514
 C2128 C 0.72940 0.92704 0.77062
 C2129 C 0.70680 0.94019 0.77440
 C2130 C 0.71129 0.92266 0.76998
 C2131 C 0.70461 0.90411 0.79512
 C2132 C 0.69870 0.89230 0.80109
 C2133 C 0.73188 0.95885 0.76810
 C2134 C 0.73753 0.97095 0.76249
 H2135 H 0.73124 0.94756 0.80255
 H2136 H 0.69811 0.93923 0.80154
 H2137 H 0.73925 0.91528 0.79469
 H2138 H 0.73857 0.92361 0.76155
 H2139 H 0.69739 0.94756 0.76845
 H2140 H 0.70539 0.91528 0.76057
 C2141 C 0.20962 0.43535 0.76841
 C2142 C 0.21831 0.41902 0.77070
 C2143 C 0.21159 0.41809 0.78786
 C2144 C 0.20279 0.43421 0.78569
 C2145 C 0.22455 0.44395 0.77506
 C2146 C 0.21783 0.44304 0.79223
 C2147 C 0.23335 0.42784 0.77724
 C2148 C 0.22651 0.42670 0.79452
 C2149 C 0.20437 0.40368 0.79501
 C2150 C 0.19846 0.39185 0.80094
 C2151 C 0.23170 0.45843 0.76800
 C2152 C 0.23740 0.47051 0.76237
 H2153 H 0.20274 0.43906 0.75760
 H2154 H 0.21840 0.40896 0.76193
 H2155 H 0.19016 0.43665 0.78927
 H2156 H 0.21770 0.45306 0.80104
 H2157 H 0.24599 0.42538 0.77370
 H2158 H 0.23334 0.42299 0.80536
 C2159 C 0.22540 0.94009 0.29272
 C2160 C 0.20730 0.93573 0.29207
 C2161 C 0.21187 0.91841 0.28756
 C2162 C 0.22987 0.92255 0.28832
 C2163 C 0.22484 0.94424 0.27475
 C2164 C 0.22942 0.92693 0.27023
 C2165 C 0.20684 0.94011 0.27400
 C2166 C 0.21131 0.92257 0.26959
 C2167 C 0.20463 0.90403 0.29471
 C2168 C 0.19871 0.89221 0.30064
 C2169 C 0.23196 0.95871 0.26770
 C2170 C 0.23763 0.97078 0.26207
 H2171 H 0.23126 0.94747 0.30216
 H2172 H 0.19813 0.93916 0.30114
 H2173 H 0.23925 0.91518 0.29431
 H2174 H 0.23860 0.92350 0.26117
 H2175 H 0.19744 0.94749 0.26804
 H2176 H 0.20542 0.91520 0.26017
 C2177 C 0.43599 0.29080 0.73078
 C2178 C 0.43446 0.29642 0.71311
 C2179 C 0.41801 0.28810 0.71211
 C2180 C 0.41931 0.28259 0.72967
 C2181 C 0.44387 0.27515 0.72493
 C2182 C 0.42742 0.26682 0.72392
 C2183 C 0.44257 0.28067 0.70736
 C2184 C 0.42589 0.27245 0.70625
 C2185 C 0.40365 0.29534 0.70492
 C2186 C 0.39184 0.30125 0.69897
 C2187 C 0.45834 0.26803 0.73199
 C2188 C 0.47042 0.26235 0.73762
 H2189 H 0.44030 0.29829 0.74093
 H2190 H 0.43715 0.30867 0.70856
 H2191 H 0.40956 0.28348 0.73874
 H2192 H 0.42470 0.25456 0.72845
 H2193 H 0.45228 0.27983 0.69824
 H2194 H 0.42156 0.26503 0.69605
 C2195 C 0.43974 0.77433 0.20704
 C2196 C 0.42220 0.77031 0.21185
 C2197 C 0.41833 0.78838 0.21208
 C2198 C 0.43565 0.79250 0.20716
 C2199 C 0.44417 0.77541 0.22492
 C2200 C 0.44031 0.79348 0.22515
 C2201 C 0.42685 0.77128 0.22984
 C2202 C 0.42276 0.78946 0.22996
 C2203 C 0.40397 0.79560 0.20489
 C2204 C 0.39215 0.80149 0.19892
 C2205 C 0.45863 0.76827 0.23199
 C2206 C 0.47070 0.76259 0.23764
 H2207 H 0.44688 0.76805 0.19767
 H2208 H 0.41457 0.76090 0.20627
 H2209 H 0.43906 0.80132 0.19775
 H2210 H 0.44792 0.80294 0.23067
 H2211 H 0.42341 0.76247 0.23924
 H2212 H 0.41560 0.79578 0.23928
 C2213 C 0.93463 0.28961 0.23222
 C2214 C 0.93384 0.29763 0.21544
 C2215 C 0.91816 0.28849 0.21205
 C2216 C 0.91872 0.28058 0.22871
 C2217 C 0.94402 0.27552 0.22483
 C2218 C 0.92835 0.26637 0.22143
 C2219 C 0.94347 0.28344 0.20817
 C2220 C 0.92756 0.27441 0.20466
 C2221 C 0.90376 0.29569 0.20491
 C2222 C 0.89193 0.30159 0.19898
 C2223 C 0.95849 0.26837 0.23188
 C2224 C 0.97057 0.26268 0.23751
 H2225 H 0.93770 0.29579 0.24362
 H2226 H 0.93592 0.31057 0.21287
 H2227 H 0.90837 0.27950 0.23706
 H2228 H 0.92626 0.25344 0.22398
 H2229 H 0.95380 0.28455 0.19978
 H2230 H 0.92448 0.26829 0.19323
 C2231 C 0.93286 0.78708 0.73385
 C2232 C 0.93269 0.79809 0.71884
 C2233 C 0.91837 0.78849 0.71224
 C2234 C 0.91832 0.77759 0.72713
 C2235 C 0.94424 0.77551 0.72501
 C2236 C 0.92993 0.76591 0.71839
 C2237 C 0.94430 0.78642 0.71011
 C2238 C 0.92976 0.77693 0.70339
 C2239 C 0.90397 0.79569 0.70510
 C2240 C 0.89214 0.80159 0.69916
 C2241 C 0.95871 0.76837 0.73206
 C2242 C 0.97078 0.76267 0.73769
 H2243 H 0.93430 0.79118 0.74645
 H2244 H 0.93365 0.81140 0.71891
 H2245 H 0.90745 0.77405 0.73403
 H2246 H 0.92896 0.75260 0.71828
 H2247 H 0.95514 0.78998 0.70318
 H2248 H 0.92831 0.77289 0.69077
 C2249 C 0.56005 0.29319 0.27419
 C2250 C 0.56447 0.29276 0.29226
 C2251 C 0.58181 0.28821 0.28771
 C2252 C 0.57761 0.28876 0.26975
 C2253 C 0.55595 0.27519 0.27497
 C2254 C 0.57328 0.27065 0.27043
 C2255 C 0.56013 0.27466 0.29293
 C2256 C 0.57769 0.27022 0.28850
 C2257 C 0.59622 0.29547 0.29483
 C2258 C 0.60804 0.30140 0.30076
 C2259 C 0.54147 0.26802 0.26793
 C2260 C 0.52940 0.26230 0.26231
 H2261 H 0.55265 0.30258 0.26824
 H2262 H 0.56103 0.30192 0.30132
 H2263 H 0.58497 0.29466 0.26032
 H2264 H 0.57674 0.26148 0.26138
 H2265 H 0.55279 0.26880 0.30241
 H2266 H 0.58511 0.26088 0.29450
 C2267 C 0.56052 0.79338 0.77386
 C2268 C 0.56453 0.79362 0.79202
 C2269 C 0.58185 0.78850 0.78807
 C2270 C 0.57806 0.78836 0.77001
 C2271 C 0.55597 0.77553 0.77531
 C2272 C 0.57328 0.77041 0.77136
 C2273 C 0.55976 0.77567 0.79337
 C2274 C 0.57730 0.77066 0.78953
 C2275 C 0.59624 0.79577 0.79521
 C2276 C 0.60806 0.80170 0.80116
 C2277 C 0.54147 0.76840 0.76826
 C2278 C 0.52939 0.76271 0.76263
 H2279 H 0.55347 0.80268 0.76737
 H2280 H 0.56112 0.80324 0.80062
 H2281 H 0.58576 0.79369 0.76051
 H2282 H 0.57671 0.76078 0.76278
 H2283 H 0.55207 0.77040 0.80292
 H2284 H 0.58435 0.76141 0.79608
 C2285 C 0.05998 0.29311 0.77400
 C2286 C 0.06418 0.29297 0.79212
 C2287 C 0.08151 0.28812 0.78788
 C2288 C 0.07753 0.28836 0.76986
 C2289 C 0.05563 0.27519 0.77509
 C2290 C 0.07295 0.27033 0.77084
 C2291 C 0.05960 0.27495 0.79311
 C2292 C 0.07715 0.27020 0.78897
 C2293 C 0.09593 0.29532 0.79502
 C2294 C 0.10776 0.30122 0.80096
 C2295 C 0.04114 0.26806 0.76802
 C2296 C 0.02906 0.26238 0.76239
 H2297 H 0.05277 0.30247 0.76778
 H2298 H 0.06076 0.30236 0.80096
 H2299 H 0.08507 0.29398 0.76040
 H2300 H 0.07639 0.26093 0.76202
 H2301 H 0.05207 0.26938 0.80261
 H2302 H 0.08437 0.26089 0.79525
 C2303 C 0.06008 0.79346 0.27416
 C2304 C 0.06446 0.79309 0.29223
 C2305 C 0.08178 0.78846 0.28774
 C2306 C 0.07762 0.78895 0.26977
 C2307 C 0.05590 0.77549 0.27500
 C2308 C 0.07322 0.77086 0.27051
 C2309 C 0.06006 0.77501 0.29298
 C2310 C 0.07760 0.77049 0.28860
 C2311 C 0.09619 0.79572 0.29485
 C2312 C 0.10803 0.80164 0.30075
 C2313 C 0.04140 0.76835 0.26798
 C2314 C 0.02931 0.76265 0.26237
 H2315 H 0.05272 0.80286 0.26817
 H2316 H 0.06106 0.80230 0.30126
 H2317 H 0.08502 0.79478 0.26032
 H2318 H 0.07665 0.76164 0.26150
 H2319 H 0.05268 0.76922 0.30247
 H2320 H 0.08497 0.76114 0.29464
 C2321 C 0.56047 0.72588 0.70730
 C2322 C 0.57801 0.72992 0.71214
 C2323 C 0.58189 0.71186 0.71242
 C2324 C 0.56458 0.70771 0.70747
 C2325 C 0.55600 0.72483 0.72518
 C2326 C 0.55988 0.70676 0.72544
 C2327 C 0.57331 0.72897 0.73012
 C2328 C 0.57741 0.71079 0.73028
 C2329 C 0.59632 0.70465 0.70528
 C2330 C 0.60816 0.69874 0.69935
 C2331 C 0.54151 0.73197 0.73222
 C2332 C 0.52942 0.73766 0.73785
 H2333 H 0.55336 0.73215 0.69791
 H2334 H 0.58563 0.73933 0.70656
 H2335 H 0.56119 0.69889 0.69806
 H2336 H 0.55226 0.69730 0.73097
 H2337 H 0.57673 0.73779 0.73951
 H2338 H 0.58454 0.70448 0.73962
 C2339 C 0.56014 0.22489 0.20692
 C2340 C 0.57768 0.22938 0.21131
 C2341 C 0.58187 0.21140 0.21214
 C2342 C 0.56456 0.20681 0.20764
 C2343 C 0.55599 0.22438 0.22489
 C2344 C 0.56017 0.20640 0.22571
 C2345 C 0.57330 0.22898 0.22939
 C2346 C 0.57771 0.21089 0.23011
 C2347 C 0.59626 0.20416 0.20497
 C2348 C 0.60809 0.19826 0.19902
 C2349 C 0.54150 0.23153 0.23193
 C2350 C 0.52942 0.23722 0.23756
 H2351 H 0.55276 0.23071 0.19745
 H2352 H 0.58505 0.23872 0.20528
 H2353 H 0.56116 0.19761 0.19860
 H2354 H 0.55281 0.19701 0.23169
 H2355 H 0.57671 0.23819 0.23842
 H2356 H 0.58511 0.20503 0.23954
 C2357 C 0.06000 0.72536 0.20694
 C2358 C 0.07755 0.72979 0.21137
 C2359 C 0.08170 0.71180 0.21208
 C2360 C 0.06438 0.70726 0.20755
 C2361 C 0.05585 0.72475 0.22492
 C2362 C 0.05999 0.70675 0.22562
 C2363 C 0.07317 0.72928 0.22945
 C2364 C 0.07754 0.71118 0.23005
 C2365 C 0.09609 0.70459 0.20491
 C2366 C 0.10791 0.69865 0.19897
 C2367 C 0.04137 0.73189 0.23199
 C2368 C 0.02930 0.73758 0.23763
 H2369 H 0.05266 0.73125 0.19749
 H2370 H 0.08496 0.73913 0.20539
 H2371 H 0.06098 0.69812 0.19846
 H2372 H 0.05261 0.69734 0.23154
 H2373 H 0.07661 0.73842 0.23852
 H2374 H 0.08492 0.70524 0.23945
 C2375 C 0.06939 0.21687 0.73460
 C2376 C 0.06944 0.20241 0.72288
 C2377 C 0.08143 0.21143 0.71213
 C2378 C 0.08161 0.22579 0.72373
 C2379 C 0.05558 0.22443 0.72493
 C2380 C 0.06757 0.23345 0.71416
 C2381 C 0.05540 0.21007 0.71332
 C2382 C 0.06762 0.21898 0.70246
 C2383 C 0.09584 0.20420 0.70500
 C2384 C 0.10769 0.19829 0.69908
 C2385 C 0.04112 0.23160 0.73199
 C2386 C 0.02904 0.23731 0.73763
 H2387 H 0.06997 0.21609 0.74789
 H2388 H 0.07039 0.18955 0.72634
 H2389 H 0.09257 0.23215 0.72790
 H2390 H 0.06665 0.24629 0.71064
 H2391 H 0.04448 0.20367 0.70910
 H2392 H 0.06708 0.21972 0.68916
 C2393 C 0.44034 0.72441 0.29308
 C2394 C 0.42280 0.72946 0.28928
 C2395 C 0.41823 0.71164 0.28773
 C2396 C 0.43555 0.70647 0.29164
 C2397 C 0.44411 0.72465 0.27501
 C2398 C 0.43955 0.70682 0.27347
 C2399 C 0.42680 0.72982 0.27111
 C2400 C 0.42201 0.71188 0.26967
 C2401 C 0.40380 0.70438 0.29480
 C2402 C 0.39195 0.69846 0.30069
 C2403 C 0.45860 0.73182 0.26799
 C2404 C 0.47068 0.73753 0.26239
 H2405 H 0.44803 0.72963 0.30264
 H2406 H 0.41575 0.73867 0.29589
 H2407 H 0.43896 0.69680 0.30017
 H2408 H 0.44658 0.69756 0.26691
 H2409 H 0.42336 0.73950 0.26259
 H2410 H 0.41429 0.70662 0.26015
 C2411 C 0.42655 0.22840 0.76992
 C2412 C 0.42262 0.21019 0.76999
 C2413 C 0.41800 0.21145 0.78780
 C2414 C 0.42171 0.22955 0.78786
 C2415 C 0.44386 0.22446 0.77504
 C2416 C 0.43925 0.22571 0.79287
 C2417 C 0.44016 0.20636 0.77501
 C2418 C 0.43531 0.20751 0.79293
 C2419 C 0.40358 0.20421 0.79491
 C2420 C 0.39173 0.19830 0.80081
 C2421 C 0.45835 0.23161 0.76800
 C2422 C 0.47043 0.23731 0.76238
 H2423 H 0.42312 0.23707 0.76038
 H2424 H 0.41561 0.20370 0.76069
 H2425 H 0.41396 0.23899 0.79325
 H2426 H 0.44624 0.23216 0.80222
 H2427 H 0.44790 0.19687 0.76966
 H2428 H 0.43873 0.19884 0.80249
 C2429 C 0.94223 0.72107 0.79315
 C2430 C 0.92510 0.72841 0.79253
 C2431 C 0.91840 0.71180 0.78801
 C2432 C 0.93531 0.70437 0.78875
 C2433 C 0.94424 0.72478 0.77518
 C2434 C 0.93754 0.70817 0.77067
 C2435 C 0.92734 0.73222 0.77445
 C2436 C 0.92041 0.71550 0.77004
 C2437 C 0.90403 0.70456 0.79521
 C2438 C 0.89222 0.69864 0.80117
 C2439 C 0.95872 0.73192 0.76811
 C2440 C 0.97079 0.73762 0.76247
 H2441 H 0.95135 0.72342 0.80260
 H2442 H 0.91982 0.73662 0.80163
 H2443 H 0.93840 0.69284 0.79473
 H2444 H 0.94282 0.69990 0.76162
 H2445 H 0.92423 0.74375 0.76849
 H2446 H 0.91127 0.71311 0.76063
 C2447 C 0.93963 0.22562 0.29283
 C2448 C 0.92208 0.22975 0.28812
 C2449 C 0.91818 0.21170 0.28770
 C2450 C 0.93551 0.20746 0.29253
 C2451 C 0.94403 0.22472 0.27493
 C2452 C 0.94013 0.20667 0.27452
 C2453 C 0.92670 0.22897 0.27010
 C2454 C 0.92257 0.21080 0.26980
 C2455 C 0.90381 0.20443 0.29487
 C2456 C 0.89200 0.19849 0.30083
 C2457 C 0.95850 0.23189 0.26788
 C2458 C 0.97058 0.23760 0.26225
 H2459 H 0.94681 0.23177 0.30224
 H2460 H 0.91450 0.23915 0.29382
 H2461 H 0.93895 0.19855 0.30184
 H2462 H 0.94770 0.19723 0.26888
 H2463 H 0.92326 0.23789 0.26080
 H2464 H 0.91539 0.20460 0.26043
 C2465 C 0.27047 0.27033 0.57313
 C2466 C 0.28860 0.26986 0.57746
 C2467 C 0.28783 0.28783 0.58166
 C2468 C 0.26982 0.28842 0.57756
 C2469 C 0.27496 0.27496 0.55584
 C2470 C 0.27420 0.29293 0.56005
 C2471 C 0.29298 0.27438 0.55995
 C2472 C 0.29231 0.29246 0.56438
 C2473 C 0.29500 0.29501 0.59604
 C2474 C 0.30090 0.30092 0.60786
 C2475 C 0.26788 0.26788 0.54137
 C2476 C 0.26224 0.26224 0.52929
 H2477 H 0.26142 0.26116 0.57658
 H2478 H 0.29464 0.26049 0.58480
 H2479 H 0.26041 0.29430 0.58498
 H2480 H 0.26821 0.30236 0.55273
 H2481 H 0.30244 0.26855 0.55255
 H2482 H 0.30138 0.30164 0.56097
 C2483 C 0.27082 0.77068 0.07307
 C2484 C 0.28893 0.77008 0.07750
 C2485 C 0.28829 0.78807 0.08160
 C2486 C 0.27030 0.78880 0.07741
 C2487 C 0.27543 0.77518 0.05578
 C2488 C 0.27481 0.79318 0.05989
 C2489 C 0.29343 0.77447 0.05998
 C2490 C 0.29290 0.79257 0.06432
 C2491 C 0.29545 0.79527 0.09598
 C2492 C 0.30135 0.80120 0.10779
 C2493 C 0.26837 0.76809 0.04131
 C2494 C 0.26274 0.76244 0.02923
 H2495 H 0.26167 0.76161 0.07652
 H2496 H 0.29484 0.76069 0.08491
 H2497 H 0.26091 0.79480 0.08475
 H2498 H 0.26894 0.80263 0.05250
 H2499 H 0.30288 0.76852 0.05266
 H2500 H 0.30206 0.80166 0.06091
 C2501 C 0.77056 0.27088 0.07320
 C2502 C 0.78867 0.27032 0.07758
 C2503 C 0.78799 0.28831 0.08172
 C2504 C 0.77000 0.28899 0.07756
 C2505 C 0.77513 0.27542 0.05590
 C2506 C 0.77446 0.29341 0.06004
 C2507 C 0.79313 0.27475 0.06007
 C2508 C 0.79256 0.29284 0.06443
 C2509 C 0.79517 0.29550 0.09610
 C2510 C 0.80107 0.30142 0.10791
 C2511 C 0.76805 0.26833 0.04143
 C2512 C 0.76241 0.26268 0.02935
 H2513 H 0.76143 0.26178 0.07665
 H2514 H 0.79462 0.26094 0.08498
 H2515 H 0.76061 0.29496 0.08493
 H2516 H 0.76856 0.30285 0.05268
 H2517 H 0.80258 0.26883 0.05272
 H2518 H 0.80170 0.30196 0.06102
 C2519 C 0.77073 0.77088 0.57338
 C2520 C 0.78885 0.77031 0.57776
 C2521 C 0.78818 0.78830 0.58191
 C2522 C 0.77018 0.78899 0.57776
 C2523 C 0.77529 0.77543 0.55609
 C2524 C 0.77463 0.79342 0.56024
 C2525 C 0.79329 0.77475 0.56024
 C2526 C 0.79273 0.79284 0.56461
 C2527 C 0.79536 0.79548 0.59628
 C2528 C 0.80127 0.80139 0.60810
 C2529 C 0.76820 0.76835 0.54162
 C2530 C 0.76255 0.76271 0.52954
 H2531 H 0.76161 0.76178 0.57684
 H2532 H 0.79480 0.76092 0.58514
 H2533 H 0.76079 0.79495 0.58514
 H2534 H 0.76872 0.80287 0.55289
 H2535 H 0.80273 0.76884 0.55288
 H2536 H 0.80187 0.80196 0.56120
 C2537 C 0.27021 0.72895 0.42669
 C2538 C 0.28822 0.72993 0.42199
 C2539 C 0.28802 0.71187 0.41813
 C2540 C 0.27012 0.71077 0.42261
 C2541 C 0.27519 0.72481 0.44397
 C2542 C 0.27499 0.70674 0.44011
 C2543 C 0.29309 0.72590 0.43949
 C2544 C 0.29299 0.70773 0.43541
 C2545 C 0.29517 0.70465 0.40375
 C2546 C 0.30106 0.69871 0.39192
 C2547 C 0.26813 0.73191 0.45846
 C2548 C 0.26251 0.73758 0.47054
 H2549 H 0.26076 0.73774 0.42325
 H2550 H 0.29378 0.73936 0.41435
 H2551 H 0.26079 0.70443 0.41549
 H2552 H 0.26949 0.69726 0.44772
 H2553 H 0.30248 0.73219 0.44658
 H2554 H 0.30245 0.69893 0.43881
 C2555 C 0.29013 0.21395 0.94413
 C2556 C 0.28153 0.20201 0.93274
 C2557 C 0.28782 0.21163 0.91830
 C2558 C 0.29653 0.22346 0.92947
 C2559 C 0.27496 0.22454 0.94413
 C2560 C 0.28126 0.23416 0.92969
 C2561 C 0.26626 0.21270 0.93296
 C2562 C 0.27266 0.22222 0.91829
 C2563 C 0.29498 0.20442 0.90391
 C2564 C 0.30087 0.19849 0.89209
 C2565 C 0.26790 0.23164 0.95862
 C2566 C 0.26227 0.23731 0.97070
 H2567 H 0.29725 0.21061 0.95491
 H2568 H 0.28176 0.18870 0.93381
 H2569 H 0.30906 0.22776 0.92786
 H2570 H 0.28107 0.24746 0.92859
 H2571 H 0.25374 0.20834 0.93454
 H2572 H 0.26558 0.22551 0.90748
 C2573 C 0.79302 0.71986 0.94293
 C2574 C 0.78763 0.70385 0.93511
 C2575 C 0.78819 0.71201 0.91857
 C2576 C 0.79369 0.72791 0.92617
 C2577 C 0.77528 0.72489 0.94440
 C2578 C 0.77585 0.73306 0.92786
 C2579 C 0.76979 0.70899 0.93680
 C2580 C 0.77045 0.71704 0.92003
 C2581 C 0.79537 0.70482 0.90418
 C2582 C 0.80128 0.69891 0.89236
 C2583 C 0.76820 0.73197 0.95888
 C2584 C 0.76255 0.73762 0.97096
 H2585 H 0.80224 0.72107 0.95250
 H2586 H 0.79257 0.69177 0.93790
 H2587 H 0.80363 0.73557 0.92162
 H2588 H 0.77092 0.74514 0.92503
 H2589 H 0.75989 0.70126 0.94132
 H2590 H 0.76128 0.71577 0.91043
 C2591 C 0.79279 0.21967 0.44254
 C2592 C 0.78741 0.20365 0.43474
 C2593 C 0.78795 0.21180 0.41819
 C2594 C 0.79344 0.22771 0.42577
 C2595 C 0.77505 0.22468 0.44401
 C2596 C 0.77559 0.23283 0.42747
 C2597 C 0.76957 0.20876 0.43643
 C2598 C 0.77021 0.21680 0.41966
 C2599 C 0.79514 0.20461 0.40381
 C2600 C 0.80105 0.19869 0.39198
 C2601 C 0.76796 0.23176 0.45849
 C2602 C 0.76231 0.23741 0.47058
 H2603 H 0.80201 0.22090 0.45211
 H2604 H 0.79238 0.19157 0.43754
 H2605 H 0.80337 0.23538 0.42122
 H2606 H 0.77064 0.24491 0.42464
 H2607 H 0.75968 0.20103 0.44096
 H2608 H 0.76104 0.21552 0.41006
 C2609 C 0.72993 0.27126 0.42673
 C2610 C 0.71198 0.27001 0.42188
 C2611 C 0.71190 0.28810 0.41817
 C2612 C 0.72974 0.28948 0.42280
 C2613 C 0.72475 0.27517 0.44400
 C2614 C 0.72466 0.29327 0.44029
 C2615 C 0.70690 0.27380 0.43938
 C2616 C 0.70671 0.29201 0.43544
 C2617 C 0.70474 0.29532 0.40378
 C2618 C 0.69885 0.30124 0.39195
 C2619 C 0.73180 0.26806 0.45849
 C2620 C 0.73743 0.26239 0.47057
 H2621 H 0.73956 0.26266 0.42330
 H2622 H 0.70665 0.26055 0.41413
 H2623 H 0.73902 0.29603 0.41580
 H2624 H 0.72994 0.30278 0.44801
 H2625 H 0.69757 0.26729 0.44635
 H2626 H 0.69708 0.30062 0.43884
 C2627 C 0.73016 0.77144 0.92712
 C2628 C 0.71220 0.77017 0.92227
 C2629 C 0.71211 0.78826 0.91855
 C2630 C 0.72995 0.78965 0.92317
 C2631 C 0.72497 0.77535 0.94439
 C2632 C 0.72487 0.79345 0.94067
 C2633 C 0.70712 0.77397 0.93977
 C2634 C 0.70692 0.79217 0.93582
 C2635 C 0.70493 0.79545 0.90416
 C2636 C 0.69903 0.80137 0.89233
 C2637 C 0.73204 0.76826 0.95888
 C2638 C 0.73767 0.76261 0.97096
 H2639 H 0.73979 0.76284 0.92370
 H2640 H 0.70688 0.76070 0.91453
 H2641 H 0.73921 0.79621 0.91617
 H2642 H 0.73014 0.80297 0.94838
 H2643 H 0.69780 0.76745 0.94675
 H2644 H 0.69728 0.80078 0.93921
 C2645 C 0.20663 0.27861 0.94211
 C2646 C 0.21093 0.29535 0.93518
 C2647 C 0.21175 0.28791 0.91832
 C2648 C 0.20734 0.27128 0.92502
 C2649 C 0.22466 0.27503 0.94414
 C2650 C 0.22549 0.26759 0.92728
 C2651 C 0.22906 0.29167 0.93744
 C2652 C 0.22978 0.28435 0.92035
 C2653 C 0.20456 0.29509 0.90393
 C2654 C 0.19865 0.30099 0.89210
 C2655 C 0.23175 0.26795 0.95862
 C2656 C 0.23740 0.26231 0.97070
 H2657 H 0.19717 0.27619 0.95121
 H2658 H 0.20485 0.30684 0.93824
 H2659 H 0.19830 0.26301 0.91974
 H2660 H 0.23155 0.25611 0.92419
 H2661 H 0.23806 0.30000 0.94270
 H2662 H 0.23919 0.28682 0.91122
 C2663 C 0.20685 0.77538 0.44020
 C2664 C 0.20810 0.79334 0.43540
 C2665 C 0.21209 0.78822 0.41813
 C2666 C 0.21073 0.77037 0.42270
 C2667 C 0.22495 0.77532 0.44397
 C2668 C 0.22894 0.77020 0.42670
 C2669 C 0.22630 0.79317 0.43940
 C2670 C 0.23018 0.78816 0.42191
 C2671 C 0.20492 0.79541 0.40374
 C2672 C 0.19902 0.80133 0.39192
 C2673 C 0.23201 0.76823 0.45846
 C2674 C 0.23765 0.76258 0.47054
 H2675 H 0.19731 0.77006 0.44787
 H2676 H 0.19944 0.80293 0.43879
 H2677 H 0.20421 0.76111 0.41565
 H2678 H 0.23758 0.76062 0.42327
 H2679 H 0.23277 0.80249 0.44642
 H2680 H 0.23966 0.79353 0.41420
 C2681 C 0.72950 0.72956 0.57343
 C2682 C 0.71139 0.73008 0.57782
 C2683 C 0.71211 0.71210 0.58198
 C2684 C 0.73011 0.71146 0.57781
 C2685 C 0.72496 0.72501 0.55614
 C2686 C 0.72566 0.70702 0.56030
 C2687 C 0.70695 0.72563 0.56031
 C2688 C 0.70756 0.70754 0.56470
 C2689 C 0.70494 0.70489 0.59637
 C2690 C 0.69905 0.69897 0.60821
 C2691 C 0.73203 0.73211 0.54165
 C2692 C 0.73766 0.73777 0.52956
 H2693 H 0.73860 0.73869 0.57687
 H2694 H 0.70541 0.73946 0.58520
 H2695 H 0.73951 0.70552 0.58519
 H2696 H 0.73160 0.69758 0.55295
 H2697 H 0.69749 0.73152 0.55296
 H2698 H 0.69845 0.69840 0.56129
 C2699 C 0.72941 0.22943 0.07321
 C2700 C 0.71129 0.22987 0.07759
 C2701 C 0.71208 0.21189 0.08173
 C2702 C 0.73008 0.21133 0.07758
 C2703 C 0.72490 0.22487 0.05591
 C2704 C 0.72567 0.20688 0.06006
 C2705 C 0.70689 0.22542 0.06007
 C2706 C 0.70756 0.20733 0.06444
 C2707 C 0.70493 0.20465 0.09611
 C2708 C 0.69905 0.19870 0.10793
 C2709 C 0.73195 0.23201 0.04144
 C2710 C 0.73757 0.23769 0.02936
 H2711 H 0.73847 0.23860 0.07667
 H2712 H 0.70527 0.23922 0.08497
 H2713 H 0.73951 0.20542 0.08496
 H2714 H 0.73165 0.19748 0.05271
 H2715 H 0.69740 0.23128 0.05272
 H2716 H 0.69849 0.19816 0.06102
 C2717 C 0.22950 0.72942 0.07308
 C2718 C 0.21137 0.72996 0.07742
 C2719 C 0.21206 0.71198 0.08160
 C2720 C 0.23008 0.71132 0.07749
 C2721 C 0.22501 0.72484 0.05579
 C2722 C 0.22569 0.70685 0.05998
 C2723 C 0.20699 0.72549 0.05990
 C2724 C 0.20757 0.70740 0.06431
 C2725 C 0.20485 0.70481 0.09598
 C2726 C 0.19892 0.69890 0.10780
 C2727 C 0.23212 0.73191 0.04131
 C2728 C 0.23779 0.73755 0.02924
 H2729 H 0.23860 0.73855 0.07654
 H2730 H 0.20538 0.73935 0.08477
 H2731 H 0.23946 0.70539 0.08491
 H2732 H 0.23163 0.69741 0.05265
 H2733 H 0.19755 0.73137 0.05251
 H2734 H 0.19847 0.69826 0.06090
 C2735 C 0.22517 0.20657 0.55993
 C2736 C 0.22967 0.21093 0.57744
 C2737 C 0.21169 0.21168 0.58164
 C2738 C 0.20708 0.20721 0.56435
 C2739 C 0.22458 0.22457 0.55582
 C2740 C 0.20659 0.22532 0.56002
 C2741 C 0.22919 0.22905 0.57312
 C2742 C 0.21109 0.22968 0.57754
 C2743 C 0.20450 0.20449 0.59601
 C2744 C 0.19858 0.19856 0.60783
 C2745 C 0.23168 0.23167 0.54135
 C2746 C 0.23733 0.23732 0.52928
 H2747 H 0.23103 0.19712 0.55254
 H2748 H 0.23905 0.20490 0.58479
 H2749 H 0.19790 0.19814 0.56094
 H2750 H 0.19716 0.23129 0.55270
 H2751 H 0.23836 0.23810 0.57657
 H2752 H 0.20519 0.23907 0.58496
   
