data_POSCAR
  _audit_creation_date              2014-09-24
  _audit_creation_method            'ToBaCCo'
  _symmetry_space_group_name_H-M    'P1'
  _symmetry_Int_Tables_number       1
  _symmetry_cell_setting            triclinic
  loop_
  _symmetry_equiv_pos_as_xyz
 x,y,z
_cell_length_a 88.3470
_cell_length_b 88.3382
_cell_length_c 88.4295
_cell_angle_alpha 90.007000
_cell_angle_beta 90.004500
_cell_angle_gamma 90.009700
loop_
  _atom_site_label
  _atom_site_type_symbol
  _atom_site_fract_x
  _atom_site_fract_y
  _atom_site_fract_z
C1 C 0.35666 0.33776 0.33790
 N2 N 0.35031 0.35032 0.33171
 C3 C 0.33777 0.35669 0.33792
 N4 N 0.33156 0.35033 0.35046
 C5 C 0.33776 0.33777 0.35681
 N6 N 0.35031 0.33156 0.35044
 C7 C 0.35675 0.83760 -0.16266
 N8 N 0.35032 0.85014 -0.16886
 C9 C 0.33776 0.85653 -0.16268
 N10 N 0.33162 0.85017 -0.15009
 C11 C 0.33786 0.83766 -0.14371
 N12 N 0.35041 0.83145 -0.15007
 C13 C 0.85654 0.33800 -0.16251
 N14 N 0.85016 0.35053 -0.16873
 C15 C 0.83758 0.35691 -0.16257
 N16 N 0.83141 0.35054 -0.14999
 C17 C 0.83763 0.33801 -0.14361
 N18 N 0.85019 0.33181 -0.14996
 C19 C 0.85683 0.83737 0.33751
 N20 N 0.85044 0.84994 0.33134
 C21 C 0.83792 0.85634 0.33757
 N22 N 0.83174 0.85001 0.35013
 C23 C 0.83795 0.83746 0.35649
 N24 N 0.85047 0.83122 0.35010
 C25 C 0.64374 0.66251 0.33772
 N26 N 0.65011 0.64997 0.33150
 C27 C 0.66265 0.64359 0.33771
 N28 N 0.66884 0.64993 0.35027
 C29 C 0.66263 0.66247 0.35665
 N30 N 0.65009 0.66869 0.35028
 C31 C 0.64356 0.16265 -0.16280
 N32 N 0.64998 0.15010 -0.16899
 C33 C 0.66254 0.14371 -0.16280
 N34 N 0.66869 0.15008 -0.15022
 C35 C 0.66246 0.16261 -0.14385
 N36 N 0.64992 0.16881 -0.15022
 C37 C 0.14401 0.66235 -0.16254
 N38 N 0.15039 0.64981 -0.16876
 C39 C 0.16296 0.64342 -0.16259
 N40 N 0.16913 0.64979 -0.15001
 C41 C 0.16291 0.66233 -0.14363
 N42 N 0.15036 0.66854 -0.14998
 C43 C 0.14362 0.16260 0.33727
 N44 N 0.15003 0.15004 0.33109
 C45 C 0.16258 0.14363 0.33728
 N46 N 0.16872 0.14998 0.34987
 C47 C 0.16250 0.16252 0.35624
 N48 N 0.14997 0.16874 0.34987
 C49 C 0.64359 0.33770 0.66221
 N50 N 0.64994 0.33150 0.64965
 C51 C 0.66248 0.33772 0.64329
 N52 N 0.66870 0.35027 0.64965
 C53 C 0.66251 0.35661 0.66221
 N54 N 0.64997 0.35024 0.66842
 C55 C 0.64365 0.83763 1.16275
 N56 N 0.65002 0.83146 1.15017
 C57 C 0.66256 0.83767 1.14381
 N58 N 0.66878 0.85021 1.15017
 C59 C 0.66262 0.85659 1.16274
 N60 N 0.65006 0.85019 1.16892
 C61 C 0.14355 0.33734 1.16265
 N62 N 0.14993 0.33118 1.15008
 C63 C 0.16245 0.33742 1.14370
 N64 N 0.16864 0.34999 1.15004
 C65 C 0.16244 0.35633 1.16259
 N66 N 0.14992 0.34993 1.16882
 C67 C 0.14359 0.83761 0.66274
 N68 N 0.14993 0.83147 0.65014
 C69 C 0.16246 0.83769 0.64377
 N70 N 0.16870 0.85021 0.65016
 C71 C 0.16257 0.85655 0.66276
 N72 N 0.15001 0.85015 0.66894
 C73 C 0.35666 0.66262 0.66227
 N74 N 0.35030 0.66882 0.64973
 C75 C 0.33776 0.66260 0.64337
 N76 N 0.33155 0.65005 0.64972
 C77 C 0.33776 0.64369 0.66226
 N78 N 0.35031 0.65006 0.66847
 C79 C 0.35660 0.16251 1.16293
 N80 N 0.35026 0.16865 1.15033
 C81 C 0.33772 0.16243 1.14396
 N82 N 0.33148 0.14991 1.15035
 C83 C 0.33762 0.14357 1.16295
 N84 N 0.35018 0.14997 1.16913
 C85 C 0.85668 0.66254 1.16282
 N86 N 0.85031 0.66870 1.15024
 C87 C 0.83778 0.66247 1.14386
 N88 N 0.83157 0.64992 1.15022
 C89 C 0.83773 0.64356 1.16280
 N90 N 0.85028 0.64997 1.16899
 C91 C 0.85636 0.16233 0.66237
 N92 N 0.85003 0.16852 0.64981
 C93 C 0.83746 0.16232 0.64347
 N94 N 0.83121 0.14981 0.64986
 C95 C 0.83736 0.14345 0.66245
 N96 N 0.84995 0.14982 0.66861
 C97 C 0.33766 0.35642 0.66262
 N98 N 0.33145 0.35006 0.65008
 C99 C 0.33765 0.33750 0.64372
 N100 N 0.35019 0.33129 0.65008
 C101 C 0.35656 0.33750 0.66262
 N102 N 0.35020 0.35005 0.66883
 C103 C 0.33786 0.85711 0.16231
 N104 N 0.35043 0.85077 0.16851
 C105 C 0.35681 0.83823 0.16229
 N106 N 0.35044 0.83202 0.14975
 C107 C 0.33788 0.83820 0.14341
 N108 N 0.33165 0.85074 0.14978
 C109 C 0.83818 0.35658 0.16216
 N110 N 0.85072 0.35020 0.16837
 C111 C 0.85705 0.33763 0.16218
 N112 N 0.85067 0.33142 0.14964
 C113 C 0.83813 0.33764 0.14329
 N114 N 0.83195 0.35022 0.14963
 C115 C 0.83789 0.85704 0.66252
 N116 N 0.83169 0.85067 0.64998
 C117 C 0.83791 0.83813 0.64362
 N118 N 0.85048 0.83194 0.64997
 C119 C 0.85683 0.83816 0.66251
 N120 N 0.85045 0.85070 0.66872
 C121 C 0.66254 0.64370 0.66269
 N122 N 0.65000 0.65007 0.66891
 C123 C 0.64364 0.66262 0.66271
 N124 N 0.64999 0.66882 0.65015
 C125 C 0.66253 0.66260 0.64379
 N126 N 0.66873 0.65005 0.65014
 C127 C 0.66225 0.14321 0.16199
 N128 N 0.64969 0.14956 0.16819
 C129 C 0.64333 0.16212 0.16199
 N130 N 0.64970 0.16834 0.14946
 C131 C 0.66226 0.16214 0.14311
 N132 N 0.66847 0.14959 0.14946
 C133 C 0.16225 0.64357 0.16220
 N134 N 0.14969 0.64993 0.16839
 C135 C 0.14334 0.66248 0.16219
 N136 N 0.14971 0.66870 0.14966
 C137 C 0.16227 0.66250 0.14332
 N138 N 0.16847 0.64994 0.14967
 C139 C 0.16238 0.14301 0.66242
 N140 N 0.16858 0.14936 0.64987
 C141 C 0.16236 0.16190 0.64351
 N142 N 0.14982 0.16811 0.64987
 C143 C 0.14346 0.16192 0.66242
 N144 N 0.14983 0.14937 0.66863
 C145 C 0.33782 0.64389 0.33753
 N146 N 0.35036 0.65026 0.33133
 C147 C 0.35672 0.66282 0.33753
 N148 N 0.35036 0.66903 0.35007
 C149 C 0.33781 0.66281 0.35643
 N150 N 0.33161 0.65025 0.35008
 C151 C 0.33791 0.14301 0.83789
 N152 N 0.33170 0.14937 0.85043
 C153 C 0.33791 0.16193 0.85679
 N154 N 0.35047 0.16813 0.85044
 C155 C 0.35683 0.16192 0.83790
 N156 N 0.35047 0.14937 0.83169
 C157 C 0.83811 0.64361 0.83785
 N158 N 0.85065 0.64998 0.83163
 C159 C 0.85700 0.66254 0.83782
 N160 N 0.85065 0.66875 0.85037
 C161 C 0.83811 0.66253 0.85674
 N162 N 0.83191 0.64997 0.85039
 C163 C 0.83793 0.14331 0.33747
 N164 N 0.83172 0.14967 0.35001
 C165 C 0.83794 0.16222 0.35638
 N166 N 0.85051 0.16842 0.35004
 C167 C 0.85687 0.16221 0.33750
 N168 N 0.85050 0.14966 0.33128
 C169 C 0.66262 0.35657 0.33721
 N170 N 0.65007 0.35021 0.33100
 C171 C 0.64369 0.33766 0.33722
 N172 N 0.65004 0.33147 0.34977
 C173 C 0.66259 0.33768 0.35613
 N174 N 0.66881 0.35022 0.34977
 C175 C 0.66251 0.85704 0.83804
 N176 N 0.64994 0.85069 0.83186
 C177 C 0.64358 0.83813 0.83806
 N178 N 0.64997 0.83191 0.85058
 C179 C 0.66253 0.83811 0.85692
 N180 N 0.66874 0.85067 0.85056
 C181 C 0.16245 0.35662 0.83794
 N182 N 0.16866 0.35024 0.85047
 C183 C 0.16245 0.33768 0.85680
 N184 N 0.14991 0.33147 0.85044
 C185 C 0.14354 0.33769 0.83790
 N186 N 0.14990 0.35026 0.83172
 C187 C 0.16217 0.85693 0.33758
 N188 N 0.16838 0.85058 0.35013
 C189 C 0.16218 0.83802 0.35649
 N190 N 0.14963 0.83180 0.35013
 C191 C 0.14327 0.83799 0.33758
 N192 N 0.14963 0.85055 0.33137
 O193 O 0.24840 1.01532 0.26931
 O194 O 0.26923 0.98582 0.24852
 O195 O 0.26925 1.01533 0.24855
 O196 O 0.24839 0.98581 0.26929
 O197 O 0.23076 0.98583 0.25162
 O198 O 0.25163 1.01535 0.23089
 O199 O 0.25161 0.98584 0.23085
 O200 O 0.23077 1.01534 0.25164
 Cu201 Cu 0.26058 1.00057 0.26069
 Cu202 Cu 0.23943 1.00059 0.23948
 C203 C 0.23604 1.02042 0.26401
 C204 C 0.26396 0.98074 0.23615
 C205 C 0.26399 1.02043 0.23619
 C206 C 0.23603 0.98072 0.26398
 O207 O 0.25166 0.51492 0.73093
 O208 O 0.23086 0.48547 0.75181
 O209 O 0.23088 0.51497 0.75177
 O210 O 0.25164 0.48541 0.73099
 O211 O 0.26932 0.48544 0.74860
 O212 O 0.24856 0.51499 0.76938
 O213 O 0.24854 0.48548 0.76942
 O214 O 0.26934 0.51494 0.74854
 Cu215 Cu 0.23949 0.50019 0.73961
 Cu216 Cu 0.26071 0.50022 0.76075
 C217 C 0.26404 0.52002 0.73619
 C218 C 0.23616 0.48039 0.76417
 C219 C 0.23619 0.52009 0.76411
 C220 C 0.26402 0.48032 0.73626
 O221 O 0.74845 -0.01502 0.23060
 O222 O 0.76928 0.01452 0.25135
 O223 O 0.76929 -0.01498 0.25138
 O224 O 0.74846 0.01449 0.23056
 O225 O 0.73082 0.01451 0.24820
 O226 O 0.75165 -0.01496 0.26903
 O227 O 0.75164 0.01454 0.26899
 O228 O 0.73081 -0.01500 0.24825
 Cu229 Cu 0.76064 -0.00025 0.23920
 Cu230 Cu 0.73946 -0.00023 0.26039
 C231 C 0.73609 -0.02011 0.23590
 C232 C 0.76401 0.01963 0.26370
 C233 C 0.76402 -0.02006 0.26375
 C234 C 0.73609 0.01958 0.23584
 O235 O 0.75188 0.48524 0.76938
 O236 O 0.73108 0.51478 0.74862
 O237 O 0.73108 0.48528 0.74857
 O238 O 0.75191 0.51475 0.76941
 O239 O 0.76956 0.51476 0.75177
 O240 O 0.74873 0.48530 0.73093
 O241 O 0.74873 0.51480 0.73099
 O242 O 0.76954 0.48526 0.75175
 Cu243 Cu 0.73972 0.50001 0.76076
 Cu244 Cu 0.76091 0.50003 0.73959
 C245 C 0.76425 0.48015 0.76409
 C246 C 0.73637 0.51989 0.73627
 C247 C 0.73636 0.48020 0.73620
 C248 C 0.76428 0.51985 0.76414
 O249 O 0.24847 0.48537 0.23088
 O250 O 0.26928 0.51492 0.25162
 O251 O 0.26928 0.48541 0.25168
 O252 O 0.24846 0.51487 0.23082
 O253 O 0.23081 0.51489 0.24846
 O254 O 0.25163 0.48544 0.26931
 O255 O 0.25163 0.51495 0.26925
 O256 O 0.23082 0.48539 0.24851
 Cu257 Cu 0.26064 0.50014 0.23948
 Cu258 Cu 0.23945 0.50017 0.26065
 C259 C 0.23610 0.48028 0.23616
 C260 C 0.26400 0.52004 0.26396
 C261 C 0.26400 0.48034 0.26405
 C262 C 0.23609 0.51997 0.23609
 O263 O 0.74842 1.01541 0.76928
 O264 O 0.76926 0.98589 0.74853
 O265 O 0.76922 1.01539 0.74847
 O266 O 0.74847 0.98591 0.76935
 O267 O 0.73080 0.98584 0.75173
 O268 O 0.75156 1.01533 0.73085
 O269 O 0.75159 0.98582 0.73091
 O270 O 0.73076 1.01535 0.75166
 Cu271 Cu 0.76061 1.00066 0.76067
 Cu272 Cu 0.73940 1.00058 0.73952
 C273 C 0.73604 1.02048 0.76400
 C274 C 0.76397 0.98076 0.73619
 C275 C 0.76392 1.02045 0.73611
 C276 C 0.73610 0.98078 0.76409
 O277 O 0.73127 0.48547 0.25131
 O278 O 0.75210 0.51502 0.23059
 O279 O 0.75211 0.48552 0.23054
 O280 O 0.73127 0.51498 0.25137
 O281 O 0.74891 0.51495 0.26902
 O282 O 0.76975 0.48550 0.24819
 O283 O 0.76973 0.51500 0.24824
 O284 O 0.74891 0.48545 0.26896
 Cu285 Cu 0.73992 0.50025 0.23918
 Cu286 Cu 0.76109 0.50022 0.26037
 C287 C 0.73655 0.48036 0.26366
 C288 C 0.76446 0.52012 0.23589
 C289 C 0.76448 0.48042 0.23582
 C290 C 0.73654 0.52005 0.26374
 O291 O 0.26939 0.01421 0.75169
 O292 O 0.24856 -0.01529 0.73089
 O293 O 0.24857 0.01422 0.73089
 O294 O 0.26940 -0.01529 0.75166
 O295 O 0.25176 -0.01531 0.76931
 O296 O 0.23093 0.01421 0.74854
 O297 O 0.23092 -0.01530 0.74854
 O298 O 0.25175 0.01420 0.76934
 Cu299 Cu 0.26075 -0.00054 0.73952
 Cu300 Cu 0.23957 -0.00055 0.76070
 C301 C 0.26411 0.01930 0.76405
 C302 C 0.23619 -0.02039 0.73617
 C303 C 0.23620 0.01931 0.73618
 C304 C 0.26413 -0.02039 0.76402
 O305 O 0.24862 0.26904 0.98544
 O306 O 0.26943 0.24823 1.01492
 O307 O 0.26943 0.24821 0.98545
 O308 O 0.24860 0.26904 1.01491
 O309 O 0.23095 0.25138 1.01491
 O310 O 0.25177 0.23055 0.98545
 O311 O 0.25178 0.23058 1.01492
 O312 O 0.23097 0.25138 0.98543
 Cu313 Cu 0.26079 0.26040 1.00018
 Cu314 Cu 0.23960 0.23920 1.00018
 C315 C 0.23625 0.26375 0.98035
 C316 C 0.26414 0.23587 1.02002
 C317 C 0.26414 0.23584 0.98036
 C318 C 0.23623 0.26375 1.02000
 O319 O 0.24837 0.76960 0.48523
 O320 O 0.26921 0.74878 0.51468
 O321 O 0.26921 0.74882 0.48521
 O322 O 0.24837 0.76958 0.51470
 O323 O 0.23074 0.75190 0.51469
 O324 O 0.25158 0.73114 0.48519
 O325 O 0.25158 0.73111 0.51466
 O326 O 0.23074 0.75193 0.48521
 Cu327 Cu 0.26056 0.76097 0.49996
 Cu328 Cu 0.23939 0.73975 0.49994
 C329 C 0.23601 0.76431 0.48013
 C330 C 0.26394 0.73640 0.51976
 C331 C 0.26394 0.73644 0.48011
 C332 C 0.23601 0.76427 0.51979
 O333 O 0.24869 0.73097 0.01476
 O334 O 0.26955 0.75176 -0.01471
 O335 O 0.26950 0.75180 0.01476
 O336 O 0.24876 0.73091 -0.01472
 O337 O 0.23109 0.74855 -0.01478
 O338 O 0.25184 0.76944 0.01471
 O339 O 0.25188 0.76939 -0.01477
 O340 O 0.23103 0.74861 0.01470
 Cu341 Cu 0.26090 0.73959 0.00003
 Cu342 Cu 0.23969 0.76077 -0.00004
 C343 C 0.23631 0.73625 0.01982
 C344 C 0.26426 0.76411 -0.01983
 C345 C 0.26420 0.76418 0.01982
 C346 C 0.23639 0.73618 -0.01984
 O347 O 0.23076 0.24829 0.48537
 O348 O 0.25155 0.26906 0.51490
 O349 O 0.25157 0.26911 0.48543
 O350 O 0.23075 0.24822 0.51485
 O351 O 0.24841 0.23058 0.51482
 O352 O 0.26923 0.25147 0.48540
 O353 O 0.26921 0.25142 0.51487
 O354 O 0.24842 0.23065 0.48534
 Cu355 Cu 0.23939 0.26044 0.50014
 Cu356 Cu 0.26059 0.23926 0.50011
 C357 C 0.23605 0.23594 0.48026
 C358 C 0.26392 0.26378 0.51998
 C359 C 0.26394 0.26385 0.48033
 C360 C 0.23604 0.23585 0.51992
 O361 O 0.73104 0.75170 1.01495
 O362 O 0.75189 0.73092 0.98547
 O363 O 0.75186 0.73089 1.01494
 O364 O 0.73107 0.75174 0.98547
 O365 O 0.74872 0.76939 0.98551
 O366 O 0.76951 0.74854 1.01499
 O367 O 0.76954 0.74858 0.98551
 O368 O 0.74869 0.76936 1.01499
 Cu369 Cu 0.73970 0.73954 1.00020
 Cu370 Cu 0.76088 0.76074 1.00025
 C371 C 0.73632 0.76406 1.02006
 C372 C 0.76426 0.73621 0.98040
 C373 C 0.76422 0.73617 1.02005
 C374 C 0.73636 0.76411 0.98041
 O375 O 0.74855 0.26923 0.48501
 O376 O 0.76931 0.24839 0.51451
 O377 O 0.76935 0.24840 0.48504
 O378 O 0.74853 0.26924 0.51449
 O379 O 0.73086 0.25160 0.51447
 O380 O 0.75168 0.23076 0.48502
 O381 O 0.75164 0.23076 0.51449
 O382 O 0.73088 0.25159 0.48499
 Cu383 Cu 0.76071 0.26058 0.49977
 Cu384 Cu 0.73949 0.23941 0.49974
 C385 C 0.73618 0.26395 0.47991
 C386 C 0.76401 0.23603 0.51960
 C387 C 0.76406 0.23603 0.47994
 C388 C 0.73615 0.26396 0.51957
 O389 O 0.73083 0.24856 -0.01488
 O390 O 0.75169 0.26932 0.01463
 O391 O 0.75164 0.26939 -0.01485
 O392 O 0.73085 0.24851 0.01459
 O393 O 0.74849 0.23086 0.01454
 O394 O 0.76929 0.25174 -0.01490
 O395 O 0.76933 0.25166 0.01457
 O396 O 0.74848 0.23091 -0.01493
 Cu397 Cu 0.73948 0.26072 -0.00012
 Cu398 Cu 0.76067 0.23952 -0.00018
 C399 C 0.73611 0.23620 -0.02000
 C400 C 0.76406 0.26402 0.01969
 C401 C 0.76401 0.26412 -0.01996
 C402 C 0.73613 0.23613 0.01965
 O403 O 0.76952 0.75169 0.48550
 O404 O 0.74867 0.73093 0.51499
 O405 O 0.74868 0.73089 0.48551
 O406 O 0.76949 0.75175 0.51497
 O407 O 0.75185 0.76941 0.51493
 O408 O 0.73104 0.74855 0.48548
 O409 O 0.73103 0.74859 0.51495
 O410 O 0.75188 0.76935 0.48545
 Cu411 Cu 0.76086 0.73955 0.50025
 Cu412 Cu 0.73968 0.76075 0.50020
 C413 C 0.76425 0.76405 0.48038
 C414 C 0.73631 0.73623 0.52006
 C415 C 0.73632 0.73617 0.48041
 C416 C 0.76421 0.76413 0.52004
 O417 O 1.01533 0.23064 0.25153
 O418 O 0.98583 0.25144 0.23072
 O419 O 1.01533 0.25145 0.23073
 O420 O 0.98582 0.23063 0.25152
 O421 O 0.98581 0.24829 0.26915
 O422 O 1.01532 0.26911 0.24836
 O423 O 0.98582 0.26910 0.24834
 O424 O 1.01532 0.24830 0.26916
 Cu425 Cu 1.00058 0.23927 0.23936
 Cu426 Cu 1.00057 0.26047 0.26052
 C427 C 1.02042 0.23593 0.26389
 C428 C 0.98073 0.26381 0.23599
 C429 C 1.02042 0.26383 0.23601
 C430 C 0.98072 0.23592 0.26388
 O431 O 0.48548 0.25134 0.73093
 O432 O 0.51505 0.23056 0.75166
 O433 O 0.48554 0.23052 0.75172
 O434 O 0.51498 0.25137 0.73087
 O435 O 0.51499 0.26903 0.74850
 O436 O 0.48556 0.24817 0.76936
 O437 O 0.51506 0.24821 0.76930
 O438 O 0.48549 0.26899 0.74857
 Cu439 Cu 0.50026 0.23918 0.73953
 Cu440 Cu 0.50028 0.26037 0.76070
 C441 C 0.48038 0.26370 0.73622
 C442 C 0.52016 0.23585 0.76401
 C443 C 0.48047 0.23579 0.76409
 C444 C 0.52007 0.26375 0.73614
 O445 O -0.01467 0.26923 0.75156
 O446 O 0.01481 0.24834 0.73082
 O447 O -0.01469 0.24839 0.73079
 O448 O 0.01483 0.26918 0.75160
 O449 O 0.01478 0.25154 0.76925
 O450 O -0.01474 0.23075 0.74845
 O451 O 0.01476 0.23071 0.74847
 O452 O -0.01472 0.25160 0.76922
 Cu453 Cu 0.00007 0.26055 0.73943
 Cu454 Cu 0.00001 0.23938 0.76062
 C455 C -0.01979 0.26397 0.76392
 C456 C 0.01987 0.23597 0.73612
 C457 C -0.01981 0.23603 0.73608
 C458 C 0.01990 0.26390 0.76397
 O459 O 0.48513 0.23063 0.24834
 O460 O 0.51472 0.25145 0.26903
 O461 O 0.48522 0.25146 0.26913
 O462 O 0.51464 0.23062 0.24824
 O463 O 0.51459 0.24826 0.23060
 O464 O 0.48517 0.26910 0.25148
 O465 O 0.51467 0.26909 0.25138
 O466 O 0.48509 0.24827 0.23069
 Cu467 Cu 0.49993 0.23927 0.26045
 Cu468 Cu 0.49988 0.26045 0.23927
 C469 C 0.48000 0.23591 0.23599
 C470 C 0.51980 0.26381 0.26373
 C471 C 0.48012 0.26383 0.26386
 C472 C 0.51969 0.23589 0.23587
 O473 O 0.98570 0.75195 0.73079
 O474 O 1.01520 0.73108 0.75152
 O475 O 0.98570 0.73112 0.75156
 O476 O 1.01521 0.75192 0.73076
 O477 O 1.01525 0.76956 0.74841
 O478 O 0.98574 0.74875 0.76922
 O479 O 1.01524 0.74871 0.76918
 O480 O 0.98575 0.76959 0.74844
 Cu481 Cu 1.00045 0.73975 0.73939
 Cu482 Cu 1.00050 0.76092 0.76058
 C483 C 0.98063 0.76432 0.73608
 C484 C 1.02031 0.73634 0.76388
 C485 C 0.98063 0.73639 0.76393
 C486 C 1.02032 0.76428 0.73605
 O487 O 0.51518 0.76971 0.24835
 O488 O 0.48563 0.74894 0.26912
 O489 O 0.51513 0.74890 0.26915
 O490 O 0.48568 0.76975 0.24833
 O491 O 0.48567 0.75210 0.23069
 O492 O 0.51512 0.73124 0.25151
 O493 O 0.48562 0.73128 0.25148
 O494 O 0.51517 0.75206 0.23071
 Cu495 Cu 0.50041 0.76109 0.26050
 Cu496 Cu 0.50039 0.73990 0.23933
 C497 C 0.52028 0.76442 0.23600
 C498 C 0.48052 0.73657 0.26384
 C499 C 0.52021 0.73652 0.26387
 C500 C 0.48059 0.76447 0.23596
 O501 O -0.01504 0.76926 0.25159
 O502 O 0.01445 0.74849 0.23075
 O503 O -0.01505 0.74844 0.23079
 O504 O 0.01446 0.76930 0.25155
 O505 O 0.01451 0.75164 0.26918
 O506 O -0.01500 0.73078 0.24842
 O507 O 0.01450 0.73083 0.24837
 O508 O -0.01499 0.75160 0.26922
 Cu509 Cu -0.00030 0.76064 0.23940
 Cu510 Cu -0.00024 0.73944 0.26057
 C511 C -0.02011 0.76396 0.26396
 C512 C 0.01957 0.73612 0.23601
 C513 C -0.02012 0.73606 0.23607
 C514 C 0.01958 0.76402 0.26390
 O515 O 0.51482 0.74887 0.73108
 O516 O 0.48527 0.76966 0.75183
 O517 O 0.51477 0.76968 0.75189
 O518 O 0.48532 0.74886 0.73102
 O519 O 0.48529 0.73120 0.74864
 O520 O 0.51474 0.75202 0.76951
 O521 O 0.48524 0.75200 0.76945
 O522 O 0.51479 0.73121 0.74871
 Cu523 Cu 0.50005 0.76104 0.73969
 Cu524 Cu 0.50001 0.73984 0.76085
 C525 C 0.51990 0.73650 0.73637
 C526 C 0.48015 0.76437 0.76417
 C527 C 0.51984 0.76439 0.76425
 C528 C 0.48022 0.73648 0.73628
 C529 C 0.39549 0.31684 0.31697
 C530 C 0.38913 0.31071 0.33019
 C531 C 0.37663 0.31756 0.33705
 C532 C 0.37018 0.33072 0.33085
 C533 C 0.37663 0.33694 0.31772
 C534 C 0.38913 0.33009 0.31086
 C535 C 0.40850 0.30935 0.30946
 N536 N 0.41451 0.31512 0.29655
 N537 N 0.42601 0.30823 0.28965
 C538 C 0.43200 0.29527 0.29536
 N539 N 0.42602 0.28954 0.30831
 N540 N 0.41452 0.29642 0.31520
 C541 C 0.44459 0.28743 0.28751
 C542 C 0.45061 0.27390 0.29333
 C543 C 0.46222 0.26631 0.28572
 C544 C 0.46809 0.27208 0.27212
 C545 C 0.46219 0.28568 0.26638
 C546 C 0.45058 0.29327 0.27398
 H547 H 0.39374 0.30053 0.33523
 H548 H 0.37198 0.31245 0.34717
 H549 H 0.37198 0.34708 0.31264
 H550 H 0.39374 0.33515 0.30070
 H551 H 0.44629 0.26907 0.30372
 H552 H 0.46653 0.25586 0.29047
 H553 H 0.46647 0.29044 0.25593
 H554 H 0.44624 0.30367 0.26917
 C555 C 0.39510 0.81714 0.81686
 C556 C 0.38876 0.81102 0.83010
 C557 C 0.37621 0.81782 0.83691
 C558 C 0.36962 0.83094 0.83067
 C559 C 0.37613 0.83713 0.81750
 C560 C 0.38868 0.83032 0.81070
 C561 C 0.40817 0.80969 0.80942
 N562 N 0.41420 0.81545 0.79651
 N563 N 0.42575 0.80860 0.78967
 C564 C 0.43179 0.79569 0.79543
 N565 N 0.42580 0.78996 0.80837
 N566 N 0.41424 0.79681 0.81521
 C567 C 0.44444 0.78789 0.78764
 C568 C 0.45048 0.77438 0.79350
 C569 C 0.46215 0.76682 0.78596
 C570 C 0.46807 0.77260 0.77238
 C571 C 0.46214 0.78618 0.76659
 C572 C 0.45047 0.79373 0.77413
 H573 H 0.39342 0.80090 0.83518
 H574 H 0.37165 0.81265 0.84705
 H575 H 0.37151 0.84722 0.81229
 H576 H 0.39328 0.83536 0.80053
 H577 H 0.44614 0.76955 0.80388
 H578 H 0.46647 0.75639 0.79073
 H579 H 0.46645 0.79094 0.75616
 H580 H 0.44612 0.80412 0.76929
 C581 C -0.10458 0.31709 0.81667
 C582 C -0.11096 0.33030 0.81050
 C583 C -0.12348 0.33715 0.81732
 C584 C -0.12993 0.33096 0.83048
 C585 C -0.12345 0.31784 0.83673
 C586 C -0.11093 0.31099 0.82991
 C587 C -0.09154 0.30959 0.80921
 N588 N -0.08551 0.29669 0.81501
 N589 N -0.07399 0.28979 0.80816
 C590 C -0.06800 0.29549 0.79521
 N591 N -0.07399 0.30842 0.78944
 N592 N -0.08551 0.31532 0.79629
 C593 C -0.05538 0.28763 0.78741
 C594 C -0.04935 0.29344 0.77388
 C595 C -0.03772 0.28584 0.76634
 C596 C -0.03183 0.27224 0.77213
 C597 C -0.03775 0.26651 0.78573
 C598 C -0.04938 0.27411 0.79328
 H599 H -0.10636 0.33532 0.80033
 H600 H -0.12815 0.34725 0.81220
 H601 H -0.12810 0.31277 0.84687
 H602 H -0.10631 0.30084 0.83499
 H603 H -0.05368 0.30383 0.76904
 H604 H -0.03341 0.29057 0.75589
 H605 H -0.03346 0.25607 0.79050
 H606 H -0.05373 0.26931 0.80367
 C607 C -0.10493 0.81681 0.31694
 C608 C -0.11131 0.83002 0.31081
 C609 C -0.12383 0.83687 0.31764
 C610 C -0.13034 0.83068 0.33082
 C611 C -0.12379 0.81751 0.33702
 C612 C -0.11127 0.81069 0.33017
 C613 C -0.09189 0.80933 0.30945
 N614 N -0.08585 0.79642 0.31521
 N615 N -0.07433 0.78956 0.30833
 C616 C -0.06835 0.79530 0.29539
 N617 N -0.07436 0.80824 0.28967
 N618 N -0.08588 0.81511 0.29655
 C619 C -0.05572 0.78749 0.28755
 C620 C -0.04973 0.79334 0.27404
 C621 C -0.03809 0.78578 0.26645
 C622 C -0.03216 0.77218 0.27221
 C623 C -0.03805 0.76640 0.28579
 C624 C -0.04969 0.77396 0.29338
 H625 H -0.10671 0.83507 0.30065
 H626 H -0.12842 0.84699 0.31247
 H627 H -0.12835 0.81235 0.34715
 H628 H -0.10664 0.80053 0.33522
 H629 H -0.05408 0.80373 0.26922
 H630 H -0.03380 0.79055 0.25602
 H631 H -0.03373 0.75596 0.29054
 H632 H -0.05401 0.76913 0.30377
 C633 C 0.60491 0.68346 0.31683
 C634 C 0.61128 0.67023 0.31069
 C635 C 0.62378 0.66337 0.31753
 C636 C 0.63023 0.66957 0.33068
 C637 C 0.62377 0.68271 0.33691
 C638 C 0.61126 0.68957 0.33007
 C639 C 0.59189 0.69096 0.30934
 N640 N 0.58587 0.70388 0.31511
 N641 N 0.57436 0.71077 0.30823
 C642 C 0.56838 0.70505 0.29528
 N643 N 0.57436 0.69210 0.28955
 N644 N 0.58587 0.68521 0.29642
 C645 C 0.55577 0.71290 0.28745
 C646 C 0.54976 0.70706 0.27393
 C647 C 0.53814 0.71466 0.26635
 C648 C 0.53225 0.72826 0.27211
 C649 C 0.53814 0.73402 0.28571
 C650 C 0.54977 0.72643 0.29329
 H651 H 0.60667 0.66519 0.30052
 H652 H 0.62844 0.65325 0.31243
 H653 H 0.62842 0.68779 0.34704
 H654 H 0.60665 0.69973 0.33512
 H655 H 0.55409 0.69666 0.26910
 H656 H 0.53384 0.70991 0.25591
 H657 H 0.53385 0.74447 0.29046
 H658 H 0.55410 0.73125 0.30368
 C659 C 0.60522 0.18311 0.81671
 C660 C 0.61157 0.18924 0.82993
 C661 C 0.62412 0.18245 0.83676
 C662 C 0.63070 0.16931 0.83053
 C663 C 0.62417 0.16310 0.81736
 C664 C 0.61163 0.16992 0.81056
 C665 C 0.59215 0.19056 0.80927
 N666 N 0.58612 0.18478 0.79636
 N667 N 0.57456 0.19163 0.78952
 C668 C 0.56853 0.20455 0.79528
 N669 N 0.57453 0.21029 0.80821
 N670 N 0.58608 0.20344 0.81505
 C671 C 0.55587 0.21235 0.78748
 C672 C 0.54983 0.22586 0.79334
 C673 C 0.53816 0.23341 0.78580
 C674 C 0.53225 0.22763 0.77222
 C675 C 0.53817 0.21405 0.76643
 C676 C 0.54985 0.20650 0.77397
 H677 H 0.60692 0.19938 0.83500
 H678 H 0.62869 0.18762 0.84688
 H679 H 0.62879 0.15300 0.81217
 H680 H 0.60701 0.16486 0.80040
 H681 H 0.55418 0.23069 0.80372
 H682 H 0.53384 0.24384 0.79057
 H683 H 0.53386 0.20929 0.75600
 H684 H 0.55420 0.19612 0.76913
 C685 C 1.10514 0.68326 0.81662
 C686 C 1.11152 0.67005 0.81046
 C687 C 1.12404 0.66320 0.81728
 C688 C 1.13048 0.66939 0.83044
 C689 C 1.12400 0.68251 0.83669
 C690 C 1.11149 0.68936 0.82987
 C691 C 1.09210 0.69076 0.80917
 N692 N 1.08606 0.70365 0.81497
 N693 N 1.07454 0.71055 0.80811
 C694 C 1.06855 0.70485 0.79516
 N695 N 1.07455 0.69192 0.78939
 N696 N 1.08607 0.68502 0.79624
 C697 C 1.05593 0.71270 0.78736
 C698 C 1.04990 0.70689 0.77384
 C699 C 1.03826 0.71449 0.76629
 C700 C 1.03237 0.72808 0.77209
 C701 C 1.03828 0.73382 0.78568
 C702 C 1.04992 0.72622 0.79323
 H703 H 1.10691 0.66502 0.80028
 H704 H 1.12871 0.65309 0.81216
 H705 H 1.12865 0.68758 0.84683
 H706 H 1.10686 0.69950 0.83495
 H707 H 1.05423 0.69650 0.76899
 H708 H 1.03395 0.70975 0.75585
 H709 H 1.03399 0.74425 0.79046
 H710 H 1.05427 0.73102 0.80363
 C711 C 1.10533 0.18311 0.31675
 C712 C 1.11168 0.18923 0.32998
 C713 C 1.12421 0.18242 0.33681
 C714 C 1.13077 0.16927 0.33059
 C715 C 1.12426 0.16308 0.31741
 C716 C 1.11173 0.16991 0.31060
 C717 C 1.09228 0.19057 0.30928
 N718 N 1.08626 0.18481 0.29637
 N719 N 1.07472 0.19166 0.28951
 C720 C 1.06870 0.20459 0.29525
 N721 N 1.07468 0.21033 0.30819
 N722 N 1.08622 0.20347 0.31506
 C723 C 1.05606 0.21240 0.28744
 C724 C 1.05003 0.22592 0.29328
 C725 C 1.03837 0.23348 0.28571
 C726 C 1.03248 0.22771 0.27212
 C727 C 1.03840 0.21412 0.26635
 C728 C 1.05005 0.20655 0.27392
 H729 H 1.10703 0.19937 0.33504
 H730 H 1.12877 0.18758 0.34695
 H731 H 1.12887 0.15298 0.31222
 H732 H 1.10713 0.16487 0.30043
 H733 H 1.05436 0.23075 0.30366
 H734 H 1.03406 0.24392 0.29047
 H735 H 1.03410 0.20935 0.25592
 H736 H 1.05440 0.19616 0.26910
 C737 C 0.60476 0.31677 0.68311
 C738 C 0.61110 0.31065 0.66988
 C739 C 0.62361 0.31750 0.66303
 C740 C 0.63008 0.33065 0.66925
 C741 C 0.62363 0.33686 0.68239
 C742 C 0.61113 0.33001 0.68924
 C743 C 0.59173 0.30928 0.69061
 N744 N 0.58572 0.31504 0.70352
 N745 N 0.57422 0.30815 0.71041
 C746 C 0.56822 0.29520 0.70468
 N747 N 0.57420 0.28947 0.69174
 N748 N 0.58570 0.29636 0.68485
 C749 C 0.55562 0.28736 0.71253
 C750 C 0.54960 0.27382 0.70670
 C751 C 0.53798 0.26624 0.71429
 C752 C 0.53210 0.27200 0.72788
 C753 C 0.53800 0.28561 0.73364
 C754 C 0.54962 0.29320 0.72605
 H755 H 0.60649 0.30048 0.66483
 H756 H 0.62826 0.31241 0.65291
 H757 H 0.62829 0.34699 0.68749
 H758 H 0.60653 0.33505 0.69941
 H759 H 0.55392 0.26900 0.69630
 H760 H 0.53368 0.25579 0.70954
 H761 H 0.53371 0.29036 0.74408
 H762 H 0.55396 0.30360 0.73087
 C763 C 0.60532 0.81716 0.18324
 C764 C 0.61167 0.81102 0.17002
 C765 C 0.62422 0.81782 0.16320
 C766 C 0.63079 0.83097 0.16941
 C767 C 0.62426 0.83718 0.18257
 C768 C 0.61171 0.83036 0.18938
 C769 C 0.59224 0.80971 0.19069
 N770 N 0.58621 0.81549 0.20359
 N771 N 0.57466 0.80864 0.21044
 C772 C 0.56863 0.79572 0.20469
 N773 N 0.57463 0.78996 0.19176
 N774 N 0.58618 0.79681 0.18491
 C775 C 0.55598 0.78792 0.21250
 C776 C 0.54993 0.77440 0.20665
 C777 C 0.53826 0.76685 0.21420
 C778 C 0.53236 0.77263 0.22778
 C779 C 0.53829 0.78622 0.23355
 C780 C 0.54996 0.79377 0.22600
 H781 H 0.60703 0.80087 0.16496
 H782 H 0.62879 0.81263 0.15308
 H783 H 0.62887 0.84729 0.18776
 H784 H 0.60710 0.83542 0.19953
 H785 H 0.55427 0.76957 0.19627
 H786 H 0.53394 0.75642 0.20944
 H787 H 0.53399 0.79099 0.24399
 H788 H 0.55432 0.80416 0.23083
 C789 C 1.10529 0.31676 0.18318
 C790 C 1.11165 0.32999 0.18930
 C791 C 1.12417 0.33685 0.18249
 C792 C 1.13071 0.33064 0.16933
 C793 C 1.12418 0.31747 0.16313
 C794 C 1.11166 0.31063 0.16997
 C795 C 1.09224 0.30928 0.19064
 N796 N 1.08621 0.29636 0.18488
 N797 N 1.07469 0.28948 0.19174
 C798 C 1.06868 0.29523 0.20466
 N799 N 1.07467 0.30818 0.21040
 N800 N 1.08620 0.31505 0.20354
 C801 C 1.05605 0.28740 0.21248
 C802 C 1.05002 0.29324 0.22599
 C803 C 1.03838 0.28567 0.23355
 C804 C 1.03248 0.27207 0.22778
 C805 C 1.03839 0.26629 0.21420
 C806 C 1.05004 0.27386 0.20664
 H807 H 1.10702 0.33505 0.19945
 H808 H 1.12874 0.34698 0.18766
 H809 H 1.12877 0.31229 0.15302
 H810 H 1.10704 0.30047 0.16492
 H811 H 1.05436 0.30364 0.23081
 H812 H 1.03407 0.29043 0.24398
 H813 H 1.03409 0.25584 0.20945
 H814 H 1.05438 0.26904 0.19626
 C815 C 1.10527 0.81711 0.68324
 C816 C 1.11160 0.81101 0.67000
 C817 C 1.12414 0.81781 0.66317
 C818 C 1.13073 0.83094 0.66941
 C819 C 1.12423 0.83712 0.68259
 C820 C 1.11169 0.83030 0.68940
 C821 C 1.09221 0.80965 0.69070
 N822 N 1.08620 0.81541 0.70361
 N823 N 1.07466 0.80855 0.71047
 C824 C 1.06862 0.79563 0.70471
 N825 N 1.07459 0.78991 0.69176
 N826 N 1.08613 0.79677 0.68490
 C827 C 1.05598 0.78782 0.71252
 C828 C 1.04992 0.77431 0.70666
 C829 C 1.03827 0.76675 0.71422
 C830 C 1.03239 0.77251 0.72782
 C831 C 1.03832 0.78609 0.73360
 C832 C 1.04998 0.79365 0.72604
 H833 H 1.10694 0.80088 0.66492
 H834 H 1.12869 0.81266 0.65303
 H835 H 1.12885 0.84722 0.68780
 H836 H 1.10709 0.83533 0.69958
 H837 H 1.05425 0.76949 0.69626
 H838 H 1.03394 0.75632 0.70945
 H839 H 1.03404 0.79084 0.74405
 H840 H 1.05434 0.80403 0.73088
 C841 C 0.39551 0.68353 0.68319
 C842 C 0.38915 0.67028 0.68930
 C843 C 0.37664 0.66343 0.68245
 C844 C 0.37018 0.66966 0.66932
 C845 C 0.37664 0.68283 0.66312
 C846 C 0.38914 0.68967 0.66998
 C847 C 0.40853 0.69102 0.69069
 N848 N 0.41456 0.70395 0.68496
 N849 N 0.42606 0.71083 0.69185
 C850 C 0.43205 0.70508 0.70479
 N851 N 0.42606 0.69212 0.71049
 N852 N 0.41455 0.68524 0.70360
 C853 C 0.44465 0.71291 0.71264
 C854 C 0.45065 0.70706 0.72616
 C855 C 0.46228 0.71463 0.73375
 C856 C 0.46818 0.72824 0.72801
 C857 C 0.46230 0.73403 0.71442
 C858 C 0.45067 0.72645 0.70683
 H859 H 0.39376 0.66522 0.69945
 H860 H 0.37199 0.65329 0.68752
 H861 H 0.37198 0.68793 0.65301
 H862 H 0.39375 0.69985 0.66495
 H863 H 0.44631 0.69665 0.73096
 H864 H 0.46656 0.70987 0.74419
 H865 H 0.46660 0.74448 0.70969
 H866 H 0.44635 0.73128 0.69644
 C867 C 0.39493 0.18304 0.18339
 C868 C 0.38852 0.16986 0.18957
 C869 C 0.37597 0.16302 0.18278
 C870 C 0.36946 0.16919 0.16959
 C871 C 0.37604 0.18232 0.16334
 C872 C 0.38859 0.18913 0.17016
 C873 C 0.40800 0.19051 0.19083
 N874 N 0.41407 0.20338 0.18502
 N875 N 0.42562 0.21025 0.19185
 C876 C 0.43162 0.20454 0.20480
 N877 N 0.42559 0.19163 0.21058
 N878 N 0.41403 0.18476 0.20375
 C879 C 0.44428 0.21236 0.21258
 C880 C 0.45032 0.20653 0.22609
 C881 C 0.46199 0.21410 0.23361
 C882 C 0.46791 0.22768 0.22781
 C883 C 0.46199 0.23343 0.21423
 C884 C 0.45031 0.22586 0.20670
 H885 H 0.39313 0.16483 0.19974
 H886 H 0.37136 0.15293 0.18799
 H887 H 0.37148 0.18747 0.15321
 H888 H 0.39324 0.19926 0.16507
 H889 H 0.44596 0.19615 0.23094
 H890 H 0.46631 0.20935 0.24405
 H891 H 0.46630 0.24386 0.20944
 H892 H 0.44595 0.23068 0.19631
 C893 C -0.10503 0.68309 0.18332
 C894 C -0.11139 0.68920 0.17010
 C895 C -0.12392 0.68238 0.16327
 C896 C -0.13047 0.66923 0.16949
 C897 C -0.12395 0.66304 0.18266
 C898 C -0.11141 0.66988 0.18947
 C899 C -0.09198 0.69057 0.19078
 N900 N -0.08594 0.68482 0.20368
 N901 N -0.07440 0.69169 0.21053
 C902 C -0.06840 0.70463 0.20478
 N903 N -0.07440 0.71035 0.19184
 N904 N -0.08594 0.70347 0.18499
 C905 C -0.05577 0.71246 0.21258
 C906 C -0.04975 0.72599 0.20673
 C907 C -0.03810 0.73357 0.21428
 C908 C -0.03218 0.72781 0.22786
 C909 C -0.03808 0.71421 0.23364
 C910 C -0.04973 0.70663 0.22609
 H911 H -0.10676 0.69935 0.16503
 H912 H -0.12850 0.68755 0.15315
 H913 H -0.12854 0.65292 0.18785
 H914 H -0.10679 0.66484 0.19963
 H915 H -0.05411 0.73081 0.19634
 H916 H -0.03381 0.74401 0.20951
 H917 H -0.03376 0.70946 0.24408
 H918 H -0.05406 0.69624 0.23093
 C919 C -0.10471 0.18317 0.68320
 C920 C -0.11112 0.16997 0.68936
 C921 C -0.12365 0.16314 0.68253
 C922 C -0.13009 0.16935 0.66938
 C923 C -0.12359 0.18247 0.66314
 C924 C -0.11106 0.18929 0.66997
 C925 C -0.09166 0.19064 0.69067
 N926 N -0.08560 0.20353 0.68489
 N927 N -0.07407 0.21040 0.69176
 C928 C -0.06809 0.20467 0.70471
 N929 N -0.07412 0.19175 0.71045
 N930 N -0.08565 0.18488 0.70359
 C931 C -0.05546 0.21249 0.71253
 C932 C -0.04946 0.20665 0.72605
 C933 C -0.03781 0.21422 0.73362
 C934 C -0.03188 0.22780 0.72785
 C935 C -0.03776 0.23357 0.71425
 C936 C -0.04941 0.22600 0.70668
 H937 H -0.10652 0.16493 0.69953
 H938 H -0.12834 0.15304 0.68765
 H939 H -0.12823 0.18755 0.65301
 H940 H -0.10641 0.19943 0.66490
 H941 H -0.05382 0.19627 0.73088
 H942 H -0.03352 0.20947 0.74407
 H943 H -0.03344 0.24400 0.70949
 H944 H -0.05373 0.23082 0.69629
 C945 C 0.31691 0.39558 0.31705
 C946 C 0.31077 0.38922 0.33027
 C947 C 0.31760 0.37670 0.33711
 C948 C 0.33074 0.37023 0.33089
 C949 C 0.33697 0.37669 0.31776
 C950 C 0.33014 0.38921 0.31093
 C951 C 0.30943 0.40862 0.30956
 N952 N 0.31521 0.41464 0.29666
 N953 N 0.30834 0.42615 0.28978
 C954 C 0.29539 0.43215 0.29550
 N955 N 0.28964 0.42617 0.30843
 N956 N 0.29651 0.41465 0.31531
 C957 C 0.28756 0.44477 0.28766
 C958 C 0.27403 0.45079 0.29348
 C959 C 0.26646 0.46242 0.28589
 C960 C 0.27224 0.46831 0.27230
 C961 C 0.28584 0.46240 0.26655
 C962 C 0.29341 0.45077 0.27413
 H963 H 0.30060 0.39383 0.33531
 H964 H 0.31249 0.37204 0.34722
 H965 H 0.34710 0.37203 0.31267
 H966 H 0.33520 0.39382 0.30077
 H967 H 0.26921 0.44647 0.30387
 H968 H 0.25601 0.46673 0.29063
 H969 H 0.29060 0.46668 0.25611
 H970 H 0.30381 0.44642 0.26932
 C971 C 0.31716 -0.10523 0.81680
 C972 C 0.33037 -0.11160 0.81065
 C973 C 0.33723 -0.12412 0.81746
 C974 C 0.33106 -0.13064 0.83064
 C975 C 0.31790 -0.12409 0.83686
 C976 C 0.31106 -0.11158 0.83003
 C977 C 0.30966 -0.09219 0.80933
 N978 N 0.29676 -0.08615 0.81512
 N979 N 0.28987 -0.07463 0.80827
 C980 C 0.29558 -0.06864 0.79532
 N981 N 0.30851 -0.07464 0.78956
 N982 N 0.31540 -0.08616 0.79642
 C983 C 0.28774 -0.05602 0.78752
 C984 C 0.29356 -0.04999 0.77400
 C985 C 0.28597 -0.03835 0.76644
 C986 C 0.27238 -0.03245 0.77223
 C987 C 0.26663 -0.03836 0.78582
 C988 C 0.27422 -0.05000 0.79337
 H989 H 0.33539 -0.10699 0.80047
 H990 H 0.34734 -0.12870 0.81227
 H991 H 0.31275 -0.12866 0.84700
 H992 H 0.30092 -0.10695 0.83510
 H993 H 0.30395 -0.05432 0.76916
 H994 H 0.29071 -0.03404 0.75601
 H995 H 0.25619 -0.03406 0.79059
 H996 H 0.26941 -0.05435 0.80376
 C997 C 0.81706 0.39520 0.81690
 C998 C 0.81093 0.38884 0.83012
 C999 C 0.81774 0.37631 0.83695
 C1000 C 0.83090 0.36976 0.83075
 C1001 C 0.83711 0.37629 0.81759
 C1002 C 0.83028 0.38882 0.81078
 C1003 C 0.80960 0.40826 0.80944
 N1004 N 0.81538 0.41429 0.79654
 N1005 N 0.80852 0.42583 0.78968
 C1006 C 0.79558 0.43184 0.79542
 N1007 N 0.78984 0.42584 0.80834
 N1008 N 0.79669 0.41430 0.81520
 C1009 C 0.78777 0.44448 0.78760
 C1010 C 0.77425 0.45051 0.79345
 C1011 C 0.76669 0.46217 0.78589
 C1012 C 0.77247 0.46808 0.77231
 C1013 C 0.78606 0.46216 0.76654
 C1014 C 0.79362 0.45050 0.77410
 H1015 H 0.80077 0.39347 0.83517
 H1016 H 0.81256 0.37173 0.84707
 H1017 H 0.84723 0.37170 0.81242
 H1018 H 0.83533 0.39344 0.80063
 H1019 H 0.76942 0.44617 0.80383
 H1020 H 0.75626 0.46648 0.79065
 H1021 H 0.79083 0.46647 0.75611
 H1022 H 0.80401 0.44615 0.76927
 C1023 C 0.81703 -0.10480 0.31669
 C1024 C 0.83023 -0.11119 0.31053
 C1025 C 0.83708 -0.12370 0.31737
 C1026 C 0.83089 -0.13014 0.33053
 C1027 C 0.81777 -0.12364 0.33678
 C1028 C 0.81092 -0.11113 0.32994
 C1029 C 0.80954 -0.09177 0.30920
 N1030 N 0.79664 -0.08572 0.31498
 N1031 N 0.78975 -0.07421 0.30811
 C1032 C 0.79546 -0.06824 0.29515
 N1033 N 0.80839 -0.07425 0.28940
 N1034 N 0.81528 -0.08576 0.29628
 C1035 C 0.78762 -0.05563 0.28732
 C1036 C 0.79345 -0.04963 0.27379
 C1037 C 0.78586 -0.03801 0.26621
 C1038 C 0.77227 -0.03210 0.27199
 C1039 C 0.76651 -0.03798 0.28559
 C1040 C 0.77410 -0.04961 0.29317
 H1041 H 0.83526 -0.10660 0.30035
 H1042 H 0.84718 -0.12839 0.31226
 H1043 H 0.81269 -0.12828 0.34691
 H1044 H 0.80078 -0.10650 0.33500
 H1045 H 0.80384 -0.05398 0.26896
 H1046 H 0.79060 -0.03372 0.25577
 H1047 H 0.75607 -0.03367 0.29035
 H1048 H 0.76929 -0.05393 0.30356
 C1049 C 0.31690 0.60480 0.68314
 C1050 C 0.31075 0.61116 0.66993
 C1051 C 0.31758 0.62369 0.66309
 C1052 C 0.33074 0.63015 0.66929
 C1053 C 0.33698 0.62369 0.68241
 C1054 C 0.33015 0.61117 0.68925
 C1055 C 0.30943 0.59176 0.69063
 N1056 N 0.31523 0.58573 0.70353
 N1057 N 0.30836 0.57421 0.71041
 C1058 C 0.29540 0.56822 0.70471
 N1059 N 0.28964 0.57421 0.69178
 N1060 N 0.29651 0.58573 0.68490
 C1061 C 0.28758 0.55560 0.71256
 C1062 C 0.27404 0.54958 0.70675
 C1063 C 0.26648 0.53795 0.71434
 C1064 C 0.27227 0.53206 0.72793
 C1065 C 0.28589 0.53796 0.73366
 C1066 C 0.29345 0.54959 0.72606
 H1067 H 0.30058 0.60655 0.66490
 H1068 H 0.31246 0.62835 0.65298
 H1069 H 0.34711 0.62835 0.68749
 H1070 H 0.33522 0.60655 0.69940
 H1071 H 0.26920 0.55391 0.69637
 H1072 H 0.25602 0.53364 0.70961
 H1073 H 0.29066 0.53367 0.74409
 H1074 H 0.30386 0.55394 0.73086
 C1075 C 0.31704 1.10530 0.18347
 C1076 C 0.31095 1.11164 0.17022
 C1077 C 0.31779 1.12416 0.16339
 C1078 C 0.33093 1.13072 0.16963
 C1079 C 0.33709 1.12422 0.18282
 C1080 C 0.33024 1.11169 0.18963
 C1081 C 0.30955 1.09226 0.19092
 N1082 N 0.31528 1.08624 0.20385
 N1083 N 0.30839 1.07471 0.21070
 C1084 C 0.29547 1.06870 0.20492
 N1085 N 0.28977 1.07468 0.19197
 N1086 N 0.29666 1.08621 0.18512
 C1087 C 0.28762 1.05607 0.21272
 C1088 C 0.27411 1.05004 0.20684
 C1089 C 0.26652 1.03840 0.21439
 C1090 C 0.27225 1.03249 0.22799
 C1091 C 0.28583 1.03840 0.23379
 C1092 C 0.29343 1.05005 0.22625
 H1093 H 0.30081 1.10700 0.16514
 H1094 H 0.31264 1.12872 0.15325
 H1095 H 0.34720 1.12882 0.18802
 H1096 H 0.33526 1.10709 0.19981
 H1097 H 0.26931 1.05439 0.19645
 H1098 H 0.25609 1.03409 0.20960
 H1099 H 0.29057 1.03410 0.24424
 H1100 H 0.30381 1.05439 0.23110
 C1101 C 0.81725 0.60520 0.18325
 C1102 C 0.83044 0.61161 0.18941
 C1103 C 0.83726 0.62416 0.18262
 C1104 C 0.83107 0.63069 0.16946
 C1105 C 0.81793 0.62411 0.16322
 C1106 C 0.81113 0.61156 0.17003
 C1107 C 0.80980 0.59212 0.19069
 N1108 N 0.79692 0.58605 0.18489
 N1109 N 0.79007 0.57449 0.19172
 C1110 C 0.79580 0.56850 0.20466
 N1111 N 0.80871 0.57453 0.21042
 N1112 N 0.81556 0.58608 0.20359
 C1113 C 0.78799 0.55583 0.21244
 C1114 C 0.79383 0.54980 0.22595
 C1115 C 0.78627 0.53813 0.23348
 C1116 C 0.77269 0.53220 0.22769
 C1117 C 0.76693 0.53812 0.21410
 C1118 C 0.77449 0.54979 0.20657
 H1119 H 0.83549 0.60699 0.19957
 H1120 H 0.84736 0.62877 0.18782
 H1121 H 0.81276 0.62868 0.15310
 H1122 H 0.80100 0.60691 0.16495
 H1123 H 0.80421 0.55416 0.23080
 H1124 H 0.79102 0.53382 0.24392
 H1125 H 0.75650 0.53380 0.20932
 H1126 H 0.76966 0.55414 0.19618
 C1127 C 0.81678 1.10523 0.68305
 C1128 C 0.83001 1.11159 0.68915
 C1129 C 0.83687 1.12410 0.68231
 C1130 C 0.83066 1.13062 0.66915
 C1131 C 0.81748 1.12409 0.66297
 C1132 C 0.81065 1.11158 0.66983
 C1133 C 0.80930 1.09220 0.69054
 N1134 N 0.79638 1.08616 0.68480
 N1135 N 0.78951 1.07465 0.69169
 C1136 C 0.79526 1.06866 0.70462
 N1137 N 0.80822 1.07466 0.71033
 N1138 N 0.81509 1.08618 0.70344
 C1139 C 0.78744 1.05605 0.71247
 C1140 C 0.79331 1.05005 0.72599
 C1141 C 0.78575 1.03842 0.73358
 C1142 C 0.77214 1.03250 0.72785
 C1143 C 0.76635 1.03838 0.71426
 C1144 C 0.77391 1.05001 0.70666
 H1145 H 0.83507 1.10698 0.69931
 H1146 H 0.84700 1.12868 0.68748
 H1147 H 0.81230 1.12866 0.65285
 H1148 H 0.80048 1.10695 0.66479
 H1149 H 0.80371 1.05440 0.73079
 H1150 H 0.79052 1.03413 0.74402
 H1151 H 0.75590 1.03406 0.70953
 H1152 H 0.76907 1.05434 0.69628
 C1153 C 0.68356 0.60476 0.31677
 C1154 C 0.68968 0.61110 0.33001
 C1155 C 0.68283 0.62360 0.33687
 C1156 C 0.66969 0.63008 0.33066
 C1157 C 0.66348 0.62364 0.31750
 C1158 C 0.67033 0.61114 0.31064
 C1159 C 0.69105 0.59174 0.30927
 N1160 N 0.68529 0.58574 0.29635
 N1161 N 0.69217 0.57423 0.28946
 C1162 C 0.70511 0.56822 0.29519
 N1163 N 0.71084 0.57419 0.30814
 N1164 N 0.70396 0.58570 0.31503
 C1165 C 0.71295 0.55562 0.28735
 C1166 C 0.72647 0.54959 0.29318
 C1167 C 0.73405 0.53796 0.28560
 C1168 C 0.72829 0.53209 0.27199
 C1169 C 0.71470 0.53800 0.26622
 C1170 C 0.70712 0.54963 0.27381
 H1171 H 0.69984 0.60647 0.33506
 H1172 H 0.68792 0.62824 0.34700
 H1173 H 0.65337 0.62831 0.31240
 H1174 H 0.66529 0.60655 0.30047
 H1175 H 0.73129 0.55390 0.30358
 H1176 H 0.74449 0.53365 0.29035
 H1177 H 0.70995 0.53372 0.25577
 H1178 H 0.69673 0.55398 0.26899
 C1179 C 0.68309 1.10541 0.81672
 C1180 C 0.68920 1.11177 0.82994
 C1181 C 0.68238 1.12431 0.83676
 C1182 C 0.66923 1.13085 0.83053
 C1183 C 0.66304 1.12432 0.81736
 C1184 C 0.66989 1.11178 0.81056
 C1185 C 0.69057 1.09235 0.80927
 N1186 N 0.68482 1.08630 0.79636
 N1187 N 0.69169 1.07477 0.78952
 C1188 C 0.70463 1.06877 0.79528
 N1189 N 0.71035 1.07478 0.80821
 N1190 N 0.70347 1.08632 0.81505
 C1191 C 0.71246 1.05613 0.78748
 C1192 C 0.72599 1.05013 0.79333
 C1193 C 0.73357 1.03848 0.78579
 C1194 C 0.72780 1.03254 0.77221
 C1195 C 0.71420 1.03843 0.76643
 C1196 C 0.70662 1.05008 0.77397
 H1197 H 0.69935 1.10714 0.83501
 H1198 H 0.68754 1.12889 0.84688
 H1199 H 0.65293 1.12891 0.81217
 H1200 H 0.66485 1.10716 0.80040
 H1201 H 0.73081 1.05449 0.80371
 H1202 H 0.74401 1.03419 0.79055
 H1203 H 0.70944 1.03411 0.75600
 H1204 H 0.69622 1.05441 0.76914
 C1205 C 0.18346 0.60511 0.81689
 C1206 C 0.18960 0.61148 0.83011
 C1207 C 0.18280 0.62402 0.83694
 C1208 C 0.16964 0.63057 0.83073
 C1209 C 0.16343 0.62404 0.81757
 C1210 C 0.17025 0.61150 0.81076
 C1211 C 0.19092 0.59205 0.80943
 N1212 N 0.18513 0.58600 0.79654
 N1213 N 0.19198 0.57445 0.78969
 C1214 C 0.20491 0.56844 0.79543
 N1215 N 0.21067 0.57445 0.80835
 N1216 N 0.20382 0.58600 0.81520
 C1217 C 0.21271 0.55579 0.78762
 C1218 C 0.22623 0.54976 0.79345
 C1219 C 0.23378 0.53809 0.78590
 C1220 C 0.22798 0.53217 0.77233
 C1221 C 0.21439 0.53808 0.76657
 C1222 C 0.20684 0.54975 0.77412
 H1223 H 0.19975 0.60684 0.83516
 H1224 H 0.18798 0.62860 0.84705
 H1225 H 0.15331 0.62863 0.81239
 H1226 H 0.16520 0.60688 0.80061
 H1227 H 0.23108 0.55411 0.80383
 H1228 H 0.24422 0.53378 0.79065
 H1229 H 0.20961 0.53377 0.75614
 H1230 H 0.19645 0.55410 0.76930
 C1231 C 0.18311 1.10533 0.31679
 C1232 C 0.16992 1.11172 0.31062
 C1233 C 0.16308 1.12426 0.31743
 C1234 C 0.16926 1.13077 0.33061
 C1235 C 0.18240 1.12421 0.33685
 C1236 C 0.18921 1.11167 0.33002
 C1237 C 0.19059 1.09227 0.30933
 N1238 N 0.20347 1.08622 0.31513
 N1239 N 0.21035 1.07468 0.30827
 C1240 C 0.20463 1.06870 0.29533
 N1241 N 0.19171 1.07471 0.28956
 N1242 N 0.18484 1.08625 0.29641
 C1243 C 0.21246 1.05606 0.28752
 C1244 C 0.20664 1.05005 0.27399
 C1245 C 0.21421 1.03840 0.26644
 C1246 C 0.22779 1.03248 0.27223
 C1247 C 0.23354 1.03838 0.28583
 C1248 C 0.22597 1.05002 0.29339
 H1249 H 0.16489 1.10712 0.30045
 H1250 H 0.15298 1.12886 0.31223
 H1251 H 0.18755 1.12877 0.34698
 H1252 H 0.19935 1.10703 0.33510
 H1253 H 0.19626 1.05440 0.26915
 H1254 H 0.20947 1.03410 0.25599
 H1255 H 0.24397 1.03406 0.29061
 H1256 H 0.23078 1.05436 0.30378
 C1257 C 0.68342 0.39545 0.68315
 C1258 C 0.67018 0.38908 0.68926
 C1259 C 0.66333 0.37658 0.68240
 C1260 C 0.66955 0.37013 0.66926
 C1261 C 0.68270 0.37660 0.66306
 C1262 C 0.68955 0.38911 0.66991
 C1263 C 0.69090 0.40848 0.69065
 N1264 N 0.70382 0.41452 0.68490
 N1265 N 0.71070 0.42603 0.69179
 C1266 C 0.70496 0.43201 0.70473
 N1267 N 0.69201 0.42600 0.71045
 N1268 N 0.68513 0.41449 0.70356
 C1269 C 0.71279 0.44462 0.71258
 C1270 C 0.70694 0.45061 0.72611
 C1271 C 0.71452 0.46224 0.73370
 C1272 C 0.72812 0.46816 0.72795
 C1273 C 0.73389 0.46228 0.71435
 C1274 C 0.72632 0.45065 0.70676
 H1275 H 0.66513 0.39368 0.69942
 H1276 H 0.65321 0.37191 0.68749
 H1277 H 0.68780 0.37195 0.65294
 H1278 H 0.69972 0.39372 0.66488
 H1279 H 0.69655 0.44626 0.73092
 H1280 H 0.70976 0.46653 0.74414
 H1281 H 0.74434 0.46659 0.70961
 H1282 H 0.73115 0.44632 0.69637
 C1283 C 0.68315 -0.10508 0.18321
 C1284 C 0.66995 -0.11147 0.18936
 C1285 C 0.66311 -0.12401 0.18256
 C1286 C 0.66930 -0.13055 0.16940
 C1287 C 0.68245 -0.12399 0.16317
 C1288 C 0.68926 -0.11145 0.16999
 C1289 C 0.69063 -0.09202 0.19065
 N1290 N 0.70352 -0.08598 0.18486
 N1291 N 0.71040 -0.07443 0.19170
 C1292 C 0.70468 -0.06843 0.20464
 N1293 N 0.69175 -0.07443 0.21040
 N1294 N 0.68487 -0.08598 0.20356
 C1295 C 0.71251 -0.05578 0.21243
 C1296 C 0.70668 -0.04975 0.22594
 C1297 C 0.71426 -0.03809 0.23348
 C1298 C 0.72784 -0.03218 0.22769
 C1299 C 0.73360 -0.03810 0.21411
 C1300 C 0.72602 -0.04976 0.20656
 H1301 H 0.66491 -0.10684 0.19952
 H1302 H 0.65300 -0.12860 0.18776
 H1303 H 0.68761 -0.12858 0.15305
 H1304 H 0.69941 -0.10682 0.16492
 H1305 H 0.69629 -0.05409 0.23078
 H1306 H 0.70951 -0.03377 0.24392
 H1307 H 0.74404 -0.03380 0.20933
 H1308 H 0.73084 -0.05411 0.19618
 C1309 C 0.18326 0.39528 0.18341
 C1310 C 0.18938 0.38892 0.17018
 C1311 C 0.18256 0.37638 0.16336
 C1312 C 0.16945 0.36988 0.16961
 C1313 C 0.16324 0.37633 0.18275
 C1314 C 0.17006 0.38887 0.18957
 C1315 C 0.19072 0.40834 0.19087
 N1316 N 0.18496 0.41437 0.20378
 N1317 N 0.19182 0.42592 0.21063
 C1318 C 0.20474 0.43194 0.20487
 N1319 N 0.21047 0.42595 0.19194
 N1320 N 0.20361 0.41440 0.18509
 C1321 C 0.21256 0.44459 0.21268
 C1322 C 0.22607 0.45062 0.20682
 C1323 C 0.23364 0.46228 0.21437
 C1324 C 0.22787 0.46820 0.22795
 C1325 C 0.21429 0.46228 0.23374
 C1326 C 0.20672 0.45062 0.22619
 H1327 H 0.19953 0.39357 0.16511
 H1328 H 0.18766 0.37174 0.15324
 H1329 H 0.15313 0.37164 0.18787
 H1330 H 0.16501 0.39348 0.19974
 H1331 H 0.23090 0.44627 0.19644
 H1332 H 0.24407 0.46660 0.20960
 H1333 H 0.20953 0.46659 0.24417
 H1334 H 0.19633 0.44626 0.23102
 C1335 C 0.18317 -0.10520 0.68330
 C1336 C 0.16996 -0.11158 0.68945
 C1337 C 0.16310 -0.12410 0.68263
 C1338 C 0.16927 -0.13061 0.66944
 C1339 C 0.18242 -0.12405 0.66322
 C1340 C 0.18926 -0.11154 0.67006
 C1341 C 0.19066 -0.09216 0.69078
 N1342 N 0.20357 -0.08612 0.68499
 N1343 N 0.21045 -0.07460 0.69186
 C1344 C 0.20474 -0.06862 0.70481
 N1345 N 0.19181 -0.07462 0.71056
 N1346 N 0.18492 -0.08614 0.70370
 C1347 C 0.21259 -0.05600 0.71263
 C1348 C 0.20676 -0.04998 0.72616
 C1349 C 0.21435 -0.03835 0.73372
 C1350 C 0.22794 -0.03244 0.72794
 C1351 C 0.23370 -0.03834 0.71435
 C1352 C 0.22611 -0.04998 0.70678
 H1353 H 0.16494 -0.10698 0.69963
 H1354 H 0.15300 -0.12870 0.68782
 H1355 H 0.18757 -0.12861 0.65308
 H1356 H 0.19941 -0.10690 0.66499
 H1357 H 0.19637 -0.05433 0.73099
 H1358 H 0.20961 -0.03405 0.74416
 H1359 H 0.24414 -0.03403 0.70958
 H1360 H 0.23092 -0.05431 0.69639
 C1361 C 0.31688 0.31687 0.39565
 C1362 C 0.31075 0.33011 0.38929
 C1363 C 0.31759 0.33696 0.37679
 C1364 C 0.33073 0.33074 0.37032
 C1365 C 0.33695 0.31759 0.37678
 C1366 C 0.33011 0.31074 0.38928
 C1367 C 0.30940 0.30938 0.40867
 N1368 N 0.31517 0.29647 0.41469
 N1369 N 0.30829 0.28959 0.42619
 C1370 C 0.29535 0.29531 0.43218
 N1371 N 0.28960 0.30826 0.42620
 N1372 N 0.29648 0.31514 0.41469
 C1373 C 0.28752 0.28747 0.44479
 C1374 C 0.27398 0.29330 0.45080
 C1375 C 0.26641 0.28571 0.46242
 C1376 C 0.27218 0.27211 0.46831
 C1377 C 0.28579 0.26635 0.46241
 C1378 C 0.29337 0.27394 0.45079
 H1379 H 0.30058 0.33516 0.39390
 H1380 H 0.31248 0.34708 0.37213
 H1381 H 0.34708 0.31249 0.37212
 H1382 H 0.33517 0.30058 0.39389
 H1383 H 0.26915 0.30370 0.44647
 H1384 H 0.25596 0.29045 0.46672
 H1385 H 0.29055 0.25590 0.46670
 H1386 H 0.30376 0.26913 0.44645
 C1387 C 0.31710 0.81687 -0.10475
 C1388 C 0.31094 0.83009 -0.11113
 C1389 C 0.31774 0.83689 -0.12367
 C1390 C 0.33087 0.83066 -0.13015
 C1391 C 0.33712 0.81754 -0.12367
 C1392 C 0.33032 0.81073 -0.11112
 C1393 C 0.30964 0.80942 -0.09168
 N1394 N 0.31543 0.79653 -0.08564
 N1395 N 0.30857 0.78968 -0.07409
 C1396 C 0.29564 0.79543 -0.06810
 N1397 N 0.28989 0.80836 -0.07411
 N1398 N 0.29674 0.81521 -0.08565
 C1399 C 0.28782 0.78762 -0.05546
 C1400 C 0.27430 0.79348 -0.04945
 C1401 C 0.26673 0.78592 -0.03780
 C1402 C 0.27250 0.77234 -0.03188
 C1403 C 0.28610 0.76656 -0.03777
 C1404 C 0.29367 0.77411 -0.04942
 H1405 H 0.30078 0.83515 -0.10651
 H1406 H 0.31262 0.84700 -0.12835
 H1407 H 0.34724 0.81243 -0.12833
 H1408 H 0.33539 0.80058 -0.10650
 H1409 H 0.26947 0.80386 -0.05381
 H1410 H 0.25628 0.79069 -0.03351
 H1411 H 0.29086 0.75612 -0.03346
 H1412 H 0.30407 0.76928 -0.05375
 C1413 C 0.81680 0.31715 -0.10473
 C1414 C 0.81064 0.33036 -0.11111
 C1415 C 0.81746 0.33719 -0.12363
 C1416 C 0.83062 0.33099 -0.13008
 C1417 C 0.83687 0.31787 -0.12360
 C1418 C 0.83005 0.31104 -0.11108
 C1419 C 0.80934 0.30966 -0.09169
 N1420 N 0.81514 0.29676 -0.08566
 N1421 N 0.80829 0.28988 -0.07414
 C1422 C 0.79533 0.29559 -0.06815
 N1423 N 0.78956 0.30852 -0.07415
 N1424 N 0.79642 0.31541 -0.08566
 C1425 C 0.78752 0.28775 -0.05554
 C1426 C 0.77400 0.29357 -0.04951
 C1427 C 0.76644 0.28598 -0.03788
 C1428 C 0.77223 0.27238 -0.03200
 C1429 C 0.78583 0.26663 -0.03791
 C1430 C 0.79339 0.27422 -0.04954
 H1431 H 0.80046 0.33539 -0.10651
 H1432 H 0.81233 0.34729 -0.12831
 H1433 H 0.84701 0.31279 -0.12824
 H1434 H 0.83513 0.30089 -0.10645
 H1435 H 0.76916 0.30397 -0.05383
 H1436 H 0.75600 0.29072 -0.03356
 H1437 H 0.79060 0.25618 -0.03363
 H1438 H 0.80378 0.26941 -0.05389
 C1439 C 0.81715 0.81670 0.39544
 C1440 C 0.81103 0.82994 0.38908
 C1441 C 0.81785 0.83674 0.37654
 C1442 C 0.83095 0.83047 0.37004
 C1443 C 0.83716 0.81732 0.37650
 C1444 C 0.83034 0.81052 0.38905
 C1445 C 0.80968 0.80927 0.40850
 N1446 N 0.81543 0.79635 0.41454
 N1447 N 0.80857 0.78952 0.42609
 C1448 C 0.79565 0.79530 0.43209
 N1449 N 0.78993 0.80825 0.42609
 N1450 N 0.79680 0.81508 0.41455
 C1451 C 0.78783 0.78752 0.44474
 C1452 C 0.77432 0.79340 0.45075
 C1453 C 0.76674 0.78586 0.46240
 C1454 C 0.77249 0.77226 0.46832
 C1455 C 0.78608 0.76646 0.46243
 C1456 C 0.79366 0.77400 0.45078
 H1457 H 0.80089 0.83504 0.39371
 H1458 H 0.81276 0.84687 0.37188
 H1459 H 0.84725 0.81218 0.37182
 H1460 H 0.83538 0.80035 0.39366
 H1461 H 0.76950 0.80379 0.44639
 H1462 H 0.75630 0.79064 0.46670
 H1463 H 0.79082 0.75601 0.46674
 H1464 H 0.80404 0.76914 0.44644
 C1465 C 0.68331 0.31688 0.60439
 C1466 C 0.68946 0.33010 0.61077
 C1467 C 0.68264 0.33693 0.62329
 C1468 C 0.66950 0.33070 0.62975
 C1469 C 0.66326 0.31757 0.62328
 C1470 C 0.67008 0.31074 0.61075
 C1471 C 0.69077 0.30940 0.59135
 N1472 N 0.68499 0.29650 0.58531
 N1473 N 0.69184 0.28963 0.57378
 C1474 C 0.70479 0.29537 0.56779
 N1475 N 0.71055 0.30830 0.57379
 N1476 N 0.70369 0.31517 0.58532
 C1477 C 0.71261 0.28754 0.55516
 C1478 C 0.72614 0.29338 0.54915
 C1479 C 0.73370 0.28580 0.53752
 C1480 C 0.72791 0.27221 0.53161
 C1481 C 0.71431 0.26645 0.53750
 C1482 C 0.70674 0.27402 0.54914
 H1483 H 0.69963 0.33515 0.60615
 H1484 H 0.68776 0.34704 0.62796
 H1485 H 0.65314 0.31247 0.62794
 H1486 H 0.66501 0.30059 0.60613
 H1487 H 0.73098 0.30376 0.55350
 H1488 H 0.74415 0.29055 0.53322
 H1489 H 0.70954 0.25601 0.53320
 H1490 H 0.69635 0.26920 0.55348
 C1491 C 0.68339 0.81685 1.10490
 C1492 C 0.68952 0.83008 1.11127
 C1493 C 0.68270 0.83690 1.12380
 C1494 C 0.66957 0.83066 1.13027
 C1495 C 0.66335 0.81751 1.12381
 C1496 C 0.67017 0.81069 1.11128
 C1497 C 0.69086 0.80939 1.09186
 N1498 N 0.68510 0.79647 1.08582
 N1499 N 0.69197 0.78962 1.07430
 C1500 C 0.70490 0.79538 1.06830
 N1501 N 0.71063 0.80833 1.07430
 N1502 N 0.70376 0.81518 1.08583
 C1503 C 0.71273 0.78757 1.05567
 C1504 C 0.72625 0.79344 1.04966
 C1505 C 0.73383 0.78588 1.03802
 C1506 C 0.72807 0.77228 1.03211
 C1507 C 0.71448 0.76649 1.03800
 C1508 C 0.70690 0.77404 1.04964
 H1509 H 0.69968 0.83515 1.10665
 H1510 H 0.68780 0.84703 1.12845
 H1511 H 0.65324 0.81239 1.12847
 H1512 H 0.66512 0.80052 1.10667
 H1513 H 0.73107 0.80383 1.05401
 H1514 H 0.74427 0.79066 1.03373
 H1515 H 0.70973 0.75604 1.03369
 H1516 H 0.69651 0.76920 1.05398
 C1517 C 0.18331 0.31659 1.10481
 C1518 C 0.17010 0.31042 1.11120
 C1519 C 0.16327 0.31724 1.12372
 C1520 C 0.16948 0.33040 1.13017
 C1521 C 0.18260 0.33666 1.12369
 C1522 C 0.18943 0.32984 1.11117
 C1523 C 0.19079 0.30913 1.09177
 N1524 N 0.20369 0.31492 1.08574
 N1525 N 0.21056 0.30806 1.07421
 C1526 C 0.20483 0.29511 1.06822
 N1527 N 0.19190 0.28935 1.07422
 N1528 N 0.18503 0.29621 1.08574
 C1529 C 0.21266 0.28730 1.05560
 C1530 C 0.20682 0.27377 1.04957
 C1531 C 0.21440 0.26620 1.03794
 C1532 C 0.22799 0.27199 1.03204
 C1533 C 0.23376 0.28559 1.03795
 C1534 C 0.22618 0.29315 1.04958
 H1535 H 0.16506 0.30024 1.10659
 H1536 H 0.15317 0.31212 1.12839
 H1537 H 0.18769 0.34679 1.12834
 H1538 H 0.19958 0.33491 1.10655
 H1539 H 0.19643 0.26893 1.05391
 H1540 H 0.20964 0.25576 1.03363
 H1541 H 0.24420 0.29035 1.03365
 H1542 H 0.23101 0.30355 1.05393
 C1543 C 0.18321 0.81695 0.60478
 C1544 C 0.18936 0.83016 0.61117
 C1545 C 0.18256 0.83696 0.62372
 C1546 C 0.16945 0.83070 0.63020
 C1547 C 0.16320 0.81758 0.62372
 C1548 C 0.17000 0.81078 0.61117
 C1549 C 0.19066 0.80951 0.59171
 N1550 N 0.18489 0.79660 0.58566
 N1551 N 0.19174 0.78977 0.57411
 C1552 C 0.20466 0.79554 0.56810
 N1553 N 0.21040 0.80848 0.57411
 N1554 N 0.20355 0.81531 0.58566
 C1555 C 0.21247 0.78775 0.55545
 C1556 C 0.22597 0.79362 0.54942
 C1557 C 0.23354 0.78608 0.53777
 C1558 C 0.22778 0.77248 0.53185
 C1559 C 0.21419 0.76668 0.53776
 C1560 C 0.20663 0.77422 0.54942
 H1561 H 0.19951 0.83524 0.60654
 H1562 H 0.18768 0.84707 0.62839
 H1563 H 0.15310 0.81245 0.62839
 H1564 H 0.16494 0.80063 0.60654
 H1565 H 0.23079 0.80402 0.55377
 H1566 H 0.24397 0.79086 0.53346
 H1567 H 0.20944 0.75623 0.53345
 H1568 H 0.19625 0.76937 0.55377
 C1569 C 0.31687 0.68349 0.60452
 C1570 C 0.31075 0.67025 0.61087
 C1571 C 0.31758 0.66341 0.62338
 C1572 C 0.33072 0.66964 0.62985
 C1573 C 0.33694 0.68279 0.62340
 C1574 C 0.33010 0.68963 0.61089
 C1575 C 0.30939 0.69097 0.59149
 N1576 N 0.31516 0.70389 0.58547
 N1577 N 0.30828 0.71076 0.57396
 C1578 C 0.29535 0.70501 0.56796
 N1579 N 0.28962 0.69206 0.57394
 N1580 N 0.29649 0.68519 0.58545
 C1581 C 0.28752 0.71284 0.55534
 C1582 C 0.27400 0.70698 0.54931
 C1583 C 0.26643 0.71455 0.53768
 C1584 C 0.27218 0.72817 0.53180
 C1585 C 0.28577 0.73395 0.53771
 C1586 C 0.29335 0.72638 0.54934
 H1587 H 0.30058 0.66519 0.60626
 H1588 H 0.31249 0.65328 0.62803
 H1589 H 0.34706 0.68790 0.62806
 H1590 H 0.33515 0.69980 0.60629
 H1591 H 0.26918 0.69658 0.55364
 H1592 H 0.25599 0.70978 0.53338
 H1593 H 0.29052 0.74441 0.53342
 H1594 H 0.30374 0.73122 0.55369
 C1595 C 0.31695 0.18316 1.10498
 C1596 C 0.31080 0.16995 1.11137
 C1597 C 0.31760 0.16316 1.12392
 C1598 C 0.33073 0.16941 1.13040
 C1599 C 0.33697 0.18253 1.12391
 C1600 C 0.33017 0.18932 1.11135
 C1601 C 0.30950 0.19060 1.09191
 N1602 N 0.31528 0.20350 1.08586
 N1603 N 0.30843 0.21033 1.07431
 C1604 C 0.29549 0.20457 1.06831
 N1605 N 0.28974 0.19165 1.07433
 N1606 N 0.29660 0.18481 1.08587
 C1607 C 0.28768 0.21237 1.05566
 C1608 C 0.27416 0.20651 1.04965
 C1609 C 0.26660 0.21406 1.03799
 C1610 C 0.27238 0.22765 1.03207
 C1611 C 0.28597 0.23343 1.03797
 C1612 C 0.29353 0.22588 1.04963
 H1613 H 0.30064 0.16488 1.10675
 H1614 H 0.31249 0.15305 1.12860
 H1615 H 0.34708 0.18765 1.12857
 H1616 H 0.33523 0.19947 1.10672
 H1617 H 0.26933 0.19612 1.05400
 H1618 H 0.25616 0.20929 1.03369
 H1619 H 0.29073 0.24387 1.03366
 H1620 H 0.30392 0.23072 1.05397
 C1621 C 0.81698 0.68329 1.10494
 C1622 C 0.81083 0.67006 1.11131
 C1623 C 0.81765 0.66324 1.12384
 C1624 C 0.83078 0.66948 1.13032
 C1625 C 0.83702 0.68261 1.12385
 C1626 C 0.83020 0.68943 1.11132
 C1627 C 0.80953 0.69075 1.09188
 N1628 N 0.81532 0.70366 1.08586
 N1629 N 0.80847 0.71052 1.07432
 C1630 C 0.79553 0.70478 1.06831
 N1631 N 0.78978 0.69184 1.07430
 N1632 N 0.79663 0.68498 1.08584
 C1633 C 0.78773 0.71260 1.05568
 C1634 C 0.77421 0.70675 1.04964
 C1635 C 0.76666 0.71433 1.03800
 C1636 C 0.77244 0.72793 1.03211
 C1637 C 0.78603 0.73370 1.03802
 C1638 C 0.79359 0.72612 1.04967
 H1639 H 0.80068 0.66500 1.10668
 H1640 H 0.81253 0.65312 1.12850
 H1641 H 0.84713 0.68772 1.12852
 H1642 H 0.83527 0.69959 1.10671
 H1643 H 0.76937 0.69636 1.05397
 H1644 H 0.75622 0.70957 1.03368
 H1645 H 0.79080 0.74414 1.03373
 H1646 H 0.80398 0.73095 1.05402
 C1647 C 0.81668 0.18314 0.60453
 C1648 C 0.81049 0.16995 0.61093
 C1649 C 0.81730 0.16313 0.62347
 C1650 C 0.83046 0.16933 0.62992
 C1651 C 0.83673 0.18244 0.62342
 C1652 C 0.82993 0.18925 0.61089
 C1653 C 0.80924 0.19061 0.59147
 N1654 N 0.81506 0.20349 0.58542
 N1655 N 0.80822 0.21035 0.57388
 C1656 C 0.79526 0.20464 0.56789
 N1657 N 0.78948 0.19172 0.57390
 N1658 N 0.79631 0.18486 0.58545
 C1659 C 0.78747 0.21246 0.55525
 C1660 C 0.77395 0.20663 0.54922
 C1661 C 0.76641 0.21421 0.53756
 C1662 C 0.77221 0.22779 0.53166
 C1663 C 0.78582 0.23354 0.53757
 C1664 C 0.79336 0.22597 0.54922
 H1665 H 0.80031 0.16492 0.60633
 H1666 H 0.81216 0.15304 0.62816
 H1667 H 0.84687 0.18752 0.62807
 H1668 H 0.83502 0.19939 0.60625
 H1669 H 0.76909 0.19625 0.55356
 H1670 H 0.75596 0.20946 0.53326
 H1671 H 0.79060 0.24397 0.53327
 H1672 H 0.80376 0.23078 0.55357
 C1673 C 0.68347 0.68329 0.39556
 C1674 C 0.68961 0.67007 0.38918
 C1675 C 0.68278 0.66325 0.37665
 C1676 C 0.66965 0.66948 0.37019
 C1677 C 0.66341 0.68261 0.37667
 C1678 C 0.67024 0.68943 0.38919
 C1679 C 0.69093 0.69075 0.40861
 N1680 N 0.68515 0.70366 0.41465
 N1681 N 0.69202 0.71052 0.42618
 C1682 C 0.70496 0.70478 0.43217
 N1683 N 0.71070 0.69184 0.42617
 N1684 N 0.70384 0.68498 0.41464
 C1685 C 0.71278 0.71260 0.44480
 C1686 C 0.72630 0.70675 0.45082
 C1687 C 0.73386 0.71433 0.46247
 C1688 C 0.72809 0.72793 0.46836
 C1689 C 0.71449 0.73370 0.46246
 C1690 C 0.70693 0.72612 0.45082
 H1691 H 0.69977 0.66501 0.39379
 H1692 H 0.68789 0.65313 0.37198
 H1693 H 0.65329 0.68772 0.37201
 H1694 H 0.66518 0.69959 0.39382
 H1695 H 0.73113 0.69636 0.44649
 H1696 H 0.74430 0.70957 0.46677
 H1697 H 0.70973 0.74414 0.46675
 H1698 H 0.69654 0.73095 0.44647
 C1699 C 0.68326 0.18343 -0.10492
 C1700 C 0.68940 0.17021 -0.11129
 C1701 C 0.68259 0.16339 -0.12383
 C1702 C 0.66946 0.16962 -0.13031
 C1703 C 0.66323 0.18276 -0.12384
 C1704 C 0.67004 0.18958 -0.11130
 C1705 C 0.69072 0.19089 -0.09187
 N1706 N 0.68495 0.20380 -0.08583
 N1707 N 0.69181 0.21065 -0.07429
 C1708 C 0.70474 0.20490 -0.06829
 N1709 N 0.71047 0.19196 -0.07428
 N1710 N 0.70362 0.18510 -0.08582
 C1711 C 0.71255 0.21270 -0.05565
 C1712 C 0.72607 0.20684 -0.04963
 C1713 C 0.73364 0.21439 -0.03798
 C1714 C 0.72787 0.22799 -0.03206
 C1715 C 0.71428 0.23378 -0.03797
 C1716 C 0.70671 0.22623 -0.04962
 H1717 H 0.69956 0.16514 -0.10667
 H1718 H 0.68770 0.15327 -0.12849
 H1719 H 0.65312 0.18787 -0.12851
 H1720 H 0.66498 0.19974 -0.10669
 H1721 H 0.73089 0.19645 -0.05397
 H1722 H 0.74407 0.20962 -0.03367
 H1723 H 0.70953 0.24422 -0.03366
 H1724 H 0.69633 0.23107 -0.05396
 C1725 C 0.18371 0.68318 -0.10472
 C1726 C 0.18989 0.66998 -0.11111
 C1727 C 0.18308 0.66314 -0.12364
 C1728 C 0.16992 0.66935 -0.13009
 C1729 C 0.16366 0.68246 -0.12361
 C1730 C 0.17047 0.68929 -0.11108
 C1731 C 0.19116 0.69066 -0.09167
 N1732 N 0.18534 0.70354 -0.08563
 N1733 N 0.19218 0.71042 -0.07409
 C1734 C 0.20514 0.70471 -0.06810
 N1735 N 0.21092 0.69180 -0.07410
 N1736 N 0.20408 0.68492 -0.08563
 C1737 C 0.21293 0.71255 -0.05546
 C1738 C 0.22646 0.70674 -0.04943
 C1739 C 0.23400 0.71433 -0.03778
 C1740 C 0.22819 0.72792 -0.03189
 C1741 C 0.21459 0.73366 -0.03781
 C1742 C 0.20705 0.72607 -0.04945
 H1743 H 0.20006 0.66494 -0.10650
 H1744 H 0.18821 0.65305 -0.12832
 H1745 H 0.15352 0.68754 -0.12826
 H1746 H 0.16538 0.69943 -0.10645
 H1747 H 0.23131 0.69635 -0.05376
 H1748 H 0.24444 0.70959 -0.03347
 H1749 H 0.20980 0.74409 -0.03352
 H1750 H 0.19665 0.73087 -0.05381
 C1751 C 0.18327 0.18327 0.39522
 C1752 C 0.17007 0.18943 0.38884
 C1753 C 0.16326 0.18264 0.37629
 C1754 C 0.16949 0.16951 0.36981
 C1755 C 0.18261 0.16325 0.37629
 C1756 C 0.18942 0.17005 0.38884
 C1757 C 0.19072 0.19071 0.40830
 N1758 N 0.20362 0.18491 0.41434
 N1759 N 0.21047 0.19174 0.42590
 C1760 C 0.20472 0.20467 0.43191
 N1761 N 0.19180 0.21044 0.42591
 N1762 N 0.18495 0.20360 0.41435
 C1763 C 0.21253 0.21246 0.44457
 C1764 C 0.20668 0.22597 0.45062
 C1765 C 0.21423 0.23351 0.46228
 C1766 C 0.22782 0.22773 0.46818
 C1767 C 0.23360 0.21414 0.46226
 C1768 C 0.22604 0.20660 0.45059
 H1769 H 0.16501 0.19959 0.39346
 H1770 H 0.15316 0.18776 0.37161
 H1771 H 0.18772 0.15314 0.37162
 H1772 H 0.19956 0.16497 0.39347
 H1773 H 0.19629 0.23081 0.44628
 H1774 H 0.20947 0.24394 0.46661
 H1775 H 0.24404 0.20937 0.46656
 H1776 H 0.23088 0.19622 0.44623
 C1777 C 0.31680 0.39533 0.68347
 C1778 C 0.31066 0.38896 0.67026
 C1779 C 0.31749 0.37643 0.66343
 C1780 C 0.33063 0.36996 0.66965
 C1781 C 0.33686 0.37643 0.68278
 C1782 C 0.33003 0.38896 0.68960
 C1783 C 0.30934 0.40839 0.69093
 N1784 N 0.31513 0.41444 0.70382
 N1785 N 0.30827 0.42598 0.71068
 C1786 C 0.29533 0.43198 0.70494
 N1787 N 0.28957 0.42597 0.69203
 N1788 N 0.29643 0.41443 0.68517
 C1789 C 0.28752 0.44463 0.71275
 C1790 C 0.27399 0.45065 0.70692
 C1791 C 0.26644 0.46231 0.71447
 C1792 C 0.27223 0.46824 0.72804
 C1793 C 0.28583 0.46234 0.73380
 C1794 C 0.29339 0.45067 0.72625
 H1795 H 0.30050 0.39357 0.66521
 H1796 H 0.31238 0.37176 0.65332
 H1797 H 0.34698 0.37177 0.68787
 H1798 H 0.33509 0.39358 0.69975
 H1799 H 0.26915 0.44629 0.69655
 H1800 H 0.25599 0.46662 0.70972
 H1801 H 0.29061 0.46666 0.74422
 H1802 H 0.30378 0.44633 0.73106
 C1803 C 0.31694 0.89595 0.18322
 C1804 C 0.31081 0.88959 0.16999
 C1805 C 0.31766 0.87708 0.16315
 C1806 C 0.33081 0.87063 0.16936
 C1807 C 0.33703 0.87709 0.18249
 C1808 C 0.33018 0.88960 0.18934
 C1809 C 0.30945 0.90898 0.19070
 N1810 N 0.31521 0.91501 0.20362
 N1811 N 0.30833 0.92652 0.21049
 C1812 C 0.29538 0.93252 0.20476
 N1813 N 0.28965 0.92653 0.19182
 N1814 N 0.29653 0.91502 0.18494
 C1815 C 0.28755 0.94513 0.21259
 C1816 C 0.27403 0.95116 0.20674
 C1817 C 0.26645 0.96280 0.21432
 C1818 C 0.27221 0.96869 0.22791
 C1819 C 0.28580 0.96278 0.23369
 C1820 C 0.29338 0.95114 0.22612
 H1821 H 0.30063 0.89420 0.16495
 H1822 H 0.31256 0.87242 0.15303
 H1823 H 0.34716 0.87244 0.18759
 H1824 H 0.33523 0.89421 0.19950
 H1825 H 0.26921 0.94683 0.19635
 H1826 H 0.25601 0.96711 0.20955
 H1827 H 0.29055 0.96707 0.24414
 H1828 H 0.30377 0.94679 0.23095
 C1829 C 0.81736 0.39553 0.18298
 C1830 C 0.81122 0.38916 0.16976
 C1831 C 0.81804 0.37662 0.16294
 C1832 C 0.83117 0.37013 0.16917
 C1833 C 0.83740 0.37660 0.18231
 C1834 C 0.83058 0.38914 0.18912
 C1835 C 0.80990 0.40859 0.19044
 N1836 N 0.81567 0.41462 0.20335
 N1837 N 0.80880 0.42616 0.21020
 C1838 C 0.79587 0.43217 0.20446
 N1839 N 0.79014 0.42617 0.19152
 N1840 N 0.79700 0.41463 0.18466
 C1841 C 0.78805 0.44480 0.21227
 C1842 C 0.77454 0.45083 0.20642
 C1843 C 0.76696 0.46248 0.21399
 C1844 C 0.77272 0.46837 0.22758
 C1845 C 0.78631 0.46246 0.23336
 C1846 C 0.79389 0.45082 0.22579
 H1847 H 0.80107 0.39379 0.16470
 H1848 H 0.81294 0.37196 0.15283
 H1849 H 0.84751 0.37193 0.18741
 H1850 H 0.83564 0.39375 0.19928
 H1851 H 0.76971 0.44649 0.19603
 H1852 H 0.75652 0.46678 0.20923
 H1853 H 0.79107 0.46676 0.24380
 H1854 H 0.80428 0.44647 0.23062
 C1855 C 0.81696 0.89590 0.68339
 C1856 C 0.81083 0.88952 0.67017
 C1857 C 0.81769 0.87701 0.66334
 C1858 C 0.83084 0.87056 0.66956
 C1859 C 0.83705 0.87704 0.68269
 C1860 C 0.83020 0.88955 0.68952
 C1861 C 0.80947 0.90894 0.69086
 N1862 N 0.81523 0.91499 0.70376
 N1863 N 0.80835 0.92651 0.71062
 C1864 C 0.79540 0.93249 0.70488
 N1865 N 0.78966 0.92647 0.69195
 N1866 N 0.79655 0.91495 0.68509
 C1867 C 0.78756 0.94512 0.71269
 C1868 C 0.77402 0.95111 0.70685
 C1869 C 0.76644 0.96276 0.71440
 C1870 C 0.77221 0.96869 0.72798
 C1871 C 0.78582 0.96281 0.73375
 C1872 C 0.79340 0.95116 0.72619
 H1873 H 0.80066 0.89412 0.66512
 H1874 H 0.81259 0.87234 0.65322
 H1875 H 0.84718 0.87239 0.68779
 H1876 H 0.83525 0.89417 0.69968
 H1877 H 0.76919 0.94675 0.69647
 H1878 H 0.75599 0.96704 0.70965
 H1879 H 0.79058 0.96714 0.74417
 H1880 H 0.80380 0.94684 0.73102
 C1881 C 0.68343 0.60481 0.68353
 C1882 C 0.67022 0.61119 0.68968
 C1883 C 0.66337 0.62371 0.68286
 C1884 C 0.66958 0.63017 0.66972
 C1885 C 0.68271 0.62369 0.66348
 C1886 C 0.68955 0.61117 0.67030
 C1887 C 0.69092 0.59176 0.69099
 N1888 N 0.70382 0.58573 0.68521
 N1889 N 0.71070 0.57419 0.69206
 C1890 C 0.70497 0.56819 0.70499
 N1891 N 0.69204 0.57419 0.71075
 N1892 N 0.68516 0.58572 0.70389
 C1893 C 0.71280 0.55555 0.71279
 C1894 C 0.70697 0.54952 0.72630
 C1895 C 0.71454 0.53786 0.73385
 C1896 C 0.72813 0.53196 0.72806
 C1897 C 0.73390 0.53788 0.71449
 C1898 C 0.72633 0.54954 0.70694
 H1899 H 0.66518 0.60657 0.69985
 H1900 H 0.65326 0.62838 0.68797
 H1901 H 0.68779 0.62835 0.65336
 H1902 H 0.69970 0.60655 0.66524
 H1903 H 0.69658 0.55386 0.73113
 H1904 H 0.70978 0.53355 0.74428
 H1905 H 0.74434 0.53358 0.70972
 H1906 H 0.73115 0.55389 0.69656
 C1907 C 0.68314 0.10435 0.18287
 C1908 C 0.66990 0.11071 0.18899
 C1909 C 0.66306 0.12322 0.18215
 C1910 C 0.66929 0.12969 0.16902
 C1911 C 0.68244 0.12323 0.16282
 C1912 C 0.68928 0.11072 0.16966
 C1913 C 0.69063 0.09131 0.19036
 N1914 N 0.70354 0.08528 0.18460
 N1915 N 0.71042 0.07377 0.19148
 C1916 C 0.70468 0.06778 0.20442
 N1917 N 0.69173 0.07377 0.21014
 N1918 N 0.68485 0.08529 0.20326
 C1919 C 0.71251 0.05517 0.21225
 C1920 C 0.70667 0.04916 0.22578
 C1921 C 0.71425 0.03753 0.23336
 C1922 C 0.72785 0.03163 0.22759
 C1923 C 0.73362 0.03751 0.21400
 C1924 C 0.72604 0.04914 0.20642
 H1925 H 0.66484 0.10609 0.19914
 H1926 H 0.65293 0.12787 0.18724
 H1927 H 0.68755 0.12789 0.15271
 H1928 H 0.69946 0.10611 0.16462
 H1929 H 0.69628 0.05351 0.23059
 H1930 H 0.70950 0.03324 0.24380
 H1931 H 0.74406 0.03321 0.20925
 H1932 H 0.73086 0.05347 0.19603
 C1933 C 0.18314 0.60471 0.18309
 C1934 C 0.18928 0.61107 0.16988
 C1935 C 0.18244 0.62359 0.16303
 C1936 C 0.16929 0.63005 0.16924
 C1937 C 0.16305 0.62358 0.18236
 C1938 C 0.16989 0.61106 0.18920
 C1939 C 0.19062 0.59168 0.19058
 N1940 N 0.18484 0.58565 0.20348
 N1941 N 0.19172 0.57414 0.21036
 C1942 C 0.20467 0.56815 0.20465
 N1943 N 0.21042 0.57414 0.19171
 N1944 N 0.20354 0.58565 0.18483
 C1945 C 0.21251 0.55554 0.21249
 C1946 C 0.22604 0.54952 0.20666
 C1947 C 0.23362 0.53789 0.21425
 C1948 C 0.22785 0.53200 0.22784
 C1949 C 0.21424 0.53790 0.23359
 C1950 C 0.20666 0.54953 0.22600
 H1951 H 0.19945 0.60647 0.16484
 H1952 H 0.18755 0.62825 0.15293
 H1953 H 0.15292 0.62823 0.18745
 H1954 H 0.16483 0.60645 0.19936
 H1955 H 0.23087 0.55385 0.19627
 H1956 H 0.24407 0.53359 0.20951
 H1957 H 0.20948 0.53361 0.24403
 H1958 H 0.19626 0.55387 0.23082
 C1959 C 0.18327 0.10414 0.68331
 C1960 C 0.18940 0.11050 0.67008
 C1961 C 0.18256 0.12301 0.66324
 C1962 C 0.16942 0.12948 0.66946
 C1963 C 0.16320 0.12303 0.68260
 C1964 C 0.17004 0.11052 0.68944
 C1965 C 0.19075 0.09111 0.69079
 N1966 N 0.18499 0.08508 0.70370
 N1967 N 0.19187 0.07356 0.71057
 C1968 C 0.20480 0.06756 0.70483
 N1969 N 0.21053 0.07354 0.69189
 N1970 N 0.20366 0.08507 0.68502
 C1971 C 0.21263 0.05493 0.71265
 C1972 C 0.22615 0.04891 0.70680
 C1973 C 0.23373 0.03726 0.71437
 C1974 C 0.22796 0.03137 0.72796
 C1975 C 0.21437 0.03727 0.73373
 C1976 C 0.20680 0.04892 0.72617
 H1977 H 0.19956 0.10588 0.66503
 H1978 H 0.18765 0.12766 0.65312
 H1979 H 0.15308 0.12769 0.68770
 H1980 H 0.16499 0.10591 0.69960
 H1981 H 0.23097 0.05324 0.69641
 H1982 H 0.24416 0.03296 0.70961
 H1983 H 0.20962 0.03298 0.74417
 H1984 H 0.19641 0.05326 0.73100
 C1985 C 0.31693 0.60499 0.31670
 C1986 C 0.33015 0.61136 0.31055
 C1987 C 0.33699 0.62389 0.31737
 C1988 C 0.33078 0.63036 0.33051
 C1989 C 0.31765 0.62388 0.33675
 C1990 C 0.31081 0.61136 0.32992
 C1991 C 0.30944 0.59194 0.30924
 N1992 N 0.29654 0.58590 0.31502
 N1993 N 0.28966 0.57436 0.30817
 C1994 C 0.29539 0.56836 0.29524
 N1995 N 0.30833 0.57436 0.28949
 N1996 N 0.31520 0.58589 0.29634
 C1997 C 0.28756 0.55572 0.28744
 C1998 C 0.29340 0.54968 0.27393
 C1999 C 0.28582 0.53802 0.26639
 C2000 C 0.27223 0.53211 0.27217
 C2001 C 0.26647 0.53804 0.28575
 C2002 C 0.27404 0.54970 0.29329
 H2003 H 0.33519 0.60675 0.30039
 H2004 H 0.34710 0.62856 0.31226
 H2005 H 0.31256 0.62854 0.34687
 H2006 H 0.30065 0.60673 0.33499
 H2007 H 0.30379 0.55402 0.26910
 H2008 H 0.29058 0.53370 0.25596
 H2009 H 0.25603 0.53374 0.29051
 H2010 H 0.26922 0.55405 0.30368
 C2011 C 0.31702 0.10413 0.81700
 C2012 C 0.31088 0.11050 0.83022
 C2013 C 0.31772 0.12301 0.83706
 C2014 C 0.33087 0.12948 0.83086
 C2015 C 0.33710 0.12302 0.81772
 C2016 C 0.33026 0.11050 0.81088
 C2017 C 0.30954 0.09109 0.80951
 N2018 N 0.31532 0.08507 0.79661
 N2019 N 0.30844 0.07355 0.78973
 C2020 C 0.29550 0.06754 0.79546
 N2021 N 0.28976 0.07353 0.80839
 N2022 N 0.29663 0.08505 0.81527
 C2023 C 0.28767 0.05492 0.78762
 C2024 C 0.27415 0.04889 0.79346
 C2025 C 0.26658 0.03725 0.78588
 C2026 C 0.27235 0.03136 0.77229
 C2027 C 0.28594 0.03727 0.76653
 C2028 C 0.29352 0.04891 0.77410
 H2029 H 0.30071 0.10588 0.83526
 H2030 H 0.31262 0.12767 0.84718
 H2031 H 0.34723 0.12768 0.81263
 H2032 H 0.33532 0.10589 0.80073
 H2033 H 0.26933 0.05322 0.80385
 H2034 H 0.25614 0.03293 0.79064
 H2035 H 0.29070 0.03298 0.75609
 H2036 H 0.30391 0.05326 0.76928
 C2037 C 0.81723 0.60470 0.81701
 C2038 C 0.83045 0.61107 0.81087
 C2039 C 0.83729 0.62360 0.81769
 C2040 C 0.83108 0.63007 0.83083
 C2041 C 0.81794 0.62359 0.83706
 C2042 C 0.81110 0.61107 0.83023
 C2043 C 0.80975 0.59165 0.80954
 N2044 N 0.79684 0.58562 0.81531
 N2045 N 0.78996 0.57409 0.80845
 C2046 C 0.79570 0.56809 0.79552
 N2047 N 0.80864 0.57408 0.78978
 N2048 N 0.81551 0.58561 0.79664
 C2049 C 0.78786 0.55546 0.78770
 C2050 C 0.79371 0.54944 0.77418
 C2051 C 0.78613 0.53779 0.76661
 C2052 C 0.77252 0.53189 0.77238
 C2053 C 0.76675 0.53780 0.78596
 C2054 C 0.77433 0.54944 0.79353
 H2055 H 0.83550 0.60646 0.80071
 H2056 H 0.84741 0.62827 0.81259
 H2057 H 0.81284 0.62826 0.84717
 H2058 H 0.80094 0.60645 0.83529
 H2059 H 0.80410 0.55377 0.76936
 H2060 H 0.79088 0.53349 0.75618
 H2061 H 0.75631 0.53350 0.79071
 H2062 H 0.76951 0.55378 0.80392
 C2063 C 0.81701 0.10446 0.31657
 C2064 C 0.81088 0.11082 0.32979
 C2065 C 0.81773 0.12333 0.33664
 C2066 C 0.83088 0.12979 0.33043
 C2067 C 0.83710 0.12333 0.31729
 C2068 C 0.83025 0.11082 0.31045
 C2069 C 0.80951 0.09143 0.30909
 N2070 N 0.81527 0.08540 0.29618
 N2071 N 0.80838 0.07388 0.28931
 C2072 C 0.79544 0.06789 0.29504
 N2073 N 0.78971 0.07388 0.30798
 N2074 N 0.79660 0.08540 0.31485
 C2075 C 0.78760 0.05527 0.28722
 C2076 C 0.77407 0.04925 0.29307
 C2077 C 0.76649 0.03760 0.28551
 C2078 C 0.77225 0.03170 0.27192
 C2079 C 0.78584 0.03760 0.26614
 C2080 C 0.79343 0.04924 0.27370
 H2081 H 0.80071 0.10621 0.33484
 H2082 H 0.81264 0.12799 0.34676
 H2083 H 0.84723 0.12799 0.31220
 H2084 H 0.83529 0.10621 0.30029
 H2085 H 0.76926 0.05359 0.30346
 H2086 H 0.75605 0.03330 0.29027
 H2087 H 0.79059 0.03329 0.25570
 H2088 H 0.80382 0.05359 0.26887
 C2089 C 0.68355 0.39544 0.31636
 C2090 C 0.68966 0.38908 0.32960
 C2091 C 0.68281 0.37656 0.33642
 C2092 C 0.66967 0.37009 0.33018
 C2093 C 0.66348 0.37654 0.31703
 C2094 C 0.67033 0.38906 0.31021
 C2095 C 0.69105 0.40848 0.30890
 N2096 N 0.68530 0.41452 0.29599
 N2097 N 0.69219 0.42605 0.28914
 C2098 C 0.70512 0.43205 0.29491
 N2099 N 0.71083 0.42605 0.30785
 N2100 N 0.70395 0.41452 0.31470
 C2101 C 0.71296 0.44468 0.28711
 C2102 C 0.72648 0.45070 0.29298
 C2103 C 0.73406 0.46236 0.28544
 C2104 C 0.72830 0.46828 0.27186
 C2105 C 0.71472 0.46238 0.26606
 C2106 C 0.70713 0.45072 0.27360
 H2107 H 0.69981 0.39370 0.33467
 H2108 H 0.68788 0.37191 0.34655
 H2109 H 0.65337 0.37188 0.31192
 H2110 H 0.66530 0.39367 0.30003
 H2111 H 0.73129 0.44635 0.30337
 H2112 H 0.74449 0.46667 0.29022
 H2113 H 0.70997 0.46669 0.25562
 H2114 H 0.69675 0.44638 0.26875
 C2115 C 0.68335 0.89593 0.81714
 C2116 C 0.68952 0.88955 0.83034
 C2117 C 0.68270 0.87703 0.83719
 C2118 C 0.66953 0.87057 0.83101
 C2119 C 0.66327 0.87705 0.81790
 C2120 C 0.67009 0.88957 0.81106
 C2121 C 0.69081 0.90898 0.80965
 N2122 N 0.68500 0.91501 0.79677
 N2123 N 0.69185 0.92653 0.78988
 C2124 C 0.70481 0.93254 0.79557
 N2125 N 0.71059 0.92654 0.80849
 N2126 N 0.70374 0.91501 0.81538
 C2127 C 0.71261 0.94516 0.78773
 C2128 C 0.72615 0.95120 0.79353
 C2129 C 0.73369 0.96285 0.78593
 C2130 C 0.72789 0.96873 0.77235
 C2131 C 0.71428 0.96280 0.76662
 C2132 C 0.70673 0.95116 0.77422
 H2133 H 0.69971 0.89416 0.83536
 H2134 H 0.68783 0.87236 0.84728
 H2135 H 0.65313 0.87240 0.81283
 H2136 H 0.66501 0.89420 0.80092
 H2137 H 0.73100 0.94688 0.80391
 H2138 H 0.74415 0.96716 0.79066
 H2139 H 0.70950 0.96709 0.75619
 H2140 H 0.69633 0.94681 0.76942
 C2141 C 0.18330 0.39554 0.81711
 C2142 C 0.17006 0.38918 0.81099
 C2143 C 0.16323 0.37665 0.81781
 C2144 C 0.16947 0.37016 0.83093
 C2145 C 0.18263 0.37662 0.83713
 C2146 C 0.18946 0.38915 0.83031
 C2147 C 0.19077 0.40859 0.80964
 N2148 N 0.20370 0.41462 0.81538
 N2149 N 0.21056 0.42615 0.80851
 C2150 C 0.20480 0.43216 0.79560
 N2151 N 0.19184 0.42617 0.78989
 N2152 N 0.18497 0.41464 0.79676
 C2153 C 0.21261 0.44478 0.78777
 C2154 C 0.20674 0.45081 0.77427
 C2155 C 0.21431 0.46245 0.76669
 C2156 C 0.22793 0.46834 0.77242
 C2157 C 0.23372 0.46244 0.78600
 C2158 C 0.22616 0.45080 0.79358
 H2159 H 0.16499 0.39381 0.80085
 H2160 H 0.15310 0.37200 0.81272
 H2161 H 0.18774 0.37195 0.84723
 H2162 H 0.19963 0.39376 0.83535
 H2163 H 0.19634 0.44647 0.76947
 H2164 H 0.20953 0.46675 0.75626
 H2165 H 0.24418 0.46674 0.79073
 H2166 H 0.23100 0.44646 0.80395
 C2167 C 0.18306 0.89582 0.31674
 C2168 C 0.16984 0.88944 0.31059
 C2169 C 0.16300 0.87691 0.31741
 C2170 C 0.16921 0.87046 0.33056
 C2171 C 0.18234 0.87695 0.33680
 C2172 C 0.18917 0.88947 0.32997
 C2173 C 0.19054 0.90887 0.30927
 N2174 N 0.20343 0.91492 0.31507
 N2175 N 0.21031 0.92646 0.30821
 C2176 C 0.20459 0.93244 0.29527
 N2177 N 0.19167 0.92643 0.28951
 N2178 N 0.18479 0.91490 0.29636
 C2179 C 0.21243 0.94508 0.28746
 C2180 C 0.20661 0.95110 0.27394
 C2181 C 0.21419 0.96275 0.26639
 C2182 C 0.22778 0.96866 0.27219
 C2183 C 0.23352 0.96276 0.28579
 C2184 C 0.22594 0.95111 0.29333
 H2185 H 0.16480 0.89404 0.30042
 H2186 H 0.15289 0.87224 0.31230
 H2187 H 0.18742 0.87230 0.34692
 H2188 H 0.19933 0.89410 0.33504
 H2189 H 0.19623 0.94675 0.26910
 H2190 H 0.20945 0.96705 0.25595
 H2191 H 0.24395 0.96707 0.29057
 H2192 H 0.23075 0.94677 0.30373
 C2193 C 0.39544 0.31660 0.68348
 C2194 C 0.38906 0.31047 0.67025
 C2195 C 0.37654 0.31731 0.66343
 C2196 C 0.37008 0.33045 0.66965
 C2197 C 0.37655 0.33667 0.68279
 C2198 C 0.38907 0.32983 0.68961
 C2199 C 0.40848 0.30911 0.69094
 N2200 N 0.41453 0.31488 0.70384
 N2201 N 0.42606 0.30801 0.71069
 C2202 C 0.43206 0.29507 0.70494
 N2203 N 0.42605 0.28933 0.69201
 N2204 N 0.41451 0.29620 0.68516
 C2205 C 0.44470 0.28724 0.71274
 C2206 C 0.45071 0.27372 0.70689
 C2207 C 0.46238 0.26616 0.71444
 C2208 C 0.46830 0.27193 0.72801
 C2209 C 0.46240 0.28552 0.73379
 C2210 C 0.45073 0.29309 0.72625
 H2211 H 0.39368 0.30030 0.66520
 H2212 H 0.37188 0.31221 0.65331
 H2213 H 0.37190 0.34679 0.68789
 H2214 H 0.39369 0.33488 0.69977
 H2215 H 0.44636 0.26889 0.69651
 H2216 H 0.46668 0.25571 0.70967
 H2217 H 0.46671 0.29028 0.74422
 H2218 H 0.44640 0.30348 0.73108
 C2219 C 0.39573 0.81739 0.18312
 C2220 C 0.38935 0.83061 0.18926
 C2221 C 0.37682 0.83744 0.18244
 C2222 C 0.37035 0.83122 0.16931
 C2223 C 0.37683 0.81808 0.16308
 C2224 C 0.38936 0.81126 0.16990
 C2225 C 0.40878 0.80992 0.19058
 N2226 N 0.41482 0.79702 0.18481
 N2227 N 0.42635 0.79015 0.19167
 C2228 C 0.43235 0.79589 0.20460
 N2229 N 0.42635 0.80882 0.21035
 N2230 N 0.41482 0.81569 0.20349
 C2231 C 0.44498 0.78806 0.21242
 C2232 C 0.45100 0.79390 0.22593
 C2233 C 0.46264 0.78632 0.23350
 C2234 C 0.46854 0.77272 0.22773
 C2235 C 0.46264 0.76696 0.21414
 C2236 C 0.45100 0.77453 0.20657
 H2237 H 0.39396 0.83567 0.19942
 H2238 H 0.37215 0.84755 0.18755
 H2239 H 0.37217 0.81298 0.15296
 H2240 H 0.39399 0.80110 0.16484
 H2241 H 0.44666 0.80430 0.23076
 H2242 H 0.46695 0.79108 0.24394
 H2243 H 0.46694 0.75651 0.20938
 H2244 H 0.44665 0.76971 0.19619
 C2245 C 0.89590 0.31671 0.18306
 C2246 C 0.88956 0.32997 0.18917
 C2247 C 0.87705 0.33681 0.18233
 C2248 C 0.87057 0.33058 0.16921
 C2249 C 0.87701 0.31741 0.16301
 C2250 C 0.88952 0.31056 0.16986
 C2251 C 0.90894 0.30923 0.19054
 N2252 N 0.91496 0.29630 0.18480
 N2253 N 0.92648 0.28942 0.19167
 C2254 C 0.93248 0.29518 0.20459
 N2255 N 0.92650 0.30814 0.21031
 N2256 N 0.91498 0.31501 0.20344
 C2257 C 0.94511 0.28736 0.21242
 C2258 C 0.95113 0.29321 0.22593
 C2259 C 0.96277 0.28565 0.23350
 C2260 C 0.96867 0.27204 0.22775
 C2261 C 0.96276 0.26625 0.21417
 C2262 C 0.95112 0.27382 0.20660
 H2263 H 0.89419 0.33503 0.19932
 H2264 H 0.87241 0.34696 0.18742
 H2265 H 0.87233 0.31230 0.15291
 H2266 H 0.89411 0.30038 0.16482
 H2267 H 0.94679 0.30362 0.23074
 H2268 H 0.96708 0.29042 0.24393
 H2269 H 0.96706 0.25580 0.20943
 H2270 H 0.94678 0.26898 0.19622
 C2271 C 0.89574 0.81730 0.68335
 C2272 C 0.88938 0.81118 0.67011
 C2273 C 0.87686 0.81801 0.66329
 C2274 C 0.87037 0.83113 0.66953
 C2275 C 0.87683 0.83734 0.68268
 C2276 C 0.88936 0.83051 0.68950
 C2277 C 0.90879 0.80982 0.69081
 N2278 N 0.91482 0.81557 0.70372
 N2279 N 0.92635 0.80869 0.71057
 C2280 C 0.93236 0.79577 0.70481
 N2281 N 0.92637 0.79005 0.69186
 N2282 N 0.91484 0.79693 0.68501
 C2283 C 0.94500 0.78793 0.71261
 C2284 C 0.95101 0.77442 0.70674
 C2285 C 0.96266 0.76683 0.71428
 C2286 C 0.96857 0.77258 0.72788
 C2287 C 0.96267 0.78616 0.73367
 C2288 C 0.95102 0.79375 0.72613
 H2289 H 0.89401 0.80103 0.66504
 H2290 H 0.87221 0.81292 0.65317
 H2291 H 0.87215 0.84745 0.68780
 H2292 H 0.89396 0.83555 0.69967
 H2293 H 0.94667 0.76961 0.69634
 H2294 H 0.96696 0.75639 0.70951
 H2295 H 0.96698 0.79091 0.74412
 H2296 H 0.94668 0.80414 0.73097
 C2297 C 0.60480 0.31676 0.31638
 C2298 C 0.61118 0.32997 0.31022
 C2299 C 0.62371 0.33682 0.31704
 C2300 C 0.63016 0.33062 0.33019
 C2301 C 0.62368 0.31750 0.33643
 C2302 C 0.61116 0.31065 0.32961
 C2303 C 0.59175 0.30927 0.30892
 N2304 N 0.58570 0.29638 0.31472
 N2305 N 0.57416 0.28950 0.30788
 C2306 C 0.56816 0.29522 0.29494
 N2307 N 0.57417 0.30814 0.28917
 N2308 N 0.58571 0.31502 0.29601
 C2309 C 0.55551 0.28738 0.28715
 C2310 C 0.54947 0.29321 0.27364
 C2311 C 0.53780 0.28564 0.26611
 C2312 C 0.53189 0.27205 0.27191
 C2313 C 0.53782 0.26630 0.28549
 C2314 C 0.54949 0.27387 0.29302
 H2315 H 0.60658 0.33500 0.30005
 H2316 H 0.62838 0.34693 0.31192
 H2317 H 0.62833 0.31241 0.34656
 H2318 H 0.60653 0.30050 0.33468
 H2319 H 0.55381 0.30360 0.26880
 H2320 H 0.53348 0.29038 0.25568
 H2321 H 0.53352 0.25586 0.29027
 H2322 H 0.55385 0.26906 0.30341
 C2323 C 0.60467 0.81728 0.81721
 C2324 C 0.61103 0.83052 0.81110
 C2325 C 0.62356 0.83735 0.81793
 C2326 C 0.63004 0.83111 0.83104
 C2327 C 0.62358 0.81795 0.83724
 C2328 C 0.61105 0.81112 0.83041
 C2329 C 0.59162 0.80981 0.80974
 N2330 N 0.58559 0.79688 0.81548
 N2331 N 0.57406 0.79002 0.80861
 C2332 C 0.56806 0.79577 0.79569
 N2333 N 0.57405 0.80873 0.78997
 N2334 N 0.58558 0.81560 0.79685
 C2335 C 0.55544 0.78795 0.78786
 C2336 C 0.54942 0.79381 0.77435
 C2337 C 0.53779 0.78624 0.76676
 C2338 C 0.53188 0.77263 0.77251
 C2339 C 0.53778 0.76685 0.78609
 C2340 C 0.54942 0.77442 0.79367
 H2341 H 0.60640 0.83559 0.80095
 H2342 H 0.62821 0.84748 0.81284
 H2343 H 0.62826 0.81284 0.84734
 H2344 H 0.60644 0.80095 0.83545
 H2345 H 0.55376 0.80421 0.76954
 H2346 H 0.53349 0.79101 0.75633
 H2347 H 0.53348 0.75639 0.79083
 H2348 H 0.55375 0.76958 0.80406
 C2349 C 0.10469 0.31680 0.81698
 C2350 C 0.11106 0.33005 0.81087
 C2351 C 0.12357 0.33689 0.81773
 C2352 C 0.13002 0.33065 0.83086
 C2353 C 0.12356 0.31749 0.83705
 C2354 C 0.11105 0.31065 0.83020
 C2355 C 0.09166 0.30932 0.80948
 N2356 N 0.08562 0.29640 0.81523
 N2357 N 0.07411 0.28953 0.80834
 C2358 C 0.06813 0.29527 0.79540
 N2359 N 0.07413 0.30822 0.78969
 N2360 N 0.08565 0.31509 0.79657
 C2361 C 0.05551 0.28744 0.78756
 C2362 C 0.04952 0.29329 0.77404
 C2363 C 0.03788 0.28572 0.76645
 C2364 C 0.03196 0.27213 0.77221
 C2365 C 0.03783 0.26635 0.78581
 C2366 C 0.04947 0.27392 0.79339
 H2367 H 0.10645 0.33511 0.80072
 H2368 H 0.12822 0.34702 0.81265
 H2369 H 0.12822 0.31238 0.84716
 H2370 H 0.10644 0.30048 0.83523
 H2371 H 0.05387 0.30368 0.76922
 H2372 H 0.03360 0.29048 0.75601
 H2373 H 0.03352 0.25591 0.79056
 H2374 H 0.05379 0.26910 0.80378
 C2375 C 0.10441 0.81706 0.31671
 C2376 C 0.11078 0.83029 0.31057
 C2377 C 0.12329 0.83715 0.31740
 C2378 C 0.12975 0.83094 0.33055
 C2379 C 0.12329 0.81779 0.33677
 C2380 C 0.11078 0.81094 0.32994
 C2381 C 0.09138 0.80956 0.30924
 N2382 N 0.08535 0.79664 0.31501
 N2383 N 0.07383 0.78975 0.30815
 C2384 C 0.06783 0.79548 0.29522
 N2385 N 0.07382 0.80842 0.28948
 N2386 N 0.08534 0.81531 0.29634
 C2387 C 0.05520 0.78763 0.28741
 C2388 C 0.04917 0.79347 0.27390
 C2389 C 0.03752 0.78587 0.26634
 C2390 C 0.03164 0.77227 0.27212
 C2391 C 0.03756 0.76651 0.28570
 C2392 C 0.04920 0.77410 0.29325
 H2393 H 0.10616 0.83533 0.30041
 H2394 H 0.12795 0.84727 0.31230
 H2395 H 0.12795 0.81271 0.34689
 H2396 H 0.10617 0.80077 0.33499
 H2397 H 0.05350 0.80386 0.26907
 H2398 H 0.03321 0.79063 0.25591
 H2399 H 0.03327 0.75606 0.29046
 H2400 H 0.05356 0.76928 0.30364
 C2401 C 0.60479 0.68355 0.68358
 C2402 C 0.61115 0.68967 0.67035
 C2403 C 0.62366 0.68282 0.66352
 C2404 C 0.63012 0.66967 0.66974
 C2405 C 0.62366 0.66347 0.68289
 C2406 C 0.61115 0.67032 0.68972
 C2407 C 0.59175 0.69104 0.69105
 N2408 N 0.58571 0.68528 0.70396
 N2409 N 0.57419 0.69216 0.71081
 C2410 C 0.56819 0.70510 0.70507
 N2411 N 0.57420 0.71083 0.69214
 N2412 N 0.58572 0.70395 0.68528
 C2413 C 0.55556 0.71293 0.71288
 C2414 C 0.54955 0.72646 0.70703
 C2415 C 0.53790 0.73403 0.71458
 C2416 C 0.53198 0.72826 0.72816
 C2417 C 0.53787 0.71466 0.73393
 C2418 C 0.54953 0.70709 0.72638
 H2419 H 0.60654 0.69983 0.66530
 H2420 H 0.62831 0.68791 0.65340
 H2421 H 0.62832 0.65334 0.68799
 H2422 H 0.60654 0.66528 0.69988
 H2423 H 0.55391 0.73129 0.69665
 H2424 H 0.53360 0.74448 0.70982
 H2425 H 0.53355 0.70990 0.74436
 H2426 H 0.55386 0.69669 0.73121
 C2427 C 0.60444 0.18297 0.18286
 C2428 C 0.61081 0.18912 0.16964
 C2429 C 0.62333 0.18229 0.16281
 C2430 C 0.62980 0.16914 0.16901
 C2431 C 0.62333 0.16290 0.18214
 C2432 C 0.61081 0.16973 0.18897
 C2433 C 0.59141 0.19045 0.19034
 N2434 N 0.58538 0.18467 0.20324
 N2435 N 0.57387 0.19154 0.21012
 C2436 C 0.56787 0.20449 0.20440
 N2437 N 0.57385 0.21024 0.19147
 N2438 N 0.58537 0.20337 0.18459
 C2439 C 0.55525 0.21232 0.21225
 C2440 C 0.54923 0.22584 0.20642
 C2441 C 0.53760 0.23342 0.21401
 C2442 C 0.53172 0.22765 0.22761
 C2443 C 0.53763 0.21405 0.23336
 C2444 C 0.54926 0.20647 0.22577
 H2445 H 0.60620 0.19929 0.16461
 H2446 H 0.62799 0.18740 0.15270
 H2447 H 0.62799 0.15278 0.18723
 H2448 H 0.60620 0.16467 0.19912
 H2449 H 0.55355 0.23067 0.19603
 H2450 H 0.53329 0.24387 0.20927
 H2451 H 0.53335 0.20929 0.24380
 H2452 H 0.55361 0.19607 0.23058
 C2453 C 0.10444 0.68333 0.18305
 C2454 C 0.11082 0.68949 0.16985
 C2455 C 0.12334 0.68267 0.16302
 C2456 C 0.12980 0.66951 0.16921
 C2457 C 0.12332 0.66326 0.18233
 C2458 C 0.11080 0.67009 0.18916
 C2459 C 0.09139 0.69080 0.19053
 N2460 N 0.08536 0.68500 0.20342
 N2461 N 0.07383 0.69186 0.21030
 C2462 C 0.06783 0.70481 0.20459
 N2463 N 0.07383 0.71057 0.19167
 N2464 N 0.08536 0.70372 0.18479
 C2465 C 0.05520 0.71262 0.21242
 C2466 C 0.04916 0.72614 0.20660
 C2467 C 0.03752 0.73370 0.21418
 C2468 C 0.03163 0.72790 0.22777
 C2469 C 0.03754 0.71430 0.23351
 C2470 C 0.04919 0.70675 0.22593
 H2471 H 0.10621 0.69967 0.16482
 H2472 H 0.12801 0.68779 0.15292
 H2473 H 0.12798 0.65313 0.18741
 H2474 H 0.10617 0.66501 0.19930
 H2475 H 0.05350 0.73099 0.19622
 H2476 H 0.03321 0.74415 0.20945
 H2477 H 0.03325 0.70953 0.24394
 H2478 H 0.05354 0.69635 0.23074
 C2479 C 0.10462 0.18285 0.68329
 C2480 C 0.11097 0.18896 0.67005
 C2481 C 0.12348 0.18210 0.66322
 C2482 C 0.12995 0.16897 0.66945
 C2483 C 0.12350 0.16277 0.68261
 C2484 C 0.11099 0.16963 0.68944
 C2485 C 0.09159 0.19036 0.69076
 N2486 N 0.08557 0.18462 0.70368
 N2487 N 0.07406 0.19152 0.71055
 C2488 C 0.06807 0.20445 0.70479
 N2489 N 0.07405 0.21016 0.69184
 N2490 N 0.08556 0.20326 0.68498
 C2491 C 0.05546 0.21231 0.71261
 C2492 C 0.04945 0.22584 0.70675
 C2493 C 0.03782 0.23344 0.71430
 C2494 C 0.03192 0.22770 0.72790
 C2495 C 0.03780 0.21410 0.73369
 C2496 C 0.04943 0.20650 0.72613
 H2497 H 0.10635 0.19911 0.66499
 H2498 H 0.12812 0.18718 0.65309
 H2499 H 0.12816 0.15266 0.68772
 H2500 H 0.10638 0.16460 0.69961
 H2501 H 0.05380 0.23064 0.69635
 H2502 H 0.03353 0.24388 0.70953
 H2503 H 0.03350 0.20937 0.74413
 H2504 H 0.05376 0.19611 0.73097
 C2505 C 0.39560 0.68372 0.31666
 C2506 C 0.38923 0.67048 0.31053
 C2507 C 0.37671 0.66364 0.31736
 C2508 C 0.37024 0.66986 0.33049
 C2509 C 0.37671 0.68301 0.33671
 C2510 C 0.38923 0.68985 0.32987
 C2511 C 0.40864 0.69119 0.30919
 N2512 N 0.41468 0.70411 0.31495
 N2513 N 0.42621 0.71097 0.30809
 C2514 C 0.43221 0.70523 0.29516
 N2515 N 0.42621 0.69228 0.28943
 N2516 N 0.41468 0.68542 0.29629
 C2517 C 0.44485 0.71305 0.28735
 C2518 C 0.45087 0.70719 0.27384
 C2519 C 0.46253 0.71476 0.26628
 C2520 C 0.46845 0.72835 0.27205
 C2521 C 0.46254 0.73413 0.28563
 C2522 C 0.45088 0.72657 0.29319
 H2523 H 0.39384 0.66542 0.30038
 H2524 H 0.37205 0.65351 0.31227
 H2525 H 0.37205 0.68812 0.34682
 H2526 H 0.39384 0.70002 0.33492
 H2527 H 0.44652 0.69680 0.26902
 H2528 H 0.46684 0.70999 0.25585
 H2529 H 0.46685 0.74457 0.29039
 H2530 H 0.44654 0.73140 0.30357
 C2531 C 0.39571 0.18281 0.81703
 C2532 C 0.38934 0.16957 0.81090
 C2533 C 0.37682 0.16273 0.81774
 C2534 C 0.37036 0.16896 0.83087
 C2535 C 0.37683 0.18210 0.83709
 C2536 C 0.38934 0.18894 0.83025
 C2537 C 0.40874 0.19029 0.80955
 N2538 N 0.41478 0.20321 0.81531
 N2539 N 0.42629 0.21009 0.80844
 C2540 C 0.43228 0.20436 0.79551
 N2541 N 0.42629 0.19141 0.78978
 N2542 N 0.41477 0.18453 0.79665
 C2543 C 0.44490 0.21219 0.78767
 C2544 C 0.45091 0.20635 0.77415
 C2545 C 0.46254 0.21394 0.76657
 C2546 C 0.46843 0.22754 0.77233
 C2547 C 0.46254 0.23331 0.78592
 C2548 C 0.45091 0.22573 0.79351
 H2549 H 0.39395 0.16452 0.80075
 H2550 H 0.37216 0.15261 0.81264
 H2551 H 0.37217 0.18721 0.84720
 H2552 H 0.39396 0.19911 0.83530
 H2553 H 0.44657 0.19595 0.76934
 H2554 H 0.46683 0.20918 0.75614
 H2555 H 0.46684 0.24376 0.79067
 H2556 H 0.44658 0.23055 0.80390
 C2557 C 0.89584 0.68346 0.81690
 C2558 C 0.88948 0.67022 0.81079
 C2559 C 0.87697 0.66337 0.81764
 C2560 C 0.87052 0.66959 0.83078
 C2561 C 0.87698 0.68275 0.83698
 C2562 C 0.88949 0.68960 0.83013
 C2563 C 0.90887 0.69095 0.80941
 N2564 N 0.91491 0.70386 0.81517
 N2565 N 0.92642 0.71074 0.80828
 C2566 C 0.93240 0.70500 0.79534
 N2567 N 0.92640 0.69205 0.78962
 N2568 N 0.91488 0.68518 0.79650
 C2569 C 0.94502 0.71283 0.78751
 C2570 C 0.95101 0.70699 0.77398
 C2571 C 0.96265 0.71457 0.76640
 C2572 C 0.96857 0.72816 0.77217
 C2573 C 0.96269 0.73393 0.78576
 C2574 C 0.95105 0.72636 0.79334
 H2575 H 0.89408 0.66516 0.80063
 H2576 H 0.87231 0.65324 0.81255
 H2577 H 0.87233 0.68785 0.84710
 H2578 H 0.89410 0.69977 0.83517
 H2579 H 0.94666 0.69660 0.76916
 H2580 H 0.96694 0.70981 0.75596
 H2581 H 0.96701 0.74437 0.79052
 H2582 H 0.94673 0.73118 0.80374
 C2583 C 0.89579 0.18306 0.31668
 C2584 C 0.88942 0.16983 0.31054
 C2585 C 0.87689 0.16300 0.31736
 C2586 C 0.87041 0.16923 0.33049
 C2587 C 0.87689 0.18237 0.33671
 C2588 C 0.88942 0.18920 0.32989
 C2589 C 0.90885 0.19053 0.30922
 N2590 N 0.91489 0.20344 0.31499
 N2591 N 0.92643 0.21030 0.30813
 C2592 C 0.93243 0.20455 0.29521
 N2593 N 0.92643 0.19161 0.28947
 N2594 N 0.91489 0.18475 0.29632
 C2595 C 0.94507 0.21237 0.28740
 C2596 C 0.95110 0.20652 0.27389
 C2597 C 0.96275 0.21409 0.26633
 C2598 C 0.96866 0.22769 0.27210
 C2599 C 0.96275 0.23347 0.28568
 C2600 C 0.95110 0.22590 0.29324
 H2601 H 0.89404 0.16477 0.30039
 H2602 H 0.87222 0.15288 0.31226
 H2603 H 0.87222 0.18748 0.34682
 H2604 H 0.89404 0.19936 0.33495
 H2605 H 0.94676 0.19612 0.26907
 H2606 H 0.96706 0.20932 0.25590
 H2607 H 0.96705 0.24391 0.29043
 H2608 H 0.94675 0.23073 0.30362
 C2609 C 0.31677 0.31663 0.60486
 C2610 C 0.33000 0.31049 0.61123
 C2611 C 0.33684 0.31733 0.62374
 C2612 C 0.33061 0.33047 0.63020
 C2613 C 0.31747 0.33670 0.62374
 C2614 C 0.31064 0.32986 0.61123
 C2615 C 0.30930 0.30916 0.59182
 N2616 N 0.29639 0.31493 0.58579
 N2617 N 0.28953 0.30806 0.57426
 C2618 C 0.29527 0.29512 0.56826
 N2619 N 0.30821 0.28938 0.57426
 N2620 N 0.31507 0.29625 0.58579
 C2621 C 0.28745 0.28731 0.55563
 C2622 C 0.29330 0.27379 0.54960
 C2623 C 0.28574 0.26623 0.53795
 C2624 C 0.27215 0.27200 0.53205
 C2625 C 0.26637 0.28559 0.53796
 C2626 C 0.27393 0.29315 0.54961
 H2627 H 0.33505 0.30033 0.60662
 H2628 H 0.34696 0.31222 0.62840
 H2629 H 0.31237 0.34682 0.62840
 H2630 H 0.30047 0.33492 0.60661
 H2631 H 0.30370 0.26896 0.55394
 H2632 H 0.29051 0.25579 0.53364
 H2633 H 0.25593 0.29035 0.53366
 H2634 H 0.26910 0.30354 0.55396
 C2635 C 0.31701 0.81727 0.10458
 C2636 C 0.33026 0.81117 0.11093
 C2637 C 0.33709 0.81802 0.12343
 C2638 C 0.33084 0.83115 0.12990
 C2639 C 0.31768 0.83734 0.12345
 C2640 C 0.31085 0.83048 0.11095
 C2641 C 0.30954 0.80977 0.09155
 N2642 N 0.29661 0.81550 0.08553
 N2643 N 0.28975 0.80861 0.07401
 C2644 C 0.29552 0.79567 0.06802
 N2645 N 0.30847 0.78997 0.07401
 N2646 N 0.31534 0.79686 0.08552
 C2647 C 0.28770 0.78782 0.05541
 C2648 C 0.29358 0.77430 0.04941
 C2649 C 0.28602 0.76670 0.03778
 C2650 C 0.27242 0.77244 0.03187
 C2651 C 0.26662 0.78604 0.03775
 C2652 C 0.27417 0.79364 0.04939
 H2653 H 0.33534 0.80102 0.10631
 H2654 H 0.34723 0.81295 0.12808
 H2655 H 0.31256 0.84745 0.12811
 H2656 H 0.30066 0.83551 0.10635
 H2657 H 0.30398 0.76949 0.05376
 H2658 H 0.29080 0.75626 0.03349
 H2659 H 0.25617 0.79077 0.03344
 H2660 H 0.26933 0.80403 0.05371
 C2661 C 0.81716 0.31678 0.10446
 C2662 C 0.83038 0.31061 0.11082
 C2663 C 0.83725 0.31744 0.12332
 C2664 C 0.83107 0.33061 0.12978
 C2665 C 0.81794 0.33687 0.12332
 C2666 C 0.81107 0.33004 0.11082
 C2667 C 0.80965 0.30932 0.09144
 N2668 N 0.79675 0.31512 0.08543
 N2669 N 0.78985 0.30826 0.07392
 C2670 C 0.79555 0.29531 0.06791
 N2671 N 0.80848 0.28954 0.07389
 N2672 N 0.81539 0.29639 0.08540
 C2673 C 0.78769 0.28751 0.05530
 C2674 C 0.79351 0.27398 0.04926
 C2675 C 0.78591 0.26643 0.03762
 C2676 C 0.77231 0.27223 0.03175
 C2677 C 0.76657 0.28582 0.03767
 C2678 C 0.77416 0.29337 0.04931
 H2679 H 0.83540 0.30043 0.10622
 H2680 H 0.84736 0.31232 0.12798
 H2681 H 0.81287 0.34701 0.12797
 H2682 H 0.80092 0.33512 0.10621
 H2683 H 0.80390 0.26913 0.05357
 H2684 H 0.79065 0.25599 0.03330
 H2685 H 0.75612 0.29060 0.03339
 H2686 H 0.76936 0.30377 0.05367
 C2687 C 0.81706 0.81720 0.60478
 C2688 C 0.83030 0.81109 0.61114
 C2689 C 0.83713 0.81795 0.62365
 C2690 C 0.83089 0.83108 0.63010
 C2691 C 0.81773 0.83728 0.62364
 C2692 C 0.81090 0.83043 0.61114
 C2693 C 0.80959 0.80970 0.59175
 N2694 N 0.79667 0.81545 0.58571
 N2695 N 0.78981 0.80856 0.57420
 C2696 C 0.79557 0.79561 0.56822
 N2697 N 0.80851 0.78989 0.57422
 N2698 N 0.81538 0.79679 0.58574
 C2699 C 0.78775 0.78776 0.55561
 C2700 C 0.79360 0.77423 0.54962
 C2701 C 0.78604 0.76663 0.53799
 C2702 C 0.77244 0.77239 0.53208
 C2703 C 0.76666 0.78600 0.53795
 C2704 C 0.77423 0.79359 0.54958
 H2705 H 0.83537 0.80093 0.60653
 H2706 H 0.84726 0.81286 0.62830
 H2707 H 0.81262 0.84740 0.62830
 H2708 H 0.80073 0.83546 0.60653
 H2709 H 0.80399 0.76941 0.55397
 H2710 H 0.79080 0.75618 0.53371
 H2711 H 0.75622 0.79075 0.53364
 H2712 H 0.76940 0.80399 0.55390
 C2713 C 0.31692 0.68366 0.39529
 C2714 C 0.33014 0.68983 0.38892
 C2715 C 0.33698 0.68300 0.37640
 C2716 C 0.33078 0.66984 0.36995
 C2717 C 0.31765 0.66359 0.37642
 C2718 C 0.31081 0.67042 0.38893
 C2719 C 0.30944 0.69113 0.40832
 N2720 N 0.29654 0.68533 0.41436
 N2721 N 0.28966 0.69218 0.42588
 C2722 C 0.29537 0.70514 0.43187
 N2723 N 0.30830 0.71091 0.42587
 N2724 N 0.31518 0.70405 0.41435
 C2725 C 0.28754 0.71295 0.44449
 C2726 C 0.29336 0.72648 0.45051
 C2727 C 0.28578 0.73403 0.46216
 C2728 C 0.27219 0.72823 0.46805
 C2729 C 0.26644 0.71462 0.46215
 C2730 C 0.27402 0.70707 0.45051
 H2731 H 0.33518 0.70000 0.39352
 H2732 H 0.34709 0.68812 0.37174
 H2733 H 0.31256 0.65345 0.37177
 H2734 H 0.30066 0.66534 0.39355
 H2735 H 0.30375 0.73133 0.44618
 H2736 H 0.29052 0.74448 0.46646
 H2737 H 0.25601 0.70984 0.46644
 H2738 H 0.26921 0.69667 0.44616
 C2739 C 0.31704 0.18284 0.89562
 C2740 C 0.33027 0.18896 0.88926
 C2741 C 0.33711 0.18212 0.87676
 C2742 C 0.33088 0.16897 0.87030
 C2743 C 0.31773 0.16275 0.87676
 C2744 C 0.31089 0.16960 0.88926
 C2745 C 0.30956 0.19033 0.90865
 N2746 N 0.29664 0.18457 0.91468
 N2747 N 0.28977 0.19145 0.92619
 C2748 C 0.29552 0.20440 0.93217
 N2749 N 0.30847 0.21013 0.92618
 N2750 N 0.31534 0.20325 0.91467
 C2751 C 0.28770 0.21224 0.94478
 C2752 C 0.29355 0.22577 0.95079
 C2753 C 0.28597 0.23336 0.96242
 C2754 C 0.27238 0.22759 0.96832
 C2755 C 0.26660 0.21399 0.96243
 C2756 C 0.27417 0.20640 0.95080
 H2757 H 0.33533 0.19913 0.89387
 H2758 H 0.34724 0.18721 0.87210
 H2759 H 0.31262 0.15263 0.87211
 H2760 H 0.30072 0.16456 0.89387
 H2761 H 0.30394 0.23060 0.94645
 H2762 H 0.29074 0.24381 0.96671
 H2763 H 0.25616 0.20923 0.96673
 H2764 H 0.26934 0.19600 0.94647
 C2765 C 0.81723 0.68339 0.89560
 C2766 C 0.83045 0.68955 0.88923
 C2767 C 0.83729 0.68272 0.87672
 C2768 C 0.83108 0.66956 0.87026
 C2769 C 0.81795 0.66331 0.87674
 C2770 C 0.81112 0.67014 0.88925
 C2771 C 0.80975 0.69086 0.90864
 N2772 N 0.79685 0.68507 0.91467
 N2773 N 0.78997 0.69193 0.92619
 C2774 C 0.79569 0.70488 0.93218
 N2775 N 0.80863 0.71064 0.92618
 N2776 N 0.81550 0.70378 0.91467
 C2777 C 0.78786 0.71269 0.94480
 C2778 C 0.79369 0.72622 0.95083
 C2779 C 0.78611 0.73378 0.96246
 C2780 C 0.77251 0.72799 0.96835
 C2781 C 0.76675 0.71439 0.96244
 C2782 C 0.77433 0.70683 0.95080
 H2783 H 0.83549 0.69972 0.89383
 H2784 H 0.84740 0.68783 0.87205
 H2785 H 0.81286 0.65318 0.87209
 H2786 H 0.80096 0.66507 0.89387
 H2787 H 0.80408 0.73106 0.94649
 H2788 H 0.79086 0.74423 0.96677
 H2789 H 0.75631 0.70962 0.96673
 H2790 H 0.76952 0.69643 0.94646
 C2791 C 0.81704 0.18310 0.39521
 C2792 C 0.83028 0.18923 0.38887
 C2793 C 0.83713 0.18239 0.37637
 C2794 C 0.83090 0.16925 0.36989
 C2795 C 0.81774 0.16304 0.37633
 C2796 C 0.81090 0.16988 0.38884
 C2797 C 0.80955 0.19058 0.40824
 N2798 N 0.79662 0.18482 0.41425
 N2799 N 0.78974 0.19169 0.42576
 C2800 C 0.79548 0.20463 0.43176
 N2801 N 0.80844 0.21036 0.42579
 N2802 N 0.81532 0.20349 0.41428
 C2803 C 0.78765 0.21246 0.44437
 C2804 C 0.79350 0.22598 0.45040
 C2805 C 0.78592 0.23355 0.46203
 C2806 C 0.77231 0.22779 0.46790
 C2807 C 0.76653 0.21420 0.46199
 C2808 C 0.77411 0.20662 0.45036
 H2809 H 0.83534 0.19939 0.39349
 H2810 H 0.84726 0.18749 0.37172
 H2811 H 0.81264 0.15292 0.37167
 H2812 H 0.80072 0.16483 0.39343
 H2813 H 0.80390 0.23080 0.44608
 H2814 H 0.79068 0.24399 0.46634
 H2815 H 0.75607 0.20945 0.46627
 H2816 H 0.76928 0.19623 0.44601
 C2817 C 0.68342 0.31683 0.39503
 C2818 C 0.67018 0.31070 0.38866
 C2819 C 0.66336 0.31753 0.37614
 C2820 C 0.66960 0.33066 0.36967
 C2821 C 0.68275 0.33688 0.37613
 C2822 C 0.68957 0.33005 0.38865
 C2823 C 0.69087 0.30937 0.40808
 N2824 N 0.70379 0.31513 0.41411
 N2825 N 0.71064 0.30827 0.42564
 C2826 C 0.70488 0.29534 0.43164
 N2827 N 0.69193 0.28960 0.42565
 N2828 N 0.68508 0.29647 0.41412
 C2829 C 0.71268 0.28752 0.44428
 C2830 C 0.70682 0.27400 0.45030
 C2831 C 0.71437 0.26643 0.46195
 C2832 C 0.72797 0.27219 0.46785
 C2833 C 0.73376 0.28578 0.46195
 C2834 C 0.72621 0.29335 0.45030
 H2835 H 0.66511 0.30055 0.39328
 H2836 H 0.65324 0.31243 0.37148
 H2837 H 0.68787 0.34699 0.37146
 H2838 H 0.69974 0.33510 0.39327
 H2839 H 0.69642 0.26918 0.44595
 H2840 H 0.70959 0.25600 0.46625
 H2841 H 0.74421 0.29053 0.46625
 H2842 H 0.73106 0.30374 0.44596
 C2843 C 0.68346 0.81716 0.89571
 C2844 C 0.67021 0.81105 0.88936
 C2845 C 0.66336 0.81791 0.87687
 C2846 C 0.66959 0.83105 0.87042
 C2847 C 0.68275 0.83726 0.87686
 C2848 C 0.68960 0.83040 0.88935
 C2849 C 0.69094 0.80966 0.90872
 N2850 N 0.70387 0.81541 0.91475
 N2851 N 0.71074 0.80852 0.92625
 C2852 C 0.70499 0.79558 0.93223
 N2853 N 0.69204 0.78986 0.92624
 N2854 N 0.68516 0.79675 0.91474
 C2855 C 0.71282 0.78773 0.94483
 C2856 C 0.70696 0.77420 0.95083
 C2857 C 0.71453 0.76661 0.96246
 C2858 C 0.72813 0.77237 0.96836
 C2859 C 0.73391 0.78597 0.96248
 C2860 C 0.72635 0.79356 0.95086
 H2861 H 0.66515 0.80088 0.89397
 H2862 H 0.65322 0.81282 0.87223
 H2863 H 0.68786 0.84738 0.87221
 H2864 H 0.69978 0.83544 0.89395
 H2865 H 0.69657 0.76938 0.94648
 H2866 H 0.70977 0.75616 0.96674
 H2867 H 0.74436 0.79072 0.96679
 H2868 H 0.73118 0.80396 0.94653
 C2869 C 0.18334 0.31674 0.89562
 C2870 C 0.17011 0.31061 0.88925
 C2871 C 0.16327 0.31747 0.87675
 C2872 C 0.16949 0.33062 0.87031
 C2873 C 0.18264 0.33684 0.87678
 C2874 C 0.18948 0.32999 0.88928
 C2875 C 0.19082 0.30924 0.90864
 N2876 N 0.20374 0.31501 0.91467
 N2877 N 0.21061 0.30812 0.92618
 C2878 C 0.20487 0.29517 0.93215
 N2879 N 0.19193 0.28943 0.92615
 N2880 N 0.18506 0.29632 0.91465
 C2881 C 0.21270 0.28733 0.94476
 C2882 C 0.20685 0.27380 0.95076
 C2883 C 0.21442 0.26622 0.96239
 C2884 C 0.22802 0.27199 0.96830
 C2885 C 0.23379 0.28559 0.96241
 C2886 C 0.22622 0.29317 0.95078
 H2887 H 0.16506 0.30044 0.89384
 H2888 H 0.15315 0.31237 0.87209
 H2889 H 0.18774 0.34698 0.87214
 H2890 H 0.19964 0.33504 0.89390
 H2891 H 0.19646 0.26897 0.94642
 H2892 H 0.20967 0.25577 0.96668
 H2893 H 0.24423 0.29035 0.96672
 H2894 H 0.23105 0.30357 0.94646
 C2895 C 0.18306 0.81717 0.39535
 C2896 C 0.16983 0.81102 0.38898
 C2897 C 0.16299 0.81785 0.37647
 C2898 C 0.16921 0.83100 0.37001
 C2899 C 0.18235 0.83724 0.37648
 C2900 C 0.18918 0.83041 0.38899
 C2901 C 0.19054 0.80970 0.40839
 N2902 N 0.20344 0.81549 0.41442
 N2903 N 0.21032 0.80862 0.42594
 C2904 C 0.20459 0.79567 0.43193
 N2905 N 0.19165 0.78992 0.42593
 N2906 N 0.18478 0.79678 0.41441
 C2907 C 0.21242 0.78785 0.44455
 C2908 C 0.20659 0.77432 0.45056
 C2909 C 0.21417 0.76675 0.46219
 C2910 C 0.22776 0.77254 0.46809
 C2911 C 0.23352 0.78615 0.46220
 C2912 C 0.22594 0.79372 0.45057
 H2913 H 0.16479 0.80085 0.39359
 H2914 H 0.15288 0.81273 0.37181
 H2915 H 0.18744 0.84736 0.37182
 H2916 H 0.19934 0.83547 0.39360
 H2917 H 0.19620 0.76948 0.44621
 H2918 H 0.20942 0.75630 0.46648
 H2919 H 0.24396 0.79092 0.46650
 H2920 H 0.23076 0.80412 0.44623
 C2921 C 0.68339 0.68344 0.60491
 C2922 C 0.68951 0.67020 0.61126
 C2923 C 0.68268 0.66338 0.62378
 C2924 C 0.66955 0.66962 0.63026
 C2925 C 0.66334 0.68277 0.62380
 C2926 C 0.67017 0.68960 0.61128
 C2927 C 0.69086 0.69090 0.59186
 N2928 N 0.68510 0.70382 0.58583
 N2929 N 0.69197 0.71068 0.57431
 C2930 C 0.70490 0.70492 0.56831
 N2931 N 0.71063 0.69197 0.57430
 N2932 N 0.70376 0.68511 0.58583
 C2933 C 0.71273 0.71272 0.55568
 C2934 C 0.72624 0.70686 0.54966
 C2935 C 0.73382 0.71441 0.53802
 C2936 C 0.72806 0.72801 0.53212
 C2937 C 0.71447 0.73381 0.53801
 C2938 C 0.70690 0.72625 0.54966
 H2939 H 0.69966 0.66513 0.60664
 H2940 H 0.68777 0.65325 0.62844
 H2941 H 0.65323 0.68789 0.62847
 H2942 H 0.66513 0.69977 0.60668
 H2943 H 0.73106 0.69646 0.55401
 H2944 H 0.74426 0.70964 0.53372
 H2945 H 0.70973 0.74425 0.53371
 H2946 H 0.69651 0.73109 0.55400
 C2947 C 0.68318 0.18307 0.10431
 C2948 C 0.68931 0.16984 0.11066
 C2949 C 0.68246 0.16298 0.12316
 C2950 C 0.66931 0.16919 0.12961
 C2951 C 0.66308 0.18234 0.12315
 C2952 C 0.66993 0.18919 0.11066
 C2953 C 0.69067 0.19057 0.09130
 N2954 N 0.68490 0.20349 0.08528
 N2955 N 0.69178 0.21038 0.07378
 C2956 C 0.70473 0.20466 0.06779
 N2957 N 0.71047 0.19171 0.07377
 N2958 N 0.70359 0.18482 0.08527
 C2959 C 0.71256 0.21251 0.05520
 C2960 C 0.72609 0.20667 0.04918
 C2961 C 0.73367 0.21427 0.03756
 C2962 C 0.72789 0.22787 0.03168
 C2963 C 0.71429 0.23363 0.03758
 C2964 C 0.70672 0.22604 0.04920
 H2965 H 0.69948 0.16479 0.10606
 H2966 H 0.68756 0.15286 0.12781
 H2967 H 0.65295 0.18743 0.12780
 H2968 H 0.66488 0.19936 0.10605
 H2969 H 0.73092 0.19627 0.05350
 H2970 H 0.74411 0.20952 0.03326
 H2971 H 0.70953 0.24408 0.03330
 H2972 H 0.69632 0.23086 0.05354
 C2973 C 0.18322 0.68339 0.10451
 C2974 C 0.16999 0.68953 0.11086
 C2975 C 0.16312 0.68269 0.12335
 C2976 C 0.16933 0.66953 0.12981
 C2977 C 0.18248 0.66331 0.12337
 C2978 C 0.18934 0.67015 0.11088
 C2979 C 0.19073 0.69086 0.09150
 N2980 N 0.20365 0.68509 0.08549
 N2981 N 0.21055 0.69195 0.07399
 C2982 C 0.20483 0.70490 0.06799
 N2983 N 0.19188 0.71065 0.07395
 N2984 N 0.18498 0.70378 0.08546
 C2985 C 0.21268 0.71272 0.05538
 C2986 C 0.20685 0.72624 0.04935
 C2987 C 0.21445 0.73380 0.03772
 C2988 C 0.22806 0.72803 0.03186
 C2989 C 0.23382 0.71444 0.03778
 C2990 C 0.22622 0.70687 0.04940
 H2991 H 0.16495 0.69970 0.10624
 H2992 H 0.15300 0.68779 0.12799
 H2993 H 0.18756 0.65318 0.12803
 H2994 H 0.19951 0.66509 0.10628
 H2995 H 0.19645 0.73107 0.05366
 H2996 H 0.20969 0.74424 0.03340
 H2997 H 0.24427 0.70967 0.03351
 H2998 H 0.23104 0.69648 0.05376
 C2999 C 0.18320 0.18279 0.60464
 C3000 C 0.18936 0.16957 0.61101
 C3001 C 0.18253 0.16273 0.62352
 C3002 C 0.16938 0.16893 0.62998
 C3003 C 0.16314 0.18207 0.62352
 C3004 C 0.16996 0.18891 0.61101
 C3005 C 0.19067 0.19028 0.59161
 N3006 N 0.18488 0.20319 0.58559
 N3007 N 0.19174 0.21007 0.57408
 C3008 C 0.20469 0.20436 0.56808
 N3009 N 0.21045 0.19142 0.57407
 N3010 N 0.20359 0.18453 0.58558
 C3011 C 0.21250 0.21221 0.55547
 C3012 C 0.22603 0.20639 0.54945
 C3013 C 0.23360 0.21398 0.53783
 C3014 C 0.22781 0.22758 0.53195
 C3015 C 0.21421 0.23333 0.53785
 C3016 C 0.20664 0.22573 0.54947
 H3017 H 0.19953 0.16453 0.60640
 H3018 H 0.18765 0.15261 0.62819
 H3019 H 0.15301 0.18715 0.62817
 H3020 H 0.16489 0.19906 0.60639
 H3021 H 0.23087 0.19599 0.55378
 H3022 H 0.24405 0.20924 0.53352
 H3023 H 0.20944 0.24377 0.53356
 H3024 H 0.19624 0.23054 0.55382
   
