data_POSCAR
  _audit_creation_date              2014-09-24
  _audit_creation_method            'ToBaCCo'
  _symmetry_space_group_name_H-M    'P1'
  _symmetry_Int_Tables_number       1
  _symmetry_cell_setting            triclinic
  loop_
  _symmetry_equiv_pos_as_xyz
 x,y,z
_cell_length_a 68.0542
_cell_length_b 67.9833
_cell_length_c 67.9616
_cell_angle_alpha 90.137700
_cell_angle_beta 89.977300
_cell_angle_gamma 90.068200
loop_
  _atom_site_label
  _atom_site_type_symbol
  _atom_site_fract_x
  _atom_site_fract_y
  _atom_site_fract_z
C1 C 0.08908 0.00569 0.22552
 H2 H 0.08146 0.00952 0.23893
 C3 C 0.07914 0.00668 0.20748
 H4 H 0.06389 0.01119 0.20721
 C5 C 0.11789 -0.00549 0.20949
 H6 H 0.13288 -0.01066 0.21035
 C7 C 0.10859 -0.00474 0.19128
 H8 H 0.11680 -0.00881 0.17825
 N9 N 0.10818 -0.00021 0.22617
 C10 C 0.10684 -0.01967 0.28394
 H11 H 0.11601 -0.03199 0.27998
 C12 C 0.09603 -0.02052 0.30132
 H13 H 0.09700 -0.03354 0.31043
 C14 C 0.09520 0.01251 0.27757
 H15 H 0.09524 0.02548 0.26838
 C16 C 0.08431 0.01238 0.29505
 H17 H 0.07572 0.02516 0.29908
 Zn18 Zn 0.12289 -0.00258 0.24982
 N19 N 0.10631 -0.00334 0.27242
 C20 C 0.14138 0.02987 0.26863
 N21 N 0.14063 0.01896 0.25182
 C22 C 0.15163 0.02390 0.23586
 C23 C 0.16310 0.04093 0.23602
 C24 C 0.15271 0.04700 0.26944
 C25 C 0.12613 -0.04258 0.24274
 C26 C 0.13465 -0.06117 0.24235
 C27 C 0.16527 -0.04658 0.25283
 C28 C 0.15604 -0.02819 0.25299
 N29 N 0.13674 -0.02662 0.24827
 H30 H 0.13298 0.02549 0.28137
 H31 H 0.15110 0.01499 0.22273
 H32 H 0.17102 0.04498 0.22281
 H33 H 0.15292 0.05558 0.28288
 H34 H 0.11083 -0.04083 0.23878
 H35 H 0.12551 -0.07301 0.23700
 H36 H 0.18033 -0.04696 0.25779
 H37 H 0.16415 -0.01523 0.25746
 C38 C 0.08471 -0.00432 0.30717
 C39 C 0.08892 0.00129 0.19006
 C40 C 0.15457 -0.06385 0.24785
 C41 C 0.16345 0.05296 0.25283
 C42 C 0.40588 0.00887 0.77571
 H43 H 0.40814 0.02042 0.76503
 C44 C 0.41695 0.00873 0.79303
 H45 H 0.42814 0.01985 0.79516
 C46 C 0.38802 -0.01914 0.78615
 H47 H 0.37632 -0.02963 0.78377
 C48 C 0.39856 -0.01969 0.80373
 H49 H 0.39469 -0.03066 0.81458
 N50 N 0.39168 -0.00492 0.77261
 C51 C 0.37788 -0.00345 0.70985
 H52 H 0.36222 -0.00569 0.71090
 C53 C 0.38667 -0.00266 0.69138
 H54 H 0.37757 -0.00390 0.67837
 C55 C 0.40885 -0.00074 0.72548
 H56 H 0.41753 -0.00043 0.73875
 C57 C 0.41832 -0.00003 0.70720
 H58 H 0.43417 0.00130 0.70662
 Zn59 Zn 0.37464 -0.00307 0.75050
 N60 N 0.38889 -0.00195 0.72647
 C61 C 0.34570 0.02512 0.73910
 N62 N 0.35881 0.01996 0.75331
 C63 C 0.36165 0.03165 0.76936
 C64 C 0.35220 0.04978 0.77091
 C65 C 0.33583 0.04311 0.74012
 C66 C 0.36899 -0.04284 0.74505
 C67 C 0.35898 -0.06062 0.74317
 C68 C 0.32852 -0.04341 0.74937
 C69 C 0.33918 -0.02589 0.75123
 N70 N 0.35905 -0.02598 0.74906
 H71 H 0.34310 0.01552 0.72673
 H72 H 0.37155 0.02719 0.78090
 H73 H 0.35503 0.05903 0.78358
 H74 H 0.32606 0.04728 0.72827
 H75 H 0.38478 -0.04240 0.74323
 H76 H 0.36717 -0.07383 0.73975
 H77 H 0.31273 -0.04320 0.75129
 H78 H 0.33162 -0.01227 0.75441
 C79 C 0.40711 -0.00070 0.68987
 C80 C 0.41315 -0.00553 0.80750
 C81 C 0.33848 -0.06108 0.74535
 C82 C 0.33946 0.05591 0.75592
 C83 C 0.90867 0.50222 0.27854
 H84 H 0.91679 0.50693 0.26570
 C85 C 0.91790 0.50162 0.29691
 H86 H 0.93333 0.50535 0.29759
 C87 C 0.87882 0.49116 0.29259
 H88 H 0.86345 0.48753 0.29078
 C89 C 0.88742 0.49017 0.31113
 H90 H 0.87804 0.48619 0.32332
 N91 N 0.88943 0.49721 0.27683
 C92 C 0.90211 0.48574 0.22363
 H93 H 0.89994 0.47150 0.23022
 C94 C 0.91314 0.48720 0.20638
 H95 H 0.91908 0.47394 0.19984
 C96 C 0.89614 0.52005 0.22348
 H97 H 0.88942 0.53282 0.23016
 C98 C 0.90711 0.52220 0.20625
 H99 H 0.90882 0.53669 0.19991
 Zn100 Zn 0.87570 0.49922 0.25288
 N101 N 0.89344 0.50195 0.23153
 C102 C 0.84849 0.52718 0.23802
 N103 N 0.85934 0.52183 0.25396
 C104 C 0.86033 0.53353 0.27021
 C105 C 0.85067 0.55158 0.27065
 C106 C 0.83844 0.54513 0.23791
 C107 C 0.87065 0.45878 0.25422
 C108 C 0.86134 0.44064 0.25226
 C109 C 0.83200 0.45752 0.24164
 C110 C 0.84193 0.47543 0.24382
 N111 N 0.86102 0.47570 0.24976
 H112 H 0.84832 0.51791 0.22507
 H113 H 0.86923 0.52929 0.28263
 H114 H 0.85199 0.56085 0.28357
 H115 H 0.83043 0.54951 0.22487
 H116 H 0.88568 0.45938 0.25936
 H117 H 0.86949 0.42737 0.25551
 H118 H 0.81680 0.45754 0.23697
 H119 H 0.83435 0.48901 0.24076
 C120 C 0.91536 0.50555 0.19719
 C121 C 0.90729 0.49559 0.31376
 C122 C 0.84177 0.43981 0.24584
 C123 C 0.83987 0.55774 0.25423
 C124 C 0.58900 0.50794 0.72714
 H125 H 0.58210 0.51205 0.74084
 C126 C 0.57842 0.50942 0.70954
 H127 H 0.56337 0.51453 0.70995
 C128 C 0.61680 0.49601 0.70989
 H129 H 0.63178 0.49072 0.71010
 C130 C 0.60683 0.49728 0.69204
 H131 H 0.61446 0.49330 0.67863
 N132 N 0.60796 0.50158 0.72695
 C133 C 0.60956 0.48381 0.78518
 H134 H 0.61854 0.47142 0.78102
 C135 C 0.59990 0.48350 0.80327
 H136 H 0.60157 0.47083 0.81276
 C137 C 0.59738 0.51575 0.77857
 H138 H 0.59685 0.52846 0.76904
 C139 C 0.58766 0.51615 0.79670
 H140 H 0.57936 0.52909 0.80087
 Zn141 Zn 0.62377 0.50049 0.74992
 N142 N 0.60829 0.49982 0.77326
 C143 C 0.64234 0.53382 0.76714
 N144 N 0.64046 0.52293 0.75042
 C145 C 0.64970 0.52833 0.73352
 C146 C 0.66059 0.54571 0.73274
 C147 C 0.65315 0.55130 0.76703
 C148 C 0.62948 0.46022 0.74429
 C149 C 0.63963 0.44241 0.74430
 C150 C 0.66932 0.46013 0.75261
 C151 C 0.65857 0.47763 0.75244
 N152 N 0.63898 0.47730 0.74856
 H153 H 0.63534 0.52907 0.78058
 H154 H 0.64825 0.51944 0.72044
 H155 H 0.66715 0.55006 0.71890
 H156 H 0.65437 0.55980 0.78047
 H157 H 0.61386 0.46041 0.74134
 H158 H 0.63164 0.42892 0.74148
 H159 H 0.68489 0.46062 0.75583
 H160 H 0.66578 0.49142 0.75578
 C161 C 0.58903 0.49993 0.80937
 C162 C 0.58741 0.50419 0.69165
 C163 C 0.65979 0.44217 0.74871
 C164 C 0.66219 0.55763 0.74957
 C165 C 0.27571 0.09905 0.98188
 H166 H 0.26542 0.09870 0.96976
 C167 C 0.29387 0.08953 0.98018
 H168 H 0.29746 0.08186 0.96668
 C169 C 0.28408 0.11060 1.01372
 H170 H 0.28053 0.11921 1.02659
 C171 C 0.30226 0.10128 1.01268
 H172 H 0.31222 0.10248 1.02504
 N173 N 0.27129 0.10953 0.99838
 C174 C 0.20838 0.11999 1.00208
 H175 H 0.20907 0.13574 1.00430
 C176 C 0.19030 0.11047 1.00219
 H177 H 0.17707 0.11899 1.00458
 C178 C 0.22496 0.08981 0.99659
 H179 H 0.23858 0.08190 0.99450
 C180 C 0.20706 0.07959 0.99678
 H181 H 0.20693 0.06381 0.99457
 Zn182 Zn 0.24827 0.12517 0.99910
 N183 N 0.22519 0.10970 0.99892
 C184 C 0.23330 0.14060 0.96375
 N185 N 0.24857 0.14168 0.97661
 C186 C 0.26488 0.15248 0.97236
 C187 C 0.26653 0.16211 0.95422
 C188 C 0.23425 0.15010 0.94566
 C189 C 0.24359 0.12813 1.03889
 C190 C 0.24252 0.13638 1.05757
 C191 C 0.24927 0.16815 1.04330
 C192 C 0.25010 0.15915 1.02473
 N193 N 0.24756 0.13942 1.02298
 H194 H 0.22060 0.13171 0.96705
 H195 H 0.27698 0.15284 0.98267
 H196 H 0.27998 0.16987 0.95070
 H197 H 0.22194 0.14880 0.93565
 H198 H 0.24113 0.11251 1.03699
 H199 H 0.23829 0.12654 1.06926
 H200 H 0.25241 0.18371 1.04386
 H201 H 0.25308 0.16788 1.01178
 C202 C 0.18945 0.09006 0.99931
 C203 C 0.30758 0.09096 0.99558
 C204 C 0.24574 0.15679 1.06049
 C205 C 0.25125 0.16052 0.94039
 C206 C 0.73001 0.40724 0.98756
 H207 H 0.74004 0.40940 0.97539
 C208 C 0.71175 0.41666 0.98750
 H209 H 0.70796 0.42609 0.97527
 C210 C 0.72206 0.39087 1.01724
 H211 H 0.72577 0.38038 1.02854
 C212 C 0.70382 0.40013 1.01789
 H213 H 0.69401 0.39699 1.03003
 N214 N 0.73457 0.39413 1.00197
 C215 C 0.79776 0.38259 1.00072
 H216 H 0.79744 0.36682 1.00248
 C217 C 0.81572 0.39244 1.00144
 H218 H 0.82907 0.38404 1.00343
 C219 C 0.78063 0.41274 0.99783
 H220 H 0.76693 0.42065 0.99685
 C221 C 0.79831 0.42323 0.99858
 H222 H 0.79803 0.43913 0.99778
 Zn223 Zn 0.75715 0.37772 0.99956
 N224 N 0.78067 0.39275 0.99875
 C225 C 0.76948 0.34989 0.97059
 N226 N 0.75470 0.36218 0.97621
 C227 C 0.73826 0.36412 0.96497
 C228 C 0.73673 0.35451 0.94688
 C229 C 0.76843 0.33976 0.95269
 C230 C 0.76384 0.37095 1.03905
 C231 C 0.76480 0.36067 1.05672
 C232 C 0.75594 0.33105 1.03917
 C233 C 0.75515 0.34203 1.02179
 N234 N 0.75885 0.36164 1.02213
 H235 H 0.78221 0.34805 0.97983
 H236 H 0.72624 0.37321 0.96985
 H237 H 0.72365 0.35649 0.93804
 H238 H 0.78051 0.33039 0.94824
 H239 H 0.76704 0.38654 1.03881
 H240 H 0.76970 0.36891 1.06940
 H241 H 0.75181 0.31576 1.03807
 H242 H 0.75110 0.33496 1.00810
 C243 C 0.81617 0.41303 1.00042
 C244 C 0.69813 0.41268 1.00253
 C245 C 0.76050 0.34026 1.05741
 C246 C 0.75206 0.34237 0.94042
 C247 C 0.22062 0.90547 0.48618
 H248 H 0.23066 0.90745 0.47400
 C249 C 0.20236 0.91491 0.48593
 H250 H 0.19859 0.92431 0.47366
 C251 C 0.21250 0.88940 0.51599
 H252 H 0.21617 0.87903 0.52742
 C253 C 0.19411 0.89842 0.51626
 H254 H 0.18401 0.89516 0.52814
 N255 N 0.22520 0.89270 0.50089
 C256 C 0.28853 0.88177 0.50105
 H257 H 0.28815 0.86619 0.50417
 C258 C 0.30650 0.89166 0.50110
 H259 H 0.31977 0.88348 0.50419
 C260 C 0.27150 0.91145 0.49482
 H261 H 0.25785 0.91921 0.49272
 C262 C 0.28920 0.92193 0.49462
 H263 H 0.28889 0.93761 0.49192
 Zn264 Zn 0.24801 0.87651 0.49896
 N265 N 0.27149 0.89166 0.49778
 C266 C 0.26124 0.84979 0.46940
 N267 N 0.24572 0.86061 0.47592
 C268 C 0.22857 0.86111 0.46563
 C269 C 0.22697 0.85155 0.44752
 C270 C 0.26020 0.83983 0.45140
 C271 C 0.25458 0.87011 0.53874
 C272 C 0.25570 0.85975 0.55637
 C273 C 0.24700 0.83007 0.53876
 C274 C 0.24611 0.84104 0.52138
 N275 N 0.24972 0.86071 0.52175
 H276 H 0.27464 0.84926 0.47786
 H277 H 0.21611 0.86914 0.47124
 H278 H 0.21333 0.85249 0.43937
 H279 H 0.27293 0.83187 0.44609
 H280 H 0.25748 0.88576 0.53855
 H281 H 0.25976 0.86755 0.56967
 H282 H 0.24363 0.81452 0.53830
 H283 H 0.24223 0.83391 0.50767
 C284 C 0.30705 0.91203 0.49781
 C285 C 0.18865 0.91096 0.50084
 C286 C 0.25171 0.83948 0.55662
 C287 C 0.24305 0.84109 0.44000
 C288 C 0.77565 0.59577 0.48354
 H289 H 0.76437 0.59414 0.47244
 C290 C 0.79294 0.58471 0.48228
 H291 H 0.79486 0.57453 0.47016
 C292 C 0.78730 0.61179 0.51227
 H293 H 0.78537 0.62271 0.52365
 C294 C 0.80475 0.60113 0.51153
 H295 H 0.81578 0.60361 0.52275
 N296 N 0.77313 0.60894 0.49844
 C297 C 0.71059 0.62197 0.50207
 H298 H 0.71201 0.63780 0.50303
 C299 C 0.69207 0.61335 0.50277
 H300 H 0.67926 0.62266 0.50442
 C301 C 0.72575 0.59073 0.49908
 H302 H 0.73896 0.58202 0.49778
 C303 C 0.70737 0.58142 0.49986
 H304 H 0.70653 0.56554 0.49884
 Zn305 Zn 0.75058 0.62527 0.49881
 N306 N 0.72692 0.61070 0.49984
 C307 C 0.73608 0.63882 0.46248
 N308 N 0.75100 0.64073 0.47564
 C309 C 0.76701 0.65202 0.47156
 C310 C 0.76864 0.66154 0.45338
 C311 C 0.73702 0.64816 0.44430
 C312 C 0.74929 0.63020 0.53875
 C313 C 0.74788 0.63968 0.55683
 C314 C 0.74878 0.67092 0.53993
 C315 C 0.75039 0.66075 0.52204
 N316 N 0.75059 0.64075 0.52185
 H317 H 0.72365 0.62950 0.46569
 H318 H 0.77883 0.65304 0.48215
 H319 H 0.78181 0.66984 0.45008
 H320 H 0.72496 0.64632 0.43407
 H321 H 0.74928 0.61430 0.53809
 H322 H 0.74727 0.63087 0.57006
 H323 H 0.74818 0.68682 0.53985
 H324 H 0.75103 0.66880 0.50835
 C325 C 0.69024 0.59285 0.50142
 C326 C 0.80785 0.58750 0.49631
 C327 C 0.74732 0.66031 0.55764
 C328 C 0.75366 0.65931 0.43931
 C329 C 0.01326 0.22628 0.09211
 H330 H 0.02535 0.23660 0.09138
 C331 C 0.01378 0.20911 0.08075
 H332 H 0.02629 0.20642 0.07128
 C333 C -0.01692 0.21653 0.10648
 H334 H -0.02875 0.21926 0.11671
 C335 C -0.01698 0.19922 0.09544
 H336 H -0.02904 0.18895 0.09714
 N337 N -0.00159 0.22933 0.10520
 C338 C 0.00395 0.29093 0.12368
 H339 H 0.00237 0.28905 0.13933
 C340 C 0.00521 0.30987 0.11606
 H341 H 0.00436 0.32189 0.12644
 C342 C 0.00425 0.27720 0.09173
 H343 H 0.00351 0.26446 0.08224
 C344 C 0.00557 0.29599 0.08338
 H345 H 0.00667 0.29693 0.06755
 Zn346 Zn 0.00014 0.25009 0.12403
 N347 N 0.00354 0.27500 0.11160
 C348 C 0.02488 0.25693 0.15727
 N349 N 0.02186 0.24522 0.14126
 C350 C 0.03465 0.23045 0.13687
 C351 C 0.05190 0.22806 0.14768
 C352 C 0.04195 0.25499 0.16857
 C353 C -0.03713 0.26483 0.13337
 C354 C -0.05514 0.26588 0.14305
 C355 C -0.04537 0.23826 0.16310
 C356 C -0.02733 0.23792 0.15318
 N357 N -0.02360 0.25109 0.13860
 H358 H 0.01420 0.26797 0.16121
 H359 H 0.03182 0.22062 0.12476
 H360 H 0.06206 0.21650 0.14360
 H361 H 0.04444 0.26497 0.18076
 H362 H -0.03412 0.27482 0.12140
 H363 H -0.06578 0.27680 0.13852
 H364 H -0.04823 0.22769 0.17464
 H365 H -0.01640 0.22701 0.15692
 C366 C 0.00607 0.31291 0.09553
 C367 C -0.00118 0.19501 0.08285
 C368 C -0.05948 0.25246 0.15806
 C369 C 0.05598 0.24076 0.16344
 C370 C 0.01514 0.78035 0.39116
 H371 H 0.02775 0.77686 0.38219
 C372 C 0.01471 0.79820 0.40133
 H373 H 0.02704 0.80819 0.40006
 C374 C -0.01668 0.77227 0.40278
 H375 H -0.02907 0.76228 0.40288
 C376 C -0.01782 0.79008 0.41302
 H377 H -0.03097 0.79353 0.42129
 N378 N -0.00048 0.76785 0.39189
 C379 C 0.00313 0.70461 0.38167
 H380 H 0.00806 0.70493 0.36655
 C381 C 0.00177 0.68666 0.39145
 H382 H 0.00520 0.67328 0.38352
 C383 C -0.00731 0.72173 0.41019
 H384 H -0.01069 0.73540 0.41752
 C385 C -0.00885 0.70406 0.42058
 H386 H -0.01332 0.70440 0.43587
 Zn387 Zn -0.00049 0.74498 0.37570
 N388 N -0.00173 0.72166 0.39096
 C389 C 0.03998 0.74036 0.37048
 N390 N 0.02294 0.74429 0.36085
 C391 C 0.02272 0.74813 0.34123
 C392 C 0.04028 0.74855 0.33057
 C393 C 0.05785 0.74066 0.36042
 C394 C -0.02756 0.72956 0.34811
 C395 C -0.04459 0.72925 0.33668
 C396 C -0.05061 0.76291 0.34613
 C397 C -0.03342 0.76252 0.35730
 N398 N -0.02255 0.74584 0.35855
 H399 H 0.03969 0.73740 0.38611
 H400 H 0.00897 0.75118 0.33389
 H401 H 0.03984 0.75166 0.31496
 H402 H 0.07130 0.73808 0.36851
 H403 H -0.01864 0.71649 0.34901
 H404 H -0.04825 0.71538 0.32985
 H405 H -0.05817 0.77684 0.34529
 H406 H -0.02878 0.77567 0.36494
 C407 C -0.00445 0.68618 0.41114
 C408 C -0.00206 0.80339 0.41216
 C409 C -0.05703 0.74595 0.33577
 C410 C 0.05818 0.74497 0.34022
 C411 C 0.51651 0.27541 0.90268
 H412 H 0.52874 0.26526 0.90294
 C413 C 0.51800 0.29355 0.91232
 H414 H 0.53145 0.29722 0.92000
 C415 C 0.48478 0.28357 0.89094
 H416 H 0.47209 0.27998 0.88211
 C417 C 0.48558 0.30173 0.90046
 H418 H 0.47318 0.31162 0.89923
 N419 N 0.50023 0.27095 0.89194
 C420 C 0.49960 0.20826 0.87839
 H421 H 0.49886 0.20952 0.86254
 C422 C 0.49927 0.18977 0.88713
 H423 H 0.49814 0.17683 0.87788
 C424 C 0.50144 0.22381 0.90960
 H425 H 0.50218 0.23719 0.91821
 C426 C 0.50101 0.20550 0.91902
 H427 H 0.50168 0.20487 0.93492
 Zn428 Zn 0.50079 0.24857 0.87534
 N429 N 0.50091 0.22477 0.88961
 C430 C 0.53804 0.23637 0.86154
 N431 N 0.52396 0.25046 0.85998
 C432 C 0.52691 0.26683 0.84889
 C433 C 0.54457 0.26943 0.83868
 C434 C 0.55589 0.23841 0.85168
 C435 C 0.46089 0.24399 0.86912
 C436 C 0.44318 0.24313 0.85888
 C437 C 0.46086 0.25005 0.82885
 C438 C 0.47832 0.25070 0.83969
 N439 N 0.47795 0.24796 0.85950
 H440 H 0.53571 0.22372 0.87082
 H441 H 0.51569 0.27807 0.84830
 H442 H 0.54681 0.28270 0.83019
 H443 H 0.56688 0.22700 0.85310
 H444 H 0.46110 0.24152 0.88484
 H445 H 0.42982 0.23977 0.86686
 H446 H 0.46135 0.25269 0.81315
 H447 H 0.49207 0.25347 0.83226
 C448 C 0.50008 0.18819 0.90769
 C449 C 0.50258 0.30721 0.91084
 C450 C 0.44295 0.24634 0.83849
 C451 C 0.55941 0.25518 0.84019
 C452 C 0.51699 0.72666 0.59958
 H453 H 0.53012 0.73540 0.60132
 C454 C 0.51788 0.70908 0.58896
 H455 H 0.53182 0.70445 0.58285
 C456 C 0.48316 0.72169 0.60607
 H457 H 0.46961 0.72671 0.61268
 C458 C 0.48338 0.70403 0.59552
 H459 H 0.46990 0.69568 0.59406
 N460 N 0.49991 0.73243 0.60824
 C461 C 0.50405 0.79548 0.61883
 H462 H 0.50684 0.79543 0.63450
 C463 C 0.50370 0.81322 0.60860
 H464 H 0.50607 0.82681 0.61659
 C465 C 0.49681 0.77772 0.58966
 H466 H 0.49402 0.76380 0.58244
 C467 C 0.49631 0.79517 0.57883
 H468 H 0.49336 0.79452 0.56318
 Zn469 Zn 0.49999 0.75508 0.62472
 N470 N 0.50042 0.77823 0.60933
 C471 C 0.53975 0.76119 0.63116
 N472 N 0.52314 0.75489 0.64030
 C473 C 0.52351 0.74881 0.65937
 C474 C 0.54124 0.74855 0.66983
 C475 C 0.55768 0.76123 0.64102
 C476 C 0.46440 0.77067 0.63942
 C477 C 0.44649 0.77036 0.64939
 C478 C 0.45448 0.73802 0.66161
 C479 C 0.47238 0.73903 0.65156
 N480 N 0.47691 0.75510 0.64054
 H481 H 0.53910 0.76616 0.61607
 H482 H 0.51015 0.74407 0.66649
 H483 H 0.54132 0.74370 0.68499
 H484 H 0.57074 0.76595 0.63324
 H485 H 0.46795 0.78316 0.63033
 H486 H 0.43653 0.78267 0.64783
 H487 H 0.45094 0.72498 0.67002
 H488 H 0.48237 0.72667 0.65195
 C489 C 0.49965 0.81327 0.58834
 C490 C 0.50099 0.69733 0.58706
 C491 C 0.44120 0.75377 0.66042
 C492 C 0.55863 0.75483 0.66061
 C493 C 0.90126 0.98948 0.72117
 H494 H 0.90458 0.97771 0.73133
 C495 C 0.91030 0.99026 0.70366
 H496 H 0.92060 0.97873 0.69998
 C497 C 0.88214 1.01798 0.71430
 H498 H 0.87081 1.02841 0.71809
 C499 C 0.89160 1.01941 0.69491
 H500 H 0.88755 1.03178 0.68581
 N501 N 0.88676 1.00393 0.72640
 C502 C 0.87823 1.00261 0.79088
 H503 H 0.86233 1.00255 0.79076
 C504 C 0.88787 1.00242 0.80794
 H505 H 0.87926 1.00163 0.82128
 C506 C 0.90781 1.00221 0.77210
 H507 H 0.91543 1.00220 0.75815
 C508 C 0.91918 1.00200 0.79064
 H509 H 0.93501 1.00246 0.78945
 Zn510 Zn 0.87240 1.00160 0.75016
 N511 N 0.88872 1.00220 0.77259
 C512 C 0.86340 0.96359 0.76334
 N513 N 0.85857 0.97745 0.74978
 C514 C 0.84475 0.97382 0.73577
 C515 C 0.83469 0.95586 0.73551
 C516 C 0.85388 0.94547 0.76351
 C517 C 0.86489 1.04067 0.75623
 C518 C 0.85436 1.05808 0.75807
 C519 C 0.82433 1.03979 0.75276
 C520 C 0.83549 1.02256 0.75126
 N521 N 0.85543 1.02341 0.75272
 H522 H 0.87482 0.96642 0.77398
 H523 H 0.84156 0.98486 0.72479
 H524 H 0.82370 0.95315 0.72430
 H525 H 0.85778 0.93476 0.77461
 H526 H 0.88074 1.04087 0.75736
 H527 H 0.86224 1.07172 0.76049
 H528 H 0.80850 1.03905 0.75141
 H529 H 0.82822 1.00865 0.74879
 C530 C 0.90980 1.00201 0.80824
 C531 C 0.90509 1.00598 0.68923
 C532 C 0.83385 1.05781 0.75623
 C533 C 0.83928 0.94144 0.74953
 C534 C 0.40075 0.48106 0.22385
 H535 H 0.40249 0.46978 0.23492
 C536 C 0.41149 0.48002 0.20632
 H537 H 0.42152 0.46788 0.20397
 C538 C 0.38510 0.51025 0.21316
 H539 H 0.37460 0.52187 0.21567
 C540 C 0.39536 0.50968 0.19541
 H541 H 0.39293 0.52114 0.18465
 N542 N 0.38806 0.49619 0.22705
 C543 C 0.37972 0.50047 0.29055
 H544 H 0.36390 0.50199 0.29052
 C545 C 0.38994 0.50071 0.30830
 H546 H 0.38180 0.50221 0.32192
 C547 C 0.40933 0.49612 0.27270
 H548 H 0.41683 0.49453 0.25878
 C549 C 0.42017 0.49621 0.29020
 H550 H 0.43600 0.49470 0.28956
 Zn551 Zn 0.37319 0.49722 0.25065
 N552 N 0.38943 0.49791 0.27325
 C553 C 0.36065 0.46100 0.26608
 N554 N 0.35703 0.47447 0.25177
 C555 C 0.34316 0.47112 0.23773
 C556 C 0.33212 0.45372 0.23794
 C557 C 0.35012 0.44343 0.26674
 C558 C 0.36971 0.53738 0.25270
 C559 C 0.36094 0.55585 0.25330
 C560 C 0.32916 0.54012 0.25101
 C561 C 0.33860 0.52182 0.25056
 N562 N 0.35856 0.52085 0.25120
 H563 H 0.37207 0.46356 0.27679
 H564 H 0.34087 0.48182 0.22621
 H565 H 0.32132 0.45112 0.22653
 H566 H 0.35329 0.43292 0.27826
 H567 H 0.38555 0.53614 0.25328
 H568 H 0.37017 0.56880 0.25414
 H569 H 0.31327 0.54072 0.25054
 H570 H 0.32998 0.50849 0.24973
 C571 C 0.41043 0.49842 0.30831
 C572 C 0.40880 0.49446 0.19182
 C573 C 0.34041 0.55742 0.25243
 C574 C 0.33574 0.43953 0.25249
 C575 C 0.61029 0.98433 0.28704
 H576 H 0.61866 0.97122 0.28376
 C577 C 0.60049 0.98567 0.30408
 H578 H 0.60094 0.97321 0.31392
 C579 C 0.59844 1.01533 0.27605
 H580 H 0.59783 1.02697 0.26532
 C581 C 0.58741 1.01749 0.29459
 H582 H 0.57977 1.03124 0.29673
 N583 N 0.60945 1.00002 0.27295
 C584 C 0.61880 1.00283 0.20974
 H585 H 0.63452 1.00519 0.20955
 C586 C 0.60827 1.00278 0.19215
 H587 H 0.61609 1.00491 0.17844
 C588 C 0.58976 0.99655 0.22795
 H589 H 0.58268 0.99403 0.24196
 C590 C 0.57862 0.99638 0.21065
 H591 H 0.56291 0.99399 0.21155
 Zn592 Zn 0.62538 0.99962 0.24998
 N593 N 0.60948 0.99966 0.22714
 C594 C 0.63783 0.96308 0.23517
 N595 N 0.64121 0.97649 0.24970
 C596 C 0.65450 0.97281 0.26421
 C597 C 0.66506 0.95515 0.26434
 C598 C 0.64789 0.94524 0.23485
 C599 C 0.63039 1.03936 0.24355
 C600 C 0.63892 1.05793 0.24438
 C601 C 0.66867 1.04311 0.25665
 C602 C 0.65942 1.02469 0.25564
 N603 N 0.64043 1.02323 0.24959
 H604 H 0.62697 0.96592 0.22398
 H605 H 0.65649 0.98331 0.27601
 H606 H 0.67535 0.95230 0.27614
 H607 H 0.64493 0.93480 0.22316
 H608 H 0.61553 1.03784 0.23814
 H609 H 0.63037 1.07015 0.23892
 H610 H 0.68344 1.04371 0.26245
 H611 H 0.66734 1.01174 0.26017
 C612 C 0.58790 0.99949 0.19243
 C613 C 0.58850 1.00352 0.30868
 C614 C 0.65825 1.06034 0.25151
 C615 C 0.66163 0.94103 0.24961
 C616 C 0.10867 0.47968 0.78671
 H617 H 0.11557 0.46643 0.78130
 C618 C 0.09968 0.47961 0.80518
 H619 H 0.09964 0.46619 0.81371
 C620 C 0.10028 0.51316 0.78218
 H621 H 0.10081 0.52630 0.77331
 C622 C 0.09118 0.51377 0.80060
 H623 H 0.08497 0.52751 0.80573
 N624 N 0.10932 0.49646 0.77586
 C625 C 0.11930 0.50369 0.71319
 H626 H 0.13500 0.50621 0.71368
 C627 C 0.10936 0.50484 0.69535
 H628 H 0.11756 0.50813 0.68210
 C629 C 0.08979 0.49571 0.72994
 H630 H 0.08235 0.49208 0.74352
 C631 C 0.07922 0.49656 0.71228
 H632 H 0.06356 0.49376 0.71237
 Zn633 Zn 0.12510 0.49739 0.75286
 N634 N 0.10949 0.49914 0.72998
 C635 C 0.13783 0.46186 0.73559
 N636 N 0.14062 0.47414 0.75119
 C637 C 0.15327 0.46934 0.76594
 C638 C 0.16385 0.45173 0.76518
 C639 C 0.14793 0.44407 0.73435
 C640 C 0.13167 0.53747 0.74860
 C641 C 0.14160 0.55539 0.74931
 C642 C 0.17049 0.53825 0.76064
 C643 C 0.16001 0.52056 0.75953
 N644 N 0.14083 0.52052 0.75387
 H645 H 0.12745 0.46560 0.72420
 H646 H 0.15475 0.47892 0.77857
 H647 H 0.17364 0.44800 0.77715
 H648 H 0.14547 0.43452 0.72182
 H649 H 0.11655 0.53708 0.74374
 H650 H 0.13399 0.56858 0.74476
 H651 H 0.18557 0.53801 0.76569
 H652 H 0.16722 0.50700 0.76339
 C653 C 0.08907 0.50121 0.69470
 C654 C 0.09127 0.49698 0.81260
 C655 C 0.16123 0.55603 0.75564
 C656 C 0.16108 0.43879 0.74929
 C657 C 0.78256 0.89125 0.01604
 H658 H 0.77906 0.88178 0.02827
 C659 C 0.80022 0.90172 0.01624
 H660 H 0.81007 0.90016 0.02865
 C661 C 0.77399 0.90512 -0.01469
 H662 H 0.76376 0.90649 -0.02671
 C663 C 0.79145 0.91595 -0.01504
 H664 H 0.79456 0.92527 -0.02756
 N665 N 0.77005 0.89269 0.00048
 C666 C 0.70737 0.88166 -0.00608
 H667 H 0.70790 0.86608 -0.00932
 C668 C 0.68934 0.89136 -0.00557
 H669 H 0.67604 0.88306 -0.00836
 C670 C 0.72415 0.91101 0.00255
 H671 H 0.73776 0.91846 0.00602
 C672 C 0.70639 0.92132 0.00325
 H673 H 0.70651 0.93682 0.00693
 Zn674 Zn 0.74736 0.87625 -0.00064
 N675 N 0.72424 0.89149 -0.00182
 C676 C 0.73135 0.86412 0.03552
 N677 N 0.74615 0.86050 0.02253
 C678 C 0.76042 0.84711 0.02667
 C679 C 0.76011 0.83680 0.04445
 C680 C 0.73060 0.85430 0.05349
 C681 C 0.74530 0.87043 -0.04117
 C682 C 0.74631 0.86052 -0.05913
 C683 C 0.75277 0.83043 -0.04149
 C684 C 0.75159 0.84096 -0.02381
 N685 N 0.74833 0.86071 -0.02397
 H686 H 0.72033 0.87504 0.03228
 H687 H 0.77241 0.84489 0.01646
 H688 H 0.77178 0.82648 0.04769
 H689 H 0.71875 0.85749 0.06365
 H690 H 0.74192 0.88594 -0.04099
 H691 H 0.74431 0.86872 -0.07261
 H692 H 0.75541 0.81474 -0.04109
 H693 H 0.75329 0.83326 -0.01007
 C694 C 0.68865 0.91141 -0.00062
 C695 C 0.80500 0.91401 0.00039
 C696 C 0.75026 0.84027 -0.05948
 C697 C 0.74517 0.84055 0.05820
 C698 C 0.27665 0.40436 0.51401
 H699 H 0.26569 0.40674 0.52530
 C700 C 0.29430 0.41492 0.51446
 H701 H 0.29685 0.42547 0.52615
 C702 C 0.28697 0.38721 0.48543
 H703 H 0.28429 0.37616 0.47431
 C704 C 0.30483 0.39725 0.48544
 H705 H 0.31551 0.39412 0.47405
 N706 N 0.27323 0.39099 0.49948
 C707 C 0.20977 0.38278 0.49653
 H708 H 0.20966 0.36688 0.49570
 C709 C 0.19211 0.39310 0.49640
 H710 H 0.17843 0.38498 0.49566
 C711 C 0.22787 0.41247 0.49921
 H712 H 0.24185 0.41994 0.50015
 C713 C 0.21048 0.42342 0.49919
 H714 H 0.21125 0.43931 0.50009
 Zn715 Zn 0.24961 0.37620 0.49946
 N716 N 0.22715 0.39249 0.49828
 C717 C 0.23450 0.36537 0.53650
 N718 N 0.24875 0.36131 0.52304
 C719 C 0.26294 0.34775 0.52683
 C720 C 0.26283 0.33733 0.54457
 C721 C 0.23395 0.35547 0.55442
 C722 C 0.24743 0.37009 0.45938
 C723 C 0.24762 0.36000 0.44152
 C724 C 0.25029 0.32947 0.45946
 C725 C 0.24994 0.34019 0.47706
 N726 N 0.24890 0.36017 0.47666
 H727 H 0.22368 0.37658 0.53357
 H728 H 0.27444 0.34516 0.51615
 H729 H 0.27428 0.32666 0.54742
 H730 H 0.22241 0.35886 0.56486
 H731 H 0.24652 0.38597 0.45952
 H732 H 0.24702 0.36827 0.42793
 H733 H 0.25129 0.31359 0.45997
 H734 H 0.25069 0.33254 0.49095
 C735 C 0.19229 0.41369 0.49794
 C736 C 0.30867 0.41132 0.50007
 C737 C 0.24928 0.33943 0.44138
 C738 C 0.24823 0.34125 0.55866
 C739 C 0.22941 0.59865 0.01058
 H740 H 0.23980 0.59547 0.02218
 C741 C 0.21113 0.58917 0.01028
 H742 H 0.20783 0.57902 0.02205
 C743 C 0.22101 0.61694 -0.01773
 H744 H 0.22470 0.62794 -0.02854
 C745 C 0.20258 0.60805 -0.01849
 H746 H 0.19305 0.61197 -0.03058
 N747 N 0.23403 0.61217 -0.00338
 C748 C 0.29777 0.61834 -0.00565
 H749 H 0.29833 0.63421 -0.00655
 C750 C 0.31513 0.60753 -0.00555
 H751 H 0.32903 0.61527 -0.00623
 C752 C 0.27883 0.58920 -0.00277
 H753 H 0.26464 0.58215 -0.00171
 C754 C 0.29591 0.57778 -0.00254
 H755 H 0.29471 0.56194 -0.00138
 Zn756 Zn 0.25818 0.62610 -0.00219
 N757 N 0.28012 0.60914 -0.00386
 C758 C 0.27357 0.63486 0.03521
 N759 N 0.25920 0.63976 0.02220
 C760 C 0.24496 0.65292 0.02712
 C761 C 0.24491 0.66177 0.04575
 C762 C 0.27402 0.64324 0.05392
 C763 C 0.26202 0.63387 -0.04170
 C764 C 0.26199 0.64454 -0.05916
 C765 C 0.25779 0.67435 -0.04018
 C766 C 0.25801 0.66305 -0.02298
 N767 N 0.25972 0.64315 -0.02411
 H768 H 0.28449 0.62403 0.03137
 H769 H 0.23340 0.65623 0.01672
 H770 H 0.23327 0.67192 0.04960
 H771 H 0.28560 0.63908 0.06400
 H772 H 0.26333 0.61802 -0.04215
 H773 H 0.26315 0.63671 -0.07300
 H774 H 0.25615 0.69015 -0.03912
 H775 H 0.25643 0.67016 -0.00883
 C776 C 0.31438 0.58699 -0.00369
 C777 C 0.19710 0.59399 -0.00427
 C778 C 0.25961 0.66503 -0.05859
 C779 C 0.25947 0.65672 0.05950
 C780 C 0.72041 0.10078 0.51097
 H781 H 0.73034 0.09843 0.52317
 C782 C 0.70215 0.09122 0.51056
 H783 H 0.69810 0.08154 0.52253
 C784 C 0.71316 0.11696 0.48101
 H785 H 0.71724 0.12721 0.46962
 C786 C 0.69484 0.10785 0.48009
 H787 H 0.68524 0.11099 0.46778
 N788 N 0.72553 0.11339 0.49631
 C789 C 0.78921 0.12037 0.49374
 H790 H 0.78957 0.13618 0.49204
 C791 C 0.80671 0.10977 0.49402
 H792 H 0.82050 0.11761 0.49266
 C793 C 0.77068 0.09122 0.49848
 H794 H 0.75659 0.08410 0.50025
 C795 C 0.78790 0.08001 0.49893
 H796 H 0.78691 0.06424 0.50092
 Zn797 Zn 0.74947 0.12777 0.49753
 N798 N 0.77170 0.11108 0.49630
 C799 C 0.76521 0.13794 0.53439
 N800 N 0.75031 0.14196 0.52169
 C801 C 0.73575 0.15476 0.52669
 C802 C 0.73598 0.16417 0.54507
 C803 C 0.76595 0.14688 0.55282
 C804 C 0.75523 0.13527 0.45811
 C805 C 0.75493 0.14554 0.44043
 C806 C 0.74598 0.17491 0.45837
 C807 C 0.74666 0.16405 0.47584
 N808 N 0.75084 0.14449 0.47532
 H809 H 0.77642 0.12742 0.53052
 H810 H 0.72375 0.15735 0.51660
 H811 H 0.72413 0.17404 0.54900
 H812 H 0.77796 0.14339 0.56266
 H813 H 0.75853 0.11971 0.45811
 H814 H 0.75852 0.13780 0.42696
 H815 H 0.74188 0.19028 0.45898
 H816 H 0.74328 0.17115 0.48967
 C817 C 0.80624 0.08935 0.49691
 C818 C 0.68901 0.09496 0.49508
 C819 C 0.74981 0.16554 0.44029
 C820 C 0.75113 0.16003 0.55847
 C821 C 0.99989 0.72699 0.91102
 H822 H 0.99815 0.74067 0.91897
 C823 C 1.00136 0.71003 0.92092
 H824 H 1.00010 0.71054 0.93676
 C825 C 1.00255 0.71080 0.88002
 H826 H 1.00336 0.71128 0.86413
 C827 C 1.00419 0.69181 0.89021
 H828 H 1.00680 0.67903 0.88111
 N829 N 1.00047 0.72705 0.88991
 C830 C 1.01416 0.78783 0.88873
 H831 H 1.02652 0.78535 0.87908
 C832 C 1.01298 0.80470 0.89877
 H833 H 1.02505 0.81496 0.89746
 C834 C 0.98414 0.77586 0.90219
 H835 H 0.97271 0.76481 0.90297
 C836 C 0.98221 0.79426 0.91364
 H837 H 0.96896 0.79606 0.92221
 Zn838 Zn 0.99989 0.75024 0.87467
 N839 N 0.99913 0.77312 0.89063
 C840 C 0.97401 0.76588 0.84644
 N841 N 0.97706 0.75045 0.85876
 C842 C 0.96313 0.73630 0.86129
 C843 C 0.94525 0.73744 0.85135
 C844 C 0.95630 0.76757 0.83615
 C845 C 1.04005 0.74903 0.87039
 C846 C 1.05823 0.74756 0.86113
 C847 C 1.04163 0.74725 0.82972
 C848 C 1.02366 0.74899 0.83965
 N849 N 1.02326 0.74986 0.85964
 H850 H 0.98516 0.77715 0.84502
 H851 H 0.96558 0.72440 0.87148
 H852 H 0.93435 0.72605 0.85364
 H853 H 0.95393 0.78021 0.82679
 H854 H 1.03926 0.74948 0.88629
 H855 H 1.07136 0.74740 0.87011
 H856 H 1.04165 0.74612 0.81383
 H857 H 1.01007 0.74919 0.83141
 C858 C 0.99585 0.80867 0.91194
 C859 C 1.00375 0.69098 0.91008
 C860 C 1.05926 0.74640 0.84051
 C861 C 0.94152 0.75336 0.83878
 C862 C 0.48651 0.22684 0.40171
 H863 H 0.47449 0.23700 0.40398
 C864 C 0.48710 0.20926 0.41232
 H865 H 0.47555 0.20604 0.42280
 C866 C 0.51560 0.21817 0.38464
 H867 H 0.52659 0.22151 0.37367
 C868 C 0.51666 0.20039 0.39477
 H869 H 0.52866 0.19039 0.39170
 N870 N 0.50066 0.23100 0.38818
 C871 C 0.50156 0.29481 0.37966
 H872 H 0.50421 0.29516 0.36401
 C873 C 0.50121 0.31241 0.39023
 H874 H 0.50293 0.32615 0.38240
 C875 C 0.49666 0.27650 0.40883
 H876 H 0.49530 0.26252 0.41617
 C877 C 0.49617 0.29380 0.42001
 H878 H 0.49437 0.29287 0.43581
 Zn879 Zn 0.49933 0.25436 0.37277
 N880 N 0.49893 0.27730 0.38894
 C881 C 0.47258 0.26921 0.34452
 N882 N 0.47631 0.25387 0.35680
 C883 C 0.46338 0.23867 0.35844
 C884 C 0.44549 0.23907 0.34841
 C885 C 0.45489 0.27017 0.33415
 C886 C 0.53898 0.26069 0.36654
 C887 C 0.55673 0.26154 0.35638
 C888 C 0.53957 0.25221 0.32664
 C889 C 0.52203 0.25167 0.33741
 N890 N 0.52213 0.25581 0.35700
 H891 H 0.48317 0.28090 0.34293
 H892 H 0.46672 0.22629 0.36774
 H893 H 0.43530 0.22695 0.35014
 H894 H 0.45195 0.28283 0.32498
 H895 H 0.53863 0.26370 0.38217
 H896 H 0.57003 0.26514 0.36435
 H897 H 0.53934 0.24888 0.31106
 H898 H 0.50843 0.24768 0.33020
 C899 C 0.49836 0.31209 0.41068
 C900 C 0.50225 0.19571 0.40875
 C901 C 0.55721 0.25724 0.33617
 C902 C 0.44089 0.25516 0.33636
 C903 C 0.99935 0.26974 0.59082
 H904 H 0.99746 0.25613 0.58278
 C905 C 1.00016 0.28763 0.58067
 H906 H 0.99819 0.28722 0.56490
 C907 C 1.00344 0.28629 0.62119
 H908 H 1.00500 0.28556 0.63702
 C909 C 1.00431 0.30441 0.61175
 H910 H 1.00719 0.31719 0.62079
 N911 N 1.00085 0.26946 0.61074
 C912 C 1.01566 0.21035 0.61133
 H913 H 1.02834 0.21382 0.62022
 C914 C 1.01477 0.19220 0.60179
 H915 H 1.02708 0.18221 0.60309
 C916 C 0.98415 0.21885 0.59930
 H917 H 0.97208 0.22918 0.59883
 C918 C 0.98257 0.20072 0.58960
 H919 H 0.96920 0.19722 0.58172
 Zn920 Zn 1.00065 0.24624 0.62594
 N921 N 1.00042 0.22320 0.61011
 C922 C 0.97432 0.23023 0.65391
 N923 N 0.97770 0.24579 0.64182
 C924 C 0.96407 0.26023 0.63956
 C925 C 0.94622 0.25935 0.64960
 C926 C 0.95663 0.22879 0.66433
 C927 C 1.04073 0.25013 0.63075
 C928 C 1.05881 0.25145 0.64025
 C929 C 1.04215 0.24685 0.67127
 C930 C 1.02431 0.24562 0.66107
 N931 N 1.02398 0.24705 0.64114
 H932 H 0.98520 0.21870 0.65512
 H933 H 0.96673 0.27224 0.62955
 H934 H 0.93561 0.27102 0.64756
 H935 H 0.95401 0.21611 0.67358
 H936 H 1.03997 0.25172 0.61493
 H937 H 1.07151 0.25465 0.63126
 H938 H 1.04177 0.24485 0.68703
 H939 H 1.01078 0.24344 0.66911
 C940 C 0.99788 0.18693 0.59113
 C941 C 1.00259 0.30554 0.59108
 C942 C 1.06000 0.24971 0.66093
 C943 C 0.94220 0.24339 0.66203
 C944 C 0.48766 0.77552 0.09749
 H945 H 0.47608 0.76493 0.09486
 C946 C 0.48738 0.79362 0.08769
 H947 H 0.47567 0.79675 0.07739
 C948 C 0.51608 0.78509 0.11523
 H949 H 0.52700 0.78210 0.12632
 C950 C 0.51630 0.80328 0.10588
 H951 H 0.52765 0.81382 0.10962
 N952 N 0.50175 0.77169 0.11119
 C953 C 0.50587 0.70869 0.12309
 H954 H 0.50936 0.70996 0.13854
 C955 C 0.50662 0.69031 0.11408
 H956 H 0.51011 0.67754 0.12290
 C957 C 0.49748 0.72386 0.09292
 H958 H 0.49419 0.73698 0.08466
 C959 C 0.49800 0.70562 0.08326
 H960 H 0.49511 0.70493 0.06761
 Zn961 Zn 0.50080 0.74878 0.12737
 N962 N 0.50116 0.72501 0.11258
 C963 C 0.47392 0.73409 0.15557
 N964 N 0.47768 0.74934 0.14317
 C965 C 0.46470 0.76444 0.14128
 C966 C 0.44680 0.76410 0.15133
 C967 C 0.45625 0.73322 0.16598
 C968 C 0.54071 0.74477 0.13379
 C969 C 0.55848 0.74532 0.14391
 C970 C 0.54069 0.75350 0.17361
 C971 C 0.52316 0.75277 0.16286
 N972 N 0.52356 0.74861 0.14328
 H973 H 0.48448 0.72239 0.15719
 H974 H 0.46802 0.77670 0.13179
 H975 H 0.43659 0.77615 0.14946
 H976 H 0.45332 0.72066 0.17530
 H977 H 0.54056 0.74166 0.11817
 H978 H 0.57198 0.74275 0.13589
 H979 H 0.54019 0.75688 0.18918
 H980 H 0.50933 0.75586 0.17006
 C981 C 0.50265 0.68854 0.09390
 C982 C 0.50159 0.80792 0.09223
 C983 C 0.55868 0.74984 0.16408
 C984 C 0.44226 0.74818 0.16364
 O985 O -0.01236 0.98680 0.94411
 O986 O 0.02007 0.99579 0.94287
 O987 O -0.01481 0.94493 0.99163
 O988 O -0.00825 0.94428 1.02369
 O989 O -0.05780 0.99169 0.98784
 O990 O -0.05743 1.02539 0.99598
 O991 O 0.03719 0.99817 1.04183
 O992 O 0.03880 0.96715 1.02906
 O993 O 0.04197 1.03775 0.99530
 O994 O 0.02591 1.04180 0.96353
 O995 O -0.00322 1.04553 1.03586
 O996 O -0.03392 1.03058 1.04255
 O997 O 0.01060 1.01445 1.05392
 O998 O -0.02563 1.00507 1.05465
 O999 O 0.01182 1.05611 1.00801
 O1000 O 0.00135 1.05502 0.97275
 O1001 O 0.05382 1.01089 1.01116
 O1002 O 0.05232 0.97678 0.99793
 O1003 O -0.03871 1.00413 0.95531
 O1004 O -0.04248 1.03576 0.97149
 O1005 O -0.04689 0.96494 1.00451
 O1006 O -0.02934 0.96297 1.03666
 O1007 O -0.00017 0.95545 0.96350
 O1008 O 0.03283 0.97099 0.96127
 Zr1009 Zr 0.00614 0.98535 0.96870
 O1010 O 0.02532 1.00372 0.98461
 Zr1011 Zr -0.01671 0.97039 1.00918
 O1012 O 0.00226 0.98738 1.02687
 Zr1013 Zr -0.03283 1.00967 0.98533
 O1014 O -0.01536 1.02851 1.00266
 Zr1015 Zr 0.02935 0.99189 1.01274
 O1016 O 0.01142 0.97239 0.99629
 Zr1017 Zr 0.01240 1.03129 0.98954
 O1018 O -0.00572 1.01389 0.97122
 Zr1019 Zr -0.00954 1.01572 1.03022
 O1020 O -0.02958 0.99813 1.01389
 O1021 O -0.02151 0.98163 0.98124
 O1022 O 0.01794 1.02000 1.01746
 C1023 C -0.02902 0.99531 0.94159
 C1024 C -0.00790 0.94197 0.97426
 C1025 C -0.06054 0.97498 0.99616
 C1026 C 0.02785 1.00687 1.05578
 C1027 C 0.05585 1.02812 1.00367
 C1028 C 0.00495 1.05896 1.02538
 H1029 H 0.03796 1.00479 0.97750
 H1030 H -0.02210 1.04132 1.00399
 H1031 H -0.03018 0.97316 0.97314
 H1032 H 0.00412 0.98069 1.03964
 H1033 H 0.03528 0.95538 1.02121
 H1034 H 0.00441 0.94713 1.03023
 H1035 H -0.01027 1.06036 0.97969
 H1036 H -0.03228 1.03934 0.96174
 H1037 H 0.06428 0.97752 1.00623
 H1038 H 0.03068 0.96282 0.94935
 H1039 H -0.03987 1.03856 1.03198
 H1040 H -0.05932 1.02124 1.00981
 H1041 H 0.01645 1.00982 0.94157
 H1042 H 0.03600 1.03214 0.95952
 H1043 H -0.03989 0.97265 1.03926
 H1044 H -0.01836 0.99376 1.06019
 O1045 O 0.48972 0.48929 0.44497
 O1046 O 0.52200 0.49945 0.44443
 O1047 O 0.48758 0.44771 0.49265
 O1048 O 0.49382 0.44749 0.52480
 O1049 O 0.44313 0.49337 0.48840
 O1050 O 0.44270 0.52728 0.49546
 O1051 O 0.53659 0.50269 0.54401
 O1052 O 0.53946 0.47171 0.53134
 O1053 O 0.54170 0.54206 0.49686
 O1054 O 0.52606 0.54536 0.46469
 O1055 O 0.49551 0.54890 0.53652
 O1056 O 0.46425 0.53284 0.54193
 O1057 O 0.50925 0.51854 0.55495
 O1058 O 0.47368 0.50851 0.55529
 O1059 O 0.51066 0.55974 0.50883
 O1060 O 0.50117 0.55821 0.47341
 O1061 O 0.55371 0.51575 0.51350
 O1062 O 0.55358 0.48157 0.50057
 O1063 O 0.46242 0.50545 0.45560
 O1064 O 0.45773 0.53730 0.47087
 O1065 O 0.45479 0.46672 0.50476
 O1066 O 0.47140 0.46548 0.53716
 O1067 O 0.50264 0.45850 0.46485
 O1068 O 0.53508 0.47504 0.46312
 Zr1069 Zr 0.50782 0.48862 0.46996
 O1070 O 0.52611 0.50756 0.48627
 Zr1071 Zr 0.48460 0.47319 0.51003
 O1072 O 0.50247 0.49096 0.52807
 Zr1073 Zr 0.46777 0.51183 0.48555
 O1074 O 0.48433 0.53139 0.50301
 Zr1075 Zr 0.52978 0.49610 0.51464
 O1076 O 0.51291 0.47600 0.49777
 Zr1077 Zr 0.51235 0.53482 0.49058
 O1078 O 0.49507 0.51678 0.47203
 Zr1079 Zr 0.48978 0.51898 0.53079
 O1080 O 0.47076 0.50056 0.51422
 O1081 O 0.48002 0.48412 0.48193
 O1082 O 0.51747 0.52392 0.51873
 C1083 C 0.47269 0.49694 0.44212
 C1084 C 0.49503 0.44486 0.47549
 C1085 C 0.44086 0.47650 0.49659
 C1086 C 0.52655 0.51136 0.55751
 C1087 C 0.55559 0.53285 0.50571
 C1088 C 0.50357 0.56248 0.52613
 H1089 H 0.53888 0.50891 0.47946
 H1090 H 0.47725 0.54403 0.50404
 H1091 H 0.47174 0.47531 0.47378
 H1092 H 0.50416 0.48445 0.54095
 H1093 H 0.53648 0.45981 0.52345
 H1094 H 0.50568 0.45108 0.53239
 H1095 H 0.48904 0.56304 0.47982
 H1096 H 0.46818 0.54109 0.46147
 H1097 H 0.56527 0.48267 0.50920
 H1098 H 0.53343 0.46684 0.45114
 H1099 H 0.45952 0.54211 0.53179
 H1100 H 0.44087 0.52363 0.50944
 H1101 H 0.51766 0.51324 0.44276
 H1102 H 0.53654 0.53596 0.46104
 H1103 H 0.46082 0.47516 0.53965
 H1104 H 0.48067 0.49692 0.56059
 O1105 O 0.45425 -0.03341 0.49355
 O1106 O 0.46987 -0.03608 0.46336
 O1107 O 0.50143 -0.03963 0.53539
 O1108 O 0.52933 -0.02449 0.54298
 O1109 O 0.45897 0.00765 0.54151
 O1110 O 0.45485 0.03847 0.52576
 O1111 O 0.55347 0.01522 0.48709
 O1112 O 0.55426 -0.01670 0.49776
 O1113 O 0.50919 0.01828 0.44394
 O1114 O 0.47488 0.00937 0.44212
 O1115 O 0.51016 0.06032 0.48980
 O1116 O 0.50090 0.06045 0.52402
 O1117 O 0.54093 0.04223 0.50239
 O1118 O 0.52374 0.04573 0.53504
 O1119 O 0.49582 0.04897 0.46184
 O1120 O 0.46332 0.03199 0.45697
 O1121 O 0.53648 0.00332 0.45594
 O1122 O 0.53637 -0.03017 0.47045
 O1123 O 0.44207 -0.00624 0.50890
 O1124 O 0.44187 0.02809 0.49993
 O1125 O 0.48587 -0.00764 0.55398
 O1126 O 0.52065 0.00337 0.55403
 O1127 O 0.48593 -0.05102 0.50802
 O1128 O 0.49861 -0.04942 0.47393
 Zr1129 Zr 0.48414 -0.02640 0.48934
 O1130 O 0.50199 -0.00876 0.47120
 Zr1131 Zr 0.50549 -0.00945 0.53000
 O1132 O 0.52466 0.00832 0.51340
 Zr1133 Zr 0.46616 0.01296 0.51199
 O1134 O 0.48354 0.03223 0.49516
 Zr1135 Zr 0.52899 -0.00361 0.48521
 O1136 O 0.51189 -0.02289 0.50275
 Zr1137 Zr 0.48955 0.01924 0.46777
 O1138 O 0.47038 0.00079 0.48389
 Zr1139 Zr 0.51128 0.03563 0.50831
 O1140 O 0.49280 0.01855 0.52667
 O1141 O 0.47839 -0.01454 0.51698
 O1142 O 0.51699 0.02420 0.48042
 C1143 C 0.44009 -0.02345 0.50123
 C1144 C 0.49362 -0.05350 0.52511
 C1145 C 0.46858 -0.00021 0.55571
 C1146 C 0.55512 0.03264 0.49435
 C1147 C 0.52667 0.01144 0.44199
 C1148 C 0.50359 0.06272 0.47226
 H1149 H 0.50388 -0.01551 0.45843
 H1150 H 0.47660 0.04491 0.49382
 H1151 H 0.46990 -0.02316 0.52509
 H1152 H 0.53731 0.00966 0.52044
 H1153 H 0.54990 -0.02925 0.50371
 H1154 H 0.54100 -0.02164 0.53482
 H1155 H 0.46007 0.04337 0.46545
 H1156 H 0.43985 0.02272 0.48653
 H1157 H 0.54946 -0.02842 0.46427
 H1158 H 0.49081 -0.06169 0.47528
 H1159 H 0.48770 0.06366 0.51886
 H1160 H 0.46519 0.04322 0.53486
 H1161 H 0.46178 -0.02496 0.45864
 H1162 H 0.48019 -0.00374 0.43872
 H1163 H 0.51363 0.01567 0.55745
 H1164 H 0.53534 0.03750 0.53795
 O1165 O -0.03633 0.46545 1.00349
 O1166 O -0.02061 0.46060 0.97382
 O1167 O 0.01113 0.46233 1.04574
 O1168 O 0.03833 0.47856 1.05313
 O1169 O -0.03212 0.50977 1.04850
 O1170 O -0.03615 0.53937 1.03069
 O1171 O 0.06275 0.51363 0.99427
 O1172 O 0.06350 0.48256 1.00715
 O1173 O 0.01883 0.51380 0.95068
 O1174 O -0.01527 0.50469 0.94911
 O1175 O 0.01954 0.55878 0.99354
 O1176 O 0.01005 0.56146 1.02743
 O1177 O 0.05010 0.54173 1.00736
 O1178 O 0.03268 0.54732 1.03985
 O1179 O 0.00485 0.54569 0.96653
 O1180 O -0.02740 0.52783 0.96256
 O1181 O 0.04602 0.49984 0.96406
 O1182 O 0.04581 0.46730 0.98068
 O1183 O -0.04877 0.49374 1.01638
 O1184 O -0.04887 0.52745 1.00559
 O1185 O -0.00530 0.49535 1.06210
 O1186 O 0.02951 0.50682 1.06161
 O1187 O -0.00455 0.44891 1.01942
 O1188 O 0.00821 0.44828 0.98530
 Zr1189 Zr -0.00645 0.47220 0.99906
 O1190 O 0.01142 0.48859 0.97978
 Zr1191 Zr 0.01458 0.49215 1.03851
 O1192 O 0.03386 0.50866 1.02082
 Zr1193 Zr -0.02469 0.51305 1.01872
 O1194 O -0.00721 0.53111 1.00068
 Zr1195 Zr 0.03831 0.49475 0.99359
 O1196 O 0.02119 0.47677 1.01238
 Zr1197 Zr -0.00102 0.51626 0.97429
 O1198 O -0.02021 0.49892 0.99157
 Zr1199 Zr 0.02046 0.53550 1.01372
 O1200 O 0.00184 0.51977 1.03312
 O1201 O -0.01245 0.48598 1.02576
 O1202 O 0.02632 0.52214 0.98675
 C1203 C -0.05065 0.47604 1.00991
 C1204 C 0.00346 0.44770 1.03651
 C1205 C -0.02258 0.50288 1.06326
 C1206 C 0.06432 0.53157 1.00011
 C1207 C 0.03638 0.50695 0.94945
 C1208 C 0.01273 0.56007 0.97598
 H1209 H 0.01343 0.48098 0.96752
 H1210 H -0.01418 0.54365 0.99843
 H1211 H -0.02096 0.47788 1.03435
 H1212 H 0.04646 0.51050 1.02782
 H1213 H 0.05912 0.47043 1.01390
 H1214 H 0.04986 0.47988 1.04438
 H1215 H -0.03070 0.53987 0.97005
 H1216 H -0.05085 0.52123 0.99255
 H1217 H 0.05891 0.46867 0.97443
 H1218 H 0.00051 0.43607 0.98752
 H1219 H -0.00326 0.56407 1.02222
 H1220 H -0.02585 0.54480 1.03944
 H1221 H -0.02843 0.47142 0.96807
 H1222 H -0.01012 0.49128 0.94686
 H1223 H 0.02221 0.51913 1.06429
 H1224 H 0.04453 0.53959 1.04314
 O1225 O 0.01409 0.44209 0.51349
 O1226 O 0.00331 0.44050 0.48153
 O1227 O 0.05498 0.49069 0.51333
 O1228 O 0.05464 0.52263 0.50691
 O1229 O 0.01056 0.48630 0.55926
 O1230 O -0.02335 0.49324 0.56037
 O1231 O -0.00154 0.53957 0.46453
 O1232 O 0.02950 0.52727 0.46122
 O1233 O -0.04031 0.49149 0.46144
 O1234 O -0.04289 0.45978 0.47834
 O1235 O -0.04658 0.53261 0.50659
 O1236 O -0.03057 0.53918 0.53734
 O1237 O -0.01676 0.55105 0.49206
 O1238 O -0.00593 0.55213 0.52774
 O1239 O -0.05743 0.50454 0.49206
 O1240 O -0.05561 0.46950 0.50310
 O1241 O -0.01468 0.50857 0.44856
 O1242 O 0.01960 0.49603 0.44806
 O1243 O -0.00196 0.45301 0.54080
 O1244 O -0.03363 0.46821 0.54611
 O1245 O 0.03643 0.50311 0.54649
 O1246 O 0.03691 0.53515 0.52902
 O1247 O 0.04434 0.46226 0.49927
 O1248 O 0.02700 0.45926 0.46733
 Zr1249 Zr 0.01404 0.46661 0.49481
 O1250 O -0.00550 0.48210 0.47655
 Zr1251 Zr 0.02933 0.50752 0.51673
 O1252 O 0.01107 0.52479 0.49878
 Zr1253 Zr -0.00850 0.48283 0.53510
 O1254 O -0.02860 0.49958 0.51853
 Zr1255 Zr 0.00553 0.51052 0.47192
 O1256 O 0.02616 0.49447 0.48876
 Zr1257 Zr -0.03248 0.48637 0.49086
 O1258 O -0.01385 0.46857 0.50818
 Zr1259 Zr -0.01664 0.52737 0.51211
 O1260 O 0.00229 0.51160 0.53116
 O1261 O 0.01897 0.47935 0.52225
 O1262 O -0.02200 0.51451 0.48481
 C1263 C 0.00657 0.43945 0.53064
 C1264 C 0.05796 0.47345 0.50614
 C1265 C 0.02726 0.49500 0.56089
 C1266 C -0.01006 0.55323 0.47448
 C1267 C -0.03161 0.50030 0.44719
 C1268 C -0.06011 0.52205 0.49866
 H1269 H -0.00704 0.47492 0.46397
 H1270 H -0.04112 0.50068 0.52582
 H1271 H 0.02807 0.47153 0.53047
 H1272 H 0.01740 0.53771 0.49664
 H1273 H 0.04153 0.51960 0.46405
 H1274 H 0.05101 0.52916 0.49446
 H1275 H -0.06046 0.47647 0.51493
 H1276 H -0.03777 0.45873 0.53583
 H1277 H 0.01810 0.50434 0.43618
 H1278 H 0.03547 0.44751 0.46906
 H1279 H -0.03898 0.52874 0.54297
 H1280 H -0.01975 0.50729 0.56177
 H1281 H -0.01036 0.43873 0.48619
 H1282 H -0.03382 0.45606 0.46759
 H1283 H 0.02769 0.53763 0.54001
 H1284 H 0.00507 0.55780 0.52009
 O1285 O 0.55203 0.98876 0.01523
 O1286 O 0.55353 1.02047 0.00402
 O1287 O 0.50507 0.98984 0.05783
 O1288 O 0.47327 0.99703 0.05857
 O1289 O 0.50744 0.94343 0.01411
 O1290 O 0.49938 0.94162 -0.01958
 O1291 O 0.45505 1.03872 0.00099
 O1292 O 0.46755 1.04206 0.03227
 O1293 O 0.50112 1.04014 -0.03856
 O1294 O 0.53237 1.02308 -0.04214
 O1295 O 0.45990 0.99406 -0.04255
 O1296 O 0.45308 0.96477 -0.02493
 O1297 O 0.44246 1.01088 -0.01276
 O1298 O 0.44115 0.97565 -0.00034
 O1299 O 0.48731 1.00879 -0.05468
 O1300 O 0.52247 0.99781 -0.05357
 O1301 O 0.48582 1.05394 -0.01223
 O1302 O 0.49896 1.05459 0.02177
 O1303 O 0.54035 0.96122 0.00012
 O1304 O 0.52399 0.95547 -0.03099
 O1305 O 0.49163 0.95673 0.04039
 O1306 O 0.45970 0.97469 0.04150
 O1307 O 0.53316 1.00352 0.04600
 O1308 O 0.53559 1.03529 0.02805
 Zr1309 Zr 0.52770 1.00764 0.01575
 O1310 O 0.51176 1.02560 -0.00372
 Zr1311 Zr 0.48720 0.98644 0.03286
 O1312 O 0.46949 1.00429 0.01485
 Zr1313 Zr 0.51040 0.96712 -0.00552
 O1314 O 0.49305 0.98338 -0.02530
 Zr1315 Zr 0.48386 1.03081 0.00821
 O1316 O 0.50036 1.01422 0.02870
 Zr1317 Zr 0.50632 1.01082 -0.03030
 O1318 O 0.52464 0.99378 -0.01188
 Zr1319 Zr 0.46578 0.99035 -0.01247
 O1320 O 0.48208 0.97150 0.00622
 O1321 O 0.51492 0.98046 0.02159
 O1322 O 0.47868 1.01737 -0.01894
 C1323 C 0.55427 0.97144 0.00797
 C1324 C 0.52250 0.99677 0.06010
 C1325 C 0.49941 0.94215 0.03117
 C1326 C 0.44102 1.02887 -0.00698
 C1327 C 0.49323 1.05481 -0.02960
 C1328 C 0.47004 1.00140 -0.05668
 H1329 H 0.51902 1.03805 -0.00572
 H1330 H 0.49149 0.97570 -0.03756
 H1331 H 0.52299 0.97231 0.03052
 H1332 H 0.45682 1.00684 0.02149
 H1333 H 0.47541 1.03944 0.04423
 H1334 H 0.46647 1.00930 0.05485
 H1335 H 0.51528 0.98592 -0.05794
 H1336 H 0.53359 0.96544 -0.03550
 H1337 H 0.49074 1.06656 0.02043
 H1338 H 0.54754 1.03360 0.03624
 H1339 H 0.46328 0.95839 -0.03310
 H1340 H 0.48561 0.94010 -0.01514
 H1341 H 0.55466 1.01576 -0.00973
 H1342 H 0.53678 1.03366 -0.03314
 H1343 H 0.45688 0.96348 0.03261
 H1344 H 0.43579 0.98395 0.01036
 O1345 O 0.44890 0.50614 0.01489
 O1346 O 0.44855 0.47441 0.00339
 O1347 O 0.49436 0.50525 0.05943
 O1348 O 0.52632 0.49937 0.06124
 O1349 O 0.49269 0.55232 0.01596
 O1350 O 0.50214 0.55433 -0.01739
 O1351 O 0.54758 0.45829 0.00442
 O1352 O 0.53366 0.45445 0.03496
 O1353 O 0.50308 0.45595 -0.03721
 O1354 O 0.47140 0.47227 -0.04163
 O1355 O 0.54337 0.50249 -0.03937
 O1356 O 0.54867 0.53223 -0.02141
 O1357 O 0.56001 0.48645 -0.00871
 O1358 O 0.56008 0.52161 0.00343
 O1359 O 0.51649 0.48769 -0.05254
 O1360 O 0.48117 0.49770 -0.05263
 O1361 O 0.51767 0.44240 -0.01043
 O1362 O 0.50311 0.44124 0.02294
 O1363 O 0.46079 0.53399 0.00066
 O1364 O 0.47806 0.54019 -0.02973
 O1365 O 0.50776 0.53920 0.04268
 O1366 O 0.53986 0.52186 0.04499
 O1367 O 0.46680 0.49162 0.04631
 O1368 O 0.46574 0.45991 0.02811
 Zr1369 Zr 0.47358 0.48772 0.01630
 O1370 O 0.49067 0.47011 -0.00261
 Zr1371 Zr 0.51299 0.50959 0.03513
 O1372 O 0.53174 0.49225 0.01761
 Zr1373 Zr 0.49097 0.52864 -0.00394
 O1374 O 0.50929 0.51276 -0.02323
 Zr1375 Zr 0.51823 0.46545 0.01028
 O1376 O 0.50055 0.48161 0.03022
 Zr1377 Zr 0.49677 0.48507 -0.02887
 O1378 O 0.47746 0.50176 -0.01106
 Zr1379 Zr 0.53620 0.50633 -0.00950
 O1380 O 0.51888 0.52473 0.00882
 O1381 O 0.48562 0.51512 0.02289
 O1382 O 0.52412 0.47906 -0.01658
 C1383 C 0.44671 0.52350 0.00776
 C1384 C 0.47692 0.49810 0.06093
 C1385 C 0.50015 0.55370 0.03327
 C1386 C 0.56172 0.46856 -0.00278
 C1387 C 0.51100 0.44145 -0.02809
 C1388 C 0.53379 0.49512 -0.05392
 H1389 H 0.48378 0.45751 -0.00498
 H1390 H 0.51113 0.52049 -0.03540
 H1391 H 0.47707 0.52306 0.03162
 H1392 H 0.54419 0.48999 0.02474
 H1393 H 0.52520 0.45681 0.04658
 H1394 H 0.53316 0.48702 0.05779
 H1395 H 0.48809 0.50989 -0.05653
 H1396 H 0.46889 0.53003 -0.03473
 H1397 H 0.51166 0.42948 0.02187
 H1398 H 0.45338 0.46133 0.03575
 H1399 H 0.53878 0.53814 -0.03024
 H1400 H 0.51570 0.55604 -0.01241
 H1401 H 0.44788 0.47916 -0.01034
 H1402 H 0.46712 0.46135 -0.03304
 H1403 H 0.54289 0.53308 0.03624
 H1404 H 0.56490 0.51371 0.01464
 O1405 O 0.03794 -0.04256 0.50200
 O1406 O 0.02283 -0.04638 0.53208
 O1407 O -0.01046 -0.04659 0.46090
 O1408 O -0.03788 -0.03026 0.45413
 O1409 O 0.03313 0.00040 0.45526
 O1410 O 0.03835 0.03033 0.47250
 O1411 O -0.05999 0.00687 0.51193
 O1412 O -0.06135 -0.02473 0.50023
 O1413 O -0.01491 0.00784 0.55471
 O1414 O 0.01969 -0.00205 0.55501
 O1415 O -0.01619 0.05172 0.51101
 O1416 O -0.00749 0.05356 0.47704
 O1417 O -0.04760 0.03434 0.49742
 O1418 O -0.03002 0.03908 0.46484
 O1419 O -0.00153 0.03874 0.53802
 O1420 O 0.03079 0.02158 0.54148
 O1421 O -0.04293 -0.00522 0.54205
 O1422 O -0.04340 -0.03876 0.52712
 O1423 O 0.05074 -0.01522 0.48754
 O1424 O 0.05163 0.01883 0.49751
 O1425 O 0.00577 -0.01459 0.44331
 O1426 O -0.02859 -0.00249 0.44421
 O1427 O 0.00600 -0.05915 0.48709
 O1428 O -0.00634 -0.05874 0.52137
 Zr1429 Zr 0.00836 -0.03535 0.50682
 O1430 O -0.00874 -0.01824 0.52615
 Zr1431 Zr -0.01340 -0.01649 0.46746
 O1432 O -0.03184 0.00097 0.48513
 Zr1433 Zr 0.02684 0.00449 0.48538
 O1434 O 0.01010 0.02333 0.50353
 Zr1435 Zr -0.03579 -0.01210 0.51278
 O1436 O -0.01952 -0.03096 0.49412
 Zr1437 Zr 0.00434 0.00935 0.53048
 O1438 O 0.02282 -0.00865 0.51307
 Zr1439 Zr -0.01787 0.02787 0.49120
 O1440 O -0.00008 0.01116 0.47170
 O1441 O 0.01390 -0.02258 0.47958
 O1442 O -0.02321 0.01530 0.51858
 C1443 C 0.05234 -0.03266 0.49477
 C1444 C -0.00242 -0.06090 0.47026
 C1445 C 0.02298 -0.00714 0.44116
 C1446 C -0.06175 0.02441 0.50519
 C1447 C -0.03282 0.00203 0.55628
 C1448 C -0.00939 0.05306 0.52861
 H1449 H -0.01058 -0.02541 0.53866
 H1450 H 0.01726 0.03585 0.50536
 H1451 H 0.02208 -0.03104 0.47098
 H1452 H -0.04455 0.00272 0.47832
 H1453 H -0.05723 -0.03723 0.49398
 H1454 H -0.04919 -0.02804 0.46298
 H1455 H 0.03416 0.03311 0.53330
 H1456 H 0.05354 0.01326 0.51082
 H1457 H -0.05634 -0.03688 0.53357
 H1458 H 0.00118 -0.07108 0.51933
 H1459 H 0.00615 0.05582 0.48152
 H1460 H 0.02782 0.03574 0.46405
 H1461 H 0.03104 -0.03554 0.53733
 H1462 H 0.01347 -0.01469 0.55863
 H1463 H -0.02119 0.00963 0.44100
 H1464 H -0.04191 0.03128 0.46174
 O1465 O 0.73701 0.19569 0.26178
 O1466 O 0.76945 0.19369 0.25193
 O1467 O 0.73762 0.24417 0.30339
 O1468 O 0.74452 0.27602 0.30342
 O1469 O 0.69268 0.24124 0.25739
 O1470 O 0.69321 0.24852 0.22313
 O1471 O 0.78853 0.29272 0.24887
 O1472 O 0.79047 0.27980 0.28010
 O1473 O 0.79261 0.24446 0.20985
 O1474 O 0.77497 0.21309 0.20649
 O1475 O 0.74797 0.28631 0.20208
 O1476 O 0.71639 0.29292 0.21784
 O1477 O 0.76198 0.30439 0.23229
 O1478 O 0.72665 0.30669 0.24169
 O1479 O 0.76234 0.25809 0.19149
 O1480 O 0.75111 0.22326 0.19277
 O1481 O 0.80421 0.26209 0.23580
 O1482 O 0.80376 0.24875 0.26980
 O1483 O 0.71045 0.20778 0.24546
 O1484 O 0.70665 0.22266 0.21371
 O1485 O 0.70513 0.25721 0.28400
 O1486 O 0.72296 0.28889 0.28525
 O1487 O 0.75062 0.21526 0.29275
 O1488 O 0.78309 0.21182 0.27661
 Zr1489 Zr 0.75638 0.21986 0.26266
 O1490 O 0.77573 0.23529 0.24401
 Zr1491 Zr 0.73508 0.26119 0.27774
 O1492 O 0.75378 0.27831 0.26008
 Zr1493 Zr 0.71737 0.23724 0.23903
 O1494 O 0.73509 0.25353 0.21951
 Zr1495 Zr 0.78044 0.26363 0.25539
 O1496 O 0.76271 0.24755 0.27526
 Zr1497 Zr 0.76265 0.23989 0.21649
 O1498 O 0.74408 0.22242 0.23434
 Zr1499 Zr 0.74151 0.28115 0.23188
 O1500 O 0.72161 0.26578 0.25027
 O1501 O 0.72920 0.23324 0.26689
 O1502 O 0.76871 0.26791 0.22738
 C1503 C 0.71984 0.19379 0.25405
 C1504 C 0.74394 0.22661 0.30634
 C1505 C 0.69081 0.24965 0.27427
 C1506 C 0.77923 0.30641 0.23975
 C1507 C 0.80638 0.25365 0.21904
 C1508 C 0.75598 0.27564 0.18867
 H1509 H 0.78823 0.22797 0.24290
 H1510 H 0.72825 0.25474 0.20675
 H1511 H 0.72050 0.22557 0.27569
 H1512 H 0.75594 0.29118 0.26654
 H1513 H 0.78725 0.27185 0.29186
 H1514 H 0.75690 0.28281 0.30002
 H1515 H 0.73920 0.23004 0.18796
 H1516 H 0.71696 0.21324 0.20964
 H1517 H 0.81571 0.25706 0.26884
 H1518 H 0.78076 0.19994 0.28475
 H1519 H 0.71184 0.28319 0.20800
 H1520 H 0.69170 0.26241 0.22727
 H1521 H 0.76490 0.19197 0.23821
 H1522 H 0.78528 0.20918 0.21595
 H1523 H 0.71268 0.29180 0.27538
 H1524 H 0.73337 0.31149 0.25368
 O1525 O 0.75403 0.71223 0.70530
 O1526 O 0.78485 0.70975 0.71966
 O1527 O 0.71347 0.70574 0.75260
 O1528 O 0.70645 0.72044 0.78096
 O1529 O 0.70707 0.75392 0.71118
 O1530 O 0.72296 0.78439 0.70693
 O1531 O 0.76329 0.75944 0.80476
 O1532 O 0.75255 0.72764 0.80532
 O1533 O 0.80527 0.76394 0.75989
 O1534 O 0.80686 0.75524 0.72571
 O1535 O 0.75976 0.80546 0.76236
 O1536 O 0.72564 0.80593 0.75414
 O1537 O 0.74756 0.78663 0.79339
 O1538 O 0.71466 0.79046 0.77649
 O1539 O 0.78716 0.79440 0.74685
 O1540 O 0.79137 0.77741 0.71405
 O1541 O 0.79386 0.74813 0.78699
 O1542 O 0.77925 0.71445 0.78645
 O1543 O 0.73960 0.73994 0.69331
 O1544 O 0.74851 0.77445 0.69370
 O1545 O 0.69486 0.73823 0.73800
 O1546 O 0.69564 0.74848 0.77315
 O1547 O 0.74082 0.69450 0.73704
 O1548 O 0.77514 0.69600 0.74865
 Zr1549 Zr 0.75938 0.71916 0.73493
 O1550 O 0.77799 0.73649 0.75261
 Zr1551 Zr 0.71918 0.73584 0.75718
 O1552 O 0.73628 0.75315 0.77642
 Zr1553 Zr 0.73674 0.75880 0.71785
 O1554 O 0.75380 0.77778 0.73538
 Zr1555 Zr 0.76449 0.74115 0.77994
 O1556 O 0.74643 0.72224 0.76293
 Zr1557 Zr 0.78121 0.76469 0.74059
 O1558 O 0.76477 0.74650 0.72141
 Zr1559 Zr 0.74124 0.78074 0.76352
 O1560 O 0.72255 0.76404 0.74491
 O1561 O 0.73173 0.73115 0.72976
 O1562 O 0.76913 0.76919 0.76840
 C1563 C 0.74660 0.72246 0.69126
 C1564 C 0.72376 0.69194 0.74473
 C1565 C 0.69290 0.74617 0.72094
 C1566 C 0.75593 0.77669 0.80713
 C1567 C 0.80752 0.75683 0.77722
 C1568 C 0.77700 0.80802 0.75510
 H1569 H 0.79077 0.72976 0.75417
 H1570 H 0.75503 0.79057 0.72861
 H1571 H 0.72337 0.72270 0.72131
 H1572 H 0.72950 0.75423 0.78925
 H1573 H 0.74637 0.71521 0.80088
 H1574 H 0.71516 0.72257 0.79240
 H1575 H 0.78310 0.78903 0.71123
 H1576 H 0.76166 0.76881 0.69105
 H1577 H 0.78587 0.71601 0.79936
 H1578 H 0.77364 0.68386 0.74066
 H1579 H 0.73011 0.80902 0.74065
 H1580 H 0.71435 0.78931 0.71760
 H1581 H 0.78933 0.72099 0.71158
 H1582 H 0.80982 0.74174 0.73021
 H1583 H 0.69204 0.76082 0.76634
 H1584 H 0.71206 0.78220 0.78817
 O1585 O 0.28974 0.20476 0.74359
 O1586 O 0.29197 0.21956 0.71289
 O1587 O 0.29641 0.25215 0.78451
 O1588 O 0.28146 0.28021 0.79213
 O1589 O 0.24928 0.20977 0.79120
 O1590 O 0.21806 0.20589 0.77597
 O1591 O 0.24221 0.30397 0.73612
 O1592 O 0.27405 0.30459 0.74628
 O1593 O 0.23804 0.25910 0.69323
 O1594 O 0.24627 0.22487 0.69162
 O1595 O 0.19637 0.26135 0.73933
 O1596 O 0.19590 0.25273 0.77308
 O1597 O 0.21509 0.29218 0.75175
 O1598 O 0.21180 0.27472 0.78473
 O1599 O 0.20720 0.24601 0.71168
 O1600 O 0.22408 0.21337 0.70702
 O1601 O 0.25316 0.28649 0.70503
 O1602 O 0.28692 0.28611 0.71916
 O1603 O 0.26239 0.19249 0.75847
 O1604 O 0.22777 0.19262 0.74999
 O1605 O 0.26454 0.23692 0.80344
 O1606 O 0.25367 0.27189 0.80318
 O1607 O 0.30743 0.23627 0.75720
 O1608 O 0.30569 0.24852 0.72300
 Zr1609 Zr 0.28269 0.23441 0.73871
 O1610 O 0.26512 0.25205 0.72043
 Zr1611 Zr 0.26624 0.25632 0.77928
 O1612 O 0.24868 0.27547 0.76253
 Zr1613 Zr 0.24343 0.21684 0.76172
 O1614 O 0.22421 0.23429 0.74490
 Zr1615 Zr 0.26046 0.27925 0.73424
 O1616 O 0.27961 0.26230 0.75194
 Zr1617 Zr 0.23697 0.23981 0.71734
 O1618 O 0.25539 0.22068 0.73351
 Zr1619 Zr 0.22118 0.26232 0.75771
 O1620 O 0.23812 0.24377 0.77616
 O1621 O 0.27099 0.22903 0.76645
 O1622 O 0.23246 0.26751 0.72970
 C1623 C 0.27976 0.19061 0.75118
 C1624 C 0.31009 0.24406 0.77423
 C1625 C 0.25731 0.21953 0.80528
 C1626 C 0.22501 0.30611 0.74361
 C1627 C 0.24496 0.27657 0.69116
 C1628 C 0.19367 0.25426 0.72201
 H1629 H 0.27178 0.25371 0.70760
 H1630 H 0.21144 0.22746 0.74373
 H1631 H 0.27962 0.22061 0.77458
 H1632 H 0.24759 0.28821 0.76948
 H1633 H 0.28655 0.30017 0.75227
 H1634 H 0.27917 0.29169 0.78353
 H1635 H 0.21267 0.21036 0.71552
 H1636 H 0.23316 0.19020 0.73667
 H1637 H 0.28524 0.29907 0.71272
 H1638 H 0.31786 0.24060 0.72431
 H1639 H 0.19346 0.23891 0.76920
 H1640 H 0.21365 0.21634 0.78513
 H1641 H 0.28085 0.21122 0.70854
 H1642 H 0.25971 0.22947 0.68852
 H1643 H 0.24158 0.26475 0.80699
 H1644 H 0.21972 0.28669 0.78719
 O1645 O 0.20956 0.78960 0.24354
 O1646 O 0.20762 0.77310 0.21381
 O1647 O 0.20511 0.74406 0.28687
 O1648 O 0.22114 0.71695 0.29534
 O1649 O 0.25053 0.78858 0.29153
 O1650 O 0.28123 0.79328 0.27565
 O1651 O 0.26155 0.69239 0.24007
 O1652 O 0.22977 0.69074 0.25070
 O1653 O 0.26340 0.73528 0.19545
 O1654 O 0.25335 0.76922 0.19264
 O1655 O 0.30511 0.73693 0.24128
 O1656 O 0.30536 0.74753 0.27476
 O1657 O 0.28795 0.70619 0.25529
 O1658 O 0.29074 0.72530 0.28735
 O1659 O 0.29364 0.75064 0.21312
 O1660 O 0.27541 0.78213 0.20710
 O1661 O 0.24958 0.70786 0.20859
 O1662 O 0.21590 0.70730 0.22285
 O1663 O 0.23615 0.80379 0.25813
 O1664 O 0.27061 0.80489 0.24930
 O1665 O 0.23659 0.76128 0.30482
 O1666 O 0.24861 0.72685 0.30591
 O1667 O 0.19325 0.75799 0.25894
 O1668 O 0.19541 0.74412 0.22528
 Zr1669 Zr 0.21779 0.76005 0.24018
 O1670 O 0.23609 0.74238 0.22254
 Zr1671 Zr 0.23537 0.74084 0.28149
 O1672 O 0.25375 0.72175 0.26549
 Zr1673 Zr 0.25627 0.78052 0.26220
 O1674 O 0.27619 0.76318 0.24597
 Zr1675 Zr 0.24206 0.71610 0.23747
 O1676 O 0.22219 0.73296 0.25453
 Zr1677 Zr 0.26362 0.75577 0.21873
 O1678 O 0.24441 0.77475 0.23424
 Zr1679 Zr 0.28055 0.73597 0.25995
 O1680 O 0.26284 0.75454 0.27769
 O1681 O 0.22931 0.76729 0.26761
 O1682 O 0.26944 0.72893 0.23226
 C1683 C 0.21883 0.80456 0.25053
 C1684 C 0.19103 0.75096 0.27634
 C1685 C 0.24320 0.77896 0.30605
 C1686 C 0.27883 0.69145 0.24762
 C1687 C 0.25730 0.71742 0.19424
 C1688 C 0.30747 0.74330 0.22367
 H1689 H 0.22946 0.73979 0.20985
 H1690 H 0.28864 0.77051 0.24440
 H1691 H 0.22038 0.77572 0.27546
 H1692 H 0.25547 0.70941 0.27296
 H1693 H 0.21705 0.69481 0.25648
 H1694 H 0.22402 0.70517 0.28729
 H1695 H 0.28651 0.78621 0.21558
 H1696 H 0.26513 0.80630 0.23588
 H1697 H 0.21816 0.69411 0.21701
 H1698 H 0.18286 0.75146 0.22642
 H1699 H 0.30756 0.76101 0.26977
 H1700 H 0.28638 0.78338 0.28497
 H1701 H 0.21842 0.78147 0.20880
 H1702 H 0.24042 0.76336 0.18945
 H1703 H 0.26051 0.73453 0.30928
 H1704 H 0.28331 0.71319 0.29046
 O1705 O 0.23879 0.74101 0.80416
 O1706 O 0.24760 0.77367 0.80269
 O1707 O 0.19366 0.73635 0.75922
 O1708 O 0.19112 0.74015 0.72696
 O1709 O 0.24089 0.69279 0.76238
 O1710 O 0.27421 0.69296 0.75272
 O1711 O 0.24397 0.78444 0.70285
 O1712 O 0.21352 0.78657 0.71714
 O1713 O 0.28575 0.79247 0.74704
 O1714 O 0.29199 0.77800 0.77918
 O1715 O 0.29136 0.74398 0.70875
 O1716 O 0.27545 0.71265 0.70520
 O1717 O 0.25989 0.75713 0.69189
 O1718 O 0.25009 0.72127 0.69326
 O1719 O 0.30356 0.76133 0.73459
 O1720 O 0.30492 0.75316 0.77037
 O1721 O 0.25793 0.80297 0.73191
 O1722 O 0.22474 0.80222 0.74684
 O1723 O 0.25489 0.71372 0.79335
 O1724 O 0.28552 0.70917 0.77599
 O1725 O 0.21278 0.70306 0.74760
 O1726 O 0.20911 0.71826 0.71441
 O1727 O 0.20621 0.75172 0.78619
 O1728 O 0.22143 0.78501 0.78525
 Zr1729 Zr 0.23555 0.75797 0.77858
 O1730 O 0.25271 0.77614 0.76033
 Zr1731 Zr 0.21805 0.73277 0.74051
 O1732 O 0.23390 0.75043 0.72063
 Zr1733 Zr 0.25880 0.71800 0.76285
 O1734 O 0.27651 0.73440 0.74349
 Zr1735 Zr 0.23917 0.77837 0.73271
 O1736 O 0.22086 0.76163 0.75154
 Zr1737 Zr 0.28001 0.76304 0.75459
 O1738 O 0.26388 0.74598 0.77498
 Zr1739 Zr 0.26198 0.73836 0.71648
 O1740 O 0.24542 0.71948 0.73497
 O1741 O 0.23106 0.72960 0.76794
 O1742 O 0.26697 0.76668 0.72713
 C1743 C 0.24716 0.72432 0.80705
 C1744 C 0.19200 0.74381 0.77654
 C1745 C 0.22352 0.68975 0.75560
 C1746 C 0.25234 0.77428 0.68925
 C1747 C 0.27539 0.80577 0.73854
 C1748 C 0.30535 0.75301 0.71769
 H1749 H 0.25409 0.78920 0.76661
 H1750 H 0.28921 0.72757 0.74184
 H1751 H 0.22315 0.72143 0.77703
 H1752 H 0.22652 0.75150 0.70815
 H1753 H 0.20224 0.78363 0.72587
 H1754 H 0.19353 0.75226 0.71932
 H1755 H 0.30964 0.74094 0.76402
 H1756 H 0.28978 0.72015 0.78458
 H1757 H 0.22480 0.81359 0.73771
 H1758 H 0.21412 0.78357 0.79780
 H1759 H 0.28517 0.70820 0.71503
 H1760 H 0.26924 0.69016 0.73931
 H1761 H 0.26159 0.76983 0.80361
 H1762 H 0.28249 0.78824 0.78325
 H1763 H 0.21875 0.70765 0.71189
 H1764 H 0.23831 0.72813 0.68823
 O1765 O 0.25285 0.20868 0.20796
 O1766 O 0.28352 0.20718 0.22191
 O1767 O 0.21329 0.20134 0.25675
 O1768 O 0.20673 0.21639 0.28509
 O1769 O 0.20340 0.24769 0.21431
 O1770 O 0.21775 0.27900 0.20911
 O1771 O 0.26222 0.25823 0.30604
 O1772 O 0.25284 0.22612 0.30768
 O1773 O 0.30283 0.26312 0.25982
 O1774 O 0.30316 0.25349 0.22522
 O1775 O 0.25578 0.30311 0.26275
 O1776 O 0.22168 0.30225 0.25556
 O1777 O 0.24506 0.28450 0.29459
 O1778 O 0.21149 0.28653 0.27822
 O1779 O 0.28323 0.29263 0.24693
 O1780 O 0.28722 0.27568 0.21449
 O1781 O 0.29270 0.24771 0.28766
 O1782 O 0.27957 0.21358 0.28840
 O1783 O 0.23620 0.23497 0.19576
 O1784 O 0.24337 0.26981 0.19511
 O1785 O 0.19301 0.23248 0.24216
 O1786 O 0.19428 0.24370 0.27684
 O1787 O 0.24046 0.19086 0.24038
 O1788 O 0.27500 0.19401 0.25138
 Zr1789 Zr 0.25805 0.21617 0.23742
 O1790 O 0.27643 0.23468 0.25407
 Zr1791 Zr 0.21793 0.23172 0.26050
 O1792 O 0.23479 0.25028 0.27872
 Zr1793 Zr 0.23308 0.25429 0.22000
 O1794 O 0.24999 0.27441 0.23652
 Zr1795 Zr 0.26351 0.23945 0.28165
 O1796 O 0.24582 0.21935 0.26572
 Zr1797 Zr 0.27811 0.26266 0.24125
 O1798 O 0.26177 0.24336 0.22308
 Zr1799 Zr 0.23824 0.27769 0.26498
 O1800 O 0.21966 0.25970 0.24742
 O1801 O 0.22976 0.22679 0.23278
 O1802 O 0.26669 0.26736 0.26932
 C1803 C 0.24456 0.21808 0.19384
 C1804 C 0.22378 0.18781 0.24870
 C1805 C 0.19002 0.23957 0.22491
 C1806 C 0.25418 0.27516 0.30830
 C1807 C 0.30581 0.25648 0.27726
 C1808 C 0.27284 0.30606 0.25519
 H1809 H 0.28951 0.22849 0.25538
 H1810 H 0.25052 0.28709 0.22945
 H1811 H 0.22162 0.21777 0.22472
 H1812 H 0.22832 0.25142 0.29170
 H1813 H 0.24714 0.21329 0.30374
 H1814 H 0.21543 0.21957 0.29629
 H1815 H 0.27800 0.28649 0.21142
 H1816 H 0.25687 0.26504 0.19251
 H1817 H 0.28640 0.21570 0.30113
 H1818 H 0.27366 0.18154 0.24386
 H1819 H 0.22510 0.30467 0.24163
 H1820 H 0.20912 0.28358 0.21991
 H1821 H 0.28778 0.21854 0.21387
 H1822 H 0.30779 0.24099 0.23099
 H1823 H 0.18996 0.25571 0.26987
 H1824 H 0.20966 0.27869 0.29033
 O1825 O 0.78984 0.70660 0.24293
 O1826 O 0.79161 0.72170 0.21242
 O1827 O 0.79707 0.75354 0.28431
 O1828 O 0.78227 0.78157 0.29235
 O1829 O 0.75032 0.71101 0.29127
 O1830 O 0.71885 0.70723 0.27679
 O1831 O 0.74206 0.80578 0.23713
 O1832 O 0.77403 0.80640 0.24663
 O1833 O 0.73709 0.76107 0.19408
 O1834 O 0.74530 0.72698 0.19203
 O1835 O 0.69632 0.76311 0.24090
 O1836 O 0.69627 0.75440 0.27438
 O1837 O 0.71529 0.79392 0.25330
 O1838 O 0.71270 0.77596 0.28624
 O1839 O 0.70669 0.74792 0.21300
 O1840 O 0.72354 0.71526 0.20787
 O1841 O 0.75246 0.78843 0.20563
 O1842 O 0.78647 0.78806 0.21925
 O1843 O 0.76271 0.69409 0.25802
 O1844 O 0.72782 0.69439 0.25038
 O1845 O 0.76555 0.73815 0.30356
 O1846 O 0.75467 0.77321 0.30374
 O1847 O 0.80770 0.73805 0.25662
 O1848 O 0.80534 0.75061 0.22254
 Zr1849 Zr 0.78267 0.73628 0.23851
 O1850 O 0.76472 0.75397 0.22068
 Zr1851 Zr 0.76685 0.75778 0.27954
 O1852 O 0.74902 0.77708 0.26322
 Zr1853 Zr 0.74382 0.71841 0.26205
 O1854 O 0.72427 0.73601 0.24580
 Zr1855 Zr 0.76027 0.78108 0.23472
 O1856 O 0.77974 0.76405 0.25202
 Zr1857 Zr 0.73654 0.74169 0.21807
 O1858 O 0.75532 0.72251 0.23369
 Zr1859 Zr 0.72145 0.76397 0.25883
 O1860 O 0.73871 0.74522 0.27680
 O1861 O 0.77145 0.73062 0.26639
 O1862 O 0.73220 0.76934 0.23065
 C1863 C 0.77995 0.69232 0.25041
 C1864 C 0.81060 0.74562 0.27372
 C1865 C 0.75850 0.72068 0.30532
 C1866 C 0.72505 0.80791 0.24505
 C1867 C 0.74399 0.77851 0.19190
 C1868 C 0.69334 0.75608 0.22360
 H1869 H 0.77113 0.75571 0.20774
 H1870 H 0.71148 0.72917 0.24482
 H1871 H 0.78023 0.72212 0.27427
 H1872 H 0.74807 0.78977 0.27029
 H1873 H 0.78660 0.80196 0.25244
 H1874 H 0.78003 0.79305 0.28376
 H1875 H 0.71214 0.71230 0.21642
 H1876 H 0.73305 0.69196 0.23700
 H1877 H 0.78464 0.80103 0.21286
 H1878 H 0.81758 0.74275 0.22362
 H1879 H 0.69417 0.74041 0.27095
 H1880 H 0.71456 0.71761 0.28609
 H1881 H 0.78042 0.71344 0.20811
 H1882 H 0.75870 0.73154 0.18874
 H1883 H 0.74275 0.76592 0.30784
 H1884 H 0.72047 0.78806 0.28855
 O1885 O 0.80525 0.23648 0.74116
 O1886 O 0.80573 0.24841 0.77310
 O1887 O 0.75801 0.19445 0.74089
 O1888 O 0.72592 0.19402 0.74634
 O1889 O 0.76194 0.23888 0.69446
 O1890 O 0.75445 0.27298 0.69339
 O1891 O 0.70625 0.25045 0.78785
 O1892 O 0.71881 0.21939 0.79117
 O1893 O 0.75322 0.28996 0.79253
 O1894 O 0.78530 0.29330 0.77602
 O1895 O 0.71341 0.29529 0.74530
 O1896 O 0.70839 0.27810 0.71438
 O1897 O 0.69530 0.26537 0.76001
 O1898 O 0.69493 0.25418 0.72478
 O1899 O 0.74054 0.30685 0.76093
 O1900 O 0.77561 0.30622 0.75152
 O1901 O 0.73667 0.26360 0.80465
 O1902 O 0.74958 0.22963 0.80518
 O1903 O 0.79463 0.25189 0.71344
 O1904 O 0.77931 0.28335 0.70788
 O1905 O 0.74616 0.21231 0.70713
 O1906 O 0.71366 0.21128 0.72341
 O1907 O 0.78560 0.20633 0.75554
 O1908 O 0.78764 0.22400 0.78712
 Zr1909 Zr 0.78037 0.23649 0.75945
 O1910 O 0.76375 0.25549 0.77731
 Zr1911 Zr 0.74057 0.21966 0.73664
 O1912 O 0.72225 0.23766 0.75391
 Zr1913 Zr 0.76466 0.25815 0.71869
 O1914 O 0.74706 0.27794 0.73489
 Zr1915 Zr 0.73554 0.24365 0.78110
 O1916 O 0.75276 0.22348 0.76485
 Zr1917 Zr 0.75922 0.28236 0.76298
 O1918 O 0.77797 0.26422 0.74595
 Zr1919 Zr 0.71941 0.26531 0.74050
 O1920 O 0.73616 0.24655 0.72200
 O1921 O 0.76852 0.23087 0.73177
 O1922 O 0.73122 0.27113 0.76818
 C1923 C 0.80807 0.24358 0.72386
 C1924 C 0.77510 0.19220 0.74865
 C1925 C 0.75409 0.22174 0.69282
 C1926 C 0.69279 0.25886 0.77761
 C1927 C 0.74454 0.28066 0.80654
 C1928 C 0.72340 0.30915 0.75342
 H1929 H 0.77053 0.25717 0.79008
 H1930 H 0.74590 0.29038 0.72750
 H1931 H 0.77674 0.22184 0.72381
 H1932 H 0.70941 0.23109 0.75576
 H1933 H 0.72674 0.20748 0.78853
 H1934 H 0.71804 0.19785 0.75796
 H1935 H 0.76965 0.31001 0.73882
 H1936 H 0.78821 0.28786 0.71850
 H1937 H 0.74088 0.23077 0.81684
 H1938 H 0.79984 0.21612 0.78568
 H1939 H 0.71831 0.28761 0.70961
 H1940 H 0.74069 0.26869 0.69139
 H1941 H 0.80758 0.26180 0.76772
 H1942 H 0.78894 0.28431 0.78685
 H1943 H 0.71113 0.22070 0.71261
 H1944 H 0.68978 0.24269 0.73204
 C1945 C 0.06247 1.00360 1.13296
 C1946 C 0.07449 0.98764 1.13805
 C1947 C 0.08263 0.98670 1.15680
 C1948 C 0.07888 1.00157 1.17064
 C1949 C 0.06609 1.01688 1.16528
 N1950 N 0.05835 1.01754 1.14680
 C1951 C 0.05431 1.00542 1.11286
 N1952 N 0.03644 1.01400 1.11011
 C1953 C 0.02793 1.01526 1.09201
 C1954 C 0.03749 1.00752 1.07535
 C1955 C 0.05624 0.99932 1.07787
 C1956 C 0.06467 0.99829 1.09649
 H1957 H 0.09188 0.97429 1.16046
 H1958 H 0.06275 1.02861 1.17553
 H1959 H 0.01353 1.02188 1.09075
 H1960 H 0.06435 0.99339 1.06550
 H1961 H 0.07749 0.97588 1.12772
 H1962 H 0.07918 0.99198 1.09798
 C1963 C 0.55909 0.51050 0.63570
 C1964 C 0.55569 0.52457 0.65049
 C1965 C 0.56459 0.52235 0.66889
 C1966 C 0.57689 0.50620 0.67260
 C1967 C 0.57968 0.49238 0.65746
 N1968 N 0.57095 0.49491 0.63969
 C1969 C 0.55067 0.51216 0.61568
 N1970 N 0.55970 0.50244 0.60067
 C1971 C 0.55266 0.50252 0.58198
 C1972 C 0.53523 0.51260 0.57748
 C1973 C 0.52571 0.52287 0.59271
 C1974 C 0.53337 0.52271 0.61178
 H1975 H 0.56232 0.53357 0.67999
 H1976 H 0.58879 0.47955 0.65971
 H1977 H 0.56047 0.49431 0.57079
 H1978 H 0.51217 0.53075 0.58998
 H1979 H 0.54679 0.53746 0.64782
 H1980 H 0.52543 0.53024 0.62333
 C1981 C 0.43257 0.00099 0.63238
 C1982 C 0.41593 0.01246 0.63663
 C1983 C 0.40788 0.01209 0.65545
 C1984 C 0.41643 0.00056 0.67021
 C1985 C 0.43350 -0.01008 0.66565
 N1986 N 0.44099 -0.00968 0.64708
 C1987 C 0.44125 0.00032 0.61240
 N1988 N 0.46042 -0.00501 0.61022
 C1989 C 0.46939 -0.00568 0.59232
 C1990 C 0.45893 -0.00071 0.57523
 C1991 C 0.43903 0.00434 0.57713
 C1992 C 0.43014 0.00475 0.59557
 H1993 H 0.39499 0.02091 0.65852
 H1994 H 0.44055 -0.01914 0.67665
 H1995 H 0.48473 -0.00977 0.59155
 H1996 H 0.43027 0.00797 0.56434
 H1997 H 0.40921 0.02182 0.62570
 H1998 H 0.41468 0.00828 0.59644
 C1999 C -0.05864 0.50730 1.13984
 C2000 C -0.07447 0.51979 1.14432
 C2001 C -0.08263 0.51951 1.16313
 C2002 C -0.07499 0.50703 1.17764
 C2003 C -0.05871 0.49529 1.17278
 N2004 N -0.05109 0.49570 1.15429
 C2005 C -0.04991 0.50634 1.11990
 N2006 N -0.03129 0.49931 1.11776
 C2007 C -0.02235 0.49786 1.09992
 C2008 C -0.03226 0.50367 1.08277
 C2009 C -0.05159 0.51063 1.08461
 C2010 C -0.06046 0.51190 1.10305
 H2011 H -0.09525 0.52872 1.16612
 H2012 H -0.05210 0.48572 1.18361
 H2013 H -0.00746 0.49233 1.09922
 H2014 H -0.05993 0.51507 1.07181
 H2015 H -0.08056 0.52973 1.13355
 H2016 H -0.07552 0.51687 1.10388
 C2017 C -0.06815 0.49676 0.37096
 C2018 C -0.08356 0.48375 0.36669
 C2019 C -0.09143 0.48316 0.34781
 C2020 C -0.08402 0.49539 0.33277
 C2021 C -0.06793 0.50763 0.33762
 N2022 N -0.06068 0.50805 0.35626
 C2023 C -0.05952 0.49823 0.39090
 N2024 N -0.04087 0.50520 0.39295
 C2025 C -0.03183 0.50653 0.41075
 C2026 C -0.04165 0.50048 0.42789
 C2027 C -0.06109 0.49380 0.42616
 C2028 C -0.07009 0.49277 0.40779
 H2029 H -0.10291 0.47250 0.34502
 H2030 H -0.06165 0.51767 0.32704
 H2031 H -0.01687 0.51189 0.41139
 H2032 H -0.06937 0.48928 0.43900
 H2033 H -0.08934 0.47377 0.37763
 H2034 H -0.08519 0.48788 0.40699
 C2035 C 0.43948 0.99626 -0.13529
 C2036 C 0.43518 0.97804 -0.14400
 C2037 C 0.42728 0.97742 -0.16290
 C2038 C 0.42342 0.99491 -0.17316
 C2039 C 0.42859 1.01283 -0.16411
 N2040 N 0.43637 1.01305 -0.14568
 C2041 C 0.44693 0.99754 -0.11495
 N2042 N 0.46048 1.01151 -0.11016
 C2043 C 0.46794 1.01321 -0.09165
 C2044 C 0.46149 1.00058 -0.07665
 C2045 C 0.44715 0.98644 -0.08121
 C2046 C 0.43994 0.98481 -0.10032
 H2047 H 0.42411 0.96322 -0.16942
 H2048 H 0.42580 1.02671 -0.17133
 H2049 H 0.47887 1.02441 -0.08868
 H2050 H 0.44179 0.97638 -0.07011
 H2051 H 0.43796 0.96440 -0.13630
 H2052 H 0.42884 0.97384 -0.10355
 C2053 C 0.56597 0.49984 -0.13209
 C2054 C 0.57516 0.51685 -0.13936
 C2055 C 0.58221 0.51708 -0.15865
 C2056 C 0.58019 0.50041 -0.17069
 C2057 C 0.57052 0.48387 -0.16301
 N2058 N 0.56369 0.48403 -0.14421
 C2059 C 0.55844 0.49869 -0.11170
 N2060 N 0.54292 0.48666 -0.10778
 C2061 C 0.53507 0.48500 -0.08946
 C2062 C 0.54299 0.49576 -0.07366
 C2063 C 0.55933 0.50784 -0.07728
 C2064 C 0.56707 0.50936 -0.09624
 H2065 H 0.58967 0.53010 -0.16398
 H2066 H 0.56844 0.47082 -0.17192
 H2067 H 0.52259 0.47536 -0.08732
 H2068 H 0.56596 0.51636 -0.06555
 H2069 H 0.57678 0.52990 -0.13037
 H2070 H 0.57977 0.51864 -0.09864
 C2071 C 0.05595 -0.00660 0.36308
 C2072 C 0.05456 -0.02270 0.35016
 C2073 C 0.06358 -0.02176 0.33177
 C2074 C 0.07395 -0.00485 0.32613
 C2075 C 0.07483 0.01101 0.33936
 N2076 N 0.06609 0.00969 0.35732
 C2077 C 0.04719 -0.00717 0.38301
 N2078 N 0.05557 0.00356 0.39774
 C2079 C 0.04834 0.00361 0.41642
 C2080 C 0.03154 -0.00746 0.42111
 C2081 C 0.02259 -0.01846 0.40606
 C2082 C 0.03034 -0.01836 0.38707
 H2083 H 0.06256 -0.03432 0.32198
 H2084 H 0.08293 0.02420 0.33567
 H2085 H 0.05561 0.01248 0.42750
 H2086 H 0.00954 -0.02712 0.40890
 H2087 H 0.04708 -0.03611 0.35434
 H2088 H 0.02292 -0.02667 0.37568
 C2089 C 0.13252 1.06362 1.00021
 C2090 C 0.13595 1.08034 0.98861
 C2091 C 0.15464 1.08860 0.98800
 C2092 C 0.17008 1.08016 0.99867
 C2093 C 0.16637 1.06287 1.00930
 N2094 N 0.14788 1.05519 1.00990
 C2095 C 0.11260 1.05501 1.00205
 N2096 N 0.11054 1.03559 1.00654
 C2097 C 0.09261 1.02676 1.00782
 C2098 C 0.07542 1.03760 1.00427
 C2099 C 0.07724 1.05776 1.00032
 C2100 C 0.09569 1.06651 0.99934
 H2101 H 0.15705 1.10166 0.97922
 H2102 H 0.17795 1.05589 1.01764
 H2103 H 0.09186 1.01119 1.01106
 H2104 H 0.06438 1.06681 0.99788
 H2105 H 0.12443 1.08703 0.97996
 H2106 H 0.09655 1.08215 0.99660
 C2107 C 0.63236 0.56833 0.50305
 C2108 C 0.63633 0.58465 0.49104
 C2109 C 0.65527 0.59235 0.49033
 C2110 C 0.67042 0.58379 0.50132
 C2111 C 0.66610 0.56702 0.51254
 N2112 N 0.64742 0.55985 0.51317
 C2113 C 0.61232 0.55993 0.50464
 N2114 N 0.61008 0.54079 0.51013
 C2115 C 0.59214 0.53199 0.51124
 C2116 C 0.57507 0.54254 0.50646
 C2117 C 0.57701 0.56245 0.50142
 C2118 C 0.59550 0.57120 0.50064
 H2119 H 0.65810 0.60499 0.48107
 H2120 H 0.67741 0.55996 0.52119
 H2121 H 0.59132 0.51663 0.51533
 H2122 H 0.56424 0.57128 0.49796
 H2123 H 0.62509 0.59136 0.48205
 H2124 H 0.59644 0.58665 0.49702
 C2125 C 0.63893 0.43398 -0.00140
 C2126 C 0.64263 0.41517 0.00626
 C2127 C 0.66187 0.40836 0.00753
 C2128 C 0.67764 0.42023 0.00151
 C2129 C 0.67338 0.43903 -0.00587
 N2130 N 0.65444 0.44534 -0.00705
 C2131 C 0.61874 0.44213 -0.00285
 N2132 N 0.61645 0.46191 -0.00505
 C2133 C 0.59847 0.47061 -0.00573
 C2134 C 0.58133 0.45924 -0.00387
 C2135 C 0.58331 0.43878 -0.00217
 C2136 C 0.60188 0.43018 -0.00185
 H2137 H 0.66434 0.39363 0.01302
 H2138 H 0.68507 0.44879 -0.01049
 H2139 H 0.59764 0.48644 -0.00716
 H2140 H 0.57048 0.42940 -0.00104
 H2141 H 0.63099 0.40574 0.01154
 H2142 H 0.60279 0.41435 -0.00088
 C2143 C 0.12963 -0.06744 0.49749
 C2144 C 0.13314 -0.08723 0.50227
 C2145 C 0.15237 -0.09411 0.50346
 C2146 C 0.16823 -0.08151 0.49963
 C2147 C 0.16417 -0.06201 0.49429
 N2148 N 0.14526 -0.05553 0.49346
 C2149 C 0.10944 -0.05916 0.49664
 N2150 N 0.10638 -0.04185 0.48704
 C2151 C 0.08836 -0.03322 0.48597
 C2152 C 0.07200 -0.04206 0.49498
 C2153 C 0.07486 -0.05986 0.50498
 C2154 C 0.09345 -0.06835 0.50596
 H2155 H 0.15483 -0.10942 0.50705
 H2156 H 0.17601 -0.05185 0.49111
 H2157 H 0.08690 -0.01943 0.47818
 H2158 H 0.06280 -0.06712 0.51242
 H2159 H 0.12132 -0.09754 0.50479
 H2160 H 0.09512 -0.08169 0.51439
 C2161 C 0.36246 -0.05778 0.50028
 C2162 C 0.34540 -0.04845 0.50735
 C2163 C 0.32736 -0.05820 0.50641
 C2164 C 0.32607 -0.07715 0.49827
 C2165 C 0.34336 -0.08576 0.49095
 N2166 N 0.36079 -0.07604 0.49215
 C2167 C 0.38224 -0.04848 0.50113
 N2168 N 0.39716 -0.05671 0.49057
 C2169 C 0.41571 -0.04921 0.49051
 C2170 C 0.42016 -0.03229 0.50152
 C2171 C 0.40509 -0.02371 0.51273
 C2172 C 0.38624 -0.03176 0.51268
 H2173 H 0.31449 -0.05100 0.51239
 H2174 H 0.34306 -0.10017 0.48418
 H2175 H 0.42686 -0.05636 0.48167
 H2176 H 0.40786 -0.01080 0.52167
 H2177 H 0.34569 -0.03378 0.51346
 H2178 H 0.37520 -0.02496 0.52185
 C2179 C -0.12845 0.44253 1.00614
 C2180 C -0.14510 0.45011 1.01581
 C2181 C -0.16323 0.44072 1.01363
 C2182 C -0.16487 0.42370 1.00205
 C2183 C -0.14791 0.41657 0.99268
 N2184 N -0.13043 0.42600 0.99495
 C2185 C -0.10869 0.45160 1.00793
 N2186 N -0.09267 0.44081 1.00262
 C2187 C -0.07407 0.44809 1.00342
 C2188 C -0.07069 0.46746 1.00979
 C2189 C -0.08699 0.47885 1.01536
 C2190 C -0.10593 0.47106 1.01438
 H2191 H -0.17585 0.44647 1.02147
 H2192 H -0.14854 0.40356 0.98351
 H2193 H -0.06200 0.43877 0.99890
 H2194 H -0.08518 0.49394 1.02017
 H2195 H -0.14424 0.46281 1.02536
 H2196 H -0.11813 0.48047 1.01821
 C2197 C -0.13722 0.55683 0.49396
 C2198 C -0.15472 0.54666 0.48959
 C2199 C -0.17264 0.55669 0.49002
 C2200 C -0.17324 0.57673 0.49495
 C2201 C -0.15544 0.58635 0.49905
 N2202 N -0.13822 0.57631 0.49852
 C2203 C -0.11770 0.54715 0.49456
 N2204 N -0.10266 0.55681 0.50363
 C2205 C -0.08429 0.54918 0.50505
 C2206 C -0.08007 0.53061 0.49703
 C2207 C -0.09527 0.52044 0.48739
 C2208 C -0.11403 0.52864 0.48606
 H2209 H -0.18606 0.54866 0.48702
 H2210 H -0.15517 0.60186 0.50263
 H2211 H -0.07306 0.55763 0.51254
 H2212 H -0.09266 0.50617 0.48078
 H2213 H -0.15483 0.53109 0.48637
 H2214 H -0.12527 0.52059 0.47823
 C2215 C 0.36568 1.06712 -0.00931
 C2216 C 0.36277 1.08558 -0.00044
 C2217 C 0.34391 1.09333 0.00088
 C2218 C 0.32772 1.08277 -0.00638
 C2219 C 0.33119 1.06441 -0.01523
 N2220 N 0.34978 1.05709 -0.01632
 C2221 C 0.38540 1.05788 -0.01026
 N2222 N 0.38678 1.03795 -0.01198
 C2223 C 0.40435 1.02839 -0.01172
 C2224 C 0.42191 1.03899 -0.00927
 C2225 C 0.42086 1.05956 -0.00819
 C2226 C 0.40275 1.06904 -0.00887
 H2227 H 0.34200 1.10766 0.00759
 H2228 H 0.31911 1.05570 -0.02088
 H2229 H 0.40450 1.01250 -0.01277
 H2230 H 0.43406 1.06836 -0.00672
 H2231 H 0.37476 1.09386 0.00593
 H2232 H 0.40250 1.08493 -0.00827
 C2233 C 0.00414 1.13815 1.05595
 C2234 C 0.00922 1.15504 1.04512
 C2235 C 0.00740 1.17362 1.05378
 C2236 C 0.00034 1.17550 1.07309
 C2237 C -0.00476 1.15831 1.08330
 N2238 N -0.00276 1.14041 1.07462
 C2239 C 0.00547 1.11792 1.04778
 N2240 N -0.00399 1.10313 1.05743
 C2241 C -0.00392 1.08421 1.05092
 C2242 C 0.00603 1.07919 1.03352
 C2243 C 0.01628 1.09409 1.02355
 C2244 C 0.01613 1.11338 1.03064
 H2245 H 0.01125 1.18652 1.04530
 H2246 H -0.00999 1.15902 1.09833
 H2247 H -0.01198 1.07324 1.05915
 H2248 H 0.02435 1.09088 1.01019
 H2249 H 0.01423 1.15416 1.03006
 H2250 H 0.02439 1.12439 1.02273
 C2251 C 0.50415 0.64100 0.55859
 C2252 C 0.51499 0.65691 0.55103
 C2253 C 0.51375 0.67531 0.56012
 C2254 C 0.50191 0.67799 0.57682
 C2255 C 0.49141 0.66170 0.58397
 N2256 N 0.49282 0.64393 0.57486
 C2257 C 0.50481 0.62100 0.54977
 N2258 N 0.49798 0.60554 0.56052
 C2259 C 0.49768 0.58680 0.55348
 C2260 C 0.50448 0.58268 0.53440
 C2261 C 0.51161 0.59838 0.52305
 C2262 C 0.51172 0.61748 0.53059
 H2263 H 0.52203 0.68745 0.55401
 H2264 H 0.48239 0.66294 0.59702
 H2265 H 0.49200 0.57520 0.56277
 H2266 H 0.51683 0.59599 0.50818
 H2267 H 0.52461 0.65532 0.53849
 H2268 H 0.51677 0.62924 0.52119
 C2269 C -0.01047 0.63047 0.43995
 C2270 C -0.02420 0.64542 0.44380
 C2271 C -0.02211 0.66368 0.43463
 C2272 C -0.00646 0.66710 0.42160
 C2273 C 0.00694 0.65177 0.41823
 N2274 N 0.00457 0.63414 0.42728
 C2275 C -0.01188 0.61067 0.44888
 N2276 N -0.00260 0.59544 0.43979
 C2277 C -0.00240 0.57695 0.44731
 C2278 C -0.01168 0.57293 0.46532
 C2279 C -0.02151 0.58838 0.47491
 C2280 C -0.02166 0.60723 0.46677
 H2281 H -0.03302 0.67494 0.43736
 H2282 H 0.01937 0.65378 0.40851
 H2283 H 0.00544 0.56556 0.43940
 H2284 H -0.02878 0.58602 0.48888
 H2285 H -0.03668 0.64301 0.45334
 H2286 H -0.02880 0.61898 0.47477
 C2287 C 0.49775 1.13065 -0.06697
 C2288 C 0.50999 1.13424 -0.08323
 C2289 C 0.51094 1.15306 -0.09122
 C2290 C 0.49995 1.16847 -0.08302
 C2291 C 0.48844 1.16449 -0.06635
 N2292 N 0.48759 1.14594 -0.05889
 C2293 C 0.49591 1.11080 -0.05813
 N2294 N 0.48973 1.10914 -0.03915
 C2295 C 0.48818 1.09147 -0.02991
 C2296 C 0.49318 1.07402 -0.03985
 C2297 C 0.49900 1.07536 -0.05961
 C2298 C 0.50026 1.09362 -0.06881
 H2299 H 0.52040 1.15560 -0.10378
 H2300 H 0.47972 1.17597 -0.05958
 H2301 H 0.48349 1.09115 -0.01470
 H2302 H 0.50270 1.06230 -0.06798
 H2303 H 0.51898 1.12281 -0.08966
 H2304 H 0.50448 1.09409 -0.08414
 C2305 C 0.50865 0.36574 -0.06619
 C2306 C 0.49898 0.36261 -0.08420
 C2307 C 0.49712 0.34359 -0.09161
 C2308 C 0.50459 0.32748 -0.08113
 C2309 C 0.51410 0.33118 -0.06316
 N2310 N 0.51576 0.34990 -0.05622
 C2311 C 0.51051 0.38562 -0.05726
 N2312 N 0.51435 0.38712 -0.03765
 C2313 C 0.51531 0.40474 -0.02817
 C2314 C 0.51200 0.42231 -0.03848
 C2315 C 0.50866 0.42116 -0.05882
 C2316 C 0.50809 0.40294 -0.06827
 H2317 H 0.48993 0.34154 -0.10567
 H2318 H 0.51992 0.31920 -0.05449
 H2319 H 0.51806 0.40493 -0.01248
 H2320 H 0.50638 0.43434 -0.06743
 H2321 H 0.49252 0.37453 -0.09245
 H2322 H 0.50577 0.40265 -0.08399
 C2323 C -0.00474 -0.13877 0.43688
 C2324 C -0.02132 -0.14661 0.42735
 C2325 C -0.02060 -0.16566 0.41971
 C2326 C -0.00344 -0.17692 0.42148
 C2327 C 0.01265 -0.16872 0.43150
 N2328 N 0.01158 -0.15015 0.43889
 C2329 C -0.00454 -0.11856 0.44497
 N2330 N 0.00737 -0.11441 0.46052
 C2331 C 0.00838 -0.09618 0.46872
 C2332 C -0.00291 -0.08068 0.46109
 C2333 C -0.01499 -0.08455 0.44479
 C2334 C -0.01587 -0.10342 0.43672
 H2335 H -0.03330 -0.17140 0.41200
 H2336 H 0.02606 -0.17703 0.43341
 H2337 H 0.01803 -0.09385 0.48116
 H2338 H -0.02390 -0.07305 0.43836
 H2339 H -0.03475 -0.13824 0.42591
 H2340 H -0.02508 -0.10597 0.42400
 C2341 C 0.49542 -0.13144 0.55839
 C2342 C 0.48232 -0.14672 0.55356
 C2343 C 0.48391 -0.16485 0.56305
 C2344 C 0.49842 -0.16785 0.57741
 C2345 C 0.51126 -0.15224 0.58172
 N2346 N 0.50940 -0.13472 0.57232
 C2347 C 0.49422 -0.11165 0.54935
 N2348 N 0.50262 -0.09619 0.55896
 C2349 C 0.50241 -0.07758 0.55168
 C2350 C 0.49344 -0.07362 0.53351
 C2351 C 0.48475 -0.08937 0.52328
 C2352 C 0.48513 -0.10834 0.53109
 H2353 H 0.47343 -0.17633 0.55955
 H2354 H 0.52280 -0.15393 0.59253
 H2355 H 0.50939 -0.06598 0.56007
 H2356 H 0.47781 -0.08709 0.50913
 H2357 H 0.47060 -0.14466 0.54304
 H2358 H 0.47875 -0.12023 0.52264
 C2359 C 0.00710 0.37087 1.07233
 C2360 C 0.01362 0.36741 1.09158
 C2361 C 0.01366 0.34835 1.09901
 C2362 C 0.00691 0.33231 1.08760
 C2363 C 0.00064 0.33655 1.06824
 N2364 N 0.00078 0.35533 1.06136
 C2365 C 0.00642 0.39094 1.06369
 N2366 N -0.00448 0.39396 1.04716
 C2367 C -0.00585 0.41186 1.03834
 C2368 C 0.00414 0.42818 1.04619
 C2369 C 0.01552 0.42538 1.06316
 C2370 C 0.01682 0.40688 1.07184
 H2371 H 0.01955 0.34640 1.11363
 H2372 H -0.00526 0.32526 1.05872
 H2373 H -0.01472 0.41328 1.02520
 H2374 H 0.02376 0.43743 1.06959
 H2375 H 0.01845 0.37917 1.10113
 H2376 H 0.02622 0.40526 1.08452
 C2377 C 0.76051 0.30984 0.11123
 C2378 C 0.76162 0.29925 0.09356
 C2379 C 0.76164 0.30928 0.07562
 C2380 C 0.76060 0.33010 0.07489
 C2381 C 0.75937 0.33992 0.09330
 N2382 N 0.75924 0.32974 0.11044
 C2383 C 0.75986 0.30028 0.13081
 N2384 N 0.75284 0.31086 0.14632
 C2385 C 0.75163 0.30341 0.16480
 C2386 C 0.75777 0.28408 0.16864
 C2387 C 0.76536 0.27296 0.15294
 C2388 C 0.76647 0.28098 0.13406
 H2389 H 0.76330 0.30037 0.06256
 H2390 H 0.75739 0.35562 0.09446
 H2391 H 0.74578 0.31261 0.17642
 H2392 H 0.77042 0.25804 0.15521
 H2393 H 0.76223 0.28336 0.09337
 H2394 H 0.77269 0.27218 0.12235
 C2395 C 0.25364 0.80847 0.61155
 C2396 C 0.26030 0.79913 0.59429
 C2397 C 0.25961 0.80916 0.57636
 C2398 C 0.25224 0.82841 0.57547
 C2399 C 0.24545 0.83706 0.59298
 N2400 N 0.24632 0.82705 0.61022
 C2401 C 0.25391 0.79894 0.63122
 N2402 N 0.24420 0.80796 0.64627
 C2403 C 0.24362 0.80051 0.66480
 C2404 C 0.25323 0.78279 0.66918
 C2405 C 0.26350 0.77328 0.65397
 C2406 C 0.26396 0.78129 0.63507
 H2407 H 0.26509 0.80192 0.56326
 H2408 H 0.23926 0.85171 0.59298
 H2409 H 0.23553 0.80842 0.67601
 H2410 H 0.27128 0.75966 0.65667
 H2411 H 0.26586 0.78427 0.59433
 H2412 H 0.27231 0.77371 0.62387
 C2413 C 0.74352 0.68756 0.61432
 C2414 C 0.73280 0.67037 0.61049
 C2415 C 0.73354 0.66191 0.59184
 C2416 C 0.74509 0.67038 0.57696
 C2417 C 0.75497 0.68807 0.58119
 N2418 N 0.75399 0.69608 0.59954
 C2419 C 0.74401 0.69622 0.63423
 N2420 N 0.74448 0.71612 0.63642
 C2421 C 0.74508 0.72484 0.65445
 C2422 C 0.74567 0.71331 0.67157
 C2423 C 0.74550 0.69278 0.66958
 C2424 C 0.74456 0.68420 0.65098
 H2425 H 0.72511 0.64867 0.58912
 H2426 H 0.76401 0.69515 0.57018
 H2427 H 0.74538 0.74074 0.65539
 H2428 H 0.74595 0.68336 0.68240
 H2429 H 0.72390 0.66354 0.62178
 H2430 H 0.74465 0.66832 0.64971
 C2431 C 0.24539 0.18157 0.11721
 C2432 C 0.24726 0.16123 0.11485
 C2433 C 0.24749 0.15308 0.09609
 C2434 C 0.24553 0.16491 0.07905
 C2435 C 0.24344 0.18544 0.08236
 N2436 N 0.24331 0.19298 0.10095
 C2437 C 0.24548 0.19077 0.13699
 N2438 N 0.23603 0.20820 0.13992
 C2439 C 0.23542 0.21720 0.15784
 C2440 C 0.24473 0.20861 0.17416
 C2441 C 0.25478 0.19081 0.17131
 C2442 C 0.25528 0.18196 0.15286
 H2443 H 0.25020 0.13746 0.09542
 H2444 H 0.24105 0.19564 0.07047
 H2445 H 0.22765 0.23101 0.15929
 H2446 H 0.26247 0.18374 0.18332
 H2447 H 0.24849 0.15150 0.12735
 H2448 H 0.26360 0.16852 0.15108
 C2449 C 0.25663 0.18322 0.88178
 C2450 C 0.24747 0.16498 0.88501
 C2451 C 0.24601 0.15762 0.90404
 C2452 C 0.25332 0.16839 0.92009
 C2453 C 0.26241 0.18656 0.91630
 N2454 N 0.26370 0.19346 0.89754
 C2455 C 0.25799 0.19193 0.86180
 N2456 N 0.26065 0.21172 0.85994
 C2457 C 0.26106 0.22082 0.84212
 C2458 C 0.25839 0.20989 0.82476
 C2459 C 0.25622 0.18944 0.82630
 C2460 C 0.25623 0.18041 0.84468
 H2461 H 0.23915 0.14340 0.90615
 H2462 H 0.26813 0.19543 0.92824
 H2463 H 0.26293 0.23662 0.84158
 H2464 H 0.25455 0.18037 0.81329
 H2465 H 0.24104 0.15652 0.87318
 H2466 H 0.25492 0.16458 0.84525
 C2467 C 0.75881 0.68305 0.38111
 C2468 C 0.75038 0.66439 0.38396
 C2469 C 0.74899 0.65669 0.40285
 C2470 C 0.75566 0.66751 0.41914
 C2471 C 0.76402 0.68610 0.41574
 N2472 N 0.76526 0.69333 0.39710
 C2473 C 0.76003 0.69215 0.36130
 N2474 N 0.76201 0.71205 0.35982
 C2475 C 0.76221 0.72148 0.34216
 C2476 C 0.75998 0.71077 0.32461
 C2477 C 0.75855 0.69023 0.32578
 C2478 C 0.75878 0.68088 0.34397
 H2479 H 0.74270 0.64217 0.40468
 H2480 H 0.76920 0.69503 0.42788
 H2481 H 0.76351 0.73734 0.34190
 H2482 H 0.75725 0.68134 0.31259
 H2483 H 0.74444 0.65585 0.37192
 H2484 H 0.75803 0.66501 0.34425
 C2485 C 0.24143 0.81627 0.38212
 C2486 C 0.23390 0.83521 0.38539
 C2487 C 0.23428 0.84318 0.40430
 C2488 C 0.24218 0.83239 0.41999
 C2489 C 0.24941 0.81344 0.41616
 N2490 N 0.24874 0.80591 0.39760
 C2491 C 0.24146 0.80725 0.36230
 N2492 N 0.23983 0.78736 0.36058
 C2493 C 0.23999 0.77809 0.34283
 C2494 C 0.24225 0.78894 0.32541
 C2495 C 0.24415 0.80945 0.32687
 C2496 C 0.24369 0.81865 0.34523
 H2497 H 0.22864 0.85789 0.40662
 H2498 H 0.25542 0.80458 0.42792
 H2499 H 0.23868 0.76222 0.34240
 H2500 H 0.24601 0.81839 0.31383
 H2501 H 0.22757 0.84372 0.37355
 H2502 H 0.24553 0.83444 0.34603
 C2503 C 0.74806 0.31477 0.88399
 C2504 C 0.75420 0.30371 0.90031
 C2505 C 0.75570 0.31273 0.91871
 C2506 C 0.75095 0.33266 0.92093
 C2507 C 0.74506 0.34325 0.90422
 N2508 N 0.74391 0.33420 0.88640
 C2509 C 0.74632 0.30586 0.86421
 N2510 N 0.75032 0.31695 0.84802
 C2511 C 0.74946 0.30944 0.82945
 C2512 C 0.74417 0.28969 0.82640
 C2513 C 0.73942 0.27823 0.84291
 C2514 C 0.74052 0.28621 0.86177
 H2515 H 0.76031 0.30409 0.93125
 H2516 H 0.74157 0.35874 0.90531
 H2517 H 0.75308 0.31886 0.81715
 H2518 H 0.73521 0.26294 0.84132
 H2519 H 0.75808 0.28834 0.89885
 H2520 H 0.73674 0.27711 0.87426
 C2521 C 0.81408 0.38356 0.23925
 C2522 C 0.81043 0.39838 0.22532
 C2523 C 0.81923 0.41681 0.22758
 C2524 C 0.83175 0.42053 0.24357
 C2525 C 0.83504 0.40531 0.25710
 N2526 N 0.82630 0.38751 0.25461
 C2527 C 0.80525 0.36370 0.23784
 N2528 N 0.81393 0.34864 0.24774
 C2529 C 0.80632 0.33015 0.24802
 C2530 C 0.78866 0.32599 0.23817
 C2531 C 0.77956 0.34126 0.22769
 C2532 C 0.78775 0.36007 0.22749
 H2533 H 0.81661 0.42800 0.21658
 H2534 H 0.84441 0.40756 0.26976
 H2535 H 0.81385 0.31889 0.25634
 H2536 H 0.76587 0.33880 0.21994
 H2537 H 0.80128 0.39576 0.21258
 H2538 H 0.78004 0.37166 0.21987
 C2539 C 0.30872 0.88370 0.73902
 C2540 C 0.30044 0.90073 0.73071
 C2541 C 0.30994 0.91883 0.73303
 C2542 C 0.32772 0.92003 0.74341
 C2543 C 0.33546 0.90272 0.75147
 N2544 N 0.32593 0.88533 0.74909
 C2545 C 0.29967 0.86389 0.73731
 N2546 N 0.31051 0.84808 0.74303
 C2547 C 0.30334 0.82944 0.74290
 C2548 C 0.28394 0.82576 0.73692
 C2549 C 0.27254 0.84175 0.73061
 C2550 C 0.28028 0.86079 0.73082
 H2551 H 0.30364 0.93180 0.72632
 H2552 H 0.34903 0.90299 0.75976
 H2553 H 0.31273 0.81761 0.74786
 H2554 H 0.25745 0.83964 0.72600
 H2555 H 0.28704 0.90027 0.72222
 H2556 H 0.27087 0.87279 0.72648
 C2557 C 0.18001 0.87987 0.24907
 C2558 C 0.15957 0.88184 0.24946
 C2559 C 0.15116 0.90048 0.24909
 C2560 C 0.16289 0.91773 0.24842
 C2561 C 0.18354 0.91480 0.24862
 N2562 N 0.19130 0.89636 0.24885
 C2563 C 0.18959 0.86031 0.24919
 N2564 N 0.20820 0.85859 0.25636
 C2565 C 0.21781 0.84107 0.25698
 C2566 C 0.20869 0.82385 0.25000
 C2567 C 0.18961 0.82538 0.24230
 C2568 C 0.18009 0.84350 0.24181
 H2569 H 0.13536 0.90095 0.25045
 H2570 H 0.19379 0.92686 0.24760
 H2571 H 0.23256 0.84064 0.26292
 H2572 H 0.18202 0.81260 0.23654
 H2573 H 0.15002 0.86917 0.25059
 H2574 H 0.16558 0.84426 0.23537
 C2575 C 0.68947 0.38677 0.75263
 C2576 C 0.69396 0.40179 0.76616
 C2577 C 0.68454 0.41995 0.76467
 C2578 C 0.67058 0.42323 0.74985
 C2579 C 0.66654 0.40785 0.73662
 N2580 N 0.67588 0.39029 0.73837
 C2581 C 0.69857 0.36701 0.75364
 N2582 N 0.68918 0.35161 0.74490
 C2583 C 0.69662 0.33307 0.74488
 C2584 C 0.71474 0.32914 0.75393
 C2585 C 0.72472 0.34483 0.76299
 C2586 C 0.71675 0.36373 0.76285
 H2587 H 0.68779 0.43123 0.77547
 H2588 H 0.65601 0.40977 0.72486
 H2589 H 0.68842 0.32149 0.73762
 H2590 H 0.73881 0.34257 0.77003
 H2591 H 0.70418 0.39950 0.77811
 H2592 H 0.72503 0.37558 0.76949
 C2593 C 0.69128 0.61353 0.74613
 C2594 C 0.69897 0.59731 0.73582
 C2595 C 0.68971 0.57904 0.73722
 C2596 C 0.67271 0.57679 0.74869
 C2597 C 0.66548 0.59335 0.75873
 N2598 N 0.67476 0.61099 0.75716
 C2599 C 0.70018 0.63346 0.74514
 N2600 N 0.68943 0.64911 0.75153
 C2601 C 0.69648 0.66784 0.75137
 C2602 C 0.71554 0.67173 0.74449
 C2603 C 0.72691 0.65582 0.73785
 C2604 C 0.71938 0.63674 0.73824
 H2605 H 0.69589 0.56666 0.72931
 H2606 H 0.65222 0.59243 0.76746
 H2607 H 0.68718 0.67961 0.75670
 H2608 H 0.74177 0.65803 0.73260
 H2609 H 0.71172 0.59855 0.72645
 H2610 H 0.72879 0.62484 0.73353
 C2611 C 0.19292 0.10873 0.25086
 C2612 C 0.20149 0.09228 0.24165
 C2613 C 0.19213 0.07402 0.24267
 C2614 C 0.17421 0.07201 0.25268
 C2615 C 0.16622 0.08875 0.26178
 N2616 N 0.17558 0.10637 0.26058
 C2617 C 0.20163 0.12877 0.24994
 N2618 N 0.19050 0.14429 0.25603
 C2619 C 0.19715 0.16314 0.25572
 C2620 C 0.21616 0.16737 0.24891
 C2621 C 0.22795 0.15163 0.24263
 C2622 C 0.22084 0.13238 0.24320
 H2623 H 0.19893 0.06149 0.23556
 H2624 H 0.15227 0.08801 0.26938
 H2625 H 0.18752 0.17477 0.26076
 H2626 H 0.24280 0.15412 0.23746
 H2627 H 0.21500 0.09329 0.23339
 H2628 H 0.23053 0.12067 0.23865
 C2629 C 0.31537 0.11398 0.75518
 C2630 C 0.33493 0.11113 0.76106
 C2631 C 0.34263 0.09216 0.76157
 C2632 C 0.33096 0.07598 0.75626
 C2633 C 0.31137 0.07941 0.75080
 N2634 N 0.30414 0.09805 0.75048
 C2635 C 0.30668 0.13387 0.75407
 N2636 N 0.28706 0.13615 0.75723
 C2637 C 0.27815 0.15404 0.75643
 C2638 C 0.28913 0.17098 0.75199
 C2639 C 0.30932 0.16886 0.74837
 C2640 C 0.31813 0.15040 0.74941
 H2641 H 0.35786 0.09019 0.76575
 H2642 H 0.30181 0.06729 0.74684
 H2643 H 0.26251 0.15496 0.75916
 H2644 H 0.31837 0.18148 0.74482
 H2645 H 0.34418 0.12335 0.76539
 H2646 H 0.33366 0.14912 0.74625
 C2647 C 0.81563 0.61568 0.25239
 C2648 C 0.83478 0.61284 0.25946
 C2649 C 0.84257 0.59393 0.26013
 C2650 C 0.83139 0.57779 0.25374
 C2651 C 0.81227 0.58120 0.24684
 N2652 N 0.80490 0.59980 0.24648
 C2653 C 0.80683 0.63552 0.25154
 N2654 N 0.78715 0.63766 0.25445
 C2655 C 0.77825 0.65557 0.25419
 C2656 C 0.78929 0.67267 0.25062
 C2657 C 0.80954 0.67070 0.24723
 C2658 C 0.81834 0.65222 0.24771
 H2659 H 0.85744 0.59194 0.26544
 H2660 H 0.80314 0.56909 0.24195
 H2661 H 0.76256 0.65639 0.25667
 H2662 H 0.81864 0.68346 0.24435
 H2663 H 0.84359 0.62504 0.26472
 H2664 H 0.83394 0.65104 0.24485
 C2665 C 0.88389 0.25489 0.18520
 C2666 C 0.89481 0.27226 0.18276
 C2667 C 0.91339 0.27139 0.17417
 C2668 C 0.92121 0.25329 0.16809
 C2669 C 0.90992 0.23624 0.17091
 N2670 N 0.89171 0.23747 0.17911
 C2671 C 0.86397 0.25518 0.19388
 N2672 N 0.85043 0.24168 0.18785
 C2673 C 0.83187 0.24114 0.19531
 C2674 C 0.82614 0.25454 0.20997
 C2675 C 0.83994 0.26848 0.21646
 C2676 C 0.85878 0.26889 0.20845
 H2677 H 0.92165 0.28487 0.17223
 H2678 H 0.91535 0.22205 0.16616
 H2679 H 0.82175 0.23002 0.19003
 H2680 H 0.83620 0.27907 0.22780
 H2681 H 0.88892 0.28643 0.18699
 H2682 H 0.86927 0.27954 0.21395
 C2683 C 0.38313 0.75165 0.68441
 C2684 C 0.39102 0.73485 0.67528
 C2685 C 0.41015 0.73538 0.66791
 C2686 C 0.42145 0.75257 0.66956
 C2687 C 0.41320 0.76888 0.67920
 N2688 N 0.39455 0.76800 0.68634
 C2689 C 0.36284 0.75199 0.69222
 N2690 N 0.35855 0.76402 0.70766
 C2691 C 0.34029 0.76491 0.71577
 C2692 C 0.32496 0.75328 0.70821
 C2693 C 0.32896 0.74118 0.69192
 C2694 C 0.34782 0.74048 0.68391
 H2695 H 0.41592 0.72251 0.66049
 H2696 H 0.42154 0.78232 0.68102
 H2697 H 0.33786 0.77459 0.72820
 H2698 H 0.31760 0.73201 0.68553
 H2699 H 0.38262 0.72140 0.67394
 H2700 H 0.35048 0.73118 0.67126
 C2701 C 0.38795 0.24400 0.80776
 C2702 C 0.40500 0.23658 0.79867
 C2703 C 0.42295 0.23744 0.80859
 C2704 C 0.42410 0.24576 0.82747
 C2705 C 0.40682 0.25333 0.83585
 N2706 N 0.38953 0.25225 0.82596
 C2707 C 0.36823 0.24346 0.79839
 N2708 N 0.35335 0.25356 0.80720
 C2709 C 0.33477 0.25387 0.79990
 C2710 C 0.33019 0.24357 0.78258
 C2711 C 0.34524 0.23291 0.77328
 C2712 C 0.36419 0.23273 0.78113
 H2713 H 0.43587 0.23131 0.80160
 H2714 H 0.40704 0.26025 0.85021
 H2715 H 0.32368 0.26230 0.80760
 H2716 H 0.34237 0.22460 0.75998
 H2717 H 0.40477 0.23024 0.78409
 H2718 H 0.37524 0.22407 0.77374
 C2719 C 0.88868 0.74448 0.30642
 C2720 C 0.90304 0.73049 0.30180
 C2721 C 0.92119 0.73109 0.31132
 C2722 C 0.92545 0.74560 0.32573
 C2723 C 0.91035 0.75946 0.32960
 N2724 N 0.89278 0.75837 0.32020
 C2725 C 0.86887 0.74427 0.29741
 N2726 N 0.85389 0.75334 0.30711
 C2727 C 0.83527 0.75389 0.29994
 C2728 C 0.83080 0.74500 0.28181
 C2729 C 0.84607 0.73571 0.27144
 C2730 C 0.86507 0.73534 0.27913
 H2731 H 0.93190 0.72039 0.30657
 H2732 H 0.91169 0.77056 0.34089
 H2733 H 0.82404 0.76133 0.30841
 H2734 H 0.84337 0.72878 0.25733
 H2735 H 0.90034 0.71893 0.29120
 H2736 H 0.87659 0.72846 0.27062
 C2737 C 0.11346 0.74907 0.31029
 C2738 C 0.09836 0.76236 0.30567
 C2739 C 0.08027 0.76086 0.31523
 C2740 C 0.07714 0.74624 0.32944
 C2741 C 0.09261 0.73327 0.33363
 N2742 N 0.11011 0.73504 0.32415
 C2743 C 0.13314 0.75016 0.30106
 N2744 N 0.14868 0.74204 0.31067
 C2745 C 0.16721 0.74227 0.30320
 C2746 C 0.17097 0.75095 0.28485
 C2747 C 0.15513 0.75928 0.27460
 C2748 C 0.13625 0.75890 0.28260
 H2749 H 0.06892 0.77148 0.31186
 H2750 H 0.09081 0.72166 0.34434
 H2751 H 0.17891 0.73554 0.31160
 H2752 H 0.15727 0.76600 0.26032
 H2753 H 0.10053 0.77414 0.29523
 H2754 H 0.12427 0.76502 0.27417
 C2755 C 0.61527 0.26164 0.81177
 C2756 C 0.59804 0.26701 0.80168
 C2757 C 0.57983 0.26519 0.81102
 C2758 C 0.57865 0.25789 0.83027
 C2759 C 0.59618 0.25285 0.83987
 N2760 N 0.61371 0.25477 0.83051
 C2761 C 0.63510 0.26222 0.80264
 N2762 N 0.65005 0.25278 0.81199
 C2763 C 0.66856 0.25192 0.80457
 C2764 C 0.67298 0.26082 0.78648
 C2765 C 0.65793 0.27104 0.77676
 C2766 C 0.63906 0.27186 0.78479
 H2767 H 0.56662 0.26900 0.80300
 H2768 H 0.59600 0.24744 0.85483
 H2769 H 0.67967 0.24396 0.81268
 H2770 H 0.66069 0.27832 0.76287
 H2771 H 0.59832 0.27208 0.78664
 H2772 H 0.62792 0.28002 0.77699
 C2773 C 0.61530 0.75249 0.68776
 C2774 C 0.61003 0.76892 0.67646
 C2775 C 0.59138 0.76990 0.66813
 C2776 C 0.57781 0.75464 0.67104
 C2777 C 0.58330 0.73889 0.68323
 N2778 N 0.60169 0.73817 0.69111
 C2779 C 0.63541 0.75039 0.69576
 N2780 N 0.63834 0.74063 0.71299
 C2781 C 0.65652 0.73867 0.72117
 C2782 C 0.67310 0.74677 0.71183
 C2783 C 0.67036 0.75634 0.69375
 C2784 C 0.65167 0.75814 0.68570
 H2785 H 0.58759 0.78260 0.65933
 H2786 H 0.57326 0.72683 0.68591
 H2787 H 0.65794 0.73103 0.73505
 H2788 H 0.68265 0.76268 0.68585
 H2789 H 0.62018 0.78095 0.67406
 H2790 H 0.65005 0.76540 0.67164
 C2791 C 0.11178 0.23811 0.19248
 C2792 C 0.09464 0.24081 0.20373
 C2793 C 0.07639 0.24160 0.19435
 C2794 C 0.07513 0.23960 0.17383
 C2795 C 0.09261 0.23694 0.16317
 N2796 N 0.11020 0.23641 0.17259
 C2797 C 0.13164 0.23787 0.20139
 N2798 N 0.14731 0.24305 0.19006
 C2799 C 0.16599 0.24346 0.19712
 C2800 C 0.16984 0.23833 0.21675
 C2801 C 0.15394 0.23253 0.22860
 C2802 C 0.13488 0.23228 0.22101
 H2803 H 0.06326 0.24368 0.20312
 H2804 H 0.09236 0.23570 0.14729
 H2805 H 0.17777 0.24788 0.18737
 H2806 H 0.15619 0.22836 0.24380
 H2807 H 0.09526 0.24277 0.21952
 H2808 H 0.12293 0.22754 0.23038
 C2809 C -0.06114 0.99813 0.86324
 C2810 C -0.05131 0.99209 0.84610
 C2811 C -0.06065 0.99366 0.82789
 C2812 C -0.07989 1.00130 0.82644
 C2813 C -0.08880 1.00778 0.84406
 N2814 N -0.07938 1.00604 0.86156
 C2815 C -0.05242 0.99661 0.88317
 N2816 N -0.06099 1.00681 0.89815
 C2817 C -0.05409 1.00633 0.91690
 C2818 C -0.03746 0.99506 0.92152
 C2819 C -0.02857 0.98413 0.90639
 C2820 C -0.03602 0.98477 0.88728
 H2821 H -0.05290 0.98800 0.81520
 H2822 H -0.10301 1.01482 0.84414
 H2823 H -0.06145 1.01498 0.92805
 H2824 H -0.01581 0.97508 0.90928
 H2825 H -0.03658 0.98621 0.84652
 H2826 H -0.02902 0.97588 0.87611
 C2827 C 0.44014 0.49608 0.36382
 C2828 C 0.44595 0.48336 0.34854
 C2829 C 0.43658 0.48441 0.33029
 C2830 C 0.42136 0.49796 0.32721
 C2831 C 0.41611 0.51048 0.34279
 N2832 N 0.42542 0.50918 0.36041
 C2833 C 0.44897 0.49544 0.38374
 N2834 N 0.43894 0.50379 0.39895
 C2835 C 0.44601 0.50417 0.41765
 C2836 C 0.46439 0.49590 0.42197
 C2837 C 0.47503 0.48721 0.40651
 C2838 C 0.46743 0.48699 0.38744
 H2839 H 0.44083 0.47422 0.31879
 H2840 H 0.40460 0.52130 0.34101
 H2841 H 0.43730 0.51112 0.42903
 H2842 H 0.48936 0.48080 0.40907
 H2843 H 0.45715 0.47231 0.35065
 H2844 H 0.47623 0.48066 0.37579
 C2845 C 0.56092 0.01024 0.36437
 C2846 C 0.55421 0.02122 0.34828
 C2847 C 0.56308 0.01889 0.32992
 C2848 C 0.57898 0.00579 0.32725
 C2849 C 0.58525 -0.00478 0.34397
 N2850 N 0.57629 -0.00225 0.36168
 C2851 C 0.55194 0.01179 0.38423
 N2852 N 0.56206 0.00471 0.39999
 C2853 C 0.55462 0.00493 0.41857
 C2854 C 0.53574 0.01247 0.42217
 C2855 C 0.52512 0.01999 0.40616
 C2856 C 0.53307 0.01961 0.38726
 H2857 H 0.55683 0.02708 0.31785
 H2858 H 0.59775 -0.01453 0.34342
 H2859 H 0.56334 -0.00110 0.43042
 H2860 H 0.51043 0.02578 0.40813
 H2861 H 0.54235 0.03167 0.34964
 H2862 H 0.52413 0.02487 0.37525
 C2863 C 0.07045 0.50122 0.87202
 C2864 C 0.08695 0.48957 0.86771
 C2865 C 0.09356 0.48805 0.84834
 C2866 C 0.08374 0.49790 0.83312
 C2867 C 0.06710 0.50911 0.83799
 N2868 N 0.06096 0.51042 0.85699
 C2869 C 0.06264 0.50336 0.89230
 N2870 N 0.04375 0.50949 0.89474
 C2871 C 0.03528 0.51131 0.91277
 C2872 C 0.04592 0.50668 0.92984
 C2873 C 0.06560 0.50087 0.92773
 C2874 C 0.07402 0.49931 0.90907
 H2875 H 0.10657 0.47940 0.84536
 H2876 H 0.05889 0.51673 0.82671
 H2877 H 0.02009 0.51595 0.91366
 H2878 H 0.07447 0.49739 0.94047
 H2879 H 0.09465 0.48147 0.87898
 H2880 H 0.08929 0.49508 0.90800
 C2881 C 0.06175 0.50104 0.63808
 C2882 C 0.07467 0.51633 0.64321
 C2883 C 0.08309 0.51667 0.66187
 C2884 C 0.07860 0.50195 0.67558
 C2885 C 0.06487 0.48745 0.67025
 N2886 N 0.05698 0.48730 0.65184
 C2887 C 0.05337 0.49942 0.61803
 N2888 N 0.03592 0.48995 0.61535
 C2889 C 0.02743 0.48806 0.59731
 C2890 C 0.03664 0.49592 0.58056
 C2891 C 0.05486 0.50531 0.58298
 C2892 C 0.06327 0.50703 0.60158
 H2893 H 0.09323 0.52840 0.66557
 H2894 H 0.06098 0.47585 0.68041
 H2895 H 0.01343 0.48059 0.59614
 H2896 H 0.06265 0.51144 0.57052
 H2897 H 0.07826 0.52799 0.63301
 H2898 H 0.07750 0.51401 0.60290
 C2899 C 0.55668 0.99741 0.13770
 C2900 C 0.55160 0.98427 0.15282
 C2901 C 0.56153 0.98515 0.17078
 C2902 C 0.57657 0.99899 0.17375
 C2903 C 0.58110 1.01191 0.15830
 N2904 N 0.57127 1.01074 0.14094
 C2905 C 0.54726 0.99683 0.11805
 N2906 N 0.55704 1.00478 0.10250
 C2907 C 0.54952 1.00489 0.08398
 C2908 C 0.53093 0.99672 0.08022
 C2909 C 0.52047 0.98862 0.09608
 C2910 C 0.52853 0.98867 0.11497
 H2911 H 0.55782 0.97463 0.18213
 H2912 H 0.59242 1.02297 0.15999
 H2913 H 0.55809 1.01141 0.07226
 H2914 H 0.50602 0.98228 0.09395
 H2915 H 0.54054 0.97302 0.15074
 H2916 H 0.51996 0.98270 0.12695
 C2917 C 0.44034 0.49440 0.13731
 C2918 C 0.45029 0.48982 0.15483
 C2919 C 0.43997 0.48949 0.17260
 C2920 C 0.41981 0.49377 0.17299
 C2921 C 0.41036 0.49788 0.15511
 N2922 N 0.42069 0.49803 0.13800
 C2923 C 0.45044 0.49523 0.11803
 N2924 N 0.43977 0.49206 0.10138
 C2925 C 0.44785 0.49288 0.08311
 C2926 C 0.46787 0.49736 0.08076
 C2927 C 0.47911 0.50096 0.09773
 C2928 C 0.47049 0.49989 0.11634
 H2929 H 0.44780 0.48625 0.18607
 H2930 H 0.39476 0.50091 0.15471
 H2931 H 0.43857 0.49013 0.07047
 H2932 H 0.49458 0.50454 0.09664
 H2933 H 0.46579 0.48632 0.15487
 H2934 H 0.47938 0.50308 0.12915
 C2935 C -0.06967 0.00637 0.63230
 C2936 C -0.08797 0.01523 0.63536
 C2937 C -0.09621 0.01529 0.65411
 C2938 C -0.08638 0.00649 0.67014
 C2939 C -0.06787 -0.00206 0.66628
 N2940 N -0.06009 -0.00175 0.64784
 C2941 C -0.06062 0.00566 0.61255
 N2942 N -0.04069 0.00629 0.61084
 C2943 C -0.03150 0.00552 0.59307
 C2944 C -0.04251 0.00364 0.57569
 C2945 C -0.06306 0.00280 0.57718
 C2946 C -0.07214 0.00386 0.59552
 H2947 H -0.11073 0.02156 0.65561
 H2948 H -0.05916 -0.00844 0.67791
 H2949 H -0.01561 0.00603 0.59259
 H2950 H -0.07213 0.00130 0.56417
 H2951 H -0.09588 0.02213 0.62342
 H2952 H -0.08799 0.00281 0.59634
 C2953 C -0.13897 0.94270 0.99742
 C2954 C -0.15600 0.95299 0.99182
 C2955 C -0.17428 0.94369 0.99286
 C2956 C -0.17575 0.92429 0.99968
 C2957 C -0.15847 0.91467 1.00549
 N2958 N -0.14082 0.92396 1.00420
 C2959 C -0.11903 0.95154 0.99653
 N2960 N -0.10417 0.94268 1.00659
 C2961 C -0.08546 0.94970 1.00656
 C2962 C -0.08073 0.96675 0.99593
 C2963 C -0.09575 0.97600 0.98524
 C2964 C -0.11481 0.96843 0.98541
 H2965 H -0.18729 0.95177 0.98858
 H2966 H -0.15890 0.89964 1.01068
 H2967 H -0.07438 0.94203 1.01498
 H2968 H -0.09278 0.98906 0.97664
 H2969 H -0.15547 0.96809 0.98696
 H2970 H -0.12587 0.97569 0.97665
 C2971 C 0.36378 0.44162 0.49909
 C2972 C 0.34648 0.45221 0.50296
 C2973 C 0.32849 0.44232 0.50359
 C2974 C 0.32769 0.42196 0.50028
 C2975 C 0.34535 0.41189 0.49678
 N2976 N 0.36268 0.42181 0.49637
 C2977 C 0.38328 0.45121 0.49823
 N2978 N 0.39952 0.44037 0.50254
 C2979 C 0.41796 0.44805 0.50199
 C2980 C 0.42091 0.46777 0.49665
 C2981 C 0.40439 0.47913 0.49179
 C2982 C 0.38559 0.47093 0.49259
 H2983 H 0.31518 0.45061 0.50633
 H2984 H 0.34540 0.39613 0.49450
 H2985 H 0.43026 0.43869 0.50571
 H2986 H 0.40596 0.49439 0.48753
 H2987 H 0.34678 0.46789 0.50574
 H2988 H 0.37312 0.47989 0.48851
 C2989 C 0.36889 0.55628 0.00249
 C2990 C 0.35264 0.55059 0.01393
 C2991 C 0.33468 0.56020 0.01151
 C2992 C 0.33285 0.57552 -0.00217
 C2993 C 0.34934 0.58054 -0.01350
 N2994 N 0.36666 0.57103 -0.01084
 C2995 C 0.38861 0.54740 0.00483
 N2996 N 0.40446 0.55754 -0.00199
 C2997 C 0.42307 0.55045 -0.00082
 C2998 C 0.42663 0.53191 0.00750
 C2999 C 0.41051 0.52118 0.01469
 C3000 C 0.39152 0.52883 0.01335
 H3001 H 0.32243 0.55612 0.02083
 H3002 H 0.34854 0.59212 -0.02437
 H3003 H 0.43499 0.55923 -0.00665
 H3004 H 0.41249 0.50674 0.02106
 H3005 H 0.35379 0.53935 0.02509
 H3006 H 0.37937 0.51998 0.01851
 C3007 C -0.13895 0.05903 0.50282
 C3008 C -0.15481 0.05391 0.51505
 C3009 C -0.17284 0.06343 0.51280
 C3010 C -0.17513 0.07813 0.49852
 C3011 C -0.15897 0.08270 0.48652
 N3012 N -0.14158 0.07324 0.48899
 C3013 C -0.11926 0.04991 0.50465
 N3014 N -0.10353 0.05941 0.49669
 C3015 C -0.08505 0.05188 0.49716
 C3016 C -0.08152 0.03352 0.50588
 C3017 C -0.09750 0.02350 0.51431
 C3018 C -0.11633 0.03158 0.51370
 H3019 H -0.18479 0.05975 0.52265
 H3020 H -0.16012 0.09380 0.47520
 H3021 H -0.07324 0.06012 0.49039
 H3022 H -0.09555 0.00924 0.52108
 H3023 H -0.15332 0.04314 0.52663
 H3024 H -0.12839 0.02321 0.51977
 C3025 C 0.63126 0.06984 0.49398
 C3026 C 0.63397 0.08970 0.48904
 C3027 C 0.65276 0.09782 0.48950
 C3028 C 0.66898 0.08627 0.49481
 C3029 C 0.66571 0.06644 0.49955
 N3030 N 0.64721 0.05879 0.49891
 C3031 C 0.61149 0.06070 0.49383
 N3032 N 0.60963 0.04114 0.48984
 C3033 C 0.59186 0.03191 0.48956
 C3034 C 0.57458 0.04245 0.49373
 C3035 C 0.57626 0.06259 0.49801
 C3036 C 0.59458 0.07173 0.49807
 H3037 H 0.65459 0.11321 0.48585
 H3038 H 0.67786 0.05698 0.50348
 H3039 H 0.59129 0.01631 0.48637
 H3040 H 0.56339 0.07133 0.50142
 H3041 H 0.62178 0.09886 0.48456
 H3042 H 0.59546 0.08718 0.50185
 C3043 C 0.14022 0.56866 0.99593
 C3044 C 0.14318 0.58708 0.98727
 C3045 C 0.16190 0.59535 0.98709
 C3046 C 0.17802 0.58543 0.99559
 C3047 C 0.17427 0.56681 1.00400
 N3048 N 0.15584 0.55901 1.00379
 C3049 C 0.12051 0.55953 0.99666
 N3050 N 0.11882 0.53958 0.99586
 C3051 C 0.10109 0.53033 0.99659
 C3052 C 0.08371 0.54130 0.99857
 C3053 C 0.08519 0.56187 0.99959
 C3054 C 0.10349 0.57101 0.99859
 H3055 H 0.16333 0.60994 0.98097
 H3056 H 0.18597 0.55803 1.01015
 H3057 H 0.10062 0.51443 0.99593
 H3058 H 0.07220 0.57093 1.00117
 H3059 H 0.13118 0.59506 0.98056
 H3060 H 0.10428 0.58687 0.99977
 C3061 C 0.13695 0.44329 0.50204
 C3062 C 0.15276 0.44968 0.51375
 C3063 C 0.17099 0.44041 0.51203
 C3064 C 0.17351 0.42473 0.49881
 C3065 C 0.15743 0.41901 0.48718
 N3066 N 0.13985 0.42821 0.48916
 C3067 C 0.11695 0.45170 0.50374
 N3068 N 0.10154 0.44093 0.49683
 C3069 C 0.08270 0.44743 0.49765
 C3070 C 0.07840 0.46596 0.50573
 C3071 C 0.09407 0.47739 0.51288
 C3072 C 0.11332 0.47036 0.51189
 H3073 H 0.18290 0.44504 0.52154
 H3074 H 0.15878 0.40715 0.47662
 H3075 H 0.07115 0.43812 0.49185
 H3076 H 0.09151 0.49185 0.51908
 H3077 H 0.15107 0.46122 0.52459
 H3078 H 0.12511 0.47969 0.51709
 C3079 C 0.63242 0.93903 0.00563
 C3080 C 0.64756 0.94363 0.01894
 C3081 C 0.66600 0.93494 0.01667
 C3082 C 0.66943 0.92158 0.00128
 C3083 C 0.65392 0.91741 -0.01171
 N3084 N 0.63610 0.92605 -0.00920
 C3085 C 0.61244 0.94749 0.00736
 N3086 N 0.59716 0.93792 -0.00138
 C3087 C 0.57847 0.94495 -0.00095
 C3088 C 0.57428 0.96284 0.00852
 C3089 C 0.58981 0.97293 0.01769
 C3090 C 0.60885 0.96536 0.01713
 H3091 H 0.67738 0.93823 0.02731
 H3092 H 0.65595 0.90733 -0.02388
 H3093 H 0.56702 0.93671 -0.00833
 H3094 H 0.58736 0.98686 0.02505
 H3095 H 0.64518 0.95338 0.03131
 H3096 H 0.62058 0.97379 0.02380
 C3097 C -0.00897 0.86384 0.94096
 C3098 C -0.01923 0.84755 0.94840
 C3099 C -0.01773 0.82935 0.93892
 C3100 C -0.00604 0.82707 0.92187
 C3101 C 0.00374 0.84401 0.91490
 N3102 N 0.00198 0.86150 0.92440
 C3103 C -0.00969 0.88366 0.95015
 N3104 N -0.00295 0.89923 0.93953
 C3105 C -0.00248 0.91786 0.94678
 C3106 C -0.00896 0.92178 0.96601
 C3107 C -0.01603 0.90598 0.97728
 C3108 C -0.01637 0.88695 0.96947
 H3109 H -0.02530 0.81706 0.94556
 H3110 H 0.01222 0.84382 0.90148
 H3111 H 0.00310 0.92951 0.93751
 H3112 H -0.02105 0.90826 0.99223
 H3113 H -0.02846 0.84866 0.96129
 H3114 H -0.02140 0.87507 0.97873
 C3115 C 0.49569 0.36683 0.44202
 C3116 C 0.48303 0.35138 0.44739
 C3117 C 0.48412 0.33341 0.43743
 C3118 C 0.49767 0.33076 0.42208
 C3119 C 0.51016 0.34650 0.41732
 N3120 N 0.50880 0.36384 0.42718
 C3121 C 0.49490 0.38656 0.45133
 N3122 N 0.50305 0.40198 0.44152
 C3123 C 0.50315 0.42058 0.44885
 C3124 C 0.49473 0.42462 0.46729
 C3125 C 0.48634 0.40893 0.47778
 C3126 C 0.48642 0.38992 0.46990
 H3127 H 0.47397 0.32178 0.44136
 H3128 H 0.52102 0.34505 0.40577
 H3129 H 0.50988 0.43213 0.44023
 H3130 H 0.47981 0.41130 0.49212
 H3131 H 0.47200 0.35319 0.45870
 H3132 H 0.48022 0.37808 0.47850
 C3133 C 0.00616 0.36106 0.56285
 C3134 C 0.01035 0.34389 0.55213
 C3135 C 0.00900 0.32557 0.56130
 C3136 C 0.00348 0.32403 0.58128
 C3137 C -0.00100 0.34176 0.59121
 N3138 N 0.00040 0.35935 0.58190
 C3139 C 0.00718 0.38104 0.55415
 N3140 N -0.00200 0.39608 0.56370
 C3141 C -0.00203 0.41482 0.55678
 C3142 C 0.00759 0.41938 0.53909
 C3143 C 0.01753 0.40420 0.52919
 C3144 C 0.01744 0.38509 0.53667
 H3145 H 0.01309 0.31281 0.55273
 H3146 H -0.00634 0.34187 0.60618
 H3147 H -0.00985 0.42601 0.56497
 H3148 H 0.02531 0.40703 0.51558
 H3149 H 0.01448 0.34437 0.53679
 H3150 H 0.02549 0.37384 0.52884
 C3151 C 0.49927 0.86593 0.06802
 C3152 C 0.50298 0.86338 0.08817
 C3153 C 0.50360 0.84448 0.09598
 C3154 C 0.50059 0.82802 0.08385
 C3155 C 0.49686 0.83115 0.06379
 N3156 N 0.49647 0.84976 0.05645
 C3157 C 0.49896 0.88572 0.05900
 N3158 N 0.50422 0.88775 0.03979
 C3159 C 0.50458 0.90553 0.03066
 C3160 C 0.49926 0.92269 0.04094
 C3161 C 0.49348 0.92085 0.06068
 C3162 C 0.49331 0.90247 0.06974
 H3163 H 0.50638 0.84273 0.11157
 H3164 H 0.49463 0.81883 0.05393
 H3165 H 0.50892 0.90620 0.01535
 H3166 H 0.48910 0.93362 0.06917
 H3167 H 0.50579 0.87578 0.09778
 H3168 H 0.48850 0.90142 0.08487
 C3169 C 0.50313 0.63089 0.06839
 C3170 C 0.51796 0.63641 0.08167
 C3171 C 0.51803 0.65533 0.08958
 C3172 C 0.50344 0.66891 0.08430
 C3173 C 0.48931 0.66308 0.07040
 N3174 N 0.48947 0.64447 0.06295
 C3175 C 0.50211 0.61076 0.06006
 N3176 N 0.49330 0.60790 0.04229
 C3177 C 0.49214 0.58986 0.03364
 C3178 C 0.50015 0.57327 0.04298
 C3179 C 0.50883 0.57584 0.06154
 C3180 C 0.50979 0.59446 0.07012
 H3181 H 0.52954 0.65936 0.09983
 H3182 H 0.47780 0.67308 0.06591
 H3183 H 0.48518 0.58859 0.01938
 H3184 H 0.51505 0.56350 0.06942
 H3185 H 0.52956 0.62637 0.08580
 H3186 H 0.51630 0.59593 0.08457
 C3187 C -0.00758 0.12880 0.56688
 C3188 C 0.00173 0.13164 0.58512
 C3189 C 0.00333 0.15051 0.59297
 C3190 C -0.00405 0.16679 0.58270
 C3191 C -0.01320 0.16340 0.56447
 N3192 N -0.01462 0.14479 0.55709
 C3193 C -0.00922 0.10901 0.55768
 N3194 N -0.01213 0.10758 0.53788
 C3195 C -0.01288 0.08996 0.52833
 C3196 C -0.01032 0.07234 0.53878
 C3197 C -0.00793 0.07346 0.55925
 C3198 C -0.00756 0.09164 0.56874
 H3199 H 0.01026 0.15231 0.60720
 H3200 H -0.01892 0.17552 0.55593
 H3201 H -0.01490 0.08977 0.51254
 H3202 H -0.00631 0.06025 0.56798
 H3203 H 0.00814 0.11959 0.59323
 H3204 H -0.00605 0.09189 0.58457
 C3205 C 0.50421 0.14021 0.43827
 C3206 C 0.49975 0.15731 0.44904
 C3207 C 0.49904 0.17543 0.43944
 C3208 C 0.50284 0.17659 0.41919
 C3209 C 0.50713 0.15915 0.40896
 N3210 N 0.50757 0.14166 0.41859
 C3211 C 0.50468 0.12053 0.44752
 N3212 N 0.50060 0.10445 0.43626
 C3213 C 0.50044 0.08591 0.44372
 C3214 C 0.50468 0.08270 0.46368
 C3215 C 0.50941 0.09905 0.47544
 C3216 C 0.50941 0.11794 0.46745
 H3217 H 0.49568 0.18855 0.44785
 H3218 H 0.50983 0.15936 0.39327
 H3219 H 0.49689 0.07375 0.43404
 H3220 H 0.51288 0.09730 0.49089
 H3221 H 0.49645 0.15673 0.46460
 H3222 H 0.51328 0.13027 0.47677
 C3223 C 0.01043 0.63660 0.93986
 C3224 C 0.01459 0.65428 0.94973
 C3225 C 0.01230 0.67218 0.93997
 C3226 C 0.00580 0.67281 0.92026
 C3227 C 0.00148 0.65458 0.91115
 N3228 N 0.00382 0.63741 0.92102
 C3229 C 0.01221 0.61705 0.94934
 N3230 N 0.00294 0.60142 0.94084
 C3231 C 0.00338 0.58307 0.94869
 C3232 C 0.01349 0.57957 0.96633
 C3233 C 0.02360 0.59535 0.97510
 C3234 C 0.02309 0.61402 0.96664
 H3235 H 0.01638 0.68536 0.94789
 H3236 H -0.00447 0.65375 0.89644
 H3237 H -0.00457 0.57137 0.94135
 H3238 H 0.03181 0.59331 0.98859
 H3239 H 0.01938 0.65453 0.96488
 H3240 H 0.03125 0.62575 0.97363
 C3241 C 0.25363 0.69463 0.88619
 C3242 C 0.24173 0.70029 0.90215
 C3243 C 0.24412 0.69113 0.92038
 C3244 C 0.25822 0.67628 0.92276
 C3245 C 0.27007 0.67136 0.90657
 N3246 N 0.26742 0.68042 0.88899
 C3247 C 0.25123 0.70284 0.86614
 N3248 N 0.25886 0.69262 0.85068
 C3249 C 0.25749 0.69899 0.83180
 C3250 C 0.24805 0.71682 0.82751
 C3251 C 0.24009 0.72766 0.84322
 C3252 C 0.24168 0.72079 0.86251
 H3253 H 0.23443 0.69511 0.93238
 H3254 H 0.28128 0.66017 0.90780
 H3255 H 0.26396 0.69015 0.82022
 H3256 H 0.23283 0.74159 0.84068
 H3257 H 0.23021 0.71111 0.90058
 H3258 H 0.23582 0.72971 0.87431
 C3259 C 0.74525 0.19519 0.38487
 C3260 C 0.75221 0.20558 0.40136
 C3261 C 0.75357 0.19605 0.41951
 C3262 C 0.74799 0.17623 0.42130
 C3263 C 0.74082 0.16654 0.40447
 N3264 N 0.73983 0.17606 0.38697
 C3265 C 0.74449 0.20400 0.36502
 N3266 N 0.74621 0.19192 0.34911
 C3267 C 0.74589 0.19876 0.33035
 C3268 C 0.74356 0.21894 0.32670
 C3269 C 0.74133 0.23164 0.34288
 C3270 C 0.74185 0.22426 0.36204
 H3271 H 0.75946 0.20403 0.43199
 H3272 H 0.73593 0.15142 0.40516
 H3273 H 0.74748 0.18839 0.31834
 H3274 H 0.73944 0.24731 0.34076
 H3275 H 0.75715 0.22066 0.40018
 H3276 H 0.73995 0.23427 0.37429
 C3277 C 0.25373 0.30973 0.38588
 C3278 C 0.26572 0.30382 0.40166
 C3279 C 0.26397 0.31322 0.41987
 C3280 C 0.25050 0.32861 0.42242
 C3281 C 0.23882 0.33408 0.40632
 N3282 N 0.24073 0.32467 0.38876
 C3283 C 0.25488 0.30055 0.36607
 N3284 N 0.24667 0.31016 0.35055
 C3285 C 0.24662 0.30263 0.33199
 C3286 C 0.25510 0.28420 0.32816
 C3287 C 0.26374 0.27407 0.34393
 C3288 C 0.26360 0.28210 0.36283
 H3289 H 0.27355 0.30882 0.43178
 H3290 H 0.22815 0.34579 0.40768
 H3291 H 0.23973 0.31098 0.32035
 H3292 H 0.27031 0.25972 0.34178
 H3293 H 0.27669 0.29246 0.40004
 H3294 H 0.26983 0.27358 0.37469
 C3295 C 0.75533 0.81084 0.88488
 C3296 C 0.76815 0.80583 0.90029
 C3297 C 0.76632 0.81518 0.91852
 C3298 C 0.75187 0.82961 0.92147
 C3299 C 0.73936 0.83416 0.90570
 N3300 N 0.74142 0.82486 0.88811
 C3301 C 0.75657 0.80175 0.86505
 N3302 N 0.74803 0.81123 0.84964
 C3303 C 0.74800 0.80377 0.83107
 C3304 C 0.75680 0.78551 0.82710
 C3305 C 0.76576 0.77548 0.84276
 C3306 C 0.76565 0.78349 0.86170
 H3307 H 0.77653 0.81150 0.93015
 H3308 H 0.72787 0.84503 0.90734
 H3309 H 0.74084 0.81203 0.81953
 H3310 H 0.77261 0.76129 0.84047
 H3311 H 0.77980 0.79522 0.89831
 H3312 H 0.77216 0.77513 0.87352
 C3313 C 0.74363 0.81233 0.11436
 C3314 C 0.74783 0.80117 0.09744
 C3315 C 0.74852 0.81036 0.07911
 C3316 C 0.74493 0.83060 0.07758
 C3317 C 0.74102 0.84127 0.09486
 N3318 N 0.74059 0.83203 0.11256
 C3319 C 0.74290 0.80337 0.13415
 N3320 N 0.74778 0.81448 0.15012
 C3321 C 0.74782 0.80708 0.16870
 C3322 C 0.74263 0.78736 0.17204
 C3323 C 0.73700 0.77584 0.15580
 C3324 C 0.73713 0.78375 0.13690
 H3325 H 0.75161 0.80164 0.06612
 H3326 H 0.73851 0.85698 0.09433
 H3327 H 0.75212 0.81655 0.18078
 H3328 H 0.73279 0.76058 0.15762
 H3329 H 0.75087 0.78558 0.09833
 H3330 H 0.73260 0.77461 0.12466
 C3331 C 0.24595 0.31155 0.61408
 C3332 C 0.25001 0.30076 0.59688
 C3333 C 0.25101 0.31044 0.57881
 C3334 C 0.24790 0.33081 0.57779
 C3335 C 0.24415 0.34108 0.59535
 N3336 N 0.24338 0.33136 0.61278
 C3337 C 0.24491 0.30215 0.63368
 N3338 N 0.24934 0.31304 0.64992
 C3339 C 0.24905 0.30538 0.66838
 C3340 C 0.24396 0.28557 0.67134
 C3341 C 0.23880 0.27422 0.65482
 C3342 C 0.23927 0.28242 0.63602
 H3343 H 0.25393 0.30199 0.56560
 H3344 H 0.24200 0.35685 0.59524
 H3345 H 0.25298 0.31474 0.68067
 H3346 H 0.23470 0.25891 0.65636
 H3347 H 0.25269 0.28509 0.59735
 H3348 H 0.23508 0.27342 0.62356
 C3349 C 0.75240 0.18484 0.61642
 C3350 C 0.75653 0.16479 0.61366
 C3351 C 0.75591 0.15677 0.59481
 C3352 C 0.75125 0.16858 0.57858
 C3353 C 0.74722 0.18857 0.58190
 N3354 N 0.74802 0.19613 0.60047
 C3355 C 0.75294 0.19392 0.63624
 N3356 N 0.75783 0.21327 0.63817
 C3357 C 0.75864 0.22241 0.65601
 C3358 C 0.75412 0.21200 0.67327
 C3359 C 0.74888 0.19209 0.67153
 C3360 C 0.74827 0.18304 0.65313
 H3361 H 0.75902 0.14125 0.59293
 H3362 H 0.74379 0.19822 0.56974
 H3363 H 0.76255 0.23783 0.65663
 H3364 H 0.74513 0.18347 0.68438
 H3365 H 0.76056 0.15542 0.62585
 H3366 H 0.74377 0.16780 0.65220
 C3367 C 0.25937 0.68023 0.11802
 C3368 C 0.26340 0.66020 0.11498
 C3369 C 0.26328 0.65258 0.09593
 C3370 C 0.25923 0.66479 0.07981
 C3371 C 0.25531 0.68474 0.08345
 N3372 N 0.25560 0.69187 0.10217
 C3373 C 0.25941 0.68908 0.13795
 N3374 N 0.26338 0.70862 0.13996
 C3375 C 0.26333 0.71783 0.15774
 C3376 C 0.25877 0.70732 0.17494
 C3377 C 0.25460 0.68716 0.17319
 C3378 C 0.25491 0.67801 0.15480
 H3379 H 0.26626 0.63707 0.09381
 H3380 H 0.25235 0.69470 0.07141
 H3381 H 0.26646 0.73343 0.15834
 H3382 H 0.25086 0.67848 0.18600
 H3383 H 0.26696 0.65053 0.12707
 H3384 H 0.25111 0.66259 0.15383
 C3385 C 0.19083 0.61169 0.75826
 C3386 C 0.20142 0.59479 0.75289
 C3387 C 0.19188 0.57660 0.75222
 C3388 C 0.17183 0.57515 0.75692
 C3389 C 0.16189 0.59241 0.76247
 N3390 N 0.17144 0.60996 0.76282
 C3391 C 0.19981 0.63151 0.75821
 N3392 N 0.18814 0.64735 0.75462
 C3393 C 0.19530 0.66600 0.75393
 C3394 C 0.21537 0.66960 0.75711
 C3395 C 0.22760 0.65352 0.76130
 C3396 C 0.21991 0.63448 0.76182
 H3397 H 0.20008 0.56380 0.74749
 H3398 H 0.14654 0.59201 0.76657
 H3399 H 0.18529 0.67796 0.75085
 H3400 H 0.24316 0.65560 0.76392
 H3401 H 0.21672 0.59564 0.74862
 H3402 H 0.22957 0.62233 0.76521
 C3403 C 0.68289 0.11748 0.25566
 C3404 C 0.66251 0.11496 0.25692
 C3405 C 0.65449 0.09617 0.25576
 C3406 C 0.66659 0.07946 0.25347
 C3407 C 0.68712 0.08270 0.25327
 N3408 N 0.69455 0.10130 0.25418
 C3409 C 0.69189 0.13734 0.25564
 N3410 N 0.71075 0.13971 0.26195
 C3411 C 0.71990 0.15754 0.26193
 C3412 C 0.71003 0.17433 0.25502
 C3413 C 0.69064 0.17211 0.24835
 C3414 C 0.68158 0.15375 0.24859
 H3415 H 0.63874 0.09491 0.25740
 H3416 H 0.69735 0.07071 0.25139
 H3417 H 0.73492 0.15851 0.26706
 H3418 H 0.68245 0.18454 0.24273
 H3419 H 0.65273 0.12732 0.25907
 H3420 H 0.66684 0.15246 0.24280
 C3421 C 0.80599 0.11388 0.75662
 C3422 C 0.81911 0.10895 0.77175
 C3423 C 0.82757 0.09034 0.77206
 C3424 C 0.82282 0.07649 0.75751
 C3425 C 0.80865 0.08150 0.74339
 N3426 N 0.80082 0.09991 0.74317
 C3427 C 0.79833 0.13411 0.75458
 N3428 N 0.78060 0.13716 0.74580
 C3429 C 0.77294 0.15550 0.74345
 C3430 C 0.78337 0.17211 0.75005
 C3431 C 0.80188 0.16922 0.75868
 C3432 C 0.80938 0.15036 0.76091
 H3433 H 0.83810 0.08685 0.78347
 H3434 H 0.80455 0.07115 0.73198
 H3435 H 0.75868 0.15704 0.73659
 H3436 H 0.81061 0.18153 0.76381
 H3437 H 0.82302 0.11937 0.78316
 H3438 H 0.82386 0.14865 0.76724
 C3439 C 0.31512 0.61503 0.25195
 C3440 C 0.33032 0.61067 0.26521
 C3441 C 0.33826 0.59180 0.26560
 C3442 C 0.33105 0.57712 0.25297
 C3443 C 0.31536 0.58184 0.24045
 N3444 N 0.30794 0.60042 0.24021
 C3445 C 0.30650 0.63500 0.25056
 N3446 N 0.28805 0.63709 0.24311
 C3447 C 0.27909 0.65490 0.24164
 C3448 C 0.28878 0.67206 0.24795
 C3449 C 0.30801 0.67028 0.25520
 C3450 C 0.31692 0.65188 0.25644
 H3451 H 0.35002 0.58865 0.27585
 H3452 H 0.30937 0.57095 0.23047
 H3453 H 0.26431 0.65555 0.23583
 H3454 H 0.31618 0.68310 0.26000
 H3455 H 0.33597 0.62154 0.27538
 H3456 H 0.33187 0.65106 0.26175
 C3457 C 0.30586 0.38410 0.25398
 C3458 C 0.29508 0.40132 0.25023
 C3459 C 0.30479 0.41944 0.24950
 C3460 C 0.32515 0.42045 0.25260
 C3461 C 0.33538 0.40288 0.25605
 N3462 N 0.32565 0.38544 0.25655
 C3463 C 0.29664 0.36438 0.25466
 N3464 N 0.30798 0.34839 0.25066
 C3465 C 0.30078 0.32975 0.25095
 C3466 C 0.28098 0.32628 0.25565
 C3467 C 0.26907 0.34253 0.26024
 C3468 C 0.27681 0.36157 0.25972
 H3469 H 0.29638 0.43267 0.24678
 H3470 H 0.35114 0.40296 0.25816
 H3471 H 0.31057 0.31769 0.24749
 H3472 H 0.25374 0.34055 0.26401
 H3473 H 0.27941 0.40085 0.24758
 H3474 H 0.26742 0.37383 0.26353
 C3475 C 0.81021 0.88576 0.75228
 C3476 C 0.79911 0.90282 0.74878
 C3477 C 0.80860 0.92100 0.74749
 C3478 C 0.82905 0.92221 0.74973
 C3479 C 0.83961 0.90477 0.75280
 N3480 N 0.83008 0.88726 0.75392
 C3481 C 0.80113 0.86606 0.75373
 N3482 N 0.81229 0.85002 0.74939
 C3483 C 0.80507 0.83141 0.75016
 C3484 C 0.78545 0.82807 0.75565
 C3485 C 0.77382 0.84436 0.76072
 C3486 C 0.78158 0.86335 0.75978
 H3487 H 0.79994 0.93413 0.74512
 H3488 H 0.85545 0.90503 0.75426
 H3489 H 0.81463 0.81930 0.74629
 H3490 H 0.75864 0.84249 0.76511
 H3491 H 0.78335 0.90221 0.74681
 H3492 H 0.77239 0.87564 0.76393
 C3493 C 0.69089 0.88535 0.24819
 C3494 C 0.70172 0.90245 0.25250
 C3495 C 0.69217 0.92062 0.25328
 C3496 C 0.67192 0.92181 0.24969
 C3497 C 0.66159 0.90433 0.24579
 N3498 N 0.67117 0.88682 0.24523
 C3499 C 0.70018 0.86570 0.24706
 N3500 N 0.68917 0.84949 0.25120
 C3501 C 0.69666 0.83096 0.25046
 C3502 C 0.71636 0.82790 0.24509
 C3503 C 0.72784 0.84440 0.24034
 C3504 C 0.71985 0.86327 0.24133
 H3505 H 0.70065 0.93376 0.25636
 H3506 H 0.64589 0.90458 0.24329
 H3507 H 0.68721 0.81868 0.25410
 H3508 H 0.74308 0.84278 0.23606
 H3509 H 0.71732 0.90184 0.25546
 H3510 H 0.72893 0.87572 0.23737
 C3511 C 0.19054 0.38334 0.74607
 C3512 C 0.20116 0.40022 0.75157
 C3513 C 0.19155 0.41832 0.75280
 C3514 C 0.17146 0.41966 0.74843
 C3515 C 0.16136 0.40242 0.74316
 N3516 N 0.17098 0.38494 0.74225
 C3517 C 0.19986 0.36374 0.74485
 N3518 N 0.18874 0.34746 0.74838
 C3519 C 0.19632 0.32897 0.74779
 C3520 C 0.21624 0.32604 0.74327
 C3521 C 0.22785 0.34260 0.73909
 C3522 C 0.21975 0.36143 0.73990
 H3523 H 0.19984 0.43129 0.75693
 H3524 H 0.14578 0.40279 0.73999
 H3525 H 0.18677 0.31663 0.75094
 H3526 H 0.24327 0.34106 0.73546
 H3527 H 0.21661 0.39946 0.75523
 H3528 H 0.22894 0.37396 0.73647
 C3529 C 0.11588 0.74213 0.81320
 C3530 C 0.11238 0.73243 0.83103
 C3531 C 0.09381 0.73338 0.83960
 C3532 C 0.07867 0.74416 0.83061
 C3533 C 0.08265 0.75313 0.81241
 N3534 N 0.10089 0.75191 0.80428
 C3535 C 0.13561 0.74217 0.80414
 N3536 N 0.13737 0.74168 0.78419
 C3537 C 0.15517 0.74189 0.77506
 C3538 C 0.17254 0.74308 0.78617
 C3539 C 0.17101 0.74386 0.80674
 C3540 C 0.15262 0.74329 0.81576
 H3541 H 0.09134 0.72563 0.85327
 H3542 H 0.07149 0.76160 0.80492
 H3543 H 0.15572 0.74145 0.75915
 H3544 H 0.18403 0.74481 0.81586
 H3545 H 0.12382 0.72406 0.83822
 H3546 H 0.15173 0.74414 0.83165
 C3547 C 0.61344 0.25656 0.30810
 C3548 C 0.60841 0.27221 0.32065
 C3549 C 0.58989 0.27268 0.32932
 C3550 C 0.57619 0.25775 0.32544
 C3551 C 0.58139 0.24290 0.31201
 N3552 N 0.59968 0.24260 0.30388
 C3553 C 0.63347 0.25475 0.29974
 N3554 N 0.63618 0.24516 0.28232
 C3555 C 0.65426 0.24309 0.27396
 C3556 C 0.67100 0.25087 0.28330
 C3557 C 0.66849 0.26039 0.30149
 C3558 C 0.64988 0.26230 0.30973
 H3559 H 0.58629 0.28470 0.33918
 H3560 H 0.57123 0.23113 0.30857
 H3561 H 0.65550 0.23552 0.25999
 H3562 H 0.68091 0.26647 0.30940
 H3563 H 0.61863 0.28401 0.32379
 H3564 H 0.64850 0.26937 0.32394
 C3565 C 0.61456 0.75484 0.19266
 C3566 C 0.59948 0.76810 0.19755
 C3567 C 0.58108 0.76621 0.18861
 C3568 C 0.57766 0.75123 0.17478
 C3569 C 0.59304 0.73814 0.17054
 N3570 N 0.61081 0.74032 0.17936
 C3571 C 0.63464 0.75634 0.20092
 N3572 N 0.64965 0.74757 0.19099
 C3573 C 0.66845 0.74774 0.19766
 C3574 C 0.67311 0.75697 0.21556
 C3575 C 0.65789 0.76620 0.22605
 C3576 C 0.63868 0.76592 0.21882
 H3577 H 0.56976 0.77686 0.19205
 H3578 H 0.59100 0.72621 0.16017
 H3579 H 0.67964 0.74034 0.18908
 H3580 H 0.66074 0.77339 0.24000
 H3581 H 0.60191 0.78018 0.20764
 H3582 H 0.62718 0.77267 0.22748
 C3583 C 0.11536 0.25384 0.68950
 C3584 C 0.09811 0.25770 0.70016
 C3585 C 0.07986 0.25625 0.69086
 C3586 C 0.07845 0.25091 0.67080
 C3587 C 0.09626 0.24685 0.66089
 N3588 N 0.11378 0.24834 0.67034
 C3589 C 0.13528 0.25485 0.69836
 N3590 N 0.15044 0.24613 0.68859
 C3591 C 0.16914 0.24610 0.69559
 C3592 C 0.17357 0.25521 0.71362
 C3593 C 0.15826 0.26465 0.72379
 C3594 C 0.13918 0.26459 0.71622
 H3595 H 0.06703 0.26006 0.69942
 H3596 H 0.09650 0.24172 0.64585
 H3597 H 0.18043 0.23869 0.68717
 H3598 H 0.16099 0.27204 0.73766
 H3599 H 0.09847 0.26166 0.71557
 H3600 H 0.12784 0.27224 0.72428
 C3601 C 0.88607 0.24005 0.69060
 C3602 C 0.90313 0.23464 0.70097
 C3603 C 0.92141 0.23547 0.69162
 C3604 C 0.92285 0.24184 0.67206
 C3605 C 0.90549 0.24706 0.66222
 N3606 N 0.88788 0.24609 0.67160
 C3607 C 0.86619 0.24013 0.69965
 N3608 N 0.85151 0.24997 0.69027
 C3609 C 0.83292 0.25108 0.69751
 C3610 C 0.82811 0.24195 0.71539
 C3611 C 0.84292 0.23144 0.72519
 C3612 C 0.86187 0.23041 0.71737
 H3613 H 0.93446 0.23159 0.69984
 H3614 H 0.90586 0.25180 0.64704
 H3615 H 0.82201 0.25929 0.68937
 H3616 H 0.83988 0.22397 0.73891
 H3617 H 0.90264 0.23026 0.71623
 H3618 H 0.87278 0.22192 0.72515
 C3619 C 0.38588 0.74385 0.19144
 C3620 C 0.40290 0.73881 0.20204
 C3621 C 0.42128 0.74026 0.19302
 C3622 C 0.42286 0.74693 0.17357
 C3623 C 0.40557 0.75211 0.16360
 N3624 N 0.38784 0.75044 0.17264
 C3625 C 0.36585 0.74277 0.20007
 N3626 N 0.35090 0.75223 0.19072
 C3627 C 0.33217 0.75228 0.19768
 C3628 C 0.32753 0.74244 0.21522
 C3629 C 0.34261 0.73225 0.22492
 C3630 C 0.36168 0.73227 0.21738
 H3631 H 0.43428 0.73645 0.20135
 H3632 H 0.40610 0.75714 0.14851
 H3633 H 0.32103 0.76029 0.18966
 H3634 H 0.33969 0.72423 0.23836
 H3635 H 0.40230 0.73411 0.21720
 H3636 H 0.37280 0.72396 0.22506
 C3637 C 0.38425 0.25934 0.30914
 C3638 C 0.40111 0.26488 0.29850
 C3639 C 0.41958 0.26353 0.30734
 C3640 C 0.42141 0.25653 0.32665
 C3641 C 0.40426 0.25102 0.33671
 N3642 N 0.38644 0.25254 0.32784
 C3643 C 0.36415 0.25988 0.30066
 N3644 N 0.34955 0.25007 0.31023
 C3645 C 0.33082 0.24926 0.30339
 C3646 C 0.32579 0.25860 0.28569
 C3647 C 0.34046 0.26921 0.27578
 C3648 C 0.35957 0.26999 0.28322
 H3649 H 0.43247 0.26765 0.29895
 H3650 H 0.40495 0.24577 0.35171
 H3651 H 0.32001 0.24097 0.31161
 H3652 H 0.33723 0.27683 0.26218
 H3653 H 0.40032 0.26982 0.28343
 H3654 H 0.37041 0.27849 0.27533
 C3655 C 0.88520 0.75857 0.81103
 C3656 C 0.90230 0.76334 0.80040
 C3657 C 0.92065 0.76181 0.80946
 C3658 C 0.92212 0.75536 0.82899
 C3659 C 0.90470 0.75070 0.83907
 N3660 N 0.88702 0.75235 0.82997
 C3661 C 0.86527 0.75926 0.80219
 N3662 N 0.85045 0.74918 0.81112
 C3663 C 0.83187 0.74858 0.80378
 C3664 C 0.82730 0.75845 0.78625
 C3665 C 0.84223 0.76936 0.77705
 C3666 C 0.86113 0.76990 0.78498
 H3667 H 0.93373 0.76523 0.80105
 H3668 H 0.90511 0.74591 0.85424
 H3669 H 0.82084 0.74007 0.81146
 H3670 H 0.83935 0.77744 0.76364
 H3671 H 0.90176 0.76774 0.78514
 H3672 H 0.87217 0.77866 0.77766
   
