data_POSCAR
  _audit_creation_date              2014-09-24
  _audit_creation_method            'ToBaCCo'
  _symmetry_space_group_name_H-M    'P1'
  _symmetry_Int_Tables_number       1
  _symmetry_cell_setting            triclinic
  loop_
  _symmetry_equiv_pos_as_xyz
 x,y,z
_cell_length_a 58.8995
_cell_length_b 58.8612
_cell_length_c 58.8047
_cell_angle_alpha 90.445100
_cell_angle_beta 90.519300
_cell_angle_gamma 90.508700
loop_
  _atom_site_label
  _atom_site_type_symbol
  _atom_site_fract_x
  _atom_site_fract_y
  _atom_site_fract_z
C1 C 0.72993 0.66231 0.97165
 H2 H 0.74729 0.66247 0.96580
 C3 C 0.71315 0.67383 0.95942
 H4 H 0.71760 0.68302 0.94419
 C5 C 0.70248 0.64881 0.99768
 H6 H 0.69813 0.63842 1.01205
 C7 C 0.68529 0.66013 0.98604
 H8 H 0.66789 0.65855 0.99170
 N9 N 0.72429 0.64990 0.99025
 C10 C 0.78498 0.63494 1.03022
 H11 H 0.78206 0.61687 1.03195
 C12 C 0.80390 0.64510 1.04055
 H13 H 0.81561 0.63483 1.05028
 C14 C 0.77344 0.67032 1.01509
 H15 H 0.76151 0.67999 1.00510
 C16 C 0.79230 0.68120 1.02516
 H17 H 0.79495 0.69926 1.02286
 Zn18 Zn 0.74637 0.63085 1.00365
 N19 N 0.77040 0.64751 1.01753
 C20 C 0.78076 0.61261 0.97581
 N21 N 0.75811 0.61222 0.98020
 C22 C 0.74339 0.59971 0.96711
 C23 C 0.75140 0.58671 0.94891
 C24 C 0.78945 0.59988 0.95783
 C25 C 0.72599 0.62437 1.04565
 C26 C 0.71565 0.61262 1.06334
 C27 C 0.72020 0.57769 1.04198
 C28 C 0.73047 0.59014 1.02466
 N29 N 0.73286 0.61309 1.02667
 H30 H 0.79214 0.62308 0.98596
 H31 H 0.72541 0.60005 0.97069
 H32 H 0.73960 0.57687 0.93849
 H33 H 0.80748 0.60041 0.95439
 H34 H 0.72838 0.64258 1.04690
 H35 H 0.71005 0.62188 1.07826
 H36 H 0.71820 0.55944 1.04013
 H37 H 0.73646 0.58144 1.00966
 C38 C 0.80773 0.66837 1.03785
 C39 C 0.69058 0.67243 0.96655
 C40 C 0.71260 0.58908 1.06145
 C41 C 0.77465 0.58686 0.94424
 C42 C 0.73628 0.34462 0.52065
 H43 H 0.75366 0.34365 0.52665
 C44 C 0.71910 0.33273 0.53193
 H45 H 0.72326 0.32245 0.54657
 C46 C 0.70927 0.36039 0.49526
 H47 H 0.70527 0.37178 0.48154
 C48 C 0.69168 0.34877 0.50596
 H49 H 0.67432 0.35110 0.50023
 N50 N 0.73106 0.35830 0.50282
 C51 C 0.79271 0.37370 0.46514
 H52 H 0.79112 0.39199 0.46489
 C53 C 0.81073 0.36336 0.45405
 H54 H 0.82311 0.37371 0.44525
 C55 C 0.77850 0.33787 0.47695
 H56 H 0.76580 0.32808 0.48581
 C57 C 0.79637 0.32680 0.46603
 H58 H 0.79751 0.30845 0.46659
 Zn59 Zn 0.75391 0.37751 0.49080
 N60 N 0.77721 0.36096 0.47649
 C61 C 0.78877 0.39394 0.52037
 N62 N 0.76618 0.39477 0.51536
 C63 C 0.75168 0.40690 0.52854
 C64 C 0.75985 0.41911 0.54743
 C65 C 0.79762 0.40589 0.53908
 C66 C 0.73363 0.38642 0.44892
 C67 C 0.72343 0.39917 0.43181
 C68 C 0.72939 0.43294 0.45482
 C69 C 0.73952 0.41953 0.47155
 N70 N 0.74108 0.39665 0.46846
 H71 H 0.79994 0.38377 0.51009
 H72 H 0.73374 0.40691 0.52444
 H73 H 0.74821 0.42868 0.55787
 H74 H 0.81560 0.40507 0.54298
 H75 H 0.73535 0.36824 0.44681
 H76 H 0.71723 0.39082 0.41645
 H77 H 0.72790 0.45109 0.45748
 H78 H 0.74595 0.42741 0.48697
 C79 C 0.81266 0.33973 0.45457
 C80 C 0.69657 0.33510 0.52466
 C81 C 0.72113 0.42260 0.43487
 C82 C 0.78303 0.41856 0.55272
 C83 C 0.23619 -0.15505 0.02039
 H84 H 0.25358 -0.15598 0.02637
 C85 C 0.21905 -0.16695 0.03169
 H86 H 0.22323 -0.17721 0.04633
 C87 C 0.20914 -0.13935 -0.00500
 H88 H 0.20512 -0.12798 -0.01874
 C89 C 0.19158 -0.15099 0.00572
 H90 H 0.17422 -0.14870 -0.00001
 N91 N 0.23094 -0.14139 0.00254
 C92 C 0.29250 -0.12604 -0.03530
 H93 H 0.29089 -0.10775 -0.03560
 C94 C 0.31051 -0.13640 -0.04640
 H95 H 0.32286 -0.12606 -0.05525
 C96 C 0.27835 -0.16184 -0.02336
 H97 H 0.26568 -0.17163 -0.01444
 C98 C 0.29621 -0.17293 -0.03428
 H99 H 0.29737 -0.19127 -0.03366
 Zn100 Zn 0.25375 -0.12219 -0.00956
 N101 N 0.27703 -0.13877 -0.02388
 C102 C 0.28868 -0.10571 0.01990
 N103 N 0.26608 -0.10488 0.01495
 C104 C 0.25162 -0.09273 0.02815
 C105 C 0.25984 -0.08049 0.04700
 C106 C 0.29758 -0.09373 0.03856
 C107 C 0.23343 -0.11340 -0.05142
 C108 C 0.22317 -0.10072 -0.06856
 C109 C 0.22910 -0.06687 -0.04560
 C110 C 0.23927 -0.08023 -0.02887
 N111 N 0.24088 -0.10311 -0.03191
 H112 H 0.29983 -0.11590 0.00961
 H113 H 0.23366 -0.09271 0.02410
 H114 H 0.24823 -0.07090 0.05745
 H115 H 0.31558 -0.09455 0.04242
 H116 H 0.23519 -0.13158 -0.05348
 H117 H 0.21701 -0.10922 -0.08386
 H118 H 0.22762 -0.04870 -0.04287
 H119 H 0.24571 -0.07232 -0.01346
 C120 C 0.31246 -0.16002 -0.04581
 C121 C 0.19650 -0.16463 0.02442
 C122 C 0.22081 -0.07726 -0.06555
 C123 C 0.28304 -0.08103 0.05223
 C124 C 0.23038 0.16236 0.47109
 H125 H 0.24774 0.16258 0.46522
 C126 C 0.21357 0.17388 0.45890
 H127 H 0.21799 0.18313 0.44369
 C128 C 0.20299 0.14873 0.49709
 H129 H 0.19867 0.13829 0.51144
 C130 C 0.18576 0.16004 0.48551
 H131 H 0.16837 0.15841 0.49118
 N132 N 0.22478 0.14988 0.48966
 C133 C 0.28554 0.13490 0.52952
 H134 H 0.28265 0.11681 0.53116
 C135 C 0.30443 0.14505 0.53990
 H136 H 0.31616 0.13476 0.54959
 C137 C 0.27392 0.17032 0.51455
 H138 H 0.26197 0.18001 0.50461
 C139 C 0.29275 0.18120 0.52468
 H140 H 0.29536 0.19928 0.52248
 Zn141 Zn 0.24691 0.13084 0.50299
 N142 N 0.27093 0.14749 0.51688
 C143 C 0.28130 0.11272 0.47506
 N144 N 0.25865 0.11227 0.47949
 C145 C 0.24394 0.09974 0.46641
 C146 C 0.25195 0.08677 0.44819
 C147 C 0.28998 0.10002 0.45706
 C148 C 0.22659 0.12425 0.54500
 C149 C 0.21632 0.11245 0.56269
 C150 C 0.22090 0.07758 0.54129
 C151 C 0.23111 0.09006 0.52396
 N152 N 0.23345 0.11302 0.52599
 H153 H 0.29267 0.12320 0.48521
 H154 H 0.22597 0.10004 0.47001
 H155 H 0.24016 0.07692 0.43778
 H156 H 0.30801 0.10059 0.45360
 H157 H 0.22894 0.14247 0.54627
 H158 H 0.21070 0.12157 0.57765
 H159 H 0.21889 0.05934 0.53952
 H160 H 0.23709 0.08139 0.50894
 C161 C 0.30821 0.16834 0.53732
 C162 C 0.19101 0.17241 0.46605
 C163 C 0.21334 0.08893 0.56076
 C164 C 0.27519 0.08697 0.44349
 C165 C 0.16310 0.47110 0.23031
 H166 H 0.16327 0.46531 0.24772
 C167 C 0.17462 0.45885 0.21356
 H168 H 0.18381 0.44366 0.21808
 C169 C 0.14957 0.49698 0.20270
 H170 H 0.13916 0.51130 0.19828
 C171 C 0.16088 0.48532 0.18553
 H172 H 0.15928 0.49091 0.16808
 N173 N 0.15067 0.48963 0.22457
 C174 C 0.13550 0.52960 0.28521
 H175 H 0.11743 0.53118 0.28227
 C176 C 0.14559 0.54007 0.30411
 H177 H 0.13526 0.54975 0.31579
 C178 C 0.17095 0.51472 0.27373
 H179 H 0.18068 0.50478 0.26182
 C180 C 0.18177 0.52493 0.29256
 H181 H 0.19984 0.52279 0.29523
 Zn182 Zn 0.13158 0.50299 0.24662
 N183 N 0.14814 0.51697 0.27067
 C184 C 0.11338 0.47515 0.28112
 N185 N 0.11301 0.47951 0.25842
 C186 C 0.10055 0.46638 0.24369
 C187 C 0.08757 0.44818 0.25173
 C188 C 0.10067 0.45717 0.28984
 C189 C 0.12499 0.54488 0.22605
 C190 C 0.11318 0.56250 0.21569
 C191 C 0.07835 0.54107 0.22035
 C192 C 0.09083 0.52381 0.23065
 N193 N 0.11377 0.52588 0.23300
 H194 H 0.12381 0.48533 0.29251
 H195 H 0.10090 0.46994 0.22568
 H196 H 0.07777 0.43774 0.23992
 H197 H 0.10117 0.45375 0.30792
 H198 H 0.14319 0.54619 0.22841
 H199 H 0.12228 0.57746 0.21000
 H200 H 0.06012 0.53927 0.21834
 H201 H 0.08217 0.50881 0.23670
 C202 C 0.16886 0.53757 0.30795
 C203 C 0.17319 0.46589 0.19092
 C204 C 0.08968 0.56052 0.21271
 C205 C 0.08769 0.44355 0.27503
 C206 C -0.15583 0.02115 0.23548
 H207 H -0.15681 0.02716 0.25288
 C208 C -0.16762 0.03246 0.21823
 H209 H -0.17783 0.04712 0.22239
 C210 C -0.14012 -0.00428 0.20852
 H211 H -0.12879 -0.01803 0.20458
 C212 C -0.15164 0.00643 0.19084
 H213 H -0.14926 0.00062 0.17349
 N214 N -0.14221 0.00330 0.23032
 C215 C -0.12694 -0.03442 0.29210
 H216 H -0.10866 -0.03470 0.29048
 C217 C -0.13728 -0.04551 0.31016
 H218 H -0.12694 -0.05434 0.32254
 C219 C -0.16273 -0.02253 0.27792
 H220 H -0.17251 -0.01363 0.26522
 C221 C -0.17380 -0.03345 0.29583
 H222 H -0.19213 -0.03286 0.29700
 Zn223 Zn -0.12308 -0.00874 0.25325
 N224 N -0.13966 -0.02303 0.27659
 C225 C -0.10662 0.02073 0.28818
 N226 N -0.10578 0.01577 0.26555
 C227 C -0.09361 0.02894 0.25105
 C228 C -0.08133 0.04775 0.25926
 C229 C -0.09460 0.03936 0.29707
 C230 C -0.11424 -0.05060 0.23304
 C231 C -0.10152 -0.06770 0.22285
 C232 C -0.06774 -0.04473 0.22880
 C233 C -0.08111 -0.02801 0.23890
 N234 N -0.10399 -0.03107 0.24046
 H235 H -0.11683 0.01047 0.29936
 H236 H -0.09359 0.02487 0.23308
 H237 H -0.07171 0.05817 0.24762
 H238 H -0.09541 0.04323 0.31509
 H239 H -0.13241 -0.05269 0.23475
 H240 H -0.10989 -0.08304 0.21667
 H241 H -0.04959 -0.04208 0.22731
 H242 H -0.07322 -0.01259 0.24532
 C243 C -0.16088 -0.04496 0.31212
 C244 C -0.16523 0.02518 0.19566
 C245 C -0.07810 -0.06466 0.22056
 C246 C -0.08186 0.05299 0.28249
 C247 C 0.34394 0.52087 0.73647
 H248 H 0.34302 0.52680 0.75389
 C249 C 0.33206 0.53223 0.71931
 H250 H 0.32184 0.54685 0.72352
 C251 C 0.35960 0.49560 0.70933
 H252 H 0.37095 0.48189 0.70528
 C253 C 0.34799 0.50637 0.69175
 H254 H 0.35028 0.50071 0.67435
 N255 N 0.35757 0.50307 0.73117
 C256 C 0.37301 0.46520 0.79281
 H257 H 0.39129 0.46499 0.79120
 C258 C 0.36269 0.45400 0.81082
 H259 H 0.37305 0.44517 0.82318
 C260 C 0.33720 0.47699 0.77862
 H261 H 0.32739 0.48588 0.76593
 C262 C 0.32614 0.46596 0.79648
 H263 H 0.30781 0.46647 0.79762
 Zn264 Zn 0.37678 0.49097 0.75400
 N265 N 0.36026 0.47659 0.77732
 C266 C 0.39330 0.52039 0.78896
 N267 N 0.39408 0.51547 0.76632
 C268 C 0.40619 0.52868 0.75180
 C269 C 0.41844 0.54751 0.76000
 C270 C 0.40530 0.53904 0.79784
 C271 C 0.38562 0.44920 0.73358
 C272 C 0.39834 0.43214 0.72333
 C273 C 0.43212 0.45512 0.72934
 C274 C 0.41874 0.47179 0.73951
 N275 N 0.39587 0.46871 0.74108
 H276 H 0.38315 0.51009 0.80015
 H277 H 0.40616 0.52465 0.73382
 H278 H 0.42800 0.55798 0.74835
 H279 H 0.40454 0.54288 0.81587
 H280 H 0.36745 0.44710 0.73530
 H281 H 0.38998 0.41682 0.71709
 H282 H 0.45026 0.45777 0.72786
 H283 H 0.42663 0.48718 0.74599
 C284 C 0.33908 0.45445 0.81275
 C285 C 0.33439 0.52505 0.69672
 C286 C 0.42176 0.43521 0.72104
 C287 C 0.41796 0.55272 0.78324
 C288 C 0.66334 0.97159 0.73089
 H289 H 0.66353 0.96569 0.74827
 C290 C 0.67483 0.95943 0.71406
 H291 H 0.68405 0.94422 0.71848
 C292 C 0.64975 0.99761 0.70345
 H293 H 0.63932 1.01194 0.69913
 C294 C 0.66104 0.98606 0.68620
 H295 H 0.65942 0.99174 0.66879
 N296 N 0.65088 0.99014 0.72528
 C297 C 0.63566 1.02979 0.78612
 H298 H 0.61759 1.03136 0.78318
 C299 C 0.64572 1.04019 0.80507
 H300 H 0.63533 1.04980 0.81676
 C301 C 0.67113 1.01500 0.77458
 H302 H 0.68087 1.00513 0.76262
 C303 C 0.68194 1.02514 0.79346
 H304 H 0.70003 1.02299 0.79606
 Zn305 Zn 0.63178 1.00335 0.74741
 N306 N 0.64832 1.01725 0.77152
 C307 C 0.61361 0.97532 0.78178
 N308 N 0.61325 0.97978 0.75909
 C309 C 0.60081 0.96670 0.74430
 C310 C 0.58784 0.94845 0.75226
 C311 C 0.60090 0.95729 0.79041
 C312 C 0.62509 1.04533 0.72705
 C313 C 0.61325 1.06295 0.71672
 C314 C 0.57848 1.04140 0.72123
 C315 C 0.59099 1.02414 0.73150
 N316 N 0.61392 1.02628 0.73390
 H317 H 0.62401 0.98547 0.79322
 H318 H 0.60118 0.97033 0.72630
 H319 H 0.57806 0.93805 0.74039
 H320 H 0.60139 0.95380 0.80847
 H321 H 0.64329 1.04669 0.72945
 H322 H 0.62233 1.07795 0.71110
 H323 H 0.56026 1.03954 0.71916
 H324 H 0.58236 1.00909 0.73746
 C325 C 0.66902 1.03771 0.80892
 C326 C 0.67337 0.96660 0.69146
 C327 C 0.58977 1.06091 0.71367
 C328 C 0.58795 0.94372 0.77553
 C329 C 0.02026 0.23553 -0.15486
 H330 H 0.02622 0.25294 -0.15573
 C331 C 0.03162 0.21842 -0.16674
 H332 H 0.04628 0.22265 -0.17692
 C333 C -0.00510 0.20838 -0.13931
 H334 H -0.01885 0.20431 -0.12801
 C335 C 0.00567 0.19085 -0.15093
 H336 H -0.00002 0.17346 -0.14869
 N337 N 0.00240 0.23021 -0.14128
 C338 C -0.03537 0.29177 -0.12581
 H339 H -0.03567 0.29008 -0.10751
 C340 C -0.04645 0.30984 -0.13614
 H341 H -0.05528 0.32216 -0.12577
 C342 C -0.02345 0.27775 -0.16167
 H343 H -0.01454 0.26511 -0.17149
 C344 C -0.03435 0.29567 -0.17273
 H345 H -0.03373 0.29690 -0.19109
 Zn346 Zn -0.00970 0.25296 -0.12203
 N347 N -0.02397 0.27634 -0.13858
 C348 C 0.01974 0.28781 -0.10538
 N349 N 0.01476 0.26520 -0.10461
 C350 C 0.02792 0.25066 -0.09249
 C351 C 0.04677 0.25879 -0.08022
 C352 C 0.03841 0.29663 -0.09336
 C353 C -0.05151 0.23258 -0.11338
 C354 C -0.06864 0.22231 -0.10074
 C355 C -0.04576 0.22815 -0.06679
 C356 C -0.02903 0.23834 -0.08011
 N357 N -0.03204 0.24000 -0.10302
 H358 H 0.00948 0.29903 -0.11555
 H359 H 0.02385 0.23270 -0.09253
 H360 H 0.05721 0.24712 -0.07066
 H361 H 0.04230 0.31463 -0.09414
 H362 H -0.05354 0.23439 -0.13158
 H363 H -0.08391 0.21617 -0.10930
 H364 H -0.04307 0.22664 -0.04860
 H365 H -0.01366 0.24476 -0.07214
 C366 C -0.04586 0.31189 -0.15978
 C367 C 0.02440 0.19584 -0.16448
 C368 C -0.06567 0.21990 -0.07725
 C369 C 0.05205 0.28200 -0.08070
 C370 C 0.47194 0.23038 0.16278
 H371 H 0.46603 0.24773 0.16292
 C372 C 0.45978 0.21356 0.17433
 H373 H 0.44457 0.21798 0.18353
 C374 C 0.49796 0.20298 0.14928
 H375 H 0.51230 0.19867 0.13886
 C376 C 0.48641 0.18575 0.16062
 H377 H 0.49210 0.16836 0.15905
 N378 N 0.49049 0.22478 0.15034
 C379 C 0.53004 0.28564 0.13497
 H380 H 0.53164 0.28269 0.11687
 C381 C 0.54038 0.30461 0.14502
 H382 H 0.54998 0.31634 0.13465
 C383 C 0.51526 0.27410 0.17051
 H384 H 0.50540 0.26214 0.18029
 C385 C 0.52534 0.29301 0.18129
 H386 H 0.52319 0.29568 0.19938
 Zn387 Zn 0.50368 0.24689 0.13115
 N388 N 0.51752 0.27103 0.14767
 C389 C 0.47561 0.28112 0.11287
 N390 N 0.48011 0.25848 0.11255
 C391 C 0.46704 0.24365 0.10015
 C392 C 0.44876 0.25152 0.08718
 C393 C 0.45754 0.28968 0.10016
 C394 C 0.54566 0.22663 0.12455
 C395 C 0.56329 0.21634 0.11273
 C396 C 0.54178 0.22075 0.07787
 C397 C 0.52450 0.23098 0.09035
 N398 N 0.52662 0.23341 0.11332
 H399 H 0.48575 0.29259 0.12324
 H400 H 0.47071 0.22568 0.10055
 H401 H 0.43836 0.23963 0.07744
 H402 H 0.45402 0.30771 0.10063
 H403 H 0.54700 0.22905 0.14277
 H404 H 0.57828 0.21077 0.12185
 H405 H 0.53994 0.21866 0.05962
 H406 H 0.50946 0.23689 0.08169
 C407 C 0.53787 0.30847 0.16832
 C408 C 0.46695 0.19099 0.17294
 C409 C 0.56127 0.21326 0.08921
 C410 C 0.44398 0.27476 0.08725
 C411 C 0.97092 0.73021 0.66323
 H412 H 0.96509 0.74759 0.66349
 C413 C 0.95878 0.71339 0.67477
 H414 H 0.94365 0.71781 0.68408
 C415 C 0.99678 0.70279 0.64946
 H416 H 1.01105 0.69848 0.63894
 C417 C 0.98524 0.68555 0.66078
 H418 H 0.99086 0.66814 0.65911
 N419 N 0.98940 0.72461 0.65067
 C420 C 1.02916 0.78542 0.63564
 H421 H 1.03070 0.78259 0.61753
 C422 C 1.03959 0.80429 0.64580
 H423 H 1.04922 0.81604 0.63549
 C424 C 1.01440 0.77370 0.67114
 H425 H 1.00452 0.76172 0.68085
 C426 C 1.02458 0.79250 0.68202
 H427 H 1.02249 0.79505 0.70014
 Zn428 Zn 1.00266 0.74679 0.63161
 N429 N 1.01660 0.77078 0.64827
 C430 C 0.97474 0.78125 0.61354
 N431 N 0.97915 0.75859 0.61307
 C432 C 0.96607 0.74390 0.60050
 C433 C 0.94788 0.75195 0.58751
 C434 C 0.95677 0.78998 0.60081
 C435 C 1.04456 0.72642 0.62491
 C436 C 1.06219 0.71618 0.61305
 C437 C 1.04076 0.72092 0.57818
 C438 C 1.02348 0.73110 0.59072
 N439 N 1.02556 0.73335 0.61371
 H440 H 0.98488 0.79260 0.62404
 H441 H 0.96967 0.72591 0.60078
 H442 H 0.93748 0.74017 0.57763
 H443 H 0.95332 0.80802 0.60139
 H444 H 1.04588 0.72870 0.64315
 H445 H 1.07716 0.71051 0.62215
 H446 H 1.03895 0.71899 0.55992
 H447 H 1.00848 0.73713 0.58207
 C448 C 1.03715 0.80799 0.66914
 C449 C 0.96588 0.69080 0.67324
 C450 C 1.06021 0.71330 0.58950
 C451 C 0.94320 0.77521 0.58773
 C452 C 0.52085 0.73709 0.34387
 H453 H 0.52682 0.75449 0.34294
 C454 C 0.53212 0.71995 0.33194
 H455 H 0.54672 0.72415 0.32168
 C456 C 0.49553 0.71000 0.35959
 H457 H 0.48185 0.70596 0.37097
 C458 C 0.50622 0.69244 0.34793
 H459 H 0.50052 0.67506 0.35023
 N460 N 0.50306 0.73182 0.35755
 C461 C 0.46538 0.79341 0.37314
 H462 H 0.46517 0.79172 0.39144
 C463 C 0.45425 0.81147 0.36287
 H464 H 0.44547 0.82377 0.37334
 C465 C 0.47714 0.77938 0.33722
 H466 H 0.48600 0.76674 0.32737
 C467 C 0.46618 0.79729 0.32620
 H468 H 0.46673 0.79847 0.30783
 Zn469 Zn 0.49105 0.75460 0.37682
 N470 N 0.47673 0.77798 0.36032
 C471 C 0.52052 0.78946 0.39340
 N472 N 0.51556 0.76684 0.39416
 C473 C 0.52873 0.75231 0.40629
 C474 C 0.54754 0.76046 0.41860
 C475 C 0.53916 0.79830 0.40546
 C476 C 0.44925 0.73427 0.38565
 C477 C 0.43216 0.72404 0.39838
 C478 C 0.45514 0.72993 0.43222
 C479 C 0.47184 0.74007 0.41883
 N480 N 0.46876 0.74169 0.39592
 H481 H 0.51026 0.80067 0.38323
 H482 H 0.52466 0.73434 0.40625
 H483 H 0.55797 0.74880 0.42819
 H484 H 0.54303 0.81631 0.40471
 H485 H 0.44715 0.73604 0.36745
 H486 H 0.41683 0.71787 0.39000
 H487 H 0.45778 0.72840 0.45039
 H488 H 0.48724 0.74649 0.42675
 C489 C 0.45471 0.81353 0.33921
 C490 C 0.52488 0.69738 0.33427
 C491 C 0.43521 0.72170 0.42184
 C492 C 0.55278 0.78367 0.41815
 C493 C 0.35390 -0.00398 0.22056
 C494 C 0.36286 0.00756 0.23965
 C495 C 0.37262 0.02925 0.23703
 C496 C 0.37362 0.03916 0.21548
 C497 C 0.36444 0.02765 0.19656
 C498 C 0.35449 0.00614 0.19910
 C499 C 0.36207 -0.00305 0.26230
 C500 C 0.37152 -0.02461 0.26577
 C501 C 0.37108 -0.03444 0.28738
 C502 C 0.36076 -0.02300 0.30545
 C503 C 0.35112 -0.00164 0.30204
 C504 C 0.35197 0.00842 0.28057
 H505 H 0.34623 -0.02066 0.22247
 H506 H 0.37984 0.03815 0.25164
 H507 H 0.37961 -0.03344 0.25181
 H508 H 0.34456 0.02501 0.27800
 H509 H 0.36517 0.03533 0.17988
 H510 H 0.36039 -0.03062 0.32218
 C511 C 0.13125 1.01307 0.72116
 C512 C 0.12225 1.00160 0.73993
 C513 C 0.11314 0.97961 0.73698
 C514 C 0.11287 0.96931 0.71543
 C515 C 0.12212 0.98076 0.69684
 C516 C 0.13142 1.00257 0.69972
 C517 C 0.12285 1.01240 0.76266
 C518 C 0.11319 1.03388 0.76613
 C519 C 0.11382 1.04403 0.78776
 C520 C 0.12453 1.03297 0.80587
 C521 C 0.13440 1.01168 0.80244
 C522 C 0.13335 1.00133 0.78095
 H523 H 0.13859 1.02991 0.72337
 H524 H 0.10605 0.97069 0.75137
 H525 H 0.10486 1.04244 0.75214
 H526 H 0.14103 0.98485 0.77833
 H527 H 0.12214 0.97270 0.68019
 H528 H 0.12512 1.04086 0.82260
 C529 C 0.63098 0.51417 0.21983
 C530 C 0.62196 0.50270 0.23858
 C531 C 0.61290 0.48069 0.23564
 C532 C 0.61272 0.47037 0.21409
 C533 C 0.62198 0.48182 0.19552
 C534 C 0.63122 0.50365 0.19840
 C535 C 0.62252 0.51350 0.26132
 C536 C 0.61293 0.53501 0.26476
 C537 C 0.61355 0.54517 0.28639
 C538 C 0.62419 0.53408 0.30453
 C539 C 0.63399 0.51277 0.30112
 C540 C 0.63295 0.50240 0.27963
 H541 H 0.63829 0.53103 0.22204
 H542 H 0.60581 0.47175 0.25002
 H543 H 0.60466 0.54361 0.25075
 H544 H 0.64060 0.48590 0.27704
 H545 H 0.62207 0.47373 0.17888
 H546 H 0.62477 0.54198 0.32125
 C547 C 0.85329 0.49570 0.72131
 C548 C 0.86219 0.50729 0.74040
 C549 C 0.87189 0.52900 0.73777
 C550 C 0.87289 0.53889 0.71621
 C551 C 0.86378 0.52732 0.69729
 C552 C 0.85389 0.50580 0.69984
 C553 C 0.86140 0.49669 0.76306
 C554 C 0.87081 0.47512 0.76653
 C555 C 0.87037 0.46529 0.78815
 C556 C 0.86008 0.47675 0.80622
 C557 C 0.85048 0.49813 0.80281
 C558 C 0.85133 0.50818 0.78134
 H559 H 0.84567 0.47900 0.72323
 H560 H 0.87907 0.53793 0.75238
 H561 H 0.87888 0.46626 0.75258
 H562 H 0.84394 0.52478 0.77876
 H563 H 0.86452 0.53499 0.68060
 H564 H 0.85970 0.46913 0.82295
 C565 C 0.22056 0.35222 -0.00374
 C566 C 0.23964 0.36117 0.00780
 C567 C 0.23706 0.37093 0.02950
 C568 C 0.21556 0.37194 0.03942
 C569 C 0.19665 0.36276 0.02791
 C570 C 0.19915 0.35281 0.00639
 C571 C 0.26223 0.36042 -0.00284
 C572 C 0.26563 0.36990 -0.02443
 C573 C 0.28719 0.36956 -0.03427
 C574 C 0.30530 0.35931 -0.02281
 C575 C 0.30197 0.34964 -0.00141
 C576 C 0.28054 0.35039 0.00865
 H577 H 0.22244 0.34455 -0.02044
 H578 H 0.25166 0.37816 0.03839
 H579 H 0.25165 0.37795 -0.03327
 H580 H 0.27803 0.34297 0.02527
 H581 H 0.18000 0.36351 0.03560
 H582 H 0.32200 0.35903 -0.03043
 C583 C 0.72110 0.13089 1.01314
 C584 C 0.73980 0.12185 1.00165
 C585 C 0.73681 0.11276 0.97965
 C586 C 0.71527 0.11255 0.96935
 C587 C 0.69675 0.12182 0.98081
 C588 C 0.69968 0.13111 1.00264
 C589 C 0.76252 0.12241 1.01246
 C590 C 0.76598 0.11280 1.03400
 C591 C 0.78758 0.11341 1.04417
 C592 C 0.80569 0.12404 1.03306
 C593 C 0.80227 0.13384 1.01171
 C594 C 0.78080 0.13282 1.00134
 H595 H 0.72335 0.13822 1.02999
 H596 H 0.75115 0.10564 0.97071
 H597 H 0.75199 0.10455 1.04262
 H598 H 0.77820 0.14046 0.98481
 H599 H 0.68012 0.12189 0.97275
 H600 H 0.82239 0.12461 1.04097
 C601 C 0.22034 0.63170 0.51332
 C602 C 0.23909 0.62273 0.50187
 C603 C 0.23617 0.61364 0.47985
 C604 C 0.21465 0.61337 0.46951
 C605 C 0.19607 0.62257 0.48095
 C606 C 0.19893 0.63185 0.50278
 C607 C 0.26178 0.62332 0.51272
 C608 C 0.26522 0.61370 0.53426
 C609 C 0.28682 0.61431 0.54445
 C610 C 0.30493 0.62495 0.53337
 C611 C 0.30153 0.63477 0.51202
 C612 C 0.28007 0.63375 0.50162
 H613 H 0.22253 0.63901 0.53019
 H614 H 0.25054 0.60657 0.47094
 H615 H 0.25123 0.60542 0.54284
 H616 H 0.27748 0.64141 0.48510
 H617 H 0.17945 0.62258 0.47285
 H618 H 0.32163 0.62551 0.54129
 C619 C 0.72069 0.85402 0.49612
 C620 C 0.73977 0.86290 0.50773
 C621 C 0.73715 0.87258 0.52946
 C622 C 0.71563 0.87357 0.53935
 C623 C 0.69673 0.86447 0.52776
 C624 C 0.69927 0.85460 0.50621
 C625 C 0.76238 0.86213 0.49714
 C626 C 0.76582 0.87155 0.47554
 C627 C 0.78739 0.87111 0.46571
 C628 C 0.80546 0.86083 0.47721
 C629 C 0.80208 0.85122 0.49862
 C630 C 0.78064 0.85206 0.50866
 H631 H 0.72260 0.84641 0.47940
 H632 H 0.75175 0.87975 0.53841
 H633 H 0.75188 0.87961 0.46665
 H634 H 0.77809 0.84466 0.52528
 H635 H 0.68007 0.86520 0.53542
 H636 H 0.82216 0.86046 0.46959
 C637 C -0.00400 0.22077 0.35345
 C638 C 0.00764 0.23979 0.36242
 C639 C 0.02934 0.23708 0.37212
 C640 C 0.03916 0.21552 0.37305
 C641 C 0.02754 0.19667 0.36385
 C642 C 0.00603 0.19930 0.35397
 C643 C -0.00288 0.26245 0.36169
 C644 C -0.02442 0.26593 0.37112
 C645 C -0.03418 0.28754 0.37072
 C646 C -0.02266 0.30562 0.36047
 C647 C -0.00131 0.30220 0.35084
 C648 C 0.00867 0.28072 0.35165
 H649 H -0.02069 0.22275 0.34582
 H650 H 0.03831 0.25163 0.37934
 H651 H -0.03332 0.25197 0.37916
 H652 H 0.02525 0.27814 0.34425
 H653 H 0.03516 0.17998 0.36454
 H654 H -0.03023 0.32235 0.36012
 C655 C 1.01344 0.72054 0.13041
 C656 C 1.00192 0.73928 0.12144
 C657 C 0.97990 0.73630 0.11243
 C658 C 0.96962 0.71475 0.11225
 C659 C 0.98113 0.69619 0.12145
 C660 C 1.00297 0.69910 0.13064
 C661 C 1.01269 0.76201 0.12200
 C662 C 1.03419 0.76551 0.11240
 C663 C 1.04432 0.78713 0.11303
 C664 C 1.03323 0.80522 0.12367
 C665 C 1.01192 0.80177 0.13348
 C666 C 1.00158 0.78028 0.13244
 H667 H 1.03031 0.72277 0.13768
 H668 H 0.97092 0.75066 0.10538
 H669 H 1.04279 0.75153 0.10412
 H670 H 0.98509 0.77765 0.14009
 H671 H 0.97307 0.67955 0.12154
 H672 H 1.04111 0.82194 0.12426
 C673 C 0.51346 0.22062 0.63087
 C674 C 0.50196 0.23932 0.62181
 C675 C 0.47998 0.23631 0.61273
 C676 C 0.46971 0.21475 0.61255
 C677 C 0.48120 0.19623 0.62185
 C678 C 0.50300 0.19917 0.63112
 C679 C 0.51272 0.26206 0.62236
 C680 C 0.53421 0.26556 0.61275
 C681 C 0.54433 0.28720 0.61336
 C682 C 0.53322 0.30529 0.62399
 C683 C 0.51192 0.30182 0.63380
 C684 C 0.50160 0.28033 0.63278
 H685 H 0.53030 0.22288 0.63820
 H686 H 0.47103 0.25065 0.60560
 H687 H 0.54282 0.25159 0.60449
 H688 H 0.48511 0.27769 0.64043
 H689 H 0.47315 0.17958 0.62194
 H690 H 0.54109 0.32201 0.62456
 C691 C 0.49583 0.72080 0.85354
 C692 C 0.50749 0.73984 0.86245
 C693 C 0.52917 0.73713 0.87218
 C694 C 0.53896 0.71556 0.87320
 C695 C 0.52732 0.69670 0.86407
 C696 C 0.50582 0.69932 0.85416
 C697 C 0.49700 0.76251 0.86165
 C698 C 0.47542 0.76602 0.87101
 C699 C 0.46570 0.78765 0.87057
 C700 C 0.47727 0.80570 0.86035
 C701 C 0.49865 0.80226 0.85080
 C702 C 0.50860 0.78076 0.85164
 H703 H 0.47915 0.72278 0.84589
 H704 H 0.53816 0.75169 0.87937
 H705 H 0.46648 0.75208 0.87904
 H706 H 0.52520 0.77816 0.84430
 H707 H 0.53491 0.67999 0.86483
 H708 H 0.46973 0.82245 0.85998
 C709 C 0.42325 -0.13138 0.31427
 C710 C 0.39777 -0.13478 0.30948
 C711 C 0.38700 -0.11541 0.30307
 C712 C 0.40278 -0.09454 0.30208
 C713 C 0.42201 -0.10150 0.28606
 C714 C 0.43279 -0.12089 0.29248
 C715 C 0.42462 -0.11227 0.33213
 C716 C 0.41389 -0.09294 0.32574
 C717 C 0.43482 -0.15202 0.32178
 C718 C 0.44424 -0.16848 0.32930
 C719 C 0.39125 -0.07351 0.29569
 C720 C 0.38194 -0.05587 0.29142
 H721 H 0.38897 -0.15099 0.31093
 H722 H 0.36899 -0.11501 0.29903
 H723 H 0.42672 -0.09207 0.27100
 H724 H 0.44672 -0.12808 0.28292
 H725 H 0.43330 -0.11378 0.34842
 H726 H 0.41337 -0.07792 0.33655
 C727 C 0.92225 0.36814 0.81486
 C728 C 0.90880 0.37939 0.83407
 C729 C 0.89812 0.39877 0.82772
 C730 C 0.90190 0.40508 0.80277
 C731 C 0.89426 0.38401 0.78905
 C732 C 0.90497 0.36456 0.79542
 C733 C 0.93849 0.38674 0.80645
 C734 C 0.92779 0.40616 0.80010
 C735 C 0.93376 0.34744 0.82231
 C736 C 0.94314 0.33092 0.82975
 C737 C 0.89044 0.42616 0.79643
 C738 C 0.88117 0.44384 0.79218
 H739 H 0.90773 0.37270 0.85118
 H740 H 0.88792 0.40866 0.83940
 H741 H 0.88159 0.38434 0.77553
 H742 H 0.90149 0.34823 0.78735
 H743 H 0.95677 0.38481 0.80551
 H744 H 0.93692 0.42085 0.79371
 C745 C 0.05986 1.14076 0.81229
 C746 C 0.07192 1.12948 0.83244
 C747 C 0.08318 1.11021 0.82672
 C748 C 0.08131 1.10404 0.80137
 C749 C 0.08978 1.12524 0.78883
 C750 C 0.07849 1.14458 0.79458
 C751 C 0.04444 1.12210 0.80203
 C752 C 0.05571 1.10281 0.79629
 C753 C 0.04755 1.16127 0.81903
 C754 C 0.03713 1.17746 0.82583
 C755 C 0.09329 1.08304 0.79563
 C756 C 0.10282 1.06542 0.79168
 H757 H 0.07168 1.13609 0.84973
 H758 H 0.09257 1.10033 0.83909
 H759 H 0.10342 1.12507 0.77653
 H760 H 0.08243 1.16098 0.78721
 H761 H 0.02628 1.12392 0.79943
 H762 H 0.04720 1.08809 0.78879
 C763 C 0.56005 0.64216 0.31092
 C764 C 0.56265 0.62540 0.33062
 C765 C 0.57380 0.60609 0.32488
 C766 C 0.58131 0.60534 0.29998
 C767 C 0.59551 0.62708 0.29678
 C768 C 0.58432 0.64646 0.30254
 C769 C 0.54833 0.62844 0.29179
 C770 C 0.55951 0.60907 0.28603
 C771 C 0.54785 0.66273 0.31769
 C772 C 0.53752 0.67896 0.32453
 C773 C 0.59319 0.58429 0.29422
 C774 C 0.60264 0.56662 0.29029
 H775 H 0.55628 0.62846 0.34763
 H776 H 0.57698 0.59261 0.33697
 H777 H 0.61279 0.62723 0.29051
 H778 H 0.59200 0.66323 0.30120
 H779 H 0.53268 0.63352 0.28346
 H780 H 0.55344 0.59755 0.27277
 C781 C 0.56617 0.36830 0.19161
 C782 C 0.54939 0.38508 0.20217
 C783 C 0.55891 0.40564 0.20761
 C784 C 0.58426 0.40738 0.20195
 C785 C 0.58569 0.40132 0.17660
 C786 C 0.57620 0.38081 0.17118
 C787 C 0.58579 0.36679 0.20890
 C788 C 0.59531 0.38737 0.21434
 C789 C 0.55594 0.34635 0.18511
 C790 C 0.54762 0.32876 0.17828
 C791 C 0.59449 0.42963 0.20731
 C792 C 0.60284 0.44811 0.21082
 H793 H 0.53163 0.38115 0.20518
 H794 H 0.54930 0.41932 0.21527
 H795 H 0.59351 0.41218 0.16399
 H796 H 0.57589 0.37413 0.15391
 H797 H 0.59164 0.35100 0.21623
 H798 H 0.60934 0.38921 0.22634
 C799 C 0.06579 0.86755 0.69271
 C800 C 0.05730 0.87750 0.71527
 C801 C 0.06695 0.89801 0.72078
 C802 C 0.08411 0.90650 0.70318
 C803 C 0.07098 0.90651 0.68054
 C804 C 0.06137 0.88608 0.67504
 C805 C 0.09173 0.86676 0.69531
 C806 C 0.10136 0.88724 0.70082
 C807 C 0.05544 0.84568 0.68612
 C808 C 0.04701 0.82817 0.67921
 C809 C 0.09446 0.92867 0.70860
 C810 C 0.10290 0.94711 0.71214
 H811 H 0.04487 0.86917 0.72596
 H812 H 0.06278 0.90726 0.73621
 H813 H 0.06935 0.92131 0.66975
 H814 H 0.05151 0.88339 0.65955
 H815 H 0.10165 0.85146 0.69310
 H816 H 0.11953 0.88948 0.70331
 C817 C 0.92866 0.63598 0.69496
 C818 C 0.92728 0.61868 0.67532
 C819 C 0.91559 0.59940 0.68047
 C820 C 0.90636 0.59922 0.70477
 C821 C 0.89215 0.62089 0.70675
 C822 C 0.90389 0.64024 0.70158
 C823 C 0.93892 0.62287 0.71499
 C824 C 0.92718 0.60354 0.72016
 C825 C 0.94149 0.65648 0.68882
 C826 C 0.95243 0.67259 0.68245
 C827 C 0.89393 0.57818 0.70986
 C828 C 0.88412 0.56046 0.71317
 H829 H 0.93484 0.62136 0.65877
 H830 H 0.91313 0.58558 0.66833
 H831 H 0.87447 0.62103 0.71180
 H832 H 0.89627 0.65696 0.70221
 H833 H 0.95401 0.62833 0.72434
 H834 H 0.93223 0.59243 0.73392
 C835 C 0.42961 0.13618 0.19447
 C836 C 0.41114 0.13982 0.21237
 C837 C 0.39934 0.12046 0.21747
 C838 C 0.40722 0.09944 0.20416
 C839 C 0.43279 0.09790 0.20912
 C840 C 0.44456 0.11720 0.20402
 C841 C 0.41719 0.12540 0.17397
 C842 C 0.40544 0.10612 0.17905
 C843 C 0.44249 0.15667 0.18840
 C844 C 0.45347 0.17278 0.18209
 C845 C 0.39475 0.07841 0.20919
 C846 C 0.38490 0.06071 0.21246
 H847 H 0.40764 0.15610 0.22032
 H848 H 0.38574 0.12017 0.22981
 H849 H 0.44094 0.08298 0.21608
 H850 H 0.46277 0.11881 0.20662
 H851 H 0.41755 0.13235 0.15692
 H852 H 0.39575 0.09656 0.16637
 C853 C 0.31374 0.42212 -0.13120
 C854 C 0.32251 0.39770 -0.12958
 C855 C 0.31618 0.38686 -0.11023
 C856 C 0.30169 0.40149 -0.09437
 C857 C 0.28154 0.40918 -0.10911
 C858 C 0.28790 0.42004 -0.12851
 C859 C 0.32219 0.43393 -0.10932
 C860 C 0.31586 0.42310 -0.08999
 C861 C 0.32117 0.43379 -0.15183
 C862 C 0.32861 0.44330 -0.16830
 C863 C 0.29537 0.38986 -0.07334
 C864 C 0.29116 0.38048 -0.05570
 H865 H 0.33276 0.38960 -0.14253
 H866 H 0.32101 0.36949 -0.10661
 H867 H 0.26389 0.40633 -0.10472
 H868 H 0.27569 0.42651 -0.14074
 H869 H 0.33224 0.44949 -0.10903
 H870 H 0.32049 0.42939 -0.07315
 C871 C 0.81384 0.92308 0.36842
 C872 C 0.83392 0.91634 0.38366
 C873 C 0.82764 0.90564 0.40307
 C874 C 0.80187 0.90269 0.40541
 C875 C 0.79418 0.89018 0.38361
 C876 C 0.80048 0.90092 0.36414
 C877 C 0.79857 0.93749 0.38375
 C878 C 0.79227 0.92676 0.40321
 C879 C 0.82123 0.93462 0.34769
 C880 C 0.82864 0.94402 0.33116
 C881 C 0.79559 0.89120 0.42652
 C882 C 0.79139 0.88193 0.44422
 H883 H 0.85158 0.91967 0.37957
 H884 H 0.83991 0.89981 0.41557
 H885 H 0.78459 0.87434 0.38348
 H886 H 0.79629 0.89427 0.34734
 H887 H 0.79313 0.95456 0.37966
 H888 H 0.78144 0.93465 0.41579
 C889 C 0.81208 0.05980 1.14131
 C890 C 0.83215 0.07204 1.13012
 C891 C 0.82642 0.08323 1.11076
 C892 C 0.80116 0.08112 1.10443
 C893 C 0.78847 0.08952 1.12556
 C894 C 0.79422 0.07829 1.14498
 C895 C 0.80207 0.04427 1.12261
 C896 C 0.79633 0.05547 1.10324
 C897 C 0.81884 0.04757 1.16190
 C898 C 0.82568 0.03718 1.17814
 C899 C 0.79542 0.09303 1.08335
 C900 C 0.79149 0.10249 1.06565
 H901 H 0.84938 0.07196 1.13684
 H902 H 0.83874 0.09272 1.10092
 H903 H 0.77606 0.10305 1.12528
 H904 H 0.78675 0.08219 1.16135
 H905 H 0.79963 0.02607 1.12446
 H906 H 0.78898 0.04686 1.08848
 C907 C 0.31118 0.56047 0.64148
 C908 C 0.32543 0.58203 0.63757
 C909 C 0.31973 0.59328 0.61822
 C910 C 0.30033 0.58188 0.60464
 C911 C 0.28070 0.57968 0.62154
 C912 C 0.28642 0.56841 0.64095
 C913 C 0.31394 0.54622 0.61973
 C914 C 0.30824 0.55746 0.60039
 C915 C 0.31790 0.54819 0.66206
 C916 C 0.32470 0.53778 0.67829
 C917 C 0.29462 0.59384 0.58358
 C918 C 0.29070 0.60334 0.56590
 H919 H 0.33879 0.58799 0.64905
 H920 H 0.32820 0.60885 0.61311
 H921 H 0.26384 0.58639 0.61854
 H922 H 0.27446 0.56545 0.65457
 H923 H 0.31981 0.52878 0.61954
 H924 H 0.30923 0.54965 0.58365
 C925 C 0.19221 0.56626 0.36762
 C926 C 0.20413 0.54997 0.38401
 C927 C 0.20957 0.55962 0.40453
 C928 C 0.20254 0.58460 0.40662
 C929 C 0.17703 0.58465 0.40119
 C930 C 0.17160 0.57503 0.38073
 C931 C 0.20828 0.58684 0.36585
 C932 C 0.21372 0.59650 0.38638
 C933 C 0.18570 0.55589 0.34572
 C934 C 0.17886 0.54746 0.32818
 C935 C 0.20790 0.59496 0.42882
 C936 C 0.21139 0.60340 0.44728
 H937 H 0.20802 0.53243 0.37986
 H938 H 0.21812 0.55034 0.41795
 H939 H 0.16431 0.59165 0.41244
 H940 H 0.15423 0.57380 0.37447
 H941 H 0.21484 0.59322 0.34991
 H942 H 0.22495 0.61116 0.38803
 C943 C 0.69220 0.06565 0.86749
 C944 C 0.67177 0.07496 0.88050
 C945 C 0.67734 0.08452 0.90095
 C946 C 0.70283 0.08388 0.90647
 C947 C 0.71436 0.09543 0.88623
 C948 C 0.70876 0.08584 0.86571
 C949 C 0.70367 0.04913 0.88398
 C950 C 0.70926 0.05872 0.90449
 C951 C 0.68551 0.05536 0.84561
 C952 C 0.67851 0.04699 0.82809
 C953 C 0.70834 0.09418 0.92866
 C954 C 0.71193 0.10260 0.94712
 H955 H 0.65440 0.07412 0.87418
 H956 H 0.66476 0.09187 0.91213
 H957 H 0.72592 0.10983 0.88787
 H958 H 0.71553 0.09201 0.84977
 H959 H 0.70715 0.03149 0.87989
 H960 H 0.71753 0.04929 0.91797
 C961 C 0.69478 0.92932 0.63657
 C962 C 0.71358 0.91170 0.63989
 C963 C 0.71865 0.89995 0.62050
 C964 C 0.70439 0.90701 0.59975
 C965 C 0.70811 0.93276 0.59781
 C966 C 0.70306 0.94448 0.61715
 C967 C 0.67459 0.91587 0.62649
 C968 C 0.67963 0.90416 0.60716
 C969 C 0.68875 0.94215 0.65710
 C970 C 0.68248 0.95312 0.67323
 C971 C 0.70938 0.89458 0.57868
 C972 C 0.71262 0.88478 0.56094
 H973 H 0.72215 0.90874 0.65601
 H974 H 0.73156 0.88691 0.62000
 H975 H 0.71423 0.94106 0.58260
 H976 H 0.70486 0.96281 0.61850
 H977 H 0.65778 0.91553 0.63392
 H978 H 0.66715 0.89381 0.59805
 C979 C 0.19467 0.42827 0.13629
 C980 C 0.21495 0.41230 0.13917
 C981 C 0.22004 0.40043 0.11986
 C982 C 0.20432 0.40573 0.09963
 C983 C 0.20587 0.43160 0.09684
 C984 C 0.20080 0.44344 0.11609
 C985 C 0.17516 0.41301 0.12753
 C986 C 0.18022 0.40118 0.10829
 C987 C 0.18861 0.44124 0.15673
 C988 C 0.18232 0.45230 0.17278
 C989 C 0.20932 0.39317 0.07864
 C990 C 0.21257 0.38327 0.06095
 H991 H 0.22446 0.41049 0.15494
 H992 H 0.23391 0.38843 0.11908
 H993 H 0.21060 0.43989 0.08113
 H994 H 0.20120 0.46187 0.11687
 H995 H 0.15879 0.41158 0.13577
 H996 H 0.16820 0.38963 0.10005
 C997 C -0.13120 0.31432 0.42264
 C998 C -0.11274 0.30562 0.43889
 C999 C -0.09335 0.29924 0.42819
 C1000 C -0.09432 0.30219 0.40228
 C1001 C -0.10041 0.32721 0.39870
 C1002 C -0.11976 0.33357 0.40939
 C1003 C -0.13488 0.29509 0.40515
 C1004 C -0.11546 0.28871 0.39442
 C1005 C -0.15186 0.32178 0.43416
 C1006 C -0.16835 0.32924 0.44355
 C1007 C -0.07326 0.29583 0.39080
 C1008 C -0.05561 0.29158 0.38153
 H1009 H -0.11474 0.30450 0.45719
 H1010 H -0.07875 0.29267 0.43731
 H1011 H -0.09040 0.33891 0.38862
 H1012 H -0.12631 0.35072 0.40845
 H1013 H -0.15125 0.28718 0.40153
 H1014 H -0.11520 0.27533 0.38162
 C1015 C 0.36861 0.81453 0.92232
 C1016 C 0.38640 0.80424 0.93837
 C1017 C 0.40580 0.79785 0.92769
 C1018 C 0.40551 0.80237 0.90201
 C1019 C 0.40035 0.82777 0.89984
 C1020 C 0.38100 0.83414 0.91050
 C1021 C 0.36469 0.79651 0.90364
 C1022 C 0.38412 0.79010 0.89294
 C1023 C 0.34794 0.82201 0.93381
 C1024 C 0.33145 0.82947 0.94319
 C1025 C 0.42658 0.79599 0.89057
 C1026 C 0.44425 0.79172 0.88134
 H1027 H 0.38394 0.80211 0.95651
 H1028 H 0.41996 0.79024 0.93669
 H1029 H 0.41098 0.83971 0.89070
 H1030 H 0.37505 0.85155 0.91047
 H1031 H 0.34815 0.78938 0.89923
 H1032 H 0.38422 0.77750 0.87937
 C1033 C 1.14129 0.81191 0.05958
 C1034 C 1.13043 0.83181 0.07238
 C1035 C 1.11110 0.82601 0.08352
 C1036 C 1.10447 0.80087 0.08082
 C1037 C 1.12545 0.78770 0.08880
 C1038 C 1.14485 0.79352 0.07762
 C1039 C 1.12243 0.80251 0.04388
 C1040 C 1.10308 0.79671 0.05504
 C1041 C 1.16186 0.81873 0.04740
 C1042 C 1.17808 0.82560 0.03707
 C1043 C 1.08342 0.79505 0.09268
 C1044 C 1.06576 0.79108 0.10212
 H1045 H 1.13734 0.84897 0.07270
 H1046 H 1.10148 0.83821 0.09338
 H1047 H 1.12510 0.77494 0.10202
 H1048 H 1.16111 0.78575 0.08126
 H1049 H 1.12414 0.80053 0.02561
 H1050 H 1.08822 0.78976 0.04632
 C1051 C 0.64131 0.31179 0.55983
 C1052 C 0.63369 0.28707 0.55571
 C1053 C 0.61430 0.28131 0.56691
 C1054 C 0.60448 0.30086 0.58110
 C1055 C 0.60140 0.32042 0.56431
 C1056 C 0.62072 0.32616 0.55315
 C1057 C 0.64333 0.31431 0.58578
 C1058 C 0.62396 0.30856 0.59697
 C1059 C 0.66188 0.31854 0.54764
 C1060 C 0.67812 0.32537 0.53730
 C1061 C 0.58343 0.29509 0.59299
 C1062 C 0.56576 0.29114 0.60244
 H1063 H 0.64273 0.27515 0.54500
 H1064 H 0.60672 0.26446 0.56579
 H1065 H 0.58541 0.32903 0.56142
 H1066 H 0.62127 0.33968 0.54070
 H1067 H 0.65863 0.32005 0.59459
 H1068 H 0.62267 0.30938 0.61536
 C1069 C 0.36785 0.19191 0.56575
 C1070 C 0.36679 0.21185 0.58269
 C1071 C 0.38733 0.21738 0.59227
 C1072 C 0.40685 0.20240 0.58395
 C1073 C 0.40634 0.20444 0.55794
 C1074 C 0.38584 0.19892 0.54837
 C1075 C 0.37866 0.17245 0.57916
 C1076 C 0.39912 0.17796 0.58870
 C1077 C 0.34596 0.18531 0.55547
 C1078 C 0.32843 0.17840 0.54711
 C1079 C 0.42904 0.20784 0.59423
 C1080 C 0.44750 0.21141 0.60262
 H1081 H 0.35132 0.22085 0.58675
 H1082 H 0.38945 0.23112 0.60455
 H1083 H 0.42080 0.20981 0.54792
 H1084 H 0.38273 0.19957 0.53016
 H1085 H 0.37089 0.15578 0.58102
 H1086 H 0.40886 0.16601 0.59873
 C1087 C 0.86752 0.69193 0.06598
 C1088 C 0.88581 0.69756 0.04841
 C1089 C 0.90636 0.70308 0.05786
 C1090 C 0.90661 0.70244 0.08396
 C1091 C 0.89825 0.67849 0.08995
 C1092 C 0.87774 0.67298 0.08051
 C1093 C 0.86681 0.71278 0.08181
 C1094 C 0.88740 0.71832 0.09127
 C1095 C 0.84557 0.68533 0.05581
 C1096 C 0.82800 0.67842 0.04754
 C1097 C 0.92886 0.70788 0.09412
 C1098 C 0.94735 0.71143 0.10242
 H1099 H 0.88286 0.69730 0.03016
 H1100 H 0.92101 0.70755 0.04770
 H1101 H 0.90761 0.66686 0.10070
 H1102 H 0.86955 0.65663 0.08319
 H1103 H 0.85154 0.72236 0.08524
 H1104 H 0.88976 0.73264 0.10283
 C1105 C 0.63589 0.69414 0.92915
 C1106 C 0.61535 0.69852 0.94440
 C1107 C 0.59608 0.70369 0.93265
 C1108 C 0.59919 0.70399 0.90677
 C1109 C 0.60875 0.68056 0.90077
 C1110 C 0.62802 0.67539 0.91252
 C1111 C 0.63821 0.71557 0.91459
 C1112 C 0.61887 0.72076 0.90280
 C1113 C 0.65635 0.68799 0.94203
 C1114 C 0.67243 0.68162 0.95303
 C1115 C 0.57818 0.70910 0.89430
 C1116 C 0.56049 0.71245 0.88446
 H1117 H 0.61591 0.69769 0.96284
 H1118 H 0.58014 0.70729 0.94102
 H1119 H 0.60109 0.66904 0.88833
 H1120 H 0.63685 0.65945 0.91013
 H1121 H 0.65362 0.72575 0.91362
 H1122 H 0.61773 0.73539 0.89173
 C1123 C 0.13622 0.19412 0.42878
 C1124 C 0.11530 0.19669 0.44392
 C1125 C 0.09600 0.20185 0.43222
 C1126 C 0.09946 0.20395 0.40649
 C1127 C 0.11003 0.18134 0.39916
 C1128 C 0.12933 0.17618 0.41087
 C1129 C 0.13790 0.21652 0.41567
 C1130 C 0.11853 0.22170 0.40392
 C1131 C 0.15672 0.18796 0.44161
 C1132 C 0.17282 0.18161 0.45257
 C1133 C 0.07842 0.20905 0.39407
 C1134 C 0.06071 0.21240 0.38427
 H1135 H 0.11563 0.19469 0.46226
 H1136 H 0.07981 0.20427 0.44054
 H1137 H 0.10300 0.17037 0.38589
 H1138 H 0.13883 0.16078 0.40761
 H1139 H 0.15292 0.22734 0.41560
 H1140 H 0.11697 0.23696 0.39380
 C1141 C 0.55580 0.11266 0.68198
 C1142 C 0.53374 0.10545 0.66973
 C1143 C 0.52299 0.12291 0.65914
 C1144 C 0.53538 0.14585 0.66185
 C1145 C 0.55946 0.14167 0.65310
 C1146 C 0.57020 0.12422 0.66368
 C1147 C 0.54893 0.13191 0.69820
 C1148 C 0.53820 0.14935 0.68762
 C1149 C 0.56749 0.09397 0.69338
 C1150 C 0.57743 0.07879 0.70269
 C1151 C 0.52386 0.16470 0.65055
 C1152 C 0.51438 0.18034 0.64152
 H1153 H 0.52714 0.08817 0.66940
 H1154 H 0.50718 0.12059 0.64973
 H1155 H 0.56738 0.15154 0.63977
 H1156 H 0.58733 0.11915 0.65941
 H1157 H 0.55220 0.13184 0.71640
 H1158 H 0.53227 0.16423 0.69675
 C1159 C 1.05577 0.61239 0.18114
 C1160 C 1.03401 0.60513 0.16837
 C1161 C 1.02328 0.62264 0.15785
 C1162 C 1.03536 0.64566 0.16114
 C1163 C 1.05966 0.64188 0.15279
 C1164 C 1.07039 0.62439 0.16331
 C1165 C 1.04839 0.63130 0.19752
 C1166 C 1.03766 0.64879 0.18700
 C1167 C 1.06744 0.59365 0.19248
 C1168 C 1.07736 0.57843 0.20176
 C1169 C 1.02385 0.66456 0.14992
 C1170 C 1.01437 0.68024 0.14096
 H1171 H 1.02760 0.58779 0.16766
 H1172 H 1.00767 0.62029 0.14811
 H1173 H 1.06773 0.65204 0.13977
 H1174 H 1.08765 0.61956 0.15929
 H1175 H 1.05132 0.63098 0.21577
 H1176 H 1.03141 0.66346 0.19625
 C1177 C 0.95786 0.88555 0.18783
 C1178 C 0.96727 0.86718 0.20363
 C1179 C 0.97848 0.85036 0.19246
 C1180 C 0.97919 0.85356 0.16659
 C1181 C 0.98966 0.87727 0.16324
 C1182 C 0.97844 0.89410 0.17442
 C1183 C 0.94306 0.87262 0.17034
 C1184 C 0.95427 0.85582 0.15918
 C1185 C 0.94560 0.90354 0.19979
 C1186 C 0.93506 0.91815 0.20941
 C1187 C 0.99112 0.83536 0.15460
 C1188 C 1.00069 0.82017 0.14486
 H1189 H 0.96531 0.86737 0.22197
 H1190 H 0.98613 0.83614 0.20124
 H1191 H 1.00457 0.88054 0.15301
 H1192 H 0.98374 0.91179 0.17377
 H1193 H 0.92532 0.87635 0.16701
 H1194 H 0.94613 0.84515 0.14629
 C1195 C 0.45777 0.38551 0.68821
 C1196 C 0.46707 0.36706 0.70397
 C1197 C 0.47830 0.35027 0.69278
 C1198 C 0.47913 0.35358 0.66693
 C1199 C 0.48966 0.37728 0.66372
 C1200 C 0.47842 0.39408 0.67492
 C1201 C 0.44302 0.37268 0.67060
 C1202 C 0.45425 0.35590 0.65942
 C1203 C 0.44548 0.40348 0.70019
 C1204 C 0.43493 0.41805 0.70984
 C1205 C 0.49108 0.33540 0.65492
 C1206 C 0.50068 0.32022 0.64518
 H1207 H 0.46503 0.36718 0.72230
 H1208 H 0.48589 0.33600 0.70153
 H1209 H 0.50462 0.38057 0.65357
 H1210 H 0.48375 0.41177 0.67437
 H1211 H 0.42530 0.37646 0.66720
 H1212 H 0.44616 0.34530 0.64644
 C1213 C 0.45173 0.60856 0.80948
 C1214 C 0.43878 0.61996 0.82896
 C1215 C 0.44971 0.63846 0.83803
 C1216 C 0.47252 0.64375 0.82673
 C1217 C 0.46692 0.64605 0.80131
 C1218 C 0.45598 0.62754 0.79223
 C1219 C 0.47521 0.60322 0.81951
 C1220 C 0.48614 0.62172 0.82858
 C1221 C 0.43991 0.58864 0.79981
 C1222 C 0.43002 0.57226 0.79210
 C1223 C 0.48429 0.66363 0.83652
 C1224 C 0.49404 0.67993 0.84458
 H1225 H 0.42245 0.61403 0.83509
 H1226 H 0.44275 0.64837 0.85192
 H1227 H 0.47116 0.66090 0.79131
 H1228 H 0.45087 0.62654 0.77447
 H1229 H 0.48261 0.58639 0.81948
 H1230 H 0.50291 0.62073 0.83633
 C1231 C -0.04804 0.10873 0.30888
 C1232 C -0.06107 0.12014 0.32830
 C1233 C -0.05013 0.13860 0.33745
 C1234 C -0.02724 0.14383 0.32629
 C1235 C -0.03268 0.14617 0.30084
 C1236 C -0.04362 0.12771 0.29169
 C1237 C -0.02463 0.10330 0.31905
 C1238 C -0.01369 0.12175 0.32820
 C1239 C -0.05987 0.08885 0.29913
 C1240 C -0.06978 0.07250 0.29138
 C1241 C -0.01546 0.16367 0.33618
 C1242 C -0.00572 0.17994 0.34431
 H1243 H -0.07745 0.11426 0.33433
 H1244 H -0.05714 0.14852 0.35131
 H1245 H -0.02833 0.16102 0.29089
 H1246 H -0.04864 0.12674 0.27389
 H1247 H -0.01729 0.08644 0.31905
 H1248 H 0.00302 0.12071 0.33604
 C1249 C 0.05291 0.38950 0.30212
 C1250 C 0.03196 0.39649 0.31576
 C1251 C 0.02094 0.37866 0.32554
 C1252 C 0.03194 0.35560 0.32072
 C1253 C 0.05669 0.35839 0.32870
 C1254 C 0.06771 0.37621 0.31892
 C1255 C 0.04413 0.37169 0.28490
 C1256 C 0.03310 0.35385 0.29469
 C1257 C 0.06489 0.40872 0.29181
 C1258 C 0.07508 0.42457 0.28384
 C1259 C 0.02012 0.33646 0.33135
 C1260 C 0.01039 0.32080 0.34021
 H1261 H 0.02627 0.41390 0.31756
 H1262 H 0.00581 0.38081 0.33572
 H1263 H 0.06486 0.34734 0.34093
 H1264 H 0.08532 0.38042 0.32279
 H1265 H 0.04637 0.37297 0.26665
 H1266 H 0.02589 0.33985 0.28482
 C1267 C 0.55310 0.88959 0.80239
 C1268 C 0.54884 0.86955 0.78600
 C1269 C 0.53777 0.85170 0.79572
 C1270 C 0.53206 0.85566 0.82086
 C1271 C 0.51853 0.87783 0.82129
 C1272 C 0.52959 0.89567 0.81159
 C1273 C 0.56589 0.87942 0.82271
 C1274 C 0.55484 0.86159 0.83241
 C1275 C 0.56512 0.90883 0.79215
 C1276 C 0.57533 0.92471 0.78426
 C1277 C 0.52019 0.83651 0.83141
 C1278 C 0.51041 0.82085 0.84022
 H1279 H 0.55404 0.86939 0.76834
 H1280 H 0.53350 0.83624 0.78637
 H1281 H 0.50174 0.87938 0.82857
 H1282 H 0.52227 0.91250 0.81054
 H1283 H 0.58222 0.88567 0.82893
 H1284 H 0.56169 0.85256 0.84693
 C1285 C 0.68196 0.55632 0.11169
 C1286 C 0.69837 0.54424 0.12791
 C1287 C 0.68781 0.53353 0.14540
 C1288 C 0.66188 0.53594 0.14495
 C1289 C 0.65440 0.52715 0.12137
 C1290 C 0.66497 0.53787 0.10388
 C1291 C 0.66826 0.57234 0.12693
 C1292 C 0.65770 0.56163 0.14441
 C1293 C 0.69334 0.56798 0.09296
 C1294 C 0.70263 0.57792 0.07775
 C1295 C 0.65060 0.52445 0.16384
 C1296 C 0.64159 0.51500 0.17952
 H1297 H 0.71667 0.54410 0.12585
 H1298 H 0.69706 0.52421 0.15831
 H1299 H 0.64192 0.51370 0.11866
 H1300 H 0.66154 0.53360 0.08617
 H1301 H 0.66697 0.59051 0.12422
 H1302 H 0.64736 0.57061 0.15667
 C1303 C 0.18189 1.05512 0.61278
 C1304 C 0.17741 1.02973 0.60836
 C1305 C 0.16690 1.01904 0.62591
 C1306 C 0.16191 1.03481 0.64615
 C1307 C 0.14808 1.05435 0.63608
 C1308 C 0.15859 1.06503 0.61853
 C1309 C 0.19545 1.05614 0.63518
 C1310 C 0.18495 1.04547 0.65272
 C1311 C 0.19320 1.06674 0.59399
 C1312 C 0.20244 1.07664 0.57873
 C1313 C 0.15070 1.02335 0.66510
 C1314 C 0.14174 1.01392 0.68081
 H1315 H 0.18207 1.02092 0.59282
 H1316 H 0.16256 1.00108 0.62541
 H1317 H 0.13151 1.05935 0.64218
 H1318 H 0.15100 1.07918 0.60960
 H1319 H 0.21186 1.06452 0.63710
 H1320 H 0.19237 1.04470 0.66966
 C1321 C 0.18897 0.95759 0.88624
 C1322 C 0.20482 0.96963 0.86952
 C1323 C 0.19360 0.98086 0.85271
 C1324 C 0.16765 0.97896 0.85427
 C1325 C 0.16197 0.98748 0.87828
 C1326 C 0.17319 0.97623 0.89510
 C1327 C 0.17374 0.94213 0.87137
 C1328 C 0.16254 0.95336 0.85457
 C1329 C 0.20096 0.94529 0.90423
 C1330 C 0.21061 0.93470 0.91882
 C1331 C 0.15561 0.99091 0.83607
 C1332 C 0.14584 1.00049 0.82087
 H1333 H 0.22321 0.96936 0.87078
 H1334 H 0.20240 0.99023 0.83956
 H1335 H 0.15020 1.00114 0.88176
 H1336 H 0.17103 0.98026 0.91300
 H1337 H 0.17192 0.92394 0.87383
 H1338 H 0.15112 0.94480 0.84264
 C1339 C 0.68836 0.45865 0.38504
 C1340 C 0.70405 0.46758 0.36636
 C1341 C 0.69287 0.47881 0.34952
 C1342 C 0.66711 0.48001 0.35302
 C1343 C 0.66426 0.49081 0.37667
 C1344 C 0.67545 0.47957 0.39351
 C1345 C 0.67048 0.44401 0.37249
 C1346 C 0.65931 0.45524 0.35567
 C1347 C 0.70033 0.44636 0.40306
 C1348 C 0.70996 0.43579 0.41767
 C1349 C 0.65511 0.49196 0.33480
 C1350 C 0.64537 0.50155 0.31958
 H1351 H 0.72232 0.46530 0.36636
 H1352 H 0.70157 0.48615 0.33509
 H1353 H 0.65435 0.50595 0.37989
 H1354 H 0.67513 0.48507 0.41117
 H1355 H 0.66690 0.42637 0.37648
 H1356 H 0.64616 0.44721 0.34524
 C1357 C 0.80922 0.45211 0.60876
 C1358 C 0.82836 0.43887 0.62042
 C1359 C 0.83742 0.44972 0.63898
 C1360 C 0.82647 0.47274 0.64407
 C1361 C 0.80098 0.46756 0.64614
 C1362 C 0.79191 0.45671 0.62757
 C1363 C 0.81967 0.47543 0.60342
 C1364 C 0.82873 0.48628 0.62199
 C1365 C 0.79956 0.44038 0.58878
 C1366 C 0.79187 0.43056 0.57234
 C1367 C 0.83626 0.48442 0.66403
 C1368 C 0.84431 0.49410 0.68038
 H1369 H 0.83426 0.42242 0.61461
 H1370 H 0.85109 0.44255 0.64907
 H1371 H 0.79094 0.47202 0.66088
 H1372 H 0.77410 0.45188 0.62640
 H1373 H 0.81991 0.48278 0.58655
 H1374 H 0.83675 0.50292 0.62102
 C1375 C 0.30944 -0.04746 0.10816
 C1376 C 0.29285 -0.03143 0.12010
 C1377 C 0.30200 -0.02058 0.13864
 C1378 C 0.32684 -0.02683 0.14340
 C1379 C 0.33934 -0.02175 0.12119
 C1380 C 0.33019 -0.03260 0.10267
 C1381 C 0.31764 -0.06366 0.12678
 C1382 C 0.32679 -0.05282 0.14530
 C1383 C 0.29969 -0.05919 0.08821
 C1384 C 0.29193 -0.06902 0.07181
 C1385 C 0.33671 -0.01516 0.16332
 C1386 C 0.34484 -0.00551 0.17965
 H1387 H 0.27545 -0.02884 0.11450
 H1388 H 0.29244 -0.00869 0.14891
 H1389 H 0.35408 -0.01062 0.12011
 H1390 H 0.33710 -0.03075 0.08572
 H1391 H 0.31637 -0.08205 0.12552
 H1392 H 0.33335 -0.06191 0.15992
 C1393 C 0.30226 0.05229 0.38939
 C1394 C 0.31133 0.02870 0.39541
 C1395 C 0.32113 0.01773 0.37758
 C1396 C 0.32090 0.03143 0.35547
 C1397 C 0.33246 0.05414 0.36164
 C1398 C 0.32266 0.06510 0.37946
 C1399 C 0.28604 0.04822 0.36916
 C1400 C 0.29585 0.03725 0.35131
 C1401 C 0.29193 0.06422 0.40862
 C1402 C 0.28397 0.07438 0.42450
 C1403 C 0.33155 0.01966 0.33631
 C1404 C 0.34044 0.00999 0.32065
 H1405 H 0.31014 0.02125 0.41220
 H1406 H 0.32833 0.00089 0.37908
 H1407 H 0.34704 0.06102 0.35278
 H1408 H 0.32887 0.08138 0.38587
 H1409 H 0.26842 0.05348 0.36888
 H1410 H 0.28662 0.03310 0.33574
 C1411 C 0.80170 0.55213 0.89016
 C1412 C 0.81131 0.52880 0.89634
 C1413 C 0.82110 0.51782 0.87851
 C1414 C 0.82031 0.53125 0.85624
 C1415 C 0.83148 0.55425 0.86199
 C1416 C 0.82170 0.56522 0.87982
 C1417 C 0.78530 0.54750 0.87019
 C1418 C 0.79509 0.53651 0.85234
 C1419 C 0.79138 0.56408 0.90939
 C1420 C 0.78342 0.57425 0.92526
 C1421 C 0.83094 0.51946 0.83708
 C1422 C 0.83982 0.50978 0.82142
 H1423 H 0.81049 0.52154 0.91323
 H1424 H 0.82866 0.50115 0.88012
 H1425 H 0.84581 0.56131 0.85286
 H1426 H 0.82766 0.58169 0.88595
 H1427 H 0.76757 0.55240 0.87007
 H1428 H 0.78575 0.53200 0.83693
 C1429 C 0.11211 0.68202 0.55550
 C1430 C 0.13069 0.67361 0.57178
 C1431 C 0.14820 0.66318 0.56106
 C1432 C 0.14542 0.66217 0.53509
 C1433 C 0.14204 0.68693 0.52786
 C1434 C 0.12453 0.69737 0.53859
 C1435 C 0.10480 0.66097 0.54161
 C1436 C 0.12232 0.65053 0.53088
 C1437 C 0.09335 0.69326 0.56718
 C1438 C 0.07813 0.70246 0.57714
 C1439 C 0.16434 0.65103 0.52359
 C1440 C 0.18004 0.64212 0.51414
 H1441 H 0.13013 0.67567 0.59013
 H1442 H 0.16264 0.65630 0.57021
 H1443 H 0.15248 0.69550 0.51539
 H1444 H 0.11996 0.71488 0.53532
 H1445 H 0.08740 0.65481 0.54031
 H1446 H 0.11994 0.63542 0.52038
 C1447 C 0.61309 0.18171 1.05533
 C1448 C 0.60963 0.17942 1.02951
 C1449 C 0.62711 0.16888 1.01879
 C1450 C 0.64631 0.16169 1.03496
 C1451 C 0.63473 0.14689 1.05291
 C1452 C 0.61726 0.15742 1.06363
 C1453 C 0.63600 0.19405 1.05836
 C1454 C 0.65346 0.18352 1.04765
 C1455 C 0.59437 0.19306 1.06698
 C1456 C 0.57918 0.20233 1.07690
 C1457 C 0.66519 0.15045 1.02346
 C1458 C 0.68084 0.14146 1.01401
 H1459 H 0.59478 0.18552 1.02044
 H1460 H 0.62723 0.16595 1.00054
 H1461 H 0.63980 0.12967 1.05686
 H1462 H 0.60736 0.14921 1.07675
 H1463 H 0.63830 0.20968 1.06805
 H1464 H 0.67073 0.19014 1.04818
 C1465 C 0.88609 0.18814 0.95754
 C1466 C 0.87466 0.16911 0.94344
 C1467 C 0.85785 0.15796 0.95467
 C1468 C 0.85410 0.16691 0.97891
 C1469 C 0.84979 0.19244 0.97620
 C1470 C 0.86661 0.20360 0.96496
 C1471 C 0.89424 0.17661 0.97944
 C1472 C 0.87741 0.16544 0.99068
 C1473 C 0.90409 0.20009 0.94525
 C1474 C 0.91869 0.20971 0.93467
 C1475 C 0.83589 0.15493 0.99087
 C1476 C 0.82069 0.14521 1.00047
 H1477 H 0.87937 0.16478 0.92615
 H1478 H 0.84816 0.14407 0.94700
 H1479 H 0.83486 0.20100 0.98256
 H1480 H 0.86609 0.22171 0.96170
 H1481 H 0.91168 0.17717 0.98557
 H1482 H 0.88043 0.15643 1.00645
 C1483 C 0.38540 0.68899 0.45787
 C1484 C 0.38702 0.66301 0.45624
 C1485 C 0.37019 0.65186 0.46748
 C1486 C 0.35339 0.66779 0.47924
 C1487 C 0.34465 0.68340 0.46036
 C1488 C 0.36147 0.69454 0.44913
 C1489 C 0.38496 0.69434 0.48345
 C1490 C 0.36812 0.68319 0.49470
 C1491 C 0.40341 0.70092 0.44557
 C1492 C 0.41802 0.71053 0.43501
 C1493 C 0.33518 0.65583 0.49120
 C1494 C 0.31996 0.64613 0.50079
 H1495 H 0.40024 0.65414 0.44708
 H1496 H 0.36899 0.63346 0.46795
 H1497 H 0.32680 0.68552 0.45619
 H1498 H 0.35803 0.70620 0.43533
 H1499 H 0.39682 0.70586 0.49197
 H1500 H 0.36555 0.68515 0.51286
 C1501 C 0.60855 0.80989 0.45207
 C1502 C 0.63117 0.79986 0.44423
 C1503 C 0.64964 0.80895 0.45520
 C1504 C 0.64368 0.82717 0.47293
 C1505 C 0.62675 0.81555 0.48888
 C1506 C 0.60828 0.80646 0.47792
 C1507 C 0.61119 0.83564 0.44890
 C1508 C 0.62966 0.84472 0.45987
 C1509 C 0.58866 0.80021 0.44021
 C1510 C 0.57230 0.79251 0.43027
 C1511 C 0.66355 0.83698 0.48473
 C1512 C 0.67985 0.84504 0.49447
 H1513 H 0.63255 0.78677 0.43122
 H1514 H 0.66685 0.80365 0.45158
 H1515 H 0.62908 0.81454 0.50718
 H1516 H 0.59478 0.79766 0.48682
 H1517 H 0.59958 0.84584 0.43892
 H1518 H 0.63386 0.86270 0.45928
 C1519 C 0.10808 0.30812 -0.04715
 C1520 C 0.10309 0.31725 -0.02320
 C1521 C 0.12166 0.32631 -0.01238
 C1522 C 0.14339 0.32536 -0.02657
 C1523 C 0.13738 0.33729 -0.04891
 C1524 C 0.11882 0.32824 -0.05973
 C1525 C 0.12744 0.29114 -0.04388
 C1526 C 0.14601 0.30020 -0.03305
 C1527 C 0.08808 0.29847 -0.05887
 C1528 C 0.07165 0.29080 -0.06869
 C1529 C 0.16335 0.33514 -0.01491
 C1530 C 0.17970 0.34321 -0.00527
 H1531 H 0.08645 0.31664 -0.01543
 H1532 H 0.12093 0.33346 0.00467
 H1533 H 0.14687 0.35159 -0.05564
 H1534 H 0.11240 0.33478 -0.07573
 H1535 H 0.12664 0.27356 -0.04956
 H1536 H 0.16112 0.29038 -0.02946
 C1537 C 0.38964 0.30142 0.05259
 C1538 C 0.36645 0.29281 0.06075
 C1539 C 0.34853 0.30247 0.04977
 C1540 C 0.35558 0.31979 0.03172
 C1541 C 0.37154 0.30682 0.01582
 C1542 C 0.38946 0.29716 0.02680
 C1543 C 0.38878 0.32735 0.05536
 C1544 C 0.37088 0.33701 0.04439
 C1545 C 0.40896 0.29124 0.06453
 C1546 C 0.42490 0.28340 0.07468
 C1547 C 0.33634 0.33030 0.01994
 C1548 C 0.32062 0.33908 0.01025
 H1549 H 0.36429 0.28022 0.07397
 H1550 H 0.33102 0.29816 0.05359
 H1551 H 0.36899 0.30535 -0.00244
 H1552 H 0.40226 0.28740 0.01796
 H1553 H 0.40116 0.33727 0.06508
 H1554 H 0.36792 0.35519 0.04472
 C1555 C 0.88925 0.80236 0.55287
 C1556 C 0.87914 0.82261 0.56578
 C1557 C 0.86136 0.83241 0.55474
 C1558 C 0.85541 0.82102 0.53187
 C1559 C 0.85136 0.79588 0.53747
 C1560 C 0.86916 0.78606 0.54851
 C1561 C 0.89536 0.81168 0.52938
 C1562 C 0.87757 0.82149 0.51834
 C1563 C 0.90843 0.79202 0.56488
 C1564 C 0.92426 0.78403 0.57509
 C1565 C 0.83630 0.83167 0.52003
 C1566 C 0.82067 0.84056 0.51030
 H1567 H 0.88540 0.82871 0.58216
 H1568 H 0.85239 0.84690 0.56167
 H1569 H 0.83588 0.78660 0.53313
 H1570 H 0.86894 0.76838 0.55364
 H1571 H 0.91218 0.81064 0.52205
 H1572 H 0.87915 0.82886 0.50155
   
