data_POSCAR
  _audit_creation_date              2014-09-24
  _audit_creation_method            'ToBaCCo'
  _symmetry_space_group_name_H-M    'P1'
  _symmetry_Int_Tables_number       1
  _symmetry_cell_setting            triclinic
  loop_
  _symmetry_equiv_pos_as_xyz
 x,y,z
_cell_length_a 87.9267
_cell_length_b 88.0591
_cell_length_c 88.1073
_cell_angle_alpha 89.982300
_cell_angle_beta 89.982300
_cell_angle_gamma 89.950000
loop_
  _atom_site_label
  _atom_site_type_symbol
  _atom_site_fract_x
  _atom_site_fract_y
  _atom_site_fract_z
N1 N 0.36316 0.32092 0.33139
 N2 N 0.36347 0.33196 0.32133
 C3 C 0.37550 0.32989 0.31205
 C4 C 0.38303 0.31686 0.31656
 C5 C 0.37489 0.31143 0.32881
 H6 H 0.37855 0.33723 0.30270
 H7 H 0.37741 0.30140 0.33544
 Cu8 Cu 0.34788 0.34771 0.32146
 Cu9 Cu 0.34788 0.31984 0.34740
 Cu10 Cu 0.32028 0.34802 0.34774
 N11 N 0.33225 0.36342 0.32146
 N12 N 0.32133 0.36326 0.33168
 C13 C 0.31184 0.37498 0.32911
 C14 C 0.31713 0.38298 0.31670
 C15 C 0.33010 0.37536 0.31210
 H16 H 0.30186 0.37757 0.33581
 H17 H 0.33732 0.37827 0.30260
 N18 N 0.32116 0.33161 0.36298
 N19 N 0.33151 0.32075 0.36269
 C20 C 0.32913 0.31130 0.37448
 C21 C 0.31679 0.31655 0.38263
 C22 C 0.31198 0.32942 0.37505
 H23 H 0.33598 0.30145 0.37713
 H24 H 0.30253 0.33663 0.37815
 H25 H 0.33093 0.33099 0.33562
 H26 H 0.34317 0.34278 0.34824
 N27 N 0.36331 0.82110 -0.16880
 N28 N 0.36360 0.83209 -0.17893
 C29 C 0.37561 0.82997 -0.18822
 C30 C 0.38322 0.81698 -0.18360
 C31 C 0.37506 0.81163 -0.17130
 H32 H 0.37864 0.83725 -0.19764
 H33 H 0.37758 0.80166 -0.16458
 Cu34 Cu 0.34798 0.84786 -0.17878
 Cu35 Cu 0.34807 0.82005 -0.15273
 Cu36 Cu 0.32040 0.84813 -0.15246
 N37 N 0.33232 0.86359 -0.17878
 N38 N 0.32137 0.86334 -0.16860
 C39 C 0.31185 0.87505 -0.17113
 C40 C 0.31716 0.88317 -0.18348
 C41 C 0.33017 0.87558 -0.18809
 H42 H 0.30186 0.87755 -0.16441
 H43 H 0.33742 0.87856 -0.19756
 N44 N 0.32135 0.83179 -0.13712
 N45 N 0.33175 0.82096 -0.13739
 C46 C 0.32937 0.81149 -0.12561
 C47 C 0.31699 0.81668 -0.11748
 C48 C 0.31215 0.82953 -0.12508
 H49 H 0.33621 0.80163 -0.12299
 H50 H 0.30262 0.83667 -0.12202
 H51 H 0.33119 0.83117 -0.16446
 H52 H 0.34340 0.84304 -0.15188
 N53 N 0.86266 0.32132 -0.16890
 N54 N 0.86287 0.33222 -0.17913
 C55 C 0.87481 0.32999 -0.18848
 C56 C 0.88244 0.31707 -0.18380
 C57 C 0.87438 0.31181 -0.17142
 H58 H 0.87784 0.33724 -0.19791
 H59 H 0.87701 0.30193 -0.16461
 Cu60 Cu 0.84776 0.34846 -0.17886
 Cu61 Cu 0.84764 0.32048 -0.15266
 Cu62 Cu 0.81943 0.34773 -0.15333
 N63 N 0.83184 0.36394 -0.17873
 N64 N 0.82088 0.36369 -0.16856
 C65 C 0.81149 0.37555 -0.17092
 C66 C 0.81688 0.38369 -0.18322
 C67 C 0.82978 0.37600 -0.18794
 H68 H 0.80148 0.37804 -0.16422
 H69 H 0.83704 0.37895 -0.19740
 N70 N 0.82081 0.33223 -0.13726
 N71 N 0.83141 0.32161 -0.13725
 C72 C 0.82915 0.31235 -0.12529
 C73 C 0.81664 0.31749 -0.11732
 C74 C 0.81162 0.33011 -0.12519
 H75 H 0.83606 0.30257 -0.12253
 H76 H 0.80190 0.33709 -0.12238
 H77 H 0.83139 0.33100 -0.16511
 H78 H 0.84271 0.34341 -0.15213
 N79 N 0.86290 0.82150 0.33173
 N80 N 0.86245 0.83184 0.32096
 C81 C 0.87419 0.82957 0.31138
 C82 C 0.88246 0.81724 0.31652
 C83 C 0.87498 0.81236 0.32942
 H84 H 0.87667 0.83641 0.30150
 H85 H 0.87808 0.80286 0.33656
 Cu86 Cu 0.84679 0.84750 0.32087
 Cu87 Cu 0.84783 0.82067 0.34793
 Cu88 Cu 0.82020 0.84884 0.34822
 N89 N 0.83124 0.86327 0.32106
 N90 N 0.82101 0.86384 0.33194
 C91 C 0.81185 0.87589 0.32963
 C92 C 0.81661 0.88327 0.31661
 C93 C 0.82890 0.87493 0.31141
 H94 H 0.80240 0.87902 0.33684
 H95 H 0.83565 0.87726 0.30141
 N96 N 0.82126 0.83262 0.36365
 N97 N 0.83163 0.82176 0.36338
 C98 C 0.82918 0.81226 0.37512
 C99 C 0.81678 0.81747 0.38320
 C100 C 0.81201 0.83036 0.37564
 H101 H 0.83592 0.80231 0.37768
 H102 H 0.80243 0.83746 0.37863
 H103 H 0.83044 0.83139 0.33636
 H104 H 0.84311 0.84365 0.34807
 N105 N 0.63723 0.67918 0.33188
 N106 N 0.63681 0.66805 0.32193
 C107 C 0.62457 0.66992 0.31290
 C108 C 0.61700 0.68292 0.31745
 C109 C 0.62535 0.68853 0.32948
 H110 H 0.62145 0.66252 0.30362
 H111 H 0.62300 0.69871 0.33594
 Cu112 Cu 0.65246 0.65234 0.32187
 Cu113 Cu 0.65343 0.68090 0.34687
 Cu114 Cu 0.68000 0.65186 0.34836
 N115 N 0.66828 0.63683 0.32176
 N116 N 0.67906 0.63681 0.33212
 C117 C 0.68845 0.62500 0.32961
 C118 C 0.68321 0.61711 0.31711
 C119 C 0.67041 0.62492 0.31238
 H120 H 0.69832 0.62227 0.33641
 H121 H 0.66324 0.62208 0.30282
 N122 N 0.67897 0.66827 0.36361
 N123 N 0.66890 0.67940 0.36299
 C124 C 0.67121 0.68884 0.37480
 C125 C 0.68326 0.68338 0.38324
 C126 C 0.68793 0.67035 0.37584
 H127 H 0.66461 0.69894 0.37715
 H128 H 0.69726 0.66304 0.37910
 H129 H 0.67020 0.66850 0.33581
 H130 H 0.65721 0.65773 0.34857
 N131 N 0.63691 0.17887 -0.16841
 N132 N 0.63664 0.16788 -0.17850
 C133 C 0.62455 0.16991 -0.18772
 C134 C 0.61694 0.18288 -0.18312
 C135 C 0.62511 0.18829 -0.17089
 H136 H 0.62148 0.16258 -0.19708
 H137 H 0.62254 0.19826 -0.16420
 Cu138 Cu 0.65227 0.15216 -0.17845
 Cu139 Cu 0.65220 0.17996 -0.15241
 Cu140 Cu 0.67988 0.15186 -0.15216
 N141 N 0.66789 0.13641 -0.17839
 N142 N 0.67886 0.13661 -0.16823
 C143 C 0.68830 0.12483 -0.17075
 C144 C 0.68290 0.11671 -0.18306
 C145 C 0.66992 0.12437 -0.18765
 H146 H 0.69828 0.12226 -0.16406
 H147 H 0.66259 0.12141 -0.19705
 N148 N 0.67899 0.16825 -0.13689
 N149 N 0.66858 0.17908 -0.13716
 C150 C 0.67100 0.18858 -0.12542
 C151 C 0.68342 0.18342 -0.11733
 C152 C 0.68823 0.17054 -0.12490
 H153 H 0.66416 0.19845 -0.12282
 H154 H 0.69777 0.16341 -0.12187
 H155 H 0.66905 0.16883 -0.16409
 H156 H 0.65684 0.15694 -0.15154
 N157 N 0.13662 0.67879 -0.16790
 N158 N 0.13655 0.66797 -0.17819
 C159 C 0.12463 0.67012 -0.18758
 C160 C 0.11693 0.68300 -0.18292
 C161 C 0.12486 0.68824 -0.17045
 H162 H 0.12175 0.66294 -0.19711
 H163 H 0.12219 0.69814 -0.16369
 Cu164 Cu 0.15215 0.65224 -0.17810
 Cu165 Cu 0.15174 0.67980 -0.15172
 Cu166 Cu 0.18080 0.65325 -0.15322
 N167 N 0.16776 0.63651 -0.17801
 N168 N 0.17897 0.63699 -0.16814
 C169 C 0.18838 0.62518 -0.17059
 C170 C 0.18274 0.61681 -0.18258
 C171 C 0.16964 0.62429 -0.18705
 H172 H 0.19862 0.62288 -0.16418
 H173 H 0.16220 0.62114 -0.19629
 N174 N 0.17934 0.66875 -0.13714
 N175 N 0.16821 0.67881 -0.13652
 C176 C 0.17025 0.68771 -0.12425
 C177 C 0.18326 0.68301 -0.11683
 C178 C 0.18875 0.67099 -0.12529
 H179 H 0.16288 0.69697 -0.12095
 H180 H 0.19881 0.66434 -0.12289
 H181 H 0.16841 0.67005 -0.16448
 H182 H 0.15767 0.65712 -0.15157
 N183 N 0.13668 0.17879 0.33190
 N184 N 0.13657 0.16796 0.32163
 C185 C 0.12466 0.17014 0.31224
 C186 C 0.11695 0.18300 0.31693
 C187 C 0.12491 0.18824 0.32937
 H188 H 0.12180 0.16298 0.30269
 H189 H 0.12225 0.19814 0.33614
 Cu190 Cu 0.15211 0.15216 0.32157
 Cu191 Cu 0.15186 0.17974 0.34796
 Cu192 Cu 0.18008 0.15222 0.34754
 N193 N 0.16807 0.13679 0.32142
 N194 N 0.17910 0.13705 0.33148
 C195 C 0.18860 0.12534 0.32887
 C196 C 0.18318 0.11726 0.31657
 C197 C 0.17016 0.12484 0.31207
 H198 H 0.19861 0.12276 0.33551
 H199 H 0.16282 0.12185 0.30269
 N200 N 0.17911 0.16846 0.36291
 N201 N 0.16822 0.17879 0.36323
 C202 C 0.17047 0.18799 0.37526
 C203 C 0.18339 0.18321 0.38279
 C204 C 0.18862 0.17087 0.37465
 H205 H 0.16329 0.19748 0.37832
 H206 H 0.19855 0.16409 0.37722
 H207 H 0.16880 0.16907 0.33579
 H208 H 0.15702 0.15683 0.34845
 N209 N 0.63681 0.32100 0.66841
 N210 N 0.63647 0.33205 0.67845
 C211 C 0.62443 0.32998 0.68772
 C212 C 0.61692 0.31694 0.68321
 C213 C 0.62510 0.31152 0.67098
 H214 H 0.62135 0.33732 0.69707
 H215 H 0.62261 0.30148 0.66436
 Cu216 Cu 0.65207 0.34777 0.67837
 Cu217 Cu 0.65212 0.31990 0.65243
 Cu218 Cu 0.67969 0.34805 0.65208
 N219 N 0.66768 0.36349 0.67831
 N220 N 0.67861 0.36331 0.66811
 C221 C 0.68808 0.37504 0.67068
 C222 C 0.68275 0.38305 0.68307
 C223 C 0.66979 0.37543 0.68766
 H224 H 0.69807 0.37762 0.66399
 H225 H 0.66255 0.37835 0.69715
 N226 N 0.67886 0.33163 0.63686
 N227 N 0.66851 0.32077 0.63716
 C228 C 0.67090 0.31132 0.62537
 C229 C 0.68325 0.31654 0.61722
 C230 C 0.68804 0.32941 0.62480
 H231 H 0.66406 0.30148 0.62273
 H232 H 0.69749 0.33662 0.62168
 H233 H 0.66905 0.33102 0.66422
 H234 H 0.65680 0.34282 0.65159
 N235 N 0.63741 0.82096 1.16872
 N236 N 0.63706 0.83201 1.17877
 C237 C 0.62485 0.83013 1.18782
 C238 C 0.61723 0.81720 1.18319
 C239 C 0.62553 0.81164 1.17109
 H240 H 0.62176 0.83749 1.19715
 H241 H 0.62312 0.80154 1.16454
 Cu242 Cu 0.65279 0.84758 1.17881
 Cu243 Cu 0.65351 0.81930 1.15360
 Cu244 Cu 0.67974 0.84861 1.15179
 N245 N 0.66848 0.86315 1.17886
 N246 N 0.67883 0.86359 1.16808
 C247 C 0.68804 0.87556 1.17043
 C248 C 0.68317 0.88303 1.18333
 C249 C 0.67079 0.87485 1.18845
 H250 H 0.69760 0.87861 1.16332
 H251 H 0.66393 0.87736 1.19832
 N252 N 0.67871 0.83220 1.13657
 N253 N 0.66881 0.82095 1.13733
 C254 C 0.67116 0.81147 1.12555
 C255 C 0.68308 0.81705 1.11700
 C256 C 0.68762 0.83017 1.12428
 H257 H 0.66471 0.80127 1.12332
 H258 H 0.69685 0.83756 1.12095
 H259 H 0.67039 0.83176 1.16445
 H260 H 0.65699 0.84251 1.15202
 N261 N 0.13693 0.32132 1.16828
 N262 N 0.13630 0.33262 1.17803
 C263 C 0.12404 0.33075 1.18704
 C264 C 0.11670 0.31757 1.18270
 C265 C 0.12518 0.31186 1.17079
 H266 H 0.12081 0.33823 1.19623
 H267 H 0.12303 0.30153 1.16452
 Cu268 Cu 0.15206 0.34817 1.17820
 Cu269 Cu 0.15328 0.31942 1.15347
 Cu270 Cu 0.17976 0.34847 1.15189
 N271 N 0.16776 0.36375 1.17823
 N272 N 0.17864 0.36365 1.16798
 C273 C 0.18809 0.37538 1.17055
 C274 C 0.18280 0.38330 1.18301
 C275 C 0.16989 0.37563 1.18764
 H276 H 0.19805 0.37801 1.16385
 H277 H 0.16268 0.37850 1.19716
 N278 N 0.17889 0.33195 1.13678
 N279 N 0.16885 0.32082 1.13743
 C280 C 0.17114 0.31139 1.12561
 C281 C 0.18317 0.31686 1.11715
 C282 C 0.18784 0.32988 1.12453
 H283 H 0.16451 0.30133 1.12324
 H284 H 0.19710 0.33723 1.12122
 H285 H 0.16999 0.33188 1.16469
 H286 H 0.15704 0.34251 1.15170
 N287 N 0.13719 0.82090 0.66849
 N288 N 0.13704 0.83178 0.67871
 C289 C 0.12504 0.82972 0.68801
 C290 C 0.11734 0.81686 0.68335
 C291 C 0.12539 0.81151 0.67099
 H292 H 0.12207 0.83699 0.69745
 H293 H 0.12273 0.80162 0.66422
 Cu294 Cu 0.15261 0.84748 0.67860
 Cu295 Cu 0.15229 0.81998 0.65231
 Cu296 Cu 0.17956 0.84845 0.65163
 N297 N 0.16816 0.86319 0.67848
 N298 N 0.17858 0.86357 0.66777
 C299 C 0.18777 0.87556 0.67012
 C300 C 0.18284 0.88307 0.68297
 C301 C 0.17042 0.87491 0.68804
 H302 H 0.19737 0.87857 0.66305
 H303 H 0.16355 0.87741 0.69791
 N304 N 0.17865 0.83207 0.63638
 N305 N 0.16846 0.82107 0.63683
 C306 C 0.17097 0.81152 0.62515
 C307 C 0.18322 0.81684 0.61692
 C308 C 0.18784 0.82985 0.62434
 H309 H 0.16433 0.80149 0.62270
 H310 H 0.19727 0.83708 0.62120
 H311 H 0.16935 0.83122 0.66372
 H312 H 0.15664 0.84305 0.65156
 N313 N 0.36363 0.67843 0.66788
 N314 N 0.36314 0.66813 0.67869
 C315 C 0.37482 0.67046 0.68832
 C316 C 0.38311 0.68276 0.68316
 C317 C 0.37569 0.68756 0.67019
 H318 H 0.37723 0.66369 0.69828
 H319 H 0.37880 0.69705 0.66304
 Cu320 Cu 0.34739 0.65258 0.67880
 Cu321 Cu 0.34845 0.67939 0.65173
 Cu322 Cu 0.31989 0.65220 0.65245
 N323 N 0.33165 0.63700 0.67890
 N324 N 0.32077 0.63712 0.66866
 C325 C 0.31138 0.62531 0.67114
 C326 C 0.31671 0.61728 0.68352
 C327 C 0.32957 0.62501 0.68821
 H328 H 0.30151 0.62262 0.66433
 H329 H 0.33683 0.62207 0.69767
 N330 N 0.32100 0.66833 0.63695
 N331 N 0.33203 0.67850 0.63647
 C332 C 0.32979 0.68767 0.62442
 C333 C 0.31674 0.68306 0.61702
 C334 C 0.31142 0.67084 0.62527
 H335 H 0.33703 0.69708 0.62127
 H336 H 0.30136 0.66421 0.62284
 H337 H 0.33115 0.66927 0.66384
 H338 H 0.34299 0.65653 0.65174
 N339 N 0.36342 0.17856 1.16821
 N340 N 0.36346 0.16779 1.17856
 C341 C 0.37538 0.16993 1.18793
 C342 C 0.38312 0.18275 1.18320
 C343 C 0.37520 0.18797 1.17072
 H344 H 0.37829 0.16274 1.19746
 H345 H 0.37790 0.19781 1.16389
 Cu346 Cu 0.34807 0.15187 1.17846
 Cu347 Cu 0.34836 0.17950 1.15198
 Cu348 Cu 0.31936 0.15305 1.15348
 N349 N 0.33216 0.13646 1.17846
 N350 N 0.32106 0.13690 1.16846
 C351 C 0.31165 0.12510 1.17084
 C352 C 0.31717 0.11679 1.18294
 C353 C 0.33020 0.12429 1.18753
 H354 H 0.30152 0.12276 1.16430
 H355 H 0.33756 0.12113 1.19684
 N356 N 0.32082 0.16848 1.13738
 N357 N 0.33196 0.17851 1.13674
 C358 C 0.32991 0.18741 1.12446
 C359 C 0.31687 0.18274 1.11708
 C360 C 0.31139 0.17074 1.12555
 H361 H 0.33726 0.19668 1.12116
 H362 H 0.30130 0.16414 1.12318
 H363 H 0.33182 0.16968 1.16482
 H364 H 0.34256 0.15673 1.15185
 N365 N 0.86288 0.67886 1.16844
 N366 N 0.86226 0.66868 1.17936
 C367 C 0.87397 0.67095 1.18896
 C368 C 0.88239 0.68311 1.18369
 C369 C 0.87503 0.68788 1.17067
 H370 H 0.87636 0.66418 1.19892
 H371 H 0.87832 0.69719 1.16336
 Cu372 Cu 0.84658 0.65310 1.17930
 Cu373 Cu 0.84791 0.67963 1.15211
 Cu374 Cu 0.82029 0.65143 1.15183
 N375 N 0.83116 0.63727 1.17922
 N376 N 0.82107 0.63656 1.16822
 C377 C 0.81205 0.62442 1.17045
 C378 C 0.81676 0.61714 1.18352
 C379 C 0.82887 0.62560 1.18885
 H380 H 0.80278 0.62109 1.16312
 H381 H 0.83555 0.62329 1.19889
 N382 N 0.82142 0.66758 1.13634
 N383 N 0.83178 0.67845 1.13660
 C384 C 0.82931 0.68792 1.12484
 C385 C 0.81693 0.68269 1.11677
 C386 C 0.81218 0.66981 1.12434
 H387 H 0.83603 0.69787 1.12227
 H388 H 0.80261 0.66271 1.12137
 H389 H 0.83037 0.66901 1.16352
 H390 H 0.84319 0.65663 1.15206
 N391 N 0.86331 0.17842 0.66809
 N392 N 0.86350 0.16748 0.67827
 C393 C 0.87546 0.16956 0.68760
 C394 C 0.88307 0.18251 0.68305
 C395 C 0.87504 0.18788 0.67070
 H396 H 0.87843 0.16228 0.69704
 H397 H 0.87760 0.19789 0.66406
 Cu398 Cu 0.84796 0.15174 0.67833
 Cu399 Cu 0.84814 0.17949 0.65200
 Cu400 Cu 0.81911 0.15298 0.65351
 N401 N 0.83226 0.13614 0.67813
 N402 N 0.82102 0.13669 0.66831
 C403 C 0.81158 0.12492 0.67079
 C404 C 0.81724 0.11654 0.68277
 C405 C 0.83037 0.12394 0.68718
 H406 H 0.80128 0.12271 0.66446
 H407 H 0.83781 0.12076 0.69642
 N408 N 0.82051 0.16852 0.63748
 N409 N 0.83162 0.17858 0.63685
 C410 C 0.82955 0.18749 0.62458
 C411 C 0.81654 0.18277 0.61717
 C412 C 0.81108 0.17076 0.62564
 H413 H 0.83690 0.19676 0.62127
 H414 H 0.80105 0.16409 0.62325
 H415 H 0.83153 0.16965 0.66479
 H416 H 0.84221 0.15677 0.65177
 N417 N 0.32091 0.36331 0.66815
 N418 N 0.33171 0.36330 0.67848
 C419 C 0.32958 0.37521 0.68787
 C420 C 0.31675 0.38298 0.68318
 C421 C 0.31150 0.37511 0.67068
 H422 H 0.33675 0.37800 0.69744
 H423 H 0.30161 0.37782 0.66390
 Cu424 Cu 0.34729 0.34756 0.67859
 Cu425 Cu 0.31999 0.34821 0.65198
 Cu426 Cu 0.34791 0.32033 0.65195
 N427 N 0.36290 0.33187 0.67857
 N428 N 0.36316 0.32134 0.66798
 C429 C 0.37513 0.31209 0.67037
 C430 C 0.38272 0.31706 0.68316
 C431 C 0.37466 0.32960 0.68811
 H432 H 0.37805 0.30241 0.66340
 H433 H 0.37725 0.33655 0.69789
 N434 N 0.33151 0.32124 0.63672
 N435 N 0.32099 0.33196 0.63660
 C436 C 0.31174 0.32972 0.62461
 C437 C 0.31665 0.31698 0.61690
 C438 C 0.32915 0.31186 0.62488
 H439 H 0.30214 0.33681 0.62166
 H440 H 0.33608 0.30209 0.62213
 H441 H 0.33066 0.33098 0.66389
 H442 H 0.34290 0.34321 0.65166
 N443 N 0.32176 0.86379 0.16769
 N444 N 0.33189 0.86311 0.17866
 C445 C 0.32958 0.87478 0.18828
 C446 C 0.31745 0.88324 0.18298
 C447 C 0.31273 0.87595 0.16992
 H448 H 0.33625 0.87708 0.19833
 H449 H 0.30339 0.87922 0.16263
 Cu450 Cu 0.34742 0.84734 0.17880
 Cu451 Cu 0.32087 0.84870 0.15148
 Cu452 Cu 0.34808 0.82011 0.15225
 N453 N 0.36301 0.83163 0.17892
 N454 N 0.36306 0.82091 0.16854
 C455 C 0.37496 0.81160 0.17096
 C456 C 0.38286 0.81683 0.18346
 C457 C 0.37498 0.82954 0.18827
 H458 H 0.37781 0.80187 0.16403
 H459 H 0.37782 0.83671 0.19782
 N460 N 0.33201 0.82130 0.13669
 N461 N 0.32183 0.83233 0.13620
 C462 C 0.31268 0.83013 0.12413
 C463 C 0.31731 0.81709 0.11674
 C464 C 0.32953 0.81175 0.12500
 H465 H 0.30327 0.83737 0.12097
 H466 H 0.33616 0.80169 0.12258
 H467 H 0.33085 0.83129 0.16355
 H468 H 0.34374 0.84319 0.15167
 N469 N 0.82145 0.36372 0.16778
 N470 N 0.83146 0.36290 0.17885
 C471 C 0.82914 0.37453 0.18852
 C472 C 0.81714 0.38312 0.18312
 C473 C 0.81250 0.37594 0.16998
 H474 H 0.83576 0.37675 0.19862
 H475 H 0.80329 0.37935 0.16259
 Cu476 Cu 0.84688 0.34704 0.17895
 Cu477 Cu 0.82068 0.34881 0.15139
 Cu478 Cu 0.84826 0.32051 0.15177
 N479 N 0.86258 0.33145 0.17902
 N480 N 0.86321 0.32126 0.16812
 C481 C 0.87537 0.31224 0.17036
 C482 C 0.88272 0.31701 0.18336
 C483 C 0.87429 0.32918 0.18863
 H484 H 0.87867 0.30293 0.16306
 H485 H 0.87668 0.33595 0.19858
 N486 N 0.83215 0.32172 0.13624
 N487 N 0.82182 0.33262 0.13593
 C488 C 0.81260 0.33038 0.12391
 C489 C 0.81734 0.31746 0.11639
 C490 C 0.82970 0.31223 0.12450
 H491 H 0.80304 0.33751 0.12090
 H492 H 0.83640 0.30224 0.12198
 H493 H 0.83070 0.33118 0.16312
 H494 H 0.84357 0.34351 0.15170
 N495 N 0.82141 0.86386 0.66812
 N496 N 0.83142 0.86303 0.67918
 C497 C 0.82911 0.87467 0.68885
 C498 C 0.81711 0.88328 0.68347
 C499 C 0.81246 0.87609 0.67032
 H500 H 0.83573 0.87688 0.69895
 H501 H 0.80325 0.87950 0.66294
 Cu502 Cu 0.84684 0.84715 0.67927
 Cu503 Cu 0.82064 0.84892 0.65173
 Cu504 Cu 0.84824 0.82063 0.65207
 N505 N 0.86256 0.83157 0.67932
 N506 N 0.86320 0.82140 0.66841
 C507 C 0.87538 0.81238 0.67063
 C508 C 0.88272 0.81715 0.68365
 C509 C 0.87427 0.82929 0.68892
 H510 H 0.87869 0.80308 0.66332
 H511 H 0.87665 0.83606 0.69888
 N512 N 0.83211 0.82183 0.63655
 N513 N 0.82176 0.83272 0.63626
 C514 C 0.81252 0.83047 0.62427
 C515 C 0.81727 0.81756 0.61673
 C516 C 0.82965 0.81234 0.62482
 H517 H 0.80296 0.83759 0.62127
 H518 H 0.83636 0.80236 0.62228
 H519 H 0.83069 0.83125 0.66343
 H520 H 0.84354 0.84361 0.65201
 N521 N 0.67873 0.63660 0.66820
 N522 N 0.66779 0.63644 0.67839
 C523 C 0.66989 0.62448 0.68773
 C524 C 0.68284 0.61683 0.68313
 C525 C 0.68818 0.62484 0.67075
 H526 H 0.66265 0.62157 0.69722
 H527 H 0.69816 0.62224 0.66406
 Cu528 Cu 0.65220 0.65219 0.67847
 Cu529 Cu 0.67984 0.65187 0.65218
 Cu530 Cu 0.65230 0.68010 0.65254
 N531 N 0.63662 0.66794 0.67854
 N532 N 0.63698 0.67901 0.66852
 C533 C 0.62527 0.68852 0.67109
 C534 C 0.61709 0.68309 0.68331
 C535 C 0.62458 0.67002 0.68781
 H536 H 0.62280 0.69857 0.66448
 H537 H 0.62148 0.66267 0.69714
 N538 N 0.66869 0.67921 0.63728
 N539 N 0.67903 0.66832 0.63697
 C540 C 0.68823 0.67053 0.62493
 C541 C 0.68346 0.68342 0.61736
 C542 C 0.67111 0.68867 0.62550
 H543 H 0.69768 0.66330 0.62182
 H544 H 0.66429 0.69854 0.62287
 H545 H 0.66921 0.66890 0.66434
 H546 H 0.65696 0.65715 0.65169
 N547 N 0.67918 0.13660 0.16798
 N548 N 0.66793 0.13608 0.17782
 C549 C 0.66996 0.12403 0.18705
 C550 C 0.68318 0.11669 0.18273
 C551 C 0.68876 0.12499 0.17065
 H552 H 0.66249 0.12084 0.19626
 H553 H 0.69897 0.12265 0.16421
 Cu554 Cu 0.65211 0.15157 0.17752
 Cu555 Cu 0.68039 0.15198 0.15207
 Cu556 Cu 0.65211 0.17953 0.15175
 N557 N 0.63645 0.16722 0.17772
 N558 N 0.63677 0.17832 0.16772
 C559 C 0.62511 0.18785 0.17041
 C560 C 0.61700 0.18239 0.18267
 C561 C 0.62449 0.16930 0.18708
 H562 H 0.62265 0.19796 0.16389
 H563 H 0.62147 0.16196 0.19645
 N564 N 0.66864 0.17877 0.13659
 N565 N 0.67954 0.16844 0.13688
 C566 C 0.68905 0.17091 0.12515
 C567 C 0.68382 0.18327 0.11704
 C568 C 0.67089 0.18800 0.12459
 H569 H 0.69895 0.16410 0.12252
 H570 H 0.66366 0.19746 0.12150
 H571 H 0.66902 0.16871 0.16387
 H572 H 0.65744 0.15669 0.15087
 N573 N 0.17877 0.63698 0.16819
 N574 N 0.16768 0.63662 0.17821
 C575 C 0.16972 0.62457 0.18745
 C576 C 0.18279 0.61707 0.18295
 C577 C 0.18826 0.62526 0.17075
 H578 H 0.16235 0.62148 0.19677
 H579 H 0.19833 0.62278 0.16415
 Cu580 Cu 0.15194 0.65221 0.17814
 Cu581 Cu 0.17989 0.65228 0.15224
 Cu582 Cu 0.15167 0.67982 0.15187
 N583 N 0.13620 0.66781 0.17808
 N584 N 0.13638 0.67872 0.16788
 C585 C 0.12463 0.68818 0.17043
 C586 C 0.11661 0.68287 0.18282
 C587 C 0.12424 0.66993 0.18743
 H588 H 0.12205 0.69816 0.16375
 H589 H 0.12131 0.66272 0.19692
 N590 N 0.16814 0.67899 0.13668
 N591 N 0.17904 0.66866 0.13699
 C592 C 0.18852 0.67106 0.12522
 C593 C 0.18329 0.68340 0.11708
 C594 C 0.17037 0.68817 0.12463
 H595 H 0.19840 0.66424 0.12259
 H596 H 0.16314 0.69761 0.12152
 H597 H 0.16870 0.66919 0.16405
 H598 H 0.15692 0.65698 0.15139
 N599 N 0.17859 0.13628 0.66783
 N600 N 0.16766 0.13608 0.67802
 C601 C 0.16977 0.12408 0.68732
 C602 C 0.18272 0.11645 0.68269
 C603 C 0.18805 0.12452 0.67034
 H604 H 0.16253 0.12113 0.69680
 H605 H 0.19804 0.12196 0.66364
 Cu606 Cu 0.15206 0.15184 0.67812
 Cu607 Cu 0.17966 0.15158 0.65183
 Cu608 Cu 0.15210 0.17979 0.65224
 N609 N 0.13647 0.16759 0.67824
 N610 N 0.13680 0.17867 0.66823
 C611 C 0.12509 0.18816 0.67082
 C612 C 0.11692 0.18271 0.68304
 C613 C 0.12443 0.16964 0.68751
 H614 H 0.12260 0.19823 0.66423
 H615 H 0.12135 0.16227 0.69683
 N616 N 0.16848 0.17892 0.63697
 N617 N 0.17884 0.16805 0.63665
 C618 C 0.18802 0.17028 0.62460
 C619 C 0.18323 0.18318 0.61705
 C620 C 0.17088 0.18840 0.62521
 H621 H 0.19747 0.16307 0.62147
 H622 H 0.16404 0.19827 0.62258
 H623 H 0.16903 0.16861 0.66401
 H624 H 0.15677 0.15686 0.65135
 N625 N 0.32112 0.63654 0.33165
 N626 N 0.33159 0.63693 0.32098
 C627 C 0.32941 0.62516 0.31145
 C628 C 0.31699 0.61697 0.31648
 C629 C 0.31195 0.62454 0.32926
 H630 H 0.33644 0.62256 0.30171
 H631 H 0.30234 0.62149 0.33630
 Cu632 Cu 0.34751 0.65231 0.32116
 Cu633 Cu 0.32019 0.65151 0.34798
 Cu634 Cu 0.34678 0.68047 0.34649
 N635 N 0.36322 0.66795 0.32130
 N636 N 0.36290 0.67893 0.33140
 C637 C 0.37475 0.68831 0.32901
 C638 C 0.38299 0.68285 0.31682
 C639 C 0.37536 0.66993 0.31216
 H640 H 0.37719 0.69837 0.33560
 H641 H 0.37837 0.66267 0.30273
 N642 N 0.33129 0.67906 0.36259
 N643 N 0.32114 0.66802 0.36315
 C644 C 0.31210 0.67020 0.37532
 C645 C 0.31690 0.68311 0.38281
 C646 C 0.32903 0.68847 0.37444
 H647 H 0.30263 0.66303 0.37846
 H648 H 0.33575 0.69846 0.37688
 H649 H 0.32983 0.66803 0.33551
 H650 H 0.34304 0.65716 0.34801
 N651 N 0.32074 0.13649 0.83168
 N652 N 0.33092 0.13717 0.82075
 C653 C 0.32867 0.12549 0.81113
 C654 C 0.31653 0.11703 0.81640
 C655 C 0.31175 0.12433 0.82944
 H656 H 0.33544 0.12314 0.80116
 H657 H 0.30245 0.12100 0.83676
 Cu658 Cu 0.34648 0.15289 0.82082
 Cu659 Cu 0.31994 0.15142 0.84804
 Cu660 Cu 0.34818 0.17901 0.84840
 N661 N 0.36234 0.16831 0.82092
 N662 N 0.36312 0.17829 0.83200
 C663 C 0.37532 0.18726 0.82981
 C664 C 0.38254 0.18268 0.81665
 C665 C 0.37399 0.17067 0.81125
 H666 H 0.37870 0.19646 0.83721
 H667 H 0.37623 0.16409 0.80113
 N668 N 0.33197 0.17786 0.86388
 N669 N 0.32109 0.16752 0.86359
 C670 C 0.31158 0.16997 0.87533
 C671 C 0.31680 0.18232 0.88344
 C672 C 0.32972 0.18706 0.87589
 H673 H 0.30161 0.16326 0.87788
 H674 H 0.33683 0.19661 0.87888
 H675 H 0.33053 0.16898 0.83669
 H676 H 0.34295 0.15615 0.84808
 N677 N 0.82136 0.63644 0.83203
 N678 N 0.83228 0.63629 0.82183
 C679 C 0.83019 0.62434 0.81248
 C680 C 0.81725 0.61669 0.81708
 C681 C 0.81192 0.62469 0.82947
 H682 H 0.83742 0.62144 0.80297
 H683 H 0.80194 0.62209 0.83616
 Cu684 Cu 0.84788 0.65202 0.82173
 Cu685 Cu 0.82025 0.65169 0.84805
 Cu686 Cu 0.84774 0.67991 0.84771
 N687 N 0.86343 0.66779 0.82171
 N688 N 0.86305 0.67884 0.83174
 C689 C 0.87474 0.68836 0.82916
 C690 C 0.88294 0.68295 0.81693
 C691 C 0.87547 0.66988 0.81245
 H692 H 0.87719 0.69842 0.83576
 H693 H 0.87858 0.66254 0.80310
 N694 N 0.83136 0.67899 0.86297
 N695 N 0.82104 0.66811 0.86327
 C696 C 0.81185 0.67030 0.87532
 C697 C 0.81662 0.68317 0.88290
 C698 C 0.82895 0.68843 0.87476
 H699 H 0.80242 0.66307 0.87843
 H700 H 0.83577 0.69829 0.87741
 H701 H 0.83084 0.66874 0.83590
 H702 H 0.84312 0.65696 0.84853
 N703 N 0.82101 0.13666 0.33160
 N704 N 0.83116 0.13735 0.32064
 C705 C 0.82895 0.12562 0.31106
 C706 C 0.81684 0.11715 0.31637
 C707 C 0.81201 0.12450 0.32936
 H708 H 0.83578 0.12321 0.30115
 H709 H 0.80269 0.12121 0.33665
 Cu710 Cu 0.84678 0.15300 0.32076
 Cu711 Cu 0.82028 0.15139 0.34818
 Cu712 Cu 0.84723 0.18010 0.34707
 N713 N 0.86273 0.16836 0.32092
 N714 N 0.86318 0.17865 0.33174
 C715 C 0.87537 0.18765 0.32960
 C716 C 0.88291 0.18277 0.31672
 C717 C 0.87457 0.17056 0.31145
 H718 H 0.87839 0.19718 0.33673
 H719 H 0.87699 0.16382 0.30148
 N720 N 0.83178 0.17858 0.36322
 N721 N 0.82147 0.16767 0.36360
 C722 C 0.81234 0.16988 0.37569
 C723 C 0.81722 0.18268 0.38331
 C724 C 0.82951 0.18795 0.37510
 H725 H 0.80271 0.16285 0.37865
 H726 H 0.83627 0.19788 0.37764
 H727 H 0.82977 0.16846 0.33613
 H728 H 0.84313 0.15695 0.34784
 N729 N 0.67884 0.36334 0.33189
 N730 N 0.66800 0.36347 0.32160
 C731 C 0.67007 0.37548 0.31234
 C732 C 0.68295 0.38315 0.31705
 C733 C 0.68825 0.37513 0.32943
 H734 H 0.66286 0.37843 0.30284
 H735 H 0.69817 0.37775 0.33620
 Cu736 Cu 0.65233 0.34783 0.32151
 Cu737 Cu 0.67989 0.34812 0.34792
 Cu738 Cu 0.65238 0.31996 0.34752
 N739 N 0.63684 0.33200 0.32138
 N740 N 0.63712 0.32101 0.33149
 C741 C 0.62537 0.31156 0.32897
 C742 C 0.61721 0.31698 0.31671
 C743 C 0.62477 0.32997 0.31216
 H744 H 0.62284 0.30156 0.33563
 H745 H 0.62169 0.33733 0.30281
 N746 N 0.66872 0.32084 0.36282
 N747 N 0.67905 0.33171 0.36313
 C748 C 0.68827 0.32947 0.37515
 C749 C 0.68351 0.31657 0.38270
 C750 C 0.67116 0.31135 0.37457
 H751 H 0.69774 0.33665 0.37823
 H752 H 0.66436 0.30146 0.37718
 H753 H 0.66927 0.33120 0.33577
 H754 H 0.65694 0.34302 0.34834
 N755 N 0.67864 0.86368 0.83213
 N756 N 0.66770 0.86386 0.82195
 C757 C 0.66983 0.87579 0.81259
 C758 C 0.68280 0.88339 0.81717
 C759 C 0.68812 0.87539 0.82956
 H760 H 0.66261 0.87871 0.80308
 H761 H 0.69811 0.87796 0.83624
 Cu762 Cu 0.65211 0.84815 0.82188
 Cu763 Cu 0.67974 0.84843 0.84815
 Cu764 Cu 0.65217 0.82027 0.84782
 N765 N 0.63653 0.83243 0.82179
 N766 N 0.63686 0.82138 0.83183
 C767 C 0.62515 0.81189 0.82925
 C768 C 0.61700 0.81731 0.81699
 C769 C 0.62452 0.83035 0.81250
 H770 H 0.62266 0.80184 0.83586
 H771 H 0.62147 0.83769 0.80313
 N772 N 0.66855 0.82116 0.86308
 N773 N 0.67890 0.83201 0.86336
 C774 C 0.68809 0.82981 0.87541
 C775 C 0.68331 0.81694 0.88300
 C776 C 0.67096 0.81171 0.87488
 H777 H 0.69755 0.83702 0.87850
 H778 H 0.66412 0.80187 0.87754
 H779 H 0.66912 0.83143 0.83599
 H780 H 0.65687 0.84322 0.84865
 N781 N 0.17837 0.36343 0.83217
 N782 N 0.16728 0.36375 0.82214
 C783 C 0.16938 0.37571 0.81280
 C784 C 0.18247 0.38319 0.81724
 C785 C 0.18791 0.37507 0.82951
 H786 H 0.16205 0.37873 0.80342
 H787 H 0.19801 0.37752 0.83606
 Cu788 Cu 0.15163 0.34810 0.82231
 Cu789 Cu 0.17955 0.34809 0.84815
 Cu790 Cu 0.15198 0.31986 0.84776
 N791 N 0.13613 0.33229 0.82196
 N792 N 0.13663 0.32106 0.83180
 C793 C 0.12501 0.31149 0.82910
 C794 C 0.11675 0.31705 0.81698
 C795 C 0.12411 0.33025 0.81268
 H796 H 0.12266 0.30131 0.83554
 H797 H 0.12093 0.33771 0.80346
 N798 N 0.16842 0.32070 0.86299
 N799 N 0.17876 0.33157 0.86330
 C800 C 0.18797 0.32932 0.87532
 C801 C 0.18321 0.31642 0.88287
 C802 C 0.17086 0.31120 0.87473
 H803 H 0.19742 0.33652 0.87843
 H804 H 0.16405 0.30132 0.87735
 H805 H 0.16877 0.33121 0.83601
 H806 H 0.15668 0.34278 0.84898
 N807 N 0.17870 0.86347 0.33166
 N808 N 0.16791 0.86350 0.32130
 C809 C 0.17003 0.87544 0.31195
 C810 C 0.18285 0.88318 0.31670
 C811 C 0.18810 0.87525 0.32916
 H812 H 0.16286 0.87831 0.30240
 H813 H 0.19799 0.87792 0.33594
 Cu814 Cu 0.15216 0.84794 0.32140
 Cu815 Cu 0.17969 0.84842 0.34789
 Cu816 Cu 0.15314 0.81943 0.34644
 N817 N 0.13646 0.83229 0.32149
 N818 N 0.13691 0.82118 0.33146
 C819 C 0.12506 0.81182 0.32909
 C820 C 0.11667 0.81741 0.31707
 C821 C 0.12420 0.83042 0.31249
 H822 H 0.12276 0.80163 0.33555
 H823 H 0.12104 0.83780 0.30320
 N824 N 0.16864 0.82091 0.36255
 N825 N 0.17871 0.83202 0.36314
 C826 C 0.18768 0.82995 0.37537
 C827 C 0.18302 0.81694 0.38280
 C828 C 0.17096 0.81148 0.37438
 H829 H 0.19700 0.83726 0.37860
 H830 H 0.16437 0.80139 0.37675
 H831 H 0.16992 0.83181 0.33530
 H832 H 0.15690 0.84262 0.34807
 C833 C 0.24417 1.04776 0.25496
 C834 C 0.25530 1.04773 0.24409
 C835 C 0.25862 1.03264 0.24099
 N836 N 0.24987 1.02353 0.24970
 C837 C 0.24100 1.03268 0.25826
 C838 C 0.26966 1.02775 0.23032
 C839 C 0.27338 1.01240 0.22713
 C840 C 0.28412 1.00778 0.21655
 C841 C 0.28428 0.99215 0.21672
 C842 C 0.27360 0.98756 0.22737
 N843 N 0.26712 0.99999 0.23365
 C844 C 0.27025 0.97220 0.23095
 C845 C 0.25913 0.96735 0.24157
 C846 C 0.25543 0.95228 0.24430
 C847 C 0.24415 0.95230 0.25502
 C848 C 0.24123 0.96738 0.25854
 N849 N 0.25042 0.97649 0.25030
 C850 C 0.23022 0.97227 0.26925
 C851 C 0.22659 0.98763 0.27252
 C852 C 0.21639 0.99225 0.28362
 C853 C 0.21633 1.00789 0.28355
 C854 C 0.22650 1.01247 0.27242
 N855 N 0.23247 1.00004 0.26565
 C856 C 0.23008 1.02783 0.26907
 H857 H 0.23902 1.05779 0.25986
 H858 H 0.26038 1.05774 0.23908
 H859 H 0.23975 1.00000 0.25653
 H860 H 0.29113 1.01493 0.20942
 H861 H 0.29146 0.98499 0.20977
 H862 H 0.26021 0.94227 0.23901
 H863 H 0.23864 0.94231 0.25957
 H864 H 0.20962 1.01505 0.29096
 H865 H 0.25904 1.00000 0.24204
 H866 H 0.20973 0.98511 0.29109
 C867 C 0.24411 0.45225 0.75537
 C868 C 0.25541 0.45228 0.74468
 C869 C 0.25878 0.46736 0.74165
 N870 N 0.24988 0.47649 0.75021
 C871 C 0.24088 0.46733 0.75861
 C872 C 0.26988 0.47225 0.73104
 C873 C 0.27356 0.48761 0.72787
 C874 C 0.28377 0.49222 0.71678
 C875 C 0.28376 0.50785 0.71678
 C876 C 0.27355 0.51245 0.72788
 N877 N 0.26763 0.50003 0.73473
 C878 C 0.26985 0.52782 0.73106
 C879 C 0.25872 0.53266 0.74166
 C880 C 0.25534 0.54773 0.74475
 C881 C 0.24403 0.54771 0.75544
 C882 C 0.24081 0.53262 0.75862
 N883 N 0.24981 0.52349 0.75017
 C884 C 0.22979 0.52774 0.76930
 C885 C 0.22616 0.51237 0.77253
 C886 C 0.21618 0.50776 0.78382
 C887 C 0.21619 0.49213 0.78382
 C888 C 0.22618 0.48754 0.77252
 N889 N 0.23194 0.49996 0.76554
 C890 C 0.22982 0.47217 0.76928
 H891 H 0.23888 0.44222 0.76016
 H892 H 0.26054 0.44226 0.73972
 H893 H 0.23887 0.49997 0.75610
 H894 H 0.29044 0.48507 0.70933
 H895 H 0.29041 0.51501 0.70933
 H896 H 0.26048 0.55776 0.73986
 H897 H 0.23880 0.55772 0.76028
 H898 H 0.20969 0.48498 0.79140
 H899 H 0.26039 0.50001 0.74391
 H900 H 0.20965 0.51491 0.79140
 C901 C 0.74440 -0.04788 0.24481
 C902 C 0.75549 -0.04791 0.25572
 C903 C 0.75877 -0.03284 0.25891
 N904 N 0.75000 -0.02369 0.25026
 C905 C 0.74117 -0.03279 0.24163
 C906 C 0.76969 -0.02799 0.26971
 C907 C 0.77308 -0.01263 0.27326
 C908 C 0.78404 -0.00805 0.28361
 C909 C 0.78412 0.00759 0.28355
 C910 C 0.77320 0.01222 0.27316
 N911 N 0.76651 -0.00019 0.26710
 C912 C 0.76993 0.02759 0.26950
 C913 C 0.75905 0.03248 0.25866
 C914 C 0.75543 0.04756 0.25583
 C915 C 0.74449 0.04758 0.24478
 C916 C 0.74169 0.03252 0.24112
 N917 N 0.75061 0.02338 0.24964
 C918 C 0.73090 0.02767 0.23018
 C919 C 0.72731 0.01232 0.22683
 C920 C 0.71678 0.00772 0.21605
 C921 C 0.71660 -0.00792 0.21623
 C922 C 0.72706 -0.01253 0.22709
 N923 N 0.73345 -0.00011 0.23344
 C924 C 0.73029 -0.02788 0.23079
 H925 H 0.73936 -0.05788 0.23976
 H926 H 0.76055 -0.05794 0.26072
 H927 H 0.74146 -0.00012 0.24188
 H928 H 0.79131 -0.01523 0.29046
 H929 H 0.79146 0.01473 0.29034
 H930 H 0.76004 0.05755 0.26128
 H931 H 0.73910 0.05760 0.24010
 H932 H 0.70955 -0.01508 0.20915
 H933 H 0.75782 -0.00016 0.25934
 H934 H 0.70991 0.01487 0.20879
 C935 C 0.74423 0.54760 0.74479
 C936 C 0.75552 0.54761 0.75549
 C937 C 0.75887 0.53253 0.75860
 N938 N 0.74997 0.52338 0.75008
 C939 C 0.74099 0.53252 0.74162
 C940 C 0.76998 0.52767 0.76921
 C941 C 0.77371 0.51230 0.77238
 C942 C 0.78404 0.50769 0.78335
 C943 C 0.78408 0.49205 0.78332
 C944 C 0.77377 0.48746 0.77233
 N945 N 0.76772 0.49988 0.76560
 C946 C 0.77013 0.47209 0.76910
 C947 C 0.75898 0.46723 0.75855
 C948 C 0.75554 0.45214 0.75559
 C949 C 0.74423 0.45214 0.74492
 C950 C 0.74105 0.46722 0.74163
 N951 N 0.75009 0.47636 0.74999
 C952 C 0.73000 0.47207 0.73096
 C953 C 0.72635 0.48744 0.72772
 C954 C 0.71628 0.49205 0.71651
 C955 C 0.71626 0.50768 0.71651
 C956 C 0.72633 0.51228 0.72772
 N957 N 0.73217 0.49986 0.73465
 C958 C 0.72995 0.52765 0.73096
 H959 H 0.73903 0.55762 0.73993
 H960 H 0.76067 0.55763 0.76038
 H961 H 0.73921 0.49986 0.74398
 H962 H 0.79079 0.51483 0.79073
 H963 H 0.79086 0.48489 0.79067
 H964 H 0.76063 0.44213 0.76059
 H965 H 0.73895 0.44212 0.74016
 H966 H 0.70966 0.51483 0.70899
 H967 H 0.76031 0.49989 0.75657
 H968 H 0.70969 0.48490 0.70899
 C969 C 0.25553 0.54775 0.25533
 C970 C 0.24427 0.54779 0.24459
 C971 C 0.24124 0.53273 0.24113
 N972 N 0.25032 0.52356 0.24946
 C973 C 0.25910 0.53266 0.25814
 C974 C 0.23019 0.52790 0.23045
 C975 C 0.22648 0.51255 0.22722
 C976 C 0.21603 0.50797 0.21635
 C977 C 0.21594 0.49233 0.21642
 C978 C 0.22633 0.48771 0.22733
 N979 N 0.23252 0.50012 0.23392
 C980 C 0.22992 0.47234 0.23064
 C981 C 0.24093 0.46742 0.24132
 C982 C 0.24435 0.45233 0.24429
 C983 C 0.25548 0.45228 0.25515
 C984 C 0.25857 0.46734 0.25856
 N985 N 0.24966 0.47651 0.25007
 C986 C 0.26952 0.47217 0.26935
 C987 C 0.27319 0.48752 0.27262
 C988 C 0.28365 0.49210 0.28348
 C989 C 0.28383 0.50774 0.28332
 C990 C 0.27343 0.51237 0.27241
 N991 N 0.26717 0.49996 0.26591
 C992 C 0.27014 0.52775 0.26881
 H993 H 0.26037 0.55774 0.26059
 H994 H 0.23883 0.55782 0.24000
 H995 H 0.25955 0.49998 0.25709
 H996 H 0.20922 0.51514 0.20904
 H997 H 0.20906 0.48519 0.20916
 H998 H 0.23938 0.44234 0.23915
 H999 H 0.26073 0.44224 0.25992
 H1000 H 0.29083 0.51487 0.29046
 H1001 H 0.24018 0.50010 0.24270
 H1002 H 0.29046 0.48493 0.29078
 C1003 C 0.75511 0.95255 0.74477
 C1004 C 0.74384 0.95261 0.75550
 C1005 C 0.74094 0.96769 0.75902
 N1006 N 0.75013 0.97678 0.75073
 C1007 C 0.75883 0.96761 0.74200
 C1008 C 0.72996 0.97260 0.76975
 C1009 C 0.72631 0.98797 0.77301
 C1010 C 0.71608 0.99260 0.78407
 C1011 C 0.71602 1.00824 0.78399
 C1012 C 0.72621 1.01281 0.77287
 N1013 N 0.73221 1.00037 0.76614
 C1014 C 0.72979 1.02817 0.76951
 C1015 C 0.74070 1.03300 0.75869
 C1016 C 0.74392 1.04806 0.75541
 C1017 C 0.75502 1.04801 0.74451
 C1018 C 0.75829 1.03292 0.74139
 N1019 N 0.74951 1.02382 0.75010
 C1020 C 0.76930 1.02800 0.73069
 C1021 C 0.77302 1.01264 0.72750
 C1022 C 0.78375 1.00802 0.71691
 C1023 C 0.78393 0.99238 0.71710
 C1024 C 0.77327 0.98779 0.72777
 N1025 N 0.76679 1.00023 0.73404
 C1026 C 0.76994 0.97243 0.73137
 H1027 H 0.75987 0.94253 0.73949
 H1028 H 0.73831 0.94263 0.76007
 H1029 H 0.75871 1.00026 0.74244
 H1030 H 0.70941 0.98546 0.79153
 H1031 H 0.70929 1.01541 0.79136
 H1032 H 0.73883 1.05810 0.76035
 H1033 H 0.76014 1.05801 0.73953
 H1034 H 0.79111 0.98523 0.71015
 H1035 H 0.73954 1.00032 0.75707
 H1036 H 0.79074 1.01517 0.70976
 C1037 C 0.74421 0.45228 0.25530
 C1038 C 0.75531 0.45227 0.24440
 C1039 C 0.75886 0.46734 0.24150
 N1040 N 0.75021 0.47648 0.25031
 C1041 C 0.74124 0.46736 0.25879
 C1042 C 0.76981 0.47221 0.23072
 C1043 C 0.77310 0.48757 0.22708
 C1044 C 0.78386 0.49218 0.21653
 C1045 C 0.78384 0.50782 0.21652
 C1046 C 0.77307 0.51242 0.22707
 N1047 N 0.76660 0.49999 0.23334
 C1048 C 0.76975 0.52777 0.23069
 C1049 C 0.75884 0.53266 0.24151
 C1050 C 0.75542 0.54774 0.24453
 C1051 C 0.74435 0.54775 0.25546
 C1052 C 0.74128 0.53267 0.25885
 N1053 N 0.75016 0.52354 0.25028
 C1054 C 0.73036 0.52781 0.26966
 C1055 C 0.72672 0.51245 0.27296
 C1056 C 0.71626 0.50785 0.28381
 C1057 C 0.71625 0.49220 0.28380
 C1058 C 0.72671 0.48760 0.27294
 N1059 N 0.73289 0.50002 0.26638
 C1060 C 0.73031 0.47224 0.26960
 H1061 H 0.73885 0.44227 0.26001
 H1062 H 0.76009 0.44226 0.23911
 H1063 H 0.74078 0.50001 0.25781
 H1064 H 0.79108 0.48503 0.20960
 H1065 H 0.79103 0.51498 0.20958
 H1066 H 0.76030 0.55775 0.23932
 H1067 H 0.73910 0.55777 0.26028
 H1068 H 0.70937 0.48505 0.29105
 H1069 H 0.75829 0.50000 0.24150
 H1070 H 0.70938 0.51501 0.29107
 C1071 C 0.24430 -0.04811 0.74470
 C1072 C 0.25544 -0.04816 0.75555
 C1073 C 0.25854 -0.03310 0.75896
 N1074 N 0.24963 -0.02393 0.75045
 C1075 C 0.24087 -0.03302 0.74174
 C1076 C 0.26956 -0.02828 0.76968
 C1077 C 0.27327 -0.01291 0.77290
 C1078 C 0.28405 -0.00831 0.78342
 C1079 C 0.28425 0.00734 0.78322
 C1080 C 0.27355 0.01196 0.77261
 N1081 N 0.26700 -0.00046 0.76642
 C1082 C 0.27024 0.02734 0.76898
 C1083 C 0.25921 0.03224 0.75827
 C1084 C 0.25550 0.04731 0.75556
 C1085 C 0.24437 0.04735 0.74470
 C1086 C 0.24154 0.03230 0.74105
 N1087 N 0.25064 0.02314 0.74937
 C1088 C 0.23062 0.02746 0.73022
 C1089 C 0.22700 0.01210 0.72694
 C1090 C 0.21659 0.00749 0.71605
 C1091 C 0.21639 -0.00815 0.71626
 C1092 C 0.22671 -0.01274 0.72725
 N1093 N 0.23298 -0.00031 0.73372
 C1094 C 0.22996 -0.02810 0.73094
 H1095 H 0.23943 -0.05810 0.73945
 H1096 H 0.26075 -0.05820 0.76027
 H1097 H 0.24060 -0.00032 0.74253
 H1098 H 0.29107 -0.01547 0.79054
 H1099 H 0.29147 0.01448 0.79013
 H1100 H 0.26016 0.05730 0.76098
 H1101 H 0.23887 0.05736 0.74015
 H1102 H 0.20943 -0.01531 0.70911
 H1103 H 0.25876 -0.00043 0.75819
 H1104 H 0.20981 0.01464 0.70869
 C1105 C 0.24481 0.25572 1.04783
 C1106 C 0.25575 0.24465 1.04785
 C1107 C 0.25859 0.24102 1.03279
 N1108 N 0.24968 0.24957 1.02366
 C1109 C 0.24123 0.25858 1.03277
 C1110 C 0.26936 0.23004 1.02794
 C1111 C 0.27294 0.22667 1.01259
 C1112 C 0.28331 0.21570 1.00800
 C1113 C 0.28332 0.21571 0.99236
 C1114 C 0.27296 0.22667 0.98775
 N1115 N 0.26683 0.23331 1.00017
 C1116 C 0.26937 0.23002 0.97240
 C1117 C 0.25856 0.24095 0.96753
 C1118 C 0.25565 0.24448 0.95246
 C1119 C 0.24467 0.25551 0.95245
 C1120 C 0.24114 0.25846 0.96751
 N1121 N 0.24966 0.24953 0.97664
 C1122 C 0.23026 0.26933 0.97236
 C1123 C 0.22695 0.27296 0.98771
 C1124 C 0.21602 0.28336 0.99230
 C1125 C 0.21605 0.28340 1.00794
 C1126 C 0.22699 0.27302 1.01255
 N1127 N 0.23360 0.26687 1.00013
 C1128 C 0.23035 0.26944 1.02790
 H1129 H 0.24015 0.26113 1.05783
 H1130 H 0.26110 0.23993 1.05785
 H1131 H 0.24227 0.25908 1.00014
 H1132 H 0.29011 0.20838 1.01515
 H1133 H 0.29013 0.20839 0.98521
 H1134 H 0.26097 0.23971 0.94246
 H1135 H 0.23994 0.26084 0.94243
 H1136 H 0.20876 0.29025 1.01509
 H1137 H 0.25903 0.24195 1.00016
 H1138 H 0.20870 0.29017 0.98515
 C1139 C 0.24487 0.75585 0.54754
 C1140 C 0.25563 0.74460 0.54755
 C1141 C 0.25841 0.74094 0.53249
 N1142 N 0.24966 0.74965 0.52336
 C1143 C 0.24135 0.75879 0.53247
 C1144 C 0.26909 0.72987 0.52763
 C1145 C 0.27267 0.72654 0.51227
 C1146 C 0.28353 0.71606 0.50768
 C1147 C 0.28370 0.71623 0.49204
 C1148 C 0.27290 0.72676 0.48744
 N1149 N 0.26622 0.73286 0.49985
 C1150 C 0.26967 0.73046 0.47208
 C1151 C 0.25888 0.74141 0.46721
 C1152 C 0.25563 0.74460 0.45214
 C1153 C 0.24468 0.75567 0.45213
 C1154 C 0.24149 0.75894 0.46720
 N1155 N 0.25019 0.75019 0.47634
 C1156 C 0.23066 0.76985 0.47206
 C1157 C 0.22738 0.77347 0.48742
 C1158 C 0.21625 0.78366 0.49203
 C1159 C 0.21622 0.78362 0.50765
 C1160 C 0.22732 0.77341 0.51226
 N1161 N 0.23417 0.76750 0.49984
 C1162 C 0.23059 0.76976 0.52761
 H1163 H 0.24029 0.76133 0.55754
 H1164 H 0.26093 0.73982 0.55755
 H1165 H 0.24326 0.76018 0.49986
 H1166 H 0.29063 0.70902 0.51483
 H1167 H 0.29098 0.70937 0.48490
 H1168 H 0.26056 0.73947 0.44213
 H1169 H 0.23965 0.76070 0.44212
 H1170 H 0.20877 0.79030 0.51480
 H1171 H 0.25752 0.74062 0.49984
 H1172 H 0.20882 0.79035 0.48488
 C1173 C 0.24453 0.74484 -0.04774
 C1174 C 0.25558 0.75580 -0.04776
 C1175 C 0.25914 0.75871 -0.03271
 N1176 N 0.25058 0.74983 -0.02356
 C1177 C 0.24162 0.74132 -0.03266
 C1178 C 0.27007 0.76953 -0.02788
 C1179 C 0.27340 0.77314 -0.01253
 C1180 C 0.28431 0.78354 -0.00794
 C1181 C 0.28428 0.78357 0.00770
 C1182 C 0.27336 0.77318 0.01231
 N1183 N 0.26678 0.76701 -0.00010
 C1184 C 0.26999 0.76962 0.02767
 C1185 C 0.25906 0.75882 0.03256
 C1186 C 0.25551 0.75595 0.04763
 C1187 C 0.24448 0.74498 0.04766
 C1188 C 0.24157 0.74142 0.03260
 N1189 N 0.25051 0.74991 0.02346
 C1190 C 0.23071 0.73054 0.02777
 C1191 C 0.22712 0.72719 0.01242
 C1192 C 0.21673 0.71627 0.00783
 C1193 C 0.21674 0.71624 -0.00780
 C1194 C 0.22714 0.72715 -0.01242
 N1195 N 0.23325 0.73378 -0.00001
 C1196 C 0.23075 0.73046 -0.02778
 H1197 H 0.23917 0.74012 -0.05773
 H1198 H 0.26032 0.76110 -0.05778
 H1199 H 0.24105 0.74243 -0.00003
 H1200 H 0.29161 0.79036 -0.01509
 H1201 H 0.29156 0.79042 0.01485
 H1202 H 0.26025 0.76129 0.05762
 H1203 H 0.23914 0.74028 0.05767
 H1204 H 0.20991 0.70894 -0.01494
 H1205 H 0.25820 0.75914 -0.00008
 H1206 H 0.20989 0.70898 0.01499
 C1207 C 0.24454 0.24442 0.45223
 C1208 C 0.25535 0.25561 0.45221
 C1209 C 0.25882 0.25861 0.46727
 N1210 N 0.25043 0.24958 0.47641
 C1211 C 0.24169 0.24085 0.46730
 C1212 C 0.26958 0.26959 0.47210
 C1213 C 0.27280 0.27329 0.48745
 C1214 C 0.28377 0.28363 0.49204
 C1215 C 0.28370 0.28372 0.50767
 C1216 C 0.27268 0.27343 0.51228
 N1217 N 0.26602 0.26733 0.49987
 C1218 C 0.26937 0.26984 0.52764
 C1219 C 0.25855 0.25894 0.53253
 C1220 C 0.25541 0.25566 0.54761
 C1221 C 0.24445 0.24462 0.54763
 C1222 C 0.24114 0.24146 0.53257
 N1223 N 0.24980 0.25024 0.52342
 C1224 C 0.23031 0.23056 0.52772
 C1225 C 0.22708 0.22686 0.51237
 C1226 C 0.21625 0.21638 0.50778
 C1227 C 0.21643 0.21618 0.49215
 C1228 C 0.22734 0.22658 0.48754
 N1229 N 0.23380 0.23289 0.49995
 C1230 C 0.23096 0.22986 0.47218
 H1231 H 0.23926 0.23961 0.44224
 H1232 H 0.25999 0.26101 0.44220
 H1233 H 0.24255 0.24059 0.49995
 H1234 H 0.29116 0.29036 0.48488
 H1235 H 0.29102 0.29052 0.51481
 H1236 H 0.26049 0.26066 0.55761
 H1237 H 0.23954 0.23948 0.55765
 H1238 H 0.20931 0.20916 0.48501
 H1239 H 0.25711 0.25981 0.49987
 H1240 H 0.20894 0.20956 0.51494
 C1241 C 0.74475 0.75566 1.04780
 C1242 C 0.75544 0.74437 1.04778
 C1243 C 0.75852 0.74104 1.03270
 N1244 N 0.74998 0.74995 1.02358
 C1245 C 0.74153 0.75892 1.03273
 C1246 C 0.76914 0.72996 1.02781
 C1247 C 0.77232 0.72628 1.01246
 C1248 C 0.78346 0.71611 1.00786
 C1249 C 0.78348 0.71615 0.99224
 C1250 C 0.77234 0.72633 0.98765
 N1251 N 0.76544 0.73220 1.00006
 C1252 C 0.76917 0.73005 0.97231
 C1253 C 0.75851 0.74112 0.96746
 C1254 C 0.75537 0.74444 0.95240
 C1255 C 0.74462 0.75570 0.95241
 C1256 C 0.74146 0.75896 0.96749
 N1257 N 0.74998 0.75002 0.97662
 C1258 C 0.73078 0.76999 0.97237
 C1259 C 0.72759 0.77365 0.98773
 C1260 C 0.71636 0.78370 0.99235
 C1261 C 0.71638 0.78370 1.00797
 C1262 C 0.72763 0.77364 1.01255
 N1263 N 0.73457 0.76783 1.00013
 C1264 C 0.73085 0.76996 1.02790
 H1265 H 0.73993 0.76088 1.05783
 H1266 H 0.76037 0.73921 1.05778
 H1267 H 0.74395 0.76081 1.00011
 H1268 H 0.79094 0.70946 1.01500
 H1269 H 0.79098 0.70952 0.98509
 H1270 H 0.76027 0.73929 0.94238
 H1271 H 0.73973 0.76088 0.94241
 H1272 H 0.70884 0.79027 1.01513
 H1273 H 0.75620 0.73938 1.00008
 H1274 H 0.70880 0.79027 0.98521
 C1275 C 0.74460 0.25543 0.54771
 C1276 C 0.75537 0.24419 0.54772
 C1277 C 0.75818 0.24054 0.53267
 N1278 N 0.74944 0.24926 0.52353
 C1279 C 0.74111 0.25838 0.53264
 C1280 C 0.76888 0.22949 0.52782
 C1281 C 0.77253 0.22618 0.51248
 C1282 C 0.78337 0.21568 0.50790
 C1283 C 0.78360 0.21589 0.49227
 C1284 C 0.77285 0.22646 0.48765
 N1285 N 0.76616 0.23255 0.50005
 C1286 C 0.76968 0.23018 0.47229
 C1287 C 0.75889 0.24112 0.46740
 C1288 C 0.75566 0.24430 0.45233
 C1289 C 0.74470 0.25536 0.45230
 C1290 C 0.74148 0.25863 0.46737
 N1291 N 0.75019 0.24990 0.47651
 C1292 C 0.73065 0.26955 0.47221
 C1293 C 0.72731 0.27315 0.48757
 C1294 C 0.71625 0.28342 0.49214
 C1295 C 0.71616 0.28336 0.50777
 C1296 C 0.72716 0.27305 0.51240
 N1297 N 0.73399 0.26710 0.50000
 C1298 C 0.73037 0.26938 0.52776
 H1299 H 0.74002 0.26092 0.55770
 H1300 H 0.76066 0.23941 0.55773
 H1301 H 0.74297 0.25964 0.50003
 H1302 H 0.79042 0.20860 0.51506
 H1303 H 0.79089 0.20901 0.48514
 H1304 H 0.76061 0.23917 0.44232
 H1305 H 0.73968 0.26039 0.44227
 H1306 H 0.70874 0.29009 0.51491
 H1307 H 0.75752 0.24039 0.50002
 H1308 H 0.70891 0.29019 0.48497
 C1309 C 0.74440 0.24496 -0.04791
 C1310 C 0.75536 0.25601 -0.04793
 C1311 C 0.75853 0.25930 -0.03287
 N1312 N 0.74980 0.25060 -0.02373
 C1313 C 0.74113 0.24181 -0.03283
 C1314 C 0.76934 0.27022 -0.02803
 C1315 C 0.77270 0.27382 -0.01268
 C1316 C 0.78370 0.28413 -0.00811
 C1317 C 0.78382 0.28404 0.00752
 C1318 C 0.77288 0.27368 0.01215
 N1319 N 0.76609 0.26770 -0.00024
 C1320 C 0.76970 0.26997 0.02751
 C1321 C 0.75897 0.25898 0.03240
 C1322 C 0.75553 0.25600 0.04747
 C1323 C 0.74474 0.24480 0.04750
 C1324 C 0.74187 0.24120 0.03244
 N1325 N 0.75058 0.24992 0.02329
 C1326 C 0.73115 0.23019 0.02760
 C1327 C 0.72748 0.22691 0.01225
 C1328 C 0.71662 0.21645 0.00769
 C1329 C 0.71638 0.21665 -0.00794
 C1330 C 0.72715 0.22718 -0.01258
 N1331 N 0.73387 0.23325 -0.00019
 C1332 C 0.73033 0.23088 -0.02795
 H1333 H 0.73948 0.23981 -0.05791
 H1334 H 0.76041 0.26101 -0.05795
 H1335 H 0.74255 0.24102 -0.00022
 H1336 H 0.79100 0.29094 -0.01528
 H1337 H 0.79121 0.29079 0.01465
 H1338 H 0.76017 0.26143 0.05746
 H1339 H 0.73949 0.24000 0.05751
 H1340 H 0.70908 0.20980 -0.01507
 H1341 H 0.75722 0.26014 -0.00021
 H1342 H 0.70956 0.20940 0.01486
 C1343 C 0.75548 0.75595 0.45248
 C1344 C 0.74474 0.74471 0.45249
 C1345 C 0.74155 0.74146 0.46756
 N1346 N 0.75006 0.75038 0.47669
 C1347 C 0.75860 0.75926 0.46754
 C1348 C 0.73086 0.73045 0.47243
 C1349 C 0.72766 0.72678 0.48779
 C1350 C 0.71645 0.71671 0.49241
 C1351 C 0.71647 0.71670 0.50803
 C1352 C 0.72768 0.72678 0.51262
 N1353 N 0.73460 0.73261 0.50020
 C1354 C 0.73090 0.73043 0.52797
 C1355 C 0.74160 0.74145 0.53281
 C1356 C 0.74479 0.74472 0.54788
 C1357 C 0.75554 0.75595 0.54786
 C1358 C 0.75867 0.75924 0.53278
 N1359 N 0.75011 0.75035 0.52366
 C1360 C 0.76933 0.77027 0.52790
 C1361 C 0.77251 0.77396 0.51255
 C1362 C 0.78364 0.78412 0.50794
 C1363 C 0.78362 0.78413 0.49232
 C1364 C 0.77248 0.77398 0.48774
 N1365 N 0.76561 0.76809 0.50015
 C1366 C 0.76927 0.77030 0.47239
 H1367 H 0.76040 0.76108 0.44246
 H1368 H 0.73987 0.73953 0.44247
 H1369 H 0.75639 0.76090 0.50016
 H1370 H 0.70892 0.71012 0.48527
 H1371 H 0.70895 0.71012 0.51519
 H1372 H 0.73991 0.73956 0.55791
 H1373 H 0.76047 0.76110 0.55786
 H1374 H 0.79110 0.79077 0.48516
 H1375 H 0.74392 0.73968 0.50018
 H1376 H 0.79114 0.79075 0.51507
 C1377 C 1.04781 0.25566 0.24469
 C1378 C 1.04777 0.24471 0.25573
 C1379 C 1.03266 0.24147 0.25886
 N1380 N 1.02355 0.25009 0.25001
 C1381 C 1.03272 0.25879 0.24132
 C1382 C 1.02774 0.23060 0.26970
 C1383 C 1.01235 0.22696 0.27294
 C1384 C 1.00773 0.21625 0.28353
 C1385 C 0.99206 0.21614 0.28339
 C1386 C 0.98746 0.22682 0.27276
 N1387 N 0.99992 0.23328 0.26649
 C1388 C 0.97208 0.23015 0.26912
 C1389 C 0.96723 0.24120 0.25844
 C1390 C 0.95214 0.24456 0.25530
 C1391 C 0.95218 0.25583 0.24458
 C1392 C 0.96729 0.25913 0.24148
 N1393 N 0.97640 0.25014 0.24997
 C1394 C 0.97221 0.27016 0.23081
 C1395 C 0.98760 0.27343 0.22719
 C1396 C 0.99223 0.28397 0.21644
 C1397 C 1.00790 0.28384 0.21635
 C1398 C 1.01249 0.27326 0.22709
 N1399 N 1.00003 0.26706 0.23359
 C1400 C 1.02787 0.26964 0.23043
 H1401 H 1.05787 0.26076 0.23978
 H1402 H 1.05779 0.23972 0.26083
 H1403 H 1.00001 0.25907 0.24206
 H1404 H 1.01488 0.20921 0.29063
 H1405 H 0.98489 0.20899 0.29035
 H1406 H 0.94209 0.23947 0.26024
 H1407 H 0.94216 0.26095 0.23961
 H1408 H 1.01508 0.29077 0.20917
 H1409 H 0.99994 0.24149 0.25825
 H1410 H 0.98508 0.29105 0.20938
 C1411 C 0.45195 0.25573 0.74478
 C1412 C 0.45192 0.24448 0.75551
 C1413 C 0.46702 0.24106 0.75858
 N1414 N 0.47618 0.24994 0.75005
 C1415 C 0.46706 0.25895 0.74159
 C1416 C 0.47188 0.23000 0.76926
 C1417 C 0.48727 0.22668 0.77289
 C1418 C 0.49187 0.21596 0.78348
 C1419 C 0.50754 0.21609 0.78362
 C1420 C 0.51216 0.22684 0.77308
 N1421 N 0.49972 0.23319 0.76667
 C1422 C 0.52755 0.23050 0.76983
 C1423 C 0.53245 0.24133 0.75895
 C1424 C 0.54756 0.24452 0.75573
 C1425 C 0.54758 0.25543 0.74464
 C1426 C 0.53249 0.25859 0.74133
 N1427 N 0.52333 0.24994 0.75010
 C1428 C 0.52762 0.26941 0.73042
 C1429 C 0.51224 0.27303 0.72709
 C1430 C 0.50764 0.28361 0.71636
 C1431 C 0.49197 0.28374 0.71647
 C1432 C 0.48735 0.27320 0.72723
 N1433 N 0.49979 0.26683 0.73361
 C1434 C 0.47197 0.26994 0.73088
 H1435 H 0.44193 0.26090 0.73986
 H1436 H 0.44188 0.23946 0.76051
 H1437 H 0.49978 0.25882 0.74205
 H1438 H 0.48471 0.20877 0.79041
 H1439 H 0.51470 0.20903 0.79070
 H1440 H 0.55759 0.23951 0.76079
 H1441 H 0.55762 0.26046 0.73964
 H1442 H 0.48482 0.29082 0.70941
 H1443 H 0.49973 0.24150 0.75853
 H1444 H 0.51481 0.29054 0.70917
 C1445 C -0.04794 0.24424 0.74461
 C1446 C -0.04796 0.25562 0.75518
 C1447 C -0.03286 0.25893 0.75830
 N1448 N -0.02368 0.24991 0.74993
 C1449 C -0.03283 0.24091 0.74152
 C1450 C -0.02800 0.27007 0.76885
 C1451 C -0.01261 0.27367 0.77210
 C1452 C -0.00801 0.28370 0.78332
 C1453 C 0.00764 0.28365 0.78337
 C1454 C 0.01226 0.27358 0.77217
 N1455 N -0.00017 0.26780 0.76520
 C1456 C 0.02766 0.26988 0.76900
 C1457 C 0.03253 0.25879 0.75840
 C1458 C 0.04764 0.25550 0.75524
 C1459 C 0.04764 0.24419 0.74460
 C1460 C 0.03254 0.24086 0.74151
 N1461 N 0.02338 0.24981 0.74998
 C1462 C 0.02767 0.22977 0.73092
 C1463 C 0.01229 0.22610 0.72775
 C1464 C 0.00769 0.21599 0.71659
 C1465 C -0.00796 0.21599 0.71661
 C1466 C -0.01257 0.22610 0.72778
 N1467 N -0.00014 0.23195 0.73468
 C1468 C -0.02795 0.22977 0.73098
 H1469 H -0.05797 0.23904 0.73976
 H1470 H -0.05800 0.26084 0.76001
 H1471 H -0.00015 0.23903 0.74398
 H1472 H -0.01518 0.29029 0.79083
 H1473 H 0.01479 0.29019 0.79092
 H1474 H 0.05768 0.26071 0.76006
 H1475 H 0.05768 0.23902 0.73971
 H1476 H -0.01512 0.20940 0.70911
 H1477 H -0.00015 0.26078 0.75584
 H1478 H 0.01485 0.20940 0.70908
 C1479 C 0.54802 0.24410 0.24448
 C1480 C 0.54802 0.25541 0.25513
 C1481 C 0.53292 0.25872 0.25827
 N1482 N 0.52375 0.24977 0.24983
 C1483 C 0.53291 0.24080 0.24137
 C1484 C 0.52805 0.26982 0.26886
 C1485 C 0.51266 0.27347 0.27207
 C1486 C 0.50804 0.28354 0.28326
 C1487 C 0.49239 0.28354 0.28327
 C1488 C 0.48779 0.27346 0.27208
 N1489 N 0.50023 0.26763 0.26515
 C1490 C 0.47240 0.26980 0.26889
 C1491 C 0.46753 0.25870 0.25830
 C1492 C 0.45243 0.25542 0.25516
 C1493 C 0.45243 0.24407 0.24456
 C1494 C 0.46753 0.24073 0.24146
 N1495 N 0.47669 0.24970 0.24990
 C1496 C 0.47241 0.22961 0.23090
 C1497 C 0.48779 0.22596 0.22768
 C1498 C 0.49241 0.21586 0.21651
 C1499 C 0.50805 0.21590 0.21647
 C1500 C 0.51266 0.22602 0.22762
 N1501 N 0.50022 0.23185 0.23456
 C1502 C 0.52804 0.22971 0.23079
 H1503 H 0.55805 0.23890 0.23962
 H1504 H 0.55806 0.26058 0.25999
 H1505 H 0.50023 0.23894 0.24385
 H1506 H 0.51519 0.29012 0.29079
 H1507 H 0.48522 0.29012 0.29079
 H1508 H 0.44239 0.26065 0.25999
 H1509 H 0.44240 0.23889 0.23970
 H1510 H 0.51522 0.20931 0.20895
 H1511 H 0.50022 0.26059 0.25582
 H1512 H 0.48525 0.20924 0.20903
 C1513 C 1.04780 0.74437 0.75550
 C1514 C 1.04784 0.75552 0.74466
 C1515 C 1.03275 0.75876 0.74140
 N1516 N 1.02357 0.74994 0.74998
 C1517 C 1.03268 0.74111 0.75862
 C1518 C 1.02790 0.76976 0.73068
 C1519 C 1.01253 0.77348 0.72745
 C1520 C 1.00793 0.78403 0.71668
 C1521 C 0.99227 0.78422 0.71684
 C1522 C 0.98764 0.77375 0.72766
 N1523 N 1.00007 0.76741 0.73411
 C1524 C 0.97225 0.77045 0.73124
 C1525 C 0.96734 0.75935 0.74183
 C1526 C 0.95224 0.75570 0.74455
 C1527 C 0.95221 0.74441 0.75523
 C1528 C 0.96729 0.74142 0.75876
 N1529 N 0.97646 0.75057 0.75053
 C1530 C 0.97213 0.73039 0.76944
 C1531 C 0.98751 0.72671 0.77270
 C1532 C 0.99210 0.71648 0.78377
 C1533 C 1.00776 0.71640 0.78372
 C1534 C 1.01238 0.72658 0.77263
 N1535 N 0.99995 0.73259 0.76586
 C1536 C 1.02777 0.73016 0.76934
 H1537 H 1.05782 0.73928 0.76051
 H1538 H 1.05789 0.76067 0.73979
 H1539 H 0.99996 0.73989 0.75677
 H1540 H 1.01511 0.79089 0.70944
 H1541 H 0.98512 0.79128 0.70975
 H1542 H 0.94223 0.76052 0.73927
 H1543 H 0.94217 0.73893 0.75977
 H1544 H 1.01491 0.70967 0.79112
 H1545 H 1.00006 0.75967 0.74282
 H1546 H 0.98493 0.70982 0.79121
 C1547 C 0.54799 0.75568 0.24488
 C1548 C 0.54796 0.74437 0.25553
 C1549 C 0.53284 0.74113 0.25866
 N1550 N 0.52371 0.75011 0.25021
 C1551 C 0.53290 0.75904 0.24175
 C1552 C 0.52794 0.73007 0.26928
 C1553 C 0.51255 0.72643 0.27245
 C1554 C 0.50791 0.71641 0.28369
 C1555 C 0.49226 0.71640 0.28364
 C1556 C 0.48767 0.72642 0.27238
 N1557 N 0.50013 0.73222 0.26545
 C1558 C 0.47229 0.73005 0.26911
 C1559 C 0.46745 0.74113 0.25848
 C1560 C 0.45236 0.74438 0.25523
 C1561 C 0.45240 0.75570 0.24458
 C1562 C 0.46752 0.75906 0.24158
 N1563 N 0.47664 0.75013 0.25010
 C1564 C 0.47242 0.77018 0.23102
 C1565 C 0.48782 0.77384 0.22787
 C1566 C 0.49245 0.78400 0.21675
 C1567 C 0.50810 0.78399 0.21679
 C1568 C 0.51268 0.77383 0.22792
 N1569 N 0.50023 0.76794 0.23477
 C1570 C 0.52806 0.77014 0.23114
 H1571 H 0.55804 0.76084 0.24002
 H1572 H 0.55798 0.73915 0.26039
 H1573 H 0.50020 0.76077 0.24400
 H1574 H 0.51506 0.70986 0.29126
 H1575 H 0.48508 0.70986 0.29118
 H1576 H 0.44231 0.73916 0.26001
 H1577 H 0.44238 0.76084 0.23963
 H1578 H 0.51528 0.79063 0.20934
 H1579 H 0.50015 0.73917 0.25605
 H1580 H 0.48531 0.79064 0.20926
 C1581 C -0.04808 0.74456 0.24466
 C1582 C -0.04806 0.75588 0.25532
 C1583 C -0.03295 0.75914 0.25846
 N1584 N -0.02383 0.75009 0.25004
 C1585 C -0.03299 0.74115 0.24158
 C1586 C -0.02804 0.77018 0.26911
 C1587 C -0.01265 0.77344 0.27274
 C1588 C -0.00802 0.78396 0.28350
 C1589 C 0.00765 0.78380 0.28362
 C1590 C 0.01226 0.77323 0.27288
 N1591 N -0.00020 0.76706 0.26635
 C1592 C 0.02764 0.76959 0.26956
 C1593 C 0.03250 0.75874 0.25868
 C1594 C 0.04759 0.75559 0.25532
 C1595 C 0.04755 0.74465 0.24428
 C1596 C 0.03244 0.74141 0.24113
 N1597 N 0.02333 0.75004 0.24998
 C1598 C 0.02752 0.73055 0.23031
 C1599 C 0.01214 0.72689 0.22709
 C1600 C 0.00751 0.71615 0.21654
 C1601 C -0.00815 0.71602 0.21671
 C1602 C -0.01275 0.72673 0.22731
 N1603 N -0.00030 0.73322 0.23353
 C1604 C -0.02813 0.73005 0.23095
 H1605 H -0.05813 0.73948 0.23971
 H1606 H -0.05808 0.76105 0.26022
 H1607 H -0.00028 0.74146 0.24174
 H1608 H -0.01517 0.79105 0.29056
 H1609 H 0.01483 0.79071 0.29081
 H1610 H 0.05764 0.76065 0.26026
 H1611 H 0.05757 0.73964 0.23919
 H1612 H -0.01532 0.70884 0.20978
 H1613 H -0.00022 0.75911 0.25786
 H1614 H 0.01467 0.70912 0.20943
 C1615 C 0.45208 0.74448 0.74494
 C1616 C 0.45207 0.75576 0.75564
 C1617 C 0.46717 0.75890 0.75894
 N1618 N 0.47632 0.74986 0.75056
 C1619 C 0.46719 0.74099 0.74199
 C1620 C 0.47204 0.77000 0.76954
 C1621 C 0.48742 0.77366 0.77278
 C1622 C 0.49202 0.78415 0.78359
 C1623 C 0.50769 0.78419 0.78355
 C1624 C 0.51232 0.77373 0.77271
 N1625 N 0.49987 0.76754 0.76616
 C1626 C 0.52771 0.77007 0.76945
 C1627 C 0.53260 0.75910 0.75871
 C1628 C 0.54771 0.75576 0.75560
 C1629 C 0.54771 0.74467 0.74470
 C1630 C 0.53261 0.74154 0.74140
 N1631 N 0.52346 0.75039 0.74999
 C1632 C 0.52774 0.73060 0.73062
 C1633 C 0.51236 0.72695 0.72738
 C1634 C 0.50774 0.71652 0.71652
 C1635 C 0.49208 0.71635 0.71671
 C1636 C 0.48747 0.72672 0.72764
 N1637 N 0.49991 0.73297 0.73412
 C1638 C 0.47208 0.72998 0.73130
 H1639 H 0.44206 0.73957 0.73980
 H1640 H 0.44204 0.76111 0.76035
 H1641 H 0.49993 0.74057 0.74294
 H1642 H 0.48485 0.79101 0.79084
 H1643 H 0.51485 0.79108 0.79077
 H1644 H 0.55774 0.76077 0.76063
 H1645 H 0.55775 0.73949 0.73983
 H1646 H 0.48492 0.70936 0.70958
 H1647 H 0.49987 0.75977 0.75748
 H1648 H 0.51490 0.70971 0.70920
 C1649 C 0.42247 0.29793 0.29786
 N1650 N 0.41469 0.29054 0.30892
 N1651 N 0.40214 0.29659 0.31488
 C1652 C 0.39687 0.31021 0.30993
 N1653 N 0.40463 0.31759 0.29883
 N1654 N 0.41721 0.31156 0.29291
 C1655 C 0.43609 0.29105 0.29105
 N1656 N 0.44423 0.29861 0.28035
 N1657 N 0.45616 0.29206 0.27368
 C1658 C 0.46038 0.27774 0.27752
 N1659 N 0.45232 0.27022 0.28830
 N1660 N 0.44043 0.27678 0.29499
 C1661 C 0.42203 0.79839 0.79813
 N1662 N 0.41613 0.81145 0.79241
 N1663 N 0.40354 0.81748 0.79832
 C1664 C 0.39638 0.81069 0.81018
 N1665 N 0.40233 0.79765 0.81591
 N1666 N 0.41489 0.79159 0.80998
 C1667 C 0.43565 0.79149 0.79134
 N1668 N 0.44057 0.77765 0.79605
 N1669 N 0.45249 0.77105 0.78943
 C1670 C 0.45999 0.77811 0.77797
 N1671 N 0.45515 0.79198 0.77330
 N1672 N 0.44320 0.79857 0.77990
 C1673 C -0.07784 0.29836 0.79784
 N1674 N -0.08318 0.31193 0.79281
 N1675 N -0.09583 0.31790 0.79864
 C1676 C -0.10360 0.31052 0.80973
 N1677 N -0.09821 0.29700 0.81483
 N1678 N -0.08560 0.29100 0.80896
 C1679 C -0.06423 0.29147 0.79103
 N1680 N -0.05991 0.27721 0.79499
 N1681 N -0.04806 0.27060 0.78828
 C1682 C -0.04003 0.27806 0.77744
 N1683 N -0.04424 0.29237 0.77355
 N1684 N -0.05613 0.29897 0.78025
 C1685 C -0.07797 0.79895 0.29744
 N1686 N -0.08574 0.81015 0.29022
 N1687 N -0.09832 0.81600 0.29631
 C1688 C -0.10363 0.81081 0.30981
 N1689 N -0.09587 0.79961 0.31704
 N1690 N -0.08327 0.79379 0.31097
 C1691 C -0.06436 0.79219 0.29051
 N1692 N -0.05628 0.78133 0.29793
 N1693 N -0.04436 0.77470 0.29134
 C1694 C -0.04006 0.77875 0.27711
 N1695 N -0.04807 0.78964 0.26970
 N1696 N -0.05997 0.79629 0.27631
 C1697 C 0.57769 0.70191 0.29853
 N1698 N 0.58286 0.68818 0.29375
 N1699 N 0.59537 0.68211 0.29978
 C1700 C 0.60315 0.68954 0.31082
 N1701 N 0.59796 0.70325 0.31561
 N1702 N 0.58549 0.70934 0.30955
 C1703 C 0.56416 0.70883 0.29160
 N1704 N 0.55989 0.72315 0.29541
 N1705 N 0.54803 0.72971 0.28866
 C1706 C 0.53995 0.72214 0.27795
 N1707 N 0.54412 0.70779 0.27420
 N1708 N 0.55601 0.70124 0.28093
 C1709 C 0.57746 0.20197 0.79841
 N1710 N 0.58525 0.20923 0.80955
 N1711 N 0.59778 0.20311 0.81544
 C1712 C 0.60305 0.18953 0.81037
 N1713 N 0.59526 0.18225 0.79923
 N1714 N 0.58269 0.18836 0.79337
 C1715 C 0.56387 0.20896 0.79166
 N1716 N 0.55577 0.20157 0.78083
 N1717 N 0.54384 0.20821 0.77425
 C1718 C 0.53958 0.22245 0.77833
 N1719 N 0.54763 0.22982 0.78920
 N1720 N 0.55952 0.22317 0.79579
 C1721 C 1.07754 0.70191 0.79834
 N1722 N 1.08516 0.70918 0.80958
 N1723 N 1.09770 0.70313 0.81555
 C1724 C 1.10312 0.68964 0.81043
 N1725 N 1.09552 0.68237 0.79916
 N1726 N 1.08295 0.68840 0.79323
 C1727 C 1.06396 0.70880 0.79152
 N1728 N 1.05597 0.70136 0.78063
 N1729 N 1.04408 0.70794 0.77394
 C1730 C 1.03975 0.72217 0.77795
 N1731 N 1.04765 0.72958 0.78890
 N1732 N 1.05951 0.72299 0.79561
 C1733 C 1.07754 0.20204 0.29834
 N1734 N 1.08518 0.20923 0.30962
 N1735 N 1.09772 0.20313 0.31553
 C1736 C 1.10312 0.18966 0.31033
 N1737 N 1.09548 0.18246 0.29904
 N1738 N 1.08291 0.18854 0.29316
 C1739 C 1.06396 0.20901 0.29158
 N1740 N 1.05597 0.20169 0.28061
 N1741 N 1.04407 0.20835 0.27401
 C1742 C 1.03973 0.22253 0.27820
 N1743 N 1.04765 0.22982 0.28921
 N1744 N 1.05951 0.22315 0.29583
 C1745 C 0.57754 0.29786 0.70183
 N1746 N 0.58274 0.31149 0.70682
 N1747 N 0.59530 0.31757 0.70093
 C1748 C 0.60310 0.31025 0.68982
 N1749 N 0.59789 0.29664 0.68482
 N1750 N 0.58537 0.29054 0.69075
 C1751 C 0.56394 0.29091 0.70857
 N1752 N 0.55967 0.27666 0.70453
 N1753 N 0.54778 0.27002 0.71113
 C1754 C 0.53966 0.27744 0.72192
 N1755 N 0.54381 0.29174 0.72589
 N1756 N 0.55573 0.29837 0.71930
 C1757 C 0.57791 0.79826 0.20207
 N1758 N 0.58312 0.81194 0.20692
 N1759 N 0.59563 0.81799 0.20091
 C1760 C 0.60338 0.81060 0.18980
 N1761 N 0.59815 0.79695 0.18493
 N1762 N 0.58567 0.79087 0.19098
 C1763 C 0.56437 0.79135 0.20897
 N1764 N 0.56006 0.77708 0.20507
 N1765 N 0.54818 0.77053 0.21178
 C1766 C 0.54011 0.77806 0.22254
 N1767 N 0.54433 0.79237 0.22638
 N1768 N 0.55624 0.79891 0.21969
 C1769 C 1.07775 0.29814 0.20182
 N1770 N 1.08573 0.29070 0.19093
 N1771 N 1.09811 0.29693 0.18483
 C1772 C 1.10301 0.31079 0.18944
 N1773 N 1.09505 0.31822 0.20037
 N1774 N 1.08264 0.31202 0.20644
 C1775 C 1.06424 0.29112 0.20866
 N1776 N 1.05585 0.29868 0.21918
 N1777 N 1.04392 0.29205 0.22574
 C1778 C 1.03993 0.27765 0.22195
 N1779 N 1.04827 0.27012 0.21140
 N1780 N 1.06017 0.27676 0.20482
 C1781 C 1.07782 0.79805 0.70193
 N1782 N 1.08555 0.79073 0.69078
 N1783 N 1.09810 0.79676 0.68485
 C1784 C 1.10345 0.81030 0.68991
 N1785 N 1.09573 0.81764 0.70106
 N1786 N 1.08314 0.81163 0.70697
 C1787 C 1.06423 0.79115 0.70873
 N1788 N 1.05612 0.79861 0.71953
 N1789 N 1.04420 0.79202 0.72615
 C1790 C 1.03995 0.77776 0.72216
 N1791 N 1.04800 0.77032 0.71131
 N1792 N 1.05989 0.77693 0.70468
 C1793 C 0.42236 0.70129 0.70257
 N1794 N 0.41452 0.69015 0.70980
 N1795 N 0.40205 0.68422 0.70359
 C1796 C 0.39691 0.68927 0.68997
 N1797 N 0.40475 0.70041 0.68273
 N1798 N 0.41725 0.70631 0.68892
 C1799 C 0.43588 0.70809 0.70963
 N1800 N 0.44415 0.71878 0.70219
 N1801 N 0.45601 0.72539 0.70889
 C1802 C 0.46005 0.72150 0.72323
 N1803 N 0.45184 0.71077 0.73065
 N1804 N 0.44001 0.70414 0.72395
 C1805 C 0.42262 0.20146 0.20185
 N1806 N 0.41718 0.18797 0.20697
 N1807 N 0.40458 0.18201 0.20106
 C1808 C 0.39698 0.18931 0.18980
 N1809 N 0.40244 0.20278 0.18466
 N1810 N 0.41500 0.20877 0.19061
 C1811 C 0.43621 0.20832 0.20869
 N1812 N 0.44065 0.22251 0.20463
 N1813 N 0.45249 0.22908 0.21136
 C1814 C 0.46041 0.22165 0.22230
 N1815 N 0.45609 0.20740 0.22627
 N1816 N 0.44420 0.20084 0.21956
 C1817 C -0.07794 0.70116 0.20266
 N1818 N -0.08305 0.70612 0.18899
 N1819 N -0.09569 0.70036 0.18294
 C1820 C -0.10365 0.68943 0.19034
 N1821 N -0.09851 0.68442 0.20398
 N1822 N -0.08591 0.69022 0.21005
 C1823 C -0.06435 0.70791 0.20960
 N1824 N -0.06018 0.70409 0.22394
 N1825 N -0.04834 0.71079 0.23056
 C1826 C -0.04016 0.72147 0.22302
 N1827 N -0.04422 0.72521 0.20864
 N1828 N -0.05609 0.71853 0.20204
 C1829 C -0.07771 0.20154 0.70199
 N1830 N -0.08546 0.20890 0.69088
 N1831 N -0.09794 0.20281 0.68485
 C1832 C -0.10317 0.18918 0.68976
 N1833 N -0.09544 0.18181 0.70090
 N1834 N -0.08293 0.18788 0.70689
 C1835 C -0.06416 0.20845 0.70884
 N1836 N -0.05603 0.20092 0.71956
 N1837 N -0.04414 0.20750 0.72624
 C1838 C -0.03995 0.22181 0.72238
 N1839 N -0.04801 0.22931 0.71159
 N1840 N -0.05987 0.22272 0.70489
 C1841 C 0.29791 0.42219 0.29791
 N1842 N 0.31155 0.41697 0.29290
 N1843 N 0.31767 0.40445 0.29883
 C1844 C 0.31038 0.39672 0.31001
 N1845 N 0.29675 0.40195 0.31501
 N1846 N 0.29060 0.41442 0.30904
 C1847 C 0.29095 0.43579 0.29116
 N1848 N 0.27665 0.44005 0.29515
 N1849 N 0.27003 0.45195 0.28857
 C1850 C 0.27753 0.46012 0.27786
 N1851 N 0.29187 0.45597 0.27395
 N1852 N 0.29848 0.44403 0.28051
 C1853 C 0.29822 -0.07825 0.79812
 N1854 N 0.31143 -0.08396 0.79252
 N1855 N 0.31757 -0.09648 0.79845
 C1856 C 0.31075 -0.10374 0.81024
 N1857 N 0.29756 -0.09797 0.81586
 N1858 N 0.29139 -0.08551 0.80988
 C1859 C 0.29119 -0.06468 0.79134
 N1860 N 0.27703 -0.06025 0.79560
 N1861 N 0.27036 -0.04835 0.78905
 C1862 C 0.27768 -0.04035 0.77810
 N1863 N 0.29187 -0.04469 0.77388
 N1864 N 0.29852 -0.05664 0.78040
 C1865 C 0.79837 0.42231 0.79815
 N1866 N 0.81139 0.41629 0.79245
 N1867 N 0.81740 0.40378 0.79850
 C1868 C 0.81063 0.39682 0.81049
 N1869 N 0.79763 0.40290 0.81622
 N1870 N 0.79160 0.41538 0.81014
 C1871 C 0.79150 0.43585 0.79121
 N1872 N 0.77772 0.44096 0.79596
 N1873 N 0.77115 0.45282 0.78925
 C1874 C 0.77819 0.46009 0.77762
 N1875 N 0.79199 0.45506 0.77289
 N1876 N 0.79855 0.44317 0.77960
 C1877 C 0.79838 -0.07803 0.29786
 N1878 N 0.81024 -0.08521 0.29107
 N1879 N 0.81618 -0.09775 0.29716
 C1880 C 0.81042 -0.10362 0.31021
 N1881 N 0.79854 -0.09643 0.31697
 N1882 N 0.79264 -0.08387 0.31091
 C1883 C 0.79160 -0.06440 0.29098
 N1884 N 0.78011 -0.05691 0.29808
 N1885 N 0.77350 -0.04495 0.29155
 C1886 C 0.77820 -0.04003 0.27774
 N1887 N 0.78971 -0.04747 0.27065
 N1888 N 0.79634 -0.05940 0.27720
 C1889 C 0.29799 0.57772 0.70209
 N1890 N 0.31154 0.58310 0.70715
 N1891 N 0.31752 0.59570 0.70125
 C1892 C 0.31017 0.60337 0.69007
 N1893 N 0.29665 0.59795 0.68498
 N1894 N 0.29065 0.58539 0.69091
 C1895 C 0.29112 0.56411 0.70891
 N1896 N 0.27689 0.55969 0.70488
 N1897 N 0.27033 0.54781 0.71157
 C1898 C 0.27781 0.53984 0.72245
 N1899 N 0.29208 0.54416 0.72641
 N1900 N 0.29863 0.55607 0.71973
 C1901 C 0.29813 1.07755 0.20170
 N1902 N 0.31154 1.08304 0.20699
 N1903 N 0.31762 1.09555 0.20102
 C1904 C 0.31051 1.10300 0.18954
 N1905 N 0.29711 1.09750 0.18425
 N1906 N 0.29101 1.08502 0.19024
 C1907 C 0.29120 1.06400 0.20851
 N1908 N 0.27727 1.05922 0.20390
 N1909 N 0.27064 1.04734 0.21051
 C1910 C 0.27777 1.03974 0.22187
 N1911 N 0.29173 1.04444 0.22643
 N1912 N 0.29835 1.05634 0.21983
 C1913 C 0.79860 0.57754 0.20242
 N1914 N 0.80984 0.58524 0.20965
 N1915 N 0.81567 0.59783 0.20361
 C1916 C 0.81040 0.60322 0.19017
 N1917 N 0.79917 0.59552 0.18294
 N1918 N 0.79337 0.58291 0.18896
 C1919 C 0.79183 0.56395 0.20932
 N1920 N 0.78073 0.55614 0.20200
 N1921 N 0.77405 0.54426 0.20858
 C1922 C 0.77830 0.53977 0.22269
 N1923 N 0.78945 0.54751 0.22998
 N1924 N 0.79614 0.55936 0.22338
 C1925 C 0.79788 1.07766 0.70196
 N1926 N 0.81149 1.08291 0.70698
 N1927 N 0.81768 1.09530 0.70088
 C1928 C 0.81048 1.10287 0.68953
 N1929 N 0.79687 1.09761 0.68452
 N1930 N 0.79067 1.08525 0.69064
 C1931 C 0.79087 1.06419 0.70884
 N1932 N 0.77681 1.05962 0.70445
 N1933 N 0.77016 1.04776 0.71106
 C1934 C 0.77739 1.03998 0.72222
 N1935 N 0.79149 1.04447 0.72658
 N1936 N 0.79813 1.05636 0.71997
 C1937 C 0.70205 0.57766 0.29844
 N1938 N 0.70937 0.58532 0.30963
 N1939 N 0.70334 0.59786 0.31558
 C1940 C 0.68981 0.60327 0.31049
 N1941 N 0.68248 0.59563 0.29928
 N1942 N 0.68849 0.58304 0.29337
 C1943 C 0.70896 0.56408 0.29164
 N1944 N 0.70146 0.55599 0.28086
 N1945 N 0.70806 0.54408 0.27423
 C1946 C 0.72235 0.53982 0.27819
 N1947 N 0.72982 0.54785 0.28901
 N1948 N 0.72321 0.55972 0.29566
 C1949 C 0.70161 1.07811 0.79839
 N1950 N 0.70852 1.08532 0.81013
 N1951 N 0.70241 1.09779 0.81616
 C1952 C 0.68921 1.10360 0.81063
 N1953 N 0.68231 1.09640 0.79886
 N1954 N 0.68838 1.08388 0.79288
 C1955 C 0.70853 1.06454 0.79154
 N1956 N 0.70111 1.05663 0.78059
 N1957 N 0.70765 1.04469 0.77396
 C1958 C 0.72183 1.04022 0.77808
 N1959 N 0.72925 1.04809 0.78906
 N1960 N 0.72269 1.05999 0.79572
 C1961 C 0.20175 0.57757 0.79847
 N1962 N 0.20922 0.58538 0.80946
 N1963 N 0.20314 0.59784 0.81551
 C1964 C 0.18940 0.60301 0.81074
 N1965 N 0.18194 0.59523 0.79972
 N1966 N 0.18800 0.58273 0.79371
 C1967 C 0.20863 0.56400 0.79160
 N1968 N 0.20098 0.55583 0.78099
 N1969 N 0.20750 0.54392 0.77428
 C1970 C 0.22188 0.53974 0.77799
 N1971 N 0.22950 0.54782 0.78867
 N1972 N 0.22296 0.55970 0.79540
 C1973 C 0.20198 1.07776 0.29796
 N1974 N 0.20941 1.08553 0.30900
 N1975 N 0.20339 1.09809 0.31493
 C1976 C 0.18977 1.10340 0.30997
 N1977 N 0.18234 1.09563 0.29892
 N1978 N 0.18833 1.08304 0.29303
 C1979 C 0.20884 1.06414 0.29118
 N1980 N 0.20126 1.05599 0.28051
 N1981 N 0.20780 1.04407 0.27385
 C1982 C 0.22214 1.03985 0.27768
 N1983 N 0.22969 1.04791 0.28842
 N1984 N 0.22314 1.05981 0.29509
 C1985 C 0.70183 0.42225 0.70198
 N1986 N 0.68819 0.41700 0.70694
 N1987 N 0.68212 0.40449 0.70096
 C1988 C 0.68945 0.39680 0.68979
 N1989 N 0.70309 0.40206 0.68483
 N1990 N 0.70919 0.41452 0.69085
 C1991 C 0.70873 0.43582 0.70881
 N1992 N 0.72305 0.44010 0.70493
 N1993 N 0.72962 0.45196 0.71162
 C1994 C 0.72205 0.46006 0.72234
 N1995 N 0.70769 0.45591 0.72613
 N1996 N 0.70114 0.44401 0.71946
 C1997 C 0.70162 -0.07761 0.20237
 N1998 N 0.70721 -0.08328 0.18917
 N1999 N 0.70133 -0.09582 0.18311
 C2000 C 0.68965 -0.10315 0.19003
 N2001 N 0.68404 -0.09747 0.20321
 N2002 N 0.68994 -0.08494 0.20929
 C2003 C 0.70841 -0.06406 0.20929
 N2004 N 0.70361 -0.05910 0.22308
 N2005 N 0.71025 -0.04725 0.22970
 C2006 C 0.72184 -0.03986 0.22271
 N2007 N 0.72660 -0.04474 0.20890
 N2008 N 0.71997 -0.05662 0.20229
 C2009 C 0.20166 0.42253 0.20194
 N2010 N 0.20868 0.41529 0.19028
 N2011 N 0.20266 0.40280 0.18426
 C2012 C 0.18943 0.39704 0.18972
 N2013 N 0.18241 0.40426 0.20141
 N2014 N 0.18842 0.41678 0.20741
 C2015 C 0.20851 0.43610 0.20876
 N2016 N 0.20147 0.44349 0.22033
 N2017 N 0.20803 0.45540 0.22695
 C2018 C 0.22182 0.46038 0.22217
 N2019 N 0.22883 0.45306 0.21056
 N2020 N 0.22226 0.44117 0.20394
 C2021 C 0.20136 -0.07771 0.70223
 N2022 N 0.18965 -0.08504 0.70909
 N2023 N 0.18372 -0.09752 0.70293
 C2024 C 0.18933 -0.10315 0.68972
 N2025 N 0.20104 -0.09581 0.68286
 N2026 N 0.20695 -0.08332 0.68900
 C2027 C 0.20816 -0.06421 0.70923
 N2028 N 0.21970 -0.05670 0.70226
 N2029 N 0.22631 -0.04485 0.70894
 C2030 C 0.22155 -0.04007 0.72279
 N2031 N 0.21000 -0.04753 0.72975
 N2032 N 0.20337 -0.05936 0.72306
 C2033 C 0.29843 0.29770 0.42219
 N2034 N 0.30954 0.29035 0.41440
 N2035 N 0.31542 0.29638 0.40184
 C2036 C 0.31033 0.30995 0.39654
 N2037 N 0.29921 0.31729 0.40432
 N2038 N 0.29337 0.31129 0.41692
 C2039 C 0.29167 0.29082 0.43581
 N2040 N 0.28101 0.29841 0.44401
 N2041 N 0.27436 0.29186 0.45592
 C2042 C 0.27818 0.27752 0.46008
 N2043 N 0.28891 0.26997 0.45196
 N2044 N 0.29558 0.27653 0.44008
 C2045 C 0.29873 0.79776 -0.07787
 N2046 N 0.30985 0.79044 -0.08569
 N2047 N 0.31567 0.79648 -0.09828
 C2048 C 0.31053 0.81003 -0.10357
 N2049 N 0.29941 0.81734 -0.09577
 N2050 N 0.29362 0.81133 -0.08314
 C2051 C 0.29203 0.79086 -0.06422
 N2052 N 0.28137 0.79841 -0.05599
 N2053 N 0.27476 0.79184 -0.04406
 C2054 C 0.27863 0.77750 -0.03992
 N2055 N 0.28935 0.76999 -0.04808
 N2056 N 0.29597 0.77657 -0.05997
 C2057 C 0.79809 0.29851 -0.07791
 N2058 N 0.80945 0.29133 -0.08550
 N2059 N 0.81537 0.29741 -0.09802
 C2060 C 0.81009 0.31084 -0.10347
 N2061 N 0.79871 0.31800 -0.09590
 N2062 N 0.79283 0.31195 -0.08334
 C2063 C 0.79132 0.29160 -0.06431
 N2064 N 0.78034 0.29898 -0.05635
 N2065 N 0.77372 0.29240 -0.04444
 C2066 C 0.77788 0.27822 -0.04005
 N2067 N 0.78892 0.27087 -0.04793
 N2068 N 0.79556 0.27747 -0.05981
 C2069 C 0.79824 0.79846 0.42259
 N2070 N 0.80942 0.79116 0.41485
 N2071 N 0.81532 0.79723 0.40232
 C2072 C 0.81020 0.81077 0.39700
 N2073 N 0.79900 0.81806 0.40472
 N2074 N 0.79313 0.81202 0.41729
 C2075 C 0.79146 0.79158 0.43619
 N2076 N 0.78066 0.79909 0.44427
 N2077 N 0.77398 0.79253 0.45615
 C2078 C 0.77790 0.77825 0.46040
 N2079 N 0.78878 0.77077 0.45241
 N2080 N 0.79548 0.77734 0.44056
 C2081 C 0.70158 0.29763 0.57766
 N2082 N 0.70665 0.31120 0.58292
 N2083 N 0.70083 0.31723 0.59552
 C2084 C 0.68970 0.30992 0.60332
 N2085 N 0.68460 0.29637 0.59803
 N2086 N 0.69047 0.29031 0.58547
 C2087 C 0.70833 0.29072 0.56405
 N2088 N 0.70439 0.27644 0.55979
 N2089 N 0.71104 0.26985 0.54791
 C2090 C 0.72177 0.27737 0.53977
 N2091 N 0.72562 0.29169 0.54391
 N2092 N 0.71900 0.29826 0.55583
 C2093 C 0.70169 0.79803 1.07765
 N2094 N 0.69077 0.79056 1.08559
 N2095 N 0.68480 0.79665 1.09809
 C2096 C 0.68959 0.81039 1.10316
 N2097 N 0.70052 0.81786 1.09523
 N2098 N 0.70645 0.81179 1.08270
 C2099 C 0.70855 0.79113 1.06411
 N2100 N 0.71914 0.79877 1.05588
 N2101 N 0.72586 0.79224 1.04400
 C2102 C 0.72218 0.77785 1.03990
 N2103 N 0.71153 0.77024 1.04806
 N2104 N 0.70479 0.77678 1.05991
 C2105 C 0.20156 0.29782 1.07770
 N2106 N 0.19059 0.29042 1.08563
 N2107 N 0.18469 0.29652 1.09815
 C2108 C 0.18960 0.31021 1.10325
 N2109 N 0.20057 0.31761 1.09532
 N2110 N 0.20643 0.31153 1.08277
 C2111 C 0.20834 0.29086 1.06414
 N2112 N 0.21891 0.29843 1.05582
 N2113 N 0.22554 0.29182 1.04393
 C2114 C 0.22178 0.27743 1.03991
 N2115 N 0.21117 0.26989 1.04816
 N2116 N 0.20452 0.27651 1.06002
 C2117 C 0.20166 0.79792 0.57745
 N2118 N 0.20658 0.81158 0.58261
 N2119 N 0.20073 0.81760 0.59520
 C2120 C 0.18975 0.81018 0.60308
 N2121 N 0.18480 0.79653 0.59791
 N2122 N 0.19069 0.79049 0.58535
 C2123 C 0.20843 0.79103 0.56385
 N2124 N 0.20464 0.77669 0.55967
 N2125 N 0.21133 0.77012 0.54781
 C2126 C 0.22196 0.77770 0.53962
 N2127 N 0.22567 0.79209 0.54367
 N2128 N 0.21899 0.79865 0.55557
 C2129 C 0.29761 0.70142 0.57757
 N2130 N 0.31130 0.70639 0.58270
 N2131 N 0.31738 0.70058 0.59528
 C2132 C 0.31001 0.68958 0.60319
 N2133 N 0.29635 0.68459 0.59804
 N2134 N 0.29024 0.69044 0.58550
 C2135 C 0.29065 0.70811 0.56396
 N2136 N 0.27631 0.70419 0.55982
 N2137 N 0.26966 0.71075 0.54793
 C2138 C 0.27715 0.72138 0.53966
 N2139 N 0.29153 0.72524 0.54371
 N2140 N 0.29817 0.71870 0.55563
 C2141 C 0.29770 0.20121 1.07773
 N2142 N 0.31147 0.20604 1.08276
 N2143 N 0.31759 0.20015 1.09528
 C2144 C 0.31018 0.18919 1.10321
 N2145 N 0.29644 0.18434 1.09816
 N2146 N 0.29029 0.19027 1.08567
 C2147 C 0.29073 0.20800 1.06419
 N2148 N 0.27632 0.20427 1.06011
 N2149 N 0.26971 0.21093 1.04825
 C2150 C 0.27732 0.22146 1.03996
 N2151 N 0.29177 0.22513 1.04394
 N2152 N 0.29836 0.21849 1.05583
 C2153 C 0.79817 0.70179 1.07754
 N2154 N 0.80936 0.70907 1.08524
 N2155 N 0.81535 0.70298 1.09772
 C2156 C 0.81029 0.68941 1.10302
 N2157 N 0.79906 0.68214 1.09535
 N2158 N 0.79311 0.68821 1.08283
 C2159 C 0.79135 0.70868 1.06398
 N2160 N 0.78052 0.70119 1.05595
 N2161 N 0.77383 0.70774 1.04407
 C2162 C 0.77778 0.72200 1.03978
 N2163 N 0.78868 0.72946 1.04773
 N2164 N 0.79539 0.72289 1.05959
 C2165 C 0.79744 0.20097 0.57767
 N2166 N 0.81116 0.20590 0.58273
 N2167 N 0.81726 0.20010 0.59531
 C2168 C 0.80988 0.18914 0.60325
 N2169 N 0.79620 0.18417 0.59816
 N2170 N 0.79007 0.19001 0.58562
 C2171 C 0.79044 0.20769 0.56409
 N2172 N 0.77608 0.20382 0.56001
 N2173 N 0.76941 0.21040 0.54814
 C2174 C 0.77692 0.22100 0.53985
 N2175 N 0.79133 0.22481 0.54384
 N2176 N 0.79798 0.21824 0.55575
 C2177 C 0.70175 0.70236 0.42266
 N2178 N 0.70667 0.68868 0.41750
 N2179 N 0.70078 0.68263 0.40495
 C2180 C 0.68974 0.69003 0.39710
 N2181 N 0.68479 0.70369 0.40228
 N2182 N 0.69072 0.70976 0.41480
 C2183 C 0.70857 0.70925 0.43623
 N2184 N 0.70472 0.72356 0.44049
 N2185 N 0.71145 0.73011 0.45234
 C2186 C 0.72218 0.72254 0.46044
 N2187 N 0.72595 0.70818 0.45628
 N2188 N 0.71924 0.70165 0.44440
 C2189 C 0.70167 0.20244 -0.07779
 N2190 N 0.70686 0.18891 -0.08308
 N2191 N 0.70108 0.18285 -0.09569
 C2192 C 0.68988 0.19010 -0.10345
 N2193 N 0.68467 0.20361 -0.09814
 N2194 N 0.69049 0.20968 -0.08557
 C2195 C 0.70838 0.20938 -0.06418
 N2196 N 0.70428 0.22361 -0.05987
 N2197 N 0.71090 0.23025 -0.04800
 C2198 C 0.72177 0.22284 -0.03994
 N2199 N 0.72578 0.20857 -0.04414
 N2200 N 0.71918 0.20194 -0.05604
 C2201 C 0.20238 0.70156 -0.07750
 N2202 N 0.18864 0.70642 -0.08259
 N2203 N 0.18253 0.70050 -0.09510
 C2204 C 0.18993 0.68948 -0.10296
 N2205 N 0.20365 0.68459 -0.09785
 N2206 N 0.20978 0.69055 -0.08538
 C2207 C 0.20935 0.70838 -0.06397
 N2208 N 0.22373 0.70457 -0.05983
 N2209 N 0.23035 0.71125 -0.04799
 C2210 C 0.22277 0.72188 -0.03979
 N2211 N 0.20836 0.72562 -0.04382
 N2212 N 0.20175 0.71896 -0.05570
 C2213 C 0.20243 0.20149 0.42227
 N2214 N 0.18885 0.20664 0.41701
 N2215 N 0.18279 0.20085 0.40441
 C2216 C 0.19008 0.18970 0.39663
 N2217 N 0.20363 0.18454 0.40191
 N2218 N 0.20972 0.19036 0.41447
 C2219 C 0.20938 0.20815 0.43589
 N2220 N 0.22363 0.20404 0.44017
 N2221 N 0.23029 0.21060 0.45205
 C2222 C 0.22287 0.22139 0.46018
 N2223 N 0.20857 0.22544 0.45601
 N2224 N 0.20193 0.21890 0.44409
 C2225 C 0.29793 0.42236 0.70201
 N2226 N 0.29065 0.41482 0.69071
 N2227 N 0.29666 0.40229 0.68473
 C2228 C 0.31012 0.39677 0.68988
 N2229 N 0.31739 0.40428 0.70121
 N2230 N 0.31140 0.41685 0.70717
 C2231 C 0.29109 0.43598 0.70883
 N2232 N 0.29857 0.44389 0.71976
 N2233 N 0.29204 0.45580 0.72645
 C2234 C 0.27784 0.46025 0.72240
 N2235 N 0.27040 0.45243 0.71141
 N2236 N 0.27693 0.44055 0.70470
 C2237 C 0.29920 0.92266 0.20225
 N2238 N 0.31012 0.91462 0.20961
 N2239 N 0.31597 0.90210 0.20344
 C2240 C 0.31105 0.89711 0.18972
 N2241 N 0.30014 0.90515 0.18235
 N2242 N 0.29432 0.91770 0.18850
 C2243 C 0.29239 0.93615 0.20931
 N2244 N 0.28186 0.94455 0.20177
 N2245 N 0.27516 0.95636 0.20848
 C2246 C 0.27880 0.96019 0.22294
 N2247 N 0.28937 0.95186 0.23046
 N2248 N 0.29609 0.94008 0.22374
 C2249 C 0.79898 0.42266 0.20224
 N2250 N 0.80981 0.41458 0.20969
 N2251 N 0.81565 0.40203 0.20357
 C2252 C 0.81080 0.39705 0.18982
 N2253 N 0.79998 0.40514 0.18236
 N2254 N 0.79418 0.41772 0.18846
 C2255 C 0.79215 0.43618 0.20925
 N2256 N 0.78163 0.44454 0.20164
 N2257 N 0.77487 0.45635 0.20829
 C2258 C 0.77843 0.46021 0.22277
 N2259 N 0.78900 0.45192 0.23034
 N2260 N 0.79578 0.44015 0.22368
 C2261 C 0.79895 0.92281 0.70270
 N2262 N 0.80978 0.91469 0.71012
 N2263 N 0.81562 0.90215 0.70396
 C2264 C 0.81077 0.89721 0.69019
 N2265 N 0.79996 0.90534 0.68276
 N2266 N 0.79416 0.91792 0.68889
 C2267 C 0.79214 0.93634 0.70976
 N2268 N 0.78168 0.94479 0.70218
 N2269 N 0.77497 0.95660 0.70887
 C2270 C 0.77851 0.96039 0.72337
 N2271 N 0.78901 0.95200 0.73093
 N2272 N 0.79575 0.94022 0.72423
 C2273 C 0.70182 0.57752 0.70198
 N2274 N 0.70917 0.58521 0.69081
 N2275 N 0.70311 0.59771 0.68482
 C2276 C 0.68951 0.60305 0.68982
 N2277 N 0.68218 0.59540 0.70102
 N2278 N 0.68822 0.58285 0.70698
 C2279 C 0.70870 0.56392 0.70879
 N2280 N 0.70114 0.55584 0.71954
 N2281 N 0.70769 0.54392 0.72621
 C2282 C 0.72200 0.53965 0.72232
 N2283 N 0.72951 0.54765 0.71150
 N2284 N 0.72296 0.55953 0.70481
 C2285 C 0.70235 0.07744 0.20146
 N2286 N 0.70985 0.08544 0.19063
 N2287 N 0.70371 0.09791 0.18466
 C2288 C 0.68989 0.10291 0.18937
 N2289 N 0.68238 0.09493 0.20022
 N2290 N 0.68850 0.08241 0.20615
 C2291 C 0.70935 0.06390 0.20826
 N2292 N 0.70173 0.05547 0.21870
 N2293 N 0.70839 0.04359 0.22530
 C2294 C 0.72288 0.03970 0.22166
 N2295 N 0.73047 0.04807 0.21118
 N2296 N 0.72380 0.05992 0.20456
 C2297 C 0.20180 0.57769 0.20159
 N2298 N 0.18809 0.58286 0.20648
 N2299 N 0.18203 0.59542 0.20057
 C2300 C 0.18944 0.60324 0.18954
 N2301 N 0.20313 0.59804 0.18463
 N2302 N 0.20921 0.58553 0.19058
 C2303 C 0.20875 0.56412 0.20839
 N2304 N 0.22311 0.55996 0.20456
 N2305 N 0.22974 0.54811 0.21124
 C2306 C 0.22220 0.53993 0.22190
 N2307 N 0.20778 0.54398 0.22565
 N2308 N 0.20117 0.55586 0.21899
 C2309 C 0.20197 0.07720 0.70144
 N2310 N 0.18830 0.08239 0.70642
 N2311 N 0.18216 0.09491 0.70048
 C2312 C 0.18946 0.10267 0.68933
 N2313 N 0.20310 0.09746 0.68434
 N2314 N 0.20927 0.08499 0.69031
 C2315 C 0.20899 0.06367 0.70825
 N2316 N 0.22337 0.05955 0.70439
 N2317 N 0.23006 0.04772 0.71104
 C2318 C 0.22257 0.03950 0.72171
 N2319 N 0.20815 0.04350 0.72550
 N2320 N 0.20147 0.05537 0.71887
 C2321 C 0.29894 0.57735 0.29748
 N2322 N 0.29381 0.58256 0.31105
 N2323 N 0.29958 0.59517 0.31712
 C2324 C 0.31071 0.60300 0.30985
 N2325 N 0.31593 0.59772 0.29634
 N2326 N 0.31011 0.58515 0.29025
 C2327 C 0.29214 0.56384 0.29046
 N2328 N 0.29610 0.55969 0.27615
 N2329 N 0.28942 0.54789 0.26946
 C2330 C 0.27865 0.53974 0.27688
 N2331 N 0.27473 0.54381 0.29121
 N2332 N 0.28138 0.55564 0.29789
 C2333 C 0.29864 0.07734 0.79735
 N2334 N 0.29368 0.08237 0.81105
 N2335 N 0.29937 0.09501 0.81712
 C2336 C 0.31024 0.10308 0.80972
 N2337 N 0.31523 0.09802 0.79604
 N2338 N 0.30951 0.08542 0.78995
 C2339 C 0.29203 0.06369 0.79040
 N2340 N 0.29585 0.05964 0.77604
 N2341 N 0.28930 0.04773 0.76942
 C2342 C 0.27878 0.03936 0.77698
 N2343 N 0.27503 0.04332 0.79139
 N2344 N 0.28156 0.05526 0.79799
 C2345 C 0.79822 0.57746 0.79819
 N2346 N 0.81181 0.58278 0.79316
 N2347 N 0.81787 0.59530 0.79913
 C2348 C 0.81057 0.60293 0.81037
 N2349 N 0.79699 0.59760 0.81541
 N2350 N 0.79091 0.58512 0.80940
 C2351 C 0.79131 0.56389 0.79135
 N2352 N 0.77706 0.55952 0.79537
 N2353 N 0.77048 0.54766 0.78867
 C2354 C 0.77796 0.53968 0.77781
 N2355 N 0.79226 0.54394 0.77388
 N2356 N 0.79883 0.55582 0.78055
 C2357 C 0.79909 0.07724 0.29772
 N2358 N 0.79420 0.08233 0.31142
 N2359 N 0.79988 0.09502 0.31737
 C2360 C 0.81068 0.10308 0.30985
 N2361 N 0.81566 0.09792 0.29621
 N2362 N 0.80993 0.08526 0.29023
 C2363 C 0.79229 0.06367 0.29081
 N2364 N 0.79591 0.05964 0.27638
 N2365 N 0.78913 0.04785 0.26978
 C2366 C 0.77857 0.03959 0.27742
 N2367 N 0.77502 0.04353 0.29188
 N2368 N 0.78178 0.05536 0.29846
 C2369 C 0.70200 0.42241 0.29830
 N2370 N 0.68836 0.41718 0.29332
 N2371 N 0.68228 0.40466 0.29927
 C2372 C 0.68961 0.39694 0.31043
 N2373 N 0.70323 0.40219 0.31542
 N2374 N 0.70933 0.41467 0.30944
 C2375 C 0.70892 0.43597 0.29151
 N2376 N 0.72322 0.44021 0.29546
 N2377 N 0.72982 0.45209 0.28883
 C2378 C 0.72231 0.46023 0.27812
 N2379 N 0.70797 0.45609 0.27423
 N2380 N 0.70138 0.44417 0.28084
 C2381 C 0.70182 0.92266 0.79842
 N2382 N 0.68818 0.91743 0.79344
 N2383 N 0.68213 0.90488 0.79936
 C2384 C 0.68950 0.89713 0.81048
 N2385 N 0.70313 0.90237 0.81544
 N2386 N 0.70920 0.91487 0.80949
 C2387 C 0.70869 0.93628 0.79169
 N2388 N 0.72301 0.94052 0.79559
 N2389 N 0.72957 0.95243 0.78898
 C2390 C 0.72199 0.96061 0.77834
 N2391 N 0.70763 0.95649 0.77452
 N2392 N 0.70108 0.94454 0.78111
 C2393 C 0.20161 0.42236 0.79829
 N2394 N 0.18786 0.41725 0.79349
 N2395 N 0.18177 0.40475 0.79948
 C2396 C 0.18919 0.39692 0.81051
 N2397 N 0.20293 0.40205 0.81531
 N2398 N 0.20905 0.41450 0.80928
 C2399 C 0.20854 0.43591 0.79144
 N2400 N 0.22291 0.44009 0.79522
 N2401 N 0.22948 0.45196 0.78853
 C2402 C 0.22188 0.46015 0.77791
 N2403 N 0.20747 0.45608 0.77421
 N2404 N 0.20090 0.44419 0.78088
 C2405 C 0.20183 0.92254 0.29807
 N2406 N 0.18820 0.91730 0.29307
 N2407 N 0.18214 0.90475 0.29897
 C2408 C 0.18949 0.89700 0.31010
 N2409 N 0.20308 0.90227 0.31513
 N2410 N 0.20916 0.91478 0.30919
 C2411 C 0.20877 0.93608 0.29127
 N2412 N 0.22312 0.94024 0.29513
 N2413 N 0.22975 0.95209 0.28847
 C2414 C 0.22222 0.96027 0.27780
 N2415 N 0.20783 0.95621 0.27400
 N2416 N 0.20121 0.94433 0.28064
 C2417 C 0.42211 0.29862 0.70242
 N2418 N 0.41441 0.30993 0.70954
 N2419 N 0.40188 0.31581 0.70340
 C2420 C 0.39652 0.31053 0.68996
 N2421 N 0.40418 0.29919 0.68285
 N2422 N 0.41675 0.29334 0.68896
 C2423 C 0.43571 0.29189 0.70937
 N2424 N 0.44373 0.28094 0.70202
 N2425 N 0.45564 0.27433 0.70865
 C2426 C 0.45997 0.27847 0.72284
 N2427 N 0.45202 0.28948 0.73015
 N2428 N 0.44015 0.29611 0.72351
 C2429 C 0.42261 0.79834 0.20193
 N2430 N 0.41509 0.79110 0.19059
 N2431 N 0.40247 0.79703 0.18469
 C2432 C 0.39683 0.81037 0.18997
 N2433 N 0.40434 0.81763 0.20130
 N2434 N 0.41701 0.81173 0.20717
 C2435 C 0.43623 0.79151 0.20875
 N2436 N 0.44409 0.79891 0.21976
 N2437 N 0.45598 0.79235 0.22648
 C2438 C 0.46044 0.77817 0.22239
 N2439 N 0.45266 0.77081 0.21132
 N2440 N 0.44081 0.77739 0.20458
 C2441 C 0.92243 0.29899 0.20236
 N2442 N 0.91448 0.31000 0.20969
 N2443 N 0.90187 0.31578 0.20361
 C2444 C 0.89669 0.31070 0.19002
 N2445 N 0.90463 0.29970 0.18268
 N2446 N 0.91728 0.29396 0.18874
 C2447 C 0.93603 0.29226 0.20932
 N2448 N 0.94420 0.28150 0.20186
 N2449 N 0.95607 0.27484 0.20850
 C2450 C 0.96021 0.27874 0.22281
 N2451 N 0.95211 0.28955 0.23024
 N2452 N 0.94026 0.29623 0.22359
 C2453 C 0.92244 0.79916 0.70267
 N2454 N 0.91442 0.81010 0.71004
 N2455 N 0.90181 0.81587 0.70394
 C2456 C 0.89670 0.81084 0.69031
 N2457 N 0.90471 0.79992 0.68293
 N2458 N 0.91736 0.79418 0.68900
 C2459 C 0.93604 0.79245 0.70966
 N2460 N 0.94437 0.78184 0.70215
 N2461 N 0.95625 0.77521 0.70881
 C2462 C 0.96024 0.77900 0.72320
 N2463 N 0.95197 0.78965 0.73068
 N2464 N 0.94013 0.79630 0.72401
 C2465 C 0.57786 0.29801 0.29793
 N2466 N 0.58565 0.29062 0.30900
 N2467 N 0.59814 0.29670 0.31500
 C2468 C 0.60337 0.31035 0.31010
 N2469 N 0.59559 0.31774 0.29902
 N2470 N 0.58306 0.31169 0.29305
 C2471 C 0.56429 0.29110 0.29106
 N2472 N 0.55612 0.29867 0.28039
 N2473 N 0.54423 0.29211 0.27369
 C2474 C 0.54007 0.27776 0.27748
 N2475 N 0.54817 0.27022 0.28822
 N2476 N 0.56003 0.27680 0.29493
 C2477 C 0.57759 0.79835 0.79830
 N2478 N 0.58536 0.79100 0.80941
 N2479 N 0.59789 0.79706 0.81535
 C2480 C 0.60318 0.81066 0.81036
 N2481 N 0.59543 0.81800 0.79922
 N2482 N 0.58286 0.81196 0.79331
 C2483 C 0.56399 0.79144 0.79150
 N2484 N 0.55587 0.79893 0.78072
 N2485 N 0.54397 0.79234 0.77407
 C2486 C 0.53974 0.77806 0.77802
 N2487 N 0.54777 0.77061 0.78887
 N2488 N 0.55964 0.77721 0.79553
 C2489 C 0.07748 0.29801 0.79809
 N2490 N 0.08541 0.29051 0.80898
 N2491 N 0.09790 0.29660 0.81500
 C2492 C 0.10297 0.31037 0.81028
 N2493 N 0.09507 0.31786 0.79936
 N2494 N 0.08254 0.31180 0.79338
 C2495 C 0.06391 0.29111 0.79123
 N2496 N 0.05563 0.29876 0.78069
 N2497 N 0.04373 0.29221 0.77400
 C2498 C 0.03968 0.27780 0.77765
 N2499 N 0.04788 0.27019 0.78826
 N2500 N 0.05975 0.27675 0.79497
 C2501 C 0.07747 0.79815 0.29825
 N2502 N 0.08536 0.79079 0.30926
 N2503 N 0.09779 0.79697 0.31528
 C2504 C 0.10285 0.81071 0.31046
 N2505 N 0.09498 0.81808 0.29943
 N2506 N 0.08250 0.81192 0.29344
 C2507 C 0.06395 0.79112 0.29141
 N2508 N 0.05565 0.79863 0.28079
 N2509 N 0.04374 0.79198 0.27419
 C2510 C 0.03971 0.77761 0.27804
 N2511 N 0.04796 0.77013 0.28869
 N2512 N 0.05983 0.77679 0.29530
 C2513 C 0.57769 0.70219 0.70195
 N2514 N 0.58554 0.70954 0.69090
 N2515 N 0.59807 0.70343 0.68498
 C2516 C 0.60326 0.68978 0.68993
 N2517 N 0.59544 0.68244 0.70100
 N2518 N 0.58287 0.68853 0.70690
 C2519 C 0.56408 0.70914 0.70869
 N2520 N 0.55585 0.70164 0.71937
 N2521 N 0.54392 0.70826 0.72597
 C2522 C 0.53978 0.72259 0.72208
 N2523 N 0.54793 0.73005 0.71134
 N2524 N 0.55982 0.72342 0.70472
 C2525 C 0.57781 0.20149 0.20168
 N2526 N 0.58563 0.20892 0.19066
 N2527 N 0.59810 0.20281 0.18462
 C2528 C 0.60326 0.18910 0.18942
 N2529 N 0.59546 0.18168 0.20046
 N2530 N 0.58295 0.18776 0.20648
 C2531 C 0.56425 0.20841 0.20854
 N2532 N 0.55606 0.20082 0.21919
 N2533 N 0.54417 0.20740 0.22590
 C2534 C 0.54004 0.22177 0.22215
 N2535 N 0.54815 0.22932 0.21143
 N2536 N 0.56001 0.22273 0.20471
 C2537 C 0.07734 0.70202 0.20163
 N2538 N 0.08503 0.70926 0.19040
 N2539 N 0.09752 0.70313 0.18441
 C2540 C 0.10284 0.68959 0.18950
 N2541 N 0.09519 0.68235 0.20077
 N2542 N 0.08266 0.68846 0.20672
 C2543 C 0.06377 0.70898 0.20841
 N2544 N 0.05571 0.70160 0.21930
 N2545 N 0.04381 0.70825 0.22591
 C2546 C 0.03952 0.72248 0.22180
 N2547 N 0.04750 0.72981 0.21085
 N2548 N 0.05937 0.72316 0.20423
 C2549 C 0.07751 0.20164 0.70181
 N2550 N 0.08530 0.20904 0.69076
 N2551 N 0.09783 0.20299 0.68478
 C2552 C 0.10309 0.18935 0.68969
 N2553 N 0.09533 0.18196 0.70078
 N2554 N 0.08276 0.18799 0.70672
 C2555 C 0.06391 0.20851 0.70865
 N2556 N 0.05579 0.20095 0.71937
 N2557 N 0.04389 0.20751 0.72608
 C2558 C 0.03968 0.22184 0.72227
 N2559 N 0.04771 0.22936 0.71147
 N2560 N 0.05957 0.22279 0.70474
 C2561 C 0.42240 0.70181 0.29809
 N2562 N 0.41720 0.68814 0.29319
 N2563 N 0.40465 0.68209 0.29914
 C2564 C 0.39686 0.68947 0.31023
 N2565 N 0.40210 0.70309 0.31516
 N2566 N 0.41461 0.70917 0.30917
 C2567 C 0.43597 0.70874 0.29123
 N2568 N 0.44021 0.72304 0.29510
 N2569 N 0.45209 0.72963 0.28841
 C2570 C 0.46023 0.72210 0.27771
 N2571 N 0.45611 0.70775 0.27392
 N2572 N 0.44419 0.70117 0.28058
 C2573 C 0.42207 0.20100 0.79755
 N2574 N 0.41403 0.19017 0.79008
 N2575 N 0.40147 0.18429 0.79619
 C2576 C 0.39645 0.18909 0.80995
 N2577 N 0.40449 0.19991 0.81742
 N2578 N 0.41708 0.20575 0.81134
 C2579 C 0.43565 0.20780 0.79060
 N2580 N 0.44398 0.21831 0.79822
 N2581 N 0.45585 0.22501 0.79162
 C2582 C 0.45984 0.22139 0.77718
 N2583 N 0.45157 0.21083 0.76959
 N2584 N 0.43973 0.20412 0.77620
 C2585 C 0.92227 0.70207 0.79826
 N2586 N 0.91436 0.70946 0.80924
 N2587 N 0.90185 0.70334 0.81519
 C2588 C 0.89674 0.68965 0.81031
 N2589 N 0.90462 0.68226 0.79930
 N2590 N 0.91716 0.68836 0.79339
 C2591 C 0.93585 0.70901 0.79148
 N2592 N 0.94420 0.70140 0.78097
 N2593 N 0.95611 0.70800 0.77433
 C2594 C 0.96009 0.72242 0.77801
 N2595 N 0.95181 0.72999 0.78858
 N2596 N 0.93995 0.72338 0.79525
 C2597 C 0.92230 0.20123 0.29751
 N2598 N 0.91714 0.20623 0.31115
 N2599 N 0.90459 0.20035 0.31727
 C2600 C 0.89677 0.18924 0.30999
 N2601 N 0.90195 0.18422 0.29637
 N2602 N 0.91446 0.19014 0.29022
 C2603 C 0.93585 0.20805 0.29052
 N2604 N 0.94010 0.20412 0.27624
 N2605 N 0.95195 0.21081 0.26961
 C2606 C 0.96004 0.22159 0.27708
 N2607 N 0.95588 0.22546 0.29139
 N2608 N 0.94400 0.21879 0.29801
 C2609 C 0.29818 0.29805 0.57746
 N2610 N 0.29291 0.31150 0.58289
 N2611 N 0.29878 0.31753 0.59546
 C2612 C 0.31014 0.31035 0.60304
 N2613 N 0.31543 0.29692 0.59759
 N2614 N 0.30952 0.29087 0.58506
 C2615 C 0.29142 0.29117 0.56387
 N2616 N 0.29564 0.27703 0.55936
 N2617 N 0.28898 0.27045 0.54749
 C2618 C 0.27795 0.27783 0.53962
 N2619 N 0.27381 0.29201 0.54401
 N2620 N 0.28045 0.29857 0.55592
 C2621 C 0.29874 0.79794 0.07746
 N2622 N 0.29383 0.81164 0.08255
 N2623 N 0.29971 0.81774 0.09509
 C2624 C 0.31075 0.81036 0.10296
 N2625 N 0.31567 0.79667 0.09785
 N2626 N 0.30975 0.79055 0.08536
 C2627 C 0.29198 0.79100 0.06390
 N2628 N 0.29583 0.77665 0.05976
 N2629 N 0.28919 0.77005 0.04790
 C2630 C 0.27856 0.77760 0.03967
 N2631 N 0.27479 0.79199 0.04369
 N2632 N 0.28141 0.79859 0.05559
 C2633 C 0.79862 0.29828 0.07720
 N2634 N 0.79363 0.31192 0.08238
 N2635 N 0.79956 0.31802 0.09489
 C2636 C 0.81072 0.31072 0.10264
 N2637 N 0.81573 0.29709 0.09745
 N2638 N 0.80976 0.29096 0.08499
 C2639 C 0.79182 0.29133 0.06366
 N2640 N 0.79571 0.27702 0.05947
 N2641 N 0.78902 0.27041 0.04763
 C2642 C 0.77830 0.27794 0.03949
 N2643 N 0.77449 0.29231 0.04357
 N2644 N 0.78116 0.29890 0.05545
 C2645 C 0.79848 0.79842 0.57755
 N2646 N 0.80967 0.79112 0.58527
 N2647 N 0.81566 0.79723 0.59773
 C2648 C 0.81063 0.81083 0.60299
 N2649 N 0.79941 0.81811 0.59530
 N2650 N 0.79345 0.81203 0.58280
 C2651 C 0.79163 0.79152 0.56401
 N2652 N 0.78086 0.79906 0.55593
 N2653 N 0.77414 0.79250 0.54407
 C2654 C 0.77800 0.77819 0.53986
 N2655 N 0.78884 0.77068 0.54786
 N2656 N 0.79559 0.77726 0.55969
 C2657 C 0.29867 0.70198 0.42243
 N2658 N 0.30971 0.70935 0.41457
 N2659 N 0.31556 0.70330 0.40199
 C2660 C 0.31052 0.68970 0.39677
 N2661 N 0.29951 0.68231 0.40465
 N2662 N 0.29369 0.68834 0.41726
 C2663 C 0.29183 0.70895 0.43596
 N2664 N 0.28109 0.70146 0.44414
 N2665 N 0.27440 0.70811 0.45598
 C2666 C 0.27824 0.72245 0.46007
 N2667 N 0.28901 0.72992 0.45195
 N2668 N 0.29572 0.72327 0.44014
 C2669 C 0.29765 0.20108 0.92266
 N2670 N 0.31130 0.20604 0.91743
 N2671 N 0.31739 0.20010 0.90492
 C2672 C 0.31007 0.18895 0.89719
 N2673 N 0.29643 0.18397 0.90243
 N2674 N 0.29031 0.18996 0.91490
 C2675 C 0.29072 0.20790 0.93620
 N2676 N 0.27639 0.20404 0.94044
 N2677 N 0.26979 0.21073 0.95229
 C2678 C 0.27734 0.22143 0.96041
 N2679 N 0.29171 0.22522 0.95628
 N2680 N 0.29830 0.21855 0.94439
 C2681 C 0.79822 0.70198 0.92247
 N2682 N 0.79314 0.68843 0.91715
 N2683 N 0.79899 0.68243 0.90455
 C2684 C 0.81015 0.68976 0.89681
 N2685 N 0.81525 0.70329 0.90215
 N2686 N 0.80936 0.70931 0.91472
 C2687 C 0.79143 0.70884 0.93609
 N2688 N 0.79541 0.72307 0.94046
 N2689 N 0.78869 0.72962 0.95233
 C2690 C 0.77783 0.72212 0.96031
 N2691 N 0.77395 0.70784 0.95605
 N2692 N 0.78065 0.70130 0.94416
 C2693 C 0.79873 0.20168 0.42273
 N2694 N 0.79367 0.18810 0.41748
 N2695 N 0.79955 0.18204 0.40492
 C2696 C 0.81073 0.18933 0.39718
 N2697 N 0.81584 0.20287 0.40247
 N2698 N 0.80992 0.20895 0.41499
 C2699 C 0.79188 0.20866 0.43624
 N2700 N 0.79586 0.22292 0.44050
 N2701 N 0.78913 0.22959 0.45229
 C2702 C 0.77827 0.22217 0.46032
 N2703 N 0.77434 0.20786 0.45616
 N2704 N 0.78105 0.20121 0.44434
 C2705 C 0.70185 0.29771 0.42229
 N2706 N 0.69071 0.29040 0.41452
 N2707 N 0.68486 0.29643 0.40194
 C2708 C 0.68999 0.30995 0.39660
 N2709 N 0.70114 0.31726 0.40435
 N2710 N 0.70696 0.31125 0.41697
 C2711 C 0.70859 0.29083 0.43591
 N2712 N 0.71938 0.29833 0.44400
 N2713 N 0.72602 0.29177 0.45592
 C2714 C 0.72206 0.27751 0.46019
 N2715 N 0.71121 0.27004 0.45218
 N2716 N 0.70455 0.27661 0.44029
 C2717 C 0.70173 0.79809 0.92254
 N2718 N 0.70682 0.81163 0.91721
 N2719 N 0.70097 0.81764 0.90461
 C2720 C 0.68980 0.81033 0.89690
 N2721 N 0.68468 0.79681 0.90225
 N2722 N 0.69057 0.79078 0.91481
 C2723 C 0.70851 0.79122 0.93616
 N2724 N 0.70453 0.77699 0.94055
 N2725 N 0.71125 0.77043 0.95241
 C2726 C 0.72210 0.77793 0.96039
 N2727 N 0.72599 0.79221 0.95612
 N2728 N 0.71929 0.79875 0.94423
 C2729 C 0.20147 0.29758 0.92249
 N2730 N 0.20653 0.31117 0.91722
 N2731 N 0.20073 0.31717 0.90459
 C2732 C 0.18965 0.30981 0.89678
 N2733 N 0.18456 0.29626 0.90208
 N2734 N 0.19040 0.29023 0.91467
 C2735 C 0.20821 0.29069 0.93611
 N2736 N 0.20430 0.27639 0.94035
 N2737 N 0.21096 0.26980 0.95221
 C2738 C 0.22169 0.27731 0.96034
 N2739 N 0.22552 0.29165 0.95621
 N2740 N 0.21887 0.29823 0.94431
 C2741 C 0.20154 0.79800 0.42227
 N2742 N 0.20646 0.81166 0.41707
 N2743 N 0.20056 0.81770 0.40451
 C2744 C 0.18952 0.81031 0.39669
 N2745 N 0.18457 0.79667 0.40190
 N2746 N 0.19050 0.79061 0.41444
 C2747 C 0.20838 0.79109 0.43584
 N2748 N 0.20450 0.77680 0.44014
 N2749 N 0.21123 0.77024 0.45199
 C2750 C 0.22200 0.77778 0.46005
 N2751 N 0.22580 0.79211 0.45586
 N2752 N 0.21909 0.79866 0.44398
 C2753 C 0.70192 0.70233 0.57785
 N2754 N 0.69078 0.70967 0.58562
 N2755 N 0.68488 0.70361 0.59817
 C2756 C 0.68995 0.69005 0.60347
 N2757 N 0.70110 0.68271 0.59571
 N2758 N 0.70696 0.68874 0.58312
 C2759 C 0.70871 0.70921 0.56424
 N2760 N 0.71943 0.70165 0.55611
 N2761 N 0.72611 0.70819 0.54420
 C2762 C 0.72226 0.72251 0.53999
 N2763 N 0.71146 0.73004 0.54804
 N2764 N 0.70476 0.72348 0.55992
 C2765 C 0.70275 0.20162 0.07751
 N2766 N 0.68913 0.20666 0.08275
 N2767 N 0.68309 0.20084 0.09535
 C2768 C 0.69045 0.18975 0.10316
 N2769 N 0.70404 0.18467 0.09788
 N2770 N 0.71010 0.19053 0.08532
 C2771 C 0.70969 0.20834 0.06391
 N2772 N 0.72400 0.20438 0.05969
 N2773 N 0.73063 0.21099 0.04781
 C2774 C 0.72313 0.22169 0.03964
 N2775 N 0.70877 0.22559 0.04376
 N2776 N 0.70216 0.21901 0.05567
 C2777 C 0.20233 0.70181 0.07762
 N2778 N 0.18869 0.70684 0.08283
 N2779 N 0.18261 0.70098 0.09540
 C2780 C 0.18995 0.68988 0.10320
 N2781 N 0.20357 0.68483 0.09797
 N2782 N 0.20967 0.69072 0.08544
 C2783 C 0.20928 0.70858 0.06404
 N2784 N 0.22362 0.70468 0.05985
 N2785 N 0.23024 0.71132 0.04798
 C2786 C 0.22271 0.72200 0.03980
 N2787 N 0.20833 0.72583 0.04389
 N2788 N 0.20173 0.71921 0.05579
 C2789 C 0.20159 0.20221 0.57758
 N2790 N 0.19044 0.20950 0.58537
 N2791 N 0.18457 0.20340 0.59791
 C2792 C 0.18969 0.18984 0.60317
 N2793 N 0.20085 0.18255 0.59539
 N2794 N 0.20668 0.18862 0.58281
 C2795 C 0.20833 0.20915 0.56398
 N2796 N 0.21908 0.20166 0.55581
 N2797 N 0.22569 0.20827 0.54391
 C2798 C 0.22175 0.22257 0.53974
 N2799 N 0.21095 0.23003 0.54784
 N2800 N 0.20431 0.22342 0.55971
   
